
#######################################################################
#
#                 Cambridge Crystallographic Data Centre
#                                CCDC 
#
#######################################################################
#
# If this CIF has been generated from an entry in the Cambridge 
# Structural Database, then it will include bibliographic, chemical, 
# crystal, experimental, refinement or atomic coordinate data resulting 
# from the CCDC's data processing and validation procedures.
#
#######################################################################

data_SESYOF
_chemical_formula_moiety         'C22 H19 N5 O6'
_chemical_name_systematic        
'3-Benzotriazol-1-yl 5-methyl 2,6-dimethyl-4-(p-nitrophenyl)-1,4-dihydropyridine-3,5-dicarboxylate'
_symmetry_cell_setting           triclinic
_symmetry_space_group_name_H-M   'P -1'
_symmetry_Int_Tables_number      2
_space_group_name_Hall           '-P 1'
loop_
_symmetry_equiv_pos_site_id
_symmetry_equiv_pos_as_xyz
1 x,y,z
2 -x,-y,-z
_cell_length_a                   10.318(2)
_cell_length_b                   10.751(2)
_cell_length_c                   11.491(2)
_cell_angle_alpha                64.37(3)
_cell_angle_beta                 76.09(3)
_cell_angle_gamma                68.77(3)
_cell_volume                     1065.93
_exptl_crystal_colour            yellow
_exptl_crystal_description       block
_chemical_melting_point          '490-491 K'
_cell_formula_units_Z            2
_exptl_crystal_recrystallization_method 'ethyl acetate'
loop_
_atom_site_label
_atom_site_type_symbol
_atom_site_fract_x
_atom_site_fract_y
_atom_site_fract_z
O1 O 0.0592(2) 0.96439(19) -0.2114(2)
O2 O 0.0151(3) 0.7573(2) -0.1349(3)
O5 O -0.2627(12) 0.5865(12) 0.5530(10)
O6 O -0.3286(10) 0.4729(13) 0.4724(9)
O7 O 0.5048(2) 0.31643(17) 0.19907(18)
O8 O 0.3018(2) 0.33212(16) 0.14098(19)
N1 N 0.3413(2) 0.7793(2) 0.0730(2)
H1 H 0.387(3) 0.825(3) 0.085(3)
N2 N -0.2478(3) 0.5351(3) 0.4725(3)
N3 N 0.3498(2) 0.1843(2) 0.1837(2)
N4 N 0.3877(2) 0.1232(2) 0.0964(2)
N5 N 0.4145(2) -0.0166(2) 0.1624(2)
C1 C 0.2425(3) 0.8502(2) -0.0147(2)
C2 C 0.1735(3) 0.7743(2) -0.0301(2)
C3 C 0.1923(3) 0.6155(2) 0.0575(2)
H2 H 0.1907 0.5653 0.0044
C4 C 0.3337(3) 0.5479(2) 0.1111(2)
C5 C 0.3984(3) 0.6316(2) 0.1237(2)
C6 C 0.5279(3) 0.5798(3) 0.1884(3)
H3 H 0.5584 0.6607 0.1723
H4 H 0.5999 0.5142 0.1544
H5 H 0.5087 0.5312 0.2802
C7 C 0.2283(3) 1.0090(2) -0.0835(3)
H6 H 0.2865 1.0254 -0.1644
H7 H 0.2566 1.0411 -0.0302
H8 H 0.1327 1.0617 -0.0998
C8 C 0.0766(3) 0.8286(3) -0.1277(3)
C9 C -0.0323(4) 1.0128(4) -0.3108(4)
H9 H -0.0077 0.9415 -0.3477
H10 H -0.0221 1.1024 -0.3775
H11 H -0.1275 1.0267 -0.2728
C10 C 0.0737(3) 0.5973(2) 0.1656(2)
C11 C 0.0425(3) 0.6650(3) 0.2520(3)
H12 H 0.0944 0.7245 0.2422
C12 C -0.0624(3) 0.6469(3) 0.3515(3)
H13 H -0.0824 0.6937 0.4082
C13 C -0.1373(3) 0.5576(3) 0.3650(3)
C14 C -0.1100(3) 0.4880(3) 0.2829(3)
H14 H -0.1612 0.4274 0.2942
C15 C -0.0046(3) 0.5094(3) 0.1823(3)
H15 H 0.0137 0.4636 0.1250
C16 C 0.3963(3) 0.3934(2) 0.1560(2)
C17 C 0.3483(3) 0.0875(3) 0.3080(3)
C18 C 0.3153(4) 0.0979(3) 0.4279(3)
H16 H 0.2858 0.1858 0.4376
C19 C 0.3295(5) -0.0318(4) 0.5316(3)
H17 H 0.3096 -0.0322 0.6151
C20 C 0.3722(4) -0.1616(4) 0.5161(4)
H18 H 0.3788 -0.2460 0.5898
C21 C 0.4045(4) -0.1716(3) 0.3998(3)
H19 H 0.4336 -0.2601 0.3913
C22 C 0.3921(3) -0.0417(2) 0.2919(3)
O3? O -0.294(2) 0.6164(17) 0.5304(19)
O4? O -0.267(2) 0.4134(16) 0.5169(17)
loop_
_geom_bond_atom_site_label_1
_geom_bond_atom_site_label_2
_geom_bond_site_symmetry_1
_geom_bond_site_symmetry_2
O1 C8 1_555 1_555
O2 C8 1_555 1_555
O5 N2 1_555 1_555
O6 N2 1_555 1_555
O7 C16 1_555 1_555
O8 N3 1_555 1_555
N1 H1 1_555 1_555
N2 C13 1_555 1_555
N3 N4 1_555 1_555
N4 N5 1_555 1_555
N5 C22 1_555 1_555
C1 N1 1_555 1_555
C2 C1 1_555 1_555
C3 C2 1_555 1_555
H2 C3 1_555 1_555
C4 C3 1_555 1_555
C5 N1 1_555 1_555
C6 C5 1_555 1_555
H3 C6 1_555 1_555
H4 C6 1_555 1_555
H5 C6 1_555 1_555
C7 C1 1_555 1_555
H6 C7 1_555 1_555
H7 C7 1_555 1_555
H8 C7 1_555 1_555
C8 C2 1_555 1_555
C9 O1 1_555 1_555
H9 C9 1_555 1_555
H10 C9 1_555 1_555
H11 C9 1_555 1_555
C10 C3 1_555 1_555
C11 C10 1_555 1_555
H12 C11 1_555 1_555
C12 C11 1_555 1_555
H13 C12 1_555 1_555
C13 C12 1_555 1_555
C14 C13 1_555 1_555
H14 C14 1_555 1_555
C15 C10 1_555 1_555
H15 C15 1_555 1_555
C16 O8 1_555 1_555
C17 N3 1_555 1_555
C18 C17 1_555 1_555
H16 C18 1_555 1_555
C19 C18 1_555 1_555
H17 C19 1_555 1_555
C20 C19 1_555 1_555
H18 C20 1_555 1_555
C21 C20 1_555 1_555
H19 C21 1_555 1_555
C22 C17 1_555 1_555
C4 C5 1_555 1_555
C4 C16 1_555 1_555
C14 C15 1_555 1_555
C21 C22 1_555 1_555

#END
