
#######################################################################
#
#                 Cambridge Crystallographic Data Centre
#                                CCDC 
#
#######################################################################
#
# If this CIF has been generated from an entry in the Cambridge 
# Structural Database, then it will include bibliographic, chemical, 
# crystal, experimental, refinement or atomic coordinate data resulting 
# from the CCDC's data processing and validation procedures.
#
#######################################################################

data_SESZEW
_chemical_name_common            'Ciprofloxacin methanol solvate'
_chemical_formula_moiety         'C17 H18 F1 N3 O3,0.5(C1 H4 O1)'
_chemical_name_systematic        
'1-Cyclopropyl-6-fluoro-4-oxo-7-(piperazin-4-ium-1-yl)-1,4-dihydroquinoline-3-carboxylate methanol solvate'
_chemical_properties_biological  
'Ciprofloxacin is a broad-spectrum oral antibiotic'
_symmetry_cell_setting           monoclinic
_symmetry_space_group_name_H-M   'C 2/c'
_symmetry_Int_Tables_number      15
_space_group_name_Hall           '-C 2yn'
loop_
_symmetry_equiv_pos_site_id
_symmetry_equiv_pos_as_xyz
1 x,y,z
2 1/2+x,1/2+y,z
3 -x,y,1/2-z
4 1/2-x,1/2+y,1/2-z
5 -x,-y,-z
6 1/2-x,1/2-y,-z
7 x,-y,1/2+z
8 1/2+x,1/2-y,1/2+z
_cell_length_a                   26.036(11)
_cell_length_b                   12.697(5)
_cell_length_c                   10.235(4)
_cell_angle_alpha                90
_cell_angle_beta                 100.941(7)
_cell_angle_gamma                90
_cell_volume                     3321.98
_exptl_crystal_colour            colorless
_exptl_crystal_description       needle
_cell_formula_units_Z            8
loop_
_atom_site_label
_atom_site_type_symbol
_atom_site_fract_x
_atom_site_fract_y
_atom_site_fract_z
O4 O -0.01072(14) 0.0755(3) -0.1677(4)
H19 H -0.0209 0.1114 -0.1110
C18 C 0.0001(11) 0.1404(5) -0.2681(13)
O4B O 0.01072(14) 0.0755(3) -0.3323(4)
H19B H 0.0209 0.1114 -0.3890
C18B C -0.0001(11) 0.1404(5) -0.2319(13)
F1 F 0.31322(3) 0.30371(7) 0.17111(9)
O1 O -0.01072(4) 0.22152(9) 0.06628(13)
O2 O 0.02182(4) 0.38496(7) 0.08540(11)
O3 O 0.12327(4) 0.36614(8) 0.01847(10)
N1 N 0.13471(4) 0.12707(8) 0.29290(11)
N2 N 0.32619(4) 0.15634(9) 0.36645(11)
N3 N 0.42473(4) 0.06580(9) 0.48346(12)
H1 H 0.4582 0.0768 0.5235
H2 H 0.4192 -0.0042 0.4782
C1 C 0.13796(5) 0.03814(11) 0.38372(15)
H3 H 0.1485 -0.0289 0.3495
C2 C 0.10033(7) 0.03035(15) 0.47579(18)
H4 H 0.0880 -0.0392 0.4941
H5 H 0.0748 0.0862 0.4732
C3 C 0.15640(7) 0.05633(15) 0.52964(16)
H6 H 0.1780 0.0024 0.5802
H7 H 0.1647 0.1280 0.5593
C4 C 0.18026(5) 0.17178(10) 0.26491(13)
C5 C 0.08739(5) 0.16224(10) 0.22787(14)
H8 H 0.0577 0.1281 0.2442
C6 C 0.08065(5) 0.24431(10) 0.14029(14)
C7 C 0.02596(5) 0.28519(11) 0.09177(15)
C8 C 0.12511(5) 0.29326(10) 0.10155(13)
C9 C 0.17597(5) 0.25132(10) 0.16800(13)
C10 C 0.22188(5) 0.29428(11) 0.13676(14)
H9 H 0.2197 0.3465 0.0722
C11 C 0.26926(5) 0.25971(11) 0.20052(14)
C12 C 0.27531(5) 0.18160(11) 0.30065(14)
C13 C 0.33232(5) 0.10545(11) 0.49636(14)
H10 H 0.3221 0.0320 0.4857
H11 H 0.3102 0.1397 0.5500
C14 C 0.38936(5) 0.11393(11) 0.56417(14)
H12 H 0.3984 0.1876 0.5794
H13 H 0.3942 0.0791 0.6500
C15 C 0.41588(5) 0.11097(12) 0.34772(15)
H14 H 0.4369 0.0732 0.2943
H15 H 0.4268 0.1841 0.3523
C16 C 0.35877(5) 0.10385(12) 0.28255(15)
H16 H 0.3534 0.1372 0.1958
H17 H 0.3486 0.0305 0.2702
C17 C 0.23015(5) 0.13762(11) 0.33074(13)
H18 H 0.2328 0.0851 0.3950
H20? H -0.0313 0.1514 -0.3330
H21? H 0.0260 0.1078 -0.3099
H22? H 0.0129 0.2069 -0.2309
loop_
_geom_bond_atom_site_label_1
_geom_bond_atom_site_label_2
_geom_bond_site_symmetry_1
_geom_bond_site_symmetry_2
F1 C11 1_555 1_555
O1 C7 1_555 1_555
O2 C7 1_555 1_555
O3 C8 1_555 1_555
N1 C1 1_555 1_555
N2 C12 1_555 1_555
N3 H1 1_555 1_555
H2 N3 1_555 1_555
C1 H3 1_555 1_555
C2 C1 1_555 1_555
H4 C2 1_555 1_555
H5 C2 1_555 1_555
C3 C1 1_555 1_555
H6 C3 1_555 1_555
H7 C3 1_555 1_555
C4 N1 1_555 1_555
C5 N1 1_555 1_555
H8 C5 1_555 1_555
C6 C5 1_555 1_555
C7 C6 1_555 1_555
C8 C6 1_555 1_555
C9 C4 1_555 1_555
C10 C9 1_555 1_555
H9 C10 1_555 1_555
C11 C10 1_555 1_555
C12 C11 1_555 1_555
C13 N2 1_555 1_555
H10 C13 1_555 1_555
H11 C13 1_555 1_555
C14 N3 1_555 1_555
H12 C14 1_555 1_555
H13 C14 1_555 1_555
C15 N3 1_555 1_555
H14 C15 1_555 1_555
H15 C15 1_555 1_555
C16 N2 1_555 1_555
H16 C16 1_555 1_555
H17 C16 1_555 1_555
C17 C4 1_555 1_555
H18 C17 1_555 1_555
O4 H19 1_555 1_555
C18 O4 1_555 1_555
O4B C18 1_555 1_555
H19B O4B 1_555 1_555
C18B O4 1_555 1_555
C2 C3 1_555 1_555
C8 C9 1_555 1_555
C12 C17 1_555 1_555
C13 C14 1_555 1_555
C15 C16 1_555 1_555
C18 C18B 1_555 1_555
O4B C18B 1_555 1_555

#END
