
#######################################################################
#
#                 Cambridge Crystallographic Data Centre
#                                CCDC 
#
#######################################################################
#
# If this CIF has been generated from an entry in the Cambridge 
# Structural Database, then it will include bibliographic, chemical, 
# crystal, experimental, refinement or atomic coordinate data resulting 
# from the CCDC's data processing and validation procedures.
#
#######################################################################

data_SETBOL
_chemical_formula_moiety         'C104 H88,5(C1 H1 Cl3)'
_chemical_name_systematic        
"9,9'-(ethene-1,2-diylidene)bis[1,4-bis(4-t-butylphenyl)-2,3-diphenyl-9H-tribenzo[a,c,e][7]annulene] chloroform solvate"
_symmetry_cell_setting           orthorhombic
_symmetry_space_group_name_H-M   'P 21 21 21'
_symmetry_Int_Tables_number      19
_space_group_name_Hall           'P 2ac 2ab'
loop_
_symmetry_equiv_pos_site_id
_symmetry_equiv_pos_as_xyz
1 x,y,z
2 1/2-x,-y,1/2+z
3 1/2+x,1/2-y,-z
4 -x,1/2+y,1/2-z
_cell_length_a                   11.3561(10)
_cell_length_b                   27.561(3)
_cell_length_c                   31.571(3)
_cell_angle_alpha                90
_cell_angle_beta                 90
_cell_angle_gamma                90
_cell_volume                     9881.26
_exptl_crystal_colour            'pale yellow'
_exptl_crystal_description       'irregular block'
_cell_formula_units_Z            4
loop_
_atom_site_label
_atom_site_type_symbol
_atom_site_fract_x
_atom_site_fract_y
_atom_site_fract_z
Cl1 Cl 0.4111(3) 0.99930(11) 0.39113(10)
Cl2 Cl 0.2210(4) 1.00111(13) 0.33140(13)
Cl3 Cl 0.4657(6) 1.01101(18) 0.30374(13)
C1 C 0.3610(16) 1.0235(5) 0.3446(5)
H1 H 0.355130 1.059504 0.348109
C2 C 0.2332(6) 0.0692(2) 0.5001(2)
C3 C 0.2492(6) 0.0976(3) 0.4602(2)
C4 C 0.3213(6) 0.1391(2) 0.4595(2)
C5 C 0.4080(7) 0.1478(2) 0.4932(2)
C6 C 0.3752(6) 0.1482(2) 0.5366(2)
C7 C 0.2492(6) 0.1407(3) 0.5483(2)
C8 C 0.1895(6) 0.0990(2) 0.5353(2)
C9 C 0.1791(6) 0.0860(3) 0.4251(2)
H2 H 0.134602 0.056818 0.425220
C10 C 0.1738(7) 0.1163(3) 0.3902(2)
H3 H 0.126194 0.108078 0.366487
C11 C 0.2391(8) 0.1589(3) 0.3904(2)
H4 H 0.232944 0.180667 0.367097
C12 C 0.3117(6) 0.1702(3) 0.4233(2)
H5 H 0.356940 0.199156 0.422188
C13 C 0.0756(7) 0.0892(3) 0.5522(2)
H6 H 0.035172 0.060368 0.544341
C14 C 0.0240(8) 0.1216(3) 0.5798(3)
H7 H -0.051341 0.114572 0.591384
C15 C 0.0804(7) 0.1638(3) 0.5908(2)
H8 H 0.042239 0.186895 0.608365
C16 C 0.1938(7) 0.1726(3) 0.5759(2)
H9 H 0.234225 0.200933 0.584907
C17 C 0.5270(6) 0.1569(2) 0.4823(2)
C18 C 0.6126(6) 0.1637(2) 0.5142(2)
C19 C 0.5795(7) 0.1618(2) 0.5574(2)
C20 C 0.4594(6) 0.1545(2) 0.5676(2)
C21 C 0.5661(6) 0.1581(3) 0.4369(2)
C22 C 0.5629(7) 0.1181(3) 0.4113(2)
H10 H 0.536021 0.088176 0.422637
C23 C 0.5976(7) 0.1199(3) 0.3694(2)
H11 H 0.591126 0.091552 0.352423
C24 C 0.6422(7) 0.1627(3) 0.3513(2)
C25 C 0.6433(8) 0.2042(3) 0.3784(2)
H12 H 0.667956 0.234568 0.367260
C26 C 0.6100(7) 0.2012(3) 0.4196(2)
H13 H 0.616669 0.229081 0.437169
C27 C 0.7390(7) 0.1692(3) 0.5018(2)
C28 C 0.8010(7) 0.1292(3) 0.4871(2)
H14 H 0.764627 0.098143 0.487862
C29 C 0.9146(8) 0.1333(3) 0.4713(3)
H15 H 0.954049 0.105725 0.460123
C30 C 0.9706(8) 0.1787(3) 0.4720(2)
H16 H 1.049719 0.181849 0.462567
C31 C 0.9093(7) 0.2191(3) 0.4865(2)
H17 H 0.946073 0.250069 0.486493
C32 C 0.7948(7) 0.2143(3) 0.5011(2)
H18 H 0.753565 0.242196 0.510664
C33 C 0.6695(6) 0.1642(3) 0.5918(2)
C34 C 0.7255(7) 0.2068(3) 0.6023(2)
H19 H 0.710898 0.235338 0.586239
C35 C 0.8023(7) 0.2086(3) 0.6359(2)
H20 H 0.840773 0.238115 0.642834
C36 C 0.8238(8) 0.1667(4) 0.6599(2)
H21 H 0.877225 0.167979 0.683017
C37 C 0.7688(8) 0.1244(4) 0.6503(2)
H22 H 0.783149 0.096072 0.666714
C38 C 0.6913(7) 0.1230(3) 0.6163(2)
H23 H 0.652431 0.093438 0.609596
C39 C 0.4268(6) 0.1526(3) 0.6129(2)
C40 C 0.4428(7) 0.1926(3) 0.6401(2)
H24 H 0.473850 0.221956 0.629056
C41 C 0.4141(7) 0.1897(3) 0.6828(2)
H25 H 0.427187 0.217133 0.700467
C42 C 0.3672(7) 0.1482(3) 0.7001(3)
C43 C 0.3473(7) 0.1084(3) 0.6736(2)
H26 H 0.313748 0.079501 0.684789
C44 C 0.3762(6) 0.1109(3) 0.6311(2)
H27 H 0.361479 0.083531 0.613620
C45 C 0.2398(6) 0.0216(3) 0.5006(2)
C46 C 0.2469(6) -0.0242(3) 0.5016(2)
C47 C 0.2554(6) -0.0729(3) 0.5015(2)
C48 C 0.2776(6) -0.1001(2) 0.4611(2)
C49 C 0.3539(6) -0.1401(3) 0.4610(2)
C50 C 0.4419(6) -0.1476(2) 0.4953(2)
C51 C 0.4080(6) -0.1491(2) 0.5381(2)
C52 C 0.2809(6) -0.1445(3) 0.5500(2)
C53 C 0.2143(7) -0.1036(2) 0.5367(2)
C54 C 0.1037(7) -0.0955(3) 0.5541(3)
H28 H 0.061389 -0.067012 0.546762
C55 C 0.0548(7) -0.1282(3) 0.5818(2)
H29 H -0.020349 -0.122013 0.593908
C56 C 0.1156(7) -0.1707(3) 0.5923(3)
H30 H 0.079777 -0.194647 0.609702
C57 C 0.2274(6) -0.1774(3) 0.5772(2)
H31 H 0.269852 -0.205518 0.585575
C58 C 0.2105(7) -0.0890(3) 0.4258(2)
H32 H 0.162885 -0.060613 0.425663
C59 C 0.2126(7) -0.1193(3) 0.3906(2)
H33 H 0.167789 -0.111280 0.366158
C60 C 0.2802(7) -0.1612(3) 0.3911(2)
H34 H 0.278119 -0.183161 0.367881
C61 C 0.3501(7) -0.1705(3) 0.4256(2)
H35 H 0.398019 -0.198737 0.425379
C62 C 0.5612(6) -0.1540(2) 0.4850(2)
C63 C 0.6455(6) -0.1626(2) 0.5165(2)
C64 C 0.6105(7) -0.1618(2) 0.5594(2)
C65 C 0.5997(6) -0.1528(3) 0.4395(2)
C66 C 0.4924(7) -0.1553(2) 0.5704(2)
C67 C 0.5855(6) -0.1114(3) 0.4157(2)
H36 H 0.559583 -0.082355 0.428945
C68 C 0.6087(7) -0.1116(3) 0.3721(2)
H37 H 0.597786 -0.082908 0.355853
C69 C 0.6489(8) -0.1550(3) 0.3520(3)
C70 C 0.6678(7) -0.1947(3) 0.3762(2)
H38 H 0.697418 -0.223407 0.363404
C71 C 0.6442(7) -0.1942(3) 0.4199(2)
H39 H 0.658890 -0.222429 0.436248
C72 C 0.7715(7) -0.1689(3) 0.5042(2)
C73 C 0.8352(7) -0.1288(3) 0.4893(3)
H40 H 0.800441 -0.097498 0.489862
C74 C 0.9507(8) -0.1346(3) 0.4736(3)
H41 H 0.993265 -0.107113 0.463808
C75 C 1.0022(7) -0.1799(3) 0.4722(2)
H42 H 1.079556 -0.183932 0.461298
C76 C 0.9382(7) -0.2201(3) 0.4874(2)
H43 H 0.973003 -0.251420 0.487073
C77 C 0.8259(7) -0.2143(3) 0.5027(2)
H44 H 0.784047 -0.241913 0.512508
C78 C 0.6999(7) -0.1640(3) 0.5948(2)
C79 C 0.7214(7) -0.1241(3) 0.6196(2)
H45 H 0.683084 -0.094328 0.613403
C80 C 0.7978(8) -0.1266(4) 0.6535(2)
H46 H 0.810425 -0.098670 0.670509
C81 C 0.8560(8) -0.1689(4) 0.6630(2)
H47 H 0.908579 -0.170187 0.686360
C82 C 0.8374(7) -0.2099(3) 0.6382(2)
H48 H 0.878365 -0.239078 0.644329
C83 C 0.7591(7) -0.2081(3) 0.6046(2)
H49 H 0.744956 -0.236363 0.588117
C84 C 0.4547(6) -0.1546(3) 0.6157(2)
C85 C 0.4003(7) -0.1136(3) 0.6328(2)
H50 H 0.392176 -0.084976 0.616374
C86 C 0.3586(8) -0.1151(3) 0.6736(3)
H51 H 0.320515 -0.087157 0.684597
C87 C 0.3693(7) -0.1554(3) 0.6993(2)
C88 C 0.4288(7) -0.1953(3) 0.6825(2)
H52 H 0.441320 -0.223209 0.699681
C89 C 0.4703(6) -0.1948(3) 0.6407(2)
H53 H 0.509427 -0.222517 0.629541
C90 C 0.3373(9) 0.1434(4) 0.7468(3)
C91 C 0.2063(12) 0.1357(7) 0.7531(3)
H54 H 0.162547 0.157518 0.734228
H55 H 0.185480 0.142761 0.782555
H56 H 0.186133 0.102009 0.746446
C92 C 0.3747(11) 0.1885(4) 0.7728(3)
H57 H 0.458871 0.194681 0.768443
H58 H 0.359683 0.182660 0.802888
H59 H 0.329319 0.216773 0.763349
C93 C 0.4040(13) 0.0992(4) 0.7660(3)
H60 H 0.377626 0.069371 0.752115
H61 H 0.387427 0.097238 0.796446
H62 H 0.488809 0.103338 0.761643
C94 C 0.6857(10) 0.1664(3) 0.3068(3)
C95 C 0.6331(14) 0.2101(4) 0.2835(3)
H63 H 0.547572 0.210584 0.287563
H64 H 0.651018 0.207692 0.253233
H65 H 0.667184 0.240121 0.294877
C96 C 0.6597(11) 0.1210(4) 0.2806(3)
H66 H 0.685679 0.092223 0.296194
H67 H 0.701783 0.122950 0.253575
H68 H 0.574809 0.118876 0.275274
C97 C 0.8180(12) 0.1723(5) 0.3072(4)
H69 H 0.838985 0.201301 0.323454
H70 H 0.846615 0.175663 0.278056
H71 H 0.854059 0.143683 0.320281
C98 C 0.6716(11) -0.1561(4) 0.3043(3)
C99 C 0.6316(14) -0.1091(4) 0.2814(3)
H72 H 0.685791 -0.082629 0.288304
H73 H 0.551898 -0.100547 0.290601
H74 H 0.631801 -0.114552 0.250677
C100 C 0.8025(14) -0.1690(5) 0.2968(4)
H75 H 0.852610 -0.144284 0.309993
H76 H 0.818343 -0.170153 0.266317
H77 H 0.819515 -0.200722 0.309412
C101 C 0.5958(11) -0.1993(4) 0.2857(3)
H78 H 0.616428 -0.204322 0.255835
H79 H 0.511919 -0.191298 0.287883
H80 H 0.612069 -0.228952 0.301712
C102 C 0.3152(10) -0.1557(4) 0.7442(3)
C103 C 0.1792(12) -0.1530(5) 0.7376(4)
H81 H 0.139255 -0.158284 0.764694
H82 H 0.154815 -0.178050 0.717360
H83 H 0.157988 -0.120943 0.726464
C104 C 0.3607(16) -0.1118(5) 0.7684(3)
H84 H 0.325543 -0.111254 0.796716
H85 H 0.339255 -0.082133 0.753140
H86 H 0.446555 -0.113849 0.770838
C105 C 0.3415(15) -0.2029(5) 0.7676(3)
H87 H 0.419221 -0.200824 0.780921
H88 H 0.340724 -0.229974 0.747384
H89 H 0.281471 -0.208386 0.789337
Cl4 Cl 0.5015(3) 0.00195(14) 0.57352(10)
Cl5 Cl 0.5682(4) 0.00635(13) 0.48541(9)
Cl6 Cl 0.7437(4) -0.00932(18) 0.54937(14)
C106 C 0.5930(14) -0.0198(5) 0.5340(4)
H90 H 0.580423 -0.055617 0.531392
Cl7 Cl 0.5466(4) 1.00182(18) 0.12461(14)
Cl8 Cl 0.2923(4) 1.00443(16) 0.12378(18)
Cl9 Cl 0.4169(10) 0.9884(6) 0.2009(2)
C107 C 0.418(3) 0.9782(7) 0.1455(6)
H91 H 0.416430 0.942499 0.140071
Cl10 Cl 0.9306(4) 0.99402(14) 0.45209(16)
Cl11 Cl 0.7602(6) 1.0213(3) 0.3896(2)
C108 C 0.8502(13) 0.9779(10) 0.4090(6)
H92 H 0.795520 0.952235 0.419756
Cl12 Cl 0.9338(6) 0.9483(3) 0.3688(2)
Cl13 Cl 0.9075(9) 1.0111(3) 0.2772(3)
Cl14 Cl 0.7277(13) 1.0090(4) 0.2144(5)
Cl15 Cl 0.973(6) 0.9946(9) 0.1906(13)
C109 C 0.866(4) 1.0155(16) 0.224(2)
H93 H 0.874735 1.051228 0.219855
loop_
_geom_bond_atom_site_label_1
_geom_bond_atom_site_label_2
_geom_bond_site_symmetry_1
_geom_bond_site_symmetry_2
Cl1 C1 1_555 1_555
Cl2 C1 1_555 1_555
Cl3 C1 1_555 1_555
C1 H1 1_555 1_555
C2 C3 1_555 1_555
C3 C4 1_555 1_555
C4 C5 1_555 1_555
C5 C6 1_555 1_555
C6 C7 1_555 1_555
C7 C8 1_555 1_555
C8 C2 1_555 1_555
C9 C3 1_555 1_555
H2 C9 1_555 1_555
C10 C9 1_555 1_555
H3 C10 1_555 1_555
C11 C10 1_555 1_555
H4 C11 1_555 1_555
C12 C4 1_555 1_555
H5 C12 1_555 1_555
C13 C8 1_555 1_555
H6 C13 1_555 1_555
C14 C13 1_555 1_555
H7 C14 1_555 1_555
C15 C14 1_555 1_555
H8 C15 1_555 1_555
C16 C7 1_555 1_555
H9 C16 1_555 1_555
C17 C5 1_555 1_555
C18 C17 1_555 1_555
C19 C18 1_555 1_555
C20 C6 1_555 1_555
C21 C17 1_555 1_555
C22 C21 1_555 1_555
H10 C22 1_555 1_555
C23 C22 1_555 1_555
H11 C23 1_555 1_555
C24 C23 1_555 1_555
C25 C24 1_555 1_555
H12 C25 1_555 1_555
C26 C21 1_555 1_555
H13 C26 1_555 1_555
C27 C18 1_555 1_555
C28 C27 1_555 1_555
H14 C28 1_555 1_555
C29 C28 1_555 1_555
H15 C29 1_555 1_555
C30 C29 1_555 1_555
H16 C30 1_555 1_555
C31 C30 1_555 1_555
H17 C31 1_555 1_555
C32 C27 1_555 1_555
H18 C32 1_555 1_555
C33 C19 1_555 1_555
C34 C33 1_555 1_555
H19 C34 1_555 1_555
C35 C34 1_555 1_555
H20 C35 1_555 1_555
C36 C35 1_555 1_555
H21 C36 1_555 1_555
C37 C36 1_555 1_555
H22 C37 1_555 1_555
C38 C33 1_555 1_555
H23 C38 1_555 1_555
C39 C20 1_555 1_555
C40 C39 1_555 1_555
H24 C40 1_555 1_555
C41 C40 1_555 1_555
H25 C41 1_555 1_555
C42 C41 1_555 1_555
C43 C42 1_555 1_555
H26 C43 1_555 1_555
C44 C39 1_555 1_555
H27 C44 1_555 1_555
C45 C2 1_555 1_555
C46 C45 1_555 1_555
C47 C46 1_555 1_555
C48 C47 1_555 1_555
C49 C48 1_555 1_555
C50 C49 1_555 1_555
C51 C50 1_555 1_555
C52 C51 1_555 1_555
C53 C47 1_555 1_555
C54 C53 1_555 1_555
H28 C54 1_555 1_555
C55 C54 1_555 1_555
H29 C55 1_555 1_555
C56 C55 1_555 1_555
H30 C56 1_555 1_555
C57 C52 1_555 1_555
H31 C57 1_555 1_555
C58 C48 1_555 1_555
H32 C58 1_555 1_555
C59 C58 1_555 1_555
H33 C59 1_555 1_555
C60 C59 1_555 1_555
H34 C60 1_555 1_555
C61 C49 1_555 1_555
H35 C61 1_555 1_555
C62 C50 1_555 1_555
C63 C62 1_555 1_555
C64 C63 1_555 1_555
C65 C62 1_555 1_555
C66 C51 1_555 1_555
C67 C65 1_555 1_555
H36 C67 1_555 1_555
C68 C67 1_555 1_555
H37 C68 1_555 1_555
C69 C68 1_555 1_555
C70 C69 1_555 1_555
H38 C70 1_555 1_555
C71 C65 1_555 1_555
H39 C71 1_555 1_555
C72 C63 1_555 1_555
C73 C72 1_555 1_555
H40 C73 1_555 1_555
C74 C73 1_555 1_555
H41 C74 1_555 1_555
C75 C74 1_555 1_555
H42 C75 1_555 1_555
C76 C75 1_555 1_555
H43 C76 1_555 1_555
C77 C72 1_555 1_555
H44 C77 1_555 1_555
C78 C64 1_555 1_555
C79 C78 1_555 1_555
H45 C79 1_555 1_555
C80 C79 1_555 1_555
H46 C80 1_555 1_555
C81 C80 1_555 1_555
H47 C81 1_555 1_555
C82 C81 1_555 1_555
H48 C82 1_555 1_555
C83 C78 1_555 1_555
H49 C83 1_555 1_555
C84 C66 1_555 1_555
C85 C84 1_555 1_555
H50 C85 1_555 1_555
C86 C85 1_555 1_555
H51 C86 1_555 1_555
C87 C86 1_555 1_555
C88 C87 1_555 1_555
H52 C88 1_555 1_555
C89 C84 1_555 1_555
H53 C89 1_555 1_555
C90 C42 1_555 1_555
C91 C90 1_555 1_555
H54 C91 1_555 1_555
H55 C91 1_555 1_555
H56 C91 1_555 1_555
C92 C90 1_555 1_555
H57 C92 1_555 1_555
H58 C92 1_555 1_555
H59 C92 1_555 1_555
C93 C90 1_555 1_555
H60 C93 1_555 1_555
H61 C93 1_555 1_555
H62 C93 1_555 1_555
C94 C24 1_555 1_555
C95 C94 1_555 1_555
H63 C95 1_555 1_555
H64 C95 1_555 1_555
H65 C95 1_555 1_555
C96 C94 1_555 1_555
H66 C96 1_555 1_555
H67 C96 1_555 1_555
H68 C96 1_555 1_555
C97 C94 1_555 1_555
H69 C97 1_555 1_555
H70 C97 1_555 1_555
H71 C97 1_555 1_555
C98 C69 1_555 1_555
C99 C98 1_555 1_555
H72 C99 1_555 1_555
H73 C99 1_555 1_555
H74 C99 1_555 1_555
C100 C98 1_555 1_555
H75 C100 1_555 1_555
H76 C100 1_555 1_555
H77 C100 1_555 1_555
C101 C98 1_555 1_555
H78 C101 1_555 1_555
H79 C101 1_555 1_555
H80 C101 1_555 1_555
C102 C87 1_555 1_555
C103 C102 1_555 1_555
H81 C103 1_555 1_555
H82 C103 1_555 1_555
H83 C103 1_555 1_555
C104 C102 1_555 1_555
H84 C104 1_555 1_555
H85 C104 1_555 1_555
H86 C104 1_555 1_555
C105 C102 1_555 1_555
H87 C105 1_555 1_555
H88 C105 1_555 1_555
H89 C105 1_555 1_555
Cl4 C106 1_555 1_555
Cl5 C106 1_555 1_555
Cl6 C106 1_555 1_555
C106 H90 1_555 1_555
Cl7 C107 1_555 1_555
Cl8 C107 1_555 1_555
Cl9 C107 1_555 1_555
C107 H91 1_555 1_555
Cl10 C108 1_555 1_555
Cl11 C108 1_555 1_555
C108 H92 1_555 1_555
Cl12 C108 1_555 1_555
Cl13 C109 1_555 1_555
Cl14 C109 1_555 1_555
Cl15 C109 1_555 1_555
C109 H93 1_555 1_555
C11 C12 1_555 1_555
C15 C16 1_555 1_555
C19 C20 1_555 1_555
C25 C26 1_555 1_555
C31 C32 1_555 1_555
C37 C38 1_555 1_555
C43 C44 1_555 1_555
C52 C53 1_555 1_555
C56 C57 1_555 1_555
C60 C61 1_555 1_555
C64 C66 1_555 1_555
C70 C71 1_555 1_555
C76 C77 1_555 1_555
C82 C83 1_555 1_555
C88 C89 1_555 1_555

#END
