
#######################################################################
#
#                 Cambridge Crystallographic Data Centre
#                                CCDC 
#
#######################################################################
#
# If this CIF has been generated from an entry in the Cambridge 
# Structural Database, then it will include bibliographic, chemical, 
# crystal, experimental, refinement or atomic coordinate data resulting 
# from the CCDC's data processing and validation procedures.
#
#######################################################################

data_SETFAB
_chemical_formula_moiety         'C33 H35 N7 2+,C33 H34 N7 1+,3(Cl1 O4 1-)'
_chemical_name_systematic        
"1-[(3-{[bis({3-[(1H-imidazol-1-yl)methyl]phenyl}methyl)amino]methyl}phenyl)methyl]-1H-imidazol-3-ium 1,1'-{[({3-[(1H-imidazol-1-yl)methyl]phenyl}methyl)azanediyl]bis(methylene-3,1-phenylenemethylene)}bis(1H-imidazol-3-ium) triperchlorate"
_symmetry_cell_setting           triclinic
_symmetry_space_group_name_H-M   'P 1'
_symmetry_Int_Tables_number      1
_space_group_name_Hall           'P 1'
loop_
_symmetry_equiv_pos_site_id
_symmetry_equiv_pos_as_xyz
1 x,y,z
_cell_length_a                   9.7961(10)
_cell_length_b                   11.3348(16)
_cell_length_c                   15.5663(15)
_cell_angle_alpha                85.817(4)
_cell_angle_beta                 84.393(4)
_cell_angle_gamma                76.837(4)
_cell_volume                     1672.67
_exptl_crystal_colour            colorless
_exptl_crystal_description       Block
_cell_formula_units_Z            1
loop_
_atom_site_label
_atom_site_type_symbol
_atom_site_fract_x
_atom_site_fract_y
_atom_site_fract_z
C1 C 0.9089(6) 1.0822(5) 0.2588(4)
H1 H 0.900711 1.171094 0.255990
H2 H 1.005416 1.042762 0.273440
C2 C 0.8051(5) 1.0498(5) 0.3292(3)
C3 C 0.7320(6) 1.1378(5) 0.3854(4)
H3 H 0.746839 1.217996 0.378894
C4 C 0.6369(6) 1.1068(5) 0.4510(4)
H4 H 0.586911 1.166629 0.489142
C5 C 0.6142(6) 0.9897(5) 0.4615(4)
H5 H 0.548331 0.970196 0.506104
C6 C 0.6884(6) 0.9007(5) 0.4063(4)
C7 C 0.7833(6) 0.9321(5) 0.3412(3)
H6 H 0.834684 0.871753 0.303817
C8 C 0.6641(7) 0.7731(5) 0.4149(4)
H7 H 0.579747 0.771217 0.385269
H8 H 0.745607 0.717922 0.385606
C9 C 0.5180(6) 0.7336(5) 0.5539(4)
H9 H 0.426601 0.765241 0.535363
C10 C 0.5504(6) 0.6839(5) 0.6339(4)
H10 H 0.483669 0.674869 0.681122
C11 C 0.7469(6) 0.6770(5) 0.5570(4)
H11 H 0.844498 0.662683 0.539101
C12 C 1.0028(5) 1.0647(5) 0.1099(4)
H12 H 1.019156 1.146637 0.115844
H13 H 0.975593 1.061326 0.050663
C13 C 1.1377(5) 0.9713(5) 0.1224(3)
C14 C 1.2652(6) 1.0052(5) 0.1255(3)
H14 H 1.268322 1.088535 0.122648
C15 C 1.3868(6) 0.9168(6) 0.1327(4)
H15 H 1.473886 0.939885 0.133955
C16 C 1.3841(6) 0.7958(6) 0.1381(4)
H16 H 1.469132 0.736430 0.143197
C17 C 1.2585(6) 0.7594(5) 0.1361(3)
C18 C 1.1352(6) 0.8483(5) 0.1273(3)
H17 H 1.048660 0.824843 0.124693
C19 C 1.2506(7) 0.6272(5) 0.1491(4)
H18 H 1.178324 0.611526 0.113963
H19 H 1.342313 0.575117 0.129569
C20 C 1.3082(7) 0.5636(5) 0.3010(4)
H20 H 1.407203 0.552488 0.289178
C21 C 1.1028(7) 0.5744(5) 0.3677(4)
H21 H 1.029616 0.571855 0.412120
C22 C 1.0849(7) 0.6047(5) 0.2822(4)
H22 H 0.997895 0.626989 0.256621
C23 C 0.7513(6) 1.1096(5) 0.1448(4)
H23 H 0.753546 1.195550 0.129688
H24 H 0.677483 1.107326 0.192645
C24 C 0.7162(5) 1.0521(5) 0.0664(4)
C25 C 0.6535(6) 1.1240(5) -0.0018(4)
H25 H 0.635710 1.209853 -0.000975
C26 C 0.6170(7) 1.0700(6) -0.0712(4)
H26 H 0.574276 1.119421 -0.117519
C27 C 0.6423(7) 0.9455(6) -0.0730(4)
H27 H 0.617410 0.909621 -0.120753
C28 C 0.7041(6) 0.8719(5) -0.0053(4)
C29 C 0.7408(6) 0.9264(5) 0.0633(4)
H28 H 0.783799 0.876671 0.109372
C30 C 0.7261(7) 0.7349(6) -0.0039(4)
H29 H 0.782036 0.698594 0.044961
H30 H 0.633571 0.712679 0.006022
C31 C 0.7346(7) 0.6614(5) -0.1510(4)
H31 H 0.635763 0.672677 -0.152634
C32 C 0.9414(7) 0.6566(5) -0.1068(4)
H32 H 1.012973 0.663888 -0.071863
C33 C 0.9604(7) 0.6172(5) -0.1883(4)
H33 H 1.047750 0.591755 -0.221289
N1 N 0.8873(4) 1.0448(4) 0.1726(3)
N2 N 0.6444(5) 0.7286(4) 0.5054(3)
N3 N 0.6952(5) 0.6485(4) 0.6360(3)
N4 N 1.2148(5) 0.5969(4) 0.2410(3)
N5 N 1.2442(6) 0.5483(4) 0.3785(3)
N6 N 0.7985(5) 0.6842(4) -0.0844(3)
N7 N 0.8290(6) 0.6210(4) -0.2139(3)
H34 H 0.802(7) 0.614(6) -0.265(2)
C34 C 0.9065(5) -0.0716(5) 0.7044(4)
H35 H 0.933574 -0.066784 0.763435
H36 H 0.898666 -0.155949 0.697786
C35 C 0.7659(5) 0.0122(5) 0.6942(3)
C36 C 0.7503(5) 0.1391(5) 0.6922(4)
H37 H 0.830660 0.172490 0.693528
C37 C 0.6193(5) 0.2148(4) 0.6884(3)
C38 C 0.5013(6) 0.1662(5) 0.6870(4)
H38 H 0.410571 0.218380 0.685603
C39 C 0.5161(6) 0.0409(5) 0.6877(4)
H39 H 0.435872 0.007726 0.685593
C40 C 0.6477(5) -0.0349(5) 0.6915(3)
H40 H 0.657397 -0.120269 0.692258
C41 C 0.6024(6) 0.3517(4) 0.6849(4)
H41 H 0.530170 0.387013 0.730580
H42 H 0.692408 0.371463 0.695557
C42 C 0.4280(5) 0.4434(5) 0.5775(4)
H43 H 0.345780 0.448557 0.616156
C43 C 0.5676(7) 0.4527(5) 0.4608(4)
H44 H 0.600007 0.466063 0.402118
C44 C 0.6481(6) 0.4099(5) 0.5266(4)
H45 H 0.747962 0.387771 0.523013
C45 C 1.1569(5) -0.1075(5) 0.6678(4)
H46 H 1.230042 -0.097059 0.621083
H47 H 1.159348 -0.195296 0.676962
C46 C 1.1880(5) -0.0591(5) 0.7503(4)
C47 C 1.2402(6) -0.1372(5) 0.8193(4)
H48 H 1.252299 -0.222461 0.816554
C48 C 1.2743(7) -0.0887(6) 0.8918(4)
H49 H 1.310807 -0.141938 0.938215
C49 C 1.2564(7) 0.0346(6) 0.8980(4)
H50 H 1.282307 0.065400 0.947671
C50 C 1.1999(6) 0.1146(5) 0.8309(4)
C51 C 1.1661(5) 0.0669(5) 0.7583(4)
H51 H 1.127131 0.120688 0.712792
C52 C 1.1848(7) 0.2512(6) 0.8346(4)
H52 H 1.276947 0.267696 0.844406
H53 H 1.156741 0.291489 0.778486
C53 C 1.1111(13) 0.3372(7) 0.9786(5)
H54 H 1.202368 0.333066 0.996102
C54 C 0.8775(15) 0.3729(8) 0.9762(8)
H55 H 0.779937 0.398702 0.992927
C55 C 0.9366(9) 0.3234(6) 0.9019(5)
H56 H 0.888139 0.305913 0.856106
C56 C 0.9953(6) -0.0773(5) 0.5550(4)
H57 H 0.899289 -0.036027 0.540563
H58 H 1.001428 -0.165861 0.556877
C57 C 1.1003(6) -0.0456(5) 0.4843(4)
C58 C 1.1767(6) -0.1350(5) 0.4300(4)
H59 H 1.164631 -0.215986 0.438816
C59 C 1.2689(7) -0.1061(5) 0.3643(4)
H60 H 1.318272 -0.166956 0.326804
C60 C 1.2913(6) 0.0100(5) 0.3516(4)
H61 H 1.356859 0.027656 0.306131
C61 C 1.2186(6) 0.1014(5) 0.4047(4)
C62 C 1.1231(6) 0.0723(5) 0.4702(4)
H62 H 1.071848 0.133909 0.506515
C63 C 1.2422(7) 0.2297(5) 0.3911(4)
H63 H 1.159801 0.286474 0.418270
H64 H 1.325552 0.234661 0.420638
C64 C 1.3888(7) 0.2653(6) 0.2517(4)
H65 H 1.480370 0.240558 0.271305
C65 C 1.3557(8) 0.3047(6) 0.1701(5)
H66 H 1.422167 0.311345 0.122259
C66 C 1.1611(7) 0.3106(5) 0.2455(5)
H67 H 1.063541 0.322037 0.263026
N8 N 0.4295(5) 0.4734(4) 0.4948(3)
H68 H 0.358(5) 0.507(5) 0.463(3)
N9 N 0.5597(4) 0.4044(4) 0.5992(3)
N10 N 1.0172(4) -0.0430(4) 0.6415(3)
N11 N 1.0792(7) 0.3028(4) 0.9043(3)
N12 N 0.9881(16) 0.3786(7) 1.0231(5)
H69 H 0.968(6) 0.409(9) 1.074(3)
N13 N 1.2634(5) 0.2684(4) 0.2999(3)
N14 N 1.2098(6) 0.3339(5) 0.1668(4)
Cl1 Cl 0.04472(12) 0.40593(11) 0.60938(8)
O1 O 0.0730(5) 0.5251(4) 0.6125(3)
O2 O -0.0198(4) 0.4000(4) 0.5310(3)
O3 O -0.0502(4) 0.3839(4) 0.6828(3)
O4 O 0.1742(4) 0.3167(4) 0.6104(3)
Cl2 Cl 0.74299(19) 0.50995(16) 0.21248(13)
O5 O 0.632(3) 0.475(3) 0.185(3)
O6 O 0.720(4) 0.6363(18) 0.2256(18)
O7 O 0.8722(18) 0.480(4) 0.1715(14)
O8 O 0.8015(15) 0.462(2) 0.2985(12)
Cl3 Cl 0.4002(2) 0.51313(15) 0.90490(13)
O13 O 0.2621(6) 0.5590(6) 0.9431(4)
O14 O 0.4371(7) 0.3865(5) 0.9124(5)
O15 O 0.4420(12) 0.5632(8) 0.8275(6)
O16 O 0.4975(13) 0.5429(15) 0.9696(7)
O9? O 0.759(4) 0.3966(14) 0.2550(19)
O10? O 0.6573(13) 0.4946(14) 0.1379(8)
O11? O 0.8541(15) 0.5410(15) 0.1594(11)
O12? O 0.6552(18) 0.6022(16) 0.2525(13)
O17? O 0.328(2) 0.5203(16) 0.8133(11)
O18? O 0.467(2) 0.5950(17) 0.895(3)
loop_
_geom_bond_atom_site_label_1
_geom_bond_atom_site_label_2
_geom_bond_site_symmetry_1
_geom_bond_site_symmetry_2
C1 H1 1_555 1_555
H2 C1 1_555 1_555
C2 C1 1_555 1_555
C3 C2 1_555 1_555
H3 C3 1_555 1_555
C4 C3 1_555 1_555
H4 C4 1_555 1_555
C5 C4 1_555 1_555
H5 C5 1_555 1_555
C6 C5 1_555 1_555
C7 C2 1_555 1_555
H6 C7 1_555 1_555
C8 C6 1_555 1_555
H7 C8 1_555 1_555
H8 C8 1_555 1_555
C9 H9 1_555 1_555
C10 C9 1_555 1_555
H10 C10 1_555 1_555
C11 H11 1_555 1_555
C12 H12 1_555 1_555
H13 C12 1_555 1_555
C13 C12 1_555 1_555
C14 C13 1_555 1_555
H14 C14 1_555 1_555
C15 C14 1_555 1_555
H15 C15 1_555 1_555
C16 C15 1_555 1_555
H16 C16 1_555 1_555
C17 C16 1_555 1_555
C18 C13 1_555 1_555
H17 C18 1_555 1_555
C19 C17 1_555 1_555
H18 C19 1_555 1_555
H19 C19 1_555 1_555
C20 H20 1_555 1_555
C21 H21 1_555 1_555
C22 C21 1_555 1_555
H22 C22 1_555 1_555
C23 H23 1_555 1_555
H24 C23 1_555 1_555
C24 C23 1_555 1_555
C25 C24 1_555 1_555
H25 C25 1_555 1_555
C26 C25 1_555 1_555
H26 C26 1_555 1_555
C27 C26 1_555 1_555
H27 C27 1_555 1_555
C28 C27 1_555 1_555
C29 C24 1_555 1_555
H28 C29 1_555 1_555
C30 C28 1_555 1_555
H29 C30 1_555 1_555
H30 C30 1_555 1_555
C31 H31 1_555 1_555
C32 H32 1_555 1_555
C33 C32 1_555 1_555
H33 C33 1_555 1_555
N1 C1 1_555 1_555
N2 C8 1_555 1_555
N3 C10 1_555 1_555
N4 C19 1_555 1_555
N5 C20 1_555 1_555
N6 C30 1_555 1_555
N7 C31 1_555 1_555
H34 N7 1_555 1_555
C34 H35 1_555 1_555
H36 C34 1_555 1_555
C35 C34 1_555 1_555
C36 C35 1_555 1_555
H37 C36 1_555 1_555
C37 C36 1_555 1_555
C38 C37 1_555 1_555
H38 C38 1_555 1_555
C39 C38 1_555 1_555
H39 C39 1_555 1_555
C40 C35 1_555 1_555
H40 C40 1_555 1_555
C41 C37 1_555 1_555
H41 C41 1_555 1_555
H42 C41 1_555 1_555
C42 H43 1_555 1_555
C43 H44 1_555 1_555
C44 C43 1_555 1_555
H45 C44 1_555 1_555
C45 H46 1_555 1_555
H47 C45 1_555 1_555
C46 C45 1_555 1_555
C47 C46 1_555 1_555
H48 C47 1_555 1_555
C48 C47 1_555 1_555
H49 C48 1_555 1_555
C49 C48 1_555 1_555
H50 C49 1_555 1_555
C50 C49 1_555 1_555
C51 C46 1_555 1_555
H51 C51 1_555 1_555
C52 C50 1_555 1_555
H52 C52 1_555 1_555
H53 C52 1_555 1_555
C53 H54 1_555 1_555
C54 H55 1_555 1_555
C55 C54 1_555 1_555
H56 C55 1_555 1_555
C56 H57 1_555 1_555
H58 C56 1_555 1_555
C57 C56 1_555 1_555
C58 C57 1_555 1_555
H59 C58 1_555 1_555
C59 C58 1_555 1_555
H60 C59 1_555 1_555
C60 C59 1_555 1_555
H61 C60 1_555 1_555
C61 C60 1_555 1_555
C62 C57 1_555 1_555
H62 C62 1_555 1_555
C63 C61 1_555 1_555
H63 C63 1_555 1_555
H64 C63 1_555 1_555
C64 H65 1_555 1_555
C65 C64 1_555 1_555
H66 C65 1_555 1_555
C66 H67 1_555 1_555
N8 C42 1_555 1_555
H68 N8 1_555 1_555
N9 C41 1_555 1_555
N10 C34 1_555 1_555
N11 C52 1_555 1_555
N12 C53 1_555 1_555
H69 N12 1_555 1_555
N13 C63 1_555 1_555
N14 C65 1_555 1_555
Cl1 O1 1_555 1_555
O2 Cl1 1_555 1_555
O3 Cl1 1_555 1_555
O4 Cl1 1_555 1_555
Cl2 O5 1_555 1_555
O6 Cl2 1_555 1_555
O7 Cl2 1_555 1_555
O8 Cl2 1_555 1_555
Cl3 O13 1_555 1_555
O14 Cl3 1_555 1_555
O15 Cl3 1_555 1_555
O16 Cl3 1_555 1_555
C6 C7 1_555 1_555
C9 N2 1_555 1_555
C11 N2 1_555 1_555
C11 N3 1_555 1_555
C12 N1 1_555 1_555
C17 C18 1_555 1_555
C20 N4 1_555 1_555
C21 N5 1_555 1_555
C22 N4 1_555 1_555
C23 N1 1_555 1_555
C28 C29 1_555 1_555
C31 N6 1_555 1_555
C32 N6 1_555 1_555
C33 N7 1_555 1_555
C39 C40 1_555 1_555
C42 N9 1_555 1_555
C43 N8 1_555 1_555
C44 N9 1_555 1_555
C45 N10 1_555 1_555
C50 C51 1_555 1_555
C53 N11 1_555 1_555
C54 N12 1_555 1_555
C55 N11 1_555 1_555
C56 N10 1_555 1_555
C61 C62 1_555 1_555
C64 N13 1_555 1_555
C66 N13 1_555 1_555
C66 N14 1_555 1_555

#END
