
#######################################################################
#
#                 Cambridge Crystallographic Data Centre
#                                CCDC 
#
#######################################################################
#
# If this CIF has been generated from an entry in the Cambridge 
# Structural Database, then it will include bibliographic, chemical, 
# crystal, experimental, refinement or atomic coordinate data resulting 
# from the CCDC's data processing and validation procedures.
#
#######################################################################

data_SETQIU
_chemical_formula_moiety         'C22 H15 N2 O4 1+,I3 1-,I2'
_chemical_name_systematic        
'4-[({7-[(pyridine-4-carbonyl)oxy]naphthalen-2-yl}oxy)carbonyl]pyridin-1-ium iodine triiodide'
_symmetry_cell_setting           monoclinic
_symmetry_space_group_name_H-M   'P 21/c'
_symmetry_Int_Tables_number      14
_space_group_name_Hall           '-P 2ybc'
loop_
_symmetry_equiv_pos_site_id
_symmetry_equiv_pos_as_xyz
1 x,y,z
2 -x,1/2+y,1/2-z
3 -x,-y,-z
4 x,1/2-y,1/2+z
_cell_length_a                   13.5343(2)
_cell_length_b                   10.7507(2)
_cell_length_c                   19.4378(3)
_cell_angle_alpha                90
_cell_angle_beta                 106.8410(10)
_cell_angle_gamma                90
_cell_volume                     2706.96
_exptl_crystal_colour            black
_exptl_crystal_description       hexagon
_cell_formula_units_Z            4
loop_
_atom_site_label
_atom_site_type_symbol
_atom_site_fract_x
_atom_site_fract_y
_atom_site_fract_z
I1 I -0.08827(5) 1.05685(5) 0.45604(3)
I1B I 0.08827(5) 0.94315(5) 0.54396(3)
I2 I 0.44623(3) 0.54904(3) 0.04446(2)
I2B I 0.55377(3) 0.45096(3) -0.04446(2)
I3 I 0.31434(4) 0.69036(5) 0.14060(3)
I4 I 0.24800(3) 0.80266(3) 0.26676(2)
I5 I 0.17012(4) 0.89358(4) 0.37515(3)
O1 O 0.4064(3) 0.4735(3) 0.29191(17)
O2 O 0.4615(2) 0.5681(3) 0.39985(16)
O3 O 0.0680(2) 0.5122(3) 0.58067(16)
O4 O 0.1081(3) 0.3800(4) 0.67528(19)
N1 N 0.6915(3) 0.7419(4) 0.2695(2)
H1 H 0.7394 0.7817 0.2558
N2 N -0.1629(3) 0.6514(4) 0.7213(2)
C1 C 0.6600(4) 0.7879(5) 0.3230(3)
H2 H 0.6888 0.8633 0.3454
C2 C 0.5853(4) 0.7265(4) 0.3464(2)
H3 H 0.5629 0.7586 0.3849
C3 C 0.5446(3) 0.6180(4) 0.3122(2)
C4 C 0.5774(4) 0.5736(4) 0.2558(3)
H4 H 0.5484 0.4999 0.2312
C5 C 0.6524(4) 0.6374(5) 0.2361(3)
H5 H 0.6768 0.6066 0.1982
C6 C 0.4627(3) 0.5442(4) 0.3319(2)
C7 C 0.3961(3) 0.4925(4) 0.4265(2)
C8 C 0.3295(3) 0.5500(4) 0.4571(2)
H6 H 0.3265 0.6382 0.4587
C9 C 0.2649(3) 0.4763(4) 0.4864(2)
C10 C 0.1968(3) 0.5293(4) 0.5214(2)
H7 H 0.1931 0.6170 0.5261
C11 C 0.1364(3) 0.4531(4) 0.5484(2)
C12 C 0.1336(3) 0.3237(4) 0.5391(2)
H8 H 0.0866 0.2738 0.5550
C13 C 0.2006(3) 0.2710(4) 0.5064(2)
H9 H 0.2009 0.1832 0.5006
C14 C 0.2695(3) 0.3447(4) 0.4811(2)
C15 C 0.3417(3) 0.2908(4) 0.4501(2)
H10 H 0.3458 0.2028 0.4474
C16 C 0.4053(3) 0.3624(4) 0.4240(2)
H11 H 0.4551 0.3254 0.4046
C17 C 0.0602(3) 0.4658(4) 0.6436(2)
C18 C -0.1464(4) 0.5302(4) 0.7312(3)
H12 H -0.1854 0.4846 0.7561
C19 C -0.0740(4) 0.4683(4) 0.7062(3)
H13 H -0.0621 0.3819 0.7149
C20 C -0.0191(3) 0.5340(4) 0.6683(2)
C21 C -0.0379(3) 0.6602(4) 0.6570(2)
H14 H -0.0025 0.7074 0.6303
C22 C -0.1092(4) 0.7158(4) 0.6856(3)
H15 H -0.1205 0.8029 0.6796
H16? H -0.2087 0.6890 0.7382
loop_
_geom_bond_atom_site_label_1
_geom_bond_atom_site_label_2
_geom_bond_site_symmetry_1
_geom_bond_site_symmetry_2
I1 I1B 1_555 1_555
I2 I2B 1_555 1_555
I3 I4 1_555 1_555
I4 I5 1_555 1_555
O1 C6 1_555 1_555
O2 C6 1_555 1_555
O3 C11 1_555 1_555
O4 C17 1_555 1_555
N1 H1 1_555 1_555
N2 C18 1_555 1_555
C1 N1 1_555 1_555
H2 C1 1_555 1_555
C2 C1 1_555 1_555
H3 C2 1_555 1_555
C3 C2 1_555 1_555
C4 C3 1_555 1_555
H4 C4 1_555 1_555
C5 N1 1_555 1_555
H5 C5 1_555 1_555
C6 C3 1_555 1_555
C7 O2 1_555 1_555
C8 C7 1_555 1_555
H6 C8 1_555 1_555
C9 C8 1_555 1_555
C10 C9 1_555 1_555
H7 C10 1_555 1_555
C11 C10 1_555 1_555
C12 C11 1_555 1_555
H8 C12 1_555 1_555
C13 C12 1_555 1_555
H9 C13 1_555 1_555
C14 C9 1_555 1_555
C15 C14 1_555 1_555
H10 C15 1_555 1_555
C16 C7 1_555 1_555
H11 C16 1_555 1_555
C17 O3 1_555 1_555
C18 H12 1_555 1_555
C19 C18 1_555 1_555
H13 C19 1_555 1_555
C20 C17 1_555 1_555
C21 C20 1_555 1_555
H14 C21 1_555 1_555
C22 N2 1_555 1_555
H15 C22 1_555 1_555
C4 C5 1_555 1_555
C13 C14 1_555 1_555
C15 C16 1_555 1_555
C19 C20 1_555 1_555
C21 C22 1_555 1_555

#END
