
#######################################################################
#
#                 Cambridge Crystallographic Data Centre
#                                CCDC 
#
#######################################################################
#
# If this CIF has been generated from an entry in the Cambridge 
# Structural Database, then it will include bibliographic, chemical, 
# crystal, experimental, refinement or atomic coordinate data resulting 
# from the CCDC's data processing and validation procedures.
#
#######################################################################

data_SETQUE
_chemical_formula_moiety         'C25 H18 O2,3(C6 H7 N1 O1),3(H2 O1)'
_chemical_name_systematic        
"4,4'-(Fluorene-9,9-diyl)diphenol tris(6-methyl-2H-pyridone) trihydrate clathrate"
_symmetry_cell_setting           monoclinic
_symmetry_space_group_name_H-M   'C 2/c'
_symmetry_Int_Tables_number      15
_space_group_name_Hall           '-C 2yn'
loop_
_symmetry_equiv_pos_site_id
_symmetry_equiv_pos_as_xyz
1 x,y,z
2 1/2+x,1/2+y,z
3 -x,y,1/2-z
4 1/2-x,1/2+y,1/2-z
5 -x,-y,-z
6 1/2-x,1/2-y,-z
7 x,-y,1/2+z
8 1/2+x,1/2-y,1/2+z
_cell_length_a                   14.432(4)
_cell_length_b                   14.665(5)
_cell_length_c                   35.675(10)
_cell_angle_alpha                90
_cell_angle_beta                 90.133(14)
_cell_angle_gamma                90
_cell_volume                     7550.43
_exptl_crystal_colour            colorless
_exptl_crystal_description       block
_cell_formula_units_Z            8
loop_
_atom_site_label
_atom_site_type_symbol
_atom_site_fract_x
_atom_site_fract_y
_atom_site_fract_z
O1 O 0.66355(10) 0.48528(10) 0.12373(4)
H1 H 0.7085 0.4627 0.1120
O2 O 0.63584(10) 0.74053(9) 0.37947(4)
H2 H 0.6183 0.7211 0.4004
C1 C 0.70639(14) 0.46336(13) 0.23927(5)
C2 C 0.77044(14) 0.42929(14) 0.21405(6)
H12 H 0.8244 0.3998 0.2233
C3 C 0.75798(15) 0.43708(14) 0.17562(6)
H13 H 0.8035 0.4137 0.1590
C4 C 0.67959(15) 0.47876(14) 0.16148(6)
C5 C 0.61451(14) 0.51406(14) 0.18600(6)
H14 H 0.5605 0.5432 0.1766
C6 C 0.62861(14) 0.50659(13) 0.22437(6)
H15 H 0.5840 0.5317 0.2410
C7 C 0.68671(13) 0.52388(13) 0.30631(5)
C8 C 0.71068(14) 0.61347(14) 0.29720(6)
H16 H 0.7394 0.6257 0.2738
C9 C 0.69335(14) 0.68472(14) 0.32161(6)
H17 H 0.7107 0.7451 0.3149
C10 C 0.65066(14) 0.66841(14) 0.35586(6)
C11 C 0.62426(14) 0.58061(14) 0.36470(6)
H18 H 0.5931 0.5689 0.3876
C12 C 0.64290(14) 0.50959(14) 0.34040(6)
H19 H 0.6253 0.4494 0.3472
C13 C 0.71580(14) 0.44374(13) 0.28160(5)
C14 C 0.66345(14) 0.35470(13) 0.28928(5)
C15 C 0.56957(15) 0.33875(14) 0.28804(5)
H20 H 0.5275 0.3873 0.2835
C16 C 0.53711(16) 0.25026(15) 0.29355(6)
H21 H 0.4724 0.2385 0.2930
C17 C 0.59880(16) 0.17912(15) 0.29983(6)
H22 H 0.5759 0.1188 0.3029
C18 C 0.69313(16) 0.19513(14) 0.30169(6)
H23 H 0.7351 0.1462 0.3059
C19 C 0.72579(14) 0.28375(14) 0.29734(5)
C20 C 0.81529(14) 0.41507(14) 0.29143(5)
C21 C 0.89483(14) 0.46789(14) 0.29252(5)
H24 H 0.8926 0.5309 0.2865
C22 C 0.97778(15) 0.42698(15) 0.30260(6)
H25 H 1.0327 0.4626 0.3035
C23 C 0.98182(15) 0.33533(16) 0.31132(6)
H26 H 1.0393 0.3089 0.3185
C24 C 0.90315(16) 0.28140(15) 0.30981(6)
H27 H 0.9062 0.2181 0.3154
C25 C 0.81950(14) 0.32202(14) 0.29996(5)
O3 O 0.92982(10) 0.54667(10) 0.05593(4)
N1 N 1.04067(11) 0.65611(11) 0.05393(5)
H9 H 1.0296 0.6614 0.0298
C26 C 0.98975(15) 0.59361(14) 0.07339(6)
C27 C 1.01095(15) 0.58564(15) 0.11203(6)
H28 H 0.9783 0.5431 0.1271
C28 C 1.07803(16) 0.63892(15) 0.12759(6)
H29 H 1.0921 0.6325 0.1535
C29 C 1.12676(15) 0.70306(15) 0.10623(6)
H30 H 1.1727 0.7404 0.1176
C30 C 1.10777(15) 0.71138(14) 0.06906(6)
C31 C 1.15537(16) 0.77549(16) 0.04272(6)
H31 H 1.1089 0.8081 0.0278
H32 H 1.1962 0.7409 0.0260
H33 H 1.1921 0.8195 0.0571
O4 O 1.00587(10) 0.67102(10) -0.02179(4)
N2 N 0.88690(11) 0.57024(12) -0.02018(5)
H10 H 0.8977 0.5637 0.0040
C32 C 0.94106(15) 0.63000(14) -0.03927(6)
C33 C 0.92005(15) 0.64095(15) -0.07793(6)
H34 H 0.9546 0.6827 -0.0927
C34 C 0.85052(16) 0.59164(15) -0.09375(6)
H35 H 0.8372 0.5993 -0.1197
C35 C 0.79794(15) 0.52967(15) -0.07266(6)
H36 H 0.7498 0.4954 -0.0842
C36 C 0.81682(14) 0.51941(14) -0.03555(6)
C37 C 0.76685(16) 0.45653(15) -0.00951(6)
H37 H 0.8117 0.4171 0.0032
H38 H 0.7232 0.4189 -0.0238
H39 H 0.7328 0.4924 0.0091
O5 O 0.33089(10) 0.66228(10) 0.48859(4)
N3 N 0.30908(12) 0.73455(11) 0.54404(5)
H11 H 0.2669 0.7684 0.5329
C38 C 0.35367(14) 0.67070(14) 0.52283(6)
C39 C 0.42248(15) 0.61882(14) 0.54171(6)
H40 H 0.4564 0.5736 0.5285
C40 C 0.44008(15) 0.63351(14) 0.57865(6)
H41 H 0.4866 0.5986 0.5909
C41 C 0.39062(15) 0.69957(14) 0.59911(6)
H42 H 0.4030 0.7089 0.6250
C42 C 0.32483(15) 0.74987(14) 0.58118(6)
C43 C 0.26696(15) 0.82270(15) 0.59880(6)
H43 H 0.2704 0.8783 0.5836
H44 H 0.2901 0.8354 0.6241
H45 H 0.2025 0.8021 0.6002
O6 O 0.43857(12) 0.55996(12) 0.44151(5)
H3 H 0.3952(19) 0.5908(19) 0.4571(8)
H4 H 0.407(2) 0.549(2) 0.4209(9)
O7 O 0.81393(12) 0.42388(13) 0.08770(4)
H5 H 0.859(2) 0.463(2) 0.0793(8)
H6 H 0.840(2) 0.374(2) 0.0940(8)
O8 O 0.58419(12) 0.68348(13) 0.44535(5)
H7 H 0.5384(18) 0.6411(18) 0.4450(7)
H8 H 0.560(2) 0.731(2) 0.4577(8)
loop_
_geom_bond_atom_site_label_1
_geom_bond_atom_site_label_2
_geom_bond_site_symmetry_1
_geom_bond_site_symmetry_2
O1 H1 1_555 1_555
O2 H2 1_555 1_555
O3 C26 1_555 1_555
O4 C32 1_555 1_555
O5 C38 1_555 1_555
O6 H3 1_555 1_555
H4 O6 1_555 1_555
O7 H5 1_555 1_555
H6 O7 1_555 1_555
O8 H7 1_555 1_555
H8 O8 1_555 1_555
N1 H9 1_555 1_555
N2 H10 1_555 1_555
N3 H11 1_555 1_555
C1 C2 1_555 1_555
C2 H12 1_555 1_555
C3 C2 1_555 1_555
H13 C3 1_555 1_555
C4 O1 1_555 1_555
C5 C4 1_555 1_555
H14 C5 1_555 1_555
C6 C1 1_555 1_555
H15 C6 1_555 1_555
C7 C8 1_555 1_555
C8 H16 1_555 1_555
C9 C8 1_555 1_555
H17 C9 1_555 1_555
C10 O2 1_555 1_555
C11 C10 1_555 1_555
H18 C11 1_555 1_555
C12 C7 1_555 1_555
H19 C12 1_555 1_555
C13 C1 1_555 1_555
C14 C13 1_555 1_555
C15 C14 1_555 1_555
H20 C15 1_555 1_555
C16 C15 1_555 1_555
H21 C16 1_555 1_555
C17 C16 1_555 1_555
H22 C17 1_555 1_555
C18 C17 1_555 1_555
H23 C18 1_555 1_555
C19 C14 1_555 1_555
C20 C13 1_555 1_555
C21 C20 1_555 1_555
H24 C21 1_555 1_555
C22 C21 1_555 1_555
H25 C22 1_555 1_555
C23 C22 1_555 1_555
H26 C23 1_555 1_555
C24 C23 1_555 1_555
H27 C24 1_555 1_555
C25 C19 1_555 1_555
C26 N1 1_555 1_555
C27 C26 1_555 1_555
H28 C27 1_555 1_555
C28 C27 1_555 1_555
H29 C28 1_555 1_555
C29 C28 1_555 1_555
H30 C29 1_555 1_555
C30 N1 1_555 1_555
C31 C30 1_555 1_555
H31 C31 1_555 1_555
H32 C31 1_555 1_555
H33 C31 1_555 1_555
C32 N2 1_555 1_555
C33 C32 1_555 1_555
H34 C33 1_555 1_555
C34 C33 1_555 1_555
H35 C34 1_555 1_555
C35 C34 1_555 1_555
H36 C35 1_555 1_555
C36 N2 1_555 1_555
C37 C36 1_555 1_555
H37 C37 1_555 1_555
H38 C37 1_555 1_555
H39 C37 1_555 1_555
C38 N3 1_555 1_555
C39 C38 1_555 1_555
H40 C39 1_555 1_555
C40 C39 1_555 1_555
H41 C40 1_555 1_555
C41 C40 1_555 1_555
H42 C41 1_555 1_555
C42 N3 1_555 1_555
C43 C42 1_555 1_555
H43 C43 1_555 1_555
H44 C43 1_555 1_555
H45 C43 1_555 1_555
C3 C4 1_555 1_555
C5 C6 1_555 1_555
C7 C13 1_555 1_555
C9 C10 1_555 1_555
C11 C12 1_555 1_555
C18 C19 1_555 1_555
C20 C25 1_555 1_555
C24 C25 1_555 1_555
C29 C30 1_555 1_555
C35 C36 1_555 1_555
C41 C42 1_555 1_555

#END
