
#######################################################################
#
#                 Cambridge Crystallographic Data Centre
#                                CCDC 
#
#######################################################################
#
# If this CIF has been generated from an entry in the Cambridge 
# Structural Database, then it will include bibliographic, chemical, 
# crystal, experimental, refinement or atomic coordinate data resulting 
# from the CCDC's data processing and validation procedures.
#
#######################################################################

data_SETQOY
_chemical_formula_moiety         'C25 H18 O2,2(C6 H7 N1 O1)'
_chemical_name_systematic        
"4,4'-(Fluorene-9,9-diyl)diphenol bis(6-methyl-2H-pyridone)"
_symmetry_cell_setting           monoclinic
_symmetry_space_group_name_H-M   'C 2/c'
_symmetry_Int_Tables_number      15
_space_group_name_Hall           '-C 2yn'
loop_
_symmetry_equiv_pos_site_id
_symmetry_equiv_pos_as_xyz
1 x,y,z
2 1/2+x,1/2+y,z
3 -x,y,1/2-z
4 1/2-x,1/2+y,1/2-z
5 -x,-y,-z
6 1/2-x,1/2-y,-z
7 x,-y,1/2+z
8 1/2+x,1/2-y,1/2+z
_cell_length_a                   17.480(4)
_cell_length_b                   11.114(2)
_cell_length_c                   29.698(6)
_cell_angle_alpha                90
_cell_angle_beta                 93.894(8)
_cell_angle_gamma                90
_cell_volume                     5756.19
_exptl_crystal_colour            colorless
_exptl_crystal_description       prism
_cell_formula_units_Z            8
loop_
_atom_site_label
_atom_site_type_symbol
_atom_site_fract_x
_atom_site_fract_y
_atom_site_fract_z
O1 O 0.12775(8) 0.16495(13) 0.40423(4)
H1 H 0.0845 0.1411 0.4111
O2 O 0.04369(8) -0.33117(11) 0.12825(4)
H2 H 0.0422 -0.3247 0.1000
C1 C 0.16138(10) 0.09378(16) 0.26851(6)
C2 C 0.21342(11) 0.15990(16) 0.29649(6)
H5 H 0.2588 0.1894 0.2844
C3 C 0.20124(11) 0.18368(17) 0.34087(6)
H6 H 0.2375 0.2302 0.3587
C4 C 0.13646(11) 0.14019(17) 0.35979(6)
C5 C 0.08336(11) 0.07404(17) 0.33288(6)
H7 H 0.0387 0.0432 0.3453
C6 C 0.09571(11) 0.05303(17) 0.28761(6)
H8 H 0.0583 0.0098 0.2694
C7 C 0.13606(10) -0.02561(16) 0.19367(6)
C8 C 0.12677(10) -0.13441(17) 0.21587(6)
H9 H 0.1415 -0.1401 0.2472
C9 C 0.09655(10) -0.23465(17) 0.19333(6)
H10 H 0.0907 -0.3077 0.2094
C10 C 0.07482(10) -0.22937(17) 0.14759(6)
C11 C 0.08499(11) -0.12262(17) 0.12451(6)
H11 H 0.0715 -0.1179 0.0930
C12 C 0.11500(11) -0.02275(17) 0.14762(6)
H12 H 0.1214 0.0499 0.1315
C13 C 0.17656(10) 0.08037(16) 0.21795(6)
C14 C 0.26345(10) 0.07036(16) 0.21239(6)
C15 C 0.31190(11) -0.02301(17) 0.22542(6)
H13 H 0.2927 -0.0934 0.2389
C16 C 0.38942(11) -0.01197(18) 0.21843(6)
H14 H 0.4235 -0.0759 0.2269
C17 C 0.41776(11) 0.09145(18) 0.19921(6)
H15 H 0.4711 0.0982 0.1953
C18 C 0.36896(11) 0.18469(17) 0.18578(6)
H16 H 0.3884 0.2552 0.1725
C19 C 0.29106(10) 0.17373(16) 0.19201(6)
C20 C 0.15923(10) 0.20267(16) 0.19544(6)
C21 C 0.09003(11) 0.26290(17) 0.19045(6)
H17 H 0.0445 0.2271 0.2000
C22 C 0.08834(11) 0.37734(17) 0.17115(6)
H18 H 0.0410 0.4192 0.1669
C23 C 0.15508(12) 0.43069(17) 0.15814(6)
H19 H 0.1529 0.5093 0.1455
C24 C 0.22479(11) 0.37146(17) 0.16322(6)
H20 H 0.2704 0.4085 0.1543
C25 C 0.22647(11) 0.25596(16) 0.18174(6)
O3 O 0.01403(8) 0.07280(13) 0.44912(5)
N1 N -0.06682(9) 0.12544(15) 0.50253(5)
H3 H -0.0480 0.0653 0.5191
C26 C -0.03796(11) 0.14287(18) 0.46153(6)
C27 C -0.06994(12) 0.23983(19) 0.43560(7)
H21 H -0.0520 0.2572 0.4068
C28 C -0.12603(13) 0.30756(19) 0.45194(7)
H22 H -0.1476 0.3717 0.4341
C29 C -0.15317(12) 0.28576(19) 0.49433(7)
H23 H -0.1926 0.3346 0.5052
C30 C -0.12257(12) 0.19391(18) 0.51987(7)
C31 C -0.14416(13) 0.1618(2) 0.56605(7)
H24 H -0.0991 0.1689 0.5874
H25 H -0.1632 0.0789 0.5661
H26 H -0.1844 0.2165 0.5750
O4 O 0.03808(9) -0.39918(14) 0.04273(5)
N2 N 0.09197(10) -0.43701(15) -0.02313(6)
H4 H 0.0461 -0.4566 -0.0349
C32 C 0.09792(13) -0.40152(19) 0.02122(7)
C33 C 0.17391(14) -0.3748(2) 0.03879(7)
H27 H 0.1826 -0.3495 0.0693
C34 C 0.23378(14) -0.3849(2) 0.01256(8)
H28 H 0.2841 -0.3688 0.0252
C35 C 0.22320(13) -0.4189(2) -0.03311(8)
H29 H 0.2657 -0.4238 -0.0514
C36 C 0.15141(13) -0.44439(18) -0.05059(7)
C37 C 0.13046(14) -0.4803(2) -0.09828(8)
H30 H 0.0971 -0.5513 -0.0987
H31 H 0.1771 -0.4994 -0.1134
H32 H 0.1034 -0.4139 -0.1141
loop_
_geom_bond_atom_site_label_1
_geom_bond_atom_site_label_2
_geom_bond_site_symmetry_1
_geom_bond_site_symmetry_2
O1 H1 1_555 1_555
O2 H2 1_555 1_555
O3 C26 1_555 1_555
O4 C32 1_555 1_555
N1 H3 1_555 1_555
N2 H4 1_555 1_555
C1 C2 1_555 1_555
C2 H5 1_555 1_555
C3 C2 1_555 1_555
H6 C3 1_555 1_555
C4 O1 1_555 1_555
C5 C4 1_555 1_555
H7 C5 1_555 1_555
C6 C1 1_555 1_555
H8 C6 1_555 1_555
C7 C8 1_555 1_555
C8 H9 1_555 1_555
C9 C8 1_555 1_555
H10 C9 1_555 1_555
C10 O2 1_555 1_555
C11 C10 1_555 1_555
H11 C11 1_555 1_555
C12 C7 1_555 1_555
H12 C12 1_555 1_555
C13 C1 1_555 1_555
C14 C13 1_555 1_555
C15 C14 1_555 1_555
H13 C15 1_555 1_555
C16 C15 1_555 1_555
H14 C16 1_555 1_555
C17 C16 1_555 1_555
H15 C17 1_555 1_555
C18 C17 1_555 1_555
H16 C18 1_555 1_555
C19 C14 1_555 1_555
C20 C13 1_555 1_555
C21 C20 1_555 1_555
H17 C21 1_555 1_555
C22 C21 1_555 1_555
H18 C22 1_555 1_555
C23 C22 1_555 1_555
H19 C23 1_555 1_555
C24 C23 1_555 1_555
H20 C24 1_555 1_555
C25 C19 1_555 1_555
C26 N1 1_555 1_555
C27 C26 1_555 1_555
H21 C27 1_555 1_555
C28 C27 1_555 1_555
H22 C28 1_555 1_555
C29 C28 1_555 1_555
H23 C29 1_555 1_555
C30 N1 1_555 1_555
C31 C30 1_555 1_555
H24 C31 1_555 1_555
H25 C31 1_555 1_555
H26 C31 1_555 1_555
C32 N2 1_555 1_555
C33 C32 1_555 1_555
H27 C33 1_555 1_555
C34 C33 1_555 1_555
H28 C34 1_555 1_555
C35 C34 1_555 1_555
H29 C35 1_555 1_555
C36 N2 1_555 1_555
C37 C36 1_555 1_555
H30 C37 1_555 1_555
H31 C37 1_555 1_555
H32 C37 1_555 1_555
C3 C4 1_555 1_555
C5 C6 1_555 1_555
C7 C13 1_555 1_555
C9 C10 1_555 1_555
C11 C12 1_555 1_555
C18 C19 1_555 1_555
C20 C25 1_555 1_555
C24 C25 1_555 1_555
C29 C30 1_555 1_555
C35 C36 1_555 1_555

#END
