
#######################################################################
#
#                 Cambridge Crystallographic Data Centre
#                                CCDC 
#
#######################################################################
#
# If this CIF has been generated from an entry in the Cambridge 
# Structural Database, then it will include bibliographic, chemical, 
# crystal, experimental, refinement or atomic coordinate data resulting 
# from the CCDC's data processing and validation procedures.
#
#######################################################################

data_SETRIS
_chemical_formula_moiety         'C18 H16 N2 O2'
_chemical_name_systematic        
(4S,4'S)-2,2'-Diphenyl-4,4',5,5'-tetrahydro-4,4'-bi(1,3-oxazole)
_symmetry_cell_setting           monoclinic
_symmetry_space_group_name_H-M   'C 2'
_symmetry_Int_Tables_number      5
_space_group_name_Hall           'C 2y'
loop_
_symmetry_equiv_pos_site_id
_symmetry_equiv_pos_as_xyz
1 x,y,z
2 -x,y,-z
3 1/2+x,1/2+y,z
4 1/2-x,1/2+y,-z
_cell_length_a                   10.8650(12)
_cell_length_b                   6.536(3)
_cell_length_c                   11.3996(13)
_cell_angle_alpha                90
_cell_angle_beta                 108.201(9)
_cell_angle_gamma                90
_cell_volume                     769.024
_exptl_crystal_colour            white
_chemical_melting_point          135-137deg.C
_cell_formula_units_Z            2
_exptl_crystal_recrystallization_method diethylether
loop_
_atom_site_label
_atom_site_type_symbol
_atom_site_fract_x
_atom_site_fract_y
_atom_site_fract_z
O1 O 0.2410(7) 0.0677(12) 0.6443(6)
N1 N 0.0313(9) 0.0581(15) 0.6358(6)
C1 C 0.0513(11) -0.1130(15) 0.5660(6)
C2 C 0.1909(11) -0.1051(15) 0.5691(6)
C3 C 0.1397(9) 0.1509(15) 0.6756(7)
C4 C 0.1673(8) 0.3286(13) 0.7506(6)
C5 C 0.2908(9) 0.4216(23) 0.7904(8)
C6 C 0.3147(13) 0.5901(24) 0.8651(9)
C7 C 0.2187(15) 0.6728(21) 0.9047(8)
C8 C 0.0969(11) 0.5908(19) 0.8651(8)
C9 C 0.0729(8) 0.4239(16) 0.7916(7)
H1 H 0.0390(11) -0.2381(15) 0.6085(6)
H2 H 0.2365(11) -0.2291(15) 0.6049(6)
H3 H 0.1974(11) -0.0872(15) 0.4867(6)
H4 H 0.3574(9) 0.3667(23) 0.7651(8)
H5 H 0.3967(13) 0.6492(24) 0.8893(9)
H6 H 0.2363(15) 0.7842(21) 0.9582(8)
H7 H 0.0305(11) 0.6501(19) 0.8889(8)
H8 H -0.0104(8) 0.3695(16) 0.7671(7)
C1A C -0.0513(11) -0.1130(15) 0.4340(6)
N1A N -0.0313(9) 0.0581(15) 0.3642(6)
C3A C -0.1397(9) 0.1509(15) 0.3244(7)
O1A O -0.2410(7) 0.0677(12) 0.3557(6)
C2A C -0.1909(11) -0.1051(15) 0.4309(6)
H1A H -0.0390(11) -0.2381(15) 0.3915(6)
H2A H -0.2365(11) -0.2291(15) 0.3951(6)
H3A H -0.1974(11) -0.0872(15) 0.5133(6)
C4A C -0.1673(8) 0.3286(13) 0.2494(6)
C5A C -0.2908(9) 0.4216(23) 0.2096(8)
C6A C -0.3147(13) 0.5901(24) 0.1349(9)
C7A C -0.2187(15) 0.6728(21) 0.0953(8)
C8A C -0.0969(11) 0.5908(19) 0.1349(8)
C9A C -0.0729(8) 0.4239(16) 0.2084(7)
H8A H 0.0104(8) 0.3695(16) 0.2329(7)
H7A H -0.0305(11) 0.6501(19) 0.1111(8)
H6A H -0.2363(15) 0.7842(21) 0.0418(8)
H5A H -0.3967(13) 0.6492(24) 0.1107(9)
H4A H -0.3574(9) 0.3667(23) 0.2349(8)
loop_
_geom_bond_atom_site_label_1
_geom_bond_atom_site_label_2
_geom_bond_site_symmetry_1
_geom_bond_site_symmetry_2
O1 C2 1_555 1_555
N1 C1 1_555 1_555
C1 C2 1_555 1_555
C2 H2 1_555 1_555
C3 O1 1_555 1_555
C4 C3 1_555 1_555
C5 C4 1_555 1_555
C6 C5 1_555 1_555
C7 C6 1_555 1_555
C8 C7 1_555 1_555
C9 C4 1_555 1_555
H1 C1 1_555 1_555
H3 C2 1_555 1_555
H4 C5 1_555 1_555
H5 C6 1_555 1_555
H6 C7 1_555 1_555
H7 C8 1_555 1_555
H8 C9 1_555 1_555
C1A C1 1_555 1_555
N1A C1A 1_555 1_555
C3A N1A 1_555 1_555
O1A C3A 1_555 1_555
C2A C1A 1_555 1_555
H1A C1A 1_555 1_555
H2A C2A 1_555 1_555
H3A C2A 1_555 1_555
C4A C3A 1_555 1_555
C5A C4A 1_555 1_555
C6A C5A 1_555 1_555
C7A C6A 1_555 1_555
C8A C7A 1_555 1_555
C9A C4A 1_555 1_555
H8A C9A 1_555 1_555
H7A C8A 1_555 1_555
H6A C7A 1_555 1_555
H5A C6A 1_555 1_555
H4A C5A 1_555 1_555
N1 C3 1_555 1_555
C8 C9 1_555 1_555
O1A C2A 1_555 1_555
C8A C9A 1_555 1_555

#END
