
#######################################################################
#
#                 Cambridge Crystallographic Data Centre
#                                CCDC 
#
#######################################################################
#
# If this CIF has been generated from an entry in the Cambridge 
# Structural Database, then it will include bibliographic, chemical, 
# crystal, experimental, refinement or atomic coordinate data resulting 
# from the CCDC's data processing and validation procedures.
#
#######################################################################

data_SETSIU
_chemical_formula_moiety         'C16 H13 N3 O5 S1'
_chemical_name_systematic        
3-(2-nitrobenzyl)-2-(2-nitrophenyl)-1,3-thiazolidin-4-one
_symmetry_cell_setting           monoclinic
_symmetry_space_group_name_H-M   'C 2/c'
_symmetry_Int_Tables_number      15
_space_group_name_Hall           '-C 2yn'
loop_
_symmetry_equiv_pos_site_id
_symmetry_equiv_pos_as_xyz
1 x,y,z
2 1/2+x,1/2+y,z
3 -x,y,1/2-z
4 1/2-x,1/2+y,1/2-z
5 -x,-y,-z
6 1/2-x,1/2-y,-z
7 x,-y,1/2+z
8 1/2+x,1/2-y,1/2+z
_cell_length_a                   22.3000(4)
_cell_length_b                   9.9352(3)
_cell_length_c                   14.6945(4)
_cell_angle_alpha                90
_cell_angle_beta                 96.435(2)
_cell_angle_gamma                90
_cell_volume                     3235.13
_exptl_crystal_colour            colorless
_exptl_crystal_description       block
_cell_formula_units_Z            8
_exptl_crystal_recrystallization_method ethanol
loop_
_atom_site_label
_atom_site_type_symbol
_atom_site_fract_x
_atom_site_fract_y
_atom_site_fract_z
S1 S 0.249646(16) 0.30202(4) 0.63087(3)
C1 C 0.32355(6) 0.36762(14) 0.60790(10)
C2 C 0.33390(6) 0.50949(14) 0.64541(10)
C3 C 0.32299(6) 0.62652(15) 0.59430(10)
N1 N 0.29712(6) 0.61902(13) 0.49815(9)
O1 O 0.26210(6) 0.52621(12) 0.47498(8)
O2 O 0.31089(6) 0.70736(13) 0.44586(8)
C4 C 0.33571(6) 0.75438(15) 0.62961(11)
C5 C 0.35926(6) 0.76771(15) 0.72004(11)
C6 C 0.37063(7) 0.65308(16) 0.77319(11)
C7 C 0.35808(6) 0.52664(15) 0.73656(10)
N2 N 0.36746(5) 0.27402(12) 0.65187(8)
C8 C 0.43045(6) 0.28765(15) 0.63698(10)
C9 C 0.44430(6) 0.22049(14) 0.54871(9)
C10 C 0.49388(6) 0.25402(15) 0.50369(10)
N3 N 0.53682(6) 0.35697(14) 0.54166(9)
O3 O 0.54649(5) 0.36579(14) 0.62538(8)
O4 O 0.56141(5) 0.42805(12) 0.48848(9)
C11 C 0.50658(7) 0.19220(17) 0.42329(10)
C12 C 0.46912(7) 0.09009(18) 0.38692(11)
C13 C 0.41918(7) 0.05500(16) 0.42909(10)
C14 C 0.40659(7) 0.12048(15) 0.50807(10)
C15 C 0.34923(7) 0.17529(15) 0.70611(10)
O5 O 0.38332(5) 0.09143(11) 0.74341(7)
C16 C 0.28268(7) 0.18231(17) 0.71488(11)
H1 H 0.3261 0.3679 0.5404
H2 H 0.3283 0.8316 0.5919
H3 H 0.3676 0.8544 0.7457
H4 H 0.3872 0.6616 0.8354
H5 H 0.3661 0.4496 0.7743
H6 H 0.4560 0.2469 0.6892
H7 H 0.4408 0.3844 0.6348
H8 H 0.5404 0.2195 0.3938
H9 H 0.4778 0.0444 0.3331
H10 H 0.3932 -0.0146 0.4038
H11 H 0.3713 0.0965 0.5351
H12 H 0.2760 0.2118 0.7773
H13 H 0.2640 0.0926 0.7036
loop_
_geom_bond_atom_site_label_1
_geom_bond_atom_site_label_2
_geom_bond_site_symmetry_1
_geom_bond_site_symmetry_2
S1 C1 1_555 1_555
C1 C2 1_555 1_555
C2 C3 1_555 1_555
C3 N1 1_555 1_555
N1 O1 1_555 1_555
O2 N1 1_555 1_555
C4 C3 1_555 1_555
C5 C4 1_555 1_555
C6 C5 1_555 1_555
C7 C2 1_555 1_555
N2 C1 1_555 1_555
C8 N2 1_555 1_555
C9 C8 1_555 1_555
C10 C9 1_555 1_555
N3 C10 1_555 1_555
O3 N3 1_555 1_555
O4 N3 1_555 1_555
C11 C10 1_555 1_555
C12 C11 1_555 1_555
C13 C12 1_555 1_555
C14 C9 1_555 1_555
C15 N2 1_555 1_555
O5 C15 1_555 1_555
C16 S1 1_555 1_555
H1 C1 1_555 1_555
H2 C4 1_555 1_555
H3 C5 1_555 1_555
H4 C6 1_555 1_555
H5 C7 1_555 1_555
H6 C8 1_555 1_555
H7 C8 1_555 1_555
H8 C11 1_555 1_555
H9 C12 1_555 1_555
H10 C13 1_555 1_555
H11 C14 1_555 1_555
H12 C16 1_555 1_555
H13 C16 1_555 1_555
C6 C7 1_555 1_555
C13 C14 1_555 1_555
C15 C16 1_555 1_555

#END
