
#######################################################################
#
#                 Cambridge Crystallographic Data Centre
#                                CCDC 
#
#######################################################################
#
# If this CIF has been generated from an entry in the Cambridge 
# Structural Database, then it will include bibliographic, chemical, 
# crystal, experimental, refinement or atomic coordinate data resulting 
# from the CCDC's data processing and validation procedures.
#
#######################################################################

data_SETXUL
_chemical_formula_moiety         'C17 H13 N5'
_chemical_name_systematic        
3-Phenyl-6-p-tolyl-1,2,4-triazolo(4,3-b)-1,2,4-triazine
_symmetry_cell_setting           monoclinic
_symmetry_space_group_name_H-M   'P 21/c'
_symmetry_Int_Tables_number      14
_space_group_name_Hall           '-P 2ybc'
loop_
_symmetry_equiv_pos_site_id
_symmetry_equiv_pos_as_xyz
1 x,y,z
2 -x,1/2+y,1/2-z
3 -x,-y,-z
4 x,1/2-y,1/2+z
_cell_length_a                   11.4038(18)
_cell_length_b                   11.7675(18)
_cell_length_c                   11.0904(16)
_cell_angle_alpha                90
_cell_angle_beta                 108.439(7)
_cell_angle_gamma                90
_cell_volume                     1411.86
_exptl_crystal_colour            yellow
_exptl_crystal_description       needle
_chemical_melting_point          277-278deg.C
_cell_formula_units_Z            4
_chemical_properties_physical    efflorescent
_exptl_crystal_recrystallization_method 'absolute ethanol'
loop_
_atom_site_label
_atom_site_type_symbol
_atom_site_fract_x
_atom_site_fract_y
_atom_site_fract_z
N1 N 0.67116(18) 0.08508(14) 0.39924(17)
N2 N 0.74862(18) 0.13439(14) 0.50825(18)
N3 N 0.67845(14) 0.27092(12) 0.37303(15)
N4 N 0.64938(16) 0.37385(12) 0.31370(16)
N5 N 0.55155(16) 0.16164(13) 0.19864(16)
C1 C 0.75356(18) 0.24568(16) 0.49303(19)
C2 C 0.62964(19) 0.16894(16) 0.3178(2)
C3 C 0.52080(17) 0.25875(14) 0.1383(2)
C4 C 0.57157(19) 0.36473(16) 0.2007(2)
H1 H 0.5457 0.4316 0.1554
C5 C 0.82805(19) 0.32389(19) 0.58876(19)
C6 C 0.8536(2) 0.43463(19) 0.5624(2)
H2 H 0.8203 0.4633 0.4805
C7 C 0.9286(2) 0.5026(2) 0.6575(3)
H3 H 0.9456 0.5766 0.6388
C8 C 0.9782(2) 0.4622(3) 0.7791(3)
H4 H 1.0289 0.5082 0.8426
C9 C 0.9522(2) 0.3535(3) 0.8057(2)
H5 H 0.9847 0.3258 0.8881
C10 C 0.8784(2) 0.2846(2) 0.7120(2)
H6 H 0.8621 0.2107 0.7317
C11 C 0.43570(17) 0.25731(15) 0.00799(19)
C12 C 0.37507(19) 0.35461(16) -0.0516(2)
H7 H 0.3907 0.4238 -0.0090
C13 C 0.29259(19) 0.34997(17) -0.1722(2)
H8 H 0.2526 0.4162 -0.2093
C14 C 0.26720(18) 0.24907(18) -0.2403(2)
C15 C 0.3287(2) 0.15293(18) -0.1816(2)
H9 H 0.3140 0.0841 -0.2249
C16 C 0.4107(2) 0.15657(17) -0.0611(2)
H10 H 0.4506 0.0902 -0.0245
C17 C 0.1755(2) 0.2444(2) -0.3717(2)
H11 H 0.0974 0.2734 -0.3699
H12 H 0.1656 0.1671 -0.4009
H13 H 0.2048 0.2896 -0.4282
loop_
_geom_bond_atom_site_label_1
_geom_bond_atom_site_label_2
_geom_bond_site_symmetry_1
_geom_bond_site_symmetry_2
N1 N2 1_555 1_555
N2 C1 1_555 1_555
N3 N4 1_555 1_555
N4 C4 1_555 1_555
N5 C2 1_555 1_555
C1 N3 1_555 1_555
C2 N1 1_555 1_555
C3 N5 1_555 1_555
C4 C3 1_555 1_555
H1 C4 1_555 1_555
C5 C1 1_555 1_555
C6 C5 1_555 1_555
H2 C6 1_555 1_555
C7 C6 1_555 1_555
H3 C7 1_555 1_555
C8 C7 1_555 1_555
H4 C8 1_555 1_555
C9 C8 1_555 1_555
H5 C9 1_555 1_555
C10 C5 1_555 1_555
H6 C10 1_555 1_555
C11 C3 1_555 1_555
C12 C11 1_555 1_555
H7 C12 1_555 1_555
C13 C12 1_555 1_555
H8 C13 1_555 1_555
C14 C13 1_555 1_555
C15 C14 1_555 1_555
H9 C15 1_555 1_555
C16 C11 1_555 1_555
H10 C16 1_555 1_555
C17 C14 1_555 1_555
H11 C17 1_555 1_555
H12 C17 1_555 1_555
H13 C17 1_555 1_555
N3 C2 1_555 1_555
C9 C10 1_555 1_555
C15 C16 1_555 1_555

#END
