
#######################################################################
#
#                 Cambridge Crystallographic Data Centre
#                                CCDC 
#
#######################################################################
#
# If this CIF has been generated from an entry in the Cambridge 
# Structural Database, then it will include bibliographic, chemical, 
# crystal, experimental, refinement or atomic coordinate data resulting 
# from the CCDC's data processing and validation procedures.
#
#######################################################################

data_SEVCAZ
_chemical_formula_moiety         'C22 H24 Cl1 N1 O6'
_chemical_name_systematic        
'Ethyl 1-((3-chlorophenyl)carbamoyl)-2-(3,4,5-trimethoxyphenyl)cyclopropanecarboxylate'
_symmetry_cell_setting           monoclinic
_symmetry_space_group_name_H-M   'P 21/c'
_symmetry_Int_Tables_number      14
_space_group_name_Hall           '-P 2ybc'
loop_
_symmetry_equiv_pos_site_id
_symmetry_equiv_pos_as_xyz
1 x,y,z
2 -x,1/2+y,1/2-z
3 -x,-y,-z
4 x,1/2-y,1/2+z
_cell_length_a                   19.557(9)
_cell_length_b                   7.674(3)
_cell_length_c                   29.522(13)
_cell_angle_alpha                90
_cell_angle_beta                 103.324(5)
_cell_angle_gamma                90
_cell_volume                     4311.41
_exptl_crystal_colour            colorless
_exptl_crystal_description       sheet
_cell_formula_units_Z            8
loop_
_atom_site_label
_atom_site_type_symbol
_atom_site_fract_x
_atom_site_fract_y
_atom_site_fract_z
Cl1 Cl 1.11639(7) 0.53694(19) 0.43830(3)
N1 N 0.94408(13) 0.8405(3) 0.30308(9)
O1 O 1.00813(12) 0.6478(3) 0.27103(7)
O2 O 0.83720(13) 0.9909(3) 0.24378(8)
O3 O 0.84258(12) 0.9852(3) 0.16900(8)
O4 O 0.73724(14) 0.5990(4) 0.03231(8)
O5 O 0.62422(13) 0.5790(4) 0.06741(9)
O6 O 0.63551(12) 0.5446(4) 0.15917(9)
C1 C 1.05710(18) 0.7017(5) 0.41613(11)
C2 C 1.0397(2) 0.8205(5) 0.44575(12)
H1 H 1.0599 0.8167 0.4775
C3 C 0.9911(2) 0.9467(6) 0.42727(13)
H2 H 0.9787 1.0300 0.4468
C4 C 0.9610(2) 0.9514(5) 0.38071(12)
H3 H 0.9282 1.0374 0.3690
C5 C 0.97864(16) 0.8299(4) 0.35080(10)
C6 C 1.02791(17) 0.7024(5) 0.36860(10)
H4 H 1.0410 0.6197 0.3492
C7 C 0.96019(15) 0.7527(4) 0.26697(10)
C8 C 0.91379(15) 0.7875(4) 0.21952(10)
C9 C 0.94641(16) 0.7378(4) 0.17926(10)
H5 H 0.9338 0.8073 0.1511
H6 H 0.9947 0.6973 0.1868
C10 C 0.89258(15) 0.6204(4) 0.18956(10)
H7 H 0.9112 0.5118 0.2051
C11 C 0.86085(17) 0.9305(4) 0.21317(11)
C12 C 0.7911(2) 1.1234(5) 0.15814(15)
H8 H 0.7940 1.1958 0.1854
H9 H 0.8015 1.1958 0.1336
C13 C 0.7219(3) 1.0552(8) 0.1435(2)
H10 H 0.6889 1.1495 0.1365
H11 H 0.7113 0.9852 0.1680
H12 H 0.7188 0.9847 0.1162
C14 C 0.82158(16) 0.6033(4) 0.15729(10)
C15 C 0.81509(17) 0.6071(4) 0.10959(11)
H13 H 0.8549 0.6185 0.0976
C16 C 0.74943(18) 0.5941(5) 0.07978(11)
C17 C 0.68968(17) 0.5763(5) 0.09718(11)
C18 C 0.69691(16) 0.5657(4) 0.14502(11)
C19 C 0.76250(16) 0.5804(4) 0.17506(11)
H14 H 0.7669 0.5749 0.2071
C20 C 0.7953(2) 0.6170(8) 0.01192(13)
H15 H 0.7793 0.6194 -0.0214
H16 H 0.8267 0.5203 0.0208
H17 H 0.8196 0.7236 0.0224
C21 C 0.5907(2) 0.4167(7) 0.05797(16)
H18 H 0.5456 0.4325 0.0372
H19 H 0.5848 0.3656 0.0865
H20 H 0.6190 0.3412 0.0438
C22 C 0.63917(19) 0.4861(5) 0.20506(13)
H21 H 0.5926 0.4779 0.2102
H22 H 0.6663 0.5670 0.2268
H23 H 0.6612 0.3735 0.2093
Cl2 Cl 0.38919(7) 0.3316(2) 0.05833(4)
N2 N 0.55701(13) 0.0364(4) 0.19739(9)
O7 O 0.49264(13) 0.2303(4) 0.22845(8)
O8 O 0.66104(13) -0.1199(3) 0.25743(9)
O9 O 0.65604(12) -0.1066(3) 0.33192(8)
O10 O 0.86635(12) 0.3174(4) 0.33681(8)
O11 O 0.87937(12) 0.3031(3) 0.42931(8)
O12 O 0.76750(13) 0.3017(4) 0.46567(8)
C23 C 0.44742(18) 0.1695(6) 0.08293(12)
C24 C 0.4659(2) 0.0456(7) 0.05457(12)
H24 H 0.4465 0.0463 0.0227
C25 C 0.5137(2) -0.0797(6) 0.07429(13)
H25 H 0.5268 -0.1647 0.0555
C26 C 0.54230(19) -0.0812(5) 0.12117(12)
H26 H 0.5746 -0.1669 0.1339
C27 C 0.52345(16) 0.0441(4) 0.14970(11)
C28 C 0.47502(17) 0.1722(5) 0.13054(11)
H27 H 0.4616 0.2573 0.1492
C29 C 0.54022(16) 0.1254(4) 0.23302(11)
C30 C 0.58620(15) 0.0911(4) 0.28063(10)
C31 C 0.63768(16) -0.0556(4) 0.28777(11)
C32 C 0.7067(2) -0.2467(5) 0.34342(15)
H28 H 0.6982 -0.3109 0.3699
H29 H 0.7008 -0.3264 0.3173
C33 C 0.7770(3) -0.1812(8) 0.3543(2)
H30 H 0.8094 -0.2766 0.3617
H31 H 0.7832 -0.1038 0.3805
H32 H 0.7857 -0.1191 0.3279
C34 C 0.55427(17) 0.1460(4) 0.32059(11)
H33 H 0.5062 0.1881 0.3129
H34 H 0.5666 0.0783 0.3491
C35 C 0.60873(16) 0.2605(4) 0.30973(10)
H35 H 0.5908 0.3686 0.2937
C36 C 0.68051(16) 0.2758(4) 0.34134(10)
C37 C 0.73912(16) 0.2901(4) 0.32250(10)
H36 H 0.7340 0.2900 0.2904
C38 C 0.80551(16) 0.3045(4) 0.35208(11)
C39 C 0.81377(17) 0.3042(4) 0.40009(11)
C40 C 0.75422(18) 0.2953(5) 0.41801(10)
C41 C 0.68817(17) 0.2819(5) 0.38887(11)
H37 H 0.6487 0.2769 0.4014
C42 C 0.86190(19) 0.3885(5) 0.29208(12)
H38 H 0.9078 0.3900 0.2856
H39 H 0.8440 0.5052 0.2911
H40 H 0.8309 0.3185 0.2692
C43 C 0.9117(2) 0.4684(6) 0.43785(15)
H41 H 0.9573 0.4557 0.4583
H42 H 0.8832 0.5430 0.4521
H43 H 0.9164 0.5188 0.4090
C44 C 0.7100(2) 0.3184(8) 0.48604(14)
H44 H 0.7262 0.3210 0.5193
H45 H 0.6789 0.2210 0.4772
H46 H 0.6853 0.4244 0.4756
loop_
_geom_bond_atom_site_label_1
_geom_bond_atom_site_label_2
_geom_bond_site_symmetry_1
_geom_bond_site_symmetry_2
Cl1 C1 1_555 1_555
N1 C5 1_555 1_555
O1 C7 1_555 1_555
O2 C11 1_555 1_555
O3 C11 1_555 1_555
O4 C16 1_555 1_555
O5 C17 1_555 1_555
O6 C18 1_555 1_555
C1 C2 1_555 1_555
C2 H1 1_555 1_555
C3 C2 1_555 1_555
H2 C3 1_555 1_555
C4 C3 1_555 1_555
H3 C4 1_555 1_555
C5 C4 1_555 1_555
C6 C1 1_555 1_555
H4 C6 1_555 1_555
C7 N1 1_555 1_555
C8 C7 1_555 1_555
C9 C8 1_555 1_555
H5 C9 1_555 1_555
H6 C9 1_555 1_555
C10 C8 1_555 1_555
H7 C10 1_555 1_555
C11 C8 1_555 1_555
C12 O3 1_555 1_555
H8 C12 1_555 1_555
H9 C12 1_555 1_555
C13 C12 1_555 1_555
H10 C13 1_555 1_555
H11 C13 1_555 1_555
H12 C13 1_555 1_555
C14 C10 1_555 1_555
C15 C14 1_555 1_555
H13 C15 1_555 1_555
C16 C15 1_555 1_555
C17 C16 1_555 1_555
C18 C17 1_555 1_555
C19 C14 1_555 1_555
H14 C19 1_555 1_555
C20 O4 1_555 1_555
H15 C20 1_555 1_555
H16 C20 1_555 1_555
H17 C20 1_555 1_555
C21 O5 1_555 1_555
H18 C21 1_555 1_555
H19 C21 1_555 1_555
H20 C21 1_555 1_555
C22 O6 1_555 1_555
H21 C22 1_555 1_555
H22 C22 1_555 1_555
H23 C22 1_555 1_555
Cl2 C23 1_555 1_555
N2 C27 1_555 1_555
O7 C29 1_555 1_555
O8 C31 1_555 1_555
O9 C31 1_555 1_555
O10 C38 1_555 1_555
O11 C39 1_555 1_555
O12 C40 1_555 1_555
C23 C24 1_555 1_555
C24 H24 1_555 1_555
C25 C24 1_555 1_555
H25 C25 1_555 1_555
C26 C25 1_555 1_555
H26 C26 1_555 1_555
C27 C26 1_555 1_555
C28 C23 1_555 1_555
H27 C28 1_555 1_555
C29 N2 1_555 1_555
C30 C29 1_555 1_555
C31 C30 1_555 1_555
C32 O9 1_555 1_555
H28 C32 1_555 1_555
H29 C32 1_555 1_555
C33 C32 1_555 1_555
H30 C33 1_555 1_555
H31 C33 1_555 1_555
H32 C33 1_555 1_555
C34 C30 1_555 1_555
H33 C34 1_555 1_555
H34 C34 1_555 1_555
C35 C30 1_555 1_555
H35 C35 1_555 1_555
C36 C35 1_555 1_555
C37 C36 1_555 1_555
H36 C37 1_555 1_555
C38 C37 1_555 1_555
C39 C38 1_555 1_555
C40 C39 1_555 1_555
C41 C36 1_555 1_555
H37 C41 1_555 1_555
C42 O10 1_555 1_555
H38 C42 1_555 1_555
H39 C42 1_555 1_555
H40 C42 1_555 1_555
C43 O11 1_555 1_555
H41 C43 1_555 1_555
H42 C43 1_555 1_555
H43 C43 1_555 1_555
C44 O12 1_555 1_555
H44 C44 1_555 1_555
H45 C44 1_555 1_555
H46 C44 1_555 1_555
C5 C6 1_555 1_555
C9 C10 1_555 1_555
C18 C19 1_555 1_555
C27 C28 1_555 1_555
C34 C35 1_555 1_555
C40 C41 1_555 1_555

#END
