
#######################################################################
#
#                 Cambridge Crystallographic Data Centre
#                                CCDC 
#
#######################################################################
#
# If this CIF has been generated from an entry in the Cambridge 
# Structural Database, then it will include bibliographic, chemical, 
# crystal, experimental, refinement or atomic coordinate data resulting 
# from the CCDC's data processing and validation procedures.
#
#######################################################################

data_SEVGUW
_chemical_formula_moiety         'C19 H23 Cl1 N2 O4'
_chemical_name_systematic        
'(3S,6S,10aS)-methyl 6-(3-chlorobenzamido)-5-oxo-decahydropyrrolo(1,2-a)azocine-3-carboxylate'
_symmetry_cell_setting           monoclinic
_symmetry_space_group_name_H-M   'P 21'
_symmetry_Int_Tables_number      4
_space_group_name_Hall           'P 2yb'
loop_
_symmetry_equiv_pos_site_id
_symmetry_equiv_pos_as_xyz
1 x,y,z
2 -x,1/2+y,-z
_cell_length_a                   9.789(2)
_cell_length_b                   9.3970(15)
_cell_length_c                   10.478(2)
_cell_angle_alpha                90
_cell_angle_beta                 100.120(3)
_cell_angle_gamma                90
_cell_volume                     948.847
_exptl_crystal_colour            colorless
_exptl_crystal_description       rectangular
_cell_formula_units_Z            2
loop_
_atom_site_label
_atom_site_type_symbol
_atom_site_fract_x
_atom_site_fract_y
_atom_site_fract_z
C1 C 0.8985(2) 0.1775(3) 0.1544(2)
C2 C 0.7661(2) 0.2277(3) 0.1141(2)
H1 H 0.7213(2) 0.2142(3) 0.0291(2)
C3 C 0.7014(2) 0.2976(3) 0.2009(2)
H2 H 0.6116(2) 0.3315(3) 0.1744(2)
C4 C 0.7666(2) 0.3191(2) 0.3275(2)
H3 H 0.7214(2) 0.3677(2) 0.3854(2)
C5 C 0.8994(2) 0.2678(2) 0.3673(2)
C6 C 0.9664(2) 0.1949(2) 0.2799(2)
H4 H 1.0553(2) 0.1587(2) 0.3062(2)
C7 C 0.9761(2) 0.3065(2) 0.4990(2)
C8 C 1.1804(2) 0.2576(2) 0.66292(15)
H5 H 1.1707(2) 0.3591(2) 0.68075(15)
C9 C 1.1635(2) 0.1721(2) 0.7832(2)
H6 H 1.0794(2) 0.2032(2) 0.8118(2)
H7 H 1.1515(2) 0.0726(2) 0.7590(2)
C10 C 1.2837(2) 0.1839(2) 0.8972(2)
H8 H 1.2625(2) 0.1262(2) 0.9679(2)
H9 H 1.3662(2) 0.1445(2) 0.8712(2)
C11 C 1.3159(2) 0.3344(3) 0.9468(2)
H10 H 1.3340(2) 0.3314(3) 1.0408(2)
H11 H 1.2334(2) 0.3919(3) 0.9207(2)
C12 C 1.4372(2) 0.4102(3) 0.9025(2)
H12 H 1.4543(2) 0.4982(3) 0.9511(2)
H13 H 1.5191(2) 0.3512(3) 0.9258(2)
C13 C 1.4218(2) 0.4460(2) 0.7589(2)
H14 H 1.3353(2) 0.4984(2) 0.7304(2)
C14 C 1.5447(2) 0.5305(2) 0.7265(2)
H15 H 1.5177(2) 0.5851(2) 0.6476(2)
H16 H 1.5813(2) 0.5949(2) 0.7966(2)
C15 C 1.6498(2) 0.4188(3) 0.7094(2)
H17 H 1.7030(2) 0.3903(3) 0.7924(2)
H18 H 1.7131(2) 0.4537(3) 0.6549(2)
C16 C 1.5635(2) 0.2944(2) 0.6443(2)
H19 H 1.5579(2) 0.2994(2) 0.5502(2)
C17 C 1.3224(2) 0.2316(2) 0.62659(14)
C18 C 1.6210(2) 0.1536(2) 0.6935(2)
C19 C 1.7750(4) -0.0277(4) 0.6571(4)
H20 H 1.8310(4) -0.0560(4) 0.5949(4)
H21 H 1.7086(4) -0.1010(4) 0.6647(4)
H22 H 1.8333(4) -0.0128(4) 0.7397(4)
N1 N 1.07610(15) 0.2175(2) 0.55238(13)
H23 H 1.0892(19) 0.1336(25) 0.5215(19)
N2 N 1.42600(14) 0.3183(2) 0.67746(13)
O1 O 0.95163(14) 0.41923(14) 0.55004(13)
O2 O 1.34100(13) 0.13269(14) 0.55603(12)
O3 O 1.6039(2) 0.0961(2) 0.79090(15)
O4 O 1.7032(2) 0.1022(2) 0.6150(2)
Cl1 Cl 0.98519(8) 0.08897(12) 0.04608(5)
loop_
_geom_bond_atom_site_label_1
_geom_bond_atom_site_label_2
_geom_bond_site_symmetry_1
_geom_bond_site_symmetry_2
C1 C2 1_555 1_555
C2 H1 1_555 1_555
C3 C2 1_555 1_555
H2 C3 1_555 1_555
C4 C3 1_555 1_555
H3 C4 1_555 1_555
C5 C4 1_555 1_555
C6 C1 1_555 1_555
H4 C6 1_555 1_555
C7 C5 1_555 1_555
C8 H5 1_555 1_555
C9 C8 1_555 1_555
H6 C9 1_555 1_555
H7 C9 1_555 1_555
C10 C9 1_555 1_555
H8 C10 1_555 1_555
H9 C10 1_555 1_555
C11 C10 1_555 1_555
H10 C11 1_555 1_555
H11 C11 1_555 1_555
C12 C11 1_555 1_555
H12 C12 1_555 1_555
H13 C12 1_555 1_555
C13 C12 1_555 1_555
H14 C13 1_555 1_555
C14 C13 1_555 1_555
H15 C14 1_555 1_555
H16 C14 1_555 1_555
C15 C14 1_555 1_555
H17 C15 1_555 1_555
H18 C15 1_555 1_555
C16 C15 1_555 1_555
H19 C16 1_555 1_555
C17 C8 1_555 1_555
C18 C16 1_555 1_555
C19 H20 1_555 1_555
H21 C19 1_555 1_555
H22 C19 1_555 1_555
N1 C7 1_555 1_555
H23 N1 1_555 1_555
N2 C13 1_555 1_555
O1 C7 1_555 1_555
O2 C17 1_555 1_555
O3 C18 1_555 1_555
O4 C18 1_555 1_555
Cl1 C1 1_555 1_555
C5 C6 1_555 1_555
C8 N1 1_555 1_555
C16 N2 1_555 1_555
C17 N2 1_555 1_555
C19 O4 1_555 1_555

#END
