
#######################################################################
#
#                 Cambridge Crystallographic Data Centre
#                                CCDC 
#
#######################################################################
#
# If this CIF has been generated from an entry in the Cambridge 
# Structural Database, then it will include bibliographic, chemical, 
# crystal, experimental, refinement or atomic coordinate data resulting 
# from the CCDC's data processing and validation procedures.
#
#######################################################################

data_SEVHAF
_chemical_formula_moiety         'C14 H13 N3 O1'
_chemical_name_systematic        
N'-((2-hydroxyphenyl)methylidene)benzenecarboximidohydrazide
_symmetry_cell_setting           orthorhombic
_symmetry_space_group_name_H-M   'P n a 21'
_symmetry_Int_Tables_number      33
_space_group_name_Hall           'P 2c -2n'
loop_
_symmetry_equiv_pos_site_id
_symmetry_equiv_pos_as_xyz
1 x,y,z
2 -x,-y,1/2+z
3 1/2-x,1/2+y,1/2+z
4 1/2+x,1/2-y,z
_cell_length_a                   20.943(11)
_cell_length_b                   5.116(3)
_cell_length_c                   10.919(6)
_cell_angle_alpha                90
_cell_angle_beta                 90
_cell_angle_gamma                90
_cell_volume                     1169.91
_exptl_crystal_colour            white
_chemical_melting_point          '135 deg.C'
_cell_formula_units_Z            4
_exptl_crystal_recrystallization_method N,N-dimethylformamide
loop_
_atom_site_label
_atom_site_type_symbol
_atom_site_fract_x
_atom_site_fract_y
_atom_site_fract_z
N1 N -0.26997(13) -0.4565(6) -0.4465(3)
O1 O -0.20952(13) -0.2255(6) -0.6269(2)
H1 H -0.2358 -0.3251 -0.5964
C1 C -0.19604(14) -0.1143(7) -0.4131(3)
C2 C -0.23894(16) -0.3174(8) -0.3705(4)
H2 H -0.2438 -0.3462 -0.2869
N2 N -0.33496(17) -0.7911(7) -0.5854(3)
H3 H -0.3565 -0.8913 -0.6333
C3 C -0.11385(19) 0.2858(8) -0.4872(4)
H4 H -0.0865 0.4189 -0.5122
C4 C -0.14207(17) 0.1251(8) -0.5733(4)
H5 H -0.1336 0.1505 -0.6560
C5 C -0.18301(15) -0.0741(8) -0.5370(4)
N3 N -0.31123(13) -0.6423(6) -0.3980(3)
H6 H -0.3159 -0.6589 -0.3201
C6 C -0.34414(18) -0.7971(8) -0.4774(4)
C7 C -0.39495(16) -0.9659(7) -0.4217(4)
C8 C -0.42362(17) -0.9170(9) -0.3101(4)
H7 H -0.4085 -0.7811 -0.2615
C9 C -0.12613(17) 0.2491(8) -0.3636(4)
H8 H -0.1070 0.3566 -0.3055
C10 C -0.16680(16) 0.0524(8) -0.3275(4)
H9 H -0.1751 0.0292 -0.2446
C11 C -0.4180(2) -1.1727(9) -0.4908(5)
H10 H -0.3991 -1.2107 -0.5659
C12 C -0.47406(17) -1.0656(10) -0.2695(5)
H11 H -0.4931 -1.0297 -0.1944
C13 C -0.4961(2) -1.2680(10) -0.3410(6)
H12 H -0.5304 -1.3684 -0.3141
C14 C -0.4682(2) -1.3226(10) -0.4504(6)
H13 H -0.4831 -1.4609 -0.4977
H14? H -0.3068 -0.6865 -0.6153
loop_
_geom_bond_atom_site_label_1
_geom_bond_atom_site_label_2
_geom_bond_site_symmetry_1
_geom_bond_site_symmetry_2
N1 C2 1_555 1_555
O1 H1 1_555 1_555
C1 C2 1_555 1_555
C2 H2 1_555 1_555
N2 H3 1_555 1_555
C3 H4 1_555 1_555
C4 C3 1_555 1_555
H5 C4 1_555 1_555
C5 O1 1_555 1_555
N3 N1 1_555 1_555
H6 N3 1_555 1_555
C6 N2 1_555 1_555
C7 C6 1_555 1_555
C8 C7 1_555 1_555
H7 C8 1_555 1_555
C9 C3 1_555 1_555
H8 C9 1_555 1_555
C10 C1 1_555 1_555
H9 C10 1_555 1_555
C11 C7 1_555 1_555
H10 C11 1_555 1_555
C12 C8 1_555 1_555
H11 C12 1_555 1_555
C13 C12 1_555 1_555
H12 C13 1_555 1_555
C14 C11 1_555 1_555
H13 C14 1_555 1_555
C1 C5 1_555 1_555
C4 C5 1_555 1_555
N3 C6 1_555 1_555
C9 C10 1_555 1_555
C13 C14 1_555 1_555

#END
