
#######################################################################
#
#                 Cambridge Crystallographic Data Centre
#                                CCDC 
#
#######################################################################
#
# If this CIF has been generated from an entry in the Cambridge 
# Structural Database, then it will include bibliographic, chemical, 
# crystal, experimental, refinement or atomic coordinate data resulting 
# from the CCDC's data processing and validation procedures.
#
#######################################################################

data_SEVKAF02
_chemical_formula_moiety         'C30 H46 O3'
_chemical_name_systematic        '3-Oxolanosta-7,24-dien-26-oic acid'
_symmetry_cell_setting           monoclinic
_symmetry_space_group_name_H-M   'P 21'
_symmetry_Int_Tables_number      4
_space_group_name_Hall           'P 2yb'
loop_
_symmetry_equiv_pos_site_id
_symmetry_equiv_pos_as_xyz
1 x,y,z
2 -x,1/2+y,-z
_cell_length_a                   7.5703(2)
_cell_length_b                   10.8848(2)
_cell_length_c                   16.3893(3)
_cell_angle_alpha                90
_cell_angle_beta                 101.7110(10)
_cell_angle_gamma                90
_cell_volume                     1322.39
_cell_formula_units_Z            2
loop_
_atom_site_label
_atom_site_type_symbol
_atom_site_fract_x
_atom_site_fract_y
_atom_site_fract_z
O1 O 0.7660(2) 0.52410(16) 1.33810(11)
O2 O 0.6925(3) 0.33821(16) 1.37069(15)
O3 O 0.09236(17) 0.47342(15) 0.43817(7)
C1 C 0.6480(3) 0.43495(17) 1.33853(12)
C2 C 0.4588(2) 0.46594(17) 1.30170(10)
C3 C 0.4124(2) 0.58300(17) 1.29053(10)
H1 H 0.5070 0.6391 1.2999
C4 C 0.2279(3) 0.6365(2) 1.26479(11)
H2 H 0.2085 0.6959 1.3062
H3 H 0.1391 0.5717 1.2626
C5 C 0.2007(2) 0.69954(17) 1.17959(11)
H4 H 0.3093 0.7445 1.1758
H5 H 0.1029 0.7584 1.1750
C6 C 0.1572(2) 0.60868(16) 1.10658(10)
H6 H 0.2244 0.5328 1.1235
C7 C 0.2175(2) 0.65817(15) 1.02922(10)
H7 H 0.1580 0.7376 1.0155
C8 C 0.18262(18) 0.57983(14) 0.94860(9)
C9 C 0.31610(19) 0.63779(15) 0.89846(9)
C10 C 0.32311(18) 0.56154(14) 0.82277(9)
C11 C 0.47309(19) 0.52595(17) 0.79972(10)
H8 H 0.5849 0.5440 0.8330
C12 C 0.4620(2) 0.45652(18) 0.71996(10)
H9 H 0.4316 0.3712 0.7274
H10 H 0.5769 0.4594 0.7025
C13 C 0.31486(17) 0.51778(14) 0.65437(9)
H11 H 0.3419 0.6059 0.6589
C14 C 0.3192(2) 0.48387(15) 0.56254(10)
C15 C 0.4593(3) 0.5667(2) 0.53304(12)
H12 H 0.4652 0.5461 0.4767
H13 H 0.5755 0.5545 0.5685
H14 H 0.4244 0.6512 0.5356
C16 C -0.0446(3) 0.5779(2) 1.09090(12)
H15 H -0.1133 0.6483 1.0679
H16 H -0.0772 0.5555 1.1425
H17 H -0.0695 0.5106 1.0524
C17 C -0.0104(2) 0.5815(2) 0.89533(10)
H18 H -0.0690 0.6571 0.9065
H19 H -0.0777 0.5138 0.9126
C18 C -0.0200(2) 0.5715(2) 0.80040(10)
H20 H -0.1264 0.5243 0.7762
H21 H -0.0358 0.6535 0.7768
C19 C 0.14394(17) 0.51241(16) 0.77408(9)
H22 H 0.1412 0.4266 0.7919
C20 C 0.4907(2) 0.6458(2) 0.96541(11)
H23 H 0.5710 0.7081 0.9512
H24 H 0.5532 0.5675 0.9719
C21 C 0.4248(2) 0.6809(2) 1.04564(12)
H25 H 0.4511 0.7666 1.0592
H26 H 0.4853 0.6310 1.0920
C22 C 0.2648(3) 0.77095(17) 0.86989(13)
H27 H 0.3456 0.7999 0.8359
H28 H 0.2738 0.8230 0.9178
H29 H 0.1434 0.7725 0.8382
C23 C 0.3660(3) 0.34977(19) 0.54882(12)
H30 H 0.2842 0.2969 0.5699
H31 H 0.4873 0.3333 0.5776
H32 H 0.3560 0.3350 0.4903
C24 C 0.1400(2) 0.51913(17) 0.50697(9)
C25 C 0.0323(3) 0.61846(19) 0.53755(11)
H33 H -0.0879 0.6183 0.5029
H34 H 0.0871 0.6969 0.5295
C26 C 0.0142(2) 0.60961(17) 0.62930(10)
H35 H 0.0521 0.6868 0.6570
H36 H -0.1115 0.5968 0.6314
C27 C 0.12742(18) 0.50474(14) 0.67628(9)
C28 C 0.0328(2) 0.38320(17) 0.64850(11)
H37 H -0.0770 0.3780 0.6691
H38 H 0.1105 0.3161 0.6702
H39 H 0.0054 0.3793 0.5887
C29 C 0.2361(2) 0.44622(16) 0.97144(11)
H40 H 0.1464 0.4089 0.9973
H41 H 0.3507 0.4447 1.0094
H42 H 0.2446 0.4015 0.9219
C30 C 0.3317(3) 0.3587(2) 1.28683(15)
H43 H 0.2146 0.3863 1.2589
H44 H 0.3233 0.3222 1.3392
H45 H 0.3760 0.2989 1.2528
H46 H 0.870(4) 0.503(3) 1.3640(19)
loop_
_geom_bond_atom_site_label_1
_geom_bond_atom_site_label_2
_geom_bond_site_symmetry_1
_geom_bond_site_symmetry_2
O1 C1 1_555 1_555
O2 C1 1_555 1_555
O3 C24 1_555 1_555
C1 C2 1_555 1_555
C2 C3 1_555 1_555
C3 H1 1_555 1_555
C4 C3 1_555 1_555
H2 C4 1_555 1_555
H3 C4 1_555 1_555
C5 C4 1_555 1_555
H4 C5 1_555 1_555
H5 C5 1_555 1_555
C6 C5 1_555 1_555
H6 C6 1_555 1_555
C7 C6 1_555 1_555
H7 C7 1_555 1_555
C8 C7 1_555 1_555
C9 C8 1_555 1_555
C10 C9 1_555 1_555
C11 C10 1_555 1_555
H8 C11 1_555 1_555
C12 C11 1_555 1_555
H9 C12 1_555 1_555
H10 C12 1_555 1_555
C13 C12 1_555 1_555
H11 C13 1_555 1_555
C14 C13 1_555 1_555
C15 C14 1_555 1_555
H12 C15 1_555 1_555
H13 C15 1_555 1_555
H14 C15 1_555 1_555
C16 C6 1_555 1_555
H15 C16 1_555 1_555
H16 C16 1_555 1_555
H17 C16 1_555 1_555
C17 C8 1_555 1_555
H18 C17 1_555 1_555
H19 C17 1_555 1_555
C18 C17 1_555 1_555
H20 C18 1_555 1_555
H21 C18 1_555 1_555
C19 C10 1_555 1_555
H22 C19 1_555 1_555
C20 C9 1_555 1_555
H23 C20 1_555 1_555
H24 C20 1_555 1_555
C21 C7 1_555 1_555
H25 C21 1_555 1_555
H26 C21 1_555 1_555
C22 C9 1_555 1_555
H27 C22 1_555 1_555
H28 C22 1_555 1_555
H29 C22 1_555 1_555
C23 C14 1_555 1_555
H30 C23 1_555 1_555
H31 C23 1_555 1_555
H32 C23 1_555 1_555
C24 C14 1_555 1_555
C25 C24 1_555 1_555
H33 C25 1_555 1_555
H34 C25 1_555 1_555
C26 C25 1_555 1_555
H35 C26 1_555 1_555
H36 C26 1_555 1_555
C27 C13 1_555 1_555
C28 C27 1_555 1_555
H37 C28 1_555 1_555
H38 C28 1_555 1_555
H39 C28 1_555 1_555
C29 C8 1_555 1_555
H40 C29 1_555 1_555
H41 C29 1_555 1_555
H42 C29 1_555 1_555
C30 C2 1_555 1_555
H43 C30 1_555 1_555
H44 C30 1_555 1_555
H45 C30 1_555 1_555
H46 O1 1_555 1_555
C18 C19 1_555 1_555
C19 C27 1_555 1_555
C20 C21 1_555 1_555
C26 C27 1_555 1_555

#END
