
#######################################################################
#
#                 Cambridge Crystallographic Data Centre
#                                CCDC 
#
#######################################################################
#
# If this CIF has been generated from an entry in the Cambridge 
# Structural Database, then it will include bibliographic, chemical, 
# crystal, experimental, refinement or atomic coordinate data resulting 
# from the CCDC's data processing and validation procedures.
#
#######################################################################

data_SEVMOY
_chemical_formula_moiety         'C34 H22 Br1 Cl1 F3 N3 O5'
_chemical_name_systematic        
4-(4-(4-bromophenyl)but-3-en-1-yn-1-yl)-6-chloro-1-(4-methoxybenzyl)-3-(4-nitrobenzoyl)-4-trifluoromethyl-3,4-dihydroquinazolin-2(1H)-one
_symmetry_cell_setting           monoclinic
_symmetry_space_group_name_H-M   'P 21'
_symmetry_Int_Tables_number      4
_space_group_name_Hall           'P 2yb'
loop_
_symmetry_equiv_pos_site_id
_symmetry_equiv_pos_as_xyz
1 x,y,z
2 -x,1/2+y,-z
_cell_length_a                   7.314(5)
_cell_length_b                   22.007(14)
_cell_length_c                   20.029(14)
_cell_angle_alpha                90
_cell_angle_beta                 90.913(9)
_cell_angle_gamma                90
_cell_volume                     3223.44
_exptl_crystal_colour            yellow
_exptl_crystal_description       needle
_cell_formula_units_Z            4
loop_
_atom_site_label
_atom_site_type_symbol
_atom_site_fract_x
_atom_site_fract_y
_atom_site_fract_z
C1 C -0.2404(7) 0.4203(2) 0.1202(3)
C2 C -0.1045(7) 0.3817(2) 0.1601(2)
C3 C -0.0622(7) 0.3959(3) 0.2265(2)
H1 H -0.1113 0.4304 0.2462
C4 C 0.0544(8) 0.3580(3) 0.2627(3)
C5 C 0.1314(9) 0.3081(3) 0.2341(3)
H2 H 0.2117 0.2838 0.2588
C6 C 0.0907(8) 0.2936(3) 0.1689(3)
H3 H 0.1419 0.2593 0.1497
C7 C -0.0286(7) 0.3309(2) 0.1310(3)
C8 C -0.1450(8) 0.3586(2) 0.0214(3)
C9 C -0.4345(8) 0.3981(3) 0.1310(3)
C10 C -0.2280(8) 0.4849(3) 0.1392(3)
C11 C -0.2113(8) 0.5367(3) 0.1543(3)
C12 C -0.1913(11) 0.6007(3) 0.1659(4)
H4 H -0.1640 0.6240 0.1286
C13 C -0.2053(10) 0.6285(3) 0.2182(4)
H5 H -0.2279 0.6051 0.2559
C14 C -0.1907(8) 0.6948(3) 0.2291(3)
C15 C -0.1519(10) 0.7360(3) 0.1784(4)
H6 H -0.1308 0.7218 0.1354
C16 C -0.1444(10) 0.7984(3) 0.1913(4)
H7 H -0.1176 0.8257 0.1574
C17 C -0.1768(8) 0.8185(3) 0.2539(4)
C18 C -0.2169(9) 0.7790(3) 0.3041(4)
H8 H -0.2399 0.7937 0.3467
C19 C -0.2232(11) 0.7177(3) 0.2920(4)
H9 H -0.2499 0.6911 0.3266
C20 C -0.2323(8) 0.4630(3) 0.0022(3)
C21 C -0.0907(8) 0.4773(3) -0.0469(3)
C22 C -0.1456(9) 0.5073(3) -0.1053(3)
H10 H -0.2693 0.5149 -0.1129
C23 C -0.0235(9) 0.5255(3) -0.1510(3)
H11 H -0.0628 0.5448 -0.1900
C24 C 0.1597(9) 0.5153(3) -0.1392(3)
C25 C 0.2197(9) 0.4859(3) -0.0815(3)
H12 H 0.3435 0.4786 -0.0740
C26 C 0.0943(9) 0.4680(3) -0.0361(3)
H13 H 0.1339 0.4492 0.0030
C27 C -0.0564(8) 0.2531(2) 0.0386(3)
H14 H -0.1358 0.2487 -0.0003
H15 H -0.1008 0.2257 0.0726
C28 C 0.1324(8) 0.2337(2) 0.0202(3)
C29 C 0.2618(8) 0.2728(3) -0.0028(3)
H16 H 0.2364 0.3142 -0.0044
C30 C 0.4265(9) 0.2526(3) -0.0235(3)
H17 H 0.5126 0.2805 -0.0381
C31 C 0.4698(8) 0.1908(3) -0.0235(3)
C32 C 0.3372(9) 0.1508(3) 0.0007(3)
H18 H 0.3610 0.1093 0.0023
C33 C 0.1745(8) 0.1725(2) 0.0216(3)
H19 H 0.0882 0.1452 0.0374
C34 C 0.6783(12) 0.1114(4) -0.0486(5)
H20 H 0.6692 0.0944 -0.0046
H21 H 0.8004 0.1060 -0.0644
H22 H 0.5935 0.0913 -0.0782
N1 N -0.1899(6) 0.4143(2) 0.0491(2)
N2 N -0.0727(6) 0.31612(18) 0.0637(2)
N3 N 0.2928(9) 0.5345(3) -0.1898(3)
O1 O -0.1680(6) 0.3494(2) -0.03908(19)
O2 O -0.3720(6) 0.4915(2) 0.0063(2)
O3 O 0.2367(8) 0.5547(3) -0.2419(3)
O4 O 0.4539(8) 0.5295(3) -0.1747(3)
O5 O 0.6364(6) 0.1748(2) -0.0463(2)
F1 F -0.4509(5) 0.33923(19) 0.1135(2)
F2 F -0.5648(5) 0.4283(2) 0.0996(2)
F3 F -0.4742(5) 0.3983(2) 0.19683(19)
Cl1 Cl 0.0997(3) 0.37468(9) 0.34631(8)
Br1 Br -0.17375(10) 0.90298(3) 0.27277(4)
C35 C 0.2779(7) 0.1394(2) 0.3785(3)
C36 C 0.4085(7) 0.1775(2) 0.3390(2)
C37 C 0.4448(7) 0.1628(3) 0.2719(2)
H23 H 0.3945 0.1281 0.2525
C38 C 0.5555(8) 0.2004(3) 0.2359(3)
C39 C 0.6339(9) 0.2515(3) 0.2641(3)
H24 H 0.7074 0.2766 0.2385
C40 C 0.6036(7) 0.2655(3) 0.3300(3)
H25 H 0.6580 0.2996 0.3494
C41 C 0.4914(7) 0.2284(2) 0.3671(3)
C42 C 0.3858(8) 0.2022(2) 0.4777(3)
C43 C 0.0839(8) 0.1633(3) 0.3677(3)
C44 C 0.2847(8) 0.0754(3) 0.3596(3)
C45 C 0.2914(8) 0.0228(3) 0.3458(3)
C46 C 0.2924(11) -0.0407(3) 0.3347(4)
H26 H 0.2634 -0.0648 0.3712
C47 C 0.3280(9) -0.0688(3) 0.2813(4)
H27 H 0.3579 -0.0451 0.2446
C48 C 0.3271(7) -0.1363(3) 0.2709(3)
C49 C 0.3346(11) -0.1582(3) 0.2066(4)
H28 H 0.3425 -0.1315 0.1708
C50 C 0.3301(10) -0.2198(3) 0.1960(3)
H29 H 0.3387 -0.2347 0.1527
C51 C 0.3137(8) -0.2591(3) 0.2469(3)
C52 C 0.3044(11) -0.2379(3) 0.3108(4)
H30 H 0.2946 -0.2649 0.3463
C53 C 0.3095(11) -0.1762(3) 0.3223(4)
H31 H 0.3007 -0.1616 0.3657
C54 C 0.2997(9) 0.0973(3) 0.4970(3)
C55 C 0.4433(8) 0.0834(3) 0.5459(3)
C56 C 0.6245(9) 0.0943(3) 0.5368(3)
H32 H 0.6606 0.1156 0.4991
C57 C 0.7561(9) 0.0747(3) 0.5820(4)
H33 H 0.8795 0.0815 0.5744
C58 C 0.7006(9) 0.0446(3) 0.6390(3)
C59 C 0.5223(10) 0.0332(3) 0.6500(3)
H34 H 0.4876 0.0134 0.6888
C60 C 0.3923(9) 0.0509(3) 0.6039(3)
H35 H 0.2700 0.0416 0.6107
C61 C 0.4697(8) 0.3065(2) 0.4593(3)
H36 H 0.3926 0.3114 0.4979
H37 H 0.4235 0.3337 0.4248
C62 C 0.6608(8) 0.3264(2) 0.4785(3)
C63 C 0.7039(8) 0.3878(2) 0.4771(3)
H38 H 0.6168 0.4152 0.4612
C64 C 0.8711(9) 0.4092(3) 0.4985(3)
H39 H 0.8963 0.4506 0.4968
C65 C 1.0019(8) 0.3691(3) 0.5224(3)
C66 C 0.9640(8) 0.3076(3) 0.5238(3)
H40 H 1.0517 0.2803 0.5394
C67 C 0.7942(8) 0.2869(3) 0.5017(3)
H41 H 0.7698 0.2454 0.5025
C68 C 1.2125(13) 0.4490(4) 0.5482(5)
H42 H 1.2004 0.4667 0.5045
H43 H 1.3354 0.4545 0.5646
H44 H 1.1290 0.4684 0.5779
N4 N 0.3328(6) 0.1453(2) 0.4505(2)
N5 N 0.4498(6) 0.24330(19) 0.4348(2)
N6 N 0.8388(9) 0.0255(3) 0.6891(3)
O6 O 0.3653(6) 0.2107(2) 0.53775(18)
O7 O 0.1574(6) 0.0684(2) 0.4930(2)
O8 O 0.7879(8) 0.0085(3) 0.7438(3)
O9 O 1.0005(8) 0.0289(3) 0.6747(3)
O10 O 1.1720(6) 0.3857(2) 0.5446(2)
F4 F 0.0348(5) 0.1621(2) 0.30244(18)
F5 F -0.0458(5) 0.1328(2) 0.3990(2)
F6 F 0.0696(5) 0.22106(18) 0.3858(2)
Cl2 Cl 0.5887(3) 0.18456(10) 0.15228(8)
Br2 Br 0.30309(10) -0.34366(3) 0.22933(4)
loop_
_geom_bond_atom_site_label_1
_geom_bond_atom_site_label_2
_geom_bond_site_symmetry_1
_geom_bond_site_symmetry_2
C1 C2 1_555 1_555
C2 C3 1_555 1_555
C3 H1 1_555 1_555
C4 C3 1_555 1_555
C5 C4 1_555 1_555
H2 C5 1_555 1_555
C6 C5 1_555 1_555
H3 C6 1_555 1_555
C7 C2 1_555 1_555
C8 N1 1_555 1_555
C9 C1 1_555 1_555
C10 C1 1_555 1_555
C11 C10 1_555 1_555
C12 C11 1_555 1_555
H4 C12 1_555 1_555
C13 C12 1_555 1_555
H5 C13 1_555 1_555
C14 C13 1_555 1_555
C15 C14 1_555 1_555
H6 C15 1_555 1_555
C16 C15 1_555 1_555
H7 C16 1_555 1_555
C17 C16 1_555 1_555
C18 C17 1_555 1_555
H8 C18 1_555 1_555
C19 C14 1_555 1_555
H9 C19 1_555 1_555
C20 C21 1_555 1_555
C21 C22 1_555 1_555
C22 H10 1_555 1_555
C23 C22 1_555 1_555
H11 C23 1_555 1_555
C24 C23 1_555 1_555
C25 C24 1_555 1_555
H12 C25 1_555 1_555
C26 C21 1_555 1_555
H13 C26 1_555 1_555
C27 H14 1_555 1_555
H15 C27 1_555 1_555
C28 C27 1_555 1_555
C29 C28 1_555 1_555
H16 C29 1_555 1_555
C30 C29 1_555 1_555
H17 C30 1_555 1_555
C31 C30 1_555 1_555
C32 C31 1_555 1_555
H18 C32 1_555 1_555
C33 C28 1_555 1_555
H19 C33 1_555 1_555
C34 H20 1_555 1_555
H21 C34 1_555 1_555
H22 C34 1_555 1_555
N1 C1 1_555 1_555
N2 C7 1_555 1_555
N3 C24 1_555 1_555
O1 C8 1_555 1_555
O2 C20 1_555 1_555
O3 N3 1_555 1_555
O4 N3 1_555 1_555
O5 C31 1_555 1_555
F1 C9 1_555 1_555
F2 C9 1_555 1_555
F3 C9 1_555 1_555
Cl1 C4 1_555 1_555
Br1 C17 1_555 1_555
C35 C36 1_555 1_555
C36 C37 1_555 1_555
C37 H23 1_555 1_555
C38 C37 1_555 1_555
C39 C38 1_555 1_555
H24 C39 1_555 1_555
C40 C39 1_555 1_555
H25 C40 1_555 1_555
C41 C36 1_555 1_555
C42 N4 1_555 1_555
C43 C35 1_555 1_555
C44 C35 1_555 1_555
C45 C44 1_555 1_555
C46 C45 1_555 1_555
H26 C46 1_555 1_555
C47 C46 1_555 1_555
H27 C47 1_555 1_555
C48 C47 1_555 1_555
C49 C48 1_555 1_555
H28 C49 1_555 1_555
C50 C49 1_555 1_555
H29 C50 1_555 1_555
C51 C50 1_555 1_555
C52 C51 1_555 1_555
H30 C52 1_555 1_555
C53 C48 1_555 1_555
H31 C53 1_555 1_555
C54 C55 1_555 1_555
C55 C56 1_555 1_555
C56 H32 1_555 1_555
C57 C56 1_555 1_555
H33 C57 1_555 1_555
C58 C57 1_555 1_555
C59 C58 1_555 1_555
H34 C59 1_555 1_555
C60 C55 1_555 1_555
H35 C60 1_555 1_555
C61 H36 1_555 1_555
H37 C61 1_555 1_555
C62 C61 1_555 1_555
C63 C62 1_555 1_555
H38 C63 1_555 1_555
C64 C63 1_555 1_555
H39 C64 1_555 1_555
C65 C64 1_555 1_555
C66 C65 1_555 1_555
H40 C66 1_555 1_555
C67 C62 1_555 1_555
H41 C67 1_555 1_555
C68 H42 1_555 1_555
H43 C68 1_555 1_555
H44 C68 1_555 1_555
N4 C35 1_555 1_555
N5 C41 1_555 1_555
N6 C58 1_555 1_555
O6 C42 1_555 1_555
O7 C54 1_555 1_555
O8 N6 1_555 1_555
O9 N6 1_555 1_555
O10 C65 1_555 1_555
F4 C43 1_555 1_555
F5 C43 1_555 1_555
F6 C43 1_555 1_555
Cl2 C38 1_555 1_555
Br2 C51 1_555 1_555
C6 C7 1_555 1_555
C8 N2 1_555 1_555
C18 C19 1_555 1_555
C20 N1 1_555 1_555
C25 C26 1_555 1_555
C27 N2 1_555 1_555
C32 C33 1_555 1_555
C34 O5 1_555 1_555
C40 C41 1_555 1_555
C42 N5 1_555 1_555
C52 C53 1_555 1_555
C54 N4 1_555 1_555
C59 C60 1_555 1_555
C61 N5 1_555 1_555
C66 C67 1_555 1_555
C68 O10 1_555 1_555

#END
