
#######################################################################
#
#                 Cambridge Crystallographic Data Centre
#                                CCDC 
#
#######################################################################
#
# If this CIF has been generated from an entry in the Cambridge 
# Structural Database, then it will include bibliographic, chemical, 
# crystal, experimental, refinement or atomic coordinate data resulting 
# from the CCDC's data processing and validation procedures.
#
#######################################################################

data_SEVQAM
_chemical_formula_moiety         'C16 H14 Br1 N3 O1 S1'
_chemical_name_systematic        
4-((5-Bromothien-2-yl)methyleneamino)-1,5-dimethyl-2-phenyl-1H-pyrazol-3(2H)-one
_symmetry_cell_setting           monoclinic
_symmetry_space_group_name_H-M   'P 21/c'
_symmetry_Int_Tables_number      14
_space_group_name_Hall           '-P 2ybc'
loop_
_symmetry_equiv_pos_site_id
_symmetry_equiv_pos_as_xyz
1 x,y,z
2 -x,1/2+y,1/2-z
3 -x,-y,-z
4 x,1/2-y,1/2+z
_cell_length_a                   9.2439(12)
_cell_length_b                   7.3436(10)
_cell_length_c                   24.218(3)
_cell_angle_alpha                90
_cell_angle_beta                 101.003(4)
_cell_angle_gamma                90
_cell_volume                     1613.78
_exptl_crystal_colour            yellow
_exptl_crystal_description       block
_cell_formula_units_Z            4
_exptl_crystal_recrystallization_method hexane/ethanol
loop_
_atom_site_label
_atom_site_type_symbol
_atom_site_fract_x
_atom_site_fract_y
_atom_site_fract_z
Br1 Br -0.06419(4) 0.57513(5) 1.227487(13)
S1 S 0.08085(8) 0.53046(10) 1.12277(3)
O1 O 0.2209(2) 0.8255(3) 0.91970(8)
N1 N 0.2148(2) 0.5385(3) 1.01538(9)
N2 N 0.3583(2) 0.6002(3) 0.88747(9)
N3 N 0.4222(2) 0.4349(3) 0.90920(9)
C1 C -0.0174(3) 0.6646(4) 1.16060(12)
C2 C -0.0534(3) 0.8283(4) 1.13710(12)
H1 H -0.1065 0.9171 1.1521
C3 C 0.0000(4) 0.8470(4) 1.08678(12)
H2 H -0.0149 0.9514 1.0647
C4 C 0.0754(3) 0.6996(4) 1.07309(11)
C5 C 0.1408(3) 0.6800(4) 1.02402(12)
H3 H 0.1290 0.7733 0.9976
C6 C 0.2772(3) 0.5334(3) 0.96708(11)
C7 C 0.2748(3) 0.6718(4) 0.92509(11)
C8 C 0.3623(3) 0.3918(3) 0.95453(11)
C9 C 0.4306(3) 0.7111(4) 0.85313(11)
C10 C 0.3427(4) 0.8133(4) 0.81137(11)
H4 H 0.2406 0.8035 0.8055
C11 C 0.4087(5) 0.9294(4) 0.77876(13)
H5 H 0.3509 0.9991 0.7509
C12 C 0.5592(5) 0.9421(5) 0.78738(15)
H6 H 0.6032 1.0204 0.7653
C13 C 0.6457(4) 0.8394(5) 0.82859(14)
H7 H 0.7478 0.8480 0.8339
C14 C 0.5819(3) 0.7235(4) 0.86225(12)
H8 H 0.6401 0.6554 0.8904
C15 C 0.3905(3) 0.2124(4) 0.98264(12)
H9 H 0.4949 0.1921 0.9926
H10 H 0.3462 0.1181 0.9575
H11 H 0.3488 0.2108 1.0160
C16 C 0.4627(4) 0.3039(4) 0.86962(12)
H12 H 0.3772 0.2732 0.8420
H13 H 0.5014 0.1960 0.8895
H14 H 0.5363 0.3563 0.8513
loop_
_geom_bond_atom_site_label_1
_geom_bond_atom_site_label_2
_geom_bond_site_symmetry_1
_geom_bond_site_symmetry_2
Br1 C1 1_555 1_555
S1 C1 1_555 1_555
O1 C7 1_555 1_555
N1 C5 1_555 1_555
N2 N3 1_555 1_555
N3 C8 1_555 1_555
C1 C2 1_555 1_555
C2 H1 1_555 1_555
C3 C2 1_555 1_555
H2 C3 1_555 1_555
C4 S1 1_555 1_555
C5 C4 1_555 1_555
H3 C5 1_555 1_555
C6 N1 1_555 1_555
C7 N2 1_555 1_555
C8 C6 1_555 1_555
C9 N2 1_555 1_555
C10 C9 1_555 1_555
H4 C10 1_555 1_555
C11 C10 1_555 1_555
H5 C11 1_555 1_555
C12 C11 1_555 1_555
H6 C12 1_555 1_555
C13 C12 1_555 1_555
H7 C13 1_555 1_555
C14 C9 1_555 1_555
H8 C14 1_555 1_555
C15 C8 1_555 1_555
H9 C15 1_555 1_555
H10 C15 1_555 1_555
H11 C15 1_555 1_555
C16 N3 1_555 1_555
H12 C16 1_555 1_555
H13 C16 1_555 1_555
H14 C16 1_555 1_555
C3 C4 1_555 1_555
C6 C7 1_555 1_555
C13 C14 1_555 1_555

#END
