
#######################################################################
#
#                 Cambridge Crystallographic Data Centre
#                                CCDC 
#
#######################################################################
#
# If this CIF has been generated from an entry in the Cambridge 
# Structural Database, then it will include bibliographic, chemical, 
# crystal, experimental, refinement or atomic coordinate data resulting 
# from the CCDC's data processing and validation procedures.
#
#######################################################################

data_SEVQIW
_chemical_formula_moiety         'C21 H21 N2 O2 1+,F6 P1 1-'
_chemical_name_systematic        
'1-((6-methyl-2-oxo-2H-1-benzopyran-4-yl)methyl)-3-propyl-1H-benzimidazol-3-ium hexafluorophosphate'
_symmetry_cell_setting           monoclinic
_symmetry_space_group_name_H-M   'P 21/c'
_symmetry_Int_Tables_number      14
_space_group_name_Hall           '-P 2ybc'
loop_
_symmetry_equiv_pos_site_id
_symmetry_equiv_pos_as_xyz
1 x,y,z
2 -x,1/2+y,1/2-z
3 -x,-y,-z
4 x,1/2-y,1/2+z
_cell_length_a                   10.0322(5)
_cell_length_b                   14.5418(7)
_cell_length_c                   14.9334(9)
_cell_angle_alpha                90
_cell_angle_beta                 95.051(5)
_cell_angle_gamma                90
_cell_volume                     2170.12
_exptl_crystal_colour            colorless
_exptl_crystal_description       plate
_cell_formula_units_Z            4
loop_
_atom_site_label
_atom_site_type_symbol
_atom_site_fract_x
_atom_site_fract_y
_atom_site_fract_z
P1 P 0.83203(6) 0.38476(4) 0.11774(4)
F1 F 0.7688(2) 0.48488(11) 0.11730(14)
F2 F 0.89643(17) 0.28599(11) 0.11741(15)
F3 F 0.93437(18) 0.41164(13) 0.19978(12)
F4 F 0.93766(15) 0.42104(13) 0.05198(12)
F5 F 0.73142(16) 0.35997(14) 0.03354(11)
F6 F 0.72585(15) 0.34952(11) 0.18219(11)
O1 O 0.04612(15) 0.88860(10) 0.07621(12)
O2 O 0.26505(18) 0.88610(13) 0.07519(15)
N1 N 0.17709(16) 0.56980(12) 0.19326(13)
N2 N 0.33168(17) 0.48330(13) 0.14310(12)
C1 C 0.2090(2) 0.51604(15) 0.12671(16)
H1 H 0.1527 0.5031 0.0754
C2 C 0.28584(19) 0.57196(13) 0.25838(15)
C3 C 0.3046(2) 0.61636(15) 0.33990(17)
H2 H 0.2388 0.6537 0.3610
C4 C 0.4257(3) 0.60256(16) 0.38848(18)
H3 H 0.4418 0.6306 0.4444
C5 C 0.5248(2) 0.54795(17) 0.35651(18)
H4 H 0.6058 0.5413 0.3912
C6 C 0.5068(2) 0.50344(16) 0.27516(16)
H5 H 0.5731 0.4668 0.2539
C7 C 0.38349(19) 0.51652(14) 0.22652(14)
C8 C 0.05001(19) 0.61923(14) 0.19409(18)
H6 H 0.0282 0.6255 0.2558
H7 H -0.0201 0.5831 0.1621
C9 C 0.05234(18) 0.71318(13) 0.15206(14)
C10 C 0.1647(2) 0.75490(15) 0.13302(15)
H8 H 0.2455 0.7241 0.1454
C11 C 0.1670(2) 0.84537(16) 0.09421(17)
C12 C -0.0719(2) 0.84729(14) 0.09413(15)
C13 C -0.1881(2) 0.89717(16) 0.07245(17)
H9 H -0.1844 0.9558 0.0480
C14 C -0.3085(2) 0.85819(18) 0.08782(16)
H10 H -0.3866 0.8916 0.0737
C15 C -0.3177(2) 0.77095(17) 0.12356(15)
C16 C -0.19997(18) 0.72254(15) 0.14570(14)
H11 H -0.2043 0.6640 0.1704
C17 C -0.07493(18) 0.75994(14) 0.13164(13)
C18 C -0.4516(2) 0.7283(2) 0.13760(19)
H12 H -0.4820 0.6926 0.0857
H13 H -0.5153 0.7760 0.1464
H14 H -0.4425 0.6893 0.1896
C19 C 0.3965(3) 0.41815(18) 0.08580(16)
H15 H 0.4897 0.4353 0.0840
H16 H 0.3538 0.4218 0.0251
C20 C 0.3890(3) 0.32084(19) 0.11876(19)
H17 H 0.4338 0.3173 0.1789
H18 H 0.4372 0.2814 0.0803
C21 C 0.2485(3) 0.2845(2) 0.1208(2)
H19 H 0.2021 0.2895 0.0619
H20 H 0.2021 0.3197 0.1627
H21 H 0.2517 0.2212 0.1390
loop_
_geom_bond_atom_site_label_1
_geom_bond_atom_site_label_2
_geom_bond_site_symmetry_1
_geom_bond_site_symmetry_2
P1 F1 1_555 1_555
F2 P1 1_555 1_555
F3 P1 1_555 1_555
F4 P1 1_555 1_555
F5 P1 1_555 1_555
F6 P1 1_555 1_555
O1 C11 1_555 1_555
O2 C11 1_555 1_555
N1 C1 1_555 1_555
N2 C1 1_555 1_555
C1 H1 1_555 1_555
C2 N1 1_555 1_555
C3 C2 1_555 1_555
H2 C3 1_555 1_555
C4 C3 1_555 1_555
H3 C4 1_555 1_555
C5 C4 1_555 1_555
H4 C5 1_555 1_555
C6 C5 1_555 1_555
H5 C6 1_555 1_555
C7 N2 1_555 1_555
C8 N1 1_555 1_555
H6 C8 1_555 1_555
H7 C8 1_555 1_555
C9 C8 1_555 1_555
C10 C9 1_555 1_555
H8 C10 1_555 1_555
C11 C10 1_555 1_555
C12 O1 1_555 1_555
C13 C12 1_555 1_555
H9 C13 1_555 1_555
C14 C13 1_555 1_555
H10 C14 1_555 1_555
C15 C14 1_555 1_555
C16 C15 1_555 1_555
H11 C16 1_555 1_555
C17 C9 1_555 1_555
C18 C15 1_555 1_555
H12 C18 1_555 1_555
H13 C18 1_555 1_555
H14 C18 1_555 1_555
C19 N2 1_555 1_555
H15 C19 1_555 1_555
H16 C19 1_555 1_555
C20 C19 1_555 1_555
H17 C20 1_555 1_555
H18 C20 1_555 1_555
C21 C20 1_555 1_555
H19 C21 1_555 1_555
H20 C21 1_555 1_555
H21 C21 1_555 1_555
C2 C7 1_555 1_555
C6 C7 1_555 1_555
C12 C17 1_555 1_555
C16 C17 1_555 1_555

#END
