
#######################################################################
#
#                 Cambridge Crystallographic Data Centre
#                                CCDC 
#
#######################################################################
#
# If this CIF has been generated from an entry in the Cambridge 
# Structural Database, then it will include bibliographic, chemical, 
# crystal, experimental, refinement or atomic coordinate data resulting 
# from the CCDC's data processing and validation procedures.
#
#######################################################################

data_SEVXOJ
_chemical_formula_moiety         'C5 H9 N4 O1 1+,Cl1 1-'
_chemical_name_systematic        
'1-(3-amino-3-oxopropyl)-4H-1,2,4-triazol-1-ium chloride'
_symmetry_cell_setting           triclinic
_symmetry_space_group_name_H-M   'P -1'
_symmetry_Int_Tables_number      2
_space_group_name_Hall           '-P 1'
loop_
_symmetry_equiv_pos_site_id
_symmetry_equiv_pos_as_xyz
1 x,y,z
2 -x,-y,-z
_cell_length_a                   5.6404(6)
_cell_length_b                   7.0621(8)
_cell_length_c                   10.6075(12)
_cell_angle_alpha                91.287(9)
_cell_angle_beta                 102.859(9)
_cell_angle_gamma                105.336(8)
_cell_volume                     395.775
_exptl_crystal_colour            colorless
_exptl_crystal_description       prism
_cell_formula_units_Z            2
loop_
_atom_site_label
_atom_site_type_symbol
_atom_site_fract_x
_atom_site_fract_y
_atom_site_fract_z
C1 C 0.8794(3) 0.1883(2) 0.38473(14)
C2 C 0.6736(3) 0.2669(3) 0.41648(15)
H1 H 0.721138 0.314421 0.509603
H2 H 0.514580 0.158872 0.400815
C3 C 0.6295(3) 0.4335(2) 0.33566(15)
H3 H 0.527318 0.502932 0.373766
H4 H 0.794094 0.529168 0.337103
C4 C 0.4486(3) 0.2423(3) 0.01052(17)
H5 H 0.476712 0.191953 -0.066980
C5 C 0.2586(3) 0.3356(3) 0.14437(16)
H6 H 0.134413 0.365266 0.182894
N1 N 0.8179(3) -0.0014(2) 0.34523(15)
H7 H 0.932382 -0.053246 0.325754
H8 H 0.662641 -0.075612 0.338478
N2 N 0.4975(2) 0.35999(19) 0.20064(12)
N3 N 0.6223(2) 0.3015(2) 0.11751(13)
N4 N 0.2228(3) 0.2615(2) 0.02343(13)
H9 H 0.080091 0.230884 -0.036640
O1 O 1.0935(2) 0.29888(19) 0.39593(12)
Cl1 Cl 0.79813(7) 0.20065(7) 0.78331(4)
loop_
_geom_bond_atom_site_label_1
_geom_bond_atom_site_label_2
_geom_bond_site_symmetry_1
_geom_bond_site_symmetry_2
C1 C2 1_555 1_555
C2 H1 1_555 1_555
H2 C2 1_555 1_555
C3 C2 1_555 1_555
H3 C3 1_555 1_555
H4 C3 1_555 1_555
C4 H5 1_555 1_555
C5 H6 1_555 1_555
N1 C1 1_555 1_555
H7 N1 1_555 1_555
H8 N1 1_555 1_555
N2 C3 1_555 1_555
N3 C4 1_555 1_555
N4 C4 1_555 1_555
H9 N4 1_555 1_555
O1 C1 1_555 1_555
C5 N2 1_555 1_555
C5 N4 1_555 1_555
N2 N3 1_555 1_555

#END
