
#######################################################################
#
#                 Cambridge Crystallographic Data Centre
#                                CCDC 
#
#######################################################################
#
# If this CIF has been generated from an entry in the Cambridge 
# Structural Database, then it will include bibliographic, chemical, 
# crystal, experimental, refinement or atomic coordinate data resulting 
# from the CCDC's data processing and validation procedures.
#
#######################################################################

data_SEWBUT
_chemical_formula_moiety         'C17 H27 F1 O4 Si1'
_chemical_name_systematic        
'5-(Di-t-butyl(fluoro)silyl)-2,3-dimethoxybenzoic acid'
_symmetry_cell_setting           monoclinic
_symmetry_space_group_name_H-M   'P 21/c'
_symmetry_Int_Tables_number      14
_space_group_name_Hall           '-P 2ybc'
loop_
_symmetry_equiv_pos_site_id
_symmetry_equiv_pos_as_xyz
1 x,y,z
2 -x,1/2+y,1/2-z
3 -x,-y,-z
4 x,1/2-y,1/2+z
_cell_length_a                   12.866(3)
_cell_length_b                   8.1150(16)
_cell_length_c                   19.412(4)
_cell_angle_alpha                90
_cell_angle_beta                 108.51(3)
_cell_angle_gamma                90
_cell_volume                     1921.91
_exptl_crystal_colour            colorless
_exptl_crystal_description       block
_cell_formula_units_Z            4
loop_
_atom_site_label
_atom_site_type_symbol
_atom_site_fract_x
_atom_site_fract_y
_atom_site_fract_z
Si1 Si 0.23878(5) 0.66762(7) 0.25610(3)
F1 F 0.14398(9) 0.59838(15) 0.28548(5)
O1 O 0.45248(13) 0.58830(19) 0.06403(7)
H1 H 0.526(3) 0.602(4) 0.0377(16)
O2 O 0.38330(11) 0.38192(17) -0.01088(7)
O3 O 0.17167(10) 0.31064(18) -0.02803(6)
O4 O 0.02047(12) 0.28858(17) 0.03746(7)
C1 C 0.22416(15) 0.5470(2) 0.17150(9)
C2 C 0.12957(16) 0.4551(2) 0.13904(9)
H2 H 0.0763 0.4481 0.1619
C3 C 0.11299(16) 0.3741(2) 0.07372(10)
C4 C 0.19399(17) 0.3798(2) 0.03993(9)
C5 C 0.28977(16) 0.4683(2) 0.07123(9)
C6 C 0.30320(15) 0.5522(2) 0.13656(9)
H3 H 0.3667 0.6131 0.1571
C7 C 0.37987(17) 0.4804(3) 0.03885(10)
C8 C -0.06860(16) 0.2911(2) 0.06573(11)
H4 H -0.1279 0.2267 0.0351
H5 H -0.0925 0.4026 0.0674
H6 H -0.0456 0.2455 0.1139
C9 C 0.1820(2) 0.1362(3) -0.02816(12)
H7 H 0.1652 0.0977 -0.0773
H8 H 0.1320 0.0875 -0.0063
H9 H 0.2557 0.1055 -0.0010
C10 C 0.20219(19) 0.8879(3) 0.23121(12)
C11 C 0.2031(3) 0.9960(3) 0.29541(13)
H10 H 0.1830 1.1065 0.2789
H11 H 0.2752 0.9960 0.3304
H12 H 0.1516 0.9537 0.3175
C12 C 0.0857(3) 0.8894(4) 0.17749(18)
H13 H 0.0639 1.0010 0.1638
H14 H 0.0363 0.8413 0.1999
H15 H 0.0837 0.8270 0.1351
C13 C 0.2763(3) 0.9671(3) 0.19317(15)
H16 H 0.2542 1.0793 0.1813
H17 H 0.2706 0.9074 0.1494
H18 H 0.3508 0.9645 0.2247
C14 C 0.36980(17) 0.6186(3) 0.32978(9)
C15 C 0.3854(2) 0.4316(3) 0.33308(12)
H19 H 0.4525 0.4045 0.3704
H20 H 0.3885 0.3924 0.2871
H21 H 0.3250 0.3805 0.3438
C16 C 0.47120(17) 0.6986(3) 0.31801(11)
H22 H 0.5354 0.6688 0.3572
H23 H 0.4630 0.8162 0.3165
H24 H 0.4785 0.6606 0.2729
C17 C 0.36383(18) 0.6781(3) 0.40401(9)
H25 H 0.4315 0.6528 0.4412
H26 H 0.3044 0.6235 0.4146
H27 H 0.3519 0.7950 0.4024
loop_
_geom_bond_atom_site_label_1
_geom_bond_atom_site_label_2
_geom_bond_site_symmetry_1
_geom_bond_site_symmetry_2
Si1 F1 1_555 1_555
O1 H1 1_555 1_555
O2 C7 1_555 1_555
O3 C4 1_555 1_555
O4 C3 1_555 1_555
C1 Si1 1_555 1_555
C2 C1 1_555 1_555
H2 C2 1_555 1_555
C3 C2 1_555 1_555
C4 C3 1_555 1_555
C5 C4 1_555 1_555
C6 C1 1_555 1_555
H3 C6 1_555 1_555
C7 O1 1_555 1_555
C8 O4 1_555 1_555
H4 C8 1_555 1_555
H5 C8 1_555 1_555
H6 C8 1_555 1_555
C9 O3 1_555 1_555
H7 C9 1_555 1_555
H8 C9 1_555 1_555
H9 C9 1_555 1_555
C10 Si1 1_555 1_555
C11 C10 1_555 1_555
H10 C11 1_555 1_555
H11 C11 1_555 1_555
H12 C11 1_555 1_555
C12 C10 1_555 1_555
H13 C12 1_555 1_555
H14 C12 1_555 1_555
H15 C12 1_555 1_555
C13 C10 1_555 1_555
H16 C13 1_555 1_555
H17 C13 1_555 1_555
H18 C13 1_555 1_555
C14 Si1 1_555 1_555
C15 C14 1_555 1_555
H19 C15 1_555 1_555
H20 C15 1_555 1_555
H21 C15 1_555 1_555
C16 C14 1_555 1_555
H22 C16 1_555 1_555
H23 C16 1_555 1_555
H24 C16 1_555 1_555
C17 C14 1_555 1_555
H25 C17 1_555 1_555
H26 C17 1_555 1_555
H27 C17 1_555 1_555
C5 C6 1_555 1_555
C5 C7 1_555 1_555

#END
