
#######################################################################
#
#                 Cambridge Crystallographic Data Centre
#                                CCDC 
#
#######################################################################
#
# If this CIF has been generated from an entry in the Cambridge 
# Structural Database, then it will include bibliographic, chemical, 
# crystal, experimental, refinement or atomic coordinate data resulting 
# from the CCDC's data processing and validation procedures.
#
#######################################################################

data_SEWDOP
_chemical_formula_moiety         'C13 H10 N4 O1 S1'
_chemical_name_systematic        
2-(5-(Benzylsulfanyl)-1,3,4-oxadiazol-2-yl)pyrazine
_symmetry_cell_setting           monoclinic
_symmetry_space_group_name_H-M   'P 21/n'
_symmetry_Int_Tables_number      14
_space_group_name_Hall           '-P 2yn'
loop_
_symmetry_equiv_pos_site_id
_symmetry_equiv_pos_as_xyz
1 x,y,z
2 1/2-x,1/2+y,1/2-z
3 -x,-y,-z
4 1/2+x,1/2-y,1/2+z
_cell_length_a                   7.607(5)
_cell_length_b                   17.209(11)
_cell_length_c                   10.265(7)
_cell_angle_alpha                90
_cell_angle_beta                 110.054(7)
_cell_angle_gamma                90
_cell_volume                     1262.31
_cell_formula_units_Z            4
loop_
_atom_site_label
_atom_site_type_symbol
_atom_site_fract_x
_atom_site_fract_y
_atom_site_fract_z
S1 S 0.62753(13) 0.06313(6) 0.36858(10)
O1 O 0.3794(3) 0.02614(13) 0.1256(2)
N1 N 0.2826(4) 0.13716(17) 0.0178(3)
N2 N 0.4154(4) 0.15349(17) 0.1494(3)
N3 N 0.1415(4) -0.05901(17) -0.0976(3)
N4 N -0.0899(4) 0.02002(19) -0.3324(3)
C1 C 0.2664(4) 0.0628(2) 0.0082(3)
C2 C 0.4673(5) 0.0872(2) 0.2078(4)
C3 C 0.5144(5) 0.18068(19) 0.5065(3)
C4 C 0.6630(5) 0.1601(2) 0.4473(4)
H1 H 0.7844 0.1620 0.5204
H2 H 0.6630 0.1982 0.3777
C5 C 0.0254(5) 0.0568(2) -0.2231(4)
H3 H 0.0282 0.1109 -0.2243
C6 C 0.1417(5) 0.0183(2) -0.1073(3)
C7 C 0.5146(5) 0.1456(2) 0.6280(4)
H4 H 0.6084 0.1103 0.6732
C8 C -0.0894(5) -0.0568(2) -0.3233(4)
H5 H -0.1674 -0.0854 -0.3975
C9 C 0.0226(5) -0.0954(2) -0.2076(4)
H6 H 0.0154 -0.1493 -0.2058
C10 C 0.3731(6) 0.2326(2) 0.4408(4)
H7 H 0.3707 0.2565 0.3590
C11 C 0.2357(6) 0.2492(2) 0.4960(5)
H8 H 0.1426 0.2850 0.4520
C12 C 0.2351(6) 0.2134(2) 0.6152(5)
H9 H 0.1398 0.2233 0.6504
C13 C 0.3770(6) 0.1625(2) 0.6822(4)
H10 H 0.3799 0.1395 0.7649
loop_
_geom_bond_atom_site_label_1
_geom_bond_atom_site_label_2
_geom_bond_site_symmetry_1
_geom_bond_site_symmetry_2
S1 C2 1_555 1_555
O1 C1 1_555 1_555
N1 N2 1_555 1_555
N2 C2 1_555 1_555
N3 C6 1_555 1_555
N4 C5 1_555 1_555
C1 N1 1_555 1_555
C2 O1 1_555 1_555
C3 C4 1_555 1_555
C4 S1 1_555 1_555
H1 C4 1_555 1_555
H2 C4 1_555 1_555
C5 H3 1_555 1_555
C6 C1 1_555 1_555
C7 C3 1_555 1_555
H4 C7 1_555 1_555
C8 N4 1_555 1_555
H5 C8 1_555 1_555
C9 N3 1_555 1_555
H6 C9 1_555 1_555
C10 C3 1_555 1_555
H7 C10 1_555 1_555
C11 C10 1_555 1_555
H8 C11 1_555 1_555
C12 C11 1_555 1_555
H9 C12 1_555 1_555
C13 C7 1_555 1_555
H10 C13 1_555 1_555
C5 C6 1_555 1_555
C8 C9 1_555 1_555
C12 C13 1_555 1_555

#END
