
#######################################################################
#
#                 Cambridge Crystallographic Data Centre
#                                CCDC 
#
#######################################################################
#
# If this CIF has been generated from an entry in the Cambridge 
# Structural Database, then it will include bibliographic, chemical, 
# crystal, experimental, refinement or atomic coordinate data resulting 
# from the CCDC's data processing and validation procedures.
#
#######################################################################

data_SEWGUX
_chemical_formula_moiety         'C38 H34 N1 O2 P1'
_chemical_name_systematic        
'4,5-Diethyl-3-(2-methoxy-1-naphthyl)-6-phenyl-2-pyridyl-(diphenyl)phosphane oxide'
_symmetry_cell_setting           monoclinic
_symmetry_space_group_name_H-M   'P 21/n'
_symmetry_Int_Tables_number      14
_space_group_name_Hall           '-P 2yn'
loop_
_symmetry_equiv_pos_site_id
_symmetry_equiv_pos_as_xyz
1 x,y,z
2 1/2-x,1/2+y,1/2-z
3 -x,-y,-z
4 1/2+x,1/2-y,1/2+z
_cell_length_a                   8.6270(17)
_cell_length_b                   16.928(3)
_cell_length_c                   20.829(4)
_cell_angle_alpha                90
_cell_angle_beta                 96.30(3)
_cell_angle_gamma                90
_cell_volume                     3023.45
_exptl_crystal_colour            colorless
_exptl_crystal_description       prism
_chemical_melting_point          208-209deg.C
_cell_formula_units_Z            4
_exptl_crystal_recrystallization_method 'ethyl acetate/hexane'
loop_
_atom_site_label
_atom_site_type_symbol
_atom_site_fract_x
_atom_site_fract_y
_atom_site_fract_z
P1 P 0.55084(9) 0.23165(4) 0.16480(3)
O1 O 0.5639(2) 0.20933(10) 0.23373(7)
O2 O 0.6768(3) 0.41774(13) 0.25115(9)
N1 N 0.4133(2) 0.33258(12) 0.07979(9)
C1 C 0.4436(3) 0.32279(15) 0.14363(12)
C2 C 0.3944(3) 0.37583(15) 0.18859(12)
C3 C 0.3052(3) 0.44138(15) 0.16440(12)
C4 C 0.2691(3) 0.45083(15) 0.09762(12)
C5 C 0.3285(3) 0.39416(15) 0.05660(12)
C6 C 0.2967(3) 0.39646(15) -0.01512(11)
C7 C 0.2354(3) 0.33100(16) -0.04872(12)
H1 H 0.2148 0.2857 -0.0259
C8 C 0.2040(4) 0.33100(17) -0.11488(13)
H2 H 0.1602 0.2867 -0.1361
C9 C 0.2375(3) 0.39631(17) -0.14927(13)
H3 H 0.2169 0.3964 -0.1940
C10 C 0.3013(3) 0.46144(17) -0.11811(13)
H4 H 0.3268 0.5053 -0.1417
C11 C 0.3281(3) 0.46230(16) -0.05125(12)
H5 H 0.3677 0.5077 -0.0303
C12 C 0.4558(3) 0.15541(15) 0.11456(13)
C13 C 0.3880(4) 0.09365(18) 0.14445(15)
H6 H 0.3893 0.0941 0.1892
C14 C 0.3188(4) 0.0317(2) 0.1101(2)
H7 H 0.2739 -0.0092 0.1314
C15 C 0.3161(5) 0.0303(2) 0.0445(2)
H8 H 0.2686 -0.0115 0.0210
C16 C 0.3840(4) 0.0912(2) 0.01273(17)
H9 H 0.3826 0.0899 -0.0320
C17 C 0.4533(4) 0.15329(18) 0.04739(14)
H10 H 0.4987 0.1940 0.0261
C18 C 0.7366(3) 0.24159(17) 0.13365(12)
C19 C 0.7960(4) 0.31038(19) 0.11208(15)
H11 H 0.7376 0.3566 0.1118
C20 C 0.9420(5) 0.3117(3) 0.09064(18)
H12 H 0.9801 0.3586 0.0751
C21 C 1.0300(4) 0.2457(3) 0.09196(16)
H13 H 1.1293 0.2474 0.0786
C22 C 0.9734(5) 0.1770(3) 0.1127(2)
H14 H 1.0326 0.1311 0.1128
C23 C 0.8280(4) 0.1752(2) 0.13367(17)
H15 H 0.7904 0.1278 0.1483
C24 C 0.4297(4) 0.36559(15) 0.26048(12)
C25 C 0.3167(4) 0.33430(16) 0.29801(14)
C26 C 0.3505(5) 0.33254(18) 0.36660(15)
C27 C 0.4940(5) 0.36079(19) 0.39467(16)
H16 H 0.5156 0.3601 0.4394
C28 C 0.6031(4) 0.38919(18) 0.35843(15)
H17 H 0.6982 0.4075 0.3782
C29 C 0.5707(4) 0.39069(16) 0.29025(13)
C30 C 0.8199(4) 0.4491(2) 0.27900(16)
H18 H 0.8806 0.4657 0.2454
H19 H 0.8761 0.4094 0.3050
H20 H 0.8007 0.4936 0.3056
C31 C 0.1595(3) 0.51500(16) 0.06997(13)
H21 H 0.0694 0.5156 0.0940
H22 H 0.1231 0.5013 0.0256
C32 C 0.2283(4) 0.59868(17) 0.07078(14)
H23 H 0.1505 0.6350 0.0522
H24 H 0.3161 0.5995 0.0462
H25 H 0.2614 0.6140 0.1145
C33 C 0.2532(3) 0.50288(15) 0.21098(13)
H26 H 0.2203 0.4762 0.2484
H27 H 0.1640 0.5313 0.1900
C34 C 0.3815(4) 0.56196(16) 0.23339(13)
H28 H 0.3431 0.5991 0.2627
H29 H 0.4127 0.5896 0.1967
H30 H 0.4696 0.5343 0.2549
C35 C 0.1709(4) 0.30472(16) 0.26985(15)
H31 H 0.1480 0.3047 0.2252
C36 C 0.0637(4) 0.27619(18) 0.30786(19)
H32 H -0.0311 0.2565 0.2889
C37 C 0.0969(6) 0.2767(2) 0.3758(2)
H33 H 0.0223 0.2586 0.4014
C38 C 0.2365(6) 0.3033(2) 0.40436(18)
H34 H 0.2573 0.3022 0.4491
loop_
_geom_bond_atom_site_label_1
_geom_bond_atom_site_label_2
_geom_bond_site_symmetry_1
_geom_bond_site_symmetry_2
P1 O1 1_555 1_555
O2 C29 1_555 1_555
N1 C1 1_555 1_555
C1 P1 1_555 1_555
C2 C1 1_555 1_555
C3 C2 1_555 1_555
C4 C3 1_555 1_555
C5 N1 1_555 1_555
C6 C5 1_555 1_555
C7 C6 1_555 1_555
H1 C7 1_555 1_555
C8 C7 1_555 1_555
H2 C8 1_555 1_555
C9 C8 1_555 1_555
H3 C9 1_555 1_555
C10 C9 1_555 1_555
H4 C10 1_555 1_555
C11 C6 1_555 1_555
H5 C11 1_555 1_555
C12 P1 1_555 1_555
C13 C12 1_555 1_555
H6 C13 1_555 1_555
C14 C13 1_555 1_555
H7 C14 1_555 1_555
C15 C14 1_555 1_555
H8 C15 1_555 1_555
C16 C15 1_555 1_555
H9 C16 1_555 1_555
C17 C12 1_555 1_555
H10 C17 1_555 1_555
C18 P1 1_555 1_555
C19 C18 1_555 1_555
H11 C19 1_555 1_555
C20 C19 1_555 1_555
H12 C20 1_555 1_555
C21 C20 1_555 1_555
H13 C21 1_555 1_555
C22 C21 1_555 1_555
H14 C22 1_555 1_555
C23 C18 1_555 1_555
H15 C23 1_555 1_555
C24 C2 1_555 1_555
C25 C24 1_555 1_555
C26 C25 1_555 1_555
C27 C26 1_555 1_555
H16 C27 1_555 1_555
C28 C27 1_555 1_555
H17 C28 1_555 1_555
C29 C24 1_555 1_555
C30 O2 1_555 1_555
H18 C30 1_555 1_555
H19 C30 1_555 1_555
H20 C30 1_555 1_555
C31 C4 1_555 1_555
H21 C31 1_555 1_555
H22 C31 1_555 1_555
C32 C31 1_555 1_555
H23 C32 1_555 1_555
H24 C32 1_555 1_555
H25 C32 1_555 1_555
C33 C3 1_555 1_555
H26 C33 1_555 1_555
H27 C33 1_555 1_555
C34 C33 1_555 1_555
H28 C34 1_555 1_555
H29 C34 1_555 1_555
H30 C34 1_555 1_555
C35 C25 1_555 1_555
H31 C35 1_555 1_555
C36 C35 1_555 1_555
H32 C36 1_555 1_555
C37 C36 1_555 1_555
H33 C37 1_555 1_555
C38 C26 1_555 1_555
H34 C38 1_555 1_555
C4 C5 1_555 1_555
C10 C11 1_555 1_555
C16 C17 1_555 1_555
C22 C23 1_555 1_555
C28 C29 1_555 1_555
C37 C38 1_555 1_555

#END
