
#######################################################################
#
#                 Cambridge Crystallographic Data Centre
#                                CCDC 
#
#######################################################################
#
# If this CIF has been generated from an entry in the Cambridge 
# Structural Database, then it will include bibliographic, chemical, 
# crystal, experimental, refinement or atomic coordinate data resulting 
# from the CCDC's data processing and validation procedures.
#
#######################################################################

data_SEWGIL
_chemical_formula_moiety         'C31 H27 O4 P1'
_chemical_name_systematic        
1-(2-(bis(4-Methoxyphenyl)phosphinoyl)phenyl)-2-methoxynaphthalene
_symmetry_cell_setting           monoclinic
_symmetry_space_group_name_H-M   'P 21'
_symmetry_Int_Tables_number      4
_space_group_name_Hall           'P 2yb'
loop_
_symmetry_equiv_pos_site_id
_symmetry_equiv_pos_as_xyz
1 x,y,z
2 -x,1/2+y,-z
_cell_length_a                   9.929(2)
_cell_length_b                   13.264(3)
_cell_length_c                   10.538(2)
_cell_angle_alpha                90
_cell_angle_beta                 116.88(3)
_cell_angle_gamma                90
_cell_volume                     1237.89
_exptl_crystal_colour            colorless
_exptl_crystal_description       plate
_chemical_melting_point          162-163deg.C
_cell_formula_units_Z            2
_exptl_crystal_recrystallization_method 'ethyl acetate/hexane'
loop_
_atom_site_label
_atom_site_type_symbol
_atom_site_fract_x
_atom_site_fract_y
_atom_site_fract_z
P1 P 0.2368(2) 0.60654(17) 0.9582(2)
O1 O -0.0916(5) 0.7854(4) 0.9941(5)
O2 O 0.3770(5) 0.5710(4) 0.9536(5)
O3 O 0.2923(6) 0.5403(4) 1.5405(6)
O4 O -0.3037(6) 0.3863(4) 0.5331(6)
C1 C -0.0754(8) 0.7545(6) 0.7862(8)
C2 C -0.1640(8) 0.7499(6) 0.8564(8)
C3 C -0.3107(8) 0.7125(6) 0.7956(8)
H1 H -0.3635 0.7069 0.8491
C4 C -0.3748(8) 0.6844(6) 0.6576(8)
H2 H -0.4733 0.6601 0.6172
C5 C -0.2992(9) 0.6902(6) 0.5706(8)
C6 C -0.3636(9) 0.6634(7) 0.4279(8)
H3 H -0.4634 0.6415 0.3841
C7 C -0.2860(9) 0.6679(7) 0.3506(9)
H4 H -0.3318 0.6489 0.2554
C8 C -0.1373(9) 0.7013(6) 0.4147(8)
H5 H -0.0836 0.7040 0.3618
C9 C -0.0690(9) 0.7303(6) 0.5539(9)
H6 H 0.0300 0.7536 0.5938
C10 C -0.1466(9) 0.7255(6) 0.6397(9)
C11 C 0.0812(8) 0.7977(6) 0.8525(8)
C12 C 0.2164(8) 0.7421(6) 0.9269(8)
C13 C 0.3512(8) 0.7937(7) 0.9793(8)
H7 H 0.4400 0.7569 1.0256
C14 C 0.3627(10) 0.8962(7) 0.9675(9)
H8 H 0.4562 0.9280 1.0069
C15 C 0.2292(11) 0.9510(7) 0.8945(9)
H9 H 0.2327 1.0205 0.8842
C16 C 0.0920(9) 0.9013(6) 0.8375(9)
H10 H 0.0040 0.9382 0.7876
C17 C -0.1711(10) 0.7814(7) 1.0800(9)
H11 H -0.1081 0.8085 1.1726
H12 H -0.1959 0.7127 1.0890
H13 H -0.2622 0.8204 1.0353
C18 C 0.2451(8) 0.5875(6) 1.1307(8)
C19 C 0.2037(8) 0.6579(6) 1.2046(8)
H14 H 0.1654 0.7198 1.1620
C20 C 0.2174(8) 0.6393(6) 1.3370(9)
H15 H 0.1866 0.6877 1.3823
C21 C 0.2766(8) 0.5493(7) 1.4042(9)
C22 C 0.3201(9) 0.4769(6) 1.3354(8)
H16 H 0.3597 0.4157 1.3796
C23 C 0.3041(8) 0.4966(6) 1.1994(8)
H17 H 0.3335 0.4479 1.1534
C24 C 0.3691(10) 0.4529(7) 1.6204(9)
H18 H 0.3728 0.4555 1.7130
H19 H 0.4700 0.4512 1.6302
H20 H 0.3159 0.3933 1.5716
C25 C 0.0732(8) 0.5403(6) 0.8323(8)
C26 C 0.0626(8) 0.5179(6) 0.6996(8)
H21 H 0.1399 0.5383 0.6786
C27 C -0.0600(9) 0.4659(6) 0.5968(9)
H22 H -0.0638 0.4512 0.5090
C28 C -0.1760(10) 0.4364(6) 0.6269(9)
C29 C -0.1662(10) 0.4555(6) 0.7594(9)
H23 H -0.2437 0.4343 0.7796
C30 C -0.0445(9) 0.5052(6) 0.8621(9)
H24 H -0.0391 0.5158 0.9515
C31 C -0.3225(9) 0.3739(7) 0.3920(9)
H25 H -0.4147 0.3381 0.3364
H26 H -0.2389 0.3364 0.3940
H27 H -0.3267 0.4389 0.3503
loop_
_geom_bond_atom_site_label_1
_geom_bond_atom_site_label_2
_geom_bond_site_symmetry_1
_geom_bond_site_symmetry_2
P1 O2 1_555 1_555
O1 C2 1_555 1_555
O3 C21 1_555 1_555
O4 C28 1_555 1_555
C1 C2 1_555 1_555
C2 C3 1_555 1_555
C3 H1 1_555 1_555
C4 C3 1_555 1_555
H2 C4 1_555 1_555
C5 C4 1_555 1_555
C6 C5 1_555 1_555
H3 C6 1_555 1_555
C7 C6 1_555 1_555
H4 C7 1_555 1_555
C8 C7 1_555 1_555
H5 C8 1_555 1_555
C9 C8 1_555 1_555
H6 C9 1_555 1_555
C10 C1 1_555 1_555
C11 C1 1_555 1_555
C12 P1 1_555 1_555
C13 C12 1_555 1_555
H7 C13 1_555 1_555
C14 C13 1_555 1_555
H8 C14 1_555 1_555
C15 C14 1_555 1_555
H9 C15 1_555 1_555
C16 C11 1_555 1_555
H10 C16 1_555 1_555
C17 O1 1_555 1_555
H11 C17 1_555 1_555
H12 C17 1_555 1_555
H13 C17 1_555 1_555
C18 P1 1_555 1_555
C19 C18 1_555 1_555
H14 C19 1_555 1_555
C20 C19 1_555 1_555
H15 C20 1_555 1_555
C21 C20 1_555 1_555
C22 C21 1_555 1_555
H16 C22 1_555 1_555
C23 C18 1_555 1_555
H17 C23 1_555 1_555
C24 O3 1_555 1_555
H18 C24 1_555 1_555
H19 C24 1_555 1_555
H20 C24 1_555 1_555
C25 P1 1_555 1_555
C26 C25 1_555 1_555
H21 C26 1_555 1_555
C27 C26 1_555 1_555
H22 C27 1_555 1_555
C28 C27 1_555 1_555
C29 C28 1_555 1_555
H23 C29 1_555 1_555
C30 C25 1_555 1_555
H24 C30 1_555 1_555
C31 O4 1_555 1_555
H25 C31 1_555 1_555
H26 C31 1_555 1_555
H27 C31 1_555 1_555
C5 C10 1_555 1_555
C9 C10 1_555 1_555
C11 C12 1_555 1_555
C15 C16 1_555 1_555
C22 C23 1_555 1_555
C29 C30 1_555 1_555

#END
