
#######################################################################
#
#                 Cambridge Crystallographic Data Centre
#                                CCDC 
#
#######################################################################
#
# If this CIF has been generated from an entry in the Cambridge 
# Structural Database, then it will include bibliographic, chemical, 
# crystal, experimental, refinement or atomic coordinate data resulting 
# from the CCDC's data processing and validation procedures.
#
#######################################################################

data_SEWGOR
_chemical_formula_moiety         'C25 H31 O2 P1'
_chemical_name_systematic        
1-(2-(Di-t-butylphosphinoyl)phenyl)-2-methoxynaphthalene
_symmetry_cell_setting           triclinic
_symmetry_space_group_name_H-M   'P 1'
_symmetry_Int_Tables_number      1
_space_group_name_Hall           'P 1'
loop_
_symmetry_equiv_pos_site_id
_symmetry_equiv_pos_as_xyz
1 x,y,z
_cell_length_a                   8.0980(16)
_cell_length_b                   8.2820(17)
_cell_length_c                   9.4930(19)
_cell_angle_alpha                98.71(3)
_cell_angle_beta                 96.06(3)
_cell_angle_gamma                118.49(3)
_cell_volume                     541.411
_exptl_crystal_colour            colorless
_exptl_crystal_description       prism
_chemical_melting_point          215-216deg.C
_cell_formula_units_Z            1
_exptl_crystal_recrystallization_method 'ethyl acetate/hexane'
loop_
_atom_site_label
_atom_site_type_symbol
_atom_site_fract_x
_atom_site_fract_y
_atom_site_fract_z
P1 P -0.20261(6) -0.80417(6) -0.36771(5)
O1 O -0.0416(2) -0.6306(2) -0.26762(17)
O2 O -0.4742(2) -0.5909(2) -0.08963(19)
C1 C -0.2553(3) -0.6905(3) -0.0377(2)
C2 C -0.2976(3) -0.5471(3) -0.0197(2)
C3 C -0.1615(4) -0.3648(4) 0.0673(3)
C4 C 0.0090(4) -0.3344(3) 0.1396(3)
C5 C 0.0542(3) -0.4797(3) 0.1318(2)
C6 C 0.2270(4) -0.4529(4) 0.2102(3)
C7 C 0.2670(4) -0.5943(4) 0.2031(3)
C8 C 0.1321(4) -0.7746(4) 0.1160(3)
C9 C -0.0360(3) -0.8068(3) 0.0388(3)
C10 C -0.0809(3) -0.6604(3) 0.0424(2)
C11 C -0.4001(3) -0.8789(3) -0.1327(2)
C12 C -0.3919(3) -0.9452(3) -0.2749(2)
C13 C -0.5382(3) -1.1258(3) -0.3519(3)
C14 C -0.6905(3) -1.2372(3) -0.2914(3)
C15 C -0.6995(3) -1.1700(4) -0.1528(3)
C16 C -0.5560(3) -0.9934(4) -0.0748(3)
C17 C -0.5190(5) -0.4443(5) -0.0918(4)
C18 C -0.1052(3) -0.9531(4) -0.4472(3)
C19 C 0.0906(4) -0.8161(6) -0.4776(4)
C20 C -0.0689(5) -1.0461(6) -0.3285(4)
C21 C -0.2242(4) -1.1039(5) -0.5877(3)
C22 C -0.3241(3) -0.7368(3) -0.5065(2)
C23 C -0.3744(5) -0.6038(4) -0.4171(3)
C24 C -0.5061(3) -0.8974(4) -0.6092(3)
C25 C -0.1810(4) -0.6285(5) -0.5968(3)
H1 H -0.197(4) -0.264(4) 0.077(3)
H2 H 0.093(4) -0.217(4) 0.204(3)
H3 H 0.307(4) -0.324(4) 0.267(3)
H4 H 0.387(5) -0.572(5) 0.262(4)
H5 H 0.160(4) -0.873(4) 0.115(3)
H6 H -0.131(4) -0.934(4) -0.017(3)
H7 H -0.534(3) -1.170(4) -0.450(3)
H8 H -0.778(4) -1.355(4) -0.338(3)
H9 H -0.792(5) -1.247(4) -0.108(4)
H10 H -0.561(4) -0.947(4) 0.029(3)
H11 H -0.500(4) -0.386(5) -0.004(4)
H12 H -0.654(5) -0.510(5) -0.152(4)
H13 H -0.432(5) -0.348(5) -0.144(4)
H14 H 0.080(6) -0.768(6) -0.568(5)
H15 H 0.163(6) -0.706(7) -0.398(5)
H16 H 0.151(5) -0.882(5) -0.505(4)
H17 H -0.181(6) -1.129(6) -0.308(4)
H18 H 0.001(5) -1.109(5) -0.356(4)
H19 H -0.001(6) -0.951(6) -0.243(5)
H20 H -0.348(5) -1.211(5) -0.565(4)
H21 H -0.241(5) -1.046(5) -0.671(4)
H22 H -0.157(4) -1.176(4) -0.605(3)
H23 H -0.468(5) -0.665(5) -0.351(4)
H24 H -0.273(4) -0.501(4) -0.352(3)
H25 H -0.424(4) -0.554(5) -0.482(3)
H26 H -0.605(4) -0.974(4) -0.561(3)
H27 H -0.480(4) -0.974(4) -0.677(3)
H28 H -0.566(4) -0.841(4) -0.670(3)
H29 H -0.071(4) -0.527(4) -0.529(3)
H30 H -0.155(4) -0.706(4) -0.658(3)
H31 H -0.239(5) -0.568(5) -0.667(4)
loop_
_geom_bond_atom_site_label_1
_geom_bond_atom_site_label_2
_geom_bond_site_symmetry_1
_geom_bond_site_symmetry_2
P1 O1 1_555 1_555
O2 C2 1_555 1_555
C1 C2 1_555 1_555
C2 C3 1_555 1_555
C3 C4 1_555 1_555
C4 C5 1_555 1_555
C5 C6 1_555 1_555
C6 C7 1_555 1_555
C7 C8 1_555 1_555
C8 C9 1_555 1_555
C9 C10 1_555 1_555
C10 C1 1_555 1_555
C11 C1 1_555 1_555
C12 P1 1_555 1_555
C13 C12 1_555 1_555
C14 C13 1_555 1_555
C15 C14 1_555 1_555
C16 C11 1_555 1_555
C17 O2 1_555 1_555
C18 P1 1_555 1_555
C19 C18 1_555 1_555
C20 C18 1_555 1_555
C21 C18 1_555 1_555
C22 P1 1_555 1_555
C23 C22 1_555 1_555
C24 C22 1_555 1_555
C25 C22 1_555 1_555
H1 C3 1_555 1_555
H2 C4 1_555 1_555
H3 C6 1_555 1_555
H4 C7 1_555 1_555
H5 C8 1_555 1_555
H6 C9 1_555 1_555
H7 C13 1_555 1_555
H8 C14 1_555 1_555
H9 C15 1_555 1_555
H10 C16 1_555 1_555
H11 C17 1_555 1_555
H12 C17 1_555 1_555
H13 C17 1_555 1_555
H14 C19 1_555 1_555
H15 C19 1_555 1_555
H16 C19 1_555 1_555
H17 C20 1_555 1_555
H18 C20 1_555 1_555
H19 C20 1_555 1_555
H20 C21 1_555 1_555
H21 C21 1_555 1_555
H22 C21 1_555 1_555
H23 C23 1_555 1_555
H24 C23 1_555 1_555
H25 C23 1_555 1_555
H26 C24 1_555 1_555
H27 C24 1_555 1_555
H28 C24 1_555 1_555
H29 C25 1_555 1_555
H30 C25 1_555 1_555
H31 C25 1_555 1_555
C5 C10 1_555 1_555
C11 C12 1_555 1_555
C15 C16 1_555 1_555

#END
