
#######################################################################
#
#                 Cambridge Crystallographic Data Centre
#                                CCDC 
#
#######################################################################
#
# If this CIF has been generated from an entry in the Cambridge 
# Structural Database, then it will include bibliographic, chemical, 
# crystal, experimental, refinement or atomic coordinate data resulting 
# from the CCDC's data processing and validation procedures.
#
#######################################################################

data_SEWGEH
_chemical_formula_moiety         'C29 H23 O2 P1'
_chemical_name_systematic        
(-)-(S)-1-(2-(Diphenylphosphinoyl)phenyl)-2-methoxynaphthalene
_symmetry_cell_setting           monoclinic
_symmetry_space_group_name_H-M   'P 21'
_symmetry_Int_Tables_number      4
_space_group_name_Hall           'P 2yb'
loop_
_symmetry_equiv_pos_site_id
_symmetry_equiv_pos_as_xyz
1 x,y,z
2 -x,1/2+y,-z
_cell_length_a                   10.346(2)
_cell_length_b                   9.3080(19)
_cell_length_c                   11.713(2)
_cell_angle_alpha                90
_cell_angle_beta                 98.08(3)
_cell_angle_gamma                90
_cell_volume                     1116.77
_exptl_crystal_colour            colorless
_exptl_crystal_description       block
_chemical_melting_point          149-150deg.C
_cell_formula_units_Z            2
_exptl_crystal_recrystallization_method 'ethyl acetate/hexane'
loop_
_atom_site_label
_atom_site_type_symbol
_atom_site_fract_x
_atom_site_fract_y
_atom_site_fract_z
P1 P -0.72402(5) -0.14128(6) -0.26854(4)
O1 O -0.70197(15) -0.54616(15) -0.24384(11)
O2 O -0.67601(16) 0.00890(15) -0.26537(13)
C1 C -0.8292(2) -0.53146(19) -0.22518(16)
C2 C -0.8522(2) -0.42724(19) -0.14684(15)
C3 C -0.9806(2) -0.4098(2) -0.11846(15)
C4 C -1.0116(2) -0.3049(2) -0.03888(16)
H1 H -0.9468 -0.2434 -0.0043
C5 C -1.1359(2) -0.2931(3) -0.01229(19)
H2 H -1.1543 -0.2242 0.0406
C6 C -1.2354(2) -0.3834(3) -0.0638(2)
H3 H -1.3192 -0.3749 -0.0445
C7 C -1.2097(2) -0.4831(3) -0.14176(19)
H4 H -1.2768 -0.5419 -0.1761
C8 C -1.0831(2) -0.4994(2) -0.17195(16)
C9 C -1.0537(2) -0.6023(2) -0.25295(18)
H5 H -1.1201 -0.6609 -0.2888
C10 C -0.9312(2) -0.6181(2) -0.28006(17)
H6 H -0.9146 -0.6858 -0.3346
C11 C -0.74025(19) -0.3445(2) -0.08350(15)
C12 C -0.68086(19) -0.22508(19) -0.12824(15)
C13 C -0.5773(2) -0.1578(2) -0.06002(17)
H7 H -0.5389 -0.0777 -0.0888
C14 C -0.5297(2) -0.2067(2) 0.04933(18)
H8 H -0.4594 -0.1612 0.0928
C15 C -0.5879(2) -0.3236(2) 0.09296(17)
H9 H -0.5571 -0.3574 0.1665
C16 C -0.6921(2) -0.3906(2) 0.02743(16)
H10 H -0.7311 -0.4688 0.0583
C17 C -0.6732(2) -0.6452(3) -0.32964(18)
H11 H -0.5812 -0.6435 -0.3340
H12 H -0.7205 -0.6186 -0.4030
H13 H -0.6984 -0.7402 -0.3097
C18 C -0.8984(2) -0.1486(2) -0.30617(15)
C19 C -0.9679(3) -0.0408(3) -0.25848(19)
H14 H -0.9233 0.0301 -0.2128
C20 C -1.1017(3) -0.0390(3) -0.2787(2)
H15 H -1.1471 0.0321 -0.2452
C21 C -1.1692(3) -0.1408(4) -0.3477(2)
H16 H -1.2599 -0.1382 -0.3613
C22 C -1.1021(3) -0.2472(3) -0.3967(2)
H17 H -1.1479 -0.3163 -0.4434
C23 C -0.9674(2) -0.2517(2) -0.37687(17)
H18 H -0.9227 -0.3233 -0.4105
C24 C -0.6473(2) -0.2454(2) -0.37140(16)
C25 C -0.6927(2) -0.2361(2) -0.48825(17)
H19 H -0.7691 -0.1858 -0.5133
C26 C -0.6248(2) -0.3014(3) -0.56794(19)
H20 H -0.6561 -0.2948 -0.6462
C27 C -0.5117(3) -0.3758(2) -0.53235(19)
H21 H -0.4671 -0.4208 -0.5860
C28 C -0.4653(2) -0.3831(3) -0.4172(2)
H22 H -0.3879 -0.4319 -0.3928
C29 C -0.5324(2) -0.3185(2) -0.33649(18)
H23 H -0.4999 -0.3244 -0.2585
loop_
_geom_bond_atom_site_label_1
_geom_bond_atom_site_label_2
_geom_bond_site_symmetry_1
_geom_bond_site_symmetry_2
P1 O2 1_555 1_555
O1 C1 1_555 1_555
C1 C2 1_555 1_555
C2 C3 1_555 1_555
C3 C4 1_555 1_555
C4 H1 1_555 1_555
C5 C4 1_555 1_555
H2 C5 1_555 1_555
C6 C5 1_555 1_555
H3 C6 1_555 1_555
C7 C6 1_555 1_555
H4 C7 1_555 1_555
C8 C3 1_555 1_555
C9 C8 1_555 1_555
H5 C9 1_555 1_555
C10 C1 1_555 1_555
H6 C10 1_555 1_555
C11 C2 1_555 1_555
C12 P1 1_555 1_555
C13 C12 1_555 1_555
H7 C13 1_555 1_555
C14 C13 1_555 1_555
H8 C14 1_555 1_555
C15 C14 1_555 1_555
H9 C15 1_555 1_555
C16 C11 1_555 1_555
H10 C16 1_555 1_555
C17 O1 1_555 1_555
H11 C17 1_555 1_555
H12 C17 1_555 1_555
H13 C17 1_555 1_555
C18 P1 1_555 1_555
C19 C18 1_555 1_555
H14 C19 1_555 1_555
C20 C19 1_555 1_555
H15 C20 1_555 1_555
C21 C20 1_555 1_555
H16 C21 1_555 1_555
C22 C21 1_555 1_555
H17 C22 1_555 1_555
C23 C18 1_555 1_555
H18 C23 1_555 1_555
C24 P1 1_555 1_555
C25 C24 1_555 1_555
H19 C25 1_555 1_555
C26 C25 1_555 1_555
H20 C26 1_555 1_555
C27 C26 1_555 1_555
H21 C27 1_555 1_555
C28 C27 1_555 1_555
H22 C28 1_555 1_555
C29 C24 1_555 1_555
H23 C29 1_555 1_555
C7 C8 1_555 1_555
C9 C10 1_555 1_555
C11 C12 1_555 1_555
C15 C16 1_555 1_555
C22 C23 1_555 1_555
C28 C29 1_555 1_555

#END
