
#######################################################################
#
#                 Cambridge Crystallographic Data Centre
#                                CCDC 
#
#######################################################################
#
# If this CIF has been generated from an entry in the Cambridge 
# Structural Database, then it will include bibliographic, chemical, 
# crystal, experimental, refinement or atomic coordinate data resulting 
# from the CCDC's data processing and validation procedures.
#
#######################################################################

data_SEWLIR
_chemical_formula_moiety         'C22 H27 N1 O7 Si1'
_chemical_name_systematic        
'6,7-Dimethoxy-3-(methoxy(methyl)carbamoyl)-1,1-dimethyl-3,4-dihydro-1H-2,1-benzoxasilin-4-yl benzoate'
_symmetry_cell_setting           monoclinic
_symmetry_space_group_name_H-M   'P 21'
_symmetry_Int_Tables_number      4
_space_group_name_Hall           'P 2yb'
loop_
_symmetry_equiv_pos_site_id
_symmetry_equiv_pos_as_xyz
1 x,y,z
2 -x,1/2+y,-z
_cell_length_a                   11.2180(3)
_cell_length_b                   8.4355(3)
_cell_length_c                   12.9122(3)
_cell_angle_alpha                90
_cell_angle_beta                 106.651(3)
_cell_angle_gamma                90
_cell_volume                     1170.64
_cell_formula_units_Z            2
loop_
_atom_site_label
_atom_site_type_symbol
_atom_site_fract_x
_atom_site_fract_y
_atom_site_fract_z
Si1 Si 0.31871(4) 0.93634(7) 0.34973(4)
O1 O 0.25182(13) 0.55374(18) 0.36513(11)
O2 O 0.41488(12) 0.7946(2) 0.33674(12)
O3 O -0.16333(15) 0.7690(2) 0.01953(15)
O4 O 0.46063(14) 0.4233(2) 0.16221(12)
O5 O -0.13073(13) 1.0530(2) 0.08645(14)
O6 O 0.37972(16) 0.8208(2) 0.11524(15)
O7 O 0.08560(18) 0.3989(2) 0.29910(14)
C1 C -0.05192(17) 0.7962(3) 0.09507(16)
C2 C 0.03982(18) 0.6851(3) 0.13485(15)
H1 H 0.0285 0.5814 0.1095
C3 C 0.24922(17) 0.6023(3) 0.25545(15)
H2 H 0.2323 0.5100 0.2074
N1 N 0.44400(18) 0.5713(2) 0.11171(15)
C4 C 0.38372(18) 0.6598(3) 0.27078(16)
H3 H 0.4402 0.5740 0.3050
C5 C 0.15005(17) 0.7275(2) 0.21326(14)
C6 C 0.16770(16) 0.8813(2) 0.25249(14)
C7 C 0.40198(18) 0.6913(3) 0.15900(17)
C8 C 0.07321(17) 0.9937(3) 0.21115(16)
H4 H 0.0837 1.0972 0.2370
C9 C 0.16487(18) 0.4504(3) 0.37501(17)
C10 C -0.03488(16) 0.9529(3) 0.13284(16)
C11 C 0.4429(3) 0.5672(4) -0.00080(19)
H5 H 0.5090 0.5002 -0.0085
H6 H 0.4544 0.6725 -0.0245
H7 H 0.3645 0.5262 -0.0439
C12 C 0.1804(2) 0.4064(3) 0.48976(18)
C13 C -0.1178(2) 1.2136(3) 0.1197(2)
H8 H -0.1866 1.2739 0.0761
H9 H -0.0414 1.2553 0.1113
H10 H -0.1165 1.2206 0.1942
C14 C -0.2042(2) 0.6101(4) 0.0011(2)
H11 H -0.1526 0.5545 -0.0346
H12 H -0.2889 0.6084 -0.0436
H13 H -0.1989 0.5597 0.0689
C15 C 0.2861(2) 0.4424(4) 0.57085(19)
H14 H 0.3497 0.4987 0.5546
C16 C 0.5908(2) 0.3951(4) 0.2081(2)
H15 H 0.6321 0.4029 0.1526
H16 H 0.6032 0.2909 0.2393
H17 H 0.6246 0.4725 0.2632
C17 C 0.0861(3) 0.3208(5) 0.5135(3)
H18 H 0.0145 0.2933 0.4595
C18 C 0.2996(3) 0.3964(5) 0.6764(2)
H19 H 0.3718 0.4215 0.7306
C19 C 0.3762(3) 1.1300(3) 0.3179(3)
H20 H 0.3966 1.1227 0.2507
H21 H 0.4491 1.1593 0.3745
H22 H 0.3128 1.2088 0.3118
C20 C 0.3141(3) 0.9346(5) 0.49208(19)
H23 H 0.2687 1.0254 0.5050
H24 H 0.3974 0.9380 0.5395
H25 H 0.2737 0.8396 0.5054
C21 C 0.2065(3) 0.3139(5) 0.7005(3)
H26 H 0.2151 0.2831 0.7714
C22 C 0.1016(4) 0.2768(5) 0.6216(3)
H27 H 0.0385 0.2211 0.6392
loop_
_geom_bond_atom_site_label_1
_geom_bond_atom_site_label_2
_geom_bond_site_symmetry_1
_geom_bond_site_symmetry_2
Si1 O2 1_555 1_555
O1 C3 1_555 1_555
O2 C4 1_555 1_555
O3 C1 1_555 1_555
O4 N1 1_555 1_555
O5 C10 1_555 1_555
O6 C7 1_555 1_555
O7 C9 1_555 1_555
C1 C2 1_555 1_555
C2 H1 1_555 1_555
C3 H2 1_555 1_555
N1 C7 1_555 1_555
C4 C3 1_555 1_555
H3 C4 1_555 1_555
C5 C2 1_555 1_555
C6 Si1 1_555 1_555
C7 C4 1_555 1_555
C8 C6 1_555 1_555
H4 C8 1_555 1_555
C9 O1 1_555 1_555
C10 C1 1_555 1_555
C11 N1 1_555 1_555
H5 C11 1_555 1_555
H6 C11 1_555 1_555
H7 C11 1_555 1_555
C12 C9 1_555 1_555
C13 O5 1_555 1_555
H8 C13 1_555 1_555
H9 C13 1_555 1_555
H10 C13 1_555 1_555
C14 O3 1_555 1_555
H11 C14 1_555 1_555
H12 C14 1_555 1_555
H13 C14 1_555 1_555
C15 C12 1_555 1_555
H14 C15 1_555 1_555
C16 O4 1_555 1_555
H15 C16 1_555 1_555
H16 C16 1_555 1_555
H17 C16 1_555 1_555
C17 C12 1_555 1_555
H18 C17 1_555 1_555
C18 C15 1_555 1_555
H19 C18 1_555 1_555
C19 Si1 1_555 1_555
H20 C19 1_555 1_555
H21 C19 1_555 1_555
H22 C19 1_555 1_555
C20 Si1 1_555 1_555
H23 C20 1_555 1_555
H24 C20 1_555 1_555
H25 C20 1_555 1_555
C21 C18 1_555 1_555
H26 C21 1_555 1_555
C22 C17 1_555 1_555
H27 C22 1_555 1_555
C3 C5 1_555 1_555
C5 C6 1_555 1_555
C8 C10 1_555 1_555
C21 C22 1_555 1_555

#END
