
#######################################################################
#
#                 Cambridge Crystallographic Data Centre
#                                CCDC 
#
#######################################################################
#
# If this CIF has been generated from an entry in the Cambridge 
# Structural Database, then it will include bibliographic, chemical, 
# crystal, experimental, refinement or atomic coordinate data resulting 
# from the CCDC's data processing and validation procedures.
#
#######################################################################

data_SEWPUH
_chemical_name_common            
'(R)-t-Butyl 3-(2-ethoxy-1-hydroxy-2-oxo-1-p-tolylethyl)-2-oxo-2,5-dihydro-1H-pyrrole-1-carboxylate'
_chemical_formula_moiety         'C20 H25 N1 O6'
_chemical_name_systematic        
'(R)-t-Butyl 3-(2-ethoxy-1-hydroxy-1-(4-methylphenyl)-2-oxoethyl)-2-oxo-2,5-dihydro-1H-pyrrole-1-carboxylate'
_symmetry_cell_setting           monoclinic
_symmetry_space_group_name_H-M   'P 21'
_symmetry_Int_Tables_number      4
_space_group_name_Hall           'P 2yb'
loop_
_symmetry_equiv_pos_site_id
_symmetry_equiv_pos_as_xyz
1 x,y,z
2 -x,1/2+y,-z
_cell_length_a                   9.941(4)
_cell_length_b                   7.947(3)
_cell_length_c                   12.485(4)
_cell_angle_alpha                90
_cell_angle_beta                 94.403(4)
_cell_angle_gamma                90
_cell_volume                     983.418
_cell_formula_units_Z            2
loop_
_atom_site_label
_atom_site_type_symbol
_atom_site_fract_x
_atom_site_fract_y
_atom_site_fract_z
O1 O 0.00966(13) 1.03404(18) 0.13559(11)
H1 H -0.0403 1.0855 0.1733
O2 O 0.13957(17) 0.8861(2) 0.39166(12)
O3 O 0.07559(18) 1.14202(18) 0.33256(13)
O4 O -0.15123(14) 0.78344(18) 0.28356(14)
O5 O -0.27139(13) 0.47621(17) 0.30056(12)
O6 O -0.19505(14) 0.27259(18) 0.19404(14)
C1 C 0.3910(2) 1.0418(3) 0.03382(18)
H2 H 0.4032 1.0990 -0.0297
C2 C 0.5007(2) 0.9655(3) 0.08791(18)
C3 C 0.6398(2) 0.9806(3) 0.0476(2)
H3 H 0.7049 0.9300 0.0986
H4 H 0.6615 1.0972 0.0390
H5 H 0.6413 0.9240 -0.0202
C4 C 0.4796(2) 0.8797(3) 0.18070(19)
H6 H 0.5519 0.8278 0.2192
C5 C 0.3513(2) 0.8696(3) 0.21789(18)
H7 H 0.3389 0.8098 0.2804
C6 C 0.24184(17) 0.9475(2) 0.16307(15)
C7 C 0.2637(2) 1.0362(3) 0.07058(16)
H8 H 0.1926 1.0922 0.0332
C8 C 0.09817(17) 0.9312(2) 0.20120(15)
C9 C 0.10558(18) 0.9810(2) 0.31996(16)
C10 C 0.0849(3) 1.2106(3) 0.4420(2)
H9 H -0.0049 1.2296 0.4650
H10 H 0.1310 1.1313 0.4911
C11 C 0.1588(4) 1.3679(5) 0.4429(3)
H11 H 0.2472 1.3484 0.4193
H12 H 0.1668 1.4128 0.5145
H13 H 0.1115 1.4467 0.3955
C12 C 0.05118(17) 0.7501(2) 0.19110(15)
C13 C 0.10094(19) 0.6227(3) 0.13894(17)
H14 H 0.1793 0.6291 0.1030
C14 C 0.01815(19) 0.4688(2) 0.14405(17)
H15 H -0.0165 0.4328 0.0730
H16 H 0.0692 0.3776 0.1792
N1 N -0.09124(15) 0.52545(19) 0.20838(13)
C15 C -0.07585(18) 0.6967(2) 0.23587(15)
C16 C -0.4909(2) 0.3621(4) 0.2386(2)
H17 H -0.5177 0.4722 0.2136
H18 H -0.5685 0.3018 0.2591
H19 H -0.4512 0.3022 0.1821
C17 C -0.4410(3) 0.4924(4) 0.4193(2)
H20 H -0.3767 0.4953 0.4807
H21 H -0.5256 0.4503 0.4403
H22 H -0.4534 0.6039 0.3907
C18 C -0.3438(3) 0.2110(4) 0.3818(3)
H23 H -0.3048 0.1444 0.3280
H24 H -0.4199 0.1527 0.4069
H25 H -0.2778 0.2298 0.4408
C19 C -0.38929(19) 0.3778(3) 0.33405(18)
C20 C -0.19057(18) 0.4124(2) 0.23218(16)
loop_
_geom_bond_atom_site_label_1
_geom_bond_atom_site_label_2
_geom_bond_site_symmetry_1
_geom_bond_site_symmetry_2
O1 H1 1_555 1_555
O2 C9 1_555 1_555
O3 C9 1_555 1_555
O4 C15 1_555 1_555
O5 C19 1_555 1_555
O6 C20 1_555 1_555
C1 H2 1_555 1_555
C2 C1 1_555 1_555
C3 C2 1_555 1_555
H3 C3 1_555 1_555
H4 C3 1_555 1_555
H5 C3 1_555 1_555
C4 C2 1_555 1_555
H6 C4 1_555 1_555
C5 C4 1_555 1_555
H7 C5 1_555 1_555
C6 C5 1_555 1_555
C7 C1 1_555 1_555
H8 C7 1_555 1_555
C8 O1 1_555 1_555
C9 C8 1_555 1_555
C10 O3 1_555 1_555
H9 C10 1_555 1_555
H10 C10 1_555 1_555
C11 C10 1_555 1_555
H11 C11 1_555 1_555
H12 C11 1_555 1_555
H13 C11 1_555 1_555
C12 C8 1_555 1_555
C13 C12 1_555 1_555
H14 C13 1_555 1_555
C14 C13 1_555 1_555
H15 C14 1_555 1_555
H16 C14 1_555 1_555
N1 C14 1_555 1_555
C15 C12 1_555 1_555
C16 H17 1_555 1_555
H18 C16 1_555 1_555
H19 C16 1_555 1_555
C17 H20 1_555 1_555
H21 C17 1_555 1_555
H22 C17 1_555 1_555
C18 H23 1_555 1_555
H24 C18 1_555 1_555
H25 C18 1_555 1_555
C19 C16 1_555 1_555
C20 O5 1_555 1_555
C6 C7 1_555 1_555
C6 C8 1_555 1_555
N1 C15 1_555 1_555
N1 C20 1_555 1_555
C17 C19 1_555 1_555
C18 C19 1_555 1_555

#END
