
#######################################################################
#
#                 Cambridge Crystallographic Data Centre
#                                CCDC 
#
#######################################################################
#
# If this CIF has been generated from an entry in the Cambridge 
# Structural Database, then it will include bibliographic, chemical, 
# crystal, experimental, refinement or atomic coordinate data resulting 
# from the CCDC's data processing and validation procedures.
#
#######################################################################

data_SEWQAO
_chemical_formula_moiety         'C34 H34 N2 O7 S1'
_chemical_name_systematic        
(2S,3R,4R,4aS,9aR)-2-Ethyl-1-(4-methoxyphenyl)-4a-methyl-6-(4-methylbenzenesulfonyloxy)-3-nitro-4-phenyl-1,2,3,4,4a,9a-hexahydrobenzofuro[2,3-b]pyridine
_symmetry_cell_setting           monoclinic
_symmetry_space_group_name_H-M   'P 21'
_symmetry_Int_Tables_number      4
_space_group_name_Hall           'P 2yb'
loop_
_symmetry_equiv_pos_site_id
_symmetry_equiv_pos_as_xyz
1 x,y,z
2 -x,1/2+y,-z
_cell_length_a                   8.461(3)
_cell_length_b                   35.503(13)
_cell_length_c                   10.318(4)
_cell_angle_alpha                90
_cell_angle_beta                 90.898(6)
_cell_angle_gamma                90
_cell_volume                     3099.05
_exptl_crystal_colour            colorless
_cell_formula_units_Z            4
loop_
_atom_site_label
_atom_site_type_symbol
_atom_site_fract_x
_atom_site_fract_y
_atom_site_fract_z
C1 C 0.5983(14) 0.7381(4) 0.9743(11)
H1 H 0.6103 0.7177 1.0349
H2 H 0.6901 0.7540 0.9788
H3 H 0.5864 0.7282 0.8882
N1 N 0.4805(8) 0.87112(18) 0.4309(7)
O1 O -0.0787(7) 0.81223(17) 1.1711(6)
S1 S 0.0397(3) 0.83490(7) 1.1056(2)
C2 C 0.4542(14) 0.7608(3) 1.0074(10)
N2 N 0.7057(10) 0.8170(3) 0.6833(10)
O2 O 0.0894(7) 0.86984(17) 1.1594(6)
C3 C 0.4826(11) 0.7989(3) 1.0334(9)
H4 H 0.5853 0.8081 1.0303
O3 O -0.0377(5) 0.84152(16) 0.9653(5)
C4 C 0.3557(10) 0.8239(3) 1.0650(8)
H5 H 0.3703 0.8495 1.0804
O4 O 0.2963(8) 0.90387(14) 0.5648(6)
C5 C 0.2021(10) 0.8056(3) 1.0707(8)
O5 O 0.5832(7) 0.94166(17) -0.0457(6)
C6 C 0.1845(12) 0.7674(3) 1.0470(10)
H6 H 0.0849 0.7565 1.0524
O6 O 0.7025(9) 0.8120(3) 0.8000(8)
C7 C 0.3124(14) 0.7452(3) 1.0155(13)
H7 H 0.2990 0.7196 1.0001
O7 O 0.8008(9) 0.8034(3) 0.6173(8)
C8 C 0.1179(8) 0.8361(2) 0.7754(7)
H8 H 0.1051 0.8101 0.7788
C9 C 0.0557(10) 0.8588(3) 0.8676(9)
C10 C 0.0743(11) 0.8972(3) 0.8603(10)
H9 H 0.0308 0.9122 0.9244
C11 C 0.1547(11) 0.9143(3) 0.7619(10)
H10 H 0.1655 0.9403 0.7588
C12 C 0.2174(10) 0.8921(2) 0.6700(9)
C13 C 0.2009(9) 0.8529(2) 0.6761(8)
C14 C 0.2816(9) 0.8346(2) 0.5611(7)
C15 C 0.1633(9) 0.8086(2) 0.4814(8)
H11 H 0.1467 0.7856 0.5280
H12 H 0.2073 0.8031 0.3983
H13 H 0.0643 0.8215 0.4695
C16 C 0.3250(9) 0.8706(2) 0.4783(8)
H14 H 0.2513 0.8721 0.4042
C17 C 0.4286(8) 0.8104(2) 0.6060(8)
H15 H 0.4016 0.8011 0.6923
C18 C 0.5698(9) 0.8379(3) 0.6298(8)
H16 H 0.5383 0.8573 0.6918
C19 C 0.6247(16) 0.8563(3) 0.5099(12)
H17 H 0.6773 0.8371 0.4575
C20 C 0.7433(15) 0.8875(3) 0.5378(12)
H18 H 0.7744 0.8984 0.4559
H19 H 0.8369 0.8764 0.5774
C21 C 0.6881(14) 0.9180(3) 0.6222(11)
H20 H 0.6048 0.9316 0.5789
H21 H 0.7742 0.9348 0.6416
H22 H 0.6493 0.9075 0.7013
C22 C 0.5075(10) 0.8904(2) 0.3118(8)
C23 C 0.4148(10) 0.9212(2) 0.2760(9)
H23 H 0.3383 0.9303 0.3316
C24 C 0.4371(11) 0.9381(2) 0.1579(10)
H24 H 0.3703 0.9578 0.1340
C25 C 0.5496(11) 0.9278(2) 0.0750(10)
C26 C 0.6490(10) 0.8981(3) 0.1146(9)
H25 H 0.7306 0.8908 0.0606
C27 C 0.6298(10) 0.8784(2) 0.2345(9)
H26 H 0.6960 0.8587 0.2592
C28 C 0.4906(12) 0.9727(3) -0.0884(10)
H27 H 0.3811 0.9656 -0.0903
H28 H 0.5222 0.9799 -0.1738
H29 H 0.5060 0.9934 -0.0300
C29 C 0.4718(10) 0.7755(3) 0.5300(9)
C30 C 0.4776(11) 0.7419(3) 0.5889(9)
H30 H 0.4512 0.7406 0.6760
C31 C 0.5204(13) 0.7093(3) 0.5273(13)
H31 H 0.5229 0.6867 0.5726
C32 C 0.5590(12) 0.7101(3) 0.4006(13)
H32 H 0.5861 0.6883 0.3562
C33 C 0.5565(15) 0.7446(4) 0.3406(11)
H33 H 0.5882 0.7460 0.2548
C34 C 0.5098(11) 0.7773(3) 0.4001(9)
H34 H 0.5039 0.7999 0.3546
S2 S 0.4616(3) 0.59634(8) 0.9093(2)
N3 N 0.0197(7) 0.55416(17) 0.2283(7)
N4 N -0.1991(10) 0.6037(2) 0.4896(10)
O8 O 0.5809(7) 0.62019(19) 0.9709(6)
O9 O 0.4105(8) 0.56281(17) 0.9694(6)
O10 O 0.5397(6) 0.58710(16) 0.7733(5)
O11 O 0.2083(7) 0.52151(15) 0.3674(6)
O12 O -0.0842(7) 0.48580(17) -0.2530(6)
O13 O -0.1928(9) 0.6092(3) 0.6058(8)
O14 O -0.3017(9) 0.6164(2) 0.4199(8)
C35 C -0.1095(14) 0.6881(4) 0.7556(12)
H35 H -0.1946 0.6802 0.8099
H36 H -0.1365 0.6829 0.6667
H37 H -0.0915 0.7146 0.7667
C36 C 0.0369(15) 0.6669(3) 0.7925(10)
C37 C 0.0127(11) 0.6322(4) 0.8412(10)
H38 H -0.0895 0.6230 0.8501
C38 C 0.1390(12) 0.6109(3) 0.8771(9)
H39 H 0.1225 0.5868 0.9098
C39 C 0.2945(10) 0.6245(3) 0.8659(8)
C40 C 0.3132(14) 0.6612(3) 0.8146(9)
H40 H 0.4138 0.6713 0.8050
C41 C 0.1879(13) 0.6810(3) 0.7806(11)
H41 H 0.2016 0.7051 0.7476
C42 C 0.3849(9) 0.5909(2) 0.5760(8)
H42 H 0.3949 0.6170 0.5780
C43 C 0.4487(10) 0.5694(3) 0.6748(9)
C44 C 0.4275(10) 0.5309(3) 0.6752(10)
H43 H 0.4638 0.5163 0.7444
C45 C 0.3496(11) 0.5142(3) 0.5687(11)
H44 H 0.3400 0.4881 0.5645
C46 C 0.2888(11) 0.5357(3) 0.4727(9)
C47 C 0.3062(9) 0.5738(2) 0.4743(8)
C48 C 0.2204(8) 0.5900(2) 0.3608(7)
C49 C 0.3326(10) 0.6157(2) 0.2794(8)
H45 H 0.3436 0.6398 0.3210
H46 H 0.2883 0.6190 0.1939
H47 H 0.4345 0.6040 0.2735
C50 C 0.1755(9) 0.5548(2) 0.2805(8)
H48 H 0.2484 0.5534 0.2078
C51 C 0.0695(9) 0.6125(2) 0.4058(8)
H49 H 0.0993 0.6220 0.4919
C52 C -0.0594(9) 0.5840(2) 0.4322(8)
H50 H -0.0189 0.5656 0.4950
C53 C -0.1196(10) 0.5630(2) 0.3118(8)
C54 C -0.0075(9) 0.5346(2) 0.1118(8)
C55 C 0.0859(10) 0.5045(2) 0.0747(8)
H51 H 0.1628 0.4950 0.1313
C56 C 0.0650(11) 0.4888(2) -0.0452(10)
H52 H 0.1311 0.4693 -0.0701
C57 C -0.0513(11) 0.5010(3) -0.1305(9)
C58 C -0.1476(10) 0.5299(3) -0.0892(9)
H53 H -0.2293 0.5380 -0.1438
C59 C -0.1277(10) 0.5473(2) 0.0306(9)
H54 H -0.1932 0.5670 0.0553
C60 C 0.0086(13) 0.4555(3) -0.2965(10)
H55 H 0.1172 0.4598 -0.2724
H56 H -0.0008 0.4536 -0.3891
H57 H -0.0273 0.4326 -0.2577
C61 C 0.0200(9) 0.6468(2) 0.3326(8)
C62 C -0.0391(11) 0.6462(3) 0.2075(9)
H58 H -0.0458 0.6235 0.1625
C63 C -0.0880(12) 0.6790(3) 0.1493(10)
H59 H -0.1283 0.6788 0.0649
C64 C -0.0767(13) 0.7119(3) 0.2171(13)
H60 H -0.1145 0.7341 0.1798
C65 C -0.0107(16) 0.7129(3) 0.3388(13)
H61 H 0.0040 0.7358 0.3811
C66 C 0.0320(11) 0.6811(3) 0.3959(10)
H62 H 0.0711 0.6818 0.4807
C67 C -0.251(2) 0.5352(5) 0.340(2)
C68 C -0.198(3) 0.5067(6) 0.440(3)
C69? C -0.318(3) 0.5170(6) 0.431(2)
C70? C -0.147(2) 0.5151(5) 0.360(2)
loop_
_geom_bond_atom_site_label_1
_geom_bond_atom_site_label_2
_geom_bond_site_symmetry_1
_geom_bond_site_symmetry_2
C1 H1 1_555 1_555
H2 C1 1_555 1_555
H3 C1 1_555 1_555
N1 C16 1_555 1_555
O1 S1 1_555 1_555
S1 O2 1_555 1_555
C2 C1 1_555 1_555
N2 O6 1_555 1_555
C3 C2 1_555 1_555
H4 C3 1_555 1_555
O3 S1 1_555 1_555
C4 C3 1_555 1_555
H5 C4 1_555 1_555
O4 C12 1_555 1_555
C5 S1 1_555 1_555
O5 C25 1_555 1_555
C6 C5 1_555 1_555
H6 C6 1_555 1_555
C7 C2 1_555 1_555
H7 C7 1_555 1_555
O7 N2 1_555 1_555
C8 H8 1_555 1_555
C9 O3 1_555 1_555
C10 C9 1_555 1_555
H9 C10 1_555 1_555
C11 C10 1_555 1_555
H10 C11 1_555 1_555
C12 C11 1_555 1_555
C13 C8 1_555 1_555
C14 C13 1_555 1_555
C15 C14 1_555 1_555
H11 C15 1_555 1_555
H12 C15 1_555 1_555
H13 C15 1_555 1_555
C16 O4 1_555 1_555
H14 C16 1_555 1_555
C17 C14 1_555 1_555
H15 C17 1_555 1_555
C18 N2 1_555 1_555
H16 C18 1_555 1_555
C19 N1 1_555 1_555
H17 C19 1_555 1_555
C20 C19 1_555 1_555
H18 C20 1_555 1_555
H19 C20 1_555 1_555
C21 C20 1_555 1_555
H20 C21 1_555 1_555
H21 C21 1_555 1_555
H22 C21 1_555 1_555
C22 N1 1_555 1_555
C23 C22 1_555 1_555
H23 C23 1_555 1_555
C24 C23 1_555 1_555
H24 C24 1_555 1_555
C25 C24 1_555 1_555
C26 C25 1_555 1_555
H25 C26 1_555 1_555
C27 C22 1_555 1_555
H26 C27 1_555 1_555
C28 O5 1_555 1_555
H27 C28 1_555 1_555
H28 C28 1_555 1_555
H29 C28 1_555 1_555
C29 C17 1_555 1_555
C30 C29 1_555 1_555
H30 C30 1_555 1_555
C31 C30 1_555 1_555
H31 C31 1_555 1_555
C32 C31 1_555 1_555
H32 C32 1_555 1_555
C33 C32 1_555 1_555
H33 C33 1_555 1_555
C34 C29 1_555 1_555
H34 C34 1_555 1_555
S2 O8 1_555 1_555
N3 C50 1_555 1_555
N4 O13 1_555 1_555
O9 S2 1_555 1_555
O10 S2 1_555 1_555
O11 C46 1_555 1_555
O12 C57 1_555 1_555
O14 N4 1_555 1_555
C35 H35 1_555 1_555
H36 C35 1_555 1_555
H37 C35 1_555 1_555
C36 C35 1_555 1_555
C37 C36 1_555 1_555
H38 C37 1_555 1_555
C38 C37 1_555 1_555
H39 C38 1_555 1_555
C39 S2 1_555 1_555
C40 C39 1_555 1_555
H40 C40 1_555 1_555
C41 C36 1_555 1_555
H41 C41 1_555 1_555
C42 H42 1_555 1_555
C43 O10 1_555 1_555
C44 C43 1_555 1_555
H43 C44 1_555 1_555
C45 C44 1_555 1_555
H44 C45 1_555 1_555
C46 C45 1_555 1_555
C47 C42 1_555 1_555
C48 C47 1_555 1_555
C49 C48 1_555 1_555
H45 C49 1_555 1_555
H46 C49 1_555 1_555
H47 C49 1_555 1_555
C50 O11 1_555 1_555
H48 C50 1_555 1_555
C51 C48 1_555 1_555
H49 C51 1_555 1_555
C52 N4 1_555 1_555
H50 C52 1_555 1_555
C53 N3 1_555 1_555
C54 N3 1_555 1_555
C55 C54 1_555 1_555
H51 C55 1_555 1_555
C56 C55 1_555 1_555
H52 C56 1_555 1_555
C57 C56 1_555 1_555
C58 C57 1_555 1_555
H53 C58 1_555 1_555
C59 C54 1_555 1_555
H54 C59 1_555 1_555
C60 O12 1_555 1_555
H55 C60 1_555 1_555
H56 C60 1_555 1_555
H57 C60 1_555 1_555
C61 C51 1_555 1_555
C62 C61 1_555 1_555
H58 C62 1_555 1_555
C63 C62 1_555 1_555
H59 C63 1_555 1_555
C64 C63 1_555 1_555
H60 C64 1_555 1_555
C65 C64 1_555 1_555
H61 C65 1_555 1_555
C66 C61 1_555 1_555
H62 C66 1_555 1_555
C67 C53 1_555 1_555
C68 C67 1_555 1_555
C4 C5 1_555 1_555
C6 C7 1_555 1_555
C8 C9 1_555 1_555
C12 C13 1_555 1_555
C14 C16 1_555 1_555
C17 C18 1_555 1_555
C18 C19 1_555 1_555
C26 C27 1_555 1_555
C33 C34 1_555 1_555
C38 C39 1_555 1_555
C40 C41 1_555 1_555
C42 C43 1_555 1_555
C46 C47 1_555 1_555
C48 C50 1_555 1_555
C51 C52 1_555 1_555
C52 C53 1_555 1_555
C58 C59 1_555 1_555
C65 C66 1_555 1_555

#END
