
#######################################################################
#
#                 Cambridge Crystallographic Data Centre
#                                CCDC 
#
#######################################################################
#
# If this CIF has been generated from an entry in the Cambridge 
# Structural Database, then it will include bibliographic, chemical, 
# crystal, experimental, refinement or atomic coordinate data resulting 
# from the CCDC's data processing and validation procedures.
#
#######################################################################

data_SEWROC
_chemical_formula_moiety         'C29 H48 O2'
_chemical_name_systematic        Stigmasta-4,25-diene-3\b,6\b-diol
_symmetry_cell_setting           orthorhombic
_symmetry_space_group_name_H-M   'P 21 21 21'
_symmetry_Int_Tables_number      19
_space_group_name_Hall           'P 2ac 2ab'
loop_
_symmetry_equiv_pos_site_id
_symmetry_equiv_pos_as_xyz
1 x,y,z
2 1/2-x,-y,1/2+z
3 -x,1/2+y,1/2-z
4 1/2+x,1/2-y,-z
_cell_length_a                   8.1620(11)
_cell_length_b                   10.9586(16)
_cell_length_c                   29.056(4)
_cell_angle_alpha                90
_cell_angle_beta                 90
_cell_angle_gamma                90
_cell_volume                     2598.89
_exptl_crystal_colour            colorless
_exptl_crystal_description       block
_chemical_melting_point          '503-504 K'
_cell_formula_units_Z            4
_exptl_crystal_recrystallization_method chloroform/methanol
loop_
_atom_site_label
_atom_site_type_symbol
_atom_site_fract_x
_atom_site_fract_y
_atom_site_fract_z
O1 O -0.0513(4) 0.1921(4) 0.02790(11)
H1 H -0.1497 0.2030 0.0320
O2 O 0.6109(4) 0.2233(4) 0.04890(11)
H2 H 0.5665 0.2413 0.0245
C1 C 1.1922(16) 0.3874(9) 0.4713(3)
H3 H 1.1840 0.4436 0.4474
H4 H 1.2249 0.4128 0.5004
C2 C 0.1529(6) 0.3505(5) 0.12739(19)
H5 H 0.1466 0.4332 0.1391
H6 H 0.1169 0.2958 0.1516
C3 C 0.0370(6) 0.3378(6) 0.08561(19)
H7 H -0.0726 0.3637 0.0941
H8 H 0.0748 0.3896 0.0607
C4 C 0.0334(5) 0.2086(5) 0.07012(16)
H9 H -0.0211 0.1597 0.0938
C5 C 0.2053(5) 0.1625(5) 0.06452(16)
H10 H 0.2198 0.0942 0.0460
C6 C 0.3383(5) 0.2100(4) 0.08342(15)
C7 C 0.5030(5) 0.1492(5) 0.07556(15)
H11 H 0.4852 0.0720 0.0593
C8 C 0.5871(6) 0.1226(4) 0.12092(16)
H12 H 0.6976 0.0942 0.1148
H13 H 0.5288 0.0575 0.1365
C9 C 0.5954(5) 0.2325(4) 0.15255(15)
H14 H 0.6647 0.2947 0.1381
C10 C 0.4245(5) 0.2870(4) 0.16050(16)
H15 H 0.3597 0.2220 0.1748
C11 C 0.3326(5) 0.3210(4) 0.11501(16)
C12 C 0.4297(7) 0.3906(5) 0.1956(2)
H16 H 0.4863 0.4595 0.1819
H17 H 0.3182 0.4162 0.2020
C13 C 0.5129(7) 0.3594(5) 0.24090(18)
H18 H 0.4482 0.2989 0.2571
H19 H 0.5188 0.4319 0.2600
C14 C 0.6861(5) 0.3095(4) 0.23306(15)
C15 C 0.7719(6) 0.2450(4) 0.27424(15)
H20 H 0.6877 0.1961 0.2897
C16 C 0.8893(7) 0.1549(5) 0.25135(17)
H21 H 0.8890 0.0780 0.2679
H22 H 0.9999 0.1873 0.2516
C17 C 0.8321(6) 0.1348(5) 0.20152(16)
H23 H 0.9091 0.1699 0.1798
H24 H 0.8194 0.0486 0.1949
C18 C 0.6680(5) 0.2006(4) 0.19966(14)
H25 H 0.5890 0.1453 0.2142
C19 C 0.4103(7) 0.4311(5) 0.09092(19)
H26 H 0.3874 0.5038 0.1082
H27 H 0.3655 0.4389 0.0605
H28 H 0.5267 0.4196 0.0889
C20 C 0.7991(7) 0.4077(5) 0.21318(18)
H29 H 0.8054 0.4751 0.2342
H30 H 0.7562 0.4354 0.1842
H31 H 0.9065 0.3742 0.2086
C21 C 0.8552(7) 0.3216(5) 0.31167(17)
H32 H 0.9488 0.3624 0.2972
C22 C 0.9230(8) 0.2406(5) 0.34937(18)
H33 H 0.8322 0.1971 0.3633
H34 H 0.9940 0.1803 0.3352
C23 C 1.0178(10) 0.3034(7) 0.3871(2)
H35 H 1.0976 0.3571 0.3730
H36 H 0.9423 0.3541 0.4044
C24 C 1.1060(9) 0.2223(7) 0.4204(2)
H37 H 1.0251 0.1598 0.4285
C25 C 1.1573(11) 0.2709(10) 0.4638(3)
C26 C 1.1854(18) 0.1690(13) 0.4991(4)
H38 H 1.1277 0.0970 0.4896
H39 H 1.1456 0.1948 0.5286
H40 H 1.3004 0.1515 0.5011
C27 C 0.7454(9) 0.4219(6) 0.3317(2)
H41 H 0.6487 0.3857 0.3447
H42 H 0.7149 0.4778 0.3078
H43 H 0.8040 0.4649 0.3554
C28 C 1.2371(12) 0.1545(10) 0.3978(4)
H44 H 1.1932 0.1109 0.3715
H45 H 1.2822 0.0950 0.4190
C29 C 1.3748(15) 0.2421(13) 0.3816(6)
H46 H 1.3397 0.2847 0.3545
H47 H 1.4718 0.1960 0.3748
H48 H 1.3981 0.3000 0.4055
loop_
_geom_bond_atom_site_label_1
_geom_bond_atom_site_label_2
_geom_bond_site_symmetry_1
_geom_bond_site_symmetry_2
O1 H1 1_555 1_555
O2 H2 1_555 1_555
C1 H3 1_555 1_555
H4 C1 1_555 1_555
C2 H5 1_555 1_555
H6 C2 1_555 1_555
C3 C2 1_555 1_555
H7 C3 1_555 1_555
H8 C3 1_555 1_555
C4 O1 1_555 1_555
H9 C4 1_555 1_555
C5 C4 1_555 1_555
H10 C5 1_555 1_555
C6 C5 1_555 1_555
C7 O2 1_555 1_555
H11 C7 1_555 1_555
C8 C7 1_555 1_555
H12 C8 1_555 1_555
H13 C8 1_555 1_555
C9 C8 1_555 1_555
H14 C9 1_555 1_555
C10 C9 1_555 1_555
H15 C10 1_555 1_555
C11 C2 1_555 1_555
C12 C10 1_555 1_555
H16 C12 1_555 1_555
H17 C12 1_555 1_555
C13 C12 1_555 1_555
H18 C13 1_555 1_555
H19 C13 1_555 1_555
C14 C13 1_555 1_555
C15 C14 1_555 1_555
H20 C15 1_555 1_555
C16 C15 1_555 1_555
H21 C16 1_555 1_555
H22 C16 1_555 1_555
C17 C16 1_555 1_555
H23 C17 1_555 1_555
H24 C17 1_555 1_555
C18 C9 1_555 1_555
H25 C18 1_555 1_555
C19 C11 1_555 1_555
H26 C19 1_555 1_555
H27 C19 1_555 1_555
H28 C19 1_555 1_555
C20 C14 1_555 1_555
H29 C20 1_555 1_555
H30 C20 1_555 1_555
H31 C20 1_555 1_555
C21 C15 1_555 1_555
H32 C21 1_555 1_555
C22 C21 1_555 1_555
H33 C22 1_555 1_555
H34 C22 1_555 1_555
C23 C22 1_555 1_555
H35 C23 1_555 1_555
H36 C23 1_555 1_555
C24 C23 1_555 1_555
H37 C24 1_555 1_555
C25 C1 1_555 1_555
C26 C25 1_555 1_555
H38 C26 1_555 1_555
H39 C26 1_555 1_555
H40 C26 1_555 1_555
C27 C21 1_555 1_555
H41 C27 1_555 1_555
H42 C27 1_555 1_555
H43 C27 1_555 1_555
C28 C24 1_555 1_555
H44 C28 1_555 1_555
H45 C28 1_555 1_555
C29 C28 1_555 1_555
H46 C29 1_555 1_555
H47 C29 1_555 1_555
H48 C29 1_555 1_555
C3 C4 1_555 1_555
C6 C7 1_555 1_555
C6 C11 1_555 1_555
C10 C11 1_555 1_555
C14 C18 1_555 1_555
C17 C18 1_555 1_555
C24 C25 1_555 1_555

#END
