
#######################################################################
#
#                 Cambridge Crystallographic Data Centre
#                                CCDC 
#
#######################################################################
#
# If this CIF has been generated from an entry in the Cambridge 
# Structural Database, then it will include bibliographic, chemical, 
# crystal, experimental, refinement or atomic coordinate data resulting 
# from the CCDC's data processing and validation procedures.
#
#######################################################################

data_SEWVEY
_chemical_formula_moiety         'C16 H18 N2 O2'
_chemical_name_systematic        
'methyl 2-{[4-(dimethylamino)phenyl]amino}benzoate'
_symmetry_cell_setting           triclinic
_symmetry_space_group_name_H-M   'P -1'
_symmetry_Int_Tables_number      2
_space_group_name_Hall           '-P 1'
loop_
_symmetry_equiv_pos_site_id
_symmetry_equiv_pos_as_xyz
1 x,y,z
2 -x,-y,-z
_cell_length_a                   8.1544(12)
_cell_length_b                   8.9092(11)
_cell_length_c                   10.9200(13)
_cell_angle_alpha                83.427(4)
_cell_angle_beta                 88.369(5)
_cell_angle_gamma                63.696(4)
_cell_volume                     706.289
_exptl_crystal_colour            colorless
_exptl_crystal_description       Block
_cell_formula_units_Z            2
loop_
_atom_site_label
_atom_site_type_symbol
_atom_site_fract_x
_atom_site_fract_y
_atom_site_fract_z
O1 O 0.3963(3) 1.3553(2) 0.47595(16)
N1 N 0.3426(3) 1.0163(3) 0.2598(2)
H1 H 0.2462 1.0977 0.2838
O2 O 0.2013(3) 1.2907(2) 0.38066(19)
C1 C 0.5227(4) 1.1204(3) 0.3650(2)
C2 C 0.3579(4) 1.2590(3) 0.4062(2)
C3 C 0.3150(4) 0.6363(3) 0.1757(2)
H2 H 0.3364 0.5301 0.2135
C4 C 0.5082(4) 1.0059(3) 0.2916(2)
N2 N 0.2110(4) 0.5796(3) -0.0120(2)
C5 C 0.2525(3) 0.6825(3) 0.0532(2)
C6 C 0.3460(4) 0.7445(3) 0.2420(2)
H3 H 0.3869 0.7101 0.3237
C7 C 0.6975(4) 1.1004(3) 0.3966(2)
H4 H 0.7076 1.1741 0.4463
C8 C 0.3176(4) 0.9020(3) 0.1897(2)
C9 C 0.6707(4) 0.8800(3) 0.2517(2)
H5 H 0.6643 0.8040 0.2026
C10 C 0.2288(4) 0.8404(4) 0.0010(3)
H6 H 0.1901 0.8753 -0.0810
C11 C 0.2613(4) 0.9468(3) 0.0682(3)
H7 H 0.2447 1.0516 0.0301
C12 C 0.8375(4) 0.8661(4) 0.2831(3)
H8 H 0.9426 0.7815 0.2547
C13 C 0.8534(4) 0.9756(4) 0.3566(3)
H9 H 0.9679 0.9646 0.3783
C14 C 0.2400(4) 1.4919(3) 0.5209(3)
H10 H 0.1681 1.5683 0.4524
H11 H 0.2807 1.5506 0.5717
H12 H 0.1671 1.4479 0.5686
C15 C 0.2563(5) 0.4090(4) 0.0381(3)
H13 H 0.3866 0.3426 0.0382
H14 H 0.1986 0.3628 -0.0114
H15 H 0.2141 0.4078 0.1210
C16 C 0.1770(5) 0.6194(4) -0.1435(3)
H16 H 0.0756 0.7288 -0.1606
H17 H 0.1489 0.5367 -0.1745
H18 H 0.2839 0.6192 -0.1827
loop_
_geom_bond_atom_site_label_1
_geom_bond_atom_site_label_2
_geom_bond_site_symmetry_1
_geom_bond_site_symmetry_2
O1 C2 1_555 1_555
N1 H1 1_555 1_555
O2 C2 1_555 1_555
C1 C2 1_555 1_555
C3 H2 1_555 1_555
C4 N1 1_555 1_555
N2 C5 1_555 1_555
C5 C3 1_555 1_555
C6 C3 1_555 1_555
H3 C6 1_555 1_555
C7 C1 1_555 1_555
H4 C7 1_555 1_555
C8 N1 1_555 1_555
C9 C4 1_555 1_555
H5 C9 1_555 1_555
C10 C5 1_555 1_555
H6 C10 1_555 1_555
C11 C8 1_555 1_555
H7 C11 1_555 1_555
C12 C9 1_555 1_555
H8 C12 1_555 1_555
C13 C7 1_555 1_555
H9 C13 1_555 1_555
C14 O1 1_555 1_555
H10 C14 1_555 1_555
H11 C14 1_555 1_555
H12 C14 1_555 1_555
C15 N2 1_555 1_555
H13 C15 1_555 1_555
H14 C15 1_555 1_555
H15 C15 1_555 1_555
C16 N2 1_555 1_555
H16 C16 1_555 1_555
H17 C16 1_555 1_555
H18 C16 1_555 1_555
C1 C4 1_555 1_555
C6 C8 1_555 1_555
C10 C11 1_555 1_555
C12 C13 1_555 1_555

#END
