
#######################################################################
#
#                 Cambridge Crystallographic Data Centre
#                                CCDC 
#
#######################################################################
#
# If this CIF has been generated from an entry in the Cambridge 
# Structural Database, then it will include bibliographic, chemical, 
# crystal, experimental, refinement or atomic coordinate data resulting 
# from the CCDC's data processing and validation procedures.
#
#######################################################################

data_SEWYUP
_chemical_formula_moiety         'C44 H28 O1'
_chemical_name_systematic        
9,10,12,13-Tetraphenyl-11-oxacyclopenta(b)triphenylene
_symmetry_cell_setting           monoclinic
_symmetry_space_group_name_H-M   'P 21/c'
_symmetry_Int_Tables_number      14
_space_group_name_Hall           '-P 2ybc'
loop_
_symmetry_equiv_pos_site_id
_symmetry_equiv_pos_as_xyz
1 x,y,z
2 -x,1/2+y,1/2-z
3 -x,-y,-z
4 x,1/2-y,1/2+z
_cell_length_a                   13.4096(3)
_cell_length_b                   13.0716(2)
_cell_length_c                   21.8350(5)
_cell_angle_alpha                90
_cell_angle_beta                 127.643(1)
_cell_angle_gamma                90
_cell_volume                     3030.61
_exptl_crystal_colour            orange
_exptl_crystal_description       Prism
_chemical_melting_point          '277-280 deg.C'
_cell_formula_units_Z            4
_exptl_crystal_recrystallization_method chloroform/methanol
loop_
_atom_site_label
_atom_site_type_symbol
_atom_site_fract_x
_atom_site_fract_y
_atom_site_fract_z
C1 C 1.2357(2) 0.4157(2) 0.37171(14)
H1 H 1.2292 0.4853 0.38122
C2 C 1.3377(2) 0.3846(2) 0.3746(2)
H2 H 1.4008 0.4324 0.3868
C3 C 1.3466(3) 0.2836(3) 0.3596(2)
H3 H 1.4160 0.2619 0.3614
C4 C 1.2561(3) 0.2148(2) 0.3422(2)
H4 H 1.2632 0.1459 0.3316
C5 C 1.1529(2) 0.2435(2) 0.33960(14)
C6 C 1.0567(2) 0.1688(2) 0.32131(14)
C7 C 1.0816(3) 0.0625(2) 0.3297(2)
H5 H 1.1608 0.0387 0.3451
C8 C 0.9936(3) -0.0067(2) 0.3162(2)
H6 H 1.0116 -0.0778 0.3218
C9 C 0.8785(3) 0.0273(2) 0.2943(2)
H7 H 0.8176 -0.0204 0.2855
C10 C 0.8520(3) 0.1303(2) 0.28511(15)
H8 H 0.7727 0.1524 0.27043
C11 C 0.9387(2) 0.2036(2) 0.29680(14)
C12 C 0.9148(2) 0.3153(2) 0.29375(13)
C13 C 0.7955(2) 0.3568(2) 0.25359(13)
C14 C 0.7835(2) 0.4594(2) 0.27143(13)
C15 C 0.6808(2) 0.5230(2) 0.24280(14)
O1 O 0.72125(14) 0.60558(11) 0.29155(9)
C16 C 0.8488(2) 0.5985(2) 0.34978(13)
C17 C 0.8922(2) 0.5100(2) 0.33792(13)
C18 C 1.0164(2) 0.4722(2) 0.37113(13)
C19 C 1.0263(2) 0.3806(2) 0.34322(13)
C20 C 1.1424(2) 0.3465(2) 0.35510(14)
C21 C 0.6785(2) 0.3000(2) 0.19337(14)
C22 C 0.6652(3) 0.2604(2) 0.12953(15)
H9 H 0.7322 0.2679 0.12617
C23 C 0.5568(3) 0.2105(2) 0.0712(2)
H10 H 0.5493 0.1842 0.0279
C24 C 0.4595(3) 0.1991(2) 0.0759(2)
H11 H 0.3844 0.1652 0.0356
C25 C 0.4705(3) 0.2368(2) 0.1389(2)
H12 H 0.4032 0.2283 0.1419
C26 C 0.5800(2) 0.2870(2) 0.1979(2)
H13 H 0.5876 0.3125 0.2414
C27 C 0.5486(2) 0.5281(2) 0.17535(14)
C28 C 0.5074(2) 0.4928(2) 0.10314(15)
H14 H 0.5664 0.4642 0.09741
C29 C 0.3818(3) 0.4989(2) 0.0397(2)
H15 H 0.3548 0.4729 -0.0089
C30 C 0.2952(3) 0.5426(2) 0.0466(2)
H16 H 0.2088 0.5464 0.0031
C31 C 0.3350(3) 0.5804(2) 0.1171(2)
H17 H 0.2761 0.6118 0.1218
C32 C 0.4603(2) 0.5732(2) 0.1813(2)
H18 H 0.4864 0.5990 0.2297
C33 C 0.8970(2) 0.6831(2) 0.40478(14)
C34 C 0.8456(2) 0.7803(2) 0.3785(2)
H19 H 0.7821 0.7918 0.3248
C35 C 0.8867(3) 0.8603(2) 0.4304(2)
H20 H 0.8507 0.9264 0.4120
C36 C 0.9792(3) 0.8450(2) 0.5083(2)
H21 H 1.0067 0.9001 0.5436
C37 C 1.0318(2) 0.7494(2) 0.53478(15)
H22 H 1.0967 0.7389 0.58840
C38 C 0.9906(2) 0.6688(2) 0.48378(14)
H23 H 1.0263 0.6029 0.50274
C39 C 1.1271(2) 0.5313(2) 0.43514(14)
C40 C 1.1457(2) 0.6324(2) 0.4251(2)
H24 H 1.0925 0.6631 0.3754
C41 C 1.2428(3) 0.6887(2) 0.4881(2)
H25 H 1.2563 0.7577 0.4811
C42 C 1.3193(3) 0.6447(3) 0.5606(2)
H26 H 1.3836 0.6841 0.6037
C43 C 1.3027(2) 0.5441(2) 0.5706(2)
H27 H 1.3565 0.5135 0.6203
C44 C 1.2077(2) 0.4875(2) 0.50811(14)
H28 H 1.1973 0.4176 0.51513
loop_
_geom_bond_atom_site_label_1
_geom_bond_atom_site_label_2
_geom_bond_site_symmetry_1
_geom_bond_site_symmetry_2
C1 H1 1_555 1_555
C2 C1 1_555 1_555
H2 C2 1_555 1_555
C3 C2 1_555 1_555
H3 C3 1_555 1_555
C4 C3 1_555 1_555
H4 C4 1_555 1_555
C5 C4 1_555 1_555
C6 C5 1_555 1_555
C7 C6 1_555 1_555
H5 C7 1_555 1_555
C8 C7 1_555 1_555
H6 C8 1_555 1_555
C9 C8 1_555 1_555
H7 C9 1_555 1_555
C10 C9 1_555 1_555
H8 C10 1_555 1_555
C11 C6 1_555 1_555
C12 C11 1_555 1_555
C13 C12 1_555 1_555
C14 C13 1_555 1_555
C15 C14 1_555 1_555
O1 C15 1_555 1_555
C16 O1 1_555 1_555
C17 C14 1_555 1_555
C18 C17 1_555 1_555
C19 C12 1_555 1_555
C20 C1 1_555 1_555
C21 C13 1_555 1_555
C22 C21 1_555 1_555
H9 C22 1_555 1_555
C23 C22 1_555 1_555
H10 C23 1_555 1_555
C24 C23 1_555 1_555
H11 C24 1_555 1_555
C25 C24 1_555 1_555
H12 C25 1_555 1_555
C26 C21 1_555 1_555
H13 C26 1_555 1_555
C27 C15 1_555 1_555
C28 C27 1_555 1_555
H14 C28 1_555 1_555
C29 C28 1_555 1_555
H15 C29 1_555 1_555
C30 C29 1_555 1_555
H16 C30 1_555 1_555
C31 C30 1_555 1_555
H17 C31 1_555 1_555
C32 C27 1_555 1_555
H18 C32 1_555 1_555
C33 C16 1_555 1_555
C34 C33 1_555 1_555
H19 C34 1_555 1_555
C35 C34 1_555 1_555
H20 C35 1_555 1_555
C36 C35 1_555 1_555
H21 C36 1_555 1_555
C37 C36 1_555 1_555
H22 C37 1_555 1_555
C38 C33 1_555 1_555
H23 C38 1_555 1_555
C39 C18 1_555 1_555
C40 C39 1_555 1_555
H24 C40 1_555 1_555
C41 C40 1_555 1_555
H25 C41 1_555 1_555
C42 C41 1_555 1_555
H26 C42 1_555 1_555
C43 C42 1_555 1_555
H27 C43 1_555 1_555
C44 C39 1_555 1_555
H28 C44 1_555 1_555
C5 C20 1_555 1_555
C10 C11 1_555 1_555
C16 C17 1_555 1_555
C18 C19 1_555 1_555
C19 C20 1_555 1_555
C25 C26 1_555 1_555
C31 C32 1_555 1_555
C37 C38 1_555 1_555
C43 C44 1_555 1_555

#END
