
#######################################################################
#
#                 Cambridge Crystallographic Data Centre
#                                CCDC 
#
#######################################################################
#
# If this CIF has been generated from an entry in the Cambridge 
# Structural Database, then it will include bibliographic, chemical, 
# crystal, experimental, refinement or atomic coordinate data resulting 
# from the CCDC's data processing and validation procedures.
#
#######################################################################

data_SEYDIM
_chemical_formula_moiety         'C36 H26 N1 O3 P1 S2,H2 O1'
_chemical_name_systematic        
'10-(4-((4-(diphenylphosphoryl)phenyl)sulfonyl)phenyl)-10H-phenothiazine monohydrate'
_symmetry_cell_setting           orthorhombic
_symmetry_space_group_name_H-M   'P b c a'
_symmetry_Int_Tables_number      61
_space_group_name_Hall           '-P 2ac 2ab'
loop_
_symmetry_equiv_pos_site_id
_symmetry_equiv_pos_as_xyz
1 x,y,z
2 1/2-x,-y,1/2+z
3 1/2+x,1/2-y,-z
4 -x,1/2+y,1/2-z
5 -x,-y,-z
6 1/2+x,y,1/2-z
7 1/2-x,1/2+y,z
8 x,1/2-y,1/2+z
_cell_length_a                   19.4774(8)
_cell_length_b                   9.6865(3)
_cell_length_c                   33.148(2)
_cell_angle_alpha                90
_cell_angle_beta                 90
_cell_angle_gamma                90
_cell_volume                     6253.96
_exptl_crystal_colour            colorless
_exptl_crystal_description       block
_cell_formula_units_Z            8
_exptl_crystal_recrystallization_method 'Re-crystallisation from solvent'
loop_
_atom_site_label
_atom_site_type_symbol
_atom_site_fract_x
_atom_site_fract_y
_atom_site_fract_z
P1 P 0.62932(3) 0.97368(6) 0.06928(2)
S1 S 0.68973(4) 0.62631(7) -0.08933(2)
S2 S 0.58314(5) 0.92217(9) -0.30387(3)
O1 O 0.68696(9) 0.95497(18) 0.09823(6)
O2 O 0.64515(12) 0.50830(19) -0.08841(7)
C1 C 0.64397(12) 0.8803(2) 0.02267(8)
C2 C 0.54772(12) 0.9096(2) 0.08651(7)
C3 C 0.48784(13) 0.9865(3) 0.08381(9)
H1 H 0.4899 1.0777 0.0751
C4 C 0.59177(12) 0.8126(3) 0.00229(8)
H2 H 0.5469 0.8194 0.0117
O3 O 0.76250(10) 0.6064(2) -0.09089(7)
N1 N 0.60071(12) 1.0103(3) -0.21873(7)
C5 C 0.67207(13) 0.7262(2) -0.04565(8)
C6 C 0.69011(14) 0.9182(3) -0.17463(9)
H3 H 0.7214 0.9815 -0.1850
C7 C 0.60538(13) 0.7353(3) -0.03183(8)
H4 H 0.5701 0.6900 -0.0453
C8 C 0.61522(13) 1.1521(3) 0.05585(8)
C9 C 0.72470(14) 0.7951(3) -0.02634(9)
H5 H 0.7692 0.7908 -0.0364
C10 C 0.66498(14) 0.7322(3) -0.12941(8)
C11 C 0.62303(14) 0.9157(3) -0.18967(8)
C12 C 0.71068(14) 0.8708(3) 0.00804(9)
H6 H 0.7462 0.9156 0.0215
C13 C 0.54396(14) 0.7739(3) 0.10017(9)
H7 H 0.5838 0.7217 0.1030
C14 C 0.71039(14) 0.8285(3) -0.14475(8)
H8 H 0.7550 0.8327 -0.1348
C15 C 0.60454(15) 1.1967(3) 0.01667(9)
H9 H 0.6056 1.1336 -0.0045
C16 C 0.48120(15) 0.7171(3) 0.10952(10)
H10 H 0.4788 0.6258 0.1181
C17 C 0.42178(14) 0.7942(3) 0.10636(9)
H11 H 0.3796 0.7547 0.1126
C18 C 0.59845(15) 0.7256(3) -0.14461(9)
H12 H 0.5678 0.6603 -0.1346
C19 C 0.64743(14) 1.0769(3) -0.24585(9)
C20 C 0.64470(15) 1.0426(3) -0.28660(9)
C21 C 0.53055(15) 1.0083(3) -0.23162(10)
C22 C 0.51538(16) 0.9655(3) -0.27060(10)
C23 C 0.57790(15) 0.8153(3) -0.17441(9)
H13 H 0.5335 0.8094 -0.1846
C24 C 0.42515(14) 0.9293(3) 0.09398(10)
H14 H 0.3854 0.9822 0.0924
C25 C 0.61394(17) 1.2480(3) 0.08710(10)
H15 H 0.6219 1.2195 0.1135
C26 C 0.69122(17) 1.1015(3) -0.31361(10)
H16 H 0.6901 1.0770 -0.3407
C27 C 0.59222(17) 1.3356(3) 0.00881(11)
H17 H 0.5850 1.3654 -0.0175
C28 C 0.73856(18) 1.1955(4) -0.30020(11)
H18 H 0.7700 1.2338 -0.3181
C29 C 0.69383(16) 1.1757(3) -0.23336(10)
H19 H 0.6942 1.2038 -0.2065
C30 C 0.59083(19) 1.4281(3) 0.03991(12)
H20 H 0.5830 1.5210 0.0346
C31 C 0.44698(19) 0.9599(4) -0.28250(13)
H21 H 0.4360 0.9326 -0.3086
C32 C 0.4111(2) 1.0388(4) -0.21791(16)
H22 H 0.3760 1.0633 -0.2003
C33 C 0.47865(18) 1.0474(4) -0.20555(13)
H23 H 0.4892 1.0793 -0.1798
C34 C 0.73951(18) 1.2329(3) -0.26020(11)
H24 H 0.7713 1.2976 -0.2512
C35 C 0.39561(19) 0.9941(4) -0.25618(16)
H25 H 0.3500 0.9871 -0.2642
C36 C 0.6008(2) 1.3855(3) 0.07903(12)
H26 H 0.5988 1.4491 0.1000
O4 O 0.79659(12) 1.1506(3) 0.10647(12)
H27 H 0.7606 1.1026 0.1027
H28 H 0.7870 1.2356 0.1036
loop_
_geom_bond_atom_site_label_1
_geom_bond_atom_site_label_2
_geom_bond_site_symmetry_1
_geom_bond_site_symmetry_2
P1 O1 1_555 1_555
S1 O2 1_555 1_555
S2 C20 1_555 1_555
C1 P1 1_555 1_555
C2 P1 1_555 1_555
C3 C2 1_555 1_555
H1 C3 1_555 1_555
C4 C1 1_555 1_555
H2 C4 1_555 1_555
O3 S1 1_555 1_555
N1 C11 1_555 1_555
C5 S1 1_555 1_555
C6 H3 1_555 1_555
C7 C4 1_555 1_555
H4 C7 1_555 1_555
C8 P1 1_555 1_555
C9 C5 1_555 1_555
H5 C9 1_555 1_555
C10 S1 1_555 1_555
C11 C6 1_555 1_555
C12 C1 1_555 1_555
H6 C12 1_555 1_555
C13 C2 1_555 1_555
H7 C13 1_555 1_555
C14 C6 1_555 1_555
H8 C14 1_555 1_555
C15 C8 1_555 1_555
H9 C15 1_555 1_555
C16 C13 1_555 1_555
H10 C16 1_555 1_555
C17 C16 1_555 1_555
H11 C17 1_555 1_555
C18 C10 1_555 1_555
H12 C18 1_555 1_555
C19 N1 1_555 1_555
C20 C19 1_555 1_555
C21 N1 1_555 1_555
C22 S2 1_555 1_555
C23 C11 1_555 1_555
H13 C23 1_555 1_555
C24 C3 1_555 1_555
H14 C24 1_555 1_555
C25 C8 1_555 1_555
H15 C25 1_555 1_555
C26 C20 1_555 1_555
H16 C26 1_555 1_555
C27 C15 1_555 1_555
H17 C27 1_555 1_555
C28 C26 1_555 1_555
H18 C28 1_555 1_555
C29 C19 1_555 1_555
H19 C29 1_555 1_555
C30 C27 1_555 1_555
H20 C30 1_555 1_555
C31 C22 1_555 1_555
H21 C31 1_555 1_555
C32 H22 1_555 1_555
C33 C21 1_555 1_555
H23 C33 1_555 1_555
C34 C28 1_555 1_555
H24 C34 1_555 1_555
C35 C31 1_555 1_555
H25 C35 1_555 1_555
C36 C25 1_555 1_555
H26 C36 1_555 1_555
O4 H27 1_555 1_555
H28 O4 1_555 1_555
C5 C7 1_555 1_555
C9 C12 1_555 1_555
C10 C14 1_555 1_555
C17 C24 1_555 1_555
C18 C23 1_555 1_555
C21 C22 1_555 1_555
C29 C34 1_555 1_555
C30 C36 1_555 1_555
C32 C33 1_555 1_555
C32 C35 1_555 1_555

#END
