
#######################################################################
#
#                 Cambridge Crystallographic Data Centre
#                                CCDC 
#
#######################################################################
#
# If this CIF has been generated from an entry in the Cambridge 
# Structural Database, then it will include bibliographic, chemical, 
# crystal, experimental, refinement or atomic coordinate data resulting 
# from the CCDC's data processing and validation procedures.
#
#######################################################################

data_SEYDUY
_chemical_formula_moiety         'C36 H26 N1 O2 P1 S2'
_chemical_name_systematic        
10-(4-((4-(diphenylphosphino)phenyl)sulfonyl)phenyl)-10H-phenothiazine
_symmetry_cell_setting           monoclinic
_symmetry_space_group_name_H-M   'P 21/n'
_symmetry_Int_Tables_number      14
_space_group_name_Hall           '-P 2yn'
loop_
_symmetry_equiv_pos_site_id
_symmetry_equiv_pos_as_xyz
1 x,y,z
2 1/2-x,1/2+y,1/2-z
3 -x,-y,-z
4 1/2+x,1/2-y,1/2+z
_cell_length_a                   12.40022(16)
_cell_length_b                   19.1962(3)
_cell_length_c                   12.48944(17)
_cell_angle_alpha                90
_cell_angle_beta                 92.4160(12)
_cell_angle_gamma                90
_cell_volume                     2970.31
_exptl_crystal_colour            colorless
_exptl_crystal_description       block
_cell_formula_units_Z            4
loop_
_atom_site_label
_atom_site_type_symbol
_atom_site_fract_x
_atom_site_fract_y
_atom_site_fract_z
S1 S 0.01619(4) 0.21291(3) 0.67989(4)
P1 P -0.22739(4) 0.09100(3) 1.07852(4)
S2 S 0.62855(5) 0.15358(4) 0.56223(5)
N1 N 0.47722(12) 0.12919(9) 0.73395(14)
C1 C -0.25529(15) 0.00033(11) 1.04265(15)
C2 C 0.36904(14) 0.14917(10) 0.71849(14)
C3 C -0.15396(18) 0.08796(11) 0.86752(17)
H1 H -0.1932 0.0469 0.8593
C4 C -0.04496(14) 0.17628(10) 0.79237(14)
O1 O -0.03125(12) 0.17989(9) 0.58623(11)
C5 C -0.03785(16) 0.21030(11) 0.88987(16)
H2 H 0.0014 0.2514 0.8975
C6 C 0.15271(14) 0.18867(10) 0.69274(14)
C7 C 0.33624(15) 0.21692(10) 0.74254(17)
H3 H 0.3871 0.2495 0.7670
C8 C -0.18710(16) -0.05532(11) 1.06495(17)
H4 H -0.1198 -0.0475 1.0985
C9 C 0.55850(14) 0.17986(11) 0.76191(17)
C10 C 0.29074(16) 0.10245(10) 0.67883(15)
H5 H 0.3111 0.0575 0.6605
C11 C 0.18407(16) 0.12173(10) 0.66644(15)
H6 H 0.1330 0.0898 0.6404
C12 C 0.51752(16) 0.06598(11) 0.68947(15)
C13 C -0.08950(16) 0.18275(11) 0.97578(16)
H7 H -0.0854 0.2059 1.0412
C14 C 0.22907(15) 0.23577(10) 0.73024(16)
H8 H 0.2082 0.2808 0.7475
O2 O 0.01020(12) 0.28732(7) 0.68955(13)
C15 C -0.35492(17) -0.01408(14) 0.99066(19)
H9 H -0.4019 0.0224 0.9737
C16 C -0.10262(17) 0.11538(11) 0.78064(16)
H10 H -0.1071 0.0927 0.7148
C17 C -0.31757(18) -0.13482(13) 0.98869(17)
H11 H -0.3386 -0.1802 0.9723
C18 C -0.14789(15) 0.12069(10) 0.96648(15)
C19 C 0.6332(2) 0.01067(16) 0.56560(19)
H12 H 0.6834 0.0139 0.5125
C20 C 0.4897(2) 0.00152(12) 0.72778(18)
H13 H 0.4434 -0.0020 0.7843
C21 C 0.63297(16) 0.19722(12) 0.68655(18)
C22 C 0.56629(18) 0.20962(12) 0.8628(2)
H14 H 0.5192 0.1961 0.9150
C23 C -0.38483(18) -0.08092(14) 0.96420(19)
H15 H -0.4514 -0.0893 0.9294
C24 C 0.59052(17) 0.07079(12) 0.60874(16)
C25 C -0.21776(18) -0.12218(12) 1.03796(18)
H16 H -0.1709 -0.1591 1.0530
C26 C 0.6019(3) -0.05276(16) 0.6007(2)
H17 H 0.6286 -0.0929 0.5695
C27 C 0.71157(18) 0.24692(14) 0.7122(3)
H18 H 0.7622 0.2588 0.6625
C28 C -0.1651(3) 0.08450(12) 1.29132(18)
H19 H -0.2387 0.0897 1.3003
C29 C -0.1259(2) 0.08251(11) 1.18800(17)
C30 C -0.0163(2) 0.07523(14) 1.1766(2)
H20 H 0.0107 0.0740 1.1083
C31 C 0.7143(2) 0.27833(14) 0.8109(3)
H21 H 0.7649 0.3130 0.8266
C32 C 0.0542(3) 0.06968(16) 1.2653(2)
H22 H 0.1280 0.0649 1.2571
C33 C -0.0958(4) 0.07882(17) 1.3797(2)
H23 H -0.1228 0.0800 1.4480
C34 C 0.6435(2) 0.25914(14) 0.8860(3)
H24 H 0.6476 0.2798 0.9534
C35 C 0.5308(3) -0.05828(13) 0.6819(2)
H25 H 0.5104 -0.1020 0.7060
C36 C 0.0119(4) 0.07144(17) 1.3675(2)
H26 H 0.0581 0.0675 1.4278
loop_
_geom_bond_atom_site_label_1
_geom_bond_atom_site_label_2
_geom_bond_site_symmetry_1
_geom_bond_site_symmetry_2
S1 C4 1_555 1_555
P1 C1 1_555 1_555
S2 C21 1_555 1_555
N1 C2 1_555 1_555
C1 C8 1_555 1_555
C2 C7 1_555 1_555
C3 H1 1_555 1_555
C4 C5 1_555 1_555
O1 S1 1_555 1_555
C5 H2 1_555 1_555
C6 S1 1_555 1_555
C7 H3 1_555 1_555
C8 H4 1_555 1_555
C9 N1 1_555 1_555
C10 C2 1_555 1_555
H5 C10 1_555 1_555
C11 C6 1_555 1_555
H6 C11 1_555 1_555
C12 N1 1_555 1_555
C13 C5 1_555 1_555
H7 C13 1_555 1_555
C14 C6 1_555 1_555
H8 C14 1_555 1_555
O2 S1 1_555 1_555
C15 C1 1_555 1_555
H9 C15 1_555 1_555
C16 C3 1_555 1_555
H10 C16 1_555 1_555
C17 H11 1_555 1_555
C18 P1 1_555 1_555
C19 H12 1_555 1_555
C20 C12 1_555 1_555
H13 C20 1_555 1_555
C21 C9 1_555 1_555
C22 C9 1_555 1_555
H14 C22 1_555 1_555
C23 C15 1_555 1_555
H15 C23 1_555 1_555
C24 S2 1_555 1_555
C25 C8 1_555 1_555
H16 C25 1_555 1_555
C26 C19 1_555 1_555
H17 C26 1_555 1_555
C27 C21 1_555 1_555
H18 C27 1_555 1_555
C28 H19 1_555 1_555
C29 P1 1_555 1_555
C30 C29 1_555 1_555
H20 C30 1_555 1_555
C31 C27 1_555 1_555
H21 C31 1_555 1_555
C32 C30 1_555 1_555
H22 C32 1_555 1_555
C33 C28 1_555 1_555
H23 C33 1_555 1_555
C34 C22 1_555 1_555
H24 C34 1_555 1_555
C35 C20 1_555 1_555
H25 C35 1_555 1_555
C36 C32 1_555 1_555
H26 C36 1_555 1_555
C3 C18 1_555 1_555
C4 C16 1_555 1_555
C7 C14 1_555 1_555
C10 C11 1_555 1_555
C12 C24 1_555 1_555
C13 C18 1_555 1_555
C17 C23 1_555 1_555
C17 C25 1_555 1_555
C19 C24 1_555 1_555
C26 C35 1_555 1_555
C28 C29 1_555 1_555
C31 C34 1_555 1_555
C33 C36 1_555 1_555

#END
