
#######################################################################
#
#                 Cambridge Crystallographic Data Centre
#                                CCDC 
#
#######################################################################
#
# If this CIF has been generated from an entry in the Cambridge 
# Structural Database, then it will include bibliographic, chemical, 
# crystal, experimental, refinement or atomic coordinate data resulting 
# from the CCDC's data processing and validation procedures.
#
#######################################################################

data_SEYJIQ
_chemical_formula_moiety         'C18 H28 N2 O4 S1 Si1'
_chemical_name_systematic        
(S)-3-methyl-1-[(4-nitrophenyl)sulfonyl]-4-[(triethylsilyl)methylidene]pyrrolidine
_symmetry_cell_setting           monoclinic
_symmetry_space_group_name_H-M   'C 2'
_symmetry_Int_Tables_number      5
_space_group_name_Hall           'C 2y'
loop_
_symmetry_equiv_pos_site_id
_symmetry_equiv_pos_as_xyz
1 x,y,z
2 -x,y,-z
3 1/2+x,1/2+y,z
4 1/2-x,1/2+y,-z
_cell_length_a                   37.247(5)
_cell_length_b                   7.1031(10)
_cell_length_c                   16.179(2)
_cell_angle_alpha                90
_cell_angle_beta                 93.692(5)
_cell_angle_gamma                90
_cell_volume                     4271.58
_exptl_crystal_colour            colorless
_exptl_crystal_description       prism
_cell_formula_units_Z            8
_exptl_crystal_recrystallization_method dichloromethane/hexane
loop_
_atom_site_label
_atom_site_type_symbol
_atom_site_fract_x
_atom_site_fract_y
_atom_site_fract_z
S1 S 0.42781(4) 0.5318(2) 0.69414(9)
Si1 Si 0.30950(4) 0.6405(2) 0.35806(10)
O1 O 0.41026(10) 0.6299(6) 0.7560(2)
O2 O 0.44345(10) 0.3506(5) 0.7121(2)
O3 O 0.53577(14) 1.2016(8) 0.5718(3)
O4 O 0.56933(13) 0.9606(9) 0.5528(3)
N1 N 0.39932(11) 0.5035(6) 0.6149(2)
N2 N 0.54248(16) 1.0333(10) 0.5756(3)
C1 C 0.40959(14) 0.3955(8) 0.5430(3)
H1 H 0.4170 0.2686 0.5585
H2 H 0.4288 0.4569 0.5156
C2 C 0.37444(15) 0.3958(8) 0.4889(3)
H3 H 0.3794 0.3847 0.4304
C3 C 0.35895(14) 0.5863(7) 0.5055(3)
C4 C 0.37623(14) 0.6623(8) 0.5850(3)
H4 H 0.3904 0.7737 0.5754
H5 H 0.3584 0.6923 0.6241
C5 C 0.35026(18) 0.2361(8) 0.5133(4)
H6 H 0.3477 0.2401 0.5719
H7 H 0.3607 0.1180 0.4989
H8 H 0.3270 0.2490 0.4845
C6 C 0.33395(14) 0.6787(8) 0.4596(3)
H9 H 0.3271 0.7896 0.4847
C7 C 0.46224(15) 0.6798(8) 0.6610(3)
C8 C 0.45875(16) 0.8742(8) 0.6679(3)
H10 H 0.4388 0.9254 0.6916
C9 C 0.48478(17) 0.9901(8) 0.6397(4)
H11 H 0.4824 1.1203 0.6418
C10 C 0.51422(16) 0.9089(9) 0.6084(3)
C11 C 0.51871(17) 0.7167(10) 0.6037(3)
H12 H 0.5393 0.6662 0.5827
C12 C 0.49244(17) 0.6015(9) 0.6304(3)
H13 H 0.4950 0.4714 0.6279
C13 C 0.26042(16) 0.6472(12) 0.3747(4)
H14 H 0.2546 0.7700 0.3965
H15 H 0.2471 0.6328 0.3216
C14 C 0.2480(2) 0.4975(15) 0.4332(5)
H16 H 0.2539 0.3753 0.4128
H17 H 0.2224 0.5067 0.4367
H18 H 0.2597 0.5157 0.4871
C15 C 0.3205(2) 0.8470(10) 0.2928(4)
H19 H 0.3083 0.8329 0.2384
H20 H 0.3115 0.9605 0.3175
C16 C 0.3615(2) 0.8697(13) 0.2831(5)
H21 H 0.3734 0.8990 0.3359
H22 H 0.3655 0.9696 0.2448
H23 H 0.3710 0.7543 0.2626
C17 C 0.32009(17) 0.4181(9) 0.3062(3)
H24 H 0.3456 0.4157 0.2973
H25 H 0.3151 0.3140 0.3425
C18 C 0.29860(17) 0.3886(11) 0.2217(4)
H26 H 0.2733 0.3887 0.2299
H27 H 0.3052 0.2703 0.1984
H28 H 0.3040 0.4887 0.1846
S2 S 0.43312(4) 0.2995(2) 1.21009(9)
Si2 Si 0.31774(6) 0.3564(3) 0.86823(11)
O5 O 0.41582(10) 0.4086(6) 1.2700(2)
O6 O 0.44955(11) 0.1234(6) 1.2312(2)
O7 O 0.54338(17) 0.9600(10) 1.0891(4)
O8 O 0.56852(14) 0.7200(8) 1.0393(3)
N3 N 0.40416(11) 0.2604(6) 1.1342(3)
N4 N 0.54515(17) 0.7925(11) 1.0764(3)
C19 C 0.41304(15) 0.1297(9) 1.0677(4)
H29 H 0.4187 0.0050 1.0894
H30 H 0.4331 0.1755 1.0382
C20 C 0.37829(16) 0.1288(8) 1.0122(4)
H31 H 0.3834 0.1004 0.9548
C21 C 0.36476(15) 0.3283(8) 1.0192(3)
C22 C 0.38272(15) 0.4129(8) 1.0964(3)
H32 H 0.3979 0.5180 1.0830
H33 H 0.3650 0.4564 1.1334
C23 C 0.35161(19) -0.0103(10) 1.0430(4)
H34 H 0.3471 0.0187 1.0994
H35 H 0.3613 -0.1353 1.0402
H36 H 0.3295 -0.0029 1.0092
C24 C 0.34208(15) 0.4198(9) 0.9674(3)
H37 H 0.3374 0.5418 0.9846
C25 C 0.46720(15) 0.4439(8) 1.1709(3)
C26 C 0.46334(14) 0.6388(9) 1.1760(3)
H38 H 0.4436 0.6911 1.1999
C27 C 0.48896(16) 0.7510(9) 1.1454(3)
H39 H 0.4872 0.8813 1.1488
C28 C 0.51742(16) 0.6691(10) 1.1093(3)
C29 C 0.52155(17) 0.4799(9) 1.1039(3)
H40 H 0.5413 0.4284 1.0795
C30 C 0.49611(16) 0.3672(9) 1.1351(3)
H41 H 0.4984 0.2370 1.1320
C31 C 0.3165(2) 0.5768(12) 0.8046(5)
H42 H 0.3077 0.6775 0.8383
H43 H 0.3411 0.6082 0.7935
C32 C 0.2950(2) 0.5775(14) 0.7251(5)
H44 H 0.3024 0.4750 0.6915
H45 H 0.2985 0.6944 0.6970
H46 H 0.2700 0.5634 0.7350
C33 C 0.3320(3) 0.155(2) 0.8173(6)
H47 H 0.3337 0.0558 0.8586
H48 H 0.3123 0.1204 0.7779
C34 C 0.3637(3) 0.142(3) 0.7740(8)
H49 H 0.3575 0.1478 0.7155
H50 H 0.3756 0.0254 0.7873
H51 H 0.3794 0.2452 0.7898
C35 C 0.2741(3) 0.2583(19) 0.8846(5)
H52 H 0.2603 0.2618 0.8316
H53 H 0.2778 0.1265 0.8984
C36 C 0.2518(3) 0.334(3) 0.9440(7)
H54 H 0.2622 0.3081 0.9987
H55 H 0.2284 0.2776 0.9374
H56 H 0.2498 0.4677 0.9364
loop_
_geom_bond_atom_site_label_1
_geom_bond_atom_site_label_2
_geom_bond_site_symmetry_1
_geom_bond_site_symmetry_2
S1 O1 1_555 1_555
S2 O5 1_555 1_555
Si1 C6 1_555 1_555
Si2 C24 1_555 1_555
O2 S1 1_555 1_555
O3 N2 1_555 1_555
O4 N2 1_555 1_555
O6 S2 1_555 1_555
O7 N4 1_555 1_555
O8 N4 1_555 1_555
N1 S1 1_555 1_555
N2 C10 1_555 1_555
N3 S2 1_555 1_555
N4 C28 1_555 1_555
C1 N1 1_555 1_555
H1 C1 1_555 1_555
H2 C1 1_555 1_555
C2 C1 1_555 1_555
H3 C2 1_555 1_555
C3 C2 1_555 1_555
C4 N1 1_555 1_555
H4 C4 1_555 1_555
H5 C4 1_555 1_555
C5 C2 1_555 1_555
H6 C5 1_555 1_555
H7 C5 1_555 1_555
H8 C5 1_555 1_555
C6 C3 1_555 1_555
H9 C6 1_555 1_555
C7 S1 1_555 1_555
C8 C7 1_555 1_555
H10 C8 1_555 1_555
C9 C8 1_555 1_555
H11 C9 1_555 1_555
C10 C9 1_555 1_555
C11 C10 1_555 1_555
H12 C11 1_555 1_555
C12 C7 1_555 1_555
H13 C12 1_555 1_555
C13 Si1 1_555 1_555
H14 C13 1_555 1_555
H15 C13 1_555 1_555
C14 C13 1_555 1_555
H16 C14 1_555 1_555
H17 C14 1_555 1_555
H18 C14 1_555 1_555
C15 Si1 1_555 1_555
H19 C15 1_555 1_555
H20 C15 1_555 1_555
C16 C15 1_555 1_555
H21 C16 1_555 1_555
H22 C16 1_555 1_555
H23 C16 1_555 1_555
C17 Si1 1_555 1_555
H24 C17 1_555 1_555
H25 C17 1_555 1_555
C18 C17 1_555 1_555
H26 C18 1_555 1_555
H27 C18 1_555 1_555
H28 C18 1_555 1_555
C19 N3 1_555 1_555
H29 C19 1_555 1_555
H30 C19 1_555 1_555
C20 C19 1_555 1_555
H31 C20 1_555 1_555
C21 C20 1_555 1_555
C22 N3 1_555 1_555
H32 C22 1_555 1_555
H33 C22 1_555 1_555
C23 C20 1_555 1_555
H34 C23 1_555 1_555
H35 C23 1_555 1_555
H36 C23 1_555 1_555
C24 C21 1_555 1_555
H37 C24 1_555 1_555
C25 S2 1_555 1_555
C26 C25 1_555 1_555
H38 C26 1_555 1_555
C27 C26 1_555 1_555
H39 C27 1_555 1_555
C28 C27 1_555 1_555
C29 C28 1_555 1_555
H40 C29 1_555 1_555
C30 C25 1_555 1_555
H41 C30 1_555 1_555
C31 Si2 1_555 1_555
H42 C31 1_555 1_555
H43 C31 1_555 1_555
C32 C31 1_555 1_555
H44 C32 1_555 1_555
H45 C32 1_555 1_555
H46 C32 1_555 1_555
C33 Si2 1_555 1_555
H47 C33 1_555 1_555
H48 C33 1_555 1_555
C34 C33 1_555 1_555
H49 C34 1_555 1_555
H50 C34 1_555 1_555
H51 C34 1_555 1_555
C35 Si2 1_555 1_555
H52 C35 1_555 1_555
H53 C35 1_555 1_555
C36 C35 1_555 1_555
H54 C36 1_555 1_555
H55 C36 1_555 1_555
H56 C36 1_555 1_555
C3 C4 1_555 1_555
C11 C12 1_555 1_555
C21 C22 1_555 1_555
C29 C30 1_555 1_555

#END
