
#######################################################################
#
#                 Cambridge Crystallographic Data Centre
#                                CCDC 
#
#######################################################################
#
# If this CIF has been generated from an entry in the Cambridge 
# Structural Database, then it will include bibliographic, chemical, 
# crystal, experimental, refinement or atomic coordinate data resulting 
# from the CCDC's data processing and validation procedures.
#
#######################################################################

data_SEYJIS
_chemical_compound_source        'Thai mangrove fungus Phomopsis sp. xy21'
_chemical_name_common            'phomoxanthone C dihydrate'
_chemical_formula_moiety         'C30 H34 O14,2(H2 O1)'
_chemical_name_systematic        
"1,1',5,5',8,8',8a,8a'-octahydroxy-10a,10a'-bis(hydroxymethyl)-6,6'-dimethyl-5,5',6,6',7,7',8,8',8a,8a',10a,10a'-dodecahydro-9H,9'H-[2,2'-bixanthene]-9,9'-dione dihydrate"
_symmetry_cell_setting           monoclinic
_symmetry_space_group_name_H-M   'P 21'
_symmetry_Int_Tables_number      4
_space_group_name_Hall           'P 2yb'
loop_
_symmetry_equiv_pos_site_id
_symmetry_equiv_pos_as_xyz
1 x,y,z
2 -x,1/2+y,-z
_cell_length_a                   9.8146(4)
_cell_length_b                   15.0697(5)
_cell_length_c                   10.4267(4)
_cell_angle_alpha                90
_cell_angle_beta                 98.935(4)
_cell_angle_gamma                90
_cell_volume                     1523.43
_exptl_crystal_colour            colorless
_exptl_crystal_description       block
_cell_formula_units_Z            2
loop_
_atom_site_label
_atom_site_type_symbol
_atom_site_fract_x
_atom_site_fract_y
_atom_site_fract_z
O1 O 0.2840(6) 0.8444(4) 0.1324(6)
O2 O 0.0505(5) 0.8414(4) -0.1092(5)
H1 H 0.0124 0.8224 -0.1817
O3 O 0.1405(5) 0.6796(3) -0.1708(5)
O4 O 0.2414(6) 0.7187(4) 0.2933(5)
H2 H 0.2525 0.7713 0.2703
O5 O 0.2524(6) 0.4163(4) 0.2778(5)
H3 H 0.2856 0.3683 0.3096
O6 O 0.3069(6) 0.2909(4) 0.4508(5)
O7 O 0.0733(5) 0.2890(4) 0.6263(5)
H4 H 0.0357 0.3046 0.6898
O8 O 0.1644(5) 0.4525(3) 0.7179(5)
O9 O 0.0668(6) 0.3377(4) 0.8729(5)
H5 H 0.0411 0.3322 0.9457
O10 O 0.4319(6) 0.2189(4) 0.7033(6)
H6 H 0.4688 0.1705 0.7292
O11 O 0.4343(6) 0.4721(4) 0.8738(6)
H7 H 0.4169 0.5232 0.8435
O12 O 0.0436(6) 0.7916(4) -0.3578(5)
H8 H 0.0200 0.8099 -0.4341
O13 O 0.4113(5) 0.9132(4) -0.0920(5)
H9 H 0.4375 0.9288 -0.0147
O14 O 0.3962(6) 0.6399(4) -0.2290(6)
H10 H 0.4296 0.6510 -0.2966
C1 C 0.2328(8) 0.7952(5) 0.0426(8)
C2 C 0.1980(8) 0.8283(5) -0.0967(8)
C3 C 0.2293(8) 0.7535(5) -0.1880(8)
C4 C 0.1407(7) 0.6516(5) -0.0474(7)
C5 C 0.1892(8) 0.7045(5) 0.0620(8)
C6 C 0.1902(7) 0.6695(5) 0.1880(8)
C7 C 0.1404(8) 0.5846(5) 0.2063(8)
C8 C 0.1438(8) 0.5471(5) 0.3386(8)
C9 C 0.2018(8) 0.4638(5) 0.3712(8)
C10 C 0.2061(8) 0.4289(5) 0.4983(8)
C11 C 0.2551(8) 0.3375(5) 0.5271(8)
C12 C 0.2211(8) 0.3023(5) 0.6570(8)
C13 C 0.2517(8) 0.3765(5) 0.7587(8)
C14 C 0.1577(8) 0.4801(5) 0.5928(8)
C15 C 0.0959(7) 0.5620(5) 0.5607(8)
H11 H 0.0584 0.5956 0.6240
C16 C 0.0900(8) 0.5938(5) 0.4357(8)
H12 H 0.0476 0.6497 0.4147
C17 C 0.2152(8) 0.3469(5) 0.8904(8)
H13 H 0.2448 0.3937 0.9570
C18 C 0.2865(8) 0.2589(5) 0.9339(8)
H14 H 0.3884 0.2689 0.9437
C19 C 0.2492(8) 0.1863(5) 0.8304(8)
H15 H 0.2985 0.1310 0.8601
H16 H 0.1490 0.1742 0.8207
C20 C 0.2862(8) 0.2126(5) 0.6989(8)
H17 H 0.2492 0.1668 0.6333
C21 C 0.2531(9) 0.2296(6) 1.0654(8)
H18 H 0.2778 0.2769 1.1291
H19 H 0.3058 0.1759 1.0937
H20 H 0.1542 0.2169 1.0579
C22 C 0.4031(8) 0.4086(5) 0.7732(8)
H21 H 0.4655 0.3570 0.7919
H22 H 0.4199 0.4351 0.6902
C23 C 0.0876(8) 0.5366(5) 0.0944(8)
H23 H 0.0497 0.4796 0.1048
C24 C 0.0877(7) 0.5677(5) -0.0301(8)
H24 H 0.0521 0.5322 -0.1030
C25 C 0.1915(8) 0.7838(5) -0.3307(8)
H25 H 0.2220 0.7374 -0.3887
C26 C 0.2628(8) 0.8714(5) -0.3532(8)
H26 H 0.3647 0.8619 -0.3324
C27 C 0.2238(8) 0.9434(5) -0.2633(8)
H27 H 0.1231 0.9540 -0.2824
H28 H 0.2711 0.9993 -0.2797
C28 C 0.2630(8) 0.9177(5) -0.1204(8)
H29 H 0.2287 0.9640 -0.0646
C29 C 0.2292(9) 0.9013(6) -0.4965(9)
H30 H 0.2534 0.8537 -0.5530
H31 H 0.2825 0.9546 -0.5095
H32 H 0.1305 0.9144 -0.5179
C30 C 0.3798(8) 0.7202(5) -0.1618(8)
H33 H 0.4413 0.7661 -0.1895
H34 H 0.4074 0.7105 -0.0674
O15 O 0.5556(7) 0.1747(5) 0.4697(7)
H35 H 0.6072 0.1540 0.5360
H36 H 0.4982 0.2109 0.4938
O16 O 0.5353(7) 0.0565(5) 0.7989(8)
H37 H 0.5011 0.0161 0.8410
H38 H 0.6018 0.0352 0.7652
loop_
_geom_bond_atom_site_label_1
_geom_bond_atom_site_label_2
_geom_bond_site_symmetry_1
_geom_bond_site_symmetry_2
O1 C1 1_555 1_555
O2 H1 1_555 1_555
O3 C3 1_555 1_555
O4 H2 1_555 1_555
O5 H3 1_555 1_555
O6 C11 1_555 1_555
O7 H4 1_555 1_555
O8 C13 1_555 1_555
O9 H5 1_555 1_555
O10 H6 1_555 1_555
O11 H7 1_555 1_555
O12 H8 1_555 1_555
O13 H9 1_555 1_555
O14 H10 1_555 1_555
C1 C2 1_555 1_555
C2 O2 1_555 1_555
C3 C2 1_555 1_555
C4 O3 1_555 1_555
C5 C1 1_555 1_555
C6 O4 1_555 1_555
C7 C6 1_555 1_555
C8 C7 1_555 1_555
C9 O5 1_555 1_555
C10 C9 1_555 1_555
C11 C10 1_555 1_555
C12 O7 1_555 1_555
C13 C12 1_555 1_555
C14 O8 1_555 1_555
C15 C14 1_555 1_555
H11 C15 1_555 1_555
C16 C8 1_555 1_555
H12 C16 1_555 1_555
C17 O9 1_555 1_555
H13 C17 1_555 1_555
C18 C17 1_555 1_555
H14 C18 1_555 1_555
C19 C18 1_555 1_555
H15 C19 1_555 1_555
H16 C19 1_555 1_555
C20 O10 1_555 1_555
H17 C20 1_555 1_555
C21 C18 1_555 1_555
H18 C21 1_555 1_555
H19 C21 1_555 1_555
H20 C21 1_555 1_555
C22 O11 1_555 1_555
H21 C22 1_555 1_555
H22 C22 1_555 1_555
C23 C7 1_555 1_555
H23 C23 1_555 1_555
C24 C4 1_555 1_555
H24 C24 1_555 1_555
C25 O12 1_555 1_555
H25 C25 1_555 1_555
C26 C25 1_555 1_555
H26 C26 1_555 1_555
C27 C26 1_555 1_555
H27 C27 1_555 1_555
H28 C27 1_555 1_555
C28 O13 1_555 1_555
H29 C28 1_555 1_555
C29 C26 1_555 1_555
H30 C29 1_555 1_555
H31 C29 1_555 1_555
H32 C29 1_555 1_555
C30 O14 1_555 1_555
H33 C30 1_555 1_555
H34 C30 1_555 1_555
O15 H35 1_555 1_555
H36 O15 1_555 1_555
O16 H37 1_555 1_555
H38 O16 1_555 1_555
C2 C28 1_555 1_555
C3 C25 1_555 1_555
C3 C30 1_555 1_555
C4 C5 1_555 1_555
C5 C6 1_555 1_555
C8 C9 1_555 1_555
C10 C14 1_555 1_555
C11 C12 1_555 1_555
C12 C20 1_555 1_555
C13 C17 1_555 1_555
C13 C22 1_555 1_555
C15 C16 1_555 1_555
C19 C20 1_555 1_555
C23 C24 1_555 1_555
C27 C28 1_555 1_555

#END
