
#######################################################################
#
#                 Cambridge Crystallographic Data Centre
#                                CCDC 
#
#######################################################################
#
# If this CIF has been generated from an entry in the Cambridge 
# Structural Database, then it will include bibliographic, chemical, 
# crystal, experimental, refinement or atomic coordinate data resulting 
# from the CCDC's data processing and validation procedures.
#
#######################################################################

data_SEYKEO
_chemical_formula_moiety         'C54 H69 N1 O3 Si3'
_chemical_name_systematic        
2,6,10-tris((triisopropylsilyl)ethynyl)-4H,8H,12H-benzo[1,9]quinolizino[3,4,5,6,7-defg]acridine-4,8,12-trione
_symmetry_cell_setting           triclinic
_symmetry_space_group_name_H-M   'P -1'
_symmetry_Int_Tables_number      2
_space_group_name_Hall           '-P 1'
loop_
_symmetry_equiv_pos_site_id
_symmetry_equiv_pos_as_xyz
1 x,y,z
2 -x,-y,-z
_cell_length_a                   7.5881(8)
_cell_length_b                   19.6115(19)
_cell_length_c                   34.853(4)
_cell_angle_alpha                101.351(9)
_cell_angle_beta                 90.942(8)
_cell_angle_gamma                94.006(8)
_cell_volume                     5070.32
_exptl_crystal_colour            'light yellow'
_exptl_crystal_description       block
_cell_formula_units_Z            4
loop_
_atom_site_label
_atom_site_type_symbol
_atom_site_fract_x
_atom_site_fract_y
_atom_site_fract_z
C1 C 0.3074(8) 0.3539(3) 0.14694(16)
C2 C 0.2785(9) 0.3994(3) 0.12888(18)
C3 C 0.2721(9) 0.2550(3) 0.41078(15)
C4 C 0.2169(9) 0.2732(3) 0.44315(17)
C5 C 0.8043(8) -0.0717(3) 0.20170(16)
C6 C 0.8947(9) -0.1203(3) 0.19427(16)
C7 C 0.3390(8) 0.3058(3) 0.17215(15)
C8 C 0.2940(8) 0.3218(3) 0.21134(15)
H1 H 0.2382 0.3625 0.2202
C9 C 0.3295(7) 0.2794(3) 0.23755(14)
C10 C 0.2773(8) 0.3011(3) 0.27828(14)
C11 C 0.3281(8) 0.2569(3) 0.30508(15)
C12 C 0.2868(8) 0.2756(3) 0.34417(14)
H2 H 0.2321 0.3167 0.3526
C13 C 0.3249(8) 0.2347(3) 0.37097(15)
C14 C 0.4071(8) 0.1734(3) 0.35796(14)
H3 H 0.4351 0.1456 0.3756
C15 C 0.4477(8) 0.1532(3) 0.31865(14)
C16 C 0.5272(8) 0.0856(3) 0.30666(16)
C17 C 0.5718(8) 0.0691(3) 0.26497(14)
C18 C 0.6586(8) 0.0088(3) 0.25204(15)
H4 H 0.6854 -0.0189 0.2698
C19 C 0.7061(8) -0.0111(3) 0.21317(15)
C20 C 0.6594(7) 0.0300(3) 0.18745(15)
H5 H 0.6856 0.0164 0.1612
C21 C 0.5740(7) 0.0913(3) 0.19909(14)
C22 C 0.5339(8) 0.1334(3) 0.17012(14)
C23 C 0.4537(7) 0.1995(3) 0.18540(14)
C24 C 0.4181(7) 0.2431(3) 0.15999(14)
H6 H 0.4477 0.2303 0.1339
C25 C 0.4123(7) 0.2171(3) 0.22541(14)
C26 C 0.4103(7) 0.1943(3) 0.29166(13)
C27 C 0.5311(7) 0.1112(3) 0.23888(14)
C28 C 0.0557(14) 0.4612(4) 0.0753(3)
H7 H -0.0378 0.4567 0.0939
C29 C 0.0282(17) 0.3945(5) 0.0479(3)
H8 H 0.1057 0.3942 0.0264
H9 H -0.0923 0.3880 0.0382
H10 H 0.0530 0.3574 0.0610
C30 C 0.0063(15) 0.5260(5) 0.0602(3)
H11 H -0.0108 0.5630 0.0820
H12 H -0.1009 0.5151 0.0445
H13 H 0.0997 0.5404 0.0447
C31 C 0.4677(15) 0.4961(4) 0.0854(3)
H14 H 0.5587 0.5004 0.1062
C32 C 0.5155(19) 0.4352(6) 0.0530(4)
H15 H 0.5483 0.3972 0.0646
H16 H 0.6128 0.4504 0.0387
H17 H 0.4153 0.4200 0.0355
C33 C 0.4843(15) 0.5659(5) 0.0707(3)
H18 H 0.3995 0.5641 0.0497
H19 H 0.6013 0.5733 0.0615
H20 H 0.4622 0.6036 0.0918
C34 C 0.2172(14) 0.5492(4) 0.1507(2)
H21 H 0.2062 0.5918 0.1404
C35 C 0.3724(15) 0.5634(4) 0.1806(3)
H22 H 0.3742 0.5256 0.1944
H23 H 0.3588 0.6061 0.1988
H24 H 0.4812 0.5672 0.1672
C36 C 0.0420(15) 0.5338(4) 0.1706(2)
H25 H -0.0550 0.5304 0.1521
H26 H 0.0265 0.5709 0.1925
H27 H 0.0458 0.4906 0.1795
C37 C 0.2332(14) 0.3965(4) 0.5101(2)
H28 H 0.3466 0.3885 0.5216
C38 C 0.2792(14) 0.4371(4) 0.4801(3)
H29 H 0.3538 0.4114 0.4614
H30 H 0.3407 0.4807 0.4922
H31 H 0.1733 0.4459 0.4670
C39 C 0.1330(14) 0.4369(4) 0.5443(2)
H32 H 0.0149 0.4421 0.5356
H33 H 0.1930 0.4820 0.5534
H34 H 0.1285 0.4115 0.5652
C40 C -0.1215(14) 0.3029(5) 0.4820(3)
H35 H -0.1748 0.3181 0.5074
C41 C -0.1762(15) 0.3500(6) 0.4557(3)
H36 H -0.1478 0.3977 0.4684
H37 H -0.3013 0.3424 0.4503
H38 H -0.1147 0.3401 0.4317
C42 C -0.1991(15) 0.2280(6) 0.4653(4)
H39 H -0.1437 0.2103 0.4411
H40 H -0.3241 0.2282 0.4605
H41 H -0.1779 0.1988 0.4837
C43 C 0.1754(14) 0.2451(4) 0.52351(19)
H42 H 0.1176 0.1994 0.5116
C44 C 0.105(2) 0.2644(5) 0.5646(2)
H43 H 0.1547 0.3100 0.5770
H44 H 0.1375 0.2310 0.5797
H45 H -0.0214 0.2645 0.5631
C45 C 0.3742(16) 0.2362(5) 0.5250(2)
H46 H 0.4138 0.2205 0.4990
H47 H 0.3972 0.2025 0.5407
H48 H 0.4362 0.2801 0.5363
C46 C 0.9488(10) -0.2737(3) 0.1841(2)
H49 H 1.0402 -0.3070 0.1796
C47 C 0.8606(11) -0.2819(4) 0.2226(2)
H50 H 0.9486 -0.2744 0.2434
H51 H 0.8042 -0.3280 0.2196
H52 H 0.7739 -0.2483 0.2287
C48 C 0.8120(12) -0.2949(4) 0.1502(3)
H53 H 0.7189 -0.2638 0.1539
H54 H 0.7636 -0.3417 0.1496
H55 H 0.8679 -0.2927 0.1259
C49 C 1.1569(10) -0.1793(3) 0.13741(18)
H56 H 1.0557 -0.1819 0.1192
C50 C 1.2659(12) -0.2411(4) 0.1202(2)
H57 H 1.3686 -0.2407 0.1367
H58 H 1.3017 -0.2370 0.0944
H59 H 1.1949 -0.2841 0.1188
C51 C 1.2600(11) -0.1096(4) 0.1370(2)
H60 H 1.1916 -0.0720 0.1488
H61 H 1.2833 -0.1059 0.1105
H62 H 1.3698 -0.1070 0.1515
C52 C 1.2224(10) -0.1619(4) 0.22870(19)
H63 H 1.1650 -0.1788 0.2504
C53 C 1.2611(11) -0.0826(4) 0.2428(2)
H64 H 1.3021 -0.0623 0.2213
H65 H 1.3503 -0.0739 0.2634
H66 H 1.1551 -0.0622 0.2524
C54 C 1.3924(11) -0.1974(5) 0.2228(2)
H67 H 1.3662 -0.2467 0.2140
H68 H 1.4595 -0.1889 0.2470
H69 H 1.4598 -0.1792 0.2034
N1 N 0.4499(6) 0.1747(2) 0.25192(11)
O1 O 0.1895(5) 0.35205(18) 0.28855(10)
O2 O 0.5552(6) 0.0471(2) 0.32944(11)
O3 O 0.5673(6) 0.1162(2) 0.13568(10)
Si1 Si 0.2547(3) 0.47673(9) 0.10791(5)
Si2 Si 0.1215(3) 0.30601(10) 0.49093(5)
Si3 Si 1.0604(3) -0.18564(8) 0.18576(5)
C55 C 0.5141(9) 0.4911(3) 0.28455(16)
C56 C 0.4263(10) 0.5353(3) 0.30028(18)
C57 C 1.0208(9) 0.0717(3) 0.33594(18)
C58 C 1.0305(10) 0.0335(3) 0.35889(19)
C59 C 1.0763(9) 0.1777(3) 0.07209(16)
C60 C 1.1419(9) 0.1667(3) 0.04062(17)
C61 C 0.6170(8) 0.4324(3) 0.26975(16)
C62 C 0.6664(8) 0.3913(3) 0.29519(16)
H70 H 0.6404 0.4042 0.3215
C63 C 0.7541(8) 0.3311(3) 0.28302(15)
C64 C 0.7983(8) 0.2897(3) 0.31197(15)
C65 C 0.8779(8) 0.2235(3) 0.29610(15)
C66 C 0.9144(8) 0.1806(3) 0.32127(15)
H71 H 0.8871 0.1938 0.3475
C67 C 0.9917(8) 0.1171(3) 0.30889(16)
C68 C 1.0338(8) 0.1010(3) 0.26968(15)
H72 H 1.0874 0.0599 0.2606
C69 C 0.9998(7) 0.1431(3) 0.24370(15)
C70 C 1.0505(8) 0.1221(3) 0.20245(15)
C71 C 1.0000(8) 0.1672(3) 0.17631(15)
C72 C 1.0445(8) 0.1506(3) 0.13734(15)
H73 H 1.0983 0.1095 0.1285
C73 C 1.0118(8) 0.1930(3) 0.11111(15)
C74 C 0.9253(8) 0.2534(3) 0.12484(15)
H74 H 0.8979 0.2819 0.1075
C75 C 0.8797(8) 0.2718(3) 0.16365(15)
C76 C 0.7960(8) 0.3381(3) 0.17591(16)
C77 C 0.7546(8) 0.3551(3) 0.21753(15)
C78 C 0.6659(8) 0.4146(3) 0.23111(15)
H75 H 0.6388 0.4431 0.2138
C79 C 0.7951(8) 0.3116(3) 0.24332(15)
C80 C 0.9184(7) 0.2060(3) 0.25655(14)
C81 C 0.9188(7) 0.2297(3) 0.19028(14)
C82 C 0.0899(9) 0.6084(4) 0.30081(19)
H76 H 0.1296 0.6379 0.2825
C83 C 0.0107(11) 0.5398(4) 0.2763(2)
H77 H 0.0958 0.5202 0.2581
H78 H -0.0929 0.5481 0.2622
H79 H -0.0209 0.5079 0.2931
C84 C -0.0520(11) 0.6462(5) 0.3254(2)
H80 H -0.0915 0.6196 0.3445
H81 H -0.1501 0.6512 0.3087
H82 H -0.0036 0.6914 0.3386
C85 C 0.4332(10) 0.6803(3) 0.3450(2)
H83 H 0.5457 0.6676 0.3549
C86 C 0.4759(11) 0.7130(4) 0.3092(2)
H84 H 0.5216 0.6787 0.2890
H85 H 0.5625 0.7517 0.3166
H86 H 0.3702 0.7290 0.2995
C87 C 0.3596(11) 0.7336(3) 0.3787(2)
H87 H 0.2465 0.7460 0.3707
H88 H 0.4398 0.7746 0.3847
H89 H 0.3470 0.7132 0.4015
C88 C 0.2395(11) 0.5603(3) 0.37527(18)
H90 H 0.1743 0.5947 0.3926
C89 C 0.4082(14) 0.5516(5) 0.3981(2)
H91 H 0.4693 0.5141 0.3836
H92 H 0.3776 0.5413 0.4231
H93 H 0.4833 0.5940 0.4019
C90 C 0.1212(13) 0.4919(3) 0.3676(2)
H94 H 0.0094 0.4994 0.3565
H95 H 0.1029 0.4764 0.3918
H96 H 0.1775 0.4569 0.3497
C91 C 1.2034(12) -0.0071(4) 0.4280(2)
H97 H 1.3113 -0.0090 0.4129
C92 C 1.2091(14) 0.0674(4) 0.4527(2)
H98 H 1.2090 0.1004 0.4357
H99 H 1.3145 0.0762 0.4691
H100 H 1.1074 0.0719 0.4688
C93 C 1.2164(14) -0.0617(5) 0.4541(2)
H101 H 1.1157 -0.0607 0.4704
H102 H 1.3225 -0.0510 0.4702
H103 H 1.2192 -0.1072 0.4379
C94 C 0.7887(17) -0.0250(5) 0.4106(3)
H104 H 0.7200 -0.0353 0.3858
C95 C 0.7339(14) 0.0456(5) 0.4264(3)
H105 H 0.8001 0.0651 0.4502
H106 H 0.6101 0.0429 0.4317
H107 H 0.7559 0.0748 0.4076
C96 C 0.7163(19) -0.0788(7) 0.4278(5)
H108 H 0.7038 -0.1214 0.4086
H109 H 0.6024 -0.0674 0.4377
H110 H 0.7929 -0.0846 0.4489
C97 C 1.0442(16) -0.1165(4) 0.3591(2)
H111 H 1.0308 -0.1523 0.3750
C98 C 0.9052(17) -0.1338(5) 0.3251(3)
H112 H 0.7888 -0.1327 0.3355
H113 H 0.9201 -0.1795 0.3100
H114 H 0.9203 -0.1000 0.3086
C99 C 1.2326(17) -0.1163(5) 0.3428(3)
H115 H 1.2495 -0.0797 0.3282
H116 H 1.2473 -0.1604 0.3259
H117 H 1.3181 -0.1087 0.3641
C100 C 1.1922(12) 0.0664(4) -0.03444(19)
H118 H 1.2258 0.0330 -0.0186
C101 C 1.2914(17) 0.0486(5) -0.0732(2)
H119 H 1.2543 0.0771 -0.0909
H120 H 1.2649 0.0003 -0.0849
H121 H 1.4163 0.0573 -0.0679
C102 C 0.9924(14) 0.0532(5) -0.0421(2)
H122 H 0.9331 0.0640 -0.0177
H123 H 0.9646 0.0050 -0.0539
H124 H 0.9542 0.0821 -0.0594
C103 C 1.2170(15) 0.2289(5) -0.0286(3)
H125 H 1.2509 0.2669 -0.0064
C104 C 1.3349(19) 0.2489(10) -0.0563(4)
H126 H 1.4542 0.2436 -0.0484
H127 H 1.3223 0.2968 -0.0577
H128 H 1.3079 0.2199 -0.0816
C105 C 1.0222(15) 0.2414(5) -0.0321(2)
H129 H 0.9647 0.2052 -0.0518
H130 H 1.0112 0.2858 -0.0393
H131 H 0.9680 0.2413 -0.0074
C106 C 1.5042(12) 0.1599(5) 0.0100(2)
H132 H 1.5719 0.1521 -0.0140
C107 C 1.5726(13) 0.2318(5) 0.0345(3)
H133 H 1.5536 0.2675 0.0199
H134 H 1.6966 0.2317 0.0404
H135 H 1.5099 0.2409 0.0585
C108 C 1.5450(14) 0.1032(5) 0.0324(3)
H136 H 1.4879 0.1113 0.0571
H137 H 1.6705 0.1040 0.0368
H138 H 1.5024 0.0584 0.0174
N2 N 0.8781(6) 0.2488(2) 0.23006(11)
O4 O 0.7685(6) 0.3070(2) 0.34656(10)
O5 O 1.1312(6) 0.06942(19) 0.19177(11)
O6 O 0.7629(6) 0.3763(2) 0.15313(11)
Si4 Si 0.2890(3) 0.59730(8) 0.33097(5)
Si5 Si 1.0162(3) -0.02899(10) 0.39116(5)
Si6 Si 1.2628(3) 0.15474(10) -0.00532(5)
loop_
_geom_bond_atom_site_label_1
_geom_bond_atom_site_label_2
_geom_bond_site_symmetry_1
_geom_bond_site_symmetry_2
C1 C2 1_555 1_555
C2 Si1 1_555 1_555
C3 C4 1_555 1_555
C4 Si2 1_555 1_555
C5 C6 1_555 1_555
C6 Si3 1_555 1_555
C7 C1 1_555 1_555
C8 C7 1_555 1_555
H1 C8 1_555 1_555
C9 C8 1_555 1_555
C10 C9 1_555 1_555
C11 C10 1_555 1_555
C12 C11 1_555 1_555
H2 C12 1_555 1_555
C13 C3 1_555 1_555
C14 C13 1_555 1_555
H3 C14 1_555 1_555
C15 C14 1_555 1_555
C16 C15 1_555 1_555
C17 C16 1_555 1_555
C18 C17 1_555 1_555
H4 C18 1_555 1_555
C19 C5 1_555 1_555
C20 C19 1_555 1_555
H5 C20 1_555 1_555
C21 C20 1_555 1_555
C22 C21 1_555 1_555
C23 C22 1_555 1_555
C24 C7 1_555 1_555
H6 C24 1_555 1_555
C25 C9 1_555 1_555
C26 C11 1_555 1_555
C27 C17 1_555 1_555
C28 H7 1_555 1_555
C29 C28 1_555 1_555
H8 C29 1_555 1_555
H9 C29 1_555 1_555
H10 C29 1_555 1_555
C30 C28 1_555 1_555
H11 C30 1_555 1_555
H12 C30 1_555 1_555
H13 C30 1_555 1_555
C31 H14 1_555 1_555
C32 C31 1_555 1_555
H15 C32 1_555 1_555
H16 C32 1_555 1_555
H17 C32 1_555 1_555
C33 C31 1_555 1_555
H18 C33 1_555 1_555
H19 C33 1_555 1_555
H20 C33 1_555 1_555
C34 H21 1_555 1_555
C35 C34 1_555 1_555
H22 C35 1_555 1_555
H23 C35 1_555 1_555
H24 C35 1_555 1_555
C36 C34 1_555 1_555
H25 C36 1_555 1_555
H26 C36 1_555 1_555
H27 C36 1_555 1_555
C37 H28 1_555 1_555
C38 C37 1_555 1_555
H29 C38 1_555 1_555
H30 C38 1_555 1_555
H31 C38 1_555 1_555
C39 C37 1_555 1_555
H32 C39 1_555 1_555
H33 C39 1_555 1_555
H34 C39 1_555 1_555
C40 H35 1_555 1_555
C41 C40 1_555 1_555
H36 C41 1_555 1_555
H37 C41 1_555 1_555
H38 C41 1_555 1_555
C42 C40 1_555 1_555
H39 C42 1_555 1_555
H40 C42 1_555 1_555
H41 C42 1_555 1_555
C43 H42 1_555 1_555
C44 C43 1_555 1_555
H43 C44 1_555 1_555
H44 C44 1_555 1_555
H45 C44 1_555 1_555
C45 C43 1_555 1_555
H46 C45 1_555 1_555
H47 C45 1_555 1_555
H48 C45 1_555 1_555
C46 H49 1_555 1_555
C47 C46 1_555 1_555
H50 C47 1_555 1_555
H51 C47 1_555 1_555
H52 C47 1_555 1_555
C48 C46 1_555 1_555
H53 C48 1_555 1_555
H54 C48 1_555 1_555
H55 C48 1_555 1_555
C49 H56 1_555 1_555
C50 C49 1_555 1_555
H57 C50 1_555 1_555
H58 C50 1_555 1_555
H59 C50 1_555 1_555
C51 C49 1_555 1_555
H60 C51 1_555 1_555
H61 C51 1_555 1_555
H62 C51 1_555 1_555
C52 H63 1_555 1_555
C53 C52 1_555 1_555
H64 C53 1_555 1_555
H65 C53 1_555 1_555
H66 C53 1_555 1_555
C54 C52 1_555 1_555
H67 C54 1_555 1_555
H68 C54 1_555 1_555
H69 C54 1_555 1_555
N1 C25 1_555 1_555
O1 C10 1_555 1_555
O2 C16 1_555 1_555
O3 C22 1_555 1_555
Si1 C28 1_555 1_555
Si2 C37 1_555 1_555
Si3 C46 1_555 1_555
C55 C56 1_555 1_555
C56 Si4 1_555 1_555
C57 C58 1_555 1_555
C58 Si5 1_555 1_555
C59 C60 1_555 1_555
C60 Si6 1_555 1_555
C61 C55 1_555 1_555
C62 C61 1_555 1_555
H70 C62 1_555 1_555
C63 C62 1_555 1_555
C64 C63 1_555 1_555
C65 C64 1_555 1_555
C66 C65 1_555 1_555
H71 C66 1_555 1_555
C67 C57 1_555 1_555
C68 C67 1_555 1_555
H72 C68 1_555 1_555
C69 C68 1_555 1_555
C70 C69 1_555 1_555
C71 C70 1_555 1_555
C72 C71 1_555 1_555
H73 C72 1_555 1_555
C73 C59 1_555 1_555
C74 C73 1_555 1_555
H74 C74 1_555 1_555
C75 C74 1_555 1_555
C76 C75 1_555 1_555
C77 C76 1_555 1_555
C78 C61 1_555 1_555
H75 C78 1_555 1_555
C79 C63 1_555 1_555
C80 C65 1_555 1_555
C81 C71 1_555 1_555
C82 H76 1_555 1_555
C83 C82 1_555 1_555
H77 C83 1_555 1_555
H78 C83 1_555 1_555
H79 C83 1_555 1_555
C84 C82 1_555 1_555
H80 C84 1_555 1_555
H81 C84 1_555 1_555
H82 C84 1_555 1_555
C85 H83 1_555 1_555
C86 C85 1_555 1_555
H84 C86 1_555 1_555
H85 C86 1_555 1_555
H86 C86 1_555 1_555
C87 C85 1_555 1_555
H87 C87 1_555 1_555
H88 C87 1_555 1_555
H89 C87 1_555 1_555
C88 H90 1_555 1_555
C89 C88 1_555 1_555
H91 C89 1_555 1_555
H92 C89 1_555 1_555
H93 C89 1_555 1_555
C90 C88 1_555 1_555
H94 C90 1_555 1_555
H95 C90 1_555 1_555
H96 C90 1_555 1_555
C91 H97 1_555 1_555
C92 C91 1_555 1_555
H98 C92 1_555 1_555
H99 C92 1_555 1_555
H100 C92 1_555 1_555
C93 C91 1_555 1_555
H101 C93 1_555 1_555
H102 C93 1_555 1_555
H103 C93 1_555 1_555
C94 H104 1_555 1_555
C95 C94 1_555 1_555
H105 C95 1_555 1_555
H106 C95 1_555 1_555
H107 C95 1_555 1_555
C96 C94 1_555 1_555
H108 C96 1_555 1_555
H109 C96 1_555 1_555
H110 C96 1_555 1_555
C97 H111 1_555 1_555
C98 C97 1_555 1_555
H112 C98 1_555 1_555
H113 C98 1_555 1_555
H114 C98 1_555 1_555
C99 C97 1_555 1_555
H115 C99 1_555 1_555
H116 C99 1_555 1_555
H117 C99 1_555 1_555
C100 H118 1_555 1_555
C101 C100 1_555 1_555
H119 C101 1_555 1_555
H120 C101 1_555 1_555
H121 C101 1_555 1_555
C102 C100 1_555 1_555
H122 C102 1_555 1_555
H123 C102 1_555 1_555
H124 C102 1_555 1_555
C103 H125 1_555 1_555
C104 C103 1_555 1_555
H126 C104 1_555 1_555
H127 C104 1_555 1_555
H128 C104 1_555 1_555
C105 C103 1_555 1_555
H129 C105 1_555 1_555
H130 C105 1_555 1_555
H131 C105 1_555 1_555
C106 H132 1_555 1_555
C107 C106 1_555 1_555
H133 C107 1_555 1_555
H134 C107 1_555 1_555
H135 C107 1_555 1_555
C108 C106 1_555 1_555
H136 C108 1_555 1_555
H137 C108 1_555 1_555
H138 C108 1_555 1_555
N2 C79 1_555 1_555
O4 C64 1_555 1_555
O5 C70 1_555 1_555
O6 C76 1_555 1_555
Si4 C82 1_555 1_555
Si5 C91 1_555 1_555
Si6 C100 1_555 1_555
C12 C13 1_555 1_555
C15 C26 1_555 1_555
C18 C19 1_555 1_555
C21 C27 1_555 1_555
C23 C24 1_555 1_555
C23 C25 1_555 1_555
C26 N1 1_555 1_555
C27 N1 1_555 1_555
C31 Si1 1_555 1_555
C34 Si1 1_555 1_555
C40 Si2 1_555 1_555
C43 Si2 1_555 1_555
C49 Si3 1_555 1_555
C52 Si3 1_555 1_555
C66 C67 1_555 1_555
C69 C80 1_555 1_555
C72 C73 1_555 1_555
C75 C81 1_555 1_555
C77 C78 1_555 1_555
C77 C79 1_555 1_555
C80 N2 1_555 1_555
C81 N2 1_555 1_555
C85 Si4 1_555 1_555
C88 Si4 1_555 1_555
C94 Si5 1_555 1_555
C97 Si5 1_555 1_555
C103 Si6 1_555 1_555
C106 Si6 1_555 1_555

#END
