
#######################################################################
#
#                 Cambridge Crystallographic Data Centre
#                                CCDC 
#
#######################################################################
#
# If this CIF has been generated from an entry in the Cambridge 
# Structural Database, then it will include bibliographic, chemical, 
# crystal, experimental, refinement or atomic coordinate data resulting 
# from the CCDC's data processing and validation procedures.
#
#######################################################################

data_SEYNAN
_chemical_formula_moiety         'C23 H18 Cl1 N1'
_chemical_name_systematic        6-Chloro-3-ethyl-2,4-diphenylquinoline
_symmetry_cell_setting           triclinic
_symmetry_space_group_name_H-M   'P -1'
_symmetry_Int_Tables_number      2
_space_group_name_Hall           '-P 1'
loop_
_symmetry_equiv_pos_site_id
_symmetry_equiv_pos_as_xyz
1 x,y,z
2 -x,-y,-z
_cell_length_a                   8.4799(12)
_cell_length_b                   8.582(2)
_cell_length_c                   13.756(3)
_cell_angle_alpha                75.528(14)
_cell_angle_beta                 89.31(2)
_cell_angle_gamma                69.24(3)
_cell_volume                     903.142
_exptl_crystal_colour            colorless
_exptl_crystal_description       prism
_cell_formula_units_Z            2
loop_
_atom_site_label
_atom_site_type_symbol
_atom_site_fract_x
_atom_site_fract_y
_atom_site_fract_z
Cl1 Cl 0.48216(11) 1.20331(11) 0.04652(6)
N1 N 0.3568(3) 0.8651(3) 0.45231(15)
C1 C 0.2675(4) 0.7639(4) 0.46362(18)
C2 C 0.1991(3) 0.7251(3) 0.38250(19)
C3 C 0.2235(3) 0.8013(3) 0.28523(19)
C4 C 0.3515(3) 0.9967(3) 0.17342(19)
H1 H 0.3083 0.9830 0.1156
C5 C 0.4444(4) 1.0988(3) 0.16537(19)
C6 C 0.5130(4) 1.1215(4) 0.2503(2)
H2 H 0.5780 1.1905 0.2429
C7 C 0.4844(4) 1.0424(4) 0.3437(2)
H3 H 0.5309 1.0571 0.4001
C8 C 0.3847(3) 0.9379(3) 0.35648(19)
C9 C 0.3198(3) 0.9108(3) 0.26945(19)
C10 C 0.2393(3) 0.6924(4) 0.57102(18)
C11 C 0.1377(4) 0.8017(4) 0.6232(2)
H4 H 0.0895 0.9193 0.5920
C12 C 0.1057(4) 0.7395(4) 0.7223(2)
H5 H 0.0346 0.8147 0.7562
C13 C 0.1799(4) 0.5665(4) 0.7694(2)
H6 H 0.1599 0.5243 0.8356
C14 C 0.2835(4) 0.4558(4) 0.7186(2)
H7 H 0.3334 0.3385 0.7503
C15 C 0.3131(4) 0.5197(4) 0.6201(2)
H8 H 0.3844 0.4443 0.5863
C16 C 0.1037(3) 0.6023(3) 0.4017(2)
H9 H 0.0047 0.6496 0.3539
H10 H 0.0649 0.5932 0.4688
C17 C 0.2108(4) 0.4220(4) 0.3927(2)
H11 H 0.2454 0.4293 0.3255
H12 H 0.1453 0.3491 0.4071
H13 H 0.3091 0.3743 0.4399
C18 C 0.1495(3) 0.7744(3) 0.19558(19)
C19 C -0.0215(4) 0.8550(4) 0.16599(19)
H14 H -0.0903 0.9280 0.2018
C20 C -0.0925(4) 0.8291(4) 0.0841(2)
H15 H -0.2080 0.8836 0.0655
C21 C 0.0088(4) 0.7224(4) 0.0303(2)
H16 H -0.0381 0.7039 -0.0245
C22 C 0.1787(4) 0.6435(4) 0.0577(2)
H17 H 0.2471 0.5722 0.0208
C23 C 0.2500(4) 0.6688(4) 0.13996(19)
H18 H 0.3657 0.6145 0.1578
loop_
_geom_bond_atom_site_label_1
_geom_bond_atom_site_label_2
_geom_bond_site_symmetry_1
_geom_bond_site_symmetry_2
Cl1 C5 1_555 1_555
N1 C1 1_555 1_555
C1 C2 1_555 1_555
C2 C3 1_555 1_555
C3 C9 1_555 1_555
C4 H1 1_555 1_555
C5 C4 1_555 1_555
C6 C5 1_555 1_555
H2 C6 1_555 1_555
C7 C6 1_555 1_555
H3 C7 1_555 1_555
C8 N1 1_555 1_555
C9 C4 1_555 1_555
C10 C1 1_555 1_555
C11 C10 1_555 1_555
H4 C11 1_555 1_555
C12 C11 1_555 1_555
H5 C12 1_555 1_555
C13 C12 1_555 1_555
H6 C13 1_555 1_555
C14 C13 1_555 1_555
H7 C14 1_555 1_555
C15 C10 1_555 1_555
H8 C15 1_555 1_555
C16 C2 1_555 1_555
H9 C16 1_555 1_555
H10 C16 1_555 1_555
C17 C16 1_555 1_555
H11 C17 1_555 1_555
H12 C17 1_555 1_555
H13 C17 1_555 1_555
C18 C3 1_555 1_555
C19 C18 1_555 1_555
H14 C19 1_555 1_555
C20 C19 1_555 1_555
H15 C20 1_555 1_555
C21 C20 1_555 1_555
H16 C21 1_555 1_555
C22 C21 1_555 1_555
H17 C22 1_555 1_555
C23 C18 1_555 1_555
H18 C23 1_555 1_555
C7 C8 1_555 1_555
C8 C9 1_555 1_555
C14 C15 1_555 1_555
C22 C23 1_555 1_555

#END
