
#######################################################################
#
#                 Cambridge Crystallographic Data Centre
#                                CCDC 
#
#######################################################################
#
# If this CIF has been generated from an entry in the Cambridge 
# Structural Database, then it will include bibliographic, chemical, 
# crystal, experimental, refinement or atomic coordinate data resulting 
# from the CCDC's data processing and validation procedures.
#
#######################################################################

data_SEYNUG
_chemical_formula_moiety         'C22 H25 N5 O1 S1'
_chemical_name_systematic        
'1-Phenyl-3-methyl-4-benzal-5-pyrazolone 4-butylthiosemicarbazone'
_symmetry_cell_setting           monoclinic
_symmetry_space_group_name_H-M   'P 21/c'
_symmetry_Int_Tables_number      14
_space_group_name_Hall           '-P 2ybc'
loop_
_symmetry_equiv_pos_site_id
_symmetry_equiv_pos_as_xyz
1 x,y,z
2 -x,1/2+y,1/2-z
3 -x,-y,-z
4 x,1/2-y,1/2+z
_cell_length_a                   11.572(2)
_cell_length_b                   16.632(3)
_cell_length_c                   11.779(2)
_cell_angle_alpha                90
_cell_angle_beta                 103.92(3)
_cell_angle_gamma                90
_cell_volume                     2200.47
_exptl_crystal_colour            colorless
_exptl_crystal_description       quadrangular
_chemical_melting_point          '189-190 deg.C'
_cell_formula_units_Z            4
_exptl_crystal_recrystallization_method ethanol
loop_
_atom_site_label
_atom_site_type_symbol
_atom_site_fract_x
_atom_site_fract_y
_atom_site_fract_z
S1 S 0.83888(5) 0.14756(3) 0.16925(5)
O1 O 0.56163(13) 0.12713(10) -0.13305(14)
N1 N 0.41126(16) 0.03090(10) -0.17005(16)
N2 N 0.30612(16) 0.01940(11) -0.13540(17)
N3 N 0.51178(14) 0.22478(10) 0.09781(15)
N4 N 0.61127(15) 0.17899(10) 0.09900(16)
N5 N 0.70940(17) 0.25338(11) 0.25622(17)
C1 C 0.4354(2) -0.01399(13) -0.2641(2)
C2 C 0.5518(3) -0.02704(16) -0.2680(3)
H1 H 0.6140 -0.0066 -0.2100
C3 C 0.5747(3) -0.07112(19) -0.3598(3)
H2 H 0.6530 -0.0795 -0.3638
C4 C 0.4850(4) -0.10221(18) -0.4440(3)
H3 H 0.5019 -0.1315 -0.5053
C5 C 0.3702(4) -0.09043(18) -0.4386(3)
H4 H 0.3088 -0.1129 -0.4955
C6 C 0.3433(3) -0.04525(15) -0.3492(2)
H5 H 0.2646 -0.0363 -0.3469
C7 C 0.46699(18) 0.09906(12) -0.11533(18)
C8 C 0.39378(17) 0.12724(12) -0.04187(17)
C9 C 0.29760(18) 0.07550(12) -0.05591(18)
C10 C 0.1963(2) 0.07228(14) 0.0015(2)
H6 H 0.1454 0.0279 -0.0295
H7 H 0.1519 0.1215 -0.0133
H8 H 0.2264 0.0653 0.0842
C11 C 0.41225(17) 0.20005(12) 0.03208(17)
C12 C 0.30880(18) 0.25263(11) 0.03089(18)
C13 C 0.2966(2) 0.29270(14) 0.1308(2)
H9 H 0.3534 0.2857 0.2008
C14 C 0.2011(2) 0.34256(17) 0.1267(3)
H10 H 0.1932 0.3686 0.1943
C15 C 0.1171(2) 0.35423(16) 0.0238(3)
H11 H 0.0528 0.3881 0.0220
C16 C 0.1279(2) 0.31619(15) -0.0760(2)
H12 H 0.0714 0.3245 -0.1459
C17 C 0.22308(19) 0.26523(13) -0.0725(2)
H13 H 0.2298 0.2390 -0.1403
C18 C 0.71536(18) 0.19838(12) 0.17766(18)
C19 C 0.8077(2) 0.27865(15) 0.3520(2)
H14 H 0.8747 0.2428 0.3564
H15 H 0.7835 0.2744 0.4251
C20 C 0.8469(4) 0.3648(3) 0.3370(3)
H16 H 0.7775 0.3995 0.3244
H17 H 0.9013 0.3817 0.4092
C21 C 0.9059(4) 0.3770(3) 0.2393(4)
H18 H 0.8561 0.3549 0.1680
H19 H 0.9811 0.3484 0.2562
C24 C 0.9281(4) 0.4662(2) 0.2211(4)
H24 H 0.9668 0.4721 0.1581
H25 H 0.9779 0.4881 0.2914
H26 H 0.8535 0.4944 0.2024
H27 H 0.266(2) -0.0338(16) -0.145(2)
H28 H 0.618(2) 0.1551(15) 0.029(2)
H29 H 0.641(2) 0.2745(16) 0.256(2)
C22? C 0.8960(14) 0.3294(9) 0.3149(15)
H20? H 0.9238 0.3028 0.2531
H21? H 0.9639 0.3383 0.3802
C23? C 0.8363(14) 0.4128(8) 0.2691(14)
H22? H 0.8130 0.4408 0.3324
H23? H 0.7654 0.4036 0.2072
loop_
_geom_bond_atom_site_label_1
_geom_bond_atom_site_label_2
_geom_bond_site_symmetry_1
_geom_bond_site_symmetry_2
S1 C18 1_555 1_555
O1 C7 1_555 1_555
N1 N2 1_555 1_555
N2 C9 1_555 1_555
N3 N4 1_555 1_555
N4 C18 1_555 1_555
N5 C18 1_555 1_555
C1 N1 1_555 1_555
C2 C1 1_555 1_555
H1 C2 1_555 1_555
C3 C2 1_555 1_555
H2 C3 1_555 1_555
C4 C3 1_555 1_555
H3 C4 1_555 1_555
C5 C4 1_555 1_555
H4 C5 1_555 1_555
C6 C1 1_555 1_555
H5 C6 1_555 1_555
C7 N1 1_555 1_555
C8 C7 1_555 1_555
C9 C8 1_555 1_555
C10 C9 1_555 1_555
H6 C10 1_555 1_555
H7 C10 1_555 1_555
H8 C10 1_555 1_555
C11 N3 1_555 1_555
C12 C11 1_555 1_555
C13 C12 1_555 1_555
H9 C13 1_555 1_555
C14 C13 1_555 1_555
H10 C14 1_555 1_555
C15 C14 1_555 1_555
H11 C15 1_555 1_555
C16 C15 1_555 1_555
H12 C16 1_555 1_555
C17 C12 1_555 1_555
H13 C17 1_555 1_555
C19 N5 1_555 1_555
H14 C19 1_555 1_555
H15 C19 1_555 1_555
C20 C19 1_555 1_555
H16 C20 1_555 1_555
H17 C20 1_555 1_555
C21 C20 1_555 1_555
H18 C21 1_555 1_555
H19 C21 1_555 1_555
C24 C21 1_555 1_555
H24 C24 1_555 1_555
H25 C24 1_555 1_555
H26 C24 1_555 1_555
H27 N2 1_555 1_555
H28 N4 1_555 1_555
H29 N5 1_555 1_555
C5 C6 1_555 1_555
C8 C11 1_555 1_555
C16 C17 1_555 1_555

#END
