
#######################################################################
#
#                 Cambridge Crystallographic Data Centre
#                                CCDC 
#
#######################################################################
#
# If this CIF has been generated from an entry in the Cambridge 
# Structural Database, then it will include bibliographic, chemical, 
# crystal, experimental, refinement or atomic coordinate data resulting 
# from the CCDC's data processing and validation procedures.
#
#######################################################################

data_SEYQOC
_chemical_name_common            XK232
_chemical_formula_moiety         'C21 H26 N2 O3'
_chemical_name_systematic        
(3R,4S,5S,6R)-4,7-Dibenzyl-1,3-dimethyl-1,3,4,5,6,7-hexahydro-5,6-dihydroxy-2H-1,3-diazepin-2-one
_chemical_properties_biological  'potential protease inhibitor activity'
_symmetry_cell_setting           orthorhombic
_symmetry_space_group_name_H-M   'P 21 21 21'
_symmetry_Int_Tables_number      19
_space_group_name_Hall           'P 2ac 2ab'
loop_
_symmetry_equiv_pos_site_id
_symmetry_equiv_pos_as_xyz
1 x,y,z
2 1/2-x,-y,1/2+z
3 1/2+x,1/2-y,-z
4 -x,1/2+y,1/2-z
_cell_length_a                   7.736(2)
_cell_length_b                   14.689(5)
_cell_length_c                   16.711(4)
_cell_angle_alpha                90
_cell_angle_beta                 90
_cell_angle_gamma                90
_cell_volume                     1898.94
_exptl_crystal_colour            colorless
_exptl_crystal_description       parallelepiped
_cell_formula_units_Z            4
_exptl_crystal_recrystallization_method dichloromethane/hexane
loop_
_atom_site_label
_atom_site_type_symbol
_atom_site_fract_x
_atom_site_fract_y
_atom_site_fract_z
O1 O 0.1268(4) 0.5531(2) 0.6417(2)
O2 O 0.8384(4) 0.6637(2) 0.6355(2)
O3 O 0.8351(4) 0.4802(3) 0.5670(2)
N1 N 0.3880(5) 0.6048(3) 0.6842(2)
N2 N 0.3657(4) 0.5189(2) 0.5678(2)
C1 C 0.2864(6) 0.5589(3) 0.6313(3)
C2 C 0.5396(6) 0.6597(3) 0.6591(3)
C3 C 0.6995(6) 0.6004(3) 0.6456(3)
C4 C 0.6875(6) 0.5376(3) 0.5740(3)
C5 C 0.5345(6) 0.4726(3) 0.5761(3)
C6 C 0.3058(7) 0.6305(3) 0.7604(3)
C7 C 0.4983(6) 0.7237(3) 0.5885(3)
C8 C 0.3737(7) 0.7988(3) 0.6097(3)
C9 C 0.4339(7) 0.8840(3) 0.6316(3)
C10 C 0.3199(8) 0.9529(3) 0.6528(3)
C11 C 0.1451(7) 0.9371(4) 0.6542(3)
C12 C 0.0823(7) 0.8519(4) 0.6325(3)
C13 C 0.1963(7) 0.7851(3) 0.6090(3)
C14 C 0.5385(6) 0.4045(3) 0.6462(3)
C15 C 0.4055(6) 0.3310(3) 0.6378(3)
C16 C 0.4300(7) 0.2584(3) 0.5850(3)
C17 C 0.3062(10) 0.1923(3) 0.5752(3)
C18 C 0.1553(9) 0.1974(4) 0.6174(4)
C19 C 0.1264(8) 0.2679(4) 0.6707(3)
C20 C 0.2524(7) 0.3327(3) 0.6806(3)
C21 C 0.2528(7) 0.4850(4) 0.5045(3)
H1 H 0.5639 0.6989 0.7028
H2 H 0.7113 0.5616 0.6907
H3 H 0.9334(77) 0.6360(37) 0.6474(36)
H4 H 0.6920 0.5737 0.5271
H5 H 0.9187(83) 0.4994(44) 0.5862(36)
H6 H 0.5469 0.4345 0.5305
H7 H 0.1837 0.6351 0.7549
H8 H 0.3295 0.5866 0.8007
H9 H 0.3475 0.6876 0.7787
H10 H 0.6033 0.7485 0.5686
H11 H 0.4525 0.6876 0.5463
H12 H 0.5548 0.8954 0.6326
H13 H 0.3645 1.0115 0.6651
H14 H 0.0705 0.9844 0.6717
H15 H -0.0388 0.8422 0.6357
H16 H 0.1487 0.7292 0.5910
H17 H 0.6518 0.3801 0.6501
H18 H 0.5208 0.4391 0.6936
H19 H 0.5354 0.2543 0.5560
H20 H 0.3260 0.1439 0.5385
H21 H 0.0726 0.1502 0.6111
H22 H 0.0187 0.2710 0.6979
H23 H 0.2303 0.3814 0.7166
H24 H 0.2447 0.5280 0.4622
H25 H 0.2948 0.4293 0.4831
H26 H 0.1396 0.4740 0.5243
loop_
_geom_bond_atom_site_label_1
_geom_bond_atom_site_label_2
_geom_bond_site_symmetry_1
_geom_bond_site_symmetry_2
O1 C1 1_555 1_555
O2 C3 1_555 1_555
O3 C4 1_555 1_555
N1 C1 1_555 1_555
N2 C1 1_555 1_555
C2 N1 1_555 1_555
C3 C2 1_555 1_555
C4 C3 1_555 1_555
C5 N2 1_555 1_555
C6 N1 1_555 1_555
C7 C2 1_555 1_555
C8 C7 1_555 1_555
C9 C8 1_555 1_555
C10 C9 1_555 1_555
C11 C10 1_555 1_555
C12 C11 1_555 1_555
C13 C8 1_555 1_555
C14 C5 1_555 1_555
C15 C14 1_555 1_555
C16 C15 1_555 1_555
C17 C16 1_555 1_555
C18 C17 1_555 1_555
C19 C18 1_555 1_555
C20 C15 1_555 1_555
C21 N2 1_555 1_555
H1 C2 1_555 1_555
H2 C3 1_555 1_555
H3 O2 1_555 1_555
H4 C4 1_555 1_555
H5 O3 1_555 1_555
H6 C5 1_555 1_555
H7 C6 1_555 1_555
H8 C6 1_555 1_555
H9 C6 1_555 1_555
H10 C7 1_555 1_555
H11 C7 1_555 1_555
H12 C9 1_555 1_555
H13 C10 1_555 1_555
H14 C11 1_555 1_555
H15 C12 1_555 1_555
H16 C13 1_555 1_555
H17 C14 1_555 1_555
H18 C14 1_555 1_555
H19 C16 1_555 1_555
H20 C17 1_555 1_555
H21 C18 1_555 1_555
H22 C19 1_555 1_555
H23 C20 1_555 1_555
H24 C21 1_555 1_555
H25 C21 1_555 1_555
H26 C21 1_555 1_555
C4 C5 1_555 1_555
C12 C13 1_555 1_555
C19 C20 1_555 1_555

#END
