
#######################################################################
#
#                 Cambridge Crystallographic Data Centre
#                                CCDC 
#
#######################################################################
#
# If this CIF has been generated from an entry in the Cambridge 
# Structural Database, then it will include bibliographic, chemical, 
# crystal, experimental, refinement or atomic coordinate data resulting 
# from the CCDC's data processing and validation procedures.
#
#######################################################################

data_SEYSOG
_chemical_formula_moiety         'C13 H13 Cl1 F1 N1 O2'
_chemical_name_systematic        
3-(4-Chlorophenyl)-2-fluoro-1-(morpholin-4-yl)prop-2-en-1-one
_symmetry_cell_setting           monoclinic
_symmetry_space_group_name_H-M   'C 2/c'
_symmetry_Int_Tables_number      15
_space_group_name_Hall           '-C 2yn'
loop_
_symmetry_equiv_pos_site_id
_symmetry_equiv_pos_as_xyz
1 x,y,z
2 -x,y,1/2-z
3 1/2+x,1/2+y,z
4 1/2-x,1/2+y,1/2-z
5 -x,-y,-z
6 x,-y,1/2+z
7 1/2-x,1/2-y,-z
8 1/2+x,1/2-y,1/2+z
_cell_length_a                   18.835(2)
_cell_length_b                   5.8941(8)
_cell_length_c                   24.048(3)
_cell_angle_alpha                90
_cell_angle_beta                 110.388(2)
_cell_angle_gamma                90
_cell_volume                     2502.45
_exptl_crystal_colour            colorless
_exptl_crystal_description       prism
_cell_formula_units_Z            8
loop_
_atom_site_label
_atom_site_type_symbol
_atom_site_fract_x
_atom_site_fract_y
_atom_site_fract_z
C1 C -0.03919(12) 0.4273(4) 0.38060(10)
C2 C -0.03433(14) 0.2471(4) 0.41788(11)
H1 H -0.0064 0.1191 0.416
C3 C -0.07129(14) 0.2578(4) 0.45817(10)
H2 H -0.0684 0.1351 0.4832
C4 C -0.11261(11) 0.4476(4) 0.46220(9)
C5 C -0.11597(13) 0.6278(4) 0.42399(10)
H3 H -0.1434 0.7569 0.426
C6 C -0.07947(14) 0.6194(4) 0.38316(10)
H4 H -0.0821 0.7411 0.3579
C7 C -0.15370(12) 0.4738(4) 0.50377(10)
H5 H -0.1816 0.607 0.4995
C8 C -0.15703(12) 0.3381(4) 0.54588(10)
C9 C -0.20130(13) 0.3933(4) 0.58516(10)
C10 C -0.1607(2) 0.0436(6) 0.65008(15)
H6 H -0.1275 0.0126 0.6279
H7 H -0.1982 -0.0765 0.6417
C11 C -0.1161(2) 0.0468(7) 0.71409(16)
H8 H -0.093 -0.101 0.7258
H9 H -0.0756 0.1573 0.7215
C12 C -0.19466(18) 0.3142(6) 0.73172(12)
H10 H -0.1556 0.4294 0.7395
H11 H -0.2254 0.3495 0.7556
C13 C -0.24276(15) 0.3228(6) 0.66825(11)
H12 H -0.2851 0.2194 0.6609
H13 H -0.2628 0.4749 0.6581
Cl1 Cl 0.00689(4) 0.41335(14) 0.32911(3)
F1 F -0.11907(15) 0.1415(4) 0.55545(10)
N1 N -0.19842(12) 0.2599(4) 0.63134(9)
O1 O -0.23933(11) 0.5653(3) 0.57393(9)
O2 O -0.16003(12) 0.1006(4) 0.74911(8)
loop_
_geom_bond_atom_site_label_1
_geom_bond_atom_site_label_2
_geom_bond_site_symmetry_1
_geom_bond_site_symmetry_2
C1 C2 1_555 1_555
C2 H1 1_555 1_555
C3 C2 1_555 1_555
H2 C3 1_555 1_555
C4 C3 1_555 1_555
C5 C4 1_555 1_555
H3 C5 1_555 1_555
C6 C1 1_555 1_555
H4 C6 1_555 1_555
C7 C4 1_555 1_555
H5 C7 1_555 1_555
C8 C7 1_555 1_555
C9 C8 1_555 1_555
C10 H6 1_555 1_555
H7 C10 1_555 1_555
C11 C10 1_555 1_555
H8 C11 1_555 1_555
H9 C11 1_555 1_555
C12 H10 1_555 1_555
H11 C12 1_555 1_555
C13 C12 1_555 1_555
H12 C13 1_555 1_555
H13 C13 1_555 1_555
Cl1 C1 1_555 1_555
F1 C8 1_555 1_555
N1 C9 1_555 1_555
O1 C9 1_555 1_555
O2 C11 1_555 1_555
C5 C6 1_555 1_555
C10 N1 1_555 1_555
C12 O2 1_555 1_555
C13 N1 1_555 1_555

#END
