
#######################################################################
#
#                 Cambridge Crystallographic Data Centre
#                                CCDC 
#
#######################################################################
#
# If this CIF has been generated from an entry in the Cambridge 
# Structural Database, then it will include bibliographic, chemical, 
# crystal, experimental, refinement or atomic coordinate data resulting 
# from the CCDC's data processing and validation procedures.
#
#######################################################################

data_SEYSAQ
_chemical_name_common            XK291
_chemical_formula_moiety         'C30 H30 N2 O3'
_chemical_name_systematic        
(4R)-4,7-Dibenzyl-1-(2-naphthylmethyl)-1,3,4,5,6,7-hexahydro-2H-1,3-diazepin-2-one
_chemical_properties_biological  
'derivative of a compound having potential protease inhibitory activity'
_symmetry_cell_setting           monoclinic
_symmetry_space_group_name_H-M   'P 21'
_symmetry_Int_Tables_number      4
_space_group_name_Hall           'P 2yb'
loop_
_symmetry_equiv_pos_site_id
_symmetry_equiv_pos_as_xyz
1 x,y,z
2 -x,1/2+y,-z
_cell_length_a                   11.024(3)
_cell_length_b                   7.848(2)
_cell_length_c                   15.330(4)
_cell_angle_alpha                90
_cell_angle_beta                 108.19(1)
_cell_angle_gamma                90
_cell_volume                     1260.02
_exptl_crystal_colour            colorless
_exptl_crystal_description       parallelepiped
_chemical_melting_point          210-213deg.C
_cell_formula_units_Z            2
_exptl_crystal_recrystallization_method methanol/hexane
loop_
_atom_site_label
_atom_site_type_symbol
_atom_site_fract_x
_atom_site_fract_y
_atom_site_fract_z
O1 O 0.5239(3) 0.1241 0.1673(2)
O2 O 0.6001(4) 0.8306(6) 0.1021(2)
O3 O 0.5646(3) 0.8219(5) 0.2827(2)
N1 N 0.5149(3) 0.3796(6) 0.0998(2)
N2 N 0.5949(3) 0.3554(6) 0.2586(2)
C1 C 0.5440(4) 0.2800(6) 0.1753(3)
C2 C 0.5829(4) 0.5350(7) 0.0881(3)
C3 C 0.5465(4) 0.6874(7) 0.1348(3)
C4 C 0.5990(4) 0.6735(7) 0.2392(3)
C5 C 0.5484(4) 0.5232(6) 0.2798(3)
C6 C 0.6406(5) 0.2381(7) 0.3371(3)
C7 C 0.7292(4) 0.5093(7) 0.1129(3)
C8 C 0.7695(4) 0.3893(7) 0.0511(3)
C9 C 0.7725(5) 0.4400(9) -0.0336(3)
C10 C 0.8149(6) 0.3295(12) -0.0881(4)
C11 C 0.8539(6) 0.1703(12) -0.0604(5)
C12 C 0.8478(8) 0.1177(11) 0.0221(6)
C13 C 0.8065(6) 0.2248(9) 0.0788(4)
C14 C 0.4046(4) 0.5231(7) 0.2617(3)
C15 C 0.3580(4) 0.4158(7) 0.3261(3)
C16 C 0.2571(5) 0.3033(8) 0.2926(3)
C17 C 0.2094(6) 0.2105(10) 0.3520(4)
C18 C 0.2635(6) 0.2286(8) 0.4456(4)
C19 C 0.3619(5) 0.3376(8) 0.4800(4)
C20 C 0.4080(5) 0.4330(7) 0.4201(3)
C21 C 0.7532(4) 0.3017(6) 0.4133(2)
C22 C 0.7609(5) 0.2703(7) 0.5021(3)
C23 C 0.8730(4) 0.3056(7) 0.5750(3)
C24 C 0.8849(4) 0.2655(7) 0.6682(3)
C25 C 0.9965(4) 0.3004(8) 0.7362(3)
C26 C 1.0987(4) 0.3785(8) 0.7168(3)
C27 C 1.0901(4) 0.4156(8) 0.6286(3)
C28 C 0.9780(4) 0.3823(7) 0.5555(3)
C29 C 0.9655(4) 0.4182(8) 0.4626(3)
C30 C 0.8587(4) 0.3764(7) 0.3945(3)
H1 H 0.4664(39) 0.3202(63) 0.0426(30)
H2 H 0.5541(31) 0.5553(48) 0.0211(27)
H3 H 0.4598(31) 0.6901(50) 0.1181(19)
H4 H 0.5807(48) 0.9051(71) 0.1134(33)
H5 H 0.6975(31) 0.6677(49) 0.2586(19)
H6 H 0.5485(45) 0.8963(72) 0.2423(32)
H7 H 0.5884(26) 0.5394(42) 0.3468(21)
H8 H 0.5680(30) 0.2097(49) 0.3598(20)
H9 H 0.6636(35) 0.1414(58) 0.3094(24)
H10 H 0.7589(33) 0.6306(56) 0.1037(22)
H11 H 0.7619(33) 0.4682(51) 0.1740(25)
H12 H 0.7497(37) 0.5554(55) -0.0544(25)
H13 H 0.8172(40) 0.3776(70) -0.1447(31)
H14 H 0.8843(46) 0.0931(83) -0.1062(35)
H15 H 0.8514(51) 0.0021(76) 0.0378(37)
H16 H 0.8051(56) 0.1777(93) 0.1420(38)
H17 H 0.3828(34) 0.6369(61) 0.2657(23)
H18 H 0.3565(37) 0.4933(59) 0.1979(28)
H19 H 0.2198(47) 0.3055(72) 0.2205(32)
H20 H 0.1348(67) 0.131(11) 0.3213(44)
H21 H 0.2241(42) 0.1769(68) 0.4857(28)
H22 H 0.4136(45) 0.3611(78) 0.5458(33)
H23 H 0.4736(37) 0.5073(58) 0.4456(25)
H24 H 0.6901(31) 0.2132(51) 0.5167(20)
H25 H 0.8083(38) 0.1808(63) 0.6778(23)
H26 H 1.0008(37) 0.2792(60) 0.8012(29)
H27 H 1.1879(39) 0.3967(60) 0.7706(26)
H28 H 1.1578(40) 0.4660(59) 0.6148(28)
H29 H 1.0405(35) 0.4522(53) 0.4519(24)
H30 H 0.8537(33) 0.3856(57) 0.3317(27)
loop_
_geom_bond_atom_site_label_1
_geom_bond_atom_site_label_2
_geom_bond_site_symmetry_1
_geom_bond_site_symmetry_2
O1 C1 1_555 1_555
O2 C3 1_555 1_555
O3 C4 1_555 1_555
N1 C1 1_555 1_555
N2 C1 1_555 1_555
C2 N1 1_555 1_555
C3 C2 1_555 1_555
C4 C3 1_555 1_555
C5 N2 1_555 1_555
C6 N2 1_555 1_555
C7 C2 1_555 1_555
C8 C7 1_555 1_555
C9 C8 1_555 1_555
C10 C9 1_555 1_555
C11 C10 1_555 1_555
C12 C11 1_555 1_555
C13 C8 1_555 1_555
C14 C5 1_555 1_555
C15 C14 1_555 1_555
C16 C15 1_555 1_555
C17 C16 1_555 1_555
C18 C17 1_555 1_555
C19 C18 1_555 1_555
C20 C15 1_555 1_555
C21 C6 1_555 1_555
C22 C21 1_555 1_555
C23 C22 1_555 1_555
C24 C23 1_555 1_555
C25 C24 1_555 1_555
C26 C25 1_555 1_555
C27 C26 1_555 1_555
C28 C23 1_555 1_555
C29 C28 1_555 1_555
C30 C21 1_555 1_555
H1 N1 1_555 1_555
H2 C2 1_555 1_555
H3 C3 1_555 1_555
H4 O2 1_555 1_555
H5 C4 1_555 1_555
H6 O3 1_555 1_555
H7 C5 1_555 1_555
H8 C6 1_555 1_555
H9 C6 1_555 1_555
H10 C7 1_555 1_555
H11 C7 1_555 1_555
H12 C9 1_555 1_555
H13 C10 1_555 1_555
H14 C11 1_555 1_555
H15 C12 1_555 1_555
H16 C13 1_555 1_555
H17 C14 1_555 1_555
H18 C14 1_555 1_555
H19 C16 1_555 1_555
H20 C17 1_555 1_555
H21 C18 1_555 1_555
H22 C19 1_555 1_555
H23 C20 1_555 1_555
H24 C22 1_555 1_555
H25 C24 1_555 1_555
H26 C25 1_555 1_555
H27 C26 1_555 1_555
H28 C27 1_555 1_555
H29 C29 1_555 1_555
H30 C30 1_555 1_555
C4 C5 1_555 1_555
C12 C13 1_555 1_555
C19 C20 1_555 1_555
C27 C28 1_555 1_555
C29 C30 1_555 1_555

#END
