
#######################################################################
#
#                 Cambridge Crystallographic Data Centre
#                                CCDC 
#
#######################################################################
#
# If this CIF has been generated from an entry in the Cambridge 
# Structural Database, then it will include bibliographic, chemical, 
# crystal, experimental, refinement or atomic coordinate data resulting 
# from the CCDC's data processing and validation procedures.
#
#######################################################################

data_SEYVOH
_chemical_name_common            XK263
_chemical_formula_moiety         'C41 H38 N2 O3,C1 H4 O1'
_chemical_name_systematic        
'(4R)-4,7-Dibenzyl-1,3-bis(2-naphthylmethyl)-5,6-dihydroxy-1,3,4,5,6,7-hexahydro-2H-1,3-diazepin-2-one methanol solvate'
_chemical_properties_biological  
'derivative of a compound having potential protease inhibitory activity'
_symmetry_cell_setting           orthorhombic
_symmetry_space_group_name_H-M   'P 21 21 21'
_symmetry_Int_Tables_number      19
_space_group_name_Hall           'P 2ac 2ab'
loop_
_symmetry_equiv_pos_site_id
_symmetry_equiv_pos_as_xyz
1 x,y,z
2 1/2-x,-y,1/2+z
3 1/2+x,1/2-y,-z
4 -x,1/2+y,1/2-z
_cell_length_a                   7.833(1)
_cell_length_b                   17.589(3)
_cell_length_c                   25.791(3)
_cell_angle_alpha                90
_cell_angle_beta                 90
_cell_angle_gamma                90
_cell_volume                     3553.35
_exptl_crystal_colour            colorless
_exptl_crystal_description       'hexagonal rod'
_chemical_melting_point          202-204deg.C
_cell_formula_units_Z            4
loop_
_atom_site_label
_atom_site_type_symbol
_atom_site_fract_x
_atom_site_fract_y
_atom_site_fract_z
O1 O 0.1553(9) 0.4821(6) 0.3315(3)
O2 O 0.8633(11) 0.4295(5) 0.2859(3)
O3 O 0.8616(16) 0.4972(8) 0.3879(5)
N1 N 0.4094(12) 0.4822(5) 0.2886(3)
N2 N 0.3965(11) 0.4630(5) 0.3791(3)
C1 C 0.3158(15) 0.4740(7) 0.3327(5)
C2 C 0.3103(14) 0.5028(7) 0.2416(4)
C3 C 0.5640(17) 0.4365(7) 0.2797(4)
C4 C 0.7186(16) 0.4697(7) 0.3072(5)
C5 C 0.7151(16) 0.4631(7) 0.3660(4)
C6 C 0.5604(14) 0.5025(7) 0.3923(4)
C7 C 0.2875(15) 0.4483(7) 0.4234(4)
C8 C 0.4191(15) 0.5283(7) 0.1965(5)
C9 C 0.5116(16) 0.5961(8) 0.2009(5)
C10 C 0.6058(16) 0.6212(7) 0.1589(5)
C11 C 0.6082(16) 0.5810(7) 0.1138(5)
C12 C 0.7023(17) 0.6067(8) 0.0694(6)
C13 C 0.6970(19) 0.5668(11) 0.0245(6)
C14 C 0.6077(17) 0.4985(10) 0.0202(5)
C15 C 0.5185(15) 0.4719(7) 0.0636(5)
C16 C 0.5165(14) 0.5140(8) 0.1100(4)
C17 C 0.4221(15) 0.4889(6) 0.1526(5)
C18 C 0.5427(16) 0.3519(7) 0.2896(4)
C19 C 0.4185(18) 0.3148(7) 0.2510(5)
C20 C 0.2518(20) 0.3003(9) 0.2652(5)
C21 C 0.1394(22) 0.2698(10) 0.2287(8)
C22 C 0.1872(35) 0.2538(11) 0.1813(7)
C23 C 0.3498(31) 0.2684(10) 0.1632(7)
C24 C 0.4695(20) 0.2991(8) 0.2017(6)
C25 C 0.5539(15) 0.5878(7) 0.3838(4)
C26 C 0.4321(19) 0.6244(7) 0.4206(5)
C27 C 0.4685(17) 0.6283(7) 0.4720(6)
C28 C 0.3567(21) 0.6609(8) 0.5074(5)
C29 C 0.2096(24) 0.6900(8) 0.4897(6)
C30 C 0.1693(24) 0.6866(11) 0.4369(7)
C31 C 0.2869(24) 0.6542(9) 0.4026(5)
C32 C 0.3579(13) 0.3916(7) 0.4613(4)
C33 C 0.3338(13) 0.4004(6) 0.5146(5)
C34 C 0.3756(14) 0.3427(8) 0.5501(4)
C35 C 0.3381(15) 0.3519(7) 0.6033(4)
C36 C 0.3792(17) 0.2945(9) 0.6362(5)
C37 C 0.4443(18) 0.2259(8) 0.6196(5)
C38 C 0.4767(15) 0.2164(7) 0.5680(5)
C39 C 0.4450(15) 0.2750(8) 0.5313(5)
C40 C 0.4806(16) 0.2667(7) 0.4777(5)
C41 C 0.4341(16) 0.3236(7) 0.4451(4)
H1 H 0.945(11) 0.4539(47) 0.3049(28)
H2 H 0.879(24) 0.515(11) 0.4005(54)
H3 H 0.2312 0.5417 0.2503
H4 H 0.2417 0.4610 0.2318
H5 H 0.5896 0.4414 0.2435
H6 H 0.7278 0.5221 0.2985
H7 H 0.7155 0.4112 0.3753
H8 H 0.5766 0.4953 0.4282
H9 H 0.1794 0.4308 0.4109
H10 H 0.2607 0.4944 0.4401
H11 H 0.5090 0.6242 0.2321
H12 H 0.6697 0.6674 0.1612
H13 H 0.7703 0.6517 0.0728
H14 H 0.7545 0.5856 -0.0052
H15 H 0.6052 0.4712 -0.0117
H16 H 0.4578 0.4251 0.0614
H17 H 0.3600 0.4421 0.1495
H18 H 0.5036 0.3446 0.3239
H19 H 0.6509 0.3276 0.2873
H20 H 0.2118 0.3094 0.2993
H21 H 0.0238 0.2619 0.2370
H22 H 0.1143 0.2316 0.1568
H23 H 0.3916 0.2586 0.1285
H24 H 0.5816 0.3107 0.1916
H25 H 0.5211 0.5981 0.3490
H26 H 0.6652 0.6085 0.3885
H27 H 0.5721 0.6071 0.4838
H28 H 0.3892 0.6639 0.5428
H29 H 0.1298 0.7122 0.5140
H30 H 0.0613 0.7065 0.4259
H31 H 0.2580 0.6557 0.3670
H32 H 0.2884 0.4470 0.5277
H33 H 0.2835 0.3976 0.6154
H34 H 0.3637 0.3022 0.6726
H35 H 0.4661 0.1869 0.6443
H36 H 0.5201 0.1690 0.5568
H37 H 0.5367 0.2229 0.4647
H38 H 0.4508 0.3182 0.4090
C42 C 0.8454(20) 0.3888(12) 0.1755(6)
O4 O 0.9345(25) 0.4360(13) 0.1388(8)
loop_
_geom_bond_atom_site_label_1
_geom_bond_atom_site_label_2
_geom_bond_site_symmetry_1
_geom_bond_site_symmetry_2
O1 C1 1_555 1_555
O2 C4 1_555 1_555
O3 C5 1_555 1_555
N1 C1 1_555 1_555
N2 C1 1_555 1_555
C2 N1 1_555 1_555
C3 N1 1_555 1_555
C4 C3 1_555 1_555
C5 C4 1_555 1_555
C6 N2 1_555 1_555
C7 N2 1_555 1_555
C8 C2 1_555 1_555
C9 C8 1_555 1_555
C10 C9 1_555 1_555
C11 C10 1_555 1_555
C12 C11 1_555 1_555
C13 C12 1_555 1_555
C14 C13 1_555 1_555
C15 C14 1_555 1_555
C16 C11 1_555 1_555
C17 C8 1_555 1_555
C18 C3 1_555 1_555
C19 C18 1_555 1_555
C20 C19 1_555 1_555
C21 C20 1_555 1_555
C22 C21 1_555 1_555
C23 C22 1_555 1_555
C24 C19 1_555 1_555
C25 C6 1_555 1_555
C26 C25 1_555 1_555
C27 C26 1_555 1_555
C28 C27 1_555 1_555
C29 C28 1_555 1_555
C30 C29 1_555 1_555
C31 C26 1_555 1_555
C32 C7 1_555 1_555
C33 C32 1_555 1_555
C34 C33 1_555 1_555
C35 C34 1_555 1_555
C36 C35 1_555 1_555
C37 C36 1_555 1_555
C38 C37 1_555 1_555
C39 C34 1_555 1_555
C40 C39 1_555 1_555
C41 C32 1_555 1_555
H1 O2 1_555 1_555
H2 O3 1_555 1_555
H3 C2 1_555 1_555
H4 C2 1_555 1_555
H5 C3 1_555 1_555
H6 C4 1_555 1_555
H7 C5 1_555 1_555
H8 C6 1_555 1_555
H9 C7 1_555 1_555
H10 C7 1_555 1_555
H11 C9 1_555 1_555
H12 C10 1_555 1_555
H13 C12 1_555 1_555
H14 C13 1_555 1_555
H15 C14 1_555 1_555
H16 C15 1_555 1_555
H17 C17 1_555 1_555
H18 C18 1_555 1_555
H19 C18 1_555 1_555
H20 C20 1_555 1_555
H21 C21 1_555 1_555
H22 C22 1_555 1_555
H23 C23 1_555 1_555
H24 C24 1_555 1_555
H25 C25 1_555 1_555
H26 C25 1_555 1_555
H27 C27 1_555 1_555
H28 C28 1_555 1_555
H29 C29 1_555 1_555
H30 C30 1_555 1_555
H31 C31 1_555 1_555
H32 C33 1_555 1_555
H33 C35 1_555 1_555
H34 C36 1_555 1_555
H35 C37 1_555 1_555
H36 C38 1_555 1_555
H37 C40 1_555 1_555
H38 C41 1_555 1_555
C42 O4 1_555 1_555
C5 C6 1_555 1_555
C15 C16 1_555 1_555
C16 C17 1_555 1_555
C23 C24 1_555 1_555
C30 C31 1_555 1_555
C38 C39 1_555 1_555
C40 C41 1_555 1_555

#END
