
#######################################################################
#
#                 Cambridge Crystallographic Data Centre
#                                CCDC 
#
#######################################################################
#
# If this CIF has been generated from an entry in the Cambridge 
# Structural Database, then it will include bibliographic, chemical, 
# crystal, experimental, refinement or atomic coordinate data resulting 
# from the CCDC's data processing and validation procedures.
#
#######################################################################

data_SEYWEY
_chemical_formula_moiety         'C11 H20 N2 O3,H2 O1'
_chemical_name_systematic        'L-Prolyl-L-isoleucine monohydrate'
_symmetry_cell_setting           monoclinic
_symmetry_space_group_name_H-M   'P 21'
_symmetry_Int_Tables_number      4
_space_group_name_Hall           'P 2yb'
loop_
_symmetry_equiv_pos_site_id
_symmetry_equiv_pos_as_xyz
1 x,y,z
2 -x,1/2+y,-z
_cell_length_a                   6.601(3)
_cell_length_b                   5.413(3)
_cell_length_c                   19.128(6)
_cell_angle_alpha                90
_cell_angle_beta                 98.1(1)
_cell_angle_gamma                90
_cell_volume                     676.648
_cell_formula_units_Z            2
loop_
_atom_site_label
_atom_site_type_symbol
_atom_site_fract_x
_atom_site_fract_y
_atom_site_fract_z
C1 C 0.5085(19) 0.4542(30) 0.3018(7)
C2 C 0.6551(19) 0.5278(43) 0.3704(7)
C3 C 0.5464(32) 0.4438(74) 0.4294(14)
C4 C 0.3173(19) 0.4830(41) 0.4034(8)
C5 C 0.5684(20) 0.2303(27) 0.2677(8)
C6 C 0.8241(22) 0.0353(36) 0.2040(7)
C7 C 0.9593(19) -0.1054(26) 0.2653(8)
C8 C 0.9729(29) 0.1348(38) 0.1500(8)
C9 C 1.1085(31) -0.0595(62) 0.1242(12)
C10 C 0.8431(39) 0.2635(32) 0.0887(12)
C11 C 0.6868(33) 0.0845(63) 0.0507(13)
N1 N 0.2989(15) 0.4182(27) 0.3248(6)
N2 N 0.7338(15) 0.2549 0.2304(6)
O1 O 0.4820(14) 0.0329(25) 0.2726(5)
O2 O 1.0275(12) 0.0140(25) 0.3200(4)
O3 O 0.9885(13) -0.3276(22) 0.2540(5)
H1 H 0.503(16) 0.649(13) 0.279(4)
H2 H 0.710(13) -0.098(18) 0.182(6)
H3 H 1.061(17) 0.278(19) 0.179(7)
H4 H 0.999(20) -0.205(22) 0.105(8)
H5 H 1.182(20) 0.048(34) 0.086(6)
H6 H 1.234(20) -0.129(30) 0.163(5)
H7 H 0.785(23) 0.431(22) 0.119(8)
H8 H 0.963(20) 0.266(33) 0.051(7)
H9 H 0.563(21) 0.038(41) 0.082(7)
H10 H 0.597(22) 0.198(35) 0.011(7)
H11 H 0.761(23) -0.064(22) 0.026(9)
H12 H 0.271(16) 0.230(6) 0.321(6)
H13 H 0.194(14) 0.540(19) 0.299(5)
H14 H 0.803(16) 0.417(9) 0.224(6)
O4 O 0.9904(15) 0.0004(29) 0.4664(5)
H15 H 1.016(19) -0.144(18) 0.435(5)
H16 H 1.023(21) -0.117(20) 0.507(5)
C12? C 0.5128(34) 0.6361(60) 0.4199(15)
loop_
_geom_bond_atom_site_label_1
_geom_bond_atom_site_label_2
_geom_bond_site_symmetry_1
_geom_bond_site_symmetry_2
C1 C2 1_555 1_555
C2 C3 1_555 1_555
C3 C4 1_555 1_555
C4 N1 1_555 1_555
C5 C1 1_555 1_555
C6 C7 1_555 1_555
C7 O2 1_555 1_555
C8 C6 1_555 1_555
C9 C8 1_555 1_555
C10 C8 1_555 1_555
C11 C10 1_555 1_555
N1 C1 1_555 1_555
N2 C5 1_555 1_555
O1 C5 1_555 1_555
O3 C7 1_555 1_555
H1 C1 1_555 1_555
H2 C6 1_555 1_555
H3 C8 1_555 1_555
H4 C9 1_555 1_555
H5 C9 1_555 1_555
H6 C9 1_555 1_555
H7 C10 1_555 1_555
H8 C10 1_555 1_555
H9 C11 1_555 1_555
H10 C11 1_555 1_555
H11 C11 1_555 1_555
H12 N1 1_555 1_555
H13 N1 1_555 1_555
H14 N2 1_555 1_555
O4 H15 1_555 1_555
H16 O4 1_555 1_555
C6 N2 1_555 1_555

#END
