
#######################################################################
#
#                 Cambridge Crystallographic Data Centre
#                                CCDC 
#
#######################################################################
#
# If this CIF has been generated from an entry in the Cambridge 
# Structural Database, then it will include bibliographic, chemical, 
# crystal, experimental, refinement or atomic coordinate data resulting 
# from the CCDC's data processing and validation procedures.
#
#######################################################################

data_SEYXEA01
_chemical_formula_moiety         'C25 H27 N1 O6'
_chemical_name_systematic        sym-(2-picolyloxy)dibenzo-16-crown-5
_symmetry_cell_setting           orthorhombic
_symmetry_space_group_name_H-M   'P 21 21 21'
_symmetry_Int_Tables_number      19
_space_group_name_Hall           'P 2ac 2ab'
loop_
_symmetry_equiv_pos_site_id
_symmetry_equiv_pos_as_xyz
1 x,y,z
2 1/2+x,1/2-y,-z
3 -x,1/2+y,1/2-z
4 1/2-x,-y,1/2+z
_cell_length_a                   7.891(2)
_cell_length_b                   11.674(3)
_cell_length_c                   24.440(7)
_cell_angle_alpha                90
_cell_angle_beta                 90
_cell_angle_gamma                90
_cell_volume                     2251.4
_exptl_crystal_colour            colorless
_exptl_crystal_description       plate
_chemical_melting_point          '41-43 deg.C'
_cell_formula_units_Z            4
loop_
_atom_site_label
_atom_site_type_symbol
_atom_site_fract_x
_atom_site_fract_y
_atom_site_fract_z
C1 C 0.0818(5) 0.4217(3) 0.15402(15)
O1 O 0.1133(3) 0.3045(2) 0.15158(10)
C2 C 0.0079(5) 0.2363(3) 0.18679(15)
H1 H -0.1089(5) 0.2612(3) 0.18383(15)
H2 H 0.0436(5) 0.2456(3) 0.22450(15)
C3 C 0.0219(5) 0.1126(3) 0.1705(2)
H3 H -0.0593(5) 0.0687(3) 0.1924(2)
C4 C -0.0195(6) 0.0945(3) 0.11184(15)
H4 H -0.1238(6) 0.1337(3) 0.10244(15)
H5 H 0.0707(6) 0.1239(3) 0.08882(15)
O2 O -0.0381(4) -0.0276(2) 0.10412(10)
C5 C -0.0479(5) -0.0662(3) 0.0507(2)
C6 C 0.0743(6) -0.1417(3) 0.0335(2)
H6 H 0.1638(6) -0.1606(3) 0.0565(2)
C7 C 0.0641(7) -0.1902(3) -0.0189(2)
H7 H 0.1457(7) -0.2422(3) -0.0306(2)
C8 C -0.0663(6) -0.1605(3) -0.0523(2)
H8 H -0.0725(6) -0.1919(3) -0.0873(2)
C9 C -0.1895(5) -0.0846(3) -0.0355(2)
H9 H -0.2773(5) -0.0650(3) -0.0591(2)
C10 C -0.1828(5) -0.0377(3) 0.0162(2)
O3 O -0.3024(3) 0.0328(2) 0.03841(10)
C11 C -0.4289(5) 0.0789(4) 0.0025(2)
H10 H -0.5056(5) 0.0189(4) -0.0094(2)
H11 H -0.3762(5) 0.1126(4) -0.0295(2)
C12 C -0.5230(5) 0.1680(3) 0.0340(2)
H12 H -0.6210(5) 0.1935(3) 0.0134(2)
H13 H -0.5619(5) 0.1367(3) 0.0685(2)
O4 O -0.4112(3) 0.2613(2) 0.04341(11)
C13 C -0.4551(5) 0.3250(4) 0.0899(2)
H14 H -0.4449(5) 0.2774(4) 0.1223(2)
H15 H -0.5720(5) 0.3500(4) 0.0870(2)
C14 C -0.3424(5) 0.4262(4) 0.0951(2)
H16 H -0.3410(5) 0.4687(4) 0.0610(2)
H17 H -0.3839(5) 0.4764(4) 0.1238(2)
O5 O -0.1749(3) 0.3876(2) 0.10816(10)
C15 C -0.0652(5) 0.4652(3) 0.13022(14)
C16 C -0.0885(6) 0.5835(4) 0.1291(2)
H18 H -0.1847(6) 0.6141(4) 0.1127(2)
C17 C 0.0299(6) 0.6553(3) 0.1522(2)
H19 H 0.0139(6) 0.7342(3) 0.1510(2)
C18 C 0.1717(6) 0.6110(4) 0.1770(2)
H20 H 0.2498(6) 0.6597(4) 0.1934(2)
C19 C 0.1985(6) 0.4933(3) 0.1775(2)
H21 H 0.2954(6) 0.4633(3) 0.1937(2)
O6 O 0.1876(3) 0.0693(2) 0.18157(11)
C20 C 0.1945(5) -0.0172(3) 0.2205(2)
H22 H 0.0993(5) -0.0687(3) 0.2155(2)
H23 H 0.1868(5) 0.0158(3) 0.2568(2)
C21 C 0.3576(5) -0.0829(3) 0.2151(2)
N1 N 0.3868(4) -0.1566(3) 0.25623(13)
C22 C 0.5253(6) -0.2229(4) 0.2517(2)
H24 H 0.5472(6) -0.2754(4) 0.2794(2)
C23 C 0.6343(6) -0.2179(4) 0.2094(2)
H25 H 0.7281(6) -0.2660(4) 0.2082(2)
C24 C 0.6045(6) -0.1405(4) 0.1681(2)
H26 H 0.6786(6) -0.1348(4) 0.1387(2)
C25 C 0.4648(6) -0.0724(4) 0.1711(2)
H27 H 0.4421(6) -0.0194(4) 0.1436(2)
loop_
_geom_bond_atom_site_label_1
_geom_bond_atom_site_label_2
_geom_bond_site_symmetry_1
_geom_bond_site_symmetry_2
C1 O1 1_555 1_555
O1 C2 1_555 1_555
C2 H1 1_555 1_555
H2 C2 1_555 1_555
C3 C2 1_555 1_555
H3 C3 1_555 1_555
C4 C3 1_555 1_555
H4 C4 1_555 1_555
H5 C4 1_555 1_555
O2 C4 1_555 1_555
C5 O2 1_555 1_555
C6 C5 1_555 1_555
H6 C6 1_555 1_555
C7 C6 1_555 1_555
H7 C7 1_555 1_555
C8 C7 1_555 1_555
H8 C8 1_555 1_555
C9 C8 1_555 1_555
H9 C9 1_555 1_555
C10 C5 1_555 1_555
O3 C10 1_555 1_555
C11 O3 1_555 1_555
H10 C11 1_555 1_555
H11 C11 1_555 1_555
C12 C11 1_555 1_555
H12 C12 1_555 1_555
H13 C12 1_555 1_555
O4 C12 1_555 1_555
C13 O4 1_555 1_555
H14 C13 1_555 1_555
H15 C13 1_555 1_555
C14 C13 1_555 1_555
H16 C14 1_555 1_555
H17 C14 1_555 1_555
O5 C14 1_555 1_555
C15 C1 1_555 1_555
C16 C15 1_555 1_555
H18 C16 1_555 1_555
C17 C16 1_555 1_555
H19 C17 1_555 1_555
C18 C17 1_555 1_555
H20 C18 1_555 1_555
C19 C1 1_555 1_555
H21 C19 1_555 1_555
O6 C3 1_555 1_555
C20 O6 1_555 1_555
H22 C20 1_555 1_555
H23 C20 1_555 1_555
C21 C20 1_555 1_555
N1 C21 1_555 1_555
C22 N1 1_555 1_555
H24 C22 1_555 1_555
C23 C22 1_555 1_555
H25 C23 1_555 1_555
C24 C23 1_555 1_555
H26 C24 1_555 1_555
C25 C21 1_555 1_555
H27 C25 1_555 1_555
C9 C10 1_555 1_555
O5 C15 1_555 1_555
C18 C19 1_555 1_555
C24 C25 1_555 1_555

#END
