
#######################################################################
#
#                 Cambridge Crystallographic Data Centre
#                                CCDC 
#
#######################################################################
#
# If this CIF has been generated from an entry in the Cambridge 
# Structural Database, then it will include bibliographic, chemical, 
# crystal, experimental, refinement or atomic coordinate data resulting 
# from the CCDC's data processing and validation procedures.
#
#######################################################################

data_SEYYUQ
_chemical_name_common            XM043
_chemical_formula_moiety         'C33 H36 N4 O3'
_chemical_name_systematic        
(4R)-1,3-bis(3-Aminobenzyl)-4,7-dibenzyl-1,3,4,5,6,7-hexahydro-2H-1,3-diazepin-2-one
_chemical_properties_biological  
'derivative of a compound having potential protease inhibitory activity'
_symmetry_cell_setting           monoclinic
_symmetry_space_group_name_H-M   'P 21'
_symmetry_Int_Tables_number      4
_space_group_name_Hall           'P 2yb'
loop_
_symmetry_equiv_pos_site_id
_symmetry_equiv_pos_as_xyz
1 x,y,z
2 -x,1/2+y,-z
_cell_length_a                   9.942(1)
_cell_length_b                   11.723(1)
_cell_length_c                   12.801(1)
_cell_angle_alpha                90
_cell_angle_beta                 110.081(1)
_cell_angle_gamma                90
_cell_volume                     1401.26
_exptl_crystal_colour            colorless
_exptl_crystal_description       rod
_cell_formula_units_Z            2
loop_
_atom_site_label
_atom_site_type_symbol
_atom_site_fract_x
_atom_site_fract_y
_atom_site_fract_z
O1 O 0.1966(5) 0.9273 0.0696(3)
O2 O 0.3881(5) 1.1816(6) 0.4719(3)
O3 O 0.4236(6) 0.9495(6) 0.5488(3)
N1 N 0.1828(6) 1.0465(6) 0.2050(4)
N2 N 0.3464(6) 0.8929(6) 0.2467(4)
N3 N -0.3075(6) 1.3860(7) 0.1252(4)
N4 N 0.7984(7) 0.5212(7) 0.3525(4)
C1 C 0.2405(7) 0.9548(7) 0.1696(5)
C2 C 0.2765(7) 1.1282(7) 0.2844(5)
C3 C 0.3129(7) 1.0893(7) 0.4051(5)
C4 C 0.4023(8) 0.9807(7) 0.4351(5)
C5 C 0.3426(7) 0.8767(7) 0.3626(5)
C6 C 0.0513(7) 1.0943(8) 0.1247(5)
C7 C -0.0487(7) 1.1440(7) 0.1781(5)
C8 C -0.0705(7) 1.0952(8) 0.2701(5)
C9 C -0.1688(8) 1.1431(7) 0.3121(5)
C10 C -0.2468(7) 1.2387(7) 0.2651(5)
C11 C -0.2286(7) 1.2863(7) 0.1718(5)
C12 C -0.1291(7) 1.2403(7) 0.1300(5)
C13 C 0.4077(7) 1.1667(7) 0.2562(5)
C14 C 0.3684(7) 1.2436(7) 0.1567(4)
C15 C 0.3480(8) 1.2026(8) 0.0498(6)
C16 C 0.3086(10) 1.2778(10) -0.0405(6)
C17 C 0.2912(9) 1.3910(10) -0.0266(6)
C18 C 0.3120(9) 1.4321(8) 0.0790(7)
C19 C 0.3526(8) 1.3590(8) 0.1698(6)
C20 C 0.1995(8) 0.8334(7) 0.3651(6)
C21 C 0.1642(7) 0.7117(7) 0.3260(5)
C22 C 0.2358(8) 0.6217(8) 0.3945(6)
C23 C 0.2013(10) 0.5081(8) 0.3607(7)
C24 C 0.0969(10) 0.4862(9) 0.2621(7)
C25 C 0.0298(9) 0.5716(9) 0.1927(6)
C26 C 0.0619(8) 0.6835(9) 0.2250(5)
C27 C 0.4107(8) 0.7993(7) 0.2024(5)
C28 C 0.5640(7) 0.7760(8) 0.2709(5)
C29 C 0.6106(8) 0.6628(7) 0.2810(5)
C30 C 0.7544(8) 0.6379(8) 0.3399(5)
C31 C 0.8480(8) 0.7253(9) 0.3910(6)
C32 C 0.8010(9) 0.8373(8) 0.3790(6)
C33 C 0.6591(9) 0.8613(8) 0.3195(6)
H1 H 0.2209 1.1957 0.2782
H2 H 0.2254 1.0772 0.4178
H3 H 0.3944 1.1792 0.5625
H4 H 0.4630 0.9964 0.5758
H5 H 0.4928 0.9977 0.4291
H6 H 0.4090 0.8166 0.3953
H7 H 0.0019 1.0370 0.0736
H8 H 0.0751 1.1517 0.0807
H9 H -0.0206 1.0278 0.3020
H10 H -0.1814 1.1110 0.3758
H11 H -0.3138 1.2726 0.2951
H12 H -0.1149 1.2745 0.0677
H13 H -0.2912 1.3991 0.0692
H14 H -0.4019 1.3750 0.1243
H15 H 0.4552 1.1021 0.2407
H16 H 0.4737 1.2040 0.3171
H17 H 0.3570 1.1243 0.0380
H18 H 0.2959 1.2495 -0.1135
H19 H 0.2629 1.4419 -0.0894
H20 H 0.2998 1.5141 0.0904
H21 H 0.3688 1.3890 0.2417
H22 H 0.1256 0.8834 0.3189
H23 H 0.1942 0.8433 0.4367
H24 H 0.3077 0.6381 0.4657
H25 H 0.2500 0.4475 0.4069
H26 H 0.0705 0.4104 0.2399
H27 H -0.0417 0.5563 0.1239
H28 H 0.0156 0.7421 0.1751
H29 H 0.4039 0.8179 0.1284
H30 H 0.3553 0.7330 0.1961
H31 H 0.5466 0.6034 0.2485
H32 H 0.9457 0.7083 0.4344
H33 H 0.8657 0.8983 0.4126
H34 H 0.6266 0.9391 0.3088
H35 H 0.7210 0.4739 0.2801
H36 H 0.9312 0.5164 0.3875
loop_
_geom_bond_atom_site_label_1
_geom_bond_atom_site_label_2
_geom_bond_site_symmetry_1
_geom_bond_site_symmetry_2
O1 C1 1_555 1_555
O2 C3 1_555 1_555
O3 C4 1_555 1_555
N1 C1 1_555 1_555
N2 C1 1_555 1_555
N3 C11 1_555 1_555
N4 C30 1_555 1_555
C2 N1 1_555 1_555
C3 C2 1_555 1_555
C4 C3 1_555 1_555
C5 N2 1_555 1_555
C6 N1 1_555 1_555
C7 C6 1_555 1_555
C8 C7 1_555 1_555
C9 C8 1_555 1_555
C10 C9 1_555 1_555
C11 C10 1_555 1_555
C12 C7 1_555 1_555
C13 C2 1_555 1_555
C14 C13 1_555 1_555
C15 C14 1_555 1_555
C16 C15 1_555 1_555
C17 C16 1_555 1_555
C18 C17 1_555 1_555
C19 C14 1_555 1_555
C20 C5 1_555 1_555
C21 C20 1_555 1_555
C22 C21 1_555 1_555
C23 C22 1_555 1_555
C24 C23 1_555 1_555
C25 C24 1_555 1_555
C26 C21 1_555 1_555
C27 N2 1_555 1_555
C28 C27 1_555 1_555
C29 C28 1_555 1_555
C30 C29 1_555 1_555
C31 C30 1_555 1_555
C32 C31 1_555 1_555
C33 C28 1_555 1_555
H1 C2 1_555 1_555
H2 C3 1_555 1_555
H3 O2 1_555 1_555
H4 O3 1_555 1_555
H5 C4 1_555 1_555
H6 C5 1_555 1_555
H7 C6 1_555 1_555
H8 C6 1_555 1_555
H9 C8 1_555 1_555
H10 C9 1_555 1_555
H11 C10 1_555 1_555
H12 C12 1_555 1_555
H13 N3 1_555 1_555
H14 N3 1_555 1_555
H15 C13 1_555 1_555
H16 C13 1_555 1_555
H17 C15 1_555 1_555
H18 C16 1_555 1_555
H19 C17 1_555 1_555
H20 C18 1_555 1_555
H21 C19 1_555 1_555
H22 C20 1_555 1_555
H23 C20 1_555 1_555
H24 C22 1_555 1_555
H25 C23 1_555 1_555
H26 C24 1_555 1_555
H27 C25 1_555 1_555
H28 C26 1_555 1_555
H29 C27 1_555 1_555
H30 C27 1_555 1_555
H31 C29 1_555 1_555
H32 C31 1_555 1_555
H33 C32 1_555 1_555
H34 C33 1_555 1_555
H35 N4 1_555 1_555
H36 N4 1_555 1_555
C4 C5 1_555 1_555
C11 C12 1_555 1_555
C18 C19 1_555 1_555
C25 C26 1_555 1_555
C32 C33 1_555 1_555

#END
