
#######################################################################
#
#                 Cambridge Crystallographic Data Centre
#                                CCDC 
#
#######################################################################
#
# If this CIF has been generated from an entry in the Cambridge 
# Structural Database, then it will include bibliographic, chemical, 
# crystal, experimental, refinement or atomic coordinate data resulting 
# from the CCDC's data processing and validation procedures.
#
#######################################################################

data_SEYZIF
_chemical_formula_moiety         'C33 H32 F2 N2 O3,C1 Cl4'
_chemical_name_systematic        
'(4R)-4,7-Dibenzyl-1,3-bis(p-fluorobenzyl)-5,6-dihydroxy-1,3,4,5,6,7-hexahydro-2H-1,3-diazepin-2-one carbon tetrachloride solvate'
_chemical_properties_biological  
'derivative of a compound having potential protease inhibitory activity'
_symmetry_cell_setting           orthorhombic
_symmetry_space_group_name_H-M   'P 21 21 21'
_symmetry_Int_Tables_number      19
_space_group_name_Hall           'P 2ac 2ab'
loop_
_symmetry_equiv_pos_site_id
_symmetry_equiv_pos_as_xyz
1 x,y,z
2 1/2-x,-y,1/2+z
3 1/2+x,1/2-y,-z
4 -x,1/2+y,1/2-z
_cell_length_a                   9.508(2)
_cell_length_b                   15.729(2)
_cell_length_c                   21.845(10)
_cell_angle_alpha                90
_cell_angle_beta                 90
_cell_angle_gamma                90
_cell_volume                     3266.95
_exptl_crystal_colour            colorless
_exptl_crystal_description       'thin wedge'
_cell_formula_units_Z            4
loop_
_atom_site_label
_atom_site_type_symbol
_atom_site_fract_x
_atom_site_fract_y
_atom_site_fract_z
Cl1 Cl 0.4178(7) -0.0792(3) -0.0397(2)
Cl2 Cl 0.2671(9) 0.0142(4) -0.1279(3)
Cl3 Cl 0.5422(9) -0.0428(4) -0.1545(3)
Cl4 Cl 0.5012(9) 0.0898(4) -0.0708(3)
C2 C 0.4389(21) -0.0045(11) -0.0978(8)
F1 F 0.8711(12) 0.0689(7) 0.0332(5)
F2 F -0.0921(13) 0.4257(7) 0.3875(5)
O1 O 0.4643(12) 0.1177(6) 0.2598(5)
O2 O 0.6307(12) 0.4628(7) 0.2930(5)
O3 O 0.4422(13) 0.4686(6) 0.1885(5)
N1 N 0.6038(15) 0.2338(8) 0.2663(6)
N2 N 0.3687(15) 0.2454(8) 0.2349(5)
C1 C 0.4794(22) 0.1955(10) 0.2531(8)
C3 C 0.6095(19) 0.3165(10) 0.2974(7)
C4 C 0.5905(20) 0.3910(10) 0.2563(7)
C5 C 0.4479(19) 0.3999(10) 0.2314(7)
C6 C 0.3936(19) 0.3226(10) 0.1952(7)
C7 C 0.7317(20) 0.1789(10) 0.2694(7)
C8 C 0.7702(20) 0.1477(10) 0.2073(8)
C9 C 0.8250(20) 0.2056(11) 0.1633(8)
C10 C 0.8574(20) 0.1798(11) 0.1051(8)
C11 C 0.8430(20) 0.0964(13) 0.0916(9)
C12 C 0.7908(21) 0.0369(11) 0.1321(9)
C13 C 0.7594(19) 0.0633(10) 0.1915(8)
C14 C 0.5221(21) 0.3167(10) 0.3562(8)
C15 C 0.5736(18) 0.2528(9) 0.4031(7)
C16 C 0.5150(21) 0.1717(11) 0.4068(8)
C17 C 0.5756(23) 0.1114(11) 0.4469(8)
C18 C 0.6913(24) 0.1319(12) 0.4784(9)
C19 C 0.7465(25) 0.2107(13) 0.4763(9)
C20 C 0.6894(20) 0.2710(11) 0.4370(8)
C21 C 0.4751(21) 0.3003(10) 0.1354(8)
C22 C 0.3917(19) 0.2355(10) 0.0983(7)
C23 C 0.2874(22) 0.2651(12) 0.0580(8)
C24 C 0.2062(25) 0.2058(13) 0.0290(9)
C25 C 0.2236(25) 0.1205(13) 0.0397(10)
C26 C 0.3259(24) 0.0921(14) 0.0765(10)
C27 C 0.4143(21) 0.1489(11) 0.1053(8)
C28 C 0.2261(19) 0.2146(10) 0.2373(8)
C29 C 0.1354(18) 0.2696(10) 0.2755(7)
C30 C 0.1282(21) 0.2563(11) 0.3378(9)
C31 C 0.0499(21) 0.3075(11) 0.3748(8)
C32 C -0.0170(23) 0.3739(11) 0.3507(9)
C33 C -0.0145(21) 0.3901(11) 0.2876(8)
C34 C 0.0610(19) 0.3373(11) 0.2514(8)
H1 H 0.7056 0.3216 0.3114
H2 H 0.6208 0.5135 0.2698
H3 H 0.6546 0.3859 0.2229
H4 H 0.3837 0.4105 0.2643
H5 H 0.3481 0.4736 0.1730
H6 H 0.3033 0.3393 0.1816
H7 H 0.7129 0.1319 0.2957
H8 H 0.8075 0.2107 0.2861
H9 H 0.8397 0.2629 0.1749
H10 H 0.8905 0.2192 0.0751
H11 H 0.7747 -0.0203 0.1196
H12 H 0.7331 0.0221 0.2214
H13 H 0.4269 0.3056 0.3464
H14 H 0.5234 0.3724 0.3739
H15 H 0.4369 0.1567 0.3826
H16 H 0.5320 0.0574 0.4514
H17 H 0.7345 0.0897 0.5033
H18 H 0.8262 0.2248 0.5007
H19 H 0.7316 0.3254 0.4344
H20 H 0.5641 0.2773 0.1450
H21 H 0.4873 0.3500 0.1113
H22 H 0.2750 0.3244 0.0514
H23 H 0.1359 0.2239 0.0010
H24 H 0.1611 0.0808 0.0208
H25 H 0.3399 0.0326 0.0829
H26 H 0.4892 0.1293 0.1299
H27 H 0.2251 0.1583 0.2536
H28 H 0.1885 0.2115 0.1971
H29 H 0.1785 0.2104 0.3555
H30 H 0.0421 0.2958 0.4174
H31 H -0.0632 0.4376 0.2711
H32 H 0.0622 0.3462 0.2086
loop_
_geom_bond_atom_site_label_1
_geom_bond_atom_site_label_2
_geom_bond_site_symmetry_1
_geom_bond_site_symmetry_2
Cl1 C2 1_555 1_555
Cl2 C2 1_555 1_555
Cl3 C2 1_555 1_555
Cl4 C2 1_555 1_555
F1 C11 1_555 1_555
F2 C32 1_555 1_555
O1 C1 1_555 1_555
O2 C4 1_555 1_555
O3 C5 1_555 1_555
N1 C1 1_555 1_555
N2 C1 1_555 1_555
C3 N1 1_555 1_555
C4 C3 1_555 1_555
C5 C4 1_555 1_555
C6 N2 1_555 1_555
C7 N1 1_555 1_555
C8 C7 1_555 1_555
C9 C8 1_555 1_555
C10 C9 1_555 1_555
C11 C10 1_555 1_555
C12 C11 1_555 1_555
C13 C8 1_555 1_555
C14 C3 1_555 1_555
C15 C14 1_555 1_555
C16 C15 1_555 1_555
C17 C16 1_555 1_555
C18 C17 1_555 1_555
C19 C18 1_555 1_555
C20 C15 1_555 1_555
C21 C6 1_555 1_555
C22 C21 1_555 1_555
C23 C22 1_555 1_555
C24 C23 1_555 1_555
C25 C24 1_555 1_555
C26 C25 1_555 1_555
C27 C22 1_555 1_555
C28 N2 1_555 1_555
C29 C28 1_555 1_555
C30 C29 1_555 1_555
C31 C30 1_555 1_555
C32 C31 1_555 1_555
C33 C32 1_555 1_555
C34 C29 1_555 1_555
H1 C3 1_555 1_555
H2 O2 1_555 1_555
H3 C4 1_555 1_555
H4 C5 1_555 1_555
H5 O3 1_555 1_555
H6 C6 1_555 1_555
H7 C7 1_555 1_555
H8 C7 1_555 1_555
H9 C9 1_555 1_555
H10 C10 1_555 1_555
H11 C12 1_555 1_555
H12 C13 1_555 1_555
H13 C14 1_555 1_555
H14 C14 1_555 1_555
H15 C16 1_555 1_555
H16 C17 1_555 1_555
H17 C18 1_555 1_555
H18 C19 1_555 1_555
H19 C20 1_555 1_555
H20 C21 1_555 1_555
H21 C21 1_555 1_555
H22 C23 1_555 1_555
H23 C24 1_555 1_555
H24 C25 1_555 1_555
H25 C26 1_555 1_555
H26 C27 1_555 1_555
H27 C28 1_555 1_555
H28 C28 1_555 1_555
H29 C30 1_555 1_555
H30 C31 1_555 1_555
H31 C33 1_555 1_555
H32 C34 1_555 1_555
C5 C6 1_555 1_555
C12 C13 1_555 1_555
C19 C20 1_555 1_555
C26 C27 1_555 1_555
C33 C34 1_555 1_555

#END
