
#######################################################################
#
#                 Cambridge Crystallographic Data Centre
#                                CCDC 
#
#######################################################################
#
# If this CIF has been generated from an entry in the Cambridge 
# Structural Database, then it will include bibliographic, chemical, 
# crystal, experimental, refinement or atomic coordinate data resulting 
# from the CCDC's data processing and validation procedures.
#
#######################################################################

data_SEZDIK
_chemical_name_common            XM412-4.
_chemical_formula_moiety         'C33 H38 N4 O3 2+,2(Cl1 1-),5(H2 O1)'
_chemical_name_systematic        
'(4R)-1,3-bis(3-Ammoniobenzyl)-4,7-dibenzyl-1,3,4,5,6,7-hexahydro-2H-1,3-diazepin-2-one dichloride pentahydrate'
_chemical_properties_biological  
'derivative of a compound having potential protease inhibitory activity'
_symmetry_cell_setting           monoclinic
_symmetry_space_group_name_H-M   'P 21'
_symmetry_Int_Tables_number      4
_space_group_name_Hall           'P 2yb'
loop_
_symmetry_equiv_pos_site_id
_symmetry_equiv_pos_as_xyz
1 x,y,z
2 -x,1/2+y,-z
_cell_length_a                   8.8957(4)
_cell_length_b                   21.487(11)
_cell_length_c                   9.7910(4)
_cell_angle_alpha                90
_cell_angle_beta                 92.562(2)
_cell_angle_gamma                90
_cell_volume                     1869.6
_exptl_crystal_colour            colorless
_exptl_crystal_description       needles
_cell_formula_units_Z            2
_exptl_crystal_recrystallization_method ethanol/hydrate
loop_
_atom_site_label
_atom_site_type_symbol
_atom_site_fract_x
_atom_site_fract_y
_atom_site_fract_z
Cl1 Cl 0.4427(2) 0.4011 1.0661(2)
Cl2 Cl -0.2765(2) 0.6969(1) 0.7211(2)
O1 O 0.2594(5) 0.8363(3) 0.3038(5)
O5 O 0.0823(6) 0.8135(3) 0.8604(5)
O7 O 0.2882(6) 0.7152(3) 0.8276(5)
N1 N 0.1151(6) 0.8351(3) 0.4863(6)
N2 N 0.3606(6) 0.7945(3) 0.5005(6)
N3 N -0.2072(7) 0.7961(3) -0.0602(6)
N4 N 0.6601(7) 0.9849(3) 0.1864(7)
C1 C 0.2443(7) 0.8223(3) 0.4255(7)
C2 C 0.1099(8) 0.8510(3) 0.6361(7)
C3 C 0.1263(8) 0.7938(4) 0.7256(7)
C4 C 0.2827(8) 0.7667(4) 0.7321(7)
C5 C 0.3334(8) 0.7415(4) 0.5930(7)
C6 C -0.0077(8) 0.8597(4) 0.3960(7)
C7 C -0.0801(7) 0.8102(4) 0.3068(7)
C8 C -0.1378(9) 0.7568(4) 0.3579(8)
C9 C -0.2138(9) 0.7133(4) 0.2749(10)
C10 C -0.2362(9) 0.7253(4) 0.1333(9)
C11 C -0.1809(7) 0.7799(4) 0.0848(7)
C12 C -0.1008(7) 0.8236(4) 0.1662(7)
C13 C 0.2194(8) 0.9037(4) 0.6737(8)
C14 C 0.1789(8) 0.9652(4) 0.6084(8)
C15 C 0.0662(10) 1.0004(4) 0.6591(9)
C16 C 0.0261(12) 1.0568(5) 0.6005(13)
C17 C 0.0963(13) 1.0783(5) 0.4906(12)
C18 C 0.2043(13) 1.0429(5) 0.4407(12)
C19 C 0.2501(10) 0.9867(4) 0.4950(9)
C20 C 0.2351(8) 0.6912(4) 0.5279(8)
C21 C 0.3020(8) 0.6626(4) 0.4051(8)
C22 C 0.4274(9) 0.6248(4) 0.4171(8)
C23 C 0.4888(10) 0.5961(4) 0.3068(9)
C24 C 0.4180(12) 0.6081(5) 0.1722(9)
C25 C 0.2967(13) 0.6434(6) 0.1590(9)
C26 C 0.2369(10) 0.6725(5) 0.2730(9)
C27 C 0.5058(8) 0.7961(4) 0.4357(8)
C28 C 0.5728(7) 0.8603(4) 0.4360(8)
C29 C 0.5865(7) 0.8927(4) 0.3154(7)
C30 C 0.6427(8) 0.9513(4) 0.3144(8)
C31 C 0.6892(10) 0.9810(4) 0.4376(9)
C32 C 0.6711(9) 0.9502(4) 0.5578(8)
C33 C 0.6154(8) 0.8904(5) 0.5583(8)
H2 H -0.0056 0.8773 0.6554
H4 H 0.0604 0.7724 0.8809
H5 H 0.0581 0.7618 0.7014
H6 H 0.2414 0.6743 0.8064
H7 H 0.3537 0.8038 0.7714
H10 H 0.4357 0.7271 0.6148
H11 H -0.0692 0.8889 0.4373
H12 H 0.0242 0.9000 0.3683
H13 H -0.1272 0.7486 0.4520
H14 H -0.2483 0.6754 0.3127
H15 H -0.2870 0.6962 0.0761
H16 H -0.0637 0.8610 0.1283
H17 H -0.1241 0.8195 -0.0903
H18 H -0.2964 0.8203 -0.0721
H19 H -0.2173 0.7591 -0.1134
H20 H 0.2333 0.9132 0.7700
H21 H 0.3083 0.9063 0.6694
H22 H 0.0182 0.9870 0.7385
H23 H -0.0504 1.0800 0.6386
H24 H 0.0710 1.1172 0.4516
H25 H 0.2562 1.0573 0.3613
H26 H 0.3291 0.9627 0.4575
H27 H 0.2348 0.6455 0.5980
H28 H 0.1359 0.6925 0.5262
H29 H 0.4725 0.6172 0.5045
H30 H 0.5751 0.5692 0.3153
H31 H 0.4599 0.5892 0.0966
H32 H 0.2480 0.6491 0.0752
H33 H 0.1533 0.6987 0.2595
H34 H 0.5692 0.7777 0.4815
H35 H 0.5233 0.7616 0.3444
H36 H 0.5570 0.8729 0.2305
H37 H 0.7316 1.0220 0.4336
H38 H 0.6941 0.9718 0.6426
H39 H 0.6041 0.8692 0.6432
H40 H 0.7615 0.9968 0.1779
H41 H 0.5970 1.0203 0.1824
H42 H 0.6312 0.9576 0.1116
O2 O 0.3222(7) 0.8053(3) 1.0399(6)
H1 H 0.2544 0.8509 1.0128
O3 O 0.5356(7) 1.1046(3) 0.1981(7)
O4 O 0.0203(8) 0.6386(4) 0.8482(8)
O6 O 0.9520(8) 1.0126(4) 0.1415(9)
O8 O 1.1536(30) 0.9973(13) 0.0580(27)
H9 H 1.0357 0.9981 0.0387
H3? H -0.0278 0.6211 1.0031
H8? H 0.5078 0.7983 1.0711
loop_
_geom_bond_atom_site_label_1
_geom_bond_atom_site_label_2
_geom_bond_site_symmetry_1
_geom_bond_site_symmetry_2
O1 C1 1_555 1_555
O2 H1 1_555 1_555
O5 C3 1_555 1_555
O7 C4 1_555 1_555
O8 H9 1_555 1_555
N1 C1 1_555 1_555
N2 C1 1_555 1_555
N3 C11 1_555 1_555
N4 C30 1_555 1_555
C2 N1 1_555 1_555
C3 C2 1_555 1_555
C4 C3 1_555 1_555
C5 N2 1_555 1_555
C6 N1 1_555 1_555
C7 C6 1_555 1_555
C8 C7 1_555 1_555
C9 C8 1_555 1_555
C10 C9 1_555 1_555
C11 C10 1_555 1_555
C12 C7 1_555 1_555
C13 C2 1_555 1_555
C14 C13 1_555 1_555
C15 C14 1_555 1_555
C16 C15 1_555 1_555
C17 C16 1_555 1_555
C18 C17 1_555 1_555
C19 C14 1_555 1_555
C20 C5 1_555 1_555
C21 C20 1_555 1_555
C22 C21 1_555 1_555
C23 C22 1_555 1_555
C24 C23 1_555 1_555
C25 C24 1_555 1_555
C26 C21 1_555 1_555
C27 N2 1_555 1_555
C28 C27 1_555 1_555
C29 C28 1_555 1_555
C30 C29 1_555 1_555
C31 C30 1_555 1_555
C32 C31 1_555 1_555
C33 C28 1_555 1_555
H2 C2 1_555 1_555
H4 O5 1_555 1_555
H5 C3 1_555 1_555
H6 O7 1_555 1_555
H7 C4 1_555 1_555
H10 C5 1_555 1_555
H11 C6 1_555 1_555
H12 C6 1_555 1_555
H13 C8 1_555 1_555
H14 C9 1_555 1_555
H15 C10 1_555 1_555
H16 C12 1_555 1_555
H17 N3 1_555 1_555
H18 N3 1_555 1_555
H19 N3 1_555 1_555
H20 C13 1_555 1_555
H21 C13 1_555 1_555
H22 C15 1_555 1_555
H23 C16 1_555 1_555
H24 C17 1_555 1_555
H25 C18 1_555 1_555
H26 C19 1_555 1_555
H27 C20 1_555 1_555
H28 C20 1_555 1_555
H29 C22 1_555 1_555
H30 C23 1_555 1_555
H31 C24 1_555 1_555
H32 C25 1_555 1_555
H33 C26 1_555 1_555
H34 C27 1_555 1_555
H35 C27 1_555 1_555
H36 C29 1_555 1_555
H37 C31 1_555 1_555
H38 C32 1_555 1_555
H39 C33 1_555 1_555
H40 N4 1_555 1_555
H41 N4 1_555 1_555
H42 N4 1_555 1_555
C4 C5 1_555 1_555
C11 C12 1_555 1_555
C18 C19 1_555 1_555
C25 C26 1_555 1_555
C32 C33 1_555 1_555

#END
