
#######################################################################
#
#                 Cambridge Crystallographic Data Centre
#                                CCDC 
#
#######################################################################
#
# If this CIF has been generated from an entry in the Cambridge 
# Structural Database, then it will include bibliographic, chemical, 
# crystal, experimental, refinement or atomic coordinate data resulting 
# from the CCDC's data processing and validation procedures.
#
#######################################################################

data_SEZFUZ
_chemical_name_common            'N-Hydroxyisonicotinamidium chloride'
_chemical_formula_moiety         'C6 H7 N2 O2 1+,Cl1 1-'
_chemical_name_systematic        '4-(Hydroxyaminocarbonyl)pyridinium chloride'
_symmetry_cell_setting           orthorhombic
_symmetry_space_group_name_H-M   'P b c a'
_symmetry_Int_Tables_number      61
_space_group_name_Hall           '-P 2ac 2ab'
loop_
_symmetry_equiv_pos_site_id
_symmetry_equiv_pos_as_xyz
1 x,y,z
2 1/2-x,-y,1/2+z
3 1/2+x,1/2-y,-z
4 -x,1/2+y,1/2-z
5 -x,-y,-z
6 1/2+x,y,1/2-z
7 1/2-x,1/2+y,z
8 x,1/2-y,1/2+z
_cell_length_a                   7.0421(2)
_cell_length_b                   14.3771(3)
_cell_length_c                   14.7134(4)
_cell_angle_alpha                90
_cell_angle_beta                 90
_cell_angle_gamma                90
_cell_volume                     1489.66
_exptl_crystal_colour            colorless
_exptl_crystal_description       block
_cell_formula_units_Z            8
loop_
_atom_site_label
_atom_site_type_symbol
_atom_site_fract_x
_atom_site_fract_y
_atom_site_fract_z
Cl1 Cl 0.40487(5) 0.26771(2) 0.91981(2)
O1 O 0.70115(17) 0.05181(7) 0.66663(7)
O2 O 0.54033(17) 0.22468(8) 0.67394(7)
N1 N 0.72875(18) -0.06610(9) 0.98268(8)
N2 N 0.58811(19) 0.17246(8) 0.75041(9)
C1 C 0.6583(2) 0.08725(10) 0.74018(10)
C2 C 0.6843(2) 0.03478(10) 0.82768(9)
C3 C 0.7343(2) 0.07867(10) 0.90854(10)
C4 C 0.7566(2) 0.02625(10) 0.98621(10)
C5 C 0.6824(2) -0.11095(10) 0.90599(10)
C6 C 0.6605(2) -0.06168(10) 0.82644(10)
H1 H 0.757(3) 0.1439(14) 0.9109(11)
H2 H 0.791(2) 0.0543(12) 1.0454(12)
H3 H 0.664(3) -0.1761(15) 0.9118(12)
H4 H 0.629(3) -0.0915(13) 0.7737(12)
H5 H 0.739(3) -0.0994(15) 1.0339(14)
H6 H 0.545(3) 0.1961(14) 0.8043(13)
H7 H 0.654(3) 0.2384(14) 0.6487(14)
loop_
_geom_bond_atom_site_label_1
_geom_bond_atom_site_label_2
_geom_bond_site_symmetry_1
_geom_bond_site_symmetry_2
O1 C1 1_555 1_555
O2 N2 1_555 1_555
N1 C4 1_555 1_555
N2 C1 1_555 1_555
C1 C2 1_555 1_555
C2 C3 1_555 1_555
C3 C4 1_555 1_555
C4 H2 1_555 1_555
C5 N1 1_555 1_555
C6 C2 1_555 1_555
H1 C3 1_555 1_555
H3 C5 1_555 1_555
H4 C6 1_555 1_555
H5 N1 1_555 1_555
H6 N2 1_555 1_555
H7 O2 1_555 1_555
C5 C6 1_555 1_555

#END
