
#######################################################################
#
#                 Cambridge Crystallographic Data Centre
#                                CCDC 
#
#######################################################################
#
# If this CIF has been generated from an entry in the Cambridge 
# Structural Database, then it will include bibliographic, chemical, 
# crystal, experimental, refinement or atomic coordinate data resulting 
# from the CCDC's data processing and validation procedures.
#
#######################################################################

data_SEZGUB
_chemical_formula_moiety         'C50 H46 N4'
_chemical_name_systematic        
2,2'-bis(4-t-butylphenyl)-4,4',5,5'-tetraphenyl-2'H-1,2'-biimidazole
_symmetry_cell_setting           triclinic
_symmetry_space_group_name_H-M   'P -1'
_symmetry_Int_Tables_number      2
_space_group_name_Hall           '-P 1'
loop_
_symmetry_equiv_pos_site_id
_symmetry_equiv_pos_as_xyz
1 x,y,z
2 -x,-y,-z
_cell_length_a                   12.1735(2)
_cell_length_b                   12.2821(3)
_cell_length_c                   15.1686(3)
_cell_angle_alpha                111.6050(4)
_cell_angle_beta                 101.1490(4)
_cell_angle_gamma                98.8910(5)
_cell_volume                     2004.46
_exptl_crystal_colour            'light yellow'
_exptl_crystal_description       needle
_cell_formula_units_Z            2
loop_
_atom_site_label
_atom_site_type_symbol
_atom_site_fract_x
_atom_site_fract_y
_atom_site_fract_z
N1 N 0.74346(8) -0.05202(9) 0.38631(7)
N2 N 0.98532(8) 0.21543(8) 0.37308(7)
N3 N 1.04828(8) 0.04628(9) 0.27859(7)
N4 N 0.86678(8) 0.01295(8) 0.31498(7)
C1 C 0.95668(10) 0.34542(10) 0.67900(8)
C2 C 1.26092(10) 0.34875(11) 0.55397(9)
H1 H 1.2842 0.2759 0.5450
C3 C 0.75523(10) 0.13967(10) 0.03892(9)
C4 C 0.62337(10) -0.24411(10) 0.25119(9)
C5 C 0.78054(10) 0.14570(10) 0.20331(9)
H2 H 0.7530 0.1602 0.2601
C6 C 0.88325(10) 0.11008(10) 0.20085(8)
C7 C 0.84590(10) 0.31848(11) 0.61691(9)
H3 H 0.7962 0.3697 0.6368
C8 C 0.83077(10) 0.03560(10) 0.39968(8)
C9 C 0.80696(10) 0.21910(11) 0.52725(9)
H4 H 0.7308 0.2026 0.4872
C10 C 1.09600(10) 0.23669(10) 0.40230(8)
C11 C 1.02619(10) 0.26721(11) 0.64671(9)
H5 H 1.1017 0.2824 0.6874
C12 C 0.85865(10) 0.10449(10) 0.03802(9)
H6 H 0.8863 0.0899 -0.0187
C13 C 0.98777(10) 0.16764(10) 0.55648(9)
H7 H 1.0371 0.1159 0.5366
C14 C 0.72067(10) -0.13594(10) 0.28987(8)
C15 C 1.16674(10) 0.34924(10) 0.48502(8)
C16 C 0.53687(11) -0.24147(11) 0.29918(10)
H8 H 0.5438 -0.1725 0.3574
C17 C 0.79539(10) -0.09800(10) 0.24415(8)
C18 C 1.12122(11) 0.47689(12) 0.83262(9)
H9 H 1.1310 0.4068 0.8469
H10 H 1.1424 0.5494 0.8945
H11 H 1.1711 0.4878 0.7914
C19 C 1.13522(10) 0.12787(10) 0.34386(8)
C20 C 1.13350(10) 0.45704(11) 0.49940(9)
H12 H 1.0694 0.4579 0.4528
C21 C 0.87816(10) 0.14289(10) 0.49495(8)
C22 C 0.70788(11) -0.16366(10) 0.06518(9)
H13 H 0.6429 -0.1353 0.0810
C23 C 0.92251(10) 0.09011(10) 0.11782(9)
H14 H 0.9930 0.0666 0.1153
C24 C 1.32026(11) 0.45449(12) 0.63539(9)
H15 H 1.3843 0.4541 0.6822
C25 C 0.94687(10) 0.09502(10) 0.29119(8)
C26 C 0.80416(12) -0.25690(11) -0.05602(9)
H16 H 0.8058 -0.2916 -0.1229
C27 C 0.89503(11) -0.19600(10) 0.11601(9)
H17 H 0.9585 -0.1903 0.1664
C28 C 0.51731(11) -0.44618(11) 0.13348(9)
H18 H 0.5118 -0.5173 0.0774
C29 C 1.19290(11) 0.56239(11) 0.58076(9)
H19 H 1.1698 0.6354 0.5901
C30 C 0.80111(10) -0.15267(10) 0.14063(8)
C31 C 1.37874(12) -0.01412(13) 0.38799(10)
H20 H 1.3893 -0.0848 0.3968
C32 C 0.99525(11) 0.45606(11) 0.77812(9)
C33 C 0.68164(11) 0.14994(12) -0.05088(9)
C34 C 0.71801(10) 0.16020(11) 0.12371(9)
H21 H 0.6481 0.1847 0.1269
C35 C 0.89638(11) -0.24749(11) 0.01820(9)
H22 H 0.9610 -0.2765 0.0020
C36 C 0.61325(11) -0.34907(11) 0.16791(9)
H23 H 0.6722 -0.3539 0.1348
C37 C 1.28647(11) 0.56103(11) 0.64880(9)
H24 H 1.3275 0.6333 0.7048
C38 C 1.25332(10) 0.10962(11) 0.35955(8)
C39 C 1.26922(11) 0.00522(12) 0.37078(9)
H25 H 1.2048 -0.0528 0.3666
C40 C 0.91868(12) 0.43542(12) 0.84303(9)
H26 H 0.8380 0.4278 0.8113
H27 H 0.9438 0.5041 0.9076
H28 H 0.9255 0.3612 0.8515
C41 C 0.70934(12) -0.21549(11) -0.03241(9)
H29 H 0.6455 -0.2227 -0.0832
C42 C 0.98207(12) 0.57037(11) 0.76199(9)
H30 H 1.0308 0.5832 0.7205
H31 H 1.0059 0.6403 0.8258
H32 H 0.9011 0.5605 0.7294
C43 C 1.34848(11) 0.19368(12) 0.36521(10)
H33 H 1.3385 0.2658 0.3586
C44 C 1.47280(11) 0.06838(13) 0.39247(10)
H34 H 1.5477 0.0541 0.4037
C45 C 0.43020(11) -0.44039(12) 0.17978(11)
H35 H 0.3637 -0.5060 0.1547
C46 C 0.61482(12) 0.24716(14) -0.01950(10)
H36 H 0.5600 0.2240 0.0139
H37 H 0.5726 0.2551 -0.0779
H38 H 0.6691 0.3246 0.0255
C47 C 0.75691(14) 0.18469(17) -0.11086(11)
H39 H 0.8166 0.2590 -0.0678
H40 H 0.7087 0.1979 -0.1639
H41 H 0.7936 0.1194 -0.1394
C48 C 1.45753(12) 0.17230(13) 0.38050(11)
H42 H 1.5220 0.2289 0.3828
C49 C 0.44050(12) -0.33782(12) 0.26344(12)
H43 H 0.3813 -0.3336 0.2964
C50 C 0.59452(16) 0.02841(15) -0.11433(12)
H44 H 0.6359 -0.0339 -0.1390
H45 H 0.5439 0.0345 -0.1701
H46 H 0.5480 0.0067 -0.0745
loop_
_geom_bond_atom_site_label_1
_geom_bond_atom_site_label_2
_geom_bond_site_symmetry_1
_geom_bond_site_symmetry_2
N1 C8 1_555 1_555
N2 C10 1_555 1_555
N3 C19 1_555 1_555
N4 C8 1_555 1_555
C1 C7 1_555 1_555
C2 H1 1_555 1_555
C3 C12 1_555 1_555
C4 C14 1_555 1_555
C5 H2 1_555 1_555
C6 C5 1_555 1_555
C7 H3 1_555 1_555
C8 C21 1_555 1_555
C9 C7 1_555 1_555
H4 C9 1_555 1_555
C10 C15 1_555 1_555
C11 C1 1_555 1_555
H5 C11 1_555 1_555
C12 H6 1_555 1_555
C13 C11 1_555 1_555
H7 C13 1_555 1_555
C14 N1 1_555 1_555
C15 C2 1_555 1_555
C16 C4 1_555 1_555
H8 C16 1_555 1_555
C17 N4 1_555 1_555
C18 H9 1_555 1_555
H10 C18 1_555 1_555
H11 C18 1_555 1_555
C19 C10 1_555 1_555
C20 C15 1_555 1_555
H12 C20 1_555 1_555
C21 C9 1_555 1_555
C22 H13 1_555 1_555
C23 C6 1_555 1_555
H14 C23 1_555 1_555
C24 C2 1_555 1_555
H15 C24 1_555 1_555
C25 N2 1_555 1_555
C26 H16 1_555 1_555
C27 H17 1_555 1_555
C28 H18 1_555 1_555
C29 C20 1_555 1_555
H19 C29 1_555 1_555
C30 C17 1_555 1_555
C31 H20 1_555 1_555
C32 C1 1_555 1_555
C33 C3 1_555 1_555
C34 C3 1_555 1_555
H21 C34 1_555 1_555
C35 C26 1_555 1_555
H22 C35 1_555 1_555
C36 C4 1_555 1_555
H23 C36 1_555 1_555
C37 C24 1_555 1_555
H24 C37 1_555 1_555
C38 C19 1_555 1_555
C39 C31 1_555 1_555
H25 C39 1_555 1_555
C40 C32 1_555 1_555
H26 C40 1_555 1_555
H27 C40 1_555 1_555
H28 C40 1_555 1_555
C41 C22 1_555 1_555
H29 C41 1_555 1_555
C42 C32 1_555 1_555
H30 C42 1_555 1_555
H31 C42 1_555 1_555
H32 C42 1_555 1_555
C43 C38 1_555 1_555
H33 C43 1_555 1_555
C44 C31 1_555 1_555
H34 C44 1_555 1_555
C45 C28 1_555 1_555
H35 C45 1_555 1_555
C46 C33 1_555 1_555
H36 C46 1_555 1_555
H37 C46 1_555 1_555
H38 C46 1_555 1_555
C47 C33 1_555 1_555
H39 C47 1_555 1_555
H40 C47 1_555 1_555
H41 C47 1_555 1_555
C48 C43 1_555 1_555
H42 C48 1_555 1_555
C49 C16 1_555 1_555
H43 C49 1_555 1_555
C50 C33 1_555 1_555
H44 C50 1_555 1_555
H45 C50 1_555 1_555
H46 C50 1_555 1_555
N3 C25 1_555 1_555
N4 C25 1_555 1_555
C5 C34 1_555 1_555
C6 C25 1_555 1_555
C12 C23 1_555 1_555
C13 C21 1_555 1_555
C14 C17 1_555 1_555
C18 C32 1_555 1_555
C22 C30 1_555 1_555
C26 C41 1_555 1_555
C27 C30 1_555 1_555
C27 C35 1_555 1_555
C28 C36 1_555 1_555
C29 C37 1_555 1_555
C38 C39 1_555 1_555
C44 C48 1_555 1_555
C45 C49 1_555 1_555

#END
