
#######################################################################
#
#                 Cambridge Crystallographic Data Centre
#                                CCDC 
#
#######################################################################
#
# If this CIF has been generated from an entry in the Cambridge 
# Structural Database, then it will include bibliographic, chemical, 
# crystal, experimental, refinement or atomic coordinate data resulting 
# from the CCDC's data processing and validation procedures.
#
#######################################################################

data_SEZHAI
_chemical_formula_moiety         'C23 H27 N1 O7'
_chemical_name_systematic        
'Ethyl 2-(benzoylamino)-3,5-bis(3-methoxy-3-oxoprop-1-en-1-yl)cyclopentanecarboxylate'
_symmetry_cell_setting           triclinic
_symmetry_space_group_name_H-M   'P -1'
_symmetry_Int_Tables_number      2
_space_group_name_Hall           '-P 1'
loop_
_symmetry_equiv_pos_site_id
_symmetry_equiv_pos_as_xyz
1 x,y,z
2 -x,-y,-z
_cell_length_a                   10.5092(14)
_cell_length_b                   11.2202(16)
_cell_length_c                   11.4916(16)
_cell_angle_alpha                115.706(14)
_cell_angle_beta                 94.335(11)
_cell_angle_gamma                113.346(13)
_cell_volume                     1069.64
_exptl_crystal_colour            colorless
_exptl_crystal_description       block
_cell_formula_units_Z            2
loop_
_atom_site_label
_atom_site_type_symbol
_atom_site_fract_x
_atom_site_fract_y
_atom_site_fract_z
O1 O 1.03124(11) 0.83453(10) 0.49332(9)
O2 O 0.45312(9) -0.05483(9) 0.25441(9)
O3 O 0.79867(10) -0.19748(10) -0.11070(11)
O4 O 0.63711(9) 0.20701(10) 0.04900(9)
O5 O 1.10444(10) 0.81525(9) 0.31017(9)
O6 O 0.54342(9) -0.16071(10) 0.33967(10)
O7 O 0.76870(9) 0.38435(9) 0.00086(9)
N1 N 0.71246(11) -0.03827(11) -0.09450(10)
H1 H 0.6397(17) -0.0260(16) -0.1151(15)
C1 C 0.99059(12) 0.35441(13) 0.16477(12)
H2 H 1.0815 0.3473 0.1553
C2 C 0.93071(13) 0.28609(13) 0.25145(12)
H3 H 0.86 0.3178 0.2877
H4 H 1.0104 0.3186 0.3283
C3 C 0.85573(12) 0.11307(13) 0.15618(12)
H5 H 0.9194 0.0733 0.1759
C4 C 0.84386(12) 0.09084(12) 0.01053(12)
H6 H 0.9265 0.0736 -0.015
C5 C 0.87390(12) 0.24251(12) 0.02320(12)
H7 H 0.9158 0.2537 -0.049
C6 C 1.02776(12) 0.51585(13) 0.21917(12)
H8 H 1.0609 0.5589 0.165
C7 C 1.01791(12) 0.60358(13) 0.33755(13)
H9 H 0.9872 0.5613 0.3928
C8 C 1.05098(12) 0.76160(13) 0.38971(12)
C9 C 1.14086(16) 0.97063(14) 0.35797(15)
H10 H 1.2133 1.0353 0.4475
H11 H 1.0533 0.9817 0.3642
H12 H 1.1806 1.0001 0.2945
C10 C 0.71368(13) 0.04252(13) 0.17973(12)
H13 H 0.6356 0.0519 0.1446
C11 C 0.68862(13) -0.03197(13) 0.24588(12)
H14 H 0.7603 -0.0537 0.2732
C12 C 0.55036(13) -0.08123(12) 0.27736(12)
C13 C 0.40958(15) -0.21571(16) 0.37228(16)
H15 H 0.3278 -0.2827 0.2889
H16 H 0.3962 -0.1304 0.4325
H17 H 0.414 -0.2712 0.4175
C14 C 0.69981(13) -0.17737(13) -0.14759(12)
C15 C 0.56012(12) -0.30713(13) -0.25289(12)
C16 C 0.46510(13) -0.29139(13) -0.32920(12)
H18 H 0.4871 -0.1945 -0.3149
C17 C 0.33822(14) -0.41703(14) -0.42623(13)
H19 H 0.2742 -0.4057 -0.4785
C18 C 0.30443(13) -0.55873(14) -0.44718(13)
H20 H 0.2174 -0.6444 -0.5133
C19 C 0.39832(15) -0.57468(14) -0.37105(14)
H21 H 0.375 -0.6715 -0.3843
C20 C 0.52614(14) -0.45006(14) -0.27558(14)
H22 H 0.5911 -0.4623 -0.2252
C21 C 0.74450(12) 0.27118(12) 0.02471(11)
C22 C 0.66179(14) 0.43789(15) 0.01654(16)
H23 H 0.6107 0.4149 0.0791
H24 H 0.5889 0.3865 -0.0722
C23 C 0.73717(16) 0.60296(15) 0.07139(17)
H25 H 0.7885 0.6251 0.0097
H26 H 0.8071 0.6534 0.1604
H27 H 0.6657 0.6394 0.0803
loop_
_geom_bond_atom_site_label_1
_geom_bond_atom_site_label_2
_geom_bond_site_symmetry_1
_geom_bond_site_symmetry_2
O1 C8 1_555 1_555
O2 C12 1_555 1_555
O3 C14 1_555 1_555
O4 C21 1_555 1_555
O5 C8 1_555 1_555
O6 C12 1_555 1_555
O7 C21 1_555 1_555
N1 H1 1_555 1_555
C1 H2 1_555 1_555
C2 C1 1_555 1_555
H3 C2 1_555 1_555
H4 C2 1_555 1_555
C3 C2 1_555 1_555
H5 C3 1_555 1_555
C4 N1 1_555 1_555
H6 C4 1_555 1_555
C5 C1 1_555 1_555
H7 C5 1_555 1_555
C6 C1 1_555 1_555
H8 C6 1_555 1_555
C7 C6 1_555 1_555
H9 C7 1_555 1_555
C8 C7 1_555 1_555
C9 O5 1_555 1_555
H10 C9 1_555 1_555
H11 C9 1_555 1_555
H12 C9 1_555 1_555
C10 C3 1_555 1_555
H13 C10 1_555 1_555
C11 C10 1_555 1_555
H14 C11 1_555 1_555
C12 C11 1_555 1_555
C13 O6 1_555 1_555
H15 C13 1_555 1_555
H16 C13 1_555 1_555
H17 C13 1_555 1_555
C14 N1 1_555 1_555
C15 C14 1_555 1_555
C16 C15 1_555 1_555
H18 C16 1_555 1_555
C17 C16 1_555 1_555
H19 C17 1_555 1_555
C18 C17 1_555 1_555
H20 C18 1_555 1_555
C19 C18 1_555 1_555
H21 C19 1_555 1_555
C20 C15 1_555 1_555
H22 C20 1_555 1_555
C21 C5 1_555 1_555
C22 O7 1_555 1_555
H23 C22 1_555 1_555
H24 C22 1_555 1_555
C23 C22 1_555 1_555
H25 C23 1_555 1_555
H26 C23 1_555 1_555
H27 C23 1_555 1_555
C3 C4 1_555 1_555
C4 C5 1_555 1_555
C19 C20 1_555 1_555

#END
