
#######################################################################
#
#                 Cambridge Crystallographic Data Centre
#                                CCDC 
#
#######################################################################
#
# If this CIF has been generated from an entry in the Cambridge 
# Structural Database, then it will include bibliographic, chemical, 
# crystal, experimental, refinement or atomic coordinate data resulting 
# from the CCDC's data processing and validation procedures.
#
#######################################################################

data_SEZJIQ
_chemical_formula_moiety         'C28 H36 Br2 N2 O8'
_chemical_name_systematic        
N,N'-bis(2-Hydroxy-3-formyl-5-bromobenzyl)-1,10-diaza-4,7,13,16-tetraoxacyclo-octadecane
_symmetry_cell_setting           triclinic
_symmetry_space_group_name_H-M   'P -1'
_symmetry_Int_Tables_number      2
_space_group_name_Hall           '-P 1'
loop_
_symmetry_equiv_pos_site_id
_symmetry_equiv_pos_as_xyz
1 x,y,z
2 -x,-y,-z
_cell_length_a                   8.256(9)
_cell_length_b                   9.743(10)
_cell_length_c                   11.405(13)
_cell_angle_alpha                64.81(6)
_cell_angle_beta                 89.83(9)
_cell_angle_gamma                67.00(7)
_cell_volume                     749.326
_chemical_melting_point          154-157deg.C
_cell_formula_units_Z            1
loop_
_atom_site_label
_atom_site_type_symbol
_atom_site_fract_x
_atom_site_fract_y
_atom_site_fract_z
Br1 Br 0.2972(1) 0.8721(1) 0.7668(1)
C1 C 0.2447(9) 0.8188(9) 0.6348(6)
C2 C 0.0964(9) 0.7889(9) 0.6282(7)
C3 C 0.0577(9) 0.7513(9) 0.5304(7)
C4 C -0.1082(11) 0.7316(11) 0.5192(8)
O1 O -0.2176(8) 0.7505(9) 0.5872(6)
C5 C 0.1708(9) 0.7396(9) 0.4407(7)
O2 O 0.1295(7) 0.7034(7) 0.3467(5)
C6 C 0.3251(8) 0.7675(9) 0.4496(6)
C7 C 0.3589(9) 0.8077(9) 0.5465(7)
C8 C 0.4517(9) 0.7464(10) 0.3556(7)
N1 N 0.3553(7) 0.8387(7) 0.2197(5)
C9 C 0.4565(10) 0.7733(10) 0.1332(8)
C10 C 0.4352(10) 0.6262(10) 0.1410(8)
O3 O 0.2486(7) 0.6746(6) 0.1080(5)
C11 C 0.2081(12) 0.5446(10) 0.1124(8)
C12 C 0.0130(12) 0.5909(10) 0.1107(8)
O4 O -0.1026(8) 0.7082(7) -0.0139(5)
C13 C -0.1406(10) 0.8767(9) -0.0527(8)
C14 C 0.2970(10) 1.0199(9) 0.1683(7)
H1 H 0.0201 0.7938 0.6914
H2 H -0.1275 0.6967 0.4379
H3 H 0.2007 0.7332 0.2828
H4 H 0.4623 0.8284 0.5527
H5 H 0.5136 0.6294 0.3786
H6 H 0.5394 0.7851 0.3643
H7 H 0.5811 0.7438 0.1576
H8 H 0.4143 0.8604 0.0434
H9 H 0.4838 0.5355 0.2292
H10 H 0.4976 0.5896 0.0811
H11 H 0.2790 0.4419 0.1903
H12 H 0.2369 0.5276 0.0366
H13 H -0.0206 0.6371 0.1713
H14 H -0.0061 0.4911 0.1428
H15 H -0.0388 0.8984 -0.0785
H16 H -0.1730 0.9037 0.0183
H17 H 0.2632 1.0500 0.2376
H18 H 0.3956 1.0464 0.1409
C14A C -0.2970(10) 0.9801(9) -0.1683(7)
N1A N -0.3553(7) 1.1613(7) -0.2197(5)
C8A C -0.4517(9) 1.2536(10) -0.3556(7)
C6A C -0.3251(8) 1.2325(9) -0.4496(6)
C5A C -0.1708(9) 1.2604(9) -0.4407(7)
C3A C -0.0577(9) 1.2487(9) -0.5304(7)
C2A C -0.0964(9) 1.2111(9) -0.6282(7)
C1A C -0.2447(9) 1.1812(9) -0.6348(6)
Br1A Br -0.2972(1) 1.1279(1) -0.7668(1)
C7A C -0.3589(9) 1.1923(9) -0.5465(7)
H4A H -0.4623 1.1716 -0.5527
H1A H -0.0201 1.2062 -0.6914
C4A C 0.1082(11) 1.2684(11) -0.5192(8)
O1A O 0.2176(8) 1.2495(9) -0.5872(6)
H2A H 0.1275 1.3033 -0.4379
O2A O -0.1295(7) 1.2966(7) -0.3467(5)
H3A H -0.2007 1.2668 -0.2828
H5A H -0.5136 1.3706 -0.3786
H6A H -0.5394 1.2149 -0.3643
C9A C -0.4565(10) 1.2267(10) -0.1332(8)
C10A C -0.4352(10) 1.3738(10) -0.1410(8)
O3A O -0.2486(7) 1.3254(6) -0.1080(5)
C11A C -0.2081(12) 1.4554(10) -0.1124(8)
C12A C -0.0130(12) 1.4091(10) -0.1107(8)
O4A O 0.1026(8) 1.2918(7) 0.0139(5)
C13A C 0.1406(10) 1.1233(9) 0.0527(8)
H15A H 0.0388 1.1016 0.0785
H16A H 0.1730 1.0963 -0.0183
H13A H 0.0206 1.3629 -0.1713
H14A H 0.0061 1.5089 -0.1428
H11A H -0.2790 1.5581 -0.1903
H12A H -0.2369 1.4724 -0.0366
H9A H -0.4838 1.4645 -0.2292
H10A H -0.4976 1.4104 -0.0811
H7A H -0.5811 1.2562 -0.1576
H8A H -0.4143 1.1396 -0.0434
H17A H -0.2632 0.9500 -0.2376
H18A H -0.3956 0.9536 -0.1409
loop_
_geom_bond_atom_site_label_1
_geom_bond_atom_site_label_2
_geom_bond_site_symmetry_1
_geom_bond_site_symmetry_2
Br1 C1 1_555 1_555
C1 C2 1_555 1_555
C2 C3 1_555 1_555
C3 C4 1_555 1_555
C4 O1 1_555 1_555
C5 C3 1_555 1_555
O2 C5 1_555 1_555
C6 C5 1_555 1_555
C7 C1 1_555 1_555
C8 C6 1_555 1_555
N1 C8 1_555 1_555
C9 N1 1_555 1_555
C10 C9 1_555 1_555
O3 C10 1_555 1_555
C11 O3 1_555 1_555
C12 C11 1_555 1_555
O4 C12 1_555 1_555
C13 O4 1_555 1_555
C14 N1 1_555 1_555
H1 C2 1_555 1_555
H2 C4 1_555 1_555
H3 O2 1_555 1_555
H4 C7 1_555 1_555
H5 C8 1_555 1_555
H6 C8 1_555 1_555
H7 C9 1_555 1_555
H8 C9 1_555 1_555
H9 C10 1_555 1_555
H10 C10 1_555 1_555
H11 C11 1_555 1_555
H12 C11 1_555 1_555
H13 C12 1_555 1_555
H14 C12 1_555 1_555
H15 C13 1_555 1_555
H16 C13 1_555 1_555
H17 C14 1_555 1_555
H18 C14 1_555 1_555
C14A C13 1_555 1_555
N1A C14A 1_555 1_555
C8A N1A 1_555 1_555
C6A C8A 1_555 1_555
C5A C6A 1_555 1_555
C3A C5A 1_555 1_555
C2A C3A 1_555 1_555
C1A C2A 1_555 1_555
Br1A C1A 1_555 1_555
C7A C6A 1_555 1_555
H4A C7A 1_555 1_555
H1A C2A 1_555 1_555
C4A C3A 1_555 1_555
O1A C4A 1_555 1_555
H2A C4A 1_555 1_555
O2A C5A 1_555 1_555
H3A O2A 1_555 1_555
H5A C8A 1_555 1_555
H6A C8A 1_555 1_555
C9A N1A 1_555 1_555
C10A C9A 1_555 1_555
O3A C10A 1_555 1_555
C11A O3A 1_555 1_555
C12A C11A 1_555 1_555
O4A C12A 1_555 1_555
C13A C14 1_555 1_555
H15A C13A 1_555 1_555
H16A C13A 1_555 1_555
H13A C12A 1_555 1_555
H14A C12A 1_555 1_555
H11A C11A 1_555 1_555
H12A C11A 1_555 1_555
H9A C10A 1_555 1_555
H10A C10A 1_555 1_555
H7A C9A 1_555 1_555
H8A C9A 1_555 1_555
H17A C14A 1_555 1_555
H18A C14A 1_555 1_555
C6 C7 1_555 1_555
C1A C7A 1_555 1_555
O4A C13A 1_555 1_555

#END
