
#######################################################################
#
#                 Cambridge Crystallographic Data Centre
#                                CCDC 
#
#######################################################################
#
# If this CIF has been generated from an entry in the Cambridge 
# Structural Database, then it will include bibliographic, chemical, 
# crystal, experimental, refinement or atomic coordinate data resulting 
# from the CCDC's data processing and validation procedures.
#
#######################################################################

data_SEZLUG
_chemical_formula_moiety         'C10 H17 N1 O3'
_chemical_name_systematic        
4-Methoxy-7-methyl-6-oxa-1-azaspiro[4.5]decan-2-one
_symmetry_cell_setting           monoclinic
_symmetry_space_group_name_H-M   'C 2/c'
_symmetry_Int_Tables_number      15
_space_group_name_Hall           '-C 2yn'
loop_
_symmetry_equiv_pos_site_id
_symmetry_equiv_pos_as_xyz
1 x,y,z
2 -x,y,1/2-z
3 1/2+x,1/2+y,z
4 1/2-x,1/2+y,1/2-z
5 -x,-y,-z
6 x,-y,1/2+z
7 1/2-x,1/2-y,-z
8 1/2+x,1/2-y,1/2+z
_cell_length_a                   25.951(5)
_cell_length_b                   5.6442(11)
_cell_length_c                   15.203(3)
_cell_angle_alpha                90
_cell_angle_beta                 113.62(3)
_cell_angle_gamma                90
_cell_volume                     2040.27
_exptl_crystal_colour            colorless
_exptl_crystal_description       block
_cell_formula_units_Z            8
loop_
_atom_site_label
_atom_site_type_symbol
_atom_site_fract_x
_atom_site_fract_y
_atom_site_fract_z
O1 O 0.24179(7) 1.2839(3) 0.11196(13)
O2 O 0.39216(7) 0.8093(3) 0.30983(13)
O3 O 0.40094(7) 0.9858(3) 0.15305(12)
N1 N 0.30151(8) 1.0312(4) 0.08143(14)
H1 H 0.2887 1.0593 0.0194
C1 C 0.27933(10) 1.1335(4) 0.13820(18)
C2 C 0.30797(11) 1.0342(5) 0.23748(18)
H2 H 0.2800 0.9823 0.2626
H3 H 0.3330 1.1539 0.2817
C3 C 0.34182(10) 0.8242(5) 0.22673(17)
H4 H 0.3196 0.6757 0.2205
C4 C 0.42513(12) 0.6044(5) 0.3141(2)
H5 H 0.4433 0.6222 0.2690
H6 H 0.4008 0.4642 0.2968
H7 H 0.4540 0.5859 0.3794
C5 C 0.34832(9) 0.8705(4) 0.13019(17)
C6 C 0.34378(10) 0.6479(4) 0.07075(18)
H8 H 0.3057 0.5788 0.0516
H9 H 0.3715 0.5294 0.1105
C7 C 0.35445(11) 0.7007(5) -0.01895(18)
H10 H 0.3239 0.8014 -0.0634
H11 H 0.3551 0.5510 -0.0524
C8 C 0.41086(11) 0.8284(5) 0.0104(2)
H12 H 0.4417 0.7197 0.0482
H13 H 0.4165 0.8760 -0.0478
C9 C 0.41242(10) 1.0459(5) 0.06977(18)
H14 H 0.3833 1.1607 0.0290
C10 C 0.46914(11) 1.1685(5) 0.1093(2)
H15 H 0.4677 1.3055 0.1478
H16 H 0.4784 1.2218 0.0560
H17 H 0.4980 1.0576 0.1496
loop_
_geom_bond_atom_site_label_1
_geom_bond_atom_site_label_2
_geom_bond_site_symmetry_1
_geom_bond_site_symmetry_2
O1 C1 1_555 1_555
O2 C3 1_555 1_555
O3 C5 1_555 1_555
N1 H1 1_555 1_555
C1 N1 1_555 1_555
C2 C1 1_555 1_555
H2 C2 1_555 1_555
H3 C2 1_555 1_555
C3 C2 1_555 1_555
H4 C3 1_555 1_555
C4 O2 1_555 1_555
H5 C4 1_555 1_555
H6 C4 1_555 1_555
H7 C4 1_555 1_555
C5 N1 1_555 1_555
C6 C5 1_555 1_555
H8 C6 1_555 1_555
H9 C6 1_555 1_555
C7 C6 1_555 1_555
H10 C7 1_555 1_555
H11 C7 1_555 1_555
C8 C7 1_555 1_555
H12 C8 1_555 1_555
H13 C8 1_555 1_555
C9 O3 1_555 1_555
H14 C9 1_555 1_555
C10 C9 1_555 1_555
H15 C10 1_555 1_555
H16 C10 1_555 1_555
H17 C10 1_555 1_555
C3 C5 1_555 1_555
C8 C9 1_555 1_555

#END
