
#######################################################################
#
#                 Cambridge Crystallographic Data Centre
#                                CCDC 
#
#######################################################################
#
# If this CIF has been generated from an entry in the Cambridge 
# Structural Database, then it will include bibliographic, chemical, 
# crystal, experimental, refinement or atomic coordinate data resulting 
# from the CCDC's data processing and validation procedures.
#
#######################################################################

data_SEZMAO01
_chemical_formula_moiety         'C15 H27 N3'
_chemical_name_systematic        
dodecahydro-1H,6H,11H-tripyrido[1,2-a:1',2'-c:1'',2''-e][1,3,5]triazine
_symmetry_cell_setting           monoclinic
_symmetry_space_group_name_H-M   'P 21/c'
_symmetry_Int_Tables_number      14
_space_group_name_Hall           '-P 2ybc'
loop_
_symmetry_equiv_pos_site_id
_symmetry_equiv_pos_as_xyz
1 x,y,z
2 -x,1/2+y,1/2-z
3 -x,-y,-z
4 x,1/2-y,1/2+z
_cell_length_a                   9.2706(3)
_cell_length_b                   17.6938(7)
_cell_length_c                   9.5355(3)
_cell_angle_alpha                90
_cell_angle_beta                 115.510(2)
_cell_angle_gamma                90
_cell_volume                     1411.64
_exptl_crystal_colour            colorless
_exptl_crystal_description       block
_cell_formula_units_Z            4
loop_
_atom_site_label
_atom_site_type_symbol
_atom_site_fract_x
_atom_site_fract_y
_atom_site_fract_z
C1 C 0.82952(16) 0.16069(8) 0.44973(16)
H1 H 0.8648 0.2128 0.4383
C2 C 0.90512(18) 0.14227(10) 0.62205(17)
H2 H 0.8790 0.0896 0.6374
H3 H 0.8608 0.1762 0.6763
C3 C 1.08537(19) 0.15173(11) 0.69115(19)
H4 H 1.1127 0.2053 0.6847
H5 H 1.1338 0.1366 0.8019
C4 C 1.14964(19) 0.10246(11) 0.60080(19)
H6 H 1.2655 0.1119 0.6377
H7 H 1.1352 0.0486 0.6198
C5 C 1.06465(17) 0.11854(10) 0.42837(18)
H8 H 1.0882 0.1710 0.4089
H9 H 1.1065 0.0842 0.3727
C6 C 0.81601(16) 0.12380(8) 0.19700(16)
H10 H 0.8568 0.1732 0.1779
C7 C 0.86051(18) 0.06187(9) 0.11170(17)
H11 H 0.8186 0.0128 0.1280
H12 H 0.9783 0.0579 0.1552
C8 C 0.7930(2) 0.07824(10) -0.06185(18)
H13 H 0.8424 0.1247 -0.0796
H14 H 0.8178 0.0358 -0.1155
C9 C 0.6139(2) 0.08842(10) -0.12630(18)
H15 H 0.5634 0.0396 -0.1224
H16 H 0.5710 0.1045 -0.2363
C10 C 0.57286(18) 0.14716(9) -0.03334(17)
H17 H 0.6150 0.1969 -0.0456
H18 H 0.4552 0.1514 -0.0748
C11 C 0.59426(16) 0.18466(8) 0.22067(16)
H19 H 0.6454 0.2338 0.2163
C12 C 0.41397(17) 0.19748(9) 0.15744(19)
H20 H 0.3935 0.2393 0.2156
H21 H 0.3710 0.2126 0.0469
C13 C 0.32773(18) 0.12680(10) 0.1715(2)
H22 H 0.3366 0.0865 0.1035
H23 H 0.2130 0.1380 0.1381
C14 C 0.40264(18) 0.10031(10) 0.3398(2)
H24 H 0.3796 0.1377 0.4047
H25 H 0.3540 0.0516 0.3475
C15 C 0.58241(17) 0.09049(9) 0.40154(18)
H26 H 0.6282 0.0764 0.5128
H27 H 0.6060 0.0493 0.3442
N1 N 0.89002(13) 0.10875(7) 0.36580(13)
N2 N 0.63999(13) 0.12778(7) 0.13341(13)
N3 N 0.65611(13) 0.16150(7) 0.38295(13)
loop_
_geom_bond_atom_site_label_1
_geom_bond_atom_site_label_2
_geom_bond_site_symmetry_1
_geom_bond_site_symmetry_2
C1 H1 1_555 1_555
C2 C1 1_555 1_555
H2 C2 1_555 1_555
H3 C2 1_555 1_555
C3 C2 1_555 1_555
H4 C3 1_555 1_555
H5 C3 1_555 1_555
C4 C3 1_555 1_555
H6 C4 1_555 1_555
H7 C4 1_555 1_555
C5 C4 1_555 1_555
H8 C5 1_555 1_555
H9 C5 1_555 1_555
C6 H10 1_555 1_555
C7 C6 1_555 1_555
H11 C7 1_555 1_555
H12 C7 1_555 1_555
C8 C7 1_555 1_555
H13 C8 1_555 1_555
H14 C8 1_555 1_555
C9 C8 1_555 1_555
H15 C9 1_555 1_555
H16 C9 1_555 1_555
C10 C9 1_555 1_555
H17 C10 1_555 1_555
H18 C10 1_555 1_555
C11 H19 1_555 1_555
C12 C11 1_555 1_555
H20 C12 1_555 1_555
H21 C12 1_555 1_555
C13 C12 1_555 1_555
H22 C13 1_555 1_555
H23 C13 1_555 1_555
C14 C13 1_555 1_555
H24 C14 1_555 1_555
H25 C14 1_555 1_555
C15 C14 1_555 1_555
H26 C15 1_555 1_555
H27 C15 1_555 1_555
N1 C1 1_555 1_555
N2 C6 1_555 1_555
N3 C1 1_555 1_555
C5 N1 1_555 1_555
C6 N1 1_555 1_555
C10 N2 1_555 1_555
C11 N2 1_555 1_555
C11 N3 1_555 1_555
C15 N3 1_555 1_555

#END
