
#######################################################################
#
#                 Cambridge Crystallographic Data Centre
#                                CCDC 
#
#######################################################################
#
# If this CIF has been generated from an entry in the Cambridge 
# Structural Database, then it will include bibliographic, chemical, 
# crystal, experimental, refinement or atomic coordinate data resulting 
# from the CCDC's data processing and validation procedures.
#
#######################################################################

data_SEZNOB
_chemical_formula_moiety         'C16 H18 O6'
_chemical_name_systematic        
"Diethyl 3,3'-dihydroxy-3,3'-(p-phenylene)diprop-2-enoate"
_symmetry_cell_setting           triclinic
_symmetry_space_group_name_H-M   'P -1'
_symmetry_Int_Tables_number      2
_space_group_name_Hall           '-P 1'
loop_
_symmetry_equiv_pos_site_id
_symmetry_equiv_pos_as_xyz
1 x,y,z
2 -x,-y,-z
_cell_length_a                   5.01830(10)
_cell_length_b                   5.7002(5)
_cell_length_c                   13.5102(9)
_cell_angle_alpha                102.178(3)
_cell_angle_beta                 94.3240(10)
_cell_angle_gamma                90.0830(10)
_cell_volume                     376.632
_exptl_crystal_colour            colorless
_exptl_crystal_description       plate
_cell_formula_units_Z            1
_exptl_crystal_recrystallization_method chloroform
loop_
_atom_site_label
_atom_site_type_symbol
_atom_site_fract_x
_atom_site_fract_y
_atom_site_fract_z
O1 O 0.8962(2) 0.5683(2) 0.29525(10)
H1 H 1.012(5) 0.525(4) 0.2554(18)
O2 O 1.2226(2) 0.2849(2) 0.18678(9)
O3 O 1.2792(2) -0.0803(2) 0.22246(9)
C1 C 0.5151(3) 0.6430(3) 0.42980(11)
H2 H 0.5245 0.7401 0.3828
C2 C 0.6762(3) 0.4426(2) 0.42307(10)
C3 C 0.6587(3) 0.3008(3) 0.49447(11)
H3 H 0.7654 0.1665 0.4912
C4 C 0.8634(3) 0.3866(3) 0.34175(11)
C5 C 0.9908(3) 0.1773(3) 0.31692(12)
H4 H 0.9626 0.0565 0.3519
C6 C 1.1707(3) 0.1375(3) 0.23666(12)
C7 C 1.4520(4) -0.1459(4) 0.13951(14)
H5 H 1.5750 -0.2679 0.1537
H6 H 1.5561 -0.0065 0.1338
C8 C 1.2924(5) -0.2379(4) 0.04322(16)
H7 H 1.4092 -0.2803 -0.0106
H8 H 1.1724 -0.1163 0.0288
H9 H 1.1914 -0.3772 0.0486
O1A O 0.1038(2) 0.4317(2) 0.70475(10)
H1A H -0.012(5) 0.475(4) 0.7446(18)
O2A O -0.2226(2) 0.7151(2) 0.81322(9)
O3A O -0.2792(2) 1.0803(2) 0.77754(9)
C1A C 0.4849(3) 0.3570(3) 0.57020(11)
H2A H 0.4755 0.2599 0.6172
C2A C 0.3238(3) 0.5574(2) 0.57693(10)
C3A C 0.3413(3) 0.6992(3) 0.50553(11)
H3A H 0.2346 0.8335 0.5088
C4A C 0.1366(3) 0.6134(3) 0.65825(11)
C5A C 0.0092(3) 0.8227(3) 0.68308(12)
H4A H 0.0374 0.9435 0.6481
C6A C -0.1707(3) 0.8625(3) 0.76334(12)
C7A C -0.4520(4) 1.1459(4) 0.86049(14)
H5A H -0.5750 1.2679 0.8463
H6A H -0.5561 1.0065 0.8662
C8A C -0.2924(5) 1.2379(4) 0.95678(16)
H7A H -0.4092 1.2803 1.0106
H8A H -0.1724 1.1163 0.9712
H9A H -0.1914 1.3772 0.9514
loop_
_geom_bond_atom_site_label_1
_geom_bond_atom_site_label_2
_geom_bond_site_symmetry_1
_geom_bond_site_symmetry_2
O1 H1 1_555 1_555
O2 C6 1_555 1_555
O3 C6 1_555 1_555
C1 H2 1_555 1_555
C2 C1 1_555 1_555
C3 C2 1_555 1_555
H3 C3 1_555 1_555
C4 O1 1_555 1_555
C5 C4 1_555 1_555
H4 C5 1_555 1_555
C6 C5 1_555 1_555
C7 O3 1_555 1_555
H5 C7 1_555 1_555
H6 C7 1_555 1_555
C8 C7 1_555 1_555
H7 C8 1_555 1_555
H8 C8 1_555 1_555
H9 C8 1_555 1_555
O1A H1A 1_555 1_555
O2A C6A 1_555 1_555
O3A C6A 1_555 1_555
C1A C3 1_555 1_555
H2A C1A 1_555 1_555
C2A C1A 1_555 1_555
C3A C1 1_555 1_555
H3A C3A 1_555 1_555
C4A O1A 1_555 1_555
C5A C4A 1_555 1_555
H4A C5A 1_555 1_555
C6A C5A 1_555 1_555
C7A O3A 1_555 1_555
H5A C7A 1_555 1_555
H6A C7A 1_555 1_555
C8A C7A 1_555 1_555
H7A C8A 1_555 1_555
H8A C8A 1_555 1_555
H9A C8A 1_555 1_555
C2 C4 1_555 1_555
C2A C3A 1_555 1_555
C2A C4A 1_555 1_555

#END
