
#######################################################################
#
#                 Cambridge Crystallographic Data Centre
#                                CCDC 
#
#######################################################################
#
# If this CIF has been generated from an entry in the Cambridge 
# Structural Database, then it will include bibliographic, chemical, 
# crystal, experimental, refinement or atomic coordinate data resulting 
# from the CCDC's data processing and validation procedures.
#
#######################################################################

data_SEZSOI
_chemical_name_common            6-nitro-1-tosylindoline
_chemical_formula_moiety         'C15 H14 N2 O4 S1'
_chemical_name_systematic        
1-[(4-methylphenyl)sulfonyl]-6-nitro-2,3-dihydro-1H-indole
_symmetry_cell_setting           monoclinic
_symmetry_space_group_name_H-M   'P 21/n'
_symmetry_Int_Tables_number      14
_space_group_name_Hall           '-P 2yn'
loop_
_symmetry_equiv_pos_site_id
_symmetry_equiv_pos_as_xyz
1 x,y,z
2 1/2-x,1/2+y,1/2-z
3 -x,-y,-z
4 1/2+x,1/2-y,1/2+z
_cell_length_a                   8.7131(9)
_cell_length_b                   7.8152(8)
_cell_length_c                   21.654(2)
_cell_angle_alpha                90
_cell_angle_beta                 92.171(9)
_cell_angle_gamma                90
_cell_volume                     1473.46
_exptl_crystal_colour            'dark yellow'
_exptl_crystal_description       block
_cell_formula_units_Z            4
loop_
_atom_site_label
_atom_site_type_symbol
_atom_site_fract_x
_atom_site_fract_y
_atom_site_fract_z
S1 S 0.09020(9) 0.66016(13) 0.13176(4)
O1 O 0.3840(5) 0.9441(4) -0.05823(16)
O2 O 0.5099(3) 0.7890(4) -0.11796(12)
O3 O 0.0645(3) 0.8192(3) 0.10018(10)
O4 O -0.0216(2) 0.5932(4) 0.17163(10)
N1 N 0.1107(3) 0.5132(3) 0.07874(10)
N2 N 0.4203(3) 0.8070(4) -0.07710(13)
C1 C 0.2055(3) 0.5300(4) 0.02716(12)
C2 C 0.2637(3) 0.6755(4) 0.00192(13)
H1 H 0.2454 0.7832 0.0184
C3 C 0.3518(3) 0.6535(4) -0.04959(13)
C4 C 0.3791(3) 0.4982(4) -0.07595(13)
H2 H 0.4379 0.4896 -0.1108
C5 C 0.3173(4) 0.3546(4) -0.04957(14)
H3 H 0.3337 0.2475 -0.0668
C6 C 0.2319(3) 0.3691(4) 0.00205(13)
C7 C 0.1512(4) 0.2348(4) 0.03778(14)
H4 H 0.2197 0.1405 0.0484
H5 H 0.0625 0.1910 0.0144
C8 C 0.1030(4) 0.3289(5) 0.09540(15)
H6 H -0.0005 0.2971 0.1058
H7 H 0.1724 0.3033 0.1303
C9 C 0.2994(4) 0.5615(5) 0.22113(15)
H8 H 0.2288 0.4775 0.2310
C10 C 0.2661(3) 0.6758(4) 0.17356(12)
C11 C 0.3710(3) 0.7989(4) 0.15944(13)
H9 H 0.3494 0.8754 0.1274
C12 C 0.5080(3) 0.8093(4) 0.19261(14)
H10 H 0.5778 0.8942 0.1828
C13 C 0.5453(3) 0.6964(4) 0.24042(14)
C14 C 0.4386(4) 0.5738(5) 0.25374(15)
H11 H 0.4605 0.4967 0.2856
C15 C 0.6954(4) 0.7104(5) 0.27689(16)
H12 H 0.7789 0.6946 0.2498
H13 H 0.6999 0.6240 0.3084
H14 H 0.7031 0.8214 0.2957
loop_
_geom_bond_atom_site_label_1
_geom_bond_atom_site_label_2
_geom_bond_site_symmetry_1
_geom_bond_site_symmetry_2
S1 O3 1_555 1_555
O1 N2 1_555 1_555
O2 N2 1_555 1_555
O4 S1 1_555 1_555
N1 S1 1_555 1_555
N2 C3 1_555 1_555
C1 N1 1_555 1_555
C2 C1 1_555 1_555
H1 C2 1_555 1_555
C3 C2 1_555 1_555
C4 C3 1_555 1_555
H2 C4 1_555 1_555
C5 C4 1_555 1_555
H3 C5 1_555 1_555
C6 C1 1_555 1_555
C7 C6 1_555 1_555
H4 C7 1_555 1_555
H5 C7 1_555 1_555
C8 N1 1_555 1_555
H6 C8 1_555 1_555
H7 C8 1_555 1_555
C9 H8 1_555 1_555
C10 S1 1_555 1_555
C11 C10 1_555 1_555
H9 C11 1_555 1_555
C12 C11 1_555 1_555
H10 C12 1_555 1_555
C13 C12 1_555 1_555
C14 C9 1_555 1_555
H11 C14 1_555 1_555
C15 C13 1_555 1_555
H12 C15 1_555 1_555
H13 C15 1_555 1_555
H14 C15 1_555 1_555
C5 C6 1_555 1_555
C7 C8 1_555 1_555
C9 C10 1_555 1_555
C13 C14 1_555 1_555

#END
