
#######################################################################
#
#                 Cambridge Crystallographic Data Centre
#                                CCDC 
#
#######################################################################
#
# If this CIF has been generated from an entry in the Cambridge 
# Structural Database, then it will include bibliographic, chemical, 
# crystal, experimental, refinement or atomic coordinate data resulting 
# from the CCDC's data processing and validation procedures.
#
#######################################################################

data_SEZSIC
_chemical_name_common            7-methyl-1-tosylindoline
_chemical_formula_moiety         'C16 H17 N1 O2 S1'
_chemical_name_systematic        
7-methyl-1-[(4-methylphenyl)sulfonyl]-2,3-dihydro-1H-indole
_symmetry_cell_setting           monoclinic
_symmetry_space_group_name_H-M   'P 21/c'
_symmetry_Int_Tables_number      14
_space_group_name_Hall           '-P 2ybc'
loop_
_symmetry_equiv_pos_site_id
_symmetry_equiv_pos_as_xyz
1 x,y,z
2 -x,1/2+y,1/2-z
3 -x,-y,-z
4 x,1/2-y,1/2+z
_cell_length_a                   15.2125(8)
_cell_length_b                   15.041(2)
_cell_length_c                   12.8713(8)
_cell_angle_alpha                90
_cell_angle_beta                 90.483(5)
_cell_angle_gamma                90
_cell_volume                     2944.99
_exptl_crystal_colour            yellow
_exptl_crystal_description       block
_cell_formula_units_Z            8
loop_
_atom_site_label
_atom_site_type_symbol
_atom_site_fract_x
_atom_site_fract_y
_atom_site_fract_z
S1 S 0.20762(7) 0.21802(11) 0.28509(9)
O1 O 0.26223(17) 0.2798(3) 0.2302(2)
O2 O 0.23890(19) 0.1786(3) 0.3796(2)
N1 N 0.1168(2) 0.2724(3) 0.3167(2)
C1 C 0.0660(3) 0.3146(4) 0.2348(3)
C2 C 0.0875(3) 0.3927(4) 0.1832(3)
C3 C 0.0248(3) 0.4223(4) 0.1104(3)
H1 H 0.0356 0.4744 0.0736
C4 C -0.0519(3) 0.3770(5) 0.0916(3)
H2 H -0.0901 0.3971 0.0398
C5 C -0.0736(3) 0.3026(4) 0.1478(3)
H3 H -0.1269 0.2738 0.1368
C6 C -0.0143(3) 0.2719(4) 0.2206(3)
C7 C -0.0218(3) 0.1969(4) 0.2963(3)
H4 H -0.0121 0.1400 0.2627
H5 H -0.0790 0.1964 0.3290
C8 C 0.0513(3) 0.2173(4) 0.3754(3)
H6 H 0.0282 0.2502 0.4340
H7 H 0.0781 0.1629 0.4007
C9 C 0.1690(3) 0.4469(4) 0.2028(3)
H8 H 0.1885 0.4383 0.2732
H9 H 0.1563 0.5086 0.1915
H10 H 0.2144 0.4282 0.1562
C10 C 0.1781(2) 0.1325(4) 0.1998(3)
C11 C 0.1725(3) 0.1501(4) 0.0941(4)
H11 H 0.1853 0.2066 0.0691
C12 C 0.1477(3) 0.0833(5) 0.0259(4)
H12 H 0.1449 0.0949 -0.0450
C13 C 0.1268(3) -0.0010(5) 0.0625(5)
C14 C 0.1312(3) -0.0172(4) 0.1669(5)
H13 H 0.1171 -0.0733 0.1920
C15 C 0.1561(3) 0.0483(5) 0.2347(4)
H14 H 0.1582 0.0362 0.3056
C16 C 0.1017(3) -0.0751(5) -0.0130(4)
H15 H 0.0516 -0.0570 -0.0537
H16 H 0.0875 -0.1279 0.0253
H17 H 0.1502 -0.0871 -0.0582
S2 S 0.70704(7) 0.20950(11) 0.37396(8)
O3 O 0.73498(17) 0.2185(3) 0.26861(19)
O4 O 0.76402(17) 0.1684(3) 0.4487(2)
N2 N 0.61540(19) 0.1490(3) 0.3696(2)
C17 C 0.5660(2) 0.1388(4) 0.4654(3)
C18 C 0.5887(3) 0.0827(4) 0.5482(3)
C19 C 0.5264(3) 0.0808(4) 0.6281(3)
H18 H 0.5382 0.0466 0.6868
C20 C 0.4491(3) 0.1273(5) 0.6231(4)
H19 H 0.4103 0.1240 0.6784
C21 C 0.4276(3) 0.1788(4) 0.5385(3)
H20 H 0.3749 0.2101 0.5354
C22 C 0.4872(3) 0.1823(4) 0.4582(3)
C23 C 0.4775(2) 0.2268(4) 0.3543(3)
H21 H 0.4879 0.2903 0.3594
H22 H 0.4197 0.2166 0.3244
C24 C 0.5484(2) 0.1814(4) 0.2919(3)
H23 H 0.5240 0.1320 0.2527
H24 H 0.5749 0.2229 0.2437
C25 C 0.6689(3) 0.0265(4) 0.5547(3)
H25 H 0.6849 0.0073 0.4863
H26 H 0.6574 -0.0245 0.5973
H27 H 0.7162 0.0603 0.5847
C26 C 0.6804(2) 0.3151(4) 0.4211(3)
C27 C 0.6638(3) 0.3848(5) 0.3526(4)
H28 H 0.6675 0.3761 0.2812
C28 C 0.6416(3) 0.4672(5) 0.3926(5)
H29 H 0.6299 0.5137 0.3468
C29 C 0.6365(3) 0.4825(5) 0.4970(5)
C30 C 0.6550(3) 0.4133(5) 0.5632(4)
H30 H 0.6528 0.4229 0.6345
C31 C 0.6770(3) 0.3301(4) 0.5268(3)
H31 H 0.6894 0.2843 0.5732
C32 C 0.6136(4) 0.5744(5) 0.5374(5)
H32 H 0.5699 0.5693 0.5904
H33 H 0.5911 0.6101 0.4813
H34 H 0.6654 0.6019 0.5659
loop_
_geom_bond_atom_site_label_1
_geom_bond_atom_site_label_2
_geom_bond_site_symmetry_1
_geom_bond_site_symmetry_2
S1 O1 1_555 1_555
O2 S1 1_555 1_555
N1 S1 1_555 1_555
C1 N1 1_555 1_555
C2 C1 1_555 1_555
C3 C2 1_555 1_555
H1 C3 1_555 1_555
C4 C3 1_555 1_555
H2 C4 1_555 1_555
C5 C4 1_555 1_555
H3 C5 1_555 1_555
C6 C1 1_555 1_555
C7 C6 1_555 1_555
H4 C7 1_555 1_555
H5 C7 1_555 1_555
C8 N1 1_555 1_555
H6 C8 1_555 1_555
H7 C8 1_555 1_555
C9 C2 1_555 1_555
H8 C9 1_555 1_555
H9 C9 1_555 1_555
H10 C9 1_555 1_555
C10 S1 1_555 1_555
C11 C10 1_555 1_555
H11 C11 1_555 1_555
C12 C11 1_555 1_555
H12 C12 1_555 1_555
C13 C12 1_555 1_555
C14 C13 1_555 1_555
H13 C14 1_555 1_555
C15 C10 1_555 1_555
H14 C15 1_555 1_555
C16 C13 1_555 1_555
H15 C16 1_555 1_555
H16 C16 1_555 1_555
H17 C16 1_555 1_555
S2 O3 1_555 1_555
O4 S2 1_555 1_555
N2 S2 1_555 1_555
C17 N2 1_555 1_555
C18 C17 1_555 1_555
C19 C18 1_555 1_555
H18 C19 1_555 1_555
C20 C19 1_555 1_555
H19 C20 1_555 1_555
C21 C20 1_555 1_555
H20 C21 1_555 1_555
C22 C17 1_555 1_555
C23 C22 1_555 1_555
H21 C23 1_555 1_555
H22 C23 1_555 1_555
C24 N2 1_555 1_555
H23 C24 1_555 1_555
H24 C24 1_555 1_555
C25 C18 1_555 1_555
H25 C25 1_555 1_555
H26 C25 1_555 1_555
H27 C25 1_555 1_555
C26 S2 1_555 1_555
C27 C26 1_555 1_555
H28 C27 1_555 1_555
C28 C27 1_555 1_555
H29 C28 1_555 1_555
C29 C28 1_555 1_555
C30 C29 1_555 1_555
H30 C30 1_555 1_555
C31 C26 1_555 1_555
H31 C31 1_555 1_555
C32 C29 1_555 1_555
H32 C32 1_555 1_555
H33 C32 1_555 1_555
H34 C32 1_555 1_555
C5 C6 1_555 1_555
C7 C8 1_555 1_555
C14 C15 1_555 1_555
C21 C22 1_555 1_555
C23 C24 1_555 1_555
C30 C31 1_555 1_555

#END
