
#######################################################################
#
#                 Cambridge Crystallographic Data Centre
#                                CCDC 
#
#######################################################################
#
# If this CIF has been generated from an entry in the Cambridge 
# Structural Database, then it will include bibliographic, chemical, 
# crystal, experimental, refinement or atomic coordinate data resulting 
# from the CCDC's data processing and validation procedures.
#
#######################################################################

data_SEZSUO
_chemical_name_common            
'4-methyl-2-nitro-5-tosyl-5,5a,6,10b-tetrahydroindeno[2,1-b]indole unknown solvate'
_chemical_formula_moiety         'C23 H20 N2 O4 S1'
_chemical_name_systematic        
'4-methyl-5-[(4-methylphenyl)sulfonyl]-2-nitro-5,5a,6,10b-tetrahydroindeno[2,1-b]indole unknown solvate'
_symmetry_cell_setting           monoclinic
_symmetry_space_group_name_H-M   'P 21/c'
_symmetry_Int_Tables_number      14
_space_group_name_Hall           '-P 2ybc'
loop_
_symmetry_equiv_pos_site_id
_symmetry_equiv_pos_as_xyz
1 x,y,z
2 -x,1/2+y,1/2-z
3 -x,-y,-z
4 x,1/2-y,1/2+z
_cell_length_a                   12.0329(9)
_cell_length_b                   24.1681(14)
_cell_length_c                   8.5244(5)
_cell_angle_alpha                90
_cell_angle_beta                 103.965(7)
_cell_angle_gamma                90
_cell_volume                     2405.73
_exptl_crystal_colour            colorless
_exptl_crystal_description       block
_cell_formula_units_Z            4
loop_
_atom_site_label
_atom_site_type_symbol
_atom_site_fract_x
_atom_site_fract_y
_atom_site_fract_z
S1 S 0.69638(8) 0.16599(4) 0.85298(9)
O1 O 0.7584(3) -0.08170(13) 0.4453(4)
O2 O 0.7294(3) -0.03236(13) 0.2362(4)
O3 O 0.7287(2) 0.12339(10) 0.9725(2)
O4 O 0.6524(2) 0.21757(9) 0.8943(2)
N1 N 0.7259(3) -0.03931(15) 0.3737(5)
N2 N 0.5937(2) 0.13986(10) 0.7044(2)
C1 C 0.5521(3) 0.17974(13) 0.5659(3)
H1 H 0.5840 0.2167 0.5948
C2 C 0.4202(3) 0.18231(16) 0.5153(3)
H2 H 0.3866 0.1547 0.5725
H3 H 0.3928 0.2186 0.5369
C3 C 0.3917(3) 0.17062(14) 0.3377(4)
C4 C 0.2846(4) 0.17024(17) 0.2303(5)
H4 H 0.2192 0.1780 0.2662
C5 C 0.2763(4) 0.15825(18) 0.0706(5)
H5 H 0.2049 0.1581 -0.0019
C6 C 0.3711(5) 0.14662(17) 0.0173(5)
H6 H 0.3635 0.1388 -0.0916
C7 C 0.4777(4) 0.14610(15) 0.1205(4)
H7 H 0.5422 0.1379 0.0829
C8 C 0.4875(3) 0.15815(12) 0.2841(3)
C9 C 0.5939(3) 0.15648(12) 0.4210(3)
H8 H 0.6569 0.1781 0.3979
C10 C 0.6291(3) 0.09819(12) 0.4737(3)
C11 C 0.6194(3) 0.08876(12) 0.6314(3)
C12 C 0.6283(3) 0.03655(13) 0.6995(3)
C13 C 0.6641(3) -0.00529(13) 0.6115(4)
H9 H 0.6750 -0.0409 0.6538
C14 C 0.6835(3) 0.00568(14) 0.4619(4)
C15 C 0.6628(3) 0.05627(14) 0.3867(4)
H10 H 0.6713 0.0618 0.2822
C16 C 0.5974(4) 0.02188(15) 0.8579(4)
H11 H 0.6659 0.0198 0.9431
H12 H 0.5590 -0.0132 0.8469
H13 H 0.5478 0.0498 0.8833
C17 C 0.8149(3) 0.17902(13) 0.7721(3)
C18 C 0.8349(3) 0.23141(14) 0.7186(3)
H14 H 0.7856 0.2604 0.7260
C19 C 0.9278(3) 0.24035(15) 0.6544(4)
H15 H 0.9419 0.2757 0.6209
C20 C 1.0000(3) 0.19791(18) 0.6392(4)
C21 C 0.9806(3) 0.14588(16) 0.6925(4)
H16 H 1.0302 0.1171 0.6845
C22 C 0.8881(3) 0.13623(15) 0.7577(4)
H17 H 0.8749 0.1009 0.7922
C23 C 1.1031(4) 0.20827(19) 0.5656(5)
H18 H 1.0856 0.2380 0.4890
H19 H 1.1191 0.1753 0.5120
H20 H 1.1688 0.2179 0.6499
loop_
_geom_bond_atom_site_label_1
_geom_bond_atom_site_label_2
_geom_bond_site_symmetry_1
_geom_bond_site_symmetry_2
S1 O3 1_555 1_555
O1 N1 1_555 1_555
O2 N1 1_555 1_555
O4 S1 1_555 1_555
N1 C14 1_555 1_555
N2 S1 1_555 1_555
C1 N2 1_555 1_555
H1 C1 1_555 1_555
C2 C1 1_555 1_555
H2 C2 1_555 1_555
H3 C2 1_555 1_555
C3 C2 1_555 1_555
C4 C3 1_555 1_555
H4 C4 1_555 1_555
C5 C4 1_555 1_555
H5 C5 1_555 1_555
C6 C5 1_555 1_555
H6 C6 1_555 1_555
C7 C6 1_555 1_555
H7 C7 1_555 1_555
C8 C3 1_555 1_555
C9 C1 1_555 1_555
H8 C9 1_555 1_555
C10 C9 1_555 1_555
C11 N2 1_555 1_555
C12 C11 1_555 1_555
C13 C12 1_555 1_555
H9 C13 1_555 1_555
C14 C13 1_555 1_555
C15 C10 1_555 1_555
H10 C15 1_555 1_555
C16 C12 1_555 1_555
H11 C16 1_555 1_555
H12 C16 1_555 1_555
H13 C16 1_555 1_555
C17 S1 1_555 1_555
C18 C17 1_555 1_555
H14 C18 1_555 1_555
C19 C18 1_555 1_555
H15 C19 1_555 1_555
C20 C19 1_555 1_555
C21 C20 1_555 1_555
H16 C21 1_555 1_555
C22 C17 1_555 1_555
H17 C22 1_555 1_555
C23 C20 1_555 1_555
H18 C23 1_555 1_555
H19 C23 1_555 1_555
H20 C23 1_555 1_555
C7 C8 1_555 1_555
C8 C9 1_555 1_555
C10 C11 1_555 1_555
C14 C15 1_555 1_555
C21 C22 1_555 1_555

#END
