
#######################################################################
#
#                 Cambridge Crystallographic Data Centre
#                                CCDC 
#
#######################################################################
#
# If this CIF has been generated from an entry in the Cambridge 
# Structural Database, then it will include bibliographic, chemical, 
# crystal, experimental, refinement or atomic coordinate data resulting 
# from the CCDC's data processing and validation procedures.
#
#######################################################################

data_SEZVEZ
_chemical_formula_moiety         'C17 H16 N2 O5'
_chemical_name_systematic        '4-Nitrobenzyl 2-(anilinocarbonyl)propionate'
_symmetry_cell_setting           monoclinic
_symmetry_space_group_name_H-M   'P 21/c'
_symmetry_Int_Tables_number      14
_space_group_name_Hall           '-P 2ybc'
loop_
_symmetry_equiv_pos_site_id
_symmetry_equiv_pos_as_xyz
1 x,y,z
2 -x,1/2+y,1/2-z
3 -x,-y,-z
4 x,1/2-y,1/2+z
_cell_length_a                   15.867(3)
_cell_length_b                   4.8820(10)
_cell_length_c                   21.141(4)
_cell_angle_alpha                90
_cell_angle_beta                 101.46(3)
_cell_angle_gamma                90
_cell_volume                     1604.99
_exptl_crystal_colour            colorless
_exptl_crystal_description       prism
_cell_formula_units_Z            4
_exptl_crystal_recrystallization_method 'ethyl acetate'
loop_
_atom_site_label
_atom_site_type_symbol
_atom_site_fract_x
_atom_site_fract_y
_atom_site_fract_z
O1 O 0.24105(11) 1.6471(4) 0.25813(8)
O2 O 0.09811(9) 0.3825(3) -0.04763(8)
O3 O 0.11207(11) 1.6151(3) 0.27158(7)
O4 O 0.32665(8) 0.1317(2) -0.00692(7)
O5 O 0.17035(7) 0.7053(2) 0.01411(6)
N1 N 0.16959(12) 1.5506(3) 0.24452(7)
N2 N 0.36103(9) 0.5625(3) 0.02744(7)
H1 H 0.3453(12) 0.731(4) 0.0201(9)
C1 C 0.51264(18) 0.6251(6) 0.18205(14)
H2 H 0.5213(19) 0.726(6) 0.2171(15)
C2 C 0.57218(17) 0.4293(6) 0.17718(14)
H3 H 0.6235(17) 0.402(5) 0.2110(12)
C3 C 0.56214(15) 0.2728(5) 0.12302(14)
H4 H 0.6021(17) 0.145(5) 0.1176(11)
C4 C 0.49247(13) 0.3088(4) 0.07293(12)
H5 H 0.4856(15) 0.205(4) 0.0357(12)
C5 C 0.22312(18) 0.3249(4) -0.12244(10)
H6 H 0.2029(15) 0.150(5) -0.1140(11)
H7 H 0.2752(17) 0.308(5) -0.1400(12)
H8 H 0.1801(15) 0.418(5) -0.1529(11)
C6 C 0.44238(15) 0.6638(4) 0.13313(11)
H9 H 0.4005(16) 0.803(5) 0.1349(11)
C7 C 0.07285(12) 1.2211(3) 0.17932(9)
H10 H 0.0328(15) 1.275(4) 0.2034(11)
C8 C 0.21633(12) 1.2734(4) 0.16072(9)
H11 H 0.2689(14) 1.360(4) 0.1683(9)
C9 C 0.43183(10) 0.5063(3) 0.07821(8)
C10 C 0.31405(10) 0.3788(3) -0.01104(8)
C11 C 0.09743(11) 0.7475(4) 0.04406(9)
H12 H 0.0780(12) 0.574(4) 0.0611(9)
H13 H 0.0501(14) 0.803(4) 0.0127(10)
C12 C 0.15250(11) 1.3410(3) 0.19336(8)
C13 C 0.05670(12) 1.0289(4) 0.13072(9)
H14 H 0.0014(12) 0.946(3) 0.1212(8)
C14 C 0.16123(11) 0.5175(3) -0.03237(8)
C15 C 0.19936(11) 1.0819(3) 0.11216(9)
H15 H 0.2407(14) 1.038(4) 0.0900(9)
C16 C 0.24070(11) 0.4961(3) -0.06151(8)
H16 H 0.2571(11) 0.683(3) -0.0707(8)
C17 C 0.11946(10) 0.9570(3) 0.09643(8)
loop_
_geom_bond_atom_site_label_1
_geom_bond_atom_site_label_2
_geom_bond_site_symmetry_1
_geom_bond_site_symmetry_2
O1 N1 1_555 1_555
O2 C14 1_555 1_555
O3 N1 1_555 1_555
O4 C10 1_555 1_555
O5 C11 1_555 1_555
N1 C12 1_555 1_555
N2 H1 1_555 1_555
C1 H2 1_555 1_555
C2 C1 1_555 1_555
H3 C2 1_555 1_555
C3 C2 1_555 1_555
H4 C3 1_555 1_555
C4 C3 1_555 1_555
H5 C4 1_555 1_555
C5 H6 1_555 1_555
H7 C5 1_555 1_555
H8 C5 1_555 1_555
C6 C1 1_555 1_555
H9 C6 1_555 1_555
C7 H10 1_555 1_555
C8 H11 1_555 1_555
C9 N2 1_555 1_555
C10 N2 1_555 1_555
C11 H12 1_555 1_555
H13 C11 1_555 1_555
C12 C7 1_555 1_555
C13 C7 1_555 1_555
H14 C13 1_555 1_555
C14 O5 1_555 1_555
C15 C8 1_555 1_555
H15 C15 1_555 1_555
C16 C5 1_555 1_555
H16 C16 1_555 1_555
C17 C11 1_555 1_555
C4 C9 1_555 1_555
C6 C9 1_555 1_555
C8 C12 1_555 1_555
C10 C16 1_555 1_555
C13 C17 1_555 1_555
C14 C16 1_555 1_555
C15 C17 1_555 1_555

#END
