
#######################################################################
#
#                 Cambridge Crystallographic Data Centre
#                                CCDC 
#
#######################################################################
#
# If this CIF has been generated from an entry in the Cambridge 
# Structural Database, then it will include bibliographic, chemical, 
# crystal, experimental, refinement or atomic coordinate data resulting 
# from the CCDC's data processing and validation procedures.
#
#######################################################################

data_SEZXEC
_chemical_formula_moiety         'C50 H51 N3 O13'
_chemical_name_systematic        
'Methyl 4-((4-((3-(benzyloxy)-4-nitrobenzoyl)amino)-2-(2-(2-(2-methoxyethoxy)ethoxy)ethoxy)-5-(2-naphthylmethoxy)benzoyl)amino)-3-isopropoxybenzoate'
_symmetry_cell_setting           orthorhombic
_symmetry_space_group_name_H-M   'P 21 21 21'
_symmetry_Int_Tables_number      19
_space_group_name_Hall           'P 2ac 2ab'
loop_
_symmetry_equiv_pos_site_id
_symmetry_equiv_pos_as_xyz
1 x,y,z
2 1/2-x,-y,1/2+z
3 1/2+x,1/2-y,-z
4 -x,1/2+y,1/2-z
_cell_length_a                   10.0889(10)
_cell_length_b                   10.7013(12)
_cell_length_c                   42.258(5)
_cell_angle_alpha                90
_cell_angle_beta                 90
_cell_angle_gamma                90
_cell_volume                     4562.36
_exptl_crystal_colour            yellow
_exptl_crystal_description       plate
_cell_formula_units_Z            4
loop_
_atom_site_label
_atom_site_type_symbol
_atom_site_fract_x
_atom_site_fract_y
_atom_site_fract_z
C1 C -0.8363(7) 0.6835(6) 0.12974(16)
C2 C -0.7636(7) 0.6402(6) 0.15666(15)
C3 C -0.6324(7) 0.6020(6) 0.15202(15)
H1 H -0.5818 0.5722 0.1694
C4 C -0.5749(7) 0.6076(6) 0.12162(14)
C5 C -0.6486(8) 0.6464(7) 0.09582(15)
H2 H -0.6101 0.6477 0.0753
C6 C -0.7812(8) 0.6842(7) 0.10015(16)
H3 H -0.8325 0.7102 0.0825
O1 O -0.3856(5) 0.6051(6) 0.08944(12)
N1 N -0.3647(5) 0.5125(5) 0.13779(12)
H4 H -0.4076 0.4971 0.1555
C7 C -0.4345(7) 0.5736(7) 0.11445(15)
C8 C -0.2322(6) 0.4720(5) 0.13637(15)
C9 C -0.1773(7) 0.4235(6) 0.16456(15)
C10 C -0.0498(7) 0.3850(6) 0.16516(14)
H5 H -0.0125 0.3569 0.1845
C11 C 0.0299(7) 0.3858(6) 0.13722(14)
C12 C -0.0282(7) 0.4311(6) 0.10947(13)
C13 C -0.1554(7) 0.4747(6) 0.10961(15)
H6 H -0.1917 0.5079 0.0906
O2 O 0.2051(5) 0.3016(5) 0.16813(11)
N2 N 0.2487(6) 0.3322(5) 0.11532(12)
H7 H 0.2141 0.3604 0.0976
C14 C 0.1674(7) 0.3362(6) 0.14159(14)
C15 C 0.3782(7) 0.2891(6) 0.11348(15)
C16 C 0.4530(7) 0.2441(6) 0.13892(14)
H8 H 0.4143 0.2410 0.1594
C17 C 0.5825(7) 0.2039(6) 0.13479(15)
H9 H 0.6317 0.1733 0.1523
O3 O -1.0343(6) 0.7471(5) 0.10891(13)
C18 C 0.6404(7) 0.2085(6) 0.10480(15)
C19 C 0.5682(7) 0.2555(6) 0.07928(15)
H10 H 0.6083 0.2609 0.0590
C20 C 0.4390(7) 0.2941(6) 0.08334(14)
O4 O 0.3566(5) 0.3368(5) 0.05962(10)
C21 C 0.4082(9) 0.3381(9) 0.02707(16)
H11 H 0.4665 0.2637 0.0237
C22 C 0.4875(11) 0.4560(10) 0.0217(2)
H12 H 0.4271 0.5276 0.0202
H13 H 0.5381 0.4484 0.0020
H14 H 0.5486 0.4686 0.0395
C23 C 0.2829(10) 0.3261(11) 0.00608(19)
H15 H 0.2301 0.2545 0.0132
H16 H 0.3095 0.3137 -0.0160
H17 H 0.2299 0.4026 0.0078
O5 O 0.8332(5) 0.1730(5) 0.07347(11)
C24 C 0.7771(7) 0.1644(6) 0.09875(16)
O6 O 0.8330(5) 0.1113(5) 0.12417(11)
C25 C 0.9647(9) 0.0603(8) 0.1194(2)
H18 H 0.9626 -0.0002 0.1020
H19 H 0.9942 0.0184 0.1388
H20 H 1.0263 0.1280 0.1142
O7 O -0.8276(5) 0.6332(5) 0.18474(10)
N3 N -0.9710(7) 0.7324(6) 0.13340(15)
C26 C -0.7692(7) 0.5719(7) 0.21079(14)
H21 H -0.6849 0.6136 0.2165
H22 H -0.7495 0.4840 0.2052
C27 C -0.8629(7) 0.5762(6) 0.23822(15)
C28 C -0.9754(7) 0.6508(7) 0.23774(16)
H23 H -0.9967 0.6977 0.2193
C29 C -1.0567(8) 0.6570(7) 0.26408(17)
H24 H -1.1316 0.7108 0.2639
C30 C -1.0304(8) 0.5863(8) 0.29043(16)
H25 H -1.0859 0.5917 0.3086
C31 C -0.9259(9) 0.5097(8) 0.29026(18)
H26 H -0.9102 0.4580 0.3082
C32 C -0.8372(8) 0.5031(7) 0.26421(17)
H27 H -0.7622 0.4495 0.2647
O8 O -0.2638(5) 0.4203(5) 0.18996(10)
C33 C -0.2188(7) 0.3559(7) 0.21794(15)
H28 H -0.1512 0.4069 0.2290
H29 H -0.1779 0.2752 0.2120
C34 C -0.3327(7) 0.3338(6) 0.23918(14)
O9 O -1.0134(7) 0.7627(9) 0.15881(14)
C35 C -0.4378(7) 0.2511(7) 0.22990(15)
H30 H -0.4351 0.2137 0.2095
C36 C -0.5416(8) 0.2247(8) 0.24954(16)
H31 H -0.6099 0.1697 0.2428
C37 C -0.5470(7) 0.2812(6) 0.28089(16)
C38 C -0.6535(8) 0.2526(7) 0.30168(18)
H32 H -0.7230 0.1976 0.2956
C39 C -0.6513(9) 0.3099(8) 0.3320(2)
H33 H -0.7209 0.2929 0.3465
C40 C -0.5494(10) 0.3904(7) 0.34099(19)
H34 H -0.5493 0.4255 0.3616
C41 C -0.4502(9) 0.4193(8) 0.32050(18)
H35 H -0.3847 0.4784 0.3266
C42 C -0.4427(7) 0.3628(6) 0.29024(15)
C43 C -0.3372(7) 0.3871(6) 0.26854(15)
H36 H -0.2680 0.4421 0.2747
O10 O 0.0496(5) 0.4313(5) 0.08213(10)
C44 C -0.0176(7) 0.4347(7) 0.05187(14)
H37 H -0.1069 0.3977 0.0543
H38 H 0.0322 0.3826 0.0366
C45 C -0.0315(9) 0.5652(8) 0.03851(17)
H39 H -0.0854 0.5625 0.0189
H40 H -0.0776 0.6193 0.0540
O11 O 0.0949(7) 0.6153(5) 0.03171(12)
O12 O 0.0156(14) 0.6574(11) -0.0321(2)
C46 C 0.0949(19) 0.7315(10) 0.0151(2)
H41 H 0.1506 0.7934 0.0263
H42 H 0.0037 0.7649 0.0135
C47 C 0.150(2) 0.7063(16) -0.0176(4)
H43 H 0.2205 0.6416 -0.0175
H44 H 0.1829 0.7830 -0.0281
C48 C 0.0401(12) 0.5670(12) -0.0565(3)
H45 H 0.0813 0.4904 -0.0478
H46 H 0.0982 0.6017 -0.0732
C49 C -0.0997(12) 0.5403(12) -0.0693(3)
H47 H -0.1422 0.6198 -0.0757
H48 H -0.0933 0.4862 -0.0882
O13 O -0.1719(17) 0.4854(16) -0.0479(4)
C50 C -0.295(3) 0.448(3) -0.0571(7)
H49 H -0.3401 0.4079 -0.0393
H50 H -0.2866 0.3878 -0.0746
H51 H -0.3460 0.5203 -0.0642
loop_
_geom_bond_atom_site_label_1
_geom_bond_atom_site_label_2
_geom_bond_site_symmetry_1
_geom_bond_site_symmetry_2
C1 C2 1_555 1_555
C2 C3 1_555 1_555
C3 H1 1_555 1_555
C4 C3 1_555 1_555
C5 C4 1_555 1_555
H2 C5 1_555 1_555
C6 C1 1_555 1_555
H3 C6 1_555 1_555
O1 C7 1_555 1_555
N1 H4 1_555 1_555
C7 C4 1_555 1_555
C8 N1 1_555 1_555
C9 C8 1_555 1_555
C10 C9 1_555 1_555
H5 C10 1_555 1_555
C11 C10 1_555 1_555
C12 C11 1_555 1_555
C13 C8 1_555 1_555
H6 C13 1_555 1_555
O2 C14 1_555 1_555
N2 H7 1_555 1_555
C14 C11 1_555 1_555
C15 N2 1_555 1_555
C16 C15 1_555 1_555
H8 C16 1_555 1_555
C17 C16 1_555 1_555
H9 C17 1_555 1_555
O3 N3 1_555 1_555
C18 C17 1_555 1_555
C19 C18 1_555 1_555
H10 C19 1_555 1_555
C20 C15 1_555 1_555
O4 C20 1_555 1_555
C21 O4 1_555 1_555
H11 C21 1_555 1_555
C22 C21 1_555 1_555
H12 C22 1_555 1_555
H13 C22 1_555 1_555
H14 C22 1_555 1_555
C23 C21 1_555 1_555
H15 C23 1_555 1_555
H16 C23 1_555 1_555
H17 C23 1_555 1_555
O5 C24 1_555 1_555
C24 C18 1_555 1_555
O6 C24 1_555 1_555
C25 O6 1_555 1_555
H18 C25 1_555 1_555
H19 C25 1_555 1_555
H20 C25 1_555 1_555
O7 C2 1_555 1_555
N3 C1 1_555 1_555
C26 O7 1_555 1_555
H21 C26 1_555 1_555
H22 C26 1_555 1_555
C27 C26 1_555 1_555
C28 C27 1_555 1_555
H23 C28 1_555 1_555
C29 C28 1_555 1_555
H24 C29 1_555 1_555
C30 C29 1_555 1_555
H25 C30 1_555 1_555
C31 C30 1_555 1_555
H26 C31 1_555 1_555
C32 C27 1_555 1_555
H27 C32 1_555 1_555
O8 C9 1_555 1_555
C33 O8 1_555 1_555
H28 C33 1_555 1_555
H29 C33 1_555 1_555
C34 C33 1_555 1_555
O9 N3 1_555 1_555
C35 C34 1_555 1_555
H30 C35 1_555 1_555
C36 C35 1_555 1_555
H31 C36 1_555 1_555
C37 C36 1_555 1_555
C38 C37 1_555 1_555
H32 C38 1_555 1_555
C39 C38 1_555 1_555
H33 C39 1_555 1_555
C40 C39 1_555 1_555
H34 C40 1_555 1_555
C41 C40 1_555 1_555
H35 C41 1_555 1_555
C42 C37 1_555 1_555
C43 C34 1_555 1_555
H36 C43 1_555 1_555
O10 C12 1_555 1_555
C44 O10 1_555 1_555
H37 C44 1_555 1_555
H38 C44 1_555 1_555
C45 C44 1_555 1_555
H39 C45 1_555 1_555
H40 C45 1_555 1_555
O11 C45 1_555 1_555
O12 C47 1_555 1_555
C46 O11 1_555 1_555
H41 C46 1_555 1_555
H42 C46 1_555 1_555
C47 C46 1_555 1_555
H43 C47 1_555 1_555
H44 C47 1_555 1_555
C48 O12 1_555 1_555
H45 C48 1_555 1_555
H46 C48 1_555 1_555
C49 C48 1_555 1_555
H47 C49 1_555 1_555
H48 C49 1_555 1_555
O13 C49 1_555 1_555
C50 O13 1_555 1_555
H49 C50 1_555 1_555
H50 C50 1_555 1_555
H51 C50 1_555 1_555
C5 C6 1_555 1_555
N1 C7 1_555 1_555
C12 C13 1_555 1_555
N2 C14 1_555 1_555
C19 C20 1_555 1_555
C31 C32 1_555 1_555
C41 C42 1_555 1_555
C42 C43 1_555 1_555

#END
