
#######################################################################
#
#                 Cambridge Crystallographic Data Centre
#                                CCDC 
#
#######################################################################
#
# If this CIF has been generated from an entry in the Cambridge 
# Structural Database, then it will include bibliographic, chemical, 
# crystal, experimental, refinement or atomic coordinate data resulting 
# from the CCDC's data processing and validation procedures.
#
#######################################################################

data_SEZXIG
_chemical_formula_moiety         'C36 H40 N2 O11'
_chemical_name_systematic        
'Methyl 3-isopropoxy-4-((2-(2-(2-(2-methoxyethoxy)ethoxy)ethoxy)-5-(2-naphthylmethoxy)-4-nitrobenzoyl)amino)benzoate'
_symmetry_cell_setting           triclinic
_symmetry_space_group_name_H-M   'P -1'
_symmetry_Int_Tables_number      2
_space_group_name_Hall           '-P 1'
loop_
_symmetry_equiv_pos_site_id
_symmetry_equiv_pos_as_xyz
1 x,y,z
2 -x,-y,-z
_cell_length_a                   7.4105(7)
_cell_length_b                   14.7799(15)
_cell_length_c                   17.7449(17)
_cell_angle_alpha                113.771(5)
_cell_angle_beta                 96.518(4)
_cell_angle_gamma                92.914(5)
_cell_volume                     1757.16
_exptl_crystal_colour            yellow
_cell_formula_units_Z            2
loop_
_atom_site_label
_atom_site_type_symbol
_atom_site_fract_x
_atom_site_fract_y
_atom_site_fract_z
O1 O 0.9199(4) 0.02316(15) 0.58341(13)
N1 N 0.9381(3) 0.10315(15) 0.64317(11)
C1 C 0.9013(3) 0.19356(16) 0.62901(12)
H1 H 0.805(3) 0.3999(14) 0.4662(13)
O2 O 0.9867(4) 0.11039(18) 0.71318(12)
C2 C 0.8578(3) 0.28027(17) 0.69292(12)
C3 C 0.8242(3) 0.36111(16) 0.67300(12)
H2 H 0.7981 0.4210 0.7155
C4 C 0.8276(2) 0.35723(14) 0.59219(11)
C5 C 0.8682(2) 0.26787(14) 0.52867(10)
C6 C 0.9061(3) 0.18671(15) 0.54791(11)
H3 H 0.9350 0.1271 0.5060
O3 O 0.7504(2) 0.52511(12) 0.64612(9)
N2 N 0.7801(2) 0.45474(12) 0.50661(10)
C7 C 0.7828(3) 0.45351(14) 0.58400(11)
C8 C 0.7342(2) 0.53310(14) 0.48349(12)
C9 C 0.6822(3) 0.62491(15) 0.53797(13)
H4 H 0.6759 0.6375 0.5944
C10 C 0.6400(3) 0.69709(15) 0.50838(14)
H5 H 0.6039 0.7583 0.5450
C11 C 0.6501(3) 0.68026(15) 0.42545(14)
C12 C 0.6993(3) 0.58852(15) 0.36988(13)
H6 H 0.7046 0.5767 0.3135
C13 C 0.7404(3) 0.51492(14) 0.39835(12)
O4 O 0.7924(2) 0.42273(10) 0.35044(8)
C14 C 0.7665(3) 0.38760(16) 0.25912(12)
H7 H 0.8136 0.4418 0.2441
C15 C 0.5637(4) 0.3585(2) 0.22479(15)
H8 H 0.5177 0.3052 0.2394
H9 H 0.5469 0.3351 0.1641
H10 H 0.4964 0.4164 0.2488
C16 C 0.8808(4) 0.30040(19) 0.22752(14)
H11 H 1.0065 0.3212 0.2565
H12 H 0.8807 0.2788 0.1675
H13 H 0.8287 0.2452 0.2382
C17 C 0.6109(3) 0.75944(17) 0.39470(17)
O5 O 0.573(3) 0.8437(9) 0.4401(10)
O6 O 0.608(4) 0.7357(16) 0.3118(11)
C18 C 0.5784(8) 0.8117(4) 0.2798(5)
H14 H 0.4534 0.8297 0.2846
H15 H 0.5963 0.7855 0.2212
H16 H 0.6652 0.8707 0.3122
O7 O 0.8421(3) 0.27902(13) 0.76936(9)
C19 C 0.7977(4) 0.3688(2) 0.83376(13)
H17 H 0.7542 0.3503 0.8769
H18 H 0.6927 0.3915 0.8090
C20 C 0.9652(7) 0.4451(5) 0.8710(3)
C21 C 1.1486(7) 0.4182(4) 0.8686(3)
H19 H 1.1673 0.3505 0.8388
C22 C 1.2984(7) 0.4876(5) 0.9081(4)
H20 H 1.4167 0.4657 0.9047
C23 C 1.2845(11) 0.5858(5) 0.9517(6)
C24 C 1.4535(12) 0.6536(8) 0.9964(5)
H21 H 1.5712 0.6312 0.9980
C25 C 1.4239(17) 0.7515(8) 1.0354(6)
H22 H 1.5278 0.7984 1.0636
C26 C 1.256(2) 0.7873(8) 1.0369(7)
H23 H 1.2457 0.8564 1.0652
C27 C 1.1056(18) 0.7229(7) 0.9975(5)
H24 H 0.9918 0.7501 1.0002
C28 C 1.1000(9) 0.6228(4) 0.9542(4)
C29 C 0.9461(7) 0.5451(5) 0.9104(4)
H25 H 0.8263 0.5650 0.9093
O8 O 0.86960(18) 0.26554(9) 0.44986(7)
C30 C 0.8943(3) 0.17215(14) 0.38198(11)
H26 H 0.9960 0.1419 0.4010
H27 H 0.9284 0.1859 0.3350
C31 C 0.7229(3) 0.09860(15) 0.35175(12)
H28 H 0.7523 0.0320 0.3148
H29 H 0.6750 0.0933 0.3998
O9 O 0.5878(2) 0.13231(11) 0.30736(9)
C32 C 0.4173(3) 0.07050(18) 0.28398(13)
H30 H 0.3660 0.0753 0.3344
H31 H 0.4369 0.0003 0.2519
C33 C 0.2847(3) 0.1046(2) 0.23120(14)
H32 H 0.1589 0.0754 0.2272
H33 H 0.2877 0.1779 0.2573
O10 O 0.3365(2) 0.07316(13) 0.14954(9)
C34 C 0.2222(3) 0.1037(2) 0.09478(15)
H34 H 0.2379 0.1769 0.1149
H35 H 0.0922 0.0822 0.0925
C35 C 0.2802(4) 0.0548(2) 0.00893(15)
H36 H 0.4107 0.0760 0.0120
H37 H 0.2653 -0.0184 -0.0103
O11 O 0.1726(3) 0.08186(16) -0.04853(12)
C36 C 0.2129(5) 0.0303(3) -0.13293(18)
H38 H 0.3444 0.0409 -0.1333
H39 H 0.1460 0.0563 -0.1695
H40 H 0.1755 -0.0410 -0.1529
O12? O 0.632(4) 0.7453(16) 0.3233(11)
O13? O 0.566(2) 0.8415(9) 0.4533(9)
C37? C 0.5496(8) 0.9235(4) 0.4297(4)
H41? H 0.6713 0.9506 0.4273
H42? H 0.4914 0.9753 0.4708
H43? H 0.4749 0.9003 0.3748
C38? C 0.943(3) 0.4595(13) 0.8789(6)
C39? C 1.117(3) 0.4348(15) 0.8784(11)
H44? H 1.1400 0.3675 0.8508
C40? C 1.264(3) 0.5106(16) 0.9195(15)
H45? H 1.3846 0.4924 0.9210
C41? C 1.239(3) 0.6063(11) 0.9560(16)
C42? C 1.3889(17) 0.6838(9) 0.9972(8)
H46? H 1.5122 0.6697 0.9944
C43? C 1.3448(18) 0.7810(9) 1.0418(12)
H47? H 1.4390 0.8330 1.0737
C44? C 1.1619(15) 0.8009(9) 1.0390(12)
H48? H 1.1338 0.8674 1.0656
C45? C 1.0213(16) 0.7252(8) 0.9980(9)
H49? H 0.8987 0.7406 1.0008
C46? C 1.053(3) 0.6295(11) 0.9538(14)
C47? C 0.896(3) 0.5537(11) 0.9097(10)
H50? H 0.7745 0.5693 0.9034
loop_
_geom_bond_atom_site_label_1
_geom_bond_atom_site_label_2
_geom_bond_site_symmetry_1
_geom_bond_site_symmetry_2
O1 N1 1_555 1_555
N1 C1 1_555 1_555
C1 C2 1_555 1_555
H1 N2 1_555 1_555
O2 N1 1_555 1_555
C2 C3 1_555 1_555
C3 H2 1_555 1_555
C4 C3 1_555 1_555
C5 C4 1_555 1_555
C6 C1 1_555 1_555
H3 C6 1_555 1_555
O3 C7 1_555 1_555
N2 C7 1_555 1_555
C7 C4 1_555 1_555
C8 N2 1_555 1_555
C9 C8 1_555 1_555
H4 C9 1_555 1_555
C10 C9 1_555 1_555
H5 C10 1_555 1_555
C11 C10 1_555 1_555
C12 C11 1_555 1_555
H6 C12 1_555 1_555
C13 C8 1_555 1_555
O4 C13 1_555 1_555
C14 O4 1_555 1_555
H7 C14 1_555 1_555
C15 C14 1_555 1_555
H8 C15 1_555 1_555
H9 C15 1_555 1_555
H10 C15 1_555 1_555
C16 C14 1_555 1_555
H11 C16 1_555 1_555
H12 C16 1_555 1_555
H13 C16 1_555 1_555
C17 C11 1_555 1_555
O5 C17 1_555 1_555
O6 C17 1_555 1_555
C18 O6 1_555 1_555
H14 C18 1_555 1_555
H15 C18 1_555 1_555
H16 C18 1_555 1_555
O7 C2 1_555 1_555
C19 O7 1_555 1_555
H17 C19 1_555 1_555
H18 C19 1_555 1_555
C20 C19 1_555 1_555
C21 C20 1_555 1_555
H19 C21 1_555 1_555
C22 C21 1_555 1_555
H20 C22 1_555 1_555
C23 C22 1_555 1_555
C24 C23 1_555 1_555
H21 C24 1_555 1_555
C25 C24 1_555 1_555
H22 C25 1_555 1_555
C26 C25 1_555 1_555
H23 C26 1_555 1_555
C27 C26 1_555 1_555
H24 C27 1_555 1_555
C28 C23 1_555 1_555
C29 C20 1_555 1_555
H25 C29 1_555 1_555
O8 C5 1_555 1_555
C30 O8 1_555 1_555
H26 C30 1_555 1_555
H27 C30 1_555 1_555
C31 C30 1_555 1_555
H28 C31 1_555 1_555
H29 C31 1_555 1_555
O9 C31 1_555 1_555
C32 O9 1_555 1_555
H30 C32 1_555 1_555
H31 C32 1_555 1_555
C33 C32 1_555 1_555
H32 C33 1_555 1_555
H33 C33 1_555 1_555
O10 C33 1_555 1_555
C34 O10 1_555 1_555
H34 C34 1_555 1_555
H35 C34 1_555 1_555
C35 C34 1_555 1_555
H36 C35 1_555 1_555
H37 C35 1_555 1_555
O11 C35 1_555 1_555
C36 O11 1_555 1_555
H38 C36 1_555 1_555
H39 C36 1_555 1_555
H40 C36 1_555 1_555
C5 C6 1_555 1_555
C12 C13 1_555 1_555
C27 C28 1_555 1_555
C28 C29 1_555 1_555

#END
