
#######################################################################
#
#                 Cambridge Crystallographic Data Centre
#                                CCDC 
#
#######################################################################
#
# If this CIF has been generated from an entry in the Cambridge 
# Structural Database, then it will include bibliographic, chemical, 
# crystal, experimental, refinement or atomic coordinate data resulting 
# from the CCDC's data processing and validation procedures.
#
#######################################################################

data_SIBBIR
_chemical_formula_moiety         'C30 H30 Cl2 Li1 N4 O4 1+,Cl1 O4 1-'
_chemical_name_systematic        
'bis(2-((5-chloroquinolin-8-yl)oxy)-1-(pyrrolidin-1-yl)ethan-1-one)-lithium perchlorate'
_symmetry_cell_setting           monoclinic
_symmetry_space_group_name_H-M   'P 2/n'
_symmetry_Int_Tables_number      13
_space_group_name_Hall           '-P 2yac'
loop_
_symmetry_equiv_pos_site_id
_symmetry_equiv_pos_as_xyz
1 x,y,z
2 1/2-x,y,1/2-z
3 -x,-y,-z
4 1/2+x,-y,1/2+z
_cell_length_a                   13.154(2)
_cell_length_b                   9.2366(13)
_cell_length_c                   14.280(2)
_cell_angle_alpha                90
_cell_angle_beta                 114.440(2)
_cell_angle_gamma                90
_cell_volume                     1579.53
_exptl_crystal_colour            colorless
_exptl_crystal_description       rod
_cell_formula_units_Z            2
loop_
_atom_site_label
_atom_site_type_symbol
_atom_site_fract_x
_atom_site_fract_y
_atom_site_fract_z
Li1 Li 0.2500 0.4056(13) 0.7500
C1 C 0.2048(4) 0.1776(5) 0.9012(4)
H1 H 0.1300 0.1878 0.8563
C2 C 0.2310(4) 0.0863(5) 0.9860(4)
H2 H 0.1747 0.0359 0.9953
C3 C 0.3384(4) 0.0713(5) 1.0548(4)
H3 H 0.3568 0.0104 1.1113
C4 C 0.4221(4) 0.1501(4) 1.0390(3)
C5 C 0.5378(4) 0.1502(5) 1.1065(3)
C6 C 0.6133(4) 0.2295(5) 1.0871(3)
H4 H 0.6880 0.2285 1.1334
C7 C 0.5793(4) 0.3134(5) 0.9971(4)
H5 H 0.6316 0.3671 0.9837
C8 C 0.4701(3) 0.3162(4) 0.9297(3)
C9 C 0.3875(3) 0.2364(4) 0.9496(3)
C10 C 0.4985(3) 0.4753(5) 0.8109(3)
H6 H 0.5514 0.4128 0.7993
H7 H 0.5395 0.5451 0.8639
C11 C 0.4242(3) 0.5511(4) 0.7129(3)
C12 C 0.5986(4) 0.6391(8) 0.7023(5)
H8 H 0.6351 0.5454 0.7142
H9 H 0.6294 0.6951 0.7654
C13 C 0.6112(5) 0.7173(10) 0.6164(6)
H10 H 0.6723 0.7859 0.6434
H11 H 0.6268 0.6492 0.5723
C14 C 0.5059(5) 0.7933(10) 0.5581(7)
H12 H 0.4926 0.8006 0.4862
H13 H 0.5082 0.8901 0.5852
C15 C 0.4145(4) 0.7049(7) 0.5697(4)
H14 H 0.3583 0.7668 0.5764
H15 H 0.3789 0.6402 0.5117
N1 N 0.2792(3) 0.2500(4) 0.8808(3)
N2 N 0.4767(3) 0.6230(4) 0.6656(3)
O1 O 0.4254(2) 0.3929(4) 0.8401(2)
O2 O 0.3222(2) 0.5461(3) 0.6810(3)
Cl1 Cl 0.58395(13) 0.04560(16) 1.21766(10)
C1A C 0.2952(4) 0.1776(5) 0.5988(4)
H1A H 0.3700 0.1878 0.6437
C2A C 0.2690(4) 0.0863(5) 0.5140(4)
H2A H 0.3253 0.0359 0.5047
C3A C 0.1616(4) 0.0713(5) 0.4452(4)
H3A H 0.1432 0.0104 0.3887
C4A C 0.0779(4) 0.1501(4) 0.4610(3)
C5A C -0.0378(4) 0.1502(5) 0.3935(3)
C6A C -0.1133(4) 0.2295(5) 0.4129(3)
H4A H -0.1880 0.2285 0.3666
C7A C -0.0793(4) 0.3134(5) 0.5029(4)
H5A H -0.1316 0.3671 0.5163
C8A C 0.0299(3) 0.3162(4) 0.5703(3)
C9A C 0.1125(3) 0.2364(4) 0.5504(3)
C10A C 0.0015(3) 0.4753(5) 0.6891(3)
H6A H -0.0514 0.4128 0.7007
H7A H -0.0395 0.5451 0.6361
C11A C 0.0758(3) 0.5511(4) 0.7871(3)
C12A C -0.0986(4) 0.6391(8) 0.7977(5)
H8A H -0.1351 0.5454 0.7858
H9A H -0.1294 0.6951 0.7346
C13A C -0.1112(5) 0.7173(10) 0.8836(6)
H10A H -0.1723 0.7859 0.8566
H11A H -0.1268 0.6492 0.9277
C14A C -0.0059(5) 0.7933(10) 0.9419(7)
H12A H 0.0074 0.8006 1.0138
H13A H -0.0082 0.8901 0.9148
C15A C 0.0855(4) 0.7049(7) 0.9303(4)
H14A H 0.1417 0.7668 0.9236
H15A H 0.1211 0.6402 0.9883
N1A N 0.2208(3) 0.2500(4) 0.6192(3)
N2A N 0.0233(3) 0.6230(4) 0.8344(3)
O1A O 0.0746(2) 0.3929(4) 0.6599(2)
O2A O 0.1778(2) 0.5461(3) 0.8190(3)
Cl1A Cl -0.08395(13) 0.04560(16) 0.28234(10)
O3 O 0.8086(9) 0.0754(10) 0.7996(10)
O4 O 0.7348(11) 0.2737(13) 0.8284(8)
Cl2 Cl 0.7500 0.1977(2) 0.7500
O3A O 0.6914(9) 0.0754(10) 0.7004(10)
O4A O 0.7652(11) 0.2737(13) 0.6716(8)
loop_
_geom_bond_atom_site_label_1
_geom_bond_atom_site_label_2
_geom_bond_site_symmetry_1
_geom_bond_site_symmetry_2
Li1 N1 1_555 1_555
C1 H1 1_555 1_555
C2 C1 1_555 1_555
H2 C2 1_555 1_555
C3 C2 1_555 1_555
H3 C3 1_555 1_555
C4 C3 1_555 1_555
C5 C4 1_555 1_555
C6 C5 1_555 1_555
H4 C6 1_555 1_555
C7 C6 1_555 1_555
H5 C7 1_555 1_555
C8 C7 1_555 1_555
C9 C4 1_555 1_555
C10 H6 1_555 1_555
H7 C10 1_555 1_555
C11 C10 1_555 1_555
C12 H8 1_555 1_555
H9 C12 1_555 1_555
C13 C12 1_555 1_555
H10 C13 1_555 1_555
H11 C13 1_555 1_555
C14 C13 1_555 1_555
H12 C14 1_555 1_555
H13 C14 1_555 1_555
C15 C14 1_555 1_555
H14 C15 1_555 1_555
H15 C15 1_555 1_555
N1 C1 1_555 1_555
N2 C11 1_555 1_555
O1 Li1 1_555 1_555
O2 Li1 1_555 1_555
Cl1 C5 1_555 1_555
O3 Cl2 1_555 1_555
O4 Cl2 1_555 1_555
Cl2 O3A 1_555 1_555
C1A H1A 1_555 1_555
C2A C1A 1_555 1_555
H2A C2A 1_555 1_555
C3A C2A 1_555 1_555
H3A C3A 1_555 1_555
C4A C3A 1_555 1_555
C5A C4A 1_555 1_555
C6A C5A 1_555 1_555
H4A C6A 1_555 1_555
C7A C6A 1_555 1_555
H5A C7A 1_555 1_555
C8A C7A 1_555 1_555
C9A C4A 1_555 1_555
C10A H6A 1_555 1_555
H7A C10A 1_555 1_555
C11A C10A 1_555 1_555
C12A H8A 1_555 1_555
H9A C12A 1_555 1_555
C13A C12A 1_555 1_555
H10A C13A 1_555 1_555
H11A C13A 1_555 1_555
C14A C13A 1_555 1_555
H12A C14A 1_555 1_555
H13A C14A 1_555 1_555
C15A C14A 1_555 1_555
H14A C15A 1_555 1_555
H15A C15A 1_555 1_555
N1A Li1 1_555 1_555
N2A C11A 1_555 1_555
O1A Li1 1_555 1_555
O2A Li1 1_555 1_555
Cl1A C5A 1_555 1_555
O4A Cl2 1_555 1_555
C8 C9 1_555 1_555
C8 O1 1_555 1_555
C9 N1 1_555 1_555
C10 O1 1_555 1_555
C11 O2 1_555 1_555
C12 N2 1_555 1_555
C15 N2 1_555 1_555
C1A N1A 1_555 1_555
C8A C9A 1_555 1_555
C8A O1A 1_555 1_555
C9A N1A 1_555 1_555
C10A O1A 1_555 1_555
C11A O2A 1_555 1_555
C12A N2A 1_555 1_555
C15A N2A 1_555 1_555

#END
