
#######################################################################
#
#                 Cambridge Crystallographic Data Centre
#                                CCDC 
#
#######################################################################
#
# If this CIF has been generated from an entry in the Cambridge 
# Structural Database, then it will include bibliographic, chemical, 
# crystal, experimental, refinement or atomic coordinate data resulting 
# from the CCDC's data processing and validation procedures.
#
#######################################################################

data_SIBCEM
_chemical_formula_moiety         'C16 H20 F1 N3 O2 S1'
_chemical_name_systematic        
N-(4-(4-Fluorophenyl)-5-methyl-6-isoproylpyrimidin-2-yl)-N-methylmethanesulfonamide
_symmetry_cell_setting           orthorhombic
_symmetry_space_group_name_H-M   'P b c a'
_symmetry_Int_Tables_number      61
_space_group_name_Hall           '-P 2ac 2ab'
loop_
_symmetry_equiv_pos_site_id
_symmetry_equiv_pos_as_xyz
1 x,y,z
2 1/2-x,-y,1/2+z
3 -x,1/2+y,1/2-z
4 1/2+x,1/2-y,-z
5 -x,-y,-z
6 1/2+x,y,1/2-z
7 x,1/2-y,1/2+z
8 1/2-x,1/2+y,z
_cell_length_a                   7.8904(13)
_cell_length_b                   16.046(3)
_cell_length_c                   26.101(4)
_cell_angle_alpha                90
_cell_angle_beta                 90
_cell_angle_gamma                90
_cell_volume                     3304.63
_exptl_crystal_colour            colorless
_exptl_crystal_description       block
_chemical_melting_point          '404-405.4 K'
_cell_formula_units_Z            8
_exptl_crystal_recrystallization_method 'ethyl acetate'
loop_
_atom_site_label
_atom_site_type_symbol
_atom_site_fract_x
_atom_site_fract_y
_atom_site_fract_z
S1 S -0.00351(9) 0.03617(4) 0.33221(2)
F1 F 0.0040(2) 0.32280(13) 0.67357(6)
O1 O -0.0521(3) -0.04936(10) 0.33514(7)
O2 O 0.1686(2) 0.05468(11) 0.32126(7)
N1 N -0.0549(3) 0.07649(12) 0.38883(7)
N2 N -0.0085(2) 0.17665(11) 0.45139(7)
N3 N 0.0293(2) 0.20917(12) 0.36331(7)
C1 C -0.1342(4) 0.08533(18) 0.28768(10)
H1 H -0.1088 0.1438 0.2869
H2 H -0.2506 0.0775 0.2972
H3 H -0.1152 0.0617 0.2544
C2 C -0.1321(4) 0.02340(15) 0.42749(10)
H4 H -0.0464 0.0037 0.4506
H5 H -0.1858 -0.0233 0.4111
H6 H -0.2152 0.0547 0.4462
C3 C -0.0073(3) 0.15850(13) 0.40186(9)
C4 C 0.0405(3) 0.25489(14) 0.46371(9)
C5 C 0.0975(3) 0.31127(14) 0.42683(9)
C6 C 0.0846(3) 0.28544(14) 0.37553(9)
C7 C 0.1274(3) 0.34220(15) 0.33112(9)
H7 H 0.2331 0.3713 0.3395
C8 C -0.0108(4) 0.4076(2) 0.32497(12)
H8 H -0.1159 0.3806 0.3166
H9 H 0.0196 0.4453 0.2979
H10 H -0.0232 0.4380 0.3564
C9 C 0.1541(5) 0.29629(19) 0.28100(10)
H11 H 0.2342 0.2520 0.2860
H12 H 0.1968 0.3343 0.2557
H13 H 0.0482 0.2735 0.2695
C10 C 0.1765(4) 0.39377(15) 0.44112(10)
H14 H 0.0898 0.4356 0.4432
H15 H 0.2579 0.4094 0.4155
H16 H 0.2320 0.3887 0.4737
C11 C 0.0311(3) 0.27432(14) 0.51954(9)
C12 C 0.0938(3) 0.21860(15) 0.55505(9)
H17 H 0.1424 0.1692 0.5437
C13 C 0.0863(4) 0.23422(17) 0.60699(10)
H18 H 0.1309 0.1966 0.6305
C14 C 0.0116(3) 0.30636(18) 0.62289(10)
C15 C -0.0577(4) 0.36233(16) 0.58948(10)
H19 H -0.1116 0.4101 0.6014
C16 C -0.0459(3) 0.34639(15) 0.53774(10)
H20 H -0.0903 0.3846 0.5145
loop_
_geom_bond_atom_site_label_1
_geom_bond_atom_site_label_2
_geom_bond_site_symmetry_1
_geom_bond_site_symmetry_2
S1 O1 1_555 1_555
F1 C14 1_555 1_555
O2 S1 1_555 1_555
N1 S1 1_555 1_555
N2 C3 1_555 1_555
N3 C3 1_555 1_555
C1 S1 1_555 1_555
H1 C1 1_555 1_555
H2 C1 1_555 1_555
H3 C1 1_555 1_555
C2 N1 1_555 1_555
H4 C2 1_555 1_555
H5 C2 1_555 1_555
H6 C2 1_555 1_555
C3 N1 1_555 1_555
C4 N2 1_555 1_555
C5 C4 1_555 1_555
C6 N3 1_555 1_555
C7 C6 1_555 1_555
H7 C7 1_555 1_555
C8 C7 1_555 1_555
H8 C8 1_555 1_555
H9 C8 1_555 1_555
H10 C8 1_555 1_555
C9 C7 1_555 1_555
H11 C9 1_555 1_555
H12 C9 1_555 1_555
H13 C9 1_555 1_555
C10 C5 1_555 1_555
H14 C10 1_555 1_555
H15 C10 1_555 1_555
H16 C10 1_555 1_555
C11 C4 1_555 1_555
C12 C11 1_555 1_555
H17 C12 1_555 1_555
C13 C12 1_555 1_555
H18 C13 1_555 1_555
C14 C13 1_555 1_555
C15 C14 1_555 1_555
H19 C15 1_555 1_555
C16 C11 1_555 1_555
H20 C16 1_555 1_555
C5 C6 1_555 1_555
C15 C16 1_555 1_555

#END
