
#######################################################################
#
#                 Cambridge Crystallographic Data Centre
#                                CCDC 
#
#######################################################################
#
# If this CIF has been generated from an entry in the Cambridge 
# Structural Database, then it will include bibliographic, chemical, 
# crystal, experimental, refinement or atomic coordinate data resulting 
# from the CCDC's data processing and validation procedures.
#
#######################################################################

data_SIBDIR
_chemical_name_common            
'bis[Cyclohexane-1,4-diammonium 1,3,5,7-tetrahydroxy-1,3,5,7-tetrabory-2,4,6,8,9-pentaoxy-[08.1$1,5!]bicycle] pentahydrate clathrate'
_chemical_formula_moiety         '2(C6 H16 N2 2+),2(H4 B4 O9 2-),5(H2 O1)'
_chemical_name_systematic        
'bis[Cyclohexane-1,4-diammonium tetrahydroxotetraborate] pentahydrate clathrate'
_symmetry_cell_setting           triclinic
_symmetry_space_group_name_H-M   'P -1'
_symmetry_Int_Tables_number      2
_space_group_name_Hall           '-P 1'
loop_
_symmetry_equiv_pos_site_id
_symmetry_equiv_pos_as_xyz
1 x,y,z
2 -x,-y,-z
_cell_length_a                   8.3581(4)
_cell_length_b                   9.9625(5)
_cell_length_c                   10.8064(2)
_cell_angle_alpha                110.517(3)
_cell_angle_beta                 108.380(2)
_cell_angle_gamma                96.470(5)
_cell_volume                     774.125
_exptl_crystal_colour            colorless
_exptl_crystal_description       prism
_cell_formula_units_Z            1
loop_
_atom_site_label
_atom_site_type_symbol
_atom_site_fract_x
_atom_site_fract_y
_atom_site_fract_z
B1 B 1.6013(3) 1.7011(3) 0.5106(3)
B2 B 1.3916(3) 1.6556(3) 0.2705(3)
B3 B 1.6260(3) 1.6828(3) 0.1821(3)
B4 B 1.6266(3) 1.8777(3) 0.4020(3)
O1 O 1.6584(3) 1.6726(2) 0.63005(18)
O2 O 1.2042(2) 1.59781(19) 0.20694(18)
H1 H 1.1795 1.5117 0.1491
O3 O 1.7090(2) 1.6376(2) 0.08980(19)
O4 O 1.6766(2) 2.03708(17) 0.45242(18)
O5 O 1.4664(2) 1.60562(17) 0.38770(17)
O6 O 1.4708(2) 1.59975(17) 0.16121(16)
O7 O 1.71269(19) 1.81393(17) 0.29993(17)
O8 O 1.6889(2) 1.83332(17) 0.52380(16)
O9 O 1.43750(19) 1.81723(16) 0.32957(16)
H19 H 1.650(4) 1.560(4) 0.013(4)
H21 H 1.630(5) 2.075(4) 0.516(4)
H24 H 1.606(5) 1.595(4) 0.625(4)
N1 N 1.0406(3) 0.7249(2) -0.6021(2)
C1 C 0.8796(3) 0.4802(3) -0.6415(3)
H2 H 0.9379 0.4328 -0.7032
H3 H 0.7725 0.4926 -0.7002
C2 C 0.9960(3) 0.6306(3) -0.5308(3)
H4 H 0.9323 0.6793 -0.4733
C3 C 1.1625(3) 0.6175(3) -0.4318(3)
H5 H 1.2312 0.7152 -0.3602
H6 H 1.2308 0.5749 -0.4861
H18 H 1.086(4) 0.673(3) -0.669(3)
H20 H 1.135(4) 0.821(4) -0.527(3)
H22 H 0.944(5) 0.753(4) -0.641(4)
N1A N 0.9594(3) 0.2751(2) -0.3979(2)
C1A C 1.1204(3) 0.5198(3) -0.3585(3)
H2A H 1.0621 0.5672 -0.2968
H3A H 1.2275 0.5074 -0.2998
C2A C 1.0040(3) 0.3694(3) -0.4692(3)
H4A H 1.0677 0.3207 -0.5267
C3A C 0.8375(3) 0.3825(3) -0.5682(3)
H5A H 0.7688 0.2848 -0.6398
H6A H 0.7692 0.4251 -0.5139
H18A H 0.914(4) 0.327(3) -0.331(3)
H20A H 0.865(4) 0.179(4) -0.473(3)
H22A H 1.056(5) 0.247(4) -0.359(4)
N2 N 1.6859(3) 1.0108(3) -0.1798(3)
C4 C 1.5502(4) 0.8674(3) -0.0751(3)
H7 H 1.6635 0.8794 -0.0053
H8 H 1.5247 0.7766 -0.1587
C5 C 1.5526(3) 0.9979(3) -0.1163(3)
H9 H 1.4378 0.9823 -0.1882
C6 C 1.5882(4) 1.1419(3) 0.0124(3)
H10 H 1.7023 1.1602 0.0844
H11 H 1.5880 1.2237 -0.0166
H23 H 1.674(5) 1.084(4) -0.218(4)
H25 H 1.676(6) 0.909(5) -0.256(5)
H26 H 1.794(6) 1.041(5) -0.116(5)
N2A N 1.3141(3) 0.9892(3) 0.1798(3)
C4A C 1.4498(4) 1.1326(3) 0.0751(3)
H7A H 1.3365 1.1206 0.0053
H8A H 1.4753 1.2234 0.1587
C5A C 1.4474(3) 1.0021(3) 0.1163(3)
H9A H 1.5622 1.0177 0.1882
C6A C 1.4118(4) 0.8581(3) -0.0124(3)
H10A H 1.2977 0.8398 -0.0844
H11A H 1.4120 0.7763 0.0166
H23A H 1.326(5) 0.916(4) 0.218(4)
H25A H 1.324(6) 1.091(5) 0.256(5)
H26A H 1.206(6) 0.959(5) 0.116(5)
O10 O 1.0094(3) 1.3048(3) -0.0041(3)
H12 H 1.0883 1.2980 -0.0517
H13 H 1.0553 1.3851 0.0771
O11 O 1.0369(4) 0.9823(4) -0.2793(3)
H14 H 0.9178 0.9752 -0.3235
H15 H 1.1081 1.0444 -0.3015
O12? O 0.9944(5) 1.0628(5) 0.0626(5)
H16? H 1.0340 1.1614 0.0671
H17? H 0.9902 1.0838 0.1475
loop_
_geom_bond_atom_site_label_1
_geom_bond_atom_site_label_2
_geom_bond_site_symmetry_1
_geom_bond_site_symmetry_2
B1 O1 1_555 1_555
B2 O2 1_555 1_555
B3 O3 1_555 1_555
B4 O4 1_555 1_555
O1 H24 1_555 1_555
O2 H1 1_555 1_555
O3 H19 1_555 1_555
O4 H21 1_555 1_555
O5 B1 1_555 1_555
O6 B2 1_555 1_555
O7 B3 1_555 1_555
O8 B1 1_555 1_555
O9 B2 1_555 1_555
N1 C2 1_555 1_555
N2 C5 1_555 1_555
C1 H2 1_555 1_555
H3 C1 1_555 1_555
C2 C1 1_555 1_555
H4 C2 1_555 1_555
C3 C2 1_555 1_555
H5 C3 1_555 1_555
H6 C3 1_555 1_555
C4 H7 1_555 1_555
H8 C4 1_555 1_555
C5 C4 1_555 1_555
H9 C5 1_555 1_555
C6 C5 1_555 1_555
H10 C6 1_555 1_555
H11 C6 1_555 1_555
O10 H12 1_555 1_555
H13 O10 1_555 1_555
O11 H14 1_555 1_555
H15 O11 1_555 1_555
H18 N1 1_555 1_555
H20 N1 1_555 1_555
H22 N1 1_555 1_555
H23 N2 1_555 1_555
H25 N2 1_555 1_555
H26 N2 1_555 1_555
N1A C2A 1_555 1_555
N2A C5A 1_555 1_555
C1A C3 1_555 1_555
H2A C1A 1_555 1_555
H3A C1A 1_555 1_555
C2A C1A 1_555 1_555
H4A C2A 1_555 1_555
C3A C1 1_555 1_555
H5A C3A 1_555 1_555
H6A C3A 1_555 1_555
C4A C6 1_555 1_555
H7A C4A 1_555 1_555
H8A C4A 1_555 1_555
C5A C4A 1_555 1_555
H9A C5A 1_555 1_555
C6A C4 1_555 1_555
H10A C6A 1_555 1_555
H11A C6A 1_555 1_555
H18A N1A 1_555 1_555
H20A N1A 1_555 1_555
H22A N1A 1_555 1_555
H23A N2A 1_555 1_555
H25A N2A 1_555 1_555
H26A N2A 1_555 1_555
B2 O5 1_555 1_555
B3 O6 1_555 1_555
B4 O7 1_555 1_555
B4 O8 1_555 1_555
B4 O9 1_555 1_555
C2A C3A 1_555 1_555
C5A C6A 1_555 1_555

#END
