
#######################################################################
#
#                 Cambridge Crystallographic Data Centre
#                                CCDC 
#
#######################################################################
#
# If this CIF has been generated from an entry in the Cambridge 
# Structural Database, then it will include bibliographic, chemical, 
# crystal, experimental, refinement or atomic coordinate data resulting 
# from the CCDC's data processing and validation procedures.
#
#######################################################################

data_SIBJIZ
_chemical_formula_moiety         'C17 H24 N2 O2'
_chemical_name_systematic        
(R)-1,3-di-t-butyl-5-phenylimidazolidine-2,4-dione
_symmetry_cell_setting           monoclinic
_symmetry_space_group_name_H-M   'P 21'
_symmetry_Int_Tables_number      4
_space_group_name_Hall           'P 2yb'
loop_
_symmetry_equiv_pos_site_id
_symmetry_equiv_pos_as_xyz
1 x,y,z
2 -x,1/2+y,-z
_cell_length_a                   12.1758(3)
_cell_length_b                   10.3730(3)
_cell_length_c                   14.1803(4)
_cell_angle_alpha                90
_cell_angle_beta                 112.9520(10)
_cell_angle_gamma                90
_cell_volume                     1649.18
_exptl_crystal_colour            colorless
_exptl_crystal_description       block
_cell_formula_units_Z            4
loop_
_atom_site_label
_atom_site_type_symbol
_atom_site_fract_x
_atom_site_fract_y
_atom_site_fract_z
O1 O 1.0127(4) 0.3852(3) 0.7595(3)
O2 O 0.8217(3) 0.7345(4) 0.8212(3)
N1 N 0.9211(3) 0.5441(4) 0.8183(3)
N2 N 0.9662(3) 0.5841(3) 0.6820(3)
C1 C 0.9010(4) 0.6964(4) 0.6926(3)
H1 H 0.8248 0.7049 0.6310
C2 C 0.9716(4) 0.4924(4) 0.7523(4)
C3 C 0.8740(4) 0.6638(4) 0.7857(3)
C4 C 0.9686(4) 0.8228(4) 0.7130(3)
C5 C 0.9047(5) 0.9371(5) 0.6867(4)
H2 H 0.8205 0.9344 0.6510
C6 C 0.9619(6) 1.0556(5) 0.7115(4)
H3 H 0.9172 1.1332 0.6931
C7 C 1.0833(6) 1.0596(6) 0.7628(4)
H4 H 1.1230 1.1404 0.7800
C8 C 1.1481(5) 0.9468(7) 0.7896(4)
H5 H 1.2322 0.9504 0.8251
C9 C 1.0911(4) 0.8270(5) 0.7649(4)
H6 H 1.1361 0.7495 0.7835
C10 C 0.9249(6) 0.4740(6) 0.9124(4)
C11 C 0.8461(11) 0.5450(12) 0.9590(8)
H7 H 0.8925 0.6140 1.0043
H8 H 0.8195 0.4839 0.9984
H9 H 0.7766 0.5821 0.9039
C12 C 0.8638(9) 0.3457(9) 0.8799(7)
H10 H 0.7779 0.3593 0.8429
H11 H 0.8776 0.2926 0.9407
H12 H 0.8961 0.3018 0.8352
C13 C 1.0457(8) 0.4652(9) 0.9865(6)
H13 H 1.0908 0.4058 0.9614
H14 H 1.0458 0.4331 1.0515
H15 H 1.0829 0.5506 0.9969
C14 C 0.9720(4) 0.5476(4) 0.5813(3)
C15 C 0.9619(6) 0.6701(5) 0.5184(4)
H16 H 0.8850 0.7118 0.5050
H17 H 0.9674 0.6477 0.4533
H18 H 1.0267 0.7293 0.5566
C16 C 1.0944(5) 0.4855(5) 0.6016(4)
H19 H 1.1581 0.5452 0.6411
H20 H 1.1006 0.4664 0.5361
H21 H 1.1022 0.4054 0.6403
C17 C 0.8703(5) 0.4554(6) 0.5238(4)
H22 H 0.8746 0.4315 0.4584
H23 H 0.7938 0.4977 0.5108
H24 H 0.8772 0.3777 0.5650
O3 O 0.4775(4) 0.6064(3) 0.7794(3)
O4 O 0.3268(3) 0.2927(3) 0.5381(2)
N3 N 0.4279(3) 0.4623(3) 0.6432(3)
N4 N 0.4155(3) 0.3994(4) 0.7903(3)
C18 C 0.3725(4) 0.2913(4) 0.7203(3)
H25 H 0.2894 0.2690 0.7120
C19 C 0.4449(4) 0.5003(4) 0.7448(3)
C20 C 0.3714(4) 0.3471(4) 0.6208(3)
C21 C 0.4498(4) 0.1709(4) 0.7477(3)
C22 C 0.5734(5) 0.1816(5) 0.7856(4)
H26 H 0.6101 0.2642 0.7971
C23 C 0.6431(5) 0.0702(6) 0.8066(5)
H27 H 0.7275 0.0773 0.8323
C24 C 0.5912(6) -0.0490(6) 0.7907(4)
H28 H 0.6395 -0.1242 0.8059
C25 C 0.4688(6) -0.0597(5) 0.7526(4)
H29 H 0.4326 -0.1425 0.7415
C26 C 0.3982(5) 0.0505(4) 0.7302(3)
H30 H 0.3138 0.0426 0.7027
C27 C 0.4556(4) 0.5506(4) 0.5704(3)
C28 C 0.3561(5) 0.6496(5) 0.5299(4)
H31 H 0.2803 0.6056 0.4927
H32 H 0.3731 0.7092 0.4836
H33 H 0.3508 0.6980 0.5874
C29 C 0.5770(5) 0.6148(6) 0.6274(4)
H34 H 0.5721 0.6722 0.6805
H35 H 0.5993 0.6649 0.5790
H36 H 0.6374 0.5484 0.6592
C30 C 0.4643(5) 0.4734(5) 0.4819(4)
H37 H 0.5242 0.4053 0.5092
H38 H 0.4878 0.5308 0.4381
H39 H 0.3867 0.4346 0.4417
C31 C 0.4132(4) 0.4097(5) 0.8954(3)
C32 C 0.5412(5) 0.4279(7) 0.9732(4)
H40 H 0.5907 0.3564 0.9674
H41 H 0.5418 0.4295 1.0425
H42 H 0.5729 0.5094 0.9596
C33 C 0.3346(6) 0.5221(6) 0.8988(5)
H43 H 0.3691 0.6029 0.8873
H44 H 0.3293 0.5247 0.9660
H45 H 0.2546 0.5110 0.8454
C34 C 0.3625(6) 0.2862(6) 0.9195(5)
H46 H 0.2805 0.2744 0.8697
H47 H 0.3628 0.2917 0.9886
H48 H 0.4114 0.2129 0.9157
loop_
_geom_bond_atom_site_label_1
_geom_bond_atom_site_label_2
_geom_bond_site_symmetry_1
_geom_bond_site_symmetry_2
O1 C2 1_555 1_555
O2 C3 1_555 1_555
N1 C2 1_555 1_555
N2 C1 1_555 1_555
C1 H1 1_555 1_555
C2 N2 1_555 1_555
C3 N1 1_555 1_555
C4 C1 1_555 1_555
C5 C4 1_555 1_555
H2 C5 1_555 1_555
C6 C5 1_555 1_555
H3 C6 1_555 1_555
C7 C6 1_555 1_555
H4 C7 1_555 1_555
C8 C7 1_555 1_555
H5 C8 1_555 1_555
C9 C4 1_555 1_555
H6 C9 1_555 1_555
C10 N1 1_555 1_555
C11 C10 1_555 1_555
H7 C11 1_555 1_555
H8 C11 1_555 1_555
H9 C11 1_555 1_555
C12 C10 1_555 1_555
H10 C12 1_555 1_555
H11 C12 1_555 1_555
H12 C12 1_555 1_555
C13 C10 1_555 1_555
H13 C13 1_555 1_555
H14 C13 1_555 1_555
H15 C13 1_555 1_555
C14 N2 1_555 1_555
C15 C14 1_555 1_555
H16 C15 1_555 1_555
H17 C15 1_555 1_555
H18 C15 1_555 1_555
C16 C14 1_555 1_555
H19 C16 1_555 1_555
H20 C16 1_555 1_555
H21 C16 1_555 1_555
C17 C14 1_555 1_555
H22 C17 1_555 1_555
H23 C17 1_555 1_555
H24 C17 1_555 1_555
O3 C19 1_555 1_555
O4 C20 1_555 1_555
N3 C19 1_555 1_555
N4 C18 1_555 1_555
C18 H25 1_555 1_555
C19 N4 1_555 1_555
C20 N3 1_555 1_555
C21 C18 1_555 1_555
C22 C21 1_555 1_555
H26 C22 1_555 1_555
C23 C22 1_555 1_555
H27 C23 1_555 1_555
C24 C23 1_555 1_555
H28 C24 1_555 1_555
C25 C24 1_555 1_555
H29 C25 1_555 1_555
C26 C21 1_555 1_555
H30 C26 1_555 1_555
C27 N3 1_555 1_555
C28 C27 1_555 1_555
H31 C28 1_555 1_555
H32 C28 1_555 1_555
H33 C28 1_555 1_555
C29 C27 1_555 1_555
H34 C29 1_555 1_555
H35 C29 1_555 1_555
H36 C29 1_555 1_555
C30 C27 1_555 1_555
H37 C30 1_555 1_555
H38 C30 1_555 1_555
H39 C30 1_555 1_555
C31 N4 1_555 1_555
C32 C31 1_555 1_555
H40 C32 1_555 1_555
H41 C32 1_555 1_555
H42 C32 1_555 1_555
C33 C31 1_555 1_555
H43 C33 1_555 1_555
H44 C33 1_555 1_555
H45 C33 1_555 1_555
C34 C31 1_555 1_555
H46 C34 1_555 1_555
H47 C34 1_555 1_555
H48 C34 1_555 1_555
C1 C3 1_555 1_555
C8 C9 1_555 1_555
C18 C20 1_555 1_555
C25 C26 1_555 1_555

#END
