
#######################################################################
#
#                 Cambridge Crystallographic Data Centre
#                                CCDC 
#
#######################################################################
#
# If this CIF has been generated from an entry in the Cambridge 
# Structural Database, then it will include bibliographic, chemical, 
# crystal, experimental, refinement or atomic coordinate data resulting 
# from the CCDC's data processing and validation procedures.
#
#######################################################################

data_SIBKUM
_chemical_formula_moiety         'C33 H77 N12 Sr3 1+,C18 H15 Si1 1-,0.5(C6 H6)'
_chemical_name_systematic        
'bis(\m-hydrido)-tris(\m-1,4,7-trimethyl-1,4,7,10-tetra-azacyclododecane)-tri-strontium triphenylsilanide benzene solvate'
_symmetry_cell_setting           triclinic
_symmetry_space_group_name_H-M   'P -1'
_symmetry_Int_Tables_number      2
_space_group_name_Hall           '-P 1'
loop_
_symmetry_equiv_pos_site_id
_symmetry_equiv_pos_as_xyz
1 x,y,z
2 -x,-y,-z
_cell_length_a                   9.8153(10)
_cell_length_b                   16.7007(17)
_cell_length_c                   19.175(2)
_cell_angle_alpha                86.701(3)
_cell_angle_beta                 86.382(3)
_cell_angle_gamma                77.342(3)
_cell_volume                     3057.62
_exptl_crystal_colour            orange
_exptl_crystal_description       plate
_cell_formula_units_Z            2
_chemical_properties_physical    
Air-sensitive,Moisture-sensitive,Oxygen-sensitive
_exptl_crystal_recrystallization_method benzene
loop_
_atom_site_label
_atom_site_type_symbol
_atom_site_fract_x
_atom_site_fract_y
_atom_site_fract_z
Si1 Si 0.86431(13) 0.13791(8) 0.78183(6)
C34 C 0.9279(5) 0.1674(3) 0.8683(2)
C35 C 0.9375(5) 0.1105(3) 0.9255(3)
H78 H 0.9059 0.0612 0.9212
C36 C 0.9910(7) 0.1232(4) 0.9881(3)
H79 H 0.9954 0.0831 1.0256
C37 C 1.0375(6) 0.1934(5) 0.9961(3)
H80 H 1.0755 0.2020 1.0387
C38 C 1.0285(6) 0.2525(4) 0.9409(3)
H81 H 1.0595 0.3018 0.9460
C39 C 0.9741(5) 0.2388(3) 0.8789(2)
H82 H 0.9679 0.2798 0.8421
C40 C 0.9017(5) 0.2270(3) 0.7213(2)
C41 C 1.0421(5) 0.2298(3) 0.7052(3)
H83 H 1.1129 0.1870 0.7236
C42 C 1.0820(6) 0.2922(4) 0.6636(3)
H84 H 1.1783 0.2927 0.6554
C43 C 0.9810(5) 0.3539(3) 0.6338(2)
H85 H 1.0074 0.3969 0.6052
C44 C 0.8423(5) 0.3519(3) 0.6464(2)
H86 H 0.7723 0.3931 0.6255
C45 C 0.8036(5) 0.2896(3) 0.6898(2)
H87 H 0.7070 0.2899 0.6981
C46 C 0.6653(4) 0.1681(2) 0.7984(2)
C47 C 0.5948(5) 0.1899(2) 0.8627(2)
H88 H 0.6474 0.1958 0.9012
C48 C 0.4498(5) 0.2030(3) 0.8717(2)
H89 H 0.4061 0.2165 0.9164
C49 C 0.3678(5) 0.1965(3) 0.8166(2)
H90 H 0.2688 0.2065 0.8228
C50 C 0.4348(5) 0.1752(3) 0.7524(2)
H91 H 0.3812 0.1705 0.7139
C51 C 0.5795(5) 0.1605(2) 0.7438(2)
H92 H 0.6225 0.1448 0.6994
Sr1 Sr 0.51955(4) 0.19290(2) 0.20031(2)
H1 H 0.678(4) 0.265(2) 0.262(2)
H2 H 0.380(4) 0.310(2) 0.277(2)
Sr2 Sr 0.54726(4) 0.25560(2) 0.37272(2)
Sr3 Sr 0.53642(4) 0.40080(2) 0.22694(2)
N1 N 0.5212(4) 0.1197(2) 0.32457(17)
N2 N 0.7419(4) 0.0682(2) 0.21016(18)
N3 N 0.5166(4) 0.0756(2) 0.11005(16)
N4 N 0.2916(4) 0.1272(2) 0.22301(18)
N5 N 0.5696(4) 0.4090(2) 0.36012(16)
N6 N 0.3414(4) 0.3524(2) 0.45068(18)
N7 N 0.5587(4) 0.2143(2) 0.51151(18)
N8 N 0.7913(4) 0.2707(2) 0.42282(19)
N9 N 0.5118(4) 0.3226(2) 0.11590(17)
N10 N 0.3010(4) 0.4747(2) 0.16113(19)
N11 N 0.5444(4) 0.5535(2) 0.17760(19)
N12 N 0.7558(4) 0.4048(3) 0.1318(2)
C1 C 0.6221(5) 0.0420(3) 0.3257(2)
H3 H 0.5814 0.0001 0.3050
H4 H 0.6413 0.0239 0.3749
C2 C 0.7559(5) 0.0468(3) 0.2868(2)
H5 H 0.8222 -0.0068 0.2925
H6 H 0.7964 0.0886 0.3077
C3 C 0.7251(5) -0.0024(3) 0.1721(2)
H7 H 0.6674 -0.0340 0.2017
H8 H 0.8182 -0.0387 0.1633
C4 C 0.6585(5) 0.0215(3) 0.1041(2)
H9 H 0.7196 0.0500 0.0735
H10 H 0.6521 -0.0290 0.0811
C5 C 0.4137(5) 0.0268(3) 0.1334(2)
H11 H 0.4547 -0.0147 0.1695
H12 H 0.3941 -0.0030 0.0933
C6 C 0.2774(5) 0.0770(3) 0.1631(2)
H13 H 0.2315 0.1143 0.1253
H14 H 0.2152 0.0394 0.1786
C7 C 0.3101(5) 0.0732(3) 0.2876(2)
H15 H 0.3652 0.0183 0.2754
H16 H 0.2171 0.0664 0.3069
C8 C 0.3829(5) 0.1062(3) 0.3435(2)
H17 H 0.3230 0.1589 0.3581
H18 H 0.3895 0.0673 0.3848
C9 C 0.8679(5) 0.0956(3) 0.1840(3)
H19 H 0.9499 0.0510 0.1910
H20 H 0.8768 0.1433 0.2094
H21 H 0.8614 0.1109 0.1340
C10 C 0.4842(5) 0.1211(3) 0.0441(2)
H22 H 0.4881 0.0824 0.0070
H23 H 0.5525 0.1553 0.0324
H24 H 0.3902 0.1561 0.0483
C11 C 0.1677(5) 0.1943(3) 0.2299(3)
H25 H 0.1560 0.2269 0.1857
H26 H 0.1796 0.2294 0.2673
H27 H 0.0849 0.1714 0.2413
C12 C 0.7116(6) 0.4121(3) 0.3727(3)
H28 H 0.7117 0.4690 0.3844
H29 H 0.7674 0.4015 0.3280
C13 C 0.7855(6) 0.3572(3) 0.4266(4)
H30 H 0.8827 0.3652 0.4253
H31 H 0.7411 0.3747 0.4727
C14 C 0.8026(6) 0.2282(5) 0.4944(3)
H32 H 0.8420 0.1691 0.4882
H33 H 0.8715 0.2496 0.5194
C15 C 0.6774(6) 0.2350(4) 0.5396(3)
H34 H 0.7013 0.1993 0.5821
H35 H 0.6495 0.2923 0.5546
C16 C 0.4258(7) 0.2571(4) 0.5485(3)
H36 H 0.3549 0.2237 0.5448
H37 H 0.4432 0.2578 0.5987
C17 C 0.3669(6) 0.3393(4) 0.5246(2)
H38 H 0.4303 0.3747 0.5361
H39 H 0.2771 0.3581 0.5514
C18 C 0.3420(6) 0.4372(3) 0.4243(3)
H40 H 0.2894 0.4477 0.3812
H41 H 0.2896 0.4751 0.4594
C19 C 0.4742(6) 0.4583(3) 0.4090(3)
H42 H 0.5212 0.4558 0.4535
H43 H 0.4569 0.5161 0.3906
C20 C 0.9095(5) 0.2292(3) 0.3794(2)
H44 H 0.9045 0.2545 0.3320
H45 H 0.9071 0.1710 0.3777
H46 H 0.9968 0.2342 0.3992
C21 C 0.5638(6) 0.1272(3) 0.5192(3)
H47 H 0.6510 0.0970 0.4967
H48 H 0.4840 0.1148 0.4970
H49 H 0.5599 0.1105 0.5690
C22 C 0.2047(5) 0.3380(4) 0.4374(3)
H50 H 0.1990 0.2823 0.4542
H51 H 0.1909 0.3442 0.3870
H52 H 0.1319 0.3779 0.4619
C23 C 0.4124(10) 0.3638(5) 0.0712(5)
H53 H 0.3898 0.3248 0.0391
H54 H 0.4498 0.4063 0.0428
C24 C 0.2818(10) 0.4037(7) 0.1127(4)
H55 H 0.2486 0.3607 0.1426
H56 H 0.2082 0.4270 0.0797
C25 C 0.3240(9) 0.5426(5) 0.1183(5)
H57 H 0.2340 0.5743 0.1012
H58 H 0.3862 0.5231 0.0772
C26 C 0.3902(11) 0.5969(5) 0.1593(5)
H59 H 0.3332 0.6109 0.2031
H60 H 0.3917 0.6487 0.1317
C27 C 0.6384(11) 0.5599(5) 0.1189(5)
H61 H 0.6584 0.6156 0.1152
H62 H 0.5948 0.5513 0.0755
C28 C 0.7735(10) 0.4964(6) 0.1265(6)
H63 H 0.8177 0.5072 0.1690
H64 H 0.8380 0.5032 0.0858
C29 C 0.7237(8) 0.3813(6) 0.0668(4)
H65 H 0.8102 0.3673 0.0365
H66 H 0.6590 0.4277 0.0436
C30 C 0.6554(12) 0.3069(6) 0.0765(5)
H67 H 0.7193 0.2623 0.1021
H68 H 0.6454 0.2872 0.0298
C31 C 0.1760(5) 0.4862(3) 0.2080(3)
H69 H 0.0940 0.5115 0.1816
H70 H 0.1854 0.5219 0.2454
H71 H 0.1645 0.4328 0.2285
C32 C 0.5640(6) 0.5954(3) 0.2391(2)
H72 H 0.5512 0.6544 0.2276
H73 H 0.6586 0.5739 0.2550
H74 H 0.4953 0.5862 0.2764
C33 C 0.8882(5) 0.3618(3) 0.1582(3)
H75 H 0.9625 0.3617 0.1216
H76 H 0.8832 0.3051 0.1722
H77 H 0.9084 0.3895 0.1988
C52? C 0.3480(16) 0.3536(9) 0.1003(8)
H93? H 0.3325 0.3331 0.0547
H94? H 0.2924 0.3283 0.1365
C53? C 0.2925(15) 0.4456(10) 0.0985(8)
H95? H 0.3474 0.4723 0.0629
H96? H 0.1939 0.4584 0.0854
C54? C 0.3091(16) 0.5715(9) 0.1519(9)
H97? H 0.2419 0.5992 0.1171
H98? H 0.2800 0.5978 0.1971
C55? C 0.4488(18) 0.5843(8) 0.1295(8)
H99? H 0.4790 0.5575 0.0847
H100? H 0.4444 0.6439 0.1214
C56? C 0.701(2) 0.5446(11) 0.1410(9)
H101? H 0.7069 0.5967 0.1148
H102? H 0.7693 0.5360 0.1781
C57? C 0.7420(16) 0.4758(9) 0.0921(8)
H103? H 0.6693 0.4791 0.0580
H104? H 0.8315 0.4785 0.0662
C58? C 0.7340(16) 0.3302(10) 0.0798(6)
H105? H 0.7956 0.3314 0.0370
H106? H 0.7656 0.2763 0.1047
C59? C 0.5880(19) 0.3361(11) 0.0584(8)
H107? H 0.5502 0.3914 0.0371
H108? H 0.5866 0.2947 0.0237
C60? C 0.9444(14) 0.9691(8) 0.4676(7)
H109? H 0.8978 0.9410 0.4382
C61? C 0.9022(11) 0.9773(7) 0.5383(6)
H110? H 0.8311 0.9516 0.5588
C62? C 0.9688(12) 1.0258(7) 0.5795(6)
H111? H 0.9407 1.0328 0.6275
C63? C 1.0705(15) 1.0613(9) 0.5505(7)
H112? H 1.1112 1.0947 0.5778
C64? C 1.1149(14) 1.0501(9) 0.4837(8)
H113? H 1.1882 1.0749 0.4647
C65? C 1.0560(13) 1.0026(7) 0.4408(7)
H114? H 1.0919 0.9935 0.3941
loop_
_geom_bond_atom_site_label_1
_geom_bond_atom_site_label_2
_geom_bond_site_symmetry_1
_geom_bond_site_symmetry_2
Sr1 H1 1_555 1_555
H1 Sr2 1_555 1_555
H2 Sr1 1_555 1_555
Sr2 H2 1_555 1_555
Sr3 H1 1_555 1_555
N1 Sr1 1_555 1_555
N2 Sr1 1_555 1_555
N3 Sr1 1_555 1_555
N4 Sr1 1_555 1_555
N5 Sr2 1_555 1_555
N6 Sr2 1_555 1_555
N7 Sr2 1_555 1_555
N8 Sr2 1_555 1_555
N9 Sr1 1_555 1_555
N10 Sr3 1_555 1_555
N11 Sr3 1_555 1_555
N12 Sr3 1_555 1_555
C1 N1 1_555 1_555
H3 C1 1_555 1_555
H4 C1 1_555 1_555
C2 N2 1_555 1_555
H5 C2 1_555 1_555
H6 C2 1_555 1_555
C3 N2 1_555 1_555
H7 C3 1_555 1_555
H8 C3 1_555 1_555
C4 N3 1_555 1_555
H9 C4 1_555 1_555
H10 C4 1_555 1_555
C5 N3 1_555 1_555
H11 C5 1_555 1_555
H12 C5 1_555 1_555
C6 N4 1_555 1_555
H13 C6 1_555 1_555
H14 C6 1_555 1_555
C7 N4 1_555 1_555
H15 C7 1_555 1_555
H16 C7 1_555 1_555
C8 N1 1_555 1_555
H17 C8 1_555 1_555
H18 C8 1_555 1_555
C9 N2 1_555 1_555
H19 C9 1_555 1_555
H20 C9 1_555 1_555
H21 C9 1_555 1_555
C10 N3 1_555 1_555
H22 C10 1_555 1_555
H23 C10 1_555 1_555
H24 C10 1_555 1_555
C11 N4 1_555 1_555
H25 C11 1_555 1_555
H26 C11 1_555 1_555
H27 C11 1_555 1_555
C12 N5 1_555 1_555
H28 C12 1_555 1_555
H29 C12 1_555 1_555
C13 N8 1_555 1_555
H30 C13 1_555 1_555
H31 C13 1_555 1_555
C14 N8 1_555 1_555
H32 C14 1_555 1_555
H33 C14 1_555 1_555
C15 N7 1_555 1_555
H34 C15 1_555 1_555
H35 C15 1_555 1_555
C16 N7 1_555 1_555
H36 C16 1_555 1_555
H37 C16 1_555 1_555
C17 N6 1_555 1_555
H38 C17 1_555 1_555
H39 C17 1_555 1_555
C18 N6 1_555 1_555
H40 C18 1_555 1_555
H41 C18 1_555 1_555
C19 N5 1_555 1_555
H42 C19 1_555 1_555
H43 C19 1_555 1_555
C20 N8 1_555 1_555
H44 C20 1_555 1_555
H45 C20 1_555 1_555
H46 C20 1_555 1_555
C21 N7 1_555 1_555
H47 C21 1_555 1_555
H48 C21 1_555 1_555
H49 C21 1_555 1_555
C22 N6 1_555 1_555
H50 C22 1_555 1_555
H51 C22 1_555 1_555
H52 C22 1_555 1_555
C23 N9 1_555 1_555
H53 C23 1_555 1_555
H54 C23 1_555 1_555
C24 N10 1_555 1_555
H55 C24 1_555 1_555
H56 C24 1_555 1_555
C25 N10 1_555 1_555
H57 C25 1_555 1_555
H58 C25 1_555 1_555
C26 N11 1_555 1_555
H59 C26 1_555 1_555
H60 C26 1_555 1_555
C27 N11 1_555 1_555
H61 C27 1_555 1_555
H62 C27 1_555 1_555
C28 N12 1_555 1_555
H63 C28 1_555 1_555
H64 C28 1_555 1_555
C29 N12 1_555 1_555
H65 C29 1_555 1_555
H66 C29 1_555 1_555
C30 N9 1_555 1_555
H67 C30 1_555 1_555
H68 C30 1_555 1_555
C31 N10 1_555 1_555
H69 C31 1_555 1_555
H70 C31 1_555 1_555
H71 C31 1_555 1_555
C32 N11 1_555 1_555
H72 C32 1_555 1_555
H73 C32 1_555 1_555
H74 C32 1_555 1_555
C33 N12 1_555 1_555
H75 C33 1_555 1_555
H76 C33 1_555 1_555
H77 C33 1_555 1_555
Si1 C34 1_555 1_555
C34 C35 1_555 1_555
C35 H78 1_555 1_555
C36 C35 1_555 1_555
H79 C36 1_555 1_555
C37 C36 1_555 1_555
H80 C37 1_555 1_555
C38 C37 1_555 1_555
H81 C38 1_555 1_555
C39 C34 1_555 1_555
H82 C39 1_555 1_555
C40 Si1 1_555 1_555
C41 C40 1_555 1_555
H83 C41 1_555 1_555
C42 C41 1_555 1_555
H84 C42 1_555 1_555
C43 C42 1_555 1_555
H85 C43 1_555 1_555
C44 C43 1_555 1_555
H86 C44 1_555 1_555
C45 C40 1_555 1_555
H87 C45 1_555 1_555
C46 Si1 1_555 1_555
C47 C46 1_555 1_555
H88 C47 1_555 1_555
C48 C47 1_555 1_555
H89 C48 1_555 1_555
C49 C48 1_555 1_555
H90 C49 1_555 1_555
C50 C49 1_555 1_555
H91 C50 1_555 1_555
C51 C46 1_555 1_555
H92 C51 1_555 1_555
H2 Sr3 1_555 1_555
Sr2 N1 1_555 1_555
Sr3 N5 1_555 1_555
Sr3 N9 1_555 1_555
C1 C2 1_555 1_555
C3 C4 1_555 1_555
C5 C6 1_555 1_555
C7 C8 1_555 1_555
C12 C13 1_555 1_555
C14 C15 1_555 1_555
C16 C17 1_555 1_555
C18 C19 1_555 1_555
C23 C24 1_555 1_555
C25 C26 1_555 1_555
C27 C28 1_555 1_555
C29 C30 1_555 1_555
C38 C39 1_555 1_555
C44 C45 1_555 1_555
C50 C51 1_555 1_555

#END
