
#######################################################################
#
#                 Cambridge Crystallographic Data Centre
#                                CCDC 
#
#######################################################################
#
# If this CIF has been generated from an entry in the Cambridge 
# Structural Database, then it will include bibliographic, chemical, 
# crystal, experimental, refinement or atomic coordinate data resulting 
# from the CCDC's data processing and validation procedures.
#
#######################################################################

data_SIBRON
_chemical_formula_moiety         'C30 H32 B1 F10 N1'
_chemical_name_systematic        
1-{1-[bis(pentafluorophenyl)boranyl]-6,6-dimethylhepta-1,4-dien-2-yl}-2,2,6,6-tetramethylpiperidine
_symmetry_cell_setting           monoclinic
_symmetry_space_group_name_H-M   'C 2/c'
_symmetry_Int_Tables_number      15
_space_group_name_Hall           '-C 2yn'
loop_
_symmetry_equiv_pos_site_id
_symmetry_equiv_pos_as_xyz
1 x,y,z
2 -x,y,1/2-z
3 1/2+x,1/2+y,z
4 1/2-x,1/2+y,1/2-z
5 -x,-y,-z
6 x,-y,1/2+z
7 1/2-x,1/2-y,-z
8 1/2+x,1/2-y,1/2+z
_cell_length_a                   30.8901(8)
_cell_length_b                   10.7574(3)
_cell_length_c                   23.1166(9)
_cell_angle_alpha                90
_cell_angle_beta                 129.511(1)
_cell_angle_gamma                90
_cell_volume                     5926.36
_exptl_crystal_colour            yellow
_exptl_crystal_description       plate
_cell_formula_units_Z            8
loop_
_atom_site_label
_atom_site_type_symbol
_atom_site_fract_x
_atom_site_fract_y
_atom_site_fract_z
N1 N 0.10692(9) 1.2359(2) 0.70165(13)
C1 C 0.12761(11) 1.1262(3) 0.73866(15)
C2 C 0.10500(11) 1.0634(3) 0.76682(16)
H1 H 0.0722 1.0999 0.7538
C3 C 0.18165(11) 1.0786(3) 0.75832(16)
H2 H 0.1848 1.1063 0.7207
H3 H 0.1821 0.9875 0.7592
C4 C 0.23027(13) 1.1291(3) 0.83490(18)
H4 H 0.2251 1.1306 0.8708
C5 C 0.27719(14) 1.1695(3) 0.8565(2)
H5 H 0.2824 1.1651 0.8207
C6 C 0.32559(14) 1.2235(4) 0.9312(2)
C7 C 0.3497(5) 1.3295(11) 0.9195(6)
H6 H 0.3641 1.3007 0.8948
H7 H 0.3800 1.3658 0.9676
H8 H 0.3209 1.3915 0.8885
C8 C 0.3715(3) 1.1223(9) 0.9782(5)
H9 H 0.3561 1.0526 0.9863
H10 H 0.4029 1.1571 1.0261
H11 H 0.3843 1.0942 0.9514
C9 C 0.3073(4) 1.2600(12) 0.9768(6)
H12 H 0.2769 1.3197 0.9487
H13 H 0.3388 1.2967 1.0240
H14 H 0.2946 1.1866 0.9866
C10 C 0.10446(13) 1.2625(3) 0.63493(17)
C11 C 0.05379(15) 1.3475(3) 0.58093(19)
H15 H 0.0516 1.3646 0.5375
H16 H 0.0197 1.3024 0.5628
C12 C 0.05443(18) 1.4702(3) 0.6134(2)
H17 H 0.0159 1.4960 0.5891
H18 H 0.0716 1.5341 0.6036
C13 C 0.08726(15) 1.4585(3) 0.6974(2)
H19 H 0.0741 1.5223 0.7133
H20 H 0.1270 1.4747 0.7232
C14 C 0.08192(13) 1.3311(3) 0.72177(17)
C15 C 0.09183(15) 1.1427(3) 0.59102(18)
H21 H 0.1242 1.0881 0.6202
H22 H 0.0836 1.1626 0.5440
H23 H 0.0597 1.1016 0.5810
C16 C 0.15817(15) 1.3257(3) 0.6578(2)
H24 H 0.1633 1.4047 0.6817
H25 H 0.1547 1.3396 0.6136
H26 H 0.1902 1.2726 0.6926
C17 C 0.11784(15) 1.3373(3) 0.80749(18)
H27 H 0.1149 1.2593 0.8258
H28 H 0.1046 1.4046 0.8206
H29 H 0.1567 1.3520 0.8301
C18 C 0.02033(13) 1.3061(3) 0.6848(2)
H30 H 0.0002 1.2800 0.6333
H31 H 0.0035 1.3814 0.6856
H32 H 0.0183 1.2410 0.7120
B1 B 0.12303(14) 0.9502(3) 0.81333(19)
C19 C 0.17936(12) 0.8720(3) 0.85249(16)
F1 F 0.14520(8) 0.75195(17) 0.74583(11)
C20 C 0.18685(13) 0.7784(3) 0.81901(18)
F2 F 0.23987(10) 0.6182(2) 0.82031(14)
C21 C 0.23504(16) 0.7096(3) 0.8555(2)
F3 F 0.32704(9) 0.6695(2) 0.96657(14)
C22 C 0.27890(14) 0.7350(4) 0.9294(2)
F4 F 0.31732(8) 0.8545(2) 1.03726(11)
C23 C 0.27406(13) 0.8282(3) 0.96538(19)
F5 F 0.22084(7) 0.98110(18) 0.96463(10)
C24 C 0.22477(12) 0.8921(3) 0.92676(17)
C25 C 0.08537(11) 0.8997(3) 0.83372(15)
F6 F 0.08914(8) 0.69240(16) 0.80413(11)
C26 C 0.07256(12) 0.7756(3) 0.83024(16)
F7 F 0.03169(9) 0.60694(19) 0.84541(13)
C27 C 0.04236(13) 0.7289(3) 0.85070(18)
F8 F -0.00637(8) 0.7652(2) 0.89587(11)
C28 C 0.02363(13) 0.8084(3) 0.87638(18)
F9 F 0.01773(8) 1.01141(19) 0.90848(11)
C29 C 0.03506(12) 0.9327(3) 0.88170(17)
F10 F 0.07546(8) 1.09880(16) 0.86781(11)
C30 C 0.06496(12) 0.9752(3) 0.85998(17)
C31? C 0.3200(6) 1.3677(9) 0.9226(7)
H33? H 0.3152 1.3920 0.8784
H34? H 0.3536 1.4062 0.9666
H35? H 0.2877 1.3945 0.9173
C32? C 0.3788(5) 1.1926(18) 0.9436(10)
H36? H 0.3809 1.1036 0.9393
H37? H 0.4111 1.2197 0.9933
H38? H 0.3785 1.2349 0.9063
C33? C 0.3270(7) 1.1865(16) 0.9939(7)
H39? H 0.2917 1.2089 0.9822
H40? H 0.3576 1.2291 1.0392
H41? H 0.3325 1.0974 1.0014
loop_
_geom_bond_atom_site_label_1
_geom_bond_atom_site_label_2
_geom_bond_site_symmetry_1
_geom_bond_site_symmetry_2
N1 C1 1_555 1_555
C1 C2 1_555 1_555
C2 H1 1_555 1_555
C3 C1 1_555 1_555
H2 C3 1_555 1_555
H3 C3 1_555 1_555
C4 C3 1_555 1_555
H4 C4 1_555 1_555
C5 C4 1_555 1_555
H5 C5 1_555 1_555
C6 C5 1_555 1_555
C7 C6 1_555 1_555
H6 C7 1_555 1_555
H7 C7 1_555 1_555
H8 C7 1_555 1_555
C8 C6 1_555 1_555
H9 C8 1_555 1_555
H10 C8 1_555 1_555
H11 C8 1_555 1_555
C9 C6 1_555 1_555
H12 C9 1_555 1_555
H13 C9 1_555 1_555
H14 C9 1_555 1_555
C10 N1 1_555 1_555
C11 C10 1_555 1_555
H15 C11 1_555 1_555
H16 C11 1_555 1_555
C12 C11 1_555 1_555
H17 C12 1_555 1_555
H18 C12 1_555 1_555
C13 C12 1_555 1_555
H19 C13 1_555 1_555
H20 C13 1_555 1_555
C14 N1 1_555 1_555
C15 C10 1_555 1_555
H21 C15 1_555 1_555
H22 C15 1_555 1_555
H23 C15 1_555 1_555
C16 C10 1_555 1_555
H24 C16 1_555 1_555
H25 C16 1_555 1_555
H26 C16 1_555 1_555
C17 C14 1_555 1_555
H27 C17 1_555 1_555
H28 C17 1_555 1_555
H29 C17 1_555 1_555
C18 C14 1_555 1_555
H30 C18 1_555 1_555
H31 C18 1_555 1_555
H32 C18 1_555 1_555
B1 C2 1_555 1_555
C19 B1 1_555 1_555
F1 C20 1_555 1_555
C20 C19 1_555 1_555
F2 C21 1_555 1_555
C21 C20 1_555 1_555
F3 C22 1_555 1_555
C22 C21 1_555 1_555
F4 C23 1_555 1_555
C23 C22 1_555 1_555
F5 C24 1_555 1_555
C24 C19 1_555 1_555
C25 B1 1_555 1_555
F6 C26 1_555 1_555
C26 C25 1_555 1_555
F7 C27 1_555 1_555
C27 C26 1_555 1_555
F8 C28 1_555 1_555
C28 C27 1_555 1_555
F9 C29 1_555 1_555
C29 C28 1_555 1_555
F10 C30 1_555 1_555
C30 C25 1_555 1_555
C13 C14 1_555 1_555
C23 C24 1_555 1_555
C29 C30 1_555 1_555

#END
