
#######################################################################
#
#                 Cambridge Crystallographic Data Centre
#                                CCDC 
#
#######################################################################
#
# If this CIF has been generated from an entry in the Cambridge 
# Structural Database, then it will include bibliographic, chemical, 
# crystal, experimental, refinement or atomic coordinate data resulting 
# from the CCDC's data processing and validation procedures.
#
#######################################################################

data_SIBRUT
_chemical_formula_moiety         'C30 H21 B1 F15 N1'
_chemical_name_systematic        
tris(pentafluorophenyl)[(4,4,8,8-tetramethyl-3-azaspiro[2.5]octan-3-ium-1-ylidene)methyl]borate
_symmetry_cell_setting           monoclinic
_symmetry_space_group_name_H-M   'P 21/n'
_symmetry_Int_Tables_number      14
_space_group_name_Hall           '-P 2yn'
loop_
_symmetry_equiv_pos_site_id
_symmetry_equiv_pos_as_xyz
1 x,y,z
2 1/2-x,1/2+y,1/2-z
3 -x,-y,-z
4 1/2+x,1/2-y,1/2+z
_cell_length_a                   16.6005(8)
_cell_length_b                   15.9553(8)
_cell_length_c                   22.3028(10)
_cell_angle_alpha                90
_cell_angle_beta                 108.385(2)
_cell_angle_gamma                90
_cell_volume                     5605.74
_exptl_crystal_colour            colorless
_exptl_crystal_description       plate
_cell_formula_units_Z            8
loop_
_atom_site_label
_atom_site_type_symbol
_atom_site_fract_x
_atom_site_fract_y
_atom_site_fract_z
B1 B 0.5133(3) 0.3550(2) 0.31429(19)
N1 N 0.3162(2) 0.30153(17) 0.15291(13)
C1 C 0.3445(3) 0.2329(2) 0.20368(16)
H1 H 0.3079 0.2217 0.2302
H2 H 0.3734 0.183 0.1938
C2 C 0.3893(2) 0.3119(2) 0.21220(16)
C3 C 0.4442(2) 0.3668(2) 0.24403(16)
H3 H 0.4442 0.4195 0.2242
C4 C 0.3375(2) 0.2830(2) 0.09089(16)
C5 C 0.3212(3) 0.3628(2) 0.05106(17)
H4 H 0.3647 0.4049 0.0721
H5 H 0.328 0.35 0.0095
C6 C 0.2337(3) 0.4010(3) 0.04030(18)
H6 H 0.2274 0.4523 0.0142
H7 H 0.1891 0.3606 0.0177
C7 C 0.2244(3) 0.4224(2) 0.10414(18)
H8 H 0.1684 0.4492 0.0973
H9 H 0.2685 0.4639 0.1254
C8 C 0.2318(2) 0.3469(2) 0.14812(17)
C9 C 0.4314(2) 0.2611(2) 0.10627(18)
H10 H 0.444 0.2103 0.1323
H11 H 0.4661 0.3076 0.1295
H12 H 0.4445 0.2514 0.0669
C10 C 0.2840(3) 0.2093(2) 0.05673(18)
H13 H 0.3071 0.1881 0.0243
H14 H 0.2253 0.2278 0.0368
H15 H 0.2852 0.1646 0.0872
C11 C 0.2332(3) 0.3796(3) 0.21249(18)
H16 H 0.1807 0.4105 0.2083
H17 H 0.282 0.4169 0.2292
H18 H 0.2378 0.3323 0.2415
C12 C 0.1576(3) 0.2860(3) 0.12345(19)
H19 H 0.1728 0.2316 0.1445
H20 H 0.1448 0.2788 0.0778
H21 H 0.1075 0.3084 0.1323
C13 C 0.5275(2) 0.2547(2) 0.33483(17)
C14 C 0.5244(2) 0.2187(2) 0.39079(17)
C15 C 0.5381(3) 0.1338(2) 0.40477(18)
C16 C 0.5597(3) 0.0819(2) 0.3633(2)
C17 C 0.5666(3) 0.1143(2) 0.30828(19)
C18 C 0.5514(2) 0.1987(2) 0.29575(17)
C19 C 0.6071(2) 0.3892(2) 0.31662(16)
C20 C 0.6753(3) 0.3862(2) 0.37272(17)
C21 C 0.7577(3) 0.4086(2) 0.37866(18)
C22 C 0.7765(2) 0.4381(2) 0.32702(19)
C23 C 0.7128(2) 0.4432(2) 0.27018(17)
C24 C 0.6314(2) 0.4178(2) 0.26578(16)
C25 C 0.4692(2) 0.4086(2) 0.35930(16)
C26 C 0.3935(2) 0.3809(2) 0.36626(16)
C27 C 0.3482(3) 0.4230(2) 0.39897(17)
C28 C 0.3782(3) 0.4981(2) 0.42720(17)
C29 C 0.4532(3) 0.5290(2) 0.42231(16)
C30 C 0.4954(3) 0.4851(2) 0.38862(17)
F1 F 0.50762(15) 0.26474(12) 0.43646(9)
F2 F 0.53028(16) 0.10262(13) 0.45889(11)
F3 F 0.57342(17) -0.00046(13) 0.37657(13)
F4 F 0.58929(16) 0.06429(13) 0.26782(12)
F5 F 0.56111(14) 0.22675(13) 0.24101(9)
F6 F 0.66022(15) 0.35986(14) 0.42567(9)
F7 F 0.81929(15) 0.40450(16) 0.43489(11)
F8 F 0.85568(14) 0.46207(14) 0.33128(11)
F9 F 0.72973(14) 0.47277(13) 0.21847(10)
F10 F 0.57443(14) 0.42271(13) 0.20684(9)
F11 F 0.36020(14) 0.30606(12) 0.34060(9)
F12 F 0.27364(15) 0.39197(14) 0.40199(11)
F13 F 0.33464(17) 0.54090(15) 0.45921(12)
F14 F 0.48260(17) 0.60411(13) 0.44855(11)
F15 F 0.56752(14) 0.52245(12) 0.38453(10)
B2 B 0.4852(3) 0.7018(2) 0.19307(18)
N2 N 0.68460(19) 0.75497(17) 0.35176(13)
C31 C 0.6554(2) 0.8233(2) 0.30143(16)
H22 H 0.6267 0.8731 0.3117
H23 H 0.6913 0.8347 0.2743
C32 C 0.6116(2) 0.7451(2) 0.29350(16)
C33 C 0.5557(2) 0.6895(2) 0.26269(16)
H24 H 0.5562 0.6369 0.2828
C34 C 0.7693(2) 0.7097(2) 0.35574(17)
C35 C 0.7784(3) 0.6350(2) 0.40007(17)
H25 H 0.7337 0.5935 0.3799
H26 H 0.8341 0.608 0.4057
C36 C 0.7722(3) 0.6571(2) 0.46459(18)
H27 H 0.8176 0.6973 0.4861
H28 H 0.7795 0.606 0.491
C37 C 0.6858(2) 0.6958(2) 0.45625(16)
H29 H 0.6822 0.7104 0.4985
H30 H 0.6417 0.6531 0.4377
C38 C 0.6656(2) 0.7741(2) 0.41466(16)
C39 C 0.7662(3) 0.6772(3) 0.29034(17)
H31 H 0.8173 0.6442 0.294
H32 H 0.7634 0.7248 0.2619
H33 H 0.7159 0.6418 0.2732
C40 C 0.8438(3) 0.7713(3) 0.37848(19)
H34 H 0.8546 0.7835 0.4234
H35 H 0.8297 0.8234 0.3541
H36 H 0.8946 0.7463 0.3725
C41 C 0.5718(2) 0.7936(2) 0.40055(17)
H37 H 0.5379 0.7457 0.3791
H38 H 0.557 0.8431 0.3733
H39 H 0.56 0.8046 0.4402
C42 C 0.7180(3) 0.8505(2) 0.44595(17)
H40 H 0.7148 0.8936 0.414
H41 H 0.7773 0.8337 0.4656
H42 H 0.6955 0.873 0.4783
C43 C 0.4706(2) 0.8008(2) 0.17061(16)
C44 C 0.4505(2) 0.8592(2) 0.20924(17)
C45 C 0.4336(3) 0.9430(2) 0.19425(19)
C46 C 0.4361(3) 0.9717(2) 0.13698(19)
C47 C 0.4536(3) 0.9173(2) 0.09559(18)
C48 C 0.4702(2) 0.8333(2) 0.11256(17)
C49 C 0.5279(2) 0.6464(2) 0.14813(16)
C50 C 0.6047(3) 0.6723(2) 0.14139(16)
C51 C 0.6515(2) 0.6273(2) 0.11133(17)
C52 C 0.6206(3) 0.5517(2) 0.08456(17)
C53 C 0.5456(3) 0.5229(2) 0.08894(17)
C54 C 0.5018(2) 0.5694(2) 0.12058(16)
C55 C 0.3917(2) 0.6676(2) 0.19299(16)
C56 C 0.3708(2) 0.6356(2) 0.24390(16)
C57 C 0.2900(2) 0.6090(2) 0.24090(16)
C58 C 0.2242(2) 0.6169(2) 0.18553(17)
C59 C 0.2397(2) 0.6504(2) 0.13350(17)
C60 C 0.3215(2) 0.6731(2) 0.13779(16)
F16 F 0.44490(14) 0.83517(13) 0.26620(9)
F17 F 0.41498(16) 0.99636(13) 0.23509(11)
F18 F 0.42035(17) 1.05334(13) 0.12125(13)
F19 F 0.45548(16) 0.94422(14) 0.03870(11)
F20 F 0.48404(15) 0.78411(12) 0.06743(9)
F21 F 0.63737(14) 0.74880(12) 0.16448(9)
F22 F 0.72648(14) 0.65678(14) 0.10826(10)
F23 F 0.66516(16) 0.50535(13) 0.05515(11)
F24 F 0.51511(15) 0.44752(12) 0.06317(10)
F25 F 0.42896(14) 0.53405(12) 0.12454(10)
F26 F 0.42944(14) 0.62831(13) 0.30152(9)
F27 F 0.27533(14) 0.57733(13) 0.29288(10)
F28 F 0.14529(14) 0.59299(13) 0.18231(10)
F29 F 0.17515(14) 0.65838(14) 0.07944(10)
F30 F 0.33337(14) 0.70242(13) 0.08449(9)
loop_
_geom_bond_atom_site_label_1
_geom_bond_atom_site_label_2
_geom_bond_site_symmetry_1
_geom_bond_site_symmetry_2
B1 C3 1_555 1_555
N1 C1 1_555 1_555
C1 H1 1_555 1_555
H2 C1 1_555 1_555
C2 N1 1_555 1_555
C3 C2 1_555 1_555
H3 C3 1_555 1_555
C4 N1 1_555 1_555
C5 C4 1_555 1_555
H4 C5 1_555 1_555
H5 C5 1_555 1_555
C6 C5 1_555 1_555
H6 C6 1_555 1_555
H7 C6 1_555 1_555
C7 C6 1_555 1_555
H8 C7 1_555 1_555
H9 C7 1_555 1_555
C8 N1 1_555 1_555
C9 C4 1_555 1_555
H10 C9 1_555 1_555
H11 C9 1_555 1_555
H12 C9 1_555 1_555
C10 C4 1_555 1_555
H13 C10 1_555 1_555
H14 C10 1_555 1_555
H15 C10 1_555 1_555
C11 C8 1_555 1_555
H16 C11 1_555 1_555
H17 C11 1_555 1_555
H18 C11 1_555 1_555
C12 C8 1_555 1_555
H19 C12 1_555 1_555
H20 C12 1_555 1_555
H21 C12 1_555 1_555
C13 B1 1_555 1_555
C14 C13 1_555 1_555
C15 C14 1_555 1_555
C16 C15 1_555 1_555
C17 C16 1_555 1_555
C18 C13 1_555 1_555
C19 B1 1_555 1_555
C20 C19 1_555 1_555
C21 C20 1_555 1_555
C22 C21 1_555 1_555
C23 C22 1_555 1_555
C24 C19 1_555 1_555
C25 B1 1_555 1_555
C26 C25 1_555 1_555
C27 C26 1_555 1_555
C28 C27 1_555 1_555
C29 C28 1_555 1_555
C30 C25 1_555 1_555
F1 C14 1_555 1_555
F2 C15 1_555 1_555
F3 C16 1_555 1_555
F4 C17 1_555 1_555
F5 C18 1_555 1_555
F6 C20 1_555 1_555
F7 C21 1_555 1_555
F8 C22 1_555 1_555
F9 C23 1_555 1_555
F10 C24 1_555 1_555
F11 C26 1_555 1_555
F12 C27 1_555 1_555
F13 C28 1_555 1_555
F14 C29 1_555 1_555
F15 C30 1_555 1_555
B2 C33 1_555 1_555
N2 C31 1_555 1_555
C31 H22 1_555 1_555
H23 C31 1_555 1_555
C32 N2 1_555 1_555
C33 C32 1_555 1_555
H24 C33 1_555 1_555
C34 N2 1_555 1_555
C35 C34 1_555 1_555
H25 C35 1_555 1_555
H26 C35 1_555 1_555
C36 C35 1_555 1_555
H27 C36 1_555 1_555
H28 C36 1_555 1_555
C37 C36 1_555 1_555
H29 C37 1_555 1_555
H30 C37 1_555 1_555
C38 N2 1_555 1_555
C39 C34 1_555 1_555
H31 C39 1_555 1_555
H32 C39 1_555 1_555
H33 C39 1_555 1_555
C40 C34 1_555 1_555
H34 C40 1_555 1_555
H35 C40 1_555 1_555
H36 C40 1_555 1_555
C41 C38 1_555 1_555
H37 C41 1_555 1_555
H38 C41 1_555 1_555
H39 C41 1_555 1_555
C42 C38 1_555 1_555
H40 C42 1_555 1_555
H41 C42 1_555 1_555
H42 C42 1_555 1_555
C43 B2 1_555 1_555
C44 C43 1_555 1_555
C45 C44 1_555 1_555
C46 C45 1_555 1_555
C47 C46 1_555 1_555
C48 C43 1_555 1_555
C49 B2 1_555 1_555
C50 C49 1_555 1_555
C51 C50 1_555 1_555
C52 C51 1_555 1_555
C53 C52 1_555 1_555
C54 C49 1_555 1_555
C55 B2 1_555 1_555
C56 C55 1_555 1_555
C57 C56 1_555 1_555
C58 C57 1_555 1_555
C59 C58 1_555 1_555
C60 C55 1_555 1_555
F16 C44 1_555 1_555
F17 C45 1_555 1_555
F18 C46 1_555 1_555
F19 C47 1_555 1_555
F20 C48 1_555 1_555
F21 C50 1_555 1_555
F22 C51 1_555 1_555
F23 C52 1_555 1_555
F24 C53 1_555 1_555
F25 C54 1_555 1_555
F26 C56 1_555 1_555
F27 C57 1_555 1_555
F28 C58 1_555 1_555
F29 C59 1_555 1_555
F30 C60 1_555 1_555
C1 C2 1_555 1_555
C7 C8 1_555 1_555
C17 C18 1_555 1_555
C23 C24 1_555 1_555
C29 C30 1_555 1_555
C31 C32 1_555 1_555
C37 C38 1_555 1_555
C47 C48 1_555 1_555
C53 C54 1_555 1_555
C59 C60 1_555 1_555

#END
