
#######################################################################
#
#                 Cambridge Crystallographic Data Centre
#                                CCDC 
#
#######################################################################
#
# If this CIF has been generated from an entry in the Cambridge 
# Structural Database, then it will include bibliographic, chemical, 
# crystal, experimental, refinement or atomic coordinate data resulting 
# from the CCDC's data processing and validation procedures.
#
#######################################################################

data_SIBSOM
_chemical_formula_moiety         'C23 H14 Br1 F2 N1 O2'
_chemical_name_systematic        
4-Bromo-3,5-difluoro-2,6-bis(4-methoxyphenylethynyl)pyridine
_symmetry_cell_setting           orthorhombic
_symmetry_space_group_name_H-M   'F m m 2'
_symmetry_Int_Tables_number      42
_space_group_name_Hall           'F 2 -2'
loop_
_symmetry_equiv_pos_site_id
_symmetry_equiv_pos_as_xyz
1 x,y,z
2 -x,-y,z
3 x,-y,z
4 -x,y,z
5 x,1/2+y,1/2+z
6 -x,1/2-y,1/2+z
7 x,1/2-y,1/2+z
8 -x,1/2+y,1/2+z
9 1/2+x,y,1/2+z
10 1/2-x,-y,1/2+z
11 1/2+x,-y,1/2+z
12 1/2-x,y,1/2+z
13 1/2+x,1/2+y,z
14 1/2-x,1/2-y,z
15 1/2+x,1/2-y,z
16 1/2-x,1/2+y,z
_cell_length_a                   6.7680(2)
_cell_length_b                   39.553(1)
_cell_length_c                   7.4739(2)
_cell_angle_alpha                90
_cell_angle_beta                 90
_cell_angle_gamma                90
_cell_volume                     2000.72
_exptl_crystal_colour            colorless
_exptl_crystal_description       plate
_chemical_melting_point          '198-200 deg.C'
_cell_formula_units_Z            4
loop_
_atom_site_label
_atom_site_type_symbol
_atom_site_fract_x
_atom_site_fract_y
_atom_site_fract_z
Br1 Br 0.5000 0.0000 0.47169(4)
F1 F 0.5000 0.05978(4) 0.7340(2)
O1 O 0.5000 0.21465(4) 1.5064(3)
N1 N 0.5000 0.0000 1.0975(4)
C1 C 0.5000 0.02929(5) 1.0077(3)
C2 C 0.5000 0.02991(6) 0.8201(3)
C3 C 0.5000 0.0000 0.7219(4)
C4 C 0.5000 0.06045(6) 1.1072(4)
C5 C 0.5000 0.08643(7) 1.1863(3)
C6 C 0.5000 0.11884(6) 1.2756(3)
C7 C 0.3770(6) 0.14548(9) 1.2068(5)
H1 H 0.304(8) 0.1391(11) 1.095(7)
C8 C 0.3834(6) 0.17698(9) 1.2867(5)
H2 H 0.303(7) 0.1976(11) 1.237(8)
C9 C 0.3926(6) 0.12444(9) 1.4272(4)
H3 H 0.312(7) 0.1053(9) 1.459(10)
C10 C 0.3846(5) 0.15644(8) 1.5079(4)
H4 H 0.297(8) 0.1592(12) 1.612(7)
C11 C 0.5000 0.18253(6) 1.4372(3)
C12 C 0.6175(9) 0.22152(12) 1.6580(8)
H5 H 0.582(9) 0.2434(17) 1.696(9)
H6 H 0.592(10) 0.2074(17) 1.750(10)
H7 H 0.753(12) 0.2196(16) 1.615(8)
F1A F 0.5000 -0.05978(4) 0.7340(2)
O1A O 0.5000 -0.21465(4) 1.5064(3)
C1A C 0.5000 -0.02929(5) 1.0077(3)
C2A C 0.5000 -0.02991(6) 0.8201(3)
C4A C 0.5000 -0.06045(6) 1.1072(4)
C5A C 0.5000 -0.08643(7) 1.1863(3)
C6A C 0.5000 -0.11884(6) 1.2756(3)
C7A C 0.6230(6) -0.14548(9) 1.2068(5)
C7B C 0.3770(6) -0.14548(9) 1.2068(5)
C7C C 0.6230(6) 0.14548(9) 1.2068(5)
H1A H 0.696(8) -0.1391(11) 1.095(7)
H1B H 0.304(8) -0.1391(11) 1.095(7)
H1C H 0.696(8) 0.1391(11) 1.095(7)
C8A C 0.6166(6) -0.17698(9) 1.2867(5)
C8B C 0.3834(6) -0.17698(9) 1.2867(5)
C8C C 0.6166(6) 0.17698(9) 1.2867(5)
H2B H 0.303(7) -0.1976(11) 1.237(8)
H2A H 0.697(7) -0.1976(11) 1.237(8)
H2C H 0.697(7) 0.1976(11) 1.237(8)
C9A C 0.6074(6) -0.12444(9) 1.4272(4)
C9B C 0.3926(6) -0.12444(9) 1.4272(4)
C9C C 0.6074(6) 0.12444(9) 1.4272(4)
H3B H 0.312(7) -0.1053(9) 1.459(10)
H3A H 0.688(7) -0.1053(9) 1.459(10)
H3C H 0.688(7) 0.1053(9) 1.459(10)
C10B C 0.3846(5) -0.15644(8) 1.5079(4)
C10A C 0.6154(5) -0.15644(8) 1.5079(4)
C10C C 0.6154(5) 0.15644(8) 1.5079(4)
H4A H 0.703(8) -0.1592(12) 1.612(7)
H4B H 0.297(8) -0.1592(12) 1.612(7)
H4C H 0.703(8) 0.1592(12) 1.612(7)
C11A C 0.5000 -0.18253(6) 1.4372(3)
C12A C 0.3825(9) -0.22152(12) 1.6580(8)
C12B C 0.6175(9) -0.22152(12) 1.6580(8)
C12C C 0.3825(9) 0.22152(12) 1.6580(8)
H5B H 0.582(9) -0.2434(17) 1.696(9)
H5A H 0.418(9) -0.2434(17) 1.696(9)
H5C H 0.418(9) 0.2434(17) 1.696(9)
H6B H 0.592(10) -0.2074(17) 1.750(10)
H6A H 0.408(10) -0.2074(17) 1.750(10)
H6C H 0.408(10) 0.2074(17) 1.750(10)
H7B H 0.753(12) -0.2196(16) 1.615(8)
H7A H 0.247(12) -0.2196(16) 1.615(8)
H7C H 0.247(12) 0.2196(16) 1.615(8)
loop_
_geom_bond_atom_site_label_1
_geom_bond_atom_site_label_2
_geom_bond_site_symmetry_1
_geom_bond_site_symmetry_2
Br1 C3 1_555 1_555
F1 C2 1_555 1_555
O1 C11 1_555 1_555
N1 C1 1_555 1_555
C1 C2 1_555 1_555
C2 C3 1_555 1_555
C3 C2A 1_555 1_555
C4 C1 1_555 1_555
C5 C4 1_555 1_555
C6 C5 1_555 1_555
C7 C6 1_555 1_555
H1 C7 1_555 1_555
C8 C7 1_555 1_555
H2 C8 1_555 1_555
C9 C6 1_555 1_555
H3 C9 1_555 1_555
C10 C9 1_555 1_555
H4 C10 1_555 1_555
C11 C8 1_555 1_555
C12 O1 1_555 1_555
H5 C12 1_555 1_555
H6 C12 1_555 1_555
H7 C12 1_555 1_555
F1A C2A 1_555 1_555
O1A C11A 1_555 1_555
C1A N1 1_555 1_555
C2A C1A 1_555 1_555
C4A C1A 1_555 1_555
C5A C4A 1_555 1_555
C6A C5A 1_555 1_555
C7A C6A 1_555 1_555
C7B C6A 1_555 1_555
C7C C6 1_555 1_555
H1A C7A 1_555 1_555
H1B C7B 1_555 1_555
H1C C7C 1_555 1_555
C8A C7A 1_555 1_555
C8B C7B 1_555 1_555
C8C C8 1_555 1_555
H2B C8B 1_555 1_555
H2A C8A 1_555 1_555
H2C C8C 1_555 1_555
C9A C6A 1_555 1_555
C9B C6A 1_555 1_555
C9C C6 1_555 1_555
H3B C9B 1_555 1_555
H3A C9A 1_555 1_555
H3C C9C 1_555 1_555
C10B C9B 1_555 1_555
C10A C9A 1_555 1_555
C10C C10 1_555 1_555
H4A C10A 1_555 1_555
H4B C10B 1_555 1_555
H4C C10C 1_555 1_555
C11A C8A 1_555 1_555
C12A O1A 1_555 1_555
C12B O1A 1_555 1_555
C12C O1 1_555 1_555
H5B C12B 1_555 1_555
H5A C12A 1_555 1_555
H5C C12C 1_555 1_555
H6B C12B 1_555 1_555
H6A C12A 1_555 1_555
H6C C12C 1_555 1_555
H7B C12B 1_555 1_555
H7A C12A 1_555 1_555
H7C C12C 1_555 1_555
C7 C7C 1_555 1_555
C9 C9C 1_555 1_555
C10 C11 1_555 1_555
C11 C8C 1_555 1_555
C11 C10C 1_555 1_555
C12 C12C 1_555 1_555
C7A C7B 1_555 1_555
C7C C8C 1_555 1_555
C8A C8B 1_555 1_555
C8B C11A 1_555 1_555
C9A C9B 1_555 1_555
C9C C10C 1_555 1_555
C10B C10A 1_555 1_555
C10B C11A 1_555 1_555
C10A C11A 1_555 1_555
C12A C12B 1_555 1_555

#END
