
#######################################################################
#
#                 Cambridge Crystallographic Data Centre
#                                CCDC 
#
#######################################################################
#
# If this CIF has been generated from an entry in the Cambridge 
# Structural Database, then it will include bibliographic, chemical, 
# crystal, experimental, refinement or atomic coordinate data resulting 
# from the CCDC's data processing and validation procedures.
#
#######################################################################

data_SIBTAB
_chemical_name_common            
'(mu-5-phenyl-2-(2,2,6,6-tetramethylpiperidin-1-ium-1-ylidene)pentane-1,3-diyl)(mu-hydrido)tris(pentafluorophenyl)diboron pentane solvate'
_chemical_formula_moiety         'C38 H30 B2 F15 N1,C5 H12'
_chemical_name_systematic        
'1-[2-benzyl-1,6,6-tris(pentafluorophenyl)-1\l^5^,6\l^5^-diborabicyclo[3.1.0]hexan-4-ylidene]-2,2,6,6-tetramethyl-1\l^5^-piperidine pentane solvate'
_symmetry_cell_setting           triclinic
_symmetry_space_group_name_H-M   'P -1'
_symmetry_Int_Tables_number      2
_space_group_name_Hall           '-P 1'
loop_
_symmetry_equiv_pos_site_id
_symmetry_equiv_pos_as_xyz
1 x,y,z
2 -x,-y,-z
_cell_length_a                   11.3453(11)
_cell_length_b                   12.0116(12)
_cell_length_c                   16.1572(17)
_cell_angle_alpha                74.992(5)
_cell_angle_beta                 72.799(5)
_cell_angle_gamma                85.628(5)
_cell_volume                     2031.6
_exptl_crystal_colour            colorless
_exptl_crystal_description       prism
_cell_formula_units_Z            2
loop_
_atom_site_label
_atom_site_type_symbol
_atom_site_fract_x
_atom_site_fract_y
_atom_site_fract_z
N1 N 0.51799(18) 0.54094(18) 0.74731(14)
B1 B 0.2339(3) 0.7174(3) 0.7246(2)
H1 H 0.160(2) 0.661(2) 0.7113(17)
B2 B 0.2511(2) 0.6065(3) 0.6563(2)
C1 C 0.4057(2) 0.5580(2) 0.73769(17)
C2 C 0.3638(2) 0.6544(2) 0.67928(18)
H2 H 0.4275 0.7033 0.6289
C3 C 0.3028(2) 0.4677(2) 0.78246(18)
H3 H 0.2469 0.4851 0.8375
H4 H 0.3379 0.3897 0.7982
C4 C 0.2330(2) 0.4751(2) 0.71248(18)
H5 H 0.1434 0.4591 0.7434
C5 C 0.2850(2) 0.3896(2) 0.65416(19)
H6 H 0.2524 0.4093 0.6017
H7 H 0.376 0.3974 0.6319
C6 C 0.6279(2) 0.6086(2) 0.67629(18)
C7 C 0.7482(2) 0.5456(3) 0.6852(2)
H8 H 0.7481 0.4702 0.6711
H9 H 0.8181 0.5909 0.6396
C8 C 0.7708(3) 0.5250(3) 0.7753(2)
H10 H 0.8159 0.5915 0.7769
H11 H 0.8227 0.4555 0.7849
C9 C 0.6490(2) 0.5087(3) 0.8497(2)
H12 H 0.6222 0.5844 0.8625
H13 H 0.6637 0.4576 0.9046
C10 C 0.5430(2) 0.4575(2) 0.82958(19)
C11 C 0.6314(2) 0.7313(2) 0.68682(19)
H14 H 0.7004 0.7736 0.6396
H15 H 0.6421 0.7281 0.7454
H16 H 0.5538 0.7706 0.6823
C12 C 0.6248(2) 0.6063(3) 0.58190(18)
H17 H 0.5613 0.6595 0.5649
H18 H 0.6058 0.528 0.582
H19 H 0.7055 0.6298 0.5389
C13 C 0.4337(2) 0.4520(2) 0.91339(18)
H20 H 0.3992 0.5294 0.9129
H21 H 0.4618 0.4225 0.9668
H22 H 0.3702 0.4006 0.914
C14 C 0.5748(3) 0.3359(2) 0.8151(2)
H23 H 0.5079 0.3076 0.7991
H24 H 0.5851 0.284 0.8703
H25 H 0.6517 0.3387 0.7667
C15 C 0.2522(2) 0.2664(2) 0.70467(19)
C16 C 0.3387(3) 0.1856(3) 0.7278(2)
H26 H 0.4235 0.2062 0.7088
C17 C 0.3022(3) 0.0748(3) 0.7786(2)
H27 H 0.3619 0.0204 0.7948
C18 C 0.1793(3) 0.0437(3) 0.8056(2)
H28 H 0.1543 -0.0317 0.8411
C19 C 0.0937(3) 0.1216(3) 0.7811(2)
H29 H 0.0095 0.0997 0.7984
C20 C 0.1297(2) 0.2322(2) 0.7312(2)
H30 H 0.0694 0.2858 0.7147
C21 C 0.2131(2) 0.8458(2) 0.66671(18)
C22 C 0.3011(2) 0.9319(2) 0.62397(19)
F1 F 0.41741(13) 0.91411(13) 0.63057(11)
C23 C 0.2779(3) 1.0380(2) 0.57327(19)
F2 F 0.36776(15) 1.11719(14) 0.53293(12)
C24 C 0.1614(3) 1.0633(2) 0.5644(2)
F3 F 0.13615(16) 1.16611(14) 0.51649(12)
C25 C 0.0695(2) 0.9822(2) 0.6065(2)
F4 F -0.04566(15) 1.00613(15) 0.59917(12)
C26 C 0.0963(2) 0.8762(2) 0.65615(19)
F5 F 0.00313(13) 0.79935(14) 0.69478(11)
C27 C 0.1874(2) 0.7029(2) 0.83098(18)
C28 C 0.2584(2) 0.7427(2) 0.87446(19)
F6 F 0.37074(13) 0.78764(14) 0.82698(11)
C29 C 0.2212(3) 0.7396(2) 0.9643(2)
F7 F 0.29461(17) 0.77936(16) 1.00205(12)
C30 C 0.1070(3) 0.6942(3) 1.01615(19)
F8 F 0.06942(17) 0.69005(17) 1.10360(12)
C31 C 0.0332(3) 0.6532(2) 0.9767(2)
F9 F -0.07795(15) 0.60830(16) 1.02631(12)
C32 C 0.0734(2) 0.6574(2) 0.88642(19)
F10 F -0.00233(14) 0.61339(15) 0.85265(11)
C33 C 0.2224(2) 0.6518(2) 0.56158(18)
C34 C 0.2952(2) 0.7256(2) 0.48596(19)
F11 F 0.40448(13) 0.76409(15) 0.48560(11)
C35 C 0.2635(2) 0.7650(2) 0.40693(18)
F12 F 0.33728(14) 0.83730(15) 0.33609(11)
C36 C 0.1537(2) 0.7294(2) 0.40163(19)
F13 F 0.12229(14) 0.76645(15) 0.32506(11)
C37 C 0.0779(2) 0.6563(2) 0.47467(19)
F14 F -0.02958(13) 0.62162(14) 0.46983(11)
C38 C 0.1125(2) 0.6199(2) 0.55206(17)
F15 F 0.03377(13) 0.55073(13) 0.62283(10)
C39 C -0.4219(4) 0.9691(4) 0.8791(3)
H31 H -0.3753 1.0281 0.8882
H32 H -0.5105 0.9812 0.9038
H33 H -0.4032 0.9745 0.815
C40 C -0.3860(3) 0.8505(3) 0.9261(3)
H34 H -0.4 0.8478 0.9901
H35 H -0.4406 0.7923 0.9228
C41 C -0.2529(3) 0.8185(3) 0.8871(3)
H36 H -0.2417 0.8134 0.825
H37 H -0.237 0.7411 0.922
C42 C -0.1575(3) 0.9015(3) 0.8857(3)
H38 H -0.0745 0.8732 0.8585
H39 H -0.1691 0.9774 0.8466
C43 C -0.1615(4) 0.9182(4) 0.9757(3)
H40 H -0.2381 0.9578 0.9992
H41 H -0.0907 0.9648 0.9694
H42 H -0.1584 0.843 1.017
loop_
_geom_bond_atom_site_label_1
_geom_bond_atom_site_label_2
_geom_bond_site_symmetry_1
_geom_bond_site_symmetry_2
N1 C1 1_555 1_555
B1 H1 1_555 1_555
H1 B2 1_555 1_555
B2 C2 1_555 1_555
C1 C2 1_555 1_555
C2 B1 1_555 1_555
H2 C2 1_555 1_555
C3 C1 1_555 1_555
H3 C3 1_555 1_555
H4 C3 1_555 1_555
C4 B2 1_555 1_555
H5 C4 1_555 1_555
C5 C4 1_555 1_555
H6 C5 1_555 1_555
H7 C5 1_555 1_555
C6 N1 1_555 1_555
C7 C6 1_555 1_555
H8 C7 1_555 1_555
H9 C7 1_555 1_555
C8 C7 1_555 1_555
H10 C8 1_555 1_555
H11 C8 1_555 1_555
C9 C8 1_555 1_555
H12 C9 1_555 1_555
H13 C9 1_555 1_555
C10 N1 1_555 1_555
C11 C6 1_555 1_555
H14 C11 1_555 1_555
H15 C11 1_555 1_555
H16 C11 1_555 1_555
C12 C6 1_555 1_555
H17 C12 1_555 1_555
H18 C12 1_555 1_555
H19 C12 1_555 1_555
C13 C10 1_555 1_555
H20 C13 1_555 1_555
H21 C13 1_555 1_555
H22 C13 1_555 1_555
C14 C10 1_555 1_555
H23 C14 1_555 1_555
H24 C14 1_555 1_555
H25 C14 1_555 1_555
C15 C5 1_555 1_555
C16 C15 1_555 1_555
H26 C16 1_555 1_555
C17 C16 1_555 1_555
H27 C17 1_555 1_555
C18 C17 1_555 1_555
H28 C18 1_555 1_555
C19 C18 1_555 1_555
H29 C19 1_555 1_555
C20 C15 1_555 1_555
H30 C20 1_555 1_555
C21 B1 1_555 1_555
C22 C21 1_555 1_555
F1 C22 1_555 1_555
C23 C22 1_555 1_555
F2 C23 1_555 1_555
C24 C23 1_555 1_555
F3 C24 1_555 1_555
C25 C24 1_555 1_555
F4 C25 1_555 1_555
C26 C21 1_555 1_555
F5 C26 1_555 1_555
C27 B1 1_555 1_555
C28 C27 1_555 1_555
F6 C28 1_555 1_555
C29 C28 1_555 1_555
F7 C29 1_555 1_555
C30 C29 1_555 1_555
F8 C30 1_555 1_555
C31 C30 1_555 1_555
F9 C31 1_555 1_555
C32 C27 1_555 1_555
F10 C32 1_555 1_555
C33 B2 1_555 1_555
C34 C33 1_555 1_555
F11 C34 1_555 1_555
C35 C34 1_555 1_555
F12 C35 1_555 1_555
C36 C35 1_555 1_555
F13 C36 1_555 1_555
C37 C36 1_555 1_555
F14 C37 1_555 1_555
C38 C33 1_555 1_555
F15 C38 1_555 1_555
C39 H31 1_555 1_555
H32 C39 1_555 1_555
H33 C39 1_555 1_555
C40 C39 1_555 1_555
H34 C40 1_555 1_555
H35 C40 1_555 1_555
C41 C40 1_555 1_555
H36 C41 1_555 1_555
H37 C41 1_555 1_555
C42 C41 1_555 1_555
H38 C42 1_555 1_555
H39 C42 1_555 1_555
C43 C42 1_555 1_555
H40 C43 1_555 1_555
H41 C43 1_555 1_555
H42 C43 1_555 1_555
C3 C4 1_555 1_555
C9 C10 1_555 1_555
C19 C20 1_555 1_555
C25 C26 1_555 1_555
C31 C32 1_555 1_555
C37 C38 1_555 1_555

#END
