
#######################################################################
#
#                 Cambridge Crystallographic Data Centre
#                                CCDC 
#
#######################################################################
#
# If this CIF has been generated from an entry in the Cambridge 
# Structural Database, then it will include bibliographic, chemical, 
# crystal, experimental, refinement or atomic coordinate data resulting 
# from the CCDC's data processing and validation procedures.
#
#######################################################################

data_SIBXAF
_chemical_formula_moiety         'C13 H12 O1 S1'
_chemical_name_systematic        (benzylsulfinyl)benzene
_symmetry_cell_setting           orthorhombic
_symmetry_space_group_name_H-M   'P 21 21 21'
_symmetry_Int_Tables_number      19
_space_group_name_Hall           'P 2ac 2ab'
loop_
_symmetry_equiv_pos_site_id
_symmetry_equiv_pos_as_xyz
1 x,y,z
2 1/2-x,-y,1/2+z
3 -x,1/2+y,1/2-z
4 1/2+x,1/2-y,-z
_cell_length_a                   5.6721(4)
_cell_length_b                   11.4044(8)
_cell_length_c                   17.1743(12)
_cell_angle_alpha                90
_cell_angle_beta                 90
_cell_angle_gamma                90
_cell_volume                     1110.95
_exptl_crystal_colour            colorless
_exptl_crystal_description       block
_cell_formula_units_Z            4
loop_
_atom_site_label
_atom_site_type_symbol
_atom_site_fract_x
_atom_site_fract_y
_atom_site_fract_z
S1 S 0.17000(9) 0.55611(4) 0.59425(3)
O1 O -0.0784(3) 0.59488(15) 0.58390(10)
C1 C 0.2469(3) 0.47081(16) 0.51079(12)
C2 C 0.4553(4) 0.40865(19) 0.51053(14)
H1 H 0.5595 0.4146 0.5522
C3 C 0.5075(4) 0.3379(2) 0.44822(17)
H2 H 0.6466 0.2948 0.4480
C4 C 0.3554(5) 0.3307(2) 0.38632(15)
H3 H 0.3928 0.2834 0.3439
C5 C 0.1491(5) 0.3926(2) 0.38671(14)
H4 H 0.0461 0.3870 0.3447
C6 C 0.0931(4) 0.4635(2) 0.44919(14)
H5 H -0.0471 0.5058 0.4496
C7 C 0.3543(4) 0.68256(17) 0.57326(11)
H6 H 0.5155 0.6572 0.5648
H7 H 0.2994 0.7206 0.5261
C8 C 0.3467(4) 0.76763(17) 0.63940(11)
C9 C 0.1570(4) 0.84310(19) 0.64947(12)
H8 H 0.0326 0.8416 0.6142
C10 C 0.1513(5) 0.9200(2) 0.71106(14)
H9 H 0.0230 0.9700 0.7172
C11 C 0.3337(5) 0.9237(2) 0.76361(13)
H10 H 0.3298 0.9761 0.8051
C12 C 0.5213(5) 0.8496(2) 0.75429(14)
H11 H 0.6455 0.8518 0.7896
C13 C 0.5281(4) 0.77183(19) 0.69312(13)
H12 H 0.6561 0.7215 0.6878
loop_
_geom_bond_atom_site_label_1
_geom_bond_atom_site_label_2
_geom_bond_site_symmetry_1
_geom_bond_site_symmetry_2
S1 O1 1_555 1_555
C1 S1 1_555 1_555
C2 C1 1_555 1_555
H1 C2 1_555 1_555
C3 C2 1_555 1_555
H2 C3 1_555 1_555
C4 C3 1_555 1_555
H3 C4 1_555 1_555
C5 C4 1_555 1_555
H4 C5 1_555 1_555
C6 C1 1_555 1_555
H5 C6 1_555 1_555
C7 S1 1_555 1_555
H6 C7 1_555 1_555
H7 C7 1_555 1_555
C8 C7 1_555 1_555
C9 C8 1_555 1_555
H8 C9 1_555 1_555
C10 C9 1_555 1_555
H9 C10 1_555 1_555
C11 C10 1_555 1_555
H10 C11 1_555 1_555
C12 C11 1_555 1_555
H11 C12 1_555 1_555
C13 C8 1_555 1_555
H12 C13 1_555 1_555
C5 C6 1_555 1_555
C12 C13 1_555 1_555

#END
