
#######################################################################
#
#                 Cambridge Crystallographic Data Centre
#                                CCDC 
#
#######################################################################
#
# If this CIF has been generated from an entry in the Cambridge 
# Structural Database, then it will include bibliographic, chemical, 
# crystal, experimental, refinement or atomic coordinate data resulting 
# from the CCDC's data processing and validation procedures.
#
#######################################################################

data_SIBXIN
_chemical_formula_moiety         'C42 H48 N1 O2 P1 S1,C4 H8 O2'
_chemical_name_systematic        
'N-{[5-(diphenylphosphanyl)-9,9-dimethyl-9H-xanthen-4-yl](tricyclo[3.3.1.1^3,7^]decan-1-yl)methyl}-2-methylpropane-2-sulfinamide ethyl acetate solvate'
_symmetry_cell_setting           orthorhombic
_symmetry_space_group_name_H-M   'P 21 21 21'
_symmetry_Int_Tables_number      19
_space_group_name_Hall           'P 2ac 2ab'
loop_
_symmetry_equiv_pos_site_id
_symmetry_equiv_pos_as_xyz
1 x,y,z
2 1/2-x,-y,1/2+z
3 -x,1/2+y,1/2-z
4 1/2+x,1/2-y,-z
_cell_length_a                   10.6988(5)
_cell_length_b                   13.7990(7)
_cell_length_c                   28.2128(14)
_cell_angle_alpha                90
_cell_angle_beta                 90
_cell_angle_gamma                90
_cell_volume                     4165.13
_exptl_crystal_colour            colorless
_exptl_crystal_description       block
_cell_formula_units_Z            4
loop_
_atom_site_label
_atom_site_type_symbol
_atom_site_fract_x
_atom_site_fract_y
_atom_site_fract_z
P1 P 0.67914(7) 0.90094(6) 0.16496(3)
S1 S 0.91527(9) 1.19914(6) 0.06996(3)
O1 O 0.9983(4) 1.2118(2) 0.02821(9)
O2 O 0.90846(17) 0.89684(14) 0.11366(7)
N1 N 1.0016(2) 1.17755(16) 0.11749(9)
H1 H 1.0444 1.2225 0.1309
C1 C 1.0249(2) 0.9146(2) 0.09462(9)
C2 C 1.0733(2) 1.0061(2) 0.10455(9)
C3 C 1.1891(3) 1.0288(2) 0.08469(11)
H2 H 1.2229 1.0901 0.0895
C4 C 1.2541(3) 0.9623(2) 0.05824(12)
H3 H 1.3321 0.9782 0.0459
C5 C 1.2040(3) 0.8722(2) 0.04997(11)
H4 H 1.2492 0.8277 0.0321
C6 C 1.0876(3) 0.8458(2) 0.06756(10)
C7 C 1.0340(3) 0.7452(2) 0.05839(11)
C8 C 0.9032(3) 0.7367(2) 0.07815(10)
C9 C 0.8335(3) 0.6530(2) 0.07205(12)
H5 H 0.8668 0.6023 0.0544
C10 C 0.7158(3) 0.6432(2) 0.09153(12)
H6 H 0.6709 0.5863 0.0870
C11 C 0.6651(3) 0.7175(2) 0.11767(12)
H7 H 0.5857 0.7102 0.1306
C12 C 0.7304(3) 0.8035(2) 0.12518(10)
C13 C 0.8495(3) 0.8106(2) 0.10468(10)
C14 C 1.0338(4) 0.7252(3) 0.00493(15)
H8 H 0.9822 0.7723 -0.0108
H9 H 1.0014 0.6615 -0.0009
H10 H 1.1176 0.7295 -0.0070
C15 C 1.1180(3) 0.6689(3) 0.08373(18)
H11 H 1.1178 0.6810 0.1172
H12 H 1.2019 0.6737 0.0719
H13 H 1.0862 0.6051 0.0777
C16 C 0.5352(3) 0.8503(2) 0.18930(11)
C17 C 0.4224(3) 0.8426(2) 0.16518(14)
H14 H 0.4171 0.8653 0.1342
C18 C 0.3192(3) 0.8026(3) 0.18576(16)
H15 H 0.2446 0.7980 0.1690
C19 C 0.3265(4) 0.7687(3) 0.23199(19)
H16 H 0.2567 0.7408 0.2461
C20 C 0.4356(4) 0.7762(3) 0.25679(15)
H17 H 0.4399 0.7546 0.2880
C21 C 0.5394(3) 0.8160(2) 0.23541(12)
H18 H 0.6139 0.8200 0.2523
C22 C 0.6164(3) 0.9920(2) 0.12453(11)
C23 C 0.6399(3) 0.9942(3) 0.07623(12)
H19 H 0.6861 0.9448 0.0622
C24 C 0.5944(4) 1.0704(3) 0.04838(15)
H20 H 0.6118 1.0717 0.0161
C25 C 0.5256(4) 1.1418(3) 0.06792(18)
H21 H 0.4950 1.1917 0.0491
C26 C 0.5007(4) 1.1407(3) 0.11581(18)
H22 H 0.4528 1.1898 0.1292
C27 C 0.5464(3) 1.0673(3) 0.14386(14)
H23 H 0.5303 1.0679 0.1763
C28 C 1.0014(3) 1.07691(19) 0.13568(10)
H24 H 0.9141 1.0554 0.1356
C29 C 0.8608(3) 1.3217(2) 0.08395(12)
C30 C 0.9708(4) 1.3879(3) 0.09225(18)
H25 H 0.9413 1.4519 0.0994
H26 H 1.0218 1.3898 0.0643
H27 H 1.0193 1.3640 0.1184
C31 C 0.7763(4) 1.3146(3) 0.12696(14)
H28 H 0.7458 1.3780 0.1350
H29 H 0.8225 1.2886 0.1532
H30 H 0.7070 1.2729 0.1199
C32 C 0.7854(4) 1.3532(3) 0.04081(14)
H31 H 0.7538 1.4175 0.0458
H32 H 0.7169 1.3093 0.0362
H33 H 0.8381 1.3526 0.0133
C33 C 1.0445(3) 1.0772(2) 0.18850(10)
C34 C 0.9536(4) 1.1370(3) 0.21770(12)
H34 H 0.8698 1.1113 0.2139
H35 H 0.9538 1.2034 0.2064
C35 C 0.9896(5) 1.1352(4) 0.27001(14)
H36 H 0.9288 1.1737 0.2879
C36 C 1.1159(6) 1.1788(3) 0.27633(17)
H37 H 1.1382 1.1791 0.3097
H38 H 1.1157 1.2452 0.2651
C37 C 1.2116(4) 1.1187(3) 0.24807(14)
H39 H 1.2953 1.1463 0.2521
C38 C 1.2092(4) 1.0155(3) 0.26669(14)
H40 H 1.2700 0.9767 0.2497
H41 H 1.2315 1.0152 0.3000
C39 C 1.0816(4) 0.9729(3) 0.26046(13)
H42 H 1.0819 0.9060 0.2721
C40 C 1.0451(3) 0.9732(2) 0.20798(11)
H43 H 0.9628 0.9448 0.2043
H44 H 1.1041 0.9342 0.1901
C41 C 1.1761(3) 1.1191(2) 0.19545(13)
H45 H 1.1787 1.1849 0.1834
H46 H 1.2360 1.0807 0.1777
C42 C 0.9861(5) 1.0312(4) 0.28823(14)
H47 H 1.0061 1.0297 0.3218
H48 H 0.9033 1.0040 0.2839
O3 O 0.4200(5) 0.4953(4) 0.10535(17)
O4 O 0.3387(10) 0.3774(6) 0.1464(3)
C43 C 0.4090(8) 0.5048(6) 0.0231(2)
H49 H 0.3850 0.4718 -0.0055
H50 H 0.4962 0.5211 0.0216
H51 H 0.3606 0.5630 0.0263
C44 C 0.3867(11) 0.4423(6) 0.0634(3)
H52 H 0.4370 0.3841 0.0609
H53 H 0.2994 0.4237 0.0647
C45 C 0.3881(10) 0.4626(6) 0.1462(3)
C46 C 0.4197(10) 0.5243(5) 0.1861(2)
H54 H 0.4561 0.5835 0.1747
H55 H 0.4786 0.4914 0.2061
H56 H 0.3455 0.5387 0.2038
loop_
_geom_bond_atom_site_label_1
_geom_bond_atom_site_label_2
_geom_bond_site_symmetry_1
_geom_bond_site_symmetry_2
P1 C12 1_555 1_555
S1 O1 1_555 1_555
O2 C1 1_555 1_555
N1 S1 1_555 1_555
H1 N1 1_555 1_555
C1 C2 1_555 1_555
C2 C3 1_555 1_555
C3 H2 1_555 1_555
C4 C3 1_555 1_555
H3 C4 1_555 1_555
C5 C4 1_555 1_555
H4 C5 1_555 1_555
C6 C1 1_555 1_555
C7 C6 1_555 1_555
C8 C7 1_555 1_555
C9 C8 1_555 1_555
H5 C9 1_555 1_555
C10 C9 1_555 1_555
H6 C10 1_555 1_555
C11 C10 1_555 1_555
H7 C11 1_555 1_555
C12 C11 1_555 1_555
C13 O2 1_555 1_555
C14 C7 1_555 1_555
H8 C14 1_555 1_555
H9 C14 1_555 1_555
H10 C14 1_555 1_555
C15 C7 1_555 1_555
H11 C15 1_555 1_555
H12 C15 1_555 1_555
H13 C15 1_555 1_555
C16 P1 1_555 1_555
C17 C16 1_555 1_555
H14 C17 1_555 1_555
C18 C17 1_555 1_555
H15 C18 1_555 1_555
C19 C18 1_555 1_555
H16 C19 1_555 1_555
C20 C19 1_555 1_555
H17 C20 1_555 1_555
C21 C16 1_555 1_555
H18 C21 1_555 1_555
C22 P1 1_555 1_555
C23 C22 1_555 1_555
H19 C23 1_555 1_555
C24 C23 1_555 1_555
H20 C24 1_555 1_555
C25 C24 1_555 1_555
H21 C25 1_555 1_555
C26 C25 1_555 1_555
H22 C26 1_555 1_555
C27 C22 1_555 1_555
H23 C27 1_555 1_555
C28 N1 1_555 1_555
H24 C28 1_555 1_555
C29 S1 1_555 1_555
C30 C29 1_555 1_555
H25 C30 1_555 1_555
H26 C30 1_555 1_555
H27 C30 1_555 1_555
C31 C29 1_555 1_555
H28 C31 1_555 1_555
H29 C31 1_555 1_555
H30 C31 1_555 1_555
C32 C29 1_555 1_555
H31 C32 1_555 1_555
H32 C32 1_555 1_555
H33 C32 1_555 1_555
C33 C28 1_555 1_555
C34 C33 1_555 1_555
H34 C34 1_555 1_555
H35 C34 1_555 1_555
C35 C34 1_555 1_555
H36 C35 1_555 1_555
C36 C35 1_555 1_555
H37 C36 1_555 1_555
H38 C36 1_555 1_555
C37 C36 1_555 1_555
H39 C37 1_555 1_555
C38 C37 1_555 1_555
H40 C38 1_555 1_555
H41 C38 1_555 1_555
C39 C38 1_555 1_555
H42 C39 1_555 1_555
C40 C33 1_555 1_555
H43 C40 1_555 1_555
H44 C40 1_555 1_555
C41 C33 1_555 1_555
H45 C41 1_555 1_555
H46 C41 1_555 1_555
C42 C35 1_555 1_555
H47 C42 1_555 1_555
H48 C42 1_555 1_555
O3 C44 1_555 1_555
O4 C45 1_555 1_555
C43 H49 1_555 1_555
H50 C43 1_555 1_555
H51 C43 1_555 1_555
C44 C43 1_555 1_555
H52 C44 1_555 1_555
H53 C44 1_555 1_555
C45 O3 1_555 1_555
C46 C45 1_555 1_555
H54 C46 1_555 1_555
H55 C46 1_555 1_555
H56 C46 1_555 1_555
C2 C28 1_555 1_555
C5 C6 1_555 1_555
C8 C13 1_555 1_555
C12 C13 1_555 1_555
C20 C21 1_555 1_555
C26 C27 1_555 1_555
C37 C41 1_555 1_555
C39 C40 1_555 1_555
C39 C42 1_555 1_555

#END
