
#######################################################################
#
#                 Cambridge Crystallographic Data Centre
#                                CCDC 
#
#######################################################################
#
# If this CIF has been generated from an entry in the Cambridge 
# Structural Database, then it will include bibliographic, chemical, 
# crystal, experimental, refinement or atomic coordinate data resulting 
# from the CCDC's data processing and validation procedures.
#
#######################################################################

data_SIBYOU
_chemical_formula_moiety         'C18 H19 Br1 N4 O2'
_chemical_name_systematic        
4-(benzyloxy)-1-[(4-bromophenyl)methyl]-6,6-dimethyl-1,6-dihydro-1,2,3,4-tetrazin-5(4H)-one
_symmetry_cell_setting           monoclinic
_symmetry_space_group_name_H-M   'P 21/c'
_symmetry_Int_Tables_number      14
_space_group_name_Hall           '-P 2ybc'
loop_
_symmetry_equiv_pos_site_id
_symmetry_equiv_pos_as_xyz
1 x,y,z
2 -x,1/2+y,1/2-z
3 -x,-y,-z
4 x,1/2-y,1/2+z
_cell_length_a                   6.5552(9)
_cell_length_b                   15.096(2)
_cell_length_c                   18.660(2)
_cell_angle_alpha                90
_cell_angle_beta                 97.604(3)
_cell_angle_gamma                90
_cell_volume                     1830.31
_exptl_crystal_colour            colorless
_exptl_crystal_description       block
_cell_formula_units_Z            4
loop_
_atom_site_label
_atom_site_type_symbol
_atom_site_fract_x
_atom_site_fract_y
_atom_site_fract_z
Br1 Br 0.84705(7) 0.31038(3) 0.43711(3)
O1 O 0.1759(4) 0.84654(16) 0.33248(14)
O2 O -0.1696(4) 0.78775(19) 0.37876(17)
N1 N 0.0608(4) 0.59234(18) 0.32437(17)
N2 N 0.1210(5) 0.75832(19) 0.33109(17)
N3 N 0.2311(5) 0.7096(2) 0.28619(18)
N4 N 0.2003(5) 0.6274(2) 0.28360(18)
C1 C -0.1336(5) 0.6431(2) 0.3265(2)
C2 C -0.0677(6) 0.7363(2) 0.3495(2)
C3 C 0.5946(6) 0.3641(2) 0.3967(2)
C4 C 0.2372(6) 0.4487(2) 0.3389(2)
C5 C 0.3358(6) 0.9617(2) 0.4064(2)
C6 C 0.5140(6) 1.0067(3) 0.3993(2)
H1 H 0.6290 0.9758 0.3855
C7 C 0.0429(6) 0.4963(2) 0.3091(2)
H2 H 0.0155 0.4868 0.2562
H3 H -0.0743 0.4718 0.3311
C8 C 0.4764(6) 0.4047(3) 0.4420(2)
H4 H 0.5159 0.4035 0.4929
C9 C -0.2611(6) 0.6480(3) 0.2523(2)
H5 H -0.1777 0.6735 0.2175
H6 H -0.3822 0.6854 0.2549
H7 H -0.3057 0.5883 0.2366
C10 C 0.3579(7) 0.4054(3) 0.2949(2)
H8 H 0.3173 0.4049 0.2441
C11 C 0.2983(6) 0.4475(3) 0.4128(2)
H9 H 0.2164 0.4766 0.4439
C12 C 0.1702(7) 1.0073(3) 0.4261(2)
H10 H 0.0460 0.9769 0.4311
C13 C 0.3236(6) 0.8630(2) 0.3963(2)
H11 H 0.4601 0.8388 0.3895
H12 H 0.2779 0.8344 0.4392
C14 C 0.5377(7) 0.3627(3) 0.3235(3)
H13 H 0.6199 0.3330 0.2928
C15 C 0.5267(8) 1.0972(3) 0.4123(2)
H14 H 0.6502 1.1281 0.4072
C16 C -0.2552(7) 0.6046(3) 0.3824(2)
H15 H -0.3156 0.5479 0.3649
H16 H -0.3652 0.6457 0.3908
H17 H -0.1637 0.5951 0.4277
C17 C 0.1849(9) 1.0977(3) 0.4387(3)
H18 H 0.0701 1.1292 0.4519
C18 C 0.3633(9) 1.1417(3) 0.4321(2)
H19 H 0.3730 1.2035 0.4414
loop_
_geom_bond_atom_site_label_1
_geom_bond_atom_site_label_2
_geom_bond_site_symmetry_1
_geom_bond_site_symmetry_2
Br1 C3 1_555 1_555
O1 N2 1_555 1_555
O2 C2 1_555 1_555
N1 N4 1_555 1_555
N2 N3 1_555 1_555
N3 N4 1_555 1_555
C1 N1 1_555 1_555
C2 N2 1_555 1_555
C3 C8 1_555 1_555
C4 C7 1_555 1_555
C5 C6 1_555 1_555
C6 H1 1_555 1_555
C7 N1 1_555 1_555
H2 C7 1_555 1_555
H3 C7 1_555 1_555
C8 H4 1_555 1_555
C9 C1 1_555 1_555
H5 C9 1_555 1_555
H6 C9 1_555 1_555
H7 C9 1_555 1_555
C10 C4 1_555 1_555
H8 C10 1_555 1_555
C11 C4 1_555 1_555
H9 C11 1_555 1_555
C12 C5 1_555 1_555
H10 C12 1_555 1_555
C13 O1 1_555 1_555
H11 C13 1_555 1_555
H12 C13 1_555 1_555
C14 C3 1_555 1_555
H13 C14 1_555 1_555
C15 C6 1_555 1_555
H14 C15 1_555 1_555
C16 C1 1_555 1_555
H15 C16 1_555 1_555
H16 C16 1_555 1_555
H17 C16 1_555 1_555
C17 C12 1_555 1_555
H18 C17 1_555 1_555
C18 C15 1_555 1_555
H19 C18 1_555 1_555
C1 C2 1_555 1_555
C5 C13 1_555 1_555
C8 C11 1_555 1_555
C10 C14 1_555 1_555
C17 C18 1_555 1_555

#END
