
#######################################################################
#
#                 Cambridge Crystallographic Data Centre
#                                CCDC 
#
#######################################################################
#
# If this CIF has been generated from an entry in the Cambridge 
# Structural Database, then it will include bibliographic, chemical, 
# crystal, experimental, refinement or atomic coordinate data resulting 
# from the CCDC's data processing and validation procedures.
#
#######################################################################

data_SIBYIN
_chemical_formula_moiety         'C32 H26 Br2 N2'
_chemical_name_systematic        
N,N'-Tetracyclo[6.6.2.0^2,7^.0^9,14^]hexadeca-2,4,6,9,11,13-hexaene-15,16-diylidenebis(4-bromo-2,6-dimethylaniline)
_symmetry_cell_setting           orthorhombic
_symmetry_space_group_name_H-M   'P b c a'
_symmetry_Int_Tables_number      61
_space_group_name_Hall           '-P 2ac 2ab'
loop_
_symmetry_equiv_pos_site_id
_symmetry_equiv_pos_as_xyz
1 x,y,z
2 1/2-x,-y,1/2+z
3 -x,1/2+y,1/2-z
4 1/2+x,1/2-y,-z
5 -x,-y,-z
6 1/2+x,y,1/2-z
7 x,1/2-y,1/2+z
8 1/2-x,1/2+y,z
_cell_length_a                   16.846(2)
_cell_length_b                   13.7766(18)
_cell_length_c                   22.911(3)
_cell_angle_alpha                90
_cell_angle_beta                 90
_cell_angle_gamma                90
_cell_volume                     5317.2
_exptl_crystal_colour            yellow
_exptl_crystal_description       block
_cell_formula_units_Z            8
loop_
_atom_site_label
_atom_site_type_symbol
_atom_site_fract_x
_atom_site_fract_y
_atom_site_fract_z
Br1 Br 0.13286(3) 0.75719(3) 0.437722(19)
Br2 Br 0.23305(3) 0.33140(3) 0.074161(16)
N1 N 0.06367(15) 0.36373(16) 0.30722(11)
N2 N -0.01910(17) 0.35965(18) 0.42328(11)
C1 C 0.0538(3) 0.0833(2) 0.45966(18)
H1 H 0.0234 0.0879 0.4934
C2 C 0.1228(3) 0.0306(3) 0.4594(2)
H2 H 0.1387 -0.0016 0.4931
C3 C 0.1687(3) 0.0245(3) 0.4102(3)
H3 H 0.2149 -0.0124 0.4107
C4 C 0.1468(2) 0.0732(2) 0.3597(2)
H4 H 0.1789 0.0710 0.3266
C5 C 0.0765(2) 0.1251(2) 0.35935(15)
C6 C 0.0301(2) 0.1294(2) 0.40910(15)
C7 C -0.0441(2) 0.1913(2) 0.40162(14)
H5 H -0.0773 0.1921 0.4367
C8 C -0.0882(2) 0.1545(2) 0.34856(15)
C9 C -0.04139(19) 0.15044(19) 0.29870(14)
C10 C 0.04329(18) 0.18320(19) 0.30909(14)
H6 H 0.0761 0.1783 0.2739
C11 C -0.1666(2) 0.1241(2) 0.34592(19)
H7 H -0.1984 0.1253 0.3791
C12 C -0.1967(2) 0.0921(3) 0.2933(2)
H8 H -0.2492 0.0714 0.2912
C13 C -0.1510(3) 0.0903(2) 0.2444(2)
H9 H -0.1728 0.0696 0.2092
C14 C -0.0726(2) 0.1190(2) 0.24639(16)
H10 H -0.0412 0.1172 0.2130
C15 C -0.00981(19) 0.2909(2) 0.38726(13)
C16 C 0.03693(17) 0.2878(2) 0.33164(13)
C17 C 0.01955(19) 0.4512(2) 0.42058(13)
C18 C -0.02123(19) 0.5314(2) 0.39945(14)
C19 C 0.0136(2) 0.6224(2) 0.40468(15)
H11 H -0.0124 0.6771 0.3905
C20 C 0.0865(2) 0.6314(2) 0.43091(14)
C21 C 0.1261(2) 0.5529(2) 0.45258(15)
H12 H 0.1752 0.5611 0.4705
C22 C 0.0932(2) 0.4605(2) 0.44803(14)
C23 C 0.10405(18) 0.35461(18) 0.25258(13)
C24 C 0.06064(19) 0.3669(2) 0.20135(14)
C25 C 0.1000(2) 0.3607(2) 0.14838(14)
H13 H 0.0721 0.3683 0.1137
C26 C 0.1802(2) 0.3433(2) 0.14723(13)
C27 C 0.22365(19) 0.3328(2) 0.19774(14)
H14 H 0.2781 0.3219 0.1959
C28 C 0.18540(19) 0.33885(19) 0.25172(13)
C29 C -0.1009(2) 0.5205(3) 0.37108(19)
H15 H -0.1226 0.5835 0.3631
H16 H -0.1358 0.4857 0.3967
H17 H -0.0952 0.4852 0.3352
C30 C 0.1357(2) 0.3741(3) 0.47265(18)
H18 H 0.1523 0.3324 0.4414
H19 H 0.1007 0.3391 0.4982
H20 H 0.1814 0.3954 0.4942
C31 C -0.0272(2) 0.3849(3) 0.20348(17)
H21 H -0.0537 0.3277 0.2175
H22 H -0.0461 0.4003 0.1650
H23 H -0.0381 0.4382 0.2293
C32 C 0.2324(2) 0.3278(3) 0.30736(15)
H24 H 0.2194 0.3798 0.3336
H25 H 0.2881 0.3296 0.2986
H26 H 0.2195 0.2668 0.3254
loop_
_geom_bond_atom_site_label_1
_geom_bond_atom_site_label_2
_geom_bond_site_symmetry_1
_geom_bond_site_symmetry_2
Br1 C20 1_555 1_555
Br2 C26 1_555 1_555
N1 C16 1_555 1_555
N2 C15 1_555 1_555
C1 H1 1_555 1_555
C2 C1 1_555 1_555
H2 C2 1_555 1_555
C3 C2 1_555 1_555
H3 C3 1_555 1_555
C4 C3 1_555 1_555
H4 C4 1_555 1_555
C5 C4 1_555 1_555
C6 C1 1_555 1_555
C7 C6 1_555 1_555
H5 C7 1_555 1_555
C8 C7 1_555 1_555
C9 C8 1_555 1_555
C10 C5 1_555 1_555
H6 C10 1_555 1_555
C11 C8 1_555 1_555
H7 C11 1_555 1_555
C12 C11 1_555 1_555
H8 C12 1_555 1_555
C13 C12 1_555 1_555
H9 C13 1_555 1_555
C14 C9 1_555 1_555
H10 C14 1_555 1_555
C15 C7 1_555 1_555
C16 C10 1_555 1_555
C17 N2 1_555 1_555
C18 C17 1_555 1_555
C19 C18 1_555 1_555
H11 C19 1_555 1_555
C20 C19 1_555 1_555
C21 C20 1_555 1_555
H12 C21 1_555 1_555
C22 C17 1_555 1_555
C23 N1 1_555 1_555
C24 C23 1_555 1_555
C25 C24 1_555 1_555
H13 C25 1_555 1_555
C26 C25 1_555 1_555
C27 C26 1_555 1_555
H14 C27 1_555 1_555
C28 C23 1_555 1_555
C29 C18 1_555 1_555
H15 C29 1_555 1_555
H16 C29 1_555 1_555
H17 C29 1_555 1_555
C30 C22 1_555 1_555
H18 C30 1_555 1_555
H19 C30 1_555 1_555
H20 C30 1_555 1_555
C31 C24 1_555 1_555
H21 C31 1_555 1_555
H22 C31 1_555 1_555
H23 C31 1_555 1_555
C32 C28 1_555 1_555
H24 C32 1_555 1_555
H25 C32 1_555 1_555
H26 C32 1_555 1_555
C5 C6 1_555 1_555
C9 C10 1_555 1_555
C13 C14 1_555 1_555
C15 C16 1_555 1_555
C21 C22 1_555 1_555
C27 C28 1_555 1_555

#END
