
#######################################################################
#
#                 Cambridge Crystallographic Data Centre
#                                CCDC 
#
#######################################################################
#
# If this CIF has been generated from an entry in the Cambridge 
# Structural Database, then it will include bibliographic, chemical, 
# crystal, experimental, refinement or atomic coordinate data resulting 
# from the CCDC's data processing and validation procedures.
#
#######################################################################

data_SICBIS
_chemical_formula_moiety         'C17 H14 N2 O1 S1'
_chemical_name_systematic        
1-phenyl-3-(thiophen-2-yl)-1,5,6,7-tetrahydro-4H-indazol-4-one
_symmetry_cell_setting           orthorhombic
_symmetry_space_group_name_H-M   'P b c a'
_symmetry_Int_Tables_number      61
_space_group_name_Hall           '-P 2ac 2ab'
loop_
_symmetry_equiv_pos_site_id
_symmetry_equiv_pos_as_xyz
1 x,y,z
2 1/2-x,-y,1/2+z
3 -x,1/2+y,1/2-z
4 1/2+x,1/2-y,-z
5 -x,-y,-z
6 1/2+x,y,1/2-z
7 x,1/2-y,1/2+z
8 1/2-x,1/2+y,z
_cell_length_a                   31.267(8)
_cell_length_b                   8.132(3)
_cell_length_c                   22.702(6)
_cell_angle_alpha                90
_cell_angle_beta                 90
_cell_angle_gamma                90
_cell_volume                     5772.28
_exptl_crystal_colour            colorless
_exptl_crystal_description       block
_cell_formula_units_Z            16
loop_
_atom_site_label
_atom_site_type_symbol
_atom_site_fract_x
_atom_site_fract_y
_atom_site_fract_z
S1 S 0.12016(3) 0.85663(17) 0.03789(5)
N1 N 0.03012(9) 0.7791(4) 0.06028(11)
O1 O 0.01251(10) 0.8507(4) -0.12947(11)
N2 N -0.01049(9) 0.7138(4) 0.06280(11)
C1 C 0.07917(11) 0.8764(5) -0.01223(15)
C2 C -0.00001(11) 0.7720(5) -0.03061(14)
C3 C 0.03688(11) 0.8138(5) 0.00384(15)
C4 C -0.02887(11) 0.7067(5) 0.00903(14)
C5 C -0.01018(13) 0.7844(5) -0.09303(16)
C6 C -0.01569(12) 0.7629(5) 0.16820(15)
H1 H 0.0007 0.8576 0.1636
C7 C 0.13691(15) 1.0001(7) -0.05772(19)
H2 H 0.1519 1.0558 -0.0870
C8 C -0.02698(11) 0.6686(5) 0.11950(15)
C9 C -0.05263(13) 0.5320(6) 0.12583(16)
H3 H -0.0605 0.4702 0.0931
C10 C -0.08468(15) 0.6923(8) -0.06585(18)
H4 H -0.1052 0.6122 -0.0800
H5 H -0.0994 0.7971 -0.0635
C11 C -0.07242(12) 0.6443(6) -0.00536(17)
H6 H -0.0729 0.5254 -0.0019
H7 H -0.0929 0.6889 0.0224
C12 C 0.09260(12) 0.9564(5) -0.06357(16)
H8 H 0.0756 0.9779 -0.0962
C13 C -0.02899(13) 0.7142(6) 0.22297(16)
H9 H -0.0208 0.7751 0.2558
C14 C -0.05405(14) 0.5778(6) 0.23042(18)
H10 H -0.0626 0.5457 0.2679
C15 C -0.06651(13) 0.4880(6) 0.18131(18)
H11 H -0.0844 0.3975 0.1859
C16 C 0.15485(13) 0.9545(6) -0.00717(19)
H12 H 0.1833 0.9743 0.0023
C17 C -0.05147(13) 0.7075(7) -0.10993(17)
H13 H -0.0631 0.7702 -0.1425
H14 H -0.0453 0.5981 -0.1247
S2 S 0.12550(4) 0.56825(18) 0.28498(5)
N3 N 0.21727(9) 0.5912(4) 0.30660(12)
C18 C 0.27992(11) 0.5657(5) 0.36684(15)
N4 N 0.26104(9) 0.5870(4) 0.30995(12)
C19 C 0.20841(11) 0.6205(5) 0.25046(16)
C20 C 0.27926(11) 0.6118(5) 0.25675(16)
C21 C 0.16305(11) 0.6278(5) 0.23423(15)
O2 O 0.22872(11) 0.6939(6) 0.11781(13)
C22 C 0.24672(12) 0.6343(5) 0.21659(15)
C23 C 0.31577(12) 0.4693(5) 0.37395(17)
H15 H 0.3285 0.4186 0.3417
C24 C 0.26105(13) 0.6410(6) 0.41492(17)
H16 H 0.2372 0.7080 0.4098
C25 C 0.33245(13) 0.4491(6) 0.42986(19)
H17 H 0.3571 0.3865 0.4350
C26 C 0.09884(14) 0.6664(6) 0.1862(2)
H18 H 0.0803 0.6960 0.1560
C27 C 0.27758(14) 0.6165(7) 0.47037(17)
H19 H 0.2647 0.6650 0.5029
C28 C 0.14434(12) 0.6766(5) 0.18086(18)
H20 H 0.1591 0.7101 0.1474
C29 C 0.31344(14) 0.5194(7) 0.47748(19)
H21 H 0.3246 0.5020 0.5149
C30 C 0.08528(13) 0.6110(6) 0.23794(19)
H22 H 0.0565 0.5973 0.2473
C31 C 0.25574(15) 0.6631(7) 0.15471(18)
C32 C 0.33274(15) 0.6896(7) 0.1835(2)
H23 H 0.3325 0.8084 0.1872
H24 H 0.3610 0.6581 0.1699
C33 C 0.32613(12) 0.6173(6) 0.24351(18)
H25 H 0.3380 0.5071 0.2449
H26 H 0.3407 0.6837 0.2728
C34 C 0.30164(16) 0.6431(8) 0.1381(2)
H27 H 0.3065 0.5290 0.1277
H28 H 0.3071 0.7087 0.1033
loop_
_geom_bond_atom_site_label_1
_geom_bond_atom_site_label_2
_geom_bond_site_symmetry_1
_geom_bond_site_symmetry_2
S1 C1 1_555 1_555
N1 N2 1_555 1_555
O1 C5 1_555 1_555
N2 C4 1_555 1_555
C1 C3 1_555 1_555
C2 C3 1_555 1_555
C3 N1 1_555 1_555
C4 C2 1_555 1_555
C5 C2 1_555 1_555
C6 H1 1_555 1_555
C7 H2 1_555 1_555
C8 N2 1_555 1_555
C9 C8 1_555 1_555
H3 C9 1_555 1_555
C10 H4 1_555 1_555
H5 C10 1_555 1_555
C11 C4 1_555 1_555
H6 C11 1_555 1_555
H7 C11 1_555 1_555
C12 C1 1_555 1_555
H8 C12 1_555 1_555
C13 C6 1_555 1_555
H9 C13 1_555 1_555
C14 C13 1_555 1_555
H10 C14 1_555 1_555
C15 C9 1_555 1_555
H11 C15 1_555 1_555
C16 S1 1_555 1_555
H12 C16 1_555 1_555
C17 C5 1_555 1_555
H13 C17 1_555 1_555
H14 C17 1_555 1_555
S2 C21 1_555 1_555
N3 N4 1_555 1_555
C18 N4 1_555 1_555
N4 C20 1_555 1_555
C19 N3 1_555 1_555
C20 C22 1_555 1_555
C21 C19 1_555 1_555
O2 C31 1_555 1_555
C22 C19 1_555 1_555
C23 C18 1_555 1_555
H15 C23 1_555 1_555
C24 C18 1_555 1_555
H16 C24 1_555 1_555
C25 C23 1_555 1_555
H17 C25 1_555 1_555
C26 H18 1_555 1_555
C27 C24 1_555 1_555
H19 C27 1_555 1_555
C28 C21 1_555 1_555
H20 C28 1_555 1_555
C29 C25 1_555 1_555
H21 C29 1_555 1_555
C30 S2 1_555 1_555
H22 C30 1_555 1_555
C31 C22 1_555 1_555
C32 H23 1_555 1_555
H24 C32 1_555 1_555
C33 C20 1_555 1_555
H25 C33 1_555 1_555
H26 C33 1_555 1_555
C34 C31 1_555 1_555
H27 C34 1_555 1_555
H28 C34 1_555 1_555
C6 C8 1_555 1_555
C7 C12 1_555 1_555
C7 C16 1_555 1_555
C10 C11 1_555 1_555
C10 C17 1_555 1_555
C14 C15 1_555 1_555
C26 C28 1_555 1_555
C26 C30 1_555 1_555
C27 C29 1_555 1_555
C32 C33 1_555 1_555
C32 C34 1_555 1_555

#END
