
#######################################################################
#
#                 Cambridge Crystallographic Data Centre
#                                CCDC 
#
#######################################################################
#
# If this CIF has been generated from an entry in the Cambridge 
# Structural Database, then it will include bibliographic, chemical, 
# crystal, experimental, refinement or atomic coordinate data resulting 
# from the CCDC's data processing and validation procedures.
#
#######################################################################

data_SICBOY
_chemical_formula_moiety         'C15 H15 N1 O3'
_chemical_name_systematic        
2-(hydroxyimino)-3-(3-methylphenyl)-3,5,6,7-tetrahydro-1-benzofuran-4(2H)-one
_symmetry_cell_setting           monoclinic
_symmetry_space_group_name_H-M   'P 21/c'
_symmetry_Int_Tables_number      14
_space_group_name_Hall           '-P 2ybc'
loop_
_symmetry_equiv_pos_site_id
_symmetry_equiv_pos_as_xyz
1 x,y,z
2 -x,1/2+y,1/2-z
3 -x,-y,-z
4 x,1/2-y,1/2+z
_cell_length_a                   12.836(7)
_cell_length_b                   8.234(3)
_cell_length_c                   13.790(10)
_cell_angle_alpha                90
_cell_angle_beta                 117.679(17)
_cell_angle_gamma                90
_cell_volume                     1290.7
_exptl_crystal_colour            yellow
_exptl_crystal_description       block
_cell_formula_units_Z            4
loop_
_atom_site_label
_atom_site_type_symbol
_atom_site_fract_x
_atom_site_fract_y
_atom_site_fract_z
O1 O 0.3407(2) -0.0397(3) 0.14320(17)
O2 O 0.3528(2) -0.0850(3) 0.48158(16)
O3 O 0.2796(2) 0.3173(3) 0.47251(19)
H1 H 0.2792 0.3807 0.5181
C1 C 0.3648(3) -0.1620(4) 0.3992(2)
C2 C 0.3574(2) -0.1250(4) 0.2222(2)
C3 C 0.3369(2) -0.0677(4) 0.3111(2)
N1 N 0.3149(3) 0.1657(4) 0.5195(2)
C4 C 0.1593(3) 0.1129(3) 0.2483(2)
C5 C 0.1231(3) 0.1947(4) 0.1500(2)
H2 H 0.1787 0.2461 0.1354
C6 C 0.3175(3) 0.0710(4) 0.4460(2)
C7 C 0.4049(3) -0.3319(4) 0.4160(3)
H3 H 0.3663 -0.3922 0.4506
H4 H 0.4892 -0.3365 0.4631
C8 C 0.3748(3) -0.4055(4) 0.3051(3)
H5 H 0.2910 -0.4276 0.2662
H6 H 0.4160 -0.5079 0.3156
C9 C 0.0754(3) 0.0392(4) 0.2697(3)
H7 H 0.0984 -0.0164 0.3352
C10 C 0.0039(3) 0.2014(4) 0.0723(2)
C11 C 0.2905(3) 0.0931(4) 0.3271(2)
H8 H 0.3359 0.1835 0.3196
C12 C -0.0424(3) 0.0473(5) 0.1945(3)
H9 H -0.0984 -0.0016 0.2098
C13 C 0.4083(3) -0.2929(4) 0.2361(3)
H10 H 0.4933 -0.2846 0.2701
H11 H 0.3819 -0.3412 0.1643
C14 C -0.0766(3) 0.1272(5) 0.0975(3)
H12 H -0.1561 0.1315 0.0475
C15 C -0.0347(4) 0.2813(6) -0.0381(3)
H13 H -0.0662 0.2005 -0.0947
H14 H 0.0316 0.3330 -0.0395
H15 H -0.0941 0.3610 -0.0501
loop_
_geom_bond_atom_site_label_1
_geom_bond_atom_site_label_2
_geom_bond_site_symmetry_1
_geom_bond_site_symmetry_2
O1 C2 1_555 1_555
O2 C1 1_555 1_555
O3 H1 1_555 1_555
C1 C3 1_555 1_555
C2 C3 1_555 1_555
C3 C11 1_555 1_555
N1 O3 1_555 1_555
C4 C5 1_555 1_555
C5 H2 1_555 1_555
C6 O2 1_555 1_555
C7 C1 1_555 1_555
H3 C7 1_555 1_555
H4 C7 1_555 1_555
C8 C7 1_555 1_555
H5 C8 1_555 1_555
H6 C8 1_555 1_555
C9 C4 1_555 1_555
H7 C9 1_555 1_555
C10 C5 1_555 1_555
C11 C4 1_555 1_555
H8 C11 1_555 1_555
C12 C9 1_555 1_555
H9 C12 1_555 1_555
C13 C2 1_555 1_555
H10 C13 1_555 1_555
H11 C13 1_555 1_555
C14 C10 1_555 1_555
H12 C14 1_555 1_555
C15 C10 1_555 1_555
H13 C15 1_555 1_555
H14 C15 1_555 1_555
H15 C15 1_555 1_555
N1 C6 1_555 1_555
C6 C11 1_555 1_555
C8 C13 1_555 1_555
C12 C14 1_555 1_555

#END
