
#######################################################################
#
#                 Cambridge Crystallographic Data Centre
#                                CCDC 
#
#######################################################################
#
# If this CIF has been generated from an entry in the Cambridge 
# Structural Database, then it will include bibliographic, chemical, 
# crystal, experimental, refinement or atomic coordinate data resulting 
# from the CCDC's data processing and validation procedures.
#
#######################################################################

data_SICGIX
_chemical_name_common            
'dibenzotetrathiafulvalene 1,2,4,5-tetracyanobenzene'
_chemical_formula_moiety         'C14 H8 S4,C10 H2 N4'
_chemical_name_systematic        
'2-(2H-1,3-benzodithiol-2-ylidene)-2H-1,3-benzodithiole benzene-1,2,4,5-tetracarbonitrile'
_symmetry_cell_setting           monoclinic
_symmetry_space_group_name_H-M   'P 21/c'
_symmetry_Int_Tables_number      14
_space_group_name_Hall           '-P 2ybc'
loop_
_symmetry_equiv_pos_site_id
_symmetry_equiv_pos_as_xyz
1 x,y,z
2 -x,1/2+y,1/2-z
3 -x,-y,-z
4 x,1/2-y,1/2+z
_cell_length_a                   9.794(2)
_cell_length_b                   12.115(2)
_cell_length_c                   9.5964(19)
_cell_angle_alpha                90
_cell_angle_beta                 112.75(3)
_cell_angle_gamma                90
_cell_volume                     1050.07
_exptl_crystal_colour            black
_exptl_crystal_description       block
_chemical_melting_point          '333 K'
_cell_formula_units_Z            2
loop_
_atom_site_label
_atom_site_type_symbol
_atom_site_fract_x
_atom_site_fract_y
_atom_site_fract_z
S1 S 0.59165(6) 0.12685(4) 0.39796(5)
S2 S 0.54006(6) -0.11419(4) 0.34191(5)
C1 C 0.5273(2) 0.00243(15) 0.4457(2)
C2 C 0.64229(19) 0.06924(16) 0.25675(19)
C3 C 0.61705(19) -0.04358(16) 0.22950(19)
C4 C 0.6520(2) -0.09500(17) 0.1178(2)
H1 H 0.6345 -0.1700 0.0988
C5 C 0.7131(2) -0.03283(19) 0.0352(2)
H2 H 0.7371 -0.0666 -0.0394
C6 C 0.7389(2) 0.07938(19) 0.0627(2)
H3 H 0.7801 0.1201 0.0065
C7 C 0.7036(2) 0.13106(17) 0.1735(2)
H4 H 0.7209 0.2062 0.1919
S1B S 0.40835(6) -0.12685(4) 0.60204(5)
S2B S 0.45994(6) 0.11419(4) 0.65809(5)
C1B C 0.4727(2) -0.00243(15) 0.5543(2)
C2B C 0.35771(19) -0.06924(16) 0.74325(19)
C3B C 0.38295(19) 0.04358(16) 0.77050(19)
C4B C 0.3480(2) 0.09500(17) 0.8822(2)
H1B H 0.3655 0.1700 0.9012
C5B C 0.2869(2) 0.03283(19) 0.9648(2)
H2B H 0.2629 0.0666 1.0394
C6B C 0.2611(2) -0.07938(19) 0.9373(2)
H3B H 0.2199 -0.1201 0.9935
C7B C 0.2964(2) -0.13106(17) 0.8265(2)
H4B H 0.2791 -0.2062 0.8081
N1 N 0.9323(2) 0.15447(14) 0.83323(19)
N2 N 1.1672(2) 0.15962(15) 0.23958(19)
C8 C 0.9534(2) 0.11079(15) 0.7379(2)
C9 C 0.97795(19) 0.05506(15) 0.61673(18)
C10 C 1.0384(2) 0.11203(15) 0.52841(19)
H5 H 1.0641 0.1860 0.5474
C11 C 1.06005(19) 0.05691(15) 0.41103(19)
C12 C 1.1205(2) 0.11459(15) 0.3164(2)
N1B N 1.0677(2) -0.15447(14) 0.16677(19)
N2B N 0.8328(2) -0.15962(15) 0.76042(19)
C8B C 1.0466(2) -0.11079(15) 0.2621(2)
C9B C 1.02205(19) -0.05506(15) 0.38327(18)
C10B C 0.9616(2) -0.11203(15) 0.47159(19)
H5B H 0.9359 -0.1860 0.4526
C11B C 0.93995(19) -0.05691(15) 0.58897(19)
C12B C 0.8795(2) -0.11459(15) 0.6836(2)
loop_
_geom_bond_atom_site_label_1
_geom_bond_atom_site_label_2
_geom_bond_site_symmetry_1
_geom_bond_site_symmetry_2
S1 C1 1_555 1_555
S2 C1 1_555 1_555
C1 C1B 1_555 1_555
C2 S1 1_555 1_555
C3 S2 1_555 1_555
C4 C3 1_555 1_555
H1 C4 1_555 1_555
C5 C4 1_555 1_555
H2 C5 1_555 1_555
C6 C5 1_555 1_555
H3 C6 1_555 1_555
C7 C2 1_555 1_555
H4 C7 1_555 1_555
N1 C8 1_555 1_555
N2 C12 1_555 1_555
C8 C9 1_555 1_555
C9 C10 1_555 1_555
C10 H5 1_555 1_555
C11 C10 1_555 1_555
C12 C11 1_555 1_555
S1B C1B 1_555 1_555
S2B C1B 1_555 1_555
C2B S1B 1_555 1_555
C3B S2B 1_555 1_555
C4B C3B 1_555 1_555
H1B C4B 1_555 1_555
C5B C4B 1_555 1_555
H2B C5B 1_555 1_555
C6B C5B 1_555 1_555
H3B C6B 1_555 1_555
C7B C2B 1_555 1_555
H4B C7B 1_555 1_555
N1B C8B 1_555 1_555
N2B C12B 1_555 1_555
C8B C9B 1_555 1_555
C9B C11 1_555 1_555
C10B C9B 1_555 1_555
H5B C10B 1_555 1_555
C11B C9 1_555 1_555
C12B C11B 1_555 1_555
C2 C3 1_555 1_555
C6 C7 1_555 1_555
C2B C3B 1_555 1_555
C6B C7B 1_555 1_555
C10B C11B 1_555 1_555

#END
