
#######################################################################
#
#                 Cambridge Crystallographic Data Centre
#                                CCDC 
#
#######################################################################
#
# If this CIF has been generated from an entry in the Cambridge 
# Structural Database, then it will include bibliographic, chemical, 
# crystal, experimental, refinement or atomic coordinate data resulting 
# from the CCDC's data processing and validation procedures.
#
#######################################################################

data_SICMOI
_chemical_formula_moiety         'C20 H18 N2 O3'
_chemical_name_systematic        
6-Benzylidene-5-methoxy-3-(4-methoxybenzylidene)-3,6-dihydropyrazin-2(1H)-one
_symmetry_cell_setting           monoclinic
_symmetry_space_group_name_H-M   'P 21/c'
_symmetry_Int_Tables_number      14
_space_group_name_Hall           '-P 2ybc'
loop_
_symmetry_equiv_pos_site_id
_symmetry_equiv_pos_as_xyz
1 x,y,z
2 -x,1/2+y,1/2-z
3 -x,-y,-z
4 x,1/2-y,1/2+z
_cell_length_a                   6.39230(10)
_cell_length_b                   14.9704(3)
_cell_length_c                   16.7559(3)
_cell_angle_alpha                90
_cell_angle_beta                 91.785(2)
_cell_angle_gamma                90
_cell_volume                     1602.68
_exptl_crystal_colour            yellow
_exptl_crystal_description       block
_cell_formula_units_Z            4
loop_
_atom_site_label
_atom_site_type_symbol
_atom_site_fract_x
_atom_site_fract_y
_atom_site_fract_z
C1 C 0.14001(18) 0.11860(8) 0.47283(7)
C2 C 0.29949(18) 0.18527(8) 0.45027(7)
C3 C 0.13392(18) 0.20628(8) 0.32723(7)
C4 C -0.03513(18) 0.14245(8) 0.34260(7)
C5 C 0.45647(18) 0.20176(8) 0.50431(7)
H1 H 0.4435 0.1715 0.5537
C6 C 0.64180(18) 0.25786(8) 0.49983(7)
C7 C 0.77474(19) 0.26399(8) 0.56811(7)
H2 H 0.7391 0.2324 0.6149
C8 C 0.95504(19) 0.31449(8) 0.56911(7)
H3 H 1.0414 0.3177 0.6162
C9 C 1.01014(18) 0.36082(8) 0.50076(7)
C10 C 0.88427(18) 0.35431(8) 0.43164(7)
H4 H 0.9233 0.3843 0.3844
C11 C 0.70199(18) 0.30402(8) 0.43170(7)
H5 H 0.6162 0.3009 0.3845
C12 C -0.19122(18) 0.12871(8) 0.28771(7)
H6 H -0.1757 0.1623 0.2402
C13 C -0.37883(18) 0.07296(8) 0.28621(7)
C14 C -0.4915(2) 0.06863(9) 0.21302(7)
H7 H -0.4416 0.1006 0.1685
C15 C -0.6731(2) 0.01903(9) 0.20400(8)
H8 H -0.7461 0.0170 0.1538
C16 C -0.7485(2) -0.02785(9) 0.26854(8)
H9 H -0.8724 -0.0626 0.2626
C17 C -0.64185(19) -0.02360(8) 0.34163(8)
H10 H -0.6942 -0.0551 0.3860
C18 C -0.45941(18) 0.02606(8) 0.35080(7)
H11 H -0.3883 0.0283 0.4014
C19 C 1.2571(2) 0.45437(9) 0.43710(8)
H12 H 1.2936 0.4093 0.3974
H13 H 1.3803 0.4910 0.4504
H14 H 1.1447 0.4925 0.4151
C20 C 0.2812(2) 0.30504(9) 0.23331(8)
H15 H 0.2919 0.3548 0.2712
H16 H 0.2520 0.3284 0.1795
H17 H 0.4133 0.2718 0.2341
N1 N -0.01295(15) 0.10037(7) 0.41684(6)
H18 H -0.1049 0.0589 0.4283
N2 N 0.28701(15) 0.22581(7) 0.37520(6)
O1 O 0.14449(14) 0.07893(6) 0.53740(5)
O2 O 0.11420(13) 0.24648(6) 0.25547(5)
O3 O 1.18803(13) 0.41099(6) 0.50750(5)
loop_
_geom_bond_atom_site_label_1
_geom_bond_atom_site_label_2
_geom_bond_site_symmetry_1
_geom_bond_site_symmetry_2
C1 C2 1_555 1_555
C2 C5 1_555 1_555
C3 C4 1_555 1_555
C4 C12 1_555 1_555
C5 H1 1_555 1_555
C6 C5 1_555 1_555
C7 C6 1_555 1_555
H2 C7 1_555 1_555
C8 C7 1_555 1_555
H3 C8 1_555 1_555
C9 C8 1_555 1_555
C10 C9 1_555 1_555
H4 C10 1_555 1_555
C11 C6 1_555 1_555
H5 C11 1_555 1_555
C12 H6 1_555 1_555
C13 C12 1_555 1_555
C14 C13 1_555 1_555
H7 C14 1_555 1_555
C15 C14 1_555 1_555
H8 C15 1_555 1_555
C16 C15 1_555 1_555
H9 C16 1_555 1_555
C17 C16 1_555 1_555
H10 C17 1_555 1_555
C18 C13 1_555 1_555
H11 C18 1_555 1_555
C19 H12 1_555 1_555
H13 C19 1_555 1_555
H14 C19 1_555 1_555
C20 H15 1_555 1_555
H16 C20 1_555 1_555
H17 C20 1_555 1_555
N1 C1 1_555 1_555
H18 N1 1_555 1_555
N2 C2 1_555 1_555
O1 C1 1_555 1_555
O2 C3 1_555 1_555
O3 C9 1_555 1_555
C3 N2 1_555 1_555
C4 N1 1_555 1_555
C10 C11 1_555 1_555
C17 C18 1_555 1_555
C19 O3 1_555 1_555
C20 O2 1_555 1_555

#END
