
#######################################################################
#
#                 Cambridge Crystallographic Data Centre
#                                CCDC 
#
#######################################################################
#
# If this CIF has been generated from an entry in the Cambridge 
# Structural Database, then it will include bibliographic, chemical, 
# crystal, experimental, refinement or atomic coordinate data resulting 
# from the CCDC's data processing and validation procedures.
#
#######################################################################

data_SICPOJ
_chemical_formula_moiety         'C26 H20 O7,0.5(C3 H6 O1)'
_chemical_name_systematic        
"3-Oxospiro(isobenzofuran-1(3H),9'-(9H)-xanthene)-3',6'-diyl dipropionate acetone solvate"
_symmetry_cell_setting           monoclinic
_symmetry_space_group_name_H-M   'P 2/c'
_symmetry_Int_Tables_number      13
_space_group_name_Hall           '-P 2yc'
loop_
_symmetry_equiv_pos_site_id
_symmetry_equiv_pos_as_xyz
1 x,y,z
2 -x,y,1/2-z
3 -x,-y,-z
4 x,-y,1/2+z
_cell_length_a                   14.917(3)
_cell_length_b                   11.964(2)
_cell_length_c                   13.633(3)
_cell_angle_alpha                90
_cell_angle_beta                 101.98(5)
_cell_angle_gamma                90
_cell_volume                     2380.05
_chemical_melting_point          439K
_cell_formula_units_Z            4
loop_
_atom_site_label
_atom_site_type_symbol
_atom_site_fract_x
_atom_site_fract_y
_atom_site_fract_z
O1 O 0.1099(2) 0.6050(3) 0.6015(2)
O2 O 0.7082(2) 0.3617(3) 0.6228(2)
O3 O 0.3961(2) 0.4368(3) 0.6161(2)
O4 O 0.3215(2) 0.3152(2) 0.3278(2)
O5 O 0.7025(2) 0.2319(3) 0.7385(2)
O6 O 0.1145(2) 0.7405(3) 0.4901(2)
O7 O 0.2719(2) 0.2122(3) 0.1899(2)
C1 C 0.3337(3) 0.3031(3) 0.4384(2)
C2 C 0.4334(3) 0.3200(3) 0.4848(3)
C3 C 0.2741(3) 0.3889(3) 0.4753(3)
C4 C 0.4586(3) 0.3827(3) 0.5722(3)
C5 C 0.3005(3) 0.1857(3) 0.4487(3)
C6 C 0.3082(3) 0.4471(3) 0.5636(3)
C7 C 0.2535(3) 0.5205(4) 0.6026(3)
C8 C 0.2931(3) 0.1263(4) 0.5342(3)
C9 C 0.5490(3) 0.3947(4) 0.6195(3)
C10 C 0.6152(3) 0.3449(4) 0.5789(3)
C11 C 0.2598(3) 0.0187(4) 0.5212(3)
C12 C 0.1656(3) 0.5362(3) 0.5545(3)
C13 C 0.1284(3) 0.4809(4) 0.4652(3)
C14 C 0.2337(3) -0.0298(4) 0.4279(4)
C15 C 0.5933(3) 0.2843(4) 0.4906(3)
C16 C 0.2403(3) 0.0292(4) 0.3428(3)
C17 C 0.5031(3) 0.2717(4) 0.4452(3)
C18 C 0.1839(3) 0.4078(4) 0.4280(3)
C19 C 0.2740(3) 0.1368(3) 0.3553(3)
C20 C 0.7461(3) 0.2989(4) 0.7040(3)
C21 C 0.0910(3) 0.7074(4) 0.5634(3)
C22 C 0.2876(3) 0.2188(4) 0.2803(3)
C23 C 0.0383(3) 0.7739(4) 0.6258(4)
C24 C 0.8439(3) 0.3264(3) 0.7193(3)
C25 C 0.8915(4) 0.2566(6) 0.8237(4)
C26 C 0.0160(5) 0.8854(6) 0.5977(5)
O8 O 0.5000 0.0970(5) 0.2500
C27 C 0.5000 0.0000 0.2500
C28 C 0.5200(5) -0.0592(6) 0.1640(7)
C28A C 0.4800(5) -0.0592(6) 0.3360(7)
loop_
_geom_bond_atom_site_label_1
_geom_bond_atom_site_label_2
_geom_bond_site_symmetry_1
_geom_bond_site_symmetry_2
O1 C12 1_555 1_555
O2 C10 1_555 1_555
O3 C4 1_555 1_555
O4 C1 1_555 1_555
O5 C20 1_555 1_555
O6 C21 1_555 1_555
O7 C22 1_555 1_555
C1 C2 1_555 1_555
C2 C4 1_555 1_555
C3 C1 1_555 1_555
C4 C9 1_555 1_555
C5 C1 1_555 1_555
C6 O3 1_555 1_555
C7 C6 1_555 1_555
C8 C5 1_555 1_555
C9 C10 1_555 1_555
C10 C15 1_555 1_555
C11 C8 1_555 1_555
C12 C7 1_555 1_555
C13 C12 1_555 1_555
C14 C11 1_555 1_555
C15 C17 1_555 1_555
C16 C14 1_555 1_555
C17 C2 1_555 1_555
C18 C3 1_555 1_555
C19 C5 1_555 1_555
C20 O2 1_555 1_555
C21 O1 1_555 1_555
C22 O4 1_555 1_555
C23 C21 1_555 1_555
C24 C20 1_555 1_555
C25 C24 1_555 1_555
C26 C23 1_555 1_555
O8 C27 1_555 1_555
C27 C28 1_555 1_555
C28A C27 1_555 1_555
C3 C6 1_555 1_555
C13 C18 1_555 1_555
C16 C19 1_555 1_555
C19 C22 1_555 1_555

#END
