
#######################################################################
#
#                 Cambridge Crystallographic Data Centre
#                                CCDC 
#
#######################################################################
#
# If this CIF has been generated from an entry in the Cambridge 
# Structural Database, then it will include bibliographic, chemical, 
# crystal, experimental, refinement or atomic coordinate data resulting 
# from the CCDC's data processing and validation procedures.
#
#######################################################################

data_SICSUU
_chemical_formula_moiety         'C24 H24 I2 S2 Si2'
_chemical_name_systematic        
(3,9-Diiodothieno[2',3':6,7]anthra[2,3-b]thiene-2,8-diyl)bis(trimethylsilane)
_symmetry_cell_setting           triclinic
_symmetry_space_group_name_H-M   'P -1'
_symmetry_Int_Tables_number      2
_space_group_name_Hall           '-P 1'
loop_
_symmetry_equiv_pos_site_id
_symmetry_equiv_pos_as_xyz
1 x,y,z
2 -x,-y,-z
_cell_length_a                   6.6086(15)
_cell_length_b                   7.6941(18)
_cell_length_c                   13.414(3)
_cell_angle_alpha                88.615(18)
_cell_angle_beta                 79.423(17)
_cell_angle_gamma                75.950(19)
_cell_volume                     650.269
_exptl_crystal_colour            red
_exptl_crystal_description       Block
_cell_formula_units_Z            1
loop_
_atom_site_label
_atom_site_type_symbol
_atom_site_fract_x
_atom_site_fract_y
_atom_site_fract_z
I1 I 0.22514(7) 0.97142(6) 0.11900(3)
S1 S 0.3208(2) 0.6298(2) 0.40212(11)
Si1 Si 0.6401(2) 0.5707(2) 0.19975(12)
C1 C 0.3857(9) 0.7051(8) 0.2780(4)
C2 C 0.2202(8) 0.8320(8) 0.2548(4)
C3 C 0.0309(8) 0.8723(7) 0.3325(4)
C4 C -0.1667(9) 0.9821(7) 0.3304(4)
C5 C -0.3350(8) 0.9927(7) 0.4151(4)
C6 C -0.5382(8) 1.1003(8) 0.4143(4)
C7 C -0.2951(8) 0.8892(7) 0.5031(4)
C8 C -0.0919(8) 0.7767(8) 0.5042(4)
C9 C 0.0648(9) 0.7670(7) 0.4212(4)
C10 C 0.5651(14) 0.3883(11) 0.1359(6)
C11 C 0.8179(11) 0.4720(10) 0.2892(5)
C12 C 0.7753(11) 0.7074(11) 0.1048(6)
H1 H -0.1937 1.0486 0.2722
H2 H -0.5638 1.1699 0.3593
H3 H -0.0711 0.7166 0.5661
H4 H 0.7001 0.3120 0.0948
H5 H 0.5091 0.3132 0.1837
H6 H 0.4754 0.4349 0.0898
H7 H 0.8572 0.5617 0.3241
H8 H 0.7581 0.3951 0.3356
H9 H 0.9534 0.3964 0.2495
H10 H 0.7938 0.8102 0.1421
H11 H 0.8926 0.6444 0.0681
H12 H 0.6676 0.7656 0.0619
I1A I -1.22514(7) 1.02858(6) 0.88100(3)
S1A S -1.3208(2) 1.3702(2) 0.59788(11)
Si1A Si -1.6401(2) 1.4293(2) 0.80025(12)
C1A C -1.3857(9) 1.2949(8) 0.7220(4)
C2A C -1.2202(8) 1.1680(8) 0.7452(4)
C3A C -1.0309(8) 1.1277(7) 0.6675(4)
C4A C -0.8333(9) 1.0179(7) 0.6696(4)
C5A C -0.6650(8) 1.0073(7) 0.5849(4)
C6A C -0.4618(8) 0.8997(8) 0.5857(4)
C7A C -0.7049(8) 1.1108(7) 0.4969(4)
C8A C -0.9081(8) 1.2233(8) 0.4958(4)
C9A C -1.0648(9) 1.2330(7) 0.5788(4)
C10A C -1.5651(14) 1.6117(11) 0.8641(6)
C11A C -1.8179(11) 1.5280(10) 0.7108(5)
C12A C -1.7753(11) 1.2926(11) 0.8952(6)
H1A H -0.8063 0.9514 0.7278
H2A H -0.4362 0.8301 0.6407
H3A H -0.9289 1.2834 0.4339
H4A H -1.7001 1.6880 0.9052
H5A H -1.5091 1.6868 0.8163
H6A H -1.4754 1.5651 0.9102
H7A H -1.8572 1.4383 0.6759
H8A H -1.7581 1.6049 0.6644
H9A H -1.9534 1.6036 0.7505
H10A H -1.7938 1.1898 0.8579
H11A H -1.8926 1.3556 0.9319
H12A H -1.6676 1.2344 0.9381
loop_
_geom_bond_atom_site_label_1
_geom_bond_atom_site_label_2
_geom_bond_site_symmetry_1
_geom_bond_site_symmetry_2
I1 C2 1_555 1_555
S1 C1 1_555 1_555
Si1 C1 1_555 1_555
C1 C2 1_555 1_555
C2 C3 1_555 1_555
C3 C4 1_555 1_555
C4 C5 1_555 1_555
C5 C6 1_555 1_555
C6 H2 1_555 1_555
C7 C5 1_555 1_555
C8 C7 1_555 1_555
C9 S1 1_555 1_555
C10 Si1 1_555 1_555
C11 Si1 1_555 1_555
C12 Si1 1_555 1_555
H1 C4 1_555 1_555
H3 C8 1_555 1_555
H4 C10 1_555 1_555
H5 C10 1_555 1_555
H6 C10 1_555 1_555
H7 C11 1_555 1_555
H8 C11 1_555 1_555
H9 C11 1_555 1_555
H10 C12 1_555 1_555
H11 C12 1_555 1_555
H12 C12 1_555 1_555
I1A C2A 1_555 1_555
S1A C1A 1_555 1_555
Si1A C1A 1_555 1_555
C1A C2A 1_555 1_555
C2A C3A 1_555 1_555
C3A C4A 1_555 1_555
C4A C5A 1_555 1_555
C5A C6A 1_555 1_555
C6A C7 1_555 1_555
C7A C6 1_555 1_555
C8A C7A 1_555 1_555
C9A S1A 1_555 1_555
C10A Si1A 1_555 1_555
C11A Si1A 1_555 1_555
C12A Si1A 1_555 1_555
H1A C4A 1_555 1_555
H2A C6A 1_555 1_555
H3A C8A 1_555 1_555
H4A C10A 1_555 1_555
H5A C10A 1_555 1_555
H6A C10A 1_555 1_555
H7A C11A 1_555 1_555
H8A C11A 1_555 1_555
H9A C11A 1_555 1_555
H10A C12A 1_555 1_555
H11A C12A 1_555 1_555
H12A C12A 1_555 1_555
C3 C9 1_555 1_555
C8 C9 1_555 1_555
C3A C9A 1_555 1_555
C5A C7A 1_555 1_555
C8A C9A 1_555 1_555

#END
