
#######################################################################
#
#                 Cambridge Crystallographic Data Centre
#                                CCDC 
#
#######################################################################
#
# If this CIF has been generated from an entry in the Cambridge 
# Structural Database, then it will include bibliographic, chemical, 
# crystal, experimental, refinement or atomic coordinate data resulting 
# from the CCDC's data processing and validation procedures.
#
#######################################################################

data_SICSOP
_chemical_formula_moiety         'C40 H40 N1 P1'
_chemical_name_systematic        
9-{4-[8-(dicyclohexylphosphino)naphthalen-1-yl]phenyl}-9H-carbazole
_symmetry_cell_setting           triclinic
_symmetry_space_group_name_H-M   'P -1'
_symmetry_Int_Tables_number      2
_space_group_name_Hall           '-P 1'
loop_
_symmetry_equiv_pos_site_id
_symmetry_equiv_pos_as_xyz
1 x,y,z
2 -x,-y,-z
_cell_length_a                   10.206(2)
_cell_length_b                   11.040(2)
_cell_length_c                   14.240(3)
_cell_angle_alpha                96.141(3)
_cell_angle_beta                 105.124(3)
_cell_angle_gamma                97.555(3)
_cell_volume                     1518.64
_exptl_crystal_colour            colorless
_exptl_crystal_description       block
_cell_formula_units_Z            2
loop_
_atom_site_label
_atom_site_type_symbol
_atom_site_fract_x
_atom_site_fract_y
_atom_site_fract_z
C1 C -0.0842(2) 0.22448(18) 0.04572(15)
C2 C -0.0389(2) 0.16503(19) -0.02813(16)
H1 H 0.0481 0.1937 -0.0374
C3 C -0.1255(2) 0.06241(19) -0.08763(16)
H2 H -0.0966 0.0191 -0.1379
C4 C -0.2545(2) 0.0215(2) -0.07505(18)
H3 H -0.3125 -0.0482 -0.1177
C5 C -0.2991(2) 0.0807(2) -0.00154(18)
H4 H -0.3867 0.0523 0.0068
C6 C -0.2129(2) 0.18318(18) 0.06020(16)
C7 C -0.2254(2) 0.26527(18) 0.14239(16)
C8 C -0.3235(2) 0.2692(2) 0.19449(17)
H5 H -0.4064 0.2109 0.1746
C9 C -0.2986(2) 0.3585(2) 0.27496(17)
H6 H -0.3654 0.3617 0.3104
C10 C -0.1768(2) 0.4447(2) 0.30563(17)
H7 H -0.1617 0.5047 0.3621
C11 C -0.0778(2) 0.44406(19) 0.25488(17)
H8 H 0.0043 0.5033 0.2748
C12 C -0.1034(2) 0.35361(18) 0.17408(16)
C13 C 0.1120(2) 0.40069(19) 0.12297(15)
C14 C 0.2290(2) 0.34663(19) 0.14325(15)
H9 H 0.2219 0.2609 0.1477
C15 C 0.3569(2) 0.41815(18) 0.15711(15)
H10 H 0.4370 0.3805 0.1702
C16 C 0.3696(2) 0.54444(18) 0.15216(15)
C17 C 0.2489(2) 0.59605(18) 0.12676(15)
H11 H 0.2549 0.6809 0.1192
C18 C 0.1216(2) 0.52538(19) 0.11267(15)
H12 H 0.0407 0.5616 0.0960
C19 C 0.5053(2) 0.62207(19) 0.16641(15)
C20 C 0.5927(2) 0.58041(19) 0.11675(16)
H13 H 0.5749 0.4961 0.0879
C21 C 0.7079(2) 0.6577(2) 0.10677(16)
H14 H 0.7693 0.6251 0.0749
C22 C 0.7301(2) 0.7802(2) 0.14349(17)
H15 H 0.8016 0.8347 0.1309
C23 C 0.6477(2) 0.82714(19) 0.20030(16)
C24 C 0.5400(2) 0.74607(18) 0.22017(15)
C25 C 0.4761(2) 0.79314(18) 0.29247(15)
C26 C 0.5043(2) 0.91826(19) 0.32544(16)
H16 H 0.4580 0.9507 0.3698
C27 C 0.5990(2) 1.00008(19) 0.29607(16)
H17 H 0.6109 1.0865 0.3167
C28 C 0.6732(2) 0.95430(19) 0.23802(17)
H18 H 0.7427 1.0082 0.2227
C29 C 0.2669(2) 0.78454(18) 0.39791(15)
H19 H 0.3237 0.8637 0.4364
C30 C 0.1583(2) 0.8149(2) 0.31032(17)
H20 H 0.2049 0.8616 0.2692
H21 H 0.1046 0.7371 0.2693
C31 C 0.0614(2) 0.8910(2) 0.34553(18)
H22 H 0.1143 0.9715 0.3821
H23 H -0.0089 0.9074 0.2879
C32 C -0.0095(2) 0.8246(2) 0.41162(19)
H24 H -0.0695 0.7479 0.3734
H25 H -0.0682 0.8780 0.4357
C33 C 0.0959(2) 0.7927(2) 0.49891(18)
H26 H 0.0476 0.7443 0.5382
H27 H 0.1483 0.8699 0.5415
C34 C 0.1960(2) 0.71792(19) 0.46496(16)
H28 H 0.2666 0.7036 0.5232
H29 H 0.1450 0.6365 0.4292
C35 C 0.5212(2) 0.69217(18) 0.47347(15)
H30 H 0.4804 0.6347 0.5120
C36 C 0.5741(2) 0.81442(19) 0.54201(16)
H31 H 0.4954 0.8481 0.5570
H32 H 0.6195 0.8743 0.5087
C37 C 0.6765(2) 0.7989(2) 0.63821(16)
H33 H 0.7104 0.8801 0.6804
H34 H 0.6295 0.7435 0.6740
C38 C 0.7974(2) 0.74478(19) 0.61745(17)
H35 H 0.8598 0.7311 0.6800
H36 H 0.8498 0.8041 0.5877
C39 C 0.7481(2) 0.62298(19) 0.54799(18)
H37 H 0.7059 0.5607 0.5812
H38 H 0.8280 0.5928 0.5320
C40 C 0.6430(2) 0.63672(18) 0.45275(16)
H39 H 0.6084 0.5547 0.4118
H40 H 0.6885 0.6907 0.4153
N1 N -0.01949(18) 0.32948(15) 0.11371(13)
P1 P 0.38270(5) 0.68770(4) 0.35607(4)
loop_
_geom_bond_atom_site_label_1
_geom_bond_atom_site_label_2
_geom_bond_site_symmetry_1
_geom_bond_site_symmetry_2
C1 C2 1_555 1_555
C2 H1 1_555 1_555
C3 C2 1_555 1_555
H2 C3 1_555 1_555
C4 C3 1_555 1_555
H3 C4 1_555 1_555
C5 C4 1_555 1_555
H4 C5 1_555 1_555
C6 C1 1_555 1_555
C7 C6 1_555 1_555
C8 C7 1_555 1_555
H5 C8 1_555 1_555
C9 C8 1_555 1_555
H6 C9 1_555 1_555
C10 C9 1_555 1_555
H7 C10 1_555 1_555
C11 C10 1_555 1_555
H8 C11 1_555 1_555
C12 C7 1_555 1_555
C13 C14 1_555 1_555
C14 H9 1_555 1_555
C15 C14 1_555 1_555
H10 C15 1_555 1_555
C16 C15 1_555 1_555
C17 C16 1_555 1_555
H11 C17 1_555 1_555
C18 C13 1_555 1_555
H12 C18 1_555 1_555
C19 C16 1_555 1_555
C20 C19 1_555 1_555
H13 C20 1_555 1_555
C21 C20 1_555 1_555
H14 C21 1_555 1_555
C22 C21 1_555 1_555
H15 C22 1_555 1_555
C23 C22 1_555 1_555
C24 C19 1_555 1_555
C25 C24 1_555 1_555
C26 C25 1_555 1_555
H16 C26 1_555 1_555
C27 C26 1_555 1_555
H17 C27 1_555 1_555
C28 C23 1_555 1_555
H18 C28 1_555 1_555
C29 H19 1_555 1_555
C30 C29 1_555 1_555
H20 C30 1_555 1_555
H21 C30 1_555 1_555
C31 C30 1_555 1_555
H22 C31 1_555 1_555
H23 C31 1_555 1_555
C32 C31 1_555 1_555
H24 C32 1_555 1_555
H25 C32 1_555 1_555
C33 C32 1_555 1_555
H26 C33 1_555 1_555
H27 C33 1_555 1_555
C34 C29 1_555 1_555
H28 C34 1_555 1_555
H29 C34 1_555 1_555
C35 H30 1_555 1_555
C36 C35 1_555 1_555
H31 C36 1_555 1_555
H32 C36 1_555 1_555
C37 C36 1_555 1_555
H33 C37 1_555 1_555
H34 C37 1_555 1_555
C38 C37 1_555 1_555
H35 C38 1_555 1_555
H36 C38 1_555 1_555
C39 C38 1_555 1_555
H37 C39 1_555 1_555
H38 C39 1_555 1_555
C40 C35 1_555 1_555
H39 C40 1_555 1_555
H40 C40 1_555 1_555
N1 C1 1_555 1_555
P1 C25 1_555 1_555
C5 C6 1_555 1_555
C11 C12 1_555 1_555
C12 N1 1_555 1_555
C13 N1 1_555 1_555
C17 C18 1_555 1_555
C23 C24 1_555 1_555
C27 C28 1_555 1_555
C29 P1 1_555 1_555
C33 C34 1_555 1_555
C35 P1 1_555 1_555
C39 C40 1_555 1_555

#END
