
#######################################################################
#
#                 Cambridge Crystallographic Data Centre
#                                CCDC 
#
#######################################################################
#
# If this CIF has been generated from an entry in the Cambridge 
# Structural Database, then it will include bibliographic, chemical, 
# crystal, experimental, refinement or atomic coordinate data resulting 
# from the CCDC's data processing and validation procedures.
#
#######################################################################

data_SICYAH
_chemical_formula_moiety         'C23 H32 O6'
_chemical_name_systematic        
4,6-dimethoxy-2,2-dimethyl-11-methylidenedodecahydro-2H,8H-13,7a-(epoxymethano)-5,7-methanobenzo[4',5']cyclohepta[1',2':2,3]benzo[1,2-d][1,3]dioxol-15-one
_symmetry_cell_setting           triclinic
_symmetry_space_group_name_H-M   'P -1'
_symmetry_Int_Tables_number      2
_space_group_name_Hall           '-P 1'
loop_
_symmetry_equiv_pos_site_id
_symmetry_equiv_pos_as_xyz
1 x,y,z
2 -x,-y,-z
_cell_length_a                   8.2403(4)
_cell_length_b                   11.2635(5)
_cell_length_c                   11.6154(7)
_cell_angle_alpha                80.692(4)
_cell_angle_beta                 75.701(5)
_cell_angle_gamma                83.849(4)
_cell_volume                     1028.38
_cell_formula_units_Z            2
loop_
_atom_site_label
_atom_site_type_symbol
_atom_site_fract_x
_atom_site_fract_y
_atom_site_fract_z
C1 C 0.5406(3) 0.74098(17) 0.21188(18)
C2 C 0.6734(3) 0.7742(2) 0.1015(2)
H1 H 0.6758 0.8613 0.0836
H2 H 0.6497 0.7446 0.0339
C3 C 0.8429(3) 0.7185(2) 0.1222(2)
H3 H 0.8411 0.6313 0.1376
H4 H 0.9305 0.7394 0.0509
C4 C 0.8797(3) 0.7637(2) 0.22695(18)
H5 H 0.8967 0.8491 0.2053
H6 H 0.9842 0.7232 0.2413
C5 C 0.7441(2) 0.74628(16) 0.34472(16)
C6 C 0.7888(2) 0.82251(15) 0.43081(16)
H7 H 0.8213 0.8992 0.3814
C7 C 0.9444(2) 0.77102(17) 0.48147(17)
H8 H 0.9680 0.6859 0.4744
H9 H 1.0427 0.8134 0.4381
C8 C 0.8984(2) 0.79023(15) 0.61408(16)
H10 H 0.9970 0.8102 0.6381
C9 C 0.8214(2) 0.67951(15) 0.69622(16)
H11 H 0.8733 0.6082 0.6592
C10 C 0.6294(2) 0.67718(14) 0.71548(15)
H12 H 0.6020 0.5936 0.7209
C11 C 0.5513(2) 0.75622(14) 0.61783(15)
C12 C 0.4936(2) 0.67870(16) 0.54121(17)
H13 H 0.3999 0.6353 0.5940
C13 C 0.4281(3) 0.7482(2) 0.43720(18)
H14 H 0.3637 0.8204 0.4630
H15 H 0.3520 0.6992 0.4170
C14 C 0.5637(2) 0.78522(16) 0.32355(16)
H16 H 0.5548 0.8736 0.3083
C15 C 0.7450(2) 0.61530(16) 0.40058(17)
C16 C 0.7726(2) 0.90032(15) 0.60912(17)
H17 H 0.8322 0.9672 0.5571
C17 C 0.6568(2) 0.85754(14) 0.54166(16)
H18 H 0.5826 0.9257 0.5169
C18 C 0.3806(2) 0.76452(16) 0.81096(17)
C19 C 0.4189(4) 0.6750(3) 0.2084(3)
H19 H 0.425(3) 0.650(2) 0.130(2)
H20 H 0.328(4) 0.647(2) 0.280(3)
C20 C 0.8384(3) 0.55732(17) 0.87881(18)
H21 H 0.8907 0.5502 0.9451
H22 H 0.8850 0.4943 0.8312
H23 H 0.7198 0.5506 0.9085
C21 C 0.7874(3) 0.9749(2) 0.7851(2)
H24 H 0.7192 1.0137 0.8501
H25 H 0.8667 1.0293 0.7353
H26 H 0.8464 0.9039 0.8167
C22 C 0.3187(3) 0.8660(2) 0.8846(2)
H27 H 0.3976 0.9273 0.8611
H28 H 0.3076 0.8355 0.9681
H29 H 0.2116 0.8997 0.8716
C23 C 0.2634(3) 0.66274(19) 0.8452(2)
H30 H 0.2465 0.6347 0.9295
H31 H 0.3120 0.5976 0.8008
H32 H 0.1574 0.6915 0.8268
O1 O 0.62585(16) 0.58733(10) 0.50124(12)
O2 O 0.54399(15) 0.72202(11) 0.82368(11)
O3 O 0.40157(15) 0.81229(10) 0.68632(11)
O4 O 0.68385(18) 0.94235(11) 0.71620(13)
O5 O 0.84430(19) 0.53568(12) 0.36448(14)
O6 O 0.86778(16) 0.67096(11) 0.80730(11)
loop_
_geom_bond_atom_site_label_1
_geom_bond_atom_site_label_2
_geom_bond_site_symmetry_1
_geom_bond_site_symmetry_2
C1 C2 1_555 1_555
C2 H1 1_555 1_555
H2 C2 1_555 1_555
C3 C2 1_555 1_555
H3 C3 1_555 1_555
H4 C3 1_555 1_555
C4 C3 1_555 1_555
H5 C4 1_555 1_555
H6 C4 1_555 1_555
C5 C4 1_555 1_555
C6 C5 1_555 1_555
H7 C6 1_555 1_555
C7 C6 1_555 1_555
H8 C7 1_555 1_555
H9 C7 1_555 1_555
C8 C7 1_555 1_555
H10 C8 1_555 1_555
C9 C8 1_555 1_555
H11 C9 1_555 1_555
C10 C9 1_555 1_555
H12 C10 1_555 1_555
C11 C10 1_555 1_555
C12 C11 1_555 1_555
H13 C12 1_555 1_555
C13 C12 1_555 1_555
H14 C13 1_555 1_555
H15 C13 1_555 1_555
C14 C1 1_555 1_555
H16 C14 1_555 1_555
C15 C5 1_555 1_555
C16 C8 1_555 1_555
H17 C16 1_555 1_555
C17 C6 1_555 1_555
H18 C17 1_555 1_555
C18 C22 1_555 1_555
C19 C1 1_555 1_555
H19 C19 1_555 1_555
H20 C19 1_555 1_555
C20 H21 1_555 1_555
H22 C20 1_555 1_555
H23 C20 1_555 1_555
C21 H24 1_555 1_555
H25 C21 1_555 1_555
H26 C21 1_555 1_555
C22 H27 1_555 1_555
H28 C22 1_555 1_555
H29 C22 1_555 1_555
C23 C18 1_555 1_555
H30 C23 1_555 1_555
H31 C23 1_555 1_555
H32 C23 1_555 1_555
O1 C12 1_555 1_555
O2 C10 1_555 1_555
O3 C11 1_555 1_555
O4 C16 1_555 1_555
O5 C15 1_555 1_555
O6 C9 1_555 1_555
C5 C14 1_555 1_555
C11 C17 1_555 1_555
C13 C14 1_555 1_555
C15 O1 1_555 1_555
C16 C17 1_555 1_555
C18 O2 1_555 1_555
C18 O3 1_555 1_555
C20 O6 1_555 1_555
C21 O4 1_555 1_555

#END
