
#######################################################################
#
#                 Cambridge Crystallographic Data Centre
#                                CCDC 
#
#######################################################################
#
# If this CIF has been generated from an entry in the Cambridge 
# Structural Database, then it will include bibliographic, chemical, 
# crystal, experimental, refinement or atomic coordinate data resulting 
# from the CCDC's data processing and validation procedures.
#
#######################################################################

data_SICYEK
_chemical_formula_moiety         'C14 H18 Br1 N2 O3'
_chemical_name_systematic        
2-(3-Bromo-4-methoxyphenyl)-4,4,5,5-tetramethyl-4,5-dihydro-1H-3\l^5^-imidazole-1,3-diol
_symmetry_cell_setting           orthorhombic
_symmetry_space_group_name_H-M   'F d d 2'
_symmetry_Int_Tables_number      43
_space_group_name_Hall           'F 2 -2d'
loop_
_symmetry_equiv_pos_site_id
_symmetry_equiv_pos_as_xyz
1 x,y,z
2 -x,-y,z
3 1/4-x,1/4+y,1/4+z
4 3/4+x,3/4-y,1/4+z
5 x,1/2+y,1/2+z
6 -x,1/2-y,1/2+z
7 1/4-x,3/4+y,3/4+z
8 3/4+x,1/4-y,3/4+z
9 1/2+x,y,1/2+z
10 1/2-x,-y,1/2+z
11 3/4-x,1/4+y,3/4+z
12 1/4+x,3/4-y,3/4+z
13 1/2+x,1/2+y,z
14 1/2-x,1/2-y,z
15 3/4-x,3/4+y,1/4+z
16 1/4+x,1/4-y,1/4+z
_cell_length_a                   42.118(9)
_cell_length_b                   17.464(5)
_cell_length_c                   8.1600(16)
_cell_angle_alpha                90
_cell_angle_beta                 90
_cell_angle_gamma                90
_cell_volume                     6002.08
_cell_formula_units_Z            16
loop_
_atom_site_label
_atom_site_type_symbol
_atom_site_fract_x
_atom_site_fract_y
_atom_site_fract_z
Br1 Br 0.232671(14) 0.15353(4) 0.20374(12)
C1 C 0.19292(13) 0.1081(3) 0.1548(8)
O1 O 0.21536(9) 0.0613(2) -0.0895(6)
C2 C 0.11250(14) 0.0891(3) 0.3418(7)
N1 N 0.08134(13) 0.0828(3) 0.2996(6)
C3 C 0.08313(17) 0.0858(4) 0.5874(8)
C4 C 0.13870(13) 0.0858(3) 0.2264(6)
N2 N 0.11440(14) 0.0910(3) 0.5026(6)
C5 C 0.18986(14) 0.0683(3) 0.0104(7)
C6 C 0.13532(14) 0.0457(3) 0.0795(7)
H1 H 0.1157 0.0246 0.0526
C7 C 0.16845(13) 0.1178(3) 0.2629(7)
H2 H 0.1715 0.1452 0.3594
O2 O 0.14025(12) 0.0955(3) 0.5857(6)
C8 C 0.16049(13) 0.0369(3) -0.0259(8)
H3 H 0.1578 0.0095 -0.1227
O3 O 0.07050(11) 0.0838(3) 0.1530(5)
C9 C 0.06071(13) 0.0693(3) 0.4448(7)
C10 C 0.21197(16) 0.0192(4) -0.2395(9)
H4 H 0.2059 -0.0325 -0.2152
H5 H 0.2318 0.0193 -0.2975
H6 H 0.1959 0.0428 -0.3061
C11 C 0.0778(2) 0.1644(6) 0.6643(16)
H7 H 0.0554 0.1743 0.6718
H8 H 0.0876 0.2030 0.5975
H9 H 0.0869 0.1654 0.7720
C12 C 0.0844(2) 0.0260(6) 0.7133(12)
H10 H 0.0926 -0.0203 0.6663
H11 H 0.0634 0.0169 0.7548
H12 H 0.0979 0.0423 0.8012
C13 C 0.05054(17) -0.0140(4) 0.4328(11)
H13 H 0.0386 -0.0216 0.3339
H14 H 0.0376 -0.0269 0.5256
H15 H 0.0690 -0.0463 0.4315
C14 C 0.03168(19) 0.1197(6) 0.4266(12)
H16 H 0.0381 0.1724 0.4220
H17 H 0.0178 0.1121 0.5187
H18 H 0.0207 0.1065 0.3275
loop_
_geom_bond_atom_site_label_1
_geom_bond_atom_site_label_2
_geom_bond_site_symmetry_1
_geom_bond_site_symmetry_2
Br1 C1 1_555 1_555
C1 C5 1_555 1_555
O1 C5 1_555 1_555
C2 N1 1_555 1_555
N1 O3 1_555 1_555
C3 N2 1_555 1_555
C4 C2 1_555 1_555
N2 C2 1_555 1_555
C5 C8 1_555 1_555
C6 C4 1_555 1_555
H1 C6 1_555 1_555
C7 C1 1_555 1_555
H2 C7 1_555 1_555
O2 N2 1_555 1_555
C8 C6 1_555 1_555
H3 C8 1_555 1_555
C9 N1 1_555 1_555
C10 O1 1_555 1_555
H4 C10 1_555 1_555
H5 C10 1_555 1_555
H6 C10 1_555 1_555
C11 C3 1_555 1_555
H7 C11 1_555 1_555
H8 C11 1_555 1_555
H9 C11 1_555 1_555
C12 C3 1_555 1_555
H10 C12 1_555 1_555
H11 C12 1_555 1_555
H12 C12 1_555 1_555
C13 C9 1_555 1_555
H13 C13 1_555 1_555
H14 C13 1_555 1_555
H15 C13 1_555 1_555
C14 C9 1_555 1_555
H16 C14 1_555 1_555
H17 C14 1_555 1_555
H18 C14 1_555 1_555
C3 C9 1_555 1_555
C4 C7 1_555 1_555

#END
