
#######################################################################
#
#                 Cambridge Crystallographic Data Centre
#                                CCDC 
#
#######################################################################
#
# If this CIF has been generated from an entry in the Cambridge 
# Structural Database, then it will include bibliographic, chemical, 
# crystal, experimental, refinement or atomic coordinate data resulting 
# from the CCDC's data processing and validation procedures.
#
#######################################################################

data_SIDBEP
_chemical_formula_moiety         'C16 H10 F2 O3'
_chemical_name_systematic        
3,6-difluoro-5-methoxy-2-phenyl-4H-1-benzopyran-4-one
_symmetry_cell_setting           triclinic
_symmetry_space_group_name_H-M   'P -1'
_symmetry_Int_Tables_number      2
_space_group_name_Hall           '-P 1'
loop_
_symmetry_equiv_pos_site_id
_symmetry_equiv_pos_as_xyz
1 x,y,z
2 -x,-y,-z
_cell_length_a                   7.0746(17)
_cell_length_b                   8.499(2)
_cell_length_c                   10.459(2)
_cell_angle_alpha                92.779(6)
_cell_angle_beta                 104.832(6)
_cell_angle_gamma                93.958(6)
_cell_volume                     605.037
_exptl_crystal_colour            'light colorless'
_exptl_crystal_description       block
_cell_formula_units_Z            2
loop_
_atom_site_label
_atom_site_type_symbol
_atom_site_fract_x
_atom_site_fract_y
_atom_site_fract_z
C1 C 0.59208(18) 0.26788(14) 0.31130(12)
C2 C 0.66864(19) 0.17850(15) 0.41131(13)
C3 C 0.77532(18) 0.23765(15) 0.54414(13)
C4 C 0.89861(17) 0.49826(15) 0.68094(12)
C5 C 0.91342(18) 0.66090(16) 0.68449(13)
C6 C 0.83212(18) 0.74527(15) 0.57691(13)
H1 H 0.8448 0.8576 0.5838
C7 C 0.73230(18) 0.66297(15) 0.45941(13)
H2 H 0.6754 0.7178 0.3839
C8 C 0.71603(18) 0.49858(15) 0.45305(13)
C9 C 0.79593(17) 0.41175(15) 0.56130(13)
C10 C 0.50157(19) 0.30559(15) 0.07057(13)
H3 H 0.5894 0.3985 0.0875
C11 C 0.3931(2) 0.26014(17) -0.05741(13)
H4 H 0.4058 0.3228 -0.1280
C12 C 0.2660(2) 0.12377(17) -0.08355(14)
H5 H 0.1909 0.0936 -0.1715
C13 C 0.24923(19) 0.03191(16) 0.01965(14)
H6 H 0.1645 -0.0627 0.0018
C14 C 0.35516(19) 0.07708(16) 0.14882(13)
H7 H 0.3414 0.0144 0.2192
C15 C 0.48183(18) 0.21467(15) 0.17507(12)
C16 C 0.8620(2) 0.37407(18) 0.86936(14)
H8 H 0.7634 0.2932 0.8170
H9 H 0.7963 0.4636 0.8951
H10 H 0.9380 0.3292 0.9491
F1 F 0.65036(13) 0.01984(9) 0.38951(8)
F2 F 1.01459(12) 0.74175(9) 0.79877(8)
O1 O 0.61583(13) 0.42824(10) 0.33141(9)
O2 O 0.84024(15) 0.14788(11) 0.63017(9)
O3 O 0.99138(13) 0.42728(11) 0.79133(9)
loop_
_geom_bond_atom_site_label_1
_geom_bond_atom_site_label_2
_geom_bond_site_symmetry_1
_geom_bond_site_symmetry_2
C1 C2 1_555 1_555
C2 C3 1_555 1_555
C3 C9 1_555 1_555
C4 C5 1_555 1_555
C5 C6 1_555 1_555
C6 H1 1_555 1_555
C7 C6 1_555 1_555
H2 C7 1_555 1_555
C8 C7 1_555 1_555
C9 C4 1_555 1_555
C10 H3 1_555 1_555
C11 C10 1_555 1_555
H4 C11 1_555 1_555
C12 C11 1_555 1_555
H5 C12 1_555 1_555
C13 C12 1_555 1_555
H6 C13 1_555 1_555
C14 C13 1_555 1_555
H7 C14 1_555 1_555
C15 C1 1_555 1_555
C16 H8 1_555 1_555
H9 C16 1_555 1_555
H10 C16 1_555 1_555
F1 C2 1_555 1_555
F2 C5 1_555 1_555
O1 C1 1_555 1_555
O2 C3 1_555 1_555
O3 C4 1_555 1_555
C8 C9 1_555 1_555
C8 O1 1_555 1_555
C10 C15 1_555 1_555
C14 C15 1_555 1_555
C16 O3 1_555 1_555

#END
