
#######################################################################
#
#                 Cambridge Crystallographic Data Centre
#                                CCDC 
#
#######################################################################
#
# If this CIF has been generated from an entry in the Cambridge 
# Structural Database, then it will include bibliographic, chemical, 
# crystal, experimental, refinement or atomic coordinate data resulting 
# from the CCDC's data processing and validation procedures.
#
#######################################################################

data_SIDCOZ
_chemical_formula_moiety         'C18 H22 N2 O1'
_chemical_name_systematic        
2-(Bicyclo[2.2.1]hept-2-yl)-N,N-dimethyl-1H-indole-1-carboxamide
_symmetry_cell_setting           orthorhombic
_symmetry_space_group_name_H-M   'P 21 21 21'
_symmetry_Int_Tables_number      19
_space_group_name_Hall           'P 2ac 2ab'
loop_
_symmetry_equiv_pos_site_id
_symmetry_equiv_pos_as_xyz
1 x,y,z
2 1/2-x,-y,1/2+z
3 -x,1/2+y,1/2-z
4 1/2+x,1/2-y,-z
_cell_length_a                   10.232(2)
_cell_length_b                   10.471(2)
_cell_length_c                   14.146(3)
_cell_angle_alpha                90
_cell_angle_beta                 90
_cell_angle_gamma                90
_cell_volume                     1515.59
_exptl_crystal_colour            colorless
_exptl_crystal_description       Prism
_cell_formula_units_Z            4
loop_
_atom_site_label
_atom_site_type_symbol
_atom_site_fract_x
_atom_site_fract_y
_atom_site_fract_z
O1 O 0.7299(5) 0.4051(4) 1.0659(3)
N1 N 0.7624(5) 0.3433(4) 0.9114(3)
N2 N 0.8231(5) 0.2124(5) 1.0371(4)
C1 C 0.7852(6) 0.4598(5) 0.8642(4)
C2 C 0.7384(6) 0.4506(5) 0.7744(4)
H1 H 0.7441 0.5147 0.7271
C3 C 0.6790(5) 0.3271(5) 0.7636(4)
C4 C 0.6933(5) 0.2626(5) 0.8504(4)
C5 C 0.6400(6) 0.1424(5) 0.8658(4)
H2 H 0.6491 0.1003 0.9250
C6 C 0.5730(6) 0.0863(6) 0.7916(5)
H3 H 0.5355 0.0041 0.8002
C7 C 0.5592(6) 0.1474(6) 0.7046(4)
H4 H 0.5130 0.1061 0.6549
C8 C 0.6117(6) 0.2669(6) 0.6897(4)
H5 H 0.6024 0.3079 0.6302
C9 C 0.7718(6) 0.3250(5) 1.0109(4)
C10 C 0.9107(7) 0.1355(6) 0.9794(5)
H6 H 0.9235 0.1770 0.9180
H7 H 0.8724 0.0506 0.9698
H8 H 0.9951 0.1269 1.0115
C11 C 0.8149(7) 0.1780(6) 1.1366(5)
H9 H 0.8929 0.2090 1.1697
H10 H 0.8095 0.0850 1.1427
H11 H 0.7369 0.2171 1.1645
C12 C 0.8602(6) 0.5644(5) 0.9104(4)
H12 H 0.8474 0.5607 0.9775
C13 C 0.8312(11) 0.6998(12) 0.8750(12)
H13 H 0.7982 0.7548 0.9267
H14 H 0.7667 0.6989 0.8228
C14 C 0.9681(12) 0.7454(10) 0.8399(8)
H15 H 0.9626 0.8191 0.7951
C15 C 1.056(2) 0.7726(15) 0.9244(18)
H16 H 1.0084 0.8185 0.9749
H17 H 1.1339 0.8229 0.9058
C16 C 1.0952(11) 0.6322(10) 0.9567(8)
H18 H 1.1900 0.6161 0.9487
H19 H 1.0700 0.6154 1.0231
C17 C 1.0125(11) 0.5523(11) 0.8864(9)
H20 H 1.0424 0.4616 0.8816
C18 C 1.0277(18) 0.6250(17) 0.7943(10)
H21 H 0.9746 0.5899 0.7420
H22 H 1.1199 0.6361 0.7746
H23? H 0.8141 0.5907 0.9662
C19? C 1.0003(14) 0.5351(14) 0.9365(11)
H24? H 1.0269 0.4489 0.9151
H25? H 1.0154 0.5430 1.0053
C20? C 1.0723(11) 0.6433(12) 0.8795(11)
H26? H 1.1668 0.6236 0.8689
C21? C 1.052(3) 0.7692(19) 0.934(2)
H27? H 1.1136 0.8363 0.9132
H28? H 1.0606 0.7566 1.0033
C22? C 0.9049(15) 0.8021(11) 0.9050(11)
H29? H 0.8466 0.8071 0.9607
H30? H 0.8994 0.8826 0.8685
C23? C 0.8738(14) 0.6825(14) 0.8420(12)
H31? H 0.7955 0.6950 0.8007
C24? C 0.997(2) 0.659(2) 0.7869(11)
H32? H 1.0256 0.7338 0.7490
H33? H 0.9944 0.5810 0.7477
loop_
_geom_bond_atom_site_label_1
_geom_bond_atom_site_label_2
_geom_bond_site_symmetry_1
_geom_bond_site_symmetry_2
O1 C9 1_555 1_555
N1 C1 1_555 1_555
N2 C9 1_555 1_555
C1 C2 1_555 1_555
C2 H1 1_555 1_555
C3 C2 1_555 1_555
C4 N1 1_555 1_555
C5 C4 1_555 1_555
H2 C5 1_555 1_555
C6 C5 1_555 1_555
H3 C6 1_555 1_555
C7 C6 1_555 1_555
H4 C7 1_555 1_555
C8 C3 1_555 1_555
H5 C8 1_555 1_555
C9 N1 1_555 1_555
C10 N2 1_555 1_555
H6 C10 1_555 1_555
H7 C10 1_555 1_555
H8 C10 1_555 1_555
C11 N2 1_555 1_555
H9 C11 1_555 1_555
H10 C11 1_555 1_555
H11 C11 1_555 1_555
C12 C1 1_555 1_555
H12 C12 1_555 1_555
C13 C12 1_555 1_555
H13 C13 1_555 1_555
H14 C13 1_555 1_555
C14 C13 1_555 1_555
H15 C14 1_555 1_555
C15 C14 1_555 1_555
H16 C15 1_555 1_555
H17 C15 1_555 1_555
C16 C15 1_555 1_555
H18 C16 1_555 1_555
H19 C16 1_555 1_555
C17 C12 1_555 1_555
H20 C17 1_555 1_555
C18 C14 1_555 1_555
H21 C18 1_555 1_555
H22 C18 1_555 1_555
C3 C4 1_555 1_555
C7 C8 1_555 1_555
C16 C17 1_555 1_555
C17 C18 1_555 1_555

#END
