
#######################################################################
#
#                 Cambridge Crystallographic Data Centre
#                                CCDC 
#
#######################################################################
#
# If this CIF has been generated from an entry in the Cambridge 
# Structural Database, then it will include bibliographic, chemical, 
# crystal, experimental, refinement or atomic coordinate data resulting 
# from the CCDC's data processing and validation procedures.
#
#######################################################################

data_SIDCEQ
_chemical_formula_moiety         'C23 H22 Br1 F3 N2 O5'
_chemical_name_systematic        
'ethyl 5-(4-bromophenyl)-2,4-dimethyl-3-(4-nitrobenzene-1-carbonyl)-4-(trifluoromethyl)pyrrolidine-2-carboxylate'
_symmetry_cell_setting           monoclinic
_symmetry_space_group_name_H-M   'P 21'
_symmetry_Int_Tables_number      4
_space_group_name_Hall           'P 2yb'
loop_
_symmetry_equiv_pos_site_id
_symmetry_equiv_pos_as_xyz
1 x,y,z
2 -x,1/2+y,-z
_cell_length_a                   10.5499(6)
_cell_length_b                   19.6382(11)
_cell_length_c                   11.6438(6)
_cell_angle_alpha                90
_cell_angle_beta                 96.629(2)
_cell_angle_gamma                90
_cell_volume                     2396.25
_exptl_crystal_colour            colorless
_exptl_crystal_description       block
_cell_formula_units_Z            4
loop_
_atom_site_label
_atom_site_type_symbol
_atom_site_fract_x
_atom_site_fract_y
_atom_site_fract_z
Br1 Br 0.26547(6) 0.16241(3) 0.56376(5)
F1 F 0.5356(4) 0.3730(2) -0.0159(4)
F2 F 0.4157(3) 0.2916(2) 0.0328(3)
F3 F 0.5774(3) 0.2692(2) -0.0563(3)
O1 O 0.8413(5) 0.6688(3) -0.0058(5)
O2 O 0.9290(6) 0.6876(2) 0.1667(5)
O3 O 1.0123(3) 0.2108(2) 0.2797(4)
O4 O 1.0279(3) 0.3016(2) 0.1656(3)
O5 O 0.8487(4) 0.3565(2) 0.3151(3)
N1 N 0.7485(3) 0.2164(2) 0.2308(3)
H1 H 0.7754 0.1945 0.2929
N2 N 0.8786(4) 0.6508(3) 0.0917(5)
C1 C 0.5634(5) 0.2297(3) 0.3944(5)
H2 H 0.6410 0.2512 0.4162
C2 C 0.4850(5) 0.2156(3) 0.4762(5)
H3 H 0.5082 0.2290 0.5523
C3 C 0.3725(5) 0.1819(3) 0.4476(5)
C4 C 0.3354(4) 0.1636(3) 0.3355(5)
H4 H 0.2587 0.1408 0.3156
C5 C 0.4149(4) 0.1795(2) 0.2513(4)
H5 H 0.3897 0.1674 0.1749
C6 C 0.5298(4) 0.2127(2) 0.2786(4)
C7 C 0.6167(4) 0.2280(3) 0.1890(4)
H6 H 0.5938 0.1977 0.1229
C8 C 0.6176(4) 0.3037(3) 0.1426(4)
C9 C 0.7632(4) 0.3173(2) 0.1292(4)
H7 H 0.7720 0.3315 0.0499
C10 C 0.8283(4) 0.2468(2) 0.1536(4)
C11 C 0.8365(4) 0.4434(3) 0.1754(4)
C12 C 0.8009(5) 0.4665(3) 0.0634(4)
H8 H 0.7673 0.4361 0.0066
C13 C 0.8150(5) 0.5333(3) 0.0364(4)
H9 H 0.7909 0.5486 -0.0385
C14 C 0.8649(4) 0.5776(3) 0.1199(4)
C15 C 0.9041(6) 0.5566(3) 0.2300(5)
H10 H 0.9396 0.5873 0.2853
C16 C 0.8903(5) 0.4897(3) 0.2575(4)
H11 H 0.9172 0.4748 0.3321
C17 C 0.8371(5) 0.2052(3) 0.0416(5)
H12 H 0.8785 0.1625 0.0609
H13 H 0.8854 0.2303 -0.0092
H14 H 0.7528 0.1969 0.0036
C18 C 0.9649(5) 0.2519(3) 0.2104(5)
C19 C 1.1623(5) 0.3092(4) 0.2061(6)
H15 H 1.1990 0.2646 0.2245
H16 H 1.2059 0.3287 0.1450
C20 C 1.1818(8) 0.3516(7) 0.3058(10)
H17 H 1.2716 0.3551 0.3307
H18 H 1.1394 0.3321 0.3667
H19 H 1.1477 0.3961 0.2873
C21 C 0.5383(5) 0.3085(4) 0.0253(6)
C22 C 0.5626(5) 0.3540(3) 0.2214(6)
H20 H 0.5668 0.3990 0.1901
H21 H 0.6107 0.3524 0.2966
H22 H 0.4753 0.3424 0.2278
C23 C 0.8192(4) 0.3714(3) 0.2136(4)
Br2 Br 1.51587(6) 0.57088(4) 0.19880(6)
O6 O 0.7558(7) 0.0442(3) -0.4137(5)
O7 O 0.7775(4) 0.08691(19) -0.5790(4)
O8 O 0.7087(3) 0.4398(3) -0.3683(3)
O9 O 0.7272(4) 0.5143(2) -0.2228(3)
O10 O 0.8328(4) 0.3594(2) -0.1710(3)
F4 F 1.1887(4) 0.3115(2) -0.3199(5)
F5 F 1.2063(4) 0.4070(2) -0.3995(4)
F6 F 1.3231(3) 0.3837(2) -0.2416(4)
N3 N 0.7787(5) 0.0917(3) -0.4752(5)
N4 N 0.9918(3) 0.5063(2) -0.2046(3)
H23 H 0.9649 0.5330 -0.1540
C24 C 1.2150(4) 0.5064(2) -0.1094(4)
C25 C 1.3387(5) 0.5256(3) -0.1266(5)
H24 H 1.3619 0.5258 -0.2012
C26 C 1.4278(5) 0.5443(3) -0.0353(5)
H25 H 1.5103 0.5560 -0.0482
C27 C 1.3926(4) 0.5451(3) 0.0733(5)
C28 C 1.2714(5) 0.5286(3) 0.0947(5)
H26 H 1.2488 0.5302 0.1695
C29 C 1.1829(4) 0.5095(2) 0.0030(4)
H27 H 1.1003 0.4985 0.0170
C30 C 0.9158(4) 0.4748(3) -0.3021(4)
C31 C 0.9706(4) 0.4012(2) -0.3029(4)
H28 H 0.9841 0.3895 -0.3824
C32 C 1.1044(4) 0.4052(2) -0.2277(4)
C33 C 1.1228(4) 0.4839(2) -0.2095(4)
H29 H 1.1515 0.5028 -0.2800
C34 C 0.8592(4) 0.2818(2) -0.3196(4)
C35 C 0.7800(5) 0.2362(3) -0.2728(4)
H30 H 0.7425 0.2485 -0.2074
C36 C 0.7553(5) 0.1726(3) -0.3212(4)
H31 H 0.7050 0.1411 -0.2878
C37 C 0.8084(4) 0.1580(3) -0.4208(4)
C38 C 0.8832(5) 0.2014(3) -0.4718(4)
H32 H 0.9162 0.1895 -0.5398
C39 C 0.9098(5) 0.2642(3) -0.4202(4)
H33 H 0.9622 0.2948 -0.4535
C40 C 1.1117(6) 0.3671(3) -0.1134(5)
H34 H 1.1956 0.3721 -0.0726
H35 H 1.0943 0.3197 -0.1280
H36 H 1.0498 0.3854 -0.0675
C41 C 1.2052(5) 0.3767(4) -0.2978(7)
C42 C 0.7752(5) 0.4794(3) -0.2886(4)
C43 C 0.5714(7) 0.4408(8) -0.3694(7)
H37 H 0.5440 0.4012 -0.3290
H38 H 0.5459 0.4812 -0.3301
C44 C 0.5127(8) 0.4406(8) -0.4867(8)
H39 H 0.4216 0.4398 -0.4877
H40 H 0.5398 0.4010 -0.5256
H41 H 0.5375 0.4808 -0.5254
C45 C 0.9323(6) 0.5118(4) -0.4164(4)
H42 H 0.8973 0.5569 -0.4147
H43 H 0.8885 0.4870 -0.4800
H44 H 1.0214 0.5146 -0.4257
C46 C 0.8837(4) 0.3479(3) -0.2584(4)
loop_
_geom_bond_atom_site_label_1
_geom_bond_atom_site_label_2
_geom_bond_site_symmetry_1
_geom_bond_site_symmetry_2
Br1 C3 1_555 1_555
F1 C21 1_555 1_555
F2 C21 1_555 1_555
F3 C21 1_555 1_555
O1 N2 1_555 1_555
O2 N2 1_555 1_555
O3 C18 1_555 1_555
O4 C18 1_555 1_555
O5 C23 1_555 1_555
N1 H1 1_555 1_555
N2 C14 1_555 1_555
C1 H2 1_555 1_555
C2 C1 1_555 1_555
H3 C2 1_555 1_555
C3 C2 1_555 1_555
C4 C3 1_555 1_555
H4 C4 1_555 1_555
C5 C4 1_555 1_555
H5 C5 1_555 1_555
C6 C1 1_555 1_555
C7 N1 1_555 1_555
H6 C7 1_555 1_555
C8 C7 1_555 1_555
C9 C8 1_555 1_555
H7 C9 1_555 1_555
C10 N1 1_555 1_555
C11 C12 1_555 1_555
C12 H8 1_555 1_555
C13 C12 1_555 1_555
H9 C13 1_555 1_555
C14 C13 1_555 1_555
C15 C14 1_555 1_555
H10 C15 1_555 1_555
C16 C11 1_555 1_555
H11 C16 1_555 1_555
C17 C10 1_555 1_555
H12 C17 1_555 1_555
H13 C17 1_555 1_555
H14 C17 1_555 1_555
C18 C10 1_555 1_555
C19 O4 1_555 1_555
H15 C19 1_555 1_555
H16 C19 1_555 1_555
C20 C19 1_555 1_555
H17 C20 1_555 1_555
H18 C20 1_555 1_555
H19 C20 1_555 1_555
C21 C8 1_555 1_555
C22 C8 1_555 1_555
H20 C22 1_555 1_555
H21 C22 1_555 1_555
H22 C22 1_555 1_555
C23 C9 1_555 1_555
Br2 C27 1_555 1_555
O6 N3 1_555 1_555
O7 N3 1_555 1_555
O8 C42 1_555 1_555
O9 C42 1_555 1_555
O10 C46 1_555 1_555
F4 C41 1_555 1_555
F5 C41 1_555 1_555
F6 C41 1_555 1_555
N3 C37 1_555 1_555
N4 H23 1_555 1_555
C24 C25 1_555 1_555
C25 H24 1_555 1_555
C26 C25 1_555 1_555
H25 C26 1_555 1_555
C27 C26 1_555 1_555
C28 C27 1_555 1_555
H26 C28 1_555 1_555
C29 C24 1_555 1_555
H27 C29 1_555 1_555
C30 N4 1_555 1_555
C31 C30 1_555 1_555
H28 C31 1_555 1_555
C32 C31 1_555 1_555
C33 N4 1_555 1_555
H29 C33 1_555 1_555
C34 C35 1_555 1_555
C35 H30 1_555 1_555
C36 C35 1_555 1_555
H31 C36 1_555 1_555
C37 C36 1_555 1_555
C38 C37 1_555 1_555
H32 C38 1_555 1_555
C39 C34 1_555 1_555
H33 C39 1_555 1_555
C40 C32 1_555 1_555
H34 C40 1_555 1_555
H35 C40 1_555 1_555
H36 C40 1_555 1_555
C41 C32 1_555 1_555
C42 C30 1_555 1_555
C43 O8 1_555 1_555
H37 C43 1_555 1_555
H38 C43 1_555 1_555
C44 C43 1_555 1_555
H39 C44 1_555 1_555
H40 C44 1_555 1_555
H41 C44 1_555 1_555
C45 C30 1_555 1_555
H42 C45 1_555 1_555
H43 C45 1_555 1_555
H44 C45 1_555 1_555
C46 C31 1_555 1_555
C5 C6 1_555 1_555
C6 C7 1_555 1_555
C9 C10 1_555 1_555
C11 C23 1_555 1_555
C15 C16 1_555 1_555
C24 C33 1_555 1_555
C28 C29 1_555 1_555
C32 C33 1_555 1_555
C34 C46 1_555 1_555
C38 C39 1_555 1_555

#END
