
#######################################################################
#
#                 Cambridge Crystallographic Data Centre
#                                CCDC 
#
#######################################################################
#
# If this CIF has been generated from an entry in the Cambridge 
# Structural Database, then it will include bibliographic, chemical, 
# crystal, experimental, refinement or atomic coordinate data resulting 
# from the CCDC's data processing and validation procedures.
#
#######################################################################

data_SIDCUG
_chemical_formula_moiety         'C31 H45 N1 O8 S1'
_chemical_name_systematic        
"4-methyl-2-[5,12,13-trihydroxy-10-(2-hydroxypropan-2-yl)-6a,12a-dimethyl-6a,7,8,8a,10,11,12,12a,12b,13-decahydropyrano[2',3':7,8]xantheno[1,2-d][1,3]thiazol-4-yl]hexan-3-yl acetate"
_symmetry_cell_setting           monoclinic
_symmetry_space_group_name_H-M   'C 2'
_symmetry_Int_Tables_number      5
_space_group_name_Hall           'C 2y'
loop_
_symmetry_equiv_pos_site_id
_symmetry_equiv_pos_as_xyz
1 x,y,z
2 -x,y,-z
3 1/2+x,1/2+y,z
4 1/2-x,1/2+y,-z
_cell_length_a                   40.8273(9)
_cell_length_b                   8.5233(2)
_cell_length_c                   20.1249(4)
_cell_angle_alpha                90
_cell_angle_beta                 116.5920(10)
_cell_angle_gamma                90
_cell_volume                     6262.32
_exptl_crystal_description       Rod
_cell_formula_units_Z            8
loop_
_atom_site_label
_atom_site_type_symbol
_atom_site_fract_x
_atom_site_fract_y
_atom_site_fract_z
S1 S 0.10435(4) 1.10979(17) 0.48127(6)
O1 O 0.42359(12) 0.5568(6) 0.8437(2)
H1 H 0.4178 0.5595 0.8778
O2 O 0.35328(10) 0.5994(5) 0.74227(18)
O3 O 0.30778(11) 0.9323(5) 0.7700(2)
H2 H 0.3186 1.0127 0.7905
O4 O 0.24378(11) 1.0200(5) 0.6527(2)
H3 H 0.2283 1.0885 0.6331
O5 O 0.20110(9) 0.5862(4) 0.63365(17)
O6 O 0.12843(10) 0.5332(5) 0.57604(18)
H4 H 0.1423 0.4965 0.6167
O7 O 0.08206(10) 0.7148(5) 0.37969(16)
O8 O 0.12572(11) 0.5313(5) 0.4067(2)
N1 N 0.17482(12) 1.1226(6) 0.5409(2)
C1 C 0.42033(19) 0.6823(9) 0.7352(4)
H5 H 0.4449 0.6462 0.7506
H6 H 0.4170 0.7811 0.7101
H7 H 0.4034 0.6069 0.7021
C2 C 0.43803(18) 0.8284(9) 0.8550(5)
H8 H 0.4337 0.8357 0.8980
H9 H 0.4327 0.9275 0.8297
H10 H 0.4632 0.8016 0.8702
C3 C 0.41346(15) 0.7024(7) 0.8031(3)
C4 C 0.37335(13) 0.7325(6) 0.7837(3)
H11 H 0.3709 0.7384 0.8299
C5 C 0.35746(13) 0.8832(7) 0.7387(3)
H12 H 0.3689 0.9734 0.7700
H13 H 0.3633 0.8861 0.6971
C6 C 0.31634(14) 0.8946(7) 0.7098(3)
H14 H 0.3074 0.9803 0.6736
C7 C 0.29655(12) 0.7431(6) 0.6709(2)
C8 C 0.31463(12) 0.6071(6) 0.7257(2)
H15 H 0.3130 0.6297 0.7719
C9 C 0.29823(16) 0.4486(7) 0.6984(4)
H16 H 0.3114 0.3692 0.7353
H17 H 0.2997 0.4227 0.6529
C10 C 0.25781(16) 0.4545(7) 0.6840(3)
H18 H 0.2464 0.3538 0.6649
H19 H 0.2568 0.4732 0.7306
C11 C 0.23653(12) 0.5831(6) 0.6287(2)
C12 C 0.25577(14) 0.7426(6) 0.6572(2)
H20 H 0.2567 0.7567 0.7063
C13 C 0.23201(16) 0.8774(7) 0.6097(3)
H21 H 0.2356 0.8878 0.5650
C14 C 0.19151(14) 0.8510(6) 0.5870(2)
C15 C 0.17855(14) 0.7089(6) 0.5971(2)
C16 C 0.14006(14) 0.6797(6) 0.5693(2)
C17 C 0.11473(15) 0.7921(7) 0.5289(2)
C18 C 0.12823(16) 0.9394(7) 0.5230(2)
C19 C 0.16635(16) 0.9700(6) 0.5509(2)
C20 C 0.14556(14) 1.2040(7) 0.5060(3)
H22 H 0.1466 1.3091 0.4947
C21 C 0.07402(15) 0.7564(7) 0.4896(3)
H23 H 0.0613 0.8543 0.4671
C22 C 0.06735(14) 0.6407(7) 0.4257(2)
H24 H 0.0812 0.5444 0.4469
C23 C 0.02751(15) 0.5969(7) 0.3758(3)
H25 H 0.0173 0.5537 0.4077
C24 C 0.00385(15) 0.7351(8) 0.3343(3)
H26 H 0.0127 0.7756 0.3002
H27 H 0.0067 0.8174 0.3697
C25 C -0.03684(16) 0.6964(9) 0.2905(3)
H28 H -0.0404 0.6266 0.2504
H29 H -0.0504 0.7914 0.2708
H30 H -0.0453 0.6471 0.3228
C26 C 0.02697(15) 0.4647(7) 0.3227(3)
H31 H 0.0025 0.4249 0.2960
H32 H 0.0430 0.3816 0.3509
H33 H 0.0351 0.5057 0.2881
C27 C 0.11255(14) 0.6518(7) 0.3788(3)
C28 C 0.1261(2) 0.7593(8) 0.3379(4)
H34 H 0.1359 0.8527 0.3667
H35 H 0.1062 0.7868 0.2909
H36 H 0.1449 0.7076 0.3298
C29 C 0.05737(17) 0.6939(8) 0.5400(3)
H37 H 0.0638 0.5855 0.5514
H38 H 0.0312 0.7038 0.5147
H39 H 0.0667 0.7536 0.5852
C30 C 0.22617(18) 0.5388(8) 0.5483(3)
H40 H 0.2089 0.4537 0.5335
H41 H 0.2477 0.5070 0.5441
H42 H 0.2153 0.6276 0.5167
C31 C 0.30102(16) 0.7263(7) 0.5995(3)
H43 H 0.2799 0.7691 0.5584
H44 H 0.3034 0.6173 0.5904
H45 H 0.3225 0.7820 0.6049
S2 S 0.12882(4) 1.14256(16) 0.02567(6)
O9 O 0.43953(13) 0.5165(7) 0.3658(3)
H46 H 0.4212 0.4618 0.3454
O10 O 0.32811(10) 0.9089(5) 0.29214(19)
H47 H 0.3144 0.9850 0.2823
O11 O 0.37181(10) 0.5805(5) 0.2582(2)
O12 O 0.26700(11) 1.0177(5) 0.1664(2)
H48 H 0.2538 1.0918 0.1444
O13 O 0.21975(9) 0.5866(4) 0.14083(18)
O14 O 0.14802(10) 0.5530(4) 0.09904(18)
H49 H 0.1642 0.5039 0.1328
O15 O 0.08900(10) 0.7611(5) -0.07851(18)
O16 O 0.11169(15) 0.5259(7) -0.0828(3)
N2 N 0.19835(11) 1.1361(5) 0.0675(2)
C32 C 0.4426(2) 0.6646(9) 0.2665(4)
H50 H 0.4660 0.6149 0.2824
H51 H 0.4437 0.7698 0.2507
H52 H 0.4243 0.6066 0.2260
C33 C 0.45681(17) 0.7815(10) 0.3928(4)
H53 H 0.4475 0.7904 0.4288
H54 H 0.4567 0.8828 0.3719
H55 H 0.4814 0.7418 0.4165
C34 C 0.43262(15) 0.6687(8) 0.3310(4)
C35 C 0.39178(14) 0.7062(7) 0.3060(3)
H56 H 0.3871 0.7061 0.3497
C36 C 0.37887(14) 0.8626(7) 0.2653(3)
H57 H 0.3863 0.8691 0.2258
H58 H 0.3906 0.9480 0.2997
C37 C 0.33722(14) 0.8811(6) 0.2322(2)
H59 H 0.3298 0.9724 0.1991
C38 C 0.31644(13) 0.7345(6) 0.1875(3)
C39 C 0.33280(14) 0.5926(7) 0.2385(3)
H60 H 0.3301 0.6083 0.2840
C40 C 0.31549(16) 0.4369(8) 0.2041(4)
H61 H 0.3276 0.3516 0.2382
H62 H 0.3176 0.4191 0.1586
C41 C 0.27439(15) 0.4458(7) 0.1876(4)
H63 H 0.2622 0.3491 0.1640
H64 H 0.2727 0.4566 0.2339
C42 C 0.25540(13) 0.5829(6) 0.1374(3)
C43 C 0.27569(14) 0.7378(6) 0.1699(2)
H65 H 0.2755 0.7487 0.2182
C44 C 0.25318(15) 0.8768(6) 0.1237(2)
H66 H 0.2559 0.8841 0.0778
C45 C 0.21238(13) 0.8582(6) 0.1039(2)
C46 C 0.19928(13) 0.7171(6) 0.1122(2)
C47 C 0.16083(14) 0.6971(6) 0.0933(2)
C48 C 0.13717(15) 0.8208(7) 0.0656(2)
C49 C 0.15129(14) 0.9647(6) 0.0574(2)
C50 C 0.18875(14) 0.9849(6) 0.0763(2)
C51 C 0.17042(15) 1.2273(7) 0.0425(3)
H67 H 0.1724 1.3332 0.0337
C52 C 0.09624(14) 0.8057(7) 0.0463(3)
H68 H 0.0857 0.9115 0.0370
C53 C 0.07589(14) 0.7094(8) -0.0254(3)
H69 H 0.0821 0.5984 -0.0140
C54 C 0.03363(16) 0.7288(11) -0.0579(3)
H70 H 0.0269 0.6875 -0.0202
C55 C 0.0201(2) 0.9006(15) -0.0717(5)
H71 H -0.0062 0.8979 -0.0882
H72 H 0.0307 0.9529 -0.0238
C56 C 0.0264(3) 1.0012(17) -0.1230(5)
H73 H 0.0517 1.0317 -0.1012
H74 H 0.0113 1.0931 -0.1331
H75 H 0.0203 0.9455 -0.1684
C57 C 0.0151(2) 0.6231(16) -0.1254(4)
H76 H 0.0214 0.6572 -0.1637
H77 H -0.0110 0.6283 -0.1433
H78 H 0.0232 0.5170 -0.1117
C58 C 0.10841(19) 0.6608(8) -0.0954(3)
C59 C 0.12762(19) 0.7475(9) -0.1327(3)
H79 H 0.1509 0.7846 -0.0958
H80 H 0.1129 0.8351 -0.1598
H81 H 0.1314 0.6783 -0.1663
C60 C 0.08966(17) 0.7331(7) 0.1093(3)
H82 H 0.0652 0.7563 0.1014
H83 H 0.1068 0.7762 0.1561
H84 H 0.0929 0.6215 0.1097
C61 C 0.24534(18) 0.5476(9) 0.0559(3)
H85 H 0.2285 0.4609 0.0392
H86 H 0.2671 0.5213 0.0513
H87 H 0.2341 0.6383 0.0262
C62 C 0.32345(17) 0.7288(8) 0.1183(3)
H88 H 0.3424 0.8021 0.1242
H89 H 0.3014 0.7560 0.0750
H90 H 0.3309 0.6249 0.1126
loop_
_geom_bond_atom_site_label_1
_geom_bond_atom_site_label_2
_geom_bond_site_symmetry_1
_geom_bond_site_symmetry_2
S1 C18 1_555 1_555
O1 H1 1_555 1_555
O2 C4 1_555 1_555
O3 H2 1_555 1_555
O4 H3 1_555 1_555
O5 C11 1_555 1_555
O6 H4 1_555 1_555
O7 C22 1_555 1_555
O8 C27 1_555 1_555
N1 C19 1_555 1_555
C1 H5 1_555 1_555
H6 C1 1_555 1_555
H7 C1 1_555 1_555
C2 H8 1_555 1_555
H9 C2 1_555 1_555
H10 C2 1_555 1_555
C3 O1 1_555 1_555
C4 C3 1_555 1_555
H11 C4 1_555 1_555
C5 C4 1_555 1_555
H12 C5 1_555 1_555
H13 C5 1_555 1_555
C6 O3 1_555 1_555
H14 C6 1_555 1_555
C7 C6 1_555 1_555
C8 O2 1_555 1_555
H15 C8 1_555 1_555
C9 C8 1_555 1_555
H16 C9 1_555 1_555
H17 C9 1_555 1_555
C10 C9 1_555 1_555
H18 C10 1_555 1_555
H19 C10 1_555 1_555
C11 C10 1_555 1_555
C12 C7 1_555 1_555
H20 C12 1_555 1_555
C13 O4 1_555 1_555
H21 C13 1_555 1_555
C14 C13 1_555 1_555
C15 O5 1_555 1_555
C16 O6 1_555 1_555
C17 C16 1_555 1_555
C18 C17 1_555 1_555
C19 C14 1_555 1_555
C20 S1 1_555 1_555
H22 C20 1_555 1_555
C21 C17 1_555 1_555
H23 C21 1_555 1_555
C22 C21 1_555 1_555
H24 C22 1_555 1_555
C23 C22 1_555 1_555
H25 C23 1_555 1_555
C24 C23 1_555 1_555
H26 C24 1_555 1_555
H27 C24 1_555 1_555
C25 C24 1_555 1_555
H28 C25 1_555 1_555
H29 C25 1_555 1_555
H30 C25 1_555 1_555
C26 C23 1_555 1_555
H31 C26 1_555 1_555
H32 C26 1_555 1_555
H33 C26 1_555 1_555
C27 O7 1_555 1_555
C28 C27 1_555 1_555
H34 C28 1_555 1_555
H35 C28 1_555 1_555
H36 C28 1_555 1_555
C29 C21 1_555 1_555
H37 C29 1_555 1_555
H38 C29 1_555 1_555
H39 C29 1_555 1_555
C30 C11 1_555 1_555
H40 C30 1_555 1_555
H41 C30 1_555 1_555
H42 C30 1_555 1_555
C31 C7 1_555 1_555
H43 C31 1_555 1_555
H44 C31 1_555 1_555
H45 C31 1_555 1_555
S2 C49 1_555 1_555
O9 H46 1_555 1_555
O10 H47 1_555 1_555
O11 C35 1_555 1_555
O12 H48 1_555 1_555
O13 C42 1_555 1_555
O14 H49 1_555 1_555
O15 C53 1_555 1_555
O16 C58 1_555 1_555
N2 C50 1_555 1_555
C32 H50 1_555 1_555
H51 C32 1_555 1_555
H52 C32 1_555 1_555
C33 H53 1_555 1_555
H54 C33 1_555 1_555
H55 C33 1_555 1_555
C34 O9 1_555 1_555
C35 C34 1_555 1_555
H56 C35 1_555 1_555
C36 C35 1_555 1_555
H57 C36 1_555 1_555
H58 C36 1_555 1_555
C37 O10 1_555 1_555
H59 C37 1_555 1_555
C38 C37 1_555 1_555
C39 O11 1_555 1_555
H60 C39 1_555 1_555
C40 C39 1_555 1_555
H61 C40 1_555 1_555
H62 C40 1_555 1_555
C41 C40 1_555 1_555
H63 C41 1_555 1_555
H64 C41 1_555 1_555
C42 C41 1_555 1_555
C43 C38 1_555 1_555
H65 C43 1_555 1_555
C44 O12 1_555 1_555
H66 C44 1_555 1_555
C45 C44 1_555 1_555
C46 O13 1_555 1_555
C47 O14 1_555 1_555
C48 C47 1_555 1_555
C49 C48 1_555 1_555
C50 C45 1_555 1_555
C51 S2 1_555 1_555
H67 C51 1_555 1_555
C52 C48 1_555 1_555
H68 C52 1_555 1_555
C53 C52 1_555 1_555
H69 C53 1_555 1_555
C54 C53 1_555 1_555
H70 C54 1_555 1_555
C55 C54 1_555 1_555
H71 C55 1_555 1_555
H72 C55 1_555 1_555
C56 C55 1_555 1_555
H73 C56 1_555 1_555
H74 C56 1_555 1_555
H75 C56 1_555 1_555
C57 C54 1_555 1_555
H76 C57 1_555 1_555
H77 C57 1_555 1_555
H78 C57 1_555 1_555
C58 O15 1_555 1_555
C59 C58 1_555 1_555
H79 C59 1_555 1_555
H80 C59 1_555 1_555
H81 C59 1_555 1_555
C60 C52 1_555 1_555
H82 C60 1_555 1_555
H83 C60 1_555 1_555
H84 C60 1_555 1_555
C61 C42 1_555 1_555
H85 C61 1_555 1_555
H86 C61 1_555 1_555
H87 C61 1_555 1_555
C62 C38 1_555 1_555
H88 C62 1_555 1_555
H89 C62 1_555 1_555
H90 C62 1_555 1_555
N1 C20 1_555 1_555
C1 C3 1_555 1_555
C2 C3 1_555 1_555
C5 C6 1_555 1_555
C7 C8 1_555 1_555
C11 C12 1_555 1_555
C12 C13 1_555 1_555
C14 C15 1_555 1_555
C15 C16 1_555 1_555
C18 C19 1_555 1_555
N2 C51 1_555 1_555
C32 C34 1_555 1_555
C33 C34 1_555 1_555
C36 C37 1_555 1_555
C38 C39 1_555 1_555
C42 C43 1_555 1_555
C43 C44 1_555 1_555
C45 C46 1_555 1_555
C46 C47 1_555 1_555
C49 C50 1_555 1_555

#END
