
#######################################################################
#
#                 Cambridge Crystallographic Data Centre
#                                CCDC 
#
#######################################################################
#
# If this CIF has been generated from an entry in the Cambridge 
# Structural Database, then it will include bibliographic, chemical, 
# crystal, experimental, refinement or atomic coordinate data resulting 
# from the CCDC's data processing and validation procedures.
#
#######################################################################

data_SIDCUF
_chemical_formula_moiety         'C19 H17 Cl1 N2 O1'
_chemical_name_systematic        
2-(2-(4-Chlorophenyl)vinyl)-N,N-dimethyl-1H-indole-1-carboxamide
_symmetry_cell_setting           monoclinic
_symmetry_space_group_name_H-M   'P 21/n'
_symmetry_Int_Tables_number      14
_space_group_name_Hall           '-P 2yn'
loop_
_symmetry_equiv_pos_site_id
_symmetry_equiv_pos_as_xyz
1 x,y,z
2 1/2-x,1/2+y,1/2-z
3 -x,-y,-z
4 1/2+x,1/2-y,1/2+z
_cell_length_a                   9.477(4)
_cell_length_b                   8.930(4)
_cell_length_c                   19.082(8)
_cell_angle_alpha                90
_cell_angle_beta                 92.506(8)
_cell_angle_gamma                90
_cell_volume                     1613.36
_exptl_crystal_colour            colorless
_exptl_crystal_description       Prism
_cell_formula_units_Z            4
loop_
_atom_site_label
_atom_site_type_symbol
_atom_site_fract_x
_atom_site_fract_y
_atom_site_fract_z
Cl1 Cl 0.54776(4) -0.29744(4) 1.06380(2)
O1 O 0.86334(12) 0.42905(15) 0.71418(6)
N1 N 0.96785(12) 0.47627(14) 0.82273(6)
N2 N 0.72517(13) 0.51102(14) 0.80000(7)
C1 C 1.08077(15) 0.57280(16) 0.81331(8)
C2 C 1.10777(16) 0.66631(17) 0.75704(8)
H1 H 1.0458 0.6705 0.7166
C3 C 1.22898(17) 0.75289(17) 0.76265(8)
H2 H 1.2502 0.8186 0.7254
C4 C 1.32109(16) 0.74566(17) 0.82205(9)
H3 H 1.4038 0.8059 0.8242
C5 C 1.29367(16) 0.65244(17) 0.87756(8)
H4 H 1.3568 0.6480 0.9176
C6 C 1.17083(15) 0.56420(16) 0.87392(8)
C7 C 1.10968(15) 0.45806(17) 0.91976(8)
H5 H 1.1479 0.4289 0.9646
C8 C 0.98685(15) 0.40539(16) 0.88835(7)
C9 C 0.89102(15) 0.28876(16) 0.90903(8)
H6 H 0.8133 0.2652 0.8778
C10 C 0.90458(15) 0.21187(16) 0.96917(8)
H7 H 0.9788 0.2418 1.0012
C11 C 0.81689(15) 0.08661(16) 0.99066(7)
C12 C 0.83567(16) 0.02882(17) 1.05848(8)
H8 H 0.9059 0.0712 1.0895
C13 C 0.75435(16) -0.08878(17) 1.08157(8)
H9 H 0.7683 -0.1268 1.1279
C14 C 0.65251(16) -0.14974(17) 1.03595(8)
C15 C 0.63154(16) -0.09632(17) 0.96811(8)
H10 H 0.5613 -0.1395 0.9373
C16 C 0.71418(16) 0.02074(17) 0.94582(8)
H11 H 0.7008 0.0570 0.8992
C17 C 0.84825(15) 0.46880(17) 0.77447(8)
C18 C 0.71052(18) 0.5950(2) 0.86489(9)
H12 H 0.8043 0.6215 0.8847
H13 H 0.6612 0.5333 0.8986
H14 H 0.6562 0.6865 0.8550
C19 C 0.59777(17) 0.5004(2) 0.75413(10)
H15 H 0.5798 0.5972 0.7312
H16 H 0.5172 0.4736 0.7820
H17 H 0.6111 0.4234 0.7184
loop_
_geom_bond_atom_site_label_1
_geom_bond_atom_site_label_2
_geom_bond_site_symmetry_1
_geom_bond_site_symmetry_2
Cl1 C14 1_555 1_555
O1 C17 1_555 1_555
N1 C1 1_555 1_555
N2 C17 1_555 1_555
C1 C2 1_555 1_555
C2 H1 1_555 1_555
C3 C2 1_555 1_555
H2 C3 1_555 1_555
C4 C3 1_555 1_555
H3 C4 1_555 1_555
C5 C4 1_555 1_555
H4 C5 1_555 1_555
C6 C1 1_555 1_555
C7 C6 1_555 1_555
H5 C7 1_555 1_555
C8 N1 1_555 1_555
C9 C8 1_555 1_555
H6 C9 1_555 1_555
C10 C9 1_555 1_555
H7 C10 1_555 1_555
C11 C10 1_555 1_555
C12 C11 1_555 1_555
H8 C12 1_555 1_555
C13 C12 1_555 1_555
H9 C13 1_555 1_555
C14 C13 1_555 1_555
C15 C14 1_555 1_555
H10 C15 1_555 1_555
C16 C11 1_555 1_555
H11 C16 1_555 1_555
C17 N1 1_555 1_555
C18 N2 1_555 1_555
H12 C18 1_555 1_555
H13 C18 1_555 1_555
H14 C18 1_555 1_555
C19 N2 1_555 1_555
H15 C19 1_555 1_555
H16 C19 1_555 1_555
H17 C19 1_555 1_555
C5 C6 1_555 1_555
C7 C8 1_555 1_555
C15 C16 1_555 1_555

#END
