
#######################################################################
#
#                 Cambridge Crystallographic Data Centre
#                                CCDC 
#
#######################################################################
#
# If this CIF has been generated from an entry in the Cambridge 
# Structural Database, then it will include bibliographic, chemical, 
# crystal, experimental, refinement or atomic coordinate data resulting 
# from the CCDC's data processing and validation procedures.
#
#######################################################################

data_SIDDUH
_chemical_formula_moiety         'C17 H11 F3 O2'
_chemical_name_systematic        
6-methyl-4-phenyl-3-(trifluoromethyl)-2H-1-benzopyran-2-one
_symmetry_cell_setting           orthorhombic
_symmetry_space_group_name_H-M   'P b c a'
_symmetry_Int_Tables_number      61
_space_group_name_Hall           '-P 2ac 2ab'
loop_
_symmetry_equiv_pos_site_id
_symmetry_equiv_pos_as_xyz
1 x,y,z
2 1/2-x,-y,1/2+z
3 -x,1/2+y,1/2-z
4 1/2+x,1/2-y,-z
5 -x,-y,-z
6 1/2+x,y,1/2-z
7 x,1/2-y,1/2+z
8 1/2-x,1/2+y,z
_cell_length_a                   17.9614(10)
_cell_length_b                   8.0269(5)
_cell_length_c                   19.3808(10)
_cell_angle_alpha                90
_cell_angle_beta                 90
_cell_angle_gamma                90
_cell_volume                     2794.21
_exptl_crystal_colour            colorless
_exptl_crystal_description       block
_cell_formula_units_Z            8
loop_
_atom_site_label
_atom_site_type_symbol
_atom_site_fract_x
_atom_site_fract_y
_atom_site_fract_z
O1 O 0.51403(9) 0.8006(2) 0.50206(7)
O2 O 0.62205(11) 0.9274(2) 0.50700(9)
F1 F 0.67230(12) 0.8232(3) 0.30544(9)
F2 F 0.66620(12) 1.0172(2) 0.37733(12)
F3 F 0.72609(9) 0.7990(3) 0.40189(12)
C1 C 0.56846(10) 0.5877(3) 0.30436(9)
C2 C 0.48133(10) 0.6223(2) 0.40633(9)
C3 C 0.55046(11) 0.6682(2) 0.37225(9)
C4 C 0.42861(11) 0.5134(3) 0.37824(10)
H1 H 0.4391 0.4607 0.3366
C5 C 0.53094(13) 0.6331(3) 0.24473(10)
H2 H 0.4926 0.7110 0.2467
C6 C 0.59563(11) 0.7811(3) 0.40343(10)
C7 C 0.46493(12) 0.6957(3) 0.46970(10)
C8 C 0.58078(13) 0.8429(3) 0.47306(11)
C9 C 0.62338(12) 0.4683(3) 0.30118(11)
H3 H 0.6480 0.4358 0.3412
C10 C 0.55082(14) 0.5620(3) 0.18224(11)
H4 H 0.5261 0.5936 0.1421
C11 C 0.36168(11) 0.4819(3) 0.41042(12)
C12 C 0.39837(14) 0.6662(3) 0.50281(11)
H5 H 0.3880 0.7174 0.5448
C13 C 0.60665(13) 0.4452(3) 0.17893(11)
H6 H 0.6204 0.3996 0.1367
C14 C 0.64207(13) 0.3963(3) 0.23840(12)
H7 H 0.6787 0.3145 0.2366
C15 C 0.34770(13) 0.5606(3) 0.47320(13)
H8 H 0.3028 0.5408 0.4956
C16 C 0.66458(15) 0.8532(4) 0.37142(14)
C17 C 0.30496(14) 0.3672(4) 0.37909(15)
H9 H 0.3057 0.3787 0.3298
H10 H 0.2564 0.3953 0.3961
H11 H 0.3165 0.2542 0.3913
loop_
_geom_bond_atom_site_label_1
_geom_bond_atom_site_label_2
_geom_bond_site_symmetry_1
_geom_bond_site_symmetry_2
O1 C7 1_555 1_555
O2 C8 1_555 1_555
F1 C16 1_555 1_555
F2 C16 1_555 1_555
F3 C16 1_555 1_555
C1 C3 1_555 1_555
C2 C3 1_555 1_555
C3 C6 1_555 1_555
C4 C2 1_555 1_555
H1 C4 1_555 1_555
C5 C1 1_555 1_555
H2 C5 1_555 1_555
C6 C8 1_555 1_555
C7 C2 1_555 1_555
C8 O1 1_555 1_555
C9 C1 1_555 1_555
H3 C9 1_555 1_555
C10 C5 1_555 1_555
H4 C10 1_555 1_555
C11 C4 1_555 1_555
C12 C7 1_555 1_555
H5 C12 1_555 1_555
C13 C10 1_555 1_555
H6 C13 1_555 1_555
C14 C9 1_555 1_555
H7 C14 1_555 1_555
C15 C11 1_555 1_555
H8 C15 1_555 1_555
C16 C6 1_555 1_555
C17 C11 1_555 1_555
H9 C17 1_555 1_555
H10 C17 1_555 1_555
H11 C17 1_555 1_555
C12 C15 1_555 1_555
C13 C14 1_555 1_555

#END
