
#######################################################################
#
#                 Cambridge Crystallographic Data Centre
#                                CCDC 
#
#######################################################################
#
# If this CIF has been generated from an entry in the Cambridge 
# Structural Database, then it will include bibliographic, chemical, 
# crystal, experimental, refinement or atomic coordinate data resulting 
# from the CCDC's data processing and validation procedures.
#
#######################################################################

data_SIDFUJ
_chemical_formula_moiety         'C27 H31 N3 O4'
_chemical_name_systematic        
3-{[2,2-dimethyl-6-(3-methylpenta-1,4-dien-3-yl)-7-oxo-2,6,7,8-tetrahydropyrano[3,2-f]indol-6-yl]methyl}hexahydropyrrolo[1,2-a]pyrazine-1,4-dione
_symmetry_cell_setting           orthorhombic
_symmetry_space_group_name_H-M   'P 21 21 21'
_symmetry_Int_Tables_number      19
_space_group_name_Hall           'P 2ac 2ab'
loop_
_symmetry_equiv_pos_site_id
_symmetry_equiv_pos_as_xyz
1 x,y,z
2 1/2-x,-y,1/2+z
3 -x,1/2+y,1/2-z
4 1/2+x,1/2-y,-z
_cell_length_a                   8.14900(10)
_cell_length_b                   9.85930(10)
_cell_length_c                   28.6560(2)
_cell_angle_alpha                90
_cell_angle_beta                 90
_cell_angle_gamma                90
_cell_volume                     2302.32
_exptl_crystal_colour            colorless
_exptl_crystal_description       block
_cell_formula_units_Z            4
loop_
_atom_site_label
_atom_site_type_symbol
_atom_site_fract_x
_atom_site_fract_y
_atom_site_fract_z
O1 O 0.2566(4) 0.3764(3) 0.50381(10)
O2 O 0.6882(4) 0.4356(4) 0.35259(10)
O3 O 0.5225(4) 0.7519(5) 0.49706(12)
N1 N 0.1685(5) 0.5363(4) 0.45180(11)
H1 H 0.110164 0.584446 0.470555
N2 N 0.5562(5) 0.5424(5) 0.46692(12)
H2 H 0.496646 0.510883 0.489203
N3 N 0.6904(5) 0.6414(5) 0.38730(12)
O4 O 0.1327(5) 0.8080(6) 0.31227(13)
C1 C 0.1956(5) 0.5685(5) 0.40498(13)
C2 C 0.1448(5) 0.6843(5) 0.38183(15)
H3 H 0.085666 0.751831 0.396984
C3 C 0.2450(6) 0.4206(4) 0.46392(14)
C4 C 0.3273(6) 0.4814(5) 0.33718(14)
H4 H 0.389667 0.414993 0.322470
C5 C 0.6699(6) 0.5070(6) 0.38721(14)
C6 C 0.1862(5) 0.6951(6) 0.33488(15)
C7 C 0.5795(5) 0.6768(6) 0.46656(15)
C8 C 0.2858(6) 0.4665(4) 0.38391(13)
C9 C 0.5031(8) 0.3239(5) 0.42810(17)
H5 H 0.510092 0.268738 0.456060
H6 H 0.541914 0.268793 0.402319
C10 C 0.1727(6) 0.8335(6) 0.26407(15)
C11 C 0.2766(6) 0.5943(6) 0.31232(14)
C12 C 0.6205(6) 0.4431(6) 0.43374(16)
H7 H 0.721215 0.406418 0.447561
C13 C 0.6857(6) 0.7308(6) 0.42806(15)
H8 H 0.797766 0.739890 0.440091
C14 C 0.7213(6) 0.7182(6) 0.34426(15)
H9 H 0.633507 0.704692 0.321867
H10 H 0.824459 0.691374 0.330119
C15 C 0.3216(7) 0.3566(5) 0.41941(14)
C16 C 0.7276(7) 0.8657(6) 0.36068(18)
H11 H 0.674293 0.925069 0.338342
H12 H 0.840118 0.895272 0.364893
C17 C 0.6351(7) 0.8655(7) 0.40735(18)
H13 H 0.669212 0.940574 0.426982
H14 H 0.517377 0.870015 0.402635
C18 C 0.2607(8) 0.7200(9) 0.23995(18)
H15 H 0.280894 0.726569 0.208092
C19 C 0.3101(8) 0.6115(9) 0.26249(18)
H16 H 0.367376 0.544383 0.246517
C20 C 0.2210(14) 0.2202(7) 0.4089(2)
C21 C 0.0332(12) 0.8806(12) 0.2380(3)
H17 H -0.047887 0.810111 0.236491
H18 H 0.067042 0.904371 0.206946
H19 H -0.012735 0.958830 0.253066
C22 C 0.0345(15) 0.2477(9) 0.4118(3)
H20 H -0.013548 0.312863 0.430846
C23 C 0.2587(15) 0.1136(6) 0.4447(3)
H21 H 0.287941 0.137171 0.475010
C24 C 0.2668(16) 0.1674(8) 0.3600(2)
H22 H 0.232790 0.232004 0.336907
H23 H 0.212833 0.082382 0.354530
H24 H 0.383498 0.154979 0.358209
C25 C 0.3130(11) 0.9315(10) 0.2680(3)
H25 H 0.274449 1.015126 0.281274
H26 H 0.357793 0.948549 0.237612
H27 H 0.396432 0.893628 0.287762
C26 C 0.2496(17) -0.0060(9) 0.4327(4)
H28 H 0.220129 -0.027850 0.402244
H29 H 0.272175 -0.074537 0.454038
C27 C -0.032(2) 0.1815(14) 0.3887(5)
C28? C 0.179(2) 0.9993(13) 0.2561(4)
H30? H 0.090362 1.041240 0.272615
H31? H 0.169728 1.018978 0.223373
H32? H 0.281711 1.033949 0.267557
C29? C -0.0142(19) 0.8009(17) 0.2499(5)
H33? H -0.040104 0.709136 0.258264
H34? H -0.027447 0.812327 0.216799
H35? H -0.086406 0.861815 0.266011
loop_
_geom_bond_atom_site_label_1
_geom_bond_atom_site_label_2
_geom_bond_site_symmetry_1
_geom_bond_site_symmetry_2
O1 C3 1_555 1_555
O2 C5 1_555 1_555
O3 C7 1_555 1_555
N1 H1 1_555 1_555
N2 H2 1_555 1_555
N3 C5 1_555 1_555
O4 C6 1_555 1_555
C1 N1 1_555 1_555
C2 C1 1_555 1_555
H3 C2 1_555 1_555
C3 N1 1_555 1_555
C4 H4 1_555 1_555
C5 C12 1_555 1_555
C6 C2 1_555 1_555
C7 N2 1_555 1_555
C8 C1 1_555 1_555
C9 H5 1_555 1_555
H6 C9 1_555 1_555
C10 O4 1_555 1_555
C11 C4 1_555 1_555
C12 N2 1_555 1_555
H7 C12 1_555 1_555
C13 N3 1_555 1_555
H8 C13 1_555 1_555
C14 N3 1_555 1_555
H9 C14 1_555 1_555
H10 C14 1_555 1_555
C15 C3 1_555 1_555
C16 C14 1_555 1_555
H11 C16 1_555 1_555
H12 C16 1_555 1_555
C17 C13 1_555 1_555
H13 C17 1_555 1_555
H14 C17 1_555 1_555
C18 C10 1_555 1_555
H15 C18 1_555 1_555
C19 C11 1_555 1_555
H16 C19 1_555 1_555
C20 C15 1_555 1_555
C21 C10 1_555 1_555
H17 C21 1_555 1_555
H18 C21 1_555 1_555
H19 C21 1_555 1_555
C22 C20 1_555 1_555
H20 C22 1_555 1_555
C23 C20 1_555 1_555
H21 C23 1_555 1_555
C24 C20 1_555 1_555
H22 C24 1_555 1_555
H23 C24 1_555 1_555
H24 C24 1_555 1_555
C25 C10 1_555 1_555
H25 C25 1_555 1_555
H26 C25 1_555 1_555
H27 C25 1_555 1_555
C26 C23 1_555 1_555
H28 C26 1_555 1_555
H29 C26 1_555 1_555
C27 C22 1_555 1_555
C4 C8 1_555 1_555
C6 C11 1_555 1_555
C7 C13 1_555 1_555
C8 C15 1_555 1_555
C9 C12 1_555 1_555
C9 C15 1_555 1_555
C16 C17 1_555 1_555
C18 C19 1_555 1_555

#END
