
#######################################################################
#
#                 Cambridge Crystallographic Data Centre
#                                CCDC 
#
#######################################################################
#
# If this CIF has been generated from an entry in the Cambridge 
# Structural Database, then it will include bibliographic, chemical, 
# crystal, experimental, refinement or atomic coordinate data resulting 
# from the CCDC's data processing and validation procedures.
#
#######################################################################

data_SIDFES
_chemical_formula_moiety         'C16 H13 Br1 O2'
_chemical_name_systematic        
1-(4-Bromophenyl)-2-(2,3-dihydro-1-benzofuran-2-yl)ethanone
_symmetry_cell_setting           orthorhombic
_symmetry_space_group_name_H-M   'P 21 21 21'
_symmetry_Int_Tables_number      19
_space_group_name_Hall           'P 2ac 2ab'
loop_
_symmetry_equiv_pos_site_id
_symmetry_equiv_pos_as_xyz
1 x,y,z
2 1/2-x,-y,1/2+z
3 -x,1/2+y,1/2-z
4 1/2+x,1/2-y,-z
_cell_length_a                   7.2969(11)
_cell_length_b                   11.1694(16)
_cell_length_c                   16.483(2)
_cell_angle_alpha                90
_cell_angle_beta                 90
_cell_angle_gamma                90
_cell_volume                     1343.4
_exptl_crystal_colour            colorless
_exptl_crystal_description       prismatic
_cell_formula_units_Z            4
loop_
_atom_site_label
_atom_site_type_symbol
_atom_site_fract_x
_atom_site_fract_y
_atom_site_fract_z
Br1 Br 1.08825(8) 0.32898(5) -0.04654(3)
O1 O 0.8383(5) 0.4954(3) 0.3361(2)
O2 O 0.9238(5) 0.2392(2) 0.51412(16)
C1 C 0.9137(6) 0.4037(3) 0.3141(2)
C2 C 0.9594(5) 0.3087(3) 0.3774(2)
H1 H 0.8965 0.2349 0.3635
H2 H 1.0901 0.2929 0.3762
C3 C 0.9063(5) 0.3450(3) 0.4603(2)
H3 H 0.7777 0.3702 0.4596
C4 C 1.0193(6) 0.4422(4) 0.5014(3)
H4 H 1.1397 0.4491 0.4769
H5 H 0.9580 0.5192 0.4987
C5 C 1.0321(5) 0.3987(3) 0.5869(2)
C6 C 0.9769(5) 0.2808(3) 0.5876(2)
C7 C 0.9768(6) 0.2122(4) 0.6573(3)
H6 H 0.9388 0.1327 0.6565
C8 C 1.0358(7) 0.2666(4) 0.7289(2)
H7 H 1.0368 0.2230 0.7770
C9 C 1.0931(7) 0.3853(4) 0.7290(2)
H8 H 1.1314 0.4209 0.7771
C10 C 1.0931(6) 0.4506(4) 0.6577(3)
H9 H 1.1342 0.5294 0.6575
C11 C 0.9585(5) 0.3833(3) 0.2285(2)
C12 C 1.0519(6) 0.2820(3) 0.2010(2)
H10 H 1.0894 0.2240 0.2380
C13 C 1.0894(7) 0.2668(4) 0.1191(2)
H11 H 1.1500 0.1985 0.1011
C14 C 1.0369(6) 0.3524(4) 0.0654(2)
C15 C 0.9457(7) 0.4541(4) 0.0901(3)
H12 H 0.9124 0.5125 0.0526
C16 C 0.9049(7) 0.4680(3) 0.1707(3)
H13 H 0.8400 0.5353 0.1874
loop_
_geom_bond_atom_site_label_1
_geom_bond_atom_site_label_2
_geom_bond_site_symmetry_1
_geom_bond_site_symmetry_2
Br1 C14 1_555 1_555
O1 C1 1_555 1_555
O2 C3 1_555 1_555
C1 C2 1_555 1_555
C2 H1 1_555 1_555
H2 C2 1_555 1_555
C3 C2 1_555 1_555
H3 C3 1_555 1_555
C4 C3 1_555 1_555
H4 C4 1_555 1_555
H5 C4 1_555 1_555
C5 C4 1_555 1_555
C6 O2 1_555 1_555
C7 C6 1_555 1_555
H6 C7 1_555 1_555
C8 C7 1_555 1_555
H7 C8 1_555 1_555
C9 C8 1_555 1_555
H8 C9 1_555 1_555
C10 C5 1_555 1_555
H9 C10 1_555 1_555
C11 C1 1_555 1_555
C12 C11 1_555 1_555
H10 C12 1_555 1_555
C13 C12 1_555 1_555
H11 C13 1_555 1_555
C14 C13 1_555 1_555
C15 C14 1_555 1_555
H12 C15 1_555 1_555
C16 C11 1_555 1_555
H13 C16 1_555 1_555
C5 C6 1_555 1_555
C9 C10 1_555 1_555
C15 C16 1_555 1_555

#END
