
#######################################################################
#
#                 Cambridge Crystallographic Data Centre
#                                CCDC 
#
#######################################################################
#
# If this CIF has been generated from an entry in the Cambridge 
# Structural Database, then it will include bibliographic, chemical, 
# crystal, experimental, refinement or atomic coordinate data resulting 
# from the CCDC's data processing and validation procedures.
#
#######################################################################

data_SIDFIU
_chemical_formula_moiety         'C12 H2 I2 N4'
_chemical_name_systematic        
2,5-Di-iodo-7,7,8,8-tetracyano-p-quinodimethane
_symmetry_cell_setting           monoclinic
_symmetry_space_group_name_H-M   'P 21/c'
_symmetry_Int_Tables_number      14
_space_group_name_Hall           '-P 2ybc'
loop_
_symmetry_equiv_pos_site_id
_symmetry_equiv_pos_as_xyz
1 x,y,z
2 -x,1/2+y,1/2-z
3 -x,-y,-z
4 x,1/2-y,1/2+z
_cell_length_a                   6.290(1)
_cell_length_b                   6.477(2)
_cell_length_c                   14.862(3)
_cell_angle_alpha                90
_cell_angle_beta                 90.72(1)
_cell_angle_gamma                90
_cell_volume                     605.435
_cell_formula_units_Z            2
loop_
_atom_site_label
_atom_site_type_symbol
_atom_site_fract_x
_atom_site_fract_y
_atom_site_fract_z
I1 I 0.09986(2) 0.06523(2) 0.33658(1)
N1 N 0.8620(4) 0.6033(3) 0.4296(2)
N2 N 0.3323(4) 0.5361(4) 0.2690(2)
C1 C 0.5163(3) 0.1792(3) 0.4435(1)
C2 C 0.3430(3) 0.0340(3) 0.4317(1)
C3 C 0.3304(3) -0.1337(3) 0.4859(1)
C4 C 0.5465(3) 0.3589(3) 0.3945(1)
C5 C 0.7249(3) 0.4913(3) 0.4141(1)
C6 C 0.4165(4) 0.4436(3) 0.3239(1)
H1 H 0.2190(42) -0.2450(43) 0.4784(17)
C3B C 0.6696(3) 0.1337(3) 0.5141(1)
C1B C 0.4837(3) -0.1792(3) 0.5565(1)
C2B C 0.6570(3) -0.0340(3) 0.5683(1)
H1B H 0.7810(42) 0.2450(43) 0.5216(17)
C4B C 0.4535(3) -0.3589(3) 0.6055(1)
I1B I 0.90014(2) -0.06523(2) 0.66342(1)
C5B C 0.2751(3) -0.4913(3) 0.5859(1)
C6B C 0.5835(4) -0.4436(3) 0.6761(1)
N1B N 0.1380(4) -0.6033(3) 0.5704(2)
N2B N 0.6677(4) -0.5361(4) 0.7310(2)
loop_
_geom_bond_atom_site_label_1
_geom_bond_atom_site_label_2
_geom_bond_site_symmetry_1
_geom_bond_site_symmetry_2
I1 C2 1_555 1_555
N1 C5 1_555 1_555
N2 C6 1_555 1_555
C1 C2 1_555 1_555
C2 C3 1_555 1_555
C3 H1 1_555 1_555
C4 C1 1_555 1_555
C5 C4 1_555 1_555
C6 C4 1_555 1_555
C3B C1 1_555 1_555
C1B C3 1_555 1_555
C2B C3B 1_555 1_555
H1B C3B 1_555 1_555
C4B C1B 1_555 1_555
I1B C2B 1_555 1_555
C5B C4B 1_555 1_555
C6B C4B 1_555 1_555
N1B C5B 1_555 1_555
N2B C6B 1_555 1_555
C1B C2B 1_555 1_555

#END
