
#######################################################################
#
#                 Cambridge Crystallographic Data Centre
#                                CCDC 
#
#######################################################################
#
# If this CIF has been generated from an entry in the Cambridge 
# Structural Database, then it will include bibliographic, chemical, 
# crystal, experimental, refinement or atomic coordinate data resulting 
# from the CCDC's data processing and validation procedures.
#
#######################################################################

data_SIDGAQ
_chemical_formula_moiety         'C26 H31 N3 O3'
_chemical_name_systematic        
3-{[2,2-dimethyl-7-(2-methylbut-3-en-2-yl)-2,8-dihydropyrano[3,2-f]indol-6-yl]methyl}hexahydropyrrolo[1,2-a]pyrazine-1,4-dione
_symmetry_cell_setting           orthorhombic
_symmetry_space_group_name_H-M   'P 21 21 21'
_symmetry_Int_Tables_number      19
_space_group_name_Hall           'P 2ac 2ab'
loop_
_symmetry_equiv_pos_site_id
_symmetry_equiv_pos_as_xyz
1 x,y,z
2 1/2-x,-y,1/2+z
3 -x,1/2+y,1/2-z
4 1/2+x,1/2-y,-z
_cell_length_a                   21.9246(7)
_cell_length_b                   15.7608(5)
_cell_length_c                   6.6049(2)
_cell_angle_alpha                90
_cell_angle_beta                 90
_cell_angle_gamma                90
_cell_volume                     2282.32
_exptl_crystal_colour            colorless
_exptl_crystal_description       block
_cell_formula_units_Z            4
loop_
_atom_site_label
_atom_site_type_symbol
_atom_site_fract_x
_atom_site_fract_y
_atom_site_fract_z
O1 O 0.82950(12) 0.06740(16) 0.3424(4)
O2 O 0.56916(13) 0.49556(18) 0.6578(5)
O3 O 0.72286(17) 0.44477(19) 1.2692(6)
N1 N 0.62229(15) 0.5491(2) 0.9210(5)
N2 N 0.67773(15) 0.12196(19) 0.8612(5)
H1 H 0.678423 0.076314 0.932495
N3 N 0.68456(15) 0.4020(2) 0.9700(5)
H2 H 0.696866 0.351388 0.996073
C1 C 0.71518(17) 0.1387(2) 0.7005(6)
C2 C 0.78951(16) 0.1206(2) 0.4436(6)
C3 C 0.70107(16) 0.2205(2) 0.6286(6)
C4 C 0.61143(17) 0.4904(2) 0.7789(6)
C5 C 0.73279(17) 0.2522(2) 0.4623(6)
H3 H 0.724528 0.306506 0.414488
C6 C 0.65154(17) 0.2518(2) 0.7527(6)
C7 C 0.75957(16) 0.0873(2) 0.6093(6)
H4 H 0.768410 0.033366 0.658219
C8 C 0.77685(17) 0.2025(2) 0.3679(6)
C9 C 0.61834(17) 0.3342(2) 0.7195(6)
H5 H 0.581103 0.333351 0.798732
H6 H 0.606775 0.337717 0.577959
C10 C 0.63838(17) 0.1899(2) 0.8918(6)
C11 C 0.65458(17) 0.4144(2) 0.7749(6)
H7 H 0.685805 0.424049 0.671299
C12 C 0.58358(18) 0.2640(3) 1.1702(6)
H8 H 0.619162 0.280337 1.236259
C13 C 0.67153(18) 0.5479(2) 1.0706(6)
H9 H 0.705299 0.582439 1.018922
C14 C 0.81070(18) 0.2303(3) 0.1906(7)
H10 H 0.799450 0.280088 0.124892
C15 C 0.58729(17) 0.1834(2) 1.0477(7)
C16 C 0.69507(18) 0.4601(2) 1.1123(7)
C17 C 0.85757(19) 0.1853(3) 0.1215(7)
H11 H 0.877635 0.203400 0.005156
C18 C 0.87910(18) 0.1058(2) 0.2264(7)
C19 C 0.6006(2) 0.1120(3) 1.2000(7)
H12 H 0.601352 0.058502 1.130628
H13 H 0.569266 0.111090 1.301636
H14 H 0.639391 0.121865 1.263031
C20 C 0.58048(18) 0.6201(2) 0.9567(7)
H15 H 0.539433 0.599972 0.982952
H16 H 0.579656 0.658243 0.841419
C21 C 0.6433(2) 0.5936(3) 1.2492(7)
H17 H 0.674309 0.616837 1.338274
H18 H 0.616766 0.556444 1.326170
C22 C 0.5357(2) 0.3144(3) 1.1952(7)
C23 C 0.52782(18) 0.1634(3) 0.9343(7)
H19 H 0.519209 0.208045 0.839805
H20 H 0.494929 0.158835 1.029674
H21 H 0.532158 0.110697 0.862737
C24 C 0.60719(19) 0.6640(3) 1.1432(7)
H22 H 0.575108 0.685603 1.230172
H23 H 0.633686 0.710524 1.104363
C25 C 0.93126(19) 0.1248(3) 0.3708(8)
H24 H 0.917484 0.163086 0.474129
H25 H 0.964322 0.150224 0.297437
H26 H 0.944940 0.072935 0.432278
C26 C 0.8969(2) 0.0392(3) 0.0723(8)
H27 H 0.906502 -0.012887 0.140632
H28 H 0.931913 0.058262 -0.002180
H29 H 0.863573 0.029910 -0.019364
H30 H 0.496(2) 0.304(3) 1.135(8)
H31 H 0.538(2) 0.370(4) 1.294(9)
loop_
_geom_bond_atom_site_label_1
_geom_bond_atom_site_label_2
_geom_bond_site_symmetry_1
_geom_bond_site_symmetry_2
O1 C2 1_555 1_555
O2 C4 1_555 1_555
O3 C16 1_555 1_555
N1 C4 1_555 1_555
N2 H1 1_555 1_555
N3 H2 1_555 1_555
C1 N2 1_555 1_555
C2 C7 1_555 1_555
C3 C1 1_555 1_555
C4 C11 1_555 1_555
C5 C3 1_555 1_555
H3 C5 1_555 1_555
C6 C3 1_555 1_555
C7 C1 1_555 1_555
H4 C7 1_555 1_555
C8 C2 1_555 1_555
C9 C6 1_555 1_555
H5 C9 1_555 1_555
H6 C9 1_555 1_555
C10 N2 1_555 1_555
C11 N3 1_555 1_555
H7 C11 1_555 1_555
C12 H8 1_555 1_555
C13 N1 1_555 1_555
H9 C13 1_555 1_555
C14 C8 1_555 1_555
H10 C14 1_555 1_555
C15 C10 1_555 1_555
C16 N3 1_555 1_555
C17 C14 1_555 1_555
H11 C17 1_555 1_555
C18 O1 1_555 1_555
C19 C15 1_555 1_555
H12 C19 1_555 1_555
H13 C19 1_555 1_555
H14 C19 1_555 1_555
C20 N1 1_555 1_555
H15 C20 1_555 1_555
H16 C20 1_555 1_555
C21 C13 1_555 1_555
H17 C21 1_555 1_555
H18 C21 1_555 1_555
C22 C12 1_555 1_555
C23 C15 1_555 1_555
H19 C23 1_555 1_555
H20 C23 1_555 1_555
H21 C23 1_555 1_555
C24 C20 1_555 1_555
H22 C24 1_555 1_555
H23 C24 1_555 1_555
C25 C18 1_555 1_555
H24 C25 1_555 1_555
H25 C25 1_555 1_555
H26 C25 1_555 1_555
C26 C18 1_555 1_555
H27 C26 1_555 1_555
H28 C26 1_555 1_555
H29 C26 1_555 1_555
H30 C22 1_555 1_555
H31 C22 1_555 1_555
C5 C8 1_555 1_555
C6 C10 1_555 1_555
C9 C11 1_555 1_555
C12 C15 1_555 1_555
C13 C16 1_555 1_555
C17 C18 1_555 1_555
C21 C24 1_555 1_555

#END
