
#######################################################################
#
#                 Cambridge Crystallographic Data Centre
#                                CCDC 
#
#######################################################################
#
# If this CIF has been generated from an entry in the Cambridge 
# Structural Database, then it will include bibliographic, chemical, 
# crystal, experimental, refinement or atomic coordinate data resulting 
# from the CCDC's data processing and validation procedures.
#
#######################################################################

data_SIDHUJ
_chemical_formula_moiety         'C22 H18 Se2'
_chemical_name_systematic        bis(2-methylnaphthalen-1-yl)diselane
_symmetry_cell_setting           orthorhombic
_symmetry_space_group_name_H-M   'P n a 21'
_symmetry_Int_Tables_number      33
_space_group_name_Hall           'P 2c -2n'
loop_
_symmetry_equiv_pos_site_id
_symmetry_equiv_pos_as_xyz
1 x,y,z
2 -x,-y,1/2+z
3 1/2+x,1/2-y,z
4 1/2-x,1/2+y,1/2+z
_cell_length_a                   18.2253(12)
_cell_length_b                   13.0714(8)
_cell_length_c                   7.7355(5)
_cell_angle_alpha                90
_cell_angle_beta                 90
_cell_angle_gamma                90
_cell_volume                     1842.83
_exptl_crystal_colour            yellow
_exptl_crystal_description       plate
_cell_formula_units_Z            4
_exptl_crystal_recrystallization_method ethanol/water
loop_
_atom_site_label
_atom_site_type_symbol
_atom_site_fract_x
_atom_site_fract_y
_atom_site_fract_z
Se1 Se 1.78083(4) 0.53502(4) 0.80457(8)
Se2 Se 1.79390(3) 0.44418(5) 1.06457(7)
C1 C 1.8111(3) 0.4295(4) 0.6452(7)
C2 C 1.7602(3) 0.3738(5) 0.5583(10)
C3 C 1.6785(3) 0.3889(5) 0.5743(11)
H1 H 1.6686 0.4577 0.6108
H2 H 1.6592 0.3418 0.6581
H3 H 1.6557 0.3767 0.4644
C4 C 1.7854(4) 0.2917(5) 0.4504(8)
H4 H 1.7514 0.2535 0.3882
C5 C 1.8575(5) 0.2687(5) 0.4372(8)
H5 H 1.8714 0.2132 0.3696
C6 C 1.9122(4) 0.3257(5) 0.5220(8)
C7 C 1.9884(4) 0.3039(5) 0.5047(9)
H6 H 2.0031 0.2489 0.4368
C8 C 2.0408(4) 0.3628(6) 0.5867(10)
H7 H 2.0905 0.3481 0.5764
C9 C 2.0162(4) 0.4450(6) 0.6853(11)
H8 H 2.0510 0.4863 0.7389
C10 C 1.9446(4) 0.4680(5) 0.7075(8)
H9 H 1.9318 0.5237 0.7759
C11 C 1.8883(4) 0.4089(5) 0.6290(7)
C12 C 1.7107(4) 0.3542(4) 1.0389(7)
C13 C 1.7210(4) 0.2558(6) 0.9813(9)
C23 C 1.7823(9) 0.2108(15) 0.949(2)
H19 H 1.7748 0.1381 0.9473
H20 H 1.8172 0.2277 1.0377
H21 H 1.8005 0.2330 0.8391
C24 C 1.6475(8) 0.1955(13) 0.969(2)
H22 H 1.6478 0.1289 0.9272
C25 C 1.5822(8) 0.2388(11) 1.020(2)
H23 H 1.5400 0.1988 1.0196
C26 C 1.5775(5) 0.3352(5) 1.0685(12)
C27 C 1.5089(4) 0.3750(6) 1.1093(13)
H24 H 1.4673 0.3342 1.0992
C28 C 1.5025(5) 0.4756(7) 1.1653(13)
H25 H 1.4566 0.5022 1.1926
C29 C 1.5647(6) 0.5365(5) 1.1804(12)
H26 H 1.5604 0.6039 1.2179
C30 C 1.6333(5) 0.4968(7) 1.1396(16)
H27 H 1.6749 0.5375 1.1497
C31 C 1.6397(4) 0.3961(7) 1.0837(16)
C14? C 1.8068(10) 0.2226(18) 0.929(3)
H10? H 1.8343 0.2828 0.8994
H11? H 1.8057 0.1771 0.8311
H12? H 1.8295 0.1889 1.0249
C15? C 1.6753(8) 0.1857(16) 0.965(3)
H13? H 1.6884 0.1187 0.9387
C16? C 1.6040(9) 0.2160(12) 0.989(3)
H14? H 1.5663 0.1714 0.9600
C17? C 1.5874(6) 0.3067(6) 1.0529(16)
C18? C 1.5133(5) 0.3236(7) 1.0844(17)
H15? H 1.4799 0.2704 1.0720
C19? C 1.4892(5) 0.4200(9) 1.1345(19)
H16? H 1.4397 0.4313 1.1556
C20? C 1.5392(6) 0.4996(7) 1.1531(18)
H17? H 1.5231 0.5641 1.1866
C21? C 1.6133(6) 0.4827(7) 1.1215(18)
H18? H 1.6468 0.5359 1.1339
C22? C 1.6374(5) 0.3863(8) 1.0714(18)
loop_
_geom_bond_atom_site_label_1
_geom_bond_atom_site_label_2
_geom_bond_site_symmetry_1
_geom_bond_site_symmetry_2
Se1 Se2 1_555 1_555
Se2 C12 1_555 1_555
C1 Se1 1_555 1_555
C2 C1 1_555 1_555
C3 C2 1_555 1_555
H1 C3 1_555 1_555
H2 C3 1_555 1_555
H3 C3 1_555 1_555
C4 C2 1_555 1_555
H4 C4 1_555 1_555
C5 C4 1_555 1_555
H5 C5 1_555 1_555
C6 C5 1_555 1_555
C7 C6 1_555 1_555
H6 C7 1_555 1_555
C8 C7 1_555 1_555
H7 C8 1_555 1_555
C9 C8 1_555 1_555
H8 C9 1_555 1_555
C10 C9 1_555 1_555
H9 C10 1_555 1_555
C11 C1 1_555 1_555
C12 C13 1_555 1_555
C13 C23 1_555 1_555
C23 H19 1_555 1_555
H20 C23 1_555 1_555
H21 C23 1_555 1_555
C24 C13 1_555 1_555
H22 C24 1_555 1_555
C25 C24 1_555 1_555
H23 C25 1_555 1_555
C26 C25 1_555 1_555
C27 C26 1_555 1_555
H24 C27 1_555 1_555
C28 C27 1_555 1_555
H25 C28 1_555 1_555
C29 C28 1_555 1_555
H26 C29 1_555 1_555
C30 C29 1_555 1_555
H27 C30 1_555 1_555
C31 C12 1_555 1_555
C6 C11 1_555 1_555
C10 C11 1_555 1_555
C26 C31 1_555 1_555
C30 C31 1_555 1_555

#END
