
#######################################################################
#
#                 Cambridge Crystallographic Data Centre
#                                CCDC 
#
#######################################################################
#
# If this CIF has been generated from an entry in the Cambridge 
# Structural Database, then it will include bibliographic, chemical, 
# crystal, experimental, refinement or atomic coordinate data resulting 
# from the CCDC's data processing and validation procedures.
#
#######################################################################

data_SIDQON
_chemical_formula_moiety         'C34 H24'
_chemical_name_systematic        
cis,trans-9-(2-(4-(2-(1-Naphthyl)vinyl)phenyl)vinyl)anthracene
_symmetry_cell_setting           monoclinic
_symmetry_space_group_name_H-M   'P 21/c'
_symmetry_Int_Tables_number      14
_space_group_name_Hall           '-P 2ybc'
loop_
_symmetry_equiv_pos_site_id
_symmetry_equiv_pos_as_xyz
1 x,y,z
2 -x,1/2+y,1/2-z
3 -x,-y,-z
4 x,1/2-y,1/2+z
_cell_length_a                   16.850(4)
_cell_length_b                   6.4351(18)
_cell_length_c                   22.782(6)
_cell_angle_alpha                90
_cell_angle_beta                 107.41(3)
_cell_angle_gamma                90
_cell_volume                     2357.12
_exptl_crystal_colour            yellow
_exptl_crystal_description       needle
_cell_formula_units_Z            4
loop_
_atom_site_label
_atom_site_type_symbol
_atom_site_fract_x
_atom_site_fract_y
_atom_site_fract_z
C1 C 0.11333(18) 0.4331(5) 0.33156(13)
C2 C 0.09152(19) 0.3085(5) 0.37522(14)
C3 C 0.0223(2) 0.3623(6) 0.39448(14)
C4 C 0.0029(2) 0.6743(6) 0.33263(15)
H1 H -0.0252 0.7982 0.3196
C5 C 0.0681(2) 0.6203(6) 0.31035(15)
C6 C 0.18090(18) 0.0853(5) 0.45835(14)
H2 H 0.1709 0.1785 0.4865
C7 C 0.35122(19) -0.4035(5) 0.53612(15)
C8 C 0.23682(18) -0.0866(5) 0.48416(14)
C9 C 0.14298(19) 0.1245(5) 0.40008(15)
H3 H 0.1491 0.0267 0.3717
C10 C 0.5737(2) -0.2954(6) 0.67978(16)
C11 C 0.3415(2) -0.2369(6) 0.57126(15)
H4 H 0.3730 -0.2285 0.6124
C12 C 0.3009(2) -0.4166(5) 0.47584(14)
H5 H 0.3046 -0.5320 0.4522
C13 C 0.28490(19) -0.0818(5) 0.54547(14)
H6 H 0.2789 0.0291 0.5699
C14 C 0.2447(2) -0.2586(6) 0.45022(15)
H7 H 0.2119 -0.2693 0.4095
C15 C -0.0219(2) 0.5508(6) 0.37349(15)
C16 C 0.1805(2) 0.3826(6) 0.30842(15)
H8 H 0.2119 0.2640 0.3227
C17 C 0.1997(2) 0.5035(7) 0.26602(18)
H9 H 0.2437 0.4669 0.2513
C18 C 0.0911(2) 0.7416(6) 0.26618(16)
H10 H 0.0623 0.8640 0.2521
C19 C 0.5353(2) -0.3510(7) 0.61860(17)
C20 C 0.6337(2) 0.0098(7) 0.6450(2)
H11 H 0.6670 0.1280 0.6533
C21 C 0.5463(2) -0.2260(7) 0.57338(18)
H12 H 0.5202 -0.2612 0.5326
C22 C -0.0086(2) 0.2314(7) 0.43283(16)
H13 H 0.0185 0.1071 0.4470
C23 C 0.6227(2) -0.1139(6) 0.69473(17)
C24 C 0.4879(2) -0.5477(6) 0.60230(16)
H14 H 0.5145 -0.6678 0.6210
C25 C 0.4111(2) -0.5712(6) 0.56363(14)
H15 H 0.3934 -0.7068 0.5529
C26 C -0.0928(2) 0.6003(7) 0.39239(17)
H16 H -0.1215 0.7233 0.3790
C27 C 0.1532(2) 0.6850(7) 0.24400(16)
H17 H 0.1656 0.7655 0.2140
C28 C 0.6018(3) -0.3537(8) 0.78860(18)
H18 H 0.5944 -0.4333 0.8207
C29 C 0.5642(2) -0.4150(7) 0.72989(17)
H19 H 0.5321 -0.5353 0.7223
C30 C 0.5952(2) -0.0473(7) 0.58600(19)
H20 H 0.6014 0.0333 0.5538
C31 C 0.6612(2) -0.0583(8) 0.7560(2)
H21 H 0.6941 0.0604 0.7649
C32 C -0.1192(3) 0.4717(9) 0.42950(19)
H22 H -0.1652 0.5069 0.4420
C33 C -0.0769(3) 0.2847(8) 0.44911(18)
H23 H -0.0961 0.1952 0.4739
C34 C 0.6510(3) -0.1754(9) 0.8027(2)
H24 H 0.6764 -0.1377 0.8434
loop_
_geom_bond_atom_site_label_1
_geom_bond_atom_site_label_2
_geom_bond_site_symmetry_1
_geom_bond_site_symmetry_2
C1 C2 1_555 1_555
C2 C3 1_555 1_555
C3 C15 1_555 1_555
C4 H1 1_555 1_555
C5 C1 1_555 1_555
C6 H2 1_555 1_555
C7 C11 1_555 1_555
C8 C6 1_555 1_555
C9 C2 1_555 1_555
H3 C9 1_555 1_555
C10 C19 1_555 1_555
C11 H4 1_555 1_555
C12 C7 1_555 1_555
H5 C12 1_555 1_555
C13 C8 1_555 1_555
H6 C13 1_555 1_555
C14 C8 1_555 1_555
H7 C14 1_555 1_555
C15 C4 1_555 1_555
C16 C1 1_555 1_555
H8 C16 1_555 1_555
C17 C16 1_555 1_555
H9 C17 1_555 1_555
C18 C5 1_555 1_555
H10 C18 1_555 1_555
C19 C21 1_555 1_555
C20 H11 1_555 1_555
C21 H12 1_555 1_555
C22 C3 1_555 1_555
H13 C22 1_555 1_555
C23 C10 1_555 1_555
C24 C19 1_555 1_555
H14 C24 1_555 1_555
C25 C7 1_555 1_555
H15 C25 1_555 1_555
C26 C15 1_555 1_555
H16 C26 1_555 1_555
C27 C17 1_555 1_555
H17 C27 1_555 1_555
C28 H18 1_555 1_555
C29 C10 1_555 1_555
H19 C29 1_555 1_555
C30 C20 1_555 1_555
H20 C30 1_555 1_555
C31 C23 1_555 1_555
H21 C31 1_555 1_555
C32 C26 1_555 1_555
H22 C32 1_555 1_555
C33 C22 1_555 1_555
H23 C33 1_555 1_555
C34 C28 1_555 1_555
H24 C34 1_555 1_555
C4 C5 1_555 1_555
C6 C9 1_555 1_555
C11 C13 1_555 1_555
C12 C14 1_555 1_555
C18 C27 1_555 1_555
C20 C23 1_555 1_555
C21 C30 1_555 1_555
C24 C25 1_555 1_555
C28 C29 1_555 1_555
C31 C34 1_555 1_555
C32 C33 1_555 1_555

#END
