
#######################################################################
#
#                 Cambridge Crystallographic Data Centre
#                                CCDC 
#
#######################################################################
#
# If this CIF has been generated from an entry in the Cambridge 
# Structural Database, then it will include bibliographic, chemical, 
# crystal, experimental, refinement or atomic coordinate data resulting 
# from the CCDC's data processing and validation procedures.
#
#######################################################################

data_SIDSEF
_chemical_formula_moiety         'C13 H9 N1 O1 S1,C13 H9 N1 O1 S1'
_chemical_name_systematic        
'2-(Pyridin-4(1H)-ylidene)-1-benzothiophen-3(2H)-one 2-(pyridin-4-yl)-1-benzothiophene-3-ol'
_symmetry_cell_setting           monoclinic
_symmetry_space_group_name_H-M   'P 21/n'
_symmetry_Int_Tables_number      14
_space_group_name_Hall           '-P 2yn'
loop_
_symmetry_equiv_pos_site_id
_symmetry_equiv_pos_as_xyz
1 x,y,z
2 1/2-x,1/2+y,1/2-z
3 -x,-y,-z
4 1/2+x,1/2-y,1/2+z
_cell_length_a                   15.067(3)
_cell_length_b                   7.3384(15)
_cell_length_c                   18.925(4)
_cell_angle_alpha                90
_cell_angle_beta                 92.30(3)
_cell_angle_gamma                90
_cell_volume                     2090.81
_exptl_crystal_colour            yellow
_exptl_crystal_description       block
_cell_formula_units_Z            4
loop_
_atom_site_label
_atom_site_type_symbol
_atom_site_fract_x
_atom_site_fract_y
_atom_site_fract_z
S1 S 0.61497(3) 0.57651(7) 0.18548(3)
O1 O 0.69018(9) 0.24377(18) 0.03864(7)
C1 C 0.75682(12) 0.4390(2) 0.13155(10)
C2 C 0.68202(12) 0.3646(2) 0.09108(9)
N1 N 0.33895(11) 0.2981(2) 0.03546(9)
C3 C 0.43727(13) 0.4522(3) 0.11778(11)
H1 H 0.4439 0.5322 0.1571
C4 C 0.51250(12) 0.3766(2) 0.08784(10)
C5 C 0.49650(13) 0.2565(3) 0.03098(10)
H2 H 0.5447 0.1990 0.0090
C6 C 0.60139(12) 0.4231(2) 0.11456(10)
C7 C 0.72969(13) 0.5559(2) 0.18545(10)
C8 C 0.35360(14) 0.4104(3) 0.09007(12)
H3 H 0.3038 0.4645 0.1110
C9 C 0.84756(13) 0.3989(3) 0.12693(10)
H4 H 0.8672 0.3212 0.0906
C10 C 0.87931(14) 0.5884(3) 0.22916(11)
H5 H 0.9217 0.6380 0.2624
C11 C 0.41056(13) 0.2226(3) 0.00729(11)
H6 H 0.4014 0.1410 -0.0313
C12 C 0.90794(13) 0.4730(3) 0.17544(11)
H7 H 0.9693 0.4459 0.1725
C13 C 0.79104(14) 0.6306(3) 0.23450(11)
H8 H 0.7721 0.7091 0.2709
H9 H 0.7413(18) 0.264(4) 0.0091(14)
S2 S 0.09034(3) 1.05980(6) 0.17669(3)
O2 O 0.17601(8) 0.72553(18) 0.03442(7)
C14 C 0.08052(12) 0.9027(2) 0.10613(10)
C15 C 0.16374(12) 0.8417(2) 0.08439(9)
N2 N -0.17406(11) 0.7787(2) 0.01875(9)
C16 C -0.08368(13) 0.9326(3) 0.10441(11)
H10 H -0.0794 1.0115 0.1442
C17 C 0.23581(12) 0.9237(2) 0.12718(9)
C18 C -0.01808(12) 0.7373(3) 0.01894(10)
H11 H 0.0318 0.6812 -0.0012
C19 C 0.32705(12) 0.8899(3) 0.12439(10)
H12 H 0.3489 0.8110 0.0893
C20 C 0.20530(13) 1.0418(2) 0.17896(10)
C21 C -0.00532(12) 0.8577(2) 0.07678(10)
C22 C 0.26373(14) 1.1263(3) 0.22798(11)
H13 H 0.2423 1.2069 0.2627
C23 C 0.35312(14) 1.0897(3) 0.22458(11)
H14 H 0.3938 1.1450 0.2577
C24 C -0.10163(13) 0.7010(3) -0.00832(11)
H15 H -0.1089 0.6194 -0.0471
C25 C -0.16503(13) 0.8920(3) 0.07429(12)
H16 H -0.2165 0.9452 0.0930
C26 C 0.38516(13) 0.9716(3) 0.17286(10)
H17 H 0.4471 0.9480 0.1713
H18 H -0.2390(18) 0.744(4) -0.0039(13)
loop_
_geom_bond_atom_site_label_1
_geom_bond_atom_site_label_2
_geom_bond_site_symmetry_1
_geom_bond_site_symmetry_2
S1 C6 1_555 1_555
O1 C2 1_555 1_555
C1 C2 1_555 1_555
C2 C6 1_555 1_555
N1 C8 1_555 1_555
C3 H1 1_555 1_555
C4 C3 1_555 1_555
C5 C4 1_555 1_555
H2 C5 1_555 1_555
C6 C4 1_555 1_555
C7 S1 1_555 1_555
C8 C3 1_555 1_555
H3 C8 1_555 1_555
C9 C1 1_555 1_555
H4 C9 1_555 1_555
C10 H5 1_555 1_555
C11 N1 1_555 1_555
H6 C11 1_555 1_555
C12 C9 1_555 1_555
H7 C12 1_555 1_555
C13 C7 1_555 1_555
H8 C13 1_555 1_555
H9 O1 1_555 1_555
S2 C14 1_555 1_555
O2 C15 1_555 1_555
C14 C15 1_555 1_555
C15 C17 1_555 1_555
N2 C24 1_555 1_555
C16 H10 1_555 1_555
C17 C19 1_555 1_555
C18 H11 1_555 1_555
C19 H12 1_555 1_555
C20 S2 1_555 1_555
C21 C14 1_555 1_555
C22 C20 1_555 1_555
H13 C22 1_555 1_555
C23 C22 1_555 1_555
H14 C23 1_555 1_555
C24 C18 1_555 1_555
H15 C24 1_555 1_555
C25 N2 1_555 1_555
H16 C25 1_555 1_555
C26 C19 1_555 1_555
H17 C26 1_555 1_555
H18 N2 1_555 1_555
C1 C7 1_555 1_555
C5 C11 1_555 1_555
C10 C12 1_555 1_555
C10 C13 1_555 1_555
C16 C21 1_555 1_555
C16 C25 1_555 1_555
C17 C20 1_555 1_555
C18 C21 1_555 1_555
C23 C26 1_555 1_555

#END
