
#######################################################################
#
#                 Cambridge Crystallographic Data Centre
#                                CCDC 
#
#######################################################################
#
# If this CIF has been generated from an entry in the Cambridge 
# Structural Database, then it will include bibliographic, chemical, 
# crystal, experimental, refinement or atomic coordinate data resulting 
# from the CCDC's data processing and validation procedures.
#
#######################################################################

data_SIDTEH
_chemical_formula_moiety         'C42 H32 N4'
_chemical_name_systematic        
10-[3'-(4,6-diphenyl-1,3,5-triazin-2-yl)[1,1'-biphenyl]-3-yl]-9,9-dimethyl-9,10-dihydroacridine
_symmetry_cell_setting           orthorhombic
_symmetry_space_group_name_H-M   'P b c a'
_symmetry_Int_Tables_number      61
_space_group_name_Hall           '-P 2ac 2ab'
loop_
_symmetry_equiv_pos_site_id
_symmetry_equiv_pos_as_xyz
1 x,y,z
2 1/2-x,-y,1/2+z
3 -x,1/2+y,1/2-z
4 1/2+x,1/2-y,-z
5 -x,-y,-z
6 1/2+x,y,1/2-z
7 x,1/2-y,1/2+z
8 1/2-x,1/2+y,z
_cell_length_a                   17.1418(11)
_cell_length_b                   8.1149(7)
_cell_length_c                   45.495(5)
_cell_angle_alpha                90
_cell_angle_beta                 90
_cell_angle_gamma                90
_cell_volume                     6328.54
_exptl_crystal_colour            'light colorless'
_exptl_crystal_description       plate
_cell_formula_units_Z            8
_exptl_crystal_preparation       Luminescent
loop_
_atom_site_label
_atom_site_type_symbol
_atom_site_fract_x
_atom_site_fract_y
_atom_site_fract_z
N1 N 0.50002(17) 0.6738(4) 0.54910(7)
N2 N 0.56342(17) 0.6689(3) 0.50282(7)
N3 N 0.44299(16) 0.8097(3) 0.50841(7)
N4 N 0.55268(19) 0.5276(4) 0.68383(7)
C1 C 0.55870(19) 0.6295(4) 0.53129(8)
C2 C 0.61653(19) 0.4918(4) 0.57441(8)
H1 H 0.5739 0.5295 0.5851
C3 C 0.62122(19) 0.5306(4) 0.54492(8)
C4 C 0.44393(19) 0.7660(4) 0.53675(8)
C5 C 0.5037(2) 0.7587(4) 0.49225(8)
C6 C 0.3799(2) 0.8216(4) 0.55609(9)
C7 C 0.6625(2) 0.3580(4) 0.62015(9)
C8 C 0.6182(2) 0.4609(4) 0.63852(8)
H2 H 0.6000 0.5608 0.6312
C9 C 0.5033(2) 0.8020(4) 0.46088(8)
C10 C 0.6729(2) 0.3988(4) 0.58868(8)
C11 C 0.4707(2) 0.5173(5) 0.68086(8)
C12 C 0.4457(2) 0.9036(5) 0.44950(9)
H3 H 0.4073 0.9454 0.4619
C13 C 0.4237(2) 0.6423(5) 0.69205(9)
C14 C 0.6012(2) 0.4174(5) 0.66715(9)
C15 C 0.3793(2) 0.7823(5) 0.58541(9)
H4 H 0.4192 0.7177 0.5932
C16 C 0.5858(2) 0.6339(5) 0.70438(8)
C17 C 0.6844(2) 0.4738(4) 0.52867(9)
H5 H 0.6884 0.4981 0.5087
C18 C 0.7364(2) 0.3437(4) 0.57213(9)
H6 H 0.7754 0.2819 0.5811
C19 C 0.5604(2) 0.7404(5) 0.44209(9)
H7 H 0.5997 0.6732 0.4495
C20 C 0.3203(2) 0.9183(5) 0.54479(10)
H8 H 0.3199 0.9458 0.5249
C21 C 0.7413(2) 0.3808(5) 0.54248(10)
H9 H 0.7836 0.3425 0.5317
C22 C 0.4448(3) 0.9434(5) 0.42002(9)
H10 H 0.4061 1.0121 0.4126
C23 C 0.6892(2) 0.2106(5) 0.63224(10)
H11 H 0.7189 0.1397 0.6207
C24 C 0.4375(3) 0.3815(5) 0.66678(9)
H12 H 0.4694 0.2985 0.6594
C25 C 0.5400(3) 0.7597(5) 0.71684(9)
C26 C 0.3201(2) 0.8378(5) 0.60360(10)
H13 H 0.3200 0.8098 0.6234
C27 C 0.5013(3) 0.8809(6) 0.40165(10)
H14 H 0.5008 0.9076 0.3818
C28 C 0.6273(3) 0.2696(5) 0.67845(10)
H15 H 0.6147 0.2389 0.6976
C29 C 0.3433(2) 0.6258(6) 0.68878(10)
H16 H 0.3109 0.7074 0.6963
C30 C 0.2615(3) 0.9341(5) 0.59233(11)
H17 H 0.2219 0.9724 0.6045
C31 C 0.5587(3) 0.7789(6) 0.41258(9)
H18 H 0.5964 0.7360 0.4000
C32 C 0.4599(3) 0.7964(5) 0.70432(10)
C33 C 0.2616(3) 0.9737(6) 0.56292(11)
H19 H 0.2217 1.0384 0.5552
C34 C 0.6726(3) 0.1672(6) 0.66100(10)
H20 H 0.6919 0.0691 0.6686
C35 C 0.3576(3) 0.3701(6) 0.66384(10)
H21 H 0.3356 0.2795 0.6545
C36 C 0.6630(3) 0.6149(6) 0.71280(10)
H22 H 0.6934 0.5335 0.7041
C37 C 0.3102(3) 0.4931(6) 0.67481(10)
H23 H 0.2563 0.4862 0.6728
C38 C 0.5746(4) 0.8568(6) 0.73818(12)
H24 H 0.5452 0.9395 0.7470
C39 C 0.6949(3) 0.7162(7) 0.73399(12)
H25 H 0.7467 0.7027 0.7395
C40 C 0.6510(4) 0.8358(7) 0.74690(13)
H26 H 0.6723 0.9026 0.7614
C41 C 0.4715(4) 0.9164(6) 0.67829(15)
H27 H 0.5050 0.8665 0.6639
H28 H 0.4949 1.0165 0.6853
H29 H 0.4219 0.9408 0.6695
C42 C 0.4068(4) 0.8777(9) 0.72700(16)
H30 H 0.3543 0.8801 0.7197
H31 H 0.4243 0.9882 0.7306
H32 H 0.4085 0.8159 0.7450
loop_
_geom_bond_atom_site_label_1
_geom_bond_atom_site_label_2
_geom_bond_site_symmetry_1
_geom_bond_site_symmetry_2
N1 C1 1_555 1_555
N2 C1 1_555 1_555
N3 C4 1_555 1_555
N4 C11 1_555 1_555
C1 C3 1_555 1_555
C2 H1 1_555 1_555
C3 C2 1_555 1_555
C4 N1 1_555 1_555
C5 N2 1_555 1_555
C6 C4 1_555 1_555
C7 C8 1_555 1_555
C8 H2 1_555 1_555
C9 C5 1_555 1_555
C10 C2 1_555 1_555
C11 C13 1_555 1_555
C12 C9 1_555 1_555
H3 C12 1_555 1_555
C13 C29 1_555 1_555
C14 N4 1_555 1_555
C15 C6 1_555 1_555
H4 C15 1_555 1_555
C16 N4 1_555 1_555
C17 C3 1_555 1_555
H5 C17 1_555 1_555
C18 C10 1_555 1_555
H6 C18 1_555 1_555
C19 C9 1_555 1_555
H7 C19 1_555 1_555
C20 C6 1_555 1_555
H8 C20 1_555 1_555
C21 C17 1_555 1_555
H9 C21 1_555 1_555
C22 C12 1_555 1_555
H10 C22 1_555 1_555
C23 C7 1_555 1_555
H11 C23 1_555 1_555
C24 C11 1_555 1_555
H12 C24 1_555 1_555
C25 C16 1_555 1_555
C26 C15 1_555 1_555
H13 C26 1_555 1_555
C27 C22 1_555 1_555
H14 C27 1_555 1_555
C28 C14 1_555 1_555
H15 C28 1_555 1_555
C29 H16 1_555 1_555
C30 C26 1_555 1_555
H17 C30 1_555 1_555
C31 C19 1_555 1_555
H18 C31 1_555 1_555
C32 C13 1_555 1_555
C33 C20 1_555 1_555
H19 C33 1_555 1_555
C34 C23 1_555 1_555
H20 C34 1_555 1_555
C35 C24 1_555 1_555
H21 C35 1_555 1_555
C36 C16 1_555 1_555
H22 C36 1_555 1_555
C37 C29 1_555 1_555
H23 C37 1_555 1_555
C38 C25 1_555 1_555
H24 C38 1_555 1_555
C39 C36 1_555 1_555
H25 C39 1_555 1_555
C40 C38 1_555 1_555
H26 C40 1_555 1_555
C41 C32 1_555 1_555
H27 C41 1_555 1_555
H28 C41 1_555 1_555
H29 C41 1_555 1_555
C42 C32 1_555 1_555
H30 C42 1_555 1_555
H31 C42 1_555 1_555
H32 C42 1_555 1_555
N3 C5 1_555 1_555
C7 C10 1_555 1_555
C8 C14 1_555 1_555
C18 C21 1_555 1_555
C25 C32 1_555 1_555
C27 C31 1_555 1_555
C28 C34 1_555 1_555
C30 C33 1_555 1_555
C35 C37 1_555 1_555
C39 C40 1_555 1_555

#END
