
#######################################################################
#
#                 Cambridge Crystallographic Data Centre
#                                CCDC 
#
#######################################################################
#
# If this CIF has been generated from an entry in the Cambridge 
# Structural Database, then it will include bibliographic, chemical, 
# crystal, experimental, refinement or atomic coordinate data resulting 
# from the CCDC's data processing and validation procedures.
#
#######################################################################

data_SIDTAD
_chemical_formula_moiety         'C36 H28 N4'
_chemical_name_systematic        
10-[3-(4,6-diphenyl-1,3,5-triazin-2-yl)phenyl]-9,9-dimethyl-9,10-dihydroacridine
_symmetry_cell_setting           orthorhombic
_symmetry_space_group_name_H-M   'P b c a'
_symmetry_Int_Tables_number      61
_space_group_name_Hall           '-P 2ac 2ab'
loop_
_symmetry_equiv_pos_site_id
_symmetry_equiv_pos_as_xyz
1 x,y,z
2 1/2+x,1/2-y,-z
3 -x,1/2+y,1/2-z
4 1/2-x,-y,1/2+z
5 -x,-y,-z
6 1/2-x,1/2+y,z
7 x,1/2-y,1/2+z
8 1/2+x,y,1/2-z
_cell_length_a                   13.7631(7)
_cell_length_b                   11.4154(9)
_cell_length_c                   34.944(4)
_cell_angle_alpha                90
_cell_angle_beta                 90
_cell_angle_gamma                90
_cell_volume                     5490.1
_exptl_crystal_colour            'light colorless'
_exptl_crystal_description       plate
_cell_formula_units_Z            8
_exptl_crystal_preparation       Luminescent
loop_
_atom_site_label
_atom_site_type_symbol
_atom_site_fract_x
_atom_site_fract_y
_atom_site_fract_z
N1 N 0.37486(9) 1.01151(12) 0.50009(3)
N2 N 0.33222(9) 0.88377(11) 0.36237(3)
N3 N 0.36347(10) 0.83426(12) 0.53546(3)
N4 N 0.37713(10) 1.01617(12) 0.56783(4)
C1 C 0.35637(11) 0.82777(13) 0.46668(4)
C2 C 0.36623(10) 0.89494(14) 0.50259(4)
C3 C 0.36829(11) 0.89917(14) 0.56721(4)
C4 C 0.34223(11) 0.82169(14) 0.39802(4)
C5 C 0.35694(10) 0.88484(13) 0.43125(4)
C6 C 0.38056(11) 1.06754(14) 0.53353(4)
C7 C 0.40292(11) 0.87097(13) 0.33355(4)
C8 C 0.22405(12) 0.98417(13) 0.31848(4)
C9 C 0.36062(11) 0.83895(15) 0.60476(4)
C10 C 0.23778(11) 0.91897(13) 0.35205(4)
C11 C 0.38930(11) 1.19721(14) 0.53276(5)
C12 C 0.34221(12) 0.70701(14) 0.46773(4)
C13 C 0.39389(13) 1.25780(17) 0.49852(5)
C14 C 0.32937(12) 0.70084(14) 0.39938(4)
C15 C 0.39194(13) 0.93350(14) 0.29931(4)
C16 C 0.15807(12) 0.88854(14) 0.37473(5)
C17 C 0.38390(15) 0.89721(19) 0.63819(5)
C18 C 0.32610(12) 0.72454(16) 0.60678(5)
C19 C 0.39110(12) 1.25937(16) 0.56698(5)
C20 C 0.32983(13) 0.64466(14) 0.43438(5)
C21 C 0.39673(15) 1.38076(17) 0.56681(7)
C22 C 0.48334(12) 0.79899(16) 0.33897(5)
C23 C 0.39974(16) 1.37912(18) 0.49862(7)
C24 C 0.12945(14) 1.01494(16) 0.30877(5)
C25 C 0.31245(14) 1.02601(15) 0.29627(4)
C26 C 0.06545(13) 0.92062(16) 0.36405(6)
C27 C 0.33714(15) 0.7308(2) 0.67512(5)
C28 C 0.31365(14) 0.67127(19) 0.64208(6)
C29 C 0.37300(17) 0.8421(2) 0.67338(5)
C30 C 0.40101(15) 1.43994(18) 0.53274(7)
C31 C 0.46117(16) 0.91535(18) 0.27083(5)
C32 C 0.05101(13) 0.98375(18) 0.33103(6)
C33 C 0.35070(16) 1.13846(15) 0.31576(6)
C34 C 0.55187(14) 0.78600(18) 0.31030(6)
C35 C 0.28752(19) 1.0557(2) 0.25456(5)
C36 C 0.53974(17) 0.8429(2) 0.27585(7)
H1 H 0.34111(12) 0.66824(14) 0.49113(4)
H2 H 0.32169(13) 0.56384(14) 0.43542(5)
H3 H 0.32055(12) 0.65833(14) 0.37694(4)
H4 H 0.36723(10) 0.96528(13) 0.43006(4)
H5 H 0.38852(12) 1.21932(16) 0.59013(5)
H6 H 0.39759(15) 1.42187(17) 0.58979(7)
H7 H 0.40479(15) 1.52128(18) 0.53261(7)
H8 H 0.40281(16) 1.41967(18) 0.47557(7)
H9 H 0.39306(13) 1.21722(17) 0.47545(5)
H10 H 0.31139(12) 0.68386(16) 0.58446(5)
H11 H 0.28944(14) 0.59533(19) 0.64347(6)
H12 H 0.32850(15) 0.6948(2) 0.69876(5)
H13 H 0.39015(17) 0.8811(2) 0.69575(5)
H14 H 0.40698(15) 0.97371(19) 0.63713(5)
H15 H 0.49109(12) 0.75934(16) 0.36202(5)
H16 H 0.60607(14) 0.73891(18) 0.31428(6)
H17 H 0.58440(17) 0.8323(2) 0.25618(7)
H18 H 0.45386(16) 0.95376(18) 0.24753(5)
H19 H 0.16760(12) 0.84634(14) 0.39718(5)
H20 H 0.01268(13) 0.89957(16) 0.37919(6)
H21 H -0.01148(13) 1.00532(18) 0.32375(6)
H22 H 0.11881(14) 1.05791(16) 0.28655(5)
H23 H 0.3022(5) 1.1987(5) 0.3142(4)
H24 H 0.3649(12) 1.1224(4) 0.34214(14)
H25 H 0.4088(7) 1.1641(9) 0.3031(3)
H26 H 0.2604(14) 0.9880(6) 0.24228(17)
H27 H 0.2412(11) 1.1185(12) 0.25398(6)
H28 H 0.3455(3) 1.0792(17) 0.24132(16)
loop_
_geom_bond_atom_site_label_1
_geom_bond_atom_site_label_2
_geom_bond_site_symmetry_1
_geom_bond_site_symmetry_2
N1 C2 1_555 1_555
N2 C4 1_555 1_555
N3 C2 1_555 1_555
N4 C3 1_555 1_555
C1 C2 1_555 1_555
C3 N3 1_555 1_555
C4 C5 1_555 1_555
C5 C1 1_555 1_555
C6 N1 1_555 1_555
C7 N2 1_555 1_555
C8 C10 1_555 1_555
C9 C3 1_555 1_555
C10 N2 1_555 1_555
C11 C6 1_555 1_555
C12 C1 1_555 1_555
C13 C11 1_555 1_555
C14 C4 1_555 1_555
C15 C7 1_555 1_555
C16 C10 1_555 1_555
C17 C9 1_555 1_555
C18 C9 1_555 1_555
C19 C11 1_555 1_555
C20 C12 1_555 1_555
C21 C19 1_555 1_555
C22 C7 1_555 1_555
C23 C13 1_555 1_555
C24 C8 1_555 1_555
C25 C8 1_555 1_555
C26 C16 1_555 1_555
C27 C28 1_555 1_555
C28 C18 1_555 1_555
C29 C17 1_555 1_555
C30 C21 1_555 1_555
C31 C15 1_555 1_555
C32 C24 1_555 1_555
C33 C25 1_555 1_555
C34 C22 1_555 1_555
C35 C25 1_555 1_555
C36 C31 1_555 1_555
H1 C12 1_555 1_555
H2 C20 1_555 1_555
H3 C14 1_555 1_555
H4 C5 1_555 1_555
H5 C19 1_555 1_555
H6 C21 1_555 1_555
H7 C30 1_555 1_555
H8 C23 1_555 1_555
H9 C13 1_555 1_555
H10 C18 1_555 1_555
H11 C28 1_555 1_555
H12 C27 1_555 1_555
H13 C29 1_555 1_555
H14 C17 1_555 1_555
H15 C22 1_555 1_555
H16 C34 1_555 1_555
H17 C36 1_555 1_555
H18 C31 1_555 1_555
H19 C16 1_555 1_555
H20 C26 1_555 1_555
H21 C32 1_555 1_555
H22 C24 1_555 1_555
H23 C33 1_555 1_555
H24 C33 1_555 1_555
H25 C33 1_555 1_555
H26 C35 1_555 1_555
H27 C35 1_555 1_555
H28 C35 1_555 1_555
N4 C6 1_555 1_555
C14 C20 1_555 1_555
C15 C25 1_555 1_555
C23 C30 1_555 1_555
C26 C32 1_555 1_555
C27 C29 1_555 1_555
C34 C36 1_555 1_555

#END
