
#######################################################################
#
#                 Cambridge Crystallographic Data Centre
#                                CCDC 
#
#######################################################################
#
# If this CIF has been generated from an entry in the Cambridge 
# Structural Database, then it will include bibliographic, chemical, 
# crystal, experimental, refinement or atomic coordinate data resulting 
# from the CCDC's data processing and validation procedures.
#
#######################################################################

data_SIDVUZ
_chemical_formula_moiety         'C30 H44 O9,H2 O1'
_chemical_name_systematic        
'4-methyl-2-[1,8,11-trihydroxy-3-(2-hydroxypropan-2-yl)-6a,12b-dimethyl-12-oxo-1,2,3,4a,5,6,6a,12,12a,12b-decahydropyrano[3,2-a]xanthen-9-yl]hexan-3-yl acetate hydrate'
_symmetry_cell_setting           orthorhombic
_symmetry_space_group_name_H-M   'P 21 21 21'
_symmetry_Int_Tables_number      19
_space_group_name_Hall           'P 2ac 2ab'
loop_
_symmetry_equiv_pos_site_id
_symmetry_equiv_pos_as_xyz
1 x,y,z
2 1/2-x,-y,1/2+z
3 -x,1/2+y,1/2-z
4 1/2+x,1/2-y,-z
_cell_length_a                   7.7330(3)
_cell_length_b                   11.4283(5)
_cell_length_c                   33.9184(13)
_cell_angle_alpha                90
_cell_angle_beta                 90
_cell_angle_gamma                90
_cell_volume                     2997.54
_exptl_crystal_description       Block
_cell_formula_units_Z            4
loop_
_atom_site_label
_atom_site_type_symbol
_atom_site_fract_x
_atom_site_fract_y
_atom_site_fract_z
O1 O 0.70810(12) 0.48917(8) 0.38974(3)
H1 H 0.7189 0.4273 0.3778
O2 O 0.42271(11) 0.42073(7) 0.34045(3)
O3 O 0.19304(13) 0.69098(8) 0.30978(3)
H2 H 0.1491 0.6565 0.3285
O4 O 0.32847(12) 0.69706(8) 0.21589(3)
O5 O -0.01456(11) 0.42523(7) 0.21101(3)
O6 O -0.26275(12) 0.40950(8) 0.15579(3)
H3 H -0.2248 0.3584 0.1704
O7 O 0.18880(12) 0.78574(8) 0.15311(3)
H4 H 0.2575 0.7811 0.1715
O8 O -0.13168(12) 0.47906(8) 0.05492(3)
O9 O -0.11847(16) 0.28801(10) 0.07090(4)
C1 C 0.4683(2) 0.39662(13) 0.42284(4)
H5 H 0.4782 0.3293 0.4061
H6 H 0.3497 0.4069 0.4304
H7 H 0.5381 0.3855 0.4460
C2 C 0.5258(2) 0.61216(13) 0.42707(4)
H8 H 0.5837 0.5951 0.4514
H9 H 0.4079 0.6332 0.4323
H10 H 0.5832 0.6760 0.4141
C3 C 0.53023(17) 0.50487(12) 0.40066(4)
C4 C 0.41610(17) 0.52474(11) 0.36422(4)
H11 H 0.2966 0.5358 0.3731
C5 C 0.46760(17) 0.63054(11) 0.33950(4)
H12 H 0.5888 0.6240 0.3325
H13 H 0.4538 0.7009 0.3552
C6 C 0.35983(17) 0.64220(11) 0.30176(4)
H14 H 0.4204 0.6977 0.2846
C7 C 0.35110(16) 0.52359(11) 0.27914(4)
C8 C 0.29824(16) 0.42845(11) 0.30923(4)
H15 H 0.1877 0.4521 0.3209
C9 C 0.27286(17) 0.30938(11) 0.29052(4)
H16 H 0.2483 0.2516 0.3107
H17 H 0.3772 0.2860 0.2767
C10 C 0.12123(17) 0.31694(11) 0.26145(4)
H18 H 0.1035 0.2411 0.2493
H19 H 0.0167 0.3373 0.2757
C11 C 0.15448(16) 0.40775(11) 0.22952(4)
C12 C 0.20488(16) 0.52694(11) 0.24801(4)
H20 H 0.1020 0.5512 0.2628
C13 C 0.22190(16) 0.61700(11) 0.21544(4)
C14 C 0.09516(16) 0.60639(11) 0.18365(4)
C15 C -0.02115(16) 0.51226(11) 0.18351(3)
C16 C -0.15185(16) 0.50218(11) 0.15548(4)
C17 C -0.16878(16) 0.59036(11) 0.12707(4)
C18 C -0.05176(17) 0.68379(11) 0.12655(4)
H21 H -0.0625 0.7413 0.1073
C19 C 0.07945(16) 0.69217(11) 0.15404(4)
C20 C -0.31682(17) 0.59096(11) 0.09761(4)
H22 H -0.3068 0.6633 0.0823
C21 C -0.31054(16) 0.48883(12) 0.06817(4)
H23 H -0.3439 0.4165 0.0817
C22 C -0.42472(18) 0.50536(13) 0.03172(4)
H24 H -0.5421 0.5219 0.0411
C23 C -0.4326(2) 0.39164(14) 0.00806(4)
H25 H -0.3202 0.3745 -0.0025
H26 H -0.5137 0.4002 -0.0132
H27 H -0.4687 0.3289 0.0250
C24 C -0.3683(3) 0.60935(15) 0.00638(5)
H28 H -0.3559 0.6775 0.0232
H29 H -0.2556 0.5924 -0.0048
C25 C -0.4926(4) 0.6388(2) -0.02689(6)
H30 H -0.4817 0.5816 -0.0475
H31 H -0.4657 0.7149 -0.0372
H32 H -0.6090 0.6384 -0.0170
C26 C -0.0502(2) 0.37659(14) 0.05999(5)
C27 C 0.1378(2) 0.38863(18) 0.05048(7)
H33 H 0.1954 0.4284 0.0717
H34 H 0.1509 0.4329 0.0266
H35 H 0.1876 0.3124 0.0471
C28 C -0.49255(18) 0.59464(13) 0.11858(4)
H36 H -0.5166 0.5194 0.1299
H37 H -0.5813 0.6141 0.0999
H38 H -0.4897 0.6527 0.1390
C29 C 0.27575(18) 0.36072(12) 0.19791(4)
H39 H 0.2175 0.3014 0.1829
H40 H 0.3765 0.3278 0.2102
H41 H 0.3098 0.4233 0.1807
C30 C 0.53201(16) 0.49996(12) 0.26167(4)
H42 H 0.5332 0.4243 0.2494
H43 H 0.6167 0.5021 0.2824
H44 H 0.5587 0.5588 0.2424
O10 O 0.98880(17) 0.63105(12) 0.37205(4)
H45 H 0.9020 0.5893 0.3782
H46 H 1.0144 0.6715 0.3922
loop_
_geom_bond_atom_site_label_1
_geom_bond_atom_site_label_2
_geom_bond_site_symmetry_1
_geom_bond_site_symmetry_2
O1 H1 1_555 1_555
O2 C4 1_555 1_555
O3 H2 1_555 1_555
O4 C13 1_555 1_555
O5 C11 1_555 1_555
O6 H3 1_555 1_555
O7 H4 1_555 1_555
O8 C21 1_555 1_555
O9 C26 1_555 1_555
C1 H5 1_555 1_555
H6 C1 1_555 1_555
H7 C1 1_555 1_555
C2 H8 1_555 1_555
H9 C2 1_555 1_555
H10 C2 1_555 1_555
C3 O1 1_555 1_555
C4 C3 1_555 1_555
H11 C4 1_555 1_555
C5 C4 1_555 1_555
H12 C5 1_555 1_555
H13 C5 1_555 1_555
C6 O3 1_555 1_555
H14 C6 1_555 1_555
C7 C6 1_555 1_555
C8 O2 1_555 1_555
H15 C8 1_555 1_555
C9 C8 1_555 1_555
H16 C9 1_555 1_555
H17 C9 1_555 1_555
C10 C9 1_555 1_555
H18 C10 1_555 1_555
H19 C10 1_555 1_555
C11 C10 1_555 1_555
C12 C7 1_555 1_555
H20 C12 1_555 1_555
C13 C12 1_555 1_555
C14 C13 1_555 1_555
C15 O5 1_555 1_555
C16 O6 1_555 1_555
C17 C16 1_555 1_555
C18 C17 1_555 1_555
H21 C18 1_555 1_555
C19 O7 1_555 1_555
C20 C17 1_555 1_555
H22 C20 1_555 1_555
C21 C20 1_555 1_555
H23 C21 1_555 1_555
C22 C21 1_555 1_555
H24 C22 1_555 1_555
C23 C22 1_555 1_555
H25 C23 1_555 1_555
H26 C23 1_555 1_555
H27 C23 1_555 1_555
C24 C22 1_555 1_555
H28 C24 1_555 1_555
H29 C24 1_555 1_555
C25 C24 1_555 1_555
H30 C25 1_555 1_555
H31 C25 1_555 1_555
H32 C25 1_555 1_555
C26 O8 1_555 1_555
C27 C26 1_555 1_555
H33 C27 1_555 1_555
H34 C27 1_555 1_555
H35 C27 1_555 1_555
C28 C20 1_555 1_555
H36 C28 1_555 1_555
H37 C28 1_555 1_555
H38 C28 1_555 1_555
C29 C11 1_555 1_555
H39 C29 1_555 1_555
H40 C29 1_555 1_555
H41 C29 1_555 1_555
C30 C7 1_555 1_555
H42 C30 1_555 1_555
H43 C30 1_555 1_555
H44 C30 1_555 1_555
O10 H45 1_555 1_555
H46 O10 1_555 1_555
C1 C3 1_555 1_555
C2 C3 1_555 1_555
C5 C6 1_555 1_555
C7 C8 1_555 1_555
C11 C12 1_555 1_555
C14 C15 1_555 1_555
C14 C19 1_555 1_555
C15 C16 1_555 1_555
C18 C19 1_555 1_555

#END
