
#######################################################################
#
#                 Cambridge Crystallographic Data Centre
#                                CCDC 
#
#######################################################################
#
# If this CIF has been generated from an entry in the Cambridge 
# Structural Database, then it will include bibliographic, chemical, 
# crystal, experimental, refinement or atomic coordinate data resulting 
# from the CCDC's data processing and validation procedures.
#
#######################################################################

data_SIDWEK
_chemical_formula_moiety         'C21 H32 O5'
_chemical_name_systematic        
3,5,10-trihydroxy-3-(methoxymethyl)-11,12-dimethyl-7-(propan-2-yl)-1,2,3,5,9,10,11,11a-octahydro-6H-5,8-methanocyclopenta[10]annulen-6-one
_symmetry_cell_setting           orthorhombic
_symmetry_space_group_name_H-M   'P 21 21 21'
_symmetry_Int_Tables_number      19
_space_group_name_Hall           'P 2ac 2ab'
loop_
_symmetry_equiv_pos_site_id
_symmetry_equiv_pos_as_xyz
1 x,y,z
2 1/2+x,1/2-y,-z
3 -x,1/2+y,1/2-z
4 1/2-x,-y,1/2+z
_cell_length_a                   8.7616(2)
_cell_length_b                   13.7853(3)
_cell_length_c                   15.7306(3)
_cell_angle_alpha                90
_cell_angle_beta                 90
_cell_angle_gamma                90
_cell_volume                     1899.96
_exptl_crystal_colour            colorless
_exptl_crystal_description       block
_cell_formula_units_Z            4
loop_
_atom_site_label
_atom_site_type_symbol
_atom_site_fract_x
_atom_site_fract_y
_atom_site_fract_z
O1 O 0.87246(14) 0.82345(9) 0.06588(7)
O2 O 0.67053(14) 0.71497(9) -0.03203(8)
H1 H 0.5763 0.7037 -0.0325
O3 O 0.82783(14) 0.31697(10) 0.23825(9)
H2 H 0.7905 0.2688 0.2635
O4 O 0.19622(14) 0.49758(9) 0.03998(8)
O5 O 0.23413(14) 0.65343(8) 0.15623(7)
H3 H 0.2185 0.6806 0.1092
C1 C 0.2215(3) 0.25872(15) 0.12104(16)
H4 H 0.2241 0.2545 0.1832
H5 H 0.2161 0.1933 0.0969
H6 H 0.1317 0.2960 0.1034
C2 C 0.3662(2) 0.30934(13) 0.08930(12)
H7 H 0.4563 0.2711 0.1093
C3 C 0.3738(2) 0.40895(12) 0.12982(11)
C4 C 0.29175(19) 0.49387(13) 0.09594(10)
C5 C 0.34904(19) 0.58228(12) 0.14683(10)
C6 C 0.49210(19) 0.62910(12) 0.10945(10)
H8 H 0.4809 0.6972 0.1029
C7 C 0.6289(2) 0.59825(12) 0.08369(10)
C8 C 0.73702(19) 0.67447(12) 0.04358(10)
C9 C 0.7704(2) 0.75689(12) 0.10491(10)
H9 H 0.6742 0.7904 0.1202
H10 H 0.8165 0.7308 0.1576
C10 C 0.8854(2) 0.91045(13) 0.11412(12)
H11 H 0.7866 0.9437 0.1153
H12 H 0.9619 0.9529 0.0879
H13 H 0.9168 0.8947 0.1723
C11 C 0.70212(19) 0.49758(12) 0.07329(10)
H14 H 0.6219 0.4505 0.0549
C12 C 0.7908(2) 0.45375(12) 0.15151(11)
H15 H 0.8876 0.4277 0.1267
C13 C 0.7115(2) 0.36431(12) 0.19042(11)
H16 H 0.6807 0.3203 0.1429
C14 C 0.5701(2) 0.38157(13) 0.24740(11)
H17 H 0.5301 0.3182 0.2668
H18 H 0.6015 0.4187 0.2983
C15 C 0.4447(2) 0.43594(12) 0.20229(11)
C16 C 0.3818(2) 0.53313(12) 0.23299(10)
H19 H 0.2796 0.5185 0.2582
C17 C 0.4650(2) 0.59388(13) 0.29874(11)
H20 H 0.4858 0.5543 0.3491
H21 H 0.4015 0.6494 0.3148
H22 H 0.5616 0.6172 0.2748
C18 C 0.3696(3) 0.31176(16) -0.00773(14)
H23 H 0.2773 0.3438 -0.0289
H24 H 0.3739 0.2453 -0.0297
H25 H 0.4598 0.3477 -0.0268
C19 C 0.8435(2) 0.52623(14) 0.21929(12)
H26 H 0.7589 0.5698 0.2337
H27 H 0.9292 0.5643 0.1972
H28 H 0.8759 0.4910 0.2703
C20 C 0.8126(2) 0.51579(13) -0.00177(11)
H29 H 0.8946 0.4664 -0.0030
H30 H 0.7575 0.5146 -0.0567
C21 C 0.8777(2) 0.61644(12) 0.01603(11)
H31 H 0.9245 0.6446 -0.0356
H32 H 0.9550 0.6142 0.0619
loop_
_geom_bond_atom_site_label_1
_geom_bond_atom_site_label_2
_geom_bond_site_symmetry_1
_geom_bond_site_symmetry_2
O1 C9 1_555 1_555
O2 H1 1_555 1_555
O3 H2 1_555 1_555
O4 C4 1_555 1_555
O5 H3 1_555 1_555
C1 H4 1_555 1_555
H5 C1 1_555 1_555
H6 C1 1_555 1_555
C2 C1 1_555 1_555
H7 C2 1_555 1_555
C3 C2 1_555 1_555
C4 C3 1_555 1_555
C5 O5 1_555 1_555
C6 C5 1_555 1_555
H8 C6 1_555 1_555
C7 C6 1_555 1_555
C8 O2 1_555 1_555
C9 C8 1_555 1_555
H9 C9 1_555 1_555
H10 C9 1_555 1_555
C10 O1 1_555 1_555
H11 C10 1_555 1_555
H12 C10 1_555 1_555
H13 C10 1_555 1_555
C11 C7 1_555 1_555
H14 C11 1_555 1_555
C12 C11 1_555 1_555
H15 C12 1_555 1_555
C13 O3 1_555 1_555
H16 C13 1_555 1_555
C14 C13 1_555 1_555
H17 C14 1_555 1_555
H18 C14 1_555 1_555
C15 C3 1_555 1_555
C16 C5 1_555 1_555
H19 C16 1_555 1_555
C17 C16 1_555 1_555
H20 C17 1_555 1_555
H21 C17 1_555 1_555
H22 C17 1_555 1_555
C18 C2 1_555 1_555
H23 C18 1_555 1_555
H24 C18 1_555 1_555
H25 C18 1_555 1_555
C19 C12 1_555 1_555
H26 C19 1_555 1_555
H27 C19 1_555 1_555
H28 C19 1_555 1_555
C20 C11 1_555 1_555
H29 C20 1_555 1_555
H30 C20 1_555 1_555
C21 C8 1_555 1_555
H31 C21 1_555 1_555
H32 C21 1_555 1_555
C4 C5 1_555 1_555
C7 C8 1_555 1_555
C12 C13 1_555 1_555
C14 C15 1_555 1_555
C15 C16 1_555 1_555
C20 C21 1_555 1_555

#END
