
#######################################################################
#
#                 Cambridge Crystallographic Data Centre
#                                CCDC 
#
#######################################################################
#
# If this CIF has been generated from an entry in the Cambridge 
# Structural Database, then it will include bibliographic, chemical, 
# crystal, experimental, refinement or atomic coordinate data resulting 
# from the CCDC's data processing and validation procedures.
#
#######################################################################

data_SIDWAG
_chemical_formula_moiety         'C21 H34 O4'
_chemical_name_systematic        
3-(methoxymethyl)-11,12-dimethyl-7-(propan-2-yl)-1,2,3,6,9,10,11,11a-octahydro-5H-5,8-methanocyclopenta[10]annulene-3,5,10-triol
_symmetry_cell_setting           orthorhombic
_symmetry_space_group_name_H-M   'P 21 21 21'
_symmetry_Int_Tables_number      19
_space_group_name_Hall           'P 2ac 2ab'
loop_
_symmetry_equiv_pos_site_id
_symmetry_equiv_pos_as_xyz
1 x,y,z
2 1/2+x,1/2-y,-z
3 -x,1/2+y,1/2-z
4 1/2-x,-y,1/2+z
_cell_length_a                   8.6478(2)
_cell_length_b                   13.7380(3)
_cell_length_c                   15.9814(3)
_cell_angle_alpha                90
_cell_angle_beta                 90
_cell_angle_gamma                90
_cell_volume                     1898.65
_exptl_crystal_colour            colorless
_exptl_crystal_description       prism
_cell_formula_units_Z            4
loop_
_atom_site_label
_atom_site_type_symbol
_atom_site_fract_x
_atom_site_fract_y
_atom_site_fract_z
O1 O 0.1251(2) 0.67553(14) 0.56784(12)
O2 O 0.3234(3) 0.78580(15) 0.47084(12)
H1 H 0.4189 0.7970 0.4700
O3 O 0.7662(2) 0.84362(14) 0.65580(12)
H2 H 0.7884 0.8193 0.6091
O4 O 0.1699(3) 1.18569(16) 0.73791(14)
H3 H 0.0833 1.1623 0.7253
C1 C 0.7707(5) 1.2447(2) 0.6211(3)
H4 H 0.7639 1.2478 0.6823
H5 H 0.7714 1.3108 0.5981
H6 H 0.8661 1.2111 0.6050
C2 C 0.6323(4) 1.1895(2) 0.58688(19)
H7 H 0.5366 1.2259 0.6027
C3 C 0.6260(3) 1.0904(2) 0.62790(17)
C4 C 0.7182(3) 1.0055(2) 0.59369(16)
H8 H 0.8303 1.0142 0.6038
H9 H 0.7001 0.9968 0.5330
C5 C 0.6527(3) 0.9186(2) 0.64473(16)
C6 C 0.5069(3) 0.87249(19) 0.60918(15)
H10 H 0.5169 0.8039 0.6035
C7 C 0.3693(3) 0.90362(19) 0.58405(15)
C8 C 0.2569(3) 0.8274(2) 0.54540(15)
C9 C 0.2255(3) 0.7451(2) 0.60649(17)
H11 H 0.3240 0.7135 0.6225
H12 H 0.1764 0.7712 0.6578
C10 C 0.1061(4) 0.5922(2) 0.61967(18)
H13 H 0.2044 0.5570 0.6235
H14 H 0.0271 0.5495 0.5955
H15 H 0.0738 0.6127 0.6757
C11 C 0.6404(6) 1.1847(3) 0.4916(2)
H16 H 0.7327 1.1483 0.4747
H17 H 0.6457 1.2509 0.4688
H18 H 0.5479 1.1520 0.4700
C12 C 0.5577(3) 1.06554(19) 0.70045(16)
C13 C 0.6236(3) 0.9682(2) 0.72955(16)
H19 H 0.7285 0.9834 0.7525
C14 C 0.5445(4) 0.9069(2) 0.79606(16)
H20 H 0.5333 0.9452 0.8474
H21 H 0.6070 0.8490 0.8076
H22 H 0.4421 0.8870 0.7761
C15 C 0.4316(4) 1.1209(2) 0.74544(17)
H23 H 0.4729 1.1846 0.7638
H24 H 0.4010 1.0841 0.7961
C16 C 0.2877(3) 1.1379(2) 0.69069(17)
H25 H 0.3180 1.1818 0.6435
C17 C 0.2079(3) 1.04754(19) 0.65294(17)
H26 H 0.1083 1.0729 0.6299
C18 C 0.2950(3) 1.00463(19) 0.57446(17)
H27 H 0.3758 1.0520 0.5560
C19 C 0.1808(4) 0.9869(2) 0.50144(16)
H28 H 0.0980 1.0366 0.5011
H29 H 0.2352 0.9883 0.4469
C20 C 0.1144(4) 0.8858(2) 0.51896(17)
H30 H 0.0663 0.8577 0.4682
H31 H 0.0366 0.8880 0.5644
C21 C 0.1588(4) 0.9741(2) 0.71993(18)
H32 H 0.2495 0.9375 0.7390
H33 H 0.0826 0.9290 0.6963
H34 H 0.1128 1.0087 0.7674
loop_
_geom_bond_atom_site_label_1
_geom_bond_atom_site_label_2
_geom_bond_site_symmetry_1
_geom_bond_site_symmetry_2
O1 C9 1_555 1_555
O2 H1 1_555 1_555
O3 H2 1_555 1_555
O4 H3 1_555 1_555
C1 H4 1_555 1_555
H5 C1 1_555 1_555
H6 C1 1_555 1_555
C2 C1 1_555 1_555
H7 C2 1_555 1_555
C3 C2 1_555 1_555
C4 C3 1_555 1_555
H8 C4 1_555 1_555
H9 C4 1_555 1_555
C5 O3 1_555 1_555
C6 C5 1_555 1_555
H10 C6 1_555 1_555
C7 C6 1_555 1_555
C8 O2 1_555 1_555
C9 C8 1_555 1_555
H11 C9 1_555 1_555
H12 C9 1_555 1_555
C10 O1 1_555 1_555
H13 C10 1_555 1_555
H14 C10 1_555 1_555
H15 C10 1_555 1_555
C11 C2 1_555 1_555
H16 C11 1_555 1_555
H17 C11 1_555 1_555
H18 C11 1_555 1_555
C12 C3 1_555 1_555
C13 C5 1_555 1_555
H19 C13 1_555 1_555
C14 C13 1_555 1_555
H20 C14 1_555 1_555
H21 C14 1_555 1_555
H22 C14 1_555 1_555
C15 C12 1_555 1_555
H23 C15 1_555 1_555
H24 C15 1_555 1_555
C16 O4 1_555 1_555
H25 C16 1_555 1_555
C17 C16 1_555 1_555
H26 C17 1_555 1_555
C18 C7 1_555 1_555
H27 C18 1_555 1_555
C19 C18 1_555 1_555
H28 C19 1_555 1_555
H29 C19 1_555 1_555
C20 C8 1_555 1_555
H30 C20 1_555 1_555
H31 C20 1_555 1_555
C21 C17 1_555 1_555
H32 C21 1_555 1_555
H33 C21 1_555 1_555
H34 C21 1_555 1_555
C4 C5 1_555 1_555
C7 C8 1_555 1_555
C12 C13 1_555 1_555
C15 C16 1_555 1_555
C17 C18 1_555 1_555
C19 C20 1_555 1_555

#END
