
#######################################################################
#
#                 Cambridge Crystallographic Data Centre
#                                CCDC 
#
#######################################################################
#
# If this CIF has been generated from an entry in the Cambridge 
# Structural Database, then it will include bibliographic, chemical, 
# crystal, experimental, refinement or atomic coordinate data resulting 
# from the CCDC's data processing and validation procedures.
#
#######################################################################

data_SIFCUG
_chemical_name_common            
2,6a:6,2a-bis(2',5',8'-trithianonano-1',9'-diyl)-bis((9S,10S)-1,3,5,7-tetraoxadecalin)
_chemical_formula_moiety         'C24 H40 O8 S6'
_chemical_name_systematic        
3,15,20,32,35,36,37,38-octaoxa-6,9,12,23,26,29-hexathiapentacyclo[29.3.1.1^4,34^.1^14,18^.1^17,21^]octatriacontane
_symmetry_cell_setting           monoclinic
_symmetry_space_group_name_H-M   'P 21'
_symmetry_Int_Tables_number      4
_space_group_name_Hall           'P 2yb'
loop_
_symmetry_equiv_pos_site_id
_symmetry_equiv_pos_as_xyz
1 x,y,z
2 -x,1/2+y,-z
_cell_length_a                   5.3950(1)
_cell_length_b                   15.6509(4)
_cell_length_c                   18.4342(6)
_cell_angle_alpha                90
_cell_angle_beta                 98.284(1)
_cell_angle_gamma                90
_cell_volume                     1540.28
_exptl_crystal_colour            yellowish
_exptl_crystal_description       prism
_cell_formula_units_Z            2
loop_
_atom_site_label
_atom_site_type_symbol
_atom_site_fract_x
_atom_site_fract_y
_atom_site_fract_z
S1 S 0.9251(2) 0.49921(9) 0.81914(6)
S2 S 0.6563(3) 0.76283(8) 0.82853(6)
S3 S 0.3363(2) 0.82146(7) 0.59862(6)
S4 S -0.0660(2) 0.24281(8) 0.63431(6)
S5 S 0.5058(5) 0.04486(10) 0.69774(9)
S6 S 0.7947(8) -0.0289(2) 0.92256(19)
C1 C 0.6988(10) 0.5861(4) 0.8192(3)
H1 H 0.5601 0.5786 0.7782
H2 H 0.6275 0.5861 0.8657
C2 C 0.8312(9) 0.6678(3) 0.8107(2)
H3 H 0.8718 0.6711 0.7601
H4 H 0.9914 0.6675 0.8445
C3 C 0.4329(8) 0.7707(3) 0.7447(2)
H5 H 0.3584 0.7138 0.7324
H6 H 0.2960 0.8101 0.7528
C4 C 0.5560(8) 0.8028(3) 0.6811(2)
H7 H 0.6819 0.7604 0.6703
H8 H 0.6453 0.8567 0.6957
C5 C 0.1894(8) 0.7188(3) 0.5775(2)
H9 H 0.1147 0.6994 0.6207
H10 H 0.0509 0.7265 0.5366
C6 C 0.3590(8) 0.6493(3) 0.5569(2)
H11 H 0.4628 0.6714 0.5202
O1 O 0.2017(5) 0.58273(18) 0.52582(14)
O2 O 0.5155(5) 0.62201(19) 0.62078(15)
C7 C 0.6780(8) 0.5536(3) 0.6047(2)
H12 H 0.7805 0.5342 0.6507
H13 H 0.7929 0.5747 0.5714
C8 C 0.5296(7) 0.4803(3) 0.5697(2)
H14 H 0.6462 0.4383 0.5517
C9 C 0.3405(8) 0.5110(3) 0.5049(2)
H15 H 0.4322 0.5281 0.4638
C10 C 0.1572(8) 0.4409(3) 0.4790(2)
H16 H 0.0192 0.4648 0.4435
H17 H 0.2428 0.3966 0.4534
O3 O 0.0557(5) 0.40279(17) 0.53873(14)
O4 O 0.4019(5) 0.43967(18) 0.62367(14)
C11 C 0.2461(7) 0.3727(2) 0.5932(2)
H18 H 0.3475 0.3276 0.5726
C12 C 0.1244(8) 0.3368(3) 0.6558(2)
H19 H 0.0186 0.3819 0.6732
H20 H 0.2579 0.3228 0.6968
C13 C 0.1800(13) 0.1601(3) 0.6337(3)
H21 H 0.1019 0.1078 0.6104
H22 H 0.3042 0.1806 0.6031
C14 C 0.3150(13) 0.1371(4) 0.7082(3)
H23 H 0.1930 0.1241 0.7420
H24 H 0.4212 0.1854 0.7288
C15 C 0.6999(17) 0.0390(5) 0.7899(4)
H25 H 0.8422 -0.0004 0.7876
H26 H 0.7692 0.0963 0.8036
C16 C 0.5531(19) 0.0089(6) 0.8466(5)
H27 H 0.4506 -0.0394 0.8280
H28 H 0.4416 0.0548 0.8565
C17 C 0.9150(14) 0.0757(5) 0.9626(4)
H29 H 1.0424 0.0611 1.0040
H30 H 1.0059 0.1013 0.9244
C18 C 0.7637(10) 0.1471(5) 0.9878(3)
H31 H 0.6751 0.1277 1.0290
O5 O 0.5898(7) 0.1756(3) 0.92808(19)
O6 O 0.9409(6) 0.2095(3) 1.01197(16)
C19 C 0.8317(10) 0.2857(5) 1.0344(2)
H32 H 0.9631 0.3298 1.0457
H33 H 0.7575 0.2746 1.0796
C20 C 0.6319(10) 0.3183(5) 0.9754(2)
H34 H 0.5367 0.3649 0.9962
C21 C 0.4529(9) 0.2485(5) 0.9474(3)
H35 H 0.3516 0.2321 0.9866
C22 C 0.2809(9) 0.2769(5) 0.8807(3)
H36 H 0.1806 0.2277 0.8593
H37 H 0.1641 0.3208 0.8946
O7 O 0.4234(6) 0.3117(3) 0.82721(16)
O8 O 0.7528(6) 0.3530(3) 0.91717(16)
C23 C 0.5764(9) 0.3798(4) 0.8574(2)
H38 H 0.4708 0.4271 0.8728
C24 C 0.7176(9) 0.4100(3) 0.7969(2)
H39 H 0.5939 0.4258 0.7540
H40 H 0.8169 0.3615 0.7820
S7? S 0.6888(8) -0.0082(2) 0.94559(19)
loop_
_geom_bond_atom_site_label_1
_geom_bond_atom_site_label_2
_geom_bond_site_symmetry_1
_geom_bond_site_symmetry_2
S1 C1 1_555 1_555
S2 C2 1_555 1_555
S3 C4 1_555 1_555
S4 C12 1_555 1_555
S5 C14 1_555 1_555
S6 C16 1_555 1_555
C1 H1 1_555 1_555
H2 C1 1_555 1_555
C2 C1 1_555 1_555
H3 C2 1_555 1_555
H4 C2 1_555 1_555
C3 S2 1_555 1_555
H5 C3 1_555 1_555
H6 C3 1_555 1_555
C4 C3 1_555 1_555
H7 C4 1_555 1_555
H8 C4 1_555 1_555
C5 S3 1_555 1_555
H9 C5 1_555 1_555
H10 C5 1_555 1_555
C6 C5 1_555 1_555
H11 C6 1_555 1_555
O1 C6 1_555 1_555
O2 C6 1_555 1_555
C7 O2 1_555 1_555
H12 C7 1_555 1_555
H13 C7 1_555 1_555
C8 C7 1_555 1_555
H14 C8 1_555 1_555
C9 O1 1_555 1_555
H15 C9 1_555 1_555
C10 C9 1_555 1_555
H16 C10 1_555 1_555
H17 C10 1_555 1_555
O3 C10 1_555 1_555
O4 C8 1_555 1_555
C11 O3 1_555 1_555
H18 C11 1_555 1_555
C12 C11 1_555 1_555
H19 C12 1_555 1_555
H20 C12 1_555 1_555
C13 S4 1_555 1_555
H21 C13 1_555 1_555
H22 C13 1_555 1_555
C14 C13 1_555 1_555
H23 C14 1_555 1_555
H24 C14 1_555 1_555
C15 S5 1_555 1_555
H25 C15 1_555 1_555
H26 C15 1_555 1_555
C16 C15 1_555 1_555
H27 C16 1_555 1_555
H28 C16 1_555 1_555
C17 S6 1_555 1_555
H29 C17 1_555 1_555
H30 C17 1_555 1_555
C18 C17 1_555 1_555
H31 C18 1_555 1_555
O5 C18 1_555 1_555
O6 C18 1_555 1_555
C19 O6 1_555 1_555
H32 C19 1_555 1_555
H33 C19 1_555 1_555
C20 C19 1_555 1_555
H34 C20 1_555 1_555
C21 O5 1_555 1_555
H35 C21 1_555 1_555
C22 C21 1_555 1_555
H36 C22 1_555 1_555
H37 C22 1_555 1_555
O7 C22 1_555 1_555
O8 C20 1_555 1_555
C23 O7 1_555 1_555
H38 C23 1_555 1_555
C24 S1 1_555 1_555
H39 C24 1_555 1_555
H40 C24 1_555 1_555
C8 C9 1_555 1_555
O4 C11 1_555 1_555
C20 C21 1_555 1_555
O8 C23 1_555 1_555
C23 C24 1_555 1_555

#END
