
#######################################################################
#
#                 Cambridge Crystallographic Data Centre
#                                CCDC 
#
#######################################################################
#
# If this CIF has been generated from an entry in the Cambridge 
# Structural Database, then it will include bibliographic, chemical, 
# crystal, experimental, refinement or atomic coordinate data resulting 
# from the CCDC's data processing and validation procedures.
#
#######################################################################

data_SIFCOA
_chemical_name_common            
2,6-(2',5',8',11'-tetrathiadodecano-1',12'-diyl)-1,3,5,7-tetraoxadecalin
_chemical_formula_moiety         'C14 H24 O4 S4'
_chemical_name_systematic        
tetrahydro-2,6-(methanothioethanothioethanothioethanothiomethano)[1,3]dioxino[5,4-d][1,3]dioxine
_symmetry_cell_setting           orthorhombic
_symmetry_space_group_name_H-M   'P 21 21 21'
_symmetry_Int_Tables_number      19
_space_group_name_Hall           'P 2ac 2ab'
loop_
_symmetry_equiv_pos_site_id
_symmetry_equiv_pos_as_xyz
1 x,y,z
2 1/2-x,-y,1/2+z
3 1/2+x,1/2-y,-z
4 -x,1/2+y,1/2-z
_cell_length_a                   8.78500(10)
_cell_length_b                   19.1740(2)
_cell_length_c                   20.9130(3)
_cell_angle_alpha                90
_cell_angle_beta                 90
_cell_angle_gamma                90
_cell_volume                     3522.66
_exptl_crystal_colour            colorless
_exptl_crystal_description       plates
_chemical_melting_point          '179-180 deg.C'
_cell_formula_units_Z            8
loop_
_atom_site_label
_atom_site_type_symbol
_atom_site_fract_x
_atom_site_fract_y
_atom_site_fract_z
S1 S 0.01880(7) -0.07948(3) 0.68173(3)
S2 S -0.31119(7) 0.05800(3) 0.58064(4)
S3 S -0.34214(6) 0.24421(3) 0.56144(3)
S4 S 0.04526(7) 0.37108(3) 0.63599(3)
C1 C 0.0953(3) -0.01358(13) 0.73502(12)
H1 H 0.0127 0.0195 0.7458
H2 H 0.1271 -0.0367 0.7752
C2 C -0.0798(3) -0.03007(13) 0.62015(12)
H3 H -0.0073 0.0032 0.6006
H4 H -0.1134 -0.0626 0.5862
C3 C -0.2172(3) 0.01016(14) 0.64423(13)
H5 H -0.1842 0.0433 0.6778
H6 H -0.2904 -0.0228 0.6637
C4 C -0.1642(2) 0.12131(12) 0.56246(12)
H7 H -0.1236 0.1407 0.6029
H8 H -0.0795 0.0977 0.5400
C5 C -0.2234(3) 0.18059(12) 0.52104(12)
H9 H -0.2826 0.1602 0.4853
H10 H -0.1351 0.2052 0.5022
C6 C -0.2074(2) 0.28475(13) 0.61588(11)
H11 H -0.2629 0.3175 0.6441
H12 H -0.1617 0.2482 0.6432
C7 C -0.0806(2) 0.32410(12) 0.58219(11)
H13 H -0.1265 0.3577 0.5519
H14 H -0.0195 0.2905 0.5570
C8 C 0.1169(3) 0.30558(12) 0.69034(11)
H15 H 0.1707 0.3294 0.7258
H16 H 0.0293 0.2804 0.7090
C9 C 0.2234(2) 0.25301(11) 0.66112(11)
H17 H 0.3113 0.2770 0.6402
O1 O 0.27510(17) 0.20921(8) 0.71146(7)
C10 C 0.3754(2) 0.15575(12) 0.68809(11)
H18 H 0.4703 0.1777 0.6709
C11 C 0.4153(3) 0.10799(12) 0.74263(12)
H19 H 0.4999 0.0770 0.7295
H20 H 0.4505 0.1361 0.7795
O2 O 0.28695(17) 0.06624(8) 0.76177(8)
C12 C 0.2284(3) 0.02757(12) 0.70960(12)
H21 H 0.3080 -0.0046 0.6924
O3 O 0.17546(16) 0.07279(8) 0.66066(7)
C13 C 0.2984(3) 0.11346(11) 0.63534(11)
H22 H 0.3747 0.0819 0.6147
C14 C 0.2336(2) 0.16269(11) 0.58599(11)
H23 H 0.3178 0.1858 0.5628
H24 H 0.1728 0.1360 0.5546
O4 O 0.13962(16) 0.21426(8) 0.61556(7)
S5 S 0.51893(8) -0.08800(3) 0.88698(3)
S6 S 0.14646(7) 0.04287(4) 0.96986(4)
S7 S 0.17786(7) 0.22506(4) 0.93968(3)
S8 S 0.51010(8) 0.36135(3) 0.83714(3)
C15 C 0.5972(3) -0.02252(12) 0.83440(12)
H25 H 0.6523 -0.0464 0.7994
H26 H 0.5120 0.0037 0.8149
C16 C 0.3967(3) -0.04008(13) 0.94158(13)
H27 H 0.3481 -0.0739 0.9709
H28 H 0.4614 -0.0090 0.9678
C17 C 0.2728(3) 0.00360(14) 0.91113(13)
H29 H 0.2123 -0.0261 0.8819
H30 H 0.3203 0.0410 0.8853
C18 C 0.2687(3) 0.10714(15) 1.00706(13)
H31 H 0.2121 0.1285 1.0430
H32 H 0.3574 0.0825 1.0255
C19 C 0.3283(3) 0.16567(14) 0.96474(13)
H33 H 0.3770 0.1452 0.9264
H34 H 0.4068 0.1922 0.9884
C20 C 0.2763(3) 0.27105(14) 0.87581(12)
H35 H 0.3133 0.2367 0.8441
H36 H 0.2033 0.3023 0.8539
C21 C 0.4101(3) 0.31392(13) 0.89959(12)
H37 H 0.4830 0.2824 0.9212
H38 H 0.3728 0.3477 0.9318
C22 C 0.5891(3) 0.29393(13) 0.78661(12)
H39 H 0.5066 0.2608 0.7757
H40 H 0.6236 0.3158 0.7463
C23 C 0.7204(3) 0.25291(12) 0.81430(11)
H41 H 0.7993 0.2854 0.8317
O5 O 0.66461(16) 0.20917(8) 0.86353(7)
C24 C 0.7848(2) 0.16768(12) 0.89095(11)
H42 H 0.8607 0.1990 0.9121
C25 C 0.7148(2) 0.12010(12) 0.94019(11)
H43 H 0.7962 0.0961 0.9644
H44 H 0.6538 0.1479 0.9708
O6 O 0.61954(17) 0.06957(8) 0.90968(8)
C26 C 0.7046(3) 0.02903(12) 0.86557(11)
H45 H 0.7889 0.0039 0.8880
O7 O 0.76320(17) 0.07109(8) 0.81575(8)
C27 C 0.8640(2) 0.12461(12) 0.83936(11)
H46 H 0.9575 0.1025 0.8576
C28 C 0.9076(3) 0.17141(12) 0.78451(12)
H47 H 0.9921 0.2023 0.7980
H48 H 0.9441 0.1425 0.7484
O8 O 0.78164(18) 0.21325(9) 0.76366(8)
loop_
_geom_bond_atom_site_label_1
_geom_bond_atom_site_label_2
_geom_bond_site_symmetry_1
_geom_bond_site_symmetry_2
S1 C1 1_555 1_555
S2 C3 1_555 1_555
S3 C5 1_555 1_555
S4 C7 1_555 1_555
C1 H1 1_555 1_555
H2 C1 1_555 1_555
C2 S1 1_555 1_555
H3 C2 1_555 1_555
H4 C2 1_555 1_555
C3 C2 1_555 1_555
H5 C3 1_555 1_555
H6 C3 1_555 1_555
C4 S2 1_555 1_555
H7 C4 1_555 1_555
H8 C4 1_555 1_555
C5 C4 1_555 1_555
H9 C5 1_555 1_555
H10 C5 1_555 1_555
C6 S3 1_555 1_555
H11 C6 1_555 1_555
H12 C6 1_555 1_555
C7 C6 1_555 1_555
H13 C7 1_555 1_555
H14 C7 1_555 1_555
C8 S4 1_555 1_555
H15 C8 1_555 1_555
H16 C8 1_555 1_555
C9 C8 1_555 1_555
H17 C9 1_555 1_555
O1 C9 1_555 1_555
C10 O1 1_555 1_555
H18 C10 1_555 1_555
C11 C10 1_555 1_555
H19 C11 1_555 1_555
H20 C11 1_555 1_555
O2 C11 1_555 1_555
C12 C1 1_555 1_555
H21 C12 1_555 1_555
O3 C12 1_555 1_555
C13 C10 1_555 1_555
H22 C13 1_555 1_555
C14 C13 1_555 1_555
H23 C14 1_555 1_555
H24 C14 1_555 1_555
O4 C9 1_555 1_555
S5 C15 1_555 1_555
S6 C17 1_555 1_555
S7 C19 1_555 1_555
S8 C21 1_555 1_555
C15 H25 1_555 1_555
H26 C15 1_555 1_555
C16 S5 1_555 1_555
H27 C16 1_555 1_555
H28 C16 1_555 1_555
C17 C16 1_555 1_555
H29 C17 1_555 1_555
H30 C17 1_555 1_555
C18 S6 1_555 1_555
H31 C18 1_555 1_555
H32 C18 1_555 1_555
C19 C18 1_555 1_555
H33 C19 1_555 1_555
H34 C19 1_555 1_555
C20 S7 1_555 1_555
H35 C20 1_555 1_555
H36 C20 1_555 1_555
C21 C20 1_555 1_555
H37 C21 1_555 1_555
H38 C21 1_555 1_555
C22 S8 1_555 1_555
H39 C22 1_555 1_555
H40 C22 1_555 1_555
C23 C22 1_555 1_555
H41 C23 1_555 1_555
O5 C23 1_555 1_555
C24 O5 1_555 1_555
H42 C24 1_555 1_555
C25 C24 1_555 1_555
H43 C25 1_555 1_555
H44 C25 1_555 1_555
O6 C25 1_555 1_555
C26 C15 1_555 1_555
H45 C26 1_555 1_555
O7 C26 1_555 1_555
C27 C24 1_555 1_555
H46 C27 1_555 1_555
C28 C27 1_555 1_555
H47 C28 1_555 1_555
H48 C28 1_555 1_555
O8 C23 1_555 1_555
O2 C12 1_555 1_555
O3 C13 1_555 1_555
C14 O4 1_555 1_555
O6 C26 1_555 1_555
O7 C27 1_555 1_555
C28 O8 1_555 1_555

#END
