
#######################################################################
#
#                 Cambridge Crystallographic Data Centre
#                                CCDC 
#
#######################################################################
#
# If this CIF has been generated from an entry in the Cambridge 
# Structural Database, then it will include bibliographic, chemical, 
# crystal, experimental, refinement or atomic coordinate data resulting 
# from the CCDC's data processing and validation procedures.
#
#######################################################################

data_SIFHIB
_chemical_formula_moiety         'C23 H17 N3 O3,C2 H6 O1 S1'
_chemical_name_systematic        
'methyl 1-(1-acetyl-1H-indol-3-yl)-9H-\b-carboline-3-carboxylate dimethyl sulfoxide solvate'
_symmetry_cell_setting           triclinic
_symmetry_space_group_name_H-M   'P -1'
_symmetry_Int_Tables_number      2
_space_group_name_Hall           '-P 1'
loop_
_symmetry_equiv_pos_site_id
_symmetry_equiv_pos_as_xyz
1 x,y,z
2 -x,-y,-z
_cell_length_a                   9.7116(3)
_cell_length_b                   11.3423(3)
_cell_length_c                   11.4197(5)
_cell_angle_alpha                114.976(4)
_cell_angle_beta                 90.800(3)
_cell_angle_gamma                106.549(3)
_cell_volume                     1079.91
_exptl_crystal_colour            colorless
_exptl_crystal_description       block
_cell_formula_units_Z            2
loop_
_atom_site_label
_atom_site_type_symbol
_atom_site_fract_x
_atom_site_fract_y
_atom_site_fract_z
S1 S -0.10002(4) 0.26212(4) 0.58591(4)
O1 O -0.00358(13) 0.34391(12) 0.52578(12)
C1 C -0.1529(2) 0.08609(17) 0.46575(18)
H1 H -0.213431 0.073908 0.391648
H2 H -0.205897 0.028312 0.502807
H3 H -0.067743 0.061823 0.438455
C2 C 0.0215(2) 0.2519(2) 0.69805(18)
H4 H 0.097631 0.221691 0.654617
H5 H -0.031047 0.187816 0.728789
H6 H 0.063003 0.340824 0.770856
O2 O 0.61550(12) 1.19911(11) 0.90335(11)
O3 O 0.33884(13) 0.21087(11) 0.16524(11)
O4 O 0.69722(13) 1.09521(12) 0.71606(12)
N1 N 0.47520(15) 0.85621(13) 0.65455(13)
N2 N 0.14572(15) 0.62432(13) 0.69637(13)
H7 H 0.120810 0.541339 0.635652
N3 N 0.34942(15) 0.40938(13) 0.34105(13)
C3 C 0.43737(17) 0.50235(16) 0.30015(16)
C4 C 0.45363(17) 0.63576(16) 0.39642(16)
C5 C 0.27305(18) 0.84888(16) 0.82204(16)
C6 C 0.60995(18) 1.09132(17) 0.78949(16)
C7 C 0.38615(18) 0.97052(16) 0.85466(16)
H8 H 0.395754 1.049460 0.931309
C8 C 0.09551(18) 0.88634(17) 0.99305(16)
H9 H 0.145426 0.978319 1.047317
C9 C 0.14881(18) 0.81245(16) 0.88155(16)
C10 C 0.07192(18) 0.67327(16) 0.80000(16)
C11 C 0.50072(18) 0.47836(17) 0.18702(16)
H10 H 0.490820 0.389745 0.124695
C12 C 0.48357(18) 0.96760(16) 0.76679(16)
C13 C 0.36986(18) 0.73716(16) 0.62290(16)
C14 C 0.26552(18) 0.73041(16) 0.70657(16)
C15 C -0.05817(18) 0.60603(17) 0.82786(17)
H11 H -0.109245 0.514288 0.773780
C16 C 0.57914(18) 0.59242(17) 0.17153(17)
H12 H 0.622534 0.579935 0.096963
C17 C 0.53353(18) 0.74923(17) 0.37799(16)
H13 H 0.545039 0.838215 0.440361
C18 C -0.10820(18) 0.68101(17) 0.93889(17)
H14 H -0.194309 0.638272 0.959921
C19 C 0.59463(18) 0.72583(17) 0.26526(16)
H15 H 0.647064 0.800080 0.251333
C20 C 0.37416(17) 0.62226(16) 0.49963(16)
C21 C 0.30142(18) 0.26542(17) 0.27043(16)
C22 C -0.03310(18) 0.81937(17) 1.02062(17)
H16 H -0.070198 0.866805 1.094376
C23 C 0.31290(18) 0.48526(17) 0.46170(16)
H17 H 0.254925 0.447537 0.509388
C24 C 0.20307(19) 0.18855(17) 0.33220(17)
H18 H 0.115515 0.212861 0.341585
H19 H 0.251125 0.211775 0.416728
H20 H 0.179397 0.091656 0.277978
C25 C 0.73209(19) 1.32340(17) 0.93023(18)
H21 H 0.718220 1.354331 0.865947
H22 H 0.823239 1.305667 0.927039
H23 H 0.732420 1.392964 1.015580
loop_
_geom_bond_atom_site_label_1
_geom_bond_atom_site_label_2
_geom_bond_site_symmetry_1
_geom_bond_site_symmetry_2
S1 O1 1_555 1_555
C1 S1 1_555 1_555
H1 C1 1_555 1_555
H2 C1 1_555 1_555
H3 C1 1_555 1_555
C2 S1 1_555 1_555
H4 C2 1_555 1_555
H5 C2 1_555 1_555
H6 C2 1_555 1_555
O2 C6 1_555 1_555
O3 C21 1_555 1_555
O4 C6 1_555 1_555
N1 C12 1_555 1_555
N2 H7 1_555 1_555
N3 C3 1_555 1_555
C3 C4 1_555 1_555
C4 C17 1_555 1_555
C5 C7 1_555 1_555
C6 C12 1_555 1_555
C7 H8 1_555 1_555
C8 H9 1_555 1_555
C9 C5 1_555 1_555
C10 N2 1_555 1_555
C11 C3 1_555 1_555
H10 C11 1_555 1_555
C12 C7 1_555 1_555
C13 N1 1_555 1_555
C14 N2 1_555 1_555
C15 C10 1_555 1_555
H11 C15 1_555 1_555
C16 C11 1_555 1_555
H12 C16 1_555 1_555
C17 H13 1_555 1_555
C18 C15 1_555 1_555
H14 C18 1_555 1_555
C19 C16 1_555 1_555
H15 C19 1_555 1_555
C20 C4 1_555 1_555
C21 N3 1_555 1_555
C22 C8 1_555 1_555
H16 C22 1_555 1_555
C23 N3 1_555 1_555
H17 C23 1_555 1_555
C24 C21 1_555 1_555
H18 C24 1_555 1_555
H19 C24 1_555 1_555
H20 C24 1_555 1_555
C25 O2 1_555 1_555
H21 C25 1_555 1_555
H22 C25 1_555 1_555
H23 C25 1_555 1_555
C5 C14 1_555 1_555
C8 C9 1_555 1_555
C9 C10 1_555 1_555
C13 C14 1_555 1_555
C13 C20 1_555 1_555
C17 C19 1_555 1_555
C18 C22 1_555 1_555
C20 C23 1_555 1_555

#END
