
#######################################################################
#
#                 Cambridge Crystallographic Data Centre
#                                CCDC 
#
#######################################################################
#
# If this CIF has been generated from an entry in the Cambridge 
# Structural Database, then it will include bibliographic, chemical, 
# crystal, experimental, refinement or atomic coordinate data resulting 
# from the CCDC's data processing and validation procedures.
#
#######################################################################

data_SIFJUP
_chemical_formula_moiety         'C25 H24 N2 O4'
_chemical_name_systematic        
8-methoxy-N-[2-(morpholin-4-yl)-2-oxoethyl]-11H-benzo[b]fluorene-10-carboxamide
_symmetry_cell_setting           triclinic
_symmetry_space_group_name_H-M   'P -1'
_symmetry_Int_Tables_number      2
_space_group_name_Hall           '-P 1'
loop_
_symmetry_equiv_pos_site_id
_symmetry_equiv_pos_as_xyz
1 x,y,z
2 -x,-y,-z
_cell_length_a                   10.0005(14)
_cell_length_b                   11.1254(16)
_cell_length_c                   11.587(3)
_cell_angle_alpha                115.958(2)
_cell_angle_beta                 111.179(2)
_cell_angle_gamma                97.017(2)
_cell_volume                     1018.62
_exptl_crystal_colour            colorless
_exptl_crystal_description       block
_cell_formula_units_Z            2
loop_
_atom_site_label
_atom_site_type_symbol
_atom_site_fract_x
_atom_site_fract_y
_atom_site_fract_z
C1 C 0.8581(2) 0.2623(2) 0.2726(2)
C2 C 0.8708(2) 0.1257(2) 0.2258(2)
H1 H 0.8008 0.0551 0.2173
C3 C 0.9861(2) 0.0968(2) 0.1927(2)
C4 C 1.0925(3) 0.2029(3) 0.2046(2)
H2 H 1.1706 0.1826 0.1823
C5 C 1.0817(2) 0.3337(3) 0.2482(2)
H3 H 1.1526 0.4023 0.2551
C6 C 0.9650(2) 0.3692(2) 0.2838(2)
C7 C 0.9529(2) 0.5054(2) 0.3299(2)
H4 H 1.0241 0.5761 0.3398
C8 C 0.8359(2) 0.5338(2) 0.3602(2)
C9 C 0.7924(3) 0.6617(2) 0.4036(2)
C10 C 0.8545(3) 0.7904(2) 0.4210(2)
H5 H 0.9392 0.8074 0.4071
C11 C 0.7874(3) 0.8932(3) 0.4595(3)
H6 H 0.8264 0.9796 0.4697
C12 C 0.6642(4) 0.8695(3) 0.4829(3)
H7 H 0.6219 0.9407 0.5102
C13 C 0.6017(3) 0.7417(2) 0.4666(3)
H8 H 0.5186 0.7264 0.4830
C14 C 0.6658(3) 0.6372(2) 0.4255(2)
C15 C 0.6155(3) 0.4877(2) 0.3931(3)
H9 H 0.5125 0.4349 0.3147
H10 H 0.6209 0.4871 0.4781
C16 C 0.7288(2) 0.4277(2) 0.3498(2)
C17 C 0.7391(2) 0.2955(2) 0.3082(2)
C18 C 0.6306(2) 0.1856(2) 0.3040(2)
C19 C 0.3908(2) -0.0067(2) 0.1585(2)
H11 H 0.2900 -0.0219 0.0895
H12 H 0.3893 0.0166 0.2490
C20 C 0.4294(2) -0.1424(2) 0.1013(2)
C21 C 0.8970(3) -0.1437(3) 0.1217(3)
H13 H 0.9230 -0.2286 0.0881
H14 H 0.7993 -0.1591 0.0500
H15 H 0.8935 -0.1194 0.2106
N1 N 0.5000(2) 0.11074(19) 0.1823(2)
H16 H 0.493(3) 0.120(2) 0.117(3)
N2 N 0.3530(2) -0.2509(2) 0.0992(2)
O1 O 0.66106(18) 0.16954(18) 0.40654(18)
O2 O 1.00781(18) -0.03176(18) 0.14563(18)
O3 O 0.2201(2) -0.4765(2) 0.1131(3)
O4 O 0.52511(16) -0.15150(16) 0.05757(17)
C22 C 0.2764(8) -0.2324(6) 0.1921(9)
H17 H 0.3534 -0.1686 0.2921
H18 H 0.2051 -0.1842 0.1705
C23 C 0.2042(18) -0.3411(16) 0.1847(14)
H19 H 0.0968 -0.3539 0.1386
H20 H 0.2315 -0.3165 0.2835
C24 C 0.3462(13) -0.4686(11) 0.0903(13)
H21 H 0.4251 -0.4676 0.1702
H22 H 0.3204 -0.5584 0.0041
C25 C 0.4124(9) -0.3712(9) 0.0752(9)
H23 H 0.4022 -0.4163 -0.0221
H24 H 0.5201 -0.3334 0.1424
C26? C 0.2035(9) -0.2651(8) 0.1047(11)
H25? H 0.2140 -0.1783 0.1863
H26? H 0.1262 -0.2764 0.0171
C27? C 0.1591(12) -0.3697(11) 0.1167(13)
H27? H 0.0540 -0.4194 0.0419
H28? H 0.1553 -0.3272 0.2081
C28? C 0.2810(10) -0.5006(7) 0.0103(9)
H29? H 0.3490 -0.5538 0.0238
H30? H 0.1964 -0.5618 -0.0864
C29? C 0.3517(15) -0.3967(13) 0.0120(11)
H31? H 0.3112 -0.4197 -0.0877
H32? H 0.4569 -0.3929 0.0437
loop_
_geom_bond_atom_site_label_1
_geom_bond_atom_site_label_2
_geom_bond_site_symmetry_1
_geom_bond_site_symmetry_2
C1 C2 1_555 1_555
C2 H1 1_555 1_555
C3 C2 1_555 1_555
C4 C3 1_555 1_555
H2 C4 1_555 1_555
C5 C4 1_555 1_555
H3 C5 1_555 1_555
C6 C1 1_555 1_555
C7 C6 1_555 1_555
H4 C7 1_555 1_555
C8 C7 1_555 1_555
C9 C8 1_555 1_555
C10 C9 1_555 1_555
H5 C10 1_555 1_555
C11 C10 1_555 1_555
H6 C11 1_555 1_555
C12 C11 1_555 1_555
H7 C12 1_555 1_555
C13 C12 1_555 1_555
H8 C13 1_555 1_555
C14 C9 1_555 1_555
C15 C14 1_555 1_555
H9 C15 1_555 1_555
H10 C15 1_555 1_555
C16 C8 1_555 1_555
C17 C1 1_555 1_555
C18 C17 1_555 1_555
C19 H11 1_555 1_555
H12 C19 1_555 1_555
C20 C19 1_555 1_555
C21 H13 1_555 1_555
H14 C21 1_555 1_555
H15 C21 1_555 1_555
N1 C18 1_555 1_555
H16 N1 1_555 1_555
N2 C20 1_555 1_555
O1 C18 1_555 1_555
O2 C3 1_555 1_555
O3 C23 1_555 1_555
O4 C20 1_555 1_555
C22 N2 1_555 1_555
H17 C22 1_555 1_555
H18 C22 1_555 1_555
C23 C22 1_555 1_555
H19 C23 1_555 1_555
H20 C23 1_555 1_555
C24 O3 1_555 1_555
H21 C24 1_555 1_555
H22 C24 1_555 1_555
C25 N2 1_555 1_555
H23 C25 1_555 1_555
H24 C25 1_555 1_555
C5 C6 1_555 1_555
C13 C14 1_555 1_555
C15 C16 1_555 1_555
C16 C17 1_555 1_555
C19 N1 1_555 1_555
C21 O2 1_555 1_555
C24 C25 1_555 1_555

#END
