
#######################################################################
#
#                 Cambridge Crystallographic Data Centre
#                                CCDC 
#
#######################################################################
#
# If this CIF has been generated from an entry in the Cambridge 
# Structural Database, then it will include bibliographic, chemical, 
# crystal, experimental, refinement or atomic coordinate data resulting 
# from the CCDC's data processing and validation procedures.
#
#######################################################################

data_SIFKAW
_chemical_formula_moiety         'C23 H19 N1 O5'
_chemical_name_systematic        
'ethyl 4-[2-(4-methoxyphenyl)-1-benzofuran-4-carbonyl]-1H-pyrrole-2-carboxylate'
_symmetry_cell_setting           monoclinic
_symmetry_space_group_name_H-M   'P 21/n'
_symmetry_Int_Tables_number      14
_space_group_name_Hall           '-P 2yn'
loop_
_symmetry_equiv_pos_site_id
_symmetry_equiv_pos_as_xyz
1 x,y,z
2 1/2-x,1/2+y,1/2-z
3 -x,-y,-z
4 1/2+x,1/2-y,1/2+z
_cell_length_a                   7.1401(10)
_cell_length_b                   23.423(3)
_cell_length_c                   11.8032(16)
_cell_angle_alpha                90
_cell_angle_beta                 104.621(2)
_cell_angle_gamma                90
_cell_volume                     1910.07
_exptl_crystal_colour            'pale yellow'
_exptl_crystal_description       block
_cell_formula_units_Z            4
loop_
_atom_site_label
_atom_site_type_symbol
_atom_site_fract_x
_atom_site_fract_y
_atom_site_fract_z
N1 N -0.3808(2) 0.05033(8) 0.08842(16)
H1 H -0.5054(15) 0.0516(10) 0.080(2)
O1 O 1.0938(2) 0.33650(7) -0.08527(14)
O2 O 0.2488(2) 0.22995(6) -0.23787(12)
O3 O 0.22781(18) 0.08608(6) 0.06461(12)
O4 O -0.4819(3) -0.02362(9) 0.24759(17)
O5 O -0.1699(3) -0.04025(8) 0.33075(16)
C1 C 0.3864(3) 0.22427(8) -0.13271(17)
C2 C 0.3298(3) 0.18616(8) -0.06299(17)
H2 H 0.3979 0.1760 0.0123
C3 C 0.1460(3) 0.16401(8) -0.12544(16)
C4 C 0.0141(3) 0.12332(8) -0.10405(17)
C5 C -0.1502(3) 0.11284(9) -0.19450(18)
H3 H -0.2376 0.0851 -0.1843
C6 C -0.1869(3) 0.14258(10) -0.29885(19)
H4 H -0.2987 0.1344 -0.3567
C7 C -0.0633(3) 0.18382(10) -0.31975(19)
H5 H -0.0899 0.2046 -0.3891
C8 C 0.1018(3) 0.19262(9) -0.23228(18)
C9 C 0.0579(3) 0.09188(8) 0.00840(17)
C10 C -0.0967(3) 0.06914(8) 0.05520(17)
C11 C -0.0710(3) 0.03087(8) 0.15066(17)
H6 H 0.0465 0.0161 0.1935
C12 C -0.2473(3) 0.01951(9) 0.16881(18)
C13 C -0.2938(3) 0.08023(9) 0.02070(18)
H7 H -0.3548 0.1045 -0.0397
C14 C 0.5644(3) 0.25637(8) -0.12237(16)
C15 C 0.7203(3) 0.24810(9) -0.02528(18)
H8 H 0.7067 0.2235 0.0339
C16 C 0.8924(3) 0.27547(9) -0.01540(18)
H9 H 0.9945 0.2694 0.0501
C17 C 0.9155(3) 0.31229(9) -0.10282(18)
C18 C 0.7629(3) 0.32209(9) -0.19911(18)
H10 H 0.7766 0.3472 -0.2576
C19 C 0.5894(3) 0.29414(9) -0.20751(18)
H11 H 0.4865 0.3009 -0.2722
C20 C 1.1275(4) 0.37270(11) -0.1741(2)
H12 H 1.2577 0.3869 -0.1512
H13 H 1.0384 0.4041 -0.1855
H14 H 1.1092 0.3516 -0.2457
C21 C -0.3146(4) -0.01699(10) 0.2513(2)
C22 C -0.2209(5) -0.07588(14) 0.4192(3)
H15 H -0.3403 -0.0960 0.3847
H16 H -0.1201 -0.1041 0.4465
C23 C -0.2448(7) -0.0427(2) 0.5171(4)
H17 H -0.2783 -0.0675 0.5737
H18 H -0.3461 -0.0152 0.4905
H19 H -0.1261 -0.0233 0.5523
loop_
_geom_bond_atom_site_label_1
_geom_bond_atom_site_label_2
_geom_bond_site_symmetry_1
_geom_bond_site_symmetry_2
N1 H1 1_555 1_555
O1 C17 1_555 1_555
O2 C1 1_555 1_555
O3 C9 1_555 1_555
O4 C21 1_555 1_555
O5 C21 1_555 1_555
C1 C2 1_555 1_555
C2 H2 1_555 1_555
C3 C2 1_555 1_555
C4 C3 1_555 1_555
C5 C4 1_555 1_555
H3 C5 1_555 1_555
C6 C5 1_555 1_555
H4 C6 1_555 1_555
C7 C6 1_555 1_555
H5 C7 1_555 1_555
C8 O2 1_555 1_555
C9 C4 1_555 1_555
C10 C9 1_555 1_555
C11 C10 1_555 1_555
H6 C11 1_555 1_555
C12 N1 1_555 1_555
C13 N1 1_555 1_555
H7 C13 1_555 1_555
C14 C1 1_555 1_555
C15 C14 1_555 1_555
H8 C15 1_555 1_555
C16 C15 1_555 1_555
H9 C16 1_555 1_555
C17 C16 1_555 1_555
C18 C17 1_555 1_555
H10 C18 1_555 1_555
C19 C14 1_555 1_555
H11 C19 1_555 1_555
C20 O1 1_555 1_555
H12 C20 1_555 1_555
H13 C20 1_555 1_555
H14 C20 1_555 1_555
C21 C12 1_555 1_555
C22 O5 1_555 1_555
H15 C22 1_555 1_555
H16 C22 1_555 1_555
C23 C22 1_555 1_555
H17 C23 1_555 1_555
H18 C23 1_555 1_555
H19 C23 1_555 1_555
C3 C8 1_555 1_555
C7 C8 1_555 1_555
C10 C13 1_555 1_555
C11 C12 1_555 1_555
C18 C19 1_555 1_555

#END
