
#######################################################################
#
#                 Cambridge Crystallographic Data Centre
#                                CCDC 
#
#######################################################################
#
# If this CIF has been generated from an entry in the Cambridge 
# Structural Database, then it will include bibliographic, chemical, 
# crystal, experimental, refinement or atomic coordinate data resulting 
# from the CCDC's data processing and validation procedures.
#
#######################################################################

data_SIFNUT
_chemical_formula_moiety         'C19 H22 I1 N1 O3 S1'
_chemical_name_systematic        
N-(2-iodo-1-methoxyprop-2-en-1-yl)-4-methyl-N-(2-phenylethyl)benzene-1-sulfonamide
_symmetry_cell_setting           monoclinic
_symmetry_space_group_name_H-M   'P 21/c'
_symmetry_Int_Tables_number      14
_space_group_name_Hall           '-P 2ybc'
loop_
_symmetry_equiv_pos_site_id
_symmetry_equiv_pos_as_xyz
1 x,y,z
2 -x,1/2+y,1/2-z
3 -x,-y,-z
4 x,1/2-y,1/2+z
_cell_length_a                   14.7889(4)
_cell_length_b                   11.9442(4)
_cell_length_c                   11.6986(4)
_cell_angle_alpha                90
_cell_angle_beta                 99.042(3)
_cell_angle_gamma                90
_cell_volume                     2040.78
_exptl_crystal_colour            'light colorless'
_exptl_crystal_description       plate
_cell_formula_units_Z            4
loop_
_atom_site_label
_atom_site_type_symbol
_atom_site_fract_x
_atom_site_fract_y
_atom_site_fract_z
I1 I 0.54905(3) 0.40601(4) 0.65482(4)
S1 S 0.26845(10) 0.57667(10) 0.56461(10)
O1 O 0.3281(3) 0.5037(3) 0.8357(3)
N1 N 0.3185(3) 0.4712(3) 0.6386(3)
O2 O 0.2260(4) 0.5304(4) 0.4577(3)
O3 O 0.3357(3) 0.6621(4) 0.5658(4)
C1 C 0.1813(3) 0.6280(4) 0.6379(4)
C2 C 0.2645(3) 0.3667(4) 0.6369(4)
H1 H 0.2003 0.3833 0.6116
H2 H 0.2709 0.3361 0.7146
C3 C 0.3806(3) 0.4963(4) 0.7451(4)
H3 H 0.4109 0.5681 0.7369
C4 C 0.4524(4) 0.4048(4) 0.7694(5)
C5 C 0.1356(4) 0.7433(4) 0.7837(5)
H4 H 0.1502 0.7963 0.8419
C6 C 0.0475(4) 0.7038(4) 0.7600(4)
C7 C 0.0938(4) 0.5867(5) 0.6122(5)
H5 H 0.0794 0.5334 0.5541
C8 C 0.2031(4) 0.7064(4) 0.7236(5)
H6 H 0.2624 0.7342 0.7410
C9 C 0.2418(4) 0.1744(5) 0.5545(5)
C10 C 0.2964(5) 0.2798(5) 0.5557(5)
H7 H 0.2898 0.3103 0.4779
H8 H 0.3607 0.2632 0.5808
C11 C 0.4577(4) 0.3265(6) 0.8506(4)
H9 H 0.4143 0.3240 0.9001
H10 H 0.5048 0.2741 0.8580
C12 C 0.0271(4) 0.6251(6) 0.6736(6)
H11 H -0.0322 0.5974 0.6563
C13 C 0.1766(5) 0.1453(6) 0.4621(5)
H12 H 0.1655 0.1918 0.3976
C14 C 0.2539(6) 0.1041(5) 0.6500(6)
H13 H 0.2980 0.1221 0.7130
C15 C 0.3685(6) 0.5665(7) 0.9322(6)
H14 H 0.4311 0.5822 0.9257
H15 H 0.3661 0.5245 1.0016
H16 H 0.3357 0.6356 0.9351
C16 C -0.0234(6) 0.7469(7) 0.8274(7)
H17 H -0.0069 0.7265 0.9073
H18 H -0.0818 0.7149 0.7971
H19 H -0.0269 0.8270 0.8208
C17 C 0.1271(6) 0.0458(8) 0.4649(8)
H20 H 0.0848 0.0249 0.4011
C18 C 0.2021(6) 0.0079(6) 0.6544(7)
H21 H 0.2096 -0.0364 0.7206
C19 C 0.1406(7) -0.0205(7) 0.5607(9)
H22 H 0.1071 -0.0863 0.5618
loop_
_geom_bond_atom_site_label_1
_geom_bond_atom_site_label_2
_geom_bond_site_symmetry_1
_geom_bond_site_symmetry_2
I1 C4 1_555 1_555
S1 N1 1_555 1_555
O1 C3 1_555 1_555
N1 C2 1_555 1_555
O2 S1 1_555 1_555
O3 S1 1_555 1_555
C1 S1 1_555 1_555
C2 H1 1_555 1_555
H2 C2 1_555 1_555
C3 N1 1_555 1_555
H3 C3 1_555 1_555
C4 C3 1_555 1_555
C5 H4 1_555 1_555
C6 C5 1_555 1_555
C7 C1 1_555 1_555
H5 C7 1_555 1_555
C8 C1 1_555 1_555
H6 C8 1_555 1_555
C9 C10 1_555 1_555
C10 C2 1_555 1_555
H7 C10 1_555 1_555
H8 C10 1_555 1_555
C11 C4 1_555 1_555
H9 C11 1_555 1_555
H10 C11 1_555 1_555
C12 C6 1_555 1_555
H11 C12 1_555 1_555
C13 C9 1_555 1_555
H12 C13 1_555 1_555
C14 C9 1_555 1_555
H13 C14 1_555 1_555
C15 O1 1_555 1_555
H14 C15 1_555 1_555
H15 C15 1_555 1_555
H16 C15 1_555 1_555
C16 C6 1_555 1_555
H17 C16 1_555 1_555
H18 C16 1_555 1_555
H19 C16 1_555 1_555
C17 C13 1_555 1_555
H20 C17 1_555 1_555
C18 C14 1_555 1_555
H21 C18 1_555 1_555
C19 C17 1_555 1_555
H22 C19 1_555 1_555
C5 C8 1_555 1_555
C7 C12 1_555 1_555
C18 C19 1_555 1_555

#END
