
#######################################################################
#
#                 Cambridge Crystallographic Data Centre
#                                CCDC 
#
#######################################################################
#
# If this CIF has been generated from an entry in the Cambridge 
# Structural Database, then it will include bibliographic, chemical, 
# crystal, experimental, refinement or atomic coordinate data resulting 
# from the CCDC's data processing and validation procedures.
#
#######################################################################

data_SIFPOP
_chemical_compound_source        'Clerodendrum japonicum (Thunb.) Sweet.'
_chemical_formula_moiety         'C30 H51 N5 O8,2(H2 O1)'
_chemical_name_systematic        
'3-(butan-2-yl)-16-(2-hydroxy-2-methylpropyl)-5,8,9-trimethyl-6-(propan-2-yl)dodecahydropyrrolo[1,2-d][1,4,7,10,13,16]oxapentaazacyclononadecine-1,4,7,10,14,17(11H,16H)-hexone dihydrate'
_symmetry_cell_setting           monoclinic
_symmetry_space_group_name_H-M   'P 21'
_symmetry_Int_Tables_number      4
_space_group_name_Hall           'P 2yb'
loop_
_symmetry_equiv_pos_site_id
_symmetry_equiv_pos_as_xyz
1 x,y,z
2 -x,1/2+y,-z
_cell_length_a                   10.21780(10)
_cell_length_b                   11.37580(10)
_cell_length_c                   15.0725(2)
_cell_angle_alpha                90
_cell_angle_beta                 94.5610(10)
_cell_angle_gamma                90
_cell_volume                     1746.41
_exptl_crystal_colour            colorless
_exptl_crystal_description       block
_cell_formula_units_Z            2
_exptl_crystal_recrystallization_method methanol/acetone
loop_
_atom_site_label
_atom_site_type_symbol
_atom_site_fract_x
_atom_site_fract_y
_atom_site_fract_z
O1 O 0.19750(19) 0.6477(2) 0.55416(13)
O2 O 0.29346(18) 0.46110(18) 0.71959(13)
O3 O 0.06878(18) 0.54769(17) 0.45275(12)
O4 O -0.1487(2) 0.5637(2) 0.79938(14)
O5 O 0.6704(2) 0.4480(2) 0.59614(15)
O6 O 0.2869(2) 0.3959(2) 0.47686(15)
O7 O 0.0816(3) 0.6373(2) 0.20581(15)
N1 N 0.4349(2) 0.4152(2) 0.83703(16)
O8 O 0.3413(2) 0.5268(2) 0.98543(16)
N2 N 0.1420(2) 0.5103(2) 0.91368(16)
N3 N 0.4109(2) 0.5464(2) 0.43463(16)
N4 N 0.0428(2) 0.5829(2) 0.73436(15)
H1 H 0.122869 0.559669 0.734264
N5 N 0.4825(2) 0.5433(3) 0.61994(16)
H2 H 0.412658 0.576626 0.596266
C1 C 0.0914(3) 0.6086(2) 0.52952(18)
C2 C 0.2965(3) 0.4922(3) 0.43991(18)
C3 C -0.0345(3) 0.5370(2) 0.79416(18)
C4 C 0.3227(3) 0.3683(3) 0.88294(19)
H3 H 0.255501 0.340177 0.837890
C5 C 0.4057(3) 0.4665(2) 0.75766(19)
C6 C 0.2668(3) 0.4734(3) 0.93158(18)
C7 C -0.0061(3) 0.6704(2) 0.67044(19)
H4 H 0.057375 0.733797 0.669875
H5 H -0.086841 0.703095 0.689671
C8 C 0.0289(3) 0.5341(3) 0.24367(18)
C9 C 0.1745(3) 0.5505(3) 0.39436(18)
H6 H 0.193870 0.631789 0.378274
C10 C -0.0325(3) 0.6234(2) 0.57605(18)
H7 H -0.076746 0.548144 0.578171
H8 H -0.090673 0.677175 0.542062
C11 C 0.5119(3) 0.6672(3) 0.7591(2)
H9 H 0.543781 0.657491 0.821756
C12 C -0.0624(3) 0.3936(3) 0.9180(2)
H10 H -0.017035 0.342679 0.960943
H11 H -0.125437 0.348960 0.881416
H12 H -0.106682 0.454224 0.948347
C13 C 0.5665(3) 0.4926(3) 0.5681(2)
C14 C 0.3606(3) 0.2668(3) 0.9471(2)
H13 H 0.432736 0.292878 0.989246
C15 C 0.0359(3) 0.4492(2) 0.86002(18)
H14 H 0.074902 0.386913 0.825781
C16 C 0.1320(3) 0.4797(3) 0.31156(19)
H15 H 0.097914 0.405093 0.330669
H16 H 0.209755 0.462787 0.280860
C17 C 0.4330(3) 0.6576(3) 0.3874(2)
H17 H 0.390715 0.723390 0.414453
H18 H 0.402267 0.652665 0.324968
C18 C 0.3779(3) 0.7264(3) 0.7586(2)
H19 H 0.347740 0.745885 0.697717
H20 H 0.315815 0.671285 0.780666
C19 C 0.5089(3) 0.5423(3) 0.71693(18)
H21 H 0.594919 0.505782 0.731005
C20 C 0.1047(3) 0.6174(3) 0.9597(2)
H22 H 0.107169 0.602651 1.022513
H23 H 0.017450 0.640239 0.938071
H24 H 0.164952 0.679449 0.948600
C21 C 0.5648(3) 0.4210(3) 0.8862(2)
H25 H 0.557891 0.461395 0.941535
H26 H 0.624442 0.462617 0.851344
H27 H 0.597054 0.342785 0.897779
C22 C 0.0046(3) 0.4482(3) 0.1668(2)
H28 H -0.057948 0.481241 0.122887
H29 H -0.029041 0.375786 0.188488
H30 H 0.085625 0.433367 0.140586
C23 C 0.5334(3) 0.4886(4) 0.4672(2)
H31 H 0.525832 0.405586 0.450034
C24 C 0.6117(4) 0.7435(4) 0.7170(4)
H32 H 0.585430 0.753738 0.654863
H33 H 0.696171 0.706153 0.723505
H34 H 0.616619 0.818745 0.745799
C25 C -0.0988(3) 0.5630(4) 0.2838(2)
H35 H -0.082667 0.620771 0.329847
H36 H -0.133634 0.493043 0.308702
H37 H -0.160794 0.593474 0.238422
C26 C 0.3790(4) 0.8378(3) 0.8147(3)
H38 H 0.440043 0.893042 0.793187
H39 H 0.404959 0.818760 0.875632
H40 H 0.292721 0.871700 0.810686
C27 C 0.5814(4) 0.6672(4) 0.3998(4)
H41 H 0.615463 0.702560 0.347772
H42 H 0.607712 0.715208 0.451357
C28 C 0.4067(5) 0.1624(3) 0.8960(3)
H43 H 0.333181 0.127399 0.862252
H44 H 0.446244 0.105631 0.936980
H45 H 0.470106 0.187826 0.856356
C29 C 0.2434(4) 0.2336(4) 0.9992(3)
H46 H 0.216837 0.300589 1.032076
H47 H 0.268111 0.170817 1.039766
H48 H 0.171784 0.208412 0.958577
C30 C 0.6324(4) 0.5428(6) 0.4129(3)
H49 H 0.635992 0.502611 0.356396
H50 H 0.719024 0.542114 0.444329
H51 H 0.085(5) 0.692(5) 0.235(4)
O9 O 0.1185(2) 0.3374(2) 0.60086(17)
H55 H 0.164(5) 0.363(5) 0.637(4)
H56 H 0.169(7) 0.363(7) 0.556(5)
O10 O 0.1134(2) 0.8213(2) 0.32337(16)
H57 H 0.043(4) 0.837(4) 0.353(3)
H58 H 0.177(4) 0.869(4) 0.339(3)
H52? H 0.551756 0.413768 0.438393
H53? H 0.621974 0.724399 0.367430
C31? C 0.6445(11) 0.6103(13) 0.4451(10)
H54? H 0.731534 0.621366 0.466444
loop_
_geom_bond_atom_site_label_1
_geom_bond_atom_site_label_2
_geom_bond_site_symmetry_1
_geom_bond_site_symmetry_2
O1 C1 1_555 1_555
O2 C5 1_555 1_555
O3 C1 1_555 1_555
O4 C3 1_555 1_555
O5 C13 1_555 1_555
O6 C2 1_555 1_555
O7 C8 1_555 1_555
N1 C4 1_555 1_555
O8 C6 1_555 1_555
N2 C6 1_555 1_555
N3 C2 1_555 1_555
N4 H1 1_555 1_555
N5 H2 1_555 1_555
C1 C10 1_555 1_555
C2 C9 1_555 1_555
C3 N4 1_555 1_555
C4 H3 1_555 1_555
C5 N1 1_555 1_555
C6 C4 1_555 1_555
C7 N4 1_555 1_555
H4 C7 1_555 1_555
H5 C7 1_555 1_555
C8 C16 1_555 1_555
C9 O3 1_555 1_555
H6 C9 1_555 1_555
C10 C7 1_555 1_555
H7 C10 1_555 1_555
H8 C10 1_555 1_555
C11 H9 1_555 1_555
C12 H10 1_555 1_555
H11 C12 1_555 1_555
H12 C12 1_555 1_555
C13 N5 1_555 1_555
C14 C4 1_555 1_555
H13 C14 1_555 1_555
C15 N2 1_555 1_555
H14 C15 1_555 1_555
C16 C9 1_555 1_555
H15 C16 1_555 1_555
H16 C16 1_555 1_555
C17 N3 1_555 1_555
H17 C17 1_555 1_555
H18 C17 1_555 1_555
C18 C11 1_555 1_555
H19 C18 1_555 1_555
H20 C18 1_555 1_555
C19 N5 1_555 1_555
H21 C19 1_555 1_555
C20 N2 1_555 1_555
H22 C20 1_555 1_555
H23 C20 1_555 1_555
H24 C20 1_555 1_555
C21 N1 1_555 1_555
H25 C21 1_555 1_555
H26 C21 1_555 1_555
H27 C21 1_555 1_555
C22 C8 1_555 1_555
H28 C22 1_555 1_555
H29 C22 1_555 1_555
H30 C22 1_555 1_555
C23 N3 1_555 1_555
H31 C23 1_555 1_555
C24 C11 1_555 1_555
H32 C24 1_555 1_555
H33 C24 1_555 1_555
H34 C24 1_555 1_555
C25 C8 1_555 1_555
H35 C25 1_555 1_555
H36 C25 1_555 1_555
H37 C25 1_555 1_555
C26 C18 1_555 1_555
H38 C26 1_555 1_555
H39 C26 1_555 1_555
H40 C26 1_555 1_555
C27 C17 1_555 1_555
H41 C27 1_555 1_555
H42 C27 1_555 1_555
C28 C14 1_555 1_555
H43 C28 1_555 1_555
H44 C28 1_555 1_555
H45 C28 1_555 1_555
C29 C14 1_555 1_555
H46 C29 1_555 1_555
H47 C29 1_555 1_555
H48 C29 1_555 1_555
C30 C23 1_555 1_555
H49 C30 1_555 1_555
H50 C30 1_555 1_555
H51 O7 1_555 1_555
O9 H55 1_555 1_555
H56 O9 1_555 1_555
O10 H57 1_555 1_555
H58 O10 1_555 1_555
C3 C15 1_555 1_555
C5 C19 1_555 1_555
C11 C19 1_555 1_555
C12 C15 1_555 1_555
C13 C23 1_555 1_555
C27 C30 1_555 1_555

#END
