
#######################################################################
#
#                 Cambridge Crystallographic Data Centre
#                                CCDC 
#
#######################################################################
#
# If this CIF has been generated from an entry in the Cambridge 
# Structural Database, then it will include bibliographic, chemical, 
# crystal, experimental, refinement or atomic coordinate data resulting 
# from the CCDC's data processing and validation procedures.
#
#######################################################################

data_SIFQUU
_chemical_compound_source        'stems and leaves of Tubocapsicum anomalum'
_chemical_name_common            'Tubocapsenolide G ethanol solvate'
_chemical_formula_moiety         'C28 H37 Cl1 O6,0.5(C2 H6 O1)'
_chemical_name_systematic        
'4\b,5\b-Dihydroxy-6\b-chloro-1-oxowitha-2,13,24-trienolide ethanol solvate'
_chemical_properties_biological  
'significant cytotoxic activity against hepatocellular carcinoma Hep G2 and Hep 3B, breast carcinoma MCF-7 and MDA-MB-231, lung carcinoma A-549 and against the embryonic lung cell line MRC-5'
_symmetry_cell_setting           monoclinic
_symmetry_space_group_name_H-M   'P 21'
_symmetry_Int_Tables_number      4
_space_group_name_Hall           'P 2yb'
loop_
_symmetry_equiv_pos_site_id
_symmetry_equiv_pos_as_xyz
1 x,y,z
2 -x,1/2+y,-z
_cell_length_a                   7.6195(15)
_cell_length_b                   14.984(3)
_cell_length_c                   12.540(3)
_cell_angle_alpha                90
_cell_angle_beta                 93.71(3)
_cell_angle_gamma                90
_cell_volume                     1428.7
_exptl_crystal_colour            colorless
_exptl_crystal_description       prism
_chemical_melting_point          '264-266 deg.C'
_cell_formula_units_Z            2
loop_
_atom_site_label
_atom_site_type_symbol
_atom_site_fract_x
_atom_site_fract_y
_atom_site_fract_z
Cl1 Cl 0.3556(2) 0.75854(17) -0.09694(13)
O1 O -0.0413(7) 0.4089(4) 0.4944(5)
O2 O 0.1808(5) 0.4998(3) 0.4990(3)
O3 O 0.2037(6) 0.7430(3) 0.5056(4)
O4 O 0.7402(7) 0.6886(3) -0.1140(3)
O5 O 0.5397(13) 0.5595(8) -0.1382(9)
O6 O 1.1073(15) 0.6075(8) 0.0937(8)
C1 C 0.946(2) 0.5979(8) 0.0704(11)
C2 C 0.864(2) 0.5094(8) 0.0435(10)
H1 H 0.9327 0.4586 0.0547
C3 C 0.697(2) 0.4984(8) 0.0041(10)
H2 H 0.6506 0.4411 -0.0032
C4 C 0.5871(19) 0.5750(9) -0.0272(11)
H3 H 0.4797 0.5716 0.0116
C9 C 0.6585(8) 0.6723(4) -0.0173(5)
C10 C 0.5327(7) 0.7483(5) 0.0059(4)
H7 H 0.6007 0.8038 0.0055
C11 C 0.4536(6) 0.7424(4) 0.1141(4)
H8 H 0.3791 0.7939 0.1241
H9 H 0.3817 0.6892 0.1170
C12 C 0.5989(6) 0.7394(3) 0.2021(4)
H10 H 0.6625 0.7962 0.2009
C13 C 0.7312(6) 0.6646(4) 0.1843(4)
H11 H 0.6661 0.6081 0.1836
C14 C 0.8116(7) 0.6736(4) 0.0740(5)
C15 C 0.8671(7) 0.6616(5) 0.2806(5)
H12 H 0.9586 0.6189 0.2667
H13 H 0.9213 0.7198 0.2905
C16 C 0.7795(7) 0.6347(4) 0.3828(5)
H14 H 0.7592 0.5707 0.3823
H15 H 0.8578 0.6487 0.4446
C17 C 0.6087(6) 0.6821(3) 0.3917(4)
C18 C 0.5292(6) 0.7296(3) 0.3117(4)
C19 C 0.3583(7) 0.7715(4) 0.3411(5)
H16 H 0.2576 0.7398 0.3084
H17 H 0.3516 0.8338 0.3202
C20 C 0.3699(7) 0.7611(3) 0.4638(4)
H18 H 0.4136 0.8175 0.4948
C21 C 0.5084(7) 0.6876(4) 0.4944(4)
C22 C 0.6308(10) 0.7205(5) 0.5892(5)
H19 H 0.5662 0.7235 0.6523
H20 H 0.6750 0.7787 0.5734
H21 H 0.7274 0.6798 0.6009
C23 C 0.9234(7) 0.7576(5) 0.0667(5)
H22 H 0.9706 0.7605 -0.0023
H23 H 1.0180 0.7560 0.1211
H24 H 0.8518 0.8093 0.0769
C24 C 0.4199(7) 0.5981(3) 0.5278(4)
H25 H 0.3429 0.6148 0.5841
C25 C 0.5491(9) 0.5303(4) 0.5798(5)
H26 H 0.6225 0.5593 0.6345
H27 H 0.6210 0.5063 0.5267
H28 H 0.4848 0.4829 0.6110
C26 C 0.2993(6) 0.5564(3) 0.4409(4)
H29 H 0.2299 0.6039 0.4047
C27 C 0.3834(7) 0.5008(4) 0.3570(4)
H30 H 0.4428 0.5400 0.3094
H31 H 0.4711 0.4618 0.3919
C28 C 0.2516(7) 0.4456(3) 0.2930(4)
C29 C 0.1000(7) 0.4216(4) 0.3331(4)
C30 C 0.0715(7) 0.4427(4) 0.4455(5)
C31 C -0.0376(11) 0.3654(6) 0.2791(6)
C32 C 0.3051(10) 0.4165(4) 0.1852(5)
H37 H 0.5866 0.5224 -0.1539
H39 H 0.1570 0.7996 0.4997
H40 H 0.6809 0.6616 -0.1623
H41 H -0.0680 0.3128 0.2973
H42 H -0.0114 0.3372 0.2196
H43 H -0.1508 0.3790 0.2640
H44 H 0.3042 0.4770 0.1557
H45 H 0.2586 0.3458 0.1510
H46 H 0.4328 0.4136 0.1802
C33 C 0.090(3) 0.4824(17) 0.7675(12)
H32 H 0.1536 0.4609 0.7079
H33 H -0.0114 0.4445 0.7758
C34 C 0.2133(15) 0.4866(10) 0.8741(8)
H34 H 0.2562 0.4279 0.8919
H35 H 0.1476 0.5090 0.9311
H36 H 0.3109 0.5255 0.8639
O9 O 0.043(2) 0.5691(18) 0.754(2)
H47 H 0.0824 0.6105 0.8187
O7? O 0.4639(14) 0.5808(8) -0.1383(9)
O8? O 1.0694(16) 0.5872(8) 0.0496(8)
C5? C 0.901(2) 0.5815(14) 0.0451(14)
C6? C 0.786(3) 0.5018(12) 0.0148(13)
H4? H 0.8354 0.4450 0.0177
C7? C 0.623(2) 0.5099(14) -0.0146(12)
H5? H 0.5591 0.4574 -0.0256
C8? C 0.529(2) 0.5910(13) -0.0320(14)
H6? H 0.4332 0.5959 0.0159
H38? H 0.3703 0.5734 -0.1347
loop_
_geom_bond_atom_site_label_1
_geom_bond_atom_site_label_2
_geom_bond_site_symmetry_1
_geom_bond_site_symmetry_2
Cl1 C10 1_555 1_555
O1 C30 1_555 1_555
O2 C26 1_555 1_555
O3 C20 1_555 1_555
O4 C9 1_555 1_555
O5 C4 1_555 1_555
O6 C1 1_555 1_555
C1 C2 1_555 1_555
C2 H1 1_555 1_555
C3 C2 1_555 1_555
H2 C3 1_555 1_555
C4 C3 1_555 1_555
H3 C4 1_555 1_555
C9 C4 1_555 1_555
C10 C9 1_555 1_555
H7 C10 1_555 1_555
C11 C10 1_555 1_555
H8 C11 1_555 1_555
H9 C11 1_555 1_555
C12 C11 1_555 1_555
H10 C12 1_555 1_555
C13 C12 1_555 1_555
H11 C13 1_555 1_555
C14 C1 1_555 1_555
C15 C13 1_555 1_555
H12 C15 1_555 1_555
H13 C15 1_555 1_555
C16 C15 1_555 1_555
H14 C16 1_555 1_555
H15 C16 1_555 1_555
C17 C16 1_555 1_555
C18 C12 1_555 1_555
C19 C18 1_555 1_555
H16 C19 1_555 1_555
H17 C19 1_555 1_555
C20 C19 1_555 1_555
H18 C20 1_555 1_555
C21 C17 1_555 1_555
C22 C21 1_555 1_555
H19 C22 1_555 1_555
H20 C22 1_555 1_555
H21 C22 1_555 1_555
C23 C14 1_555 1_555
H22 C23 1_555 1_555
H23 C23 1_555 1_555
H24 C23 1_555 1_555
C24 C21 1_555 1_555
H25 C24 1_555 1_555
C25 C24 1_555 1_555
H26 C25 1_555 1_555
H27 C25 1_555 1_555
H28 C25 1_555 1_555
C26 C24 1_555 1_555
H29 C26 1_555 1_555
C27 C26 1_555 1_555
H30 C27 1_555 1_555
H31 C27 1_555 1_555
C28 C27 1_555 1_555
C29 C28 1_555 1_555
C30 O2 1_555 1_555
C31 C29 1_555 1_555
C32 C28 1_555 1_555
C33 H32 1_555 1_555
H33 C33 1_555 1_555
C34 C33 1_555 1_555
H34 C34 1_555 1_555
H35 C34 1_555 1_555
H36 C34 1_555 1_555
O9 C33 1_555 1_555
H37 O5 1_555 1_555
H39 O3 1_555 1_555
H40 O4 1_555 1_555
H41 C31 1_555 1_555
H42 C31 1_555 1_555
H43 C31 1_555 1_555
H44 C32 1_555 1_555
H45 C32 1_555 1_555
H46 C32 1_555 1_555
H47 O9 1_555 1_555
C9 C14 1_555 1_555
C13 C14 1_555 1_555
C17 C18 1_555 1_555
C20 C21 1_555 1_555
C29 C30 1_555 1_555

#END
