
#######################################################################
#
#                 Cambridge Crystallographic Data Centre
#                                CCDC 
#
#######################################################################
#
# If this CIF has been generated from an entry in the Cambridge 
# Structural Database, then it will include bibliographic, chemical, 
# crystal, experimental, refinement or atomic coordinate data resulting 
# from the CCDC's data processing and validation procedures.
#
#######################################################################

data_SIFWOW
_chemical_formula_moiety         'C17 H21 N3 O4'
_chemical_name_systematic        
'diethyl 1-[4-(dimethylamino)phenyl]-1H-imidazole-4,5-dicarboxylate'
_symmetry_cell_setting           monoclinic
_symmetry_space_group_name_H-M   'C 2/c'
_symmetry_Int_Tables_number      15
_space_group_name_Hall           '-C 2yn'
loop_
_symmetry_equiv_pos_site_id
_symmetry_equiv_pos_as_xyz
1 x,y,z
2 -x,y,1/2-z
3 1/2+x,1/2+y,z
4 1/2-x,1/2+y,1/2-z
5 -x,-y,-z
6 x,-y,1/2+z
7 1/2-x,1/2-y,-z
8 1/2+x,1/2-y,1/2+z
_cell_length_a                   23.365(2)
_cell_length_b                   8.5715(9)
_cell_length_c                   17.6014(18)
_cell_angle_alpha                90
_cell_angle_beta                 108.733(2)
_cell_angle_gamma                90
_cell_volume                     3338.35
_cell_formula_units_Z            8
loop_
_atom_site_label
_atom_site_type_symbol
_atom_site_fract_x
_atom_site_fract_y
_atom_site_fract_z
O1 O 0.43158(6) 0.16323(18) 0.12474(8)
O2 O 0.34642(6) 0.13099(15) 0.02095(8)
O3 O 0.25050(6) 0.55440(15) 0.10435(8)
O4 O 0.30976(6) 0.44856(15) 0.03975(8)
N1 N 0.46859(9) -0.4447(2) 0.33973(13)
N2 N 0.33690(7) 0.09406(17) 0.20836(9)
N3 N 0.27332(7) 0.28796(19) 0.20733(10)
C1 C 0.44468(10) -0.5981(2) 0.31701(15)
H1 H 0.4073 -0.6093 0.3282
H2 H 0.4731 -0.6744 0.3469
H3 H 0.4376 -0.6131 0.2607
C2 C 0.53011(10) -0.4318(3) 0.39254(16)
H4 H 0.5453 -0.5337 0.4113
H5 H 0.5312 -0.3670 0.4375
H6 H 0.5547 -0.3862 0.3640
C3 C 0.43713(9) -0.3136(2) 0.30482(13)
C4 C 0.46414(9) -0.1661(2) 0.31616(13)
H7 H 0.5046 -0.1569 0.3470
C5 C 0.43231(9) -0.0344(2) 0.28285(12)
H8 H 0.4514 0.0624 0.2911
C6 C 0.37198(8) -0.0455(2) 0.23713(11)
C7 C 0.34421(8) -0.1895(2) 0.22410(12)
H9 H 0.3038 -0.1974 0.1929
C8 C 0.37601(9) -0.3216(2) 0.25701(12)
H10 H 0.3567 -0.4180 0.2475
C9 C 0.29728(9) 0.1579(2) 0.24209(12)
H11 H 0.2883 0.1136 0.2852
C10 C 0.33682(8) 0.1897(2) 0.14555(11)
C11 C 0.29749(8) 0.3090(2) 0.14626(11)
C12 C 0.28243(8) 0.4499(2) 0.09571(11)
C13 C 0.29550(10) 0.5761(2) -0.01699(13)
H12 H 0.3121 0.6730 0.0095
H13 H 0.2521 0.5876 -0.0403
C14 C 0.32300(10) 0.5379(3) -0.08067(13)
H14 H 0.3141 0.6198 -0.1199
H15 H 0.3065 0.4414 -0.1061
H16 H 0.3660 0.5279 -0.0569
C15 C 0.37735(8) 0.1606(2) 0.09712(12)
C16 C 0.38137(10) 0.1102(2) -0.03353(12)
H17 H 0.4149 0.1831 -0.0196
H18 H 0.3560 0.1324 -0.0880
C17 C 0.40516(11) -0.0532(3) -0.02918(14)
H19 H 0.4252 -0.0665 -0.0685
H20 H 0.3722 -0.1257 -0.0396
H21 H 0.4333 -0.0720 0.0233
loop_
_geom_bond_atom_site_label_1
_geom_bond_atom_site_label_2
_geom_bond_site_symmetry_1
_geom_bond_site_symmetry_2
O1 C15 1_555 1_555
O2 C15 1_555 1_555
O3 C12 1_555 1_555
O4 C12 1_555 1_555
N1 C1 1_555 1_555
N2 C6 1_555 1_555
N3 C9 1_555 1_555
C1 H1 1_555 1_555
H2 C1 1_555 1_555
H3 C1 1_555 1_555
C2 N1 1_555 1_555
H4 C2 1_555 1_555
H5 C2 1_555 1_555
H6 C2 1_555 1_555
C3 N1 1_555 1_555
C4 C3 1_555 1_555
H7 C4 1_555 1_555
C5 C4 1_555 1_555
H8 C5 1_555 1_555
C6 C5 1_555 1_555
C7 C6 1_555 1_555
H9 C7 1_555 1_555
C8 C3 1_555 1_555
H10 C8 1_555 1_555
C9 N2 1_555 1_555
H11 C9 1_555 1_555
C10 N2 1_555 1_555
C11 N3 1_555 1_555
C12 C11 1_555 1_555
C13 O4 1_555 1_555
H12 C13 1_555 1_555
H13 C13 1_555 1_555
C14 C13 1_555 1_555
H14 C14 1_555 1_555
H15 C14 1_555 1_555
H16 C14 1_555 1_555
C15 C10 1_555 1_555
C16 O2 1_555 1_555
H17 C16 1_555 1_555
H18 C16 1_555 1_555
C17 C16 1_555 1_555
H19 C17 1_555 1_555
H20 C17 1_555 1_555
H21 C17 1_555 1_555
C7 C8 1_555 1_555
C10 C11 1_555 1_555

#END
