
#######################################################################
#
#                 Cambridge Crystallographic Data Centre
#                                CCDC 
#
#######################################################################
#
# If this CIF has been generated from an entry in the Cambridge 
# Structural Database, then it will include bibliographic, chemical, 
# crystal, experimental, refinement or atomic coordinate data resulting 
# from the CCDC's data processing and validation procedures.
#
#######################################################################

data_SIGBIT
_chemical_formula_moiety         'C9 H16 N2 O5'
_chemical_name_systematic        "4,4'-Ureylenedibutyric acid"
_symmetry_cell_setting           monoclinic
_symmetry_space_group_name_H-M   'C 2/c'
_symmetry_Int_Tables_number      15
_space_group_name_Hall           '-C 2yn'
loop_
_symmetry_equiv_pos_site_id
_symmetry_equiv_pos_as_xyz
1 x,y,z
2 1/2+x,1/2+y,z
3 -x,y,1/2-z
4 1/2-x,1/2+y,1/2-z
5 -x,-y,-z
6 1/2-x,1/2-y,-z
7 x,-y,1/2+z
8 1/2+x,1/2-y,1/2+z
_cell_length_a                   10.529(6)
_cell_length_b                   4.666(3)
_cell_length_c                   22.255(9)
_cell_angle_alpha                90
_cell_angle_beta                 91.25
_cell_angle_gamma                90
_cell_volume                     1093.09
_cell_formula_units_Z            4
loop_
_atom_site_label
_atom_site_type_symbol
_atom_site_fract_x
_atom_site_fract_y
_atom_site_fract_z
O1 O 0.0000 -0.201(1) 0.7500
O2 O 0.3569(4) 0.491(1) 0.5319(2)
O3 O 0.5252(4) 0.225(1) 0.5519(2)
N1 N 0.0778(5) 0.214(1) 0.7148(2)
C1 C 0.0000 0.068(2) 0.7500
C2 C 0.1736(6) 0.081(1) 0.6801(3)
C3 C 0.2385(6) 0.276(1) 0.6377(3)
C4 C 0.3421(6) 0.126(1) 0.6054(3)
C5 C 0.4097(6) 0.296(2) 0.5602(3)
H1 H 0.0687 0.4164 0.7129
H2 H 0.2362 0.0037 0.7072
H3 H 0.1356 -0.0701 0.6576
H4 H 0.1782 0.3454 0.6091
H5 H 0.2743 0.4322 0.6597
H6 H 0.4038 0.0632 0.6346
H7 H 0.3065 -0.0364 0.5856
H8 H 0.5679 0.3323 0.5063
N1B N -0.0778(5) 0.214(1) 0.7852(2)
C2B C -0.1736(6) 0.081(1) 0.8199(3)
H1B H -0.0687 0.4164 0.7871
C3B C -0.2385(6) 0.276(1) 0.8623(3)
H2B H -0.2362 0.0037 0.7928
H3B H -0.1356 -0.0701 0.8424
C4B C -0.3421(6) 0.126(1) 0.8946(3)
H4B H -0.1782 0.3454 0.8909
H5B H -0.2743 0.4322 0.8403
C5B C -0.4097(6) 0.296(2) 0.9398(3)
H6B H -0.4038 0.0632 0.8654
H7B H -0.3065 -0.0364 0.9144
O2B O -0.3569(4) 0.491(1) 0.9681(2)
O3B O -0.5252(4) 0.225(1) 0.9481(2)
H8B H -0.5679 0.3323 0.9937
loop_
_geom_bond_atom_site_label_1
_geom_bond_atom_site_label_2
_geom_bond_site_symmetry_1
_geom_bond_site_symmetry_2
O1 C1 1_555 1_555
O2 C5 1_555 1_555
O3 C5 1_555 1_555
N1 C1 1_555 1_555
C1 N1B 1_555 1_555
C2 N1 1_555 1_555
C3 C2 1_555 1_555
C4 C3 1_555 1_555
C5 C4 1_555 1_555
H1 N1 1_555 1_555
H2 C2 1_555 1_555
H3 C2 1_555 1_555
H4 C3 1_555 1_555
H5 C3 1_555 1_555
H6 C4 1_555 1_555
H7 C4 1_555 1_555
H8 O3 1_555 1_555
N1B C2B 1_555 1_555
C2B C3B 1_555 1_555
H1B N1B 1_555 1_555
C3B C4B 1_555 1_555
H2B C2B 1_555 1_555
H3B C2B 1_555 1_555
C4B C5B 1_555 1_555
H4B C3B 1_555 1_555
H5B C3B 1_555 1_555
C5B O2B 1_555 1_555
H6B C4B 1_555 1_555
H7B C4B 1_555 1_555
O3B C5B 1_555 1_555
H8B O3B 1_555 1_555

#END
