
#######################################################################
#
#                 Cambridge Crystallographic Data Centre
#                                CCDC 
#
#######################################################################
#
# If this CIF has been generated from an entry in the Cambridge 
# Structural Database, then it will include bibliographic, chemical, 
# crystal, experimental, refinement or atomic coordinate data resulting 
# from the CCDC's data processing and validation procedures.
#
#######################################################################

data_SIGBUF
_chemical_formula_moiety         'C11 H20 N2 O5'
_chemical_name_systematic        "Dimethyl 4,4'-ureylenedibutyrate"
_symmetry_cell_setting           monoclinic
_symmetry_space_group_name_H-M   'C 2/c'
_symmetry_Int_Tables_number      15
_space_group_name_Hall           '-C 2yn'
loop_
_symmetry_equiv_pos_site_id
_symmetry_equiv_pos_as_xyz
1 x,y,z
2 1/2+x,1/2+y,z
3 -x,y,1/2-z
4 1/2-x,1/2+y,1/2-z
5 -x,-y,-z
6 1/2-x,1/2-y,-z
7 x,-y,1/2+z
8 1/2+x,1/2-y,1/2+z
_cell_length_a                   10.858(4)
_cell_length_b                   4.629(2)
_cell_length_c                   26.449(9)
_cell_angle_alpha                90
_cell_angle_beta                 93.2(1)
_cell_angle_gamma                90
_cell_volume                     1327.3
_cell_formula_units_Z            4
loop_
_atom_site_label
_atom_site_type_symbol
_atom_site_fract_x
_atom_site_fract_y
_atom_site_fract_z
O1 O 1.0000 0.333(1) 0.2500
O2 O 1.3776(5) -0.362(1) 0.4325(2)
O3 O 1.5406(4) -0.096(1) 0.4187(2)
N1 N 1.0830(5) -0.087(1) 0.2782(2)
C1 C 1.0000 0.068(2) 0.2500
C2 C 1.1830(6) 0.053(1) 0.3065(2)
C3 C 1.2525(6) -0.152(2) 0.3414(2)
C4 C 1.3634(6) -0.006(2) 0.3678(2)
C5 C 1.4261(7) -0.180(2) 0.4089(3)
C6 C 1.6105(7) -0.240(2) 0.4597(3)
H1 H 1.075 -0.2910 0.2795
H2 H 1.2381 0.1308 0.2834
H3 H 1.1505 0.2044 0.3259
H4 H 1.1992 -0.2183 0.3662
H5 H 1.2797 -0.3111 0.3224
H6 H 1.4216 0.0343 0.3432
H7 H 1.3368 0.1703 0.3820
H8 H 1.5701 -0.2150 0.4903
H9 H 1.6161 -0.4407 0.4524
H10 H 1.6910 -0.1600 0.4633
N1B N 0.9170(5) -0.087(1) 0.2218(2)
C2B C 0.8170(6) 0.053(1) 0.1935(2)
H1B H 0.925 -0.2910 0.2205
C3B C 0.7475(6) -0.152(2) 0.1586(2)
H2B H 0.7619 0.1308 0.2166
H3B H 0.8495 0.2044 0.1741
C4B C 0.6366(6) -0.006(2) 0.1322(2)
H4B H 0.8008 -0.2183 0.1338
H5B H 0.7203 -0.3111 0.1776
C5B C 0.5739(7) -0.180(2) 0.0911(3)
H6B H 0.5784 0.0343 0.1568
H7B H 0.6632 0.1703 0.1180
O2B O 0.6224(5) -0.362(1) 0.0675(2)
O3B O 0.4594(4) -0.096(1) 0.0813(2)
C6B C 0.3895(7) -0.240(2) 0.0403(3)
H8B H 0.4299 -0.2150 0.0097
H9B H 0.3839 -0.4407 0.0476
H10B H 0.3090 -0.1600 0.0367
loop_
_geom_bond_atom_site_label_1
_geom_bond_atom_site_label_2
_geom_bond_site_symmetry_1
_geom_bond_site_symmetry_2
O1 C1 1_555 1_555
O2 C5 1_555 1_555
O3 C5 1_555 1_555
N1 C1 1_555 1_555
C1 N1B 1_555 1_555
C2 N1 1_555 1_555
C3 C2 1_555 1_555
C4 C3 1_555 1_555
C5 C4 1_555 1_555
C6 O3 1_555 1_555
H1 N1 1_555 1_555
H2 C2 1_555 1_555
H3 C2 1_555 1_555
H4 C3 1_555 1_555
H5 C3 1_555 1_555
H6 C4 1_555 1_555
H7 C4 1_555 1_555
H8 C6 1_555 1_555
H9 C6 1_555 1_555
H10 C6 1_555 1_555
N1B C2B 1_555 1_555
C2B C3B 1_555 1_555
H1B N1B 1_555 1_555
C3B C4B 1_555 1_555
H2B C2B 1_555 1_555
H3B C2B 1_555 1_555
C4B C5B 1_555 1_555
H4B C3B 1_555 1_555
H5B C3B 1_555 1_555
C5B O2B 1_555 1_555
H6B C4B 1_555 1_555
H7B C4B 1_555 1_555
O3B C5B 1_555 1_555
C6B O3B 1_555 1_555
H8B C6B 1_555 1_555
H9B C6B 1_555 1_555
H10B C6B 1_555 1_555

#END
