
#######################################################################
#
#                 Cambridge Crystallographic Data Centre
#                                CCDC 
#
#######################################################################
#
# If this CIF has been generated from an entry in the Cambridge 
# Structural Database, then it will include bibliographic, chemical, 
# crystal, experimental, refinement or atomic coordinate data resulting 
# from the CCDC's data processing and validation procedures.
#
#######################################################################

data_SIGBEP
_chemical_formula_moiety         'C7 H12 N2 O5'
_chemical_name_systematic        "3,3'-Ureylenedipropionic acid"
_symmetry_cell_setting           monoclinic
_symmetry_space_group_name_H-M   'C 2/c'
_symmetry_Int_Tables_number      15
_space_group_name_Hall           '-C 2yn'
loop_
_symmetry_equiv_pos_site_id
_symmetry_equiv_pos_as_xyz
1 x,y,z
2 1/2+x,1/2+y,z
3 -x,y,1/2-z
4 1/2-x,1/2+y,1/2-z
5 -x,-y,-z
6 1/2-x,1/2-y,-z
7 x,-y,1/2+z
8 1/2+x,1/2-y,1/2+z
_cell_length_a                   19.863(8)
_cell_length_b                   9.180(3)
_cell_length_c                   20.83(1)
_cell_angle_alpha                90
_cell_angle_beta                 100.94(6)
_cell_angle_gamma                90
_cell_volume                     3729.16
_cell_formula_units_Z            16
loop_
_atom_site_label
_atom_site_type_symbol
_atom_site_fract_x
_atom_site_fract_y
_atom_site_fract_z
O1 O 0.5000 0.283(1) 0.2500
O2 O 0.3175(4) 0.278(1) 0.0584(4)
O3 O 0.2534(4) 0.074(1) 0.0433(4)
N1 N 0.4564(5) 0.068(1) 0.2063(4)
C1 C 0.5000 0.143(2) 0.2500
C2 C 0.4114(7) 0.139(2) 0.1522(7)
C3 C 0.3501(7) 0.072(2) 0.1270(7)
C4 C 0.3028(8) 0.147(2) 0.0723(7)
H1 H 0.4545 -0.0353 0.2105
H5 H 0.4012 0.2330 0.1668
H6 H 0.4362 0.1484 0.1176
H7 H 0.3605 -0.0209 0.1114
H8 H 0.3260 0.0606 0.1619
H21 H 0.2895 0.3278 0.0232
N1B N 0.5436(5) 0.068(1) 0.2937(4)
C2B C 0.5886(7) 0.139(2) 0.3478(7)
H1B H 0.5455 -0.0353 0.2895
C3B C 0.6499(7) 0.072(2) 0.3730(7)
H5B H 0.5988 0.2330 0.3332
H6B H 0.5638 0.1484 0.3824
C4B C 0.6972(8) 0.147(2) 0.4277(7)
H7B H 0.6395 -0.0209 0.3886
H8B H 0.6740 0.0606 0.3381
O2B O 0.6825(4) 0.278(1) 0.4416(4)
O3B O 0.7466(4) 0.074(1) 0.4567(4)
H21B H 0.7105 0.3278 0.4768
O4 O 0.5000 0.224(1) 0.7500
O5 O 0.6653(4) 0.280(1) 0.9680(5)
O6 O 0.7550(5) 0.324(1) 0.9242(5)
N2 N 0.5323(5) 0.436(1) 0.7996(5)
C5 C 0.5000 0.364(2) 0.7500
C6 C 0.5736(7) 0.374(1) 0.8591(6)
C7 C 0.6475(7) 0.375(2) 0.8622(7)
C8 C 0.6938(8) 0.324(1) 0.9227(7)
H2 H 0.5289 0.5391 0.7973
H9 H 0.5644 0.4280 0.8954
H10 H 0.5596 0.2757 0.8626
H11 H 0.6562 0.3143 0.8276
H12 H 0.6601 0.4720 0.8547
H24 H 0.6923 0.2435 1.0072
N2B N 0.4677(5) 0.436(1) 0.7004(5)
C6B C 0.4264(7) 0.374(1) 0.6409(6)
H2B H 0.4711 0.5391 0.7027
C7B C 0.3525(7) 0.375(2) 0.6378(7)
H9B H 0.4356 0.4280 0.6046
H10B H 0.4404 0.2757 0.6374
C8B C 0.3062(8) 0.324(1) 0.5773(7)
H11B H 0.3438 0.3143 0.6724
H12B H 0.3399 0.4720 0.6453
O5B O 0.3347(4) 0.280(1) 0.5320(5)
O6B O 0.2450(5) 0.324(1) 0.5758(5)
H24B H 0.3077 0.2435 0.4928
O7 O 0.2618(4) -0.0254(8) 0.7588(4)
O8 O 0.0686(4) -0.0287(8) 0.5582(4)
O9 O 0.0091(4) 0.1753(8) 0.5397(4)
O10 O 0.4133(5) 0.007(1) 0.9907(5)
O11 O 0.4810(6) 0.074(1) 0.9260(4)
N3 N 0.2020(4) 0.1727(8) 0.7134(4)
N4 N 0.2971(5) 0.201(1) 0.7904(5)
C9 C 0.2537(6) 0.108(1) 0.7544(5)
C10 C 0.1570(5) 0.085(1) 0.6651(5)
C11 C 0.1037(5) 0.177(1) 0.6252(5)
C12 C 0.0595(6) 0.099(1) 0.5719(6)
C13 C 0.3672(7) 0.146(2) 0.8319(7)
C14 C 0.3528(8) 0.129(2) 0.8915(7)
C15 C 0.4218(7) 0.064(1) 0.9389(8)
H3 H 0.1949 0.2748 0.7159
H4 H 0.2854 0.3008 0.7910
H13 H 0.1833 0.0387 0.6373
H14 H 0.1354 0.0125 0.6870
H15 H 0.0757 0.2172 0.6530
H16 H 0.1259 0.2541 0.6067
H17 H 0.3810 0.0571 0.8154
H18 H 0.4022 0.2171 0.8324
H19 H 0.3408 0.2196 0.9080
H20 H 0.3158 0.0622 0.8897
H22 H -0.0221 0.1326 0.5044
H23 H 0.5195 0.0388 0.9562
loop_
_geom_bond_atom_site_label_1
_geom_bond_atom_site_label_2
_geom_bond_site_symmetry_1
_geom_bond_site_symmetry_2
O1 C1 1_555 1_555
O2 C4 1_555 1_555
O3 C4 1_555 1_555
O4 C5 1_555 1_555
O5 C8 1_555 1_555
O6 C8 1_555 1_555
O7 C9 1_555 1_555
O8 C12 1_555 1_555
O9 C12 1_555 1_555
O10 C15 1_555 1_555
O11 C15 1_555 1_555
N1 C1 1_555 1_555
N2 C5 1_555 1_555
N3 C9 1_555 1_555
N4 C9 1_555 1_555
C1 N1B 1_555 1_555
C2 N1 1_555 1_555
C3 C2 1_555 1_555
C4 C3 1_555 1_555
C5 N2B 1_555 1_555
C6 N2 1_555 1_555
C7 C6 1_555 1_555
C8 C7 1_555 1_555
C10 N3 1_555 1_555
C11 C10 1_555 1_555
C12 C11 1_555 1_555
C13 N4 1_555 1_555
C14 C13 1_555 1_555
C15 C14 1_555 1_555
H1 N1 1_555 1_555
H2 N2 1_555 1_555
H3 N3 1_555 1_555
H4 N4 1_555 1_555
H5 C2 1_555 1_555
H6 C2 1_555 1_555
H7 C3 1_555 1_555
H8 C3 1_555 1_555
H9 C6 1_555 1_555
H10 C6 1_555 1_555
H11 C7 1_555 1_555
H12 C7 1_555 1_555
H13 C10 1_555 1_555
H14 C10 1_555 1_555
H15 C11 1_555 1_555
H16 C11 1_555 1_555
H17 C13 1_555 1_555
H18 C13 1_555 1_555
H19 C14 1_555 1_555
H20 C14 1_555 1_555
H21 O2 1_555 1_555
H22 O9 1_555 1_555
H23 O11 1_555 1_555
H24 O5 1_555 1_555
N1B C2B 1_555 1_555
C2B C3B 1_555 1_555
H1B N1B 1_555 1_555
C3B C4B 1_555 1_555
H5B C2B 1_555 1_555
H6B C2B 1_555 1_555
C4B O2B 1_555 1_555
H7B C3B 1_555 1_555
H8B C3B 1_555 1_555
O2B H21B 1_555 1_555
O3B C4B 1_555 1_555
N2B C6B 1_555 1_555
C6B C7B 1_555 1_555
H2B N2B 1_555 1_555
C7B C8B 1_555 1_555
H9B C6B 1_555 1_555
H10B C6B 1_555 1_555
C8B O5B 1_555 1_555
H11B C7B 1_555 1_555
H12B C7B 1_555 1_555
O5B H24B 1_555 1_555
O6B C8B 1_555 1_555

#END
