
#######################################################################
#
#                 Cambridge Crystallographic Data Centre
#                                CCDC 
#
#######################################################################
#
# If this CIF has been generated from an entry in the Cambridge 
# Structural Database, then it will include bibliographic, chemical, 
# crystal, experimental, refinement or atomic coordinate data resulting 
# from the CCDC's data processing and validation procedures.
#
#######################################################################

data_SIGCIV
_chemical_formula_moiety         'C34 H28 Cl4 N2'
_chemical_name_systematic        
2,2'-bis(2,6-Dichlorophenylmethyleneamino)-5,5',6,6',7,7',8,8'-octahydro-1,1'-binaphthalene
_symmetry_cell_setting           tetragonal
_symmetry_space_group_name_H-M   'P 43 21 2'
_symmetry_Int_Tables_number      96
_space_group_name_Hall           'P 4nw 2abw'
loop_
_symmetry_equiv_pos_site_id
_symmetry_equiv_pos_as_xyz
1 x,y,z
2 -x,-y,1/2+z
3 1/2-y,1/2+x,3/4+z
4 1/2+y,1/2-x,1/4+z
5 1/2-x,1/2+y,3/4-z
6 1/2+x,1/2-y,1/4-z
7 y,x,-z
8 -y,-x,1/2-z
_cell_length_a                   11.3543(3)
_cell_length_b                   11.3543(3)
_cell_length_c                   46.8837(15)
_cell_angle_alpha                90
_cell_angle_beta                 90
_cell_angle_gamma                90
_cell_volume                     6044.25
_exptl_crystal_colour            colorless
_chemical_melting_point          165-166deg.C
_cell_formula_units_Z            8
loop_
_atom_site_label
_atom_site_type_symbol
_atom_site_fract_x
_atom_site_fract_y
_atom_site_fract_z
Cl1 Cl 0.43759(10) 0.62733(14) 0.02431(3)
Cl2 Cl 0.87430(10) 0.76153(9) 0.05838(2)
Cl3 Cl 0.86791(16) 0.18596(13) 0.02046(3)
Cl4 Cl 1.23932(17) 0.39900(19) -0.02917(3)
N1 N 0.7522(4) 0.5306(4) 0.05907(10)
N2 N 1.0141(4) 0.3861(4) 0.03827(8)
C1 C 0.7552(4) 0.4155(3) 0.07028(9)
C2 C 0.6614(4) 0.3370(5) 0.06752(11)
H1 H 0.5936 0.3591 0.0578
C3 C 0.6703(5) 0.2268(5) 0.07935(13)
H2 H 0.6076 0.1745 0.0776
C4 C 0.7695(5) 0.1922(4) 0.09372(11)
C5 C 0.7709(6) 0.0696(4) 0.10660(13)
H3 H 0.7037 0.0608 0.1192
H4 H 0.7635 0.0118 0.0915
C6 C 0.8738(9) 0.0482(7) 0.1218(3)
H5 H 0.8504 0.0513 0.1417
H6 H 0.8927 -0.0336 0.1180
C7 C 0.9769(7) 0.1046(4) 0.12079(12)
H7 H 1.0308 0.0572 0.1096
H8 H 1.0083 0.1082 0.1400
C8 C 0.9779(4) 0.2297(3) 0.10852(9)
H9 H 0.9958 0.2845 0.1238
H10 H 1.0409 0.2353 0.0946
C9 C 0.8662(4) 0.2668(4) 0.09474(8)
C10 C 0.8586(3) 0.3801(3) 0.08322(7)
C11 C 0.9599(3) 0.4634(3) 0.08397(8)
C12 C 0.9744(3) 0.5436(3) 0.10619(8)
C13 C 0.8874(4) 0.5442(3) 0.13046(8)
H11 H 0.8776 0.4641 0.1373
H12 H 0.8118 0.5706 0.1233
C14 C 0.9224(5) 0.6215(5) 0.15532(9)
H13 H 0.8539 0.6361 0.1671
H14 H 0.9803 0.5805 0.1668
C15 C 0.9718(5) 0.7346(5) 0.14583(10)
H15 H 0.9897 0.7826 0.1624
H16 H 0.9135 0.7760 0.1345
C16 C 1.0815(4) 0.7186(4) 0.12844(10)
H17 H 1.1458 0.6963 0.1409
H18 H 1.1019 0.7928 0.1195
C17 C 1.0661(4) 0.6240(4) 0.10534(9)
C18 C 1.1429(4) 0.6210(4) 0.08237(12)
H19 H 1.2054 0.6740 0.0819
C19 C 1.1306(4) 0.5432(4) 0.06038(10)
H20 H 1.1834 0.5437 0.0452
C20 C 1.0383(3) 0.4636(3) 0.06095(9)
C21 C 0.6709(4) 0.5800(4) 0.05186(10)
H21 H 0.6013 0.5375 0.0536
C22 C 0.6557(4) 0.6996(4) 0.04024(8)
C23 C 0.5502(4) 0.7288(4) 0.02660(8)
C24 C 0.5339(5) 0.8385(5) 0.01445(9)
H22 H 0.4630 0.8566 0.0055
C25 C 0.6206(6) 0.9191(5) 0.01551(10)
H23 H 0.6101 0.9918 0.0067
C26 C 0.7236(5) 0.8957(4) 0.02925(9)
H24 H 0.7821 0.9528 0.0304
C27 C 0.7402(4) 0.7863(4) 0.04142(7)
C28 C 1.0762(4) 0.3616(4) 0.02013(12)
H25 H 1.1518 0.3925 0.0217
C29 C 1.0557(5) 0.2893(4) -0.00512(11)
C30 C 0.9639(6) 0.2089(5) -0.00719(11)
C31 C 0.9464(9) 0.1408(7) -0.03090(18)
H26 H 0.8885 0.0829 -0.0312
C32 C 1.0161(11) 0.1600(12) -0.0542(3)
H27 H 0.9978 0.1225 -0.0712
C33 C 1.1080(9) 0.2298(9) -0.0532(2)
H28 H 1.1608 0.2326 -0.0683
C34 C 1.1250(6) 0.2988(5) -0.02936(14)
loop_
_geom_bond_atom_site_label_1
_geom_bond_atom_site_label_2
_geom_bond_site_symmetry_1
_geom_bond_site_symmetry_2
Cl1 C23 1_555 1_555
Cl2 C27 1_555 1_555
Cl3 C30 1_555 1_555
Cl4 C34 1_555 1_555
N1 C1 1_555 1_555
N2 C20 1_555 1_555
C1 C2 1_555 1_555
C2 H1 1_555 1_555
C3 C2 1_555 1_555
H2 C3 1_555 1_555
C4 C3 1_555 1_555
C5 C4 1_555 1_555
H3 C5 1_555 1_555
H4 C5 1_555 1_555
C6 C5 1_555 1_555
H5 C6 1_555 1_555
H6 C6 1_555 1_555
C7 C6 1_555 1_555
H7 C7 1_555 1_555
H8 C7 1_555 1_555
C8 C7 1_555 1_555
H9 C8 1_555 1_555
H10 C8 1_555 1_555
C9 C4 1_555 1_555
C10 C1 1_555 1_555
C11 C10 1_555 1_555
C12 C11 1_555 1_555
C13 C12 1_555 1_555
H11 C13 1_555 1_555
H12 C13 1_555 1_555
C14 C13 1_555 1_555
H13 C14 1_555 1_555
H14 C14 1_555 1_555
C15 C14 1_555 1_555
H15 C15 1_555 1_555
H16 C15 1_555 1_555
C16 C15 1_555 1_555
H17 C16 1_555 1_555
H18 C16 1_555 1_555
C17 C12 1_555 1_555
C18 C17 1_555 1_555
H19 C18 1_555 1_555
C19 C18 1_555 1_555
H20 C19 1_555 1_555
C20 C11 1_555 1_555
C21 N1 1_555 1_555
H21 C21 1_555 1_555
C22 C21 1_555 1_555
C23 C22 1_555 1_555
C24 C23 1_555 1_555
H22 C24 1_555 1_555
C25 C24 1_555 1_555
H23 C25 1_555 1_555
C26 C25 1_555 1_555
H24 C26 1_555 1_555
C27 C22 1_555 1_555
C28 N2 1_555 1_555
H25 C28 1_555 1_555
C29 C28 1_555 1_555
C30 C29 1_555 1_555
C31 C30 1_555 1_555
H26 C31 1_555 1_555
C32 C31 1_555 1_555
H27 C32 1_555 1_555
C33 C32 1_555 1_555
H28 C33 1_555 1_555
C34 C29 1_555 1_555
C8 C9 1_555 1_555
C9 C10 1_555 1_555
C16 C17 1_555 1_555
C19 C20 1_555 1_555
C26 C27 1_555 1_555
C33 C34 1_555 1_555

#END
