
#######################################################################
#
#                 Cambridge Crystallographic Data Centre
#                                CCDC 
#
#######################################################################
#
# If this CIF has been generated from an entry in the Cambridge 
# Structural Database, then it will include bibliographic, chemical, 
# crystal, experimental, refinement or atomic coordinate data resulting 
# from the CCDC's data processing and validation procedures.
#
#######################################################################

data_SIGDOE
_chemical_formula_moiety         'C20 H17 N1 O1 S1'
_chemical_name_systematic        
5-methyl-5-[1-(2-methylphenyl)prop-2-yn-1-yl]-2-phenyl-1,3-thiazol-4(5H)-one
_symmetry_cell_setting           orthorhombic
_symmetry_space_group_name_H-M   'P 21 21 21'
_symmetry_Int_Tables_number      19
_space_group_name_Hall           'P 2ac 2ab'
loop_
_symmetry_equiv_pos_site_id
_symmetry_equiv_pos_as_xyz
1 x,y,z
2 1/2-x,-y,1/2+z
3 -x,1/2+y,1/2-z
4 1/2+x,1/2-y,-z
_cell_length_a                   8.8136(5)
_cell_length_b                   11.6740(8)
_cell_length_c                   16.8718(10)
_cell_angle_alpha                90
_cell_angle_beta                 90
_cell_angle_gamma                90
_cell_volume                     1735.94
_exptl_crystal_colour            colorless
_exptl_crystal_description       irregular
_cell_formula_units_Z            4
loop_
_atom_site_label
_atom_site_type_symbol
_atom_site_fract_x
_atom_site_fract_y
_atom_site_fract_z
S1 S 0.51831(9) 0.38191(6) 0.66428(5)
O1 O 0.8433(4) 0.4934(3) 0.7925(2)
C1 C 0.5933(4) 0.4824(3) 0.73676(19)
N1 N 0.8094(4) 0.3629(3) 0.69216(18)
C2 C 0.4180(4) 0.6327(3) 0.69040(19)
C3 C 0.6548(4) 0.6004(3) 0.56447(19)
H1 H 0.5682 0.5568 0.5554
C4 C 0.7619(4) 0.4488(3) 0.7437(2)
C5 C 0.5782(4) 0.6090(3) 0.70826(18)
H2 H 0.6059 0.6577 0.7533
C6 C 0.7527(5) 0.6233(4) 0.5019(2)
H3 H 0.7325 0.5943 0.4516
C7 C 0.6838(4) 0.6414(3) 0.6401(2)
C8 C 0.8105(4) 0.7113(3) 0.6534(3)
C9 C 0.8316(5) 0.1480(3) 0.6095(3)
H4 H 0.9027 0.1614 0.6491
C10 C 0.7144(5) 0.2251(3) 0.5971(2)
C11 C 0.2895(5) 0.6488(4) 0.6776(3)
H5 H 0.1872 0.6615 0.6673
C12 C 0.9063(5) 0.7326(4) 0.5886(3)
H6 H 0.9915 0.7783 0.5962
C13 C 0.5139(6) 0.4657(4) 0.8162(2)
H7 H 0.4102 0.4900 0.8119
H8 H 0.5644 0.5105 0.8560
H9 H 0.5173 0.3863 0.8307
C14 C 0.8793(6) 0.6888(4) 0.5147(3)
H10 H 0.9465 0.7034 0.4734
C15 C 0.7399(7) 0.0344(4) 0.5024(4)
H11 H 0.7491 -0.0297 0.4700
C16 C 0.6982(4) 0.3229(3) 0.6509(2)
C17 C 0.8423(6) 0.0519(4) 0.5632(3)
H12 H 0.9185 -0.0015 0.5726
C18 C 0.6123(6) 0.2058(4) 0.5367(3)
H13 H 0.5339 0.2575 0.5277
C19 C 0.8453(5) 0.7648(4) 0.7320(3)
H14 H 0.7634 0.8145 0.7472
H15 H 0.9374 0.8084 0.7281
H16 H 0.8574 0.7059 0.7712
C20 C 0.6262(8) 0.1101(5) 0.4898(3)
H17 H 0.5571 0.0974 0.4491
loop_
_geom_bond_atom_site_label_1
_geom_bond_atom_site_label_2
_geom_bond_site_symmetry_1
_geom_bond_site_symmetry_2
S1 C1 1_555 1_555
O1 C4 1_555 1_555
C1 C4 1_555 1_555
N1 C4 1_555 1_555
C2 C5 1_555 1_555
C3 H1 1_555 1_555
C5 C1 1_555 1_555
H2 C5 1_555 1_555
C6 C3 1_555 1_555
H3 C6 1_555 1_555
C7 C3 1_555 1_555
C8 C7 1_555 1_555
C9 H4 1_555 1_555
C10 C9 1_555 1_555
C11 C2 1_555 1_555
H5 C11 1_555 1_555
C12 C8 1_555 1_555
H6 C12 1_555 1_555
C13 C1 1_555 1_555
H7 C13 1_555 1_555
H8 C13 1_555 1_555
H9 C13 1_555 1_555
C14 C6 1_555 1_555
H10 C14 1_555 1_555
C15 H11 1_555 1_555
C16 S1 1_555 1_555
C17 C9 1_555 1_555
H12 C17 1_555 1_555
C18 C10 1_555 1_555
H13 C18 1_555 1_555
C19 C8 1_555 1_555
H14 C19 1_555 1_555
H15 C19 1_555 1_555
H16 C19 1_555 1_555
C20 C15 1_555 1_555
H17 C20 1_555 1_555
N1 C16 1_555 1_555
C5 C7 1_555 1_555
C10 C16 1_555 1_555
C12 C14 1_555 1_555
C15 C17 1_555 1_555
C18 C20 1_555 1_555

#END
