
#######################################################################
#
#                 Cambridge Crystallographic Data Centre
#                                CCDC 
#
#######################################################################
#
# If this CIF has been generated from an entry in the Cambridge 
# Structural Database, then it will include bibliographic, chemical, 
# crystal, experimental, refinement or atomic coordinate data resulting 
# from the CCDC's data processing and validation procedures.
#
#######################################################################

data_SIGHIZ01
_chemical_formula_moiety         'C18 H19 N1 O6'
_chemical_name_systematic        
'Methyl 3-oxo-2,3,4,4a,6,6a-hexahydro-8H-[1,3]dioxolo[6,7]isochromeno[3,4-c]indole-5(1H)-carboxylate'
_symmetry_cell_setting           monoclinic
_symmetry_space_group_name_H-M   'P 21/c'
_symmetry_Int_Tables_number      14
_space_group_name_Hall           '-P 2ybc'
loop_
_symmetry_equiv_pos_site_id
_symmetry_equiv_pos_as_xyz
1 x,y,z
2 -x,1/2+y,1/2-z
3 -x,-y,-z
4 x,1/2-y,1/2+z
_cell_length_a                   9.399(4)
_cell_length_b                   23.458(11)
_cell_length_c                   7.515(3)
_cell_angle_alpha                90
_cell_angle_beta                 98.241(5)
_cell_angle_gamma                90
_cell_volume                     1639.81
_exptl_crystal_colour            yellow
_exptl_crystal_description       block
_cell_formula_units_Z            4
loop_
_atom_site_label
_atom_site_type_symbol
_atom_site_fract_x
_atom_site_fract_y
_atom_site_fract_z
C1 C 0.1673(2) 0.24775(9) 1.0695(3)
H1 H 0.1457 0.2131 1.0003
H2 H 0.1460 0.2409 1.1902
C2 C 0.3241(2) 0.26107(9) 1.0783(3)
C3 C 0.4210(2) 0.21554(9) 1.0842(3)
H3 H 0.3890 0.1780 1.0779
C4 C 0.5635(3) 0.22804(10) 1.0995(3)
C5 C 0.8016(3) 0.22606(12) 1.1109(4)
H4 H 0.8438 0.2197 1.0021
H5 H 0.8728 0.2167 1.2133
C6 C 0.6110(2) 0.28328(10) 1.1047(3)
C7 C 0.5195(2) 0.32859(10) 1.0970(3)
H6 H 0.5539 0.3658 1.1005
C8 C 0.3708(2) 0.31729(8) 1.0835(3)
C9 C 0.2617(2) 0.36590(8) 1.0636(3)
C10 C 0.1088(2) 0.34536(9) 1.0813(3)
H7 H 0.0942 0.3428 1.2076
C11 C 0.2404(2) 0.38806(9) 0.8667(3)
H8 H 0.2554 0.3564 0.7864
C12 C 0.3399(3) 0.43651(10) 0.8340(3)
H9 H 0.4386 0.4233 0.8570
H10 H 0.3201 0.4480 0.7089
C13 C 0.3233(3) 0.48682(10) 0.9504(4)
C14 C 0.2750(3) 0.47530(10) 1.1269(4)
H11 H 0.1721 0.4815 1.1153
H12 H 0.3209 0.5025 1.2141
C15 C 0.3082(3) 0.41492(9) 1.1988(3)
H13 H 0.2609 0.4094 1.3041
H14 H 0.4110 0.4119 1.2373
C16 C 0.0098(2) 0.38859(10) 0.9808(3)
H15 H -0.0828 0.3719 0.9356
H16 H -0.0047 0.4210 1.0564
C17 C 0.0253(2) 0.41111(9) 0.6601(3)
C18 C -0.1919(3) 0.42899(14) 0.4687(4)
H17 H -0.1588 0.4641 0.4232
H18 H -0.2933 0.4314 0.4727
H19 H -0.1731 0.3981 0.3914
N1 N 0.08803(18) 0.40531(7) 0.8322(2)
O1 O 0.67763(19) 0.19122(7) 1.1104(3)
O2 O 0.75928(18) 0.28429(8) 1.1207(3)
O3 O 0.07775(15) 0.29259(6) 0.98979(19)
O4 O 0.3481(2) 0.53475(8) 0.9032(3)
O5 O 0.09020(19) 0.41017(8) 0.5312(2)
O6 O -0.11708(17) 0.41888(8) 0.6479(2)
loop_
_geom_bond_atom_site_label_1
_geom_bond_atom_site_label_2
_geom_bond_site_symmetry_1
_geom_bond_site_symmetry_2
C1 H1 1_555 1_555
H2 C1 1_555 1_555
C2 C1 1_555 1_555
C3 C2 1_555 1_555
H3 C3 1_555 1_555
C4 C3 1_555 1_555
C5 H4 1_555 1_555
H5 C5 1_555 1_555
C6 C4 1_555 1_555
C7 C6 1_555 1_555
H6 C7 1_555 1_555
C8 C2 1_555 1_555
C9 C8 1_555 1_555
C10 C9 1_555 1_555
H7 C10 1_555 1_555
C11 C9 1_555 1_555
H8 C11 1_555 1_555
C12 C11 1_555 1_555
H9 C12 1_555 1_555
H10 C12 1_555 1_555
C13 C12 1_555 1_555
C14 C13 1_555 1_555
H11 C14 1_555 1_555
H12 C14 1_555 1_555
C15 C9 1_555 1_555
H13 C15 1_555 1_555
H14 C15 1_555 1_555
C16 C10 1_555 1_555
H15 C16 1_555 1_555
H16 C16 1_555 1_555
C17 N1 1_555 1_555
C18 H17 1_555 1_555
H18 C18 1_555 1_555
H19 C18 1_555 1_555
N1 C11 1_555 1_555
O1 C4 1_555 1_555
O2 C5 1_555 1_555
O3 C1 1_555 1_555
O4 C13 1_555 1_555
O5 C17 1_555 1_555
O6 C17 1_555 1_555
C5 O1 1_555 1_555
C6 O2 1_555 1_555
C7 C8 1_555 1_555
C10 O3 1_555 1_555
C14 C15 1_555 1_555
C16 N1 1_555 1_555
C18 O6 1_555 1_555

#END
