
#######################################################################
#
#                 Cambridge Crystallographic Data Centre
#                                CCDC 
#
#######################################################################
#
# If this CIF has been generated from an entry in the Cambridge 
# Structural Database, then it will include bibliographic, chemical, 
# crystal, experimental, refinement or atomic coordinate data resulting 
# from the CCDC's data processing and validation procedures.
#
#######################################################################

data_SIGKOI
_chemical_formula_moiety         'C17 H25 N1 O3 S1'
_chemical_name_systematic        
'4-(2-Methylenecyclopentanecarbonyl)-10,10-dimethyl-4-aza-5-thiatricyclo(5.2.1.0^3,7^)decane 5,5-dioxide'
_symmetry_cell_setting           orthorhombic
_symmetry_space_group_name_H-M   'P 21 21 2'
_symmetry_Int_Tables_number      18
_space_group_name_Hall           'P 2 2ab'
loop_
_symmetry_equiv_pos_site_id
_symmetry_equiv_pos_as_xyz
1 x,y,z
2 1/2+x,1/2-y,-z
3 1/2-x,1/2+y,-z
4 -x,-y,z
_cell_length_a                   15.127(3)
_cell_length_b                   14.248(2)
_cell_length_c                   7.958(1)
_cell_angle_alpha                90
_cell_angle_beta                 90
_cell_angle_gamma                90
_cell_volume                     1715.18
_cell_formula_units_Z            4
loop_
_atom_site_label
_atom_site_type_symbol
_atom_site_fract_x
_atom_site_fract_y
_atom_site_fract_z
S1 S 0.86432(7) 0.07003(7) 0.9953(1)
O1 O 0.7721(2) 0.0828(3) 1.0235(5)
O2 O 0.8954(2) -0.0243(2) 0.9840(4)
N1 N 0.8948(2) 0.1308(2) 0.8218(4)
C1 C 0.9643(3) 0.2003(3) 0.8557(5)
C2 C 0.9634(3) 0.2225(3) 1.0456(5)
C3 C 0.9307(3) 0.1363(3) 1.1371(5)
C4 C 1.0559(3) 0.2575(3) 1.0856(7)
C5 C 1.0585(4) 0.3529(4) 0.992(1)
C6 C 0.9648(4) 0.3632(3) 0.9238(8)
C7 C 0.9083(4) 0.3148(3) 1.0582(7)
C8 C 0.9541(3) 0.2973(3) 0.7723(7)
C9 C 0.8090(3) 0.3068(3) 1.0146(8)
C10 C 0.9130(5) 0.3611(4) 1.2334(8)
C11 C 0.8823(3) 0.0986(4) 0.6594(5)
O3 O 0.9254(3) 0.1332(3) 0.5481(4)
C12 C 0.8136(4) 0.0229(4) 0.6288(6)
C13 C 0.7364(4) 0.0576(5) 0.5311(8)
C14 C 0.7093(5) -0.0138(5) 0.4002(7)
C15 C 0.7740(7) -0.0885(6) 0.418(1)
C16 C 0.8499(5) -0.0549(5) 0.509(1)
C17 C 0.6966(6) 0.1333(7) 0.561(1)
H1 H 1.0199 0.1744 0.8264
H2 H 0.9795 0.0997 1.1734
H3 H 0.8963 0.1543 1.2319
H4 H 1.0643 0.2659 1.2029
H5 H 1.0998 0.2160 1.0432
H6 H 1.1005 0.3515 0.9034
H7 H 1.0725 0.4025 1.0673
H8 H 0.9479 0.4264 0.9022
H9 H 0.9991 0.3078 0.6908
H10 H 0.8978 0.3043 0.7211
H11 H 0.8024 0.2757 0.9096
H12 H 0.7797 0.2720 1.0996
H13 H 0.7840 0.3678 1.0074
H14 H 0.8797 0.4177 1.2334
H15 H 0.9729 0.3749 1.2606
H16 H 0.8894 0.3196 1.3156
H17 H 0.7950 -0.0038 0.7325
H18 H 0.6512 -0.0353 0.4194
H19 H 0.7142 0.0114 0.2904
H20 H 0.7870 -0.1143 0.3137
H21 H 0.7450 -0.1380 0.4865
H22 H 0.8802 -0.1049 0.5686
H23 H 0.8934 -0.0302 0.4290
H24 H 0.6479 0.1506 0.4931
H25 H 0.7153 0.1712 0.6511
loop_
_geom_bond_atom_site_label_1
_geom_bond_atom_site_label_2
_geom_bond_site_symmetry_1
_geom_bond_site_symmetry_2
S1 O1 1_555 1_555
O2 S1 1_555 1_555
N1 S1 1_555 1_555
C1 N1 1_555 1_555
C2 C1 1_555 1_555
C3 S1 1_555 1_555
C4 C2 1_555 1_555
C5 C4 1_555 1_555
C6 C5 1_555 1_555
C7 C2 1_555 1_555
C8 C1 1_555 1_555
C9 C7 1_555 1_555
C10 C7 1_555 1_555
C11 N1 1_555 1_555
O3 C11 1_555 1_555
C12 C11 1_555 1_555
C13 C12 1_555 1_555
C14 C13 1_555 1_555
C15 C14 1_555 1_555
C16 C12 1_555 1_555
C17 C13 1_555 1_555
H1 C1 1_555 1_555
H2 C3 1_555 1_555
H3 C3 1_555 1_555
H4 C4 1_555 1_555
H5 C4 1_555 1_555
H6 C5 1_555 1_555
H7 C5 1_555 1_555
H8 C6 1_555 1_555
H9 C8 1_555 1_555
H10 C8 1_555 1_555
H11 C9 1_555 1_555
H12 C9 1_555 1_555
H13 C9 1_555 1_555
H14 C10 1_555 1_555
H15 C10 1_555 1_555
H16 C10 1_555 1_555
H17 C12 1_555 1_555
H18 C14 1_555 1_555
H19 C14 1_555 1_555
H20 C15 1_555 1_555
H21 C15 1_555 1_555
H22 C16 1_555 1_555
H23 C16 1_555 1_555
H24 C17 1_555 1_555
H25 C17 1_555 1_555
C2 C3 1_555 1_555
C6 C7 1_555 1_555
C6 C8 1_555 1_555
C15 C16 1_555 1_555

#END
