
#######################################################################
#
#                 Cambridge Crystallographic Data Centre
#                                CCDC 
#
#######################################################################
#
# If this CIF has been generated from an entry in the Cambridge 
# Structural Database, then it will include bibliographic, chemical, 
# crystal, experimental, refinement or atomic coordinate data resulting 
# from the CCDC's data processing and validation procedures.
#
#######################################################################

data_SIGMUR
_chemical_formula_moiety         'C26 H22 F2 N2'
_chemical_name_systematic        1,2-bis(4-fluorobenzyl)-1,2-diphenylhydrazine
_symmetry_cell_setting           triclinic
_symmetry_space_group_name_H-M   'P -1'
_symmetry_Int_Tables_number      2
_space_group_name_Hall           '-P 1'
loop_
_symmetry_equiv_pos_site_id
_symmetry_equiv_pos_as_xyz
1 x,y,z
2 -x,-y,-z
_cell_length_a                   8.307(6)
_cell_length_b                   13.991(9)
_cell_length_c                   20.044(13)
_cell_angle_alpha                110.425(7)
_cell_angle_beta                 95.667(9)
_cell_angle_gamma                90.000(9)
_cell_volume                     2170.96
_cell_formula_units_Z            4
loop_
_atom_site_label
_atom_site_type_symbol
_atom_site_fract_x
_atom_site_fract_y
_atom_site_fract_z
F1 F 0.8057(8) 1.5278(4) 0.4226(3)
F2 F 0.3891(8) 0.6338(4) 0.4202(3)
N1 N 0.5832(10) 1.0532(5) 0.2514(4)
N2 N 0.5546(10) 0.9397(5) 0.2516(4)
C1 C 0.7766(13) 1.4230(6) 0.3962(6)
C2 C 0.6742(12) 1.3821(6) 0.3349(5)
H1 H 0.6252 1.4242 0.3123
C3 C 0.6432(11) 1.2759(6) 0.3062(5)
H2 H 0.5770 1.2470 0.2634
C4 C 0.7125(9) 1.2138(6) 0.3422(4)
C5 C 0.8130(10) 1.2598(6) 0.4049(4)
H3 H 0.8614 1.2197 0.4292
C6 C 0.8425(11) 1.3647(7) 0.4321(5)
H4 H 0.9076 1.3947 0.4750
C7 C 0.6863(10) 1.1080(5) 0.3166(4)
H5 H 0.7375 1.0709 0.3425
C8 C 0.6609(9) 1.0514(5) 0.1843(4)
C9 C 0.5719(11) 1.0724(7) 0.1287(5)
H6 H 0.4625 1.0855 0.1314
C10 C 0.6441(15) 1.0739(8) 0.0690(5)
H7 H 0.5831 1.0907 0.0335
C11 C 0.8010(17) 1.0513(8) 0.0620(7)
H8 H 0.8476 1.0509 0.0216
C12 C 0.8910(14) 1.0289(9) 0.1158(7)
H9 H 0.9992 1.0133 0.1118
C13 C 0.8211(12) 1.0292(7) 0.1763(6)
H10 H 0.8840 1.0141 0.2122
C14 C 0.4476(9) 0.8759(6) 0.1841(4)
C15 C 0.5140(10) 0.8066(7) 0.1267(5)
H11 H 0.6257 0.8005 0.1280
C16 C 0.4133(13) 0.7459(7) 0.0668(5)
H12 H 0.4604 0.7003 0.0286
C17 C 0.2523(13) 0.7507(8) 0.0621(6)
H13 H 0.1884 0.7087 0.0218
C18 C 0.1827(12) 0.8193(8) 0.1184(6)
H14 H 0.0708 0.8245 0.1160
C19 C 0.2806(11) 0.8814(7) 0.1794(5)
H15 H 0.2325 0.9269 0.2173
C20 C 0.4823(9) 0.9498(5) 0.3170(4)
H16 H 0.4468 1.0133 0.3440
C21 C 0.4641(9) 0.8678(6) 0.3408(4)
C22 C 0.4997(10) 0.7683(6) 0.3022(4)
H17 H 0.5392 0.7523 0.2580
C23 C 0.4749(10) 0.6911(6) 0.3313(5)
H18 H 0.5023 0.6245 0.3067
C24 C 0.4115(11) 0.7133(7) 0.3947(5)
C25 C 0.3768(11) 0.8103(8) 0.4336(5)
H19 H 0.3368 0.8252 0.4777
C26 C 0.4022(10) 0.8870(6) 0.4064(5)
H20 H 0.3772 0.9535 0.4327
F3 F 1.1033(8) -0.0263(4) 0.5789(3)
F4 F 0.7000(8) 0.8696(4) 0.5840(3)
N3 N 0.9597(10) 0.4477(5) 0.7504(5)
N4 N 0.9312(10) 0.5607(6) 0.7514(4)
C27 C 1.0823(11) 0.0785(6) 0.6059(5)
C28 C 1.1311(11) 0.1375(7) 0.5686(5)
H21 H 1.1764 0.1078 0.5258
C29 C 1.1118(10) 0.2412(6) 0.5958(4)
H22 H 1.1462 0.2815 0.5711
C30 C 1.0427(9) 0.2871(6) 0.6587(4)
C31 C 0.9927(10) 0.2239(6) 0.6958(5)
H23 H 0.9475 0.2525 0.7388
C32 C 1.0123(11) 0.1185(6) 0.6672(5)
H24 H 0.9773 0.0762 0.6902
C33 C 1.0263(10) 0.3926(5) 0.6841(4)
H25 H 1.0599 0.4296 0.6570
C34 C 1.0726(9) 0.4494(6) 0.8162(4)
C35 C 1.2362(11) 0.4702(7) 0.8223(6)
H26 H 1.2806 0.4848 0.7860
C36 C 1.3360(13) 0.4697(9) 0.8819(7)
H27 H 1.4462 0.4843 0.8847
C37 C 1.2766(15) 0.4485(8) 0.9367(7)
H28 H 1.3450 0.4491 0.9765
C38 C 1.1147(15) 0.4264(8) 0.9316(5)
H29 H 1.0731 0.4091 0.9675
C39 C 1.0109(11) 0.4293(7) 0.8731(5)
H30 H 0.9001 0.4179 0.8718
C40 C 0.8577(9) 0.6254(5) 0.8202(4)
C41 C 0.9551(10) 0.6938(7) 0.8774(5)
H31 H 1.0662 0.6979 0.8757
C42 C 0.8856(13) 0.7557(7) 0.9369(5)
H32 H 0.9510 0.8024 0.9744
C43 C 0.7248(14) 0.7500(8) 0.9416(6)
H33 H 0.6804 0.7923 0.9819
C44 C 0.6270(12) 0.6808(8) 0.8861(6)
H34 H 0.5167 0.6754 0.8895
C45 C 0.6932(11) 0.6189(6) 0.8249(5)
H35 H 0.6266 0.5732 0.7872
C46 C 0.8256(9) 0.5527(5) 0.6873(4)
H36 H 0.7735 0.4901 0.6611
C47 C 0.7983(10) 0.6334(6) 0.6630(4)
C48 C 0.8547(10) 0.7340(6) 0.7019(5)
H37 H 0.9144 0.7491 0.7463
C49 C 0.8214(11) 0.8118(6) 0.6741(5)
H38 H 0.8617 0.8780 0.6993
C50 C 0.7305(12) 0.7900(7) 0.6104(5)
C51 C 0.6749(12) 0.6950(8) 0.5706(5)
H39 H 0.6162 0.6820 0.5262
C52 C 0.7069(10) 0.6153(6) 0.5972(4)
H40 H 0.6664 0.5496 0.5706
loop_
_geom_bond_atom_site_label_1
_geom_bond_atom_site_label_2
_geom_bond_site_symmetry_1
_geom_bond_site_symmetry_2
F1 C1 1_555 1_555
F2 C24 1_555 1_555
N1 N2 1_555 1_555
N2 C14 1_555 1_555
C1 C2 1_555 1_555
C2 H1 1_555 1_555
C3 C2 1_555 1_555
H2 C3 1_555 1_555
C4 C3 1_555 1_555
C5 C4 1_555 1_555
H3 C5 1_555 1_555
C6 C1 1_555 1_555
H4 C6 1_555 1_555
C7 N1 1_555 1_555
H5 C7 1_555 1_555
C8 N1 1_555 1_555
C9 C8 1_555 1_555
H6 C9 1_555 1_555
C10 C9 1_555 1_555
H7 C10 1_555 1_555
C11 C10 1_555 1_555
H8 C11 1_555 1_555
C12 C11 1_555 1_555
H9 C12 1_555 1_555
C13 C8 1_555 1_555
H10 C13 1_555 1_555
C14 C15 1_555 1_555
C15 H11 1_555 1_555
C16 C15 1_555 1_555
H12 C16 1_555 1_555
C17 C16 1_555 1_555
H13 C17 1_555 1_555
C18 C17 1_555 1_555
H14 C18 1_555 1_555
C19 C14 1_555 1_555
H15 C19 1_555 1_555
C20 N2 1_555 1_555
H16 C20 1_555 1_555
C21 C20 1_555 1_555
C22 C21 1_555 1_555
H17 C22 1_555 1_555
C23 C22 1_555 1_555
H18 C23 1_555 1_555
C24 C23 1_555 1_555
C25 C24 1_555 1_555
H19 C25 1_555 1_555
C26 C21 1_555 1_555
H20 C26 1_555 1_555
F3 C27 1_555 1_555
F4 C50 1_555 1_555
N3 N4 1_555 1_555
N4 C40 1_555 1_555
C27 C28 1_555 1_555
C28 H21 1_555 1_555
C29 C28 1_555 1_555
H22 C29 1_555 1_555
C30 C29 1_555 1_555
C31 C30 1_555 1_555
H23 C31 1_555 1_555
C32 C27 1_555 1_555
H24 C32 1_555 1_555
C33 N3 1_555 1_555
H25 C33 1_555 1_555
C34 N3 1_555 1_555
C35 C34 1_555 1_555
H26 C35 1_555 1_555
C36 C35 1_555 1_555
H27 C36 1_555 1_555
C37 C36 1_555 1_555
H28 C37 1_555 1_555
C38 C37 1_555 1_555
H29 C38 1_555 1_555
C39 C34 1_555 1_555
H30 C39 1_555 1_555
C40 C41 1_555 1_555
C41 H31 1_555 1_555
C42 C41 1_555 1_555
H32 C42 1_555 1_555
C43 C42 1_555 1_555
H33 C43 1_555 1_555
C44 C43 1_555 1_555
H34 C44 1_555 1_555
C45 C40 1_555 1_555
H35 C45 1_555 1_555
C46 N4 1_555 1_555
H36 C46 1_555 1_555
C47 C46 1_555 1_555
C48 C47 1_555 1_555
H37 C48 1_555 1_555
C49 C48 1_555 1_555
H38 C49 1_555 1_555
C50 C49 1_555 1_555
C51 C50 1_555 1_555
H39 C51 1_555 1_555
C52 C47 1_555 1_555
H40 C52 1_555 1_555
C4 C7 1_555 1_555
C5 C6 1_555 1_555
C12 C13 1_555 1_555
C18 C19 1_555 1_555
C25 C26 1_555 1_555
C30 C33 1_555 1_555
C31 C32 1_555 1_555
C38 C39 1_555 1_555
C44 C45 1_555 1_555
C51 C52 1_555 1_555

#END
