
#######################################################################
#
#                 Cambridge Crystallographic Data Centre
#                                CCDC 
#
#######################################################################
#
# If this CIF has been generated from an entry in the Cambridge 
# Structural Database, then it will include bibliographic, chemical, 
# crystal, experimental, refinement or atomic coordinate data resulting 
# from the CCDC's data processing and validation procedures.
#
#######################################################################

data_SIGMON
_chemical_formula_moiety         'C40 H58 O2 S2'
_chemical_name_systematic        
5,5,11,11-tetrahexyl-5,11-dihydrobisthieno[2,3-e:2,3-e']benzo[1,2-c:4,5-c']dipyran
_symmetry_cell_setting           triclinic
_symmetry_space_group_name_H-M   'P -1'
_symmetry_Int_Tables_number      2
_space_group_name_Hall           '-P 1'
loop_
_symmetry_equiv_pos_site_id
_symmetry_equiv_pos_as_xyz
1 x,y,z
2 -x,-y,-z
_cell_length_a                   8.7072(17)
_cell_length_b                   10.392(2)
_cell_length_c                   11.778(3)
_cell_angle_alpha                74.673(12)
_cell_angle_beta                 70.252(11)
_cell_angle_gamma                65.71(3)
_cell_volume                     904.451
_exptl_crystal_colour            'light yellow'
_exptl_crystal_description       block
_cell_formula_units_Z            1
loop_
_atom_site_label
_atom_site_type_symbol
_atom_site_fract_x
_atom_site_fract_y
_atom_site_fract_z
S1 S -0.00229(4) 0.99790(3) 0.65289(3)
O1 O 0.39447(11) 0.66580(9) 0.54652(8)
C1 C -0.05792(17) 0.85129(15) 0.67331(12)
H1 H -0.1712 0.8515 0.7068
C2 C 0.08134(17) 0.73505(14) 0.63537(12)
H2 H 0.0754 0.6465 0.6396
C3 C 0.23729(15) 0.76631(12) 0.58831(10)
C4 C 0.21350(15) 0.90379(12) 0.59121(11)
C5 C 0.35642(15) 0.95607(12) 0.54533(10)
C6 C 0.52133(15) 0.85859(12) 0.49590(10)
C7 C 0.66224(15) 0.90447(12) 0.45167(11)
H3 H 0.7721 0.8408 0.4191
C8 C 0.54903(15) 0.70623(12) 0.48525(11)
C9 C 0.59648(16) 0.68789(12) 0.35085(11)
H4 H 0.7060 0.7030 0.3091
H5 H 0.6150 0.5902 0.3474
C10 C 0.46073(17) 0.78755(14) 0.28227(12)
H6 H 0.4465 0.8854 0.2813
H7 H 0.3496 0.7760 0.3255
C11 C 0.50927(18) 0.76034(14) 0.15117(12)
H8 H 0.6223 0.7686 0.1086
H9 H 0.5193 0.6636 0.1522
C12 C 0.37601(19) 0.86387(15) 0.08188(12)
H10 H 0.3663 0.9604 0.0815
H11 H 0.2631 0.8557 0.1252
C13 C 0.4192(2) 0.84033(16) -0.04928(13)
H12 H 0.5321 0.8482 -0.0931
H13 H 0.4275 0.7444 -0.0494
C14 C 0.2838(3) 0.94649(19) -0.11572(15)
H14 H 0.3174 0.9272 -0.1977
H15 H 0.2764 1.0417 -0.1173
H16 H 0.1722 0.9376 -0.0741
C15 C 0.69063(16) 0.59400(12) 0.54562(11)
H17 H 0.7011 0.5001 0.5373
H18 H 0.8012 0.6061 0.5013
C16 C 0.65990(17) 0.59822(13) 0.68014(12)
H19 H 0.5462 0.5925 0.7249
H20 H 0.6603 0.6882 0.6891
C17 C 0.80014(17) 0.47531(14) 0.73386(12)
H21 H 0.7975 0.3858 0.7257
H22 H 0.9136 0.4800 0.6867
C18 C 0.77976(19) 0.47540(15) 0.86720(13)
H23 H 0.7816 0.5650 0.8757
H24 H 0.6669 0.4697 0.9147
C19 C 0.9208(2) 0.35349(18) 0.91881(14)
H25 H 1.0331 0.3620 0.8737
H26 H 0.9227 0.2641 0.9065
C20 C 0.8970(3) 0.3483(2) 1.05362(16)
H27 H 0.8976 0.4355 1.0666
H28 H 0.9907 0.2692 1.0800
H29 H 0.7878 0.3370 1.0994
S1A S 1.00229(4) 1.00210(3) 0.34711(3)
O1A O 0.60553(11) 1.33420(9) 0.45348(8)
C1A C 1.05792(17) 1.14871(15) 0.32669(12)
H1A H 1.1712 1.1485 0.2932
C2A C 0.91866(17) 1.26495(14) 0.36463(12)
H2A H 0.9246 1.3535 0.3604
C3A C 0.76271(15) 1.23369(12) 0.41169(10)
C4A C 0.78650(15) 1.09621(12) 0.40879(11)
C5A C 0.64358(15) 1.04393(12) 0.45467(10)
C6A C 0.47867(15) 1.14141(12) 0.50410(10)
C7A C 0.33776(15) 1.09553(12) 0.54833(11)
H3A H 0.2279 1.1592 0.5809
C8A C 0.45097(15) 1.29377(12) 0.51475(11)
C9A C 0.40352(16) 1.31211(12) 0.64915(11)
H4A H 0.2940 1.2970 0.6909
H5A H 0.3850 1.4098 0.6526
C10A C 0.53927(17) 1.21245(14) 0.71773(12)
H6A H 0.5535 1.1146 0.7187
H7A H 0.6504 1.2240 0.6745
C11A C 0.49073(18) 1.23966(14) 0.84883(12)
H8A H 0.3777 1.2314 0.8914
H9A H 0.4807 1.3364 0.8478
C12A C 0.62399(19) 1.13613(15) 0.91812(12)
H10A H 0.6337 1.0396 0.9185
H11A H 0.7369 1.1443 0.8748
C13A C 0.5808(2) 1.15967(16) 1.04928(13)
H12A H 0.4679 1.1518 1.0931
H13A H 0.5725 1.2556 1.0494
C14A C 0.7162(3) 1.05351(19) 1.11572(15)
H14A H 0.6826 1.0728 1.1977
H15A H 0.7236 0.9583 1.1173
H16A H 0.8278 1.0624 1.0741
C15A C 0.30937(16) 1.40600(12) 0.45438(11)
H17A H 0.2989 1.4999 0.4627
H18A H 0.1988 1.3939 0.4987
C16A C 0.34010(17) 1.40178(13) 0.31986(12)
H19A H 0.4538 1.4075 0.2751
H20A H 0.3397 1.3118 0.3109
C17A C 0.19986(17) 1.52469(14) 0.26614(12)
H21A H 0.2025 1.6142 0.2743
H22A H 0.0864 1.5200 0.3133
C18A C 0.22024(19) 1.52460(15) 0.13280(13)
H23A H 0.2184 1.4350 0.1243
H24A H 0.3331 1.5303 0.0853
C19A C 0.0792(2) 1.64651(18) 0.08119(14)
H25A H -0.0331 1.6380 0.1263
H26A H 0.0773 1.7359 0.0935
C20A C 0.1030(3) 1.6517(2) -0.05362(16)
H27A H 0.1024 1.5645 -0.0666
H28A H 0.0093 1.7308 -0.0800
H29A H 0.2122 1.6630 -0.0994
loop_
_geom_bond_atom_site_label_1
_geom_bond_atom_site_label_2
_geom_bond_site_symmetry_1
_geom_bond_site_symmetry_2
S1 C1 1_555 1_555
O1 C3 1_555 1_555
C1 H1 1_555 1_555
C2 C1 1_555 1_555
H2 C2 1_555 1_555
C3 C2 1_555 1_555
C4 S1 1_555 1_555
C5 C4 1_555 1_555
C6 C5 1_555 1_555
C7 C6 1_555 1_555
H3 C7 1_555 1_555
C8 O1 1_555 1_555
C9 C8 1_555 1_555
H4 C9 1_555 1_555
H5 C9 1_555 1_555
C10 C9 1_555 1_555
H6 C10 1_555 1_555
H7 C10 1_555 1_555
C11 C10 1_555 1_555
H8 C11 1_555 1_555
H9 C11 1_555 1_555
C12 C11 1_555 1_555
H10 C12 1_555 1_555
H11 C12 1_555 1_555
C13 C12 1_555 1_555
H12 C13 1_555 1_555
H13 C13 1_555 1_555
C14 C13 1_555 1_555
H14 C14 1_555 1_555
H15 C14 1_555 1_555
H16 C14 1_555 1_555
C15 C8 1_555 1_555
H17 C15 1_555 1_555
H18 C15 1_555 1_555
C16 C15 1_555 1_555
H19 C16 1_555 1_555
H20 C16 1_555 1_555
C17 C16 1_555 1_555
H21 C17 1_555 1_555
H22 C17 1_555 1_555
C18 C17 1_555 1_555
H23 C18 1_555 1_555
H24 C18 1_555 1_555
C19 C18 1_555 1_555
H25 C19 1_555 1_555
H26 C19 1_555 1_555
C20 C19 1_555 1_555
H27 C20 1_555 1_555
H28 C20 1_555 1_555
H29 C20 1_555 1_555
S1A C1A 1_555 1_555
O1A C3A 1_555 1_555
C1A H1A 1_555 1_555
C2A C1A 1_555 1_555
H2A C2A 1_555 1_555
C3A C2A 1_555 1_555
C4A S1A 1_555 1_555
C5A C7 1_555 1_555
C6A C5A 1_555 1_555
C7A C5 1_555 1_555
H3A C7A 1_555 1_555
C8A O1A 1_555 1_555
C9A C8A 1_555 1_555
H4A C9A 1_555 1_555
H5A C9A 1_555 1_555
C10A C9A 1_555 1_555
H6A C10A 1_555 1_555
H7A C10A 1_555 1_555
C11A C10A 1_555 1_555
H8A C11A 1_555 1_555
H9A C11A 1_555 1_555
C12A C11A 1_555 1_555
H10A C12A 1_555 1_555
H11A C12A 1_555 1_555
C13A C12A 1_555 1_555
H12A C13A 1_555 1_555
H13A C13A 1_555 1_555
C14A C13A 1_555 1_555
H14A C14A 1_555 1_555
H15A C14A 1_555 1_555
H16A C14A 1_555 1_555
C15A C8A 1_555 1_555
H17A C15A 1_555 1_555
H18A C15A 1_555 1_555
C16A C15A 1_555 1_555
H19A C16A 1_555 1_555
H20A C16A 1_555 1_555
C17A C16A 1_555 1_555
H21A C17A 1_555 1_555
H22A C17A 1_555 1_555
C18A C17A 1_555 1_555
H23A C18A 1_555 1_555
H24A C18A 1_555 1_555
C19A C18A 1_555 1_555
H25A C19A 1_555 1_555
H26A C19A 1_555 1_555
C20A C19A 1_555 1_555
H27A C20A 1_555 1_555
H28A C20A 1_555 1_555
H29A C20A 1_555 1_555
C3 C4 1_555 1_555
C6 C8 1_555 1_555
C3A C4A 1_555 1_555
C4A C5A 1_555 1_555
C6A C7A 1_555 1_555
C6A C8A 1_555 1_555

#END
