
#######################################################################
#
#                 Cambridge Crystallographic Data Centre
#                                CCDC 
#
#######################################################################
#
# If this CIF has been generated from an entry in the Cambridge 
# Structural Database, then it will include bibliographic, chemical, 
# crystal, experimental, refinement or atomic coordinate data resulting 
# from the CCDC's data processing and validation procedures.
#
#######################################################################

data_SIGNAY
_chemical_formula_moiety         'C48 H38 N4 S1,C4 H8 O1,H2 O1'
_chemical_name_systematic        
'1^4^,1^5^-Dimethyl-5,5,7,7-tetraphenyl-2,10-diaza-1(1,2)-benzena-4,8(2,5)-dipyrrola-6(2,5)-thiophenacyclodecaphane-2,9-diene tetrahydrofuran solvate monohydrate'
_symmetry_cell_setting           triclinic
_symmetry_space_group_name_H-M   'P -1'
_symmetry_Int_Tables_number      2
_space_group_name_Hall           '-P 1'
loop_
_symmetry_equiv_pos_site_id
_symmetry_equiv_pos_as_xyz
1 x,y,z
2 -x,-y,-z
_cell_length_a                   9.0733(3)
_cell_length_b                   11.8905(5)
_cell_length_c                   21.3945(10)
_cell_angle_alpha                85.837(2)
_cell_angle_beta                 88.319(2)
_cell_angle_gamma                70.731(2)
_cell_volume                     2173.08
_exptl_crystal_colour            yellow
_exptl_crystal_description       prisms
_cell_formula_units_Z            2
loop_
_atom_site_label
_atom_site_type_symbol
_atom_site_fract_x
_atom_site_fract_y
_atom_site_fract_z
S1 S 0.11552(14) 0.34579(10) 0.29208(6)
N1 N 0.2919(4) 0.4019(3) 0.12511(18)
H1 H 0.3379 0.3638 0.1609
N2 N 0.5987(5) 0.2533(3) 0.10587(19)
N3 N 0.6949(5) 0.0651(4) 0.18998(19)
N4 N 0.4664(4) 0.0454(3) 0.27985(18)
H2 H 0.4592 0.1221 0.2705
C1 C 0.1563(5) 0.1933(4) 0.2896(2)
C2 C 0.1343(5) 0.1665(4) 0.2305(2)
H3 H 0.1513 0.0864 0.2193
C3 C 0.0846(5) 0.2673(4) 0.1876(2)
H4 H 0.0621 0.2640 0.1443
C4 C 0.0715(5) 0.3707(4) 0.2139(2)
C5 C 0.0354(5) 0.4938(4) 0.1780(2)
C6 C 0.1386(5) 0.4761(4) 0.1199(2)
C7 C 0.1145(5) 0.5170(4) 0.0586(2)
H5 H 0.0176 0.5696 0.0415
C8 C 0.2558(6) 0.4672(5) 0.0255(2)
H6 H 0.2734 0.4814 -0.0184
C9 C 0.3630(5) 0.3951(4) 0.0678(2)
C10 C 0.5223(5) 0.3157(4) 0.0592(2)
H7 H 0.5689 0.3100 0.0181
C11 C 0.7545(5) 0.1748(4) 0.0993(2)
C12 C 0.8609(6) 0.1928(4) 0.0543(2)
H8 H 0.8281 0.2607 0.0246
C13 C 1.0143(6) 0.1153(4) 0.0520(2)
C14 C 1.0641(6) 0.0182(4) 0.0959(2)
C15 C 0.9581(6) 0.0006(4) 0.1407(2)
H9 H 0.9923 -0.0660 0.1712
C16 C 0.8049(5) 0.0764(4) 0.1433(2)
C17 C 0.6951(6) -0.0374(5) 0.2120(2)
H10 H 0.7748 -0.1071 0.1984
C18 C 0.5803(5) -0.0513(4) 0.2582(2)
C19 C 0.5529(6) -0.1511(5) 0.2845(3)
H11 H 0.6160 -0.2321 0.2783
C20 C 0.4178(6) -0.1139(4) 0.3224(2)
H12 H 0.3704 -0.1645 0.3462
C21 C 0.3655(5) 0.0085(4) 0.3185(2)
C22 C 0.2219(5) 0.1030(4) 0.3445(2)
C23 C -0.1396(5) 0.5463(4) 0.1576(2)
C24 C -0.1967(5) 0.6629(4) 0.1324(2)
H13 H -0.1262 0.7079 0.1271
C25 C -0.3510(5) 0.7158(4) 0.1151(2)
H14 H -0.3878 0.7967 0.0974
C26 C -0.4541(6) 0.6504(5) 0.1237(2)
H15 H -0.5617 0.6855 0.1119
C27 C -0.3996(5) 0.5352(5) 0.1489(2)
H16 H -0.4695 0.4899 0.1553
C28 C -0.2431(5) 0.4827(4) 0.1655(2)
H17 H -0.2049 0.4013 0.1823
C29 C 0.0634(5) 0.5844(4) 0.2202(2)
C30 C 0.1841(6) 0.6314(4) 0.2084(2)
H18 H 0.2543 0.6052 0.1739
C31 C 0.2032(6) 0.7155(4) 0.2464(2)
H19 H 0.2851 0.7489 0.2376
C32 C 0.1056(6) 0.7515(4) 0.2970(2)
H20 H 0.1188 0.8095 0.3234
C33 C -0.0130(6) 0.7032(4) 0.3093(2)
H21 H -0.0794 0.7264 0.3452
C34 C -0.0335(6) 0.6222(4) 0.2713(2)
H22 H -0.1181 0.5916 0.2799
C35 C 1.1267(6) 0.1407(5) 0.0036(3)
H23 H 1.2122 0.1543 0.0235
H24 H 1.0705 0.2093 -0.0228
H25 H 1.1641 0.0741 -0.0221
C36 C 1.2315(6) -0.0625(5) 0.0972(3)
H26 H 1.3009 -0.0166 0.0973
H27 H 1.2514 -0.1100 0.0615
H28 H 1.2460 -0.1159 0.1341
C37 C 0.2633(6) 0.1618(4) 0.4004(2)
C38 C 0.4155(6) 0.1298(5) 0.4226(2)
H29 H 0.4985 0.0708 0.4024
C39 C 0.4473(8) 0.1828(6) 0.4738(3)
H30 H 0.5517 0.1610 0.4896
C40 C 0.3317(9) 0.2677(6) 0.5028(3)
H31 H 0.3557 0.3045 0.5379
C41 C 0.1794(8) 0.3010(5) 0.4816(3)
H32 H 0.0976 0.3602 0.5022
C42 C 0.1457(6) 0.2476(4) 0.4306(2)
H33 H 0.0406 0.2702 0.4156
C43 C 0.1000(5) 0.0427(4) 0.3687(2)
C44 C -0.0455(6) 0.0687(4) 0.3421(2)
H34 H -0.0717 0.1234 0.3056
C45 C -0.1525(6) 0.0166(5) 0.3668(3)
H35 H -0.2524 0.0348 0.3473
C46 C -0.1132(7) -0.0633(5) 0.4184(3)
H36 H -0.1885 -0.0976 0.4361
C47 C 0.0313(7) -0.0926(5) 0.4449(2)
H37 H 0.0588 -0.1497 0.4804
C48 C 0.1371(6) -0.0378(4) 0.4207(2)
H38 H 0.2380 -0.0569 0.4394
O1 O 0.4646(4) 0.2772(3) 0.23375(16)
H39 H 0.5452 0.2372 0.2017
H40 H 0.4909 0.2806 0.2798
O2 O 0.5438(6) 0.3931(6) 0.3252(3)
C49 C 0.4193(8) 0.4599(6) 0.3604(3)
H41 H 0.3776 0.4085 0.3867
H42 H 0.3379 0.5110 0.3336
C50 C 0.4863(11) 0.5273(8) 0.3994(5)
H43 H 0.4513 0.5244 0.4421
H44 H 0.4553 0.6090 0.3831
C51 C 0.6571(11) 0.4749(13) 0.3909(7)
H45 H 0.6974 0.4340 0.4303
H46 H 0.7059 0.5344 0.3808
C52 C 0.6830(10) 0.3912(10) 0.3456(5)
H47 H 0.7418 0.4143 0.3120
H48 H 0.7412 0.3123 0.3622
loop_
_geom_bond_atom_site_label_1
_geom_bond_atom_site_label_2
_geom_bond_site_symmetry_1
_geom_bond_site_symmetry_2
S1 C1 1_555 1_555
N1 H1 1_555 1_555
N2 C10 1_555 1_555
N3 C16 1_555 1_555
N4 H2 1_555 1_555
C1 C2 1_555 1_555
C2 H3 1_555 1_555
C3 C2 1_555 1_555
H4 C3 1_555 1_555
C4 S1 1_555 1_555
C5 C4 1_555 1_555
C6 N1 1_555 1_555
C7 C6 1_555 1_555
H5 C7 1_555 1_555
C8 C7 1_555 1_555
H6 C8 1_555 1_555
C9 N1 1_555 1_555
C10 C9 1_555 1_555
H7 C10 1_555 1_555
C11 N2 1_555 1_555
C12 C11 1_555 1_555
H8 C12 1_555 1_555
C13 C12 1_555 1_555
C14 C13 1_555 1_555
C15 C14 1_555 1_555
H9 C15 1_555 1_555
C16 C11 1_555 1_555
C17 N3 1_555 1_555
H10 C17 1_555 1_555
C18 N4 1_555 1_555
C19 C18 1_555 1_555
H11 C19 1_555 1_555
C20 C19 1_555 1_555
H12 C20 1_555 1_555
C21 N4 1_555 1_555
C22 C1 1_555 1_555
C23 C5 1_555 1_555
C24 C23 1_555 1_555
H13 C24 1_555 1_555
C25 C24 1_555 1_555
H14 C25 1_555 1_555
C26 C25 1_555 1_555
H15 C26 1_555 1_555
C27 C26 1_555 1_555
H16 C27 1_555 1_555
C28 C23 1_555 1_555
H17 C28 1_555 1_555
C29 C5 1_555 1_555
C30 C29 1_555 1_555
H18 C30 1_555 1_555
C31 C30 1_555 1_555
H19 C31 1_555 1_555
C32 C31 1_555 1_555
H20 C32 1_555 1_555
C33 C32 1_555 1_555
H21 C33 1_555 1_555
C34 C29 1_555 1_555
H22 C34 1_555 1_555
C35 C13 1_555 1_555
H23 C35 1_555 1_555
H24 C35 1_555 1_555
H25 C35 1_555 1_555
C36 C14 1_555 1_555
H26 C36 1_555 1_555
H27 C36 1_555 1_555
H28 C36 1_555 1_555
C37 C22 1_555 1_555
C38 C37 1_555 1_555
H29 C38 1_555 1_555
C39 C38 1_555 1_555
H30 C39 1_555 1_555
C40 C39 1_555 1_555
H31 C40 1_555 1_555
C41 C40 1_555 1_555
H32 C41 1_555 1_555
C42 C37 1_555 1_555
H33 C42 1_555 1_555
C43 C22 1_555 1_555
C44 C43 1_555 1_555
H34 C44 1_555 1_555
C45 C44 1_555 1_555
H35 C45 1_555 1_555
C46 C45 1_555 1_555
H36 C46 1_555 1_555
C47 C46 1_555 1_555
H37 C47 1_555 1_555
C48 C43 1_555 1_555
H38 C48 1_555 1_555
O1 H39 1_555 1_555
H40 O1 1_555 1_555
O2 C49 1_555 1_555
C49 H41 1_555 1_555
H42 C49 1_555 1_555
C50 C49 1_555 1_555
H43 C50 1_555 1_555
H44 C50 1_555 1_555
C51 C50 1_555 1_555
H45 C51 1_555 1_555
H46 C51 1_555 1_555
C52 O2 1_555 1_555
H47 C52 1_555 1_555
H48 C52 1_555 1_555
C3 C4 1_555 1_555
C5 C6 1_555 1_555
C8 C9 1_555 1_555
C15 C16 1_555 1_555
C17 C18 1_555 1_555
C20 C21 1_555 1_555
C21 C22 1_555 1_555
C27 C28 1_555 1_555
C33 C34 1_555 1_555
C41 C42 1_555 1_555
C47 C48 1_555 1_555
C51 C52 1_555 1_555

#END
