
#######################################################################
#
#                 Cambridge Crystallographic Data Centre
#                                CCDC 
#
#######################################################################
#
# If this CIF has been generated from an entry in the Cambridge 
# Structural Database, then it will include bibliographic, chemical, 
# crystal, experimental, refinement or atomic coordinate data resulting 
# from the CCDC's data processing and validation procedures.
#
#######################################################################

data_SIGWUD
_chemical_formula_moiety         'C19 H13 Cl1 O2'
_chemical_name_systematic        
2-[(4-chlorophenyl)methylidene]-6-phenyl-2H-pyran-5-carbaldehyde
_symmetry_cell_setting           monoclinic
_symmetry_space_group_name_H-M   'P 21/c'
_symmetry_Int_Tables_number      14
_space_group_name_Hall           '-P 2ybc'
loop_
_symmetry_equiv_pos_site_id
_symmetry_equiv_pos_as_xyz
1 x,y,z
2 -x,1/2+y,1/2-z
3 -x,-y,-z
4 x,1/2-y,1/2+z
_cell_length_a                   16.4189(13)
_cell_length_b                   12.6890(9)
_cell_length_c                   7.3080(6)
_cell_angle_alpha                90
_cell_angle_beta                 94.092(3)
_cell_angle_gamma                90
_cell_volume                     1518.66
_exptl_crystal_colour            colorless
_exptl_crystal_description       prismatic
_cell_formula_units_Z            4
loop_
_atom_site_label
_atom_site_type_symbol
_atom_site_fract_x
_atom_site_fract_y
_atom_site_fract_z
Cl1 Cl 0.34530(4) 0.76488(4) 0.35457(8)
O1 O 0.09824(8) -0.08887(10) 0.3778(2)
O2 O 0.19002(6) 0.26182(8) 0.34088(16)
C1 C 0.15359(10) -0.02576(13) 0.3870(2)
H1 H 0.2066 -0.0503 0.4118
C2 C 0.14090(9) 0.08705(12) 0.3609(2)
C3 C 0.05846(9) 0.12828(14) 0.3525(2)
H2 H 0.0144 0.0822 0.3523
C4 C 0.04555(10) 0.23158(13) 0.3452(3)
H3 H -0.0078 0.2568 0.3393
C5 C 0.11177(9) 0.30499(13) 0.3461(2)
C6 C 0.20352(9) 0.15609(12) 0.3525(2)
C7 C 0.29188(9) 0.13468(12) 0.3545(2)
C8 C 0.32251(10) 0.05163(14) 0.2569(2)
H4 H 0.2870 0.0065 0.1901
C9 C 0.40581(12) 0.03596(17) 0.2591(3)
H5 H 0.4263 -0.0198 0.1936
C10 C 0.45866(12) 0.10231(19) 0.3576(3)
H6 H 0.5147 0.0910 0.3592
C11 C 0.42913(11) 0.18491(18) 0.4534(3)
H7 H 0.4651 0.2297 0.5195
C12 C 0.34608(10) 0.20179(15) 0.4520(3)
H8 H 0.3262 0.2583 0.5166
C13 C 0.10493(9) 0.41018(13) 0.3519(2)
H9 H 0.0517 0.4347 0.3558
C14 C 0.16670(9) 0.49242(12) 0.3532(2)
C15 C 0.14498(11) 0.59425(13) 0.4029(3)
H10 H 0.0921 0.6065 0.4356
C16 C 0.19908(12) 0.67732(14) 0.4053(3)
H11 H 0.1831 0.7441 0.4409
C17 C 0.27675(11) 0.66018(13) 0.3545(2)
C18 C 0.30053(11) 0.56100(15) 0.3028(2)
H12 H 0.3532 0.5500 0.2678
C19 C 0.24641(10) 0.47844(13) 0.3030(2)
H13 H 0.2633 0.4117 0.2689
loop_
_geom_bond_atom_site_label_1
_geom_bond_atom_site_label_2
_geom_bond_site_symmetry_1
_geom_bond_site_symmetry_2
Cl1 C17 1_555 1_555
O1 C1 1_555 1_555
O2 C5 1_555 1_555
C1 H1 1_555 1_555
C2 C1 1_555 1_555
C3 C2 1_555 1_555
H2 C3 1_555 1_555
C4 C3 1_555 1_555
H3 C4 1_555 1_555
C5 C4 1_555 1_555
C6 O2 1_555 1_555
C7 C6 1_555 1_555
C8 C7 1_555 1_555
H4 C8 1_555 1_555
C9 C8 1_555 1_555
H5 C9 1_555 1_555
C10 C9 1_555 1_555
H6 C10 1_555 1_555
C11 C10 1_555 1_555
H7 C11 1_555 1_555
C12 C7 1_555 1_555
H8 C12 1_555 1_555
C13 C5 1_555 1_555
H9 C13 1_555 1_555
C14 C13 1_555 1_555
C15 C14 1_555 1_555
H10 C15 1_555 1_555
C16 C15 1_555 1_555
H11 C16 1_555 1_555
C17 C16 1_555 1_555
C18 C17 1_555 1_555
H12 C18 1_555 1_555
C19 C14 1_555 1_555
H13 C19 1_555 1_555
C2 C6 1_555 1_555
C11 C12 1_555 1_555
C18 C19 1_555 1_555

#END
