
#######################################################################
#
#                 Cambridge Crystallographic Data Centre
#                                CCDC 
#
#######################################################################
#
# If this CIF has been generated from an entry in the Cambridge 
# Structural Database, then it will include bibliographic, chemical, 
# crystal, experimental, refinement or atomic coordinate data resulting 
# from the CCDC's data processing and validation procedures.
#
#######################################################################

data_SIGWEM
_chemical_formula_moiety         'C40 H38 B1 O1 P1'
_chemical_name_systematic        
3,3-Dimesityl-1,1-diphenyl-3H-naphtho[1,8-cd][1,2,6]oxaphosphaborinin-2-ium-3-ide
_symmetry_cell_setting           monoclinic
_symmetry_space_group_name_H-M   'P 21/c'
_symmetry_Int_Tables_number      14
_space_group_name_Hall           '-P 2ybc'
loop_
_symmetry_equiv_pos_site_id
_symmetry_equiv_pos_as_xyz
1 x,y,z
2 -x,1/2+y,1/2-z
3 -x,-y,-z
4 x,1/2-y,1/2+z
_cell_length_a                   12.630(8)
_cell_length_b                   12.130(7)
_cell_length_c                   21.567(13)
_cell_angle_alpha                90
_cell_angle_beta                 105.285(7)
_cell_angle_gamma                90
_cell_volume                     3187.23
_exptl_crystal_colour            colorless
_exptl_crystal_description       needle
_cell_formula_units_Z            4
loop_
_atom_site_label
_atom_site_type_symbol
_atom_site_fract_x
_atom_site_fract_y
_atom_site_fract_z
P1 P 0.15824(9) 0.63349(11) 0.13753(5)
O1 O 0.2297(2) 0.6861(2) 0.19895(12)
B1 B 0.2804(4) 0.8081(4) 0.1960(2)
C1 C 0.3502(3) 0.7963(4) 0.1430(2)
C2 C 0.4484(4) 0.8509(4) 0.1501(2)
H1 H 0.4810 0.8837 0.1895
C3 C 0.5019(4) 0.8593(4) 0.1002(3)
H2 H 0.5673 0.8983 0.1071
C4 C 0.4579(4) 0.8104(4) 0.0422(2)
H3 H 0.4916 0.8186 0.0090
C5 C 0.3611(4) 0.7472(4) 0.0327(2)
C6 C 0.3085(3) 0.7370(4) 0.0835(2)
C7 C 0.2143(3) 0.6676(4) 0.07245(19)
C8 C 0.1740(3) 0.6150(4) 0.0141(2)
H4 H 0.1137 0.5683 0.0083
C9 C 0.2229(4) 0.6309(4) -0.0366(2)
H5 H 0.1931 0.5981 -0.0763
C10 C 0.3139(4) 0.6947(4) -0.0271(2)
H6 H 0.3465 0.7043 -0.0607
C11 C 0.1634(4) 0.4869(4) 0.14705(19)
C12 C 0.2603(4) 0.4354(4) 0.1807(2)
H7 H 0.3213 0.4777 0.2003
C13 C 0.2660(4) 0.3231(4) 0.1850(2)
H8 H 0.3309 0.2897 0.2079
C14 C 0.1767(4) 0.2584(4) 0.1557(2)
H9 H 0.1810 0.1820 0.1591
C15 C 0.0816(4) 0.3083(4) 0.1217(2)
H10 H 0.0214 0.2653 0.1015
C16 C 0.0742(4) 0.4213(4) 0.11725(19)
H11 H 0.0091 0.4540 0.0942
C17 C 0.0146(3) 0.6687(4) 0.1188(2)
C18 C -0.0446(4) 0.6373(4) 0.1613(2)
H12 H -0.0093 0.6009 0.1990
C19 C -0.1554(4) 0.6595(4) 0.1484(3)
H13 H -0.1943 0.6381 0.1775
C20 C -0.2090(4) 0.7133(4) 0.0923(3)
H14 H -0.2839 0.7275 0.0832
C21 C -0.1501(4) 0.7452(4) 0.0505(2)
H15 H -0.1858 0.7821 0.0130
C22 C -0.0386(4) 0.7242(4) 0.0625(2)
H16 H 0.0000 0.7467 0.0335
C23 C 0.1676(3) 0.8840(4) 0.17557(19)
C24 C 0.1317(4) 0.9494(4) 0.1194(2)
C25 C 0.0281(4) 0.9997(4) 0.1041(2)
H17 H 0.0076 1.0428 0.0673
C26 C -0.0448(4) 0.9881(4) 0.1414(2)
C27 C -0.0084(4) 0.9293(4) 0.1979(2)
H18 H -0.0539 0.9233 0.2253
C28 C 0.0951(4) 0.8783(4) 0.2152(2)
C29 C 0.1228(4) 0.8197(4) 0.2795(2)
H19 H 0.1640 0.7541 0.2769
H20 H 0.0563 0.8002 0.2904
H21 H 0.1658 0.8676 0.3120
C30 C -0.1585(4) 1.0390(4) 0.1221(2)
H22 H -0.1593 1.0989 0.0929
H23 H -0.1773 1.0659 0.1597
H24 H -0.2109 0.9842 0.1015
C31 C 0.2005(4) 0.9759(4) 0.0730(2)
H25 H 0.1720 1.0407 0.0487
H26 H 0.1978 0.9150 0.0442
H27 H 0.2752 0.9887 0.0968
C32 C 0.3629(3) 0.8358(4) 0.2666(2)
C33 C 0.3843(3) 0.9466(4) 0.2884(2)
C34 C 0.4571(3) 0.9722(4) 0.3473(2)
H28 H 0.4673 1.0456 0.3598
C35 C 0.5143(4) 0.8916(4) 0.3876(2)
C36 C 0.4990(3) 0.7838(4) 0.3670(2)
H29 H 0.5385 0.7286 0.3930
C37 C 0.4260(3) 0.7542(4) 0.3082(2)
C38 C 0.3312(3) 1.0437(4) 0.2483(2)
H30 H 0.3623 1.1109 0.2687
H31 H 0.2537 1.0430 0.2443
H32 H 0.3438 1.0389 0.2064
C39 C 0.5951(4) 0.9203(4) 0.4512(2)
H33 H 0.5936 0.9983 0.4584
H34 H 0.6677 0.8986 0.4501
H35 H 0.5750 0.8820 0.4854
C40 C 0.4210(3) 0.6348(4) 0.2911(2)
H36 H 0.4809 0.5967 0.3198
H37 H 0.4261 0.6264 0.2478
H38 H 0.3528 0.6044 0.2949
loop_
_geom_bond_atom_site_label_1
_geom_bond_atom_site_label_2
_geom_bond_site_symmetry_1
_geom_bond_site_symmetry_2
P1 O1 1_555 1_555
O1 B1 1_555 1_555
B1 C1 1_555 1_555
C1 C2 1_555 1_555
C2 H1 1_555 1_555
C3 C2 1_555 1_555
H2 C3 1_555 1_555
C4 C3 1_555 1_555
H3 C4 1_555 1_555
C5 C4 1_555 1_555
C6 C1 1_555 1_555
C7 P1 1_555 1_555
C8 C7 1_555 1_555
H4 C8 1_555 1_555
C9 C8 1_555 1_555
H5 C9 1_555 1_555
C10 C5 1_555 1_555
H6 C10 1_555 1_555
C11 P1 1_555 1_555
C12 C11 1_555 1_555
H7 C12 1_555 1_555
C13 C12 1_555 1_555
H8 C13 1_555 1_555
C14 C13 1_555 1_555
H9 C14 1_555 1_555
C15 C14 1_555 1_555
H10 C15 1_555 1_555
C16 C11 1_555 1_555
H11 C16 1_555 1_555
C17 P1 1_555 1_555
C18 C17 1_555 1_555
H12 C18 1_555 1_555
C19 C18 1_555 1_555
H13 C19 1_555 1_555
C20 C19 1_555 1_555
H14 C20 1_555 1_555
C21 C20 1_555 1_555
H15 C21 1_555 1_555
C22 C17 1_555 1_555
H16 C22 1_555 1_555
C23 B1 1_555 1_555
C24 C23 1_555 1_555
C25 C24 1_555 1_555
H17 C25 1_555 1_555
C26 C25 1_555 1_555
C27 C26 1_555 1_555
H18 C27 1_555 1_555
C28 C23 1_555 1_555
C29 C28 1_555 1_555
H19 C29 1_555 1_555
H20 C29 1_555 1_555
H21 C29 1_555 1_555
C30 C26 1_555 1_555
H22 C30 1_555 1_555
H23 C30 1_555 1_555
H24 C30 1_555 1_555
C31 C24 1_555 1_555
H25 C31 1_555 1_555
H26 C31 1_555 1_555
H27 C31 1_555 1_555
C32 B1 1_555 1_555
C33 C32 1_555 1_555
C34 C33 1_555 1_555
H28 C34 1_555 1_555
C35 C34 1_555 1_555
C36 C35 1_555 1_555
H29 C36 1_555 1_555
C37 C32 1_555 1_555
C38 C33 1_555 1_555
H30 C38 1_555 1_555
H31 C38 1_555 1_555
H32 C38 1_555 1_555
C39 C35 1_555 1_555
H33 C39 1_555 1_555
H34 C39 1_555 1_555
H35 C39 1_555 1_555
C40 C37 1_555 1_555
H36 C40 1_555 1_555
H37 C40 1_555 1_555
H38 C40 1_555 1_555
C5 C6 1_555 1_555
C6 C7 1_555 1_555
C9 C10 1_555 1_555
C15 C16 1_555 1_555
C21 C22 1_555 1_555
C27 C28 1_555 1_555
C36 C37 1_555 1_555

#END
