
#######################################################################
#
#                 Cambridge Crystallographic Data Centre
#                                CCDC 
#
#######################################################################
#
# If this CIF has been generated from an entry in the Cambridge 
# Structural Database, then it will include bibliographic, chemical, 
# crystal, experimental, refinement or atomic coordinate data resulting 
# from the CCDC's data processing and validation procedures.
#
#######################################################################

data_SIGWOX
_chemical_formula_moiety         'C25 H20 O3'
_chemical_name_systematic        
1-benzylidene-6-methoxy-3-(4-methylphenyl)-1H-2-benzopyran-4-carbaldehyde
_symmetry_cell_setting           triclinic
_symmetry_space_group_name_H-M   'P -1'
_symmetry_Int_Tables_number      2
_space_group_name_Hall           '-P 1'
loop_
_symmetry_equiv_pos_site_id
_symmetry_equiv_pos_as_xyz
1 x,y,z
2 -x,-y,-z
_cell_length_a                   8.0262(12)
_cell_length_b                   9.9551(15)
_cell_length_c                   12.8175(19)
_cell_angle_alpha                75.048(3)
_cell_angle_beta                 88.560(3)
_cell_angle_gamma                73.227(3)
_cell_volume                     946.02
_exptl_crystal_colour            colorless
_exptl_crystal_description       prismatic
_cell_formula_units_Z            2
loop_
_atom_site_label
_atom_site_type_symbol
_atom_site_fract_x
_atom_site_fract_y
_atom_site_fract_z
O1 O -0.11432(16) 0.35292(12) 1.03455(9)
O2 O 0.02291(16) -0.08811(13) 1.32762(9)
O3 O 0.33484(13) 0.07277(10) 0.86327(8)
C1 C 0.15156(17) 0.06005(15) 1.05286(11)
C2 C 0.06656(19) 0.05520(16) 1.14988(11)
H1 H -0.0124 0.1390 1.1604
C3 C 0.0995(2) -0.07370(17) 1.23007(12)
C4 C 0.2179(2) -0.19946(17) 1.21529(13)
H2 H 0.2406 -0.2859 1.2696
C5 C 0.3009(2) -0.19540(16) 1.12040(13)
H3 H 0.3800 -0.2800 1.1112
C6 C 0.26993(17) -0.06701(15) 1.03653(11)
C7 C 0.35797(17) -0.06360(15) 0.93526(11)
C8 C 0.22276(18) 0.19608(15) 0.87942(11)
C9 C 0.12449(18) 0.19613(15) 0.96705(11)
C10 C -0.0113(2) 0.33095(16) 0.96578(12)
H4 H -0.0196 0.4086 0.9054
C11 C -0.0982(2) 0.0376(2) 1.34645(14)
H5 H -0.0415 0.1116 1.3418
H6 H -0.1416 0.0136 1.4172
H7 H -0.1933 0.0727 1.2931
C12 C 0.46225(19) -0.17743(16) 0.90493(12)
H8 H 0.4742 -0.2668 0.9543
C13 C 0.56061(18) -0.18605(16) 0.80797(12)
C14 C 0.6672(2) -0.32307(18) 0.80305(14)
H9 H 0.6732 -0.4033 0.8610
C15 C 0.7635(3) -0.3421(2) 0.71459(16)
H10 H 0.8335 -0.4343 0.7139
C16 C 0.7569(2) -0.2260(2) 0.62745(15)
H11 H 0.8209 -0.2391 0.5675
C17 C 0.6539(2) -0.0896(2) 0.63026(14)
H12 H 0.6486 -0.0103 0.5717
C18 C 0.5584(2) -0.06956(17) 0.71914(13)
H13 H 0.4913 0.0235 0.7198
C19 C 0.23374(18) 0.32236(15) 0.79103(11)
C20 C 0.2220(2) 0.32089(18) 0.68340(13)
H14 H 0.1981 0.2431 0.6659
C21 C 0.2458(3) 0.4350(2) 0.60207(13)
H15 H 0.2355 0.4331 0.5304
C22 C 0.2846(2) 0.55189(17) 0.62455(14)
C23 C 0.2935(2) 0.55322(16) 0.73164(14)
H16 H 0.3172 0.6313 0.7488
C24 C 0.2680(2) 0.44111(15) 0.81410(12)
H17 H 0.2738 0.4453 0.8855
C25 C 0.3181(3) 0.6724(2) 0.53496(17)
H18 H 0.3867 0.6314 0.4822
H19 H 0.3798 0.7247 0.5647
H20 H 0.2090 0.7377 0.5012
loop_
_geom_bond_atom_site_label_1
_geom_bond_atom_site_label_2
_geom_bond_site_symmetry_1
_geom_bond_site_symmetry_2
O1 C10 1_555 1_555
O2 C3 1_555 1_555
O3 C7 1_555 1_555
C1 C2 1_555 1_555
C2 H1 1_555 1_555
C3 C2 1_555 1_555
C4 C3 1_555 1_555
H2 C4 1_555 1_555
C5 C4 1_555 1_555
H3 C5 1_555 1_555
C6 C1 1_555 1_555
C7 C6 1_555 1_555
C8 O3 1_555 1_555
C9 C1 1_555 1_555
C10 C9 1_555 1_555
H4 C10 1_555 1_555
C11 O2 1_555 1_555
H5 C11 1_555 1_555
H6 C11 1_555 1_555
H7 C11 1_555 1_555
C12 C7 1_555 1_555
H8 C12 1_555 1_555
C13 C12 1_555 1_555
C14 C13 1_555 1_555
H9 C14 1_555 1_555
C15 C14 1_555 1_555
H10 C15 1_555 1_555
C16 C15 1_555 1_555
H11 C16 1_555 1_555
C17 C16 1_555 1_555
H12 C17 1_555 1_555
C18 C13 1_555 1_555
H13 C18 1_555 1_555
C19 C8 1_555 1_555
C20 C19 1_555 1_555
H14 C20 1_555 1_555
C21 C20 1_555 1_555
H15 C21 1_555 1_555
C22 C21 1_555 1_555
C23 C22 1_555 1_555
H16 C23 1_555 1_555
C24 C19 1_555 1_555
H17 C24 1_555 1_555
C25 C22 1_555 1_555
H18 C25 1_555 1_555
H19 C25 1_555 1_555
H20 C25 1_555 1_555
C5 C6 1_555 1_555
C8 C9 1_555 1_555
C17 C18 1_555 1_555
C23 C24 1_555 1_555

#END
