
#######################################################################
#
#                 Cambridge Crystallographic Data Centre
#                                CCDC 
#
#######################################################################
#
# If this CIF has been generated from an entry in the Cambridge 
# Structural Database, then it will include bibliographic, chemical, 
# crystal, experimental, refinement or atomic coordinate data resulting 
# from the CCDC's data processing and validation procedures.
#
#######################################################################

data_SIGZAK
_chemical_formula_moiety         'C21 H18 F3 N3 O2'
_chemical_name_systematic        
1,5-Dimethyl-2-phenyl-4-(4,4,4-trifluoro-3-oxo-1-phenylbut-1-enylamino)-1H-pyrazol-3(2H)-one
_symmetry_cell_setting           monoclinic
_symmetry_space_group_name_H-M   'P 21/c'
_symmetry_Int_Tables_number      14
_space_group_name_Hall           '-P 2ybc'
loop_
_symmetry_equiv_pos_site_id
_symmetry_equiv_pos_as_xyz
1 x,y,z
2 -x,1/2+y,1/2-z
3 -x,-y,-z
4 x,1/2-y,1/2+z
_cell_length_a                   13.452(4)
_cell_length_b                   6.3930(18)
_cell_length_c                   23.466(7)
_cell_angle_alpha                90
_cell_angle_beta                 90.571(5)
_cell_angle_gamma                90
_cell_volume                     2017.94
_exptl_crystal_colour            yellow
_exptl_crystal_description       block
_cell_formula_units_Z            4
_exptl_crystal_recrystallization_method ethanol
loop_
_atom_site_label
_atom_site_type_symbol
_atom_site_fract_x
_atom_site_fract_y
_atom_site_fract_z
C1 C 0.0597(4) -0.1194(12) 0.6599(2)
F1 F 0.0622(5) -0.3257(6) 0.65744(17)
F2 F -0.0333(2) -0.0639(9) 0.67356(15)
F3 F 0.1167(3) -0.0624(9) 0.70432(16)
N1 N 0.28293(14) 0.2485(3) 0.36876(8)
N2 N 0.21147(14) 0.4106(3) 0.36303(8)
N3 N 0.15442(15) 0.2092(3) 0.50379(8)
O1 O 0.31148(13) -0.0196(3) 0.43548(7)
O2 O 0.03316(13) -0.0629(3) 0.56238(8)
C3 C 0.26854(17) 0.1439(4) 0.42103(10)
C4 C 0.19382(16) 0.2675(4) 0.44969(9)
C5 C 0.16334(17) 0.4250(4) 0.41474(10)
C6 C 0.0920(2) 0.5991(5) 0.42645(13)
H1 H 0.0563 0.5693 0.4607
H2 H 0.0459 0.6119 0.3951
H3 H 0.1281 0.7277 0.4310
C7 C 0.31870(18) 0.1449(4) 0.31851(10)
C8 C 0.2606(2) 0.1327(4) 0.26916(11)
H4 H 0.1983 0.1958 0.2675
C9 C 0.2972(3) 0.0248(5) 0.22233(12)
H5 H 0.2594 0.0168 0.1890
C10 C 0.3894(3) -0.0707(5) 0.22489(14)
H6 H 0.4129 -0.1435 0.1935
C11 C 0.4465(2) -0.0581(5) 0.27394(14)
H7 H 0.5084 -0.1231 0.2756
C12 C 0.41182(19) 0.0510(4) 0.32061(11)
H8 H 0.4509 0.0616 0.3534
C13 C 0.2445(2) 0.5981(4) 0.33217(12)
H9 H 0.1883 0.6860 0.3240
H10 H 0.2751 0.5571 0.2971
H11 H 0.2917 0.6736 0.3552
C14 C 0.20566(17) 0.2186(4) 0.55357(10)
C15 C 0.29783(17) 0.3490(4) 0.55658(9)
C16 C 0.2988(2) 0.5560(4) 0.53797(11)
H12 H 0.2410 0.6150 0.5229
C17 C 0.3848(2) 0.6748(5) 0.54162(11)
H13 H 0.3846 0.8128 0.5291
C18 C 0.4714(2) 0.5874(5) 0.56408(11)
H14 H 0.5293 0.6665 0.5661
C19 C 0.47138(19) 0.3839(5) 0.58334(11)
H15 H 0.5293 0.3261 0.5985
C20 C 0.38510(18) 0.2647(4) 0.58015(10)
H16 H 0.3853 0.1280 0.5937
C21 C 0.17242(18) 0.1156(4) 0.60245(10)
H17 H 0.2078 0.1356 0.6363
C22 C 0.08888(19) -0.0162(4) 0.60346(10)
H18 H 0.0982(19) 0.129(4) 0.5052(10)
C2? C 0.0663(11) -0.082(2) 0.6640(4)
F4? F 0.0020(11) -0.242(3) 0.6645(5)
F5? F 0.0267(16) 0.067(2) 0.6971(6)
F6? F 0.1472(9) -0.151(3) 0.6925(8)
loop_
_geom_bond_atom_site_label_1
_geom_bond_atom_site_label_2
_geom_bond_site_symmetry_1
_geom_bond_site_symmetry_2
C1 F1 1_555 1_555
F2 C1 1_555 1_555
F3 C1 1_555 1_555
N1 N2 1_555 1_555
N2 C5 1_555 1_555
N3 C4 1_555 1_555
O1 C3 1_555 1_555
O2 C22 1_555 1_555
C3 N1 1_555 1_555
C4 C3 1_555 1_555
C5 C4 1_555 1_555
C6 C5 1_555 1_555
H1 C6 1_555 1_555
H2 C6 1_555 1_555
H3 C6 1_555 1_555
C7 N1 1_555 1_555
C8 C7 1_555 1_555
H4 C8 1_555 1_555
C9 C8 1_555 1_555
H5 C9 1_555 1_555
C10 C9 1_555 1_555
H6 C10 1_555 1_555
C11 C10 1_555 1_555
H7 C11 1_555 1_555
C12 C7 1_555 1_555
H8 C12 1_555 1_555
C13 N2 1_555 1_555
H9 C13 1_555 1_555
H10 C13 1_555 1_555
H11 C13 1_555 1_555
C14 N3 1_555 1_555
C15 C14 1_555 1_555
C16 C15 1_555 1_555
H12 C16 1_555 1_555
C17 C16 1_555 1_555
H13 C17 1_555 1_555
C18 C17 1_555 1_555
H14 C18 1_555 1_555
C19 C18 1_555 1_555
H15 C19 1_555 1_555
C20 C15 1_555 1_555
H16 C20 1_555 1_555
C21 C14 1_555 1_555
H17 C21 1_555 1_555
C22 C1 1_555 1_555
H18 N3 1_555 1_555
C11 C12 1_555 1_555
C19 C20 1_555 1_555
C21 C22 1_555 1_555

#END
