
#######################################################################
#
#                 Cambridge Crystallographic Data Centre
#                                CCDC 
#
#######################################################################
#
# If this CIF has been generated from an entry in the Cambridge 
# Structural Database, then it will include bibliographic, chemical, 
# crystal, experimental, refinement or atomic coordinate data resulting 
# from the CCDC's data processing and validation procedures.
#
#######################################################################

data_SIHBAN
_chemical_formula_moiety         'C22 H15 Cl1 F1 N3 O3'
_chemical_name_systematic        
'2-(1H-1,2,3-Benzotriazol-1-yl)-1-(2-fluorobenzoyl)ethyl 2-chlorobenzoate'
_symmetry_cell_setting           monoclinic
_symmetry_space_group_name_H-M   'P 21/c'
_symmetry_Int_Tables_number      14
_space_group_name_Hall           '-P 2ybc'
loop_
_symmetry_equiv_pos_site_id
_symmetry_equiv_pos_as_xyz
1 x,y,z
2 -x,1/2+y,1/2-z
3 -x,-y,-z
4 x,1/2-y,1/2+z
_cell_length_a                   10.858(3)
_cell_length_b                   8.279(2)
_cell_length_c                   22.236(6)
_cell_angle_alpha                90
_cell_angle_beta                 100.599(5)
_cell_angle_gamma                90
_cell_volume                     1964.77
_exptl_crystal_colour            colorless
_exptl_crystal_description       block
_cell_formula_units_Z            4
_exptl_crystal_recrystallization_method 'acetone/ethyl acetate'
loop_
_atom_site_label
_atom_site_type_symbol
_atom_site_fract_x
_atom_site_fract_y
_atom_site_fract_z
Cl1 Cl 0.16809(12) 0.54811(16) 1.00954(5)
F1 F 0.2942(2) 0.7314(3) 0.71581(10)
O1 O 0.40423(19) 0.8137(2) 0.90054(9)
O2 O 0.2520(3) 0.6305(3) 0.89726(11)
O3 O 0.1967(3) 0.9868(4) 0.86057(13)
N1 N 0.7216(4) 0.7326(5) 0.78904(19)
N2 N 0.6068(4) 0.7844(4) 0.77393(14)
N3 N 0.5786(3) 0.8780(3) 0.81969(12)
C1 C 0.7691(4) 0.7934(5) 0.8454(2)
C2 C 0.8887(4) 0.7754(6) 0.8829(3)
H1 H 0.9516 0.7151 0.8702
C3 C 0.9073(5) 0.8501(6) 0.9380(3)
H2 H 0.9849 0.8408 0.9636
C4 C 0.8128(5) 0.9413(5) 0.9577(2)
H3 H 0.8295 0.9884 0.9963
C5 C 0.6996(4) 0.9625(4) 0.92264(18)
H4 H 0.6383 1.0249 0.9356
C6 C 0.6785(3) 0.8861(4) 0.86548(16)
C7 C 0.4558(3) 0.9480(4) 0.81416(15)
H5 H 0.4250 0.9761 0.7717
H6 H 0.4614 1.0466 0.8380
C8 C 0.3624(3) 0.8336(4) 0.83592(13)
H7 H 0.3636 0.7289 0.8155
C9 C 0.2313(3) 0.9028(4) 0.82231(17)
C10 C 0.1471(3) 0.8742(4) 0.76184(15)
C11 C 0.0281(4) 0.9362(5) 0.7543(2)
H8 H 0.0032 0.9919 0.7863
C12 C -0.0549(4) 0.9173(6) 0.7001(2)
H9 H -0.1354 0.9597 0.6961
C13 C -0.0210(4) 0.8378(6) 0.6526(2)
H10 H -0.0782 0.8279 0.6162
C14 C 0.0958(4) 0.7718(5) 0.65701(18)
H11 H 0.1196 0.7160 0.6247
C15 C 0.1774(3) 0.7928(5) 0.71290(18)
C16 C 0.3388(4) 0.7037(4) 0.92604(15)
C17 C 0.3902(3) 0.6798(4) 0.99247(14)
C18 C 0.5139(3) 0.7262(4) 1.01529(15)
H12 H 0.5608 0.7757 0.9895
C19 C 0.5670(4) 0.6991(5) 1.07574(18)
H13 H 0.6492 0.7303 1.0907
C20 C 0.4973(5) 0.6255(5) 1.11360(18)
H14 H 0.5331 0.6068 1.1543
C21 C 0.3755(5) 0.5791(5) 1.09238(18)
H15 H 0.3291 0.5304 1.1186
C22 C 0.3228(4) 0.6054(4) 1.03192(16)
loop_
_geom_bond_atom_site_label_1
_geom_bond_atom_site_label_2
_geom_bond_site_symmetry_1
_geom_bond_site_symmetry_2
Cl1 C22 1_555 1_555
F1 C15 1_555 1_555
O1 C8 1_555 1_555
O2 C16 1_555 1_555
O3 C9 1_555 1_555
N1 N2 1_555 1_555
N2 N3 1_555 1_555
N3 C6 1_555 1_555
C1 N1 1_555 1_555
C2 C1 1_555 1_555
H1 C2 1_555 1_555
C3 C2 1_555 1_555
H2 C3 1_555 1_555
C4 C3 1_555 1_555
H3 C4 1_555 1_555
C5 C4 1_555 1_555
H4 C5 1_555 1_555
C6 C1 1_555 1_555
C7 N3 1_555 1_555
H5 C7 1_555 1_555
H6 C7 1_555 1_555
C8 C7 1_555 1_555
H7 C8 1_555 1_555
C9 C8 1_555 1_555
C10 C9 1_555 1_555
C11 C10 1_555 1_555
H8 C11 1_555 1_555
C12 C11 1_555 1_555
H9 C12 1_555 1_555
C13 C12 1_555 1_555
H10 C13 1_555 1_555
C14 C13 1_555 1_555
H11 C14 1_555 1_555
C15 C10 1_555 1_555
C16 O1 1_555 1_555
C17 C16 1_555 1_555
C18 C17 1_555 1_555
H12 C18 1_555 1_555
C19 C18 1_555 1_555
H13 C19 1_555 1_555
C20 C19 1_555 1_555
H14 C20 1_555 1_555
C21 C20 1_555 1_555
H15 C21 1_555 1_555
C22 C17 1_555 1_555
C5 C6 1_555 1_555
C14 C15 1_555 1_555
C21 C22 1_555 1_555

#END
