
#######################################################################
#
#                 Cambridge Crystallographic Data Centre
#                                CCDC 
#
#######################################################################
#
# If this CIF has been generated from an entry in the Cambridge 
# Structural Database, then it will include bibliographic, chemical, 
# crystal, experimental, refinement or atomic coordinate data resulting 
# from the CCDC's data processing and validation procedures.
#
#######################################################################

data_SIHGIA01
_chemical_formula_moiety         'C11 H14 Cl1 N1 O1'
_chemical_name_systematic        N-(2-Chlorophenyl)-2,2,2-trimethylacetamide
_symmetry_cell_setting           orthorhombic
_symmetry_space_group_name_H-M   'P 21 21 21'
_symmetry_Int_Tables_number      19
_space_group_name_Hall           'P 2ac 2ab'
loop_
_symmetry_equiv_pos_site_id
_symmetry_equiv_pos_as_xyz
1 x,y,z
2 1/2-x,-y,1/2+z
3 -x,1/2+y,1/2-z
4 1/2+x,1/2-y,-z
_cell_length_a                   10.1353(14)
_cell_length_b                   10.2198(14)
_cell_length_c                   11.0550(14)
_cell_angle_alpha                90
_cell_angle_beta                 90
_cell_angle_gamma                90
_cell_volume                     1145.09
_exptl_crystal_colour            colorless
_exptl_crystal_description       prismatic
_chemical_melting_point          '74-75 deg.C'
_cell_formula_units_Z            4
loop_
_atom_site_label
_atom_site_type_symbol
_atom_site_fract_x
_atom_site_fract_y
_atom_site_fract_z
Cl1 Cl 0.74018(9) 0.69615(9) 0.21226(6)
O1 O 0.44123(19) 0.77344(19) 0.5167(2)
N1 N 0.6492(2) 0.7266(2) 0.4680(2)
C1 C 0.6621(3) 0.5759(3) 0.2970(2)
C2 C 0.6423(3) 0.4550(3) 0.2467(3)
H1 H 0.6713 0.4376 0.1686
C3 C 0.5796(3) 0.3603(3) 0.3123(4)
H2 H 0.5648 0.2786 0.2777
C4 C 0.5383(3) 0.3839(3) 0.4286(4)
H3 H 0.4947 0.3192 0.4721
C5 C 0.5622(3) 0.5065(3) 0.4812(3)
H4 H 0.5367 0.5222 0.5606
C6 C 0.6233(2) 0.6035(3) 0.4157(2)
C7 C 0.5561(2) 0.8054(3) 0.5156(2)
C8 C 0.6057(3) 0.9353(3) 0.5676(2)
C9 C 0.6788(4) 1.0110(3) 0.4688(3)
H5 H 0.6222 1.0214 0.3999
H6 H 0.7565 0.9634 0.4455
H7 H 0.7037 1.0955 0.4991
C10 C 0.4915(3) 1.0188(4) 0.6060(4)
H8 H 0.4290 1.0247 0.5411
H9 H 0.5227 1.1048 0.6261
H10 H 0.4499 0.9805 0.6755
C11 C 0.6988(5) 0.9097(4) 0.6715(3)
H11 H 0.7280 0.9915 0.7049
H12 H 0.7737 0.8611 0.6430
H13 H 0.6540 0.8602 0.7329
H14 H 0.7270(19) 0.750(3) 0.452(2)
loop_
_geom_bond_atom_site_label_1
_geom_bond_atom_site_label_2
_geom_bond_site_symmetry_1
_geom_bond_site_symmetry_2
Cl1 C1 1_555 1_555
O1 C7 1_555 1_555
N1 C6 1_555 1_555
C1 C2 1_555 1_555
C2 H1 1_555 1_555
C3 C2 1_555 1_555
H2 C3 1_555 1_555
C4 C3 1_555 1_555
H3 C4 1_555 1_555
C5 C4 1_555 1_555
H4 C5 1_555 1_555
C6 C1 1_555 1_555
C7 N1 1_555 1_555
C8 C7 1_555 1_555
C9 C8 1_555 1_555
H5 C9 1_555 1_555
H6 C9 1_555 1_555
H7 C9 1_555 1_555
C10 C8 1_555 1_555
H8 C10 1_555 1_555
H9 C10 1_555 1_555
H10 C10 1_555 1_555
C11 C8 1_555 1_555
H11 C11 1_555 1_555
H12 C11 1_555 1_555
H13 C11 1_555 1_555
H14 N1 1_555 1_555
C5 C6 1_555 1_555

#END
