
#######################################################################
#
#                 Cambridge Crystallographic Data Centre
#                                CCDC 
#
#######################################################################
#
# If this CIF has been generated from an entry in the Cambridge 
# Structural Database, then it will include bibliographic, chemical, 
# crystal, experimental, refinement or atomic coordinate data resulting 
# from the CCDC's data processing and validation procedures.
#
#######################################################################

data_SIHHEZ
_chemical_formula_moiety         'C94 H102 Br2 N4 O8'
_chemical_name_systematic        
"5,6:5',6'-bis(1,3,8,10-tetraoxo-2,9-bis(undecyl)-12-bromoisoquinolino[4',5',6':7,8,9]pyreno[2,1,10-def]isoquinoline) unknown solvate"
_symmetry_cell_setting           triclinic
_symmetry_space_group_name_H-M   'P -1'
_symmetry_Int_Tables_number      2
_space_group_name_Hall           '-P 1'
loop_
_symmetry_equiv_pos_site_id
_symmetry_equiv_pos_as_xyz
1 x,y,z
2 -x,-y,-z
_cell_length_a                   15.4448(11)
_cell_length_b                   19.9037(13)
_cell_length_c                   26.3807(18)
_cell_angle_alpha                86.411(5)
_cell_angle_beta                 82.181(6)
_cell_angle_gamma                79.782(6)
_cell_volume                     7900.68
_exptl_crystal_colour            red
_exptl_crystal_description       prism
_cell_formula_units_Z            4
loop_
_atom_site_label
_atom_site_type_symbol
_atom_site_fract_x
_atom_site_fract_y
_atom_site_fract_z
N1 N 0.729(2) 0.4409(9) 0.0868(6)
C1 C 0.753(3) 0.5108(11) 0.0802(10)
H1 H 0.700663 0.544614 0.086310
H2 H 0.781447 0.517167 0.045966
H3 H 0.793185 0.515269 0.104165
C2 C 0.708(2) 0.4146(8) 0.0434(6)
O1 O 0.704(3) 0.4481(12) 0.0031(7)
C3 C 0.679(3) 0.3465(10) 0.0512(5)
C4 C 0.663(3) 0.3146(7) 0.0095(5)
H4 H 0.658530 0.338501 -0.021757
C5 C 0.6527(16) 0.2458(7) 0.0145(3)
C6 C 0.633(2) 0.2134(9) 0.0628(3)
C7 C 0.655(3) 0.2456(9) 0.1055(5)
C8 C 0.664(3) 0.2087(9) 0.1537(6)
C9 C 0.681(3) 0.2419(9) 0.1965(5)
C10 C 0.702(3) 0.3089(11) 0.1889(6)
H5 H 0.717169 0.329840 0.216066
C11 C 0.698(3) 0.3435(10) 0.1424(6)
C12 C 0.679(3) 0.3118(10) 0.0995(6)
C13 C 0.730(2) 0.4105(10) 0.1357(7)
O2 O 0.754(2) 0.4371(11) 0.1703(8)
Br1 Br 0.6727(6) 0.2013(4) -0.0513(2)
N2 N 0.5489(16) -0.0856(8) 0.1473(7)
C14 C 0.525(2) -0.1554(10) 0.1570(11)
H6 H 0.562110 -0.181573 0.179909
H7 H 0.532330 -0.178018 0.125177
H8 H 0.463801 -0.151280 0.172028
C15 C 0.5307(16) -0.0533(8) 0.1008(7)
O3 O 0.494(2) -0.0789(11) 0.0706(9)
C16 C 0.553(2) 0.0167(10) 0.0926(8)
C17 C 0.544(3) 0.0510(11) 0.0457(8)
H9 H 0.521406 0.030884 0.020420
C18 C 0.5674(15) 0.1157(10) 0.0362(5)
H10 H 0.560575 0.137997 0.004595
C19 C 0.601(2) 0.1479(10) 0.0731(6)
C20 C 0.618(3) 0.1100(10) 0.1196(7)
C21 C 0.652(3) 0.1392(9) 0.1594(8)
C22 C 0.674(2) 0.0995(8) 0.2038(7)
C23 C 0.649(3) 0.0342(11) 0.2120(9)
H11 H 0.658012 0.009284 0.242331
C24 C 0.610(3) 0.0073(11) 0.1759(8)
C25 C 0.594(2) 0.0442(10) 0.1290(8)
C26 C 0.586(2) -0.0619(10) 0.1864(8)
O4 O 0.600(3) -0.0963(12) 0.2253(9)
C27 C 0.7078(17) 0.1313(6) 0.2433(8)
N3 N 0.9772(17) -0.1104(8) 0.3154(8)
C28 C 1.027(2) -0.1797(11) 0.3016(11)
H12 H 0.992864 -0.213871 0.315111
H13 H 1.082520 -0.187589 0.315889
H14 H 1.039276 -0.182101 0.265032
C29 C 0.9874(17) -0.0882(8) 0.3628(8)
O5 O 1.037(2) -0.1220(11) 0.3906(10)
C30 C 0.937(2) -0.0196(11) 0.3756(9)
C31 C 0.944(2) 0.0066(8) 0.4220(9)
H15 H 0.974669 -0.020192 0.445931
C32 C 0.9031(13) 0.0732(7) 0.4327(6)
C33 C 0.8352(15) 0.1096(8) 0.4057(7)
C34 C 0.833(2) 0.0835(9) 0.3563(7)
C35 C 0.790(2) 0.1259(9) 0.3176(7)
C36 C 0.776(2) 0.0958(10) 0.2726(8)
C37 C 0.822(2) 0.0294(10) 0.2609(8)
H16 H 0.816626 0.010738 0.230368
C38 C 0.876(2) -0.0077(11) 0.2939(8)
C39 C 0.880(2) 0.0179(11) 0.3427(8)
C40 C 0.927(2) -0.0758(10) 0.2789(8)
O6 O 0.925(2) -0.1007(11) 0.2381(8)
Br2 Br 0.9561(6) 0.1101(3) 0.4860(3)
N4 N 0.6134(19) 0.4210(8) 0.4071(7)
C41 C 0.567(3) 0.4927(9) 0.4171(10)
H17 H 0.609233 0.523251 0.410530
H18 H 0.540427 0.495313 0.452105
H19 H 0.521910 0.505278 0.394909
C42 C 0.6501(18) 0.3845(8) 0.4479(6)
O7 O 0.641(2) 0.4079(11) 0.4904(7)
C43 C 0.699(3) 0.3147(10) 0.4362(7)
C44 C 0.736(3) 0.2733(11) 0.4749(7)
H20 H 0.733040 0.290397 0.507167
C45 C 0.7769(12) 0.2065(9) 0.4656(5)
H21 H 0.801360 0.179946 0.492077
C46 C 0.783(2) 0.1773(9) 0.4180(6)
C47 C 0.743(3) 0.2190(9) 0.3783(6)
C48 C 0.747(2) 0.1942(9) 0.3282(7)
C49 C 0.702(2) 0.2347(8) 0.2904(6)
C50 C 0.664(3) 0.3033(9) 0.3009(7)
H22 H 0.641005 0.331966 0.274927
C51 C 0.659(3) 0.3281(9) 0.3487(7)
C52 C 0.701(3) 0.2876(9) 0.3880(7)
C53 C 0.616(3) 0.4001(9) 0.3576(7)
O8 O 0.581(3) 0.4378(11) 0.3250(9)
C54 C 0.6886(18) 0.2033(6) 0.2447(5)
N5 N 0.5764(9) 0.5422(8) 0.7525(8)
C55 C 0.5936(15) 0.6066(10) 0.7727(11)
H23 H 0.585996 0.642886 0.747196
H24 H 0.653199 0.599708 0.781136
H25 H 0.552673 0.618316 0.802908
C56 C 0.6484(8) 0.5030(7) 0.7246(8)
O9 O 0.7226(9) 0.5177(10) 0.7196(10)
C57 C 0.6301(8) 0.4380(9) 0.7067(10)
C58 C 0.6958(9) 0.3987(9) 0.6753(11)
H26 H 0.750496 0.412402 0.666145
C59 C 0.6794(6) 0.3382(7) 0.6572(7)
C60 C 0.5951(7) 0.3185(9) 0.6629(9)
C61 C 0.5281(8) 0.3600(9) 0.6961(10)
C62 C 0.4409(8) 0.3428(8) 0.7076(10)
C63 C 0.3719(7) 0.3876(7) 0.7357(10)
C64 C 0.3911(9) 0.4486(10) 0.7532(13)
H27 H 0.346252 0.478023 0.771895
C65 C 0.4742(8) 0.4651(9) 0.7432(11)
C66 C 0.5434(8) 0.4227(9) 0.7131(10)
C67 C 0.4902(10) 0.5292(10) 0.7637(11)
O10 O 0.4325(11) 0.5669(10) 0.7895(10)
Br3 Br 0.7866(4) 0.2834(4) 0.6244(3)
N6 N 0.4187(10) 0.0666(7) 0.5997(6)
C68 C 0.3941(15) 0.0053(9) 0.5787(9)
H28 H 0.421418 -0.035388 0.595744
H29 H 0.414276 0.003821 0.542650
H30 H 0.330823 0.008290 0.584197
C69 C 0.4992(10) 0.0841(8) 0.5779(6)
O11 O 0.5460(14) 0.0523(10) 0.5432(8)
C70 C 0.5223(12) 0.1448(10) 0.5995(8)
C71 C 0.6018(12) 0.1663(11) 0.5805(9)
H31 H 0.641843 0.140965 0.556415
C72 C 0.6212(8) 0.2263(10) 0.5980(6)
H32 H 0.667698 0.245455 0.580199
C73 C 0.5727(10) 0.2584(10) 0.6413(9)
C74 C 0.4903(10) 0.2370(10) 0.6603(9)
C75 C 0.4251(10) 0.2780(9) 0.6941(10)
C76 C 0.3461(12) 0.2542(9) 0.7153(10)
C77 C 0.3302(14) 0.1914(11) 0.6990(11)
H33 H 0.280110 0.174148 0.713919
C78 C 0.3872(12) 0.1556(10) 0.6618(9)
C79 C 0.4682(11) 0.1779(10) 0.6411(9)
C80 C 0.3585(11) 0.0980(10) 0.6388(8)
O12 O 0.2889(12) 0.0781(11) 0.6535(9)
C81 C 0.2865(10) 0.2940(6) 0.7538(8)
N7 N 0.1110(9) 0.0979(6) 0.9060(6)
C82 C 0.1268(15) 0.0282(7) 0.9314(9)
H34 H 0.167411 -0.002303 0.908968
H35 H 0.071561 0.011519 0.938970
H36 H 0.151363 0.030543 0.962655
C83 C 0.0310(10) 0.1394(5) 0.9226(6)
O13 O -0.0223(12) 0.1190(8) 0.9559(8)
C84 C 0.0163(13) 0.2079(7) 0.8967(10)
C85 C -0.0575(15) 0.2549(7) 0.9132(10)
H37 H -0.098863 0.242865 0.939702
C86 C -0.0704(9) 0.3203(5) 0.8905(5)
C87 C -0.0192(9) 0.3399(6) 0.8452(6)
C88 C 0.0625(9) 0.2933(6) 0.8324(8)
C89 C 0.1336(10) 0.3158(6) 0.7985(10)
C90 C 0.2122(10) 0.2689(6) 0.7838(9)
C91 C 0.2232(12) 0.2017(7) 0.8063(11)
H38 H 0.274256 0.170728 0.796159
C92 C 0.1595(11) 0.1819(7) 0.8426(9)
C93 C 0.0790(12) 0.2278(8) 0.8573(10)
C94 C 0.1787(11) 0.1138(7) 0.8693(8)
O14 O 0.2475(10) 0.0736(8) 0.8593(8)
Br4 Br -0.1662(3) 0.3819(2) 0.9288(2)
N8 N 0.0197(8) 0.6202(6) 0.7077(6)
C95 C 0.0108(14) 0.6875(8) 0.6783(9)
H39 H 0.009684 0.723450 0.701048
H40 H -0.043202 0.694947 0.662962
H41 H 0.060357 0.687053 0.651917
C96 C -0.0581(8) 0.6031(6) 0.7340(7)
O15 O -0.1290(9) 0.6404(8) 0.7307(8)
C97 C -0.0482(7) 0.5354(9) 0.7619(10)
C98 C -0.1217(8) 0.5125(10) 0.7889(11)
H42 H -0.178113 0.537272 0.786591
C99 C -0.1117(8) 0.4525(8) 0.8194(6)
H43 H -0.160770 0.441799 0.840802
C100 C -0.0306(7) 0.4079(7) 0.8191(9)
C101 C 0.0459(7) 0.4318(7) 0.7924(10)
C102 C 0.1297(7) 0.3871(6) 0.7858(10)
C103 C 0.2055(7) 0.4114(7) 0.7603(11)
C104 C 0.1946(8) 0.4767(9) 0.7348(11)
H44 H 0.243747 0.491807 0.716404
C105 C 0.1133(8) 0.5179(9) 0.7368(11)
C106 C 0.0361(7) 0.4947(9) 0.7630(11)
C107 C 0.1051(8) 0.5827(8) 0.7051(9)
O16 O 0.1680(9) 0.6035(9) 0.6800(8)
C108 C 0.2890(6) 0.3645(5) 0.7541(9)
N9? N 0.0107(9) 0.6322(7) 0.7313(9)
C109? C 0.0002(15) 0.7032(9) 0.7076(12)
H45? H 0.002819 0.735074 0.732985
H46? H -0.056000 0.714115 0.694679
H47? H 0.047057 0.705853 0.680032
C110? C -0.0665(8) 0.6121(7) 0.7558(9)
O17? O -0.1381(10) 0.6498(9) 0.7578(12)
C111? C -0.0547(7) 0.5422(8) 0.7804(13)
C112? C -0.1287(7) 0.5157(9) 0.8018(14)
H48? H -0.184981 0.541594 0.801186
C113? C -0.1188(6) 0.4497(7) 0.8244(8)
C114? C -0.0349(6) 0.4100(8) 0.8295(10)
C115? C 0.0390(8) 0.4333(8) 0.7987(13)
C116? C 0.1254(8) 0.3913(7) 0.7934(11)
C117? C 0.1987(8) 0.4153(6) 0.7641(11)
C118? C 0.1875(8) 0.4849(8) 0.7466(14)
H49? H 0.236930 0.503863 0.733006
C119? C 0.1050(8) 0.5247(9) 0.7494(14)
C120? C 0.0298(8) 0.5007(9) 0.7766(13)
C121? C 0.0966(9) 0.5956(8) 0.7267(11)
O18? O 0.1599(11) 0.6192(9) 0.7048(11)
Br5? Br -0.2317(4) 0.4185(3) 0.8466(2)
N10? N 0.0886(12) 0.0907(6) 0.8898(8)
C122? C 0.0981(19) 0.0169(7) 0.9071(12)
H50? H 0.135105 -0.010552 0.881219
H51? H 0.040714 0.003533 0.912969
H52? H 0.124681 0.010331 0.938335
C123? C 0.0120(12) 0.1327(6) 0.9110(8)
O19? O -0.0429(15) 0.1108(9) 0.9422(10)
C124? C 0.0034(16) 0.2057(7) 0.8931(12)
C125? C -0.0671(18) 0.2529(8) 0.9148(12)
H53? H -0.106139 0.239424 0.941900
C126? C -0.0794(8) 0.3209(8) 0.8958(5)
H54? H -0.129909 0.350900 0.908396
C127? C -0.0175(10) 0.3445(7) 0.8583(8)
C128? C 0.0624(11) 0.2984(6) 0.8424(10)
C129? C 0.1324(12) 0.3204(6) 0.8079(11)
C130? C 0.2060(14) 0.2730(6) 0.7865(12)
C131? C 0.2110(16) 0.2032(7) 0.8028(14)
H55? H 0.260357 0.171717 0.790649
C132? C 0.1445(14) 0.1812(7) 0.8360(12)
C133? C 0.0675(14) 0.2277(6) 0.8555(12)
C134? C 0.1575(14) 0.1084(7) 0.8548(11)
O20? O 0.2226(14) 0.0670(8) 0.8401(11)
C135? C 0.2726(9) 0.2972(6) 0.7491(9)
N11? N 0.4457(9) 0.0564(8) 0.6162(7)
C136? C 0.4272(15) -0.0067(10) 0.5946(10)
H56? H 0.453181 -0.046263 0.613410
H57? H 0.452302 -0.009169 0.559233
H58? H 0.364264 -0.005115 0.597163
C137? C 0.5281(9) 0.0741(8) 0.5991(7)
O21? O 0.5797(14) 0.0413(11) 0.5667(10)
C138? C 0.5444(10) 0.1375(10) 0.6198(9)
C139? C 0.6274(10) 0.1554(11) 0.6088(10)
H59? H 0.671334 0.128837 0.587337
C140? C 0.6457(7) 0.2130(8) 0.6297(7)
C141? C 0.5843(9) 0.2558(10) 0.6633(10)
C142? C 0.4988(9) 0.2352(10) 0.6754(11)
C143? C 0.4293(9) 0.2745(9) 0.7087(11)
C144? C 0.3479(9) 0.2511(8) 0.7244(10)
C145? C 0.3371(13) 0.1870(11) 0.7076(12)
H60? H 0.286742 0.168785 0.720605
C146? C 0.3995(12) 0.1516(11) 0.6727(11)
C147? C 0.4822(10) 0.1738(10) 0.6568(10)
C148? C 0.3791(11) 0.0895(10) 0.6514(9)
O22? O 0.3144(12) 0.0641(10) 0.6684(9)
Br6? Br 0.7679(5) 0.2267(4) 0.6062(3)
N12? N 0.5579(11) 0.5466(8) 0.7697(10)
C149? C 0.5684(17) 0.6138(10) 0.7886(14)
H61? H 0.565783 0.647647 0.761042
H62? H 0.624537 0.609209 0.801412
H63? H 0.521465 0.627718 0.815650
C150? C 0.6349(10) 0.5071(8) 0.7466(9)
O23? O 0.7067(12) 0.5256(12) 0.7438(13)
C151? C 0.6229(9) 0.4400(10) 0.7293(13)
C152? C 0.6949(9) 0.3963(11) 0.7054(13)
H64? H 0.750391 0.409432 0.699176
C153? C 0.6838(7) 0.3327(10) 0.6907(8)
H65? H 0.733675 0.299497 0.683166
C154? C 0.6000(7) 0.3169(10) 0.6869(10)
C155? C 0.5260(8) 0.3593(9) 0.7145(11)
C156? C 0.4415(7) 0.3383(8) 0.7261(11)
C157? C 0.3664(7) 0.3845(9) 0.7474(13)
C158? C 0.3800(9) 0.4479(11) 0.7637(16)
H66? H 0.331238 0.479655 0.776224
C159? C 0.4635(9) 0.4634(10) 0.7614(12)
C160? C 0.5379(9) 0.4220(10) 0.7337(12)
C161? C 0.4724(11) 0.5317(10) 0.7781(13)
O24? O 0.4106(13) 0.5708(11) 0.7996(14)
C162? C 0.2789(6) 0.3673(6) 0.7488(10)
N13? N 0.5854(14) 0.5145(14) 0.7747(13)
C163? C 0.608(2) 0.5716(18) 0.8021(17)
H67? H 0.606508 0.611593 0.779719
H68? H 0.666019 0.558423 0.812261
H69? H 0.565253 0.581378 0.831920
C164? C 0.6555(12) 0.4765(13) 0.7444(13)
O25? O 0.7313(14) 0.487(2) 0.7422(18)
C165? C 0.6309(11) 0.4220(17) 0.7158(17)
C166? C 0.6957(10) 0.3825(13) 0.6840(18)
H70? H 0.751283 0.395042 0.675487
C167? C 0.6773(7) 0.3234(10) 0.6645(12)
C168? C 0.5900(7) 0.3115(14) 0.6638(14)
C169? C 0.5221(9) 0.3550(14) 0.6955(15)
C170? C 0.4336(10) 0.3395(12) 0.7064(14)
C171? C 0.3662(9) 0.3832(11) 0.7367(15)
C172? C 0.3900(12) 0.4391(18) 0.759(2)
H71? H 0.345931 0.469975 0.777328
C173? C 0.4764(12) 0.4487(18) 0.7554(17)
C174? C 0.5436(11) 0.4081(18) 0.7227(17)
C175? C 0.4973(15) 0.5056(17) 0.7831(15)
O26? O 0.4418(18) 0.5429(18) 0.8107(16)
Br7? Br 0.7864(5) 0.2603(6) 0.6416(4)
N14? N 0.3920(17) 0.0795(14) 0.5878(11)
C176? C 0.361(2) 0.0242(18) 0.5626(15)
H72? H 0.320040 0.003560 0.586686
H73? H 0.410879 -0.009763 0.551179
H74? H 0.331855 0.043526 0.533775
C177? C 0.4749(17) 0.0940(14) 0.5676(10)
O27? O 0.520(2) 0.063(2) 0.5318(15)
C178? C 0.5026(17) 0.1509(18) 0.5919(12)
C179? C 0.5854(19) 0.168(2) 0.5752(14)
H75? H 0.620285 0.147452 0.547106
C180? C 0.6162(10) 0.2172(18) 0.6007(10)
H76? H 0.673244 0.226064 0.590302
C181? C 0.5644(13) 0.2532(17) 0.6413(14)
C182? C 0.4804(15) 0.2340(16) 0.6594(14)
C183? C 0.4200(15) 0.2721(14) 0.6975(14)
C184? C 0.3392(16) 0.2501(13) 0.7176(14)
C185? C 0.315(2) 0.195(2) 0.6946(17)
H77? H 0.262672 0.179207 0.707828
C186? C 0.3668(18) 0.1634(19) 0.6536(14)
C187? C 0.4523(16) 0.1803(17) 0.6362(13)
C188? C 0.3343(18) 0.1092(17) 0.6286(14)
O28? O 0.263(2) 0.092(2) 0.6422(16)
C189? C 0.2772(13) 0.2917(9) 0.7543(12)
N15? N 0.0679(17) 0.0986(9) 0.8912(14)
C190? C 0.075(2) 0.0279(12) 0.9152(19)
H78? H 0.117672 -0.002941 0.893824
H79? H 0.018686 0.013559 0.918939
H80? H 0.094884 0.027744 0.948293
C191? C -0.0114(17) 0.1425(9) 0.9052(12)
O29? O -0.071(2) 0.1237(13) 0.9350(16)
C192? C -0.0178(18) 0.2119(10) 0.8807(15)
C193? C -0.0926(19) 0.2600(8) 0.8939(14)
H81? H -0.140022 0.247873 0.915984
C194? C -0.0965(13) 0.3267(7) 0.8738(9)
C195? C -0.0384(13) 0.3445(9) 0.8309(10)
C196? C 0.0436(14) 0.2970(10) 0.8221(14)
C197? C 0.1183(12) 0.3164(9) 0.7895(14)
C198? C 0.1982(13) 0.2687(9) 0.7806(14)
C199? C 0.2007(18) 0.2007(10) 0.8008(19)
H82? H 0.250659 0.168110 0.791872
C200? C 0.1309(17) 0.1821(10) 0.8331(17)
C201? C 0.0533(16) 0.2314(10) 0.8472(15)
C202? C 0.1406(18) 0.1122(11) 0.8574(17)
O30? O 0.207(2) 0.0693(13) 0.849(2)
Br8? Br -0.1871(9) 0.3915(6) 0.9135(6)
N16? N 0.0376(15) 0.6430(8) 0.7453(12)
C203? C 0.038(2) 0.7174(9) 0.7323(16)
H83? H 0.039999 0.740614 0.762893
H84? H -0.014723 0.736838 0.717580
H85? H 0.089209 0.722427 0.708232
C204? C -0.0448(14) 0.6255(9) 0.7625(12)
O31? O -0.1127(16) 0.6678(12) 0.764(2)
C205? C -0.0435(12) 0.5518(9) 0.7767(19)
C206? C -0.1231(11) 0.5279(11) 0.790(2)
H86? H -0.176660 0.556772 0.787020
C207? C -0.1223(10) 0.4606(11) 0.8082(9)
H87? H -0.174663 0.448128 0.824498
C208? C -0.0452(10) 0.4110(10) 0.8026(12)
C209? C 0.0351(10) 0.4332(9) 0.7796(15)
C210? C 0.1175(9) 0.3867(9) 0.7740(17)
C211? C 0.1984(10) 0.4103(9) 0.757(2)
C212? C 0.1961(12) 0.4814(10) 0.747(2)
H88? H 0.248882 0.497480 0.736229
C213? C 0.1179(12) 0.5268(9) 0.752(2)
C214? C 0.0363(11) 0.5046(9) 0.7709(19)
C215? C 0.1200(14) 0.6007(9) 0.7397(16)
O32? O 0.1874(16) 0.6229(11) 0.7227(15)
C216? C 0.2810(9) 0.3622(9) 0.7530(15)
N17? N 0.6638(16) 0.4229(7) 0.4062(6)
C217? C 0.623(2) 0.4956(8) 0.4167(10)
H89? H 0.627043 0.522900 0.385383
H90? H 0.653516 0.512740 0.441000
H91? H 0.561531 0.497738 0.430293
C218? C 0.7053(17) 0.3861(7) 0.4453(6)
O33? O 0.699(2) 0.4081(11) 0.4881(7)
C219? C 0.748(2) 0.3150(8) 0.4330(7)
C220? C 0.792(2) 0.2746(6) 0.4693(6)
H92? H 0.800303 0.293370 0.499296
C221? C 0.8237(15) 0.2054(6) 0.4607(4)
C222? C 0.8317(19) 0.1776(8) 0.4120(5)
C223? C 0.782(2) 0.2192(8) 0.3757(7)
C224? C 0.765(2) 0.1906(7) 0.3299(7)
C225? C 0.726(2) 0.2336(8) 0.2912(6)
C226? C 0.692(3) 0.3030(9) 0.3019(8)
H93? H 0.665946 0.331506 0.276977
C227? C 0.697(2) 0.3289(8) 0.3482(7)
C228? C 0.739(2) 0.2871(8) 0.3865(7)
C229? C 0.655(2) 0.4010(8) 0.3584(7)
O34? O 0.621(2) 0.4400(9) 0.3264(8)
Br9? Br 0.8516(5) 0.1527(3) 0.5233(2)
N18? N 0.9705(17) -0.1188(9) 0.3105(8)
C230? C 1.013(2) -0.1894(11) 0.2950(12)
H94? H 0.982985 -0.222324 0.314773
H95? H 1.074384 -0.197370 0.301061
H96? H 1.010414 -0.193791 0.259280
C231? C 0.9993(16) -0.0954(9) 0.3528(8)
O35? O 1.0585(19) -0.1292(12) 0.3744(11)
C232? C 0.954(2) -0.0259(11) 0.3683(11)
C233? C 0.982(2) 0.0037(12) 0.4082(11)
H97? H 1.029571 -0.019352 0.424295
C234? C 0.9394(13) 0.0683(11) 0.4240(6)
H98? H 0.954844 0.085465 0.452901
C235? C 0.874(2) 0.1080(10) 0.3979(9)
C236? C 0.850(2) 0.0797(9) 0.3543(10)
C237? C 0.7865(19) 0.1184(7) 0.3242(8)
C238? C 0.762(2) 0.0893(7) 0.2814(8)
C239? C 0.799(3) 0.0199(10) 0.2714(12)
H99? H 0.777382 -0.001674 0.246568
C240? C 0.864(2) -0.0159(11) 0.2974(11)
C241? C 0.889(2) 0.0123(10) 0.3405(11)
C242? C 0.908(2) -0.0850(10) 0.2804(10)
O36? O 0.891(3) -0.1106(12) 0.2430(11)
C243? C 0.721(2) 0.1337(7) 0.2426(9)
N19? N 0.5035(17) -0.0548(9) 0.1583(8)
C244? C 0.464(2) -0.1185(12) 0.1706(12)
H100? H 0.503974 -0.156498 0.155035
H101? H 0.408374 -0.113121 0.157680
H102? H 0.455968 -0.126605 0.207080
C245? C 0.4866(17) -0.0208(9) 0.1121(8)
O37? O 0.445(3) -0.0432(14) 0.0829(11)
C246? C 0.530(2) 0.0399(12) 0.0994(10)
C247? C 0.515(2) 0.0782(9) 0.0550(10)
H103? H 0.487942 0.061208 0.030212
C248? C 0.5395(13) 0.1424(7) 0.0475(7)
C249? C 0.6029(16) 0.1624(9) 0.0747(8)
C250? C 0.617(2) 0.1231(11) 0.1216(8)
C251? C 0.655(3) 0.1498(11) 0.1611(9)
C252? C 0.676(2) 0.1082(11) 0.2050(9)
C253? C 0.641(3) 0.0466(14) 0.2146(11)
H104? H 0.651651 0.020079 0.244123
C254? C 0.592(3) 0.0256(14) 0.1810(9)
C255? C 0.582(2) 0.0616(12) 0.1330(9)
C256? C 0.553(2) -0.0374(12) 0.1943(9)
O38? O 0.566(2) -0.0735(13) 0.2326(9)
Br10? Br 0.4717(6) 0.2002(4) -0.0020(3)
N20? N 0.8011(16) 0.4246(9) 0.0804(6)
C257? C 0.846(2) 0.4860(13) 0.0711(10)
H105? H 0.837835 0.510651 0.102014
H106? H 0.820839 0.515094 0.044556
H107? H 0.908317 0.471482 0.060806
C258? C 0.7714(15) 0.4023(10) 0.0380(6)
O39? O 0.789(2) 0.4272(13) -0.0047(7)
C259? C 0.731(2) 0.3394(13) 0.0476(6)
C260? C 0.694(3) 0.3149(16) 0.0086(6)
H108? H 0.703938 0.333163 -0.024616
C261? C 0.6439(16) 0.2630(13) 0.0189(6)
H109? H 0.611235 0.253004 -0.005953
C262? C 0.641(2) 0.2254(12) 0.0656(6)
C263? C 0.671(2) 0.2535(12) 0.1073(6)
C264? C 0.672(2) 0.2183(10) 0.1564(6)
C265? C 0.705(2) 0.2460(10) 0.1970(6)
C266? C 0.741(3) 0.3071(14) 0.1870(7)
H110? H 0.761604 0.325825 0.213322
C267? C 0.745(2) 0.3393(13) 0.1394(6)
C268? C 0.717(2) 0.3104(13) 0.0975(6)
C269? C 0.795(2) 0.3974(12) 0.1303(7)
O40? O 0.821(2) 0.4235(13) 0.1648(8)
C270? C 0.719(2) 0.2045(7) 0.2432(6)
N21? N 0.532(2) -0.0547(10) 0.1422(8)
C271? C 0.496(3) -0.1203(13) 0.1514(12)
H111? H 0.530415 -0.150172 0.174094
H112? H 0.499869 -0.141806 0.119423
H113? H 0.435427 -0.110827 0.166543
C272? C 0.5158(18) -0.0187(9) 0.0966(8)
O41? O 0.478(2) -0.0407(12) 0.0652(9)
C273? C 0.552(3) 0.0461(12) 0.0882(9)
C274? C 0.540(3) 0.0849(11) 0.0438(9)
H114? H 0.513800 0.068886 0.018429
C275? C 0.5685(16) 0.1483(8) 0.0367(7)
C276? C 0.623(2) 0.1700(12) 0.0688(8)
C277? C 0.632(3) 0.1302(12) 0.1159(8)
C278? C 0.676(3) 0.1521(10) 0.1549(8)
C279? C 0.691(2) 0.1102(9) 0.1995(8)
C280? C 0.662(3) 0.0461(13) 0.2048(10)
H115? H 0.675417 0.016683 0.232457
C281? C 0.613(3) 0.0270(13) 0.1699(9)
C282? C 0.602(3) 0.0665(12) 0.1238(9)
C283? C 0.577(3) -0.0377(13) 0.1803(9)
O42? O 0.590(3) -0.0751(15) 0.2180(11)
Br11? Br 0.5222(9) 0.2018(5) -0.0216(4)
N22? N 0.7654(19) 0.4532(9) 0.0929(8)
C284? C 0.791(3) 0.5227(11) 0.0889(11)
H116? H 0.739208 0.556873 0.095037
H117? H 0.821310 0.530365 0.055255
H118? H 0.830275 0.525388 0.113910
C285? C 0.7417(19) 0.4313(9) 0.0485(7)
O43? O 0.741(3) 0.4669(13) 0.0092(8)
C286? C 0.712(3) 0.3637(12) 0.0539(7)
C287? C 0.691(3) 0.3356(13) 0.0112(7)
H119? H 0.689467 0.361108 -0.019541
C288? C 0.6723(16) 0.2690(11) 0.0142(5)
H120? H 0.663647 0.249629 -0.015445
C289? C 0.666(2) 0.2308(12) 0.0606(6)
C290? C 0.692(3) 0.2582(11) 0.1039(6)
C291? C 0.695(3) 0.2200(11) 0.1515(6)
C292? C 0.720(3) 0.2477(11) 0.1945(6)
C293? C 0.748(3) 0.3125(13) 0.1883(8)
H121? H 0.771540 0.328656 0.214725
C294? C 0.740(3) 0.3516(11) 0.1440(7)
C295? C 0.711(3) 0.3257(11) 0.1009(7)
C296? C 0.767(3) 0.4200(11) 0.1408(8)
O44? O 0.788(3) 0.4455(12) 0.1770(9)
C297? C 0.721(2) 0.2082(7) 0.2425(5)
N23? N 0.6115(19) 0.4043(10) 0.4189(7)
C298? C 0.555(3) 0.4710(13) 0.4335(11)
H122? H 0.552778 0.501870 0.404057
H123? H 0.578971 0.490365 0.459702
H124? H 0.495626 0.463676 0.446186
C299? C 0.6533(17) 0.3665(10) 0.4576(7)
O45? O 0.642(2) 0.3864(13) 0.5012(7)
C300? C 0.710(3) 0.3009(13) 0.4421(7)
C301? C 0.750(2) 0.2580(14) 0.4783(6)
H125? H 0.736349 0.267489 0.512842
C302? C 0.8120(14) 0.2006(10) 0.4633(5)
C303? C 0.819(2) 0.1718(11) 0.4150(6)
C304? C 0.774(3) 0.2162(12) 0.3778(7)
C305? C 0.777(2) 0.1941(9) 0.3265(6)
C306? C 0.732(2) 0.2369(8) 0.2900(6)
C307? C 0.682(3) 0.3013(13) 0.3048(7)
H126? H 0.656047 0.330816 0.280344
C308? C 0.672(3) 0.3208(13) 0.3544(7)
C309? C 0.719(3) 0.2793(13) 0.3915(7)
C310? C 0.617(3) 0.3880(12) 0.3679(8)
O46? O 0.580(3) 0.4273(14) 0.3370(9)
Br12? Br 0.8903(9) 0.1690(6) 0.5161(4)
N24? N 0.9365(19) -0.1286(8) 0.3256(10)
C311? C 0.964(3) -0.2033(9) 0.3163(14)
H127? H 0.923373 -0.228419 0.336701
H128? H 1.022724 -0.218489 0.325573
H129? H 0.964231 -0.210986 0.280747
C312? C 0.9666(19) -0.1051(9) 0.3674(9)
O47? O 1.014(2) -0.1432(11) 0.3940(12)
C313? C 0.935(3) -0.0313(9) 0.3771(11)
C314? C 0.968(3) -0.0011(11) 0.4149(13)
H130? H 1.008252 -0.027269 0.434486
C315? C 0.9404(17) 0.0680(11) 0.4236(8)
H131? H 0.964394 0.087373 0.448449
C316? C 0.8781(19) 0.1097(11) 0.3963(8)
C317? C 0.863(2) 0.0826(8) 0.3497(8)
C318? C 0.809(2) 0.1238(8) 0.3156(9)
C319? C 0.776(3) 0.0935(8) 0.2767(11)
C320? C 0.804(3) 0.0226(9) 0.2691(14)
H132? H 0.788063 0.003235 0.241331
C321? C 0.855(3) -0.0179(9) 0.3019(12)
C322? C 0.881(3) 0.0103(8) 0.3444(11)
C323? C 0.885(3) -0.0914(9) 0.2907(11)
O48? O 0.864(2) -0.1182(11) 0.2550(11)
C324? C 0.725(2) 0.1370(7) 0.2411(9)
N25? N 0.734(2) 0.4485(10) 0.0801(8)
C325? C 0.765(3) 0.5159(14) 0.0706(11)
H133? H 0.764325 0.536268 0.102736
H134? H 0.726383 0.545571 0.050086
H135? H 0.824284 0.508902 0.052971
C326? C 0.701(2) 0.4249(10) 0.0395(7)
O49? O 0.691(3) 0.4597(13) 0.0003(9)
C327? C 0.668(3) 0.3587(12) 0.0500(7)
C328? C 0.638(3) 0.3295(9) 0.0110(6)
H136? H 0.631048 0.353547 -0.019964
C329? C 0.6185(18) 0.2632(8) 0.0185(4)
C330? C 0.603(2) 0.2329(10) 0.0681(4)
C331? C 0.643(3) 0.2603(11) 0.1068(7)
C332? C 0.654(3) 0.2239(10) 0.1550(7)
C333? C 0.691(2) 0.2521(9) 0.1934(6)
C334? C 0.714(3) 0.3183(13) 0.1841(8)
H137? H 0.734704 0.338465 0.209746
C335? C 0.705(3) 0.3530(12) 0.1379(8)
C336? C 0.674(3) 0.3235(12) 0.0977(7)
C337? C 0.741(3) 0.4179(13) 0.1285(8)
O50? O 0.773(3) 0.4433(15) 0.1609(10)
Br13? Br 0.6217(10) 0.2174(6) -0.0457(4)
N26? N 0.523(2) -0.0660(10) 0.1551(10)
C338? C 0.498(3) -0.1354(13) 0.1657(14)
H138? H 0.542097 -0.168809 0.147590
H139? H 0.441540 -0.135501 0.154509
H140? H 0.494680 -0.146446 0.201785
C339? C 0.496(2) -0.0313(10) 0.1111(10)
O51? O 0.455(3) -0.0564(15) 0.0827(13)
C340? C 0.526(3) 0.0358(12) 0.0997(10)
C341? C 0.497(3) 0.0765(13) 0.0586(11)
H141? H 0.460660 0.061138 0.038044
C342? C 0.5223(15) 0.1405(11) 0.0479(6)
H142? H 0.509048 0.164464 0.017710
C343? C 0.567(2) 0.1697(11) 0.0814(8)
C344? C 0.592(3) 0.1297(11) 0.1257(9)
C345? C 0.639(3) 0.1549(10) 0.1612(10)
C346? C 0.668(3) 0.1133(11) 0.2033(11)
C347? C 0.644(3) 0.0477(14) 0.2118(13)
H143? H 0.659597 0.020977 0.240364
C348? C 0.597(3) 0.0231(12) 0.1786(12)
C349? C 0.571(3) 0.0627(11) 0.1345(10)
C350? C 0.572(3) -0.0454(12) 0.1903(12)
O52? O 0.593(4) -0.0821(15) 0.2269(14)
C351? C 0.721(2) 0.1394(7) 0.2367(7)
N27? N 0.9349(19) -0.1139(8) 0.3352(7)
C352? C 0.979(3) -0.1860(9) 0.3254(11)
H144? H 0.947626 -0.205607 0.302720
H145? H 0.978867 -0.212275 0.357193
H146? H 1.039221 -0.186459 0.309990
C353? C 0.9449(17) -0.0888(7) 0.3816(7)
O53? O 0.987(2) -0.1235(9) 0.4127(8)
C354? C 0.902(2) -0.0170(9) 0.3899(8)
C355? C 0.909(2) 0.0123(9) 0.4349(9)
H147? H 0.940299 -0.013035 0.459322
C356? C 0.8687(15) 0.0794(7) 0.4438(6)
C357? C 0.8121(19) 0.1189(10) 0.4113(7)
C358? C 0.811(2) 0.0893(9) 0.3632(7)
C359? C 0.761(2) 0.1272(8) 0.3252(7)
C360? C 0.758(2) 0.0973(8) 0.2781(7)
C361? C 0.797(3) 0.0279(10) 0.2713(10)
H148? H 0.791369 0.007167 0.241572
C362? C 0.843(3) -0.0094(9) 0.3076(9)
C363? C 0.856(2) 0.0223(9) 0.3525(8)
C364? C 0.889(3) -0.0802(9) 0.2966(8)
O54? O 0.888(3) -0.1076(12) 0.2567(9)
Br14? Br 0.9011(6) 0.1113(4) 0.5064(3)
N28? N 0.5618(16) 0.4189(8) 0.4072(7)
C365? C 0.506(2) 0.4879(10) 0.4162(10)
H149? H 0.543578 0.522110 0.411438
H150? H 0.476104 0.488804 0.450565
H151? H 0.463326 0.497013 0.392425
C366? C 0.5938(16) 0.3839(8) 0.4499(6)
O55? O 0.579(2) 0.4079(12) 0.4923(7)
C367? C 0.653(2) 0.3173(10) 0.4391(6)
C368? C 0.681(2) 0.2754(11) 0.4800(5)
H152? H 0.665251 0.290165 0.513272
C369? C 0.7325(13) 0.2116(10) 0.4711(5)
H153? H 0.752320 0.185069 0.498928
C370? C 0.756(2) 0.1854(10) 0.4222(5)
C371? C 0.721(2) 0.2262(9) 0.3804(5)
C372? C 0.731(2) 0.1990(8) 0.3307(5)
C373? C 0.697(2) 0.2398(9) 0.2894(5)
C374? C 0.644(3) 0.3045(12) 0.3000(6)
H154? H 0.618958 0.330679 0.273533
C375? C 0.629(2) 0.3296(11) 0.3482(6)
C376? C 0.666(2) 0.2906(10) 0.3900(6)
C377? C 0.576(2) 0.3988(10) 0.3568(7)
O56? O 0.542(2) 0.4347(11) 0.3231(8)
C378? C 0.711(2) 0.2111(7) 0.2392(5)
loop_
_geom_bond_atom_site_label_1
_geom_bond_atom_site_label_2
_geom_bond_site_symmetry_1
_geom_bond_site_symmetry_2
N1 C1 1_555 1_555
C1 H1 1_555 1_555
H2 C1 1_555 1_555
H3 C1 1_555 1_555
C2 N1 1_555 1_555
O1 C2 1_555 1_555
C3 C2 1_555 1_555
C4 C3 1_555 1_555
H4 C4 1_555 1_555
C5 C4 1_555 1_555
C6 C5 1_555 1_555
C7 C6 1_555 1_555
C8 C7 1_555 1_555
C9 C8 1_555 1_555
C10 C9 1_555 1_555
H5 C10 1_555 1_555
C11 C10 1_555 1_555
C12 C3 1_555 1_555
C13 N1 1_555 1_555
O2 C13 1_555 1_555
Br1 C5 1_555 1_555
N2 C14 1_555 1_555
C14 H6 1_555 1_555
H7 C14 1_555 1_555
H8 C14 1_555 1_555
C15 N2 1_555 1_555
O3 C15 1_555 1_555
C16 C15 1_555 1_555
C17 C16 1_555 1_555
H9 C17 1_555 1_555
C18 C17 1_555 1_555
H10 C18 1_555 1_555
C19 C6 1_555 1_555
C20 C19 1_555 1_555
C21 C8 1_555 1_555
C22 C21 1_555 1_555
C23 C22 1_555 1_555
H11 C23 1_555 1_555
C24 C23 1_555 1_555
C25 C16 1_555 1_555
C26 N2 1_555 1_555
O4 C26 1_555 1_555
C27 C22 1_555 1_555
N3 C28 1_555 1_555
C28 H12 1_555 1_555
H13 C28 1_555 1_555
H14 C28 1_555 1_555
C29 N3 1_555 1_555
O5 C29 1_555 1_555
C30 C29 1_555 1_555
C31 C30 1_555 1_555
H15 C31 1_555 1_555
C32 C31 1_555 1_555
C33 C32 1_555 1_555
C34 C33 1_555 1_555
C35 C34 1_555 1_555
C36 C27 1_555 1_555
C37 C36 1_555 1_555
H16 C37 1_555 1_555
C38 C37 1_555 1_555
C39 C30 1_555 1_555
C40 N3 1_555 1_555
O6 C40 1_555 1_555
Br2 C32 1_555 1_555
N4 C41 1_555 1_555
C41 H17 1_555 1_555
H18 C41 1_555 1_555
H19 C41 1_555 1_555
C42 N4 1_555 1_555
O7 C42 1_555 1_555
C43 C42 1_555 1_555
C44 C43 1_555 1_555
H20 C44 1_555 1_555
C45 C44 1_555 1_555
H21 C45 1_555 1_555
C46 C33 1_555 1_555
C47 C46 1_555 1_555
C48 C35 1_555 1_555
C49 C48 1_555 1_555
C50 C49 1_555 1_555
H22 C50 1_555 1_555
C51 C50 1_555 1_555
C52 C43 1_555 1_555
C53 N4 1_555 1_555
O8 C53 1_555 1_555
C54 C9 1_555 1_555
N5 C55 1_555 1_555
C55 H23 1_555 1_555
H24 C55 1_555 1_555
H25 C55 1_555 1_555
C56 N5 1_555 1_555
O9 C56 1_555 1_555
C57 C56 1_555 1_555
C58 C57 1_555 1_555
H26 C58 1_555 1_555
C59 C58 1_555 1_555
C60 C59 1_555 1_555
C61 C60 1_555 1_555
C62 C61 1_555 1_555
C63 C62 1_555 1_555
C64 C63 1_555 1_555
H27 C64 1_555 1_555
C65 C64 1_555 1_555
C66 C57 1_555 1_555
C67 N5 1_555 1_555
O10 C67 1_555 1_555
Br3 C59 1_555 1_555
N6 C68 1_555 1_555
C68 H28 1_555 1_555
H29 C68 1_555 1_555
H30 C68 1_555 1_555
C69 N6 1_555 1_555
O11 C69 1_555 1_555
C70 C69 1_555 1_555
C71 C70 1_555 1_555
H31 C71 1_555 1_555
C72 C71 1_555 1_555
H32 C72 1_555 1_555
C73 C60 1_555 1_555
C74 C73 1_555 1_555
C75 C62 1_555 1_555
C76 C75 1_555 1_555
C77 C76 1_555 1_555
H33 C77 1_555 1_555
C78 C77 1_555 1_555
C79 C70 1_555 1_555
C80 N6 1_555 1_555
O12 C80 1_555 1_555
C81 C76 1_555 1_555
N7 C82 1_555 1_555
C82 H34 1_555 1_555
H35 C82 1_555 1_555
H36 C82 1_555 1_555
C83 N7 1_555 1_555
O13 C83 1_555 1_555
C84 C83 1_555 1_555
C85 C84 1_555 1_555
H37 C85 1_555 1_555
C86 C85 1_555 1_555
C87 C86 1_555 1_555
C88 C87 1_555 1_555
C89 C88 1_555 1_555
C90 C81 1_555 1_555
C91 C90 1_555 1_555
H38 C91 1_555 1_555
C92 C91 1_555 1_555
C93 C84 1_555 1_555
C94 N7 1_555 1_555
O14 C94 1_555 1_555
Br4 C86 1_555 1_555
N8 C95 1_555 1_555
C95 H39 1_555 1_555
H40 C95 1_555 1_555
H41 C95 1_555 1_555
C96 N8 1_555 1_555
O15 C96 1_555 1_555
C97 C96 1_555 1_555
C98 C97 1_555 1_555
H42 C98 1_555 1_555
C99 C98 1_555 1_555
H43 C99 1_555 1_555
C100 C87 1_555 1_555
C101 C100 1_555 1_555
C102 C89 1_555 1_555
C103 C102 1_555 1_555
C104 C103 1_555 1_555
H44 C104 1_555 1_555
C105 C104 1_555 1_555
C106 C97 1_555 1_555
C107 N8 1_555 1_555
O16 C107 1_555 1_555
C108 C63 1_555 1_555
C7 C12 1_555 1_555
C11 C12 1_555 1_555
C11 C13 1_555 1_555
C18 C19 1_555 1_555
C20 C21 1_555 1_555
C20 C25 1_555 1_555
C24 C25 1_555 1_555
C24 C26 1_555 1_555
C27 C54 1_555 1_555
C34 C39 1_555 1_555
C35 C36 1_555 1_555
C38 C39 1_555 1_555
C38 C40 1_555 1_555
C45 C46 1_555 1_555
C47 C48 1_555 1_555
C47 C52 1_555 1_555
C49 C54 1_555 1_555
C51 C52 1_555 1_555
C51 C53 1_555 1_555
C61 C66 1_555 1_555
C65 C66 1_555 1_555
C65 C67 1_555 1_555
C72 C73 1_555 1_555
C74 C75 1_555 1_555
C74 C79 1_555 1_555
C78 C79 1_555 1_555
C78 C80 1_555 1_555
C81 C108 1_555 1_555
C88 C93 1_555 1_555
C89 C90 1_555 1_555
C92 C93 1_555 1_555
C92 C94 1_555 1_555
C99 C100 1_555 1_555
C101 C102 1_555 1_555
C101 C106 1_555 1_555
C103 C108 1_555 1_555
C105 C106 1_555 1_555
C105 C107 1_555 1_555

#END
