
#######################################################################
#
#                 Cambridge Crystallographic Data Centre
#                                CCDC 
#
#######################################################################
#
# If this CIF has been generated from an entry in the Cambridge 
# Structural Database, then it will include bibliographic, chemical, 
# crystal, experimental, refinement or atomic coordinate data resulting 
# from the CCDC's data processing and validation procedures.
#
#######################################################################

data_SIHJEY01
_chemical_name_common            
"Dianin's compound carbon tetrachloride clathrate"
_chemical_formula_moiety         '6(C18 H20 O2),C1 Cl4'
_chemical_name_systematic        
'hexakis(4-(p-Hydroxyphenyl)-2,2,4-trimethylchroman) carbon tetrachloride clathrate'
_symmetry_cell_setting           rhombohedral
_symmetry_space_group_name_H-M   'R -3'
_symmetry_Int_Tables_number      148
_space_group_name_Hall           '-R 3'
loop_
_symmetry_equiv_pos_site_id
_symmetry_equiv_pos_as_xyz
1 x,y,z
2 1/3+x,2/3+y,2/3+z
3 2/3+x,1/3+y,1/3+z
4 -y,x-y,z
5 -x+y,-x,z
6 1/3-y,2/3+x-y,2/3+z
7 1/3-x+y,2/3-x,2/3+z
8 2/3-y,1/3+x-y,1/3+z
9 2/3-x+y,1/3-x,1/3+z
10 -x,-y,-z
11 2/3-x,1/3-y,1/3-z
12 1/3-x,2/3-y,2/3-z
13 y,-x+y,-z
14 x-y,x,-z
15 2/3+y,1/3-x+y,1/3-z
16 2/3+x-y,1/3+x,1/3-z
17 1/3+y,2/3-x+y,2/3-z
18 1/3+x-y,2/3+x,2/3-z
_cell_length_a                   27.147(3)
_cell_length_b                   27.147(3)
_cell_length_c                   10.939(2)
_cell_angle_alpha                90
_cell_angle_beta                 90
_cell_angle_gamma                120
_cell_volume                     6981.55
_chemical_melting_point          160-162deg.C
_cell_formula_units_Z            3
loop_
_atom_site_label
_atom_site_type_symbol
_atom_site_fract_x
_atom_site_fract_y
_atom_site_fract_z
O1 O 0.0654(2) 0.1206(2) 0.9812(3)
O2 O 0.0875(2) 0.2621(2) 0.3731(4)
C1 C 0.0888(3) 0.1624(3) 0.8895(5)
C2 C 0.1403(3) 0.1760(3) 0.8373(6)
C3 C 0.1614(2) 0.2162(3) 0.7448(5)
C4 C 0.1329(2) 0.2440(2) 0.7038(5)
C5 C 0.0817(3) 0.2297(2) 0.7619(5)
C6 C 0.0604(2) 0.1899(2) 0.8550(5)
C7 C 0.1578(2) 0.2874(2) 0.5994(5)
C8 C 0.1652(2) 0.2603(2) 0.4795(5)
C9 C 0.1112(2) 0.2258(3) 0.4057(5)
C10 C 0.0878(2) 0.2982(3) 0.4615(6)
C11 C 0.1195(2) 0.3128(3) 0.5692(6)
C12 C 0.1176(3) 0.3525(3) 0.6471(5)
C13 C 0.0839(3) 0.3763(3) 0.6201(6)
C14 C 0.0519(3) 0.3615(3) 0.5127(7)
C15 C 0.0540(3) 0.3230(3) 0.4342(6)
C16 C 0.0649(2) 0.1727(2) 0.4696(5)
C17 C 0.1262(3) 0.2107(2) 0.2819(5)
C18 C 0.2179(2) 0.3357(2) 0.6366(6)
C19? C 0.0000 0.0000 0.343(2)
Cl1? Cl 0.0000 0.0000 0.5000
Cl2? Cl -0.0500(2) 0.0155(2) 0.2975(4)
loop_
_geom_bond_atom_site_label_1
_geom_bond_atom_site_label_2
_geom_bond_site_symmetry_1
_geom_bond_site_symmetry_2
O1 C1 1_555 1_555
O2 C9 1_555 1_555
C1 C2 1_555 1_555
C2 C3 1_555 1_555
C3 C4 1_555 1_555
C4 C5 1_555 1_555
C5 C6 1_555 1_555
C6 C1 1_555 1_555
C7 C4 1_555 1_555
C8 C7 1_555 1_555
C9 C8 1_555 1_555
C10 O2 1_555 1_555
C11 C7 1_555 1_555
C12 C11 1_555 1_555
C13 C12 1_555 1_555
C14 C13 1_555 1_555
C15 C10 1_555 1_555
C16 C9 1_555 1_555
C17 C9 1_555 1_555
C18 C7 1_555 1_555
C10 C11 1_555 1_555
C14 C15 1_555 1_555

#END
