
#######################################################################
#
#                 Cambridge Crystallographic Data Centre
#                                CCDC 
#
#######################################################################
#
# If this CIF has been generated from an entry in the Cambridge 
# Structural Database, then it will include bibliographic, chemical, 
# crystal, experimental, refinement or atomic coordinate data resulting 
# from the CCDC's data processing and validation procedures.
#
#######################################################################

data_SIHNIH
_chemical_compound_source        'Cistanche deserticola'
_chemical_name_common            Salidroside
_chemical_formula_moiety         'C14 H20 O7'
_chemical_name_systematic        
2-((4-Hydroxyphenyl)ethyl)-O-\b-D-glucopyranoside
_chemical_properties_biological  antioxidant
_symmetry_cell_setting           orthorhombic
_symmetry_space_group_name_H-M   'P 21 21 21'
_symmetry_Int_Tables_number      19
_space_group_name_Hall           'P 2ac 2ab'
loop_
_symmetry_equiv_pos_site_id
_symmetry_equiv_pos_as_xyz
1 x,y,z
2 1/2-x,-y,1/2+z
3 -x,1/2+y,1/2-z
4 1/2+x,1/2-y,-z
_cell_length_a                   6.0455(5)
_cell_length_b                   7.7918(7)
_cell_length_c                   30.077(3)
_cell_angle_alpha                90
_cell_angle_beta                 90
_cell_angle_gamma                90
_cell_volume                     1416.79
_exptl_crystal_colour            colorless
_exptl_crystal_description       block
_chemical_melting_point          171-172deg.C
_cell_formula_units_Z            4
_exptl_crystal_recrystallization_method acetone/water
loop_
_atom_site_label
_atom_site_type_symbol
_atom_site_fract_x
_atom_site_fract_y
_atom_site_fract_z
O1 O 0.9268(4) 0.0317(3) 0.86306(6)
O2 O 0.6052(4) 0.1376(3) 0.89076(6)
O3 O 0.9666(4) -0.2044(3) 0.93296(6)
H1 H 0.9025 -0.2831 0.9202
O4 O 1.1918(4) 0.0115(3) 0.60796(6)
H2 H 1.3096 -0.0334 0.6011
O5 O 0.7161(4) -0.1197(3) 1.00932(6)
H3 H 0.6375 -0.1915 1.0215
C1 C 0.8264(5) -0.0591(4) 0.93479(8)
H4 H 0.9140 0.0371 0.9462
C2 C 0.7432(5) -0.0091(4) 0.88846(8)
H5 H 0.6629 -0.1051 0.8750
O6 O 0.4150(4) 0.4255(3) 0.92552(8)
H6 H 0.3581 0.4769 0.9464
C3 C 1.1762(5) 0.0207(4) 0.65349(9)
C4 C 0.6307(5) -0.0833(4) 0.96570(8)
H7 H 0.5424 -0.1811 0.9555
C5 C 0.4883(5) 0.0756(4) 0.96594(8)
H8 H 0.5746 0.1723 0.9775
O7 O 0.2956(4) 0.0528(4) 0.99278(7)
H9 H 0.3315 0.0492 1.0191
C6 C 0.4138(5) 0.1158(4) 0.91836(9)
H10 H 0.3249 0.0202 0.9070
C7 C 0.8921(6) 0.0329(4) 0.81578(8)
H11 H 0.7805 0.1168 0.8078
H12 H 0.8443 -0.0792 0.8055
C8 C 0.9567(6) 0.0968(5) 0.71719(10)
H13 H 0.8240 0.1369 0.7289
C9 C 0.2832(5) 0.2804(4) 0.91439(10)
H14 H 0.2293 0.2924 0.8842
H15 H 0.1562 0.2754 0.9340
C10 C 1.3477(5) -0.0225(5) 0.68154(10)
H16 H 1.4799 -0.0636 0.6699
C11 C 0.9783(6) 0.0798(4) 0.67128(10)
H17 H 0.8609 0.1077 0.6527
C12 C 1.3232(6) -0.0049(5) 0.72728(10)
H18 H 1.4404 -0.0341 0.7458
C13 C 1.1105(7) 0.0791(6) 0.79570(10)
H19 H 1.2241 0.0100 0.8098
H20 H 1.1417 0.1982 0.8026
C14 C 1.1279(6) 0.0554(4) 0.74589(9)
loop_
_geom_bond_atom_site_label_1
_geom_bond_atom_site_label_2
_geom_bond_site_symmetry_1
_geom_bond_site_symmetry_2
O1 C2 1_555 1_555
O2 C2 1_555 1_555
O3 H1 1_555 1_555
O4 H2 1_555 1_555
O5 H3 1_555 1_555
C1 O3 1_555 1_555
H4 C1 1_555 1_555
C2 C1 1_555 1_555
H5 C2 1_555 1_555
O6 H6 1_555 1_555
C3 O4 1_555 1_555
C4 O5 1_555 1_555
H7 C4 1_555 1_555
C5 C4 1_555 1_555
H8 C5 1_555 1_555
O7 C5 1_555 1_555
H9 O7 1_555 1_555
C6 O2 1_555 1_555
H10 C6 1_555 1_555
C7 O1 1_555 1_555
H11 C7 1_555 1_555
H12 C7 1_555 1_555
C8 H13 1_555 1_555
C9 O6 1_555 1_555
H14 C9 1_555 1_555
H15 C9 1_555 1_555
C10 C3 1_555 1_555
H16 C10 1_555 1_555
C11 C3 1_555 1_555
H17 C11 1_555 1_555
C12 C10 1_555 1_555
H18 C12 1_555 1_555
C13 C7 1_555 1_555
H19 C13 1_555 1_555
H20 C13 1_555 1_555
C14 C8 1_555 1_555
C1 C4 1_555 1_555
C5 C6 1_555 1_555
C6 C9 1_555 1_555
C8 C11 1_555 1_555
C12 C14 1_555 1_555
C13 C14 1_555 1_555

#END
