
#######################################################################
#
#                 Cambridge Crystallographic Data Centre
#                                CCDC 
#
#######################################################################
#
# If this CIF has been generated from an entry in the Cambridge 
# Structural Database, then it will include bibliographic, chemical, 
# crystal, experimental, refinement or atomic coordinate data resulting 
# from the CCDC's data processing and validation procedures.
#
#######################################################################

data_SIHQOR
_chemical_name_common            'Pyrazine-2-carboxamide glutaric acid'
_chemical_formula_moiety         'C5 H5 N3 O1,C5 H8 O4'
_chemical_name_systematic        'Pyrazine-2-carboxamide pentanedioic acid'
_symmetry_cell_setting           monoclinic
_symmetry_space_group_name_H-M   'P 21/n'
_symmetry_Int_Tables_number      14
_space_group_name_Hall           '-P 2yn'
loop_
_symmetry_equiv_pos_site_id
_symmetry_equiv_pos_as_xyz
1 x,y,z
2 1/2-x,1/2+y,1/2-z
3 -x,-y,-z
4 1/2+x,1/2-y,1/2+z
_cell_length_a                   11.200(2)
_cell_length_b                   5.0520(10)
_cell_length_c                   22.001(4)
_cell_angle_alpha                90
_cell_angle_beta                 104.07(3)
_cell_angle_gamma                90
_cell_volume                     1207.52
_cell_formula_units_Z            4
loop_
_atom_site_label
_atom_site_type_symbol
_atom_site_fract_x
_atom_site_fract_y
_atom_site_fract_z
O1 O 0.9963(3) 0.3847(7) 0.64800(15)
N1 N 0.9494(4) 0.2777(9) 0.54550(18)
H1 H 1.0060 0.1590 0.5507
H2 H 0.9031 0.3068 0.5088
N2 N 0.7238(4) 0.9692(10) 0.6146(2)
N3 N 0.7732(4) 0.6507(10) 0.5201(2)
C1 C 0.8111(5) 0.7804(11) 0.6270(2)
H3 H 0.8558 0.7549 0.6681
C2 C 0.6641(5) 1.0021(13) 0.5551(3)
H4 H 0.6059 1.1362 0.5442
C3 C 0.6881(5) 0.8370(13) 0.5087(3)
H5 H 0.6420 0.8592 0.4677
C4 C 0.8362(4) 0.6221(11) 0.5798(2)
C5 C 0.9335(4) 0.4154(11) 0.5940(2)
O2 O 0.3448(3) 0.7005(8) 0.30029(17)
H6 H 0.3234 0.7991 0.3271
O3 O 0.4728(4) 0.5361(10) 0.38587(17)
O4 O 0.8650(3) 0.1264(9) 0.41606(16)
O5 O 0.8307(3) -0.0206(9) 0.31794(16)
H7 H 0.8877 -0.1272 0.3350
C6 C 0.4335(5) 0.5380(12) 0.3312(3)
C7 C 0.4759(4) 0.3565(12) 0.2860(2)
H8 H 0.4069 0.2472 0.2651
H9 H 0.4990 0.4644 0.2542
C8 C 0.5828(4) 0.1770(11) 0.3146(2)
H10 H 0.5926 0.0479 0.2835
H11 H 0.5638 0.0814 0.3493
C9 C 0.7050(4) 0.3256(12) 0.3383(2)
H12 H 0.7225 0.4299 0.3045
H13 H 0.6981 0.4455 0.3717
C10 C 0.8081(4) 0.1340(11) 0.3620(2)
loop_
_geom_bond_atom_site_label_1
_geom_bond_atom_site_label_2
_geom_bond_site_symmetry_1
_geom_bond_site_symmetry_2
O1 C5 1_555 1_555
N1 H1 1_555 1_555
H2 N1 1_555 1_555
N2 C1 1_555 1_555
N3 C3 1_555 1_555
C1 H3 1_555 1_555
C2 N2 1_555 1_555
H4 C2 1_555 1_555
C3 C2 1_555 1_555
H5 C3 1_555 1_555
C4 N3 1_555 1_555
C5 N1 1_555 1_555
O2 H6 1_555 1_555
O3 C6 1_555 1_555
O4 C10 1_555 1_555
O5 H7 1_555 1_555
C6 O2 1_555 1_555
C7 C6 1_555 1_555
H8 C7 1_555 1_555
H9 C7 1_555 1_555
C8 C7 1_555 1_555
H10 C8 1_555 1_555
H11 C8 1_555 1_555
C9 C8 1_555 1_555
H12 C9 1_555 1_555
H13 C9 1_555 1_555
C10 O5 1_555 1_555
C1 C4 1_555 1_555
C4 C5 1_555 1_555
C9 C10 1_555 1_555

#END
