
#######################################################################
#
#                 Cambridge Crystallographic Data Centre
#                                CCDC 
#
#######################################################################
#
# If this CIF has been generated from an entry in the Cambridge 
# Structural Database, then it will include bibliographic, chemical, 
# crystal, experimental, refinement or atomic coordinate data resulting 
# from the CCDC's data processing and validation procedures.
#
#######################################################################

data_SIHRAE
_chemical_formula_moiety         'C5 H5 N3 O1,C3 H4 O4'
_chemical_name_systematic        'Pyrazine-2-carboxamide malonic acid'
_symmetry_cell_setting           monoclinic
_symmetry_space_group_name_H-M   'C 2/c'
_symmetry_Int_Tables_number      15
_space_group_name_Hall           '-C 2yn'
loop_
_symmetry_equiv_pos_site_id
_symmetry_equiv_pos_as_xyz
1 x,y,z
2 -x,y,1/2-z
3 1/2+x,1/2+y,z
4 1/2-x,1/2+y,1/2-z
5 -x,-y,-z
6 x,-y,1/2+z
7 1/2-x,1/2-y,-z
8 1/2+x,1/2-y,1/2+z
_cell_length_a                   10.947(2)
_cell_length_b                   8.3650(17)
_cell_length_c                   22.229(4)
_cell_angle_alpha                90
_cell_angle_beta                 91.05(3)
_cell_angle_gamma                90
_cell_volume                     2035.2
_cell_formula_units_Z            8
loop_
_atom_site_label
_atom_site_type_symbol
_atom_site_fract_x
_atom_site_fract_y
_atom_site_fract_z
O1 O -0.1460(2) 0.4209(3) 0.45482(11)
N1 N 0.1004(3) 0.1675(4) 0.49547(14)
C1 C 0.1449(3) 0.0896(5) 0.54243(18)
H1 H 0.2168 0.0316 0.5387
C2 C 0.0865(3) 0.0922(5) 0.59736(18)
H2 H 0.1195 0.0342 0.6295
N2 N -0.0146(3) 0.1751(4) 0.60513(14)
C3 C -0.0598(3) 0.2544(5) 0.55779(16)
H3 H -0.1313 0.3134 0.5617
C4 C -0.0022(3) 0.2503(4) 0.50281(17)
N3 N 0.0121(3) 0.3299(4) 0.40057(14)
H4 H -0.0108 0.3810 0.3687
H5 H 0.0769 0.2718 0.4001
C5 C -0.0523(4) 0.3407(5) 0.45014(17)
O2 O 0.2768(3) 0.1052(4) 0.17256(14)
O3 O 0.3729(2) 0.3118(3) 0.21276(11)
H6 H 0.4158 0.3256 0.1817
O4 O 0.3830(3) 0.0136(4) 0.30791(12)
O5 O 0.2410(2) 0.0989(3) 0.37092(10)
H7 H 0.2789 0.0426 0.3951
C6 C 0.2935(4) 0.1959(5) 0.21347(18)
C7 C 0.2255(3) 0.1890(5) 0.27215(16)
H8 H 0.2146 0.2965 0.2875
H9 H 0.1452 0.1429 0.2650
C8 C 0.2935(4) 0.0911(5) 0.31779(16)
loop_
_geom_bond_atom_site_label_1
_geom_bond_atom_site_label_2
_geom_bond_site_symmetry_1
_geom_bond_site_symmetry_2
O1 C5 1_555 1_555
N1 C1 1_555 1_555
C1 H1 1_555 1_555
C2 C1 1_555 1_555
H2 C2 1_555 1_555
N2 C2 1_555 1_555
C3 N2 1_555 1_555
H3 C3 1_555 1_555
C4 N1 1_555 1_555
N3 H4 1_555 1_555
H5 N3 1_555 1_555
C5 C4 1_555 1_555
O2 C6 1_555 1_555
O3 H6 1_555 1_555
O4 C8 1_555 1_555
O5 H7 1_555 1_555
C6 O3 1_555 1_555
C7 C6 1_555 1_555
H8 C7 1_555 1_555
H9 C7 1_555 1_555
C8 O5 1_555 1_555
C3 C4 1_555 1_555
N3 C5 1_555 1_555
C7 C8 1_555 1_555

#END
