
#######################################################################
#
#                 Cambridge Crystallographic Data Centre
#                                CCDC 
#
#######################################################################
#
# If this CIF has been generated from an entry in the Cambridge 
# Structural Database, then it will include bibliographic, chemical, 
# crystal, experimental, refinement or atomic coordinate data resulting 
# from the CCDC's data processing and validation procedures.
#
#######################################################################

data_SIHXAL
_chemical_formula_moiety         'C17 H19 N1'
_chemical_name_systematic        9-pentyl-9H-carbazole
_symmetry_cell_setting           orthorhombic
_symmetry_space_group_name_H-M   'P b c a'
_symmetry_Int_Tables_number      61
_space_group_name_Hall           '-P 2ac 2ab'
loop_
_symmetry_equiv_pos_site_id
_symmetry_equiv_pos_as_xyz
1 x,y,z
2 1/2-x,-y,1/2+z
3 1/2+x,1/2-y,-z
4 -x,1/2+y,1/2-z
5 -x,-y,-z
6 1/2+x,y,1/2-z
7 1/2-x,1/2+y,z
8 x,1/2-y,1/2+z
_cell_length_a                   15.959(2)
_cell_length_b                   7.5700(10)
_cell_length_c                   22.1950(10)
_cell_angle_alpha                90
_cell_angle_beta                 90
_cell_angle_gamma                90
_cell_volume                     2681.37
_exptl_crystal_colour            colorless
_exptl_crystal_description       rod
_cell_formula_units_Z            8
loop_
_atom_site_label
_atom_site_type_symbol
_atom_site_fract_x
_atom_site_fract_y
_atom_site_fract_z
N1 N 0.07010(11) 0.5428(3) 0.13287(8)
C1 C 0.10348(14) 0.6354(3) 0.18064(9)
C2 C 0.18030(14) 0.6133(3) 0.20856(10)
H1 H 0.2185 0.5249 0.1956
C3 C 0.19940(15) 0.7239(4) 0.25574(11)
H2 H 0.2520 0.7127 0.2754
C4 C 0.14308(16) 0.8517(4) 0.27520(11)
H3 H 0.1573 0.9252 0.3084
C5 C 0.06743(16) 0.8730(4) 0.24721(11)
H4 H 0.0295 0.9616 0.2605
C6 C 0.04684(14) 0.7652(3) 0.19971(10)
C7 C -0.02468(15) 0.7501(3) 0.16072(10)
C8 C -0.00812(14) 0.6119(3) 0.12048(10)
C9 C -0.06541(16) 0.5602(4) 0.07717(11)
H5 H -0.0543 0.4645 0.0507
C10 C -0.13945(17) 0.6540(5) 0.07416(12)
H6 H -0.1800 0.6226 0.0447
C11 C -0.15593(18) 0.7916(5) 0.11268(13)
H7 H -0.2076 0.8531 0.1093
C12 C -0.09954(16) 0.8424(4) 0.15597(12)
H8 H -0.1115 0.9385 0.1821
C13 C 0.10986(15) 0.3953(3) 0.10225(10)
H9 H 0.1702 0.4216 0.0972
H10 H 0.0851 0.3834 0.0616
C14 C 0.10073(16) 0.2215(3) 0.13518(10)
H11 H 0.0405 0.1951 0.1409
H12 H 0.1269 0.2312 0.1755
C15 C 0.14172(15) 0.0709(4) 0.10054(11)
H13 H 0.1978 0.1094 0.0868
H14 H 0.1496 -0.0306 0.1281
C16 C 0.09176(15) 0.0110(4) 0.04670(11)
H15 H 0.0831 0.1125 0.0192
H16 H 0.0360 -0.0302 0.0603
C17 C 0.13512(17) -0.1374(4) 0.01246(13)
H17 H 0.1007 -0.1718 -0.0222
H18 H 0.1425 -0.2392 0.0392
H19 H 0.1900 -0.0966 -0.0017
loop_
_geom_bond_atom_site_label_1
_geom_bond_atom_site_label_2
_geom_bond_site_symmetry_1
_geom_bond_site_symmetry_2
N1 C1 1_555 1_555
C1 C2 1_555 1_555
C2 H1 1_555 1_555
C3 C2 1_555 1_555
H2 C3 1_555 1_555
C4 C3 1_555 1_555
H3 C4 1_555 1_555
C5 C4 1_555 1_555
H4 C5 1_555 1_555
C6 C1 1_555 1_555
C7 C6 1_555 1_555
C8 N1 1_555 1_555
C9 C8 1_555 1_555
H5 C9 1_555 1_555
C10 C9 1_555 1_555
H6 C10 1_555 1_555
C11 C10 1_555 1_555
H7 C11 1_555 1_555
C12 C7 1_555 1_555
H8 C12 1_555 1_555
C13 N1 1_555 1_555
H9 C13 1_555 1_555
H10 C13 1_555 1_555
C14 C13 1_555 1_555
H11 C14 1_555 1_555
H12 C14 1_555 1_555
C15 C14 1_555 1_555
H13 C15 1_555 1_555
H14 C15 1_555 1_555
C16 C15 1_555 1_555
H15 C16 1_555 1_555
H16 C16 1_555 1_555
C17 C16 1_555 1_555
H17 C17 1_555 1_555
H18 C17 1_555 1_555
H19 C17 1_555 1_555
C5 C6 1_555 1_555
C7 C8 1_555 1_555
C11 C12 1_555 1_555

#END
