
#######################################################################
#
#                 Cambridge Crystallographic Data Centre
#                                CCDC 
#
#######################################################################
#
# If this CIF has been generated from an entry in the Cambridge 
# Structural Database, then it will include bibliographic, chemical, 
# crystal, experimental, refinement or atomic coordinate data resulting 
# from the CCDC's data processing and validation procedures.
#
#######################################################################

data_SIJPOR
_chemical_name_common            
'7-(2-carboxyethyl)-1,3,5-triaza-7-phospha-adamantane dihydrate'
_chemical_formula_moiety         'C9 H16 N3 O2 P1,2(H2 O1)'
_chemical_name_systematic        
'7-(2-carboxyethyl)-1,3,5-triaza-7-phosphoniatricyclo[3.3.1.1^3,7^]decane dihydrate'
_symmetry_cell_setting           monoclinic
_symmetry_space_group_name_H-M   'P 21/n'
_symmetry_Int_Tables_number      14
_space_group_name_Hall           '-P 2yn'
loop_
_symmetry_equiv_pos_site_id
_symmetry_equiv_pos_as_xyz
1 x,y,z
2 1/2-x,1/2+y,1/2-z
3 -x,-y,-z
4 1/2+x,1/2-y,1/2+z
_cell_length_a                   10.0252(18)
_cell_length_b                   10.1874(17)
_cell_length_c                   12.842(2)
_cell_angle_alpha                90
_cell_angle_beta                 112.001(3)
_cell_angle_gamma                90
_cell_volume                     1216.05
_cell_formula_units_Z            4
_exptl_crystal_recrystallization_method THF/methanol
loop_
_atom_site_label
_atom_site_type_symbol
_atom_site_fract_x
_atom_site_fract_y
_atom_site_fract_z
P1 P 0.94716(5) 0.71267(4) 0.19370(4)
O1 O 0.99914(18) 0.91954(14) 0.32966(12)
O2 O 1.06791(18) 1.12218(15) 0.30866(13)
N1 N 0.90166(16) 0.51850(14) 0.31836(13)
N2 N 1.14668(16) 0.54140(15) 0.31887(13)
N3 N 0.95243(17) 0.45023(15) 0.15220(14)
C1 C 0.8897(2) 0.85961(18) 0.10991(16)
H1 H 0.8823 0.8395 0.0341
H2 H 0.7939 0.8817 0.1062
C2 C 0.9841(2) 0.98027(18) 0.14940(16)
H3 H 1.0727 0.9668 0.1369
H4 H 0.9352 1.0551 0.1047
C3 C 1.0202(2) 1.01095(18) 0.27232(17)
C4 C 0.85191(19) 0.65262(17) 0.28133(16)
H5 H 0.8715 0.7094 0.3460
H6 H 0.7490 0.6525 0.2387
C5 C 1.13549(19) 0.67916(18) 0.28114(16)
H7 H 1.1958 0.6935 0.2382
H8 H 1.1673 0.7375 0.3455
C6 C 0.9113(2) 0.57715(17) 0.09406(16)
H9 H 0.8097 0.5758 0.0472
H10 H 0.9649 0.5906 0.0457
C7 C 0.8699(2) 0.42683(18) 0.22462(17)
H11 H 0.7680 0.4321 0.1788
H12 H 0.8894 0.3384 0.2544
C8 C 1.1066(2) 0.44913(19) 0.22471(17)
H13 H 1.1328 0.3612 0.2543
H14 H 1.1621 0.4695 0.1791
C9 C 1.0572(2) 0.51572(19) 0.38494(16)
H15 H 1.0792 0.5808 0.4441
H16 H 1.0824 0.4303 0.4203
O3 O 0.5655(2) 0.68894(17) 0.03803(14)
H17 H 0.547(3) 0.643(2) -0.0219(13)
H18 H 0.513(3) 0.669(3) 0.0754(18)
O4 O 0.1777(2) 0.73904(17) 0.03100(16)
H19 H 0.255(2) 0.701(3) 0.075(2)
H20 H 0.131(3) 0.694(2) -0.0278(15)
loop_
_geom_bond_atom_site_label_1
_geom_bond_atom_site_label_2
_geom_bond_site_symmetry_1
_geom_bond_site_symmetry_2
P1 C1 1_555 1_555
O1 C3 1_555 1_555
O2 C3 1_555 1_555
O3 H17 1_555 1_555
O4 H19 1_555 1_555
N1 C4 1_555 1_555
N2 C5 1_555 1_555
N3 C6 1_555 1_555
C1 H1 1_555 1_555
H2 C1 1_555 1_555
C2 C1 1_555 1_555
H3 C2 1_555 1_555
H4 C2 1_555 1_555
C3 C2 1_555 1_555
C4 P1 1_555 1_555
H5 C4 1_555 1_555
H6 C4 1_555 1_555
C5 P1 1_555 1_555
H7 C5 1_555 1_555
H8 C5 1_555 1_555
C6 P1 1_555 1_555
H9 C6 1_555 1_555
H10 C6 1_555 1_555
C7 N1 1_555 1_555
H11 C7 1_555 1_555
H12 C7 1_555 1_555
C8 N2 1_555 1_555
H13 C8 1_555 1_555
H14 C8 1_555 1_555
C9 N1 1_555 1_555
H15 C9 1_555 1_555
H16 C9 1_555 1_555
H18 O3 1_555 1_555
H20 O4 1_555 1_555
N2 C9 1_555 1_555
N3 C7 1_555 1_555
N3 C8 1_555 1_555

#END
