
#######################################################################
#
#                 Cambridge Crystallographic Data Centre
#                                CCDC 
#
#######################################################################
#
# If this CIF has been generated from an entry in the Cambridge 
# Structural Database, then it will include bibliographic, chemical, 
# crystal, experimental, refinement or atomic coordinate data resulting 
# from the CCDC's data processing and validation procedures.
#
#######################################################################

data_SIJWOZ
_chemical_formula_moiety         'C25 H19 N3 O4 S1'
_chemical_name_systematic        
3'-(2-Furoyl)-1,1''-dimethyl-5'-thioxodispiro[indole-3,2'-pyrrolidine-4',3''-indole]-2,2''(1H,1''H)-dione
_symmetry_cell_setting           orthorhombic
_symmetry_space_group_name_H-M   'P 21 21 21'
_symmetry_Int_Tables_number      19
_space_group_name_Hall           'P 2ac 2ab'
loop_
_symmetry_equiv_pos_site_id
_symmetry_equiv_pos_as_xyz
1 x,y,z
2 1/2-x,-y,1/2+z
3 -x,1/2+y,1/2-z
4 1/2+x,1/2-y,-z
_cell_length_a                   9.2712(17)
_cell_length_b                   10.829(2)
_cell_length_c                   22.000(4)
_cell_angle_alpha                90
_cell_angle_beta                 90
_cell_angle_gamma                90
_cell_volume                     2208.75
_exptl_crystal_colour            colorless
_exptl_crystal_description       Prism
_cell_formula_units_Z            4
_exptl_crystal_recrystallization_method dichloromethane/methanol
loop_
_atom_site_label
_atom_site_type_symbol
_atom_site_fract_x
_atom_site_fract_y
_atom_site_fract_z
S1 S 0.68700(5) 0.53271(5) 0.19101(2)
O1 O 0.78602(17) 0.62705(16) 0.52253(7)
O2 O 0.85364(15) 0.46347(14) 0.43474(6)
O3 O 0.49153(12) 0.71145(12) 0.30594(7)
O4 O 0.34889(15) 0.39834(14) 0.35740(7)
N1 N 0.72187(14) 0.79118(13) 0.30315(7)
N2 N 0.62080(16) 0.38409(14) 0.28464(7)
N3 N 0.46384(17) 0.24657(16) 0.41212(7)
C1 C 0.7278(3) 0.7190(3) 0.55644(12)
H1 H 0.7656 0.7464 0.5942
C2 C 0.6101(3) 0.7660(3) 0.52979(12)
H2 H 0.5515 0.8315 0.5445
C3 C 0.5907(3) 0.6980(2) 0.47500(12)
H3 H 0.5160 0.7093 0.4460
C4 C 0.6981(2) 0.6148(2) 0.47212(9)
C5 C 0.7418(2) 0.52151(18) 0.42859(8)
C6 C 0.6449(2) 0.50693(17) 0.37291(8)
H4 H 0.5499 0.5453 0.3832
C7 C 0.70468(17) 0.57662(16) 0.31618(8)
C8 C 0.86100(18) 0.61763(16) 0.31490(8)
C9 C 0.98805(18) 0.55261(18) 0.31942(8)
H5 H 0.9874 0.4658 0.3258
C10 C 1.11777(19) 0.61681(19) 0.31444(9)
H6 H 1.2065 0.5735 0.3177
C11 C 1.11868(19) 0.74320(19) 0.30474(9)
H7 H 1.2083 0.7849 0.3009
C12 C 0.98970(18) 0.81112(18) 0.30047(8)
H8 H 0.9897 0.8979 0.2943
C13 C 0.86320(18) 0.74496(16) 0.30579(8)
C14 C 0.62384(19) 0.70037(16) 0.30761(9)
C15 C 0.6846(2) 0.92146(16) 0.29576(9)
H9 H 0.6813 0.9419 0.2524
H10 H 0.7574 0.9727 0.3159
H11 H 0.5900 0.9372 0.3141
C16 C 0.66811(18) 0.49237(17) 0.26294(8)
C17 C 0.61311(19) 0.37099(17) 0.35044(9)
C18 C 0.6960(2) 0.26266(17) 0.37653(9)
C19 C 0.8366(2) 0.22408(19) 0.36889(10)
H12 H 0.9002 0.2668 0.3423
C20 C 0.8834(3) 0.1194(2) 0.40164(11)
H13 H 0.9798 0.0910 0.3972
C21 C 0.7894(3) 0.0575(2) 0.44034(11)
H14 H 0.8234 -0.0119 0.4625
C22 C 0.6468(3) 0.0948(2) 0.44730(10)
H15 H 0.5824 0.0521 0.4735
C23 C 0.6031(2) 0.19663(18) 0.41448(9)
C24 C 0.4556(2) 0.34162(18) 0.37217(9)
C25 C 0.3378(2) 0.1977(2) 0.44360(9)
H16 H 0.2510 0.2401 0.4291
H17 H 0.3485 0.2110 0.4874
H18 H 0.3293 0.1090 0.4354
H19 H 0.587(2) 0.3254(16) 0.2594(8)
loop_
_geom_bond_atom_site_label_1
_geom_bond_atom_site_label_2
_geom_bond_site_symmetry_1
_geom_bond_site_symmetry_2
S1 C16 1_555 1_555
O1 C1 1_555 1_555
O2 C5 1_555 1_555
O3 C14 1_555 1_555
O4 C24 1_555 1_555
N1 C13 1_555 1_555
N2 C16 1_555 1_555
N3 C23 1_555 1_555
C1 H1 1_555 1_555
C2 C1 1_555 1_555
H2 C2 1_555 1_555
C3 C2 1_555 1_555
H3 C3 1_555 1_555
C4 O1 1_555 1_555
C5 C4 1_555 1_555
C6 C5 1_555 1_555
H4 C6 1_555 1_555
C7 C6 1_555 1_555
C8 C7 1_555 1_555
C9 C8 1_555 1_555
H5 C9 1_555 1_555
C10 C9 1_555 1_555
H6 C10 1_555 1_555
C11 C10 1_555 1_555
H7 C11 1_555 1_555
C12 C11 1_555 1_555
H8 C12 1_555 1_555
C13 C8 1_555 1_555
C14 N1 1_555 1_555
C15 N1 1_555 1_555
H9 C15 1_555 1_555
H10 C15 1_555 1_555
H11 C15 1_555 1_555
C16 C7 1_555 1_555
C17 N2 1_555 1_555
C18 C17 1_555 1_555
C19 C18 1_555 1_555
H12 C19 1_555 1_555
C20 C19 1_555 1_555
H13 C20 1_555 1_555
C21 C20 1_555 1_555
H14 C21 1_555 1_555
C22 C21 1_555 1_555
H15 C22 1_555 1_555
C23 C18 1_555 1_555
C24 N3 1_555 1_555
C25 N3 1_555 1_555
H16 C25 1_555 1_555
H17 C25 1_555 1_555
H18 C25 1_555 1_555
H19 N2 1_555 1_555
C3 C4 1_555 1_555
C6 C17 1_555 1_555
C7 C14 1_555 1_555
C12 C13 1_555 1_555
C17 C24 1_555 1_555
C22 C23 1_555 1_555

#END
