
#######################################################################
#
#                 Cambridge Crystallographic Data Centre
#                                CCDC 
#
#######################################################################
#
# If this CIF has been generated from an entry in the Cambridge 
# Structural Database, then it will include bibliographic, chemical, 
# crystal, experimental, refinement or atomic coordinate data resulting 
# from the CCDC's data processing and validation procedures.
#
#######################################################################

data_SIJXAK
_chemical_formula_moiety         'C22 H34 B2 N4'
_chemical_name_systematic        
Dipyrazolo-(a,d)-3,6-dihydro-3,6-dibora-1,2,4,5-tetrazine-3-spiro-9'-(9'-borabicyclo(3.3.1)nonane)-6-spiro-9''-(9''-borabicyclo(3.3.1)nonane)
_symmetry_cell_setting           triclinic
_symmetry_space_group_name_H-M   'P -1'
_symmetry_Int_Tables_number      2
_space_group_name_Hall           '-P 1'
loop_
_symmetry_equiv_pos_site_id
_symmetry_equiv_pos_as_xyz
1 x,y,z
2 -x,-y,-z
_cell_length_a                   10.088(2)
_cell_length_b                   10.299(2)
_cell_length_c                   10.621(3)
_cell_angle_alpha                104.35(2)
_cell_angle_beta                 112.34(2)
_cell_angle_gamma                90.76(2)
_cell_volume                     981.678
_chemical_melting_point          256-257deg.C(dec.)
_cell_formula_units_Z            2
loop_
_atom_site_label
_atom_site_type_symbol
_atom_site_fract_x
_atom_site_fract_y
_atom_site_fract_z
B1 B 0.35879(19) 0.70629(18) 1.10375(20)
B2 B 0.14553(19) 0.71991(17) 0.80768(19)
N1 N 0.14753(13) 0.58793(13) 0.86359(13)
N2 N 0.24393(13) 0.58155(13) 0.99334(14)
N3 N 0.40620(13) 0.75996(13) 0.99315(14)
N4 N 0.31444(14) 0.75353(12) 0.85775(14)
C1 C 0.08143(18) 0.46276(16) 0.79108(18)
H1 H 0.0165(20) 0.4456(17) 0.7027(20)
C2 C 0.12901(18) 0.37475(16) 0.87220(18)
H2 H 0.0954(18) 0.2801(19) 0.8532(17)
C3 C 0.23067(18) 0.45283(16) 0.99709(19)
H3 H 0.2856(24) 0.4256(21) 1.0798(23)
C4 C 0.54096(17) 0.78077(16) 1.00040(18)
H4 H 0.6160(19) 0.7885(17) 1.0823(20)
C5 C 0.53870(18) 0.78882(17) 0.87312(18)
H5 H 0.6193(21) 0.8008(17) 0.8507(18)
C6 C 0.39518(18) 0.76897(15) 0.78623(18)
H6 H 0.3482(19) 0.7621(18) 0.6847(22)
C7 C 0.28897(17) 0.80524(16) 1.19920(17)
H7 H 0.20001(17) 0.83295(16) 1.14381(17)
C8 C 0.25524(18) 0.72592(18) 1.29162(18)
H8 H 0.18791(18) 0.64856(18) 1.22822(18)
H9 H 0.21090(18) 0.78295(18) 1.34659(18)
C9 C 0.38778(19) 0.68283(18) 1.39489(18)
H10 H 0.36362(19) 0.62395(18) 1.44231(18)
H11 H 0.45111(19) 0.76028(18) 1.46378(18)
C10 C 0.47200(18) 0.59889(17) 1.31841(18)
H12 H 0.56440(18) 0.59051(17) 1.38671(18)
H13 H 0.41878(18) 0.51095(17) 1.26888(18)
C11 C 0.50402(17) 0.66752(16) 1.21786(17)
H14 H 0.55535(17) 0.60918(16) 1.17200(17)
C12 C 0.60821(18) 0.79964(18) 1.31367(18)
H15 H 0.69254(18) 0.80027(18) 1.29237(18)
H16 H 0.63636(18) 0.80484(18) 1.41205(18)
C13 C 0.54695(18) 0.93348(16) 1.30167(17)
H17 H 0.60781(18) 1.00219(16) 1.38457(17)
H18 H 0.54981(18) 0.95345(16) 1.21905(17)
C14 C 0.39115(19) 0.93696(17) 1.29158(17)
H19 H 0.39850(19) 0.96336(17) 1.38748(17)
H20 H 0.35790(19) 1.00819(17) 1.24802(17)
C15 C 0.07688(17) 0.84608(16) 0.87484(17)
H21 H 0.12926(17) 0.87660(16) 0.97556(17)
C16 C 0.09566(19) 0.96639(17) 0.81906(18)
H22 H 0.19736(19) 0.99235(17) 0.85120(18)
H23 H 0.05196(19) 1.04101(17) 0.85490(18)
C17 C 0.03561(19) 0.94132(17) 0.65882(18)
H24 H -0.06636(19) 0.94620(17) 0.62826(18)
H25 H 0.07847(19) 1.00835(17) 0.63247(18)
C18 C 0.06532(18) 0.80637(16) 0.58022(17)
H26 H -0.00289(18) 0.78911(16) 0.48400(17)
H27 H 0.16133(18) 0.82055(16) 0.58439(17)
C19 C 0.05210(17) 0.68562(16) 0.63918(17)
H28 H 0.08508(17) 0.61269(16) 0.58710(17)
C20 C -0.11042(17) 0.64740(16) 0.60253(17)
H29 H -0.12617(17) 0.55984(16) 0.61433(17)
H30 H -0.15903(17) 0.64502(16) 0.50463(17)
C21 C -0.17814(18) 0.74540(19) 0.68919(19)
H31 H -0.26490(18) 0.69723(19) 0.68006(19)
H32 H -0.20214(18) 0.81916(19) 0.64752(19)
C22 C -0.08130(17) 0.80066(18) 0.84475(17)
H33 H -0.12630(17) 0.87413(18) 0.88062(17)
H34 H -0.07790(17) 0.73211(18) 0.89249(17)
loop_
_geom_bond_atom_site_label_1
_geom_bond_atom_site_label_2
_geom_bond_site_symmetry_1
_geom_bond_site_symmetry_2
B1 N2 1_555 1_555
B2 N1 1_555 1_555
N1 N2 1_555 1_555
N2 C3 1_555 1_555
N3 B1 1_555 1_555
N4 B2 1_555 1_555
C1 N1 1_555 1_555
H1 C1 1_555 1_555
C2 C1 1_555 1_555
H2 C2 1_555 1_555
C3 C2 1_555 1_555
H3 C3 1_555 1_555
C4 N3 1_555 1_555
H4 C4 1_555 1_555
C5 C4 1_555 1_555
H5 C5 1_555 1_555
C6 N4 1_555 1_555
H6 C6 1_555 1_555
C7 B1 1_555 1_555
H7 C7 1_555 1_555
C8 C7 1_555 1_555
H8 C8 1_555 1_555
H9 C8 1_555 1_555
C9 C8 1_555 1_555
H10 C9 1_555 1_555
H11 C9 1_555 1_555
C10 C9 1_555 1_555
H12 C10 1_555 1_555
H13 C10 1_555 1_555
C11 B1 1_555 1_555
H14 C11 1_555 1_555
C12 C11 1_555 1_555
H15 C12 1_555 1_555
H16 C12 1_555 1_555
C13 C12 1_555 1_555
H17 C13 1_555 1_555
H18 C13 1_555 1_555
C14 C7 1_555 1_555
H19 C14 1_555 1_555
H20 C14 1_555 1_555
C15 B2 1_555 1_555
H21 C15 1_555 1_555
C16 C15 1_555 1_555
H22 C16 1_555 1_555
H23 C16 1_555 1_555
C17 C16 1_555 1_555
H24 C17 1_555 1_555
H25 C17 1_555 1_555
C18 C17 1_555 1_555
H26 C18 1_555 1_555
H27 C18 1_555 1_555
C19 B2 1_555 1_555
H28 C19 1_555 1_555
C20 C19 1_555 1_555
H29 C20 1_555 1_555
H30 C20 1_555 1_555
C21 C20 1_555 1_555
H31 C21 1_555 1_555
H32 C21 1_555 1_555
C22 C15 1_555 1_555
H33 C22 1_555 1_555
H34 C22 1_555 1_555
N3 N4 1_555 1_555
C5 C6 1_555 1_555
C10 C11 1_555 1_555
C13 C14 1_555 1_555
C18 C19 1_555 1_555
C21 C22 1_555 1_555

#END
