
#######################################################################
#
#                 Cambridge Crystallographic Data Centre
#                                CCDC 
#
#######################################################################
#
# If this CIF has been generated from an entry in the Cambridge 
# Structural Database, then it will include bibliographic, chemical, 
# crystal, experimental, refinement or atomic coordinate data resulting 
# from the CCDC's data processing and validation procedures.
#
#######################################################################

data_SIJXEO
_chemical_formula_moiety         'C31 H45 B1 N2'
_chemical_name_systematic        
9-(3,5-Diadamantylpyrazolyl)-9-borabicylo(3.3.1)nonane
_symmetry_cell_setting           triclinic
_symmetry_space_group_name_H-M   'P -1'
_symmetry_Int_Tables_number      2
_space_group_name_Hall           '-P 1'
loop_
_symmetry_equiv_pos_site_id
_symmetry_equiv_pos_as_xyz
1 x,y,z
2 -x,-y,-z
_cell_length_a                   6.456(1)
_cell_length_b                   10.916(1)
_cell_length_c                   18.426(2)
_cell_angle_alpha                78.73(1)
_cell_angle_beta                 90.08(1)
_cell_angle_gamma                85.69(1)
_cell_volume                     1269.74
_chemical_melting_point          184-185deg.C(dec.)
_cell_formula_units_Z            2
loop_
_atom_site_label
_atom_site_type_symbol
_atom_site_fract_x
_atom_site_fract_y
_atom_site_fract_z
N1 N 0.12724(18) 0.36435(11) 0.26339(7)
N2 N 0.05287(19) 0.28103(11) 0.22208(7)
B1 B 0.25864(26) 0.30212(16) 0.32641(9)
C1 C -0.06152(22) 0.34922(13) 0.16789(8)
C2 C -0.06941(23) 0.47811(13) 0.17201(8)
H1 H -0.13907(23) 0.54574(13) 0.13727(8)
C3 C 0.04863(22) 0.48696(13) 0.23166(8)
C4 C 0.26227(24) 0.15558(14) 0.35277(8)
H2 H 0.15296(24) 0.12545(14) 0.32725(8)
C5 C 0.47469(26) 0.09950(14) 0.33075(9)
H3 H 0.46952(26) 0.10971(14) 0.27782(9)
H4 H 0.48950(26) 0.01187(14) 0.35255(9)
C6 C 0.66488(24) 0.16062(15) 0.35324(9)
H5 H 0.77790(24) 0.14156(15) 0.32247(9)
H6 H 0.69995(24) 0.12555(15) 0.40408(9)
C7 C 0.63641(24) 0.30346(15) 0.34498(9)
H7 H 0.74696(24) 0.32660(15) 0.37323(9)
H8 H 0.64768(24) 0.34271(15) 0.29392(9)
C8 C 0.42479(24) 0.35731(14) 0.37118(8)
H9 H 0.41266(24) 0.44712(14) 0.35802(8)
C9 C 0.39395(28) 0.31914(16) 0.45556(9)
H10 H 0.27164(28) 0.36650(16) 0.46740(9)
H11 H 0.51313(28) 0.34353(16) 0.47885(9)
C10 C 0.36760(28) 0.17974(16) 0.48445(9)
H12 H 0.31113(28) 0.17221(16) 0.53315(9)
H13 H 0.49952(28) 0.13209(16) 0.48714(9)
C11 C 0.21914(26) 0.12601(16) 0.43669(9)
H14 H 0.22379(26) 0.03675(16) 0.45295(9)
H15 H 0.08231(26) 0.16213(16) 0.44387(9)
C12 C -0.17715(22) 0.28990(13) 0.11408(8)
C13 C -0.41257(24) 0.30914(15) 0.12628(9)
H16 H -0.45448(24) 0.39699(15) 0.11905(9)
H17 H -0.43950(24) 0.26978(15) 0.17631(9)
C14 C -0.53394(24) 0.24896(15) 0.07259(9)
H18 H -0.68013(24) 0.26044(15) 0.08114(9)
C15 C -0.46984(27) 0.10844(15) 0.08525(9)
H19 H -0.54302(27) 0.07162(15) 0.05055(9)
H20 H -0.50292(27) 0.06938(15) 0.13475(9)
C16 C -0.23721(25) 0.08891(14) 0.07209(9)
H21 H -0.19760(25) 0.00063(14) 0.08160(9)
C17 C -0.11616(25) 0.14806(14) 0.12634(9)
H22 H -0.15003(25) 0.11154(14) 0.17621(9)
H23 H 0.03075(25) 0.13513(14) 0.11967(9)
C18 C -0.13278(24) 0.35065(14) 0.03347(8)
H24 H 0.01349(24) 0.33865(14) 0.02522(8)
H25 H -0.17359(24) 0.43868(14) 0.02581(8)
C19 C -0.25312(25) 0.29029(14) -0.02041(9)
H26 H -0.22060(25) 0.32698(14) -0.07039(9)
C20 C -0.18696(26) 0.14988(15) -0.00735(9)
H27 H -0.04017(26) 0.14152(15) -0.01548(9)
H28 H -0.25846(26) 0.11095(15) -0.04145(9)
C21 C -0.48636(26) 0.30858(16) -0.00732(10)
H29 H -0.52678(26) 0.39675(16) -0.01641(10)
H30 H -0.56045(26) 0.26990(16) -0.04091(10)
C22 C 0.07634(23) 0.60539(13) 0.26111(8)
C23 C -0.08084(23) 0.71130(14) 0.22077(8)
H31 H -0.21968(23) 0.68627(14) 0.22887(8)
H32 H -0.05466(23) 0.72858(14) 0.16862(8)
C24 C -0.06139(24) 0.83301(14) 0.24898(8)
H33 H -0.15877(24) 0.89686(14) 0.22234(8)
C25 C -0.10174(25) 0.81230(15) 0.33246(9)
H34 H -0.2465(24) 0.7886(13) 0.34216(88)
H35 H -0.0935(24) 0.8895(13) 0.35167(88)
C26 C 0.05425(24) 0.70907(14) 0.37276(8)
H36 H 0.02643(24) 0.69458(14) 0.42478(8)
C27 C 0.02718(23) 0.58789(14) 0.34454(8)
H37 H 0.11664(23) 0.52188(14) 0.37334(8)
H38 H -0.11485(23) 0.56839(14) 0.35150(8)
C28 C 0.15761(25) 0.87575(14) 0.23408(9)
H39 H 0.18605(25) 0.88984(14) 0.18211(9)
H40 H 0.16820(25) 0.95207(14) 0.25188(9)
C29 C 0.31594(23) 0.77297(14) 0.27444(8)
H41 H 0.45409(23) 0.79777(14) 0.26411(8)
C30 C 0.29568(23) 0.65174(14) 0.24535(8)
H42 H 0.31443(23) 0.66913(14) 0.19276(8)
H43 H 0.40194(23) 0.59005(14) 0.26832(8)
C31 C 0.27605(25) 0.74860(14) 0.35788(8)
H44 H 0.37543(25) 0.68365(14) 0.38219(8)
H45 H 0.29227(25) 0.82403(14) 0.37605(8)
loop_
_geom_bond_atom_site_label_1
_geom_bond_atom_site_label_2
_geom_bond_site_symmetry_1
_geom_bond_site_symmetry_2
N1 N2 1_555 1_555
N2 C1 1_555 1_555
B1 N1 1_555 1_555
C1 C2 1_555 1_555
C2 H1 1_555 1_555
C3 N1 1_555 1_555
C4 B1 1_555 1_555
H2 C4 1_555 1_555
C5 C4 1_555 1_555
H3 C5 1_555 1_555
H4 C5 1_555 1_555
C6 C5 1_555 1_555
H5 C6 1_555 1_555
H6 C6 1_555 1_555
C7 C6 1_555 1_555
H7 C7 1_555 1_555
H8 C7 1_555 1_555
C8 B1 1_555 1_555
H9 C8 1_555 1_555
C9 C8 1_555 1_555
H10 C9 1_555 1_555
H11 C9 1_555 1_555
C10 C9 1_555 1_555
H12 C10 1_555 1_555
H13 C10 1_555 1_555
C11 C4 1_555 1_555
H14 C11 1_555 1_555
H15 C11 1_555 1_555
C12 C1 1_555 1_555
C13 C12 1_555 1_555
H16 C13 1_555 1_555
H17 C13 1_555 1_555
C14 C13 1_555 1_555
H18 C14 1_555 1_555
C15 C14 1_555 1_555
H19 C15 1_555 1_555
H20 C15 1_555 1_555
C16 C15 1_555 1_555
H21 C16 1_555 1_555
C17 C12 1_555 1_555
H22 C17 1_555 1_555
H23 C17 1_555 1_555
C18 C12 1_555 1_555
H24 C18 1_555 1_555
H25 C18 1_555 1_555
C19 C18 1_555 1_555
H26 C19 1_555 1_555
C20 C16 1_555 1_555
H27 C20 1_555 1_555
H28 C20 1_555 1_555
C21 C14 1_555 1_555
H29 C21 1_555 1_555
H30 C21 1_555 1_555
C22 C3 1_555 1_555
C23 C22 1_555 1_555
H31 C23 1_555 1_555
H32 C23 1_555 1_555
C24 C23 1_555 1_555
H33 C24 1_555 1_555
C25 C24 1_555 1_555
H34 C25 1_555 1_555
H35 C25 1_555 1_555
C26 C25 1_555 1_555
H36 C26 1_555 1_555
C27 C22 1_555 1_555
H37 C27 1_555 1_555
H38 C27 1_555 1_555
C28 C24 1_555 1_555
H39 C28 1_555 1_555
H40 C28 1_555 1_555
C29 C28 1_555 1_555
H41 C29 1_555 1_555
C30 C22 1_555 1_555
H42 C30 1_555 1_555
H43 C30 1_555 1_555
C31 C26 1_555 1_555
H44 C31 1_555 1_555
H45 C31 1_555 1_555
C2 C3 1_555 1_555
C7 C8 1_555 1_555
C10 C11 1_555 1_555
C16 C17 1_555 1_555
C19 C20 1_555 1_555
C19 C21 1_555 1_555
C26 C27 1_555 1_555
C29 C30 1_555 1_555
C29 C31 1_555 1_555

#END
