
#######################################################################
#
#                 Cambridge Crystallographic Data Centre
#                                CCDC 
#
#######################################################################
#
# If this CIF has been generated from an entry in the Cambridge 
# Structural Database, then it will include bibliographic, chemical, 
# crystal, experimental, refinement or atomic coordinate data resulting 
# from the CCDC's data processing and validation procedures.
#
#######################################################################

data_SIJZOC
_chemical_formula_moiety         'C7 H6 O4,0.5(C4 H6 N2 O2)'
_chemical_name_systematic        
'3,5-Dihydroxybenzoic acid piperazine-2,5-dione'
_symmetry_cell_setting           triclinic
_symmetry_space_group_name_H-M   'P -1'
_symmetry_Int_Tables_number      2
_space_group_name_Hall           '-P 1'
loop_
_symmetry_equiv_pos_site_id
_symmetry_equiv_pos_as_xyz
1 x,y,z
2 -x,-y,-z
_cell_length_a                   6.6338(4)
_cell_length_b                   7.2856(5)
_cell_length_c                   10.1937(7)
_cell_angle_alpha                84.8650(10)
_cell_angle_beta                 79.5490(10)
_cell_angle_gamma                65.6860(10)
_cell_volume                     441.466
_exptl_crystal_colour            colorless
_exptl_crystal_description       block
_cell_formula_units_Z            2
loop_
_atom_site_label
_atom_site_type_symbol
_atom_site_fract_x
_atom_site_fract_y
_atom_site_fract_z
O1 O 0.12516(14) 0.11728(13) 0.37224(8)
O2 O -0.23769(14) 0.30667(14) 0.43393(9)
H1 H -0.2461 0.2705 0.3620
C1 C 0.0993(2) 0.37903(19) 0.81425(12)
H2 H 0.1294 0.4118 0.8925
O3 O -0.27993(15) 0.59304(16) 0.87522(10)
H3 H -0.4007 0.6347 0.8485
C2 C 0.00940(18) 0.28130(16) 0.58175(11)
O4 O 0.48003(14) 0.16972(15) 0.75949(9)
H4 H 0.5687 0.0939 0.7008
C3 C -0.11857(18) 0.46229(18) 0.78561(12)
C4 C -0.16486(19) 0.41272(17) 0.66854(11)
H5 H -0.3103 0.4672 0.6494
C5 C -0.02734(18) 0.22717(16) 0.45293(11)
C6 C 0.22744(19) 0.19819(18) 0.60885(12)
H6 H 0.3433 0.1104 0.5492
C7 C 0.27001(18) 0.24786(18) 0.72594(12)
O5 O -0.69877(14) 0.76462(14) 0.80619(9)
N1 N -1.05896(15) 0.95094(15) 0.89029(10)
H7 H -1.0989 0.9216 0.8221
C8 C -1.23541(19) 1.0795(2) 0.98785(12)
H8 H -1.3379 1.0155 1.0205
H9 H -1.3184 1.2052 0.9442
C9 C -0.84238(19) 0.87380(18) 0.89521(11)
O5A O -1.30123(14) 1.23538(14) 1.19381(9)
N1A N -0.94104(15) 1.04906(15) 1.10971(10)
H7A H -0.9011 1.0784 1.1779
C8A C -0.76459(19) 0.9205(2) 1.01215(12)
H8A H -0.6621 0.9845 0.9795
H9A H -0.6816 0.7948 1.0558
C9A C -1.15762(19) 1.12620(18) 1.10479(11)
loop_
_geom_bond_atom_site_label_1
_geom_bond_atom_site_label_2
_geom_bond_site_symmetry_1
_geom_bond_site_symmetry_2
O1 C5 1_555 1_555
O2 H1 1_555 1_555
C1 H2 1_555 1_555
O3 H3 1_555 1_555
C2 C4 1_555 1_555
O4 H4 1_555 1_555
C3 C1 1_555 1_555
C4 C3 1_555 1_555
H5 C4 1_555 1_555
C5 O2 1_555 1_555
C6 C2 1_555 1_555
H6 C6 1_555 1_555
C7 C1 1_555 1_555
O5 C9 1_555 1_555
N1 H7 1_555 1_555
C8 N1 1_555 1_555
H8 C8 1_555 1_555
H9 C8 1_555 1_555
C9 N1 1_555 1_555
O5A C9A 1_555 1_555
N1A H7A 1_555 1_555
C8A C9 1_555 1_555
H8A C8A 1_555 1_555
H9A C8A 1_555 1_555
C9A C8 1_555 1_555
O3 C3 1_555 1_555
C2 C5 1_555 1_555
O4 C7 1_555 1_555
C6 C7 1_555 1_555
N1A C8A 1_555 1_555
N1A C9A 1_555 1_555

#END
