
#######################################################################
#
#                 Cambridge Crystallographic Data Centre
#                                CCDC 
#
#######################################################################
#
# If this CIF has been generated from an entry in the Cambridge 
# Structural Database, then it will include bibliographic, chemical, 
# crystal, experimental, refinement or atomic coordinate data resulting 
# from the CCDC's data processing and validation procedures.
#
#######################################################################

data_SIKBET
_chemical_formula_moiety         'C21 H36 B2 N2'
_chemical_name_systematic        
(9,9'-\m~2~-Hydrido)-1,2-bis(9-borabicyclo(3.3.1)nonan-9-yl)-3,5-dimethylpyrazole
_symmetry_cell_setting           triclinic
_symmetry_space_group_name_H-M   'P -1'
_symmetry_Int_Tables_number      2
_space_group_name_Hall           '-P 1'
loop_
_symmetry_equiv_pos_site_id
_symmetry_equiv_pos_as_xyz
1 x,y,z
2 -x,-y,-z
_cell_length_a                   9.7634(11)
_cell_length_b                   10.3355(8)
_cell_length_c                   10.9660(9)
_cell_angle_alpha                78.245(6)
_cell_angle_beta                 83.589(8)
_cell_angle_gamma                63.895(8)
_cell_volume                     972.547
_chemical_melting_point          181-183deg.C
_cell_formula_units_Z            2
loop_
_atom_site_label
_atom_site_type_symbol
_atom_site_fract_x
_atom_site_fract_y
_atom_site_fract_z
N1 N 0.48208 0.44221 0.24182
N2 N 0.40710 0.56790 0.29160
B1 B 0.36229 0.39473 0.20337
B2 B 0.22920 0.62755 0.27526
H1 H 0.23497 0.51976 0.22360
C1 C 0.63406 0.39870 0.24742
C2 C 0.65451 0.49757 0.30164
H2 H 0.74947 0.49120 0.31686
C3 C 0.51235 0.60212 0.32992
C4 C 0.75714 0.26926 0.19974
H3 H 0.85499 0.26277 0.21528
H4 H 0.74667 0.28010 0.11177
H5 H 0.74875 0.18183 0.24157
C5 C 0.48069 0.72502 0.39652
H6 H 0.57525 0.72501 0.41291
H7 H 0.42727 0.71301 0.47383
H8 H 0.41917 0.81615 0.34569
C6 C 0.34347 0.26005 0.29131
H9 H 0.33870 0.26722 0.37774
C7 C 0.48403 0.11863 0.26861
H10 H 0.46827 0.03667 0.31498
H11 H 0.57201 0.11973 0.29884
C8 C 0.51585 0.09886 0.13175
H12 H 0.61982 0.02861 0.12418
H13 H 0.44887 0.06127 0.11119
C9 C 0.49339 0.23751 0.03586
H14 H 0.58550 0.25033 0.03176
H15 H 0.47741 0.22131 -0.04346
C10 C 0.35973 0.38125 0.06171
H16 H 0.37242 0.46009 0.00601
C11 C 0.20394 0.38878 0.03747
H17 H 0.20468 0.37543 -0.04675
H18 H 0.12645 0.48373 0.04790
C12 C 0.16461 0.27289 0.12488
H19 H 0.05873 0.29794 0.11608
H20 H 0.22601 0.17978 0.10012
C13 C 0.19234 0.25956 0.26297
H21 H 0.11004 0.34027 0.29395
H22 H 0.19136 0.16946 0.30662
C14 C 0.12375 0.63704 0.39759
H23 H 0.16635 0.54963 0.45857
C15 C -0.03329 0.65252 0.36525
H24 H -0.09830 0.66870 0.43838
H25 H -0.01893 0.56253 0.34221
C16 C -0.11367 0.77720 0.25901
H26 H -0.19628 0.76348 0.23289
H27 H -0.15340 0.86791 0.28965
C17 C -0.00844 0.78564 0.14508
H28 H -0.06001 0.87795 0.09173
H29 H 0.00896 0.70768 0.10174
C18 C 0.14764 0.77267 0.17549
H30 H 0.20612 0.76938 0.09881
C19 C 0.13455 0.90491 0.22891
H31 H 0.07067 0.99245 0.17531
H32 H 0.23493 0.90040 0.22852
C20 C 0.06718 0.91337 0.36254
H33 H 0.09966 0.97323 0.39706
H34 H -0.04196 0.95940 0.35720
C21 C 0.11183 0.76707 0.45354
H35 H 0.20931 0.74118 0.48654
H36 H 0.03652 0.78187 0.51997
loop_
_geom_bond_atom_site_label_1
_geom_bond_atom_site_label_2
_geom_bond_site_symmetry_1
_geom_bond_site_symmetry_2
N1 N2 1_555 1_555
N2 B2 1_555 1_555
B1 N1 1_555 1_555
B2 H1 1_555 1_555
H1 B1 1_555 1_555
C1 N1 1_555 1_555
C2 C1 1_555 1_555
H2 C2 1_555 1_555
C3 N2 1_555 1_555
C4 C1 1_555 1_555
H3 C4 1_555 1_555
H4 C4 1_555 1_555
H5 C4 1_555 1_555
C5 C3 1_555 1_555
H6 C5 1_555 1_555
H7 C5 1_555 1_555
H8 C5 1_555 1_555
C6 B1 1_555 1_555
H9 C6 1_555 1_555
C7 C6 1_555 1_555
H10 C7 1_555 1_555
H11 C7 1_555 1_555
C8 C7 1_555 1_555
H12 C8 1_555 1_555
H13 C8 1_555 1_555
C9 C8 1_555 1_555
H14 C9 1_555 1_555
H15 C9 1_555 1_555
C10 B1 1_555 1_555
H16 C10 1_555 1_555
C11 C10 1_555 1_555
H17 C11 1_555 1_555
H18 C11 1_555 1_555
C12 C11 1_555 1_555
H19 C12 1_555 1_555
H20 C12 1_555 1_555
C13 C6 1_555 1_555
H21 C13 1_555 1_555
H22 C13 1_555 1_555
C14 B2 1_555 1_555
H23 C14 1_555 1_555
C15 C14 1_555 1_555
H24 C15 1_555 1_555
H25 C15 1_555 1_555
C16 C15 1_555 1_555
H26 C16 1_555 1_555
H27 C16 1_555 1_555
C17 C16 1_555 1_555
H28 C17 1_555 1_555
H29 C17 1_555 1_555
C18 B2 1_555 1_555
H30 C18 1_555 1_555
C19 C18 1_555 1_555
H31 C19 1_555 1_555
H32 C19 1_555 1_555
C20 C19 1_555 1_555
H33 C20 1_555 1_555
H34 C20 1_555 1_555
C21 C14 1_555 1_555
H35 C21 1_555 1_555
H36 C21 1_555 1_555
C2 C3 1_555 1_555
C9 C10 1_555 1_555
C12 C13 1_555 1_555
C17 C18 1_555 1_555
C20 C21 1_555 1_555

#END
