
#######################################################################
#
#                 Cambridge Crystallographic Data Centre
#                                CCDC 
#
#######################################################################
#
# If this CIF has been generated from an entry in the Cambridge 
# Structural Database, then it will include bibliographic, chemical, 
# crystal, experimental, refinement or atomic coordinate data resulting 
# from the CCDC's data processing and validation procedures.
#
#######################################################################

data_SIKBIY
_chemical_formula_moiety         'C15 H13 N3 O1'
_chemical_name_systematic        3-Azido-1,3-diphenylpropan-1-one
_symmetry_cell_setting           orthorhombic
_symmetry_space_group_name_H-M   'P c a 21'
_symmetry_Int_Tables_number      29
_space_group_name_Hall           'P 2c -2ac'
loop_
_symmetry_equiv_pos_site_id
_symmetry_equiv_pos_as_xyz
1 x,y,z
2 -x,-y,1/2+z
3 1/2+x,-y,z
4 1/2-x,y,1/2+z
_cell_length_a                   10.7003(17)
_cell_length_b                   14.395(2)
_cell_length_c                   8.1812(13)
_cell_angle_alpha                90
_cell_angle_beta                 90
_cell_angle_gamma                90
_cell_volume                     1260.16
_exptl_crystal_colour            colorless
_exptl_crystal_description       plate
_chemical_melting_point          '77-78 deg.C'
_cell_formula_units_Z            4
_exptl_crystal_recrystallization_method ethanol
loop_
_atom_site_label
_atom_site_type_symbol
_atom_site_fract_x
_atom_site_fract_y
_atom_site_fract_z
O1 O 0.28203(18) 0.15965(13) 0.4704(3)
N1 N 0.4965(2) 0.29818(16) 0.4836(3)
N2 N 0.4247(2) 0.31844(15) 0.5879(3)
N3 N 0.3640(3) 0.3385(2) 0.7027(4)
C1 C 0.3724(2) 0.02036(16) 0.3727(3)
C2 C 0.2845(2) -0.03500(18) 0.4546(4)
H1 H 0.218(3) -0.004(2) 0.519(5)
C3 C 0.2957(3) -0.13088(19) 0.4542(4)
H2 H 0.231(5) -0.168(3) 0.518(6)
C4 C 0.3959(3) -0.17285(19) 0.3745(4)
H3 H 0.403(3) -0.241(3) 0.369(6)
C5 C 0.4831(3) -0.1189(2) 0.2932(4)
H4 H 0.552(3) -0.149(2) 0.247(5)
C6 C 0.4712(3) -0.02286(19) 0.2910(4)
H5 H 0.537(3) 0.011(3) 0.239(5)
C7 C 0.3589(2) 0.12400(17) 0.3805(3)
C8 C 0.4432(3) 0.18303(18) 0.2731(3)
H6 H 0.417(3) 0.171(2) 0.158(5)
H7 H 0.529(3) 0.158(2) 0.280(5)
C9 C 0.4380(2) 0.28613(17) 0.3172(3)
H8 H 0.350(3) 0.307(2) 0.316(5)
C10 C 0.5092(2) 0.34478(16) 0.1965(3)
C11 C 0.6401(2) 0.34555(18) 0.1939(4)
H9 H 0.684(4) 0.309(3) 0.273(5)
C12 C 0.7044(3) 0.39942(19) 0.0814(4)
H10 H 0.794(4) 0.399(2) 0.085(5)
C13 C 0.6396(3) 0.45378(19) -0.0300(4)
H11 H 0.687(3) 0.490(2) -0.110(5)
C14 C 0.5096(3) 0.45378(19) -0.0300(4)
H12 H 0.468(4) 0.489(3) -0.111(6)
C15 C 0.4455(2) 0.39937(18) 0.0838(4)
H13 H 0.357(3) 0.404(2) 0.090(5)
loop_
_geom_bond_atom_site_label_1
_geom_bond_atom_site_label_2
_geom_bond_site_symmetry_1
_geom_bond_site_symmetry_2
O1 C7 1_555 1_555
N1 N2 1_555 1_555
N2 N3 1_555 1_555
C1 C2 1_555 1_555
C2 H1 1_555 1_555
C3 C2 1_555 1_555
H2 C3 1_555 1_555
C4 C3 1_555 1_555
H3 C4 1_555 1_555
C5 C4 1_555 1_555
H4 C5 1_555 1_555
C6 C1 1_555 1_555
H5 C6 1_555 1_555
C7 C1 1_555 1_555
C8 C7 1_555 1_555
H6 C8 1_555 1_555
H7 C8 1_555 1_555
C9 N1 1_555 1_555
H8 C9 1_555 1_555
C10 C9 1_555 1_555
C11 C10 1_555 1_555
H9 C11 1_555 1_555
C12 C11 1_555 1_555
H10 C12 1_555 1_555
C13 C12 1_555 1_555
H11 C13 1_555 1_555
C14 C13 1_555 1_555
H12 C14 1_555 1_555
C15 C10 1_555 1_555
H13 C15 1_555 1_555
C5 C6 1_555 1_555
C8 C9 1_555 1_555
C14 C15 1_555 1_555

#END
