
#######################################################################
#
#                 Cambridge Crystallographic Data Centre
#                                CCDC 
#
#######################################################################
#
# If this CIF has been generated from an entry in the Cambridge 
# Structural Database, then it will include bibliographic, chemical, 
# crystal, experimental, refinement or atomic coordinate data resulting 
# from the CCDC's data processing and validation procedures.
#
#######################################################################

data_SIKCAT
_chemical_formula_moiety         'C18 H16 N2 O8'
_chemical_name_systematic        
'ethyl 2-amino-6-(hydroxymethyl)-4-(3-nitrophenyl)-8-oxo-4,8-dihydropyrano[3,2-b]pyran-3-carboxylate'
_symmetry_cell_setting           monoclinic
_symmetry_space_group_name_H-M   'P 21/c'
_symmetry_Int_Tables_number      14
_space_group_name_Hall           '-P 2ybc'
loop_
_symmetry_equiv_pos_site_id
_symmetry_equiv_pos_as_xyz
1 x,y,z
2 -x,1/2+y,1/2-z
3 -x,-y,-z
4 x,1/2-y,1/2+z
_cell_length_a                   11.768(11)
_cell_length_b                   14.478(12)
_cell_length_c                   10.311(9)
_cell_angle_alpha                90
_cell_angle_beta                 93.839(19)
_cell_angle_gamma                90
_cell_volume                     1752.82
_exptl_crystal_colour            colorless
_exptl_crystal_description       block
_cell_formula_units_Z            4
loop_
_atom_site_label
_atom_site_type_symbol
_atom_site_fract_x
_atom_site_fract_y
_atom_site_fract_z
O1 O 0.8920(2) 0.18744(14) 0.98687(19)
O2 O 0.8441(2) -0.04451(15) 1.0944(2)
O3 O 0.9493(2) 0.03365(15) 1.3108(2)
O4 O 0.7527(2) -0.02974(16) 0.6489(2)
O5 O 0.7675(2) -0.17183(17) 0.7339(2)
C1 C 0.9600(3) 0.1767(2) 1.2053(3)
H1 H 0.9929 0.2059 1.2789
C2 C 0.7981(3) -0.0386(2) 0.8674(3)
C3 C 0.8027(3) 0.0651(2) 0.8630(3)
H2 H 0.8504 0.0828 0.7927
C4 C 0.8774(3) 0.0466(2) 1.0923(3)
N1 N 0.8046(3) -0.17678(19) 0.9967(3)
H3 H 0.7860 -0.2119 0.9314
H4 H 0.8169 -0.2002 1.0729
C5 C 0.8597(3) 0.0974(2) 0.9872(3)
C6 C 0.9306(3) 0.0818(2) 1.2123(3)
C7 C 0.8142(3) -0.0862(2) 0.9796(3)
C8 C 0.6880(3) 0.1123(2) 0.8391(3)
C9 C 0.9416(3) 0.2248(2) 1.0965(3)
C10 C 0.6811(3) 0.1971(2) 0.7816(3)
H5 H 0.7465 0.2254 0.7548
C11 C 0.9718(4) 0.3228(2) 1.0790(3)
H6 H 1.0107 0.3305 0.9997
H7 H 0.9036 0.3606 1.0729
C12 C 0.7717(3) -0.0883(3) 0.7470(3)
O6 O 1.0424(3) 0.34957(16) 1.1854(3)
H8 H 1.0473 0.4061 1.1871
C13 C 0.5784(4) 0.2405(3) 0.7633(3)
O7 O 0.6590(3) 0.3666(2) 0.6715(4)
C14 C 0.4807(4) 0.2025(3) 0.7997(4)
H9 H 0.4117 0.2335 0.7868
C15 C 0.4862(4) 0.1175(3) 0.8558(4)
H10 H 0.4201 0.0894 0.8809
C16 C 0.5888(3) 0.0729(3) 0.8756(3)
H11 H 0.5912 0.0149 0.9146
N2 N 0.5727(4) 0.3310(3) 0.7022(4)
O8 O 0.4829(4) 0.3681(3) 0.6861(5)
C17 C 0.7179(5) -0.0681(3) 0.5235(4)
H12 H 0.7822 -0.0971 0.4857
H13 H 0.6593 -0.1144 0.5322
C18 C 0.6751(7) 0.0052(4) 0.4429(5)
H14 H 0.6114 0.0333 0.4810
H15 H 0.6511 -0.0186 0.3585
H16 H 0.7338 0.0504 0.4345
loop_
_geom_bond_atom_site_label_1
_geom_bond_atom_site_label_2
_geom_bond_site_symmetry_1
_geom_bond_site_symmetry_2
O1 C5 1_555 1_555
O2 C4 1_555 1_555
O3 C6 1_555 1_555
O4 C12 1_555 1_555
O5 C12 1_555 1_555
C1 H1 1_555 1_555
C2 C3 1_555 1_555
C3 H2 1_555 1_555
C4 C5 1_555 1_555
N1 H3 1_555 1_555
H4 N1 1_555 1_555
C5 C3 1_555 1_555
C6 C1 1_555 1_555
C7 O2 1_555 1_555
C8 C3 1_555 1_555
C9 O1 1_555 1_555
C10 C8 1_555 1_555
H5 C10 1_555 1_555
C11 C9 1_555 1_555
H6 C11 1_555 1_555
H7 C11 1_555 1_555
C12 C2 1_555 1_555
O6 C11 1_555 1_555
H8 O6 1_555 1_555
C13 C10 1_555 1_555
O7 N2 1_555 1_555
C14 C13 1_555 1_555
H9 C14 1_555 1_555
C15 C14 1_555 1_555
H10 C15 1_555 1_555
C16 C8 1_555 1_555
H11 C16 1_555 1_555
N2 C13 1_555 1_555
O8 N2 1_555 1_555
C17 O4 1_555 1_555
H12 C17 1_555 1_555
H13 C17 1_555 1_555
C18 C17 1_555 1_555
H14 C18 1_555 1_555
H15 C18 1_555 1_555
H16 C18 1_555 1_555
C1 C9 1_555 1_555
C2 C7 1_555 1_555
C4 C6 1_555 1_555
N1 C7 1_555 1_555
C15 C16 1_555 1_555

#END
