
#######################################################################
#
#                 Cambridge Crystallographic Data Centre
#                                CCDC 
#
#######################################################################
#
# If this CIF has been generated from an entry in the Cambridge 
# Structural Database, then it will include bibliographic, chemical, 
# crystal, experimental, refinement or atomic coordinate data resulting 
# from the CCDC's data processing and validation procedures.
#
#######################################################################

data_SIKFOK
_chemical_formula_moiety         'C25 H25 N5 O1 2+,2(F6 P1 1-)'
_chemical_name_systematic        
'13-oxa-7,19,27-triaza-10,16-diazoniahexacyclo[23.3.1.1^7,10^.1^16,19^.0^5,28^.0^21,26^]hentriaconta-1(29),2,4,8,10(31),16(30),17,21,23,25,27-undecaene bis(hexafluorophosphate)'
_symmetry_cell_setting           monoclinic
_symmetry_space_group_name_H-M   'P 21/c'
_symmetry_Int_Tables_number      14
_space_group_name_Hall           '-P 2ybc'
loop_
_symmetry_equiv_pos_site_id
_symmetry_equiv_pos_as_xyz
1 x,y,z
2 -x,1/2+y,1/2-z
3 -x,-y,-z
4 x,1/2-y,1/2+z
_cell_length_a                   12.5903(13)
_cell_length_b                   12.1517(10)
_cell_length_c                   21.282(2)
_cell_angle_alpha                90
_cell_angle_beta                 99.242(9)
_cell_angle_gamma                90
_cell_volume                     3213.74
_exptl_crystal_colour            colorless
_exptl_crystal_description       needle
_cell_formula_units_Z            4
loop_
_atom_site_label
_atom_site_type_symbol
_atom_site_fract_x
_atom_site_fract_y
_atom_site_fract_z
P1 P 0.19904(10) 0.17322(10) 0.25210(5)
F1 F 0.1503(3) 0.0879(3) 0.19840(14)
F2 F 0.2500(3) 0.2604(3) 0.30491(17)
F3 F 0.1120(3) 0.1407(4) 0.29369(19)
F4 F 0.1153(4) 0.2642(3) 0.2209(2)
F5 F 0.2748(3) 0.0789(4) 0.2837(2)
F6 F 0.2834(5) 0.2111(5) 0.2106(2)
N1 N 0.1226(3) 0.9076(3) 0.04474(17)
N2 N 0.0928(3) 0.7801(3) 0.17465(17)
C1 C -0.0317(4) 0.8196(4) 0.0749(2)
N3 N 0.3765(3) 0.9369(3) 0.11758(18)
C2 C 0.0295(4) 0.8510(4) 0.0270(2)
N4 N 0.4659(3) 0.7823(3) 0.1312(2)
C3 C 0.1421(4) 0.9195(4) -0.0674(2)
C4 C 0.1767(4) 0.9413(4) -0.0014(2)
C5 C 0.0062(4) 0.8524(4) 0.1431(2)
H1 H 0.0321 0.9277 0.1443
H2 H -0.0541 0.8496 0.1663
C6 C -0.0091(4) 0.8225(4) -0.0383(2)
C7 C -0.1259(4) 0.7620(4) 0.0585(2)
H3 H -0.1656 0.7416 0.0899
N5 N 0.1862(3) 0.6347(3) 0.20436(19)
C8 C 0.1026(4) 0.6722(4) 0.1646(2)
H4 H 0.0579 0.6305 0.1346
C9 C 0.0501(5) 0.8587(4) -0.0845(2)
H5 H 0.0271 0.8415 -0.1271
C10 C -0.1074(5) 0.7618(4) -0.0518(3)
H6 H -0.1330 0.7419 -0.0936
C11 C 0.3127(4) 1.0285(4) 0.0876(2)
H7 H 0.3559 1.0949 0.0918
H8 H 0.2512 1.0405 0.1090
C12 C 0.2734(4) 1.0052(4) 0.0170(2)
C13 C 0.4062(4) 0.8469(4) 0.0895(2)
H9 H 0.3877 0.8314 0.0464
C14 C -0.1637(5) 0.7328(4) -0.0062(3)
H10 H -0.2275 0.6936 -0.0167
C15 C 0.3283(5) 1.0436(5) -0.0297(3)
H11 H 0.3902 1.0854 -0.0180
O1 O 0.3753(5) 0.5787(3) 0.1582(2)
C16 C 0.2028(5) 0.9610(5) -0.1136(3)
H12 H 0.1807 0.9471 -0.1567
C17 C 0.2303(5) 0.7182(5) 0.2416(3)
H13 H 0.2899 0.7142 0.2735
C18 C 0.5073(5) 0.6716(5) 0.1178(3)
H14 H 0.5484 0.6778 0.0831
H15 H 0.5559 0.6464 0.1550
C19 C 0.4198(5) 0.9295(5) 0.1816(3)
H16 H 0.4122 0.9812 0.2128
C20 C 0.1711(5) 0.8083(5) 0.2235(2)
H17 H 0.1820 0.8780 0.2414
C21 C 0.2935(6) 1.0214(5) -0.0938(3)
H18 H 0.3329 1.0483 -0.1239
C22 C 0.4752(5) 0.8333(5) 0.1906(3)
H19 H 0.5122 0.8067 0.2289
C23 C 0.2267(5) 0.5197(5) 0.2044(3)
H20 H 0.2698 0.5039 0.2454
H21 H 0.1660 0.4695 0.1985
C24 C 0.2909(7) 0.5011(7) 0.1548(4)
H22 H 0.3208 0.4274 0.1589
H23 H 0.2454 0.5065 0.1135
C25 C 0.4243(9) 0.5909(7) 0.1013(6)
H24 H 0.4545 0.5217 0.0899
H25 H 0.3718 0.6160 0.0657
P2 P 0.44932(12) 0.78297(12) 0.40151(7)
F7 F 0.4528(3) 0.6786(3) 0.3579(2)
F8 F 0.4428(4) 0.8894(4) 0.4453(2)
F9 F 0.4239(5) 0.8612(4) 0.3436(2)
F10 F 0.4705(8) 0.6980(6) 0.4588(3)
F11 F 0.5731(3) 0.7992(4) 0.4053(3)
F12 F 0.3273(5) 0.7622(4) 0.4005(6)
loop_
_geom_bond_atom_site_label_1
_geom_bond_atom_site_label_2
_geom_bond_site_symmetry_1
_geom_bond_site_symmetry_2
P1 F1 1_555 1_555
F2 P1 1_555 1_555
F3 P1 1_555 1_555
F4 P1 1_555 1_555
F5 P1 1_555 1_555
F6 P1 1_555 1_555
N1 C2 1_555 1_555
N2 C5 1_555 1_555
C1 C2 1_555 1_555
N3 C11 1_555 1_555
C2 C6 1_555 1_555
N4 C13 1_555 1_555
C3 C4 1_555 1_555
C4 N1 1_555 1_555
C5 C1 1_555 1_555
H1 C5 1_555 1_555
H2 C5 1_555 1_555
C6 C9 1_555 1_555
C7 C1 1_555 1_555
H3 C7 1_555 1_555
N5 C8 1_555 1_555
C8 N2 1_555 1_555
H4 C8 1_555 1_555
C9 C3 1_555 1_555
H5 C9 1_555 1_555
C10 C6 1_555 1_555
H6 C10 1_555 1_555
C11 H7 1_555 1_555
H8 C11 1_555 1_555
C12 C4 1_555 1_555
C13 N3 1_555 1_555
H9 C13 1_555 1_555
C14 C7 1_555 1_555
H10 C14 1_555 1_555
C15 C12 1_555 1_555
H11 C15 1_555 1_555
O1 C24 1_555 1_555
C16 C3 1_555 1_555
H12 C16 1_555 1_555
C17 N5 1_555 1_555
H13 C17 1_555 1_555
C18 N4 1_555 1_555
H14 C18 1_555 1_555
H15 C18 1_555 1_555
C19 N3 1_555 1_555
H16 C19 1_555 1_555
C20 N2 1_555 1_555
H17 C20 1_555 1_555
C21 C15 1_555 1_555
H18 C21 1_555 1_555
C22 N4 1_555 1_555
H19 C22 1_555 1_555
C23 N5 1_555 1_555
H20 C23 1_555 1_555
H21 C23 1_555 1_555
C24 C23 1_555 1_555
H22 C24 1_555 1_555
H23 C24 1_555 1_555
C25 O1 1_555 1_555
H24 C25 1_555 1_555
H25 C25 1_555 1_555
P2 F7 1_555 1_555
F8 P2 1_555 1_555
F9 P2 1_555 1_555
F10 P2 1_555 1_555
F11 P2 1_555 1_555
F12 P2 1_555 1_555
C10 C14 1_555 1_555
C11 C12 1_555 1_555
C16 C21 1_555 1_555
C17 C20 1_555 1_555
C18 C25 1_555 1_555
C19 C22 1_555 1_555

#END
