
#######################################################################
#
#                 Cambridge Crystallographic Data Centre
#                                CCDC 
#
#######################################################################
#
# If this CIF has been generated from an entry in the Cambridge 
# Structural Database, then it will include bibliographic, chemical, 
# crystal, experimental, refinement or atomic coordinate data resulting 
# from the CCDC's data processing and validation procedures.
#
#######################################################################

data_SIKJII
_chemical_formula_moiety         'C27 H28 N2 O3'
_chemical_name_systematic        
'methyl 2-(4-t-butylphenyl)-8-methoxy-6,11-dihydro-5H-indolizino[8,7-b]indole-1-carboxylate'
_symmetry_cell_setting           triclinic
_symmetry_space_group_name_H-M   'P -1'
_symmetry_Int_Tables_number      2
_space_group_name_Hall           '-P 1'
loop_
_symmetry_equiv_pos_site_id
_symmetry_equiv_pos_as_xyz
1 x,y,z
2 -x,-y,-z
_cell_length_a                   7.9309(8)
_cell_length_b                   8.1886(8)
_cell_length_c                   18.5826(19)
_cell_angle_alpha                96.559(3)
_cell_angle_beta                 100.627(4)
_cell_angle_gamma                98.478(3)
_cell_volume                     1160.67
_exptl_crystal_colour            colorless
_exptl_crystal_description       block
_cell_formula_units_Z            2
loop_
_atom_site_label
_atom_site_type_symbol
_atom_site_fract_x
_atom_site_fract_y
_atom_site_fract_z
C1 C 0.6402(2) 0.5332(2) 0.69566(10)
C2 C 0.5817(3) 0.6646(2) 0.73216(12)
H1 H 0.5462 0.7505 0.7077
C3 C 0.5781(3) 0.6633(3) 0.80547(13)
H2 H 0.5395 0.7500 0.8310
C4 C 0.6310(3) 0.5349(3) 0.84290(12)
C5 C 0.7027(5) 0.4478(4) 0.96108(14)
H3 H 0.6460 0.3344 0.9442
H4 H 0.6939 0.4785 1.0115
H5 H 0.8232 0.4583 0.9580
C6 C 0.6848(3) 0.4019(3) 0.80683(11)
H6 H 0.7183 0.3160 0.8318
C7 C 0.6879(2) 0.3990(2) 0.73149(10)
C8 C 0.7300(2) 0.2829(2) 0.67690(10)
C9 C 0.7099(2) 0.35066(19) 0.61254(9)
C10 C 0.7856(3) 0.1161(2) 0.67950(10)
H7 H 0.7382 0.0616 0.7169
H8 H 0.9116 0.1309 0.6928
C11 C 0.7216(3) 0.0085(2) 0.60480(10)
H9 H 0.7808 -0.0870 0.6031
H10 H 0.5978 -0.0326 0.5980
C12 C 0.7399(2) 0.26726(19) 0.54465(9)
C13 C 0.7610(2) 0.30776(19) 0.47588(9)
C14 C 0.7601(2) 0.4748(2) 0.45521(9)
C15 C 0.7910(3) 0.6370(2) 0.35982(12)
H11 H 0.6830 0.6753 0.3617
H12 H 0.8064 0.6232 0.3096
H13 H 0.8855 0.7174 0.3897
C16 C 0.7775(2) 0.0373(2) 0.47723(10)
H14 H 0.7875 -0.0732 0.4637
C17 C 0.7845(2) 0.1583(2) 0.43248(9)
C18 C 0.8040(2) 0.12621(19) 0.35457(9)
C19 C 0.9319(2) 0.2179(2) 0.32630(10)
H15 H 1.0106 0.3044 0.3571
C20 C 0.9442(3) 0.1827(2) 0.25351(11)
H16 H 1.0313 0.2467 0.2364
C21 C 0.8313(3) 0.0551(3) 0.20468(10)
C22 C 0.8475(4) 0.0186(4) 0.12416(12)
C23 C 1.0120(8) -0.0503(9) 0.1208(2)
H17 H 1.0056 -0.1543 0.1402
H18 H 1.1100 0.0276 0.1498
H19 H 1.0254 -0.0680 0.0704
C24 C 0.8681(9) 0.1882(6) 0.0920(2)
H20 H 0.9669 0.2636 0.1218
H21 H 0.7650 0.2364 0.0925
H22 H 0.8849 0.1682 0.0421
C25 C 0.6887(7) -0.0891(9) 0.0759(2)
H23 H 0.6942 -0.0865 0.0249
H24 H 0.5866 -0.0482 0.0857
H25 H 0.6835 -0.2018 0.0863
C26 C 0.7069(3) -0.0378(2) 0.23348(11)
H26 H 0.6304 -0.1263 0.2029
C27 C 0.6928(2) -0.0031(2) 0.30649(10)
H27 H 0.6066 -0.0681 0.3237
N1 N 0.65549(19) 0.50165(17) 0.62318(8)
H28 H 0.6346 0.5655 0.5901
N2 N 0.75358(19) 0.10274(16) 0.54473(8)
O1 O 0.6224(3) 0.5533(3) 0.91673(9)
O2 O 0.73582(19) 0.59600(15) 0.49338(7)
O3 O 0.7881(2) 0.48066(15) 0.38729(7)
C28? C 1.008(2) 0.108(3) 0.1082(7)
H29? H 1.0080 0.0827 0.0565
H30? H 1.1070 0.0751 0.1369
H31? H 1.0130 0.2264 0.1207
C29? C 0.687(3) 0.042(2) 0.0749(8)
H32? H 0.6604 0.1500 0.0896
H33? H 0.5922 -0.0428 0.0782
H34? H 0.7034 0.0338 0.0248
C30? C 0.863(2) -0.181(2) 0.1112(6)
H35? H 0.8973 -0.2071 0.0649
H36? H 0.7522 -0.2474 0.1103
H37? H 0.9485 -0.2040 0.1507
loop_
_geom_bond_atom_site_label_1
_geom_bond_atom_site_label_2
_geom_bond_site_symmetry_1
_geom_bond_site_symmetry_2
C1 C2 1_555 1_555
C2 H1 1_555 1_555
C3 C2 1_555 1_555
H2 C3 1_555 1_555
C4 C3 1_555 1_555
C5 H3 1_555 1_555
H4 C5 1_555 1_555
H5 C5 1_555 1_555
C6 C4 1_555 1_555
H6 C6 1_555 1_555
C7 C1 1_555 1_555
C8 C7 1_555 1_555
C9 C8 1_555 1_555
C10 C8 1_555 1_555
H7 C10 1_555 1_555
H8 C10 1_555 1_555
C11 C10 1_555 1_555
H9 C11 1_555 1_555
H10 C11 1_555 1_555
C12 C9 1_555 1_555
C13 C12 1_555 1_555
C14 C13 1_555 1_555
C15 H11 1_555 1_555
H12 C15 1_555 1_555
H13 C15 1_555 1_555
C16 H14 1_555 1_555
C17 C13 1_555 1_555
C18 C17 1_555 1_555
C19 C18 1_555 1_555
H15 C19 1_555 1_555
C20 C19 1_555 1_555
H16 C20 1_555 1_555
C21 C20 1_555 1_555
C22 C21 1_555 1_555
C23 C22 1_555 1_555
H17 C23 1_555 1_555
H18 C23 1_555 1_555
H19 C23 1_555 1_555
C24 C22 1_555 1_555
H20 C24 1_555 1_555
H21 C24 1_555 1_555
H22 C24 1_555 1_555
C25 C22 1_555 1_555
H23 C25 1_555 1_555
H24 C25 1_555 1_555
H25 C25 1_555 1_555
C26 C21 1_555 1_555
H26 C26 1_555 1_555
C27 C18 1_555 1_555
H27 C27 1_555 1_555
N1 C1 1_555 1_555
H28 N1 1_555 1_555
N2 C11 1_555 1_555
O1 C4 1_555 1_555
O2 C14 1_555 1_555
O3 C14 1_555 1_555
C5 O1 1_555 1_555
C6 C7 1_555 1_555
C9 N1 1_555 1_555
C12 N2 1_555 1_555
C15 O3 1_555 1_555
C16 C17 1_555 1_555
C16 N2 1_555 1_555
C26 C27 1_555 1_555

#END
