
#######################################################################
#
#                 Cambridge Crystallographic Data Centre
#                                CCDC 
#
#######################################################################
#
# If this CIF has been generated from an entry in the Cambridge 
# Structural Database, then it will include bibliographic, chemical, 
# crystal, experimental, refinement or atomic coordinate data resulting 
# from the CCDC's data processing and validation procedures.
#
#######################################################################

data_SIKLAZ
_chemical_compound_source        'Artemisia annua'
_chemical_formula_moiety         'C20 H27 Br1 N2 O4'
_chemical_name_systematic        
9-Bromo-10-deoxy-10-(2-pyridylamino)-artemisinin
_chemical_properties_biological  'antimalarial activity'
_symmetry_cell_setting           orthorhombic
_symmetry_space_group_name_H-M   'P 21 21 21'
_symmetry_Int_Tables_number      19
_space_group_name_Hall           'P 2ac 2ab'
loop_
_symmetry_equiv_pos_site_id
_symmetry_equiv_pos_as_xyz
1 x,y,z
2 1/2+x,1/2-y,-z
3 -x,1/2+y,1/2-z
4 1/2-x,-y,1/2+z
_cell_length_a                   10.133(3)
_cell_length_b                   10.633(4)
_cell_length_c                   18.461(5)
_cell_angle_alpha                90
_cell_angle_beta                 90
_cell_angle_gamma                90
_cell_volume                     1989.07
_exptl_crystal_colour            colorless
_chemical_melting_point          155-157deg.C
_cell_formula_units_Z            4
loop_
_atom_site_label
_atom_site_type_symbol
_atom_site_fract_x
_atom_site_fract_y
_atom_site_fract_z
Br1 Br 0.1240(1) 0.9145(1) 0.5245(1)
O1 O 0.4415(3) 0.8759(3) 0.5749(2)
O2 O 0.5314(3) 0.8853(3) 0.5118(2)
C1 C 0.6542(5) 0.9380(6) 0.5348(3)
C2 C 0.7075(6) 0.8728(6) 0.6016(3)
C3 C 0.6695(5) 0.9336(6) 0.6737(3)
C4 C 0.5183(5) 0.9507(5) 0.6895(3)
C5 C 0.4966(7) 1.0388(6) 0.7536(3)
C6 C 0.3478(5) 1.0659(6) 0.7632(3)
C7 C 0.2851(6) 1.1163(5) 0.6946(3)
C8 C 0.2964(5) 1.0210(6) 0.6333(3)
C9 C 0.2258(5) 1.0621(5) 0.5616(3)
C10 C 0.3257(5) 1.0934(6) 0.5028(2)
O3 O 0.4282(3) 1.1676(3) 0.5364(2)
C11 C 0.5131(5) 1.1006(6) 0.5836(3)
C12 C 0.4428(5) 0.9894(5) 0.6202(3)
O4 O 0.6320(3) 1.0692(3) 0.5465(2)
C13 C 0.7427(5) 0.9251(7) 0.4692(3)
C14 C 0.5578(7) 0.9840(8) 0.8235(3)
C15 C 0.1272(7) 1.1659(6) 0.5726(3)
N1 N 0.2749(4) 1.1628(5) 0.4430(2)
C16 C 0.3356(5) 1.1629(6) 0.3757(3)
N2 N 0.2879(5) 1.2478(5) 0.3291(3)
C17 C 0.3397(6) 1.2521(6) 0.2636(3)
C18 C 0.4414(7) 1.1784(7) 0.2410(3)
C19 C 0.4917(6) 1.0880(8) 0.2885(3)
C20 C 0.4379(6) 1.0817(7) 0.3572(3)
H1 H 0.6744 0.7884 0.6018
H2 H 0.8023 0.8713 0.5984
H3 H 0.7057 0.8826 0.7116
H4 H 0.7096 1.0152 0.6750
H5 H 0.4815 0.8714 0.7038
H6 H 0.5404 1.1169 0.7437
H7 H 0.3370 1.1268 0.8011
H8 H 0.3038 0.9896 0.7766
H9 H 0.1934 1.1338 0.7035
H10 H 0.3294 1.1922 0.6806
H11 H 0.2500 0.9470 0.6485
H12 H 0.3567 1.0153 0.4833
H13 H 0.5384 1.1533 0.6234
H14 H 0.8286 0.9584 0.4803
H15 H 0.7051 0.9708 0.4295
H16 H 0.7508 0.8382 0.4563
H17 H 0.5429 1.0408 0.8630
H18 H 0.6511 0.9727 0.8166
H19 H 0.5175 0.9046 0.8342
H20 H 0.0657 1.1426 0.6099
H21 H 0.0800 1.1810 0.5283
H22 H 0.1732 1.2407 0.5867
H23 H 0.1945 1.2095 0.4491
H24 H 0.3035 1.3112 0.2298
H25 H 0.4778 1.1880 0.1933
H26 H 0.5613 1.0324 0.2738
H27 H 0.4706 1.0219 0.3917
loop_
_geom_bond_atom_site_label_1
_geom_bond_atom_site_label_2
_geom_bond_site_symmetry_1
_geom_bond_site_symmetry_2
Br1 C9 1_555 1_555
O1 O2 1_555 1_555
O2 C1 1_555 1_555
C1 C2 1_555 1_555
C2 C3 1_555 1_555
C3 C4 1_555 1_555
C4 C5 1_555 1_555
C5 C6 1_555 1_555
C6 C7 1_555 1_555
C7 C8 1_555 1_555
C8 C9 1_555 1_555
C9 C10 1_555 1_555
C10 O3 1_555 1_555
O3 C11 1_555 1_555
C11 C12 1_555 1_555
C12 O1 1_555 1_555
O4 C1 1_555 1_555
C13 C1 1_555 1_555
C14 C5 1_555 1_555
C15 C9 1_555 1_555
N1 C10 1_555 1_555
C16 N1 1_555 1_555
N2 C16 1_555 1_555
C17 N2 1_555 1_555
C18 C17 1_555 1_555
C19 C18 1_555 1_555
C20 C16 1_555 1_555
H1 C2 1_555 1_555
H2 C2 1_555 1_555
H3 C3 1_555 1_555
H4 C3 1_555 1_555
H5 C4 1_555 1_555
H6 C5 1_555 1_555
H7 C6 1_555 1_555
H8 C6 1_555 1_555
H9 C7 1_555 1_555
H10 C7 1_555 1_555
H11 C8 1_555 1_555
H12 C10 1_555 1_555
H13 C11 1_555 1_555
H14 C13 1_555 1_555
H15 C13 1_555 1_555
H16 C13 1_555 1_555
H17 C14 1_555 1_555
H18 C14 1_555 1_555
H19 C14 1_555 1_555
H20 C15 1_555 1_555
H21 C15 1_555 1_555
H22 C15 1_555 1_555
H23 N1 1_555 1_555
H24 C17 1_555 1_555
H25 C18 1_555 1_555
H26 C19 1_555 1_555
H27 C20 1_555 1_555
C4 C12 1_555 1_555
C8 C12 1_555 1_555
C11 O4 1_555 1_555
C19 C20 1_555 1_555

#END
