
#######################################################################
#
#                 Cambridge Crystallographic Data Centre
#                                CCDC 
#
#######################################################################
#
# If this CIF has been generated from an entry in the Cambridge 
# Structural Database, then it will include bibliographic, chemical, 
# crystal, experimental, refinement or atomic coordinate data resulting 
# from the CCDC's data processing and validation procedures.
#
#######################################################################

data_SIKMUW
_chemical_formula_moiety         'C22 H20 N3 O2 1+,Cl1 1-'
_chemical_name_systematic        
'4-(Biphenyl-3-ylamino)-6,7-dimethoxyquinazolin-1-ium chloride'
_symmetry_cell_setting           orthorhombic
_symmetry_space_group_name_H-M   'P 21 21 21'
_symmetry_Int_Tables_number      19
_space_group_name_Hall           'P 2ac 2ab'
loop_
_symmetry_equiv_pos_site_id
_symmetry_equiv_pos_as_xyz
1 x,y,z
2 1/2-x,-y,1/2+z
3 -x,1/2+y,1/2-z
4 1/2+x,1/2-y,-z
_cell_length_a                   9.4883(2)
_cell_length_b                   12.8078(3)
_cell_length_c                   15.5596(3)
_cell_angle_alpha                90
_cell_angle_beta                 90
_cell_angle_gamma                90
_cell_volume                     1890.87
_exptl_crystal_colour            'light yellow'
_exptl_crystal_description       rod
_cell_formula_units_Z            4
loop_
_atom_site_label
_atom_site_type_symbol
_atom_site_fract_x
_atom_site_fract_y
_atom_site_fract_z
Cl1 Cl 0.01867(7) 0.17300(6) 0.13589(5)
O1 O 0.7317(2) 0.39540(15) 0.27584(12)
O2 O 0.4771(2) 0.40429(15) 0.32503(11)
N1 N 0.3320(2) 0.17265(18) 0.09906(14)
H1 H 0.2306 0.1749 0.1158
N2 N 0.4954(3) 0.09185(16) 0.00787(13)
N3 N 0.7332(2) 0.12344(17) 0.02116(13)
H2 H 0.8002 0.1543 0.0535
C1 C 0.6423(3) 0.3377(2) 0.22749(17)
C2 C 0.4982(3) 0.3447(2) 0.25423(16)
C3 C 0.3957(3) 0.2911(2) 0.21141(17)
H3 H 0.2999 0.2963 0.2286
C4 C 0.4341(3) 0.2284(2) 0.14196(18)
C5 C 0.3672(3) 0.1088(2) 0.03591(19)
H4 H 0.2930 0.0719 0.0084
C6 C 0.6007(3) 0.1438(2) 0.04741(17)
C7 C 0.5744(3) 0.2175(2) 0.11554(17)
C8 C 0.6787(3) 0.2755(2) 0.15953(16)
H5 H 0.7743 0.2712 0.1418
C9 C 0.8781(3) 0.3902(3) 0.2535(2)
H6 H 0.9316 0.4386 0.2897
H7 H 0.8901 0.4094 0.1930
H8 H 0.9127 0.3189 0.2626
C10 C 0.3431(3) 0.3943(2) 0.36754(19)
H9 H 0.3481 0.4271 0.4244
H10 H 0.3198 0.3202 0.3740
H11 H 0.2701 0.4288 0.3332
C11 C 0.7785(3) 0.0507(2) -0.04257(18)
C12 C 0.6980(3) 0.0214(2) -0.11355(17)
H12 H 0.6056 0.0482 -0.1211
C13 C 0.7547(3) -0.0475(2) -0.17283(17)
H13 H 0.6990 -0.0698 -0.2201
C14 C 0.8912(3) -0.0844(2) -0.16439(17)
H14 H 0.9294 -0.1296 -0.2068
C15 C 0.9719(3) -0.0556(2) -0.09435(16)
C16 C 0.9140(3) 0.0124(2) -0.03305(17)
H15 H 0.9684 0.0324 0.0155
C17 C 1.1190(3) -0.0952(2) -0.08203(17)
C18 C 1.2122(3) -0.0993(2) -0.15075(18)
H16 H 1.1820 -0.0769 -0.2060
C19 C 1.3492(3) -0.1359(2) -0.1400(2)
H17 H 1.4117 -0.1385 -0.1876
C20 C 1.3938(3) -0.1683(3) -0.0601(2)
H18 H 1.4875 -0.1928 -0.0526
C21 C 1.3022(3) -0.1651(2) 0.00945(19)
H19 H 1.3327 -0.1881 0.0645
C22 C 1.1653(3) -0.1282(2) -0.00180(19)
H20 H 1.1030 -0.1256 0.0459
loop_
_geom_bond_atom_site_label_1
_geom_bond_atom_site_label_2
_geom_bond_site_symmetry_1
_geom_bond_site_symmetry_2
O1 C1 1_555 1_555
O2 C2 1_555 1_555
N1 H1 1_555 1_555
N2 C5 1_555 1_555
N3 H2 1_555 1_555
C1 C2 1_555 1_555
C2 C3 1_555 1_555
C3 H3 1_555 1_555
C4 N1 1_555 1_555
C5 N1 1_555 1_555
H4 C5 1_555 1_555
C6 N2 1_555 1_555
C7 C4 1_555 1_555
C8 C1 1_555 1_555
H5 C8 1_555 1_555
C9 O1 1_555 1_555
H6 C9 1_555 1_555
H7 C9 1_555 1_555
H8 C9 1_555 1_555
C10 O2 1_555 1_555
H9 C10 1_555 1_555
H10 C10 1_555 1_555
H11 C10 1_555 1_555
C11 N3 1_555 1_555
C12 C11 1_555 1_555
H12 C12 1_555 1_555
C13 C12 1_555 1_555
H13 C13 1_555 1_555
C14 C13 1_555 1_555
H14 C14 1_555 1_555
C15 C14 1_555 1_555
C16 C11 1_555 1_555
H15 C16 1_555 1_555
C17 C15 1_555 1_555
C18 C17 1_555 1_555
H16 C18 1_555 1_555
C19 C18 1_555 1_555
H17 C19 1_555 1_555
C20 C19 1_555 1_555
H18 C20 1_555 1_555
C21 C20 1_555 1_555
H19 C21 1_555 1_555
C22 C17 1_555 1_555
H20 C22 1_555 1_555
N3 C6 1_555 1_555
C3 C4 1_555 1_555
C6 C7 1_555 1_555
C7 C8 1_555 1_555
C15 C16 1_555 1_555
C21 C22 1_555 1_555

#END
