
#######################################################################
#
#                 Cambridge Crystallographic Data Centre
#                                CCDC 
#
#######################################################################
#
# If this CIF has been generated from an entry in the Cambridge 
# Structural Database, then it will include bibliographic, chemical, 
# crystal, experimental, refinement or atomic coordinate data resulting 
# from the CCDC's data processing and validation procedures.
#
#######################################################################

data_SIKMOQ
_chemical_formula_moiety         'C22 H17 N5 O2,2(C1 H4 O1)'
_chemical_name_systematic        
'N-(6,7-Dimethoxyquinazolin-4-yl)-1,10-phenanthrolin-5-amine methanol solvate'
_symmetry_cell_setting           triclinic
_symmetry_space_group_name_H-M   'P -1'
_symmetry_Int_Tables_number      2
_space_group_name_Hall           '-P 1'
loop_
_symmetry_equiv_pos_site_id
_symmetry_equiv_pos_as_xyz
1 x,y,z
2 -x,-y,-z
_cell_length_a                   10.084(2)
_cell_length_b                   10.711(2)
_cell_length_c                   11.166(2)
_cell_angle_alpha                87.44(3)
_cell_angle_beta                 64.90(3)
_cell_angle_gamma                87.91(3)
_cell_volume                     1090.85
_exptl_crystal_colour            yellow
_exptl_crystal_description       block
_cell_formula_units_Z            2
loop_
_atom_site_label
_atom_site_type_symbol
_atom_site_fract_x
_atom_site_fract_y
_atom_site_fract_z
O1 O 0.83869(15) 0.46977(12) 0.12814(13)
O2 O 0.94301(14) 0.32031(13) 0.25295(13)
N1 N 0.36079(18) 0.12435(15) 1.14081(15)
N2 N 0.16075(17) -0.05356(14) 1.17307(15)
N3 N 0.49266(18) 0.15561(16) 0.66684(16)
H1 H 0.5858 0.1329 0.6310
N4 N 0.30260(17) 0.26534(15) 0.64431(15)
N5 N 0.34382(17) 0.40542(15) 0.45802(16)
C1 C 0.5280(2) 0.23556(18) 0.8926(2)
H2 H 0.5855 0.2738 0.8088
C2 C 0.5435(2) 0.2690(2) 1.0023(2)
H3 H 0.6113 0.3310 0.9962
C3 C 0.4577(2) 0.2102(2) 1.1240(2)
H4 H 0.4703 0.2339 1.1994
C4 C 0.34404(19) 0.09116(16) 1.03226(17)
C5 C 0.23745(19) -0.00321(16) 1.05003(17)
C6 C 0.0655(2) -0.14067(19) 1.1872(2)
H5 H 0.0119 -0.1763 1.2733
C7 C 0.0385(2) -0.1837(2) 1.0839(2)
H6 H -0.0312 -0.2468 1.0993
C8 C 0.1148(2) -0.1329(2) 0.9599(2)
H7 H 0.0985 -0.1606 0.8877
C9 C 0.2171(2) -0.04006(18) 0.93929(18)
C10 C 0.3032(2) 0.01578(19) 0.81146(19)
H8 H 0.2895 -0.0096 0.7371
C11 C 0.4027(2) 0.10322(18) 0.79421(18)
C12 C 0.4264(2) 0.14400(16) 0.90468(18)
C13 C 0.4457(2) 0.23766(17) 0.59690(18)
C14 C 0.2626(2) 0.34766(18) 0.5708(2)
H9 H 0.1607 0.3670 0.6053
C15 C 0.4919(2) 0.37858(16) 0.40917(18)
C16 C 0.5877(2) 0.43953(17) 0.28999(18)
H10 H 0.5493 0.4961 0.2442
C17 C 0.7358(2) 0.41695(17) 0.24060(18)
C18 C 0.7941(2) 0.33257(17) 0.31005(18)
C19 C 0.7025(2) 0.27240(17) 0.42410(18)
H11 H 0.7420 0.2158 0.4690
C20 C 0.5491(2) 0.29382(16) 0.47597(17)
C21 C 0.7887(2) 0.55926(19) 0.05664(19)
H12 H 0.8722 0.5883 -0.0234
H13 H 0.7417 0.6305 0.1125
H14 H 0.7179 0.5203 0.0318
C22 C 1.0054(2) 0.2389(2) 0.3222(2)
H15 H 1.1124 0.2378 0.2741
H16 H 0.9691 0.1541 0.3283
H17 H 0.9772 0.2692 0.4114
O3 O 0.78003(15) 0.05705(13) 0.60233(13)
H18 H 0.7915 0.0452 0.6718
C23 C 0.7846(3) -0.0544(2) 0.5384(2)
H19 H 0.8813 -0.0948 0.5116
H20 H 0.7664 -0.0353 0.4599
H21 H 0.7092 -0.1107 0.5991
O4 O 0.2192(3) 0.59989(19) 0.3573(2)
H22 H 0.2586 0.5494 0.3928
C24 C 0.1650(7) 0.5322(5) 0.2837(6)
H23 H 0.0727 0.4934 0.3435
H24 H 0.2365 0.4671 0.2361
H25 H 0.1478 0.5888 0.2201
O5? O 0.2784(8) 0.5094(7) 0.2488(7)
H26? H 0.2981 0.4783 0.3105
C25? C 0.1407(13) 0.5698(16) 0.313(2)
H27? H 0.1541 0.6535 0.3371
H28? H 0.0798 0.5211 0.3924
H29? H 0.0925 0.5766 0.2525
loop_
_geom_bond_atom_site_label_1
_geom_bond_atom_site_label_2
_geom_bond_site_symmetry_1
_geom_bond_site_symmetry_2
O1 C17 1_555 1_555
O2 C18 1_555 1_555
N1 C3 1_555 1_555
N2 C5 1_555 1_555
N3 H1 1_555 1_555
N4 C13 1_555 1_555
N5 C14 1_555 1_555
C1 H2 1_555 1_555
C2 C1 1_555 1_555
H3 C2 1_555 1_555
C3 C2 1_555 1_555
H4 C3 1_555 1_555
C4 N1 1_555 1_555
C5 C4 1_555 1_555
C6 N2 1_555 1_555
H5 C6 1_555 1_555
C7 C6 1_555 1_555
H6 C7 1_555 1_555
C8 C7 1_555 1_555
H7 C8 1_555 1_555
C9 C5 1_555 1_555
C10 C9 1_555 1_555
H8 C10 1_555 1_555
C11 N3 1_555 1_555
C12 C1 1_555 1_555
C13 N3 1_555 1_555
C14 N4 1_555 1_555
H9 C14 1_555 1_555
C15 N5 1_555 1_555
C16 C15 1_555 1_555
H10 C16 1_555 1_555
C17 C16 1_555 1_555
C18 C17 1_555 1_555
C19 C18 1_555 1_555
H11 C19 1_555 1_555
C20 C13 1_555 1_555
C21 O1 1_555 1_555
H12 C21 1_555 1_555
H13 C21 1_555 1_555
H14 C21 1_555 1_555
C22 O2 1_555 1_555
H15 C22 1_555 1_555
H16 C22 1_555 1_555
H17 C22 1_555 1_555
O3 H18 1_555 1_555
C23 O3 1_555 1_555
H19 C23 1_555 1_555
H20 C23 1_555 1_555
H21 C23 1_555 1_555
O4 H22 1_555 1_555
C24 O4 1_555 1_555
H23 C24 1_555 1_555
H24 C24 1_555 1_555
H25 C24 1_555 1_555
C4 C12 1_555 1_555
C8 C9 1_555 1_555
C10 C11 1_555 1_555
C11 C12 1_555 1_555
C15 C20 1_555 1_555
C19 C20 1_555 1_555

#END
