
#######################################################################
#
#                 Cambridge Crystallographic Data Centre
#                                CCDC 
#
#######################################################################
#
# If this CIF has been generated from an entry in the Cambridge 
# Structural Database, then it will include bibliographic, chemical, 
# crystal, experimental, refinement or atomic coordinate data resulting 
# from the CCDC's data processing and validation procedures.
#
#######################################################################

data_SIKMAC
_chemical_formula_moiety         'C19 H16 N4 O3,C1 H4 O1,0.5(H2 O1)'
_chemical_name_systematic        
'5-((6,7-Dimethoxyquinazolin-4-yl)amino)quinolin-8-ol methanol solvate hemihydrate'
_symmetry_cell_setting           monoclinic
_symmetry_space_group_name_H-M   'C 2/c'
_symmetry_Int_Tables_number      15
_space_group_name_Hall           '-C 2yn'
loop_
_symmetry_equiv_pos_site_id
_symmetry_equiv_pos_as_xyz
1 x,y,z
2 -x,y,1/2-z
3 1/2+x,1/2+y,z
4 1/2-x,1/2+y,1/2-z
5 -x,-y,-z
6 x,-y,1/2+z
7 1/2-x,1/2-y,-z
8 1/2+x,1/2-y,1/2+z
_cell_length_a                   21.461(4)
_cell_length_b                   12.307(3)
_cell_length_c                   28.462(6)
_cell_angle_alpha                90
_cell_angle_beta                 96.85(3)
_cell_angle_gamma                90
_cell_volume                     7463.74
_exptl_crystal_colour            yellow
_exptl_crystal_description       strip
_cell_formula_units_Z            16
loop_
_atom_site_label
_atom_site_type_symbol
_atom_site_fract_x
_atom_site_fract_y
_atom_site_fract_z
O1 O -0.18335(8) 0.62101(13) 0.17737(6)
O2 O -0.24132(7) 0.79619(14) 0.19141(6)
O3 O 0.31093(7) 0.74818(14) 0.16659(6)
H1 H 0.3290 0.7238 0.1922
N1 N -0.05320(9) 1.00971(16) 0.19139(7)
N2 N 0.23895(9) 0.81788(16) 0.08950(7)
N3 N 0.04403(9) 0.92136(15) 0.18122(7)
N4 N 0.05010(9) 0.73832(16) 0.16597(7)
H2 H 0.0311 0.6756 0.1600
C1 C -0.15377(13) 0.5188(2) 0.17116(11)
H3 H -0.1849 0.4605 0.1708
H4 H -0.1204 0.5069 0.1973
H5 H -0.1357 0.5190 0.1411
C2 C -0.27416(12) 0.8879(2) 0.20716(11)
H6 H -0.3179 0.8679 0.2093
H7 H -0.2727 0.9478 0.1846
H8 H -0.2543 0.9107 0.2384
C3 C -0.14687(11) 0.71185(19) 0.17837(8)
C4 C -0.17948(10) 0.81009(19) 0.18692(8)
C5 C -0.14814(10) 0.90682(19) 0.19065(8)
H9 H -0.1700 0.9718 0.1963
C6 C -0.08335(11) 0.91066(19) 0.18615(8)
C7 C 0.00746(11) 1.00739(19) 0.18888(8)
H10 H 0.0285 1.0753 0.1930
C8 C 0.01487(10) 0.82524(18) 0.17450(8)
C9 C -0.05128(10) 0.81475(18) 0.17723(8)
C10 C -0.08451(11) 0.71479(19) 0.17331(8)
H11 H -0.0632 0.6496 0.1671
C11 C 0.10705(11) 0.82800(19) 0.08624(8)
H12 H 0.0626 0.8313 0.0845
C12 C 0.13705(12) 0.8642(2) 0.04947(9)
H13 H 0.1138 0.8945 0.0221
C13 C 0.20279(12) 0.8562(2) 0.05260(9)
H14 H 0.2225 0.8800 0.0263
C14 C 0.20960(10) 0.78419(18) 0.12731(8)
C15 C 0.24827(10) 0.74245(18) 0.16784(8)
C16 C 0.22066(11) 0.69883(19) 0.20457(8)
H15 H 0.2460 0.6684 0.2310
C17 C 0.15490(11) 0.69907(19) 0.20324(8)
H16 H 0.1366 0.6681 0.2289
C18 C 0.11662(10) 0.74250(18) 0.16615(8)
C19 C 0.14318(10) 0.78556(17) 0.12677(8)
O4 O 0.38291(8) 0.66647(14) 0.23862(6)
H17 H 0.3669 0.6271 0.2581
H18 H 0.4062 0.6244 0.2254
O5 O 0.19671(8) 1.56604(14) 0.57816(7)
O6 O 0.25173(8) 1.74453(14) 0.56398(7)
O7 O 0.49669(9) 0.86998(14) 0.56636(7)
H19 H 0.4884 0.8350 0.5411
N5 N 0.45079(10) 1.56494(17) 0.55999(8)
N6 N 0.45523(9) 1.37034(16) 0.56443(7)
N7 N 0.37048(9) 1.26518(15) 0.57725(7)
H20 H 0.3310 1.2608 0.5827
N8 N 0.52322(9) 0.99268(17) 0.64437(7)
C20 C 0.16376(12) 1.4706(2) 0.58960(9)
H21 H 0.1195 1.4883 0.5909
H22 H 0.1822 1.4428 0.6204
H23 H 0.1670 1.4151 0.5653
C21 C 0.27928(14) 1.8467(2) 0.55429(11)
H24 H 0.2474 1.9039 0.5533
H25 H 0.2959 1.8431 0.5237
H26 H 0.3135 1.8632 0.5793
C22 C 0.25928(11) 1.5561(2) 0.57490(8)
C23 C 0.29010(11) 1.65616(19) 0.56699(8)
C24 C 0.35288(12) 1.65747(19) 0.56288(9)
H27 H 0.3732 1.7245 0.5582
C25 C 0.38771(11) 1.55975(19) 0.56551(8)
C26 C 0.47919(12) 1.4709(2) 0.55974(9)
H28 H 0.5225 1.4736 0.5557
C27 C 0.39511(10) 1.36496(19) 0.57221(8)
C28 C 0.35758(11) 1.46115(18) 0.57285(8)
C29 C 0.29254(11) 1.46098(19) 0.57801(8)
H29 H 0.2721 1.3946 0.5836
C30 C 0.46938(12) 1.1989(2) 0.65193(9)
H30 H 0.4507 1.2680 0.6553
C31 C 0.51403(13) 1.1608(2) 0.68614(9)
H31 H 0.5282 1.2042 0.7129
C32 C 0.53871(12) 1.0563(2) 0.68118(10)
H32 H 0.5684 1.0298 0.7059
C33 C 0.48088(10) 1.03180(19) 0.60856(8)
C34 C 0.46560(12) 0.96551(19) 0.56755(9)
C35 C 0.42110(12) 1.0001(2) 0.53235(9)
H33 H 0.4107 0.9562 0.5051
C36 C 0.39057(12) 1.1003(2) 0.53618(9)
H34 H 0.3593 1.1223 0.5116
C37 C 0.40470(10) 1.16665(18) 0.57428(8)
C38 C 0.45114(10) 1.13435(18) 0.61135(8)
O8 O 0.33777(8) 0.52625(15) 0.30277(6)
H35 H 0.3672 0.4811 0.3076
C39 C 0.33527(15) 0.5777(3) 0.34792(11)
H36 H 0.3774 0.6017 0.3607
H37 H 0.3195 0.5259 0.3698
H38 H 0.3071 0.6407 0.3440
O9 O 0.46818(9) 0.77892(17) 0.47978(8)
H39 H 0.4959 0.7400 0.4698
C40 C 0.40987(15) 0.7447(3) 0.45378(12)
H40 H 0.3761 0.7935 0.4608
H41 H 0.4003 0.6704 0.4630
H42 H 0.4135 0.7468 0.4198
loop_
_geom_bond_atom_site_label_1
_geom_bond_atom_site_label_2
_geom_bond_site_symmetry_1
_geom_bond_site_symmetry_2
O1 C1 1_555 1_555
O2 C2 1_555 1_555
O3 H1 1_555 1_555
N1 C6 1_555 1_555
N2 C13 1_555 1_555
N3 C7 1_555 1_555
N4 H2 1_555 1_555
C1 H3 1_555 1_555
H4 C1 1_555 1_555
H5 C1 1_555 1_555
C2 H6 1_555 1_555
H7 C2 1_555 1_555
H8 C2 1_555 1_555
C3 O1 1_555 1_555
C4 O2 1_555 1_555
C5 C4 1_555 1_555
H9 C5 1_555 1_555
C6 C5 1_555 1_555
C7 N1 1_555 1_555
H10 C7 1_555 1_555
C8 N3 1_555 1_555
C9 C6 1_555 1_555
C10 C3 1_555 1_555
H11 C10 1_555 1_555
C11 H12 1_555 1_555
C12 C11 1_555 1_555
H13 C12 1_555 1_555
C13 C12 1_555 1_555
H14 C13 1_555 1_555
C14 N2 1_555 1_555
C15 O3 1_555 1_555
C16 C15 1_555 1_555
H15 C16 1_555 1_555
C17 C16 1_555 1_555
H16 C17 1_555 1_555
C18 N4 1_555 1_555
C19 C11 1_555 1_555
O4 H17 1_555 1_555
H18 O4 1_555 1_555
O5 C20 1_555 1_555
O6 C21 1_555 1_555
O7 H19 1_555 1_555
N5 C25 1_555 1_555
N6 C26 1_555 1_555
N7 H20 1_555 1_555
N8 C32 1_555 1_555
C20 H21 1_555 1_555
H22 C20 1_555 1_555
H23 C20 1_555 1_555
C21 H24 1_555 1_555
H25 C21 1_555 1_555
H26 C21 1_555 1_555
C22 O5 1_555 1_555
C23 O6 1_555 1_555
C24 C23 1_555 1_555
H27 C24 1_555 1_555
C25 C24 1_555 1_555
C26 N5 1_555 1_555
H28 C26 1_555 1_555
C27 N6 1_555 1_555
C28 C25 1_555 1_555
C29 C22 1_555 1_555
H29 C29 1_555 1_555
C30 H30 1_555 1_555
C31 C30 1_555 1_555
H31 C31 1_555 1_555
C32 C31 1_555 1_555
H32 C32 1_555 1_555
C33 N8 1_555 1_555
C34 O7 1_555 1_555
C35 C34 1_555 1_555
H33 C35 1_555 1_555
C36 C35 1_555 1_555
H34 C36 1_555 1_555
C37 N7 1_555 1_555
C38 C30 1_555 1_555
O8 H35 1_555 1_555
C39 O8 1_555 1_555
H36 C39 1_555 1_555
H37 C39 1_555 1_555
H38 C39 1_555 1_555
O9 H39 1_555 1_555
C40 O9 1_555 1_555
H40 C40 1_555 1_555
H41 C40 1_555 1_555
H42 C40 1_555 1_555
N4 C8 1_555 1_555
C3 C4 1_555 1_555
C8 C9 1_555 1_555
C9 C10 1_555 1_555
C14 C15 1_555 1_555
C14 C19 1_555 1_555
C17 C18 1_555 1_555
C18 C19 1_555 1_555
N7 C27 1_555 1_555
C22 C23 1_555 1_555
C27 C28 1_555 1_555
C28 C29 1_555 1_555
C33 C34 1_555 1_555
C33 C38 1_555 1_555
C36 C37 1_555 1_555
C37 C38 1_555 1_555

#END
