
#######################################################################
#
#                 Cambridge Crystallographic Data Centre
#                                CCDC 
#
#######################################################################
#
# If this CIF has been generated from an entry in the Cambridge 
# Structural Database, then it will include bibliographic, chemical, 
# crystal, experimental, refinement or atomic coordinate data resulting 
# from the CCDC's data processing and validation procedures.
#
#######################################################################

data_SIKNAD
_chemical_formula_moiety         'C22 H20 N3 O2 1+,0.5(O4 S1 2-),2(C1 H4 O1)'
_chemical_name_systematic        
'4-(Biphenyl-4-ylamino)-6,7-dimethoxyquinazolin-1-ium hemikis(sulfate) methanol solvate'
_symmetry_cell_setting           triclinic
_symmetry_space_group_name_H-M   'P -1'
_symmetry_Int_Tables_number      2
_space_group_name_Hall           '-P 1'
loop_
_symmetry_equiv_pos_site_id
_symmetry_equiv_pos_as_xyz
1 x,y,z
2 -x,-y,-z
_cell_length_a                   8.19780(10)
_cell_length_b                   12.4307(2)
_cell_length_c                   23.7117(5)
_cell_angle_alpha                103.85
_cell_angle_beta                 92.8310(10)
_cell_angle_gamma                98.3550(10)
_cell_volume                     2312.25
_exptl_crystal_colour            yellow
_exptl_crystal_description       plate
_cell_formula_units_Z            4
loop_
_atom_site_label
_atom_site_type_symbol
_atom_site_fract_x
_atom_site_fract_y
_atom_site_fract_z
S1 S 0.8845(4) 0.4360(2) 0.24459(11)
O1 O 0.7431(6) 0.4691(3) 0.2164(2)
O2 O 1.0024(7) 0.4045(3) 0.20115(18)
O3 O 0.8240(4) 0.3376(2) 0.26698(13)
O4 O 0.9618(4) 0.5282(2) 0.29315(12)
O7 O 0.0487(4) 0.8257(2) 0.08128(12)
O8 O 0.0588(3) 0.8712(2) -0.01692(12)
N1 N 0.2733(4) 0.4432(3) 0.05401(14)
H1 H 0.2374 0.4887 0.0835
N2 N 0.3157(4) 0.4051(3) -0.04381(15)
N3 N 0.2451(4) 0.5230(3) -0.10140(14)
H2 H 0.2158 0.5249 -0.1402
C1 C 0.6120(6) -0.0997(4) 0.1613(2)
H3 H 0.6491 -0.1593 0.1744
C2 C 0.6651(6) 0.0102(4) 0.19120(19)
H4 H 0.7392 0.0266 0.2254
C3 C 0.6124(5) 0.0963(3) 0.17224(17)
H5 H 0.6520 0.1716 0.1932
C4 C 0.5022(5) 0.0758(3) 0.12296(17)
C5 C 0.4480(5) -0.0355(3) 0.09352(19)
H6 H 0.3712 -0.0523 0.0601
C6 C 0.5032(6) -0.1221(4) 0.1117(2)
H7 H 0.4666 -0.1975 0.0902
C7 C 0.4437(5) 0.1700(3) 0.10359(17)
C8 C 0.4454(5) 0.2741(3) 0.14230(18)
H8 H 0.4851 0.2852 0.1819
C9 C 0.3910(5) 0.3609(3) 0.12433(17)
H9 H 0.3936 0.4308 0.1518
C10 C 0.3324(5) 0.3487(3) 0.06691(17)
C11 C 0.3298(5) 0.2459(3) 0.02733(18)
H10 H 0.2914 0.2356 -0.0124
C12 C 0.3833(5) 0.1587(3) 0.04588(18)
H11 H 0.3790 0.0885 0.0185
C13 C 0.2649(5) 0.4725(3) 0.00335(17)
C14 C 0.3024(5) 0.4334(3) -0.09355(18)
H12 H 0.3369 0.3851 -0.1267
C15 C 0.1968(5) 0.5983(3) -0.05497(17)
C16 C 0.1468(5) 0.6963(3) -0.06291(17)
H13 H 0.1436 0.7113 -0.1004
C17 C 0.1020(5) 0.7712(3) -0.01594(18)
C18 C 0.1019(5) 0.7462(3) 0.03938(17)
C19 C 0.1511(5) 0.6505(3) 0.04693(17)
H14 H 0.1502 0.6351 0.0843
C20 C 0.2032(5) 0.5739(3) 0.00014(16)
C21 C 0.0536(6) 0.8105(4) 0.13923(19)
H15 H -0.0120 0.7379 0.1391
H16 H 0.0077 0.8709 0.1648
H17 H 0.1685 0.8123 0.1535
C22 C 0.0442(6) 0.8980(4) -0.07268(19)
H18 H 0.1525 0.9025 -0.0885
H19 H 0.0054 0.9703 -0.0678
H20 H -0.0351 0.8393 -0.0996
O9 O 1.1353(3) 0.8666(2) 0.57523(11)
O10 O 0.9806(3) 0.8647(2) 0.47965(11)
N4 N 1.3315(4) 0.4763(2) 0.54222(13)
H21 H 1.3444 0.5376 0.5709
N5 N 1.2330(4) 0.3959(2) 0.44563(13)
N6 N 1.0911(4) 0.4947(2) 0.39222(13)
H22 H 1.0611 0.4922 0.3528
C23 C 1.7467(5) -0.0337(3) 0.6555(2)
H23 H 1.7985 -0.0867 0.6698
C24 C 1.6635(5) 0.0402(3) 0.6922(2)
H24 H 1.6550 0.0363 0.7315
C25 C 1.5928(5) 0.1195(3) 0.67154(19)
H25 H 1.5347 0.1692 0.6968
C26 C 1.6059(4) 0.1277(3) 0.61411(18)
C27 C 1.6840(5) 0.0502(3) 0.57741(19)
H26 H 1.6898 0.0518 0.5377
C28 C 1.7536(5) -0.0295(3) 0.5983(2)
H27 H 1.8067 -0.0819 0.5727
C29 C 1.5361(4) 0.2171(3) 0.59348(17)
C30 C 1.5125(5) 0.3159(3) 0.63243(18)
H28 H 1.5443 0.3269 0.6727
C31 C 1.4442(5) 0.3981(3) 0.61418(18)
H29 H 1.4281 0.4639 0.6420
C32 C 1.3987(4) 0.3856(3) 0.55544(16)
C33 C 1.4255(4) 0.2895(3) 0.51555(17)
H30 H 1.3984 0.2801 0.4751
C34 C 1.4919(4) 0.2077(3) 0.53509(16)
H31 H 1.5079 0.1419 0.5073
C35 C 1.2506(4) 0.4837(3) 0.49248(16)
C36 C 1.1544(5) 0.4058(3) 0.39797(17)
H32 H 1.1422 0.3437 0.3648
C37 C 1.1023(4) 0.5866(3) 0.43847(15)
C38 C 1.0325(4) 0.6801(3) 0.43245(16)
H33 H 0.9780 0.6807 0.3962
C39 C 1.0438(4) 0.7704(3) 0.47935(16)
C40 C 1.1289(5) 0.7698(3) 0.53295(16)
C41 C 1.1958(4) 0.6796(3) 0.53894(16)
H34 H 1.2510 0.6804 0.5753
C42 C 1.1844(4) 0.5842(3) 0.49169(16)
C43 C 1.2322(6) 0.8777(3) 0.62848(18)
H35 H 1.1861 0.8194 0.6473
H36 H 1.2308 0.9519 0.6544
H37 H 1.3464 0.8695 0.6203
C44 C 0.8973(5) 0.8703(3) 0.42590(17)
H38 H 0.9757 0.8666 0.3959
H39 H 0.8535 0.9410 0.4317
H40 H 0.8061 0.8071 0.4135
O11 O 0.7179(5) 0.6956(3) 0.23091(15)
H41 H 0.7313 0.6277 0.2356
C45 C 0.8360(7) 0.7725(4) 0.2707(2)
H42 H 0.8647 0.8401 0.2565
H43 H 0.9354 0.7388 0.2748
H44 H 0.7909 0.7926 0.3086
O12 O 1.3818(4) 0.6518(2) 0.65177(11)
H45 H 1.2933 0.6464 0.6814
C46 C 1.5307(6) 0.7090(4) 0.6792(2)
H46 H 1.5131 0.7764 0.7080
H47 H 1.6015 0.7308 0.6503
H48 H 1.5843 0.6608 0.6989
O13 O 1.0478(4) 0.1979(3) 0.27518(14)
H49 H 0.9785 0.2499 0.2717
C47 C 1.1151(7) 0.1586(5) 0.2224(2)
H50 H 1.1520 0.2218 0.2056
H51 H 1.0308 0.1043 0.1952
H52 H 1.2097 0.1221 0.2294
O14 O 0.1684(4) 0.5629(2) 0.16243(12)
H53 H 0.1109 0.5184 0.1801
C48 C 0.2766(6) 0.6312(4) 0.2105(2)
H54 H 0.3592 0.6817 0.1965
H55 H 0.3326 0.5833 0.2297
H56 H 0.2126 0.6756 0.2384
S2? S 0.8374(13) 0.4479(6) 0.2517(4)
O5? O 0.6826(14) 0.4925(10) 0.2495(8)
O6? O 0.901(2) 0.4289(10) 0.1930(4)
loop_
_geom_bond_atom_site_label_1
_geom_bond_atom_site_label_2
_geom_bond_site_symmetry_1
_geom_bond_site_symmetry_2
S1 O1 1_555 1_555
O2 S1 1_555 1_555
O3 S1 1_555 1_555
O4 S1 1_555 1_555
O7 C18 1_555 1_555
O8 C17 1_555 1_555
N1 H1 1_555 1_555
N2 C13 1_555 1_555
N3 H2 1_555 1_555
C1 H3 1_555 1_555
C2 C1 1_555 1_555
H4 C2 1_555 1_555
C3 C2 1_555 1_555
H5 C3 1_555 1_555
C4 C3 1_555 1_555
C5 C4 1_555 1_555
H6 C5 1_555 1_555
C6 C1 1_555 1_555
H7 C6 1_555 1_555
C7 C4 1_555 1_555
C8 C7 1_555 1_555
H8 C8 1_555 1_555
C9 C8 1_555 1_555
H9 C9 1_555 1_555
C10 N1 1_555 1_555
C11 C10 1_555 1_555
H10 C11 1_555 1_555
C12 C7 1_555 1_555
H11 C12 1_555 1_555
C13 N1 1_555 1_555
C14 N2 1_555 1_555
H12 C14 1_555 1_555
C15 N3 1_555 1_555
C16 C15 1_555 1_555
H13 C16 1_555 1_555
C17 C16 1_555 1_555
C18 C17 1_555 1_555
C19 C18 1_555 1_555
H14 C19 1_555 1_555
C20 C13 1_555 1_555
C21 O7 1_555 1_555
H15 C21 1_555 1_555
H16 C21 1_555 1_555
H17 C21 1_555 1_555
C22 O8 1_555 1_555
H18 C22 1_555 1_555
H19 C22 1_555 1_555
H20 C22 1_555 1_555
O9 C40 1_555 1_555
O10 C39 1_555 1_555
N4 H21 1_555 1_555
N5 C35 1_555 1_555
N6 H22 1_555 1_555
C23 H23 1_555 1_555
C24 C23 1_555 1_555
H24 C24 1_555 1_555
C25 C24 1_555 1_555
H25 C25 1_555 1_555
C26 C25 1_555 1_555
C27 C26 1_555 1_555
H26 C27 1_555 1_555
C28 C23 1_555 1_555
H27 C28 1_555 1_555
C29 C26 1_555 1_555
C30 C29 1_555 1_555
H28 C30 1_555 1_555
C31 C30 1_555 1_555
H29 C31 1_555 1_555
C32 N4 1_555 1_555
C33 C32 1_555 1_555
H30 C33 1_555 1_555
C34 C29 1_555 1_555
H31 C34 1_555 1_555
C35 N4 1_555 1_555
C36 N5 1_555 1_555
H32 C36 1_555 1_555
C37 N6 1_555 1_555
C38 C37 1_555 1_555
H33 C38 1_555 1_555
C39 C38 1_555 1_555
C40 C39 1_555 1_555
C41 C40 1_555 1_555
H34 C41 1_555 1_555
C42 C35 1_555 1_555
C43 O9 1_555 1_555
H35 C43 1_555 1_555
H36 C43 1_555 1_555
H37 C43 1_555 1_555
C44 O10 1_555 1_555
H38 C44 1_555 1_555
H39 C44 1_555 1_555
H40 C44 1_555 1_555
O11 H41 1_555 1_555
C45 O11 1_555 1_555
H42 C45 1_555 1_555
H43 C45 1_555 1_555
H44 C45 1_555 1_555
O12 H45 1_555 1_555
C46 O12 1_555 1_555
H46 C46 1_555 1_555
H47 C46 1_555 1_555
H48 C46 1_555 1_555
O13 H49 1_555 1_555
C47 O13 1_555 1_555
H50 C47 1_555 1_555
H51 C47 1_555 1_555
H52 C47 1_555 1_555
O14 H53 1_555 1_555
C48 O14 1_555 1_555
H54 C48 1_555 1_555
H55 C48 1_555 1_555
H56 C48 1_555 1_555
N3 C14 1_555 1_555
C5 C6 1_555 1_555
C9 C10 1_555 1_555
C11 C12 1_555 1_555
C15 C20 1_555 1_555
C19 C20 1_555 1_555
N6 C36 1_555 1_555
C27 C28 1_555 1_555
C31 C32 1_555 1_555
C33 C34 1_555 1_555
C37 C42 1_555 1_555
C41 C42 1_555 1_555

#END
