
#######################################################################
#
#                 Cambridge Crystallographic Data Centre
#                                CCDC 
#
#######################################################################
#
# If this CIF has been generated from an entry in the Cambridge 
# Structural Database, then it will include bibliographic, chemical, 
# crystal, experimental, refinement or atomic coordinate data resulting 
# from the CCDC's data processing and validation procedures.
#
#######################################################################

data_SIKPAG
_chemical_formula_moiety         'C14 H12 O1 S1'
_chemical_name_systematic        3-methoxy-7-methyldibenzo[b,d]thiophene
_symmetry_cell_setting           monoclinic
_symmetry_space_group_name_H-M   'P 21/c'
_symmetry_Int_Tables_number      14
_space_group_name_Hall           '-P 2ybc'
loop_
_symmetry_equiv_pos_site_id
_symmetry_equiv_pos_as_xyz
1 x,y,z
2 -x,1/2+y,1/2-z
3 -x,-y,-z
4 x,1/2-y,1/2+z
_cell_length_a                   7.941(9)
_cell_length_b                   7.849(9)
_cell_length_c                   19.695(19)
_cell_angle_alpha                90
_cell_angle_beta                 107.00(4)
_cell_angle_gamma                90
_cell_volume                     1173.93
_exptl_crystal_colour            colorless
_exptl_crystal_description       prism
_chemical_melting_point          '371-372 K'
_cell_formula_units_Z            4
_exptl_crystal_recrystallization_method hexane
loop_
_atom_site_label
_atom_site_type_symbol
_atom_site_fract_x
_atom_site_fract_y
_atom_site_fract_z
S1 S 0.16128(7) -0.32415(7) -0.39893(3)
O1 O 0.0614(2) -0.15868(19) -0.15572(8)
C1 C 0.4248(3) -0.2719(3) -0.46641(10)
H1 H 0.3601 -0.3353 -0.5052
C2 C 0.5872(3) -0.2040(3) -0.46579(11)
C3 C 0.6791(3) -0.1080(3) -0.40719(12)
H2 H 0.7872 -0.0615 -0.4066
C4 C 0.6157(3) -0.0797(3) -0.35003(11)
H3 H 0.6803 -0.0144 -0.3119
C5 C 0.4540(3) -0.1492(2) -0.34960(10)
C6 C 0.3594(3) -0.2447(3) -0.40885(10)
C7 C 0.3632(2) -0.1407(2) -0.29563(10)
C8 C 0.4132(3) -0.0582(3) -0.22974(11)
H4 H 0.5180 0.0030 -0.2159
C9 C 0.3082(3) -0.0671(3) -0.18557(11)
H5 H 0.3419 -0.0110 -0.1421
C10 C 0.1509(3) -0.1599(2) -0.20525(11)
C11 C 0.0955(3) -0.2420(2) -0.27012(10)
H6 H -0.0099 -0.3023 -0.2837
C12 C 0.6629(4) -0.2324(4) -0.52671(13)
H7 H 0.7756 -0.1776 -0.5165
H8 H 0.5849 -0.1850 -0.5693
H9 H 0.6765 -0.3523 -0.5331
C13 C -0.0900(4) -0.2624(4) -0.16765(16)
H10 H -0.1396 -0.2498 -0.1289
H11 H -0.0578 -0.3793 -0.1710
H12 H -0.1753 -0.2288 -0.2111
C14 C 0.2033(3) -0.2309(2) -0.31452(10)
loop_
_geom_bond_atom_site_label_1
_geom_bond_atom_site_label_2
_geom_bond_site_symmetry_1
_geom_bond_site_symmetry_2
S1 C6 1_555 1_555
O1 C10 1_555 1_555
C1 H1 1_555 1_555
C2 C1 1_555 1_555
C3 C2 1_555 1_555
H2 C3 1_555 1_555
C4 C3 1_555 1_555
H3 C4 1_555 1_555
C5 C4 1_555 1_555
C6 C1 1_555 1_555
C7 C5 1_555 1_555
C8 C7 1_555 1_555
H4 C8 1_555 1_555
C9 C8 1_555 1_555
H5 C9 1_555 1_555
C10 C9 1_555 1_555
C11 C10 1_555 1_555
H6 C11 1_555 1_555
C12 C2 1_555 1_555
H7 C12 1_555 1_555
H8 C12 1_555 1_555
H9 C12 1_555 1_555
C13 O1 1_555 1_555
H10 C13 1_555 1_555
H11 C13 1_555 1_555
H12 C13 1_555 1_555
C14 S1 1_555 1_555
C5 C6 1_555 1_555
C7 C14 1_555 1_555
C11 C14 1_555 1_555

#END
