
#######################################################################
#
#                 Cambridge Crystallographic Data Centre
#                                CCDC 
#
#######################################################################
#
# If this CIF has been generated from an entry in the Cambridge 
# Structural Database, then it will include bibliographic, chemical, 
# crystal, experimental, refinement or atomic coordinate data resulting 
# from the CCDC's data processing and validation procedures.
#
#######################################################################

data_SIKSEK
_chemical_formula_moiety         'C15 H15 N1 O4'
_chemical_name_systematic        
2-(3-Methoxycarbonylpropylamino)-1,4-naphthoquinone
_symmetry_cell_setting           monoclinic
_symmetry_space_group_name_H-M   'P 21/c'
_symmetry_Int_Tables_number      14
_space_group_name_Hall           '-P 2ybc'
loop_
_symmetry_equiv_pos_site_id
_symmetry_equiv_pos_as_xyz
1 x,y,z
2 -x,1/2+y,1/2-z
3 -x,-y,-z
4 x,1/2-y,1/2+z
_cell_length_a                   12.514(2)
_cell_length_b                   4.960(2)
_cell_length_c                   21.520(4)
_cell_angle_alpha                90
_cell_angle_beta                 104.38(2)
_cell_angle_gamma                90
_cell_volume                     1293.89
_exptl_crystal_colour            orange
_chemical_melting_point          128deg.C
_cell_formula_units_Z            4
loop_
_atom_site_label
_atom_site_type_symbol
_atom_site_fract_x
_atom_site_fract_y
_atom_site_fract_z
O1 O 0.5903(3) 0.2431(8) 1.0089(2)
O2 O 0.6483(3) -0.3277(8) 0.8092(2)
O3 O 0.1167(3) 0.3511(8) 0.7773(2)
O4 O 0.1121(3) 0.5410(9) 0.6822(2)
N1 N 0.4632(3) 0.3614(9) 0.8929(2)
C1 C 0.6069(4) 0.1141(10) 0.9644(2)
C2 C 0.5398(4) 0.1672(11) 0.8973(2)
C3 C 0.5567(4) 0.0225(11) 0.8465(2)
C4 C 0.6361(4) -0.1892(11) 0.8546(2)
C5 C 0.7067(4) -0.2466(10) 0.9203(2)
C6 C 0.7854(4) -0.4489(11) 0.9292(3)
C7 C 0.8509(4) -0.5003(13) 0.9901(3)
C8 C 0.8377(4) -0.3521(12) 1.0421(3)
C9 C 0.7575(4) -0.1523(12) 1.0344(2)
C10 C 0.6922(4) -0.0995(10) 0.9727(2)
C11 C 0.3908(4) 0.4327(10) 0.8308(2)
C12 C 0.3097(4) 0.6527(11) 0.8378(2)
C13 C 0.2364(4) 0.7252(10) 0.7719(2)
C14 C 0.1510(4) 0.5167(11) 0.7458(2)
C15 C 0.0246(5) 0.3591(15) 0.6532(3)
H1 H 0.4553(3) 0.4654(9) 0.9356(2)
H2 H 0.5084(4) 0.0699(11) 0.7988(2)
H3 H 0.7957(4) -0.5662(11) 0.8888(3)
H4 H 0.9126(4) -0.6571(13) 0.9970(3)
H5 H 0.8902(4) -0.3919(12) 1.0892(3)
H6 H 0.7460(4) -0.0399(12) 1.0752(2)
H7 H 0.4403(4) 0.5040(10) 0.7996(2)
H8 H 0.3452(4) 0.2560(10) 0.8100(2)
H9 H 0.2589(4) 0.5813(11) 0.8682(2)
H10 H 0.3548(4) 0.8293(11) 0.8591(2)
H11 H 0.2881(4) 0.7489(10) 0.7388(2)
H12 H 0.1953(4) 0.9135(10) 0.7758(2)
H13 H -0.0003(5) 0.3957(15) 0.6022(3)
H14 H -0.0448(5) 0.3910(15) 0.6738(3)
H15 H 0.0532(5) 0.1537(15) 0.6618(3)
loop_
_geom_bond_atom_site_label_1
_geom_bond_atom_site_label_2
_geom_bond_site_symmetry_1
_geom_bond_site_symmetry_2
O1 C1 1_555 1_555
O2 C4 1_555 1_555
O3 C14 1_555 1_555
O4 C14 1_555 1_555
N1 C2 1_555 1_555
C1 C2 1_555 1_555
C2 C3 1_555 1_555
C3 C4 1_555 1_555
C4 C5 1_555 1_555
C5 C6 1_555 1_555
C6 C7 1_555 1_555
C7 C8 1_555 1_555
C8 C9 1_555 1_555
C9 C10 1_555 1_555
C10 C1 1_555 1_555
C11 N1 1_555 1_555
C12 C11 1_555 1_555
C13 C12 1_555 1_555
C14 C13 1_555 1_555
C15 O4 1_555 1_555
H1 N1 1_555 1_555
H2 C3 1_555 1_555
H3 C6 1_555 1_555
H4 C7 1_555 1_555
H5 C8 1_555 1_555
H6 C9 1_555 1_555
H7 C11 1_555 1_555
H8 C11 1_555 1_555
H9 C12 1_555 1_555
H10 C12 1_555 1_555
H11 C13 1_555 1_555
H12 C13 1_555 1_555
H13 C15 1_555 1_555
H14 C15 1_555 1_555
H15 C15 1_555 1_555
C5 C10 1_555 1_555

#END
