
#######################################################################
#
#                 Cambridge Crystallographic Data Centre
#                                CCDC 
#
#######################################################################
#
# If this CIF has been generated from an entry in the Cambridge 
# Structural Database, then it will include bibliographic, chemical, 
# crystal, experimental, refinement or atomic coordinate data resulting 
# from the CCDC's data processing and validation procedures.
#
#######################################################################

data_SIKWEP
_chemical_name_common            HT-TDA-HT
_chemical_formula_moiety         'C22 H30 N2 S3'
_chemical_name_systematic        
2,5-bis(4-n-hexylthiophen-2-yl)-1,3,4-thiadiazole
_symmetry_cell_setting           orthorhombic
_symmetry_space_group_name_H-M   'P b c n'
_symmetry_Int_Tables_number      60
_space_group_name_Hall           '-P 2n 2ab'
loop_
_symmetry_equiv_pos_site_id
_symmetry_equiv_pos_as_xyz
1 x,y,z
2 1/2-x,1/2-y,1/2+z
3 -x,y,1/2-z
4 1/2+x,1/2-y,-z
5 -x,-y,-z
6 1/2+x,1/2+y,1/2-z
7 x,-y,1/2+z
8 1/2-x,1/2+y,z
_cell_length_a                   38.741(4)
_cell_length_b                   12.0548(14)
_cell_length_c                   9.6188(11)
_cell_angle_alpha                90
_cell_angle_beta                 90
_cell_angle_gamma                90
_cell_volume                     4492.12
_exptl_crystal_colour            'light yellow'
_exptl_crystal_description       Sheet
_chemical_melting_point          '52-53 deg.C'
_cell_formula_units_Z            8
loop_
_atom_site_label
_atom_site_type_symbol
_atom_site_fract_x
_atom_site_fract_y
_atom_site_fract_z
C1 C 0.22573(9) 0.5748(3) 0.2922(4)
C2 C 0.18162(9) 0.5764(3) 0.1214(4)
C3 C 0.25315(9) 0.5544(3) 0.3929(4)
C4 C 0.26862(9) 0.4558(3) 0.4285(4)
H1 H 0.2634 0.3867 0.3860
C5 C 0.29342(9) 0.4693(3) 0.5363(4)
C6 C 0.29624(9) 0.5774(3) 0.5758(4)
H2 H 0.3117 0.6021 0.6461
C7 C 0.15625(9) 0.5579(3) 0.0112(4)
C8 C 0.14323(9) 0.4597(3) -0.0365(4)
H3 H 0.1502 0.3894 -0.0019
C9 C 0.11823(9) 0.4730(3) -0.1428(4)
C10 C 0.11329(10) 0.5826(3) -0.1726(4)
H4 H 0.0975 0.6082 -0.2409
C11 C 0.31637(10) 0.3788(4) 0.5912(5)
H5 H 0.3028 0.3096 0.5999
H6 H 0.3246 0.3995 0.6851
C12 C 0.34767(11) 0.3571(3) 0.4971(5)
H7 H 0.3631 0.3038 0.5445
H8 H 0.3395 0.3216 0.4104
C13 C 0.36843(11) 0.4586(4) 0.4589(5)
H9 H 0.3751 0.4976 0.5455
H10 H 0.3535 0.5094 0.4047
C14 C 0.40080(10) 0.4357(4) 0.3755(5)
H11 H 0.4163 0.3887 0.4322
H12 H 0.3943 0.3924 0.2920
C15 C 0.42063(12) 0.5364(4) 0.3292(6)
H13 H 0.4266 0.5814 0.4119
H14 H 0.4057 0.5821 0.2685
C16 C 0.45340(12) 0.5084(5) 0.2514(7)
H15 H 0.4685 0.4638 0.3111
H16 H 0.4653 0.5771 0.2253
H17 H 0.4477 0.4663 0.1674
C17 C 0.09943(10) 0.3780(3) -0.2095(4)
H18 H 0.0901 0.3297 -0.1352
H19 H 0.1162 0.3337 -0.2636
C18 C 0.06983(9) 0.4111(3) -0.3053(4)
H20 H 0.0537 0.4592 -0.2529
H21 H 0.0793 0.4555 -0.3831
C19 C 0.04971(10) 0.3145(3) -0.3652(5)
H22 H 0.0408 0.2682 -0.2882
H23 H 0.0654 0.2680 -0.4219
C20 C 0.01960(10) 0.3532(4) -0.4552(5)
H24 H 0.0048 0.4028 -0.3989
H25 H 0.0289 0.3974 -0.5334
C21 C -0.00273(11) 0.2607(4) -0.5143(5)
H26 H 0.0115 0.2139 -0.5766
H27 H -0.0111 0.2135 -0.4372
C22 C -0.03353(11) 0.3053(4) -0.5951(5)
H28 H -0.0474 0.3531 -0.5345
H29 H -0.0477 0.2432 -0.6278
H30 H -0.0253 0.3483 -0.6750
N1 N 0.21333(8) 0.6746(3) 0.2710(4)
N2 N 0.18791(8) 0.6751(3) 0.1717(4)
S1 S 0.20652(2) 0.47268(8) 0.19365(10)
S2 S 0.26935(2) 0.66419(8) 0.48663(11)
S3 S 0.13851(3) 0.66947(9) -0.07456(11)
loop_
_geom_bond_atom_site_label_1
_geom_bond_atom_site_label_2
_geom_bond_site_symmetry_1
_geom_bond_site_symmetry_2
C1 C3 1_555 1_555
C2 C7 1_555 1_555
C3 C4 1_555 1_555
C4 H1 1_555 1_555
C5 C4 1_555 1_555
C6 C5 1_555 1_555
H2 C6 1_555 1_555
C7 C8 1_555 1_555
C8 H3 1_555 1_555
C9 C8 1_555 1_555
C10 C9 1_555 1_555
H4 C10 1_555 1_555
C11 C5 1_555 1_555
H5 C11 1_555 1_555
H6 C11 1_555 1_555
C12 C11 1_555 1_555
H7 C12 1_555 1_555
H8 C12 1_555 1_555
C13 C12 1_555 1_555
H9 C13 1_555 1_555
H10 C13 1_555 1_555
C14 C13 1_555 1_555
H11 C14 1_555 1_555
H12 C14 1_555 1_555
C15 C14 1_555 1_555
H13 C15 1_555 1_555
H14 C15 1_555 1_555
C16 C15 1_555 1_555
H15 C16 1_555 1_555
H16 C16 1_555 1_555
H17 C16 1_555 1_555
C17 C9 1_555 1_555
H18 C17 1_555 1_555
H19 C17 1_555 1_555
C18 C17 1_555 1_555
H20 C18 1_555 1_555
H21 C18 1_555 1_555
C19 C18 1_555 1_555
H22 C19 1_555 1_555
H23 C19 1_555 1_555
C20 C19 1_555 1_555
H24 C20 1_555 1_555
H25 C20 1_555 1_555
C21 C20 1_555 1_555
H26 C21 1_555 1_555
H27 C21 1_555 1_555
C22 C21 1_555 1_555
H28 C22 1_555 1_555
H29 C22 1_555 1_555
H30 C22 1_555 1_555
N1 C1 1_555 1_555
N2 C2 1_555 1_555
S1 C1 1_555 1_555
S2 C3 1_555 1_555
S3 C7 1_555 1_555
C2 S1 1_555 1_555
C6 S2 1_555 1_555
C10 S3 1_555 1_555
N1 N2 1_555 1_555

#END
