
#######################################################################
#
#                 Cambridge Crystallographic Data Centre
#                                CCDC 
#
#######################################################################
#
# If this CIF has been generated from an entry in the Cambridge 
# Structural Database, then it will include bibliographic, chemical, 
# crystal, experimental, refinement or atomic coordinate data resulting 
# from the CCDC's data processing and validation procedures.
#
#######################################################################

data_SIKWUF
_chemical_name_common            DT-TDA-DT
_chemical_formula_moiety         'C30 H46 N2 S3'
_chemical_name_systematic        
2,5-bis(3-n-decylthiophen-2-yl)-1,3,4-thiadiazole
_symmetry_cell_setting           triclinic
_symmetry_space_group_name_H-M   'P -1'
_symmetry_Int_Tables_number      2
_space_group_name_Hall           '-P 1'
loop_
_symmetry_equiv_pos_site_id
_symmetry_equiv_pos_as_xyz
1 x,y,z
2 -x,-y,-z
_cell_length_a                   7.6833(2)
_cell_length_b                   10.8879(12)
_cell_length_c                   18.395(5)
_cell_angle_alpha                92.007(18)
_cell_angle_beta                 100.266(10)
_cell_angle_gamma                105.411(7)
_cell_volume                     1454.24
_exptl_crystal_colour            colorless
_exptl_crystal_description       plate
_chemical_melting_point          '37-38 deg.C'
_cell_formula_units_Z            2
_exptl_crystal_recrystallization_method acetonitrile/tetrahydrofuran
loop_
_atom_site_label
_atom_site_type_symbol
_atom_site_fract_x
_atom_site_fract_y
_atom_site_fract_z
C1 C 0.3988(6) 0.3259(4) 0.0332(2)
C2 C 0.5004(8) 0.1743(4) -0.0357(2)
C3 C 0.5932(6) 0.0989(5) -0.0697(3)
C4 C 0.5255(8) -0.0081(10) -0.1216(8)
C5 C 0.6716(7) -0.0547(5) -0.1383(3)
H1 H 0.6508 -0.1269 -0.1726
C6 C 0.8407(7) 0.0102(6) -0.1024(3)
H2 H 0.9504 -0.0108 -0.1076
C7 C 0.3640(6) 0.4259(5) 0.0781(3)
C8 C 0.4822(8) 0.5236(10) 0.1265(7)
C9 C 0.3847(7) 0.6035(5) 0.1542(3)
H3 H 0.4433 0.6778 0.1874
C10 C 0.2006(6) 0.5635(5) 0.1288(3)
H4 H 0.1158 0.6049 0.1429
N1 N 0.2637(5) 0.2444(3) -0.01273(19)
N2 N 0.3176(6) 0.1565(5) -0.0525(3)
S1 S 0.61151(18) 0.30053(12) 0.03105(7)
S2 S 0.83228(15) 0.13649(15) -0.04540(7)
S3 S 0.13901(15) 0.42919(15) 0.06820(7)
C11 C 0.3233(4) -0.0625(3) -0.15263(19)
H5 H 0.2545 -0.0641 -0.1118
H6 H 0.3008 -0.1519 -0.1731
C12 C 0.2493(5) 0.0129(3) -0.21327(19)
H7 H 0.1131 -0.0155 -0.2227
H8 H 0.2883 0.1046 -0.1951
C13 C 0.3124(5) -0.0015(3) -0.28564(19)
H9 H 0.2697 -0.0926 -0.3051
H10 H 0.4487 0.0248 -0.2764
C14 C 0.2401(5) 0.0782(3) -0.34326(19)
H11 H 0.2898 0.1695 -0.3246
H12 H 0.1045 0.0562 -0.3492
C15 C 0.2884(5) 0.0608(3) -0.41905(19)
H13 H 0.4238 0.0805 -0.4134
H14 H 0.2348 -0.0297 -0.4390
C16 C 0.2182(5) 0.1458(3) -0.47389(19)
H15 H 0.2708 0.2360 -0.4534
H16 H 0.0827 0.1255 -0.4794
C17 C 0.2651(5) 0.1317(3) -0.55009(19)
H17 H 0.2113 0.0418 -0.5711
H18 H 0.4004 0.1515 -0.5447
C18 C 0.1945(5) 0.2191(3) -0.60388(19)
H19 H 0.0590 0.1980 -0.6098
H20 H 0.2461 0.3087 -0.5821
C19 C 0.2431(5) 0.2090(3) -0.67995(19)
H21 H 0.1909 0.1197 -0.7022
H22 H 0.3786 0.2302 -0.6744
C20 C 0.1710(5) 0.2977(4) -0.7320(2)
H23 H 0.0365 0.2755 -0.7388
H24 H 0.2063 0.2882 -0.7801
H25 H 0.2237 0.3864 -0.7106
C21 C 0.6862(5) 0.5543(3) 0.1476(2)
H26 H 0.7368 0.6462 0.1648
H27 H 0.7365 0.5384 0.1034
C22 C 0.7489(5) 0.4750(4) 0.20881(19)
H28 H 0.6943 0.3833 0.1919
H29 H 0.8843 0.4924 0.2162
C23 C 0.6980(5) 0.5004(3) 0.28289(18)
H30 H 0.7518 0.5921 0.3003
H31 H 0.5625 0.4816 0.2762
C24 C 0.7654(5) 0.4205(3) 0.34088(18)
H32 H 0.9008 0.4401 0.3471
H33 H 0.7128 0.3292 0.3225
C25 C 0.7173(5) 0.4403(3) 0.41649(18)
H34 H 0.7735 0.5307 0.4363
H35 H 0.5822 0.4225 0.4108
C26 C 0.7849(5) 0.3539(3) 0.47139(18)
H36 H 0.7290 0.2638 0.4510
H37 H 0.9199 0.3718 0.4765
C27 C 0.7405(5) 0.3696(3) 0.54786(18)
H38 H 0.7978 0.4593 0.5688
H39 H 0.6056 0.3523 0.5431
C28 C 0.8081(5) 0.2811(3) 0.60086(19)
H40 H 0.9433 0.2999 0.6061
H41 H 0.7532 0.1918 0.5788
C29 C 0.7627(5) 0.2914(3) 0.67763(18)
H42 H 0.8188 0.3801 0.7003
H43 H 0.6277 0.2727 0.6729
C30 C 0.8318(5) 0.2004(4) 0.7281(2)
H44 H 0.7805 0.1127 0.7050
H45 H 0.7931 0.2067 0.7758
H46 H 0.9664 0.2229 0.7363
C31? C 0.496(2) 0.3248(14) 0.0354(8)
C32? C 0.6004(18) 0.1725(14) -0.0326(9)
C33? C 0.636(2) 0.0735(18) -0.0741(12)
C34? C 0.518(3) -0.027(4) -0.124(3)
C35? C 0.617(2) -0.1040(17) -0.1544(11)
H47? H 0.5581 -0.1749 -0.1900
C36? C 0.799(2) -0.0671(16) -0.1283(9)
H48? H 0.8823 -0.1116 -0.1410
C37? C 0.3999(19) 0.4021(19) 0.0699(12)
C38? C 0.472(3) 0.511(4) 0.117(3)
C39? C 0.332(2) 0.5576(17) 0.1403(10)
H49? H 0.3543 0.6246 0.1781
C40? C 0.1645(18) 0.4935(15) 0.1011(8)
H50? H 0.0563 0.5190 0.1033
N3? N 0.6798(19) 0.3474(15) 0.0515(9)
N4? N 0.7404(15) 0.2577(11) 0.0137(7)
S4? S 0.3899(9) 0.1973(6) -0.0319(3)
S5? S 0.8638(7) 0.0680(6) -0.0703(3)
S6? S 0.1645(7) 0.3604(6) 0.0462(3)
loop_
_geom_bond_atom_site_label_1
_geom_bond_atom_site_label_2
_geom_bond_site_symmetry_1
_geom_bond_site_symmetry_2
C1 C7 1_555 1_555
C2 C3 1_555 1_555
C3 C4 1_555 1_555
C4 C5 1_555 1_555
C5 H1 1_555 1_555
C6 C5 1_555 1_555
H2 C6 1_555 1_555
C7 C8 1_555 1_555
C8 C9 1_555 1_555
C9 H3 1_555 1_555
C10 C9 1_555 1_555
H4 C10 1_555 1_555
N1 C1 1_555 1_555
N2 C2 1_555 1_555
S1 C1 1_555 1_555
S2 C3 1_555 1_555
S3 C7 1_555 1_555
C11 C4 1_555 1_555
H5 C11 1_555 1_555
H6 C11 1_555 1_555
C12 C11 1_555 1_555
H7 C12 1_555 1_555
H8 C12 1_555 1_555
C13 C12 1_555 1_555
H9 C13 1_555 1_555
H10 C13 1_555 1_555
C14 C13 1_555 1_555
H11 C14 1_555 1_555
H12 C14 1_555 1_555
C15 C14 1_555 1_555
H13 C15 1_555 1_555
H14 C15 1_555 1_555
C16 C15 1_555 1_555
H15 C16 1_555 1_555
H16 C16 1_555 1_555
C17 C16 1_555 1_555
H17 C17 1_555 1_555
H18 C17 1_555 1_555
C18 C17 1_555 1_555
H19 C18 1_555 1_555
H20 C18 1_555 1_555
C19 C18 1_555 1_555
H21 C19 1_555 1_555
H22 C19 1_555 1_555
C20 C19 1_555 1_555
H23 C20 1_555 1_555
H24 C20 1_555 1_555
H25 C20 1_555 1_555
C21 C8 1_555 1_555
H26 C21 1_555 1_555
H27 C21 1_555 1_555
C22 C21 1_555 1_555
H28 C22 1_555 1_555
H29 C22 1_555 1_555
C23 C22 1_555 1_555
H30 C23 1_555 1_555
H31 C23 1_555 1_555
C24 C23 1_555 1_555
H32 C24 1_555 1_555
H33 C24 1_555 1_555
C25 C24 1_555 1_555
H34 C25 1_555 1_555
H35 C25 1_555 1_555
C26 C25 1_555 1_555
H36 C26 1_555 1_555
H37 C26 1_555 1_555
C27 C26 1_555 1_555
H38 C27 1_555 1_555
H39 C27 1_555 1_555
C28 C27 1_555 1_555
H40 C28 1_555 1_555
H41 C28 1_555 1_555
C29 C28 1_555 1_555
H42 C29 1_555 1_555
H43 C29 1_555 1_555
C30 C29 1_555 1_555
H44 C30 1_555 1_555
H45 C30 1_555 1_555
H46 C30 1_555 1_555
C2 S1 1_555 1_555
C6 S2 1_555 1_555
C10 S3 1_555 1_555
N1 N2 1_555 1_555

#END
