
#######################################################################
#
#                 Cambridge Crystallographic Data Centre
#                                CCDC 
#
#######################################################################
#
# If this CIF has been generated from an entry in the Cambridge 
# Structural Database, then it will include bibliographic, chemical, 
# crystal, experimental, refinement or atomic coordinate data resulting 
# from the CCDC's data processing and validation procedures.
#
#######################################################################

data_SIKZAQ
_chemical_formula_moiety         'C22 H20 Br1 N1 O3'
_chemical_name_systematic        
'ethyl 3-(1-benzyl-1H-pyrrol-2-yl)-2-(4-bromophenyl)-3-oxopropanoate'
_symmetry_cell_setting           triclinic
_symmetry_space_group_name_H-M   'P -1'
_symmetry_Int_Tables_number      2
_space_group_name_Hall           '-P 1'
loop_
_symmetry_equiv_pos_site_id
_symmetry_equiv_pos_as_xyz
1 x,y,z
2 -x,-y,-z
_cell_length_a                   9.1323(5)
_cell_length_b                   10.3915(8)
_cell_length_c                   11.8695(9)
_cell_angle_alpha                67.980(7)
_cell_angle_beta                 82.639(6)
_cell_angle_gamma                65.633(7)
_cell_volume                     950.739
_exptl_crystal_colour            colorless
_exptl_crystal_description       block
_cell_formula_units_Z            2
loop_
_atom_site_label
_atom_site_type_symbol
_atom_site_fract_x
_atom_site_fract_y
_atom_site_fract_z
Br1 Br 0.04952(5) 0.30812(6) 1.22839(5)
O1 O 0.8305(3) 0.2877(3) 0.8144(3)
O2 O 0.6245(3) 0.1545(3) 0.7437(3)
O3 O 0.7472(3) 0.1544(4) 0.9865(3)
N1 N 0.3619(4) 0.3425(4) 0.5589(3)
C1 C 0.4136(4) 0.3858(5) 0.6387(4)
C2 C 0.4221(4) 0.3410(5) 0.9206(4)
C3 C 0.1983(4) 0.3218(5) 1.1008(4)
C4 C 0.5395(5) 0.1605(5) 0.4606(4)
C5 C 0.3337(5) 0.4633(5) 0.9571(4)
H1 H 0.349820 0.552522 0.920747
C6 C 0.5516(4) 0.3473(5) 0.8275(4)
H2 H 0.540920 0.452235 0.786829
C7 C 0.7180(5) 0.2503(5) 0.8890(4)
C8 C 0.2210(5) 0.4537(5) 1.0476(4)
H3 H 0.161935 0.535961 1.071501
C9 C 0.2811(5) 0.1991(5) 1.0648(4)
H4 H 0.262732 0.110915 1.100024
C10 C 0.5361(5) 0.2851(5) 0.7318(4)
C11 C 0.2461(5) 0.4641(5) 0.4836(4)
H5 H 0.192766 0.464051 0.421882
C12 C 0.4161(5) 0.1881(5) 0.5562(4)
H6 H 0.323813 0.173255 0.540205
H7 H 0.462143 0.114614 0.635404
C13 C 0.7028(5) 0.0858(5) 0.4892(4)
H8 H 0.738378 0.050431 0.569362
C14 C 0.7612(5) 0.1141(5) 0.2810(4)
H9 H 0.835891 0.099888 0.221028
C15 C 0.2188(5) 0.5888(5) 0.5123(4)
H10 H 0.145227 0.686963 0.473674
C16 C 0.5999(5) 0.1852(5) 0.2504(4)
H11 H 0.564566 0.217517 0.170612
C17 C 0.3916(5) 0.2114(5) 0.9752(4)
H12 H 0.447917 0.129492 0.950283
C18 C 0.3220(4) 0.5401(5) 0.6098(4)
H13 H 0.328736 0.600056 0.649050
C19 C 0.4899(5) 0.2082(5) 0.3415(4)
H14 H 0.380484 0.256855 0.321269
C20 C 0.9957(4) 0.1915(5) 0.8612(4)
H15 H 1.018329 0.086444 0.876634
H16 H 1.012413 0.200622 0.936432
C21 C 0.8136(5) 0.0632(5) 0.4004(4)
H17 H 0.922956 0.013991 0.420614
C22 C 1.1037(5) 0.2453(6) 0.7643(5)
H18 H 1.079089 0.244149 0.688524
H19 H 1.214074 0.179611 0.787887
H20 H 1.086493 0.346443 0.754950
loop_
_geom_bond_atom_site_label_1
_geom_bond_atom_site_label_2
_geom_bond_site_symmetry_1
_geom_bond_site_symmetry_2
Br1 C3 1_555 1_555
O1 C7 1_555 1_555
O2 C10 1_555 1_555
O3 C7 1_555 1_555
N1 C1 1_555 1_555
C1 C10 1_555 1_555
C2 C5 1_555 1_555
C3 C8 1_555 1_555
C4 C12 1_555 1_555
C5 H1 1_555 1_555
C6 C2 1_555 1_555
H2 C6 1_555 1_555
C7 C6 1_555 1_555
C8 C5 1_555 1_555
H3 C8 1_555 1_555
C9 C3 1_555 1_555
H4 C9 1_555 1_555
C10 C6 1_555 1_555
C11 N1 1_555 1_555
H5 C11 1_555 1_555
C12 N1 1_555 1_555
H6 C12 1_555 1_555
H7 C12 1_555 1_555
C13 C4 1_555 1_555
H8 C13 1_555 1_555
C14 H9 1_555 1_555
C15 C11 1_555 1_555
H10 C15 1_555 1_555
C16 C14 1_555 1_555
H11 C16 1_555 1_555
C17 C2 1_555 1_555
H12 C17 1_555 1_555
C18 C1 1_555 1_555
H13 C18 1_555 1_555
C19 C4 1_555 1_555
H14 C19 1_555 1_555
C20 O1 1_555 1_555
H15 C20 1_555 1_555
H16 C20 1_555 1_555
C21 C13 1_555 1_555
H17 C21 1_555 1_555
C22 C20 1_555 1_555
H18 C22 1_555 1_555
H19 C22 1_555 1_555
H20 C22 1_555 1_555
C9 C17 1_555 1_555
C14 C21 1_555 1_555
C15 C18 1_555 1_555
C16 C19 1_555 1_555

#END
