
#######################################################################
#
#                 Cambridge Crystallographic Data Centre
#                                CCDC 
#
#######################################################################
#
# If this CIF has been generated from an entry in the Cambridge 
# Structural Database, then it will include bibliographic, chemical, 
# crystal, experimental, refinement or atomic coordinate data resulting 
# from the CCDC's data processing and validation procedures.
#
#######################################################################

data_SILFIF
_chemical_formula_moiety         'C11 H11 F1 N2 O2'
_chemical_name_systematic        
2-azaniumyl-3-(6-fluoro-1H-indol-3-yl)propanoate
_symmetry_cell_setting           monoclinic
_symmetry_space_group_name_H-M   'P 21/c'
_symmetry_Int_Tables_number      14
_space_group_name_Hall           '-P 2ybc'
loop_
_symmetry_equiv_pos_site_id
_symmetry_equiv_pos_as_xyz
1 x,y,z
2 -x,1/2+y,1/2-z
3 -x,-y,-z
4 x,1/2-y,1/2+z
_cell_length_a                   19.1378(18)
_cell_length_b                   5.7720(5)
_cell_length_c                   9.3448(8)
_cell_angle_alpha                90
_cell_angle_beta                 100.245(5)
_cell_angle_gamma                90
_cell_volume                     1015.8
_exptl_crystal_colour            colorless
_exptl_crystal_description       plate
_cell_formula_units_Z            4
loop_
_atom_site_label
_atom_site_type_symbol
_atom_site_fract_x
_atom_site_fract_y
_atom_site_fract_z
F1 F 0.51326(16) 0.5555(6) 0.2813(3)
O1 O 0.98083(15) 0.3388(5) 0.6331(3)
O2 O 0.87851(17) 0.1982(5) 0.5137(3)
N1 N 0.6864(2) 0.2276(7) 0.6677(4)
H1 H 0.667(3) 0.100(11) 0.700(6)
N2 N 0.93964(19) 0.7787(6) 0.5836(4)
H2 H 0.9709(19) 0.746(7) 0.510(4)
H3 H 0.974(3) 0.780(11) 0.679(5)
H4 H 0.917(3) 0.938(7) 0.564(7)
C1 C 0.7531(3) 0.3035(8) 0.7263(5)
H5 H 0.783601 0.231292 0.805034
C2 C 0.7698(2) 0.4960(8) 0.6562(4)
C3 C 0.7086(2) 0.5472(7) 0.5467(4)
C4 C 0.6915(2) 0.7227(8) 0.4439(5)
H6 H 0.725154 0.840239 0.434640
C5 C 0.6253(2) 0.7249(9) 0.3555(5)
H7 H 0.612876 0.844377 0.285724
C6 C 0.5774(3) 0.5496(9) 0.3704(5)
C7 C 0.5909(2) 0.3733(9) 0.4691(5)
H8 H 0.556636 0.256859 0.476849
C8 C 0.6572(2) 0.3741(8) 0.5572(4)
C9 C 0.9167(2) 0.3585(7) 0.5716(4)
C10 C 0.8834(2) 0.5979(7) 0.5657(4)
H9 H 0.852464 0.618545 0.468442
C11 C 0.8375(2) 0.6292(7) 0.6844(4)
H10 H 0.865392 0.579765 0.778996
H11 H 0.826416 0.795805 0.692055
loop_
_geom_bond_atom_site_label_1
_geom_bond_atom_site_label_2
_geom_bond_site_symmetry_1
_geom_bond_site_symmetry_2
F1 C6 1_555 1_555
O1 C9 1_555 1_555
O2 C9 1_555 1_555
N1 H1 1_555 1_555
N2 H2 1_555 1_555
H3 N2 1_555 1_555
H4 N2 1_555 1_555
C1 N1 1_555 1_555
H5 C1 1_555 1_555
C2 C1 1_555 1_555
C3 C2 1_555 1_555
C4 C3 1_555 1_555
H6 C4 1_555 1_555
C5 C4 1_555 1_555
H7 C5 1_555 1_555
C6 C5 1_555 1_555
C7 C6 1_555 1_555
H8 C7 1_555 1_555
C8 N1 1_555 1_555
C9 C10 1_555 1_555
C10 N2 1_555 1_555
H9 C10 1_555 1_555
C11 C2 1_555 1_555
H10 C11 1_555 1_555
H11 C11 1_555 1_555
C3 C8 1_555 1_555
C7 C8 1_555 1_555
C10 C11 1_555 1_555

#END
