
#######################################################################
#
#                 Cambridge Crystallographic Data Centre
#                                CCDC 
#
#######################################################################
#
# If this CIF has been generated from an entry in the Cambridge 
# Structural Database, then it will include bibliographic, chemical, 
# crystal, experimental, refinement or atomic coordinate data resulting 
# from the CCDC's data processing and validation procedures.
#
#######################################################################

data_SILFEZ
_chemical_name_common            'Pregabalin (S)-mandelic acid'
_chemical_formula_moiety         'C8 H8 O3,C8 H17 N1 O2'
_chemical_name_systematic        
'(S)-3-(Ammoniomethyl)-5-methylhexanoate (S)-mandelic acid'
_symmetry_cell_setting           monoclinic
_symmetry_space_group_name_H-M   'P 21'
_symmetry_Int_Tables_number      4
_space_group_name_Hall           'P 2yb'
loop_
_symmetry_equiv_pos_site_id
_symmetry_equiv_pos_as_xyz
1 x,y,z
2 -x,1/2+y,-z
_cell_length_a                   6.2922(13)
_cell_length_b                   27.423(6)
_cell_length_c                   10.009(2)
_cell_angle_alpha                90
_cell_angle_beta                 90.84(3)
_cell_angle_gamma                90
_cell_volume                     1726.88
_exptl_crystal_colour            colorless
_exptl_crystal_description       plate
_cell_formula_units_Z            4
loop_
_atom_site_label
_atom_site_type_symbol
_atom_site_fract_x
_atom_site_fract_y
_atom_site_fract_z
C1 C 0.1574(8) 0.34998(17) 0.3221(4)
H1 H 0.0160 0.3398 0.3511
O1 O 0.2132(5) 0.38722(12) 0.5318(3)
H2 H 0.2384 0.4126 0.5723
O2 O 0.2925(5) 0.43222(12) 0.3533(3)
C2 C 0.2282(7) 0.39496(17) 0.4026(4)
O3 O 0.1506(6) 0.35999(13) 0.1826(3)
H3 H 0.0403 0.3745 0.1636
C3 C 0.3129(7) 0.30842(18) 0.3442(4)
C4 C 0.5152(8) 0.31030(19) 0.2856(5)
H4 H 0.5557 0.3379 0.2385
C5 C 0.2604(9) 0.26761(19) 0.4164(5)
H5 H 0.1288 0.2663 0.4574
C6 C 0.5924(11) 0.2306(2) 0.3709(5)
H6 H 0.6859 0.2045 0.3796
C7 C 0.6519(9) 0.2718(2) 0.2975(5)
H7 H 0.7840 0.2729 0.2571
C8 C 0.3978(11) 0.2285(2) 0.4298(5)
H8 H 0.3583 0.2011 0.4783
O4 O 0.8185(5) 0.41070(11) 1.0833(3)
O5 O 0.5720(5) 0.42446(11) 0.9265(3)
N1 N 0.7488(6) 0.40986(13) 0.6580(3)
H9 H 0.8432 0.4193 0.7198
H10 H 0.6220 0.4223 0.6767
H11 H 0.7891 0.4203 0.5781
C9 C 0.7354(7) 0.35569(17) 0.6570(4)
H12 H 0.8756 0.3423 0.6417
H13 H 0.6429 0.3454 0.5840
C10 C 0.7182(7) 0.39958(15) 0.9754(4)
C11 C 0.6390(7) 0.27979(16) 0.7801(4)
H14 H 0.7830 0.2671 0.7808
H15 H 0.5741 0.2711 0.6949
C12 C 0.6498(7) 0.33543(16) 0.7893(4)
H16 H 0.5047 0.3477 0.7999
C13 C 0.7829(7) 0.35234(16) 0.9105(4)
H17 H 0.7787 0.3269 0.9777
H18 H 0.9293 0.3555 0.8829
C14 C 0.5157(9) 0.25445(18) 0.8912(5)
H19 H 0.5905 0.2610 0.9759
C15 C 0.5162(10) 0.19979(18) 0.8693(6)
H20 H 0.6601 0.1882 0.8684
H21 H 0.4476 0.1924 0.7854
H22 H 0.4411 0.1841 0.9403
C16 C 0.2890(11) 0.2730(2) 0.9043(9)
H23 H 0.2092 0.2651 0.8248
H24 H 0.2907 0.3077 0.9165
H25 H 0.2241 0.2578 0.9800
O6 O 0.3202(5) 0.46157(11) 0.6609(3)
O7 O 0.0740(5) 0.44728(11) 0.8170(3)
N2 N 0.2478(6) 0.46247(13) 1.0859(3)
H26 H 0.3520 0.4532 1.0323
H27 H 0.1254 0.4498 1.0568
H28 H 0.2754 0.4520 1.1685
C17 C 0.2322(7) 0.51655(17) 1.0857(4)
H29 H 0.3717 0.5303 1.1038
H30 H 0.1390 0.5267 1.1568
C18 C 0.1473(7) 0.53650(16) 0.9530(4)
H31 H 0.0023 0.5243 0.9390
C19 C 0.2197(7) 0.47262(16) 0.7684(4)
C20 C 0.2836(7) 0.52008(16) 0.8331(4)
H32 H 0.2779 0.5455 0.7656
H33 H 0.4302 0.5173 0.8634
C21 C 0.1376(8) 0.59252(15) 0.9640(4)
H34 H 0.2819 0.6050 0.9670
H35 H 0.0721 0.6009 1.0481
C22 C 0.0145(8) 0.61907(18) 0.8497(5)
H36 H 0.0888 0.6128 0.7660
C23 C 0.0182(11) 0.6735(2) 0.8746(6)
H37 H -0.0547 0.6807 0.9559
H38 H -0.0511 0.6900 0.8014
H39 H 0.1628 0.6845 0.8822
C24 C -0.2121(10) 0.6011(2) 0.8329(7)
H40 H -0.2891 0.6226 0.7741
H41 H -0.2793 0.6004 0.9184
H42 H -0.2115 0.5688 0.7957
O8 O 0.7161(5) 0.48461(11) 0.2123(3)
H43 H 0.7378 0.4591 0.1721
C25 C 0.7324(7) 0.47677(17) 0.3419(4)
O9 O 0.7914(5) 0.43870(12) 0.3910(3)
O10 O 0.6535(6) 0.51155(13) 0.5613(3)
H44 H 0.5372 0.4993 0.5760
C26 C 0.6697(7) 0.52180(16) 0.4222(4)
H45 H 0.5329 0.5341 0.3884
C27 C 0.8380(7) 0.56137(16) 0.4073(4)
C28 C 1.0324(7) 0.55679(19) 0.4744(4)
H46 H 1.0617 0.5289 0.5245
C29 C 0.7999(8) 0.60233(18) 0.3304(5)
H47 H 0.6715 0.6060 0.2842
C30 C 1.1817(8) 0.59351(18) 0.4668(4)
H48 H 1.3100 0.5902 0.5132
C31 C 0.9565(9) 0.6381(2) 0.3230(5)
H49 H 0.9322 0.6652 0.2692
C32 C 1.1461(9) 0.63459(19) 0.3927(5)
H50 H 1.2466 0.6594 0.3895
loop_
_geom_bond_atom_site_label_1
_geom_bond_atom_site_label_2
_geom_bond_site_symmetry_1
_geom_bond_site_symmetry_2
C1 H1 1_555 1_555
O1 H2 1_555 1_555
O2 C2 1_555 1_555
C2 C1 1_555 1_555
O3 C1 1_555 1_555
H3 O3 1_555 1_555
C3 C1 1_555 1_555
C4 C3 1_555 1_555
H4 C4 1_555 1_555
C5 C3 1_555 1_555
H5 C5 1_555 1_555
C6 H6 1_555 1_555
C7 C4 1_555 1_555
H7 C7 1_555 1_555
C8 C5 1_555 1_555
H8 C8 1_555 1_555
O4 C10 1_555 1_555
O5 C10 1_555 1_555
N1 H9 1_555 1_555
H10 N1 1_555 1_555
H11 N1 1_555 1_555
C9 N1 1_555 1_555
H12 C9 1_555 1_555
H13 C9 1_555 1_555
C10 C13 1_555 1_555
C11 H14 1_555 1_555
H15 C11 1_555 1_555
C12 C9 1_555 1_555
H16 C12 1_555 1_555
C13 C12 1_555 1_555
H17 C13 1_555 1_555
H18 C13 1_555 1_555
C14 C11 1_555 1_555
H19 C14 1_555 1_555
C15 C14 1_555 1_555
H20 C15 1_555 1_555
H21 C15 1_555 1_555
H22 C15 1_555 1_555
C16 C14 1_555 1_555
H23 C16 1_555 1_555
H24 C16 1_555 1_555
H25 C16 1_555 1_555
O6 C19 1_555 1_555
O7 C19 1_555 1_555
N2 H26 1_555 1_555
H27 N2 1_555 1_555
H28 N2 1_555 1_555
C17 N2 1_555 1_555
H29 C17 1_555 1_555
H30 C17 1_555 1_555
C18 C17 1_555 1_555
H31 C18 1_555 1_555
C19 C20 1_555 1_555
C20 C18 1_555 1_555
H32 C20 1_555 1_555
H33 C20 1_555 1_555
C21 C18 1_555 1_555
H34 C21 1_555 1_555
H35 C21 1_555 1_555
C22 C21 1_555 1_555
H36 C22 1_555 1_555
C23 C22 1_555 1_555
H37 C23 1_555 1_555
H38 C23 1_555 1_555
H39 C23 1_555 1_555
C24 C22 1_555 1_555
H40 C24 1_555 1_555
H41 C24 1_555 1_555
H42 C24 1_555 1_555
O8 H43 1_555 1_555
C25 O8 1_555 1_555
O9 C25 1_555 1_555
O10 H44 1_555 1_555
C26 C25 1_555 1_555
H45 C26 1_555 1_555
C27 C26 1_555 1_555
C28 C27 1_555 1_555
H46 C28 1_555 1_555
C29 C27 1_555 1_555
H47 C29 1_555 1_555
C30 C28 1_555 1_555
H48 C30 1_555 1_555
C31 C29 1_555 1_555
H49 C31 1_555 1_555
C32 C30 1_555 1_555
H50 C32 1_555 1_555
O1 C2 1_555 1_555
C6 C7 1_555 1_555
C6 C8 1_555 1_555
C11 C12 1_555 1_555
O10 C26 1_555 1_555
C31 C32 1_555 1_555

#END
