
#######################################################################
#
#                 Cambridge Crystallographic Data Centre
#                                CCDC 
#
#######################################################################
#
# If this CIF has been generated from an entry in the Cambridge 
# Structural Database, then it will include bibliographic, chemical, 
# crystal, experimental, refinement or atomic coordinate data resulting 
# from the CCDC's data processing and validation procedures.
#
#######################################################################

data_SILHUR
_chemical_formula_moiety         'C4 H12 N1 1+,C9 H13 N1 O3 P1 1-,C1 H1 Cl3'
_chemical_name_systematic        
'Diethylammonium ethyl (4-methylanilino)phosphonate chloroform solvate'
_symmetry_cell_setting           triclinic
_symmetry_space_group_name_H-M   'P -1'
_symmetry_Int_Tables_number      2
_space_group_name_Hall           '-P 1'
loop_
_symmetry_equiv_pos_site_id
_symmetry_equiv_pos_as_xyz
1 x,y,z
2 -x,-y,-z
_cell_length_a                   8.4030(2)
_cell_length_b                   12.5575(4)
_cell_length_c                   19.6980(7)
_cell_angle_alpha                82.8707(15)
_cell_angle_beta                 83.869(2)
_cell_angle_gamma                84.9637(18)
_cell_volume                     2044.82
_exptl_crystal_colour            colorless
_exptl_crystal_description       block
_cell_formula_units_Z            4
loop_
_atom_site_label
_atom_site_type_symbol
_atom_site_fract_x
_atom_site_fract_y
_atom_site_fract_z
P1 P 1.29263(7) 0.89735(5) 1.05042(3)
C1 C 1.5019(4) 0.9023(3) 1.19335(18)
H1 H 1.6076 0.9100 1.2056
H2 H 1.4394 0.8677 1.2322
H3 H 1.4511 0.9721 1.1798
C2 C 1.5139(3) 0.8359(2) 1.13512(16)
H4 H 1.5784 0.8704 1.0961
H5 H 1.5667 0.7657 1.1485
C3 C 1.4176(3) 0.76561(18) 0.95398(13)
C4 C 1.3400(3) 0.6769(2) 0.98657(14)
H6 H 1.2809 0.6812 1.0290
C5 C 1.3499(3) 0.5826(2) 0.95654(15)
H7 H 1.2964 0.5248 0.9794
C6 C 1.4366(3) 0.5708(2) 0.89340(15)
C7 C 1.5153(3) 0.6589(2) 0.86158(14)
H8 H 1.5755 0.6538 0.8195
C8 C 1.5066(3) 0.7547(2) 0.89096(14)
H9 H 1.5609 0.8123 0.8682
C9 C 1.4443(4) 0.4666(2) 0.86181(17)
H10 H 1.5092 0.4733 0.8185
H11 H 1.3379 0.4511 0.8547
H12 H 1.4908 0.4093 0.8922
O1 O 1.3562(2) 0.82291(14) 1.11549(9)
O2 O 1.31494(19) 1.01307(13) 1.05514(9)
O3 O 1.12594(18) 0.86509(13) 1.04931(9)
N1 N 1.4088(3) 0.86350(17) 0.98185(11)
H45 H 1.480(4) 0.902(3) 0.9688(17)
P2 P 0.71031(7) 1.10383(5) 1.44730(3)
C10 C 0.5322(4) 1.1069(3) 1.29435(16)
H13 H 0.4308 1.0988 1.2779
H14 H 0.5844 1.0371 1.3068
H15 H 0.5986 1.1460 1.2588
C11 C 0.5053(3) 1.1669(2) 1.35537(15)
H16 H 0.4510 1.2370 1.3429
H17 H 0.4368 1.1280 1.3910
C12 C 0.5763(3) 1.23085(18) 1.54516(12)
C13 C 0.6510(3) 1.32177(19) 1.51385(14)
H18 H 0.7082 1.3204 1.4708
C14 C 0.6406(3) 1.4135(2) 1.54627(15)
H19 H 0.6919 1.4729 1.5245
C15 C 0.5556(3) 1.4207(2) 1.61081(14)
C16 C 0.4814(3) 1.3295(2) 1.64106(14)
H20 H 0.4234 1.3311 1.6839
C17 C 0.4911(3) 1.2363(2) 1.60930(13)
H21 H 0.4400 1.1768 1.6311
C18 C 0.5453(4) 1.5223(2) 1.64501(17)
H22 H 0.4825 1.5120 1.6887
H23 H 0.4955 1.5805 1.6164
H24 H 0.6514 1.5391 1.6518
O4 O 0.87397(18) 1.13685(13) 1.45287(9)
O5 O 0.68917(19) 0.98893(13) 1.43997(9)
O6 O 0.6545(2) 1.18052(13) 1.38125(9)
N2 N 0.5856(2) 1.13562(17) 1.51415(11)
H46 H 0.521(4) 1.094(3) 1.5298(17)
C19 C 0.9895(4) 1.0396(3) 1.18932(18)
H25 H 0.9186 0.9997 1.2226
H26 H 1.0103 1.1049 1.2064
H27 H 1.0887 0.9969 1.1812
C20 C 0.9133(4) 1.0663(3) 1.12371(15)
H28 H 0.8118 1.1078 1.1325
H29 H 0.8907 1.0000 1.1072
C21 C 1.0452(4) 1.2393(2) 1.07998(19)
H30 H 1.1069 1.2367 1.1192
H31 H 0.9428 1.2791 1.0902
C22 C 1.1338(5) 1.2952(3) 1.0177(2)
H32 H 1.1507 1.3670 1.0259
H33 H 1.0720 1.2983 0.9791
H34 H 1.2356 1.2563 1.0081
N3 N 1.0184(3) 1.13005(19) 1.06806(12)
H47 H 1.102(4) 1.097(3) 1.0637(16)
H48 H 0.970(3) 1.132(2) 1.0265(17)
C23 C 1.1327(4) 0.9797(3) 1.36070(18)
H35 H 1.1959 0.9904 1.3172
H36 H 1.1984 0.9845 1.3971
H37 H 1.0450 1.0342 1.3623
C24 C 1.0701(4) 0.8741(3) 1.36913(16)
H38 H 1.1589 0.8194 1.3668
H39 H 1.0060 0.8690 1.3317
C25 C 0.9187(4) 0.7405(2) 1.4462(2)
H40 H 0.8568 0.7291 1.4093
H41 H 1.0127 0.6897 1.4454
C26 C 0.8194(4) 0.7206(3) 1.5135(2)
H42 H 0.7872 0.6482 1.5194
H43 H 0.7258 0.7703 1.5141
H44 H 0.8814 0.7304 1.5501
N4 N 0.9706(3) 0.85319(19) 1.43514(12)
H49 H 0.882(4) 0.896(3) 1.4384(16)
H50 H 1.029(3) 0.859(2) 1.4702(16)
C27 C 0.9296(3) 1.3268(2) 1.31187(16)
Cl1 Cl 0.81294(9) 1.34074(7) 1.24222(4)
Cl2 Cl 0.91751(11) 1.44700(7) 1.34968(5)
Cl3 Cl 1.13127(9) 1.28867(8) 1.28418(5)
H51 H 0.889(3) 1.272(2) 1.3452(15)
C28 C 1.0752(3) 0.6802(2) 1.18552(16)
Cl4 Cl 0.87684(9) 0.72423(8) 1.21407(6)
Cl5 Cl 1.07822(12) 0.55915(7) 1.14978(5)
Cl6 Cl 1.19441(9) 0.66534(7) 1.25426(4)
H52 H 1.113(3) 0.737(2) 1.1534(16)
loop_
_geom_bond_atom_site_label_1
_geom_bond_atom_site_label_2
_geom_bond_site_symmetry_1
_geom_bond_site_symmetry_2
P1 O1 1_555 1_555
P2 O4 1_555 1_555
C1 H1 1_555 1_555
H2 C1 1_555 1_555
H3 C1 1_555 1_555
C2 C1 1_555 1_555
H4 C2 1_555 1_555
H5 C2 1_555 1_555
C3 C4 1_555 1_555
C4 H6 1_555 1_555
C5 C4 1_555 1_555
H7 C5 1_555 1_555
C6 C5 1_555 1_555
C7 C6 1_555 1_555
H8 C7 1_555 1_555
C8 C3 1_555 1_555
H9 C8 1_555 1_555
C9 C6 1_555 1_555
H10 C9 1_555 1_555
H11 C9 1_555 1_555
H12 C9 1_555 1_555
C10 H13 1_555 1_555
H14 C10 1_555 1_555
H15 C10 1_555 1_555
C11 C10 1_555 1_555
H16 C11 1_555 1_555
H17 C11 1_555 1_555
C12 C13 1_555 1_555
C13 H18 1_555 1_555
C14 C13 1_555 1_555
H19 C14 1_555 1_555
C15 C14 1_555 1_555
C16 C15 1_555 1_555
H20 C16 1_555 1_555
C17 C12 1_555 1_555
H21 C17 1_555 1_555
C18 C15 1_555 1_555
H22 C18 1_555 1_555
H23 C18 1_555 1_555
H24 C18 1_555 1_555
C19 H25 1_555 1_555
H26 C19 1_555 1_555
H27 C19 1_555 1_555
C20 C19 1_555 1_555
H28 C20 1_555 1_555
H29 C20 1_555 1_555
C21 H30 1_555 1_555
H31 C21 1_555 1_555
C22 C21 1_555 1_555
H32 C22 1_555 1_555
H33 C22 1_555 1_555
H34 C22 1_555 1_555
C23 H35 1_555 1_555
H36 C23 1_555 1_555
H37 C23 1_555 1_555
C24 C23 1_555 1_555
H38 C24 1_555 1_555
H39 C24 1_555 1_555
C25 H40 1_555 1_555
H41 C25 1_555 1_555
C26 C25 1_555 1_555
H42 C26 1_555 1_555
H43 C26 1_555 1_555
H44 C26 1_555 1_555
C27 Cl1 1_555 1_555
C28 Cl4 1_555 1_555
O1 C2 1_555 1_555
O2 P1 1_555 1_555
O3 P1 1_555 1_555
O5 P2 1_555 1_555
O6 P2 1_555 1_555
Cl2 C27 1_555 1_555
Cl3 C27 1_555 1_555
Cl5 C28 1_555 1_555
Cl6 C28 1_555 1_555
N1 P1 1_555 1_555
H45 N1 1_555 1_555
N2 P2 1_555 1_555
H46 N2 1_555 1_555
N3 C20 1_555 1_555
H47 N3 1_555 1_555
H48 N3 1_555 1_555
N4 C24 1_555 1_555
H49 N4 1_555 1_555
H50 N4 1_555 1_555
H51 C27 1_555 1_555
H52 C28 1_555 1_555
C3 N1 1_555 1_555
C7 C8 1_555 1_555
C11 O6 1_555 1_555
C12 N2 1_555 1_555
C16 C17 1_555 1_555
C21 N3 1_555 1_555
C25 N4 1_555 1_555

#END
