
#######################################################################
#
#                 Cambridge Crystallographic Data Centre
#                                CCDC 
#
#######################################################################
#
# If this CIF has been generated from an entry in the Cambridge 
# Structural Database, then it will include bibliographic, chemical, 
# crystal, experimental, refinement or atomic coordinate data resulting 
# from the CCDC's data processing and validation procedures.
#
#######################################################################

data_SILKIK
_chemical_formula_moiety         'C20 H40 Na2 O10 2+,2(C24 H20 B1 1-)'
_chemical_name_systematic        
'bis(\m-1,4,7,10,13-pentaoxacyclopentadecane)-di-sodium bis(tetraphenylborate)'
_symmetry_cell_setting           monoclinic
_symmetry_space_group_name_H-M   'P 21/c'
_symmetry_Int_Tables_number      14
_space_group_name_Hall           '-P 2ybc'
loop_
_symmetry_equiv_pos_site_id
_symmetry_equiv_pos_as_xyz
1 x,y,z
2 -x,1/2+y,1/2-z
3 -x,-y,-z
4 x,1/2-y,1/2+z
_cell_length_a                   13.0154(13)
_cell_length_b                   12.3870(13)
_cell_length_c                   20.7837(18)
_cell_angle_alpha                90
_cell_angle_beta                 112.885(5)
_cell_angle_gamma                90
_cell_volume                     3087.04
_exptl_crystal_description       block
_cell_formula_units_Z            2
loop_
_atom_site_label
_atom_site_type_symbol
_atom_site_fract_x
_atom_site_fract_y
_atom_site_fract_z
Na1 Na 0.64669(7) -0.00964(6) 0.52557(4)
O1 O 0.49376(13) -0.04203(13) 0.58181(8)
O2 O 0.62574(14) -0.18875(12) 0.54830(9)
O3 O 0.77285(15) -0.12225(14) 0.49305(9)
O4 O 0.65152(18) 0.12044(16) 0.60844(11)
O5 O 0.82663(16) 0.06278(18) 0.57352(11)
C1 C 0.5305(2) -0.2231(2) 0.55993(14)
H1 H 0.5411 -0.2963 0.5780
H2 H 0.4652 -0.2219 0.5165
C2 C 0.5150(2) -0.1480(2) 0.61135(14)
H3 H 0.4528 -0.1717 0.6225
H4 H 0.5815 -0.1474 0.6541
C3 C 0.5096(2) 0.0405(2) 0.63421(13)
H5 H 0.4903 0.0112 0.6714
H6 H 0.4598 0.1005 0.6133
C4 C 0.6661(3) -0.2634(2) 0.51174(15)
H7 H 0.6175 -0.2644 0.4626
H8 H 0.6685 -0.3355 0.5305
C5 C 0.6261(3) 0.0804(2) 0.66419(14)
H9 H 0.6337 0.1373 0.6978
H10 H 0.6766 0.0222 0.6877
C6 C 0.8783(2) -0.0701(3) 0.51255(17)
H11 H 0.8751 -0.0190 0.4764
H12 H 0.9347 -0.1235 0.5160
C7 C 0.7796(3) -0.2284(2) 0.52063(18)
H13 H 0.8284 -0.2288 0.5697
H14 H 0.8101 -0.2775 0.4962
C8 C 0.9107(2) -0.0129(3) 0.57945(18)
H15 H 0.9190 -0.0637 0.6166
H16 H 0.9814 0.0237 0.5904
C9 C 0.8456(3) 0.1207(3) 0.6384(2)
H17 H 0.8583 0.0700 0.6763
H18 H 0.9106 0.1669 0.6505
C10 C 0.7497(3) 0.1834(3) 0.6276(2)
H19 H 0.7405 0.2360 0.5912
H20 H 0.7604 0.2226 0.6702
Na1B Na 0.35331(7) 0.00964(6) 0.47443(4)
O1B O 0.50624(13) 0.04203(13) 0.41819(8)
O2B O 0.37426(14) 0.18875(12) 0.45170(9)
O3B O 0.22715(15) 0.12225(14) 0.50695(9)
O4B O 0.34848(18) -0.12044(16) 0.39156(11)
O5B O 0.17337(16) -0.06278(18) 0.42648(11)
C1B C 0.4695(2) 0.2231(2) 0.44007(14)
H1B H 0.4589 0.2963 0.4220
H2B H 0.5348 0.2219 0.4835
C2B C 0.4850(2) 0.1480(2) 0.38865(14)
H3B H 0.5472 0.1717 0.3775
H4B H 0.4185 0.1474 0.3459
C3B C 0.4904(2) -0.0405(2) 0.36579(13)
H5B H 0.5097 -0.0112 0.3286
H6B H 0.5402 -0.1005 0.3867
C4B C 0.3339(3) 0.2634(2) 0.48826(15)
H7B H 0.3825 0.2644 0.5374
H8B H 0.3315 0.3355 0.4695
C5B C 0.3739(3) -0.0804(2) 0.33581(14)
H9B H 0.3663 -0.1373 0.3022
H10B H 0.3234 -0.0222 0.3123
C6B C 0.1217(2) 0.0701(3) 0.48745(17)
H11B H 0.1249 0.0190 0.5236
H12B H 0.0653 0.1235 0.4840
C7B C 0.2204(3) 0.2284(2) 0.47937(18)
H13B H 0.1716 0.2288 0.4303
H14B H 0.1899 0.2775 0.5038
C8B C 0.0893(2) 0.0129(3) 0.42055(18)
H15B H 0.0810 0.0637 0.3834
H16B H 0.0186 -0.0237 0.4096
C9B C 0.1544(3) -0.1207(3) 0.3616(2)
H17B H 0.1417 -0.0700 0.3237
H18B H 0.0894 -0.1669 0.3495
C10B C 0.2503(3) -0.1834(3) 0.3724(2)
H19B H 0.2595 -0.2360 0.4088
H20B H 0.2396 -0.2226 0.3298
C11 C 0.78607(16) 0.61631(17) 0.75782(10)
C12 C 0.59924(17) 0.49649(18) 0.71143(11)
C13 C 0.74849(18) 0.47675(16) 0.65269(11)
C14 C 0.79479(17) 0.40152(17) 0.78514(11)
C15 C 0.53561(18) 0.5897(2) 0.70151(11)
H21 H 0.5716 0.6561 0.7085
C16 C 0.6602(2) 0.45487(17) 0.58920(11)
H22 H 0.5888 0.4475 0.5888
C17 C 0.87752(19) 0.33187(18) 0.78237(12)
H23 H 0.9029 0.3410 0.7466
C18 C 0.6747(2) 0.44368(19) 0.52650(12)
H24 H 0.6134 0.4296 0.4855
C19 C 0.5392(2) 0.3997(2) 0.70242(13)
H25 H 0.5778 0.3347 0.7095
C20 C 0.4205(2) 0.5882(3) 0.68165(12)
H26 H 0.3811 0.6527 0.6746
C21 C 0.8174(2) 0.6467(2) 0.82692(12)
H27 H 0.8117 0.5963 0.8585
C22 C 0.7650(2) 0.3833(2) 0.84233(13)
H28 H 0.7111 0.4276 0.8476
C23 C 0.8525(2) 0.4868(2) 0.64817(13)
H29 H 0.9143 0.5023 0.6886
C24 C 0.8666(2) 0.8258(2) 0.80711(16)
H30 H 0.8939 0.8941 0.8235
C25 C 0.7776(3) 0.4531(2) 0.52481(14)
H31 H 0.7873 0.4452 0.4830
C26 C 0.4246(2) 0.3971(3) 0.68334(14)
H32 H 0.3879 0.3312 0.6778
C27 C 0.7962(2) 0.6982(2) 0.71497(14)
H33 H 0.7755 0.6835 0.6677
C28 C 0.3652(2) 0.4917(3) 0.67254(13)
H34 H 0.2882 0.4903 0.6592
C29 C 0.8906(2) 0.2350(2) 0.88524(16)
H35 H 0.9213 0.1800 0.9175
C30 C 0.9236(2) 0.2497(2) 0.83041(15)
H36 H 0.9770 0.2043 0.8255
C31 C 0.8119(2) 0.3026(2) 0.89150(14)
H37 H 0.7897 0.2946 0.9287
B1 B 0.73343(19) 0.49685(19) 0.72728(12)
C32 C 0.8674(3) 0.4746(3) 0.58592(15)
H38 H 0.9384 0.4810 0.5855
C33 C 0.8354(3) 0.8003(2) 0.73882(17)
H39 H 0.8403 0.8520 0.7077
C34 C 0.8571(3) 0.7491(2) 0.85109(15)
H40 H 0.8774 0.7655 0.8981
loop_
_geom_bond_atom_site_label_1
_geom_bond_atom_site_label_2
_geom_bond_site_symmetry_1
_geom_bond_site_symmetry_2
Na1 O1 1_555 1_555
O1 C2 1_555 1_555
O2 Na1 1_555 1_555
O3 Na1 1_555 1_555
O4 Na1 1_555 1_555
O5 Na1 1_555 1_555
C1 O2 1_555 1_555
H1 C1 1_555 1_555
H2 C1 1_555 1_555
C2 C1 1_555 1_555
H3 C2 1_555 1_555
H4 C2 1_555 1_555
C3 O1 1_555 1_555
H5 C3 1_555 1_555
H6 C3 1_555 1_555
C4 O2 1_555 1_555
H7 C4 1_555 1_555
H8 C4 1_555 1_555
C5 O4 1_555 1_555
H9 C5 1_555 1_555
H10 C5 1_555 1_555
C6 O3 1_555 1_555
H11 C6 1_555 1_555
H12 C6 1_555 1_555
C7 O3 1_555 1_555
H13 C7 1_555 1_555
H14 C7 1_555 1_555
C8 O5 1_555 1_555
H15 C8 1_555 1_555
H16 C8 1_555 1_555
C9 O5 1_555 1_555
H17 C9 1_555 1_555
H18 C9 1_555 1_555
C10 O4 1_555 1_555
H19 C10 1_555 1_555
H20 C10 1_555 1_555
C11 C21 1_555 1_555
C12 C15 1_555 1_555
C13 C16 1_555 1_555
C14 C17 1_555 1_555
C15 H21 1_555 1_555
C16 H22 1_555 1_555
C17 H23 1_555 1_555
C18 C16 1_555 1_555
H24 C18 1_555 1_555
C19 C12 1_555 1_555
H25 C19 1_555 1_555
C20 C15 1_555 1_555
H26 C20 1_555 1_555
C21 H27 1_555 1_555
C22 C14 1_555 1_555
H28 C22 1_555 1_555
C23 C13 1_555 1_555
H29 C23 1_555 1_555
C24 H30 1_555 1_555
C25 C18 1_555 1_555
H31 C25 1_555 1_555
C26 C19 1_555 1_555
H32 C26 1_555 1_555
C27 C11 1_555 1_555
H33 C27 1_555 1_555
C28 C20 1_555 1_555
H34 C28 1_555 1_555
C29 H35 1_555 1_555
C30 C17 1_555 1_555
H36 C30 1_555 1_555
C31 C22 1_555 1_555
H37 C31 1_555 1_555
B1 C11 1_555 1_555
C32 C23 1_555 1_555
H38 C32 1_555 1_555
C33 C24 1_555 1_555
H39 C33 1_555 1_555
C34 C21 1_555 1_555
H40 C34 1_555 1_555
Na1B O1 1_555 1_555
O1B Na1 1_555 1_555
O2B Na1B 1_555 1_555
O3B Na1B 1_555 1_555
O4B Na1B 1_555 1_555
O5B Na1B 1_555 1_555
C1B O2B 1_555 1_555
H1B C1B 1_555 1_555
H2B C1B 1_555 1_555
C2B O1B 1_555 1_555
H3B C2B 1_555 1_555
H4B C2B 1_555 1_555
C3B O1B 1_555 1_555
H5B C3B 1_555 1_555
H6B C3B 1_555 1_555
C4B O2B 1_555 1_555
H7B C4B 1_555 1_555
H8B C4B 1_555 1_555
C5B O4B 1_555 1_555
H9B C5B 1_555 1_555
H10B C5B 1_555 1_555
C6B O3B 1_555 1_555
H11B C6B 1_555 1_555
H12B C6B 1_555 1_555
C7B O3B 1_555 1_555
H13B C7B 1_555 1_555
H14B C7B 1_555 1_555
C8B O5B 1_555 1_555
H15B C8B 1_555 1_555
H16B C8B 1_555 1_555
C9B O5B 1_555 1_555
H17B C9B 1_555 1_555
H18B C9B 1_555 1_555
C10B O4B 1_555 1_555
H19B C10B 1_555 1_555
H20B C10B 1_555 1_555
C3 C5 1_555 1_555
C4 C7 1_555 1_555
C6 C8 1_555 1_555
C9 C10 1_555 1_555
C12 B1 1_555 1_555
C13 B1 1_555 1_555
C14 B1 1_555 1_555
C24 C34 1_555 1_555
C25 C32 1_555 1_555
C26 C28 1_555 1_555
C27 C33 1_555 1_555
C29 C30 1_555 1_555
C29 C31 1_555 1_555
Na1B O1B 1_555 1_555
C1B C2B 1_555 1_555
C3B C5B 1_555 1_555
C4B C7B 1_555 1_555
C6B C8B 1_555 1_555
C9B C10B 1_555 1_555

#END
