
#######################################################################
#
#                 Cambridge Crystallographic Data Centre
#                                CCDC 
#
#######################################################################
#
# If this CIF has been generated from an entry in the Cambridge 
# Structural Database, then it will include bibliographic, chemical, 
# crystal, experimental, refinement or atomic coordinate data resulting 
# from the CCDC's data processing and validation procedures.
#
#######################################################################

data_SILPUA
_chemical_formula_moiety         'C6 H14 N1 O1 Si1 1+,C1 H12 B11 1-'
_chemical_name_systematic        
'2,2,4,5-Tetramethyl-2,3-dihydro-1,4,2-oxazasilol-4-ium carba-closo-dodecaborate(12)'
_symmetry_cell_setting           monoclinic
_symmetry_space_group_name_H-M   'P 21/a'
_symmetry_Int_Tables_number      14
_space_group_name_Hall           '-P 2yab'
loop_
_symmetry_equiv_pos_site_id
_symmetry_equiv_pos_as_xyz
1 x,y,z
2 1/2-x,1/2+y,-z
3 -x,-y,-z
4 1/2+x,1/2-y,z
_cell_length_a                   13.841(4)
_cell_length_b                   15.636(5)
_cell_length_c                   8.021(6)
_cell_angle_alpha                90
_cell_angle_beta                 90.04(4)
_cell_angle_gamma                90
_cell_volume                     1735.89
_exptl_crystal_colour            colorless
_exptl_crystal_description       prismatic
_cell_formula_units_Z            4
loop_
_atom_site_label
_atom_site_type_symbol
_atom_site_fract_x
_atom_site_fract_y
_atom_site_fract_z
Si1 Si 0.72812(6) 0.06803(4) 0.19796(10)
O1 O 0.64075(14) 0.02209(13) 0.0715(3)
N1 N 0.76978(19) -0.03125(14) -0.0561(3)
C1 C 0.6766(2) -0.02438(16) -0.0492(3)
C2 C 0.8258(2) 0.01359(18) 0.0744(4)
C3 C 0.7232(3) 0.18435(18) 0.1703(4)
C4 C 0.7068(3) 0.0272(2) 0.4105(4)
C5 C 0.6074(3) -0.0644(2) -0.1664(4)
C6 C 0.8229(3) -0.0800(2) -0.1821(5)
H1 H 0.863(3) 0.049(3) 0.027(5)
H2 H 0.861(3) -0.024(2) 0.132(5)
H3 H 0.770(3) 0.205(3) 0.231(5)
H4 H 0.727(3) 0.196(2) 0.056(5)
H5 H 0.662(3) 0.206(3) 0.199(5)
H6 H 0.6380(15) 0.037(2) 0.436(5)
H7 H 0.719(3) -0.0357(12) 0.410(5)
H8 H 0.757(2) 0.056(2) 0.476(5)
H9 H 0.569(3) -0.019(2) -0.223(5)
H10 H 0.648(3) -0.090(2) -0.250(4)
H11 H 0.569(3) -0.103(2) -0.098(5)
H12 H 0.793(3) -0.1372(15) -0.170(5)
H13 H 0.822(3) -0.061(2) -0.301(3)
H14 H 0.8906(15) -0.081(2) -0.150(5)
C7 C 0.4272(2) 0.7776(2) 0.3789(4)
B1 B 0.4797(2) 0.8035(2) 0.1950(5)
B2 B 0.6051(2) 0.7933(2) 0.2323(4)
B3 B 0.5404(3) 0.7100(2) 0.1329(4)
B4 B 0.6285(2) 0.6856(2) 0.2881(4)
B5 B 0.5672(2) 0.6646(2) 0.4783(5)
B6 B 0.4419(2) 0.6743(2) 0.4387(5)
B7 B 0.5059(2) 0.7590(3) 0.5375(4)
B8 B 0.6220(2) 0.7664(2) 0.4446(4)
B9 B 0.5173(2) 0.6298(2) 0.2857(5)
B10 B 0.4260(2) 0.7032(2) 0.2260(4)
B11 B 0.5297(3) 0.8384(2) 0.3855(5)
H15 H 0.656(3) 0.832(3) 0.162(5)
H16 H 0.514(3) 0.564(3) 0.239(5)
H17 H 0.385(3) 0.639(3) 0.502(5)
H18 H 0.375(3) 0.809(3) 0.421(5)
H19 H 0.490(3) 0.772(3) 0.673(5)
H20 H 0.691(3) 0.786(3) 0.519(5)
H21 H 0.549(3) 0.693(3) 0.006(5)
H22 H 0.703(3) 0.657(3) 0.259(5)
H23 H 0.360(3) 0.688(3) 0.166(5)
H24 H 0.594(3) 0.623(3) 0.576(5)
H25 H 0.448(3) 0.845(3) 0.116(5)
H26 H 0.527(3) 0.905(3) 0.435(5)
loop_
_geom_bond_atom_site_label_1
_geom_bond_atom_site_label_2
_geom_bond_site_symmetry_1
_geom_bond_site_symmetry_2
Si1 O1 1_555 1_555
O1 C1 1_555 1_555
N1 C1 1_555 1_555
C1 C5 1_555 1_555
C2 Si1 1_555 1_555
C3 Si1 1_555 1_555
C4 Si1 1_555 1_555
C5 H9 1_555 1_555
C6 N1 1_555 1_555
H1 C2 1_555 1_555
H2 C2 1_555 1_555
H3 C3 1_555 1_555
H4 C3 1_555 1_555
H5 C3 1_555 1_555
H6 C4 1_555 1_555
H7 C4 1_555 1_555
H8 C4 1_555 1_555
H10 C5 1_555 1_555
H11 C5 1_555 1_555
H12 C6 1_555 1_555
H13 C6 1_555 1_555
H14 C6 1_555 1_555
C7 B1 1_555 1_555
B1 B2 1_555 1_555
B2 B3 1_555 1_555
B3 B1 1_555 1_555
B4 B2 1_555 1_555
B5 B4 1_555 1_555
B6 C7 1_555 1_555
B7 C7 1_555 1_555
B8 B2 1_555 1_555
B9 B3 1_555 1_555
B10 C7 1_555 1_555
B11 C7 1_555 1_555
H15 B2 1_555 1_555
H16 B9 1_555 1_555
H17 B6 1_555 1_555
H18 C7 1_555 1_555
H19 B7 1_555 1_555
H20 B8 1_555 1_555
H21 B3 1_555 1_555
H22 B4 1_555 1_555
H23 B10 1_555 1_555
H24 B5 1_555 1_555
H25 B1 1_555 1_555
H26 B11 1_555 1_555
N1 C2 1_555 1_555
B1 B10 1_555 1_555
B1 B11 1_555 1_555
B2 B11 1_555 1_555
B3 B4 1_555 1_555
B3 B10 1_555 1_555
B4 B8 1_555 1_555
B4 B9 1_555 1_555
B5 B6 1_555 1_555
B5 B7 1_555 1_555
B5 B8 1_555 1_555
B5 B9 1_555 1_555
B6 B7 1_555 1_555
B6 B9 1_555 1_555
B6 B10 1_555 1_555
B7 B8 1_555 1_555
B7 B11 1_555 1_555
B8 B11 1_555 1_555
B9 B10 1_555 1_555

#END
