
#######################################################################
#
#                 Cambridge Crystallographic Data Centre
#                                CCDC 
#
#######################################################################
#
# If this CIF has been generated from an entry in the Cambridge 
# Structural Database, then it will include bibliographic, chemical, 
# crystal, experimental, refinement or atomic coordinate data resulting 
# from the CCDC's data processing and validation procedures.
#
#######################################################################

data_SILPUZ
_chemical_formula_moiety         'C16 H15 N3 O6'
_chemical_name_systematic        
2-(2-Hydroxyethyl)-6-((2-hydroxyethyl)amino)-5-nitro-1H-benzo(de)isoquinoline-1,3(2H)-dione
_symmetry_cell_setting           triclinic
_symmetry_space_group_name_H-M   'P 1'
_symmetry_Int_Tables_number      1
_space_group_name_Hall           'P 1'
loop_
_symmetry_equiv_pos_site_id
_symmetry_equiv_pos_as_xyz
1 x,y,z
_cell_length_a                   4.7125(12)
_cell_length_b                   8.032(2)
_cell_length_c                   9.997(3)
_cell_angle_alpha                80.490(15)
_cell_angle_beta                 81.977(15)
_cell_angle_gamma                77.324(14)
_cell_volume                     361.993
_exptl_crystal_colour            'light brown'
_exptl_crystal_description       block
_chemical_melting_point          '514-516 K'
_cell_formula_units_Z            1
_exptl_crystal_recrystallization_method DMF
loop_
_atom_site_label
_atom_site_type_symbol
_atom_site_fract_x
_atom_site_fract_y
_atom_site_fract_z
O1 O 0.0483(6) 0.6442(3) 0.4925(3)
O2 O -0.4438(5) 0.2532(3) 0.4083(2)
O3 O -0.1177(6) 0.6283(3) 0.0831(3)
H1 H -0.2257 0.5893 0.0411
O4 O 0.5170(6) 0.5645(3) 0.8901(3)
O5 O 0.5728(5) 0.3339(3) 1.0369(2)
O6 O 0.4894(5) -0.0077(3) 1.2695(3)
H2 H 0.4856 0.0642 1.3223
N1 N -0.1985(6) 0.4477(3) 0.4497(3)
N2 N 0.4703(6) 0.4170(4) 0.9316(3)
N3 N 0.2847(6) 0.0970(4) 1.0246(3)
H3 H 0.4202 0.1329 1.0579
C1 C -0.0264(7) 0.5052(4) 0.5296(4)
C2 C 0.0537(7) 0.3942(4) 0.6543(3)
C3 C -0.0248(7) 0.2296(4) 0.6918(3)
C4 C -0.1870(8) 0.1753(4) 0.6044(4)
C5 C -0.2869(7) 0.2916(4) 0.4813(3)
C6 C 0.2177(7) 0.4469(4) 0.7355(3)
H4 H 0.2746 0.5550 0.7094
C7 C 0.3036(7) 0.3451(4) 0.8560(3)
C8 C 0.2187(7) 0.1832(4) 0.9034(3)
C9 C 0.0624(7) 0.1209(4) 0.8121(3)
C10 C -0.0009(8) -0.0452(4) 0.8333(4)
H5 H 0.0634 -0.1235 0.9104
C11 C -0.1535(8) -0.0975(4) 0.7455(4)
H6 H -0.1930 -0.2105 0.7631
C12 C -0.2508(7) 0.0134(4) 0.6310(4)
H7 H -0.3600 -0.0226 0.5721
C13 C -0.2808(8) 0.5604(5) 0.3226(4)
H8 H -0.2958 0.6823 0.3338
H9 H -0.4741 0.5465 0.3034
C14 C -0.0527(8) 0.5139(5) 0.2042(4)
H10 H 0.1427 0.5197 0.2266
H11 H -0.0475 0.3944 0.1894
C15 C 0.1779(8) -0.0454(4) 1.1135(4)
H12 H 0.2988 -0.1572 1.0924
H13 H -0.0274 -0.0427 1.1002
C16 C 0.1987(8) -0.0229(5) 1.2586(4)
H14 H 0.0589 0.0819 1.2829
H15 H 0.1493 -0.1234 1.3220
loop_
_geom_bond_atom_site_label_1
_geom_bond_atom_site_label_2
_geom_bond_site_symmetry_1
_geom_bond_site_symmetry_2
O1 C1 1_555 1_555
O2 C5 1_555 1_555
O3 H1 1_555 1_555
O4 N2 1_555 1_555
O5 N2 1_555 1_555
O6 H2 1_555 1_555
N1 C1 1_555 1_555
N2 C7 1_555 1_555
N3 H3 1_555 1_555
C1 C2 1_555 1_555
C2 C3 1_555 1_555
C3 C4 1_555 1_555
C4 C5 1_555 1_555
C5 N1 1_555 1_555
C6 C2 1_555 1_555
H4 C6 1_555 1_555
C7 C6 1_555 1_555
C8 N3 1_555 1_555
C9 C3 1_555 1_555
C10 C9 1_555 1_555
H5 C10 1_555 1_555
C11 C10 1_555 1_555
H6 C11 1_555 1_555
C12 C4 1_555 1_555
H7 C12 1_555 1_555
C13 N1 1_555 1_555
H8 C13 1_555 1_555
H9 C13 1_555 1_555
C14 O3 1_555 1_555
H10 C14 1_555 1_555
H11 C14 1_555 1_555
C15 N3 1_555 1_555
H12 C15 1_555 1_555
H13 C15 1_555 1_555
C16 O6 1_555 1_555
H14 C16 1_555 1_555
H15 C16 1_555 1_555
C7 C8 1_555 1_555
C8 C9 1_555 1_555
C11 C12 1_555 1_555
C13 C14 1_555 1_555
C15 C16 1_555 1_555

#END
