
#######################################################################
#
#                 Cambridge Crystallographic Data Centre
#                                CCDC 
#
#######################################################################
#
# If this CIF has been generated from an entry in the Cambridge 
# Structural Database, then it will include bibliographic, chemical, 
# crystal, experimental, refinement or atomic coordinate data resulting 
# from the CCDC's data processing and validation procedures.
#
#######################################################################

data_SILPIO
_chemical_formula_moiety         'C10 H26 N1 O1 Si3 1+,C1 H12 B11 1-'
_chemical_name_systematic        
'4,5-Dimethyl-2,2-bis(trimethylsilyl)-2,3-dihydro-1,4,2-oxazasilol-4-ium carba-closo-dodecaborate(12)'
_symmetry_cell_setting           orthorhombic
_symmetry_space_group_name_H-M   'P 21 21 21'
_symmetry_Int_Tables_number      19
_space_group_name_Hall           'P 2ac 2ab'
loop_
_symmetry_equiv_pos_site_id
_symmetry_equiv_pos_as_xyz
1 x,y,z
2 1/2-x,-y,1/2+z
3 1/2+x,1/2-y,-z
4 -x,1/2+y,1/2-z
_cell_length_a                   15.208(3)
_cell_length_b                   18.923(3)
_cell_length_c                   8.862(2)
_cell_angle_alpha                90
_cell_angle_beta                 90
_cell_angle_gamma                90
_cell_volume                     2550.32
_exptl_crystal_colour            colorless
_exptl_crystal_description       needle
_cell_formula_units_Z            4
loop_
_atom_site_label
_atom_site_type_symbol
_atom_site_fract_x
_atom_site_fract_y
_atom_site_fract_z
Si1 Si 0.55021(6) 0.01340(5) 0.3661(1)
Si2 Si 0.50894(6) 0.05873(5) 0.1284(1)
Si3 Si 0.37128(7) 0.03223(6) 0.0180(1)
O1 O 0.5051(2) 0.1514(1) 0.1548(3)
N1 N 0.6096(2) 0.1496(1) -0.0216(3)
C1 C 0.5578(3) 0.0889(2) 0.4994(5)
C2 C 0.6580(3) -0.0328(2) 0.3553(5)
C3 C 0.4621(3) -0.0483(2) 0.4278(5)
C4 C 0.3301(3) -0.0576(3) 0.0666(6)
C5 C 0.3855(3) 0.0373(3) -0.1887(5)
C6 C 0.2936(3) 0.1021(3) 0.0872(7)
C7 C 0.6004(2) 0.0725(2) -0.0130(4)
C8 C 0.5613(2) 0.1861(2) 0.0706(4)
C9 C 0.6743(2) 0.1809(2) -0.1245(5)
C10 C 0.5639(3) 0.2637(2) 0.0879(5)
H1 H 0.5739 0.0709 0.5992
H2 H 0.6024 0.1207 0.4690
H3 H 0.5036 0.1122 0.5081
H4 H 0.6746 -0.0512 0.4511
H5 H 0.6550 -0.0715 0.2849
H6 H 0.7032 -0.0013 0.3212
H7 H 0.4076 -0.0264 0.4308
H8 H 0.4582 -0.0872 0.3517
H9 H 0.4766 -0.0700 0.5200
H10 H 0.3221 -0.0621 0.1755
H11 H 0.2754 -0.0677 0.0204
H12 H 0.3717 -0.0935 0.0381
H13 H 0.4280 0.0044 -0.2209
H14 H 0.3319 0.0307 -0.2382
H15 H 0.4075 0.0846 -0.2141
H16 H 0.3144 0.1481 0.0650
H17 H 0.2364 0.0963 0.0420
H18 H 0.2858 0.0982 0.1951
H19 H 0.6530 0.0502 0.0187
H20 H 0.5838 0.0529 -0.1098
H21 H 0.7030 0.1456 -0.1830
H22 H 0.6475 0.2143 -0.1902
H23 H 0.7191 0.2056 -0.0668
H24 H 0.5781 0.2759 0.1907
H25 H 0.6065 0.2838 0.0234
H26 H 0.5075 0.2836 0.0655
C11 C 0.8739(3) 0.2663(2) 0.4604(5)
B1 B 0.8692(3) 0.1919(2) 0.5720(5)
B2 B 0.9657(3) 0.2138(2) 0.4704(5)
B3 B 0.9683(3) 0.1618(2) 0.3060(5)
B4 B 0.8728(3) 0.1084(2) 0.3039(5)
B5 B 0.8113(3) 0.1272(2) 0.4702(5)
B6 B 0.7805(3) 0.2151(2) 0.4587(6)
B7 B 0.9282(3) 0.1250(2) 0.4775(5)
B8 B 0.9343(3) 0.2517(2) 0.2981(6)
B9 B 0.8775(3) 0.1860(2) 0.1938(5)
B10 B 0.7804(3) 0.1644(2) 0.2957(6)
B11 B 0.8181(3) 0.2528(2) 0.2903(6)
H27 H 0.8600 0.1997 0.6907
H28 H 1.0323 0.2315 0.5272
H29 H 1.0270 0.1464 0.2292
H30 H 0.8826 0.0509 0.2636
H31 H 0.7746 0.0881 0.5286
H32 H 0.7169 0.2345 0.5303
H33 H 0.9728 0.0828 0.5623
H34 H 0.9746 0.2903 0.2253
H35 H 0.8707 0.1973 0.0746
H36 H 0.7118 0.1469 0.2560
H37 H 0.7589 0.2987 0.2602
H38 H 0.8551 0.3210 0.5068
loop_
_geom_bond_atom_site_label_1
_geom_bond_atom_site_label_2
_geom_bond_site_symmetry_1
_geom_bond_site_symmetry_2
Si1 Si2 1_555 1_555
Si2 Si3 1_555 1_555
Si3 C4 1_555 1_555
O1 Si2 1_555 1_555
N1 C7 1_555 1_555
C1 Si1 1_555 1_555
C2 Si1 1_555 1_555
C3 Si1 1_555 1_555
C4 H10 1_555 1_555
C5 Si3 1_555 1_555
C6 Si3 1_555 1_555
C7 Si2 1_555 1_555
C8 O1 1_555 1_555
C9 N1 1_555 1_555
C10 C8 1_555 1_555
H1 C1 1_555 1_555
H2 C1 1_555 1_555
H3 C1 1_555 1_555
H4 C2 1_555 1_555
H5 C2 1_555 1_555
H6 C2 1_555 1_555
H7 C3 1_555 1_555
H8 C3 1_555 1_555
H9 C3 1_555 1_555
H11 C4 1_555 1_555
H12 C4 1_555 1_555
H13 C5 1_555 1_555
H14 C5 1_555 1_555
H15 C5 1_555 1_555
H16 C6 1_555 1_555
H17 C6 1_555 1_555
H18 C6 1_555 1_555
H19 C7 1_555 1_555
H20 C7 1_555 1_555
H21 C9 1_555 1_555
H22 C9 1_555 1_555
H23 C9 1_555 1_555
H24 C10 1_555 1_555
H25 C10 1_555 1_555
H26 C10 1_555 1_555
C11 B1 1_555 1_555
B1 B2 1_555 1_555
B2 C11 1_555 1_555
B3 B2 1_555 1_555
B4 B3 1_555 1_555
B5 B1 1_555 1_555
B6 C11 1_555 1_555
B7 B1 1_555 1_555
B8 C11 1_555 1_555
B9 B3 1_555 1_555
B10 B4 1_555 1_555
B11 C11 1_555 1_555
H27 B1 1_555 1_555
H28 B2 1_555 1_555
H29 B3 1_555 1_555
H30 B4 1_555 1_555
H31 B5 1_555 1_555
H32 B6 1_555 1_555
H33 B7 1_555 1_555
H34 B8 1_555 1_555
H35 B9 1_555 1_555
H36 B10 1_555 1_555
H37 B11 1_555 1_555
H38 C11 1_555 1_555
N1 C8 1_555 1_555
B1 B6 1_555 1_555
B2 B7 1_555 1_555
B2 B8 1_555 1_555
B3 B7 1_555 1_555
B3 B8 1_555 1_555
B4 B5 1_555 1_555
B4 B7 1_555 1_555
B4 B9 1_555 1_555
B5 B6 1_555 1_555
B5 B7 1_555 1_555
B5 B10 1_555 1_555
B6 B10 1_555 1_555
B6 B11 1_555 1_555
B8 B9 1_555 1_555
B8 B11 1_555 1_555
B9 B10 1_555 1_555
B9 B11 1_555 1_555
B10 B11 1_555 1_555

#END
