
#######################################################################
#
#                 Cambridge Crystallographic Data Centre
#                                CCDC 
#
#######################################################################
#
# If this CIF has been generated from an entry in the Cambridge 
# Structural Database, then it will include bibliographic, chemical, 
# crystal, experimental, refinement or atomic coordinate data resulting 
# from the CCDC's data processing and validation procedures.
#
#######################################################################

data_SILPOU
_chemical_formula_moiety         'C10 H26 N1 O1 Si3 1+,C32 H12 B1 F24 1-'
_chemical_name_systematic        
'4,5-Dimethyl-2,2-bis(trimethylsilyl)-2,3-dihydro-1,4,2-oxazasilol-4-ium tetrakis(3,5-bis(trifluoromethyl)phenyl)borate'
_symmetry_cell_setting           monoclinic
_symmetry_space_group_name_H-M   'P 21'
_symmetry_Int_Tables_number      4
_space_group_name_Hall           'P 2yb'
loop_
_symmetry_equiv_pos_site_id
_symmetry_equiv_pos_as_xyz
1 x,y,z
2 -x,1/2+y,-z
_cell_length_a                   9.957(4)
_cell_length_b                   24.184(5)
_cell_length_c                   10.577(5)
_cell_angle_alpha                90
_cell_angle_beta                 90.14(3)
_cell_angle_gamma                90
_cell_volume                     2546.93
_exptl_crystal_colour            colorless
_exptl_crystal_description       prismatic
_cell_formula_units_Z            2
loop_
_atom_site_label
_atom_site_type_symbol
_atom_site_fract_x
_atom_site_fract_y
_atom_site_fract_z
Si1 Si 0.53879(19) 0.36126(8) 0.87539(17)
Si2 Si 0.4833(2) 0.26523(9) 0.8854(2)
Si3 Si 0.6975(3) 0.40141(11) 0.7312(2)
O1 O 0.6060(4) 0.3731(2) 1.0277(4)
N1 N 0.4157(5) 0.41993(19) 1.0531(5)
C1 C 0.3928(7) 0.4081(3) 0.9180(6)
C2 C 0.5263(6) 0.4007(2) 1.1003(5)
C3 C 0.3178(7) 0.4535(3) 1.1242(7)
C4 C 0.5691(8) 0.4075(3) 1.2351(7)
C5 C 0.3139(16) 0.2607(7) 0.945(4)
C6 C 0.6056(15) 0.2347(6) 0.9971(11)
C7 C 0.497(3) 0.2312(5) 0.7367(11)
C8 C 0.8584(13) 0.4090(9) 0.8192(15)
C9 C 0.6284(15) 0.4691(4) 0.6795(12)
C10 C 0.7172(15) 0.3558(7) 0.5933(12)
H1 H 0.3976 0.4434 0.8700
H2 H 0.3105 0.3924 0.9043
H3 H 0.3575 0.4881 1.1526
H4 H 0.2439 0.4648 1.0672
H5 H 0.2819 0.4347 1.1917
H6 H 0.5744 0.3730 1.2741
H7 H 0.6496 0.4273 1.2409
H8 H 0.4993 0.4292 1.2790
H9 H 0.2989 0.2798 1.0163
H10 H 0.2524 0.2797 0.8762
H11 H 0.2837 0.2243 0.9442
H12 H 0.5844 0.1971 1.0032
H13 H 0.6911 0.2410 0.9667
H14 H 0.5926 0.2523 1.0771
H15 H 0.4866 0.1950 0.7418
H16 H 0.4438 0.2492 0.6743
H17 H 0.5940 0.2386 0.7053
H18 H 0.8888 0.3743 0.8426
H19 H 0.9238 0.4259 0.7621
H20 H 0.8468 0.4327 0.8885
H21 H 0.6156 0.4935 0.7496
H22 H 0.6906 0.4874 0.6220
H23 H 0.5458 0.4646 0.6363
H24 H 0.6407 0.3544 0.5486
H25 H 0.7886 0.3741 0.5396
H26 H 0.7526 0.3228 0.6208
F1 F -0.1905(9) 0.0803(8) 0.1935(14)
F2 F -0.1559(8) 0.0684(7) 0.0124(9)
F3 F -0.1231(9) 0.0127(5) 0.1356(18)
F4 F 0.3487(12) 0.0899(7) -0.1346(8)
F5 F 0.3688(12) 0.0190(4) -0.0537(12)
F6 F 0.4844(8) 0.0795(7) 0.0023(11)
F7 F 0.0142(8) -0.0194(2) 0.5431(6)
F8 F 0.1705(6) -0.0146(2) 0.6698(9)
F9 F -0.0300(7) -0.0091(2) 0.7335(7)
F10 F -0.0169(13) 0.1889(3) 0.9062(7)
F11 F -0.1745(9) 0.1903(9) 0.7970(18)
F12 F -0.0347(13) 0.2478(3) 0.7714(7)
F13 F 0.6845(4) 0.27738(17) 0.3153(5)
F14 F 0.8320(5) 0.2408(2) 0.4347(5)
F15 F 0.7985(5) 0.2088(2) 0.2490(5)
F16 F 0.6595(8) 0.0790(3) 0.7168(6)
F17 F 0.7340(6) 0.0395(3) 0.5632(8)
F18 F 0.5325(5) 0.0246(2) 0.6168(8)
F19 F 0.3471(10) 0.3533(3) 0.6150(8)
F20 F 0.1670(10) 0.3877(6) 0.6110(11)
F21 F 0.3018(16) 0.4158(3) 0.4956(8)
F22 F -0.0940(7) 0.3640(3) 0.1850(6)
F23 F 0.0735(6) 0.3616(3) 0.0676(6)
F24 F -0.0532(6) 0.2926(2) 0.0820(5)
C11 C 0.1993(5) 0.1326(2) 0.2602(5)
C12 C 0.0685(6) 0.1149(2) 0.2367(6)
C13 C 0.0335(7) 0.0818(3) 0.1350(6)
C14 C 0.1297(8) 0.0673(3) 0.0479(7)
C15 C 0.2609(7) 0.0843(3) 0.0663(6)
C16 C 0.2946(6) 0.1172(2) 0.1712(6)
C17 C -0.1032(8) 0.0632(4) 0.1178(7)
C18 C 0.3652(9) 0.0681(4) -0.0279(8)
C19 C 0.1469(5) 0.1470(2) 0.5060(5)
C20 C 0.0861(6) 0.1809(2) 0.5955(6)
C21 C 0.0182(6) 0.1599(3) 0.6993(6)
C22 C 0.0058(6) 0.1025(3) 0.7179(6)
C23 C 0.0633(6) 0.0684(2) 0.6295(6)
C24 C 0.1285(5) 0.0894(2) 0.5259(6)
C25 C 0.0535(7) 0.0073(3) 0.6434(7)
C26 C -0.0469(10) 0.1964(4) 0.7936(9)
C27 C 0.3971(5) 0.1620(2) 0.4207(5)
C28 C 0.4965(6) 0.1974(2) 0.3737(5)
C29 C 0.6326(6) 0.1903(2) 0.4002(5)
C30 C 0.6758(6) 0.1459(2) 0.4743(6)
C31 C 0.5802(6) 0.1100(2) 0.5196(6)
C32 C 0.4439(5) 0.1178(2) 0.4956(6)
C33 C 0.7359(7) 0.2284(3) 0.3504(7)
C34 C 0.6238(7) 0.0627(3) 0.6032(9)
C35 C 0.2038(5) 0.2350(2) 0.3636(5)
C36 C 0.2490(6) 0.2753(2) 0.4501(5)
C37 C 0.2133(6) 0.3303(2) 0.4420(6)
C38 C 0.1314(6) 0.3490(2) 0.3440(6)
C39 C 0.0879(5) 0.3109(2) 0.2550(6)
C40 C 0.1244(5) 0.2556(2) 0.2642(5)
C41 C 0.2621(8) 0.3706(2) 0.5387(7)
C42 C 0.0041(6) 0.3310(3) 0.1480(7)
B1 B 0.2362(6) 0.1694(2) 0.3869(6)
H27 H -0.0001 0.1271 0.2931
H28 H 0.1059 0.0460 -0.0231
H29 H 0.3838 0.1304 0.1799
H30 H 0.0891 0.2205 0.5849
H31 H -0.0404 0.0900 0.7881
H32 H 0.1649 0.0656 0.4656
H33 H 0.4698 0.2283 0.3188
H34 H 0.7697 0.1420 0.4920
H35 H 0.3829 0.0942 0.5288
H36 H 0.3049 0.2651 0.5177
H37 H 0.1059 0.3883 0.3390
H38 H 0.0915 0.2317 0.2033
loop_
_geom_bond_atom_site_label_1
_geom_bond_atom_site_label_2
_geom_bond_site_symmetry_1
_geom_bond_site_symmetry_2
Si1 Si2 1_555 1_555
Si2 C5 1_555 1_555
Si3 Si1 1_555 1_555
O1 Si1 1_555 1_555
N1 C1 1_555 1_555
C1 Si1 1_555 1_555
C2 O1 1_555 1_555
C3 N1 1_555 1_555
C4 C2 1_555 1_555
C5 H9 1_555 1_555
C6 Si2 1_555 1_555
C7 Si2 1_555 1_555
C8 Si3 1_555 1_555
C9 Si3 1_555 1_555
C10 Si3 1_555 1_555
H1 C1 1_555 1_555
H2 C1 1_555 1_555
H3 C3 1_555 1_555
H4 C3 1_555 1_555
H5 C3 1_555 1_555
H6 C4 1_555 1_555
H7 C4 1_555 1_555
H8 C4 1_555 1_555
H10 C5 1_555 1_555
H11 C5 1_555 1_555
H12 C6 1_555 1_555
H13 C6 1_555 1_555
H14 C6 1_555 1_555
H15 C7 1_555 1_555
H16 C7 1_555 1_555
H17 C7 1_555 1_555
H18 C8 1_555 1_555
H19 C8 1_555 1_555
H20 C8 1_555 1_555
H21 C9 1_555 1_555
H22 C9 1_555 1_555
H23 C9 1_555 1_555
H24 C10 1_555 1_555
H25 C10 1_555 1_555
H26 C10 1_555 1_555
F1 C17 1_555 1_555
F2 C17 1_555 1_555
F3 C17 1_555 1_555
F4 C18 1_555 1_555
F5 C18 1_555 1_555
F6 C18 1_555 1_555
F7 C25 1_555 1_555
F8 C25 1_555 1_555
F9 C25 1_555 1_555
F10 C26 1_555 1_555
F11 C26 1_555 1_555
F12 C26 1_555 1_555
F13 C33 1_555 1_555
F14 C33 1_555 1_555
F15 C33 1_555 1_555
F16 C34 1_555 1_555
F17 C34 1_555 1_555
F18 C34 1_555 1_555
F19 C41 1_555 1_555
F20 C41 1_555 1_555
F21 C41 1_555 1_555
F22 C42 1_555 1_555
F23 C42 1_555 1_555
F24 C42 1_555 1_555
C11 C12 1_555 1_555
C12 C13 1_555 1_555
C13 C14 1_555 1_555
C14 C15 1_555 1_555
C15 C16 1_555 1_555
C16 C11 1_555 1_555
C17 C13 1_555 1_555
C18 C15 1_555 1_555
C19 C20 1_555 1_555
C20 C21 1_555 1_555
C21 C22 1_555 1_555
C22 C23 1_555 1_555
C23 C24 1_555 1_555
C24 C19 1_555 1_555
C25 C23 1_555 1_555
C26 C21 1_555 1_555
C27 C28 1_555 1_555
C28 C29 1_555 1_555
C29 C30 1_555 1_555
C30 C31 1_555 1_555
C31 C32 1_555 1_555
C32 C27 1_555 1_555
C33 C29 1_555 1_555
C34 C31 1_555 1_555
C35 C36 1_555 1_555
C36 C37 1_555 1_555
C37 C38 1_555 1_555
C38 C39 1_555 1_555
C39 C40 1_555 1_555
C40 C35 1_555 1_555
C41 C37 1_555 1_555
C42 C39 1_555 1_555
B1 C11 1_555 1_555
H27 C12 1_555 1_555
H28 C14 1_555 1_555
H29 C16 1_555 1_555
H30 C20 1_555 1_555
H31 C22 1_555 1_555
H32 C24 1_555 1_555
H33 C28 1_555 1_555
H34 C30 1_555 1_555
H35 C32 1_555 1_555
H36 C36 1_555 1_555
H37 C38 1_555 1_555
H38 C40 1_555 1_555
N1 C2 1_555 1_555
C19 B1 1_555 1_555
C27 B1 1_555 1_555
C35 B1 1_555 1_555

#END
