
#######################################################################
#
#                 Cambridge Crystallographic Data Centre
#                                CCDC 
#
#######################################################################
#
# If this CIF has been generated from an entry in the Cambridge 
# Structural Database, then it will include bibliographic, chemical, 
# crystal, experimental, refinement or atomic coordinate data resulting 
# from the CCDC's data processing and validation procedures.
#
#######################################################################

data_SILQAH
_chemical_formula_moiety         'C6 H14 N1 O1 Si1 1+,C32 H12 B1 F24 1-'
_chemical_name_systematic        
'2,2,4,5-Tetramethyl-2,3-dihydro-1,4,2-oxazasilol-4-ium tetrakis(3,5-bis(trifluoromethyl)phenyl)borate'
_symmetry_cell_setting           monoclinic
_symmetry_space_group_name_H-M   'P 21/a'
_symmetry_Int_Tables_number      14
_space_group_name_Hall           '-P 2yab'
loop_
_symmetry_equiv_pos_site_id
_symmetry_equiv_pos_as_xyz
1 x,y,z
2 1/2-x,1/2+y,-z
3 -x,-y,-z
4 1/2+x,1/2-y,z
_cell_length_a                   16.569(6)
_cell_length_b                   31.944(5)
_cell_length_c                   15.811(2)
_cell_angle_alpha                90
_cell_angle_beta                 90.34(2)
_cell_angle_gamma                90
_cell_volume                     8368.3
_exptl_crystal_colour            colorless
_exptl_crystal_description       prismatic
_cell_formula_units_Z            8
loop_
_atom_site_label
_atom_site_type_symbol
_atom_site_fract_x
_atom_site_fract_y
_atom_site_fract_z
Si1 Si 0.78307(8) 0.17099(4) 0.02404(8)
O1 O 0.7337(2) 0.19984(10) -0.0516(2)
N1 N 0.6291(2) 0.1627(1) -0.0112(2)
C1 C 0.6576(3) 0.1915(1) -0.0582(3)
C2 C 0.6868(3) 0.1417(1) 0.0460(3)
C3 C 0.8159(3) 0.2049(2) 0.1097(3)
C4 C 0.8636(3) 0.1432(2) -0.0307(4)
C5 C 0.6101(3) 0.2155(2) -0.1218(3)
C6 C 0.5445(3) 0.1493(3) -0.0109(5)
H1 H 0.6938 0.1129 0.0325
H2 H 0.6728 0.1446 0.1033
H3 H 0.8435 0.1880 0.1524
H4 H 0.8515 0.2254 0.0905
H5 H 0.7705 0.2174 0.1364
H6 H 0.8933 0.1272 0.0115
H7 H 0.8424 0.1256 -0.0711
H8 H 0.8995 0.1632 -0.0541
H9 H 0.6119 0.2438 -0.1150
H10 H 0.6310 0.2087 -0.1796
H11 H 0.5545 0.2057 -0.1239
H12 H 0.5115 0.1731 0.0029
H13 H 0.5295 0.1407 -0.0675
H14 H 0.5367 0.1279 0.0268
Si2 Si 0.68474(7) 0.07642(4) 0.48657(8)
O2 O 0.7369(2) 0.04870(9) 0.5626(2)
N2 N 0.8380(2) 0.0883(1) 0.5212(2)
C7 C 0.8123(3) 0.0592(1) 0.5702(2)
C8 C 0.7785(3) 0.1068(1) 0.4627(3)
C9 C 0.6545(3) 0.0411(2) 0.4019(3)
C10 C 0.6043(3) 0.1038(2) 0.5408(4)
C11 C 0.8613(3) 0.0380(2) 0.6344(3)
C12 C 0.9214(3) 0.1045(2) 0.5197(5)
H15 H 0.7945 0.1028 0.4044
H16 H 0.7713 0.1358 0.4718
H17 H 0.6178 0.0196 0.4228
H18 H 0.6240 0.0560 0.3581
H19 H 0.6983 0.0277 0.3759
H20 H 0.6269 0.1222 0.5828
H21 H 0.5730 0.1197 0.5024
H22 H 0.5703 0.0841 0.5691
H23 H 0.8413 0.0426 0.6895
H24 H 0.8634 0.0084 0.6240
H25 H 0.9169 0.0480 0.6330
H26 H 0.9591 0.0802 0.5049
H27 H 0.9314 0.1248 0.4793
H28 H 0.9400 0.1131 0.5741
F1 F 1.1859(1) 0.06701(8) 1.3259(1)
F2 F 1.1002(2) 0.11468(8) 1.3474(1)
F3 F 1.0634(2) 0.05719(9) 1.2936(1)
F4 F 1.0271(3) 0.2113(1) 1.1233(2)
F5 F 1.0441(2) 0.19508(9) 0.9987(2)
F6 F 1.1359(2) 0.22409(9) 1.0636(3)
F7 F 0.9547(1) 0.06782(9) 0.8258(2)
F8 F 0.9296(1) 0.04719(9) 0.9494(1)
F9 F 0.9137(1) 0.00570(8) 0.8461(2)
F10 F 1.1576(4) -0.1001(1) 0.8481(3)
F11 F 1.2628(2) -0.0694(1) 0.8099(3)
F12 F 1.1566(3) -0.0678(1) 0.7328(2)
F13 F 1.3891(2) 0.11000(9) 0.6439(2)
F14 F 1.4365(2) 0.0587(1) 0.7083(2)
F15 F 1.3168(2) 0.0596(1) 0.6704(2)
F16 F 1.4171(2) 0.22295(9) 0.8488(2)
F17 F 1.3758(4) 0.2160(1) 0.9683(2)
F18 F 1.2986(3) 0.2279(1) 0.8677(5)
F19 F 1.5330(1) 0.08000(8) 1.1599(2)
F20 F 1.5694(1) 0.04754(10) 1.0505(2)
F21 F 1.5775(2) 0.0178(1) 1.1696(2)
F22 F 1.3443(6) -0.0979(1) 1.1355(4)
F23 F 1.3472(5) -0.0697(2) 1.2547(3)
F24 F 1.2410(2) -0.0698(2) 1.1829(5)
C13 C 1.1957(2) 0.09309(10) 1.0655(2)
C14 C 1.1832(2) 0.08010(10) 1.1491(2)
C15 C 1.1361(2) 0.1028(1) 1.2054(2)
C16 C 1.1012(2) 0.1404(1) 1.1817(2)
C17 C 1.1129(2) 0.1543(1) 1.0999(2)
C18 C 1.1570(2) 0.1307(1) 1.0432(2)
C19 C 1.1214(2) 0.0859(1) 1.2914(2)
C20 C 1.0807(2) 0.1955(1) 1.0733(3)
C21 C 1.1820(2) 0.03395(9) 0.9453(2)
C22 C 1.1009(2) 0.04460(10) 0.9361(2)
C23 C 1.0478(2) 0.0208(1) 0.8864(2)
C24 C 1.0737(2) -0.0148(1) 0.8453(2)
C25 C 1.1542(2) -0.0264(1) 0.8548(2)
C26 C 1.2066(2) -0.00265(10) 0.9045(2)
C27 C 0.9626(2) 0.0349(1) 0.8768(2)
C28 C 1.1825(2) -0.0649(1) 0.8113(3)
C29 C 1.2923(2) 0.09358(9) 0.9269(2)
C30 C 1.3132(2) 0.13576(10) 0.9400(2)
C31 C 1.3471(2) 0.1608(1) 0.8777(2)
C32 C 1.3667(2) 0.1443(1) 0.7996(2)
C33 C 1.3517(2) 0.1022(1) 0.7855(2)
C34 C 1.3144(2) 0.07786(10) 0.8473(2)
C35 C 1.3582(3) 0.2059(1) 0.8933(3)
C36 C 1.3743(2) 0.0829(1) 0.7037(2)
C37 C 1.3127(2) 0.03592(9) 1.0491(2)
C38 C 1.3924(2) 0.04900(10) 1.0625(2)
C39 C 1.4470(2) 0.0261(1) 1.1120(2)
C40 C 1.4248(2) -0.0105(1) 1.1502(2)
C41 C 1.3452(2) -0.0248(1) 1.1381(2)
C42 C 1.2921(2) -0.00199(10) 1.0880(2)
C43 C 1.5310(2) 0.0423(1) 1.1235(2)
C44 C 1.3205(2) -0.0647(1) 1.1783(3)
B1 B 1.2465(2) 0.0643(1) 0.9975(2)
H29 H 1.2083 0.0548 1.1675
H30 H 1.0693 0.1570 1.2206
H31 H 1.1615 0.1405 0.9864
H32 H 1.0807 0.0689 0.9637
H33 H 1.0385 -0.0315 0.8108
H34 H 1.2614 -0.0118 0.9093
H35 H 1.3037 0.1477 0.9950
H36 H 1.3898 0.1623 0.7564
H37 H 1.3049 0.0485 0.8364
H38 H 1.4096 0.0744 1.0368
H39 H 1.4610 -0.0253 1.1866
H40 H 1.2382 -0.0129 1.0798
F31 F 1.3803(2) 0.14472(8) 1.1370(1)
F32 F 1.2897(1) 0.18939(9) 1.1613(1)
F33 F 1.4105(2) 0.20280(9) 1.1950(1)
F34 F 1.3497(2) 0.02939(10) 1.3979(4)
F35 F 1.4574(3) 0.0453(1) 1.3540(2)
F36 F 1.4322(3) 0.0558(1) 1.4768(2)
F37 F 0.8947(2) 0.2302(1) 1.3306(2)
F38 F 0.9415(1) 0.16867(9) 1.3377(2)
F39 F 0.9058(1) 0.19987(9) 1.4482(2)
F40 F 1.1231(3) 0.3189(1) 1.2402(2)
F41 F 1.1209(3) 0.3475(1) 1.3550(3)
F42 F 1.2252(2) 0.3228(1) 1.3140(2)
F43 F 1.5186(1) 0.18330(9) 1.6719(2)
F44 F 1.5569(1) 0.24613(9) 1.6582(2)
F45 F 1.5472(1) 0.20688(9) 1.5516(2)
F46 F 1.3019(5) 0.3492(1) 1.6433(4)
F47 F 1.3122(4) 0.3199(2) 1.7592(3)
F48 F 1.2059(2) 0.3153(2) 1.6907(6)
F49 F 1.0707(2) 0.03711(9) 1.5055(2)
F50 F 1.0778(3) 0.01945(9) 1.6302(2)
F51 F 1.1810(2) 0.02047(9) 1.5542(3)
F52 F 1.0972(2) 0.12943(8) 1.8409(1)
F53 F 1.0309(2) 0.1752(1) 1.7795(2)
F54 F 1.1509(2) 0.1860(1) 1.8120(2)
C45 C 1.2849(2) 0.15996(9) 1.4214(2)
C46 C 1.2965(2) 0.17466(10) 1.3394(2)
C47 C 1.3428(2) 0.1536(1) 1.2799(2)
C48 C 1.3783(2) 0.1156(1) 1.2994(2)
C49 C 1.3681(2) 0.0999(1) 1.3808(2)
C50 C 1.3244(2) 0.12202(10) 1.4401(2)
C51 C 1.3556(2) 0.1723(1) 1.1946(2)
C52 C 1.4012(2) 0.0582(1) 1.4021(3)
C53 C 1.1633(2) 0.21410(9) 1.4431(2)
C54 C 1.0830(2) 0.20044(9) 1.4328(2)
C55 C 1.0266(2) 0.2230(1) 1.3848(2)
C56 C 1.0472(2) 0.2602(1) 1.3466(2)
C57 C 1.1259(2) 0.2747(1) 1.3565(2)
C58 C 1.1818(2) 0.25227(10) 1.4043(2)
C59 C 0.9433(2) 0.2058(1) 1.3748(2)
C60 C 1.1487(2) 0.3147(1) 1.3164(3)
C61 C 1.2930(2) 0.21639(10) 1.5472(2)
C62 C 1.3743(2) 0.20629(10) 1.5603(2)
C63 C 1.4253(2) 0.2305(1) 1.6108(2)
C64 C 1.3968(2) 0.2659(1) 1.6517(2)
C65 C 1.3163(2) 0.2767(1) 1.6397(2)
C66 C 1.2661(2) 0.25265(10) 1.5884(2)
C67 C 1.5110(2) 0.2172(1) 1.6231(2)
C68 C 1.2845(2) 0.3146(1) 1.6825(2)
C69 C 1.1877(2) 0.15365(10) 1.5593(2)
C70 C 1.1676(2) 0.1121(1) 1.5402(2)
C71 C 1.1311(2) 0.0855(1) 1.5987(2)
C72 C 1.1107(2) 0.0994(1) 1.6778(2)
C73 C 1.1266(2) 0.1410(1) 1.6977(2)
C74 C 1.1651(2) 0.16704(9) 1.6405(2)
C75 C 1.1172(3) 0.0410(1) 1.5750(3)
C76 C 1.1010(2) 0.1577(1) 1.7810(2)
B2 B 1.2319(2) 0.1858(1) 1.4919(2)
H41 H 1.2720 0.2007 1.3226
H42 H 1.4071 0.1003 1.2566
H43 H 1.3213 0.1109 1.4968
H44 H 1.0665 0.1750 1.4584
H45 H 1.0080 0.2756 1.3144
H46 H 1.2348 0.2634 1.4109
H47 H 1.3959 0.1821 1.5328
H48 H 1.4327 0.2824 1.6871
H49 H 1.2112 0.2614 1.5789
H50 H 1.1790 0.1013 1.4858
H51 H 1.0865 0.0810 1.7178
H52 H 1.1762 0.1950 1.6577
F25? F 1.229(1) -0.0855(5) 0.8511(9)
F26? F 1.1246(10) -0.0904(6) 0.791(1)
F27? F 1.224(1) -0.0539(5) 0.741(1)
F28? F 1.3785(6) -0.0904(4) 1.1941(9)
F29? F 1.2734(8) -0.0864(4) 1.1336(7)
F30? F 1.2812(9) -0.0588(4) 1.2457(8)
F55? F 1.3383(6) 0.3415(4) 1.7028(8)
F56? F 1.2453(8) 0.3061(3) 1.7511(7)
F57? F 1.2352(7) 0.3352(3) 1.6365(6)
loop_
_geom_bond_atom_site_label_1
_geom_bond_atom_site_label_2
_geom_bond_site_symmetry_1
_geom_bond_site_symmetry_2
Si1 O1 1_555 1_555
O1 C1 1_555 1_555
N1 C1 1_555 1_555
C1 C5 1_555 1_555
C2 Si1 1_555 1_555
C3 Si1 1_555 1_555
C4 Si1 1_555 1_555
C5 H9 1_555 1_555
C6 N1 1_555 1_555
H1 C2 1_555 1_555
H2 C2 1_555 1_555
H3 C3 1_555 1_555
H4 C3 1_555 1_555
H5 C3 1_555 1_555
H6 C4 1_555 1_555
H7 C4 1_555 1_555
H8 C4 1_555 1_555
H10 C5 1_555 1_555
H11 C5 1_555 1_555
H12 C6 1_555 1_555
H13 C6 1_555 1_555
H14 C6 1_555 1_555
Si2 O2 1_555 1_555
O2 C7 1_555 1_555
N2 C7 1_555 1_555
C7 C11 1_555 1_555
C8 Si2 1_555 1_555
C9 Si2 1_555 1_555
C10 Si2 1_555 1_555
C11 H23 1_555 1_555
C12 N2 1_555 1_555
H15 C8 1_555 1_555
H16 C8 1_555 1_555
H17 C9 1_555 1_555
H18 C9 1_555 1_555
H19 C9 1_555 1_555
H20 C10 1_555 1_555
H21 C10 1_555 1_555
H22 C10 1_555 1_555
H24 C11 1_555 1_555
H25 C11 1_555 1_555
H26 C12 1_555 1_555
H27 C12 1_555 1_555
H28 C12 1_555 1_555
F1 C19 1_555 1_555
F2 C19 1_555 1_555
F3 C19 1_555 1_555
F4 C20 1_555 1_555
F5 C20 1_555 1_555
F6 C20 1_555 1_555
F7 C27 1_555 1_555
F8 C27 1_555 1_555
F9 C27 1_555 1_555
F10 C28 1_555 1_555
F11 C28 1_555 1_555
F12 C28 1_555 1_555
F13 C36 1_555 1_555
F14 C36 1_555 1_555
F15 C36 1_555 1_555
F16 C35 1_555 1_555
F17 C35 1_555 1_555
F18 C35 1_555 1_555
F19 C43 1_555 1_555
F20 C43 1_555 1_555
F21 C43 1_555 1_555
F22 C44 1_555 1_555
F23 C44 1_555 1_555
F24 C44 1_555 1_555
C13 C14 1_555 1_555
C14 C15 1_555 1_555
C15 C16 1_555 1_555
C16 C17 1_555 1_555
C17 C18 1_555 1_555
C18 C13 1_555 1_555
C19 C15 1_555 1_555
C20 C17 1_555 1_555
C21 C22 1_555 1_555
C22 C23 1_555 1_555
C23 C24 1_555 1_555
C24 C25 1_555 1_555
C25 C26 1_555 1_555
C26 C21 1_555 1_555
C27 C23 1_555 1_555
C28 C25 1_555 1_555
C29 C30 1_555 1_555
C30 C31 1_555 1_555
C31 C32 1_555 1_555
C32 C33 1_555 1_555
C33 C34 1_555 1_555
C34 C29 1_555 1_555
C35 C31 1_555 1_555
C36 C33 1_555 1_555
C37 C38 1_555 1_555
C38 C39 1_555 1_555
C39 C40 1_555 1_555
C40 C41 1_555 1_555
C41 C42 1_555 1_555
C42 C37 1_555 1_555
C43 C39 1_555 1_555
C44 C41 1_555 1_555
B1 C13 1_555 1_555
H29 C14 1_555 1_555
H30 C16 1_555 1_555
H31 C18 1_555 1_555
H32 C22 1_555 1_555
H33 C24 1_555 1_555
H34 C26 1_555 1_555
H35 C30 1_555 1_555
H36 C32 1_555 1_555
H37 C34 1_555 1_555
H38 C38 1_555 1_555
H39 C40 1_555 1_555
H40 C42 1_555 1_555
F31 C51 1_555 1_555
F32 C51 1_555 1_555
F33 C51 1_555 1_555
F34 C52 1_555 1_555
F35 C52 1_555 1_555
F36 C52 1_555 1_555
F37 C59 1_555 1_555
F38 C59 1_555 1_555
F39 C59 1_555 1_555
F40 C60 1_555 1_555
F41 C60 1_555 1_555
F42 C60 1_555 1_555
F43 C67 1_555 1_555
F44 C67 1_555 1_555
F45 C67 1_555 1_555
F46 C68 1_555 1_555
F47 C68 1_555 1_555
F48 C68 1_555 1_555
F49 C75 1_555 1_555
F50 C75 1_555 1_555
F51 C75 1_555 1_555
F52 C76 1_555 1_555
F53 C76 1_555 1_555
F54 C76 1_555 1_555
C45 C46 1_555 1_555
C46 C47 1_555 1_555
C47 C48 1_555 1_555
C48 C49 1_555 1_555
C49 C50 1_555 1_555
C50 C45 1_555 1_555
C51 C47 1_555 1_555
C52 C49 1_555 1_555
C53 C54 1_555 1_555
C54 C55 1_555 1_555
C55 C56 1_555 1_555
C56 C57 1_555 1_555
C57 C58 1_555 1_555
C58 C53 1_555 1_555
C59 C55 1_555 1_555
C60 C57 1_555 1_555
C61 C62 1_555 1_555
C62 C63 1_555 1_555
C63 C64 1_555 1_555
C64 C65 1_555 1_555
C65 C66 1_555 1_555
C66 C61 1_555 1_555
C67 C63 1_555 1_555
C68 C65 1_555 1_555
C69 C70 1_555 1_555
C70 C71 1_555 1_555
C71 C72 1_555 1_555
C72 C73 1_555 1_555
C73 C74 1_555 1_555
C74 C69 1_555 1_555
C75 C71 1_555 1_555
C76 C73 1_555 1_555
B2 C45 1_555 1_555
H41 C46 1_555 1_555
H42 C48 1_555 1_555
H43 C50 1_555 1_555
H44 C54 1_555 1_555
H45 C56 1_555 1_555
H46 C58 1_555 1_555
H47 C62 1_555 1_555
H48 C64 1_555 1_555
H49 C66 1_555 1_555
H50 C70 1_555 1_555
H51 C72 1_555 1_555
H52 C74 1_555 1_555
N1 C2 1_555 1_555
N2 C8 1_555 1_555
C21 B1 1_555 1_555
C29 B1 1_555 1_555
C37 B1 1_555 1_555
C53 B2 1_555 1_555
C61 B2 1_555 1_555
C69 B2 1_555 1_555

#END
