
#######################################################################
#
#                 Cambridge Crystallographic Data Centre
#                                CCDC 
#
#######################################################################
#
# If this CIF has been generated from an entry in the Cambridge 
# Structural Database, then it will include bibliographic, chemical, 
# crystal, experimental, refinement or atomic coordinate data resulting 
# from the CCDC's data processing and validation procedures.
#
#######################################################################

data_SILREL
_chemical_formula_moiety         'C11 H16 O5'
_chemical_name_systematic        
"3,3'-(2-Oxocyclopentane-1,3-diyl)dipropanoic acid"
_symmetry_cell_setting           triclinic
_symmetry_space_group_name_H-M   'P -1'
_symmetry_Int_Tables_number      2
_space_group_name_Hall           '-P 1'
loop_
_symmetry_equiv_pos_site_id
_symmetry_equiv_pos_as_xyz
1 x,y,z
2 -x,-y,-z
_cell_length_a                   6.7644(17)
_cell_length_b                   9.386(2)
_cell_length_c                   9.855(3)
_cell_angle_alpha                95.510(4)
_cell_angle_beta                 101.915(4)
_cell_angle_gamma                104.563(4)
_cell_volume                     585.276
_exptl_crystal_colour            colorless
_exptl_crystal_description       block
_chemical_melting_point          '394-395 K'
_cell_formula_units_Z            2
_exptl_crystal_recrystallization_method 'ethyl acetate'
loop_
_atom_site_label
_atom_site_type_symbol
_atom_site_fract_x
_atom_site_fract_y
_atom_site_fract_z
O1 O 0.9983(4) 0.8289(2) -0.4371(2)
H1 H 1.0406 0.8853 -0.4900
O2 O 0.8445(3) 1.0024(2) -0.3900(2)
O3 O 0.2993(2) 0.8393(2) -0.05699(17)
O4 O 0.0373(2) 0.55634(18) 0.34961(16)
O5 O 0.2803(2) 0.5835(2) 0.54718(16)
H2 H 0.1779 0.5422 0.5753
C1 C 0.8831(4) 0.8854(3) -0.3694(2)
C2 C 0.8024(4) 0.7925(3) -0.2688(2)
H3 H 0.9215 0.7819 -0.2005
H4 H 0.7245 0.6939 -0.3195
C3 C 0.6618(3) 0.8517(3) -0.1907(2)
H5 H 0.7327 0.9540 -0.1470
H6 H 0.5334 0.8510 -0.2567
C4 C 0.6072(3) 0.7591(2) -0.0791(2)
H7 H 0.5445 0.6558 -0.1261
C5 C 0.7912(4) 0.7589(3) 0.0396(3)
H8 H 0.8891 0.8577 0.0683
H9 H 0.8657 0.6899 0.0111
C6 C 0.6900(4) 0.7096(3) 0.1585(3)
H10 H 0.6353 0.6019 0.1449
H11 H 0.7910 0.7425 0.2485
C7 C 0.5122(3) 0.7837(2) 0.1506(2)
H12 H 0.5717 0.8841 0.2050
C8 C 0.4500(3) 0.7998(2) -0.0036(2)
C9 C 0.3272(3) 0.7044(3) 0.2067(2)
H13 H 0.2219 0.7588 0.1941
H14 H 0.2638 0.6054 0.1526
C10 C 0.3917(3) 0.6911(3) 0.3610(2)
H15 H 0.5054 0.6444 0.3741
H16 H 0.4453 0.7905 0.4152
C11 C 0.2184(3) 0.6037(2) 0.4173(2)
loop_
_geom_bond_atom_site_label_1
_geom_bond_atom_site_label_2
_geom_bond_site_symmetry_1
_geom_bond_site_symmetry_2
O1 H1 1_555 1_555
O2 C1 1_555 1_555
O3 C8 1_555 1_555
O4 C11 1_555 1_555
O5 H2 1_555 1_555
C1 O1 1_555 1_555
C2 C1 1_555 1_555
H3 C2 1_555 1_555
H4 C2 1_555 1_555
C3 C2 1_555 1_555
H5 C3 1_555 1_555
H6 C3 1_555 1_555
C4 C3 1_555 1_555
H7 C4 1_555 1_555
C5 C4 1_555 1_555
H8 C5 1_555 1_555
H9 C5 1_555 1_555
C6 C5 1_555 1_555
H10 C6 1_555 1_555
H11 C6 1_555 1_555
C7 C6 1_555 1_555
H12 C7 1_555 1_555
C8 C4 1_555 1_555
C9 C7 1_555 1_555
H13 C9 1_555 1_555
H14 C9 1_555 1_555
C10 C9 1_555 1_555
H15 C10 1_555 1_555
H16 C10 1_555 1_555
C11 O5 1_555 1_555
C7 C8 1_555 1_555
C10 C11 1_555 1_555

#END
