
#######################################################################
#
#                 Cambridge Crystallographic Data Centre
#                                CCDC 
#
#######################################################################
#
# If this CIF has been generated from an entry in the Cambridge 
# Structural Database, then it will include bibliographic, chemical, 
# crystal, experimental, refinement or atomic coordinate data resulting 
# from the CCDC's data processing and validation procedures.
#
#######################################################################

data_SILSAI
_chemical_formula_moiety         'C23 H24 N2 O2'
_chemical_name_systematic        
1,3-bis(2-Hydroxybenzyl)-2,2-dimethyl-2,3-dihydro-1H-benzimidazole
_symmetry_cell_setting           orthorhombic
_symmetry_space_group_name_H-M   'P m n 21'
_symmetry_Int_Tables_number      31
_space_group_name_Hall           'P 2ac -2'
loop_
_symmetry_equiv_pos_site_id
_symmetry_equiv_pos_as_xyz
1 x,y,z
2 1/2-x,-y,1/2+z
3 1/2+x,-y,1/2+z
4 -x,y,z
_cell_length_a                   19.137(2)
_cell_length_b                   8.0716(15)
_cell_length_c                   6.1464(13)
_cell_angle_alpha                90
_cell_angle_beta                 90
_cell_angle_gamma                90
_cell_volume                     949.411
_exptl_crystal_colour            yellow
_exptl_crystal_description       block
_chemical_melting_point          '465-467 K'
_cell_formula_units_Z            2
_exptl_crystal_recrystallization_method ethanol
loop_
_atom_site_label
_atom_site_type_symbol
_atom_site_fract_x
_atom_site_fract_y
_atom_site_fract_z
N1 N 0.05992(13) 0.7643(3) 0.2677(4)
O1 O 0.11741(12) 0.5707(3) -0.0445(4)
H1 H 0.0866 0.6049 0.0366
C1 C 0.13090(16) 0.7587(4) 0.3599(6)
H2 H 0.1343 0.6644 0.4572
H3 H 0.1387 0.8581 0.4453
C2 C 0.18718(17) 0.7456(4) 0.1898(6)
C3 C 0.17888(16) 0.6515(4) 0.0007(6)
C4 C 0.23433(18) 0.6332(4) -0.1444(7)
H4 H 0.2283 0.5712 -0.2706
C5 C 0.2979(2) 0.7061(5) -0.1026(7)
H5 H 0.3345 0.6926 -0.2004
C6 C 0.3079(2) 0.7990(5) 0.0828(9)
H6 H 0.3510 0.8476 0.1113
C7 C 0.25254(17) 0.8190(5) 0.2264(7)
H7 H 0.2590 0.8830 0.3506
C8 C 0.0000 0.7094(6) 0.4089(7)
C9 C 0.03658(16) 0.9138(4) 0.1698(5)
C10 C 0.07437(17) 1.0423(4) 0.0804(6)
H8 H 0.1230 1.0425 0.0812
C11 C 0.03590(19) 1.1734(4) -0.0123(7)
H9 H 0.0596 1.2619 -0.0748
C12 C 0.0000 0.8038(8) 0.6262(8)
H10 H -0.0386 0.7670 0.7135
H11 H 0.0000 0.9205 0.5993
C13 C 0.0000 0.5227(6) 0.4407(9)
H12 H -0.0388 0.4917 0.5311
H13 H 0.0000 0.4688 0.3020
N1C N -0.05992(13) 0.7643(3) 0.2677(4)
O1C O -0.11741(12) 0.5707(3) -0.0445(4)
H1C H -0.0866 0.6049 0.0366
C1C C -0.13090(16) 0.7587(4) 0.3599(6)
H2C H -0.1343 0.6644 0.4572
H3C H -0.1387 0.8581 0.4453
C2C C -0.18718(17) 0.7456(4) 0.1898(6)
C3C C -0.17888(16) 0.6515(4) 0.0007(6)
C4C C -0.23433(18) 0.6332(4) -0.1444(7)
H4C H -0.2283 0.5712 -0.2706
C5C C -0.2979(2) 0.7061(5) -0.1026(7)
H5C H -0.3345 0.6926 -0.2004
C6C C -0.3079(2) 0.7990(5) 0.0828(9)
H6C H -0.3510 0.8476 0.1113
C7C C -0.25254(17) 0.8190(5) 0.2264(7)
H7C H -0.2590 0.8830 0.3506
C9C C -0.03658(16) 0.9138(4) 0.1698(5)
C10C C -0.07437(17) 1.0423(4) 0.0804(6)
H8C H -0.1230 1.0425 0.0812
C11C C -0.03590(19) 1.1734(4) -0.0123(7)
H9C H -0.0596 1.2619 -0.0748
H10C H 0.0386 0.7670 0.7135
H12C H 0.0388 0.4917 0.5311
loop_
_geom_bond_atom_site_label_1
_geom_bond_atom_site_label_2
_geom_bond_site_symmetry_1
_geom_bond_site_symmetry_2
N1 C1 1_555 1_555
O1 H1 1_555 1_555
C1 H2 1_555 1_555
H3 C1 1_555 1_555
C2 C1 1_555 1_555
C3 O1 1_555 1_555
C4 C3 1_555 1_555
H4 C4 1_555 1_555
C5 C4 1_555 1_555
H5 C5 1_555 1_555
C6 C5 1_555 1_555
H6 C6 1_555 1_555
C7 C2 1_555 1_555
H7 C7 1_555 1_555
C8 N1 1_555 1_555
C9 N1 1_555 1_555
C10 C9 1_555 1_555
H8 C10 1_555 1_555
C11 C10 1_555 1_555
H9 C11 1_555 1_555
C12 C8 1_555 1_555
H10 C12 1_555 1_555
H11 C12 1_555 1_555
C13 C8 1_555 1_555
H12 C13 1_555 1_555
H13 C13 1_555 1_555
N1C C8 1_555 1_555
O1C H1C 1_555 1_555
C1C N1C 1_555 1_555
H2C C1C 1_555 1_555
H3C C1C 1_555 1_555
C2C C1C 1_555 1_555
C3C O1C 1_555 1_555
C4C C3C 1_555 1_555
H4C C4C 1_555 1_555
C5C C4C 1_555 1_555
H5C C5C 1_555 1_555
C6C C5C 1_555 1_555
H6C C6C 1_555 1_555
C7C C2C 1_555 1_555
H7C C7C 1_555 1_555
C9C C9 1_555 1_555
C10C C9C 1_555 1_555
H8C C10C 1_555 1_555
C11C C11 1_555 1_555
H9C C11C 1_555 1_555
H10C C12 1_555 1_555
H12C C13 1_555 1_555
C2 C3 1_555 1_555
C6 C7 1_555 1_555
N1C C9C 1_555 1_555
C2C C3C 1_555 1_555
C6C C7C 1_555 1_555
C10C C11C 1_555 1_555

#END
