
#######################################################################
#
#                 Cambridge Crystallographic Data Centre
#                                CCDC 
#
#######################################################################
#
# If this CIF has been generated from an entry in the Cambridge 
# Structural Database, then it will include bibliographic, chemical, 
# crystal, experimental, refinement or atomic coordinate data resulting 
# from the CCDC's data processing and validation procedures.
#
#######################################################################

data_SILTAJ
_chemical_formula_moiety         'C25 H24 N4 O2 S2'
_chemical_name_systematic        
3-(4-Methyl-1,3-thiazol-5-yl)-1-(1'-(4-methyl-1,3-thiazol-5-yl)-2-oxo-2,3,2',3',5',6',7',7a'-octahydro-1H-indole-3-spiro-3'-1H-pyrrolizin-2'-yl)prop-2-en-1-one
_symmetry_cell_setting           monoclinic
_symmetry_space_group_name_H-M   'P 21/c'
_symmetry_Int_Tables_number      14
_space_group_name_Hall           '-P 2ybc'
loop_
_symmetry_equiv_pos_site_id
_symmetry_equiv_pos_as_xyz
1 x,y,z
2 -x,1/2+y,1/2-z
3 -x,-y,-z
4 x,1/2-y,1/2+z
_cell_length_a                   10.8362(3)
_cell_length_b                   9.0056(2)
_cell_length_c                   24.7698(5)
_cell_angle_alpha                90
_cell_angle_beta                 95.2720(10)
_cell_angle_gamma                90
_cell_volume                     2406.97
_exptl_crystal_colour            colorless
_exptl_crystal_description       block
_cell_formula_units_Z            4
_exptl_crystal_recrystallization_method ethanol/chloroform
loop_
_atom_site_label
_atom_site_type_symbol
_atom_site_fract_x
_atom_site_fract_y
_atom_site_fract_z
S1 S 0.40437(6) 0.92038(8) 0.18158(2)
S2 S 0.25147(6) 1.26490(8) 0.44224(2)
O1 O 0.48783(12) 0.74268(16) 0.36378(6)
O2 O 0.08715(13) 0.96110(17) 0.26782(6)
N1 N 0.30422(15) 0.55545(16) 0.29597(6)
C1 C 0.2387(3) 0.4160(3) 0.30022(10)
H1 H 0.1512 0.4330 0.3031
H2 H 0.2725 0.3601 0.3316
C2 C 0.2585(3) 0.3356(3) 0.24902(10)
H3 H 0.3374 0.2838 0.2523
H4 H 0.1927 0.2645 0.2399
C3 C 0.2573(3) 0.4542(3) 0.20783(9)
H5 H 0.1736 0.4726 0.1919
H6 H 0.3086 0.4273 0.1793
C4 C 0.30954(19) 0.5913(2) 0.23858(7)
H7 H 0.3960 0.6064 0.2312
C5 C 0.23813(16) 0.73706(19) 0.23011(6)
H8 H 0.1492 0.7148 0.2264
C6 C 0.26998(14) 0.81582(18) 0.28429(6)
H9 H 0.3536 0.8572 0.2843
C7 C 0.27434(15) 0.68763(18) 0.32670(6)
C8 C 0.16479(16) 0.6752(2) 0.35981(7)
C9 C 0.03935(18) 0.6653(3) 0.34481(9)
H10 H 0.0095 0.6637 0.3084
C10 C -0.0415(2) 0.6579(3) 0.38492(12)
H11 H -0.1265 0.6532 0.3755
C11 C 0.0038(3) 0.6573(4) 0.43879(12)
H12 H -0.0518 0.6503 0.4652
C12 C 0.1288(3) 0.6668(3) 0.45480(9)
H13 H 0.1584 0.6659 0.4912
C13 C 0.20798(19) 0.6779(2) 0.41451(7)
N2 N 0.33653(16) 0.69457(19) 0.42016(6)
H14 H 0.3812 0.6932 0.4507
C14 C 0.38215(16) 0.71317(19) 0.37152(7)
C15 C 0.18303(16) 0.94061(19) 0.29627(6)
C16 C 0.21351(17) 1.0351(2) 0.34393(7)
H15 H 0.1489 1.0887 0.3568
C17 C 0.32534(17) 1.05114(19) 0.37045(7)
H16 H 0.3895 0.9957 0.3581
C18 C 0.35632(18) 1.1463(2) 0.41653(7)
C19 C 0.3649(3) 1.3260(3) 0.48850(9)
H17 H 0.3506 1.3987 0.5139
N3 N 0.47284(19) 1.2656(2) 0.48645(7)
C20 C 0.46987(19) 1.1618(2) 0.44532(7)
C21 C 0.5839(2) 1.0779(3) 0.43622(11)
H18 H 0.5622 0.9784 0.4252
H19 H 0.6378 1.0753 0.4692
H20 H 0.6255 1.1258 0.4084
C22 C 0.26903(16) 0.8213(2) 0.18115(6)
C23 C 0.20859(17) 0.8262(2) 0.13094(7)
N4 N 0.26748(17) 0.9047(2) 0.09272(6)
C24 C 0.3701(2) 0.9577(3) 0.11439(8)
H21 H 0.4227 1.0132 0.0947
C25 C 0.0868(2) 0.7560(4) 0.11396(10)
H22 H 0.0998 0.6660 0.0945
H23 H 0.0373 0.8230 0.0910
H24 H 0.0448 0.7336 0.1455
loop_
_geom_bond_atom_site_label_1
_geom_bond_atom_site_label_2
_geom_bond_site_symmetry_1
_geom_bond_site_symmetry_2
S1 C22 1_555 1_555
S2 C18 1_555 1_555
O1 C14 1_555 1_555
O2 C15 1_555 1_555
N1 C1 1_555 1_555
C1 H1 1_555 1_555
H2 C1 1_555 1_555
C2 C1 1_555 1_555
H3 C2 1_555 1_555
H4 C2 1_555 1_555
C3 C2 1_555 1_555
H5 C3 1_555 1_555
H6 C3 1_555 1_555
C4 N1 1_555 1_555
H7 C4 1_555 1_555
C5 C4 1_555 1_555
H8 C5 1_555 1_555
C6 C5 1_555 1_555
H9 C6 1_555 1_555
C7 N1 1_555 1_555
C8 C7 1_555 1_555
C9 C8 1_555 1_555
H10 C9 1_555 1_555
C10 C9 1_555 1_555
H11 C10 1_555 1_555
C11 C10 1_555 1_555
H12 C11 1_555 1_555
C12 C11 1_555 1_555
H13 C12 1_555 1_555
C13 C8 1_555 1_555
N2 C13 1_555 1_555
H14 N2 1_555 1_555
C14 C7 1_555 1_555
C15 C6 1_555 1_555
C16 C15 1_555 1_555
H15 C16 1_555 1_555
C17 C16 1_555 1_555
H16 C17 1_555 1_555
C18 C17 1_555 1_555
C19 S2 1_555 1_555
H17 C19 1_555 1_555
N3 C19 1_555 1_555
C20 C18 1_555 1_555
C21 C20 1_555 1_555
H18 C21 1_555 1_555
H19 C21 1_555 1_555
H20 C21 1_555 1_555
C22 C5 1_555 1_555
C23 C22 1_555 1_555
N4 C23 1_555 1_555
C24 S1 1_555 1_555
H21 C24 1_555 1_555
C25 C23 1_555 1_555
H22 C25 1_555 1_555
H23 C25 1_555 1_555
H24 C25 1_555 1_555
C3 C4 1_555 1_555
C6 C7 1_555 1_555
C12 C13 1_555 1_555
N2 C14 1_555 1_555
N3 C20 1_555 1_555
N4 C24 1_555 1_555

#END
