
#######################################################################
#
#                 Cambridge Crystallographic Data Centre
#                                CCDC 
#
#######################################################################
#
# If this CIF has been generated from an entry in the Cambridge 
# Structural Database, then it will include bibliographic, chemical, 
# crystal, experimental, refinement or atomic coordinate data resulting 
# from the CCDC's data processing and validation procedures.
#
#######################################################################

data_SILTUC01
_chemical_formula_moiety         'C15 H16 N2 O3'
_chemical_name_systematic        1,3-bis(o-Methoxyphenyl)urea
_symmetry_cell_setting           tetragonal
_symmetry_space_group_name_H-M   'P 42/n'
_symmetry_Int_Tables_number      86
_space_group_name_Hall           '-P 4bc'
loop_
_symmetry_equiv_pos_site_id
_symmetry_equiv_pos_as_xyz
1 x,y,z
2 -y,1/2+x,1/2+z
3 1/2-x,1/2-y,z
4 1/2+y,-x,1/2+z
5 -x,-y,-z
6 y,1/2-x,1/2-z
7 1/2+x,1/2+y,-z
8 1/2-y,x,1/2-z
_cell_length_a                   11.826(1)
_cell_length_b                   11.826(1)
_cell_length_c                   9.833(9)
_cell_angle_alpha                90
_cell_angle_beta                 90
_cell_angle_gamma                90
_cell_volume                     1375.19
_exptl_crystal_colour            white
_chemical_melting_point          190-191deg.C
_cell_formula_units_Z            4
loop_
_atom_site_label
_atom_site_type_symbol
_atom_site_fract_x
_atom_site_fract_y
_atom_site_fract_z
C1 C 0.9493(2) 0.3090(2) 0.5234(2)
C2 C 1.0174(2) 0.3623(2) 0.6204(2)
C3 C 1.1194(2) 0.4064(2) 0.5858(2)
C4 C 1.1580(2) 0.3970(2) 0.4532(2)
C5 C 1.0940(2) 0.3426(2) 0.3584(2)
C6 C 0.9908(2) 0.2981(2) 0.3923(2)
C7 C 0.7500 0.2500 0.4917(3)
C8 C 1.0314(2) 0.4229(2) 0.8517(2)
O1 O 0.7500 0.2500 0.3672(2)
O2 O 0.9708(1) 0.3653(1) 0.7484(1)
N1 N 0.8440(1) 0.2694(2) 0.5690(2)
H1 H 0.834(2) 0.269(2) 0.654(2)
H2 H 1.170(2) 0.441(2) 0.648(2)
H3 H 1.232(2) 0.429(1) 0.430(2)
H4 H 1.124(2) 0.336(2) 0.267(2)
H5 H 0.945(1) 0.260(2) 0.331(2)
H6 H 0.985(2) 0.409(2) 0.929(2)
H7 H 1.043(2) 0.501(2) 0.830(2)
H8 H 1.105(2) 0.389(2) 0.867(2)
N1B N 0.6560(1) 0.2306(2) 0.5690(2)
C1B C 0.5507(2) 0.1910(2) 0.5234(2)
H1B H 0.666(2) 0.231(2) 0.654(2)
C2B C 0.4826(2) 0.1377(2) 0.6204(2)
C6B C 0.5092(2) 0.2019(2) 0.3923(2)
C3B C 0.3806(2) 0.0936(2) 0.5858(2)
O2B O 0.5292(1) 0.1347(1) 0.7484(1)
C5B C 0.4060(2) 0.1574(2) 0.3584(2)
H5B H 0.555(1) 0.240(2) 0.331(2)
C4B C 0.3420(2) 0.1030(2) 0.4532(2)
H2B H 0.330(2) 0.059(2) 0.648(2)
C8B C 0.4686(2) 0.0771(2) 0.8517(2)
H4B H 0.376(2) 0.164(2) 0.267(2)
H3B H 0.268(2) 0.071(1) 0.430(2)
H6B H 0.515(2) 0.091(2) 0.929(2)
H7B H 0.457(2) -0.001(2) 0.830(2)
H8B H 0.395(2) 0.111(2) 0.867(2)
loop_
_geom_bond_atom_site_label_1
_geom_bond_atom_site_label_2
_geom_bond_site_symmetry_1
_geom_bond_site_symmetry_2
C1 C2 1_555 1_555
C2 C3 1_555 1_555
C3 C4 1_555 1_555
C4 C5 1_555 1_555
C5 C6 1_555 1_555
C6 C1 1_555 1_555
C7 O1 1_555 1_555
C8 O2 1_555 1_555
O2 C2 1_555 1_555
N1 C1 1_555 1_555
H1 N1 1_555 1_555
H2 C3 1_555 1_555
H3 C4 1_555 1_555
H4 C5 1_555 1_555
H5 C6 1_555 1_555
H6 C8 1_555 1_555
H7 C8 1_555 1_555
H8 C8 1_555 1_555
N1B C7 1_555 1_555
C1B N1B 1_555 1_555
H1B N1B 1_555 1_555
C2B C1B 1_555 1_555
C6B C1B 1_555 1_555
C3B C2B 1_555 1_555
O2B C2B 1_555 1_555
C5B C6B 1_555 1_555
H5B C6B 1_555 1_555
C4B C3B 1_555 1_555
H2B C3B 1_555 1_555
C8B O2B 1_555 1_555
H4B C5B 1_555 1_555
H3B C4B 1_555 1_555
H6B C8B 1_555 1_555
H7B C8B 1_555 1_555
H8B C8B 1_555 1_555
C7 N1 1_555 1_555
C5B C4B 1_555 1_555

#END
