
#######################################################################
#
#                 Cambridge Crystallographic Data Centre
#                                CCDC 
#
#######################################################################
#
# If this CIF has been generated from an entry in the Cambridge 
# Structural Database, then it will include bibliographic, chemical, 
# crystal, experimental, refinement or atomic coordinate data resulting 
# from the CCDC's data processing and validation procedures.
#
#######################################################################

data_SILVOA
_chemical_formula_moiety         'C24 H20 N2'
_chemical_name_systematic        N,N'-Butane-2,3-diylidenedinaphthalen-2-amine
_symmetry_cell_setting           monoclinic
_symmetry_space_group_name_H-M   'P 21/c'
_symmetry_Int_Tables_number      14
_space_group_name_Hall           '-P 2ybc'
loop_
_symmetry_equiv_pos_site_id
_symmetry_equiv_pos_as_xyz
1 x,y,z
2 -x,1/2+y,1/2-z
3 -x,-y,-z
4 x,1/2-y,1/2+z
_cell_length_a                   17.726(13)
_cell_length_b                   5.818(4)
_cell_length_c                   8.475(6)
_cell_angle_alpha                90
_cell_angle_beta                 92.057(9)
_cell_angle_gamma                90
_cell_volume                     873.462
_exptl_crystal_colour            yellow
_exptl_crystal_description       block
_cell_formula_units_Z            2
loop_
_atom_site_label
_atom_site_type_symbol
_atom_site_fract_x
_atom_site_fract_y
_atom_site_fract_z
C1 C 0.33278(8) 0.4873(3) 0.4370(2)
C2 C 0.29251(8) 0.3414(3) 0.34155(19)
H1 H 0.3142 0.2037 0.3108
C3 C 0.21817(8) 0.3953(3) 0.28824(19)
C4 C 0.17503(9) 0.2484(3) 0.1888(2)
H2 H 0.1958 0.1108 0.1553
C5 C 0.10335(9) 0.3052(3) 0.1411(2)
H3 H 0.0755 0.2060 0.0757
C6 C 0.07133(9) 0.5110(3) 0.1896(2)
H4 H 0.0224 0.5487 0.1559
C7 C 0.11122(8) 0.6564(3) 0.2856(2)
H5 H 0.0892 0.7930 0.3176
C8 C 0.18563(8) 0.6035(3) 0.33754(19)
C9 C 0.22838(9) 0.7490(3) 0.43826(19)
H6 H 0.2073 0.8859 0.4723
C10 C 0.29974(9) 0.6936(3) 0.4867(2)
H7 H 0.3271 0.7926 0.5533
C11 C 0.46333(8) 0.5393(3) 0.46342(18)
C12 C 0.46432(9) 0.7417(3) 0.3564(2)
H8 H 0.4234 0.7301 0.2795
H9 H 0.5114 0.7459 0.3037
H10 H 0.4588 0.8798 0.4169
N1 N 0.40545(7) 0.4220(2) 0.49594(16)
C1B C 0.66722(8) 0.5127(3) 0.5630(2)
C2B C 0.70749(8) 0.6586(3) 0.65845(19)
H1B H 0.6858 0.7963 0.6892
C3B C 0.78183(8) 0.6047(3) 0.71176(19)
C4B C 0.82497(9) 0.7516(3) 0.8112(2)
H2B H 0.8042 0.8892 0.8447
C5B C 0.89665(9) 0.6948(3) 0.8589(2)
H3B H 0.9245 0.7940 0.9243
C6B C 0.92867(9) 0.4890(3) 0.8104(2)
H4B H 0.9776 0.4513 0.8441
C7B C 0.88878(8) 0.3436(3) 0.7144(2)
H5B H 0.9108 0.2070 0.6824
C8B C 0.81437(8) 0.3965(3) 0.66246(19)
C9B C 0.77162(9) 0.2510(3) 0.56174(19)
H6B H 0.7927 0.1141 0.5277
C10B C 0.70026(9) 0.3064(3) 0.5133(2)
H7B H 0.6729 0.2074 0.4467
C11B C 0.53667(8) 0.4607(3) 0.53658(18)
C12B C 0.53568(9) 0.2583(3) 0.6436(2)
H8B H 0.5766 0.2699 0.7205
H9B H 0.4886 0.2541 0.6963
H10B H 0.5412 0.1202 0.5831
N1B N 0.59455(7) 0.5780(2) 0.50406(16)
loop_
_geom_bond_atom_site_label_1
_geom_bond_atom_site_label_2
_geom_bond_site_symmetry_1
_geom_bond_site_symmetry_2
C1 C2 1_555 1_555
C2 H1 1_555 1_555
C3 C2 1_555 1_555
C4 C3 1_555 1_555
H2 C4 1_555 1_555
C5 C4 1_555 1_555
H3 C5 1_555 1_555
C6 C5 1_555 1_555
H4 C6 1_555 1_555
C7 C6 1_555 1_555
H5 C7 1_555 1_555
C8 C3 1_555 1_555
C9 C8 1_555 1_555
H6 C9 1_555 1_555
C10 C1 1_555 1_555
H7 C10 1_555 1_555
C11 C12 1_555 1_555
C12 H8 1_555 1_555
H9 C12 1_555 1_555
H10 C12 1_555 1_555
N1 C1 1_555 1_555
C1B C2B 1_555 1_555
C2B H1B 1_555 1_555
C3B C2B 1_555 1_555
C4B C3B 1_555 1_555
H2B C4B 1_555 1_555
C5B C4B 1_555 1_555
H3B C5B 1_555 1_555
C6B C5B 1_555 1_555
H4B C6B 1_555 1_555
C7B C6B 1_555 1_555
H5B C7B 1_555 1_555
C8B C3B 1_555 1_555
C9B C8B 1_555 1_555
H6B C9B 1_555 1_555
C10B C1B 1_555 1_555
H7B C10B 1_555 1_555
C11B C11 1_555 1_555
C12B C11B 1_555 1_555
H8B C12B 1_555 1_555
H9B C12B 1_555 1_555
H10B C12B 1_555 1_555
N1B C1B 1_555 1_555
C7 C8 1_555 1_555
C9 C10 1_555 1_555
C11 N1 1_555 1_555
C7B C8B 1_555 1_555
C9B C10B 1_555 1_555
C11B N1B 1_555 1_555

#END
