
#######################################################################
#
#                 Cambridge Crystallographic Data Centre
#                                CCDC 
#
#######################################################################
#
# If this CIF has been generated from an entry in the Cambridge 
# Structural Database, then it will include bibliographic, chemical, 
# crystal, experimental, refinement or atomic coordinate data resulting 
# from the CCDC's data processing and validation procedures.
#
#######################################################################

data_SIMBOG
_chemical_formula_moiety         'C17 H22 O5'
_chemical_name_systematic        
'Ethyl 2-(2-acetyl-5-(3-methylbut-2-enyloxy)phenoxy)acetate'
_symmetry_cell_setting           triclinic
_symmetry_space_group_name_H-M   'P -1'
_symmetry_Int_Tables_number      2
_space_group_name_Hall           '-P 1'
loop_
_symmetry_equiv_pos_site_id
_symmetry_equiv_pos_as_xyz
1 x,y,z
2 -x,-y,-z
_cell_length_a                   8.271(3)
_cell_length_b                   9.663(3)
_cell_length_c                   10.514(4)
_cell_angle_alpha                108.837(6)
_cell_angle_beta                 90.689(6)
_cell_angle_gamma                94.101(6)
_cell_volume                     792.716
_exptl_crystal_colour            colorless
_exptl_crystal_description       block
_chemical_melting_point          '336 K'
_cell_formula_units_Z            2
_exptl_crystal_recrystallization_method acetone
loop_
_atom_site_label
_atom_site_type_symbol
_atom_site_fract_x
_atom_site_fract_y
_atom_site_fract_z
O1 O 0.34331(13) 0.16237(13) 0.45657(12)
O2 O 0.01594(14) -0.08029(15) 0.29291(13)
O3 O 0.28162(13) -0.08099(13) 0.27446(12)
O4 O 0.82619(14) 0.29474(17) 0.52084(15)
O5 O 0.23306(13) 0.61679(13) 0.78407(12)
C1 C 0.39009(18) 0.29473(17) 0.54707(15)
C2 C 0.27944(18) 0.38430(17) 0.62136(15)
H1 H 0.1696 0.3534 0.6117
C3 C 0.33193(19) 0.51963(18) 0.70987(15)
C4 C 0.4951(2) 0.56354(19) 0.72555(17)
H2 H 0.5314 0.6547 0.7858
C5 C 0.60211(19) 0.47321(19) 0.65274(17)
H3 H 0.7119 0.5044 0.6646
C6 C 0.55584(18) 0.33658(18) 0.56134(15)
C7 C 0.6866(2) 0.2509(2) 0.48763(17)
C8 C 0.6515(2) 0.1141(2) 0.3735(2)
H4 H 0.7514 0.0783 0.3356
H5 H 0.5856 0.1333 0.3063
H6 H 0.5946 0.0417 0.4047
C9 C 0.17736(18) 0.11706(19) 0.43778(17)
H7 H 0.1194 0.1908 0.4161
H8 H 0.1357 0.1068 0.5204
C10 C 0.14942(19) -0.02523(19) 0.32741(16)
C11 C 0.2603(2) -0.21987(19) 0.16799(18)
H9 H 0.1845 -0.2142 0.0991
H10 H 0.2181 -0.2961 0.2030
C12 C 0.4202(3) -0.2529(2) 0.1116(2)
H11 H 0.4613 -0.1761 0.0784
H12 H 0.4103 -0.3445 0.0392
H13 H 0.4936 -0.2598 0.1804
C13 C 0.06248(19) 0.58754(19) 0.75686(18)
H14 H 0.0214 0.5093 0.7897
H15 H 0.0388 0.5575 0.6608
C14 C -0.0144(2) 0.72352(19) 0.82578(17)
H16 H 0.0133 0.8030 0.7966
C15 C -0.11704(19) 0.74632(17) 0.92300(16)
C16 C -0.1704(2) 0.6375(2) 0.98913(19)
H17 H -0.1138 0.5507 0.9531
H18 H -0.2850 0.6129 0.9730
H19 H -0.1470 0.6784 1.0842
C17 C -0.1906(2) 0.8888(2) 0.9761(2)
H20 H -0.1407 0.9572 0.9367
H21 H -0.1737 0.9265 1.0721
H22 H -0.3048 0.8746 0.9539
loop_
_geom_bond_atom_site_label_1
_geom_bond_atom_site_label_2
_geom_bond_site_symmetry_1
_geom_bond_site_symmetry_2
O1 C1 1_555 1_555
O2 C10 1_555 1_555
O3 C10 1_555 1_555
O4 C7 1_555 1_555
O5 C3 1_555 1_555
C1 C2 1_555 1_555
C2 H1 1_555 1_555
C3 C2 1_555 1_555
C4 C3 1_555 1_555
H2 C4 1_555 1_555
C5 C4 1_555 1_555
H3 C5 1_555 1_555
C6 C1 1_555 1_555
C7 C6 1_555 1_555
C8 C7 1_555 1_555
H4 C8 1_555 1_555
H5 C8 1_555 1_555
H6 C8 1_555 1_555
C9 O1 1_555 1_555
H7 C9 1_555 1_555
H8 C9 1_555 1_555
C10 C9 1_555 1_555
C11 O3 1_555 1_555
H9 C11 1_555 1_555
H10 C11 1_555 1_555
C12 C11 1_555 1_555
H11 C12 1_555 1_555
H12 C12 1_555 1_555
H13 C12 1_555 1_555
C13 O5 1_555 1_555
H14 C13 1_555 1_555
H15 C13 1_555 1_555
C14 C13 1_555 1_555
H16 C14 1_555 1_555
C15 C14 1_555 1_555
C16 C15 1_555 1_555
H17 C16 1_555 1_555
H18 C16 1_555 1_555
H19 C16 1_555 1_555
C17 C15 1_555 1_555
H20 C17 1_555 1_555
H21 C17 1_555 1_555
H22 C17 1_555 1_555
C5 C6 1_555 1_555

#END
