
#######################################################################
#
#                 Cambridge Crystallographic Data Centre
#                                CCDC 
#
#######################################################################
#
# If this CIF has been generated from an entry in the Cambridge 
# Structural Database, then it will include bibliographic, chemical, 
# crystal, experimental, refinement or atomic coordinate data resulting 
# from the CCDC's data processing and validation procedures.
#
#######################################################################

data_SIMFUP
_chemical_formula_moiety         'C11 H14 N4 O6'
_chemical_name_systematic        
4,5,7,8-Tetrahydro-6H-1-(\b-D-ribofuranosyl)imidazo(4,5-e)(1,4)diazepine-5,8-dione
_symmetry_cell_setting           monoclinic
_symmetry_space_group_name_H-M   'P 21'
_symmetry_Int_Tables_number      4
_space_group_name_Hall           'P 2yb'
loop_
_symmetry_equiv_pos_site_id
_symmetry_equiv_pos_as_xyz
1 x,y,z
2 -x,1/2+y,-z
_cell_length_a                   5.043(2)
_cell_length_b                   7.315(3)
_cell_length_c                   16.825(6)
_cell_angle_alpha                90
_cell_angle_beta                 94.93(3)
_cell_angle_gamma                90
_cell_volume                     618.37
_exptl_crystal_colour            white
_chemical_melting_point          275-278deg.C
_cell_formula_units_Z            2
loop_
_atom_site_label
_atom_site_type_symbol
_atom_site_fract_x
_atom_site_fract_y
_atom_site_fract_z
O1 O 1.0012(4) 0.6401 0.4911(1)
O2 O 0.4842(4) 0.4506(4) 0.7582(1)
O3 O 0.0023(2) 0.9262(3) 0.8075(1)
O4 O 0.1905(3) 0.6298(3) 0.9195(1)
O5 O 0.4312(3) 0.9457(4) 0.9916(1)
O6 O -0.2310(3) 1.2644(3) 0.8849(1)
N1 N 0.8174(3) 0.8116(4) 0.5830(1)
N2 N 0.6486(4) 0.4405(4) 0.6368(1)
N3 N 0.3486(3) 0.8378(4) 0.7306(1)
N4 N 0.5610(4) 1.0235(4) 0.6516(1)
C1 C 0.8364(4) 0.6554(4) 0.5407(1)
C2 C 0.6382(4) 0.5055(4) 0.5545(1)
C3 C 0.5394(4) 0.5293(4) 0.6966(1)
C4 C 0.5015(4) 0.7262(4) 0.6845(1)
C5 C 0.3925(4) 1.0109(4) 0.7081(1)
C6 C 0.6290(4) 0.8473(4) 0.6377(1)
C7 C 0.1783(4) 0.7808(4) 0.7942(1)
C8 C 0.3422(4) 0.7458(4) 0.8736(1)
C9 C 0.3509(3) 0.9376(4) 0.9092(1)
C10 C 0.0679(4) 1.0035(4) 0.8865(1)
C11 C 0.0423(4) 1.2093(4) 0.8867(1)
H1 H 0.9091 0.9126 0.5692
H2 H 0.4582 0.5560 0.5329
H3 H 0.6897 0.4080 0.5220
H4 H 0.6730 0.3243 0.6451
H5 H 0.3037 0.5723 0.9551
H6 H 0.3017 1.1175 0.7283
H7 H 0.3413 0.8880 1.0169
H8 H -0.2556 1.3254 0.8373
H9 H 0.0740 0.6742 0.7788
H10 H 0.5074 0.6988 0.8674
H11 H 0.4761 1.0076 0.8802
H12 H -0.0468 0.9541 0.9206
H13 H 0.1306 1.2610 0.9424
H14 H 0.1322 1.2664 0.8376
loop_
_geom_bond_atom_site_label_1
_geom_bond_atom_site_label_2
_geom_bond_site_symmetry_1
_geom_bond_site_symmetry_2
O1 C1 1_555 1_555
O2 C3 1_555 1_555
O3 C7 1_555 1_555
O4 C8 1_555 1_555
O5 C9 1_555 1_555
O6 C11 1_555 1_555
N1 C1 1_555 1_555
N2 C2 1_555 1_555
N3 C4 1_555 1_555
N4 C5 1_555 1_555
C1 C2 1_555 1_555
C2 H2 1_555 1_555
C3 N2 1_555 1_555
C4 C3 1_555 1_555
C5 N3 1_555 1_555
C6 N1 1_555 1_555
C7 N3 1_555 1_555
C8 C7 1_555 1_555
C9 C8 1_555 1_555
C10 O3 1_555 1_555
C11 C10 1_555 1_555
H1 N1 1_555 1_555
H3 C2 1_555 1_555
H4 N2 1_555 1_555
H5 O4 1_555 1_555
H6 C5 1_555 1_555
H7 O5 1_555 1_555
H8 O6 1_555 1_555
H9 C7 1_555 1_555
H10 C8 1_555 1_555
H11 C9 1_555 1_555
H12 C10 1_555 1_555
H13 C11 1_555 1_555
H14 C11 1_555 1_555
N4 C6 1_555 1_555
C4 C6 1_555 1_555
C9 C10 1_555 1_555

#END
