
#######################################################################
#
#                 Cambridge Crystallographic Data Centre
#                                CCDC 
#
#######################################################################
#
# If this CIF has been generated from an entry in the Cambridge 
# Structural Database, then it will include bibliographic, chemical, 
# crystal, experimental, refinement or atomic coordinate data resulting 
# from the CCDC's data processing and validation procedures.
#
#######################################################################

data_SIMJOQ
_chemical_formula_moiety         'C18 H21 N1 O5'
_chemical_name_systematic        
'(1R,2R,4R)-(-)-2-acetyl-2-methyl-4-(prop-1-en-2-yl)cyclopentyl 4-nitrobenzoate'
_symmetry_cell_setting           orthorhombic
_symmetry_space_group_name_H-M   'P 21 21 21'
_symmetry_Int_Tables_number      19
_space_group_name_Hall           'P 2ac 2ab'
loop_
_symmetry_equiv_pos_site_id
_symmetry_equiv_pos_as_xyz
1 x,y,z
2 1/2-x,-y,1/2+z
3 -x,1/2+y,1/2-z
4 1/2+x,1/2-y,-z
_cell_length_a                   5.8561(3)
_cell_length_b                   9.2176(5)
_cell_length_c                   31.4525(18)
_cell_angle_alpha                90
_cell_angle_beta                 90
_cell_angle_gamma                90
_cell_volume                     1697.78
_exptl_crystal_colour            colorless
_exptl_crystal_description       needle
_cell_formula_units_Z            4
_exptl_crystal_recrystallization_method cyclohexane
loop_
_atom_site_label
_atom_site_type_symbol
_atom_site_fract_x
_atom_site_fract_y
_atom_site_fract_z
O1 O 0.6234(3) 0.5155(2) 0.25365(5)
O2 O 0.4033(3) 0.39074(18) 0.36957(5)
O3 O 0.7583(3) 0.3207(3) 0.38530(7)
O4 O -0.0225(4) -0.0371(2) 0.52879(7)
O5 O 0.2683(3) -0.1793(2) 0.52159(7)
N1 N 0.1637(4) -0.0680(2) 0.51340(7)
C1 C 0.4874(4) 0.4828(2) 0.33525(7)
H1 H 0.636583 0.446694 0.323974
C2 C 0.5066(4) 0.6398(3) 0.35090(8)
H2 H 0.650780 0.684007 0.340781
H3 H 0.504728 0.642960 0.382363
C3 C 0.2976(4) 0.7232(2) 0.33252(7)
H4 H 0.351118 0.780617 0.307459
C4 C 0.1404(4) 0.6025(2) 0.31616(8)
H5 H 0.043063 0.638276 0.292657
H6 H 0.041092 0.565761 0.339244
C5 C 0.3027(4) 0.4834(2) 0.30048(7)
C6 C 0.1831(4) 0.8265(3) 0.36316(7)
C7 C 0.1616(5) 0.9654(3) 0.35356(8)
H7 H 0.088148 1.029543 0.372850
H8 H 0.219615 1.001152 0.327369
C8 C 0.0941(5) 0.7652(3) 0.40417(8)
H9 H 0.008334 0.840192 0.419433
H10 H 0.222463 0.732607 0.421734
H11 H -0.006554 0.682833 0.398115
C9 C 0.1814(4) 0.3388(3) 0.29344(8)
H12 H 0.070739 0.348773 0.270241
H13 H 0.101541 0.310405 0.319532
H14 H 0.293918 0.264273 0.286018
C10 C 0.4177(4) 0.5246(3) 0.25839(8)
C11 C 0.2716(5) 0.5733(4) 0.22201(9)
H15 H 0.337314 0.538348 0.195248
H16 H 0.264633 0.679510 0.221598
H17 H 0.117215 0.533891 0.225378
C12 C 0.5572(4) 0.3140(3) 0.39104(8)
C13 C 0.4486(4) 0.2176(2) 0.42328(7)
C14 C 0.5692(4) 0.0956(3) 0.43630(8)
H18 H 0.716256 0.077049 0.424747
C15 C 0.4780(4) 0.0008(3) 0.46587(8)
H19 H 0.558719 -0.083476 0.474578
C16 C 0.2654(4) 0.0332(3) 0.48227(7)
C17 C 0.1424(4) 0.1541(3) 0.47054(8)
H20 H -0.002118 0.173775 0.482998
C18 C 0.2336(4) 0.2464(3) 0.44017(7)
H21 H 0.149857 0.328858 0.430934
loop_
_geom_bond_atom_site_label_1
_geom_bond_atom_site_label_2
_geom_bond_site_symmetry_1
_geom_bond_site_symmetry_2
O1 C10 1_555 1_555
O2 C1 1_555 1_555
O3 C12 1_555 1_555
O4 N1 1_555 1_555
O5 N1 1_555 1_555
N1 C16 1_555 1_555
C1 H1 1_555 1_555
C2 C1 1_555 1_555
H2 C2 1_555 1_555
H3 C2 1_555 1_555
C3 C2 1_555 1_555
H4 C3 1_555 1_555
C4 C3 1_555 1_555
H5 C4 1_555 1_555
H6 C4 1_555 1_555
C5 C1 1_555 1_555
C6 C3 1_555 1_555
C7 C6 1_555 1_555
H7 C7 1_555 1_555
H8 C7 1_555 1_555
C8 C6 1_555 1_555
H9 C8 1_555 1_555
H10 C8 1_555 1_555
H11 C8 1_555 1_555
C9 C5 1_555 1_555
H12 C9 1_555 1_555
H13 C9 1_555 1_555
H14 C9 1_555 1_555
C10 C5 1_555 1_555
C11 C10 1_555 1_555
H15 C11 1_555 1_555
H16 C11 1_555 1_555
H17 C11 1_555 1_555
C12 O2 1_555 1_555
C13 C12 1_555 1_555
C14 C13 1_555 1_555
H18 C14 1_555 1_555
C15 C14 1_555 1_555
H19 C15 1_555 1_555
C16 C15 1_555 1_555
C17 C16 1_555 1_555
H20 C17 1_555 1_555
C18 C13 1_555 1_555
H21 C18 1_555 1_555
C4 C5 1_555 1_555
C17 C18 1_555 1_555

#END
