
#######################################################################
#
#                 Cambridge Crystallographic Data Centre
#                                CCDC 
#
#######################################################################
#
# If this CIF has been generated from an entry in the Cambridge 
# Structural Database, then it will include bibliographic, chemical, 
# crystal, experimental, refinement or atomic coordinate data resulting 
# from the CCDC's data processing and validation procedures.
#
#######################################################################

data_SIMJOO
_chemical_formula_moiety         'C11 H9 N3'
_chemical_name_systematic        
2-(1-(3-Aminophenyl)ethylidene)propanedinitrile
_symmetry_cell_setting           monoclinic
_symmetry_space_group_name_H-M   'P 21/n'
_symmetry_Int_Tables_number      14
_space_group_name_Hall           '-P 2yn'
loop_
_symmetry_equiv_pos_site_id
_symmetry_equiv_pos_as_xyz
1 x,y,z
2 1/2-x,1/2+y,1/2-z
3 -x,-y,-z
4 1/2+x,1/2-y,1/2+z
_cell_length_a                   7.4654(8)
_cell_length_b                   13.7051(18)
_cell_length_c                   9.5361(17)
_cell_angle_alpha                90
_cell_angle_beta                 99.961(2)
_cell_angle_gamma                90
_cell_volume                     960.969
_exptl_crystal_colour            colorless
_exptl_crystal_description       needle
_cell_formula_units_Z            4
_exptl_crystal_recrystallization_method 'aqueous ethanol'
loop_
_atom_site_label
_atom_site_type_symbol
_atom_site_fract_x
_atom_site_fract_y
_atom_site_fract_z
N1 N 0.2598(3) 0.98666(15) 0.4529(3)
N2 N 0.1402(3) 0.89557(17) 0.0215(3)
N3 N 0.2430(3) 0.53195(15) 0.7174(2)
H1 H 0.2525 0.5189 0.8066
H2 H 0.2815 0.4908 0.6613
C1 C 0.2043(3) 0.92393(18) 0.3799(3)
C2 C 0.1377(3) 0.84685(16) 0.2806(2)
C3 C 0.1375(3) 0.87283(17) 0.1360(3)
C4 C 0.0880(3) 0.75772(16) 0.3203(2)
C5 C 0.0877(3) 0.73249(16) 0.4696(2)
C6 C 0.1566(3) 0.64313(16) 0.5219(3)
H3 H 0.1970 0.5988 0.4604
C7 C 0.1666(3) 0.61835(18) 0.6645(3)
C8 C 0.1040(3) 0.68524(19) 0.7545(3)
H4 H 0.1115 0.6709 0.8507
C9 C 0.0308(3) 0.7728(2) 0.7010(3)
H5 H -0.0139 0.8161 0.7616
C10 C 0.0223(3) 0.79763(17) 0.5605(3)
H6 H -0.0265 0.8573 0.5267
C11 C 0.0328(3) 0.68186(16) 0.2086(3)
H7 H 0.0460 0.7075 0.1172
H8 H -0.0918 0.6640 0.2073
H9 H 0.1088 0.6254 0.2294
loop_
_geom_bond_atom_site_label_1
_geom_bond_atom_site_label_2
_geom_bond_site_symmetry_1
_geom_bond_site_symmetry_2
N1 C1 1_555 1_555
N2 C3 1_555 1_555
N3 H1 1_555 1_555
H2 N3 1_555 1_555
C1 C2 1_555 1_555
C2 C3 1_555 1_555
C4 C2 1_555 1_555
C5 C4 1_555 1_555
C6 C5 1_555 1_555
H3 C6 1_555 1_555
C7 N3 1_555 1_555
C8 C7 1_555 1_555
H4 C8 1_555 1_555
C9 C8 1_555 1_555
H5 C9 1_555 1_555
C10 C5 1_555 1_555
H6 C10 1_555 1_555
C11 C4 1_555 1_555
H7 C11 1_555 1_555
H8 C11 1_555 1_555
H9 C11 1_555 1_555
C6 C7 1_555 1_555
C9 C10 1_555 1_555

#END
