
#######################################################################
#
#                 Cambridge Crystallographic Data Centre
#                                CCDC 
#
#######################################################################
#
# If this CIF has been generated from an entry in the Cambridge 
# Structural Database, then it will include bibliographic, chemical, 
# crystal, experimental, refinement or atomic coordinate data resulting 
# from the CCDC's data processing and validation procedures.
#
#######################################################################

data_SIMLEG
_chemical_formula_moiety         'C15 H14 Cl1 N1 O1'
_chemical_name_systematic        
2-((1E)-1-((4-Chlorophenyl)imino)ethyl)-4-methylphenol
_symmetry_cell_setting           monoclinic
_symmetry_space_group_name_H-M   'P 21/c'
_symmetry_Int_Tables_number      14
_space_group_name_Hall           '-P 2ybc'
loop_
_symmetry_equiv_pos_site_id
_symmetry_equiv_pos_as_xyz
1 x,y,z
2 -x,1/2+y,1/2-z
3 -x,-y,-z
4 x,1/2-y,1/2+z
_cell_length_a                   13.254(6)
_cell_length_b                   8.285(3)
_cell_length_c                   12.078(6)
_cell_angle_alpha                90
_cell_angle_beta                 95.640(9)
_cell_angle_gamma                90
_cell_volume                     1319.86
_exptl_crystal_colour            yellow
_exptl_crystal_description       block
_cell_formula_units_Z            4
_exptl_crystal_recrystallization_method DMF
loop_
_atom_site_label
_atom_site_type_symbol
_atom_site_fract_x
_atom_site_fract_y
_atom_site_fract_z
Cl1 Cl 1.38320(6) 0.11834(12) 0.47045(8)
O1 O 0.88869(14) 0.1765(3) 0.02565(14)
H1 H 0.9377 0.1657 0.0720
N1 N 0.98204(16) 0.1218(2) 0.21468(16)
C1 C 0.8031(2) 0.1469(3) 0.0733(2)
C2 C 0.80493(19) 0.0957(3) 0.18390(19)
C3 C 0.71244(19) 0.0670(3) 0.2254(2)
H2 H 0.7124 0.0326 0.2987
C4 C 0.6208(2) 0.0874(4) 0.1628(3)
C5 C 0.6225(2) 0.1373(4) 0.0542(3)
H3 H 0.5617 0.1515 0.0100
C6 C 0.7118(2) 0.1662(4) 0.0102(2)
H4 H 0.7108 0.1994 -0.0635
C7 C 0.5225(2) 0.0569(5) 0.2120(3)
H5 H 0.5257 0.1035 0.2850
H6 H 0.5114 -0.0573 0.2169
H7 H 0.4677 0.1049 0.1655
C8 C 0.90082(19) 0.0743(3) 0.25395(19)
C9 C 0.89928(18) -0.0049(3) 0.36422(18)
H8 H 0.9671 -0.0344 0.3922
H9 H 0.8577 -0.1000 0.3565
H10 H 0.8720 0.0684 0.4151
C10 C 1.07746(19) 0.1175(3) 0.2786(2)
C11 C 1.1540(2) 0.0262(4) 0.2436(2)
H11 H 1.1423 -0.0358 0.1794
C12 C 1.2482(2) 0.0251(4) 0.3027(2)
H12 H 1.2994 -0.0402 0.2802
C13 C 1.2658(2) 0.1204(4) 0.3943(2)
C14 C 1.1917(2) 0.2165(3) 0.4280(2)
H13 H 1.2049 0.2831 0.4897
C15 C 1.0969(2) 0.2150(3) 0.3705(2)
H14 H 1.0458 0.2799 0.3938
loop_
_geom_bond_atom_site_label_1
_geom_bond_atom_site_label_2
_geom_bond_site_symmetry_1
_geom_bond_site_symmetry_2
Cl1 C13 1_555 1_555
O1 H1 1_555 1_555
N1 C8 1_555 1_555
C1 O1 1_555 1_555
C2 C1 1_555 1_555
C3 C2 1_555 1_555
H2 C3 1_555 1_555
C4 C3 1_555 1_555
C5 C4 1_555 1_555
H3 C5 1_555 1_555
C6 C1 1_555 1_555
H4 C6 1_555 1_555
C7 C4 1_555 1_555
H5 C7 1_555 1_555
H6 C7 1_555 1_555
H7 C7 1_555 1_555
C8 C2 1_555 1_555
C9 C8 1_555 1_555
H8 C9 1_555 1_555
H9 C9 1_555 1_555
H10 C9 1_555 1_555
C10 N1 1_555 1_555
C11 C10 1_555 1_555
H11 C11 1_555 1_555
C12 C11 1_555 1_555
H12 C12 1_555 1_555
C13 C12 1_555 1_555
C14 C13 1_555 1_555
H13 C14 1_555 1_555
C15 C10 1_555 1_555
H14 C15 1_555 1_555
C5 C6 1_555 1_555
C14 C15 1_555 1_555

#END
