
#######################################################################
#
#                 Cambridge Crystallographic Data Centre
#                                CCDC 
#
#######################################################################
#
# If this CIF has been generated from an entry in the Cambridge 
# Structural Database, then it will include bibliographic, chemical, 
# crystal, experimental, refinement or atomic coordinate data resulting 
# from the CCDC's data processing and validation procedures.
#
#######################################################################

data_SIMMEJ01
_chemical_formula_moiety         'C41 H57 N5 O5,2(H2 O1)'
_chemical_name_systematic        
'methyl 3-acetamido-7,12-bis((phenylcarbamoyl)amino)cholan-24-oate dihydrate'
_symmetry_cell_setting           monoclinic
_symmetry_space_group_name_H-M   'P 21'
_symmetry_Int_Tables_number      4
_space_group_name_Hall           'P 2yb'
loop_
_symmetry_equiv_pos_site_id
_symmetry_equiv_pos_as_xyz
1 x,y,z
2 -x,1/2+y,-z
_cell_length_a                   12.1918(8)
_cell_length_b                   11.8870(8)
_cell_length_c                   14.1255(8)
_cell_angle_alpha                90
_cell_angle_beta                 94.494(4)
_cell_angle_gamma                90
_cell_volume                     2040.83
_exptl_crystal_colour            colorless
_exptl_crystal_description       Needle
_cell_formula_units_Z            2
loop_
_atom_site_label
_atom_site_type_symbol
_atom_site_fract_x
_atom_site_fract_y
_atom_site_fract_z
C1 C 0.2707(3) 0.7060(3) 0.8045(3)
H1 H 0.3106 0.7766 0.8214
H2 H 0.2604 0.6656 0.8645
C2 C 0.3426(3) 0.6341(4) 0.7452(3)
H3 H 0.3071 0.5601 0.7324
H4 H 0.4148 0.6210 0.7806
C3 C 0.3592(3) 0.6934(3) 0.6515(3)
H5 H 0.3980 0.7664 0.6651
C4 C 0.2469(3) 0.7169(3) 0.5987(3)
H6 H 0.2583 0.7569 0.5388
H7 H 0.2106 0.6443 0.5819
C5 C 0.1707(3) 0.7870(3) 0.6561(2)
H8 H 0.2077 0.8615 0.6672
C6 C 0.0607(3) 0.8111(3) 0.6005(2)
H9 H 0.0752 0.8360 0.5358
H10 H 0.0245 0.8742 0.6316
C7 C -0.0192(3) 0.7109(3) 0.5922(2)
H11 H -0.0924 0.7390 0.5651
C8 C -0.0341(3) 0.6603(3) 0.6902(2)
H12 H -0.0719 0.7182 0.7274
C9 C 0.0773(3) 0.6328(3) 0.7462(2)
H13 H 0.1148 0.5750 0.7087
C10 C 0.1556(3) 0.7367(3) 0.7565(2)
C11 C 0.0577(3) 0.5788(3) 0.8426(2)
H14 H 0.1295 0.5551 0.8738
H15 H 0.0266 0.6365 0.8834
C12 C -0.0198(3) 0.4768(3) 0.8361(2)
H16 H -0.0343 0.4540 0.9021
C13 C -0.1301(3) 0.5079(3) 0.7825(2)
C14 C -0.2102(3) 0.4108(3) 0.7529(3)
H17 H -0.1658 0.3481 0.7281
C15 C -0.2821(3) 0.4613(4) 0.6674(3)
H18 H -0.2941 0.4046 0.6163
H19 H -0.3546 0.4847 0.6876
C16 C -0.2199(3) 0.5637(3) 0.6314(2)
H20 H -0.2144 0.5593 0.5620
H21 H -0.2571 0.6348 0.6465
C17 C -0.1065(3) 0.5557(3) 0.6849(2)
H22 H -0.0651 0.4964 0.6524
C18 C -0.2119(3) 0.3232(4) 0.9179(3)
H23 H -0.1533 0.2728 0.9001
H24 H -0.2591 0.2833 0.9598
H25 H -0.1793 0.3890 0.9510
C19 C -0.1897(3) 0.5952(3) 0.8417(3)
H26 H -0.1495 0.6666 0.8428
H27 H -0.1927 0.5673 0.9067
H28 H -0.2647 0.6068 0.8130
C20 C 0.1072(3) 0.8284(3) 0.8181(3)
H29 H 0.1102 0.8030 0.8842
H30 H 0.0306 0.8427 0.7950
H31 H 0.1501 0.8977 0.8141
C21 C -0.2802(3) 0.3611(3) 0.8288(3)
H32 H -0.3317 0.4212 0.8477
C22 C -0.3501(3) 0.2626(4) 0.7869(3)
H33 H -0.3838 0.2844 0.7235
H34 H -0.3015 0.1972 0.7783
C23 C -0.4415(3) 0.2275(4) 0.8500(3)
H35 H -0.4808 0.1612 0.8218
H36 H -0.4083 0.2060 0.9136
C24 C -0.5214(3) 0.3217(4) 0.8596(3)
C25 C -0.6082(4) 0.4434(5) 0.9638(3)
H37 H -0.5839 0.5112 0.9320
H38 H -0.6102 0.4582 1.0318
H39 H -0.6819 0.4224 0.9369
C26 C 0.4857(3) 0.6670(4) 0.5270(3)
C27 C 0.5343(3) 0.5842(4) 0.4610(3)
H40 H 0.4976 0.5921 0.3971
H41 H 0.5239 0.5075 0.4841
H42 H 0.6131 0.5993 0.4589
C28 C 0.0314(3) 0.6397(3) 0.4369(2)
C29 C 0.1134(3) 0.3204(3) 0.8400(2)
C30 C 0.1214(3) 0.5378(3) 0.3067(3)
C31 C 0.0645(3) 0.5848(4) 0.2282(3)
H43 H 0.0107 0.6413 0.2356
C32 C 0.0869(4) 0.5484(4) 0.1380(3)
H44 H 0.0464 0.5793 0.0839
C33 C 0.1659(4) 0.4690(4) 0.1254(3)
H45 H 0.1800 0.4451 0.0633
C34 C 0.2249(4) 0.4239(4) 0.2039(4)
H46 H 0.2806 0.3697 0.1958
C35 C 0.2032(4) 0.4573(4) 0.2942(3)
H47 H 0.2438 0.4258 0.3479
C36 C 0.2403(3) 0.1614(3) 0.8117(3)
C37 C 0.2847(3) 0.0997(3) 0.7401(3)
H48 H 0.2641 0.1172 0.6755
C38 C 0.3584(3) 0.0132(3) 0.7617(3)
H49 H 0.3883 -0.0276 0.7119
C39 C 0.3892(3) -0.0147(3) 0.8564(3)
H50 H 0.4388 -0.0749 0.8715
C40 C 0.3460(3) 0.0473(4) 0.9274(3)
H51 H 0.3667 0.0293 0.9919
C41 C 0.2728(3) 0.1357(4) 0.9069(3)
H52 H 0.2452 0.1781 0.9568
O1 O -0.5717(2) 0.3685(3) 0.7938(2)
O2 O -0.5318(2) 0.3517(3) 0.94974(19)
O3 O 0.4996(3) 0.7700(3) 0.5187(2)
O4 O -0.0121(2) 0.7185(2) 0.39003(17)
O5 O 0.1361(2) 0.3300(3) 0.92572(18)
N1 N 0.4256(3) 0.6238(3) 0.5927(2)
H53 H 0.417(4) 0.5521(18) 0.599(3)
N2 N 0.0173(2) 0.6221(3) 0.5293(2)
H54 H 0.043(3) 0.560(2) 0.553(3)
N3 N 0.0998(3) 0.5615(3) 0.4013(2)
H55 H 0.122(3) 0.510(3) 0.441(2)
N4 N 0.0333(2) 0.3827(3) 0.7912(2)
H56 H 0.016(3) 0.368(4) 0.7299(15)
N5 N 0.1659(3) 0.2469(3) 0.7835(2)
H57 H 0.134(3) 0.242(4) 0.7244(17)
O6 O 0.1451(2) 0.4086(2) 0.5656(2)
H58 H 0.2087(19) 0.391(4) 0.572(3)
H59 H 0.094(3) 0.360(3) 0.562(3)
O7 O 0.3691(2) 0.3773(3) 0.59925(19)
H60 H 0.387(4) 0.358(4) 0.6558(18)
H61 H 0.404(3) 0.337(4) 0.562(3)
loop_
_geom_bond_atom_site_label_1
_geom_bond_atom_site_label_2
_geom_bond_site_symmetry_1
_geom_bond_site_symmetry_2
C1 H1 1_555 1_555
H2 C1 1_555 1_555
C2 C1 1_555 1_555
H3 C2 1_555 1_555
H4 C2 1_555 1_555
C3 C2 1_555 1_555
H5 C3 1_555 1_555
C4 C3 1_555 1_555
H6 C4 1_555 1_555
H7 C4 1_555 1_555
C5 C4 1_555 1_555
H8 C5 1_555 1_555
C6 C5 1_555 1_555
H9 C6 1_555 1_555
H10 C6 1_555 1_555
C7 C6 1_555 1_555
H11 C7 1_555 1_555
C8 C7 1_555 1_555
H12 C8 1_555 1_555
C9 C8 1_555 1_555
H13 C9 1_555 1_555
C10 C1 1_555 1_555
C11 C9 1_555 1_555
H14 C11 1_555 1_555
H15 C11 1_555 1_555
C12 C11 1_555 1_555
H16 C12 1_555 1_555
C13 C12 1_555 1_555
C14 C13 1_555 1_555
H17 C14 1_555 1_555
C15 C14 1_555 1_555
H18 C15 1_555 1_555
H19 C15 1_555 1_555
C16 C15 1_555 1_555
H20 C16 1_555 1_555
H21 C16 1_555 1_555
C17 C8 1_555 1_555
H22 C17 1_555 1_555
C18 H23 1_555 1_555
H24 C18 1_555 1_555
H25 C18 1_555 1_555
C19 C13 1_555 1_555
H26 C19 1_555 1_555
H27 C19 1_555 1_555
H28 C19 1_555 1_555
C20 C10 1_555 1_555
H29 C20 1_555 1_555
H30 C20 1_555 1_555
H31 C20 1_555 1_555
C21 C14 1_555 1_555
H32 C21 1_555 1_555
C22 C21 1_555 1_555
H33 C22 1_555 1_555
H34 C22 1_555 1_555
C23 C22 1_555 1_555
H35 C23 1_555 1_555
H36 C23 1_555 1_555
C24 C23 1_555 1_555
C25 H37 1_555 1_555
H38 C25 1_555 1_555
H39 C25 1_555 1_555
C26 C27 1_555 1_555
C27 H40 1_555 1_555
H41 C27 1_555 1_555
H42 C27 1_555 1_555
C28 O4 1_555 1_555
C29 O5 1_555 1_555
C30 C31 1_555 1_555
C31 H43 1_555 1_555
C32 C31 1_555 1_555
H44 C32 1_555 1_555
C33 C32 1_555 1_555
H45 C33 1_555 1_555
C34 C33 1_555 1_555
H46 C34 1_555 1_555
C35 C30 1_555 1_555
H47 C35 1_555 1_555
C36 C37 1_555 1_555
C37 H48 1_555 1_555
C38 C37 1_555 1_555
H49 C38 1_555 1_555
C39 C38 1_555 1_555
H50 C39 1_555 1_555
C40 C39 1_555 1_555
H51 C40 1_555 1_555
C41 C36 1_555 1_555
H52 C41 1_555 1_555
O1 C24 1_555 1_555
O2 C24 1_555 1_555
O3 C26 1_555 1_555
N1 C3 1_555 1_555
H53 N1 1_555 1_555
N2 C7 1_555 1_555
H54 N2 1_555 1_555
N3 C28 1_555 1_555
H55 N3 1_555 1_555
N4 C12 1_555 1_555
H56 N4 1_555 1_555
N5 C29 1_555 1_555
H57 N5 1_555 1_555
O6 H58 1_555 1_555
H59 O6 1_555 1_555
O7 H60 1_555 1_555
H61 O7 1_555 1_555
C5 C10 1_555 1_555
C9 C10 1_555 1_555
C13 C17 1_555 1_555
C16 C17 1_555 1_555
C18 C21 1_555 1_555
C25 O2 1_555 1_555
C26 N1 1_555 1_555
C28 N2 1_555 1_555
C29 N4 1_555 1_555
C30 N3 1_555 1_555
C34 C35 1_555 1_555
C36 N5 1_555 1_555
C40 C41 1_555 1_555

#END
