
#######################################################################
#
#                 Cambridge Crystallographic Data Centre
#                                CCDC 
#
#######################################################################
#
# If this CIF has been generated from an entry in the Cambridge 
# Structural Database, then it will include bibliographic, chemical, 
# crystal, experimental, refinement or atomic coordinate data resulting 
# from the CCDC's data processing and validation procedures.
#
#######################################################################

data_SIMMEJ
_chemical_formula_moiety         'C41 H57 N5 O5,2(H2 O1)'
_chemical_name_systematic        
'methyl 3-(acetylamino)-7,12-bis[(phenylcarbamoyl)amino]cholan-24-oate dihydrate'
_symmetry_cell_setting           tetragonal
_symmetry_space_group_name_H-M   'P 43 21 2'
_symmetry_Int_Tables_number      96
_space_group_name_Hall           'P 4nw 2abw'
loop_
_symmetry_equiv_pos_site_id
_symmetry_equiv_pos_as_xyz
1 x,y,z
2 -x,-y,1/2+z
3 1/2-y,1/2+x,3/4+z
4 1/2+y,1/2-x,1/4+z
5 1/2-x,1/2+y,3/4-z
6 1/2+x,1/2-y,1/4-z
7 y,x,-z
8 -y,-x,1/2-z
_cell_length_a                   11.9499(2)
_cell_length_b                   11.9499(2)
_cell_length_c                   56.2983(12)
_cell_angle_alpha                90
_cell_angle_beta                 90
_cell_angle_gamma                90
_cell_volume                     8039.4
_exptl_crystal_colour            colorless
_exptl_crystal_description       plate
_cell_formula_units_Z            8
loop_
_atom_site_label
_atom_site_type_symbol
_atom_site_fract_x
_atom_site_fract_y
_atom_site_fract_z
C1 C 0.5501(3) 0.5056(3) 0.04835(5)
H1 H 0.4813 0.4646 0.0439
H2 H 0.5903 0.5244 0.0335
C2 C 0.6242(3) 0.4271(3) 0.06305(6)
H3 H 0.6399 0.3582 0.0539
H4 H 0.6964 0.4643 0.0666
C3 C 0.5648(3) 0.3972(3) 0.08626(6)
H5 H 0.4940 0.3563 0.0825
C4 C 0.5370(3) 0.5039(3) 0.09972(5)
H6 H 0.6076 0.5411 0.1044
H7 H 0.4962 0.4840 0.1144
C5 C 0.4661(3) 0.5865(3) 0.08538(6)
H8 H 0.3930 0.5483 0.0823
C6 C 0.4390(3) 0.6916(3) 0.10018(6)
H9 H 0.3760 0.7317 0.0926
H10 H 0.4138 0.6678 0.1162
C7 C 0.5368(3) 0.7726(3) 0.10300(6)
H11 H 0.5078 0.8428 0.1105
C8 C 0.5859(3) 0.8031(3) 0.07846(5)
H12 H 0.5274 0.8456 0.0695
C9 C 0.5157(3) 0.6158(3) 0.06065(5)
C10 C 0.6165(3) 0.6979(3) 0.06353(5)
H13 H 0.6766 0.6570 0.0723
C11 C 0.6664(3) 0.7358(3) 0.03951(5)
H14 H 0.6905 0.6686 0.0306
H15 H 0.6068 0.7727 0.0301
C12 C 0.7663(3) 0.8163(3) 0.04155(5)
H16 H 0.7854 0.8429 0.0252
C13 C 0.7346(3) 0.9198(3) 0.05663(5)
C14 C 0.6890(3) 0.8784(3) 0.08065(5)
H17 H 0.7493 0.8318 0.0880
C15 C 0.6792(3) 0.9838(3) 0.09580(5)
H18 H 0.6831 0.9657 0.1129
H19 H 0.6084 1.0239 0.0925
C16 C 0.7816(3) 1.0537(3) 0.08790(6)
H20 H 0.8379 1.0567 0.1008
H21 H 0.7584 1.1311 0.0840
C17 C 0.8321(3) 0.9958(3) 0.06557(5)
H22 H 0.8933 0.9452 0.0712
C18 C 0.4235(3) 0.6696(3) 0.04505(6)
H23 H 0.4474 0.6692 0.0284
H24 H 0.4108 0.7469 0.0502
H25 H 0.3540 0.6268 0.0467
C19 C 0.6490(3) 0.9908(3) 0.04306(5)
H26 H 0.5780 0.9501 0.0420
H27 H 0.6771 1.0060 0.0270
H28 H 0.6372 1.0616 0.0515
C20 C 0.8845(3) 1.0796(3) 0.04827(5)
H29 H 0.8268 1.1371 0.0442
C21 C 0.9238(3) 1.0250(3) 0.02517(5)
H30 H 0.9712 0.9604 0.0289
H31 H 0.9667 1.0793 0.0159
H32 H 0.8587 1.0002 0.0160
C22 C 0.9824(3) 1.1391(3) 0.06098(6)
H33 H 0.9546 1.1709 0.0761
H34 H 1.0404 1.0829 0.0649
C23 C 1.0362(3) 1.2327(3) 0.04643(6)
H35 H 1.0969 1.2677 0.0558
H36 H 1.0696 1.2008 0.0318
C24 C 0.9519(3) 1.3199(3) 0.03978(6)
C25 C 0.8546(4) 1.4087(4) 0.00876(7)
H37 H 0.7817 1.3901 0.0157
H38 H 0.8491 1.4075 -0.0086
H39 H 0.8773 1.4835 0.0140
C26 C 0.5928(3) 0.2599(3) 0.11823(6)
C27 C 0.6744(4) 0.2138(3) 0.13612(6)
H40 H 0.6691 0.2569 0.1509
H41 H 0.7506 0.2193 0.1298
H42 H 0.6566 0.1352 0.1393
C28 C 0.6183(3) 0.6999(3) 0.14086(5)
C29 C 0.7271(3) 0.5807(3) 0.16985(6)
C30 C 0.6833(3) 0.6168(3) 0.19134(6)
H43 H 0.6329 0.6782 0.1919
C31 C 0.7143(3) 0.5619(4) 0.21207(6)
H44 H 0.6851 0.5869 0.2268
C32 C 0.7870(4) 0.4713(4) 0.21163(7)
H45 H 0.8067 0.4343 0.2260
C33 C 0.8302(4) 0.4357(4) 0.19034(7)
H46 H 0.8810 0.3746 0.1899
C34 C 0.7997(3) 0.4890(3) 0.16942(6)
H47 H 0.8284 0.4629 0.1547
C35 C 0.9336(3) 0.6979(3) 0.03713(6)
C36 C 1.0984(3) 0.5704(3) 0.04160(7)
C37 C 1.1563(3) 0.5073(3) 0.05854(7)
H48 H 1.1407 0.5177 0.0749
C38 C 1.2362(3) 0.4298(3) 0.05161(8)
H49 H 1.2753 0.3880 0.0633
C39 C 1.2594(3) 0.4127(4) 0.02810(9)
H50 H 1.3131 0.3585 0.0234
C40 C 1.2034(4) 0.4757(5) 0.01130(8)
H51 H 1.2197 0.4645 -0.0050
C41 C 1.1236(3) 0.5552(4) 0.01766(7)
H52 H 1.0869 0.5984 0.0058
N1 N 0.6357(3) 0.3265(3) 0.10133(5)
H53 H 0.7077(17) 0.336(4) 0.1012(7)
N2 N 0.6288(2) 0.7301(3) 0.11782(5)
H54 H 0.687(2) 0.701(3) 0.1110(6)
N3 N 0.7044(2) 0.6315(3) 0.14780(5)
H55 H 0.753(3) 0.613(3) 0.1369(5)
N4 N 0.8643(3) 0.7584(2) 0.05114(5)
H56 H 0.866(3) 0.740(3) 0.0659(4)
N5 N 1.0176(3) 0.6454(3) 0.04987(5)
H57 H 1.022(3) 0.662(3) 0.0650(4)
O1 O 0.8995(2) 1.3766(2) 0.05382(4)
O2 O 0.9367(3) 1.3277(2) 0.01643(4)
O3 O 0.4919(2) 0.2395(3) 0.11942(5)
O4 O 0.5398(2) 0.7306(2) 0.15370(4)
O5 O 0.9236(2) 0.6912(2) 0.01563(4)
O6 O 0.8770(2) 0.4012(2) 0.10183(4)
H58 H 0.896(4) 0.380(4) 0.0880(4)
H59 H 0.920(3) 0.364(3) 0.1107(6)
O7 O 0.8508(2) 0.6285(2) 0.10487(5)
H60 H 0.865(4) 0.5589(18) 0.1038(8)
H61 H 0.912(2) 0.665(3) 0.1049(7)
loop_
_geom_bond_atom_site_label_1
_geom_bond_atom_site_label_2
_geom_bond_site_symmetry_1
_geom_bond_site_symmetry_2
C1 H1 1_555 1_555
H2 C1 1_555 1_555
C2 C1 1_555 1_555
H3 C2 1_555 1_555
H4 C2 1_555 1_555
C3 C2 1_555 1_555
H5 C3 1_555 1_555
C4 C3 1_555 1_555
H6 C4 1_555 1_555
H7 C4 1_555 1_555
C5 C4 1_555 1_555
H8 C5 1_555 1_555
C6 C5 1_555 1_555
H9 C6 1_555 1_555
H10 C6 1_555 1_555
C7 C6 1_555 1_555
H11 C7 1_555 1_555
C8 C7 1_555 1_555
H12 C8 1_555 1_555
C9 C1 1_555 1_555
C10 C8 1_555 1_555
H13 C10 1_555 1_555
C11 C10 1_555 1_555
H14 C11 1_555 1_555
H15 C11 1_555 1_555
C12 C11 1_555 1_555
H16 C12 1_555 1_555
C13 C12 1_555 1_555
C14 C8 1_555 1_555
H17 C14 1_555 1_555
C15 C14 1_555 1_555
H18 C15 1_555 1_555
H19 C15 1_555 1_555
C16 C15 1_555 1_555
H20 C16 1_555 1_555
H21 C16 1_555 1_555
C17 C13 1_555 1_555
H22 C17 1_555 1_555
C18 C9 1_555 1_555
H23 C18 1_555 1_555
H24 C18 1_555 1_555
H25 C18 1_555 1_555
C19 C13 1_555 1_555
H26 C19 1_555 1_555
H27 C19 1_555 1_555
H28 C19 1_555 1_555
C20 C17 1_555 1_555
H29 C20 1_555 1_555
C21 C20 1_555 1_555
H30 C21 1_555 1_555
H31 C21 1_555 1_555
H32 C21 1_555 1_555
C22 C20 1_555 1_555
H33 C22 1_555 1_555
H34 C22 1_555 1_555
C23 C22 1_555 1_555
H35 C23 1_555 1_555
H36 C23 1_555 1_555
C24 C23 1_555 1_555
C25 H37 1_555 1_555
H38 C25 1_555 1_555
H39 C25 1_555 1_555
C26 C27 1_555 1_555
C27 H40 1_555 1_555
H41 C27 1_555 1_555
H42 C27 1_555 1_555
C28 N2 1_555 1_555
C29 C30 1_555 1_555
C30 H43 1_555 1_555
C31 C30 1_555 1_555
H44 C31 1_555 1_555
C32 C31 1_555 1_555
H45 C32 1_555 1_555
C33 C32 1_555 1_555
H46 C33 1_555 1_555
C34 C29 1_555 1_555
H47 C34 1_555 1_555
C35 N4 1_555 1_555
C36 C37 1_555 1_555
C37 H48 1_555 1_555
C38 C37 1_555 1_555
H49 C38 1_555 1_555
C39 C38 1_555 1_555
H50 C39 1_555 1_555
C40 C39 1_555 1_555
H51 C40 1_555 1_555
C41 C36 1_555 1_555
H52 C41 1_555 1_555
N1 C3 1_555 1_555
H53 N1 1_555 1_555
N2 C7 1_555 1_555
H54 N2 1_555 1_555
N3 C28 1_555 1_555
H55 N3 1_555 1_555
N4 C12 1_555 1_555
H56 N4 1_555 1_555
N5 C35 1_555 1_555
H57 N5 1_555 1_555
O1 C24 1_555 1_555
O2 C24 1_555 1_555
O3 C26 1_555 1_555
O4 C28 1_555 1_555
O5 C35 1_555 1_555
O6 H58 1_555 1_555
H59 O6 1_555 1_555
O7 H60 1_555 1_555
H61 O7 1_555 1_555
C5 C9 1_555 1_555
C9 C10 1_555 1_555
C13 C14 1_555 1_555
C16 C17 1_555 1_555
C25 O2 1_555 1_555
C26 N1 1_555 1_555
C29 N3 1_555 1_555
C33 C34 1_555 1_555
C36 N5 1_555 1_555
C40 C41 1_555 1_555

#END
