
#######################################################################
#
#                 Cambridge Crystallographic Data Centre
#                                CCDC 
#
#######################################################################
#
# If this CIF has been generated from an entry in the Cambridge 
# Structural Database, then it will include bibliographic, chemical, 
# crystal, experimental, refinement or atomic coordinate data resulting 
# from the CCDC's data processing and validation procedures.
#
#######################################################################

data_SIMMEI
_chemical_formula_moiety         'C40 H42 O1 Si4'
_chemical_name_systematic        
1,1'-Oxybis(1,1-dimethyl-2,2,2-triphenyldisilane)
_symmetry_cell_setting           monoclinic
_symmetry_space_group_name_H-M   'C 2/c'
_symmetry_Int_Tables_number      15
_space_group_name_Hall           '-C 2yn'
loop_
_symmetry_equiv_pos_site_id
_symmetry_equiv_pos_as_xyz
1 x,y,z
2 -x,y,1/2-z
3 1/2+x,1/2+y,z
4 1/2-x,1/2+y,1/2-z
5 -x,-y,-z
6 x,-y,1/2+z
7 1/2-x,1/2-y,-z
8 1/2+x,1/2-y,1/2+z
_cell_length_a                   16.799(4)
_cell_length_b                   9.713(2)
_cell_length_c                   23.059(6)
_cell_angle_alpha                90
_cell_angle_beta                 90.016(3)
_cell_angle_gamma                90
_cell_volume                     3762.51
_exptl_crystal_colour            colorless
_exptl_crystal_description       platy
_cell_formula_units_Z            4
loop_
_atom_site_label
_atom_site_type_symbol
_atom_site_fract_x
_atom_site_fract_y
_atom_site_fract_z
Si1 Si 0.59463(9) 0.75584(15) 0.24065(6)
Si2 Si 0.62270(8) 0.69765(14) 0.14271(6)
O1 O 0.5000 0.7344(5) 0.2500
C1 C 0.6256(4) 0.9345(6) 0.2575(3)
H1 H 0.5966 0.9975 0.2333
H2 H 0.6816 0.9445 0.2503
H3 H 0.6146 0.9542 0.2975
C2 C 0.6471(4) 0.6390(7) 0.2907(3)
H4 H 0.6353 0.6645 0.3300
H5 H 0.7035 0.6456 0.2843
H6 H 0.6300 0.5461 0.2840
C3 C 0.7187(3) 0.7755(5) 0.1199(2)
C4 C 0.7287(4) 0.8541(6) 0.0704(3)
H7 H 0.6852 0.8725 0.0467
C5 C 0.8034(5) 0.9058(8) 0.0559(3)
H8 H 0.8089 0.9604 0.0230
C6 C 0.8674(5) 0.8781(9) 0.0886(4)
H9 H 0.9171 0.9110 0.0775
C7 C 0.8604(4) 0.8027(7) 0.1376(3)
H10 H 0.9044 0.7849 0.1609
C8 C 0.7864(3) 0.7533(6) 0.1520(3)
H11 H 0.7818 0.7013 0.1857
C9 C 0.6333(3) 0.5053(5) 0.1363(2)
C10 C 0.5779(3) 0.4176(6) 0.1617(2)
H12 H 0.5334 0.4542 0.1800
C11 C 0.5885(4) 0.2753(7) 0.1599(3)
H13 H 0.5517 0.2180 0.1778
C12 C 0.6523(4) 0.2197(6) 0.1321(3)
H14 H 0.6589 0.1247 0.1307
C13 C 0.7066(4) 0.3046(7) 0.1065(2)
H15 H 0.7504 0.2672 0.0875
C14 C 0.6971(3) 0.4451(6) 0.1086(2)
H16 H 0.7348 0.5011 0.0909
C15 C 0.5399(3) 0.7588(5) 0.09460(19)
C16 C 0.5057(4) 0.8871(6) 0.1018(2)
H17 H 0.5248 0.9440 0.1311
C17 C 0.4448(4) 0.9339(6) 0.0676(3)
H18 H 0.4232 1.0207 0.0740
C18 C 0.4162(4) 0.8531(7) 0.0243(3)
H19 H 0.3743 0.8840 0.0013
C19 C 0.4489(4) 0.7259(7) 0.0146(3)
H20 H 0.4301 0.6707 -0.0154
C20 C 0.5100(3) 0.6808(5) 0.0497(2)
H21 H 0.5319 0.5944 0.0429
Si1A Si 0.40537(9) 0.75584(15) 0.25935(6)
Si2A Si 0.37730(8) 0.69765(14) 0.35729(6)
C1A C 0.3744(4) 0.9345(6) 0.2425(3)
H1A H 0.4034 0.9975 0.2667
H2A H 0.3184 0.9445 0.2497
H3A H 0.3854 0.9542 0.2025
C2A C 0.3529(4) 0.6390(7) 0.2093(3)
H4A H 0.3647 0.6645 0.1700
H5A H 0.2965 0.6456 0.2157
H6A H 0.3700 0.5461 0.2160
C3A C 0.2813(3) 0.7755(5) 0.3801(2)
C4A C 0.2713(4) 0.8541(6) 0.4296(3)
H7A H 0.3148 0.8725 0.4533
C5A C 0.1966(5) 0.9058(8) 0.4441(3)
H8A H 0.1911 0.9604 0.4770
C6A C 0.1326(5) 0.8781(9) 0.4114(4)
H9A H 0.0829 0.9110 0.4225
C7A C 0.1396(4) 0.8027(7) 0.3624(3)
H10A H 0.0956 0.7849 0.3391
C8A C 0.2136(3) 0.7533(6) 0.3480(3)
H11A H 0.2182 0.7013 0.3143
C9A C 0.3667(3) 0.5053(5) 0.3637(2)
C10A C 0.4221(3) 0.4176(6) 0.3383(2)
H12A H 0.4666 0.4542 0.3200
C11A C 0.4115(4) 0.2753(7) 0.3401(3)
H13A H 0.4483 0.2180 0.3222
C12A C 0.3477(4) 0.2197(6) 0.3679(3)
H14A H 0.3411 0.1247 0.3693
C13A C 0.2934(4) 0.3046(7) 0.3935(2)
H15A H 0.2496 0.2672 0.4125
C14A C 0.3029(3) 0.4451(6) 0.3914(2)
H16A H 0.2652 0.5011 0.4091
C15A C 0.4601(3) 0.7588(5) 0.40540(19)
C16A C 0.4943(4) 0.8871(6) 0.3982(2)
H17A H 0.4752 0.9440 0.3689
C17A C 0.5552(4) 0.9339(6) 0.4324(3)
H18A H 0.5768 1.0207 0.4260
C18A C 0.5838(4) 0.8531(7) 0.4757(3)
H19A H 0.6257 0.8840 0.4987
C19A C 0.5511(4) 0.7259(7) 0.4854(3)
H20A H 0.5699 0.6707 0.5154
C20A C 0.4900(3) 0.6808(5) 0.4503(2)
H21A H 0.4681 0.5944 0.4571
loop_
_geom_bond_atom_site_label_1
_geom_bond_atom_site_label_2
_geom_bond_site_symmetry_1
_geom_bond_site_symmetry_2
Si1 Si2 1_555 1_555
Si2 C3 1_555 1_555
O1 Si1 1_555 1_555
C1 Si1 1_555 1_555
H1 C1 1_555 1_555
H2 C1 1_555 1_555
H3 C1 1_555 1_555
C2 Si1 1_555 1_555
H4 C2 1_555 1_555
H5 C2 1_555 1_555
H6 C2 1_555 1_555
C3 C4 1_555 1_555
C4 H7 1_555 1_555
C5 C4 1_555 1_555
H8 C5 1_555 1_555
C6 C5 1_555 1_555
H9 C6 1_555 1_555
C7 C6 1_555 1_555
H10 C7 1_555 1_555
C8 C3 1_555 1_555
H11 C8 1_555 1_555
C9 Si2 1_555 1_555
C10 C9 1_555 1_555
H12 C10 1_555 1_555
C11 C10 1_555 1_555
H13 C11 1_555 1_555
C12 C11 1_555 1_555
H14 C12 1_555 1_555
C13 C12 1_555 1_555
H15 C13 1_555 1_555
C14 C9 1_555 1_555
H16 C14 1_555 1_555
C15 Si2 1_555 1_555
C16 C15 1_555 1_555
H17 C16 1_555 1_555
C17 C16 1_555 1_555
H18 C17 1_555 1_555
C18 C17 1_555 1_555
H19 C18 1_555 1_555
C19 C18 1_555 1_555
H20 C19 1_555 1_555
C20 C15 1_555 1_555
H21 C20 1_555 1_555
Si1A O1 1_555 1_555
Si2A Si1A 1_555 1_555
C1A Si1A 1_555 1_555
H1A C1A 1_555 1_555
H2A C1A 1_555 1_555
H3A C1A 1_555 1_555
C2A Si1A 1_555 1_555
H4A C2A 1_555 1_555
H5A C2A 1_555 1_555
H6A C2A 1_555 1_555
C3A Si2A 1_555 1_555
C4A C3A 1_555 1_555
H7A C4A 1_555 1_555
C5A C4A 1_555 1_555
H8A C5A 1_555 1_555
C6A C5A 1_555 1_555
H9A C6A 1_555 1_555
C7A C6A 1_555 1_555
H10A C7A 1_555 1_555
C8A C3A 1_555 1_555
H11A C8A 1_555 1_555
C9A Si2A 1_555 1_555
C10A C9A 1_555 1_555
H12A C10A 1_555 1_555
C11A C10A 1_555 1_555
H13A C11A 1_555 1_555
C12A C11A 1_555 1_555
H14A C12A 1_555 1_555
C13A C12A 1_555 1_555
H15A C13A 1_555 1_555
C14A C9A 1_555 1_555
H16A C14A 1_555 1_555
C15A Si2A 1_555 1_555
C16A C15A 1_555 1_555
H17A C16A 1_555 1_555
C17A C16A 1_555 1_555
H18A C17A 1_555 1_555
C18A C17A 1_555 1_555
H19A C18A 1_555 1_555
C19A C18A 1_555 1_555
H20A C19A 1_555 1_555
C20A C15A 1_555 1_555
H21A C20A 1_555 1_555
C7 C8 1_555 1_555
C13 C14 1_555 1_555
C19 C20 1_555 1_555
C7A C8A 1_555 1_555
C13A C14A 1_555 1_555
C19A C20A 1_555 1_555

#END
