
#######################################################################
#
#                 Cambridge Crystallographic Data Centre
#                                CCDC 
#
#######################################################################
#
# If this CIF has been generated from an entry in the Cambridge 
# Structural Database, then it will include bibliographic, chemical, 
# crystal, experimental, refinement or atomic coordinate data resulting 
# from the CCDC's data processing and validation procedures.
#
#######################################################################

data_SIMMUZ
_chemical_formula_moiety         'C42 H59 N5 O5,H2 O1'
_chemical_name_systematic        
'methyl 7,12-bis((phenylcarbamoyl)amino)-3-(propionylamino)cholan-24-oate unknown solvate monohydrate'
_symmetry_cell_setting           hexagonal
_symmetry_space_group_name_H-M   'P 61'
_symmetry_Int_Tables_number      169
_space_group_name_Hall           'P 61'
loop_
_symmetry_equiv_pos_site_id
_symmetry_equiv_pos_as_xyz
1 x,y,z
2 -y,x-y,1/3+z
3 -x+y,-x,2/3+z
4 -x,-y,1/2+z
5 y,-x+y,5/6+z
6 x-y,x,1/6+z
_cell_length_a                   28.3307(10)
_cell_length_b                   28.3307(10)
_cell_length_c                   11.5857(11)
_cell_angle_alpha                90
_cell_angle_beta                 90
_cell_angle_gamma                120
_cell_volume                     8053.18
_exptl_crystal_colour            colorless
_exptl_crystal_description       needle
_cell_formula_units_Z            6
loop_
_atom_site_label
_atom_site_type_symbol
_atom_site_fract_x
_atom_site_fract_y
_atom_site_fract_z
C1 C 0.8695(4) 0.4176(6) 1.1971(10)
H1 H 0.9040 0.4300 1.2398
H2 H 0.8397 0.4050 1.2545
C2 C 0.8730(4) 0.4661(5) 1.1301(10)
H3 H 0.8809 0.4964 1.1837
H4 H 0.9026 0.4793 1.0723
C3 C 0.8185(4) 0.4470(5) 1.0702(10)
H5 H 0.7897 0.4323 1.1312
C4 C 0.8063(4) 0.4015(4) 0.9893(9)
H6 H 0.8342 0.4149 0.9275
H7 H 0.7704 0.3891 0.9527
C5 C 0.8056(4) 0.3525(5) 1.0515(9)
H8 H 0.7755 0.3387 1.1097
C6 C 0.7924(4) 0.3051(5) 0.9700(9)
H9 H 0.7599 0.2975 0.9239
H10 H 0.7827 0.2723 1.0169
C7 C 0.8384(4) 0.3144(4) 0.8872(9)
H11 H 0.8286 0.2783 0.8528
C8 C 0.8920(4) 0.3347(4) 0.9521(9)
H12 H 0.8876 0.3045 1.0039
C9 C 0.9055(4) 0.3851(5) 1.0309(9)
H13 H 0.9072 0.4145 0.9802
C10 C 0.8592(4) 0.3700(5) 1.1197(9)
C11 C 0.9617(4) 0.4072(4) 1.0875(8)
H14 H 0.9601 0.3796 1.1421
H15 H 0.9702 0.4402 1.1326
C12 C 1.0081(4) 0.4216(4) 1.0007(8)
H16 H 1.0425 0.4335 1.0450
C13 C 0.9952(4) 0.3695(4) 0.9293(9)
C14 C 1.0311(4) 0.3767(4) 0.8213(9)
H17 H 1.0354 0.4090 0.7773
C15 C 0.9927(4) 0.3245(4) 0.7496(10)
H18 H 0.9949 0.3335 0.6665
H19 H 1.0035 0.2965 0.7598
C16 C 0.9359(4) 0.3037(4) 0.7935(9)
H20 H 0.9104 0.2968 0.7287
H21 H 0.9231 0.2695 0.8375
C17 C 0.9396(4) 0.3478(4) 0.8695(9)
H22 H 0.9431 0.3775 0.8174
C18 C 1.1260(4) 0.4354(5) 0.9086(11)
H23 H 1.1638 0.4434 0.9022
H24 H 1.1147 0.4291 0.9897
H25 H 1.1232 0.4663 0.8791
C19 C 0.9959(4) 0.3283(4) 1.0124(9)
H26 H 1.0299 0.3456 1.0568
H27 H 0.9934 0.2975 0.9688
H28 H 0.9649 0.3152 1.0653
C20 C 0.8494(5) 0.3215(6) 1.1992(10)
H29 H 0.8379 0.2888 1.1521
H30 H 0.8208 0.3147 1.2554
H31 H 0.8832 0.3305 1.2399
C21 C 1.0885(4) 0.3837(4) 0.8369(10)
H32 H 1.0843 0.3514 0.8803
C22 C 1.1138(5) 0.3853(5) 0.7229(12)
H33 H 1.0885 0.3520 0.6798
H34 H 1.1170 0.4168 0.6790
C23 C 1.1649(7) 0.3892(11) 0.724(2)
H35 H 1.1769 0.3902 0.6433
H36 H 1.1914 0.4240 0.7610
C24 C 0.8475(5) 0.5229(5) 0.9258(11)
C25 C 0.8051(4) 0.3322(4) 0.7101(8)
C26 C 1.0402(4) 0.5178(4) 0.9687(8)
C27 C 0.7777(4) 0.3675(4) 0.5379(9)
C28 C 0.7342(4) 0.3184(4) 0.5000(10)
H37 H 0.7247 0.2856 0.5403
C29 C 0.7050(4) 0.3172(5) 0.4048(9)
H38 H 0.6758 0.2832 0.3791
C30 C 0.7166(4) 0.3636(5) 0.3456(9)
H39 H 0.6960 0.3620 0.2795
C31 C 0.7593(5) 0.4132(5) 0.3844(9)
H40 H 0.7674 0.4461 0.3462
C32 C 0.7901(4) 0.4145(4) 0.4792(9)
H41 H 0.8200 0.4483 0.5038
C33 C 1.0443(4) 0.6067(4) 0.9335(9)
C34 C 1.0957(5) 0.6419(5) 0.9820(9)
H42 H 1.1183 0.6281 1.0077
C35 C 1.1132(5) 0.6977(5) 0.9922(10)
H43 H 1.1472 0.7215 1.0277
C36 C 1.0816(6) 0.7180(6) 0.9513(13)
H44 H 1.0942 0.7559 0.9566
C37 C 1.0315(5) 0.6836(5) 0.9025(14)
H45 H 1.0097 0.6980 0.8745
C38 C 1.0127(4) 0.6286(4) 0.8941(11)
H46 H 0.9779 0.6052 0.8613
C39 C 0.8334(5) 0.5630(6) 0.8728(12)
H47 H 0.7992 0.5574 0.9082
H48 H 0.8626 0.6003 0.8925
C40 C 0.8267(9) 0.5591(10) 0.7484(16)
H49 H 0.8626 0.5762 0.7113
H50 H 0.8071 0.5777 0.7240
H51 H 0.8058 0.5206 0.7257
C41 C 1.1922(13) 0.3206(14) 0.947(4)
H52 H 1.2241 0.3164 0.9345
H53 H 1.1593 0.2873 0.9224
H54 H 1.1893 0.3271 1.0290
C42 C 1.1658(8) 0.3473(11) 0.781(2)
N1 N 0.8155(4) 0.4915(4) 1.0115(8)
H55 H 0.7899 0.4983 1.0353
N2 N 0.8445(3) 0.3510(3) 0.7914(7)
H56 H 0.8729 0.3841 0.7871
N3 N 0.8104(3) 0.3733(3) 0.6359(7)
H57 H 0.8369 0.4065 0.6515
N4 N 1.0156(3) 0.4669(3) 0.9265(7)
H58 H 1.0040 0.4607 0.8546
N5 N 1.0252(3) 0.5519(3) 0.9165(7)
H59 H 0.9993 0.5363 0.8641
O1 O 1.1979(6) 0.3667(7) 0.8796(17)
O2 O 1.1413(8) 0.2987(7) 0.758(2)
O3 O 0.8873(3) 0.5192(3) 0.8878(8)
O4 O 0.7688(3) 0.2854(3) 0.7030(6)
O5 O 1.0748(2) 0.5331(3) 1.0467(6)
O6 O 0.9284(2) 0.4682(3) 0.7770(6)
loop_
_geom_bond_atom_site_label_1
_geom_bond_atom_site_label_2
_geom_bond_site_symmetry_1
_geom_bond_site_symmetry_2
C1 H1 1_555 1_555
H2 C1 1_555 1_555
C2 C1 1_555 1_555
H3 C2 1_555 1_555
H4 C2 1_555 1_555
C3 C2 1_555 1_555
H5 C3 1_555 1_555
C4 C3 1_555 1_555
H6 C4 1_555 1_555
H7 C4 1_555 1_555
C5 C4 1_555 1_555
H8 C5 1_555 1_555
C6 C5 1_555 1_555
H9 C6 1_555 1_555
H10 C6 1_555 1_555
C7 C6 1_555 1_555
H11 C7 1_555 1_555
C8 C7 1_555 1_555
H12 C8 1_555 1_555
C9 C8 1_555 1_555
H13 C9 1_555 1_555
C10 C1 1_555 1_555
C11 C9 1_555 1_555
H14 C11 1_555 1_555
H15 C11 1_555 1_555
C12 C11 1_555 1_555
H16 C12 1_555 1_555
C13 C12 1_555 1_555
C14 C13 1_555 1_555
H17 C14 1_555 1_555
C15 C14 1_555 1_555
H18 C15 1_555 1_555
H19 C15 1_555 1_555
C16 C15 1_555 1_555
H20 C16 1_555 1_555
H21 C16 1_555 1_555
C17 C8 1_555 1_555
H22 C17 1_555 1_555
C18 H23 1_555 1_555
H24 C18 1_555 1_555
H25 C18 1_555 1_555
C19 C13 1_555 1_555
H26 C19 1_555 1_555
H27 C19 1_555 1_555
H28 C19 1_555 1_555
C20 C10 1_555 1_555
H29 C20 1_555 1_555
H30 C20 1_555 1_555
H31 C20 1_555 1_555
C21 C14 1_555 1_555
H32 C21 1_555 1_555
C22 C21 1_555 1_555
H33 C22 1_555 1_555
H34 C22 1_555 1_555
C23 C22 1_555 1_555
H35 C23 1_555 1_555
H36 C23 1_555 1_555
C24 C39 1_555 1_555
C25 N2 1_555 1_555
C26 N4 1_555 1_555
C27 C28 1_555 1_555
C28 H37 1_555 1_555
C29 C28 1_555 1_555
H38 C29 1_555 1_555
C30 C29 1_555 1_555
H39 C30 1_555 1_555
C31 C30 1_555 1_555
H40 C31 1_555 1_555
C32 C27 1_555 1_555
H41 C32 1_555 1_555
C33 C34 1_555 1_555
C34 H42 1_555 1_555
C35 C34 1_555 1_555
H43 C35 1_555 1_555
C36 C35 1_555 1_555
H44 C36 1_555 1_555
C37 C36 1_555 1_555
H45 C37 1_555 1_555
C38 C33 1_555 1_555
H46 C38 1_555 1_555
C39 H47 1_555 1_555
H48 C39 1_555 1_555
C40 C39 1_555 1_555
H49 C40 1_555 1_555
H50 C40 1_555 1_555
H51 C40 1_555 1_555
C41 H52 1_555 1_555
H53 C41 1_555 1_555
H54 C41 1_555 1_555
C42 C23 1_555 1_555
N1 C3 1_555 1_555
H55 N1 1_555 1_555
N2 C7 1_555 1_555
H56 N2 1_555 1_555
N3 C25 1_555 1_555
H57 N3 1_555 1_555
N4 C12 1_555 1_555
H58 N4 1_555 1_555
N5 C26 1_555 1_555
H59 N5 1_555 1_555
O1 C41 1_555 1_555
O2 C42 1_555 1_555
O3 C24 1_555 1_555
O4 C25 1_555 1_555
O5 C26 1_555 1_555
C5 C10 1_555 1_555
C9 C10 1_555 1_555
C13 C17 1_555 1_555
C16 C17 1_555 1_555
C18 C21 1_555 1_555
C24 N1 1_555 1_555
C27 N3 1_555 1_555
C31 C32 1_555 1_555
C33 N5 1_555 1_555
C37 C38 1_555 1_555
C42 O1 1_555 1_555

#END
