
#######################################################################
#
#                 Cambridge Crystallographic Data Centre
#                                CCDC 
#
#######################################################################
#
# If this CIF has been generated from an entry in the Cambridge 
# Structural Database, then it will include bibliographic, chemical, 
# crystal, experimental, refinement or atomic coordinate data resulting 
# from the CCDC's data processing and validation procedures.
#
#######################################################################

data_SIMNAG
_chemical_formula_moiety         'C46 H59 I1 N6 O5,H2 O1'
_chemical_name_systematic        
'methyl 3-(((4-iodophenyl)carbamoyl)amino)-7,12-bis((phenylcarbamoyl)amino)cholan-24-oate unknown solvate monohydrate'
_symmetry_cell_setting           hexagonal
_symmetry_space_group_name_H-M   'P 61'
_symmetry_Int_Tables_number      169
_space_group_name_Hall           'P 61'
loop_
_symmetry_equiv_pos_site_id
_symmetry_equiv_pos_as_xyz
1 x,y,z
2 -y,x-y,1/3+z
3 -x+y,-x,2/3+z
4 -x,-y,1/2+z
5 y,-x+y,5/6+z
6 x-y,x,1/6+z
_cell_length_a                   28.9152(18)
_cell_length_b                   28.9152(18)
_cell_length_c                   11.4141(8)
_cell_angle_alpha                90
_cell_angle_beta                 90
_cell_angle_gamma                120
_cell_volume                     8264.65
_exptl_crystal_colour            colorless
_exptl_crystal_description       needle
_cell_formula_units_Z            6
loop_
_atom_site_label
_atom_site_type_symbol
_atom_site_fract_x
_atom_site_fract_y
_atom_site_fract_z
C1 C 0.5890(3) 0.4573(3) 0.8581(7)
H1 H 0.6027 0.4433 0.9198
H2 H 0.5760 0.4792 0.8973
C2 C 0.5416(4) 0.4102(3) 0.7991(8)
H3 H 0.5251 0.4232 0.7414
H4 H 0.5143 0.3883 0.8583
C3 C 0.5621(3) 0.3769(3) 0.7376(8)
H5 H 0.5796 0.3665 0.7997
C4 C 0.6053(3) 0.4100(3) 0.6495(8)
H6 H 0.5900 0.4220 0.5869
H7 H 0.6183 0.3875 0.6130
C5 C 0.6525(3) 0.4589(3) 0.7065(8)
H8 H 0.6678 0.4444 0.7649
C6 C 0.6978(3) 0.4923(3) 0.6207(8)
H9 H 0.7305 0.5158 0.6659
H10 H 0.7051 0.4680 0.5733
C7 C 0.6859(3) 0.5267(3) 0.5381(7)
H11 H 0.7204 0.5527 0.4997
C8 C 0.6657(4) 0.5589(3) 0.6043(7)
H12 H 0.6958 0.5854 0.6539
C9 C 0.6354(3) 0.4936(3) 0.7778(7)
C10 C 0.6193(3) 0.5244(4) 0.6871(7)
H13 H 0.5902 0.4965 0.6374
C11 C 0.5962(3) 0.5565(3) 0.7449(7)
H14 H 0.5638 0.5317 0.7897
H15 H 0.6227 0.5822 0.8011
C12 C 0.5817(3) 0.5870(3) 0.6565(7)
H16 H 0.5703 0.6093 0.7011
C13 C 0.6299(3) 0.6242(3) 0.5815(7)
C14 C 0.6507(3) 0.5904(3) 0.5215(7)
H17 H 0.6208 0.5636 0.4717
C15 C 0.6937(4) 0.6298(4) 0.4371(7)
H18 H 0.7280 0.6519 0.4783
H19 H 0.6993 0.6107 0.3716
C16 C 0.6708(4) 0.6637(4) 0.3937(9)
H20 H 0.6598 0.6552 0.3107
H21 H 0.6980 0.7020 0.3992
C17 C 0.6216(4) 0.6514(4) 0.4712(7)
H22 H 0.5894 0.6231 0.4295
C18 C 0.6134(4) 0.6990(3) 0.4849(8)
H23 H 0.6463 0.7287 0.5213
C19 C 0.6816(4) 0.5328(4) 0.8552(7)
H24 H 0.6691 0.5510 0.9080
H25 H 0.7104 0.5592 0.8058
H26 H 0.6948 0.5133 0.9014
C20 C 0.6714(4) 0.6675(4) 0.6607(8)
H27 H 0.6546 0.6838 0.7061
H28 H 0.7002 0.6948 0.6127
H29 H 0.6862 0.6516 0.7142
C21 C 0.5659(4) 0.6876(4) 0.5634(9)
H30 H 0.5336 0.6565 0.5333
H31 H 0.5609 0.7187 0.5639
H32 H 0.5728 0.6803 0.6434
C22 C 0.6070(4) 0.7174(4) 0.3620(8)
H33 H 0.6398 0.7268 0.3170
H34 H 0.5771 0.6863 0.3223
C23 C 0.5969(5) 0.7635(4) 0.3533(10)
H35 H 0.5972 0.7729 0.2698
H36 H 0.5610 0.7525 0.3853
C24 C 0.6361(5) 0.8096(5) 0.4157(11)
C25 C 0.7243(6) 0.8827(6) 0.4122(15)
H37 H 0.7228 0.9132 0.3788
H38 H 0.7594 0.8866 0.3962
H39 H 0.7187 0.8815 0.4970
C26 C 0.4873(4) 0.3231(4) 0.5985(8)
C27 C 0.6644(4) 0.4727(3) 0.3595(7)
C28 C 0.4858(4) 0.5233(4) 0.6289(8)
C29 C 0.4163(4) 0.2549(3) 0.4717(8)
C30 C 0.4150(4) 0.2275(4) 0.3714(8)
H40 H 0.4452 0.2244 0.3509
C31 C 0.3698(5) 0.2044(4) 0.2998(9)
H41 H 0.3681 0.1840 0.2329
C32 C 0.3278(5) 0.2118(4) 0.3285(10)
C33 C 0.3300(4) 0.2410(4) 0.4270(10)
H42 H 0.3007 0.2460 0.4451
C34 C 0.3741(4) 0.2628(4) 0.4984(9)
H43 H 0.3756 0.2831 0.5653
C35 C 0.6276(3) 0.4065(3) 0.1976(7)
C36 C 0.6744(4) 0.4095(4) 0.1576(9)
H44 H 0.7073 0.4318 0.1962
C37 C 0.6727(4) 0.3795(4) 0.0602(9)
H45 H 0.7051 0.3830 0.0315
C38 C 0.6267(4) 0.3458(3) 0.0056(8)
H46 H 0.6263 0.3246 -0.0585
C39 C 0.5800(4) 0.3428(4) 0.0458(8)
H47 H 0.5473 0.3201 0.0070
C40 C 0.5804(4) 0.3721(3) 0.1406(8)
H48 H 0.5478 0.3687 0.1677
C41 C 0.3970(3) 0.4418(3) 0.5939(7)
C42 C 0.3753(4) 0.3902(4) 0.5524(8)
H49 H 0.3978 0.3783 0.5201
C43 C 0.3201(4) 0.3556(4) 0.5580(10)
H50 H 0.3049 0.3202 0.5288
C44 C 0.2873(4) 0.3734(4) 0.6069(8)
H51 H 0.2497 0.3504 0.6103
C45 C 0.3101(4) 0.4241(4) 0.6497(8)
H52 H 0.2879 0.4361 0.6838
C46 C 0.3642(4) 0.4583(4) 0.6446(8)
H53 H 0.3792 0.4934 0.6759
I1 I 0.25778(3) 0.17614(3) 0.22608(7)
N1 N 0.5198(3) 0.3265(3) 0.6863(6)
H54 H 0.523(3) 0.298(2) 0.697(7)
N2 N 0.4605(3) 0.2733(3) 0.5475(7)
H55 H 0.4720 0.2510 0.5638
N3 N 0.6485(3) 0.4942(3) 0.4444(6)
H56 H 0.6142(13) 0.481(3) 0.445(7)
N4 N 0.6241(3) 0.4342(3) 0.2934(6)
H57 H 0.5913(15) 0.425(3) 0.302(8)
N5 N 0.5360(3) 0.5481(3) 0.5849(6)
H58 H 0.544(3) 0.531(3) 0.534(6)
N6 N 0.4528(3) 0.4752(3) 0.5782(6)
H59 H 0.465(3) 0.461(3) 0.530(6)
O1 O 0.6305(3) 0.8288(3) 0.5052(7)
O2 O 0.6834(3) 0.8341(3) 0.3601(8)
O3 O 0.4799(2) 0.3599(2) 0.5643(6)
O4 O 0.7121(2) 0.4865(2) 0.3442(5)
O5 O 0.4715(2) 0.5435(2) 0.7061(5)
O6 O 0.5289(2) 0.4520(3) 0.4438(5)
H60 H 0.533(4) 0.458(4) 0.371(3)
H61 H 0.513(3) 0.422(2) 0.478(7)
loop_
_geom_bond_atom_site_label_1
_geom_bond_atom_site_label_2
_geom_bond_site_symmetry_1
_geom_bond_site_symmetry_2
C1 H1 1_555 1_555
H2 C1 1_555 1_555
C2 C1 1_555 1_555
H3 C2 1_555 1_555
H4 C2 1_555 1_555
C3 C2 1_555 1_555
H5 C3 1_555 1_555
C4 C3 1_555 1_555
H6 C4 1_555 1_555
H7 C4 1_555 1_555
C5 C4 1_555 1_555
H8 C5 1_555 1_555
C6 C5 1_555 1_555
H9 C6 1_555 1_555
H10 C6 1_555 1_555
C7 C6 1_555 1_555
H11 C7 1_555 1_555
C8 C7 1_555 1_555
H12 C8 1_555 1_555
C9 C1 1_555 1_555
C10 C8 1_555 1_555
H13 C10 1_555 1_555
C11 C10 1_555 1_555
H14 C11 1_555 1_555
H15 C11 1_555 1_555
C12 C11 1_555 1_555
H16 C12 1_555 1_555
C13 C12 1_555 1_555
C14 C8 1_555 1_555
H17 C14 1_555 1_555
C15 C14 1_555 1_555
H18 C15 1_555 1_555
H19 C15 1_555 1_555
C16 C15 1_555 1_555
H20 C16 1_555 1_555
H21 C16 1_555 1_555
C17 C13 1_555 1_555
H22 C17 1_555 1_555
C18 C17 1_555 1_555
H23 C18 1_555 1_555
C19 C9 1_555 1_555
H24 C19 1_555 1_555
H25 C19 1_555 1_555
H26 C19 1_555 1_555
C20 C13 1_555 1_555
H27 C20 1_555 1_555
H28 C20 1_555 1_555
H29 C20 1_555 1_555
C21 C18 1_555 1_555
H30 C21 1_555 1_555
H31 C21 1_555 1_555
H32 C21 1_555 1_555
C22 C18 1_555 1_555
H33 C22 1_555 1_555
H34 C22 1_555 1_555
C23 C22 1_555 1_555
H35 C23 1_555 1_555
H36 C23 1_555 1_555
C24 C23 1_555 1_555
C25 H37 1_555 1_555
H38 C25 1_555 1_555
H39 C25 1_555 1_555
C26 N1 1_555 1_555
C27 N3 1_555 1_555
C28 N5 1_555 1_555
C29 C30 1_555 1_555
C30 H40 1_555 1_555
C31 C30 1_555 1_555
H41 C31 1_555 1_555
C32 C31 1_555 1_555
C33 C32 1_555 1_555
H42 C33 1_555 1_555
C34 C29 1_555 1_555
H43 C34 1_555 1_555
C35 C36 1_555 1_555
C36 H44 1_555 1_555
C37 C36 1_555 1_555
H45 C37 1_555 1_555
C38 C37 1_555 1_555
H46 C38 1_555 1_555
C39 C38 1_555 1_555
H47 C39 1_555 1_555
C40 C35 1_555 1_555
H48 C40 1_555 1_555
C41 C42 1_555 1_555
C42 H49 1_555 1_555
C43 C42 1_555 1_555
H50 C43 1_555 1_555
C44 C43 1_555 1_555
H51 C44 1_555 1_555
C45 C44 1_555 1_555
H52 C45 1_555 1_555
C46 C41 1_555 1_555
H53 C46 1_555 1_555
I1 C32 1_555 1_555
N1 C3 1_555 1_555
H54 N1 1_555 1_555
N2 C26 1_555 1_555
H55 N2 1_555 1_555
N3 C7 1_555 1_555
H56 N3 1_555 1_555
N4 C27 1_555 1_555
H57 N4 1_555 1_555
N5 C12 1_555 1_555
H58 N5 1_555 1_555
N6 C28 1_555 1_555
H59 N6 1_555 1_555
O1 C24 1_555 1_555
O2 C24 1_555 1_555
O3 C26 1_555 1_555
O4 C27 1_555 1_555
O5 C28 1_555 1_555
O6 H60 1_555 1_555
H61 O6 1_555 1_555
C5 C9 1_555 1_555
C9 C10 1_555 1_555
C13 C14 1_555 1_555
C16 C17 1_555 1_555
C25 O2 1_555 1_555
C29 N2 1_555 1_555
C33 C34 1_555 1_555
C35 N4 1_555 1_555
C39 C40 1_555 1_555
C41 N6 1_555 1_555
C45 C46 1_555 1_555

#END
