
#######################################################################
#
#                 Cambridge Crystallographic Data Centre
#                                CCDC 
#
#######################################################################
#
# If this CIF has been generated from an entry in the Cambridge 
# Structural Database, then it will include bibliographic, chemical, 
# crystal, experimental, refinement or atomic coordinate data resulting 
# from the CCDC's data processing and validation procedures.
#
#######################################################################

data_SIMNIO
_chemical_formula_moiety         'C52 H64 N8 O5,H2 O1'
_chemical_name_systematic        
'Methyl 7,12-bis((phenylcarbamoyl)amino)-3-(((4-(phenyldiazenyl)phenyl)carbamoyl)amino)cholan-24-oate monohydrate'
_symmetry_cell_setting           hexagonal
_symmetry_space_group_name_H-M   'P 61'
_symmetry_Int_Tables_number      169
_space_group_name_Hall           'P 61'
loop_
_symmetry_equiv_pos_site_id
_symmetry_equiv_pos_as_xyz
1 x,y,z
2 -y,x-y,1/3+z
3 -x+y,-x,2/3+z
4 -x,-y,1/2+z
5 y,-x+y,5/6+z
6 x-y,x,1/6+z
_cell_length_a                   28.9160(6)
_cell_length_b                   28.9160(6)
_cell_length_c                   11.3626(2)
_cell_angle_alpha                90
_cell_angle_beta                 90
_cell_angle_gamma                120
_cell_volume                     8227.82
_exptl_crystal_colour            yellow
_exptl_crystal_description       needle
_cell_formula_units_Z            6
loop_
_atom_site_label
_atom_site_type_symbol
_atom_site_fract_x
_atom_site_fract_y
_atom_site_fract_z
C1 C 0.13114(13) 0.58785(13) 1.2908(3)
H1 H 0.1589 0.6016 1.3527
H2 H 0.0962 0.5747 1.3301
C2 C 0.13118(13) 0.54085(13) 1.2298(3)
H3 H 0.1019 0.5248 1.1713
H4 H 0.1254 0.5131 1.2884
C3 C 0.18491(12) 0.56086(13) 1.1687(3)
H5 H 0.2128 0.5782 1.2310
C4 C 0.19508(12) 0.60432(13) 1.0796(3)
H6 H 0.1676 0.5892 1.0171
H7 H 0.2304 0.6172 1.0423
C5 C 0.19374(12) 0.65195(12) 1.1391(3)
H8 H 0.2233 0.6669 1.1982
C6 C 0.20549(12) 0.69682(13) 1.0537(3)
H9 H 0.2373 0.7042 1.0066
H10 H 0.2146 0.7294 1.0995
C7 C 0.16000(12) 0.68599(12) 0.9694(3)
H11 H 0.1688 0.7206 0.9314
C8 C 0.10683(12) 0.66558(12) 1.0369(3)
H12 H 0.1107 0.6956 1.0874
C9 C 0.14114(12) 0.63443(13) 1.2093(3)
C10 C 0.09502(11) 0.61869(12) 1.1195(3)
H13 H 0.0936 0.5896 1.0693
C11 C 0.03968(12) 0.59621(13) 1.1771(3)
H14 H 0.0405 0.6232 1.2319
H15 H 0.0320 0.5643 1.2239
C12 C -0.00571(12) 0.58087(12) 1.0876(3)
H16 H -0.0396 0.5690 1.1322
C13 C 0.00531(12) 0.62967(12) 1.0130(3)
C14 C 0.06049(12) 0.65130(12) 0.9535(3)
H17 H 0.0577 0.6220 0.9018
C15 C 0.06441(13) 0.69499(13) 0.8715(3)
H18 H 0.0894 0.7014 0.8059
H19 H 0.0764 0.7288 0.9147
C16 C 0.00687(13) 0.67214(14) 0.8261(3)
H20 H 0.0046 0.6620 0.7422
H21 H -0.0046 0.6991 0.8338
C17 C -0.02946(12) 0.62204(13) 0.9024(3)
H22 H -0.0331 0.5903 0.8591
C18 C 0.14855(13) 0.68052(14) 1.2894(3)
H23 H 0.1157 0.6695 1.3341
H24 H 0.1566 0.7118 1.2412
H25 H 0.1781 0.6896 1.3441
C19 C 0.00387(13) 0.67125(14) 1.0944(3)
H26 H -0.0294 0.6544 1.1399
H27 H 0.0056 0.7004 1.0470
H28 H 0.0344 0.6855 1.1482
C20 C -0.08595(13) 0.61359(13) 0.9175(3)
H29 H -0.0828 0.6461 0.9562
C21 C -0.12109(13) 0.56570(14) 0.9941(3)
H30 H -0.1183 0.5349 0.9680
H31 H -0.1583 0.5574 0.9876
H32 H -0.1094 0.5739 1.0762
C22 C -0.10995(14) 0.60874(16) 0.7937(3)
H33 H -0.0853 0.6409 0.7478
H34 H -0.1116 0.5775 0.7538
C23 C -0.16502(15) 0.60277(18) 0.7895(4)
C24 C -0.03797(12) 0.48561(12) 1.0593(3)
C25 C 0.16348(12) 0.48557(13) 1.0306(3)
C26 C 0.19170(12) 0.66441(12) 0.7911(3)
C27 C 0.16105(13) 0.41529(14) 0.9009(3)
C28 C 0.18787(14) 0.41475(15) 0.8001(3)
H35 H 0.2227 0.4437 0.7844
C29 C 0.16437(15) 0.37275(16) 0.7233(3)
H36 H 0.1827 0.3730 0.6537
C30 C 0.11422(15) 0.32998(15) 0.7460(3)
C31 C 0.08710(15) 0.33069(16) 0.8444(4)
H37 H 0.0522 0.3018 0.8589
C32 C 0.10974(15) 0.37258(16) 0.9220(4)
H38 H 0.0906 0.3725 0.9899
C33 C 0.02989(19) 0.2053(2) 0.6066(6)
C34 C 0.03099(19) 0.2155(2) 0.4868(5)
H39 H 0.0499 0.2512 0.4587
C35 C 0.0041(2) 0.1731(3) 0.4077(7)
H40 H 0.0044 0.1788 0.3253
C36 C -0.0240(3) 0.1201(3) 0.4590(11)
H41 H -0.0431 0.0907 0.4074
C37 C -0.0251(4) 0.1094(3) 0.5795(11)
H42 H -0.0441 0.0739 0.6089
C38 C 0.0023(3) 0.1518(2) 0.6527(9)
H43 H 0.0031 0.1460 0.7348
C39 C 0.22140(12) 0.62760(13) 0.6273(3)
C40 C 0.26511(14) 0.67521(14) 0.5866(3)
H44 H 0.2747 0.7081 0.6244
C41 C 0.29417(15) 0.67409(15) 0.4915(3)
H45 H 0.3237 0.7065 0.4641
C42 C 0.28097(14) 0.62623(15) 0.4347(3)
H46 H 0.3010 0.6257 0.3690
C43 C 0.23774(14) 0.57929(15) 0.4766(3)
H47 H 0.2285 0.5463 0.4394
C44 C 0.20829(13) 0.57979(13) 0.5707(3)
H48 H 0.1787 0.5473 0.5976
C45 C -0.04430(13) 0.39688(13) 1.0251(3)
C46 C -0.01499(13) 0.37427(13) 0.9825(3)
H49 H 0.0191 0.3963 0.9481
C47 C -0.03539(14) 0.31974(14) 0.9901(3)
H50 H -0.0152 0.3045 0.9609
C48 C -0.08557(14) 0.28690(14) 1.0406(3)
H51 H -0.0998 0.2494 1.0454
C49 C -0.11374(14) 0.30993(14) 1.0828(3)
H52 H -0.1476 0.2878 1.1181
C50 C -0.09439(13) 0.36430(13) 1.0756(3)
H53 H -0.1149 0.3793 1.1046
N1 N 0.19238(11) 0.51845(12) 1.1174(3)
H54 H 0.2234(10) 0.5217(16) 1.135(4)
N2 N 0.18649(11) 0.45791(12) 0.9822(3)
H55 H 0.2201(9) 0.4693(16) 0.999(4)
N3 N 0.15451(10) 0.64868(10) 0.8757(2)
H56 H 0.1370(13) 0.6144(8) 0.876(3)
N4 N 0.18958(10) 0.62388(10) 0.7249(2)
H57 H 0.1643(12) 0.5909(9) 0.731(3)
N5 N -0.01222(10) 0.53604(10) 1.0150(2)
H58 H 0.0155(11) 0.5421(15) 0.974(3)
N6 N -0.02246(11) 0.45257(11) 1.0084(2)
H59 H 0.0009(12) 0.4656(15) 0.953(3)
N7 N 0.05306(15) 0.24519(15) 0.6956(4)
N8 N 0.09184(13) 0.28817(14) 0.6595(3)
O1 O 0.12016(9) 0.47881(10) 0.9955(2)
O2 O 0.22528(9) 0.71196(8) 0.7749(2)
O3 O -0.07251(9) 0.47131(9) 1.1374(2)
O4 O -0.1903(3) 0.6567(5) 0.9126(8)
O5 O -0.1207(5) 0.7030(4) 0.7952(9)
C51 C -0.1550(7) 0.6576(6) 0.8326(14)
C52 C -0.1847(6) 0.7058(8) 0.9522(16)
H60 H -0.2128 0.6987 1.0094
H61 H -0.1876 0.7254 0.8851
H62 H -0.1497 0.7271 0.9895
O8 O 0.54869(9) 0.07743(9) 0.0412(2)
H66 H 0.5821(8) 0.0937(15) 0.054(4)
H67 H 0.5544(16) 0.0719(16) -0.029(2)
O6? O -0.1509(5) 0.6841(4) 0.8236(8)
O7? O -0.2053(3) 0.6228(4) 0.9455(6)
C53? C -0.1771(4) 0.6359(5) 0.8632(9)
C54? C -0.1591(6) 0.7236(4) 0.8878(14)
H63? H -0.1374 0.7589 0.8518
H64? H -0.1484 0.7249 0.9701
H65? H -0.1969 0.7134 0.8842
loop_
_geom_bond_atom_site_label_1
_geom_bond_atom_site_label_2
_geom_bond_site_symmetry_1
_geom_bond_site_symmetry_2
C1 H1 1_555 1_555
H2 C1 1_555 1_555
C2 C1 1_555 1_555
H3 C2 1_555 1_555
H4 C2 1_555 1_555
C3 C2 1_555 1_555
H5 C3 1_555 1_555
C4 C3 1_555 1_555
H6 C4 1_555 1_555
H7 C4 1_555 1_555
C5 C4 1_555 1_555
H8 C5 1_555 1_555
C6 C5 1_555 1_555
H9 C6 1_555 1_555
H10 C6 1_555 1_555
C7 C6 1_555 1_555
H11 C7 1_555 1_555
C8 C7 1_555 1_555
H12 C8 1_555 1_555
C9 C1 1_555 1_555
C10 C8 1_555 1_555
H13 C10 1_555 1_555
C11 C10 1_555 1_555
H14 C11 1_555 1_555
H15 C11 1_555 1_555
C12 C11 1_555 1_555
H16 C12 1_555 1_555
C13 C12 1_555 1_555
C14 C8 1_555 1_555
H17 C14 1_555 1_555
C15 C14 1_555 1_555
H18 C15 1_555 1_555
H19 C15 1_555 1_555
C16 C15 1_555 1_555
H20 C16 1_555 1_555
H21 C16 1_555 1_555
C17 C13 1_555 1_555
H22 C17 1_555 1_555
C18 C9 1_555 1_555
H23 C18 1_555 1_555
H24 C18 1_555 1_555
H25 C18 1_555 1_555
C19 C13 1_555 1_555
H26 C19 1_555 1_555
H27 C19 1_555 1_555
H28 C19 1_555 1_555
C20 C17 1_555 1_555
H29 C20 1_555 1_555
C21 C20 1_555 1_555
H30 C21 1_555 1_555
H31 C21 1_555 1_555
H32 C21 1_555 1_555
C22 C20 1_555 1_555
H33 C22 1_555 1_555
H34 C22 1_555 1_555
C23 C22 1_555 1_555
C24 N5 1_555 1_555
C25 N1 1_555 1_555
C26 N3 1_555 1_555
C27 C28 1_555 1_555
C28 H35 1_555 1_555
C29 C28 1_555 1_555
H36 C29 1_555 1_555
C30 C29 1_555 1_555
C31 C30 1_555 1_555
H37 C31 1_555 1_555
C32 C27 1_555 1_555
H38 C32 1_555 1_555
C33 C34 1_555 1_555
C34 H39 1_555 1_555
C35 C34 1_555 1_555
H40 C35 1_555 1_555
C36 C35 1_555 1_555
H41 C36 1_555 1_555
C37 C36 1_555 1_555
H42 C37 1_555 1_555
C38 C33 1_555 1_555
H43 C38 1_555 1_555
C39 C40 1_555 1_555
C40 H44 1_555 1_555
C41 C40 1_555 1_555
H45 C41 1_555 1_555
C42 C41 1_555 1_555
H46 C42 1_555 1_555
C43 C42 1_555 1_555
H47 C43 1_555 1_555
C44 C39 1_555 1_555
H48 C44 1_555 1_555
C45 C46 1_555 1_555
C46 H49 1_555 1_555
C47 C46 1_555 1_555
H50 C47 1_555 1_555
C48 C47 1_555 1_555
H51 C48 1_555 1_555
C49 C48 1_555 1_555
H52 C49 1_555 1_555
C50 C45 1_555 1_555
H53 C50 1_555 1_555
N1 C3 1_555 1_555
H54 N1 1_555 1_555
N2 C25 1_555 1_555
H55 N2 1_555 1_555
N3 C7 1_555 1_555
H56 N3 1_555 1_555
N4 C26 1_555 1_555
H57 N4 1_555 1_555
N5 C12 1_555 1_555
H58 N5 1_555 1_555
N6 C24 1_555 1_555
H59 N6 1_555 1_555
N7 C33 1_555 1_555
N8 C30 1_555 1_555
O1 C25 1_555 1_555
O2 C26 1_555 1_555
O3 C24 1_555 1_555
O4 C51 1_555 1_555
O5 C51 1_555 1_555
C51 C23 1_555 1_555
C52 O4 1_555 1_555
H60 C52 1_555 1_555
H61 C52 1_555 1_555
H62 C52 1_555 1_555
O8 H66 1_555 1_555
H67 O8 1_555 1_555
C5 C9 1_555 1_555
C9 C10 1_555 1_555
C13 C14 1_555 1_555
C16 C17 1_555 1_555
C27 N2 1_555 1_555
C31 C32 1_555 1_555
C37 C38 1_555 1_555
C39 N4 1_555 1_555
C43 C44 1_555 1_555
C45 N6 1_555 1_555
C49 C50 1_555 1_555
N7 N8 1_555 1_555

#END
