
#######################################################################
#
#                 Cambridge Crystallographic Data Centre
#                                CCDC 
#
#######################################################################
#
# If this CIF has been generated from an entry in the Cambridge 
# Structural Database, then it will include bibliographic, chemical, 
# crystal, experimental, refinement or atomic coordinate data resulting 
# from the CCDC's data processing and validation procedures.
#
#######################################################################

data_SIMNIM
_chemical_name_common            1,1'-Dibutyl-isoindigo
_chemical_formula_moiety         'C24 H26 N2 O2'
_chemical_name_systematic        1,1'-Dibutyl-3,3'-biindolinylidene-2,2'-dione
_symmetry_cell_setting           monoclinic
_symmetry_space_group_name_H-M   'P 21/n'
_symmetry_Int_Tables_number      14
_space_group_name_Hall           '-P 2yn'
loop_
_symmetry_equiv_pos_site_id
_symmetry_equiv_pos_as_xyz
1 x,y,z
2 1/2-x,1/2+y,1/2-z
3 -x,-y,-z
4 1/2+x,1/2-y,1/2+z
_cell_length_a                   9.0301(2)
_cell_length_b                   12.0559(3)
_cell_length_c                   9.8618(2)
_cell_angle_alpha                90
_cell_angle_beta                 110.546(2)
_cell_angle_gamma                90
_cell_volume                     1005.32
_exptl_crystal_colour            purple
_exptl_crystal_description       plate
_cell_formula_units_Z            2
_exptl_crystal_recrystallization_method THF
loop_
_atom_site_label
_atom_site_type_symbol
_atom_site_fract_x
_atom_site_fract_y
_atom_site_fract_z
N1 N 0.5019(2) 0.30724(15) 0.18760(19)
C1 C 0.6752(2) 0.39265(16) 0.0975(2)
C2 C 0.5247(2) 0.45466(16) 0.04392(19)
C3 C 0.6545(3) 0.30456(18) 0.1826(2)
O1 O 0.2828(2) 0.41384(15) 0.0981(2)
C4 C 0.4184(3) 0.39394(19) 0.1093(2)
C5 C 0.9168(3) 0.2428(2) 0.2345(3)
H1 H 0.9986 0.1936 0.2799
C6 C 0.7717(3) 0.2290(2) 0.2498(3)
H2 H 0.7537 0.1707 0.3037
C7 C 0.9414(3) 0.3278(2) 0.1536(3)
H3 H 1.0400 0.3355 0.1446
C8 C 0.8229(3) 0.40266(19) 0.0847(2)
H4 H 0.8422 0.4598 0.0298
C9 C 0.4387(3) 0.2311(2) 0.2693(3)
H5 H 0.3428 0.2628 0.2761
H6 H 0.5148 0.2246 0.3670
C10 C 0.4018(9) 0.1163(7) 0.2045(8)
H9 H 0.4922 0.0888 0.1833
H10 H 0.3842 0.0669 0.2750
C11 C 0.2597(10) 0.1148(7) 0.0693(8)
H11 H 0.2804 0.1587 -0.0046
H12 H 0.1709 0.1478 0.0881
C12 C 0.217(3) -0.0054(14) 0.014(2)
H13 H 0.1180 -0.0055 -0.0654
H14 H 0.2095 -0.0510 0.0906
H15 H 0.2984 -0.0341 -0.0188
N1B N 0.4981(2) 0.69276(15) -0.18760(19)
C1B C 0.3248(2) 0.60735(16) -0.0975(2)
C2B C 0.4753(2) 0.54534(16) -0.04392(19)
C3B C 0.3455(3) 0.69544(18) -0.1826(2)
O1B O 0.7172(2) 0.58616(15) -0.0981(2)
C4B C 0.5816(3) 0.60606(19) -0.1093(2)
C5B C 0.0832(3) 0.7572(2) -0.2345(3)
H1B H 0.0014 0.8064 -0.2799
C6B C 0.2283(3) 0.7710(2) -0.2498(3)
H2B H 0.2463 0.8293 -0.3037
C7B C 0.0586(3) 0.6722(2) -0.1536(3)
H3B H -0.0400 0.6645 -0.1446
C8B C 0.1771(3) 0.59734(19) -0.0847(2)
H4B H 0.1578 0.5402 -0.0298
C9B C 0.5613(3) 0.7689(2) -0.2693(3)
H5B H 0.6572 0.7372 -0.2761
H6B H 0.4852 0.7754 -0.3670
C10B C 0.5982(9) 0.8837(7) -0.2045(8)
H9B H 0.5078 0.9112 -0.1833
H10B H 0.6158 0.9331 -0.2750
C11B C 0.7403(10) 0.8852(7) -0.0693(8)
H11B H 0.7196 0.8413 0.0046
H12B H 0.8291 0.8522 -0.0881
C12B C 0.783(3) 1.0054(14) -0.014(2)
H13B H 0.8820 1.0055 0.0654
H14B H 0.7905 1.0510 -0.0906
H15B H 0.7016 1.0341 0.0188
H7? H 0.3906 0.2761 0.3243
H8? H 0.5255 0.1906 0.3384
C13? C 0.3178(15) 0.1506(8) 0.1785(13)
H16? H 0.2780 0.1067 0.2408
H17? H 0.2296 0.1914 0.1119
C14? C 0.3837(11) 0.0751(6) 0.0947(11)
H18? H 0.4727 0.0344 0.1605
H19? H 0.4211 0.1182 0.0301
C15? C 0.254(3) -0.0077(13) 0.0052(18)
H20? H 0.2979 -0.0570 -0.0473
H21? H 0.1675 0.0327 -0.0617
H22? H 0.2169 -0.0499 0.0694
loop_
_geom_bond_atom_site_label_1
_geom_bond_atom_site_label_2
_geom_bond_site_symmetry_1
_geom_bond_site_symmetry_2
N1 C3 1_555 1_555
C1 C2 1_555 1_555
C2 C4 1_555 1_555
C3 C1 1_555 1_555
O1 C4 1_555 1_555
C4 N1 1_555 1_555
C5 H1 1_555 1_555
C6 C3 1_555 1_555
H2 C6 1_555 1_555
C7 C5 1_555 1_555
H3 C7 1_555 1_555
C8 C1 1_555 1_555
H4 C8 1_555 1_555
C9 N1 1_555 1_555
H5 C9 1_555 1_555
H6 C9 1_555 1_555
C10 C9 1_555 1_555
H9 C10 1_555 1_555
H10 C10 1_555 1_555
C11 C10 1_555 1_555
H11 C11 1_555 1_555
H12 C11 1_555 1_555
C12 C11 1_555 1_555
H13 C12 1_555 1_555
H14 C12 1_555 1_555
H15 C12 1_555 1_555
N1B C3B 1_555 1_555
C1B C2B 1_555 1_555
C2B C2 1_555 1_555
C3B C1B 1_555 1_555
O1B C4B 1_555 1_555
C4B N1B 1_555 1_555
C5B H1B 1_555 1_555
C6B C3B 1_555 1_555
H2B C6B 1_555 1_555
C7B C5B 1_555 1_555
H3B C7B 1_555 1_555
C8B C1B 1_555 1_555
H4B C8B 1_555 1_555
C9B N1B 1_555 1_555
H5B C9B 1_555 1_555
H6B C9B 1_555 1_555
C10B C9B 1_555 1_555
H9B C10B 1_555 1_555
H10B C10B 1_555 1_555
C11B C10B 1_555 1_555
H11B C11B 1_555 1_555
H12B C11B 1_555 1_555
C12B C11B 1_555 1_555
H13B C12B 1_555 1_555
H14B C12B 1_555 1_555
H15B C12B 1_555 1_555
C5 C6 1_555 1_555
C7 C8 1_555 1_555
C2B C4B 1_555 1_555
C5B C6B 1_555 1_555
C7B C8B 1_555 1_555

#END
