
#######################################################################
#
#                 Cambridge Crystallographic Data Centre
#                                CCDC 
#
#######################################################################
#
# If this CIF has been generated from an entry in the Cambridge 
# Structural Database, then it will include bibliographic, chemical, 
# crystal, experimental, refinement or atomic coordinate data resulting 
# from the CCDC's data processing and validation procedures.
#
#######################################################################

data_SIMNAE
_chemical_formula_moiety         'C16 H11 Cl1 O2'
_chemical_name_systematic        2-(2-Chlorophenyl)-7-methyl-4H-chromen-4-one
_symmetry_cell_setting           monoclinic
_symmetry_space_group_name_H-M   'P 21/n'
_symmetry_Int_Tables_number      14
_space_group_name_Hall           '-P 2yn'
loop_
_symmetry_equiv_pos_site_id
_symmetry_equiv_pos_as_xyz
1 x,y,z
2 1/2-x,1/2+y,1/2-z
3 -x,-y,-z
4 1/2+x,1/2-y,1/2+z
_cell_length_a                   7.8394(10)
_cell_length_b                   22.936(3)
_cell_length_c                   7.8790(9)
_cell_angle_alpha                90
_cell_angle_beta                 116.462(2)
_cell_angle_gamma                90
_cell_volume                     1268.25
_exptl_crystal_colour            colorless
_exptl_crystal_description       prism
_cell_formula_units_Z            4
_exptl_crystal_recrystallization_method dichloromethane
loop_
_atom_site_label
_atom_site_type_symbol
_atom_site_fract_x
_atom_site_fract_y
_atom_site_fract_z
Cl1 Cl 0.97339(14) 0.22512(4) 0.89359(15)
O1 O 0.8098(3) 0.39353(7) 0.9756(3)
O2 O 1.1790(4) 0.42147(11) 0.7482(4)
C1 C 0.9519(4) 0.35489(11) 1.0026(4)
C2 C 1.0726(4) 0.36287(13) 0.9272(4)
H1 H 1.1649 0.3346 0.9476
C3 C 1.0661(5) 0.41337(14) 0.8157(4)
C4 C 0.9143(4) 0.45480(12) 0.7903(4)
C5 C 0.7900(4) 0.44250(11) 0.8673(4)
C6 C 0.6394(4) 0.47863(12) 0.8413(4)
H2 H 0.5569 0.4685 0.8923
C7 C 0.6113(4) 0.52959(12) 0.7399(4)
C8 C 0.7362(5) 0.54276(14) 0.6632(4)
H3 H 0.7188 0.5770 0.5943
C9 C 0.8835(5) 0.50654(14) 0.6869(4)
H4 H 0.9642 0.5164 0.6336
C10 C 0.9574(4) 0.30831(12) 1.1331(4)
C11 C 0.9700(4) 0.24929(13) 1.1007(5)
C12 C 0.9784(4) 0.20779(15) 1.2319(7)
H5 H 0.9865 0.1684 1.2081
C13 C 0.9748(5) 0.22476(18) 1.3959(6)
H6 H 0.9807 0.1968 1.4839
C14 C 0.9626(5) 0.28284(17) 1.4327(5)
H7 H 0.9620 0.2941 1.5458
C15 C 0.9513(4) 0.32395(15) 1.3025(5)
H8 H 0.9393 0.3630 1.3267
C16 C 0.4510(5) 0.56963(14) 0.7152(5)
H9 H 0.3497 0.5475 0.7208
H10 H 0.4049 0.5888 0.5944
H11 H 0.4957 0.5983 0.8144
loop_
_geom_bond_atom_site_label_1
_geom_bond_atom_site_label_2
_geom_bond_site_symmetry_1
_geom_bond_site_symmetry_2
Cl1 C11 1_555 1_555
O1 C1 1_555 1_555
O2 C3 1_555 1_555
C1 C2 1_555 1_555
C2 H1 1_555 1_555
C3 C2 1_555 1_555
C4 C3 1_555 1_555
C5 O1 1_555 1_555
C6 C5 1_555 1_555
H2 C6 1_555 1_555
C7 C6 1_555 1_555
C8 C7 1_555 1_555
H3 C8 1_555 1_555
C9 C4 1_555 1_555
H4 C9 1_555 1_555
C10 C1 1_555 1_555
C11 C10 1_555 1_555
C12 C11 1_555 1_555
H5 C12 1_555 1_555
C13 C12 1_555 1_555
H6 C13 1_555 1_555
C14 C13 1_555 1_555
H7 C14 1_555 1_555
C15 C10 1_555 1_555
H8 C15 1_555 1_555
C16 C7 1_555 1_555
H9 C16 1_555 1_555
H10 C16 1_555 1_555
H11 C16 1_555 1_555
C4 C5 1_555 1_555
C8 C9 1_555 1_555
C14 C15 1_555 1_555

#END
