
#######################################################################
#
#                 Cambridge Crystallographic Data Centre
#                                CCDC 
#
#######################################################################
#
# If this CIF has been generated from an entry in the Cambridge 
# Structural Database, then it will include bibliographic, chemical, 
# crystal, experimental, refinement or atomic coordinate data resulting 
# from the CCDC's data processing and validation procedures.
#
#######################################################################

data_SIMNEK
_chemical_formula_moiety         'C52 H64 N6 O5,C3 H6 O2,H2 O1'
_chemical_name_systematic        
"methyl 3-{[([1,1'-biphenyl]-4-yl)carbamoyl]amino}-7,12-bis[(phenylcarbamoyl)amino]cholan-24-oate methyl acetate solvate monohydrate"
_symmetry_cell_setting           hexagonal
_symmetry_space_group_name_H-M   'P 61'
_symmetry_Int_Tables_number      169
_space_group_name_Hall           'P 61'
loop_
_symmetry_equiv_pos_site_id
_symmetry_equiv_pos_as_xyz
1 x,y,z
2 -x,-y,1/2+z
3 -y,x-y,1/3+z
4 -x+y,-x,2/3+z
5 x-y,x,1/6+z
6 y,-x+y,5/6+z
_cell_length_a                   29.004(5)
_cell_length_b                   29.004(5)
_cell_length_c                   11.317(5)
_cell_angle_alpha                90
_cell_angle_beta                 90
_cell_angle_gamma                120
_cell_volume                     8244.75
_cell_formula_units_Z            6
loop_
_atom_site_label
_atom_site_type_symbol
_atom_site_fract_x
_atom_site_fract_y
_atom_site_fract_z
C1 C 0.5435(2) 0.1311(2) 0.6478(7)
H1 H 0.5221 0.0965 0.6880
H2 H 0.5579 0.1591 0.7094
C2 C 0.5906(2) 0.1310(2) 0.5843(7)
H3 H 0.6127 0.1252 0.6421
H4 H 0.5771 0.1021 0.5250
C3 C 0.6235(2) 0.1850(2) 0.5239(7)
H5 H 0.6341 0.2126 0.5871
C4 C 0.5898(2) 0.1948(2) 0.4362(7)
H6 H 0.5770 0.1673 0.3737
H7 H 0.6119 0.2300 0.3981
C5 C 0.5416(2) 0.1935(2) 0.4983(7)
H8 H 0.5563 0.2228 0.5583
C6 C 0.5073(2) 0.20525(19) 0.4120(6)
H9 H 0.4839 0.2141 0.4587
H10 H 0.5312 0.2370 0.3643
C7 C 0.47260(19) 0.15933(19) 0.3280(6)
H11 H 0.4466 0.1679 0.2903
C8 C 0.4403(2) 0.10654(19) 0.3944(6)
H12 H 0.4141 0.1100 0.4456
C9 C 0.5066(2) 0.1408(2) 0.5662(6)
C10 C 0.47631(19) 0.09515(19) 0.4770(6)
H13 H 0.5037 0.0937 0.4258
C11 C 0.4438(2) 0.04011(19) 0.5351(6)
H14 H 0.4177 0.0409 0.5902
H15 H 0.4681 0.0326 0.5820
C12 C 0.41377(19) -0.00540(19) 0.4453(6)
H16 H 0.3921 -0.0393 0.4901
C13 C 0.37517(19) 0.00538(19) 0.3698(6)
C14 C 0.4089(2) 0.06042(19) 0.3112(6)
H17 H 0.4353 0.0578 0.2591
C15 C 0.3687(2) 0.0639(2) 0.2294(6)
H18 H 0.3869 0.0892 0.1638
H19 H 0.3465 0.0752 0.2734
C16 C 0.3350(2) 0.0067(2) 0.1830(6)
H20 H 0.3434 0.0048 0.0990
H21 H 0.2967 -0.0052 0.1899
C17 C 0.34910(19) -0.02877(19) 0.2595(6)
H22 H 0.3775 -0.0319 0.2165
C18 C 0.3321(2) 0.0038(2) 0.4519(6)
H23 H 0.3490 0.0258 0.5219
H24 H 0.3078 -0.0330 0.4764
H25 H 0.3121 0.0177 0.4098
C19 C 0.4683(2) 0.1481(2) 0.6484(6)
H26 H 0.4439 0.1545 0.6008
H27 H 0.4889 0.1785 0.7008
H28 H 0.4479 0.1158 0.6959
C20 C 0.3007(2) -0.08638(19) 0.2734(6)
H29 H 0.2708 -0.0837 0.3104
C21 C 0.3132(2) -0.1212(2) 0.3521(6)
H30 H 0.3240 -0.1048 0.4305
H31 H 0.3422 -0.1246 0.3171
H32 H 0.2815 -0.1565 0.3596
C22 C 0.2832(2) -0.1097(2) 0.1491(6)
H33 H 0.2737 -0.0865 0.1039
H34 H 0.3139 -0.1090 0.1089
C23 C 0.2365(2) -0.1663(2) 0.1449(7)
H35 H 0.2266 -0.1768 0.0614
H36 H 0.2474 -0.1907 0.1797
C24 C 0.1890(2) -0.1724(2) 0.2097(6)
C25 C 0.7479(2) 0.1627(2) 0.2596(7)
C26 C 0.7392(3) 0.1124(3) 0.2785(8)
H37 H 0.7145 0.0905 0.3372
C27 C 0.7664(3) 0.0934(3) 0.2117(9)
H38 H 0.7598 0.0583 0.2256
C28 C 0.8026(2) 0.1238(2) 0.1263(8)
C29 C 0.8074(3) 0.1729(3) 0.0995(7)
H39 H 0.8297 0.1935 0.0361
C30 C 0.7799(3) 0.1921(3) 0.1649(7)
H40 H 0.7829 0.2253 0.1450
C31 C 0.8357(3) 0.1055(3) 0.0656(7)
C32 C 0.8154(3) 0.0560(3) 0.0174(8)
H41 H 0.7780 0.0322 0.0195
C33 C 0.8489(4) 0.0394(3) -0.0358(9)
H42 H 0.8338 0.0042 -0.0658
C34 C 0.9011(3) 0.0725(4) -0.0444(9)
H43 H 0.9238 0.0610 -0.0776
C35 C 0.9216(3) 0.1242(4) -0.0034(9)
H44 H 0.9586 0.1486 -0.0111
C36 C 0.8897(3) 0.1408(4) 0.0476(8)
H45 H 0.9045 0.1769 0.0711
C37 C 0.5918(2) 0.2202(2) -0.0161(6)
C38 C 0.5886(3) 0.2637(3) -0.0604(7)
H46 H 0.5649 0.2732 -0.0248
C39 C 0.6195(3) 0.2927(3) -0.1551(8)
H47 H 0.6163 0.3217 -0.1843
C40 C 0.6549(2) 0.2807(2) -0.2080(7)
H48 H 0.6762 0.3010 -0.2729
C41 C 0.6588(2) 0.2380(2) -0.1639(7)
H49 H 0.6835 0.2295 -0.1984
C42 C 0.6278(2) 0.2081(2) -0.0718(7)
H50 H 0.6305 0.1785 -0.0451
C43 C 0.5604(2) -0.0408(2) 0.3817(6)
C44 C 0.5444(2) -0.0904(2) 0.4338(7)
H51 H 0.5093 -0.1113 0.4636
C45 C 0.5800(3) -0.1087(2) 0.4415(7)
H52 H 0.5695 -0.1419 0.4786
C46 C 0.6307(3) -0.0792(3) 0.3958(7)
H53 H 0.6547 -0.0925 0.4003
C47 C 0.6464(2) -0.0312(3) 0.3442(7)
H54 H 0.6814 -0.0112 0.3129
C48 C 0.6111(2) -0.0107(2) 0.3368(7)
H55 H 0.6221 0.0230 0.3016
C49 C 0.6774(2) 0.1637(2) 0.3831(6)
C50 C 0.52592(19) 0.1915(2) 0.1483(6)
C51 C 0.47730(19) -0.03643(19) 0.4161(6)
C52 C 0.1233(3) -0.1490(4) 0.2209(10)
H56 H 0.1107 -0.1284 0.1767
H57 H 0.1341 -0.1342 0.3005
H58 H 0.0947 -0.1862 0.2264
N1 N 0.67304(16) 0.19250(18) 0.4714(5)
H59 H 0.7006(18) 0.2215(17) 0.499(6)
N2 N 0.72746(18) 0.18755(18) 0.3339(6)
H60 H 0.747(2) 0.2192(16) 0.368(6)
N3 N 0.50402(17) 0.15373(16) 0.2323(5)
H61 H 0.513(2) 0.1300(19) 0.251(6)
N4 N 0.56357(18) 0.18856(17) 0.0808(5)
H62 H 0.568(3) 0.1606(17) 0.093(6)
N5 N 0.45208(17) -0.01135(16) 0.3713(5)
H63 H 0.471(2) 0.013(2) 0.319(5)
N6 N 0.52582(18) -0.01970(18) 0.3637(5)
H64 H 0.541(2) 0.0104(17) 0.324(6)
O1 O 0.17072(18) -0.19862(18) 0.2990(5)
O2 O 0.16835(18) -0.14656(19) 0.1606(5)
O3 O 0.64094(15) 0.12067(15) 0.3472(5)
O4 O 0.51218(15) 0.22532(14) 0.1313(5)
O5 O 0.45756(15) -0.07117(14) 0.4926(4)
O6 O 0.54760(15) 0.07842(15) 0.2302(4)
H65 H 0.548(3) 0.069(3) 0.161(3)
H66 H 0.5751(17) 0.084(3) 0.267(6)
O7 O 0.2165(7) 0.0296(7) 0.1601(18)
C53 C 0.2855(9) 0.1158(7) 0.058(2)
O8 O 0.2481(15) 0.0276(11) -0.036(3)
C54 C 0.2478(13) 0.0632(12) 0.029(4)
H67 H 0.2734 0.1272 0.1265
H68 H 0.2900 0.1390 -0.0096
H69 H 0.3196 0.1180 0.0756
C55 C 0.1974(16) -0.0248(11) 0.116(5)
H70 H 0.2245 -0.0349 0.1306
H71 H 0.1905 -0.0261 0.0309
H72 H 0.1644 -0.0497 0.1570
O9? O 0.2835(16) 0.0682(11) 0.005(4)
C56? C 0.2204(14) 0.0201(12) 0.054(5)
C57? C 0.2058(14) -0.0281(10) -0.004(3)
H73? H 0.1753 -0.0374 -0.0554
H74? H 0.1961 -0.0562 0.0553
H75? H 0.2358 -0.0244 -0.0510
H76? H 0.2493 0.1079 0.0765
H77? H 0.3016 0.1453 0.0009
H78? H 0.3070 0.1258 0.1299
loop_
_geom_bond_atom_site_label_1
_geom_bond_atom_site_label_2
_geom_bond_site_symmetry_1
_geom_bond_site_symmetry_2
C1 H1 1_555 1_555
H2 C1 1_555 1_555
C2 C1 1_555 1_555
H3 C2 1_555 1_555
H4 C2 1_555 1_555
C3 C2 1_555 1_555
H5 C3 1_555 1_555
C4 C3 1_555 1_555
H6 C4 1_555 1_555
H7 C4 1_555 1_555
C5 C4 1_555 1_555
H8 C5 1_555 1_555
C6 C5 1_555 1_555
H9 C6 1_555 1_555
H10 C6 1_555 1_555
C7 C6 1_555 1_555
H11 C7 1_555 1_555
C8 C7 1_555 1_555
H12 C8 1_555 1_555
C9 C1 1_555 1_555
C10 C8 1_555 1_555
H13 C10 1_555 1_555
C11 C10 1_555 1_555
H14 C11 1_555 1_555
H15 C11 1_555 1_555
C12 C11 1_555 1_555
H16 C12 1_555 1_555
C13 C12 1_555 1_555
C14 C8 1_555 1_555
H17 C14 1_555 1_555
C15 C14 1_555 1_555
H18 C15 1_555 1_555
H19 C15 1_555 1_555
C16 C15 1_555 1_555
H20 C16 1_555 1_555
H21 C16 1_555 1_555
C17 C13 1_555 1_555
H22 C17 1_555 1_555
C18 C13 1_555 1_555
H23 C18 1_555 1_555
H24 C18 1_555 1_555
H25 C18 1_555 1_555
C19 C9 1_555 1_555
H26 C19 1_555 1_555
H27 C19 1_555 1_555
H28 C19 1_555 1_555
C20 C17 1_555 1_555
H29 C20 1_555 1_555
C21 C20 1_555 1_555
H30 C21 1_555 1_555
H31 C21 1_555 1_555
H32 C21 1_555 1_555
C22 C20 1_555 1_555
H33 C22 1_555 1_555
H34 C22 1_555 1_555
C23 C22 1_555 1_555
H35 C23 1_555 1_555
H36 C23 1_555 1_555
C24 C23 1_555 1_555
C25 C26 1_555 1_555
C26 H37 1_555 1_555
C27 C26 1_555 1_555
H38 C27 1_555 1_555
C28 C27 1_555 1_555
C29 C28 1_555 1_555
H39 C29 1_555 1_555
C30 C25 1_555 1_555
H40 C30 1_555 1_555
C31 C28 1_555 1_555
C32 C31 1_555 1_555
H41 C32 1_555 1_555
C33 C32 1_555 1_555
H42 C33 1_555 1_555
C34 C33 1_555 1_555
H43 C34 1_555 1_555
C35 C34 1_555 1_555
H44 C35 1_555 1_555
C36 C31 1_555 1_555
H45 C36 1_555 1_555
C37 C38 1_555 1_555
C38 H46 1_555 1_555
C39 C38 1_555 1_555
H47 C39 1_555 1_555
C40 C39 1_555 1_555
H48 C40 1_555 1_555
C41 C40 1_555 1_555
H49 C41 1_555 1_555
C42 C37 1_555 1_555
H50 C42 1_555 1_555
C43 C44 1_555 1_555
C44 H51 1_555 1_555
C45 C44 1_555 1_555
H52 C45 1_555 1_555
C46 C45 1_555 1_555
H53 C46 1_555 1_555
C47 C46 1_555 1_555
H54 C47 1_555 1_555
C48 C43 1_555 1_555
H55 C48 1_555 1_555
C49 N1 1_555 1_555
C50 N3 1_555 1_555
C51 N5 1_555 1_555
C52 H56 1_555 1_555
H57 C52 1_555 1_555
H58 C52 1_555 1_555
N1 C3 1_555 1_555
H59 N1 1_555 1_555
N2 C25 1_555 1_555
H60 N2 1_555 1_555
N3 C7 1_555 1_555
H61 N3 1_555 1_555
N4 C37 1_555 1_555
H62 N4 1_555 1_555
N5 C12 1_555 1_555
H63 N5 1_555 1_555
N6 C43 1_555 1_555
H64 N6 1_555 1_555
O1 C24 1_555 1_555
O2 C24 1_555 1_555
O3 C49 1_555 1_555
O4 C50 1_555 1_555
O5 C51 1_555 1_555
O6 H65 1_555 1_555
H66 O6 1_555 1_555
O7 C54 1_555 1_555
C53 C54 1_555 1_555
O8 C54 1_555 1_555
H67 C53 1_555 1_555
H68 C53 1_555 1_555
H69 C53 1_555 1_555
C55 O7 1_555 1_555
H70 C55 1_555 1_555
H71 C55 1_555 1_555
H72 C55 1_555 1_555
C5 C9 1_555 1_555
C9 C10 1_555 1_555
C13 C14 1_555 1_555
C16 C17 1_555 1_555
C29 C30 1_555 1_555
C35 C36 1_555 1_555
C41 C42 1_555 1_555
C47 C48 1_555 1_555
C49 N2 1_555 1_555
C50 N4 1_555 1_555
C51 N6 1_555 1_555
C52 O2 1_555 1_555

#END
