
#######################################################################
#
#                 Cambridge Crystallographic Data Centre
#                                CCDC 
#
#######################################################################
#
# If this CIF has been generated from an entry in the Cambridge 
# Structural Database, then it will include bibliographic, chemical, 
# crystal, experimental, refinement or atomic coordinate data resulting 
# from the CCDC's data processing and validation procedures.
#
#######################################################################

data_SIMPAI
_chemical_formula_moiety         'C47 H60 N6 O6,H2 O1'
_chemical_name_systematic        
'methyl 3-(((4-formylphenyl)carbamoyl)amino)-7,12-bis((phenylcarbamoyl)amino)cholan-24-oate unknown solvate monohydrate'
_symmetry_cell_setting           hexagonal
_symmetry_space_group_name_H-M   'P 61'
_symmetry_Int_Tables_number      169
_space_group_name_Hall           'P 61'
loop_
_symmetry_equiv_pos_site_id
_symmetry_equiv_pos_as_xyz
1 x,y,z
2 -y,x-y,1/3+z
3 -x+y,-x,2/3+z
4 -x,-y,1/2+z
5 y,-x+y,5/6+z
6 x-y,x,1/6+z
_cell_length_a                   28.922(2)
_cell_length_b                   28.922(2)
_cell_length_c                   11.4784(11)
_cell_angle_alpha                90
_cell_angle_beta                 90
_cell_angle_gamma                120
_cell_volume                     8315.12
_exptl_crystal_colour            colorless
_exptl_crystal_description       needle
_cell_formula_units_Z            6
loop_
_atom_site_label
_atom_site_type_symbol
_atom_site_fract_x
_atom_site_fract_y
_atom_site_fract_z
C1 C 0.5900(3) 0.1309(3) -0.0443(7)
H1 H 0.6037 0.1586 -0.1057
H2 H 0.5772 0.0960 -0.0830
C2 C 0.5427(4) 0.1306(3) 0.0153(8)
H3 H 0.5150 0.1246 -0.0430
H4 H 0.5267 0.1015 0.0735
C3 C 0.5625(3) 0.1841(3) 0.0747(7)
H5 H 0.5796 0.2118 0.0126
C4 C 0.6066(3) 0.1951(3) 0.1635(7)
H6 H 0.5918 0.1678 0.2259
H7 H 0.6192 0.2305 0.1998
C5 C 0.6538(3) 0.1940(3) 0.1057(7)
H8 H 0.6687 0.2234 0.0468
C6 C 0.6989(3) 0.2063(3) 0.1923(7)
H9 H 0.7316 0.2152 0.1480
H10 H 0.7061 0.2383 0.2380
C7 C 0.6873(3) 0.1609(3) 0.2770(7)
H11 H 0.7216 0.1696 0.3159
C8 C 0.6673(3) 0.1081(3) 0.2111(7)
H12 H 0.6976 0.1118 0.1623
C9 C 0.6368(3) 0.1415(3) 0.0380(7)
C10 C 0.6211(3) 0.0958(3) 0.1288(7)
H13 H 0.5919 0.0945 0.1776
C11 C 0.5986(3) 0.0401(3) 0.0728(7)
H14 H 0.6257 0.0408 0.0192
H15 H 0.5668 0.0324 0.0258
C12 C 0.5827(3) -0.0056(3) 0.1623(7)
H16 H 0.5712 -0.0396 0.1186
C13 C 0.6314(3) 0.0062(3) 0.2372(7)
C14 C 0.6527(3) 0.0618(3) 0.2966(7)
H17 H 0.6230 0.0590 0.3465
C15 C 0.6956(3) 0.0657(3) 0.3790(7)
H18 H 0.7019 0.0910 0.4432
H19 H 0.7296 0.0774 0.3371
C16 C 0.6727(4) 0.0086(3) 0.4254(8)
H20 H 0.6622 0.0068 0.5081
H21 H 0.6997 -0.0028 0.4197
C17 C 0.6225(3) -0.0284(3) 0.3480(7)
H22 H 0.5904 -0.0318 0.3890
C18 C 0.6827(3) 0.1483(3) -0.0397(7)
H23 H 0.6943 0.1797 -0.0895
H24 H 0.6706 0.1165 -0.0885
H25 H 0.7126 0.1531 0.0091
C19 C 0.6740(3) 0.0049(3) 0.1592(8)
H26 H 0.6570 -0.0266 0.1086
H27 H 0.7009 0.0032 0.2081
H28 H 0.6911 0.0372 0.1112
C20 C 0.6144(3) -0.0851(3) 0.3366(8)
H29 H 0.6476 -0.0817 0.3014
C21 C 0.5679(3) -0.1208(3) 0.2574(8)
H30 H 0.5636 -0.1566 0.2554
H31 H 0.5749 -0.1059 0.1785
H32 H 0.5351 -0.1230 0.2873
C22 C 0.6083(4) -0.1087(3) 0.4579(8)
H33 H 0.6410 -0.0852 0.5027
H34 H 0.5783 -0.1077 0.4970
C23 C 0.5985(4) -0.1652(4) 0.4655(9)
H35 H 0.5969 -0.1755 0.5484
H36 H 0.5637 -0.1901 0.4291
C24 C 0.6418(5) -0.1697(4) 0.4054(10)
C25 C 0.7349(6) -0.1454(7) 0.4086(15)
H37 H 0.7222 -0.1794 0.3677
H38 H 0.7594 -0.1423 0.4710
H39 H 0.7537 -0.1158 0.3535
C26 C 0.4883(3) 0.1638(3) 0.2132(8)
C27 C 0.6646(3) 0.1923(3) 0.4520(7)
C28 C 0.4873(3) -0.0375(3) 0.1878(7)
C29 C 0.4217(4) 0.1644(3) 0.3442(8)
C30 C 0.4213(5) 0.1959(4) 0.4364(9)
H40 H 0.4501 0.2314 0.4451
C31 C 0.3801(5) 0.1761(5) 0.5141(10)
H41 H 0.3801 0.1985 0.5748
C32 C 0.3390(4) 0.1252(4) 0.5062(9)
C33 C 0.3386(4) 0.0926(4) 0.4164(10)
H42 H 0.3100 0.0569 0.4100
C34 C 0.3803(4) 0.1123(4) 0.3359(9)
H43 H 0.3802 0.0900 0.2752
C35 C 0.6278(3) 0.2208(3) 0.6164(7)
C36 C 0.6741(3) 0.2647(3) 0.6544(8)
H44 H 0.7069 0.2757 0.6150
C37 C 0.6725(4) 0.2928(4) 0.7501(8)
H45 H 0.7047 0.3225 0.7776
C38 C 0.6246(4) 0.2783(4) 0.8068(7)
H46 H 0.6239 0.2983 0.8718
C39 C 0.5786(4) 0.2350(3) 0.7680(8)
H47 H 0.5457 0.2248 0.8063
C40 C 0.5797(3) 0.2065(3) 0.6748(8)
H48 H 0.5474 0.1765 0.6487
C41 C 0.3990(3) -0.0440(3) 0.2223(7)
C42 C 0.3777(3) -0.0141(3) 0.2667(8)
H49 H 0.4001 0.0196 0.3020
C43 C 0.3227(4) -0.0343(4) 0.2586(8)
H50 H 0.3073 -0.0144 0.2883
C44 C 0.2903(4) -0.0840(4) 0.2068(8)
H51 H 0.2528 -0.0981 0.2021
C45 C 0.3125(4) -0.1123(4) 0.1628(8)
H52 H 0.2904 -0.1458 0.1261
C46 C 0.3662(3) -0.0931(3) 0.1711(7)
H53 H 0.3811 -0.1135 0.1416
C47 C 0.2961(6) 0.1062(6) 0.5911(12)
H54 H 0.2975 0.1313 0.6464
N1 N 0.5205(3) 0.1918(3) 0.1253(6)
H55 H 0.5160 0.2172 0.0952
N2 N 0.4619(3) 0.1875(3) 0.2621(6)
H56 H 0.4713 0.2201 0.2391
N3 N 0.6496(3) 0.1557(2) 0.3680(5)
H57 H 0.6168 0.1282 0.3674
N4 N 0.6249(3) 0.1896(3) 0.5195(6)
H58 H 0.5924 0.1647 0.4999
N5 N 0.5377(2) -0.0119(3) 0.2320(6)
H59 H 0.5432 0.0010 0.3033
N6 N 0.4547(3) -0.0222(3) 0.2386(6)
H60 H 0.4700 0.0046 0.2878
O1 O 0.6366(3) -0.1955(3) 0.3177(8)
O2 O 0.6888(3) -0.1433(4) 0.4592(8)
O3 O 0.4824(2) 0.1207(2) 0.2491(5)
O4 O 0.7119(2) 0.2269(2) 0.4679(5)
O5 O 0.4735(2) -0.0711(2) 0.1101(5)
O6 O 0.2594(4) 0.0619(4) 0.5972(10)
O7 O 0.5302(2) 0.0780(2) 0.3741(5)
loop_
_geom_bond_atom_site_label_1
_geom_bond_atom_site_label_2
_geom_bond_site_symmetry_1
_geom_bond_site_symmetry_2
C1 H1 1_555 1_555
H2 C1 1_555 1_555
C2 C1 1_555 1_555
H3 C2 1_555 1_555
H4 C2 1_555 1_555
C3 C2 1_555 1_555
H5 C3 1_555 1_555
C4 C3 1_555 1_555
H6 C4 1_555 1_555
H7 C4 1_555 1_555
C5 C4 1_555 1_555
H8 C5 1_555 1_555
C6 C5 1_555 1_555
H9 C6 1_555 1_555
H10 C6 1_555 1_555
C7 C6 1_555 1_555
H11 C7 1_555 1_555
C8 C7 1_555 1_555
H12 C8 1_555 1_555
C9 C1 1_555 1_555
C10 C8 1_555 1_555
H13 C10 1_555 1_555
C11 C10 1_555 1_555
H14 C11 1_555 1_555
H15 C11 1_555 1_555
C12 C11 1_555 1_555
H16 C12 1_555 1_555
C13 C12 1_555 1_555
C14 C8 1_555 1_555
H17 C14 1_555 1_555
C15 C14 1_555 1_555
H18 C15 1_555 1_555
H19 C15 1_555 1_555
C16 C15 1_555 1_555
H20 C16 1_555 1_555
H21 C16 1_555 1_555
C17 C13 1_555 1_555
H22 C17 1_555 1_555
C18 C9 1_555 1_555
H23 C18 1_555 1_555
H24 C18 1_555 1_555
H25 C18 1_555 1_555
C19 C13 1_555 1_555
H26 C19 1_555 1_555
H27 C19 1_555 1_555
H28 C19 1_555 1_555
C20 C17 1_555 1_555
H29 C20 1_555 1_555
C21 C20 1_555 1_555
H30 C21 1_555 1_555
H31 C21 1_555 1_555
H32 C21 1_555 1_555
C22 C20 1_555 1_555
H33 C22 1_555 1_555
H34 C22 1_555 1_555
C23 C22 1_555 1_555
H35 C23 1_555 1_555
H36 C23 1_555 1_555
C24 C23 1_555 1_555
C25 H37 1_555 1_555
H38 C25 1_555 1_555
H39 C25 1_555 1_555
C26 N1 1_555 1_555
C27 N3 1_555 1_555
C28 N5 1_555 1_555
C29 C30 1_555 1_555
C30 H40 1_555 1_555
C31 C30 1_555 1_555
H41 C31 1_555 1_555
C32 C31 1_555 1_555
C33 C32 1_555 1_555
H42 C33 1_555 1_555
C34 C29 1_555 1_555
H43 C34 1_555 1_555
C35 C36 1_555 1_555
C36 H44 1_555 1_555
C37 C36 1_555 1_555
H45 C37 1_555 1_555
C38 C37 1_555 1_555
H46 C38 1_555 1_555
C39 C38 1_555 1_555
H47 C39 1_555 1_555
C40 C35 1_555 1_555
H48 C40 1_555 1_555
C41 C42 1_555 1_555
C42 H49 1_555 1_555
C43 C42 1_555 1_555
H50 C43 1_555 1_555
C44 C43 1_555 1_555
H51 C44 1_555 1_555
C45 C44 1_555 1_555
H52 C45 1_555 1_555
C46 C41 1_555 1_555
H53 C46 1_555 1_555
C47 C32 1_555 1_555
H54 C47 1_555 1_555
N1 C3 1_555 1_555
H55 N1 1_555 1_555
N2 C26 1_555 1_555
H56 N2 1_555 1_555
N3 C7 1_555 1_555
H57 N3 1_555 1_555
N4 C27 1_555 1_555
H58 N4 1_555 1_555
N5 C12 1_555 1_555
H59 N5 1_555 1_555
N6 C28 1_555 1_555
H60 N6 1_555 1_555
O1 C24 1_555 1_555
O2 C24 1_555 1_555
O3 C26 1_555 1_555
O4 C27 1_555 1_555
O5 C28 1_555 1_555
O6 C47 1_555 1_555
C5 C9 1_555 1_555
C9 C10 1_555 1_555
C13 C14 1_555 1_555
C16 C17 1_555 1_555
C25 O2 1_555 1_555
C29 N2 1_555 1_555
C33 C34 1_555 1_555
C35 N4 1_555 1_555
C39 C40 1_555 1_555
C41 N6 1_555 1_555
C45 C46 1_555 1_555

#END
