
#######################################################################
#
#                 Cambridge Crystallographic Data Centre
#                                CCDC 
#
#######################################################################
#
# If this CIF has been generated from an entry in the Cambridge 
# Structural Database, then it will include bibliographic, chemical, 
# crystal, experimental, refinement or atomic coordinate data resulting 
# from the CCDC's data processing and validation procedures.
#
#######################################################################

data_SIMPUC
_chemical_formula_moiety         'C62 H68 N6 O5,H2 O1'
_chemical_name_systematic        
'(pyren-1-yl)methyl 3,7,12-tris[(phenylcarbamoyl)amino]cholan-24-oate monohydrate'
_symmetry_cell_setting           hexagonal
_symmetry_space_group_name_H-M   'P 61'
_symmetry_Int_Tables_number      169
_space_group_name_Hall           'P 61'
loop_
_symmetry_equiv_pos_site_id
_symmetry_equiv_pos_as_xyz
1 x,y,z
2 -y,x-y,1/3+z
3 -x+y,-x,2/3+z
4 -x,-y,1/2+z
5 y,-x+y,5/6+z
6 x-y,x,1/6+z
_cell_length_a                   29.0884(9)
_cell_length_b                   29.0884(9)
_cell_length_c                   11.3681(8)
_cell_angle_alpha                90
_cell_angle_beta                 90
_cell_angle_gamma                120
_cell_volume                     8330.25
_exptl_crystal_colour            colorless
_exptl_crystal_description       needle
_cell_formula_units_Z            6
loop_
_atom_site_label
_atom_site_type_symbol
_atom_site_fract_x
_atom_site_fract_y
_atom_site_fract_z
C1 C 0.5418(2) 0.4096(2) 0.3438(5)
H1 H 0.5556 0.3956 0.2825
H2 H 0.5202 0.4226 0.3040
C2 C 0.5888(2) 0.4567(2) 0.4039(6)
H3 H 0.5759 0.4730 0.4620
H4 H 0.6107 0.4839 0.3449
C3 C 0.62201(19) 0.4363(2) 0.4657(5)
H5 H 0.6325 0.4191 0.4035
C4 C 0.58827(19) 0.3928(2) 0.5547(6)
H6 H 0.6104 0.3797 0.5921
H7 H 0.5761 0.4079 0.6172
C5 C 0.5403(2) 0.3465(2) 0.4968(5)
H8 H 0.5547 0.3315 0.4375
C6 C 0.5068(2) 0.3013(2) 0.5817(5)
H9 H 0.5307 0.2934 0.6283
H10 H 0.4832 0.2692 0.5354
C7 C 0.47285(19) 0.3127(2) 0.6665(5)
H11 H 0.4471 0.2784 0.7048
C8 C 0.44055(19) 0.33315(19) 0.6000(5)
H12 H 0.4142 0.3034 0.5497
C9 C 0.50525(19) 0.3635(2) 0.4271(5)
C10 C 0.47564(19) 0.3796(2) 0.5177(5)
H13 H 0.5034 0.4084 0.5678
C11 C 0.4433(2) 0.4027(2) 0.4590(5)
H14 H 0.4678 0.4346 0.4131
H15 H 0.4174 0.3761 0.4035
C12 C 0.41355(19) 0.4176(2) 0.5488(5)
H16 H 0.3916 0.4295 0.5048
C13 C 0.37602(19) 0.3693(2) 0.6253(5)
C14 C 0.40905(19) 0.3484(2) 0.6843(5)
H17 H 0.4356 0.3777 0.7353
C15 C 0.3698(2) 0.3049(2) 0.7668(5)
H18 H 0.3885 0.2985 0.8321
H19 H 0.3477 0.2713 0.7239
C16 C 0.3359(2) 0.3286(2) 0.8126(6)
H20 H 0.3440 0.3388 0.8964
H21 H 0.2977 0.3022 0.8055
C17 C 0.3500(2) 0.3782(2) 0.7364(5)
H22 H 0.3786 0.4096 0.7789
C18 C 0.4664(2) 0.3178(2) 0.3481(6)
H23 H 0.4860 0.3051 0.3009
H24 H 0.4481 0.3303 0.2959
H25 H 0.4403 0.2887 0.3971
C19 C 0.3320(2) 0.3275(2) 0.5450(6)
H26 H 0.3174 0.3448 0.4958
H27 H 0.3036 0.3003 0.5937
H28 H 0.3470 0.3109 0.4947
C20 C 0.3027(2) 0.3878(2) 0.7227(6)
H29 H 0.2721 0.3549 0.6895
C21 C 0.3148(2) 0.4337(2) 0.6402(6)
H30 H 0.3484 0.4649 0.6633
H31 H 0.2861 0.4421 0.6448
H32 H 0.3176 0.4237 0.5594
C22 C 0.2872(2) 0.3970(2) 0.8455(6)
H33 H 0.3179 0.4288 0.8797
H34 H 0.2802 0.3664 0.8957
C23 C 0.2384(2) 0.4045(2) 0.8515(7)
H35 H 0.2350 0.4150 0.9324
H36 H 0.2439 0.4336 0.7978
C24 C 0.1884(2) 0.3553(3) 0.8186(7)
C25 C 0.67582(19) 0.5109(2) 0.6061(5)
C26 C 0.5277(2) 0.33554(19) 0.8433(5)
C27 C 0.47624(19) 0.51257(19) 0.5769(5)
C28 C 0.74250(19) 0.5790(2) 0.7377(5)
C29 C 0.7713(2) 0.5787(3) 0.8336(6)
H37 H 0.7767 0.5494 0.8458
C30 C 0.7926(3) 0.6211(3) 0.9133(6)
H38 H 0.8132 0.6208 0.9779
C31 C 0.7840(2) 0.6627(3) 0.8989(7)
H39 H 0.7977 0.6911 0.9538
C32 C 0.7547(2) 0.6626(3) 0.8018(7)
H40 H 0.7485 0.6915 0.7911
C33 C 0.7346(2) 0.6222(2) 0.7215(6)
H41 H 0.7154 0.6235 0.6551
C34 C 0.59406(18) 0.37307(19) 1.0082(5)
C35 C 0.5903(2) 0.3261(2) 1.0486(6)
H42 H 0.5673 0.2933 1.0111
C36 C 0.6208(2) 0.3280(2) 1.1444(7)
H43 H 0.6181 0.2961 1.1731
C37 C 0.6548(2) 0.3753(2) 1.1987(6)
H44 H 0.6754 0.3760 1.2643
C38 C 0.6588(2) 0.4212(2) 1.1572(6)
H45 H 0.6826 0.4541 1.1934
C39 C 0.6282(2) 0.4201(2) 1.0628(5)
H46 H 0.6309 0.4522 1.0355
C40 C 0.5583(2) 0.6012(2) 0.6119(5)
C41 C 0.6094(2) 0.6231(2) 0.6527(5)
H47 H 0.6217 0.6010 0.6851
C42 C 0.6431(2) 0.6776(2) 0.6464(6)
H48 H 0.6779 0.6929 0.6781
C43 C 0.6265(3) 0.7100(2) 0.5945(6)
H49 H 0.6501 0.7472 0.5880
C44 C 0.5755(2) 0.6876(2) 0.5526(6)
H50 H 0.5637 0.7095 0.5175
C45 C 0.5410(2) 0.6333(2) 0.5609(5)
H51 H 0.5057 0.6182 0.5318
O1 O 0.17128(18) 0.31995(17) 0.9076(5)
C46 C 0.1241(3) 0.2703(2) 0.8871(7)
H52 H 0.1300 0.2509 0.8227
H53 H 0.0947 0.2762 0.8641
C47 C 0.1102(2) 0.2382(3) 0.9999(7)
C48 C 0.0629(5) 0.2296(7) 1.0528(13)
H54 H 0.0412 0.2408 1.0140
C49 C 0.0480(5) 0.2051(7) 1.1613(14)
C50 C 0.0802(6) 0.1895(7) 1.2205(13)
C51 C 0.0645(6) 0.1616(8) 1.3287(14)
H55 H 0.0310 0.1525 1.3622
C52 C 0.0979(5) 0.1477(6) 1.3858(14)
H56 H 0.0865 0.1286 1.4576
C53 C 0.1487(5) 0.1610(5) 1.3407(11)
C54 C 0.1844(5) 0.1485(5) 1.4016(14)
H57 H 0.1736 0.1284 1.4723
C55 C 0.2361(6) 0.1663(6) 1.3550(12)
H58 H 0.2624 0.1646 1.4014
C56 C 0.2476(5) 0.1861(5) 1.2417(11)
H59 H 0.2792 0.1913 1.2050
C57 C 0.2135(4) 0.1986(4) 1.1794(9)
C58 C 0.2260(4) 0.2224(4) 1.0675(10)
H60 H 0.2586 0.2298 1.0326
C59 C 0.1941(4) 0.2353(4) 1.0067(10)
H61 H 0.2039 0.2500 0.9300
C60 C 0.1454(4) 0.2267(5) 1.0584(10)
C61 C 0.1297(5) 0.2009(6) 1.1697(11)
C62 C 0.1646(4) 0.1880(5) 1.2297(10)
N1 N 0.67185(15) 0.47869(17) 0.5174(5)
H62 H 0.7017(14) 0.482(2) 0.491(5)
N2 N 0.72563(17) 0.53823(17) 0.6542(5)
H63 H 0.7480(19) 0.527(2) 0.637(6)
N3 N 0.50499(16) 0.34979(16) 0.7598(4)
H64 H 0.517(2) 0.3842(10) 0.747(6)
N4 N 0.56503(17) 0.37555(16) 0.9105(4)
H65 H 0.568(2) 0.4057(13) 0.892(6)
N5 N 0.45244(16) 0.46234(16) 0.6206(4)
H66 H 0.472(2) 0.456(2) 0.671(4)
N6 N 0.52447(17) 0.54577(18) 0.6282(4)
H67 H 0.534(2) 0.528(2) 0.674(5)
O2 O 0.1654(2) 0.3470(3) 0.7274(5)
O3 O 0.63885(13) 0.51721(13) 0.6406(4)
O4 O 0.51441(14) 0.28790(13) 0.8598(4)
O5 O 0.45602(15) 0.52715(16) 0.4998(4)
O6 O 0.54725(15) 0.46849(14) 0.7621(4)
H68 H 0.5796(12) 0.4865(19) 0.737(6)
H69 H 0.549(2) 0.472(2) 0.837(2)
C63? C 0.1447(5) 0.2535(5) 1.0965(10)
H70? H 0.1767 0.2867 1.0933
C64? C 0.1344(6) 0.2224(5) 1.1968(14)
H71? H 0.1582 0.2356 1.2617
C65? C 0.0895(6) 0.1719(5) 1.2027(12)
C66? C 0.0796(7) 0.1391(5) 1.3028(14)
H72? H 0.1033 0.1519 1.3677
C67? C 0.0356(5) 0.0889(6) 1.3066(14)
H73? H 0.0292 0.0677 1.3748
C68? C 0.0001(5) 0.0685(5) 1.2110(13)
C69? C -0.0452(6) 0.0177(6) 1.2164(19)
H74? H -0.0522 -0.0036 1.2848
C70? C -0.0801(8) -0.0014(8) 1.1195(19)
H75? H -0.1092 -0.0367 1.1212
C71? C -0.0729(6) 0.0301(6) 1.0215(19)
H76? H -0.0972 0.0170 0.9577
C72? C -0.0285(5) 0.0821(5) 1.0188(13)
C73? C -0.0191(5) 0.1154(5) 0.9215(14)
H77? H -0.0443 0.1038 0.8594
C74? C 0.0261(4) 0.1647(5) 0.9143(12)
H78? H 0.0321 0.1849 0.8446
C75? C 0.0639(4) 0.1864(4) 1.0061(10)
C76? C 0.0537(4) 0.1532(4) 1.1060(10)
C77? C 0.0088(4) 0.1018(5) 1.1126(12)
H79? H 0.0157 0.1987 1.1959
loop_
_geom_bond_atom_site_label_1
_geom_bond_atom_site_label_2
_geom_bond_site_symmetry_1
_geom_bond_site_symmetry_2
C1 H1 1_555 1_555
H2 C1 1_555 1_555
C2 C1 1_555 1_555
H3 C2 1_555 1_555
H4 C2 1_555 1_555
C3 C2 1_555 1_555
H5 C3 1_555 1_555
C4 C3 1_555 1_555
H6 C4 1_555 1_555
H7 C4 1_555 1_555
C5 C4 1_555 1_555
H8 C5 1_555 1_555
C6 C5 1_555 1_555
H9 C6 1_555 1_555
H10 C6 1_555 1_555
C7 C6 1_555 1_555
H11 C7 1_555 1_555
C8 C7 1_555 1_555
H12 C8 1_555 1_555
C9 C1 1_555 1_555
C10 C8 1_555 1_555
H13 C10 1_555 1_555
C11 C10 1_555 1_555
H14 C11 1_555 1_555
H15 C11 1_555 1_555
C12 C11 1_555 1_555
H16 C12 1_555 1_555
C13 C12 1_555 1_555
C14 C8 1_555 1_555
H17 C14 1_555 1_555
C15 C14 1_555 1_555
H18 C15 1_555 1_555
H19 C15 1_555 1_555
C16 C15 1_555 1_555
H20 C16 1_555 1_555
H21 C16 1_555 1_555
C17 C13 1_555 1_555
H22 C17 1_555 1_555
C18 C9 1_555 1_555
H23 C18 1_555 1_555
H24 C18 1_555 1_555
H25 C18 1_555 1_555
C19 C13 1_555 1_555
H26 C19 1_555 1_555
H27 C19 1_555 1_555
H28 C19 1_555 1_555
C20 C17 1_555 1_555
H29 C20 1_555 1_555
C21 C20 1_555 1_555
H30 C21 1_555 1_555
H31 C21 1_555 1_555
H32 C21 1_555 1_555
C22 C20 1_555 1_555
H33 C22 1_555 1_555
H34 C22 1_555 1_555
C23 C22 1_555 1_555
H35 C23 1_555 1_555
H36 C23 1_555 1_555
C24 C23 1_555 1_555
C25 N1 1_555 1_555
C26 N3 1_555 1_555
C27 N5 1_555 1_555
C28 C29 1_555 1_555
C29 H37 1_555 1_555
C30 C29 1_555 1_555
H38 C30 1_555 1_555
C31 C30 1_555 1_555
H39 C31 1_555 1_555
C32 C31 1_555 1_555
H40 C32 1_555 1_555
C33 C28 1_555 1_555
H41 C33 1_555 1_555
C34 C35 1_555 1_555
C35 H42 1_555 1_555
C36 C35 1_555 1_555
H43 C36 1_555 1_555
C37 C36 1_555 1_555
H44 C37 1_555 1_555
C38 C37 1_555 1_555
H45 C38 1_555 1_555
C39 C34 1_555 1_555
H46 C39 1_555 1_555
C40 C41 1_555 1_555
C41 H47 1_555 1_555
C42 C41 1_555 1_555
H48 C42 1_555 1_555
C43 C42 1_555 1_555
H49 C43 1_555 1_555
C44 C43 1_555 1_555
H50 C44 1_555 1_555
C45 C40 1_555 1_555
H51 C45 1_555 1_555
O1 C24 1_555 1_555
C46 O1 1_555 1_555
H52 C46 1_555 1_555
H53 C46 1_555 1_555
C47 C46 1_555 1_555
C48 C47 1_555 1_555
H54 C48 1_555 1_555
C49 C48 1_555 1_555
C50 C49 1_555 1_555
C51 C50 1_555 1_555
H55 C51 1_555 1_555
C52 C51 1_555 1_555
H56 C52 1_555 1_555
C53 C52 1_555 1_555
C54 C53 1_555 1_555
H57 C54 1_555 1_555
C55 C54 1_555 1_555
H58 C55 1_555 1_555
C56 C55 1_555 1_555
H59 C56 1_555 1_555
C57 C56 1_555 1_555
C58 C57 1_555 1_555
H60 C58 1_555 1_555
C59 C58 1_555 1_555
H61 C59 1_555 1_555
C60 C47 1_555 1_555
C61 C50 1_555 1_555
C62 C53 1_555 1_555
N1 C3 1_555 1_555
H62 N1 1_555 1_555
N2 C25 1_555 1_555
H63 N2 1_555 1_555
N3 C7 1_555 1_555
H64 N3 1_555 1_555
N4 C26 1_555 1_555
H65 N4 1_555 1_555
N5 C12 1_555 1_555
H66 N5 1_555 1_555
N6 C27 1_555 1_555
H67 N6 1_555 1_555
O2 C24 1_555 1_555
O3 C25 1_555 1_555
O4 C26 1_555 1_555
O5 C27 1_555 1_555
O6 H68 1_555 1_555
H69 O6 1_555 1_555
C5 C9 1_555 1_555
C9 C10 1_555 1_555
C13 C14 1_555 1_555
C16 C17 1_555 1_555
C28 N2 1_555 1_555
C32 C33 1_555 1_555
C34 N4 1_555 1_555
C38 C39 1_555 1_555
C40 N6 1_555 1_555
C44 C45 1_555 1_555
C57 C62 1_555 1_555
C59 C60 1_555 1_555
C60 C61 1_555 1_555
C61 C62 1_555 1_555

#END
