
#######################################################################
#
#                 Cambridge Crystallographic Data Centre
#                                CCDC 
#
#######################################################################
#
# If this CIF has been generated from an entry in the Cambridge 
# Structural Database, then it will include bibliographic, chemical, 
# crystal, experimental, refinement or atomic coordinate data resulting 
# from the CCDC's data processing and validation procedures.
#
#######################################################################

data_SIMPEM
_chemical_formula_moiety         'C45 H58 N6 O5,H2 O1'
_chemical_name_systematic        
'3,7,12-tris((phenylcarbamoyl)amino)cholan-24-oic acid unknown solvate monohydrate'
_symmetry_cell_setting           hexagonal
_symmetry_space_group_name_H-M   'P 61'
_symmetry_Int_Tables_number      169
_space_group_name_Hall           'P 61'
loop_
_symmetry_equiv_pos_site_id
_symmetry_equiv_pos_as_xyz
1 x,y,z
2 -y,x-y,1/3+z
3 -x+y,-x,2/3+z
4 -x,-y,1/2+z
5 y,-x+y,5/6+z
6 x-y,x,1/6+z
_cell_length_a                   29.4818(11)
_cell_length_b                   29.4818(11)
_cell_length_c                   11.4124(4)
_cell_angle_alpha                90
_cell_angle_beta                 90
_cell_angle_gamma                120
_cell_volume                     8590.44
_cell_formula_units_Z            6
_exptl_crystal_recrystallization_method 'methyl acetate/water (99:1)'
loop_
_atom_site_label
_atom_site_type_symbol
_atom_site_fract_x
_atom_site_fract_y
_atom_site_fract_z
C1 C 0.4556(4) 0.8637(4) 1.3103(8)
H1 H 0.4425 0.8354 1.3697
H2 H 0.4761 0.8974 1.3520
C2 C 0.4092(5) 0.8628(5) 1.2517(10)
H3 H 0.4215 0.8921 1.1950
H4 H 0.3873 0.8673 1.3113
C3 C 0.3767(4) 0.8105(4) 1.1881(9)
H5 H 0.3668 0.7826 1.2486
C4 C 0.4101(4) 0.8025(4) 1.0985(9)
H6 H 0.3885 0.7684 1.0588
H7 H 0.4222 0.8303 1.0384
C5 C 0.4573(4) 0.8035(4) 1.1545(8)
H8 H 0.4438 0.7741 1.2124
C6 C 0.4916(4) 0.7949(4) 1.0677(9)
H9 H 0.5155 0.7870 1.1129
H10 H 0.4687 0.7635 1.0204
C7 C 0.5244(4) 0.8392(4) 0.9847(9)
H11 H 0.5503 0.8314 0.9467
C8 C 0.5558(4) 0.8929(4) 1.0506(9)
C9 C 0.4931(4) 0.8565(4) 1.2251(8)
C10 C 0.5202(4) 0.9011(4) 1.1373(9)
H12 H 0.4920 0.9016 1.0897
C11 C 0.5507(5) 0.9547(4) 1.1967(8)
H13 H 0.5763 0.9540 1.2518
H14 H 0.5260 0.9609 1.2432
C12 C 0.5804(4) 1.0010(4) 1.1099(9)
H15 H 0.6016 1.0338 1.1561
C13 C 0.6178(4) 0.9922(4) 1.0299(9)
C14 C 0.5845(4) 0.9377(4) 0.9689(8)
H16 H 0.5576 0.9400 0.9197
C15 C 0.6230(5) 0.9352(5) 0.8864(10)
H17 H 0.6047 0.9108 0.8209
H18 H 0.6451 0.9238 0.9278
C16 C 0.6567(5) 0.9927(5) 0.8408(11)
H19 H 0.6482 0.9949 0.7578
H20 H 0.6944 1.0043 0.8467
C17 C 0.6431(5) 1.0290(4) 0.9206(10)
H21 H 0.6150 1.0326 0.8802
C18 C 0.5324(5) 0.8502(4) 1.3029(9)
H22 H 0.5565 0.8449 1.2532
H23 H 0.5133 0.8199 1.3545
H24 H 0.5523 0.8819 1.3504
C19 C 0.6601(4) 0.9934(4) 1.1111(10)
H25 H 0.6747 1.0249 1.1601
H26 H 0.6880 0.9938 1.0638
H27 H 0.6444 0.9623 1.1613
C20 C 0.6887(5) 1.0823(5) 0.9381(11)
H28 H 0.7180 1.0793 0.9744
C21 C 0.6749(5) 1.1162(5) 1.0185(12)
H29 H 0.6495 1.1231 0.9789
H30 H 0.7068 1.1495 1.0354
H31 H 0.6599 1.0975 1.0920
C22 C 0.7070(6) 1.1095(5) 0.8125(16)
H32 H 0.7116 1.0859 0.7582
H33 H 0.6799 1.1163 0.7795
C23 C 0.7587(11) 1.1610(6) 0.825(2)
H34 H 0.7699 1.1743 0.7446
H35 H 0.7499 1.1857 0.8638
C24 C 0.3250(5) 0.8324(4) 1.0504(9)
C25 C 0.4726(4) 0.8083(4) 0.8058(9)
C26 C 0.5187(4) 1.0339(4) 1.0766(9)
C27 C 0.2595(4) 0.8338(4) 0.9156(8)
C28 C 0.2306(5) 0.8031(5) 0.8238(12)
H36 H 0.2234 0.7679 0.8180
C29 C 0.2117(6) 0.8238(6) 0.7378(11)
H37 H 0.1896 0.8018 0.6771
C30 C 0.2247(5) 0.8744(5) 0.7414(12)
H38 H 0.2147 0.8891 0.6794
C31 C 0.2530(5) 0.9053(5) 0.8366(12)
H39 H 0.2602 0.9404 0.8414
C32 C 0.2710(5) 0.8857(5) 0.9247(11)
H40 H 0.2906 0.9069 0.9891
C33 C 0.4067(4) 0.7792(4) 0.6437(8)
C34 C 0.4108(5) 0.7371(5) 0.6027(11)
H41 H 0.4332 0.7272 0.6404
C35 C 0.3816(5) 0.7098(4) 0.5059(11)
H42 H 0.3862 0.6828 0.4731
C36 C 0.3457(5) 0.7215(4) 0.4560(10)
H43 H 0.3246 0.7014 0.3921
C37 C 0.3410(5) 0.7605(4) 0.4978(10)
H44 H 0.3163 0.7682 0.4631
C38 C 0.3712(5) 0.7910(4) 0.5914(11)
H45 H 0.3676 0.8195 0.6191
C39 C 0.4403(5) 1.0435(4) 1.0385(9)
C40 C 0.3898(5) 1.0157(5) 0.9912(10)
H46 H 0.3780 0.9823 0.9567
C41 C 0.3577(6) 1.0366(5) 0.9946(11)
H47 H 0.3238 1.0184 0.9605
C42 C 0.3752(6) 1.0850(6) 1.0488(11)
H48 H 0.3525 1.0992 1.0531
C43 C 0.4229(5) 1.1115(5) 1.0944(10)
H49 H 0.4341 1.1447 1.1296
C44 C 0.4570(5) 1.0916(4) 1.0914(9)
H50 H 0.4910 1.1106 1.1249
C45 C 0.8037(9) 1.1672(13) 0.883(3)
N1 N 0.3283(4) 0.8029(3) 1.1394(7)
H51 H 0.2988 0.7776 1.1687
N2 N 0.2745(3) 0.8119(3) 1.0048(8)
H52 H 0.2499 0.7824 1.0353
N3 N 0.4929(4) 0.8447(3) 0.8915(7)
H53 H 0.4874 0.8714 0.8917
N4 N 0.4359(4) 0.8119(3) 0.7367(7)
H54 H 0.4302 0.8378 0.7532
N5 N 0.5404(4) 1.0070(3) 1.0383(7)
H55 H 0.5314 0.9920 0.9690
N6 N 0.4727(4) 1.0200(3) 1.0241(7)
H56 H 0.4610 0.9934 0.9753
O1 O 0.8269(10) 1.1976(7) 0.9500(14)
O2 O 0.8126(10) 1.1351(17) 0.825(4)
O3 O 0.3612(3) 0.8743(3) 1.0161(6)
O4 O 0.4852(3) 0.7749(3) 0.7928(6)
O5 O 0.5387(3) 1.0682(3) 1.1543(6)
O6 O 0.4503(3) 0.9205(3) 0.8903(6)
loop_
_geom_bond_atom_site_label_1
_geom_bond_atom_site_label_2
_geom_bond_site_symmetry_1
_geom_bond_site_symmetry_2
C1 H1 1_555 1_555
H2 C1 1_555 1_555
C2 C1 1_555 1_555
H3 C2 1_555 1_555
H4 C2 1_555 1_555
C3 C2 1_555 1_555
H5 C3 1_555 1_555
C4 C3 1_555 1_555
H6 C4 1_555 1_555
H7 C4 1_555 1_555
C5 C4 1_555 1_555
H8 C5 1_555 1_555
C6 C5 1_555 1_555
H9 C6 1_555 1_555
H10 C6 1_555 1_555
C7 C6 1_555 1_555
H11 C7 1_555 1_555
C8 C7 1_555 1_555
C9 C1 1_555 1_555
C10 C8 1_555 1_555
H12 C10 1_555 1_555
C11 C10 1_555 1_555
H13 C11 1_555 1_555
H14 C11 1_555 1_555
C12 C11 1_555 1_555
H15 C12 1_555 1_555
C13 C12 1_555 1_555
C14 C8 1_555 1_555
H16 C14 1_555 1_555
C15 C14 1_555 1_555
H17 C15 1_555 1_555
H18 C15 1_555 1_555
C16 C15 1_555 1_555
H19 C16 1_555 1_555
H20 C16 1_555 1_555
C17 C13 1_555 1_555
H21 C17 1_555 1_555
C18 C9 1_555 1_555
H22 C18 1_555 1_555
H23 C18 1_555 1_555
H24 C18 1_555 1_555
C19 C13 1_555 1_555
H25 C19 1_555 1_555
H26 C19 1_555 1_555
H27 C19 1_555 1_555
C20 C17 1_555 1_555
H28 C20 1_555 1_555
C21 C20 1_555 1_555
H29 C21 1_555 1_555
H30 C21 1_555 1_555
H31 C21 1_555 1_555
C22 C20 1_555 1_555
H32 C22 1_555 1_555
H33 C22 1_555 1_555
C23 C22 1_555 1_555
H34 C23 1_555 1_555
H35 C23 1_555 1_555
C24 N1 1_555 1_555
C25 N3 1_555 1_555
C26 N5 1_555 1_555
C27 C28 1_555 1_555
C28 H36 1_555 1_555
C29 C28 1_555 1_555
H37 C29 1_555 1_555
C30 C29 1_555 1_555
H38 C30 1_555 1_555
C31 C30 1_555 1_555
H39 C31 1_555 1_555
C32 C27 1_555 1_555
H40 C32 1_555 1_555
C33 C34 1_555 1_555
C34 H41 1_555 1_555
C35 C34 1_555 1_555
H42 C35 1_555 1_555
C36 C35 1_555 1_555
H43 C36 1_555 1_555
C37 C36 1_555 1_555
H44 C37 1_555 1_555
C38 C33 1_555 1_555
H45 C38 1_555 1_555
C39 C40 1_555 1_555
C40 H46 1_555 1_555
C41 C40 1_555 1_555
H47 C41 1_555 1_555
C42 C41 1_555 1_555
H48 C42 1_555 1_555
C43 C42 1_555 1_555
H49 C43 1_555 1_555
C44 C39 1_555 1_555
H50 C44 1_555 1_555
C45 C23 1_555 1_555
N1 C3 1_555 1_555
H51 N1 1_555 1_555
N2 C24 1_555 1_555
H52 N2 1_555 1_555
N3 C7 1_555 1_555
H53 N3 1_555 1_555
N4 C25 1_555 1_555
H54 N4 1_555 1_555
N5 C12 1_555 1_555
H55 N5 1_555 1_555
N6 C26 1_555 1_555
H56 N6 1_555 1_555
O1 C45 1_555 1_555
O2 C45 1_555 1_555
O3 C24 1_555 1_555
O4 C25 1_555 1_555
O5 C26 1_555 1_555
C5 C9 1_555 1_555
C9 C10 1_555 1_555
C13 C14 1_555 1_555
C16 C17 1_555 1_555
C27 N2 1_555 1_555
C31 C32 1_555 1_555
C33 N4 1_555 1_555
C37 C38 1_555 1_555
C39 N6 1_555 1_555
C43 C44 1_555 1_555

#END
