
#######################################################################
#
#                 Cambridge Crystallographic Data Centre
#                                CCDC 
#
#######################################################################
#
# If this CIF has been generated from an entry in the Cambridge 
# Structural Database, then it will include bibliographic, chemical, 
# crystal, experimental, refinement or atomic coordinate data resulting 
# from the CCDC's data processing and validation procedures.
#
#######################################################################

data_SIMQAJ
_chemical_formula_moiety         'C56 H66 N6 O5,H2 O1'
_chemical_name_systematic        
'(naphthalen-2-yl)methyl 3,7,12-tris[(phenylcarbamoyl)amino]cholan-24-oate monohydrate'
_symmetry_cell_setting           hexagonal
_symmetry_space_group_name_H-M   'P 61'
_symmetry_Int_Tables_number      169
_space_group_name_Hall           'P 61'
loop_
_symmetry_equiv_pos_site_id
_symmetry_equiv_pos_as_xyz
1 x,y,z
2 -y,x-y,1/3+z
3 -x+y,-x,2/3+z
4 -x,-y,1/2+z
5 y,-x+y,5/6+z
6 x-y,x,1/6+z
_cell_length_a                   28.9274(6)
_cell_length_b                   28.9274(6)
_cell_length_c                   11.4568(2)
_cell_angle_alpha                90
_cell_angle_beta                 90
_cell_angle_gamma                120
_cell_volume                     8302.57
_exptl_crystal_colour            colorless
_exptl_crystal_description       needle
_cell_formula_units_Z            6
loop_
_atom_site_label
_atom_site_type_symbol
_atom_site_fract_x
_atom_site_fract_y
_atom_site_fract_z
C1 C 0.4115(2) 0.5418(2) 0.5883(5)
H1 H 0.3978 0.5557 0.6499
H2 H 0.4243 0.5196 0.6269
C2 C 0.4590(2) 0.5891(2) 0.5279(5)
H3 H 0.4868 0.6107 0.5862
H4 H 0.4749 0.5758 0.4695
C3 C 0.4393(2) 0.6234(2) 0.4676(5)
H5 H 0.4220 0.6338 0.5299
C4 C 0.3954(2) 0.5901(2) 0.3794(5)
H6 H 0.4103 0.5776 0.3172
H7 H 0.3827 0.6127 0.3427
C5 C 0.3480(2) 0.5415(2) 0.4374(5)
H8 H 0.3328 0.5558 0.4963
C6 C 0.3030(2) 0.5084(2) 0.3500(5)
H9 H 0.2701 0.4849 0.3944
H10 H 0.2960 0.5331 0.3034
C7 C 0.3141(2) 0.4740(2) 0.2660(4)
H11 H 0.2795 0.4483 0.2278
C8 C 0.33399(19) 0.44073(19) 0.3323(5)
H12 H 0.3037 0.4141 0.3813
C9 C 0.3647(2) 0.5056(2) 0.5047(5)
C10 C 0.38086(19) 0.47582(19) 0.4155(5)
H13 H 0.4102 0.5036 0.3664
C11 C 0.4027(2) 0.4424(2) 0.4722(5)
H14 H 0.3753 0.4161 0.5258
H15 H 0.4345 0.4663 0.5195
C12 C 0.4182(2) 0.41233(19) 0.3835(5)
H16 H 0.4297 0.3899 0.4274
C13 C 0.3695(2) 0.37524(19) 0.3068(5)
C14 C 0.3488(2) 0.4096(2) 0.2475(4)
H17 H 0.3786 0.4366 0.1981
C15 C 0.3060(2) 0.3710(2) 0.1645(5)
H18 H 0.3001 0.3902 0.1001
H19 H 0.2718 0.3488 0.2060
C16 C 0.3292(2) 0.3367(2) 0.1185(5)
H20 H 0.3402 0.3456 0.0360
H21 H 0.3021 0.2983 0.1234
C17 C 0.3786(2) 0.3493(2) 0.1965(5)
H22 H 0.4111 0.3775 0.1559
C18 C 0.3190(2) 0.4666(2) 0.5835(5)
H23 H 0.2878 0.4435 0.5355
H24 H 0.3097 0.4866 0.6385
H25 H 0.3302 0.4447 0.6270
C19 C 0.3267(2) 0.3313(2) 0.3847(5)
H26 H 0.3127 0.3473 0.4398
H27 H 0.3425 0.3135 0.4281
H28 H 0.2974 0.3051 0.3359
C20 C 0.3853(2) 0.3001(2) 0.2097(5)
H29 H 0.3520 0.2708 0.2458
C21 C 0.4331(2) 0.3115(2) 0.2907(6)
H30 H 0.4388 0.2809 0.2896
H31 H 0.4252 0.3176 0.3706
H32 H 0.4654 0.3433 0.2629
C22 C 0.3916(3) 0.2816(2) 0.0882(6)
H33 H 0.3605 0.2753 0.0400
H34 H 0.4239 0.3109 0.0511
C23 C 0.3960(3) 0.2314(3) 0.0858(8)
H35 H 0.3970 0.2217 0.0033
H36 H 0.4303 0.2396 0.1221
C24 C 0.3527(5) 0.1849(4) 0.1454(9)
C25 C 0.5146(2) 0.6775(2) 0.3294(5)
C26 C 0.33521(19) 0.52716(19) 0.0886(5)
C27 C 0.5135(2) 0.4762(2) 0.3568(5)
C28 C 0.5822(2) 0.7446(2) 0.1971(5)
C29 C 0.5799(3) 0.7729(3) 0.1017(6)
H37 H 0.5506 0.7789 0.0934
C30 C 0.6197(3) 0.7924(3) 0.0190(6)
H38 H 0.6177 0.8120 -0.0454
C31 C 0.6623(3) 0.7839(3) 0.0282(6)
H39 H 0.6893 0.7970 -0.0301
C32 C 0.6655(3) 0.7555(3) 0.1254(7)
H40 H 0.6950 0.7499 0.1339
C33 C 0.6252(2) 0.7360(2) 0.2080(6)
H41 H 0.6269 0.7165 0.2730
C34 C 0.3723(2) 0.59334(19) -0.0753(5)
C35 C 0.3245(2) 0.5892(2) -0.1156(6)
H42 H 0.2917 0.5663 -0.0777
C36 C 0.3262(2) 0.6194(3) -0.2127(6)
H43 H 0.2939 0.6160 -0.2414
C37 C 0.3738(3) 0.6540(2) -0.2681(5)
H44 H 0.3743 0.6746 -0.3332
C38 C 0.4200(2) 0.6579(2) -0.2267(5)
H45 H 0.4530 0.6817 -0.2634
C39 C 0.4197(2) 0.6277(2) -0.1323(5)
H46 H 0.4522 0.6306 -0.1062
C40 C 0.6020(2) 0.5584(2) 0.3209(5)
C41 C 0.6239(2) 0.6104(2) 0.2770(5)
H47 H 0.6014 0.6223 0.2448
C42 C 0.6786(2) 0.6443(2) 0.2808(6)
H48 H 0.6936 0.6790 0.2479
C43 C 0.7117(2) 0.6283(2) 0.3317(6)
H49 H 0.7491 0.6522 0.3356
C44 C 0.6897(2) 0.5770(2) 0.3773(5)
H50 H 0.7121 0.5656 0.4121
C45 C 0.6350(2) 0.5425(2) 0.3720(5)
H51 H 0.6202 0.5076 0.4038
C46 C 0.2541(13) 0.1284(14) 0.128(3)
H52 H 0.2512 0.1253 0.2144
H53 H 0.2480 0.0940 0.0962
C47 C 0.1157(6) 0.1039(5) 0.0362(16)
H54 H 0.0805 0.0740 0.0346
C48 C 0.1580(7) 0.0980(5) 0.0746(15)
H55 H 0.1518 0.0640 0.0992
C49 C 0.2094(6) 0.1418(6) 0.0770(14)
C50 C 0.2184(5) 0.1915(5) 0.0409(14)
H56 H 0.2535 0.2215 0.0425
C51 C 0.1761(4) 0.1975(4) 0.0026(10)
C52 C 0.1247(4) 0.1537(5) 0.0002(12)
C53 C 0.0824(5) 0.1596(7) -0.0382(18)
H57 H 0.0473 0.1297 -0.0398
C54 C 0.0915(7) 0.2093(8) -0.0742(19)
H58 H 0.0625 0.2134 -0.1004
C55 C 0.1428(8) 0.2531(7) -0.0718(17)
H59 H 0.1490 0.2871 -0.0965
C56 C 0.1852(6) 0.2472(5) -0.0335(15)
H60 H 0.2203 0.2771 -0.0319
N1 N 0.48157(18) 0.67324(18) 0.4186(4)
H61 H 0.480(3) 0.7029(16) 0.422(6)
N2 N 0.5431(2) 0.72836(19) 0.2848(5)
H62 H 0.539(3) 0.7557(19) 0.291(6)
N3 N 0.35140(16) 0.50589(17) 0.1737(4)
H63 H 0.3849(13) 0.515(2) 0.186(6)
N4 N 0.37586(16) 0.56544(17) 0.0211(4)
H64 H 0.4082(13) 0.573(2) 0.032(6)
N5 N 0.46317(17) 0.45095(18) 0.3118(4)
H65 H 0.460(2) 0.4753(19) 0.275(5)
N6 N 0.54621(17) 0.52475(17) 0.3070(4)
H66 H 0.531(2) 0.541(2) 0.270(5)
O1 O 0.52047(16) 0.64056(15) 0.2935(4)
O2 O 0.28785(14) 0.51357(15) 0.0727(3)
O3 O 0.52800(15) 0.45615(15) 0.4344(3)
O4 O 0.3582(4) 0.1613(3) 0.2250(7)
O5 O 0.3067(3) 0.1709(4) 0.0955(8)
O6 O 0.52917(15) 0.45146(15) 0.6714(3)
H67 H 0.521(3) 0.452(3) 0.602(3)
H68 H 0.513(2) 0.4196(14) 0.696(6)
C57? C 0.2762(17) 0.1107(17) 0.154(4)
H69? H 0.3018 0.0991 0.1764
H70? H 0.2490 0.0841 0.1004
C58? C 0.1976(11) 0.1503(12) 0.384(3)
H71? H 0.1796 0.1700 0.3911
C59? C 0.2220(12) 0.1504(12) 0.280(3)
H72? H 0.2206 0.1702 0.2149
C60? C 0.2483(11) 0.1215(12) 0.270(3)
C61? C 0.2504(12) 0.0925(12) 0.364(3)
H73? H 0.2684 0.0728 0.3574
C62? C 0.2260(10) 0.0924(10) 0.469(3)
C63? C 0.1996(9) 0.1213(11) 0.479(3)
C64? C 0.1753(12) 0.1212(16) 0.584(3)
H74? H 0.1572 0.1409 0.5904
C65? C 0.1773(15) 0.0922(18) 0.678(3)
H75? H 0.1607 0.0921 0.7498
C66? C 0.2037(18) 0.0633(16) 0.668(3)
H76? H 0.2051 0.0435 0.7329
C67? C 0.2281(16) 0.0634(13) 0.564(3)
H77? H 0.2461 0.0437 0.5567
loop_
_geom_bond_atom_site_label_1
_geom_bond_atom_site_label_2
_geom_bond_site_symmetry_1
_geom_bond_site_symmetry_2
C1 H1 1_555 1_555
H2 C1 1_555 1_555
C2 C1 1_555 1_555
H3 C2 1_555 1_555
H4 C2 1_555 1_555
C3 C2 1_555 1_555
H5 C3 1_555 1_555
C4 C3 1_555 1_555
H6 C4 1_555 1_555
H7 C4 1_555 1_555
C5 C4 1_555 1_555
H8 C5 1_555 1_555
C6 C5 1_555 1_555
H9 C6 1_555 1_555
H10 C6 1_555 1_555
C7 C6 1_555 1_555
H11 C7 1_555 1_555
C8 C7 1_555 1_555
H12 C8 1_555 1_555
C9 C1 1_555 1_555
C10 C8 1_555 1_555
H13 C10 1_555 1_555
C11 C10 1_555 1_555
H14 C11 1_555 1_555
H15 C11 1_555 1_555
C12 C11 1_555 1_555
H16 C12 1_555 1_555
C13 C12 1_555 1_555
C14 C8 1_555 1_555
H17 C14 1_555 1_555
C15 C14 1_555 1_555
H18 C15 1_555 1_555
H19 C15 1_555 1_555
C16 C15 1_555 1_555
H20 C16 1_555 1_555
H21 C16 1_555 1_555
C17 C13 1_555 1_555
H22 C17 1_555 1_555
C18 C9 1_555 1_555
H23 C18 1_555 1_555
H24 C18 1_555 1_555
H25 C18 1_555 1_555
C19 C13 1_555 1_555
H26 C19 1_555 1_555
H27 C19 1_555 1_555
H28 C19 1_555 1_555
C20 C17 1_555 1_555
H29 C20 1_555 1_555
C21 C20 1_555 1_555
H30 C21 1_555 1_555
H31 C21 1_555 1_555
H32 C21 1_555 1_555
C22 C20 1_555 1_555
H33 C22 1_555 1_555
H34 C22 1_555 1_555
C23 C22 1_555 1_555
H35 C23 1_555 1_555
H36 C23 1_555 1_555
C24 C23 1_555 1_555
C25 N1 1_555 1_555
C26 N3 1_555 1_555
C27 N5 1_555 1_555
C28 C29 1_555 1_555
C29 H37 1_555 1_555
C30 C29 1_555 1_555
H38 C30 1_555 1_555
C31 C30 1_555 1_555
H39 C31 1_555 1_555
C32 C31 1_555 1_555
H40 C32 1_555 1_555
C33 C28 1_555 1_555
H41 C33 1_555 1_555
C34 C35 1_555 1_555
C35 H42 1_555 1_555
C36 C35 1_555 1_555
H43 C36 1_555 1_555
C37 C36 1_555 1_555
H44 C37 1_555 1_555
C38 C37 1_555 1_555
H45 C38 1_555 1_555
C39 C34 1_555 1_555
H46 C39 1_555 1_555
C40 C41 1_555 1_555
C41 H47 1_555 1_555
C42 C41 1_555 1_555
H48 C42 1_555 1_555
C43 C42 1_555 1_555
H49 C43 1_555 1_555
C44 C43 1_555 1_555
H50 C44 1_555 1_555
C45 C40 1_555 1_555
H51 C45 1_555 1_555
C46 H52 1_555 1_555
H53 C46 1_555 1_555
C47 H54 1_555 1_555
C48 C47 1_555 1_555
H55 C48 1_555 1_555
C49 C46 1_555 1_555
C50 C49 1_555 1_555
H56 C50 1_555 1_555
C51 C50 1_555 1_555
C52 C47 1_555 1_555
C53 C52 1_555 1_555
H57 C53 1_555 1_555
C54 C53 1_555 1_555
H58 C54 1_555 1_555
C55 C54 1_555 1_555
H59 C55 1_555 1_555
C56 C51 1_555 1_555
H60 C56 1_555 1_555
N1 C3 1_555 1_555
H61 N1 1_555 1_555
N2 C25 1_555 1_555
H62 N2 1_555 1_555
N3 C7 1_555 1_555
H63 N3 1_555 1_555
N4 C26 1_555 1_555
H64 N4 1_555 1_555
N5 C12 1_555 1_555
H65 N5 1_555 1_555
N6 C27 1_555 1_555
H66 N6 1_555 1_555
O1 C25 1_555 1_555
O2 C26 1_555 1_555
O3 C27 1_555 1_555
O4 C24 1_555 1_555
O5 C24 1_555 1_555
O6 H67 1_555 1_555
H68 O6 1_555 1_555
C5 C9 1_555 1_555
C9 C10 1_555 1_555
C13 C14 1_555 1_555
C16 C17 1_555 1_555
C28 N2 1_555 1_555
C32 C33 1_555 1_555
C34 N4 1_555 1_555
C38 C39 1_555 1_555
C40 N6 1_555 1_555
C44 C45 1_555 1_555
C46 O5 1_555 1_555
C48 C49 1_555 1_555
C51 C52 1_555 1_555
C55 C56 1_555 1_555

#END
