
#######################################################################
#
#                 Cambridge Crystallographic Data Centre
#                                CCDC 
#
#######################################################################
#
# If this CIF has been generated from an entry in the Cambridge 
# Structural Database, then it will include bibliographic, chemical, 
# crystal, experimental, refinement or atomic coordinate data resulting 
# from the CCDC's data processing and validation procedures.
#
#######################################################################

data_SIMQEN
_chemical_formula_moiety         'C53 H66 N6 O5,H2 O1'
_chemical_name_systematic        
'2-phenylethyl 3,7,12-tris((phenylcarbamoyl)amino)cholan-24-oate unknown solvate monohydrate'
_symmetry_cell_setting           hexagonal
_symmetry_space_group_name_H-M   'P 61'
_symmetry_Int_Tables_number      169
_space_group_name_Hall           'P 61'
loop_
_symmetry_equiv_pos_site_id
_symmetry_equiv_pos_as_xyz
1 x,y,z
2 -y,x-y,1/3+z
3 -x+y,-x,2/3+z
4 -x,-y,1/2+z
5 y,-x+y,5/6+z
6 x-y,x,1/6+z
_cell_length_a                   28.6821(17)
_cell_length_b                   28.6821(17)
_cell_length_c                   11.3981(8)
_cell_angle_alpha                90
_cell_angle_beta                 90
_cell_angle_gamma                120
_cell_volume                     8120.54
_exptl_crystal_colour            colorless
_exptl_crystal_description       needle
_cell_formula_units_Z            6
loop_
_atom_site_label
_atom_site_type_symbol
_atom_site_fract_x
_atom_site_fract_y
_atom_site_fract_z
C1 C 0.12946(12) 0.54287(11) -0.2718(3)
H1 H 0.1572 0.5571 -0.3341
H2 H 0.0941 0.5207 -0.3103
C2 C 0.12954(12) 0.58966(12) -0.2110(3)
H3 H 0.1003 0.5761 -0.1521
H4 H 0.1232 0.6116 -0.2690
C3 C 0.18377(12) 0.62414(11) -0.1509(2)
H5 H 0.2117 0.6347 -0.2134
C4 C 0.19403(11) 0.59034(11) -0.0633(3)
H6 H 0.1663 0.5778 -0.0009
H7 H 0.2296 0.6130 -0.0261
C5 C 0.19283(11) 0.54155(11) -0.1211(2)
H8 H 0.2226 0.5562 -0.1802
C6 C 0.20509(11) 0.50839(12) -0.0355(2)
H9 H 0.2371 0.5331 0.0115
H10 H 0.2145 0.4848 -0.0809
C7 C 0.15888(11) 0.47333(11) 0.0486(2)
H11 H 0.1677 0.4472 0.0864
C8 C 0.10588(11) 0.44062(11) -0.0174(2)
H12 H 0.1095 0.4139 -0.0671
C9 C 0.14023(11) 0.50622(11) -0.1899(2)
C10 C 0.09370(10) 0.47568(11) -0.1004(2)
H13 H 0.0925 0.5037 -0.0505
C11 C 0.03764(11) 0.44273(12) -0.1570(2)
H14 H 0.0298 0.4673 -0.2030
H15 H 0.0382 0.4164 -0.2121
C12 C -0.00766(11) 0.41257(11) -0.0681(2)
H16 H -0.0420 0.3901 -0.1120
C13 C 0.00394(11) 0.37502(11) 0.0073(3)
C14 C 0.05903(11) 0.40885(11) 0.0667(2)
H17 H 0.0562 0.4358 0.1174
C15 C 0.06308(13) 0.36916(12) 0.1487(3)
H18 H 0.0884 0.3881 0.2139
H19 H 0.0751 0.3470 0.1059
C16 C 0.00558(13) 0.33463(13) 0.1940(3)
H20 H 0.0034 0.3430 0.2775
H21 H -0.0059 0.2959 0.1875
C17 C -0.03149(12) 0.34793(12) 0.1173(3)
H22 H -0.0357 0.3762 0.1597
C18 C 0.14749(12) 0.46679(12) -0.2687(3)
H23 H 0.1781 0.4870 -0.3215
H24 H 0.1148 0.4455 -0.3151
H25 H 0.1543 0.4427 -0.2198
C19 C 0.00247(12) 0.33107(12) -0.0740(3)
H26 H -0.0316 0.3136 -0.1173
H27 H 0.0055 0.3042 -0.0265
H28 H 0.0326 0.3476 -0.1294
C20 C -0.08784(13) 0.29899(13) 0.1021(3)
H29 H -0.0838 0.2702 0.0622
C21 C -0.12385(13) 0.31097(13) 0.0264(3)
H30 H -0.1246 0.3424 0.0577
H31 H -0.1604 0.2798 0.0264
H32 H -0.1099 0.3185 -0.0540
C22 C 0.16237(11) 0.67875(11) -0.0132(3)
C23 C 0.19093(11) 0.52642(11) 0.2277(2)
C24 C -0.03844(11) 0.47760(11) -0.0413(2)
C25 C 0.16099(12) 0.74744(12) 0.1159(3)
C26 C 0.18927(14) 0.77345(15) 0.2158(3)
H33 H 0.2233 0.7765 0.2305
C27 C 0.16866(17) 0.79520(16) 0.2951(3)
H34 H 0.1885 0.8135 0.3632
C28 C 0.11943(16) 0.78999(16) 0.2741(4)
H35 H 0.1052 0.8053 0.3271
C29 C 0.09038(16) 0.76283(17) 0.1768(4)
H36 H 0.0557 0.7586 0.1639
C30 C 0.11118(14) 0.74163(15) 0.0975(4)
H37 H 0.0909 0.7230 0.0301
C31 C 0.22096(11) 0.59190(11) 0.3933(2)
C32 C 0.26414(13) 0.58708(14) 0.4334(3)
H38 H 0.2735 0.5634 0.3954
C33 C 0.29353(14) 0.61741(15) 0.5300(3)
H39 H 0.3225 0.6134 0.5587
C34 C 0.28170(12) 0.65269(12) 0.5844(3)
H40 H 0.3025 0.6734 0.6494
C35 C 0.23919(13) 0.65790(13) 0.5438(3)
H41 H 0.2305 0.6822 0.5813
C36 C 0.20905(12) 0.62790(12) 0.4487(3)
H42 H 0.1800 0.6319 0.4211
C37 C -0.04303(12) 0.56151(12) -0.0062(2)
C38 C -0.01347(12) 0.61266(13) 0.0391(3)
H43 H 0.0208 0.6240 0.0732
C39 C -0.03382(14) 0.64790(14) 0.0350(3)
H44 H -0.0135 0.6831 0.0671
C40 C -0.08318(14) 0.63169(14) -0.0154(3)
H45 H -0.0971 0.6556 -0.0183
C41 C -0.11224(13) 0.58078(15) -0.0613(3)
H46 H -0.1463 0.5696 -0.0962
C42 C -0.09267(13) 0.54554(14) -0.0574(3)
H47 H -0.1131 0.5104 -0.0897
O1 O -0.19832(15) 0.16605(17) 0.0777(3)
O2 O -0.1349(3) 0.1700(3) 0.1905(6)
C43 C -0.11193(16) 0.27785(15) 0.2250(4)
H48 H -0.0860 0.2711 0.2683
H49 H -0.1134 0.3075 0.2663
C44 C -0.1660(2) 0.2287(3) 0.2371(6)
H50 H -0.1717 0.2162 0.3196
H51 H -0.1943 0.2374 0.2164
C45 C -0.1702(3) 0.1859(3) 0.1602(6)
C46 C -0.1302(3) 0.1298(3) 0.1169(8)
H52 H -0.0954 0.1318 0.1340
H53 H -0.1300 0.1392 0.0332
C47 C -0.1755(3) 0.0725(3) 0.1370(10)
H54 H -0.1768 0.0635 0.2212
H55 H -0.2103 0.0700 0.1163
C48 C -0.1685(3) 0.0326(3) 0.0653(7)
C49 C -0.1409(4) 0.0084(3) 0.1114(7)
H56 H -0.1283 0.0155 0.1900
C50 C -0.1317(4) -0.0261(4) 0.0423(9)
H57 H -0.1129 -0.0427 0.0737
C51 C -0.1502(4) -0.0365(3) -0.0728(9)
H58 H -0.1439 -0.0601 -0.1201
C52 C -0.1778(4) -0.0123(4) -0.1189(7)
H59 H -0.1904 -0.0194 -0.1975
C53 C -0.1869(3) 0.0222(3) -0.0498(8)
H60 H -0.2058 0.0388 -0.0812
N1 N 0.19120(10) 0.67423(10) -0.1010(2)
H61 H 0.2227(9) 0.7008(10) -0.114(3)
N2 N 0.18493(10) 0.72945(10) 0.0320(3)
H62 H 0.2169(9) 0.7522(12) 0.013(3)
N3 N 0.15399(9) 0.50569(10) 0.1424(2)
H63 H 0.1411(12) 0.5269(11) 0.130(3)
N4 N 0.18872(10) 0.56425(10) 0.2958(2)
H64 H 0.1601(10) 0.5673(13) 0.281(3)
N5 N -0.01365(9) 0.45178(10) 0.0038(2)
H65 H 0.0115(11) 0.4734(11) 0.051(3)
N6 N -0.02163(10) 0.52694(10) 0.0087(2)
H66 H 0.0083(9) 0.5411(13) 0.049(3)
O3 O 0.11911(8) 0.64148(8) 0.02314(19)
O4 O 0.22465(8) 0.51213(8) 0.24227(18)
O5 O -0.07293(8) 0.45820(9) -0.11912(18)
O8 O 0.07708(9) 0.54893(9) 0.14434(18)
H80 H 0.0915(13) 0.5782(10) 0.110(3)
H81 H 0.0745(14) 0.5500(14) 0.2144(17)
O6? O -0.1034(5) 0.1810(4) 0.1954(11)
O7? O -0.1689(3) 0.1416(3) 0.0703(8)
H67? H -0.1255 0.3002 0.2614
H68? H -0.0855 0.2762 0.2781
C54? C -0.1611(5) 0.2178(6) 0.1917(17)
H69? H -0.1853 0.2036 0.2605
H70? H -0.1820 0.2216 0.1271
C55? C -0.1474(10) 0.1791(7) 0.1578(19)
C56? C -0.1504(5) 0.1054(6) 0.0389(14)
H71? H -0.1462 0.0883 0.1105
H72? H -0.1148 0.1256 0.0003
C57? C -0.1915(5) 0.0607(6) -0.0467(17)
H73? H -0.2279 0.0435 -0.0118
H74? H -0.1925 0.0775 -0.1217
C58? C -0.1773(5) 0.0213(4) -0.0686(9)
C59? C -0.1744(5) -0.0113(5) 0.0180(8)
H75? H -0.1824 -0.0075 0.0972
C60? C -0.1597(6) -0.0492(5) -0.0112(10)
H76? H -0.1577 -0.0715 0.0481
C61? C -0.1480(5) -0.0547(5) -0.1270(11)
H77? H -0.1380 -0.0806 -0.1469
C62? C -0.1510(6) -0.0221(5) -0.2136(8)
H78? H -0.1430 -0.0259 -0.2928
C63? C -0.1656(6) 0.0158(5) -0.1844(8)
H79? H -0.1677 0.0381 -0.2436
loop_
_geom_bond_atom_site_label_1
_geom_bond_atom_site_label_2
_geom_bond_site_symmetry_1
_geom_bond_site_symmetry_2
C1 H1 1_555 1_555
H2 C1 1_555 1_555
C2 C1 1_555 1_555
H3 C2 1_555 1_555
H4 C2 1_555 1_555
C3 C2 1_555 1_555
H5 C3 1_555 1_555
C4 C3 1_555 1_555
H6 C4 1_555 1_555
H7 C4 1_555 1_555
C5 C4 1_555 1_555
H8 C5 1_555 1_555
C6 C5 1_555 1_555
H9 C6 1_555 1_555
H10 C6 1_555 1_555
C7 C6 1_555 1_555
H11 C7 1_555 1_555
C8 C7 1_555 1_555
H12 C8 1_555 1_555
C9 C1 1_555 1_555
C10 C8 1_555 1_555
H13 C10 1_555 1_555
C11 C10 1_555 1_555
H14 C11 1_555 1_555
H15 C11 1_555 1_555
C12 C11 1_555 1_555
H16 C12 1_555 1_555
C13 C12 1_555 1_555
C14 C8 1_555 1_555
H17 C14 1_555 1_555
C15 C14 1_555 1_555
H18 C15 1_555 1_555
H19 C15 1_555 1_555
C16 C15 1_555 1_555
H20 C16 1_555 1_555
H21 C16 1_555 1_555
C17 C13 1_555 1_555
H22 C17 1_555 1_555
C18 C9 1_555 1_555
H23 C18 1_555 1_555
H24 C18 1_555 1_555
H25 C18 1_555 1_555
C19 C13 1_555 1_555
H26 C19 1_555 1_555
H27 C19 1_555 1_555
H28 C19 1_555 1_555
C20 C17 1_555 1_555
H29 C20 1_555 1_555
C21 C20 1_555 1_555
H30 C21 1_555 1_555
H31 C21 1_555 1_555
H32 C21 1_555 1_555
C22 N1 1_555 1_555
C23 N3 1_555 1_555
C24 N5 1_555 1_555
C25 C26 1_555 1_555
C26 H33 1_555 1_555
C27 C26 1_555 1_555
H34 C27 1_555 1_555
C28 C27 1_555 1_555
H35 C28 1_555 1_555
C29 C28 1_555 1_555
H36 C29 1_555 1_555
C30 C25 1_555 1_555
H37 C30 1_555 1_555
C31 C32 1_555 1_555
C32 H38 1_555 1_555
C33 C32 1_555 1_555
H39 C33 1_555 1_555
C34 C33 1_555 1_555
H40 C34 1_555 1_555
C35 C34 1_555 1_555
H41 C35 1_555 1_555
C36 C31 1_555 1_555
H42 C36 1_555 1_555
C37 C38 1_555 1_555
C38 H43 1_555 1_555
C39 C38 1_555 1_555
H44 C39 1_555 1_555
C40 C39 1_555 1_555
H45 C40 1_555 1_555
C41 C40 1_555 1_555
H46 C41 1_555 1_555
C42 C37 1_555 1_555
H47 C42 1_555 1_555
O1 C45 1_555 1_555
O2 C45 1_555 1_555
C43 C20 1_555 1_555
H48 C43 1_555 1_555
H49 C43 1_555 1_555
C44 C43 1_555 1_555
H50 C44 1_555 1_555
H51 C44 1_555 1_555
C45 C44 1_555 1_555
C46 O2 1_555 1_555
H52 C46 1_555 1_555
H53 C46 1_555 1_555
C47 C46 1_555 1_555
H54 C47 1_555 1_555
H55 C47 1_555 1_555
C48 C47 1_555 1_555
C49 C48 1_555 1_555
H56 C49 1_555 1_555
C50 C49 1_555 1_555
H57 C50 1_555 1_555
C51 C50 1_555 1_555
H58 C51 1_555 1_555
C52 C51 1_555 1_555
H59 C52 1_555 1_555
C53 C48 1_555 1_555
H60 C53 1_555 1_555
N1 C3 1_555 1_555
H61 N1 1_555 1_555
N2 C22 1_555 1_555
H62 N2 1_555 1_555
N3 C7 1_555 1_555
H63 N3 1_555 1_555
N4 C23 1_555 1_555
H64 N4 1_555 1_555
N5 C12 1_555 1_555
H65 N5 1_555 1_555
N6 C24 1_555 1_555
H66 N6 1_555 1_555
O3 C22 1_555 1_555
O4 C23 1_555 1_555
O5 C24 1_555 1_555
O8 H80 1_555 1_555
H81 O8 1_555 1_555
C5 C9 1_555 1_555
C9 C10 1_555 1_555
C13 C14 1_555 1_555
C16 C17 1_555 1_555
C25 N2 1_555 1_555
C29 C30 1_555 1_555
C31 N4 1_555 1_555
C35 C36 1_555 1_555
C37 N6 1_555 1_555
C41 C42 1_555 1_555
C52 C53 1_555 1_555

#END
