
#######################################################################
#
#                 Cambridge Crystallographic Data Centre
#                                CCDC 
#
#######################################################################
#
# If this CIF has been generated from an entry in the Cambridge 
# Structural Database, then it will include bibliographic, chemical, 
# crystal, experimental, refinement or atomic coordinate data resulting 
# from the CCDC's data processing and validation procedures.
#
#######################################################################

data_SIMQOX
_chemical_formula_moiety         'C48 H58 F6 N6 O5,H2 O1'
_chemical_name_systematic        
'1,1,1,3,3,3-hexafluoropropan-2-yl 3,7,12-tris((phenylcarbamoyl)amino)cholan-24-oate unknown solvate monohydrate'
_symmetry_cell_setting           hexagonal
_symmetry_space_group_name_H-M   'P 61'
_symmetry_Int_Tables_number      169
_space_group_name_Hall           'P 61'
loop_
_symmetry_equiv_pos_site_id
_symmetry_equiv_pos_as_xyz
1 x,y,z
2 -y,x-y,1/3+z
3 -x+y,-x,2/3+z
4 -x,-y,1/2+z
5 y,-x+y,5/6+z
6 x-y,x,1/6+z
_cell_length_a                   29.0839(7)
_cell_length_b                   29.0839(7)
_cell_length_c                   11.4442(3)
_cell_angle_alpha                90
_cell_angle_beta                 90
_cell_angle_gamma                120
_cell_volume                     8383.42
_exptl_crystal_colour            colorless
_exptl_crystal_description       needle
_cell_formula_units_Z            6
loop_
_atom_site_label
_atom_site_type_symbol
_atom_site_fract_x
_atom_site_fract_y
_atom_site_fract_z
C1 C 0.40983(9) 0.54094(8) 0.44011(19)
H1 H 0.3957 0.5542 0.5022
H2 H 0.4232 0.5194 0.4783
C2 C 0.45618(9) 0.58823(8) 0.38137(19)
H3 H 0.4728 0.5758 0.3233
H4 H 0.4833 0.6100 0.4404
C3 C 0.43602(9) 0.62159(8) 0.3208(2)
H5 H 0.4186 0.6318 0.3828
C4 C 0.39309(8) 0.58872(8) 0.23235(19)
H6 H 0.4084 0.5770 0.1697
H7 H 0.3800 0.6110 0.1962
C5 C 0.34613(8) 0.53960(8) 0.28977(18)
H8 H 0.3307 0.5534 0.3490
C6 C 0.30172(8) 0.50683(8) 0.20257(18)
H9 H 0.2943 0.5312 0.1565
H10 H 0.2691 0.4829 0.2467
C7 C 0.31391(8) 0.47331(8) 0.11775(18)
H11 H 0.2798 0.4474 0.0790
C8 C 0.33472(8) 0.44116(8) 0.18287(18)
H12 H 0.3048 0.4140 0.2311
C9 C 0.36370(8) 0.50460(8) 0.35752(18)
C10 C 0.38070(8) 0.47577(8) 0.26748(17)
H13 H 0.4097 0.5040 0.2191
C11 C 0.40358(8) 0.44347(8) 0.32354(18)
H14 H 0.3768 0.4169 0.3772
H15 H 0.4351 0.4676 0.3707
C12 C 0.41985(8) 0.41449(8) 0.23370(18)
H16 H 0.4316 0.3923 0.2771
C13 C 0.37187(8) 0.37751(8) 0.15604(18)
C14 C 0.35078(8) 0.41144(7) 0.09801(18)
H17 H 0.3804 0.4388 0.0493
C15 C 0.30842(8) 0.37282(8) 0.01358(19)
H18 H 0.3021 0.3920 -0.0501
H19 H 0.2745 0.3499 0.0547
C16 C 0.33266(9) 0.34003(9) -0.0340(2)
H20 H 0.3439 0.3498 -0.1163
H21 H 0.3063 0.3016 -0.0307
C17 C 0.38188(8) 0.35298(8) 0.04518(19)
H22 H 0.4141 0.3818 0.0055
C18 C 0.31812(9) 0.46505(9) 0.43449(19)
H23 H 0.3296 0.4438 0.4790
H24 H 0.2878 0.4416 0.3852
H25 H 0.3077 0.4844 0.4886
C19 C 0.32976(9) 0.33315(8) 0.2328(2)
H26 H 0.3458 0.3152 0.2743
H27 H 0.3006 0.3075 0.1835
H28 H 0.3160 0.3485 0.2896
C20 C 0.39000(9) 0.30470(8) 0.0573(2)
H29 H 0.3570 0.2747 0.0917
C21 C 0.43663(9) 0.31602(9) 0.1375(2)
H30 H 0.4680 0.3493 0.1137
H31 H 0.4442 0.2868 0.1319
H32 H 0.4275 0.3192 0.2184
C22 C 0.39738(10) 0.28836(10) -0.0661(2)
H33 H 0.4301 0.3178 -0.1005
H34 H 0.3671 0.2830 -0.1153
C23 C 0.40129(11) 0.23742(11) -0.0701(3)
H35 H 0.4043 0.2289 -0.1525
H36 H 0.4339 0.2439 -0.0289
C24 C 0.35436(11) 0.19079(11) -0.0153(4)
C25 C 0.33513(8) 0.52746(8) -0.05866(18)
C26 C 0.51084(8) 0.67552(8) 0.18223(19)
C27 C 0.51475(8) 0.47803(8) 0.20799(17)
C28 C 0.57819(9) 0.74208(8) 0.0499(2)
C29 C 0.57459(11) 0.76761(10) -0.0496(2)
H37 H 0.5443 0.7713 -0.0619
C30 C 0.61573(12) 0.78781(12) -0.1313(3)
H38 H 0.6136 0.8059 -0.1984
C31 C 0.65899(12) 0.78182(11) -0.1159(3)
H39 H 0.6870 0.7959 -0.1714
C32 C 0.66149(12) 0.75500(12) -0.0185(3)
H40 H 0.6910 0.7497 -0.0087
C33 C 0.62196(10) 0.73583(10) 0.0644(3)
H41 H 0.6247 0.7183 0.1317
C34 C 0.37179(8) 0.59306(8) -0.22339(18)
C35 C 0.32476(9) 0.58971(10) -0.2623(2)
H42 H 0.2921 0.5668 -0.2245
C36 C 0.32628(10) 0.62035(10) -0.3572(2)
H43 H 0.2942 0.6179 -0.3840
C37 C 0.37345(10) 0.65430(9) -0.4134(2)
H44 H 0.3739 0.6749 -0.4783
C38 C 0.41943(10) 0.65755(9) -0.3735(2)
H45 H 0.4521 0.6809 -0.4111
C39 C 0.41919(8) 0.62743(8) -0.2793(2)
H46 H 0.4515 0.6303 -0.2529
C40 C 0.60290(8) 0.55948(8) 0.17348(18)
C41 C 0.62512(9) 0.61155(9) 0.1319(2)
H47 H 0.6030 0.6236 0.0994
C42 C 0.67946(10) 0.64538(10) 0.1384(2)
H48 H 0.6945 0.6806 0.1094
C43 C 0.71221(9) 0.62849(10) 0.1868(2)
H49 H 0.7494 0.6520 0.1916
C44 C 0.68988(9) 0.57677(9) 0.22819(19)
H50 H 0.7121 0.5649 0.2615
C45 C 0.63544(8) 0.54214(9) 0.22136(19)
H51 H 0.6206 0.5068 0.2493
C46 C 0.2591(3) 0.1402(3) 0.0000(8)
H52 H 0.2699 0.1281 0.0715
C47 C 0.2242(6) 0.1634(6) 0.0315(13)
C48 C 0.2333(3) 0.0950(3) -0.0915(11)
F1 F 0.26702(17) 0.0780(2) -0.1158(8)
F2 F 0.18968(19) 0.0552(2) -0.0544(8)
F3 F 0.2221(4) 0.1120(6) -0.1916(10)
F4 F 0.1789(3) 0.1279(3) 0.0727(9)
F5 F 0.2178(5) 0.1897(5) -0.0615(13)
F6 F 0.2494(3) 0.2004(3) 0.1145(8)
N1 N 0.47850(7) 0.67183(7) 0.27052(17)
H53 H 0.4794(10) 0.7017(8) 0.288(2)
N2 N 0.53802(8) 0.72546(7) 0.13555(18)
H54 H 0.5262(10) 0.7452(10) 0.158(3)
N3 N 0.35094(6) 0.50604(7) 0.02579(15)
H55 H 0.3848(7) 0.5148(9) 0.031(2)
N4 N 0.37529(7) 0.56457(7) -0.12707(16)
H56 H 0.4087(7) 0.5728(10) -0.114(2)
N5 N 0.46467(7) 0.45395(7) 0.16349(15)
H57 H 0.4600(10) 0.4726(9) 0.109(2)
N6 N 0.54772(7) 0.52622(7) 0.15683(16)
H58 H 0.5324(10) 0.5408(10) 0.117(2)
O1 O 0.35479(9) 0.16348(9) 0.0607(3)
O2 O 0.30901(9) 0.18312(9) -0.0679(4)
O3 O 0.51701(6) 0.63870(6) 0.14719(14)
O4 O 0.28821(5) 0.51454(6) -0.07314(13)
O5 O 0.52905(6) 0.45782(6) 0.28431(13)
O6 O 0.46980(6) 0.54795(6) 0.02157(14)
H60 H 0.4765(11) 0.5491(11) -0.0489(17)
H61 H 0.4825(11) 0.5776(8) 0.052(3)
C49? C 0.2623(4) 0.1421(5) -0.0672(15)
H59? H 0.2637 0.1168 -0.0100
C50? C 0.2286(8) 0.1621(8) -0.011(2)
C51? C 0.2400(6) 0.1106(7) -0.181(3)
F7? F 0.2727(3) 0.0947(3) -0.2230(10)
F8? F 0.1943(3) 0.0713(3) -0.1671(14)
F9? F 0.2367(4) 0.1421(4) -0.2699(12)
F10? F 0.1797(4) 0.1218(4) 0.0168(18)
F11? F 0.2236(8) 0.1930(9) -0.086(2)
F12? F 0.2517(6) 0.1896(5) 0.0815(14)
loop_
_geom_bond_atom_site_label_1
_geom_bond_atom_site_label_2
_geom_bond_site_symmetry_1
_geom_bond_site_symmetry_2
C1 H1 1_555 1_555
H2 C1 1_555 1_555
C2 C1 1_555 1_555
H3 C2 1_555 1_555
H4 C2 1_555 1_555
C3 C2 1_555 1_555
H5 C3 1_555 1_555
C4 C3 1_555 1_555
H6 C4 1_555 1_555
H7 C4 1_555 1_555
C5 C4 1_555 1_555
H8 C5 1_555 1_555
C6 C5 1_555 1_555
H9 C6 1_555 1_555
H10 C6 1_555 1_555
C7 C6 1_555 1_555
H11 C7 1_555 1_555
C8 C7 1_555 1_555
H12 C8 1_555 1_555
C9 C1 1_555 1_555
C10 C8 1_555 1_555
H13 C10 1_555 1_555
C11 C10 1_555 1_555
H14 C11 1_555 1_555
H15 C11 1_555 1_555
C12 C11 1_555 1_555
H16 C12 1_555 1_555
C13 C12 1_555 1_555
C14 C8 1_555 1_555
H17 C14 1_555 1_555
C15 C14 1_555 1_555
H18 C15 1_555 1_555
H19 C15 1_555 1_555
C16 C15 1_555 1_555
H20 C16 1_555 1_555
H21 C16 1_555 1_555
C17 C13 1_555 1_555
H22 C17 1_555 1_555
C18 C9 1_555 1_555
H23 C18 1_555 1_555
H24 C18 1_555 1_555
H25 C18 1_555 1_555
C19 C13 1_555 1_555
H26 C19 1_555 1_555
H27 C19 1_555 1_555
H28 C19 1_555 1_555
C20 C17 1_555 1_555
H29 C20 1_555 1_555
C21 C20 1_555 1_555
H30 C21 1_555 1_555
H31 C21 1_555 1_555
H32 C21 1_555 1_555
C22 C20 1_555 1_555
H33 C22 1_555 1_555
H34 C22 1_555 1_555
C23 C22 1_555 1_555
H35 C23 1_555 1_555
H36 C23 1_555 1_555
C24 C23 1_555 1_555
C25 N3 1_555 1_555
C26 N1 1_555 1_555
C27 N5 1_555 1_555
C28 C29 1_555 1_555
C29 H37 1_555 1_555
C30 C29 1_555 1_555
H38 C30 1_555 1_555
C31 C30 1_555 1_555
H39 C31 1_555 1_555
C32 C31 1_555 1_555
H40 C32 1_555 1_555
C33 C28 1_555 1_555
H41 C33 1_555 1_555
C34 C35 1_555 1_555
C35 H42 1_555 1_555
C36 C35 1_555 1_555
H43 C36 1_555 1_555
C37 C36 1_555 1_555
H44 C37 1_555 1_555
C38 C37 1_555 1_555
H45 C38 1_555 1_555
C39 C34 1_555 1_555
H46 C39 1_555 1_555
C40 C41 1_555 1_555
C41 H47 1_555 1_555
C42 C41 1_555 1_555
H48 C42 1_555 1_555
C43 C42 1_555 1_555
H49 C43 1_555 1_555
C44 C43 1_555 1_555
H50 C44 1_555 1_555
C45 C40 1_555 1_555
H51 C45 1_555 1_555
C46 H52 1_555 1_555
C47 C46 1_555 1_555
C48 C46 1_555 1_555
F1 C48 1_555 1_555
F2 C48 1_555 1_555
F3 C48 1_555 1_555
F4 C47 1_555 1_555
F5 C47 1_555 1_555
F6 C47 1_555 1_555
N1 C3 1_555 1_555
H53 N1 1_555 1_555
N2 C26 1_555 1_555
H54 N2 1_555 1_555
N3 C7 1_555 1_555
H55 N3 1_555 1_555
N4 C25 1_555 1_555
H56 N4 1_555 1_555
N5 C12 1_555 1_555
H57 N5 1_555 1_555
N6 C27 1_555 1_555
H58 N6 1_555 1_555
O1 C24 1_555 1_555
O2 C24 1_555 1_555
O3 C26 1_555 1_555
O4 C25 1_555 1_555
O5 C27 1_555 1_555
O6 H60 1_555 1_555
H61 O6 1_555 1_555
C5 C9 1_555 1_555
C9 C10 1_555 1_555
C13 C14 1_555 1_555
C16 C17 1_555 1_555
C28 N2 1_555 1_555
C32 C33 1_555 1_555
C34 N4 1_555 1_555
C38 C39 1_555 1_555
C40 N6 1_555 1_555
C44 C45 1_555 1_555
C46 O2 1_555 1_555

#END
