
#######################################################################
#
#                 Cambridge Crystallographic Data Centre
#                                CCDC 
#
#######################################################################
#
# If this CIF has been generated from an entry in the Cambridge 
# Structural Database, then it will include bibliographic, chemical, 
# crystal, experimental, refinement or atomic coordinate data resulting 
# from the CCDC's data processing and validation procedures.
#
#######################################################################

data_SIMQEL
_chemical_formula_moiety         'C14 H10 O5'
_chemical_name_systematic        
(3E)-5-Hydroxy-3-(5-(hydroxymethyl)furan-2-ylmethylene)-1-benzofuran-2(3H)-one
_symmetry_cell_setting           triclinic
_symmetry_space_group_name_H-M   'P -1'
_symmetry_Int_Tables_number      2
_space_group_name_Hall           '-P 1'
loop_
_symmetry_equiv_pos_site_id
_symmetry_equiv_pos_as_xyz
1 x,y,z
2 -x,-y,-z
_cell_length_a                   7.544(3)
_cell_length_b                   8.974(2)
_cell_length_c                   9.291(3)
_cell_angle_alpha                107.509(7)
_cell_angle_beta                 97.844(6)
_cell_angle_gamma                100.735(7)
_cell_volume                     576.785
_exptl_crystal_colour            yellow
_exptl_crystal_description       needle
_chemical_melting_point          '497-499 K'
_cell_formula_units_Z            2
_exptl_crystal_recrystallization_method 'ethyl acetate/methanol'
loop_
_atom_site_label
_atom_site_type_symbol
_atom_site_fract_x
_atom_site_fract_y
_atom_site_fract_z
O1 O 1.0229(2) 1.1646(3) 0.3963(2)
O2 O 0.8629(2) 1.2740(2) 0.2522(2)
O3 O 0.1254(2) 1.1304(2) 0.0008(2)
H1 H 0.0779 1.0385 -0.0045
O4 O 0.3470(2) 0.82265(19) 0.29896(18)
O5 O -0.0173(3) 0.6380(2) 0.0900(2)
H2 H -0.0237 0.7203 0.0705
C1 C 0.8761(3) 1.1658(3) 0.3283(3)
C2 C 0.6891(3) 1.0621(3) 0.3073(3)
C3 C 0.5654(3) 1.1226(3) 0.2156(3)
C4 C 0.6769(3) 1.2464(3) 0.1850(3)
C5 C 0.6139(3) 1.3299(3) 0.0957(3)
H3 H 0.6933 1.4105 0.0758
C6 C 0.4262(3) 1.2883(3) 0.0363(3)
H4 H 0.3774 1.3424 -0.0245
C7 C 0.3106(3) 1.1680(3) 0.0659(3)
C8 C 0.3757(3) 1.0833(3) 0.1552(3)
H5 H 0.2959 1.0027 0.1746
C9 C 0.6754(3) 0.9416(3) 0.3666(3)
H6 H 0.7862 0.9379 0.4215
C10 C 0.5221(3) 0.8192(3) 0.3603(3)
C11 C 0.5126(4) 0.6904(4) 0.4072(3)
H7 H 0.6112 0.6619 0.4551
C12 C 0.3258(4) 0.6066(3) 0.3705(3)
H8 H 0.2783 0.5112 0.3870
C13 C 0.2293(3) 0.6913(3) 0.3069(3)
C14 C 0.0307(3) 0.6752(3) 0.2518(3)
H9 H -0.0409 0.5911 0.2804
H10 H -0.0009 0.7752 0.3026
loop_
_geom_bond_atom_site_label_1
_geom_bond_atom_site_label_2
_geom_bond_site_symmetry_1
_geom_bond_site_symmetry_2
O1 C1 1_555 1_555
O2 C1 1_555 1_555
O3 H1 1_555 1_555
O4 C10 1_555 1_555
O5 H2 1_555 1_555
C1 C2 1_555 1_555
C2 C3 1_555 1_555
C3 C4 1_555 1_555
C4 O2 1_555 1_555
C5 C4 1_555 1_555
H3 C5 1_555 1_555
C6 C5 1_555 1_555
H4 C6 1_555 1_555
C7 O3 1_555 1_555
C8 C3 1_555 1_555
H5 C8 1_555 1_555
C9 C2 1_555 1_555
H6 C9 1_555 1_555
C10 C9 1_555 1_555
C11 C10 1_555 1_555
H7 C11 1_555 1_555
C12 C11 1_555 1_555
H8 C12 1_555 1_555
C13 O4 1_555 1_555
C14 O5 1_555 1_555
H9 C14 1_555 1_555
H10 C14 1_555 1_555
C6 C7 1_555 1_555
C7 C8 1_555 1_555
C12 C13 1_555 1_555
C13 C14 1_555 1_555

#END
