
#######################################################################
#
#                 Cambridge Crystallographic Data Centre
#                                CCDC 
#
#######################################################################
#
# If this CIF has been generated from an entry in the Cambridge 
# Structural Database, then it will include bibliographic, chemical, 
# crystal, experimental, refinement or atomic coordinate data resulting 
# from the CCDC's data processing and validation procedures.
#
#######################################################################

data_SIMREO
_chemical_formula_moiety         'C47 H62 N6 O5,H2 O1'
_chemical_name_systematic        
'ethyl 3,7,12-tris((phenylcarbamoyl)amino)cholan-24-oate unknown solvate monohydrate'
_symmetry_cell_setting           hexagonal
_symmetry_space_group_name_H-M   'P 61'
_symmetry_Int_Tables_number      169
_space_group_name_Hall           'P 61'
loop_
_symmetry_equiv_pos_site_id
_symmetry_equiv_pos_as_xyz
1 x,y,z
2 -y,x-y,1/3+z
3 -x+y,-x,2/3+z
4 -x,-y,1/2+z
5 y,-x+y,5/6+z
6 x-y,x,1/6+z
_cell_length_a                   28.967(2)
_cell_length_b                   28.967(2)
_cell_length_c                   11.5405(18)
_cell_angle_alpha                90
_cell_angle_beta                 90
_cell_angle_gamma                120
_cell_volume                     8386.14
_exptl_crystal_colour            colorless
_exptl_crystal_description       needle
_cell_formula_units_Z            6
_exptl_crystal_recrystallization_method 'methyl acetate/water (99:1)'
loop_
_atom_site_label
_atom_site_type_symbol
_atom_site_fract_x
_atom_site_fract_y
_atom_site_fract_z
C1 C 0.4608(3) 0.8688(3) 1.3141(7)
H1 H 0.4829 0.9034 1.3537
H2 H 0.4467 0.8407 1.3743
C2 C 0.4129(3) 0.8696(3) 1.2539(6)
H3 H 0.3911 0.8754 1.3118
H4 H 0.4259 0.8985 1.1956
C3 C 0.3807(3) 0.8166(3) 1.1971(7)
H5 H 0.3706 0.7894 1.2597
C4 C 0.4115(3) 0.8046(3) 1.1091(6)
H6 H 0.4234 0.8312 1.0458
H7 H 0.3882 0.7689 1.0752
C5 C 0.4597(3) 0.8060(3) 1.1644(7)
H8 H 0.4454 0.7770 1.2238
C6 C 0.4935(3) 0.7928(3) 1.0782(6)
H9 H 0.5174 0.7843 1.1233
H10 H 0.4691 0.7608 1.0327
C7 C 0.5274(3) 0.8389(3) 0.9943(6)
H11 H 0.5530 0.8307 0.9545
C8 C 0.5593(3) 0.8914(3) 1.0576(7)
H12 H 0.5860 0.8878 1.1058
C9 C 0.4969(3) 0.8588(3) 1.2312(7)
C10 C 0.5267(3) 0.9040(3) 1.1411(6)
H13 H 0.4986 0.9057 1.0940
C11 C 0.5602(3) 0.9593(3) 1.1978(6)
H14 H 0.5366 0.9674 1.2447
H15 H 0.5867 0.9584 1.2507
C12 C 0.5897(3) 1.0040(3) 1.1079(6)
H16 H 0.6125 1.0379 1.1512
C13 C 0.6267(3) 0.9933(3) 1.0297(6)
C14 C 0.5917(3) 0.9380(3) 0.9732(6)
H17 H 0.5650 0.9412 0.9238
C15 C 0.6300(3) 0.9334(3) 0.8905(7)
H18 H 0.6105 0.9083 0.8267
H19 H 0.6519 0.9211 0.9317
C16 C 0.6649(3) 0.9903(3) 0.8442(7)
H20 H 0.6566 0.9925 0.7618
H21 H 0.7032 1.0015 0.8510
C17 C 0.6507(3) 1.0271(3) 0.9232(7)
H22 H 0.6217 1.0301 0.8830
C18 C 0.6702(3) 0.9946(3) 1.1089(7)
H23 H 0.7013 1.0017 1.0622
H24 H 0.6563 0.9601 1.1480
H25 H 0.6806 1.0228 1.1669
C19 C 0.5346(3) 0.8509(3) 1.3091(7)
H26 H 0.5581 0.8434 1.2616
H27 H 0.5139 0.8209 1.3616
H28 H 0.5561 0.8834 1.3545
C20 C 0.6987(3) 1.0833(3) 0.9325(7)
H29 H 0.7285 1.0803 0.9685
C21 C 0.6875(3) 1.1202(3) 1.0113(7)
H30 H 0.7167 1.1571 1.0036
H31 H 0.6848 1.1088 1.0922
H32 H 0.6540 1.1180 0.9878
C22 C 0.7164(3) 1.1064(3) 0.8122(8)
H33 H 0.6859 1.1064 0.7736
H34 H 0.7244 1.0821 0.7678
C23 C 0.7644(3) 1.1624(3) 0.8031(9)
H35 H 0.7740 1.1715 0.7205
H36 H 0.7553 1.1885 0.8359
C24 C 0.8108(4) 1.1658(4) 0.8669(10)
C25 C 0.3259(3) 0.8370(3) 1.0606(6)
C26 C 0.4717(3) 0.8068(3) 0.8202(6)
C27 C 0.5268(3) 1.0369(3) 1.0833(6)
C28 C 0.2588(3) 0.8375(3) 0.9260(7)
C29 C 0.2324(3) 0.8077(3) 0.8293(7)
H37 H 0.2278 0.7732 0.8180
C30 C 0.2126(3) 0.8294(3) 0.7485(8)
H38 H 0.1926 0.8086 0.6842
C31 C 0.2217(3) 0.8792(3) 0.7609(8)
H39 H 0.2090 0.8940 0.7042
C32 C 0.2489(3) 0.9084(3) 0.8539(8)
H40 H 0.2553 0.9438 0.8608
C33 C 0.2674(3) 0.8889(3) 0.9384(7)
H41 H 0.2857 0.9100 1.0040
C34 C 0.4054(3) 0.7780(3) 0.6564(7)
C35 C 0.4086(3) 0.7344(3) 0.6157(7)
H42 H 0.4310 0.7239 0.6533
C36 C 0.3793(3) 0.7070(3) 0.5215(7)
H43 H 0.3815 0.6772 0.4941
C37 C 0.3468(3) 0.7215(3) 0.4655(7)
H44 H 0.3268 0.7019 0.4000
C38 C 0.3433(3) 0.7641(3) 0.5040(7)
H45 H 0.3207 0.7745 0.4664
C39 C 0.3732(3) 0.7917(3) 0.5983(7)
H46 H 0.3713 0.8218 0.6243
C40 C 0.4451(3) 1.0445(3) 1.0503(6)
C41 C 0.3912(3) 1.0133(3) 1.0113(7)
H47 H 0.3783 0.9781 0.9834
C42 C 0.3585(3) 1.0346(3) 1.0145(7)
H48 H 0.3238 1.0153 0.9822
C43 C 0.3758(3) 1.0854(3) 1.0656(7)
H49 H 0.3522 1.0991 1.0720
C44 C 0.4280(3) 1.1146(3) 1.1061(7)
H50 H 0.4403 1.1488 1.1390
C45 C 0.4631(3) 1.0937(3) 1.0985(7)
H51 H 0.4986 1.1137 1.1266
C46 C 0.8774(7) 1.1369(8) 0.8657(18)
H52 H 0.8958 1.1279 0.8052
H53 H 0.9028 1.1722 0.8990
C47 C 0.8563(9) 1.0971(11) 0.953(2)
H54 H 0.8854 1.0950 0.9913
H55 H 0.8316 1.0626 0.9183
H56 H 0.8372 1.1063 1.0108
N1 N 0.3297(2) 0.8086(2) 1.1470(6)
H57 H 0.2998 0.7830 1.1769
N2 N 0.2749(2) 0.8140(2) 1.0137(6)
H58 H 0.2509 0.7826 1.0402
N3 N 0.4937(2) 0.8445(2) 0.9038(5)
H59 H 0.4882 0.8717 0.9048
N4 N 0.4337(2) 0.8097(2) 0.7534(5)
H60 H 0.4260 0.8344 0.7736
N5 N 0.5499(2) 1.0111(2) 1.0390(5)
H61 H 0.5417 0.9981 0.9683
N6 N 0.4782(2) 1.0219(2) 1.0326(5)
H62 H 0.4662 0.9952 0.9834
O1 O 0.8315(3) 1.1936(3) 0.9543(6)
O2 O 0.8288(3) 1.1368(3) 0.8166(8)
O3 O 0.36266(19) 0.87938(18) 1.0235(4)
O4 O 0.4861(2) 0.77283(19) 0.8027(4)
O5 O 0.54603(18) 1.07006(19) 1.1618(4)
O6 O 0.45281(19) 0.92167(19) 0.8969(5)
loop_
_geom_bond_atom_site_label_1
_geom_bond_atom_site_label_2
_geom_bond_site_symmetry_1
_geom_bond_site_symmetry_2
C1 H1 1_555 1_555
H2 C1 1_555 1_555
C2 C1 1_555 1_555
H3 C2 1_555 1_555
H4 C2 1_555 1_555
C3 C2 1_555 1_555
H5 C3 1_555 1_555
C4 C3 1_555 1_555
H6 C4 1_555 1_555
H7 C4 1_555 1_555
C5 C4 1_555 1_555
H8 C5 1_555 1_555
C6 C5 1_555 1_555
H9 C6 1_555 1_555
H10 C6 1_555 1_555
C7 C6 1_555 1_555
H11 C7 1_555 1_555
C8 C7 1_555 1_555
H12 C8 1_555 1_555
C9 C1 1_555 1_555
C10 C8 1_555 1_555
H13 C10 1_555 1_555
C11 C10 1_555 1_555
H14 C11 1_555 1_555
H15 C11 1_555 1_555
C12 C11 1_555 1_555
H16 C12 1_555 1_555
C13 C12 1_555 1_555
C14 C8 1_555 1_555
H17 C14 1_555 1_555
C15 C14 1_555 1_555
H18 C15 1_555 1_555
H19 C15 1_555 1_555
C16 C15 1_555 1_555
H20 C16 1_555 1_555
H21 C16 1_555 1_555
C17 C13 1_555 1_555
H22 C17 1_555 1_555
C18 C13 1_555 1_555
H23 C18 1_555 1_555
H24 C18 1_555 1_555
H25 C18 1_555 1_555
C19 C9 1_555 1_555
H26 C19 1_555 1_555
H27 C19 1_555 1_555
H28 C19 1_555 1_555
C20 C17 1_555 1_555
H29 C20 1_555 1_555
C21 C20 1_555 1_555
H30 C21 1_555 1_555
H31 C21 1_555 1_555
H32 C21 1_555 1_555
C22 C20 1_555 1_555
H33 C22 1_555 1_555
H34 C22 1_555 1_555
C23 C22 1_555 1_555
H35 C23 1_555 1_555
H36 C23 1_555 1_555
C24 C23 1_555 1_555
C25 N1 1_555 1_555
C26 N3 1_555 1_555
C27 N5 1_555 1_555
C28 C29 1_555 1_555
C29 H37 1_555 1_555
C30 C29 1_555 1_555
H38 C30 1_555 1_555
C31 C30 1_555 1_555
H39 C31 1_555 1_555
C32 C31 1_555 1_555
H40 C32 1_555 1_555
C33 C28 1_555 1_555
H41 C33 1_555 1_555
C34 C35 1_555 1_555
C35 H42 1_555 1_555
C36 C35 1_555 1_555
H43 C36 1_555 1_555
C37 C36 1_555 1_555
H44 C37 1_555 1_555
C38 C37 1_555 1_555
H45 C38 1_555 1_555
C39 C34 1_555 1_555
H46 C39 1_555 1_555
C40 C41 1_555 1_555
C41 H47 1_555 1_555
C42 C41 1_555 1_555
H48 C42 1_555 1_555
C43 C42 1_555 1_555
H49 C43 1_555 1_555
C44 C43 1_555 1_555
H50 C44 1_555 1_555
C45 C40 1_555 1_555
H51 C45 1_555 1_555
C46 H52 1_555 1_555
H53 C46 1_555 1_555
C47 C46 1_555 1_555
H54 C47 1_555 1_555
H55 C47 1_555 1_555
H56 C47 1_555 1_555
N1 C3 1_555 1_555
H57 N1 1_555 1_555
N2 C25 1_555 1_555
H58 N2 1_555 1_555
N3 C7 1_555 1_555
H59 N3 1_555 1_555
N4 C26 1_555 1_555
H60 N4 1_555 1_555
N5 C12 1_555 1_555
H61 N5 1_555 1_555
N6 C27 1_555 1_555
H62 N6 1_555 1_555
O1 C24 1_555 1_555
O2 C24 1_555 1_555
O3 C25 1_555 1_555
O4 C26 1_555 1_555
O5 C27 1_555 1_555
C5 C9 1_555 1_555
C9 C10 1_555 1_555
C13 C14 1_555 1_555
C16 C17 1_555 1_555
C28 N2 1_555 1_555
C32 C33 1_555 1_555
C34 N4 1_555 1_555
C38 C39 1_555 1_555
C40 N6 1_555 1_555
C44 C45 1_555 1_555
C46 O2 1_555 1_555

#END
