
#######################################################################
#
#                 Cambridge Crystallographic Data Centre
#                                CCDC 
#
#######################################################################
#
# If this CIF has been generated from an entry in the Cambridge 
# Structural Database, then it will include bibliographic, chemical, 
# crystal, experimental, refinement or atomic coordinate data resulting 
# from the CCDC's data processing and validation procedures.
#
#######################################################################

data_SIMVER
_chemical_formula_moiety         'C30 H38 Br2 N2 Si2'
_chemical_name_systematic        
2,4-bis(4-bromophenyl)-5-(t-butyl(dimethyl)silyl)-6-((t-butyl(dimethyl)silyl)ethynyl)pyrimidine
_symmetry_cell_setting           triclinic
_symmetry_space_group_name_H-M   'P -1'
_symmetry_Int_Tables_number      2
_space_group_name_Hall           '-P 1'
loop_
_symmetry_equiv_pos_site_id
_symmetry_equiv_pos_as_xyz
1 x,y,z
2 -x,-y,-z
_cell_length_a                   11.9541(12)
_cell_length_b                   12.2514(12)
_cell_length_c                   13.5192(18)
_cell_angle_alpha                67.882(2)
_cell_angle_beta                 63.773(2)
_cell_angle_gamma                63.445(2)
_cell_volume                     1548.73
_exptl_crystal_colour            colorless
_exptl_crystal_description       block
_cell_formula_units_Z            2
loop_
_atom_site_label
_atom_site_type_symbol
_atom_site_fract_x
_atom_site_fract_y
_atom_site_fract_z
Br1 Br 0.59169(2) -0.204295(17) 0.662084(18)
Br2 Br 1.21136(2) 0.56464(2) 0.221795(18)
Si1 Si 0.16579(5) 0.83119(5) 0.82858(5)
Si2 Si 0.34044(5) 0.34799(5) 0.82774(4)
N1 N 0.69645(16) 0.33880(15) 0.55703(13)
N2 N 0.59390(15) 0.54561(14) 0.58708(13)
C1 C 0.58653(18) 0.31256(17) 0.62956(16)
C2 C 0.47583(18) 0.39608(17) 0.69444(15)
C3 C 0.48611(18) 0.51598(17) 0.66383(15)
C4 C 0.69728(18) 0.45281(17) 0.54102(16)
C5 C 0.59029(18) 0.18752(16) 0.63486(15)
C6 C 0.50602(19) 0.17788(17) 0.59599(16)
H1 H 0.4474 0.2516 0.5639
C7 C 0.50660(19) 0.06125(18) 0.60360(16)
H2 H 0.4483 0.0549 0.5776
C8 C 0.59349(19) -0.04555(17) 0.64966(16)
C9 C 0.6825(2) -0.03830(18) 0.68472(19)
H3 H 0.7436 -0.1122 0.7139
C10 C 0.6808(2) 0.07897(18) 0.67642(19)
H4 H 0.7419 0.0852 0.6993
C11 C 0.82117(18) 0.48002(17) 0.46483(15)
C12 C 0.82943(19) 0.59710(18) 0.44265(17)
H5 H 0.7549 0.6604 0.4774
C13 C 0.9453(2) 0.62289(19) 0.37030(18)
H6 H 0.9502 0.7032 0.3552
C14 C 1.05357(19) 0.52951(19) 0.32060(16)
C15 C 1.0486(2) 0.41151(19) 0.34270(18)
H7 H 1.1239 0.3480 0.3089
C16 C 0.9326(2) 0.38709(18) 0.41474(18)
H8 H 0.9286 0.3063 0.4303
C17 C 0.38130(19) 0.61912(18) 0.71387(17)
C18 C 0.2983(2) 0.70519(18) 0.75618(18)
C19 C 0.0461(3) 0.7620(2) 0.9533(2)
H9 H 0.0026 0.7319 0.9273
H10 H -0.0208 0.8259 0.9962
H11 H 0.0936 0.6919 1.0019
C20 C 0.2405(2) 0.8951(3) 0.8798(2)
H12 H 0.2779 0.8298 0.9371
H13 H 0.1720 0.9661 0.9131
H14 H 0.3107 0.9232 0.8162
C21 C 0.0825(2) 0.9551(2) 0.72367(19)
C22 C -0.0407(2) 1.0529(2) 0.7834(2)
H15 H -0.0780 1.1210 0.7272
H16 H -0.0159 1.0867 0.8229
H17 H -0.1069 1.0136 0.8381
C23 C 0.0420(3) 0.8938(3) 0.6700(3)
H18 H -0.0179 0.8497 0.7295
H19 H 0.1212 0.8341 0.6290
H20 H -0.0032 0.9586 0.6173
C24 C 0.1793(3) 1.0199(3) 0.6305(2)
H21 H 0.1371 1.0826 0.5751
H22 H 0.2589 0.9577 0.5930
H23 H 0.2038 1.0610 0.6638
C25 C 0.1738(2) 0.4722(2) 0.8415(2)
H24 H 0.1646 0.5131 0.7664
H25 H 0.1647 0.5343 0.8761
H26 H 0.1048 0.4342 0.8891
C26 C 0.3146(2) 0.2045(2) 0.83627(19)
H27 H 0.2514 0.1821 0.9105
H28 H 0.3992 0.1352 0.8259
H29 H 0.2795 0.2210 0.7769
C27 C 0.3959(2) 0.3131(2) 0.95168(18)
C28 C 0.4329(3) 0.4176(2) 0.9522(2)
H30 H 0.4618 0.3925 1.0174
H31 H 0.3555 0.4944 0.9574
H32 H 0.5049 0.4326 0.8823
C29 C 0.2815(4) 0.2955(4) 1.0611(2)
H33 H 0.3048 0.2857 1.1257
H34 H 0.2648 0.2205 1.0695
H35 H 0.2016 0.3688 1.0582
C30 C 0.5172(4) 0.1929(3) 0.9499(3)
H36 H 0.5910 0.2056 0.8808
H37 H 0.4953 0.1239 0.9516
H38 H 0.5426 0.1725 1.0161
loop_
_geom_bond_atom_site_label_1
_geom_bond_atom_site_label_2
_geom_bond_site_symmetry_1
_geom_bond_site_symmetry_2
Br1 C8 1_555 1_555
Br2 C14 1_555 1_555
Si1 C18 1_555 1_555
Si2 C2 1_555 1_555
N1 C1 1_555 1_555
N2 C3 1_555 1_555
C1 C2 1_555 1_555
C2 C3 1_555 1_555
C3 C17 1_555 1_555
C4 N1 1_555 1_555
C5 C1 1_555 1_555
C6 C5 1_555 1_555
H1 C6 1_555 1_555
C7 C6 1_555 1_555
H2 C7 1_555 1_555
C8 C7 1_555 1_555
C9 C8 1_555 1_555
H3 C9 1_555 1_555
C10 C5 1_555 1_555
H4 C10 1_555 1_555
C11 C4 1_555 1_555
C12 C11 1_555 1_555
H5 C12 1_555 1_555
C13 C12 1_555 1_555
H6 C13 1_555 1_555
C14 C13 1_555 1_555
C15 C14 1_555 1_555
H7 C15 1_555 1_555
C16 C11 1_555 1_555
H8 C16 1_555 1_555
C17 C18 1_555 1_555
C19 Si1 1_555 1_555
H9 C19 1_555 1_555
H10 C19 1_555 1_555
H11 C19 1_555 1_555
C20 Si1 1_555 1_555
H12 C20 1_555 1_555
H13 C20 1_555 1_555
H14 C20 1_555 1_555
C21 Si1 1_555 1_555
C22 C21 1_555 1_555
H15 C22 1_555 1_555
H16 C22 1_555 1_555
H17 C22 1_555 1_555
C23 C21 1_555 1_555
H18 C23 1_555 1_555
H19 C23 1_555 1_555
H20 C23 1_555 1_555
C24 C21 1_555 1_555
H21 C24 1_555 1_555
H22 C24 1_555 1_555
H23 C24 1_555 1_555
C25 Si2 1_555 1_555
H24 C25 1_555 1_555
H25 C25 1_555 1_555
H26 C25 1_555 1_555
C26 Si2 1_555 1_555
H27 C26 1_555 1_555
H28 C26 1_555 1_555
H29 C26 1_555 1_555
C27 Si2 1_555 1_555
C28 C27 1_555 1_555
H30 C28 1_555 1_555
H31 C28 1_555 1_555
H32 C28 1_555 1_555
C29 C27 1_555 1_555
H33 C29 1_555 1_555
H34 C29 1_555 1_555
H35 C29 1_555 1_555
C30 C27 1_555 1_555
H36 C30 1_555 1_555
H37 C30 1_555 1_555
H38 C30 1_555 1_555
N2 C4 1_555 1_555
C9 C10 1_555 1_555
C15 C16 1_555 1_555

#END
