
#######################################################################
#
#                 Cambridge Crystallographic Data Centre
#                                CCDC 
#
#######################################################################
#
# If this CIF has been generated from an entry in the Cambridge 
# Structural Database, then it will include bibliographic, chemical, 
# crystal, experimental, refinement or atomic coordinate data resulting 
# from the CCDC's data processing and validation procedures.
#
#######################################################################

data_SIMVOA
_chemical_compound_source        'Leaves of Ampelopsis grossedentata'
_chemical_formula_moiety         'C15 H12 O8,2(H2 O1)'
_chemical_name_systematic        'rac-Dihydromyricetin dihydrate'
_symmetry_cell_setting           monoclinic
_symmetry_space_group_name_H-M   'P 21/c'
_symmetry_Int_Tables_number      14
_space_group_name_Hall           '-P 2ybc'
loop_
_symmetry_equiv_pos_site_id
_symmetry_equiv_pos_as_xyz
1 x,y,z
2 -x,1/2+y,1/2-z
3 -x,-y,-z
4 x,1/2-y,1/2+z
_cell_length_a                   15.391(3)
_cell_length_b                   7.9002(16)
_cell_length_c                   24.161(5)
_cell_angle_alpha                90
_cell_angle_beta                 92.57(3)
_cell_angle_gamma                90
_cell_volume                     2934.83
_exptl_crystal_colour            yellow
_exptl_crystal_description       needle
_cell_formula_units_Z            8
loop_
_atom_site_label
_atom_site_type_symbol
_atom_site_fract_x
_atom_site_fract_y
_atom_site_fract_z
O1 O 0.48728(14) 0.6070(3) 0.21760(8)
O2 O 0.28387(15) 0.4841(3) 0.07021(9)
H1 H 0.2566 0.4476 0.0960
O3 O 0.52593(15) 0.8135(3) 0.03286(9)
H2 H 0.5704 0.8524 0.0479
O4 O 0.63802(15) 0.8827(3) 0.11563(9)
O5 O 0.69897(13) 0.8183(2) 0.22252(9)
H3 H 0.7107 0.9194 0.2213
O6 O 0.75720(15) 0.4186(3) 0.39160(9)
H4 H 0.7769 0.3522 0.3693
O7 O 0.64803(14) 0.5739(3) 0.46089(8)
H5 H 0.6861 0.5041 0.4685
O8 O 0.50042(14) 0.7283(3) 0.42033(9)
H6 H 0.5173 0.7084 0.4523
C1 C 0.4610(2) 0.6266(4) 0.16291(12)
C2 C 0.3831(2) 0.5538(4) 0.14623(12)
H7 H 0.3486 0.5006 0.1716
C3 C 0.3571(2) 0.5617(4) 0.09030(13)
C4 C 0.4049(2) 0.6483(4) 0.05253(13)
H8 H 0.3858 0.6544 0.0155
C5 C 0.4813(2) 0.7257(4) 0.07043(13)
C6 C 0.5117(2) 0.7172(4) 0.12640(12)
C7 C 0.5897(2) 0.8035(4) 0.14589(13)
C8 C 0.6089(2) 0.7946(4) 0.20853(13)
H9 H 0.5757 0.8834 0.2264
C9 C 0.5800(2) 0.6225(4) 0.22990(12)
H10 H 0.6106 0.5328 0.2106
C10 C 0.5945(2) 0.5996(3) 0.29144(13)
C11 C 0.6674(2) 0.5096(4) 0.31149(13)
H11 H 0.7033 0.4564 0.2869
C12 C 0.68601(19) 0.4995(4) 0.36771(13)
C13 C 0.6313(2) 0.5766(4) 0.40477(12)
C14 C 0.5570(2) 0.6582(4) 0.38456(12)
C15 C 0.5388(2) 0.6715(4) 0.32809(13)
H12 H 0.4892 0.7285 0.3149
O9 O 1.04347(13) 0.4302(2) 0.32245(8)
O10 O 1.23667(15) 0.5948(3) 0.47101(9)
H13 H 1.2592 0.6436 0.4454
O11 O 1.00809(15) 0.2216(3) 0.50702(9)
H14 H 0.9676 0.1725 0.4907
O12 O 0.90634(14) 0.1260(3) 0.42278(9)
O13 O 0.83770(14) 0.2020(3) 0.31889(9)
H15 H 0.8260 0.1021 0.3238
O14 O 1.02685(14) 0.2668(3) 0.12043(8)
H16 H 1.0096 0.2804 0.0881
O15 O 0.88587(14) 0.4432(3) 0.07755(8)
H17 H 0.8415 0.4972 0.0698
O16 O 0.78232(15) 0.6215(3) 0.14812(9)
H18 H 0.7661 0.6889 0.1713
C16 C 1.0682(2) 0.4205(4) 0.37772(12)
C17 C 1.1410(2) 0.5098(3) 0.39515(12)
H19 H 1.1724 0.5718 0.3701
C18 C 1.1667(2) 0.5052(4) 0.45111(13)
C19 C 1.1219(2) 0.4107(4) 0.48920(13)
H20 H 1.1396 0.4105 0.5265
C20 C 1.0511(2) 0.3177(4) 0.47055(13)
C21 C 1.0212(2) 0.3215(3) 0.41395(12)
C22 C 0.9487(2) 0.2199(4) 0.39350(13)
C23 C 0.9280(2) 0.2292(4) 0.33132(13)
H21 H 0.9617 0.1426 0.3127
C24 C 0.9522(2) 0.4026(4) 0.30964(12)
H22 H 0.9183 0.4893 0.3281
C25 C 0.9363(2) 0.4173(4) 0.24804(13)
C26 C 0.8671(2) 0.5154(4) 0.22711(13)
H23 H 0.8327 0.5740 0.2513
C27 C 0.8491(2) 0.5263(4) 0.17056(13)
C28 C 0.8997(2) 0.4385(4) 0.13371(12)
C29 C 0.9709(2) 0.3463(3) 0.15507(13)
C30 C 0.9886(2) 0.3341(3) 0.21165(13)
H24 H 1.0356 0.2700 0.2252
O17 O 0.72397(17) 0.1553(3) 0.21376(10)
H25 H 0.7710(15) 0.189(4) 0.2298(14)
H26 H 0.710(3) 0.207(5) 0.1826(15)
O18 O 0.72867(17) 0.5768(3) 0.04143(10)
H27 H 0.726(3) 0.677(2) 0.0545(15)
H28 H 0.723(4) 0.569(5) 0.0062(5)
O19 O 0.19398(15) 0.3605(3) 0.15503(10)
H29 H 0.1449(11) 0.319(3) 0.1445(13)
H30 H 0.2265(18) 0.297(3) 0.1754(15)
O20 O 0.32106(16) 0.7871(3) 0.39567(10)
H31 H 0.3757(8) 0.766(4) 0.3997(15)
H32 H 0.307(2) 0.887(3) 0.407(2)
loop_
_geom_bond_atom_site_label_1
_geom_bond_atom_site_label_2
_geom_bond_site_symmetry_1
_geom_bond_site_symmetry_2
O1 C1 1_555 1_555
O2 H1 1_555 1_555
O3 H2 1_555 1_555
O4 C7 1_555 1_555
O5 H3 1_555 1_555
O6 H4 1_555 1_555
O7 H5 1_555 1_555
O8 H6 1_555 1_555
C1 C2 1_555 1_555
C2 H7 1_555 1_555
C3 O2 1_555 1_555
C4 C3 1_555 1_555
H8 C4 1_555 1_555
C5 O3 1_555 1_555
C6 C1 1_555 1_555
C7 C6 1_555 1_555
C8 O5 1_555 1_555
H9 C8 1_555 1_555
C9 O1 1_555 1_555
H10 C9 1_555 1_555
C10 C9 1_555 1_555
C11 C10 1_555 1_555
H11 C11 1_555 1_555
C12 O6 1_555 1_555
C13 O7 1_555 1_555
C14 O8 1_555 1_555
C15 C10 1_555 1_555
H12 C15 1_555 1_555
O9 C16 1_555 1_555
O10 H13 1_555 1_555
O11 H14 1_555 1_555
O12 C22 1_555 1_555
O13 H15 1_555 1_555
O14 H16 1_555 1_555
O15 H17 1_555 1_555
O16 H18 1_555 1_555
C16 C17 1_555 1_555
C17 H19 1_555 1_555
C18 O10 1_555 1_555
C19 C18 1_555 1_555
H20 C19 1_555 1_555
C20 O11 1_555 1_555
C21 C16 1_555 1_555
C22 C21 1_555 1_555
C23 O13 1_555 1_555
H21 C23 1_555 1_555
C24 O9 1_555 1_555
H22 C24 1_555 1_555
C25 C24 1_555 1_555
C26 C25 1_555 1_555
H23 C26 1_555 1_555
C27 O16 1_555 1_555
C28 O15 1_555 1_555
C29 O14 1_555 1_555
C30 C25 1_555 1_555
H24 C30 1_555 1_555
O17 H25 1_555 1_555
H26 O17 1_555 1_555
O18 H27 1_555 1_555
H28 O18 1_555 1_555
O19 H29 1_555 1_555
H30 O19 1_555 1_555
O20 H31 1_555 1_555
H32 O20 1_555 1_555
C2 C3 1_555 1_555
C4 C5 1_555 1_555
C5 C6 1_555 1_555
C7 C8 1_555 1_555
C8 C9 1_555 1_555
C11 C12 1_555 1_555
C12 C13 1_555 1_555
C13 C14 1_555 1_555
C14 C15 1_555 1_555
C17 C18 1_555 1_555
C19 C20 1_555 1_555
C20 C21 1_555 1_555
C22 C23 1_555 1_555
C23 C24 1_555 1_555
C26 C27 1_555 1_555
C27 C28 1_555 1_555
C28 C29 1_555 1_555
C29 C30 1_555 1_555

#END
