
#######################################################################
#
#                 Cambridge Crystallographic Data Centre
#                                CCDC 
#
#######################################################################
#
# If this CIF has been generated from an entry in the Cambridge 
# Structural Database, then it will include bibliographic, chemical, 
# crystal, experimental, refinement or atomic coordinate data resulting 
# from the CCDC's data processing and validation procedures.
#
#######################################################################

data_SIMWET01
_chemical_name_common            'bis(collidine)bromanium tetrafluoroborate'
_chemical_formula_moiety         'C16 H22 Br1 N2 1+,B1 F4 1-'
_chemical_name_systematic        
'bis(2,4,6-trimethylpyridine)bromanium tetrafluoroborate'
_symmetry_cell_setting           monoclinic
_symmetry_space_group_name_H-M   'C 2/c'
_symmetry_Int_Tables_number      15
_space_group_name_Hall           '-C 2yn'
loop_
_symmetry_equiv_pos_site_id
_symmetry_equiv_pos_as_xyz
1 x,y,z
2 1/2+x,1/2+y,z
3 -x,y,1/2-z
4 1/2-x,1/2+y,1/2-z
5 -x,-y,-z
6 1/2-x,1/2-y,-z
7 x,-y,1/2+z
8 1/2+x,1/2-y,1/2+z
_cell_length_a                   28.9753(5)
_cell_length_b                   8.47823(11)
_cell_length_c                   15.0337(3)
_cell_angle_alpha                90
_cell_angle_beta                 102.8782(19)
_cell_angle_gamma                90
_cell_volume                     3600.27
_exptl_crystal_colour            colorless
_exptl_crystal_description       block
_cell_formula_units_Z            8
loop_
_atom_site_label
_atom_site_type_symbol
_atom_site_fract_x
_atom_site_fract_y
_atom_site_fract_z
Br1 Br 0.7500 0.2500 0.5000
N1 N 0.74558(8) 0.0184(3) 0.44649(14)
C1 C 0.78566(9) -0.0659(3) 0.44896(18)
C2 C 0.78316(10) -0.2089(3) 0.40320(19)
C3 C 0.73998(10) -0.2658(3) 0.35421(18)
C4 C 0.69970(9) -0.1790(3) 0.35602(17)
C5 C 0.70260(9) -0.0378(3) 0.40304(17)
C6 C 0.83178(11) 0.0002(4) 0.5015(2)
C7 C 0.73700(11) -0.4168(4) 0.3007(2)
C8 C 0.65931(10) 0.0568(4) 0.4073(2)
H1 H 0.8101 -0.2665 0.4054
H2 H 0.6698 -0.2143 0.3254
H3 H 0.8568 -0.0753 0.5040
H4 H 0.8394 0.0956 0.4751
H5 H 0.8310 0.0235 0.5637
H6 H 0.7099 -0.4755 0.3066
H7 H 0.7356 -0.3894 0.2388
H8 H 0.7646 -0.4790 0.3251
H9 H 0.6582 0.0780 0.4691
H10 H 0.6592 0.1560 0.3771
H11 H 0.6315 -0.0006 0.3796
N1E N 0.75442(8) 0.4816(3) 0.55351(14)
C1E C 0.71434(9) 0.5659(3) 0.55104(18)
C2E C 0.71684(10) 0.7089(3) 0.59680(19)
C3E C 0.76002(10) 0.7658(3) 0.64579(18)
C4E C 0.80030(9) 0.6790(3) 0.64398(17)
C5E C 0.79740(9) 0.5378(3) 0.59696(17)
C6E C 0.66822(11) 0.4998(4) 0.4985(2)
C7E C 0.76300(11) 0.9168(4) 0.6993(2)
C8E C 0.84069(10) 0.4432(4) 0.5927(2)
H1E H 0.6899 0.7665 0.5946
H2E H 0.8302 0.7143 0.6746
H3E H 0.6432 0.5753 0.4960
H4E H 0.6606 0.4044 0.5249
H5E H 0.6690 0.4765 0.4363
H6E H 0.7901 0.9755 0.6934
H7E H 0.7644 0.8894 0.7612
H8E H 0.7354 0.9790 0.6749
H9E H 0.8418 0.4220 0.5309
H10E H 0.8408 0.3440 0.6229
H11E H 0.8685 0.5006 0.6204
B1 B 0.61163(14) 0.0330(5) 0.6419(2)
F1 F 0.62431(12) 0.1796(3) 0.61628(18)
F2 F 0.58081(8) 0.0501(3) 0.6987(2)
F3 F 0.59295(14) -0.0580(3) 0.56722(16)
F4 F 0.65043(7) -0.0470(3) 0.69095(18)
Br2? Br 0.50548(2) 0.50644(9) 0.48415(4)
N2? N 0.53931(19) 0.4795(8) 0.3740(4)
C9? C 0.5515(2) 0.6086(9) 0.3333(6)
C10? C 0.5748(2) 0.5945(8) 0.2640(5)
C11? C 0.5859(3) 0.4436(9) 0.2329(7)
C12? C 0.5708(3) 0.3139(9) 0.2774(6)
C13? C 0.5479(3) 0.3322(9) 0.3477(7)
C14? C 0.5396(3) 0.7705(8) 0.3642(5)
C15? C 0.6118(3) 0.4277(9) 0.1584(6)
C16? C 0.5327(3) 0.1943(10) 0.3932(6)
N3? N 0.47113(19) 0.5308(7) 0.5944(4)
C17? C 0.4587(3) 0.4029(9) 0.6355(5)
C18? C 0.4353(3) 0.4173(9) 0.7036(6)
C19? C 0.4230(3) 0.5682(11) 0.7327(6)
C20? C 0.4379(3) 0.6944(11) 0.6879(7)
C21? C 0.4610(3) 0.6782(10) 0.6190(6)
C22? C 0.4730(3) 0.2439(9) 0.6078(5)
C23? C 0.3957(3) 0.5859(10) 0.8066(6)
C24? C 0.4762(3) 0.8172(9) 0.5718(6)
H12? H 0.5834 0.6837 0.2365
H13? H 0.5762 0.2128 0.2591
H14? H 0.5498 0.8490 0.3273
H15? H 0.5556 0.7859 0.4265
H16? H 0.5063 0.7786 0.3586
H17? H 0.5992 0.3404 0.1206
H18? H 0.6448 0.4112 0.1837
H19? H 0.6081 0.5203 0.1216
H20? H 0.4994 0.1998 0.3894
H21? H 0.5490 0.1913 0.4559
H22? H 0.5393 0.0993 0.3641
H23? H 0.4270 0.3287 0.7321
H24? H 0.4320 0.7952 0.7068
H25? H 0.4645 0.1668 0.6478
H26? H 0.5063 0.2420 0.6129
H27? H 0.4567 0.2219 0.5460
H28? H 0.4140 0.6457 0.8561
H29? H 0.3891 0.4857 0.8295
H30? H 0.3662 0.6388 0.7841
H31? H 0.4620 0.8125 0.5077
H32? H 0.5099 0.8170 0.5815
H33? H 0.4663 0.9114 0.5967
loop_
_geom_bond_atom_site_label_1
_geom_bond_atom_site_label_2
_geom_bond_site_symmetry_1
_geom_bond_site_symmetry_2
Br1 N1 1_555 1_555
N1 C1 1_555 1_555
C1 C2 1_555 1_555
C2 C3 1_555 1_555
C3 C4 1_555 1_555
C4 C5 1_555 1_555
C5 N1 1_555 1_555
C6 C1 1_555 1_555
C7 C3 1_555 1_555
C8 C5 1_555 1_555
H1 C2 1_555 1_555
H2 C4 1_555 1_555
H3 C6 1_555 1_555
H4 C6 1_555 1_555
H5 C6 1_555 1_555
H6 C7 1_555 1_555
H7 C7 1_555 1_555
H8 C7 1_555 1_555
H9 C8 1_555 1_555
H10 C8 1_555 1_555
H11 C8 1_555 1_555
B1 F1 1_555 1_555
F2 B1 1_555 1_555
F3 B1 1_555 1_555
F4 B1 1_555 1_555
N1E Br1 1_555 1_555
C1E N1E 1_555 1_555
C2E C1E 1_555 1_555
C3E C2E 1_555 1_555
C4E C3E 1_555 1_555
C5E N1E 1_555 1_555
C6E C1E 1_555 1_555
C7E C3E 1_555 1_555
C8E C5E 1_555 1_555
H1E C2E 1_555 1_555
H2E C4E 1_555 1_555
H3E C6E 1_555 1_555
H4E C6E 1_555 1_555
H5E C6E 1_555 1_555
H6E C7E 1_555 1_555
H7E C7E 1_555 1_555
H8E C7E 1_555 1_555
H9E C8E 1_555 1_555
H10E C8E 1_555 1_555
H11E C8E 1_555 1_555
C4E C5E 1_555 1_555

#END
