
#######################################################################
#
#                 Cambridge Crystallographic Data Centre
#                                CCDC 
#
#######################################################################
#
# If this CIF has been generated from an entry in the Cambridge 
# Structural Database, then it will include bibliographic, chemical, 
# crystal, experimental, refinement or atomic coordinate data resulting 
# from the CCDC's data processing and validation procedures.
#
#######################################################################

data_SIMWOB
_chemical_formula_moiety         'C27 H24 O9'
_chemical_name_systematic        
"2,3,5',6,6',7-Hexamethoxy-3'H,10H-spiro(anthracene-9,1'-isobenzofuran)-3',10-dione unknown solvate"
_symmetry_cell_setting           monoclinic
_symmetry_space_group_name_H-M   'P 2/n'
_symmetry_Int_Tables_number      13
_space_group_name_Hall           '-P 2yac'
loop_
_symmetry_equiv_pos_site_id
_symmetry_equiv_pos_as_xyz
1 x,y,z
2 1/2-x,y,1/2-z
3 -x,-y,-z
4 1/2+x,-y,1/2+z
_cell_length_a                   13.1371(7)
_cell_length_b                   13.3281(7)
_cell_length_c                   16.6587(9)
_cell_angle_alpha                90
_cell_angle_beta                 107.0430(10)
_cell_angle_gamma                90
_cell_volume                     2788.72
_exptl_crystal_colour            colorless
_exptl_crystal_description       block
_chemical_melting_point          '546-548 K'
_cell_formula_units_Z            4
_exptl_crystal_recrystallization_method 'ethyl acetate/dichloromethane'
loop_
_atom_site_label
_atom_site_type_symbol
_atom_site_fract_x
_atom_site_fract_y
_atom_site_fract_z
C1 C 0.34942(10) 0.82325(10) 0.93258(8)
C2 C 0.35260(12) 0.72354(12) 0.95840(10)
H1 H 0.3407 0.7083 1.0094
C3 C 0.37327(14) 0.64693(12) 0.90925(11)
C4 C 0.38934(14) 0.67010(13) 0.83124(11)
C5 C 0.38604(13) 0.76802(12) 0.80559(10)
H2 H 0.3964 0.7831 0.7540
C6 C 0.36720(11) 0.84590(11) 0.85632(9)
C7 C 0.36996(11) 0.95007(11) 0.82749(8)
C8 C 0.35822(10) 1.03066(10) 0.88464(8)
C9 C 0.36988(11) 1.12998(11) 0.86106(9)
H3 H 0.3815 1.1431 0.8096
C10 C 0.36419(11) 1.20803(11) 0.91344(9)
C11 C 0.34511(11) 1.18716(11) 0.99085(9)
C12 C 0.33219(11) 1.08972(11) 1.01351(8)
H4 H 0.3184 1.0768 1.0642
C13 C 0.33963(9) 1.00990(10) 0.96077(8)
C14 C 0.32111(10) 0.90436(10) 0.98646(7)
C15 C 0.3615(2) 0.52032(15) 1.00657(16)
H5 H 0.4143 0.5524 1.0516
H6 H 0.3680 0.4488 1.0131
H7 H 0.2918 0.5407 1.0077
C16 C 0.4172(3) 0.6076(2) 0.70589(15)
H8 H 0.3542 0.6409 0.6724
H9 H 0.4254 0.5449 0.6801
H10 H 0.4781 0.6492 0.7100
C17 C 0.40321(18) 1.33035(15) 0.82300(13)
H11 H 0.4693 1.2982 0.8251
H12 H 0.4108 1.4017 0.8192
H13 H 0.3485 1.3069 0.7747
C18 C 0.3161(2) 1.25420(16) 1.11426(12)
H14 H 0.2482 1.2218 1.1040
H15 H 0.3145 1.3177 1.1410
H16 H 0.3704 1.2127 1.1501
C19 C 0.20836(10) 0.89023(10) 0.99188(7)
C20 C 0.11237(10) 0.89863(10) 0.92945(8)
H17 H 0.1096 0.9158 0.8747
C21 C 0.02056(10) 0.88043(12) 0.95190(8)
C22 C 0.02465(11) 0.85366(14) 1.03585(9)
C23 C 0.12101(11) 0.84651(13) 1.09667(9)
H18 H 0.1251 0.8296 1.1517
C24 C 0.21265(10) 0.86565(11) 1.07280(8)
C25 C 0.32414(11) 0.86351(12) 1.12375(8)
O1 O 0.38586(7) 0.88831(8) 1.07356(6)
C26 C -0.08961(15) 0.9150(2) 0.81444(11)
H19 H -0.0549 0.9783 0.8142
H20 H -0.1637 0.9210 0.7839
H21 H -0.0572 0.8650 0.7883
C27 C -0.07232(16) 0.8096(3) 1.13055(13)
H22 H -0.0353 0.7471 1.1458
H23 H -0.1445 0.8023 1.1318
H24 H -0.0376 0.8607 1.1696
O2 O 0.37672(14) 0.54860(10) 0.92837(10)
O3 O 0.40807(15) 0.58972(11) 0.78676(10)
O4 O 0.38453(11) 0.96868(9) 0.75960(7)
O5 O 0.37502(11) 1.30698(9) 0.89689(8)
O6 O 0.33848(11) 1.26936(9) 1.03752(7)
O7 O -0.07941(8) 0.88615(12) 0.89859(7)
O8 O -0.07162(8) 0.83723(14) 1.04795(7)
O9 O 0.36383(9) 0.84470(11) 1.19671(6)
loop_
_geom_bond_atom_site_label_1
_geom_bond_atom_site_label_2
_geom_bond_site_symmetry_1
_geom_bond_site_symmetry_2
C1 C2 1_555 1_555
C2 H1 1_555 1_555
C3 C2 1_555 1_555
C4 C3 1_555 1_555
C5 C4 1_555 1_555
H2 C5 1_555 1_555
C6 C1 1_555 1_555
C7 C6 1_555 1_555
C8 C7 1_555 1_555
C9 C8 1_555 1_555
H3 C9 1_555 1_555
C10 C9 1_555 1_555
C11 C10 1_555 1_555
C12 C11 1_555 1_555
H4 C12 1_555 1_555
C13 C8 1_555 1_555
C14 C1 1_555 1_555
C15 H5 1_555 1_555
H6 C15 1_555 1_555
H7 C15 1_555 1_555
C16 H8 1_555 1_555
H9 C16 1_555 1_555
H10 C16 1_555 1_555
C17 H11 1_555 1_555
H12 C17 1_555 1_555
H13 C17 1_555 1_555
C18 H14 1_555 1_555
H15 C18 1_555 1_555
H16 C18 1_555 1_555
C19 C14 1_555 1_555
C20 C19 1_555 1_555
H17 C20 1_555 1_555
C21 C20 1_555 1_555
C22 C21 1_555 1_555
C23 C22 1_555 1_555
H18 C23 1_555 1_555
C24 C19 1_555 1_555
C25 C24 1_555 1_555
O1 C14 1_555 1_555
C26 H19 1_555 1_555
H20 C26 1_555 1_555
H21 C26 1_555 1_555
C27 H22 1_555 1_555
H23 C27 1_555 1_555
H24 C27 1_555 1_555
O2 C3 1_555 1_555
O3 C4 1_555 1_555
O4 C7 1_555 1_555
O5 C10 1_555 1_555
O6 C11 1_555 1_555
O7 C21 1_555 1_555
O8 C22 1_555 1_555
O9 C25 1_555 1_555
C5 C6 1_555 1_555
C12 C13 1_555 1_555
C13 C14 1_555 1_555
C15 O2 1_555 1_555
C16 O3 1_555 1_555
C17 O5 1_555 1_555
C18 O6 1_555 1_555
C23 C24 1_555 1_555
C25 O1 1_555 1_555
C26 O7 1_555 1_555
C27 O8 1_555 1_555

#END
