
#######################################################################
#
#                 Cambridge Crystallographic Data Centre
#                                CCDC 
#
#######################################################################
#
# If this CIF has been generated from an entry in the Cambridge 
# Structural Database, then it will include bibliographic, chemical, 
# crystal, experimental, refinement or atomic coordinate data resulting 
# from the CCDC's data processing and validation procedures.
#
#######################################################################

data_SIMYAP
_chemical_formula_moiety         'C31 H39 N1 O1'
_chemical_name_systematic        
4-t-Butyl-2-(((E)-2,6-diisopropylphenylimino)methyl)-6-(1-phenylethyl)phenol
_symmetry_cell_setting           orthorhombic
_symmetry_space_group_name_H-M   'P c a 21'
_symmetry_Int_Tables_number      29
_space_group_name_Hall           'P 2c -2ac'
loop_
_symmetry_equiv_pos_site_id
_symmetry_equiv_pos_as_xyz
1 x,y,z
2 -x,-y,1/2+z
3 1/2+x,-y,z
4 1/2-x,y,1/2+z
_cell_length_a                   25.273(4)
_cell_length_b                   9.5496(18)
_cell_length_c                   11.115(2)
_cell_angle_alpha                90
_cell_angle_beta                 90
_cell_angle_gamma                90
_cell_volume                     2682.57
_exptl_crystal_colour            yellow
_exptl_crystal_description       block
_chemical_melting_point          '400 K'
_cell_formula_units_Z            4
_exptl_crystal_recrystallization_method pentane
loop_
_atom_site_label
_atom_site_type_symbol
_atom_site_fract_x
_atom_site_fract_y
_atom_site_fract_z
O1 O 0.44217(8) 0.0843(2) 0.9096(2)
H1 H 0.4093(15) 0.115(4) 0.937(4)
N1 N 0.34993(8) 0.2094(3) 0.9030(2)
C1 C 0.29497(10) 0.2202(3) 0.9371(3)
C2 C 0.26067(11) 0.1171(3) 0.8930(3)
C3 C 0.20812(12) 0.1214(4) 0.9313(3)
H2 H 0.1845 0.0538 0.9039
C4 C 0.19064(13) 0.2234(4) 1.0087(4)
H3 H 0.1555 0.2246 1.0331
C5 C 0.22512(13) 0.3240(4) 1.0501(3)
H4 H 0.2126 0.3936 1.1012
C6 C 0.27828(12) 0.3240(3) 1.0173(3)
C7 C 0.31638(13) 0.4301(4) 1.0708(3)
H5 H 0.3432 0.4506 1.0096
C8 C 0.3442(4) 0.3728(10) 1.1771(9)
H6 H 0.3612 0.2864 1.1558
H7 H 0.3192 0.3560 1.2404
H8 H 0.3703 0.4387 1.2042
C9 C 0.2903(4) 0.5695(8) 1.1056(11)
H9 H 0.2724 0.6078 1.0370
H10 H 0.3169 0.6340 1.1324
H11 H 0.2653 0.5539 1.1692
C13 C 0.27988(12) 0.0008(3) 0.8111(3)
H19 H 0.3106 0.0365 0.7670
C14 C 0.23939(16) -0.0449(5) 0.7194(4)
H20 H 0.2287 0.0343 0.6720
H21 H 0.2091 -0.0831 0.7599
H22 H 0.2546 -0.1149 0.6679
C15 C 0.29860(19) -0.1216(4) 0.8871(4)
H23 H 0.3245 -0.0896 0.9440
H24 H 0.3141 -0.1915 0.8360
H25 H 0.2690 -0.1613 0.9293
C16 C 0.36706(10) 0.2802(3) 0.8142(3)
H26 H 0.3447 0.3457 0.7788
C17 C 0.42028(10) 0.2630(3) 0.7657(2)
C18 C 0.43582(11) 0.3420(3) 0.6666(3)
H27 H 0.4126 0.4092 0.6367
C19 C 0.48415(11) 0.3248(3) 0.6105(3)
C20 C 0.51775(11) 0.2242(3) 0.6607(3)
H28 H 0.5506 0.2102 0.6251
C21 C 0.50481(10) 0.1442(3) 0.7606(3)
C22 C 0.45548(10) 0.1634(3) 0.8132(2)
C23 C 0.50008(12) 0.4134(3) 0.5021(3)
C24 C 0.45576(16) 0.4140(5) 0.4080(4)
H29 H 0.4237 0.4480 0.4440
H30 H 0.4502 0.3205 0.3788
H31 H 0.4655 0.4738 0.3423
C25 C 0.50891(19) 0.5640(4) 0.5434(4)
H32 H 0.4775 0.5980 0.5823
H33 H 0.5168 0.6218 0.4751
H34 H 0.5380 0.5669 0.5990
C26 C 0.55002(16) 0.3593(5) 0.4403(4)
H35 H 0.5787 0.3581 0.4969
H36 H 0.5589 0.4197 0.3742
H37 H 0.5439 0.2662 0.4109
C27 C 0.54360(11) 0.0404(3) 0.8163(3)
H38 H 0.5223 -0.0311 0.8570
C28 C 0.57752(15) -0.0359(4) 0.7233(4)
H39 H 0.6009 -0.0999 0.7635
H40 H 0.5980 0.0310 0.6787
H41 H 0.5550 -0.0869 0.6692
C29 C 0.57654(11) 0.1120(3) 0.9126(3)
C30 C 0.61133(12) 0.2191(4) 0.8845(3)
H42 H 0.6149 0.2469 0.8047
C31 C 0.64090(15) 0.2858(4) 0.9719(4)
H43 H 0.6639 0.3579 0.9511
C32 C 0.63612(18) 0.2449(5) 1.0891(4)
H44 H 0.6560 0.2889 1.1485
C33 C 0.60198(18) 0.1388(5) 1.1194(4)
H45 H 0.5987 0.1112 1.1993
C34 C 0.57252(13) 0.0728(4) 1.0313(3)
H46 H 0.5496 0.0007 1.0526
C10? C 0.31638(13) 0.4301(4) 1.0708(3)
H12? H 0.3517 0.4052 1.0413
C11? C 0.3184(5) 0.4162(15) 1.2099(8)
H13? H 0.3426 0.4838 1.2420
H14? H 0.3299 0.3237 1.2311
H15? H 0.2837 0.4325 1.2426
C12? C 0.3053(5) 0.5723(10) 1.0256(14)
H16? H 0.3053 0.5715 0.9392
H17? H 0.3320 0.6356 1.0540
H18? H 0.2712 0.6023 1.0540
loop_
_geom_bond_atom_site_label_1
_geom_bond_atom_site_label_2
_geom_bond_site_symmetry_1
_geom_bond_site_symmetry_2
O1 H1 1_555 1_555
N1 C1 1_555 1_555
C1 C2 1_555 1_555
C2 C3 1_555 1_555
C3 H2 1_555 1_555
C4 C3 1_555 1_555
H3 C4 1_555 1_555
C5 C4 1_555 1_555
H4 C5 1_555 1_555
C6 C1 1_555 1_555
C7 C6 1_555 1_555
H5 C7 1_555 1_555
C8 C7 1_555 1_555
H6 C8 1_555 1_555
H7 C8 1_555 1_555
H8 C8 1_555 1_555
C9 C7 1_555 1_555
H9 C9 1_555 1_555
H10 C9 1_555 1_555
H11 C9 1_555 1_555
C13 C2 1_555 1_555
H19 C13 1_555 1_555
C14 C13 1_555 1_555
H20 C14 1_555 1_555
H21 C14 1_555 1_555
H22 C14 1_555 1_555
C15 C13 1_555 1_555
H23 C15 1_555 1_555
H24 C15 1_555 1_555
H25 C15 1_555 1_555
C16 N1 1_555 1_555
H26 C16 1_555 1_555
C17 C16 1_555 1_555
C18 C17 1_555 1_555
H27 C18 1_555 1_555
C19 C18 1_555 1_555
C20 C19 1_555 1_555
H28 C20 1_555 1_555
C21 C20 1_555 1_555
C22 O1 1_555 1_555
C23 C19 1_555 1_555
C24 C23 1_555 1_555
H29 C24 1_555 1_555
H30 C24 1_555 1_555
H31 C24 1_555 1_555
C25 C23 1_555 1_555
H32 C25 1_555 1_555
H33 C25 1_555 1_555
H34 C25 1_555 1_555
C26 C23 1_555 1_555
H35 C26 1_555 1_555
H36 C26 1_555 1_555
H37 C26 1_555 1_555
C27 C21 1_555 1_555
H38 C27 1_555 1_555
C28 C27 1_555 1_555
H39 C28 1_555 1_555
H40 C28 1_555 1_555
H41 C28 1_555 1_555
C29 C27 1_555 1_555
C30 C29 1_555 1_555
H42 C30 1_555 1_555
C31 C30 1_555 1_555
H43 C31 1_555 1_555
C32 C31 1_555 1_555
H44 C32 1_555 1_555
C33 C32 1_555 1_555
H45 C33 1_555 1_555
C34 C29 1_555 1_555
H46 C34 1_555 1_555
C5 C6 1_555 1_555
C17 C22 1_555 1_555
C21 C22 1_555 1_555
C33 C34 1_555 1_555

#END
