
#######################################################################
#
#                 Cambridge Crystallographic Data Centre
#                                CCDC 
#
#######################################################################
#
# If this CIF has been generated from an entry in the Cambridge 
# Structural Database, then it will include bibliographic, chemical, 
# crystal, experimental, refinement or atomic coordinate data resulting 
# from the CCDC's data processing and validation procedures.
#
#######################################################################

data_SIMZAR
_chemical_formula_moiety         'C46 H68 B2 Mg2 N6 O8,C6 H6'
_chemical_name_systematic        
'bis(\m~2~-ethoxo)-bis(tris(4,4-dimethyl-4,5-dihydro-1,3-oxazol-2-yl)(phenyl)borate)-di-magnesium benzene solvate'
_symmetry_cell_setting           monoclinic
_symmetry_space_group_name_H-M   'P 21/c'
_symmetry_Int_Tables_number      14
_space_group_name_Hall           '-P 2ybc'
loop_
_symmetry_equiv_pos_site_id
_symmetry_equiv_pos_as_xyz
1 x,y,z
2 -x,1/2+y,1/2-z
3 -x,-y,-z
4 x,1/2-y,1/2+z
_cell_length_a                   10.4348(11)
_cell_length_b                   19.441(2)
_cell_length_c                   14.2620(15)
_cell_angle_alpha                90
_cell_angle_beta                 99.963(2)
_cell_angle_gamma                90
_cell_volume                     2849.6
_exptl_crystal_colour            colorless
_exptl_crystal_description       prism
_cell_formula_units_Z            2
_chemical_properties_physical    Air-sensitive
loop_
_atom_site_label
_atom_site_type_symbol
_atom_site_fract_x
_atom_site_fract_y
_atom_site_fract_z
Mg1 Mg 0.59028(6) 0.55841(3) 0.52443(4)
B1 B 0.7754(2) 0.71057(11) 0.58137(15)
C1 C 0.5783(2) 0.64593(11) 0.28765(14)
H1 H 0.5034 0.6208 0.3032
H2 H 0.5783 0.6428 0.2191
H3 H 0.5728 0.6943 0.3058
C2 C 0.70369(19) 0.61463(10) 0.34191(12)
C3 C 0.7236(2) 0.54100(11) 0.31192(15)
H4 H 0.8062 0.5235 0.3471
H5 H 0.7254 0.5396 0.2435
H6 H 0.652 0.5123 0.3259
C4 C 0.8211(2) 0.65943(10) 0.33517(13)
H7 H 0.9 0.6311 0.3355
H8 H 0.8059 0.6878 0.2766
C5 C 0.76574(18) 0.67132(10) 0.48067(13)
C6 C 0.6242(2) 0.52204(11) 0.77355(15)
H9 H 0.5741 0.4936 0.7235
H10 H 0.5937 0.5138 0.8338
H11 H 0.7167 0.5101 0.7807
C7 C 0.60600(19) 0.59740(10) 0.74670(13)
C8 C 0.4657(2) 0.62109(12) 0.73898(15)
H12 H 0.4611 0.671 0.7291
H13 H 0.4339 0.6096 0.7978
H14 H 0.4118 0.598 0.685
C9 C 0.6983(2) 0.64427(11) 0.81233(13)
H15 H 0.6518 0.6689 0.8571
H16 H 0.7708 0.6176 0.8493
C10 C 0.71714(18) 0.66536(9) 0.65963(12)
C11 C 1.1439(4) 0.7554(2) 0.8046(3)
H17 H 1.1304 0.8035 0.821
H18 H 1.2317 0.741 0.8338
H19 H 1.0797 0.7263 0.8283
C12 C 1.1280(2) 0.74828(14) 0.6973(2)
C13 C 1.2270(3) 0.7905(2) 0.6585(4)
H20 H 1.2203 0.7815 0.5903
H21 H 1.3144 0.7782 0.6915
H22 H 1.2111 0.8394 0.6686
C14 C 1.1272(2) 0.67335(15) 0.6700(2)
H23 H 1.1816 0.6655 0.6207
H24 H 1.1604 0.6444 0.7261
C15 C 0.9277(2) 0.72021(10) 0.62500(13)
C16 C 0.68767(19) 0.77995(10) 0.56010(12)
C17 C 0.7388(2) 0.84647(10) 0.56626(13)
H25 H 0.8296 0.8527 0.5865
C18 C 0.6601(2) 0.90391(11) 0.54346(14)
H26 H 0.6977 0.9485 0.5478
C19 C 0.5274(2) 0.89650(12) 0.51453(14)
H27 H 0.4736 0.9357 0.4993
C20 C 0.4743(2) 0.83129(12) 0.50813(15)
H28 H 0.3833 0.8255 0.4884
C21 C 0.5531(2) 0.77431(11) 0.53040(14)
H29 H 0.5146 0.7299 0.5254
C22 C 0.3013(2) 0.58828(12) 0.45131(18)
H30 H 0.3126 0.6113 0.3914
H31 H 0.3049 0.6241 0.501
C23 C 0.1733(3) 0.55576(16) 0.4375(2)
H32 H 0.1688 0.5201 0.3885
H33 H 0.1061 0.5905 0.4173
H34 H 0.1593 0.5349 0.4974
N1 N 0.69700(15) 0.61906(8) 0.44605(10)
N2 N 0.64557(15) 0.61089(8) 0.65216(10)
N3 N 0.99480(17) 0.77197(9) 0.65643(13)
O1 O 0.83380(13) 0.70232(7) 0.41981(9)
O2 O 0.74568(14) 0.69181(7) 0.74833(9)
O3 O 0.99321(15) 0.65782(8) 0.63382(12)
O4 O 0.40516(12) 0.54197(6) 0.47822(8)
Mg1B Mg 0.40972(6) 0.44159(3) 0.47557(4)
B1B B 0.2246(2) 0.28943(11) 0.41863(15)
C1B C 0.4217(2) 0.35407(11) 0.71235(14)
H1B H 0.4966 0.3792 0.6968
H2B H 0.4217 0.3572 0.7809
H3B H 0.4272 0.3057 0.6942
C2B C 0.29631(19) 0.38537(10) 0.65809(12)
C3B C 0.2764(2) 0.45900(11) 0.68808(15)
H4B H 0.1938 0.4765 0.6529
H5B H 0.2746 0.4604 0.7565
H6B H 0.348 0.4877 0.6741
C4B C 0.1789(2) 0.34057(10) 0.66483(13)
H7B H 0.1 0.3689 0.6645
H8B H 0.1941 0.3122 0.7234
C5B C 0.23426(18) 0.32868(10) 0.51933(13)
C6B C 0.3758(2) 0.47796(11) 0.22645(15)
H9B H 0.4259 0.5064 0.2765
H10B H 0.4063 0.4862 0.1662
H11B H 0.2833 0.4899 0.2193
C7B C 0.39400(19) 0.40260(10) 0.25330(13)
C8B C 0.5343(2) 0.37891(12) 0.26102(15)
H12B H 0.5389 0.329 0.2709
H13B H 0.5661 0.3904 0.2022
H14B H 0.5882 0.402 0.315
C9B C 0.3017(2) 0.35573(11) 0.18767(13)
H15B H 0.3482 0.3311 0.1429
H16B H 0.2292 0.3824 0.1507
C10B C 0.28286(18) 0.33464(9) 0.34037(12)
C11B C -0.1439(4) 0.2446(2) 0.1954(3)
H17B H -0.1304 0.1965 0.179
H18B H -0.2317 0.259 0.1662
H19B H -0.0797 0.2737 0.1717
C12B C -0.1280(2) 0.25172(14) 0.3027(2)
C13B C -0.2270(3) 0.2095(2) 0.3415(4)
H20B H -0.2203 0.2185 0.4097
H21B H -0.3144 0.2218 0.3085
H22B H -0.2111 0.1606 0.3314
C14B C -0.1272(2) 0.32665(15) 0.3300(2)
H23B H -0.1816 0.3345 0.3793
H24B H -0.1604 0.3556 0.2739
C15B C 0.0723(2) 0.27979(10) 0.37500(13)
C16B C 0.31233(19) 0.22005(10) 0.43990(12)
C17B C 0.2612(2) 0.15353(10) 0.43374(13)
H25B H 0.1704 0.1473 0.4135
C18B C 0.3399(2) 0.09609(11) 0.45654(14)
H26B H 0.3023 0.0515 0.4522
C19B C 0.4726(2) 0.10350(12) 0.48547(14)
H27B H 0.5264 0.0643 0.5007
C20B C 0.5257(2) 0.16871(12) 0.49187(15)
H28B H 0.6167 0.1745 0.5116
C21B C 0.4469(2) 0.22569(11) 0.46960(14)
H29B H 0.4854 0.2701 0.4746
C22B C 0.6987(2) 0.41172(12) 0.54869(18)
H30B H 0.6874 0.3887 0.6086
H31B H 0.6951 0.3759 0.499
C23B C 0.8267(3) 0.44424(16) 0.5625(2)
H32B H 0.8312 0.4799 0.6115
H33B H 0.8939 0.4095 0.5827
H34B H 0.8407 0.4651 0.5026
N1B N 0.30300(15) 0.38094(8) 0.55395(10)
N2B N 0.35443(15) 0.38911(8) 0.34784(10)
N3B N 0.00520(17) 0.22803(9) 0.34357(13)
O1B O 0.16620(13) 0.29768(7) 0.58019(9)
O2B O 0.25432(14) 0.30819(7) 0.25167(9)
O3B O 0.00679(15) 0.34218(8) 0.36618(12)
O4B O 0.59484(12) 0.45803(6) 0.52178(8)
loop_
_geom_bond_atom_site_label_1
_geom_bond_atom_site_label_2
_geom_bond_site_symmetry_1
_geom_bond_site_symmetry_2
Mg1 N1 1_555 1_555
B1 C5 1_555 1_555
C1 H1 1_555 1_555
H2 C1 1_555 1_555
H3 C1 1_555 1_555
C2 C1 1_555 1_555
C3 C2 1_555 1_555
H4 C3 1_555 1_555
H5 C3 1_555 1_555
H6 C3 1_555 1_555
C4 C2 1_555 1_555
H7 C4 1_555 1_555
H8 C4 1_555 1_555
C5 N1 1_555 1_555
C6 H9 1_555 1_555
H10 C6 1_555 1_555
H11 C6 1_555 1_555
C7 C6 1_555 1_555
C8 C7 1_555 1_555
H12 C8 1_555 1_555
H13 C8 1_555 1_555
H14 C8 1_555 1_555
C9 C7 1_555 1_555
H15 C9 1_555 1_555
H16 C9 1_555 1_555
C10 B1 1_555 1_555
C11 H17 1_555 1_555
H18 C11 1_555 1_555
H19 C11 1_555 1_555
C12 C11 1_555 1_555
C13 C12 1_555 1_555
H20 C13 1_555 1_555
H21 C13 1_555 1_555
H22 C13 1_555 1_555
C14 C12 1_555 1_555
H23 C14 1_555 1_555
H24 C14 1_555 1_555
C15 B1 1_555 1_555
C16 B1 1_555 1_555
C17 C16 1_555 1_555
H25 C17 1_555 1_555
C18 C17 1_555 1_555
H26 C18 1_555 1_555
C19 C18 1_555 1_555
H27 C19 1_555 1_555
C20 C19 1_555 1_555
H28 C20 1_555 1_555
C21 C16 1_555 1_555
H29 C21 1_555 1_555
C22 H30 1_555 1_555
H31 C22 1_555 1_555
C23 C22 1_555 1_555
H32 C23 1_555 1_555
H33 C23 1_555 1_555
H34 C23 1_555 1_555
N1 C2 1_555 1_555
N2 Mg1 1_555 1_555
N3 C12 1_555 1_555
O1 C4 1_555 1_555
O2 C9 1_555 1_555
O3 C14 1_555 1_555
O4 Mg1 1_555 1_555
Mg1B O4 1_555 1_555
B1B C5B 1_555 1_555
C1B H1B 1_555 1_555
H2B C1B 1_555 1_555
H3B C1B 1_555 1_555
C2B C1B 1_555 1_555
C3B C2B 1_555 1_555
H4B C3B 1_555 1_555
H5B C3B 1_555 1_555
H6B C3B 1_555 1_555
C4B C2B 1_555 1_555
H7B C4B 1_555 1_555
H8B C4B 1_555 1_555
C5B N1B 1_555 1_555
C6B H9B 1_555 1_555
H10B C6B 1_555 1_555
H11B C6B 1_555 1_555
C7B C6B 1_555 1_555
C8B C7B 1_555 1_555
H12B C8B 1_555 1_555
H13B C8B 1_555 1_555
H14B C8B 1_555 1_555
C9B C7B 1_555 1_555
H15B C9B 1_555 1_555
H16B C9B 1_555 1_555
C10B B1B 1_555 1_555
C11B H17B 1_555 1_555
H18B C11B 1_555 1_555
H19B C11B 1_555 1_555
C12B C11B 1_555 1_555
C13B C12B 1_555 1_555
H20B C13B 1_555 1_555
H21B C13B 1_555 1_555
H22B C13B 1_555 1_555
C14B C12B 1_555 1_555
H23B C14B 1_555 1_555
H24B C14B 1_555 1_555
C15B B1B 1_555 1_555
C16B B1B 1_555 1_555
C17B C16B 1_555 1_555
H25B C17B 1_555 1_555
C18B C17B 1_555 1_555
H26B C18B 1_555 1_555
C19B C18B 1_555 1_555
H27B C19B 1_555 1_555
C20B C19B 1_555 1_555
H28B C20B 1_555 1_555
C21B C16B 1_555 1_555
H29B C21B 1_555 1_555
C22B H30B 1_555 1_555
H31B C22B 1_555 1_555
C23B C22B 1_555 1_555
H32B C23B 1_555 1_555
H33B C23B 1_555 1_555
H34B C23B 1_555 1_555
N1B Mg1B 1_555 1_555
N2B Mg1B 1_555 1_555
N3B C12B 1_555 1_555
O1B C4B 1_555 1_555
O2B C9B 1_555 1_555
O3B C14B 1_555 1_555
O4B Mg1 1_555 1_555
C5 O1 1_555 1_555
C7 N2 1_555 1_555
C10 N2 1_555 1_555
C10 O2 1_555 1_555
C15 N3 1_555 1_555
C15 O3 1_555 1_555
C20 C21 1_555 1_555
C22 O4 1_555 1_555
Mg1B O4B 1_555 1_555
C2B N1B 1_555 1_555
C5B O1B 1_555 1_555
C7B N2B 1_555 1_555
C10B N2B 1_555 1_555
C10B O2B 1_555 1_555
C15B N3B 1_555 1_555
C15B O3B 1_555 1_555
C20B C21B 1_555 1_555
C22B O4B 1_555 1_555

#END
