
#######################################################################
#
#                 Cambridge Crystallographic Data Centre
#                                CCDC 
#
#######################################################################
#
# If this CIF has been generated from an entry in the Cambridge 
# Structural Database, then it will include bibliographic, chemical, 
# crystal, experimental, refinement or atomic coordinate data resulting 
# from the CCDC's data processing and validation procedures.
#
#######################################################################

data_SIMZAQ
_chemical_formula_moiety         'C16 H21 N3 O2 S2'
_chemical_name_systematic        
(S)-1-Methyl-2-(1-(p-tolylsulfonyl)pyrrolidin-2-ylmethylsulfanyl)-1H-imidazole
_symmetry_cell_setting           orthorhombic
_symmetry_space_group_name_H-M   'P 21 21 21'
_symmetry_Int_Tables_number      19
_space_group_name_Hall           'P 2ac 2ab'
loop_
_symmetry_equiv_pos_site_id
_symmetry_equiv_pos_as_xyz
1 x,y,z
2 1/2-x,-y,1/2+z
3 -x,1/2+y,1/2-z
4 1/2+x,1/2-y,-z
_cell_length_a                   6.0881(5)
_cell_length_b                   14.7605(11)
_cell_length_c                   18.9354(14)
_cell_angle_alpha                90
_cell_angle_beta                 90
_cell_angle_gamma                90
_cell_volume                     1701.6
_exptl_crystal_colour            colorless
_exptl_crystal_description       Block
_cell_formula_units_Z            4
_exptl_crystal_recrystallization_method ethanol
loop_
_atom_site_label
_atom_site_type_symbol
_atom_site_fract_x
_atom_site_fract_y
_atom_site_fract_z
S1 S 0.3383(2) 0.67096(9) 0.23080(6)
S2 S 0.1308(2) 0.60811(10) 0.42437(6)
O1 O 0.5722(6) 0.6738(3) 0.22838(19)
O2 O 0.2198(7) 0.7429(2) 0.2626(2)
N1 N 0.2711(6) 0.5796(3) 0.2731(2)
N2 N -0.2291(7) 0.5450(3) 0.4949(2)
N3 N -0.0441(7) 0.6493(2) 0.55296(19)
C1 C 0.0066(9) 0.6334(4) -0.0688(3)
H1 H -0.1437 0.6528 -0.0708
H2 H 0.0165 0.5713 -0.0836
H3 H 0.0941 0.6705 -0.0995
C2 C 0.0896(8) 0.6419(3) 0.0057(2)
C3 C -0.0376(8) 0.6812(3) 0.0575(3)
H4 H -0.1769 0.7022 0.0457
C4 C 0.0342(8) 0.6904(3) 0.1260(2)
H5 H -0.0551 0.7171 0.1600
C5 C 0.2426(7) 0.6592(3) 0.1435(2)
C6 C 0.3746(8) 0.6195(3) 0.0924(2)
H6 H 0.5138 0.5982 0.1039
C7 C 0.2972(8) 0.6121(3) 0.0246(2)
H7 H 0.3868 0.5863 -0.0097
C8 C 0.3901(9) 0.4944(4) 0.2558(3)
H8 H 0.4879 0.4773 0.2939
H9 H 0.4753 0.5014 0.2128
C9 C 0.2129(9) 0.4248(4) 0.2460(3)
H10 H 0.2645 0.3649 0.2591
H11 H 0.1621 0.4234 0.1975
C10 C 0.0331(10) 0.4565(4) 0.2952(3)
H12 H 0.0646 0.4392 0.3436
H13 H -0.1078 0.4312 0.2816
C11 C 0.0335(8) 0.5598(3) 0.2870(2)
H14 H -0.0520 0.5760 0.2450
C12 C -0.0543(9) 0.6107(4) 0.3486(2)
H15 H -0.1945 0.5848 0.3623
H16 H -0.0794 0.6731 0.3350
C13 C -0.0626(8) 0.5992(3) 0.4934(2)
C14 C -0.3253(9) 0.5614(3) 0.5584(3)
H17 H -0.4523 0.5330 0.5743
C15 C -0.2137(8) 0.6236(3) 0.5949(3)
H18 H -0.2457 0.6449 0.6400
C16 C 0.1183(9) 0.7187(4) 0.5690(3)
H19 H 0.0685 0.7544 0.6082
H20 H 0.1381 0.7570 0.5286
H21 H 0.2554 0.6904 0.5808
loop_
_geom_bond_atom_site_label_1
_geom_bond_atom_site_label_2
_geom_bond_site_symmetry_1
_geom_bond_site_symmetry_2
S1 O1 1_555 1_555
S2 C12 1_555 1_555
O2 S1 1_555 1_555
N1 S1 1_555 1_555
N2 C13 1_555 1_555
N3 C13 1_555 1_555
C1 H1 1_555 1_555
H2 C1 1_555 1_555
H3 C1 1_555 1_555
C2 C1 1_555 1_555
C3 C2 1_555 1_555
H4 C3 1_555 1_555
C4 C3 1_555 1_555
H5 C4 1_555 1_555
C5 S1 1_555 1_555
C6 C5 1_555 1_555
H6 C6 1_555 1_555
C7 C2 1_555 1_555
H7 C7 1_555 1_555
C8 N1 1_555 1_555
H8 C8 1_555 1_555
H9 C8 1_555 1_555
C9 C8 1_555 1_555
H10 C9 1_555 1_555
H11 C9 1_555 1_555
C10 C9 1_555 1_555
H12 C10 1_555 1_555
H13 C10 1_555 1_555
C11 N1 1_555 1_555
H14 C11 1_555 1_555
C12 C11 1_555 1_555
H15 C12 1_555 1_555
H16 C12 1_555 1_555
C13 S2 1_555 1_555
C14 N2 1_555 1_555
H17 C14 1_555 1_555
C15 N3 1_555 1_555
H18 C15 1_555 1_555
C16 N3 1_555 1_555
H19 C16 1_555 1_555
H20 C16 1_555 1_555
H21 C16 1_555 1_555
C4 C5 1_555 1_555
C6 C7 1_555 1_555
C10 C11 1_555 1_555
C14 C15 1_555 1_555

#END
