
#######################################################################
#
#                 Cambridge Crystallographic Data Centre
#                                CCDC 
#
#######################################################################
#
# If this CIF has been generated from an entry in the Cambridge 
# Structural Database, then it will include bibliographic, chemical, 
# crystal, experimental, refinement or atomic coordinate data resulting 
# from the CCDC's data processing and validation procedures.
#
#######################################################################

data_SINCOJ
_chemical_formula_moiety         'C11 H10 N2 O1'
_chemical_name_systematic        2-Cyano-3-(4-methylphenyl)acrylamide
_symmetry_cell_setting           monoclinic
_symmetry_space_group_name_H-M   'P 21/n'
_symmetry_Int_Tables_number      14
_space_group_name_Hall           '-P 2yn'
loop_
_symmetry_equiv_pos_site_id
_symmetry_equiv_pos_as_xyz
1 x,y,z
2 1/2-x,1/2+y,1/2-z
3 -x,-y,-z
4 1/2+x,1/2-y,1/2+z
_cell_length_a                   13.4278(11)
_cell_length_b                   10.9087(9)
_cell_length_c                   13.4767(11)
_cell_angle_alpha                90
_cell_angle_beta                 99.6090(10)
_cell_angle_gamma                90
_cell_volume                     1946.37
_cell_formula_units_Z            8
loop_
_atom_site_label
_atom_site_type_symbol
_atom_site_fract_x
_atom_site_fract_y
_atom_site_fract_z
O1 O 1.04717(7) 0.77281(11) 0.15935(7)
N1 N 1.04681(8) 0.82818(12) -0.00218(9)
H1 H 1.1080 0.8042 -0.0008
H2 H 1.0135 0.8595 -0.0563
C1 C 1.00365(10) 0.81685(13) 0.07936(10)
C2 C 0.85122(11) 0.85947(13) 0.15282(10)
H3 H 0.8908 0.8298 0.2111
C3 C 0.89593(10) 0.85956(13) 0.07071(10)
N2 N 0.80708(9) 0.91372(14) -0.10881(9)
C4 C 0.75005(10) 0.89891(13) 0.16416(10)
C5 C 0.70614(12) 0.84984(15) 0.24242(11)
H4 H 0.7430 0.7957 0.2877
C6 C 0.69432(11) 0.98466(14) 0.10064(11)
H5 H 0.7227 1.0214 0.0497
C7 C 0.59750(12) 1.01521(15) 0.11304(12)
H6 H 0.5617 1.0724 0.0699
C8 C 0.55195(11) 0.96282(14) 0.18824(11)
C9 C 0.44564(13) 0.99695(19) 0.19919(14)
H7 H 0.4473 1.0639 0.2456
H8 H 0.4131 0.9277 0.2241
H9 H 0.4088 1.0209 0.1349
C10 C 0.60876(12) 0.88054(15) 0.25350(11)
H10 H 0.5807 0.8456 0.3054
C11 C 0.84430(10) 0.89289(13) -0.02783(10)
O2 O 0.25513(7) 0.74768(10) 0.01140(7)
N3 N 0.25645(9) 0.69518(12) 0.17365(9)
N4 N 0.49025(9) 0.59752(13) 0.27944(9)
C12 C 0.29969(10) 0.70631(12) 0.09217(10)
C13 C 0.45541(10) 0.67264(12) 0.02086(10)
H11 H 0.4147 0.6990 -0.0379
C14 C 0.40841(10) 0.66763(12) 0.10169(10)
C15 C 0.55866(10) 0.64403(12) 0.00950(10)
C16 C 0.68149(12) 0.62857(14) -0.10310(11)
H12 H 0.6966 0.6355 -0.1677
C17 C 0.63430(10) 0.60545(14) 0.08800(10)
H13 H 0.6193 0.5963 0.1525
C18 C 0.73044(11) 0.58107(14) 0.07044(11)
H14 H 0.7796 0.5570 0.1239
C19 C 0.75622(11) 0.59143(13) -0.02470(11)
C20 C 0.58506(11) 0.65539(14) -0.08629(10)
H15 H 0.5367 0.6815 -0.1397
C21 C 0.86195(12) 0.56170(17) -0.04102(14)
H16 H 0.8642 0.4789 -0.0647
H17 H 0.9078 0.5705 0.0213
H18 H 0.8811 0.6168 -0.0901
C22 C 0.45628(10) 0.62763(13) 0.19963(10)
H19 H 0.2864(12) 0.6606(15) 0.2277(13)
H20 H 0.1927(13) 0.7193(15) 0.1686(12)
loop_
_geom_bond_atom_site_label_1
_geom_bond_atom_site_label_2
_geom_bond_site_symmetry_1
_geom_bond_site_symmetry_2
O1 C1 1_555 1_555
N1 H1 1_555 1_555
H2 N1 1_555 1_555
C1 N1 1_555 1_555
C2 H3 1_555 1_555
C3 C1 1_555 1_555
N2 C11 1_555 1_555
C4 C2 1_555 1_555
C5 C4 1_555 1_555
H4 C5 1_555 1_555
C6 C4 1_555 1_555
H5 C6 1_555 1_555
C7 C6 1_555 1_555
H6 C7 1_555 1_555
C8 C7 1_555 1_555
C9 C8 1_555 1_555
H7 C9 1_555 1_555
H8 C9 1_555 1_555
H9 C9 1_555 1_555
C10 C5 1_555 1_555
H10 C10 1_555 1_555
C11 C3 1_555 1_555
O2 C12 1_555 1_555
N3 C12 1_555 1_555
N4 C22 1_555 1_555
C12 C14 1_555 1_555
C13 H11 1_555 1_555
C14 C13 1_555 1_555
C15 C13 1_555 1_555
C16 H12 1_555 1_555
C17 C15 1_555 1_555
H13 C17 1_555 1_555
C18 C17 1_555 1_555
H14 C18 1_555 1_555
C19 C16 1_555 1_555
C20 C15 1_555 1_555
H15 C20 1_555 1_555
C21 C19 1_555 1_555
H16 C21 1_555 1_555
H17 C21 1_555 1_555
H18 C21 1_555 1_555
C22 C14 1_555 1_555
H19 N3 1_555 1_555
H20 N3 1_555 1_555
C2 C3 1_555 1_555
C8 C10 1_555 1_555
C16 C20 1_555 1_555
C18 C19 1_555 1_555

#END
