
#######################################################################
#
#                 Cambridge Crystallographic Data Centre
#                                CCDC 
#
#######################################################################
#
# If this CIF has been generated from an entry in the Cambridge 
# Structural Database, then it will include bibliographic, chemical, 
# crystal, experimental, refinement or atomic coordinate data resulting 
# from the CCDC's data processing and validation procedures.
#
#######################################################################

data_SINCOI
_chemical_formula_moiety         'C13 H12 N4 O3 S3'
_chemical_name_systematic        
2-Methyl-5-(3-(4-(methylsulfonyl)phenyl)-1,2,4-oxadiazol-5-ylmethylsulfanyl)-1,3,4-thiadiazole
_symmetry_cell_setting           monoclinic
_symmetry_space_group_name_H-M   'P 21/c'
_symmetry_Int_Tables_number      14
_space_group_name_Hall           '-P 2ybc'
loop_
_symmetry_equiv_pos_site_id
_symmetry_equiv_pos_as_xyz
1 x,y,z
2 -x,1/2+y,1/2-z
3 -x,-y,-z
4 x,1/2-y,1/2+z
_cell_length_a                   12.365(3)
_cell_length_b                   15.956(3)
_cell_length_c                   8.2400(16)
_cell_angle_alpha                90
_cell_angle_beta                 108.26(3)
_cell_angle_gamma                90
_cell_volume                     1543.85
_exptl_crystal_colour            colorless
_exptl_crystal_description       block
_cell_formula_units_Z            4
_exptl_crystal_recrystallization_method ethanol
loop_
_atom_site_label
_atom_site_type_symbol
_atom_site_fract_x
_atom_site_fract_y
_atom_site_fract_z
S1 S 0.72521(7) 0.34658(5) 0.36586(11)
O1 O 0.4584(2) 0.04592(14) 0.1689(3)
N1 N 0.7921(2) 0.19730(17) 0.4507(4)
C1 C 0.9215(3) 0.3017(2) 0.6335(5)
H1 H 0.9637 0.2532 0.6874
H2 H 0.8978 0.3329 0.7159
H3 H 0.9690 0.3363 0.5886
S2 S 0.52374(7) 0.27954(6) 0.09389(12)
O2 O 0.1594(2) 0.01484(14) 0.9643(3)
N2 N 0.6927(2) 0.18906(16) 0.3141(4)
C2 C 0.8194(3) 0.27461(18) 0.4915(4)
S3 S 0.10797(6) 0.07761(4) 0.83848(10)
O3 O 0.1006(2) 0.16209(13) 0.8943(3)
N3 N 0.3686(2) 0.15372(15) 0.2358(3)
C3 C 0.6486(3) 0.26122(18) 0.2582(4)
N4 N 0.4067(2) 0.01607(16) 0.2870(4)
C4 C 0.4766(3) 0.1743(2) 0.0265(4)
H4 H 0.4181 0.1771 -0.0840
H5 H 0.5401 0.1430 0.0120
C5 C 0.4305(3) 0.1279(2) 0.1470(4)
C6 C 0.3552(2) 0.08168(17) 0.3201(4)
C7 C 0.2925(2) 0.07993(17) 0.4449(4)
C8 C 0.2290(3) 0.14939(19) 0.4627(4)
H6 H 0.2247 0.1960 0.3933
C9 C 0.1727(3) 0.14945(18) 0.5821(4)
H7 H 0.1297 0.1956 0.5938
C10 C 0.1810(2) 0.07929(17) 0.6852(4)
C11 C 0.2437(3) 0.00997(18) 0.6702(4)
H8 H 0.2484 -0.0363 0.7407
C12 C -0.0297(3) 0.0440(2) 0.7251(4)
H9 H -0.0750 0.0415 0.8008
H10 H -0.0262 -0.0106 0.6782
H11 H -0.0636 0.0827 0.6342
C13 C 0.2993(2) 0.01041(18) 0.5485(4)
H12 H 0.3414 -0.0361 0.5361
loop_
_geom_bond_atom_site_label_1
_geom_bond_atom_site_label_2
_geom_bond_site_symmetry_1
_geom_bond_site_symmetry_2
S1 C2 1_555 1_555
O1 N4 1_555 1_555
N1 N2 1_555 1_555
C1 H1 1_555 1_555
H2 C1 1_555 1_555
H3 C1 1_555 1_555
S2 C3 1_555 1_555
O2 S3 1_555 1_555
N2 C3 1_555 1_555
C2 N1 1_555 1_555
S3 O3 1_555 1_555
N3 C5 1_555 1_555
C3 S1 1_555 1_555
N4 C6 1_555 1_555
C4 S2 1_555 1_555
H4 C4 1_555 1_555
H5 C4 1_555 1_555
C5 O1 1_555 1_555
C6 N3 1_555 1_555
C7 C6 1_555 1_555
C8 C7 1_555 1_555
H6 C8 1_555 1_555
C9 C8 1_555 1_555
H7 C9 1_555 1_555
C10 S3 1_555 1_555
C11 C10 1_555 1_555
H8 C11 1_555 1_555
C12 S3 1_555 1_555
H9 C12 1_555 1_555
H10 C12 1_555 1_555
H11 C12 1_555 1_555
C13 C7 1_555 1_555
H12 C13 1_555 1_555
C1 C2 1_555 1_555
C4 C5 1_555 1_555
C9 C10 1_555 1_555
C11 C13 1_555 1_555

#END
