
#######################################################################
#
#                 Cambridge Crystallographic Data Centre
#                                CCDC 
#
#######################################################################
#
# If this CIF has been generated from an entry in the Cambridge 
# Structural Database, then it will include bibliographic, chemical, 
# crystal, experimental, refinement or atomic coordinate data resulting 
# from the CCDC's data processing and validation procedures.
#
#######################################################################

data_SINCUP
_chemical_formula_moiety         'C11 H9 Cl1 N2 O1'
_chemical_name_systematic        3-(4-Chlorophenyl)-2-cyanobut-2-enamide
_symmetry_cell_setting           monoclinic
_symmetry_space_group_name_H-M   'P 21/n'
_symmetry_Int_Tables_number      14
_space_group_name_Hall           '-P 2yn'
loop_
_symmetry_equiv_pos_site_id
_symmetry_equiv_pos_as_xyz
1 x,y,z
2 1/2-x,1/2+y,1/2-z
3 -x,-y,-z
4 1/2+x,1/2-y,1/2+z
_cell_length_a                   18.014
_cell_length_b                   11.966
_cell_length_c                   25.055
_cell_angle_alpha                90
_cell_angle_beta                 98.57
_cell_angle_gamma                90
_cell_volume                     5340.44
_cell_formula_units_Z            20
loop_
_atom_site_label
_atom_site_type_symbol
_atom_site_fract_x
_atom_site_fract_y
_atom_site_fract_z
C1 C 0.4637(4) 0.8478(7) 0.9399(3)
C2 C 0.4322(4) 0.9521(6) 0.9442(3)
H1 H 0.4625 1.0153 0.9491
C3 C 0.3561(4) 0.9614(6) 0.9412(3)
H2 H 0.3351 1.0314 0.9449
C4 C 0.3094(4) 0.8685(6) 0.9328(3)
C5 C 0.3433(4) 0.7634(6) 0.9293(3)
H3 H 0.3133 0.7000 0.9240
C6 C 0.4187(4) 0.7528(7) 0.9333(3)
H4 H 0.4404 0.6826 0.9317
C7 C 0.2276(4) 0.8805(6) 0.9302(3)
C8 C 0.1890(4) 0.7949(6) 0.9614(3)
H5 H 0.1356 0.8004 0.9511
H6 H 0.2016 0.8090 0.9994
H7 H 0.2053 0.7212 0.9534
C9 C 0.1889(4) 0.9629(6) 0.9016(3)
C10 C 0.2234(4) 1.0324(6) 0.8649(3)
C11 C 0.1069(4) 0.9872(6) 0.9020(3)
Cl1 Cl 0.56100(12) 0.8357(2) 0.94427(9)
N1 N 0.2478(3) 1.0884(6) 0.8350(3)
N2 N 0.0689(3) 1.0221(5) 0.8553(2)
H8 H 0.0225 1.0408 0.8532
H9 H 0.0908 1.0258 0.8271
O1 O 0.0785(3) 0.9801(4) 0.94360(19)
C12 C 0.4755(4) 0.8474(6) 0.5424(3)
C13 C 0.4301(4) 0.7553(6) 0.5287(3)
H10 H 0.4518 0.6866 0.5231
C14 C 0.3530(4) 0.7645(7) 0.5234(4)
H11 H 0.3236 0.7012 0.5151
C15 C 0.3181(4) 0.8675(6) 0.5303(3)
C16 C 0.3660(4) 0.9600(6) 0.5434(3)
H12 H 0.3449 1.0291 0.5491
C17 C 0.4436(4) 0.9512(6) 0.5481(3)
H13 H 0.4737 1.0142 0.5549
C18 C 0.2372(4) 0.8771(6) 0.5285(3)
C19 C 0.2009(4) 0.7880(6) 0.5584(3)
H14 H 0.2156 0.7978 0.5965
H15 H 0.2167 0.7157 0.5479
H16 H 0.1473 0.7939 0.5498
C20 C 0.1972(4) 0.9602(6) 0.5006(3)
C21 C 0.2322(4) 1.0332(6) 0.4648(3)
C22 C 0.1157(4) 0.9802(6) 0.5018(3)
Cl2 Cl 0.57167(11) 0.83424(18) 0.55126(9)
N3 N 0.2540(4) 1.0918(5) 0.4347(2)
N4 N 0.0748(3) 1.0144(5) 0.4561(2)
H17 H 0.0279 1.0292 0.4553
H18 H 0.0953 1.0218 0.4274
O2 O 0.0880(3) 0.9685(4) 0.54411(19)
C23 C 0.4669(4) 0.8330(6) 0.3414(3)
C24 C 0.4367(4) 0.9382(6) 0.3410(3)
H19 H 0.4675 1.0005 0.3414
C25 C 0.3604(4) 0.9515(7) 0.3400(3)
H20 H 0.3406 1.0232 0.3401
C26 C 0.3124(4) 0.8594(6) 0.3387(3)
C27 C 0.3463(5) 0.7524(6) 0.3415(3)
H21 H 0.3166 0.6891 0.3424
C28 C 0.4226(4) 0.7405(6) 0.3429(4)
H22 H 0.4441 0.6697 0.3449
C29 C 0.2304(4) 0.8712(6) 0.3377(3)
C30 C 0.1947(4) 0.7949(7) 0.3734(3)
H23 H 0.1429 0.8152 0.3723
H24 H 0.2203 0.8010 0.4097
H25 H 0.1978 0.7193 0.3611
C31 C 0.1910(4) 0.9484(6) 0.3043(3)
C32 C 0.2267(4) 1.0070(6) 0.2649(3)
C33 C 0.1099(4) 0.9758(7) 0.3030(3)
Cl3 Cl 0.56337(12) 0.8189(2) 0.34366(10)
N5 N 0.2494(4) 1.0556(6) 0.2317(3)
N6 N 0.0703(3) 0.9972(6) 0.2558(2)
H26 H 0.0235 1.0142 0.2536
H27 H 0.0911 0.9941 0.2271
O3 O 0.0813(3) 0.9794(5) 0.3456(2)
C34 C 0.9836(4) 0.6770(7) 0.6440(3)
C35 C 0.9387(4) 0.6889(6) 0.5960(3)
H28 H 0.9597 0.7047 0.5650
C36 C 0.8618(4) 0.6777(6) 0.5928(3)
H29 H 0.8312 0.6862 0.5597
C37 C 0.8304(4) 0.6545(6) 0.6377(3)
C38 C 0.8769(5) 0.6452(8) 0.6873(3)
H30 H 0.8559 0.6321 0.7185
C39 C 0.9536(5) 0.6553(9) 0.6905(3)
H31 H 0.9846 0.6475 0.7235
C40 C 0.7480(4) 0.6443(6) 0.6376(3)
C41 C 0.7145(4) 0.7233(6) 0.6735(3)
H32 H 0.6608 0.7171 0.6668
H33 H 0.7290 0.7984 0.6662
H34 H 0.7323 0.7052 0.7105
C42 C 0.7058(4) 0.5693(6) 0.6051(2)
C43 C 0.7405(4) 0.4992(6) 0.5698(3)
C44 C 0.6228(4) 0.5501(6) 0.6046(3)
Cl4 Cl 1.08148(12) 0.6849(2) 0.64974(9)
N7 N 0.7635(3) 0.4395(6) 0.5406(3)
N8 N 0.5848(3) 0.5158(5) 0.5582(2)
H35 H 0.5381 0.4986 0.5562
H36 H 0.6068 0.5107 0.5301
O4 O 0.5942(3) 0.5588(4) 0.64576(18)
C45 C 0.9817(5) 0.6635(7) 0.2480(4)
C46 C 0.9378(5) 0.6860(7) 0.1998(4)
H37 H 0.9591 0.7087 0.1700
C47 C 0.8609(5) 0.6741(7) 0.1966(3)
H38 H 0.8308 0.6874 0.1637
C48 C 0.8266(4) 0.6430(6) 0.2410(3)
C49 C 0.8755(5) 0.6206(10) 0.2860(4)
H39 H 0.8562 0.5965 0.3164
C50 C 0.9525(5) 0.6313(10) 0.2897(4)
H40 H 0.9833 0.6154 0.3220
C51 C 0.7448(4) 0.6302(6) 0.2389(3)
C52 C 0.7116(4) 0.7090(7) 0.2756(3)
H41 H 0.6583 0.6982 0.2715
H42 H 0.7223 0.7846 0.2665
H43 H 0.7331 0.6945 0.3124
C53 C 0.7033(4) 0.5582(6) 0.2056(3)
C54 C 0.7385(4) 0.4934(6) 0.1685(3)
C55 C 0.6217(4) 0.5349(6) 0.2055(3)
Cl5 Cl 1.07898(12) 0.6746(2) 0.25176(10)
N9 N 0.7627(3) 0.4409(5) 0.1368(2)
N10 N 0.5828(3) 0.5095(5) 0.1584(2)
H44 H 0.5357 0.4942 0.1560
H45 H 0.6044 0.5081 0.1300
O5 O 0.5929(3) 0.5378(5) 0.24705(19)
loop_
_geom_bond_atom_site_label_1
_geom_bond_atom_site_label_2
_geom_bond_site_symmetry_1
_geom_bond_site_symmetry_2
C1 C2 1_555 1_555
C2 H1 1_555 1_555
C3 C2 1_555 1_555
H2 C3 1_555 1_555
C4 C3 1_555 1_555
C5 C4 1_555 1_555
H3 C5 1_555 1_555
C6 C1 1_555 1_555
H4 C6 1_555 1_555
C7 C4 1_555 1_555
C8 C7 1_555 1_555
H5 C8 1_555 1_555
H6 C8 1_555 1_555
H7 C8 1_555 1_555
C9 C7 1_555 1_555
C10 C9 1_555 1_555
C11 C9 1_555 1_555
Cl1 C1 1_555 1_555
N1 C10 1_555 1_555
N2 C11 1_555 1_555
H8 N2 1_555 1_555
H9 N2 1_555 1_555
O1 C11 1_555 1_555
C12 C13 1_555 1_555
C13 H10 1_555 1_555
C14 C13 1_555 1_555
H11 C14 1_555 1_555
C15 C14 1_555 1_555
C16 C15 1_555 1_555
H12 C16 1_555 1_555
C17 C12 1_555 1_555
H13 C17 1_555 1_555
C18 C15 1_555 1_555
C19 C18 1_555 1_555
H14 C19 1_555 1_555
H15 C19 1_555 1_555
H16 C19 1_555 1_555
C20 C18 1_555 1_555
C21 C20 1_555 1_555
C22 C20 1_555 1_555
Cl2 C12 1_555 1_555
N3 C21 1_555 1_555
N4 C22 1_555 1_555
H17 N4 1_555 1_555
H18 N4 1_555 1_555
O2 C22 1_555 1_555
C23 C24 1_555 1_555
C24 H19 1_555 1_555
C25 C24 1_555 1_555
H20 C25 1_555 1_555
C26 C25 1_555 1_555
C27 C26 1_555 1_555
H21 C27 1_555 1_555
C28 C23 1_555 1_555
H22 C28 1_555 1_555
C29 C26 1_555 1_555
C30 C29 1_555 1_555
H23 C30 1_555 1_555
H24 C30 1_555 1_555
H25 C30 1_555 1_555
C31 C29 1_555 1_555
C32 C31 1_555 1_555
C33 C31 1_555 1_555
Cl3 C23 1_555 1_555
N5 C32 1_555 1_555
N6 C33 1_555 1_555
H26 N6 1_555 1_555
H27 N6 1_555 1_555
O3 C33 1_555 1_555
C34 C35 1_555 1_555
C35 H28 1_555 1_555
C36 C35 1_555 1_555
H29 C36 1_555 1_555
C37 C36 1_555 1_555
C38 C37 1_555 1_555
H30 C38 1_555 1_555
C39 C34 1_555 1_555
H31 C39 1_555 1_555
C40 C37 1_555 1_555
C41 C40 1_555 1_555
H32 C41 1_555 1_555
H33 C41 1_555 1_555
H34 C41 1_555 1_555
C42 C40 1_555 1_555
C43 C42 1_555 1_555
C44 C42 1_555 1_555
Cl4 C34 1_555 1_555
N7 C43 1_555 1_555
N8 C44 1_555 1_555
H35 N8 1_555 1_555
H36 N8 1_555 1_555
O4 C44 1_555 1_555
C45 C46 1_555 1_555
C46 H37 1_555 1_555
C47 C46 1_555 1_555
H38 C47 1_555 1_555
C48 C47 1_555 1_555
C49 C48 1_555 1_555
H39 C49 1_555 1_555
C50 C45 1_555 1_555
H40 C50 1_555 1_555
C51 C48 1_555 1_555
C52 C51 1_555 1_555
H41 C52 1_555 1_555
H42 C52 1_555 1_555
H43 C52 1_555 1_555
C53 C51 1_555 1_555
C54 C53 1_555 1_555
C55 C53 1_555 1_555
Cl5 C45 1_555 1_555
N9 C54 1_555 1_555
N10 C55 1_555 1_555
H44 N10 1_555 1_555
H45 N10 1_555 1_555
O5 C55 1_555 1_555
C5 C6 1_555 1_555
C16 C17 1_555 1_555
C27 C28 1_555 1_555
C38 C39 1_555 1_555
C49 C50 1_555 1_555

#END
