
#######################################################################
#
#                 Cambridge Crystallographic Data Centre
#                                CCDC 
#
#######################################################################
#
# If this CIF has been generated from an entry in the Cambridge 
# Structural Database, then it will include bibliographic, chemical, 
# crystal, experimental, refinement or atomic coordinate data resulting 
# from the CCDC's data processing and validation procedures.
#
#######################################################################

data_SINFEB
_chemical_formula_moiety         'C14 H12 Cl1 N1 O2'
_chemical_name_systematic        4-Chloro-N-(3,4-methylenedioxybenzyl)aniline
_symmetry_cell_setting           orthorhombic
_symmetry_space_group_name_H-M   'P c a 21'
_symmetry_Int_Tables_number      29
_space_group_name_Hall           'P 2c -2ac'
loop_
_symmetry_equiv_pos_site_id
_symmetry_equiv_pos_as_xyz
1 x,y,z
2 -x,-y,1/2+z
3 1/2+x,-y,z
4 1/2-x,y,1/2+z
_cell_length_a                   14.4986(13)
_cell_length_b                   13.9962(14)
_cell_length_c                   5.9375(8)
_cell_angle_alpha                90
_cell_angle_beta                 90
_cell_angle_gamma                90
_cell_volume                     1204.87
_exptl_crystal_colour            colorless
_exptl_crystal_description       needle
_chemical_melting_point          '362-363 K'
_cell_formula_units_Z            4
_exptl_crystal_recrystallization_method ethanol
loop_
_atom_site_label
_atom_site_type_symbol
_atom_site_fract_x
_atom_site_fract_y
_atom_site_fract_z
Cl1 Cl 0.37654(9) 1.15071(8) 1.1159(3)
N1 N 0.3911(3) 0.7548(3) 0.7777(7)
H1 H 0.4207 0.7130 0.8556
O1 O 0.3321(3) 0.3804(2) 0.7531(7)
O2 O 0.3978(2) 0.3355(2) 0.4179(7)
C1 C 0.3476(3) 0.7259(3) 0.5713(10)
H2 H 0.3718 0.7640 0.4482
H3 H 0.2818 0.7378 0.5815
C2 C 0.3637(3) 0.6218(3) 0.5221(9)
C3 C 0.3375(3) 0.5532(3) 0.6795(8)
H4 H 0.3122 0.5707 0.8174
C4 C 0.3501(3) 0.4608(3) 0.6250(10)
C5 C 0.3891(3) 0.4328(3) 0.4238(10)
C6 C 0.4156(3) 0.4980(3) 0.2673(10)
H5 H 0.4412 0.4796 0.1303
C7 C 0.4028(3) 0.5935(3) 0.3221(9)
H6 H 0.4212 0.6400 0.2197
C8 C 0.3467(4) 0.3028(4) 0.6030(13)
H7 H 0.3799 0.2520 0.6792
H8 H 0.2879 0.2776 0.5526
C9 C 0.3864(3) 0.8482(3) 0.8544(9)
C10 C 0.3341(3) 0.9186(3) 0.7439(9)
H9 H 0.3014 0.9032 0.6141
C11 C 0.3314(3) 1.0091(3) 0.8266(10)
H10 H 0.2961 1.0547 0.7522
C12 C 0.3785(3) 1.0349(3) 1.0138(8)
C13 C 0.4303(3) 0.9661(3) 1.1291(10)
H11 H 0.4620 0.9818 1.2601
C14 C 0.4333(3) 0.8749(3) 1.0443(8)
H12 H 0.4686 0.8294 1.1190
loop_
_geom_bond_atom_site_label_1
_geom_bond_atom_site_label_2
_geom_bond_site_symmetry_1
_geom_bond_site_symmetry_2
Cl1 C12 1_555 1_555
N1 H1 1_555 1_555
O1 C4 1_555 1_555
O2 C5 1_555 1_555
C1 N1 1_555 1_555
H2 C1 1_555 1_555
H3 C1 1_555 1_555
C2 C1 1_555 1_555
C3 C2 1_555 1_555
H4 C3 1_555 1_555
C4 C3 1_555 1_555
C5 C4 1_555 1_555
C6 C5 1_555 1_555
H5 C6 1_555 1_555
C7 C2 1_555 1_555
H6 C7 1_555 1_555
C8 O1 1_555 1_555
H7 C8 1_555 1_555
H8 C8 1_555 1_555
C9 N1 1_555 1_555
C10 C9 1_555 1_555
H9 C10 1_555 1_555
C11 C10 1_555 1_555
H10 C11 1_555 1_555
C12 C11 1_555 1_555
C13 C12 1_555 1_555
H11 C13 1_555 1_555
C14 C9 1_555 1_555
H12 C14 1_555 1_555
O2 C8 1_555 1_555
C6 C7 1_555 1_555
C13 C14 1_555 1_555

#END
