
#######################################################################
#
#                 Cambridge Crystallographic Data Centre
#                                CCDC 
#
#######################################################################
#
# If this CIF has been generated from an entry in the Cambridge 
# Structural Database, then it will include bibliographic, chemical, 
# crystal, experimental, refinement or atomic coordinate data resulting 
# from the CCDC's data processing and validation procedures.
#
#######################################################################

data_SINGIH
_chemical_formula_moiety         'C39 H38 O2 Si1'
_chemical_name_systematic        
12-(Tri-isopropylsilyl)octacyclo[12.10.6.0^1,13^.0^2,11^.0^3,8^.0^15,24^.0^18,23^.0^25,30^]triaconta-2(11),3,5,7,9,12,15,17,19,21,23,27-dodecaene-26,29-dione
_symmetry_cell_setting           triclinic
_symmetry_space_group_name_H-M   'P -1'
_symmetry_Int_Tables_number      2
_space_group_name_Hall           '-P 1'
loop_
_symmetry_equiv_pos_site_id
_symmetry_equiv_pos_as_xyz
1 x,y,z
2 -x,-y,-z
_cell_length_a                   14.703(15)
_cell_length_b                   14.833(16)
_cell_length_c                   15.051(16)
_cell_angle_alpha                85.804(18)
_cell_angle_beta                 87.160(19)
_cell_angle_gamma                66.309(15)
_cell_volume                     2997.05
_exptl_crystal_colour            yellow
_exptl_crystal_description       plate
_cell_formula_units_Z            4
loop_
_atom_site_label
_atom_site_type_symbol
_atom_site_fract_x
_atom_site_fract_y
_atom_site_fract_z
Si1 Si 0.87810(19) 0.84680(18) 0.29508(19)
O1 O 0.8332(5) 0.8095(5) 0.7146(5)
O2 O 0.7881(5) 0.5102(5) 0.6179(4)
C1 C 0.8577(6) 0.7429(6) 0.3582(7)
C2 C 0.8307(6) 0.7383(7) 0.4435(7)
C3 C 0.8007(7) 0.7901(7) 0.5289(6)
H1 H 0.8026 0.8628 0.5284
C4 C 0.6996(7) 0.7867(6) 0.5403(6)
C5 C 0.6102(7) 0.8545(7) 0.5782(7)
H2 H 0.6101 0.9175 0.6100
C6 C 0.5263(8) 0.8406(7) 0.5746(7)
H3 H 0.4584 0.8945 0.6015
C7 C 0.5241(7) 0.7565(7) 0.5360(6)
C8 C 0.4364(7) 0.7434(6) 0.5325(7)
H4 H 0.3687 0.7973 0.5599
C9 C 0.4342(7) 0.6616(7) 0.4942(7)
H5 H 0.3664 0.6498 0.4935
C10 C 0.5226(7) 0.5954(7) 0.4567(7)
H6 H 0.5199 0.5350 0.4225
C11 C 0.6096(7) 0.6023(7) 0.4607(6)
H7 H 0.6759 0.5449 0.4352
C12 C 0.6164(6) 0.6861(6) 0.4990(6)
C13 C 0.7010(7) 0.7016(6) 0.5051(6)
C14 C 0.8102(6) 0.6441(6) 0.4741(6)
C15 C 0.8404(6) 0.5899(6) 0.3904(7)
C16 C 0.8526(6) 0.4913(6) 0.3719(7)
C17 C 0.8424(6) 0.4236(6) 0.4381(7)
H8 H 0.8237 0.4443 0.5060
C18 C 0.8567(7) 0.3289(6) 0.4147(7)
H9 H 0.8475 0.2773 0.4649
C19 C 0.8822(7) 0.3010(7) 0.3296(8)
H10 H 0.8948 0.2270 0.3137
C20 C 0.8919(7) 0.3658(7) 0.2640(8)
H11 H 0.9106 0.3429 0.1966
C21 C 0.8776(7) 0.4630(7) 0.2837(7)
C22 C 0.8899(7) 0.5268(7) 0.2170(7)
H12 H 0.9042 0.5044 0.1493
C23 C 0.8841(7) 0.6205(7) 0.2361(7)
H13 H 0.8964 0.6695 0.1848
C24 C 0.8618(7) 0.6473(6) 0.3237(7)
C25 C 0.8741(7) 0.7083(6) 0.5929(6)
H14 H 0.9480 0.7060 0.5769
C26 C 0.8545(7) 0.7271(7) 0.6883(7)
C27 C 0.8660(7) 0.6448(7) 0.7505(7)
H15 H 0.8812 0.6483 0.8194
C28 C 0.8581(7) 0.5644(7) 0.7241(7)
H16 H 0.8684 0.5033 0.7719
C29 C 0.8360(7) 0.5573(7) 0.6332(7)
C30 C 0.8727(7) 0.6101(7) 0.5623(7)
H17 H 0.9485 0.5617 0.5442
C31 C 0.8851(8) 0.9283(7) 0.3798(7)
H18 H 0.8202 0.9414 0.4234
C32 C 0.8779(8) 1.0323(7) 0.3453(8)
H19 H 0.9472 1.0256 0.3110
H20 H 0.8648 1.0787 0.4015
H21 H 0.8167 1.0655 0.2993
C33 C 0.9760(8) 0.8820(7) 0.4416(7)
H22 H 0.9807 0.8105 0.4698
H23 H 0.9673 0.9305 0.4953
H24 H 1.0437 0.8726 0.4032
C34 C 0.9927(7) 0.7909(7) 0.2222(7)
H25 H 0.9724 0.7552 0.1703
C35 C 1.0270(8) 0.8677(7) 0.1735(7)
H26 H 0.9690 0.9166 0.1291
H27 H 1.0947 0.8298 0.1347
H28 H 1.0416 0.9108 0.2223
C36 C 1.0793(7) 0.7102(7) 0.2708(8)
H29 H 1.1010 0.7412 0.3254
H30 H 1.1420 0.6798 0.2245
H31 H 1.0567 0.6518 0.2974
C37 C 0.7654(7) 0.9206(7) 0.2276(7)
H32 H 0.7713 0.9900 0.2066
C38 C 0.7575(9) 0.8749(8) 0.1436(8)
H33 H 0.8248 0.8598 0.1028
H34 H 0.6934 0.9256 0.1065
H35 H 0.7488 0.8061 0.1610
C39 C 0.6705(8) 0.9470(8) 0.2846(8)
H36 H 0.6581 0.8804 0.3033
H37 H 0.6078 0.9991 0.2467
H38 H 0.6779 0.9804 0.3444
Si2 Si 0.39194(19) 0.84007(17) 0.18234(19)
O3 O 0.3563(5) 0.8263(5) -0.2319(5)
O4 O 0.4151(5) 0.4684(5) -0.0958(5)
C40 C 0.3621(6) 0.7424(6) 0.1325(7)
C41 C 0.3336(6) 0.7455(5) 0.0500(7)
C42 C 0.3108(7) 0.8029(6) -0.0397(6)
H39 H 0.3109 0.8766 -0.0436
C43 C 0.2145(6) 0.7960(6) -0.0533(6)
C44 C 0.1314(7) 0.8627(7) -0.1014(7)
H40 H 0.1335 0.9283 -0.1358
C45 C 0.0488(7) 0.8428(6) -0.1036(7)
H41 H -0.0136 0.8929 -0.1417
C46 C 0.0417(7) 0.7571(6) -0.0568(7)
C47 C -0.0437(7) 0.7402(6) -0.0581(7)
H42 H -0.1060 0.7903 -0.0964
C48 C -0.0505(7) 0.6600(7) -0.0109(7)
H43 H -0.1183 0.6481 -0.0115
C49 C 0.0308(7) 0.5935(7) 0.0380(7)
H44 H 0.0252 0.5304 0.0746
C50 C 0.1154(7) 0.6078(6) 0.0398(6)
H45 H 0.1761 0.5565 0.0791
C51 C 0.1272(7) 0.6903(6) -0.0099(7)
C52 C 0.2129(7) 0.7087(6) -0.0117(6)
C53 C 0.3176(6) 0.6553(6) 0.0273(6)
C54 C 0.3431(6) 0.5945(6) 0.1125(7)
C55 C 0.3524(6) 0.4943(6) 0.1374(7)
C56 C 0.3327(7) 0.4339(6) 0.0808(7)
H46 H 0.3093 0.4606 0.0136
C57 C 0.3434(6) 0.3393(7) 0.1110(7)
H47 H 0.3272 0.2933 0.0674
C58 C 0.3743(7) 0.3043(7) 0.1957(7)
H48 H 0.3838 0.2299 0.2170
C59 C 0.3928(7) 0.3584(7) 0.2521(7)
H49 H 0.4149 0.3290 0.3191
C60 C 0.3836(7) 0.4567(6) 0.2248(6)
C61 C 0.4027(7) 0.5138(7) 0.2858(7)
H50 H 0.4238 0.4844 0.3530
C62 C 0.3945(7) 0.6079(7) 0.2594(7)
H51 H 0.4086 0.6527 0.3058
C63 C 0.3678(6) 0.6442(6) 0.1726(7)
C64 C 0.3900(7) 0.7245(6) -0.0994(6)
H52 H 0.4613 0.7293 -0.0928
C65 C 0.3606(7) 0.7495(8) -0.1941(7)
C66 C 0.3363(7) 0.6800(7) -0.2401(8)
H53 H 0.3097 0.7008 -0.3072
C67 C 0.3449(7) 0.5913(7) -0.2046(7)
H54 H 0.3214 0.5454 -0.2420
C68 C 0.3853(7) 0.5565(7) -0.1165(7)
C69 C 0.3968(7) 0.6243(6) -0.0548(7)
H55 H 0.4704 0.5876 -0.0264
C70 C 0.3355(8) 0.9559(7) 0.1078(7)
H56 H 0.3610 0.9344 0.0403
C71 C 0.3711(9) 1.0393(7) 0.1257(8)
H57 H 0.3324 1.0769 0.1846
H58 H 0.3548 1.0922 0.0684
H59 H 0.4509 1.0069 0.1366
C72 C 0.2236(7) 0.9969(7) 0.1067(8)
H60 H 0.1992 0.9364 0.1107
H61 H 0.1977 1.0418 0.0451
H62 H 0.1931 1.0423 0.1635
C73 C 0.3485(7) 0.8517(6) 0.3013(8)
H63 H 0.3974 0.7840 0.3367
C74 C 0.3626(9) 0.9365(7) 0.3446(8)
H64 H 0.4384 0.9305 0.3318
H65 H 0.3489 0.9317 0.4162
H66 H 0.3105 1.0071 0.3162
C75 C 0.2439(8) 0.8579(8) 0.3202(8)
H67 H 0.1907 0.9269 0.2900
H68 H 0.2302 0.8554 0.3919
H69 H 0.2358 0.7960 0.2920
C76 C 0.5311(7) 0.8015(7) 0.1777(7)
H70 H 0.5462 0.8637 0.1964
C77 C 0.5876(7) 0.7124(8) 0.2421(7)
H71 H 0.5576 0.7281 0.3095
H72 H 0.6662 0.6989 0.2403
H73 H 0.5789 0.6473 0.2218
C78 C 0.5728(8) 0.7776(8) 0.0823(8)
H74 H 0.5565 0.7173 0.0607
H75 H 0.6529 0.7561 0.0813
H76 H 0.5384 0.8426 0.0374
loop_
_geom_bond_atom_site_label_1
_geom_bond_atom_site_label_2
_geom_bond_site_symmetry_1
_geom_bond_site_symmetry_2
Si1 C1 1_555 1_555
O1 C26 1_555 1_555
O2 C29 1_555 1_555
C1 C2 1_555 1_555
C2 C3 1_555 1_555
C3 H1 1_555 1_555
C4 C3 1_555 1_555
C5 C4 1_555 1_555
H2 C5 1_555 1_555
C6 C5 1_555 1_555
H3 C6 1_555 1_555
C7 C6 1_555 1_555
C8 C7 1_555 1_555
H4 C8 1_555 1_555
C9 C8 1_555 1_555
H5 C9 1_555 1_555
C10 C9 1_555 1_555
H6 C10 1_555 1_555
C11 C10 1_555 1_555
H7 C11 1_555 1_555
C12 C7 1_555 1_555
C13 C4 1_555 1_555
C14 C2 1_555 1_555
C15 C14 1_555 1_555
C16 C15 1_555 1_555
C17 C16 1_555 1_555
H8 C17 1_555 1_555
C18 C17 1_555 1_555
H9 C18 1_555 1_555
C19 C18 1_555 1_555
H10 C19 1_555 1_555
C20 C19 1_555 1_555
H11 C20 1_555 1_555
C21 C16 1_555 1_555
C22 C21 1_555 1_555
H12 C22 1_555 1_555
C23 C22 1_555 1_555
H13 C23 1_555 1_555
C24 C1 1_555 1_555
C25 C3 1_555 1_555
H14 C25 1_555 1_555
C26 C25 1_555 1_555
C27 C26 1_555 1_555
H15 C27 1_555 1_555
C28 C27 1_555 1_555
H16 C28 1_555 1_555
C29 C28 1_555 1_555
C30 C14 1_555 1_555
H17 C30 1_555 1_555
C31 Si1 1_555 1_555
H18 C31 1_555 1_555
C32 C31 1_555 1_555
H19 C32 1_555 1_555
H20 C32 1_555 1_555
H21 C32 1_555 1_555
C33 C31 1_555 1_555
H22 C33 1_555 1_555
H23 C33 1_555 1_555
H24 C33 1_555 1_555
C34 Si1 1_555 1_555
H25 C34 1_555 1_555
C35 C34 1_555 1_555
H26 C35 1_555 1_555
H27 C35 1_555 1_555
H28 C35 1_555 1_555
C36 C34 1_555 1_555
H29 C36 1_555 1_555
H30 C36 1_555 1_555
H31 C36 1_555 1_555
C37 Si1 1_555 1_555
H32 C37 1_555 1_555
C38 C37 1_555 1_555
H33 C38 1_555 1_555
H34 C38 1_555 1_555
H35 C38 1_555 1_555
C39 C37 1_555 1_555
H36 C39 1_555 1_555
H37 C39 1_555 1_555
H38 C39 1_555 1_555
Si2 C40 1_555 1_555
O3 C65 1_555 1_555
O4 C68 1_555 1_555
C40 C41 1_555 1_555
C41 C42 1_555 1_555
C42 H39 1_555 1_555
C43 C42 1_555 1_555
C44 C43 1_555 1_555
H40 C44 1_555 1_555
C45 C44 1_555 1_555
H41 C45 1_555 1_555
C46 C45 1_555 1_555
C47 C46 1_555 1_555
H42 C47 1_555 1_555
C48 C47 1_555 1_555
H43 C48 1_555 1_555
C49 C48 1_555 1_555
H44 C49 1_555 1_555
C50 C49 1_555 1_555
H45 C50 1_555 1_555
C51 C46 1_555 1_555
C52 C43 1_555 1_555
C53 C41 1_555 1_555
C54 C53 1_555 1_555
C55 C54 1_555 1_555
C56 C55 1_555 1_555
H46 C56 1_555 1_555
C57 C56 1_555 1_555
H47 C57 1_555 1_555
C58 C57 1_555 1_555
H48 C58 1_555 1_555
C59 C58 1_555 1_555
H49 C59 1_555 1_555
C60 C55 1_555 1_555
C61 C60 1_555 1_555
H50 C61 1_555 1_555
C62 C61 1_555 1_555
H51 C62 1_555 1_555
C63 C40 1_555 1_555
C64 C42 1_555 1_555
H52 C64 1_555 1_555
C65 C64 1_555 1_555
C66 C65 1_555 1_555
H53 C66 1_555 1_555
C67 C66 1_555 1_555
H54 C67 1_555 1_555
C68 C67 1_555 1_555
C69 C53 1_555 1_555
H55 C69 1_555 1_555
C70 Si2 1_555 1_555
H56 C70 1_555 1_555
C71 C70 1_555 1_555
H57 C71 1_555 1_555
H58 C71 1_555 1_555
H59 C71 1_555 1_555
C72 C70 1_555 1_555
H60 C72 1_555 1_555
H61 C72 1_555 1_555
H62 C72 1_555 1_555
C73 Si2 1_555 1_555
H63 C73 1_555 1_555
C74 C73 1_555 1_555
H64 C74 1_555 1_555
H65 C74 1_555 1_555
H66 C74 1_555 1_555
C75 C73 1_555 1_555
H67 C75 1_555 1_555
H68 C75 1_555 1_555
H69 C75 1_555 1_555
C76 Si2 1_555 1_555
H70 C76 1_555 1_555
C77 C76 1_555 1_555
H71 C77 1_555 1_555
H72 C77 1_555 1_555
H73 C77 1_555 1_555
C78 C76 1_555 1_555
H74 C78 1_555 1_555
H75 C78 1_555 1_555
H76 C78 1_555 1_555
C11 C12 1_555 1_555
C12 C13 1_555 1_555
C13 C14 1_555 1_555
C15 C24 1_555 1_555
C20 C21 1_555 1_555
C23 C24 1_555 1_555
C25 C30 1_555 1_555
C29 C30 1_555 1_555
C50 C51 1_555 1_555
C51 C52 1_555 1_555
C52 C53 1_555 1_555
C54 C63 1_555 1_555
C59 C60 1_555 1_555
C62 C63 1_555 1_555
C64 C69 1_555 1_555
C68 C69 1_555 1_555

#END
