
#######################################################################
#
#                 Cambridge Crystallographic Data Centre
#                                CCDC 
#
#######################################################################
#
# If this CIF has been generated from an entry in the Cambridge 
# Structural Database, then it will include bibliographic, chemical, 
# crystal, experimental, refinement or atomic coordinate data resulting 
# from the CCDC's data processing and validation procedures.
#
#######################################################################

data_SINLIN
_chemical_name_common            'nodulisporisteroid M'
_chemical_formula_moiety         'C22 H34 O5'
_chemical_name_systematic        
'3-[3-acetyl-7-(1,2-dihydroxyethyl)-3a,6-dimethyl-2,3,3a,4,5,6,7,8,9,9b-decahydro-1H-cyclopenta[a]naphthalen-6-yl]propanoic acid'
_symmetry_cell_setting           orthorhombic
_symmetry_space_group_name_H-M   'P 21 21 21'
_symmetry_Int_Tables_number      19
_space_group_name_Hall           'P 2ac 2ab'
loop_
_symmetry_equiv_pos_site_id
_symmetry_equiv_pos_as_xyz
1 x,y,z
2 1/2-x,-y,1/2+z
3 1/2+x,1/2-y,-z
4 -x,1/2+y,1/2-z
_cell_length_a                   7.54358(20)
_cell_length_b                   9.5461(3)
_cell_length_c                   27.8892(8)
_cell_angle_alpha                90
_cell_angle_beta                 90
_cell_angle_gamma                90
_cell_volume                     2008.35
_exptl_crystal_colour            colorless
_exptl_crystal_description       needle
_cell_formula_units_Z            4
loop_
_atom_site_label
_atom_site_type_symbol
_atom_site_fract_x
_atom_site_fract_y
_atom_site_fract_z
C1 C -0.6622(2) -0.55904(17) -0.48949(6)
H1 H -0.6705 -0.6606 -0.4849
O1 O -0.44737(17) -0.20317(14) -0.23553(5)
H2 H -0.5345 -0.2265 -0.2199
C2 C -0.8074(2) -0.46710(17) -0.41636(6)
C3 C -0.6569(2) -0.49556(17) -0.43987(6)
C4 C -0.9873(2) -0.5606(2) -0.48915(6)
H3 H -0.9853 -0.6613 -0.4845
H4 H -1.0948 -0.5369 -0.5064
C5 C -0.8268(2) -0.51661(17) -0.51858(6)
O2 O -1.24399(18) -0.67483(16) -0.32110(6)
C6 C -1.0925(2) -0.71421(19) -0.31446(6)
C7 C -0.4771(2) -0.37820(19) -0.37483(6)
H5 H -0.4941 -0.2819 -0.3850
H6 H -0.3641 -0.3843 -0.3584
C8 C -0.4350(2) -0.28891(19) -0.27755(6)
H7 H -0.3544 -0.3661 -0.2716
H8 H -0.3876 -0.2340 -0.3039
C9 C -0.5091(2) -0.5354(2) -0.52494(6)
H9 H -0.4063 -0.5909 -0.5163
H10 H -0.4755 -0.4374 -0.5261
C10 C -0.9563(2) -0.47745(18) -0.33479(6)
H11 H -0.9569 -0.4365 -0.3030
H12 H -1.0712 -0.4598 -0.3492
C11 C -0.6263(2) -0.42063(17) -0.34057(6)
H13 H -0.6109 -0.5209 -0.3343
C12 C -0.4754(2) -0.47355(18) -0.41849(6)
H14 H -0.3983 -0.4333 -0.4427
H15 H -0.4266 -0.5637 -0.4094
C13 C -0.8328(2) -0.35843(18) -0.52839(6)
H16 H -0.8094 -0.3084 -0.4992
H17 H -0.9480 -0.3333 -0.5402
H18 H -0.7447 -0.3347 -0.5519
C14 C -0.9881(2) -0.4874(2) -0.44003(6)
H19 H -1.0429 -0.3961 -0.4438
H20 H -1.0623 -0.5413 -0.4184
C15 C -1.0810(3) -0.6185(2) -0.61490(8)
H21 H -1.0673 -0.7168 -0.6211
H22 H -1.1410 -0.5752 -0.6414
H23 H -1.1493 -0.6056 -0.5862
C16 C -0.9013(3) -0.55239(19) -0.60866(7)
C17 C -0.8116(2) -0.40401(17) -0.36529(6)
C18 C -0.8649(2) -0.24812(18) -0.37030(7)
H24 H -0.7686 -0.1965 -0.3843
H25 H -0.8917 -0.2104 -0.3392
H26 H -0.9674 -0.2407 -0.3905
C19 C -0.9295(2) -0.63546(19) -0.33029(6)
H27 H -0.8915 -0.6719 -0.3611
H28 H -0.8351 -0.6529 -0.3075
C20 C -0.6162(2) -0.34614(17) -0.29133(6)
H29 H -0.6976 -0.2662 -0.2927
C21 C -0.5882(2) -0.5842(2) -0.57344(7)
H30 H -0.5367 -0.6730 -0.5830
H31 H -0.5642 -0.5156 -0.5983
C22 C -0.7912(2) -0.59995(18) -0.56577(6)
H32 H -0.8170 -0.6990 -0.5598
O3 O -1.05295(17) -0.83395(14) -0.29337(5)
H33 H -1.1428 -0.8677 -0.2815
O4 O -0.67643(17) -0.43596(12) -0.25305(4)
H34 H -0.6314 -0.5137 -0.2560
O5 O -0.8472(2) -0.46462(15) -0.63642(5)
loop_
_geom_bond_atom_site_label_1
_geom_bond_atom_site_label_2
_geom_bond_site_symmetry_1
_geom_bond_site_symmetry_2
C1 H1 1_555 1_555
O1 H2 1_555 1_555
C2 C3 1_555 1_555
C3 C1 1_555 1_555
C4 H3 1_555 1_555
H4 C4 1_555 1_555
C5 C1 1_555 1_555
O2 C6 1_555 1_555
C6 C19 1_555 1_555
C7 H5 1_555 1_555
H6 C7 1_555 1_555
C8 O1 1_555 1_555
H7 C8 1_555 1_555
H8 C8 1_555 1_555
C9 C1 1_555 1_555
H9 C9 1_555 1_555
H10 C9 1_555 1_555
C10 H11 1_555 1_555
H12 C10 1_555 1_555
C11 C7 1_555 1_555
H13 C11 1_555 1_555
C12 C3 1_555 1_555
H14 C12 1_555 1_555
H15 C12 1_555 1_555
C13 C5 1_555 1_555
H16 C13 1_555 1_555
H17 C13 1_555 1_555
H18 C13 1_555 1_555
C14 C2 1_555 1_555
H19 C14 1_555 1_555
H20 C14 1_555 1_555
C15 H21 1_555 1_555
H22 C15 1_555 1_555
H23 C15 1_555 1_555
C16 C15 1_555 1_555
C17 C2 1_555 1_555
C18 C17 1_555 1_555
H24 C18 1_555 1_555
H25 C18 1_555 1_555
H26 C18 1_555 1_555
C19 C10 1_555 1_555
H27 C19 1_555 1_555
H28 C19 1_555 1_555
C20 C8 1_555 1_555
H29 C20 1_555 1_555
C21 C9 1_555 1_555
H30 C21 1_555 1_555
H31 C21 1_555 1_555
C22 C5 1_555 1_555
H32 C22 1_555 1_555
O3 C6 1_555 1_555
H33 O3 1_555 1_555
O4 C20 1_555 1_555
H34 O4 1_555 1_555
O5 C16 1_555 1_555
C4 C5 1_555 1_555
C4 C14 1_555 1_555
C7 C12 1_555 1_555
C10 C17 1_555 1_555
C11 C17 1_555 1_555
C11 C20 1_555 1_555
C16 C22 1_555 1_555
C21 C22 1_555 1_555

#END
