
#######################################################################
#
#                 Cambridge Crystallographic Data Centre
#                                CCDC 
#
#######################################################################
#
# If this CIF has been generated from an entry in the Cambridge 
# Structural Database, then it will include bibliographic, chemical, 
# crystal, experimental, refinement or atomic coordinate data resulting 
# from the CCDC's data processing and validation procedures.
#
#######################################################################

data_SINLEJ
_chemical_name_common            'abeo-nodulisporisteroid A dihydrate'
_chemical_formula_moiety         'C22 H30 O5,2(H2 O1)'
_chemical_name_systematic        
'3-[3-acetyl-7-(1-hydroxyethyl)-3a,6-dimethyl-8-oxo-1,2,3,3a,4,5,8,9b-octahydro-5aH-cyclopenta[a]naphthalen-5a-yl]propanoic acid dihydrate'
_symmetry_cell_setting           monoclinic
_symmetry_space_group_name_H-M   'P 21'
_symmetry_Int_Tables_number      4
_space_group_name_Hall           'P 2yb'
loop_
_symmetry_equiv_pos_site_id
_symmetry_equiv_pos_as_xyz
1 x,y,z
2 -x,1/2+y,-z
_cell_length_a                   7.08839(13)
_cell_length_b                   9.31444(15)
_cell_length_c                   16.2487(4)
_cell_angle_alpha                90
_cell_angle_beta                 91.4393(18)
_cell_angle_gamma                90
_cell_volume                     1072.47
_exptl_crystal_description       block
_cell_formula_units_Z            2
loop_
_atom_site_label
_atom_site_type_symbol
_atom_site_fract_x
_atom_site_fract_y
_atom_site_fract_z
O1 O 0.1801(2) 0.75653(17) 0.09703(10)
O2 O 0.3551(2) 1.35687(15) 0.21408(10)
H1 H 0.3820 1.4425 0.2137
O3 O 0.0436(2) 0.87600(19) -0.03830(10)
H2 H 0.1184 0.8255 -0.0121
O4 O -0.2794(2) 0.67769(16) 0.57639(10)
O5 O 0.0949(2) 1.43608(15) 0.27554(10)
C1 C 0.0660(3) 0.8267(2) 0.13893(13)
C2 C -0.0147(3) 0.9008(2) 0.36746(12)
H3 H 0.0198 0.9980 0.3853
C3 C -0.0846(3) 0.9138(2) 0.09965(13)
C4 C 0.0800(3) 0.8216(2) 0.22798(13)
H4 H 0.1659 0.7588 0.2529
C5 C 0.1831(3) 1.3400(2) 0.24318(13)
C6 C -0.3596(3) 0.9945(2) 0.28187(13)
H5 H -0.4393 1.0753 0.2666
H6 H -0.4203 0.9082 0.2607
C7 C -0.1940(3) 0.9991(2) 0.14691(13)
C8 C -0.3471(3) 0.9848(2) 0.37600(13)
H7 H -0.3063 1.0766 0.3983
H8 H -0.4712 0.9642 0.3969
C9 C -0.1655(3) 1.0122(2) 0.23959(13)
C10 C -0.2091(2) 0.86795(19) 0.40491(12)
C11 C -0.0268(3) 0.9042(2) 0.27576(13)
C12 C -0.0880(3) 1.1669(2) 0.25847(13)
H9 H -0.1683 1.2367 0.2304
H10 H -0.0946 1.1849 0.3171
C13 C -0.1241(3) 0.8948(2) 0.00784(13)
H11 H -0.1868 0.9822 -0.0123
C14 C -0.2818(3) 0.7184(2) 0.38001(14)
H12 H -0.2787 0.7085 0.3213
H13 H -0.4090 0.7069 0.3978
H14 H -0.2030 0.6463 0.4054
C15 C -0.2933(3) 0.8021(2) 0.55383(13)
C16 C 0.0464(3) 0.7985(2) 0.50147(13)
H15 H 0.0364 0.7009 0.5217
H16 H 0.1316 0.8515 0.5379
C17 C 0.1208(3) 0.7987(2) 0.41265(13)
H17 H 0.2495 0.8339 0.4115
H18 H 0.1156 0.7033 0.3888
C18 C 0.1134(3) 1.1883(2) 0.23210(14)
H19 H 0.1950 1.1242 0.2638
H20 H 0.1222 1.1619 0.1746
C19 C -0.2593(4) 0.7700(3) -0.00727(15)
H21 H -0.2893 0.7629 -0.0651
H22 H -0.3729 0.7860 0.0224
H23 H -0.2010 0.6824 0.0114
C20 C -0.4525(3) 0.8959(2) 0.58096(14)
H24 H -0.5415 0.8391 0.6104
H25 H -0.5141 0.9382 0.5336
H26 H -0.4035 0.9705 0.6163
C21 C -0.1504(3) 0.87086(19) 0.49803(12)
H27 H -0.1347 0.9714 0.5147
C22 C -0.3551(3) 1.0850(2) 0.10909(15)
H28 H -0.3221 1.1163 0.0551
H29 H -0.3795 1.1670 0.1429
H30 H -0.4661 1.0260 0.1053
O6 O 0.4621(2) 0.62049(17) 0.19633(10)
H31 H 0.3968 0.6635 0.1593
H32 H 0.5727 0.6058 0.1791
O7 O 0.8179(2) 0.54905(19) 0.16130(11)
H33 H 0.8884 0.5276 0.2026
H34 H 0.8514 0.5009 0.1197
loop_
_geom_bond_atom_site_label_1
_geom_bond_atom_site_label_2
_geom_bond_site_symmetry_1
_geom_bond_site_symmetry_2
O1 C1 1_555 1_555
O2 H1 1_555 1_555
O3 H2 1_555 1_555
O4 C15 1_555 1_555
O5 C5 1_555 1_555
C1 C3 1_555 1_555
C2 H3 1_555 1_555
C3 C7 1_555 1_555
C4 C1 1_555 1_555
H4 C4 1_555 1_555
C5 O2 1_555 1_555
C6 H5 1_555 1_555
H6 C6 1_555 1_555
C7 C9 1_555 1_555
C8 C6 1_555 1_555
H7 C8 1_555 1_555
H8 C8 1_555 1_555
C9 C6 1_555 1_555
C10 C2 1_555 1_555
C11 C2 1_555 1_555
C12 C9 1_555 1_555
H9 C12 1_555 1_555
H10 C12 1_555 1_555
C13 O3 1_555 1_555
H11 C13 1_555 1_555
C14 C10 1_555 1_555
H12 C14 1_555 1_555
H13 C14 1_555 1_555
H14 C14 1_555 1_555
C15 C20 1_555 1_555
C16 H15 1_555 1_555
H16 C16 1_555 1_555
C17 C2 1_555 1_555
H17 C17 1_555 1_555
H18 C17 1_555 1_555
C18 C5 1_555 1_555
H19 C18 1_555 1_555
H20 C18 1_555 1_555
C19 C13 1_555 1_555
H21 C19 1_555 1_555
H22 C19 1_555 1_555
H23 C19 1_555 1_555
C20 H24 1_555 1_555
H25 C20 1_555 1_555
H26 C20 1_555 1_555
C21 C10 1_555 1_555
H27 C21 1_555 1_555
C22 C7 1_555 1_555
H28 C22 1_555 1_555
H29 C22 1_555 1_555
H30 C22 1_555 1_555
O6 H31 1_555 1_555
H32 O6 1_555 1_555
O7 H33 1_555 1_555
H34 O7 1_555 1_555
C3 C13 1_555 1_555
C4 C11 1_555 1_555
C8 C10 1_555 1_555
C9 C11 1_555 1_555
C12 C18 1_555 1_555
C15 C21 1_555 1_555
C16 C17 1_555 1_555
C16 C21 1_555 1_555

#END
