
#######################################################################
#
#                 Cambridge Crystallographic Data Centre
#                                CCDC 
#
#######################################################################
#
# If this CIF has been generated from an entry in the Cambridge 
# Structural Database, then it will include bibliographic, chemical, 
# crystal, experimental, refinement or atomic coordinate data resulting 
# from the CCDC's data processing and validation procedures.
#
#######################################################################

data_SINRUD01
_chemical_formula_moiety         'C12 H18 O4'
_chemical_name_systematic        
'dimethyl bicyclo[2.2.2]octane-1,4-dicarboxylate'
_symmetry_cell_setting           orthorhombic
_symmetry_space_group_name_H-M   'P 21 21 21'
_symmetry_Int_Tables_number      19
_space_group_name_Hall           'P 2ac 2ab'
loop_
_symmetry_equiv_pos_site_id
_symmetry_equiv_pos_as_xyz
1 x,y,z
2 1/2-x,-y,1/2+z
3 -x,1/2+y,1/2-z
4 1/2+x,1/2-y,-z
_cell_length_a                   6.729(1)
_cell_length_b                   7.630(1)
_cell_length_c                   22.575(2)
_cell_angle_alpha                90
_cell_angle_beta                 90
_cell_angle_gamma                90
_cell_volume                     1159.05
_exptl_crystal_colour            colorless
_exptl_crystal_description       blocks
_cell_formula_units_Z            4
loop_
_atom_site_label
_atom_site_type_symbol
_atom_site_fract_x
_atom_site_fract_y
_atom_site_fract_z
O1 O 0.3285(3) 0.6561(3) 0.44233(11)
O2 O 0.0675(3) 0.4779(3) 0.43877(10)
O3 O 0.8108(3) -0.1044(3) 0.34885(9)
O4 O 0.8165(4) 0.0502(3) 0.26587(9)
C1 C 0.3801(3) 0.3806(3) 0.39722(10)
C2 C 0.5161(4) 0.2963(4) 0.44363(11)
H1 H 0.4351 0.2279 0.4720
H2 H 0.5866 0.3890 0.4660
C3 C 0.6678(4) 0.1755(4) 0.41368(11)
H3 H 0.8034 0.2229 0.4195
H4 H 0.6622 0.0578 0.4321
C4 C 0.6241(4) 0.1606(3) 0.34747(10)
C5 C 0.4085(4) 0.0973(4) 0.34039(15)
H5 H 0.3789 0.0780 0.2979
H6 H 0.3906 -0.0154 0.3615
C6 C 0.2655(4) 0.2348(4) 0.36582(14)
H7 H 0.1851 0.2857 0.3334
H8 H 0.1737 0.1779 0.3942
C7 C 0.5123(5) 0.4754(4) 0.35184(14)
H9 H 0.4282 0.5386 0.3229
H10 H 0.5973 0.5622 0.3723
C8 C 0.6429(5) 0.3419(4) 0.31948(14)
H11 H 0.6026 0.3358 0.2773
H12 H 0.7833 0.3804 0.3211
C9 C 0.2393(4) 0.5059(3) 0.42767(11)
C10 C 0.2100(5) 0.7814(4) 0.47442(16)
H13 H 0.2906 0.8851 0.4834
H14 H 0.1634 0.7286 0.5115
H15 H 0.0955 0.8158 0.4503
C11 C 0.7603(4) 0.0336(3) 0.31599(11)
C12 C 0.9348(5) -0.2328(4) 0.31980(14)
H16 H 0.9605 -0.3304 0.3470
H17 H 1.0610 -0.1785 0.3083
H18 H 0.8669 -0.2767 0.2844
loop_
_geom_bond_atom_site_label_1
_geom_bond_atom_site_label_2
_geom_bond_site_symmetry_1
_geom_bond_site_symmetry_2
O1 C9 1_555 1_555
O2 C9 1_555 1_555
O3 C11 1_555 1_555
O4 C11 1_555 1_555
C1 C2 1_555 1_555
C2 H1 1_555 1_555
H2 C2 1_555 1_555
C3 C2 1_555 1_555
H3 C3 1_555 1_555
H4 C3 1_555 1_555
C4 C3 1_555 1_555
C5 C4 1_555 1_555
H5 C5 1_555 1_555
H6 C5 1_555 1_555
C6 C1 1_555 1_555
H7 C6 1_555 1_555
H8 C6 1_555 1_555
C7 C1 1_555 1_555
H9 C7 1_555 1_555
H10 C7 1_555 1_555
C8 C4 1_555 1_555
H11 C8 1_555 1_555
H12 C8 1_555 1_555
C9 C1 1_555 1_555
C10 O1 1_555 1_555
H13 C10 1_555 1_555
H14 C10 1_555 1_555
H15 C10 1_555 1_555
C11 C4 1_555 1_555
C12 O3 1_555 1_555
H16 C12 1_555 1_555
H17 C12 1_555 1_555
H18 C12 1_555 1_555
C5 C6 1_555 1_555
C7 C8 1_555 1_555

#END
