
#######################################################################
#
#                 Cambridge Crystallographic Data Centre
#                                CCDC 
#
#######################################################################
#
# If this CIF has been generated from an entry in the Cambridge 
# Structural Database, then it will include bibliographic, chemical, 
# crystal, experimental, refinement or atomic coordinate data resulting 
# from the CCDC's data processing and validation procedures.
#
#######################################################################

data_SINSEP
_chemical_formula_moiety         'C24 H17 I2 N1 O1'
_chemical_name_systematic        
1-Benzyl-3,5-diiodo-2,6-diphenylpyridin-4(1H)-one
_symmetry_cell_setting           monoclinic
_symmetry_space_group_name_H-M   'P 21/n'
_symmetry_Int_Tables_number      14
_space_group_name_Hall           '-P 2yn'
loop_
_symmetry_equiv_pos_site_id
_symmetry_equiv_pos_as_xyz
1 x,y,z
2 1/2-x,1/2+y,1/2-z
3 -x,-y,-z
4 1/2+x,1/2-y,1/2+z
_cell_length_a                   9.8410(4)
_cell_length_b                   9.5876(4)
_cell_length_c                   22.784(2)
_cell_angle_alpha                90
_cell_angle_beta                 94.824(8)
_cell_angle_gamma                90
_cell_volume                     2142.09
_exptl_crystal_colour            'light colorless'
_exptl_crystal_description       block
_cell_formula_units_Z            4
loop_
_atom_site_label
_atom_site_type_symbol
_atom_site_fract_x
_atom_site_fract_y
_atom_site_fract_z
I1 I -0.03190(4) 0.21284(4) 0.387430(14)
I2 I 0.33765(3) 0.12498(3) 0.606207(15)
O1 O 0.2151(3) 0.1162(4) 0.47357(15)
N1 N -0.0713(3) 0.2881(3) 0.57207(15)
C1 C -0.0013(4) 0.2223(4) 0.47894(18)
C2 C 0.1303(4) 0.1702(4) 0.50362(19)
C3 C 0.1488(4) 0.1876(4) 0.56677(19)
C4 C 0.0536(4) 0.2442(4) 0.59933(18)
C5 C -0.0973(4) 0.2753(4) 0.51143(18)
C6 C 0.0764(4) 0.2603(4) 0.66447(19)
C7 C 0.0387(5) 0.1563(5) 0.7021(2)
H1 H -0.0051 0.0766 0.6868
C8 C 0.0662(5) 0.1710(6) 0.7622(2)
H2 H 0.0402 0.1010 0.7872
C9 C 0.1310(5) 0.2868(6) 0.7855(2)
H3 H 0.1472 0.2962 0.8261
C10 C 0.1720(5) 0.3889(6) 0.7490(2)
H4 H 0.2190 0.4661 0.7649
C11 C 0.1442(5) 0.3780(5) 0.6886(2)
H5 H 0.1705 0.4488 0.6641
C12 C -0.1706(4) 0.3584(4) 0.60730(19)
H6 H -0.2347 0.4092 0.5806
H7 H -0.1219 0.4263 0.6327
C13 C -0.2497(4) 0.2661(5) 0.6446(2)
C14 C -0.2667(5) 0.1240(5) 0.6340(2)
H8 H -0.2310 0.0828 0.6017
C15 C -0.3383(6) 0.0442(7) 0.6724(3)
H9 H -0.3511 -0.0508 0.6657
C16 C -0.3899(7) 0.1069(10) 0.7201(3)
H10 H -0.4356 0.0531 0.7462
C17 C -0.3752(8) 0.2447(10) 0.7298(3)
H11 H -0.4127 0.2857 0.7617
C18 C -0.3047(6) 0.3252(7) 0.6926(3)
H12 H -0.2941 0.4202 0.6997
C19 C -0.2378(4) 0.3129(4) 0.48511(19)
C20 C -0.3408(4) 0.2152(4) 0.4828(2)
H13 H -0.3241 0.1272 0.4991
C21 C -0.4682(5) 0.2470(6) 0.4566(2)
H14 H -0.5373 0.1807 0.4558
C22 C -0.4938(6) 0.3735(6) 0.4321(2)
H15 H -0.5800 0.3937 0.4143
C23 C -0.3931(6) 0.4720(6) 0.4334(3)
H16 H -0.4110 0.5584 0.4159
C24 C -0.2646(5) 0.4444(5) 0.4605(2)
H17 H -0.1972 0.5126 0.4622
loop_
_geom_bond_atom_site_label_1
_geom_bond_atom_site_label_2
_geom_bond_site_symmetry_1
_geom_bond_site_symmetry_2
I1 C1 1_555 1_555
I2 C3 1_555 1_555
O1 C2 1_555 1_555
N1 C4 1_555 1_555
C1 C2 1_555 1_555
C2 C3 1_555 1_555
C3 C4 1_555 1_555
C4 C6 1_555 1_555
C5 N1 1_555 1_555
C6 C7 1_555 1_555
C7 H1 1_555 1_555
C8 C7 1_555 1_555
H2 C8 1_555 1_555
C9 C8 1_555 1_555
H3 C9 1_555 1_555
C10 C9 1_555 1_555
H4 C10 1_555 1_555
C11 C6 1_555 1_555
H5 C11 1_555 1_555
C12 N1 1_555 1_555
H6 C12 1_555 1_555
H7 C12 1_555 1_555
C13 C12 1_555 1_555
C14 C13 1_555 1_555
H8 C14 1_555 1_555
C15 C14 1_555 1_555
H9 C15 1_555 1_555
C16 C15 1_555 1_555
H10 C16 1_555 1_555
C17 C16 1_555 1_555
H11 C17 1_555 1_555
C18 C13 1_555 1_555
H12 C18 1_555 1_555
C19 C5 1_555 1_555
C20 C19 1_555 1_555
H13 C20 1_555 1_555
C21 C20 1_555 1_555
H14 C21 1_555 1_555
C22 C21 1_555 1_555
H15 C22 1_555 1_555
C23 C22 1_555 1_555
H16 C23 1_555 1_555
C24 C19 1_555 1_555
H17 C24 1_555 1_555
C1 C5 1_555 1_555
C10 C11 1_555 1_555
C17 C18 1_555 1_555
C23 C24 1_555 1_555

#END
