
#######################################################################
#
#                 Cambridge Crystallographic Data Centre
#                                CCDC 
#
#######################################################################
#
# If this CIF has been generated from an entry in the Cambridge 
# Structural Database, then it will include bibliographic, chemical, 
# crystal, experimental, refinement or atomic coordinate data resulting 
# from the CCDC's data processing and validation procedures.
#
#######################################################################

data_SINSIT
_chemical_formula_moiety         'C24 H19 N1 O1'
_chemical_name_systematic        
1-(Benzylamino)-1,5-diphenylpent-1-en-4-yn-3-one
_symmetry_cell_setting           monoclinic
_symmetry_space_group_name_H-M   'P 21/n'
_symmetry_Int_Tables_number      14
_space_group_name_Hall           '-P 2yn'
loop_
_symmetry_equiv_pos_site_id
_symmetry_equiv_pos_as_xyz
1 x,y,z
2 1/2-x,1/2+y,1/2-z
3 -x,-y,-z
4 1/2+x,1/2-y,1/2+z
_cell_length_a                   19.701(3)
_cell_length_b                   10.1591(12)
_cell_length_c                   29.095(5)
_cell_angle_alpha                90
_cell_angle_beta                 102.041(14)
_cell_angle_gamma                90
_cell_volume                     5695.08
_exptl_crystal_colour            'light colorless'
_exptl_crystal_description       block
_cell_formula_units_Z            12
loop_
_atom_site_label
_atom_site_type_symbol
_atom_site_fract_x
_atom_site_fract_y
_atom_site_fract_z
O1 O 0.40144(15) 0.4410(3) 0.18289(12)
N1 N 0.45766(18) 0.6743(4) 0.21431(14)
H1 H 0.4638 0.5920 0.2095
C1 C 0.2805(2) 0.4343(5) 0.15701(17)
C2 C 0.1014(2) 0.4166(5) 0.11589(16)
H2 H 0.1063 0.5016 0.1280
C3 C 0.0364(2) 0.3700(5) 0.09615(18)
H3 H -0.0024 0.4225 0.0957
C4 C 0.0288(3) 0.2470(6) 0.07735(18)
H4 H -0.0151 0.2163 0.0634
C5 C 0.0853(3) 0.1686(5) 0.07879(18)
H5 H 0.0800 0.0842 0.0662
C6 C 0.1499(2) 0.2144(5) 0.09884(18)
H6 H 0.1884 0.1606 0.0996
C7 C 0.1592(2) 0.3395(5) 0.11794(16)
C8 C 0.2260(2) 0.3906(5) 0.13942(16)
C9 C 0.3452(2) 0.5012(5) 0.17917(16)
C10 C 0.3375(2) 0.6323(5) 0.19211(15)
H7 H 0.2928 0.6646 0.1901
C11 C 0.3925(2) 0.7158(4) 0.20757(16)
C12 C 0.3773(2) 0.8571(4) 0.21445(17)
C13 C 0.3782(2) 0.9510(5) 0.18001(18)
H8 H 0.3926 0.9271 0.1527
C14 C 0.3582(2) 1.0790(5) 0.1855(2)
H9 H 0.3592 1.1400 0.1618
C15 C 0.3371(2) 1.1171(5) 0.2248(2)
H10 H 0.3233 1.2036 0.2280
C16 C 0.3362(3) 1.0274(6) 0.25960(18)
H11 H 0.3225 1.0529 0.2870
C17 C 0.3558(2) 0.8987(5) 0.25409(19)
H12 H 0.3544 0.8383 0.2779
C18 C 0.5200(2) 0.7538(5) 0.22912(18)
H13 H 0.5066 0.8425 0.2359
H14 H 0.5445 0.7589 0.2035
C19 C 0.5679(2) 0.6989(5) 0.27189(19)
C20 C 0.6374(3) 0.6824(5) 0.2713(2)
H15 H 0.6539 0.7062 0.2447
C21 C 0.6819(3) 0.6314(6) 0.3094(3)
H16 H 0.7286 0.6216 0.3090
C22 C 0.6580(3) 0.5950(6) 0.3481(2)
H17 H 0.6885 0.5588 0.3738
C23 C 0.5910(4) 0.6109(7) 0.3496(2)
H18 H 0.5752 0.5875 0.3764
C24 C 0.5456(3) 0.6622(6) 0.3112(2)
H19 H 0.4989 0.6717 0.3121
O2 O 0.90123(15) 1.0597(3) 0.35010(11)
N2 N 0.95749(17) 0.8238(4) 0.38168(13)
H20 H 0.9638 0.9064 0.3776
C25 C 0.6506(2) 1.2849(5) 0.26588(17)
H21 H 0.6895 1.3375 0.2667
C26 C 0.5854(3) 1.3321(5) 0.24581(18)
H22 H 0.5804 1.4171 0.2337
C27 C 0.5356(2) 1.1291(5) 0.26259(17)
H23 H 0.4965 1.0771 0.2616
C28 C 0.5287(3) 1.2546(6) 0.24374(18)
H24 H 0.4850 1.2860 0.2296
C29 C 0.6001(2) 1.0810(5) 0.28277(16)
H25 H 0.6048 0.9962 0.2951
C30 C 0.6583(2) 1.1598(4) 0.28471(15)
C31 C 0.7251(2) 1.1094(4) 0.30569(16)
C32 C 0.7800(2) 1.0657(5) 0.32415(15)
C33 C 0.8445(2) 0.9998(5) 0.34492(15)
C34 C 0.8376(2) 0.8669(4) 0.35872(16)
H26 H 0.7930 0.8345 0.3570
C35 C 0.8918(2) 0.7837(4) 0.37426(15)
C36 C 0.87641(19) 0.6427(5) 0.38150(16)
C37 C 0.8786(2) 0.5514(5) 0.34683(17)
H27 H 0.8940 0.5769 0.3200
C38 C 0.8582(2) 0.4223(5) 0.35115(18)
H28 H 0.8587 0.3628 0.3269
C39 C 0.8374(2) 0.3818(5) 0.3911(2)
H29 H 0.8246 0.2947 0.3943
C40 C 0.8357(3) 0.4706(5) 0.4259(2)
H30 H 0.8213 0.4438 0.4529
C41 C 0.8552(2) 0.6012(5) 0.42165(17)
H31 H 0.8541 0.6606 0.4458
C42 C 1.0201(2) 0.7445(5) 0.39587(19)
H32 H 1.0442 0.7396 0.3701
H33 H 1.0072 0.6558 0.4030
C43 C 1.0678(2) 0.8015(5) 0.43819(19)
C44 C 1.1371(2) 0.8162(5) 0.43766(19)
H34 H 1.1537 0.7906 0.4114
C45 C 1.1822(3) 0.8691(6) 0.4762(2)
H35 H 1.2288 0.8805 0.4755
C46 C 1.1585(4) 0.9041(7) 0.5151(2)
H36 H 1.1892 0.9377 0.5411
C47 C 1.0905(4) 0.8905(7) 0.5160(2)
H37 H 1.0741 0.9171 0.5423
C48 C 1.0455(3) 0.8367(6) 0.4778(2)
H38 H 0.9992 0.8243 0.4791
O3 O 0.40149(15) 0.4410(3) 0.51629(11)
N3 N 0.45840(18) 0.6766(4) 0.54853(14)
H39 H 0.4645 0.5941 0.5440
C49 C 0.0995(2) 0.4197(4) 0.44900(15)
H40 H 0.1043 0.5052 0.4606
C50 C 0.0348(2) 0.3710(5) 0.42946(18)
H41 H -0.0043 0.4224 0.4292
C51 C 0.0277(3) 0.2460(6) 0.41015(18)
H42 H -0.0159 0.2145 0.3957
C52 C 0.0848(3) 0.1699(5) 0.41243(18)
H43 H 0.0797 0.0854 0.3999
C53 C 0.1500(2) 0.2141(5) 0.43269(18)
H44 H 0.1884 0.1599 0.4339
C54 C 0.1583(2) 0.3392(4) 0.45133(15)
C55 C 0.2255(2) 0.3903(4) 0.47253(16)
C56 C 0.2801(2) 0.4364(4) 0.49102(16)
C57 C 0.3446(2) 0.5015(5) 0.51224(16)
C58 C 0.3378(2) 0.6339(4) 0.52529(15)
H45 H 0.2932 0.6670 0.5228
C59 C 0.3923(2) 0.7173(5) 0.54141(15)
C60 C 0.3768(2) 0.8588(4) 0.54928(17)
C61 C 0.3785(2) 0.9484(5) 0.51355(17)
H46 H 0.3929 0.9221 0.4865
C62 C 0.3584(2) 1.0776(6) 0.51853(19)
H47 H 0.3588 1.1377 0.4945
C63 C 0.3382(2) 1.1173(5) 0.55842(19)
H48 H 0.3258 1.2045 0.5619
C64 C 0.3361(3) 1.0284(6) 0.5932(2)
H49 H 0.3217 1.0550 0.6202
C65 C 0.3554(3) 0.8981(5) 0.58852(18)
H50 H 0.3536 0.8379 0.6123
C66 C 0.5204(2) 0.7539(5) 0.56287(18)
H51 H 0.5077 0.8429 0.5697
H52 H 0.5447 0.7582 0.5372
C67 C 0.5680(2) 0.6985(5) 0.60521(19)
C68 C 0.6372(2) 0.6819(5) 0.6048(2)
H53 H 0.6536 0.7053 0.5782
C69 C 0.6819(3) 0.6319(6) 0.6428(3)
H54 H 0.7287 0.6228 0.6423
C70 C 0.6579(3) 0.5951(7) 0.6818(2)
H55 H 0.6882 0.5597 0.7076
C71 C 0.5899(4) 0.6106(7) 0.6825(2)
H56 H 0.5735 0.5851 0.7089
C72 C 0.5444(3) 0.6641(6) 0.6443(2)
H57 H 0.4980 0.6764 0.6453
loop_
_geom_bond_atom_site_label_1
_geom_bond_atom_site_label_2
_geom_bond_site_symmetry_1
_geom_bond_site_symmetry_2
O1 C9 1_555 1_555
N1 H1 1_555 1_555
C1 C8 1_555 1_555
C2 H2 1_555 1_555
C3 C2 1_555 1_555
H3 C3 1_555 1_555
C4 C3 1_555 1_555
H4 C4 1_555 1_555
C5 C4 1_555 1_555
H5 C5 1_555 1_555
C6 C5 1_555 1_555
H6 C6 1_555 1_555
C7 C2 1_555 1_555
C8 C7 1_555 1_555
C9 C1 1_555 1_555
C10 C9 1_555 1_555
H7 C10 1_555 1_555
C11 N1 1_555 1_555
C12 C11 1_555 1_555
C13 C12 1_555 1_555
H8 C13 1_555 1_555
C14 C13 1_555 1_555
H9 C14 1_555 1_555
C15 C14 1_555 1_555
H10 C15 1_555 1_555
C16 C15 1_555 1_555
H11 C16 1_555 1_555
C17 C12 1_555 1_555
H12 C17 1_555 1_555
C18 N1 1_555 1_555
H13 C18 1_555 1_555
H14 C18 1_555 1_555
C19 C18 1_555 1_555
C20 C19 1_555 1_555
H15 C20 1_555 1_555
C21 C20 1_555 1_555
H16 C21 1_555 1_555
C22 C21 1_555 1_555
H17 C22 1_555 1_555
C23 C22 1_555 1_555
H18 C23 1_555 1_555
C24 C19 1_555 1_555
H19 C24 1_555 1_555
O2 C33 1_555 1_555
N2 H20 1_555 1_555
C25 H21 1_555 1_555
C26 C25 1_555 1_555
H22 C26 1_555 1_555
C27 H23 1_555 1_555
C28 C26 1_555 1_555
H24 C28 1_555 1_555
C29 C27 1_555 1_555
H25 C29 1_555 1_555
C30 C25 1_555 1_555
C31 C30 1_555 1_555
C32 C31 1_555 1_555
C33 C32 1_555 1_555
C34 C33 1_555 1_555
H26 C34 1_555 1_555
C35 N2 1_555 1_555
C36 C35 1_555 1_555
C37 C36 1_555 1_555
H27 C37 1_555 1_555
C38 C37 1_555 1_555
H28 C38 1_555 1_555
C39 C38 1_555 1_555
H29 C39 1_555 1_555
C40 C39 1_555 1_555
H30 C40 1_555 1_555
C41 C36 1_555 1_555
H31 C41 1_555 1_555
C42 N2 1_555 1_555
H32 C42 1_555 1_555
H33 C42 1_555 1_555
C43 C42 1_555 1_555
C44 C43 1_555 1_555
H34 C44 1_555 1_555
C45 C44 1_555 1_555
H35 C45 1_555 1_555
C46 C45 1_555 1_555
H36 C46 1_555 1_555
C47 C46 1_555 1_555
H37 C47 1_555 1_555
C48 C43 1_555 1_555
H38 C48 1_555 1_555
O3 C57 1_555 1_555
N3 H39 1_555 1_555
C49 H40 1_555 1_555
C50 C49 1_555 1_555
H41 C50 1_555 1_555
C51 C50 1_555 1_555
H42 C51 1_555 1_555
C52 C51 1_555 1_555
H43 C52 1_555 1_555
C53 C52 1_555 1_555
H44 C53 1_555 1_555
C54 C49 1_555 1_555
C55 C54 1_555 1_555
C56 C55 1_555 1_555
C57 C56 1_555 1_555
C58 C57 1_555 1_555
H45 C58 1_555 1_555
C59 N3 1_555 1_555
C60 C59 1_555 1_555
C61 C60 1_555 1_555
H46 C61 1_555 1_555
C62 C61 1_555 1_555
H47 C62 1_555 1_555
C63 C62 1_555 1_555
H48 C63 1_555 1_555
C64 C63 1_555 1_555
H49 C64 1_555 1_555
C65 C60 1_555 1_555
H50 C65 1_555 1_555
C66 N3 1_555 1_555
H51 C66 1_555 1_555
H52 C66 1_555 1_555
C67 C66 1_555 1_555
C68 C67 1_555 1_555
H53 C68 1_555 1_555
C69 C68 1_555 1_555
H54 C69 1_555 1_555
C70 C69 1_555 1_555
H55 C70 1_555 1_555
C71 C70 1_555 1_555
H56 C71 1_555 1_555
C72 C67 1_555 1_555
H57 C72 1_555 1_555
C6 C7 1_555 1_555
C10 C11 1_555 1_555
C16 C17 1_555 1_555
C23 C24 1_555 1_555
C27 C28 1_555 1_555
C29 C30 1_555 1_555
C34 C35 1_555 1_555
C40 C41 1_555 1_555
C47 C48 1_555 1_555
C53 C54 1_555 1_555
C58 C59 1_555 1_555
C64 C65 1_555 1_555
C71 C72 1_555 1_555

#END
