
#######################################################################
#
#                 Cambridge Crystallographic Data Centre
#                                CCDC 
#
#######################################################################
#
# If this CIF has been generated from an entry in the Cambridge 
# Structural Database, then it will include bibliographic, chemical, 
# crystal, experimental, refinement or atomic coordinate data resulting 
# from the CCDC's data processing and validation procedures.
#
#######################################################################

data_SINZEW
_chemical_formula_moiety         'C14 H11 N3 O5'
_chemical_name_systematic        
3,5-dihydroxy-N'-(4-nitrobenzylidene)benzohydrazide
_symmetry_cell_setting           monoclinic
_symmetry_space_group_name_H-M   'P 21/c'
_symmetry_Int_Tables_number      14
_space_group_name_Hall           '-P 2ybc'
loop_
_symmetry_equiv_pos_site_id
_symmetry_equiv_pos_as_xyz
1 x,y,z
2 -x,1/2+y,1/2-z
3 -x,-y,-z
4 x,1/2-y,1/2+z
_cell_length_a                   9.632(12)
_cell_length_b                   12.256(15)
_cell_length_c                   11.425(14)
_cell_angle_alpha                90
_cell_angle_beta                 105.306(11)
_cell_angle_gamma                90
_cell_volume                     1300.88
_exptl_crystal_colour            yellow
_exptl_crystal_description       block
_cell_formula_units_Z            4
loop_
_atom_site_label
_atom_site_type_symbol
_atom_site_fract_x
_atom_site_fract_y
_atom_site_fract_z
O1 O 1.06908(19) 0.48474(16) 0.19262(16)
O2 O 1.0724(2) 0.65424(17) 0.14838(16)
O3 O 0.54787(17) 0.47173(11) 0.72054(14)
O4 O 0.30675(17) 0.86167(11) 0.91653(14)
H1 H 0.351(3) 0.907(2) 0.876(2)
O5 O 0.24343(17) 0.48985(11) 1.00498(14)
H2 H 0.197(3) 0.521(2) 1.051(2)
N1 N 1.03679(19) 0.57978(19) 0.20443(16)
N2 N 0.65689(17) 0.60834(13) 0.58717(14)
N3 N 0.57752(19) 0.64356(14) 0.66374(15)
H3 H 0.556(2) 0.7159(19) 0.6665(19)
C1 C 0.9512(2) 0.60555(17) 0.28926(17)
C2 C 0.9263(2) 0.71281(17) 0.31005(18)
H4 H 0.9633 0.7681 0.2713
C3 C 0.8451(2) 0.73712(16) 0.38978(18)
H5 H 0.8272 0.8095 0.4053
C4 C 0.7902(2) 0.65427(15) 0.44666(16)
C5 C 0.8179(2) 0.54620(15) 0.42375(17)
H6 H 0.7813 0.4904 0.4619
C6 C 0.8992(2) 0.52142(17) 0.34491(17)
H7 H 0.9187 0.4493 0.3296
C7 C 0.7045(2) 0.68283(16) 0.53060(17)
H8 H 0.6847 0.7556 0.5426
C8 C 0.5248(2) 0.56907(15) 0.72756(17)
C9 C 0.43808(19) 0.61181(15) 0.80787(16)
C10 C 0.4143(2) 0.72239(15) 0.82035(17)
H9 H 0.4519 0.7737 0.7771
C11 C 0.3337(2) 0.75522(15) 0.89831(17)
C12 C 0.2777(2) 0.67887(15) 0.96254(17)
H10 H 0.2252 0.7014 1.0158
C13 C 0.2998(2) 0.56961(15) 0.94738(17)
C14 C 0.3817(2) 0.53500(15) 0.87119(16)
H11 H 0.3984 0.4611 0.8628
loop_
_geom_bond_atom_site_label_1
_geom_bond_atom_site_label_2
_geom_bond_site_symmetry_1
_geom_bond_site_symmetry_2
O1 N1 1_555 1_555
O2 N1 1_555 1_555
O3 C8 1_555 1_555
O4 H1 1_555 1_555
O5 H2 1_555 1_555
N1 C1 1_555 1_555
N2 N3 1_555 1_555
N3 H3 1_555 1_555
C1 C2 1_555 1_555
C2 H4 1_555 1_555
C3 C2 1_555 1_555
H5 C3 1_555 1_555
C4 C3 1_555 1_555
C5 C4 1_555 1_555
H6 C5 1_555 1_555
C6 C1 1_555 1_555
H7 C6 1_555 1_555
C7 N2 1_555 1_555
H8 C7 1_555 1_555
C8 N3 1_555 1_555
C9 C8 1_555 1_555
C10 C9 1_555 1_555
H9 C10 1_555 1_555
C11 O4 1_555 1_555
C12 C11 1_555 1_555
H10 C12 1_555 1_555
C13 O5 1_555 1_555
C14 C9 1_555 1_555
H11 C14 1_555 1_555
C4 C7 1_555 1_555
C5 C6 1_555 1_555
C10 C11 1_555 1_555
C12 C13 1_555 1_555
C13 C14 1_555 1_555

#END
