
#######################################################################
#
#                 Cambridge Crystallographic Data Centre
#                                CCDC 
#
#######################################################################
#
# If this CIF has been generated from an entry in the Cambridge 
# Structural Database, then it will include bibliographic, chemical, 
# crystal, experimental, refinement or atomic coordinate data resulting 
# from the CCDC's data processing and validation procedures.
#
#######################################################################

data_SINZAQ
_chemical_formula_moiety         'C7 H5 F1 N2 S1'
_chemical_name_systematic        4-Fluorobenzimidazolene-2-thione
_symmetry_cell_setting           monoclinic
_symmetry_space_group_name_H-M   'P 21'
_symmetry_Int_Tables_number      4
_space_group_name_Hall           'P 2yb'
loop_
_symmetry_equiv_pos_site_id
_symmetry_equiv_pos_as_xyz
1 x,y,z
2 -x,1/2+y,-z
_cell_length_a                   3.9416(12)
_cell_length_b                   8.148(2)
_cell_length_c                   11.647(3)
_cell_angle_alpha                90
_cell_angle_beta                 93.349(6)
_cell_angle_gamma                90
_cell_volume                     373.418
_exptl_crystal_description       needles
_chemical_melting_point          274deg.C(dec.)
_cell_formula_units_Z            2
loop_
_atom_site_label
_atom_site_type_symbol
_atom_site_fract_x
_atom_site_fract_y
_atom_site_fract_z
S1 S 0.0452(7) 0.7335(9) 0.5818(3)
C1 C 0.4403(45) 0.8218(23) 0.2928(15)
N1 N 0.3136(44) 0.8678(18) 0.3911(13)
C2 C 0.5725(46) 0.9117(28) 0.2046(16)
C3 C 0.6872(59) 0.8283(29) 0.1064(2)
C4 C 0.6785(56) 0.6566(30) 0.1167(17)
F1 F 0.8006(26) 0.5896(18) 0.0196(9)
C5 C 0.5537(46) 0.5674(30) 0.1984(16)
C6 C 0.4490(50) 0.6495(29) 0.2901(17)
C7 C 0.2200(25) 0.7325(29) 0.4530(10)
N2 N 0.3092(38) 0.5989(21) 0.3971(13)
H1 H 0.2929(44) 0.9679(18) 0.4131(13)
H2 H 0.5861(46) 1.0254(28) 0.2094(16)
H3 H 0.7606(59) 0.8823(29) 0.0420(22)
H4 H 0.5387(46) 0.4537(30) 0.1931(16)
loop_
_geom_bond_atom_site_label_1
_geom_bond_atom_site_label_2
_geom_bond_site_symmetry_1
_geom_bond_site_symmetry_2
S1 C7 1_555 1_555
C1 N1 1_555 1_555
N1 C7 1_555 1_555
C2 C1 1_555 1_555
C3 C2 1_555 1_555
C4 C3 1_555 1_555
F1 C4 1_555 1_555
C5 C4 1_555 1_555
C6 C1 1_555 1_555
C7 N2 1_555 1_555
N2 C6 1_555 1_555
H1 N1 1_555 1_555
H2 C2 1_555 1_555
H3 C3 1_555 1_555
H4 C5 1_555 1_555
C5 C6 1_555 1_555

#END
