
#######################################################################
#
#                 Cambridge Crystallographic Data Centre
#                                CCDC 
#
#######################################################################
#
# If this CIF has been generated from an entry in the Cambridge 
# Structural Database, then it will include bibliographic, chemical, 
# crystal, experimental, refinement or atomic coordinate data resulting 
# from the CCDC's data processing and validation procedures.
#
#######################################################################

data_SIPKOS
_chemical_formula_moiety         'C25 H22 Br2 N4 O2,C3 H7 N1 O1,0.5(H2 O1)'
_chemical_name_systematic        
'4,5-bis(4-Bromophenyl)-8a-(4-tolyl)hexahydropyrimido(4,5-d)pyrimidine-2,7(1H,3H)-dione dimethylformamide solvate hemihydrate'
_symmetry_cell_setting           monoclinic
_symmetry_space_group_name_H-M   'P 21/n'
_symmetry_Int_Tables_number      14
_space_group_name_Hall           '-P 2yn'
loop_
_symmetry_equiv_pos_site_id
_symmetry_equiv_pos_as_xyz
1 x,y,z
2 1/2-x,1/2+y,1/2-z
3 -x,-y,-z
4 1/2+x,1/2-y,1/2+z
_cell_length_a                   26.579(3)
_cell_length_b                   6.8903(13)
_cell_length_c                   31.343(3)
_cell_angle_alpha                90
_cell_angle_beta                 92.660(3)
_cell_angle_gamma                90
_cell_volume                     5733.89
_exptl_crystal_colour            colorless
_exptl_crystal_description       block
_chemical_melting_point          'above 573 K'
_cell_formula_units_Z            8
loop_
_atom_site_label
_atom_site_type_symbol
_atom_site_fract_x
_atom_site_fract_y
_atom_site_fract_z
Br1 Br 0.35148(3) 0.00867(12) 0.29528(2)
Br2 Br -0.01731(3) -0.28538(15) 0.19435(3)
N1 N 0.13773(19) 0.2232(8) 0.06675(17)
H1 H 0.1063 0.2529 0.0647
N2 N 0.22038(18) 0.3202(6) 0.06312(14)
H2 H 0.2413 0.4113 0.0578
N3 N 0.24948(18) 0.0013(7) 0.04925(14)
H3 H 0.2506 0.0393 0.0232
N4 N 0.2446(2) -0.2485(7) 0.09760(14)
H4 H 0.2529 -0.3657 0.1042
O1 O 0.15776(18) 0.5009(7) 0.03253(15)
O2 O 0.27145(17) -0.3040(6) 0.03118(13)
C1 C 0.1706(2) 0.3539(9) 0.0526(2)
C2 C 0.2411(2) 0.1444(8) 0.08251(17)
C3 C 0.2555(2) -0.1882(9) 0.05819(19)
C4 C 0.2202(2) -0.1361(8) 0.13022(16)
H5 H 0.1903 -0.2096 0.1378
C5 C 0.2012(2) 0.0566(8) 0.11152(17)
H6 H 0.1962 0.1468 0.1351
C6 C 0.1510(2) 0.0363(9) 0.08518(18)
H7 H 0.1561 -0.0547 0.0618
C7 C 0.2898(2) 0.1976(8) 0.10737(18)
C8 C 0.3360(2) 0.1319(10) 0.0945(2)
H8 H 0.3378 0.0587 0.0697
C9 C 0.3804(3) 0.1759(11) 0.1192(3)
H9 H 0.4113 0.1338 0.1099
C10 C 0.3788(3) 0.2799(11) 0.1567(3)
C11 C 0.3329(3) 0.3480(9) 0.1688(2)
H10 H 0.3313 0.4223 0.1935
C12 C 0.2892(2) 0.3070(9) 0.14466(19)
H11 H 0.2587 0.3540 0.1536
C13 C 0.4264(3) 0.3199(13) 0.1835(4)
H12 H 0.4296 0.2265 0.2062
H13 H 0.4248 0.4481 0.1954
H14 H 0.4549 0.3106 0.1660
C14 C 0.2529(2) -0.1133(8) 0.17103(17)
C15 C 0.3035(2) -0.1643(8) 0.17395(19)
H15 H 0.3180 -0.2208 0.1505
C16 C 0.3328(2) -0.1329(9) 0.2110(2)
H16 H 0.3666 -0.1690 0.2127
C17 C 0.3109(3) -0.0472(9) 0.24519(19)
C18 C 0.2605(2) 0.0016(8) 0.24385(18)
H17 H 0.2460 0.0568 0.2674
C19 C 0.2322(2) -0.0336(8) 0.20687(18)
H18 H 0.1981 -0.0029 0.2058
C20 C 0.1086(2) -0.0417(9) 0.11141(18)
C21 C 0.0910(2) -0.2263(9) 0.1045(2)
H19 H 0.1042 -0.3027 0.0832
C22 C 0.0530(3) -0.2999(10) 0.1293(2)
H20 H 0.0410 -0.4255 0.1252
C23 C 0.0339(3) -0.1822(11) 0.1601(2)
C24 C 0.0504(3) 0.0007(11) 0.1676(2)
H21 H 0.0369 0.0768 0.1887
C25 C 0.0885(2) 0.0720(10) 0.1426(2)
H22 H 0.1003 0.1978 0.1470
Br3 Br 0.48660(3) 0.82635(15) 0.22848(3)
Br4 Br 0.85648(3) 0.50257(12) 0.28451(3)
N5 N 0.7225(2) 0.7550(7) 0.09761(15)
H23 H 0.7333 0.8703 0.1033
N6 N 0.71704(18) 0.5054(7) 0.04874(14)
H24 H 0.7135 0.4673 0.0226
N7 N 0.69034(18) 0.1877(7) 0.06692(15)
H25 H 0.7095 0.0944 0.0594
N8 N 0.6097(2) 0.2899(8) 0.08128(17)
H26 H 0.5786 0.2607 0.0841
O3 O 0.73575(17) 0.8112(6) 0.02840(13)
O4 O 0.62143(19) 0.0151(7) 0.04419(16)
C26 C 0.7250(2) 0.6950(9) 0.0570(2)
C27 C 0.7143(2) 0.3623(8) 0.08321(17)
C28 C 0.6391(3) 0.1591(10) 0.06247(19)
C29 C 0.6275(2) 0.4791(9) 0.09724(18)
H27 H 0.6286 0.5687 0.0730
C30 C 0.6811(2) 0.4535(8) 0.11648(17)
H28 H 0.6798 0.3638 0.1407
C31 C 0.7035(2) 0.6453(8) 0.13297(17)
H29 H 0.6755 0.7206 0.1438
C32 C 0.7666(2) 0.3123(8) 0.10165(18)
C33 C 0.7727(2) 0.2026(9) 0.1382(2)
H30 H 0.7444 0.1502 0.1502
C34 C 0.8192(3) 0.1681(9) 0.1574(2)
H31 H 0.8218 0.0942 0.1822
C35 C 0.8630(3) 0.2431(11) 0.1400(3)
C36 C 0.8575(3) 0.3485(10) 0.1031(3)
H32 H 0.8858 0.3999 0.0909
C37 C 0.8102(3) 0.3799(9) 0.0835(2)
H33 H 0.8076 0.4474 0.0578
C38 C 0.9145(3) 0.2139(13) 0.1624(3)
H34 H 0.9399 0.2734 0.1459
H35 H 0.9213 0.0775 0.1652
H36 H 0.9148 0.2723 0.1902
C39 C 0.5917(2) 0.5596(9) 0.1286(2)
C40 C 0.5716(2) 0.7452(10) 0.1229(2)
H37 H 0.5794 0.8169 0.0990
C41 C 0.5405(3) 0.8245(10) 0.1524(2)
H38 H 0.5277 0.9493 0.1485
C42 C 0.5285(2) 0.7165(12) 0.1876(2)
C43 C 0.5480(3) 0.5363(11) 0.1940(2)
H39 H 0.5404 0.4666 0.2183
C44 C 0.5792(2) 0.4560(10) 0.1647(2)
H40 H 0.5919 0.3315 0.1691
C45 C 0.7414(2) 0.6201(8) 0.17008(18)
C46 C 0.7258(2) 0.5426(8) 0.20799(17)
H41 H 0.6920 0.5119 0.2106
C47 C 0.7598(2) 0.5100(9) 0.24221(19)
H42 H 0.7491 0.4558 0.2674
C48 C 0.8095(2) 0.5592(9) 0.2381(2)
C49 C 0.8264(2) 0.6428(8) 0.2023(2)
H43 H 0.8600 0.6785 0.2005
C50 C 0.7916(2) 0.6734(8) 0.16795(19)
H44 H 0.8024 0.7310 0.1431
N9 N 0.9107(2) 1.0072(10) 0.0369(2)
O5 O 0.9471(2) 1.2707(9) 0.01078(19)
C51 C 0.9099(3) 1.1713(12) 0.0168(2)
H45 H 0.8788 1.2170 0.0062
C52 C 0.9570(3) 0.9290(13) 0.0559(3)
H46 H 0.9851 0.9819 0.0417
H47 H 0.9569 0.7903 0.0530
H48 H 0.9597 0.9629 0.0857
C53 C 0.8649(3) 0.8986(12) 0.0424(3)
H49 H 0.8554 0.9094 0.0715
H50 H 0.8704 0.7646 0.0356
H51 H 0.8385 0.9498 0.0237
N10 N 0.4386(5) 0.4986(19) 0.0477(4)
O6 O 0.5021(3) 0.2779(18) 0.0652(4)
C54 C 0.4774(5) 0.432(2) 0.0672(5)
H52 H 0.4908 0.5168 0.0878
C55 C 0.4083(5) 0.400(3) 0.0158(5)
H53 H 0.4254 0.2824 0.0090
H54 H 0.4041 0.4790 -0.0094
H55 H 0.3758 0.3698 0.0263
C56 C 0.4075(6) 0.654(2) 0.0605(6)
H56 H 0.3807 0.6768 0.0395
H57 H 0.4279 0.7685 0.0636
H58 H 0.3936 0.6229 0.0874
O7 O 0.0413(2) 0.3820(8) 0.0445(2)
H59 H 0.0176 0.3085 0.0351
H60 H 0.0516 0.4480 0.0237
loop_
_geom_bond_atom_site_label_1
_geom_bond_atom_site_label_2
_geom_bond_site_symmetry_1
_geom_bond_site_symmetry_2
Br1 C17 1_555 1_555
Br2 C23 1_555 1_555
N1 H1 1_555 1_555
N2 H2 1_555 1_555
N3 H3 1_555 1_555
N4 H4 1_555 1_555
O1 C1 1_555 1_555
O2 C3 1_555 1_555
C1 N1 1_555 1_555
C2 N2 1_555 1_555
C3 N3 1_555 1_555
C4 N4 1_555 1_555
H5 C4 1_555 1_555
C5 C2 1_555 1_555
H6 C5 1_555 1_555
C6 N1 1_555 1_555
H7 C6 1_555 1_555
C7 C2 1_555 1_555
C8 C7 1_555 1_555
H8 C8 1_555 1_555
C9 C8 1_555 1_555
H9 C9 1_555 1_555
C10 C9 1_555 1_555
C11 C10 1_555 1_555
H10 C11 1_555 1_555
C12 C7 1_555 1_555
H11 C12 1_555 1_555
C13 C10 1_555 1_555
H12 C13 1_555 1_555
H13 C13 1_555 1_555
H14 C13 1_555 1_555
C14 C4 1_555 1_555
C15 C14 1_555 1_555
H15 C15 1_555 1_555
C16 C15 1_555 1_555
H16 C16 1_555 1_555
C17 C16 1_555 1_555
C18 C17 1_555 1_555
H17 C18 1_555 1_555
C19 C14 1_555 1_555
H18 C19 1_555 1_555
C20 C6 1_555 1_555
C21 C20 1_555 1_555
H19 C21 1_555 1_555
C22 C21 1_555 1_555
H20 C22 1_555 1_555
C23 C22 1_555 1_555
C24 C23 1_555 1_555
H21 C24 1_555 1_555
C25 C20 1_555 1_555
H22 C25 1_555 1_555
Br3 C42 1_555 1_555
Br4 C48 1_555 1_555
N5 H23 1_555 1_555
N6 H24 1_555 1_555
N7 H25 1_555 1_555
N8 H26 1_555 1_555
O3 C26 1_555 1_555
O4 C28 1_555 1_555
C26 N5 1_555 1_555
C27 N6 1_555 1_555
C28 N7 1_555 1_555
C29 N8 1_555 1_555
H27 C29 1_555 1_555
C30 C27 1_555 1_555
H28 C30 1_555 1_555
C31 N5 1_555 1_555
H29 C31 1_555 1_555
C32 C27 1_555 1_555
C33 C32 1_555 1_555
H30 C33 1_555 1_555
C34 C33 1_555 1_555
H31 C34 1_555 1_555
C35 C34 1_555 1_555
C36 C35 1_555 1_555
H32 C36 1_555 1_555
C37 C32 1_555 1_555
H33 C37 1_555 1_555
C38 C35 1_555 1_555
H34 C38 1_555 1_555
H35 C38 1_555 1_555
H36 C38 1_555 1_555
C39 C29 1_555 1_555
C40 C39 1_555 1_555
H37 C40 1_555 1_555
C41 C40 1_555 1_555
H38 C41 1_555 1_555
C42 C41 1_555 1_555
C43 C42 1_555 1_555
H39 C43 1_555 1_555
C44 C39 1_555 1_555
H40 C44 1_555 1_555
C45 C31 1_555 1_555
C46 C45 1_555 1_555
H41 C46 1_555 1_555
C47 C46 1_555 1_555
H42 C47 1_555 1_555
C48 C47 1_555 1_555
C49 C48 1_555 1_555
H43 C49 1_555 1_555
C50 C45 1_555 1_555
H44 C50 1_555 1_555
N9 C51 1_555 1_555
O5 C51 1_555 1_555
C51 H45 1_555 1_555
C52 N9 1_555 1_555
H46 C52 1_555 1_555
H47 C52 1_555 1_555
H48 C52 1_555 1_555
C53 N9 1_555 1_555
H49 C53 1_555 1_555
H50 C53 1_555 1_555
H51 C53 1_555 1_555
N10 C54 1_555 1_555
O6 C54 1_555 1_555
C54 H52 1_555 1_555
C55 N10 1_555 1_555
H53 C55 1_555 1_555
H54 C55 1_555 1_555
H55 C55 1_555 1_555
C56 N10 1_555 1_555
H56 C56 1_555 1_555
H57 C56 1_555 1_555
H58 C56 1_555 1_555
O7 H59 1_555 1_555
H60 O7 1_555 1_555
N2 C1 1_555 1_555
N3 C2 1_555 1_555
N4 C3 1_555 1_555
C4 C5 1_555 1_555
C5 C6 1_555 1_555
C11 C12 1_555 1_555
C18 C19 1_555 1_555
C24 C25 1_555 1_555
N6 C26 1_555 1_555
N7 C27 1_555 1_555
N8 C28 1_555 1_555
C29 C30 1_555 1_555
C30 C31 1_555 1_555
C36 C37 1_555 1_555
C43 C44 1_555 1_555
C49 C50 1_555 1_555

#END
