
#######################################################################
#
#                 Cambridge Crystallographic Data Centre
#                                CCDC 
#
#######################################################################
#
# If this CIF has been generated from an entry in the Cambridge 
# Structural Database, then it will include bibliographic, chemical, 
# crystal, experimental, refinement or atomic coordinate data resulting 
# from the CCDC's data processing and validation procedures.
#
#######################################################################

data_SIPQEO
_chemical_formula_moiety         'C19 H18 N2 O4'
_chemical_name_systematic        
'2-cyano-2-methyl-3-phenylbutyl 4-nitrobenzoate'
_symmetry_cell_setting           triclinic
_symmetry_space_group_name_H-M   'P -1'
_symmetry_Int_Tables_number      2
_space_group_name_Hall           '-P 1'
loop_
_symmetry_equiv_pos_site_id
_symmetry_equiv_pos_as_xyz
1 x,y,z
2 -x,-y,-z
_cell_length_a                   7.146(7)
_cell_length_b                   17.894(6)
_cell_length_c                   7.051(2)
_cell_angle_alpha                96.66(3)
_cell_angle_beta                 96.20(4)
_cell_angle_gamma                81.62(5)
_cell_volume                     882.154
_exptl_crystal_colour            colorless
_exptl_crystal_description       plate
_chemical_melting_point          '360-363 K'
_cell_formula_units_Z            2
_exptl_crystal_recrystallization_method 'ethyl acetate/hexanes'
loop_
_atom_site_label
_atom_site_type_symbol
_atom_site_fract_x
_atom_site_fract_y
_atom_site_fract_z
O1 O 0.7247(3) 0.2236(1) 0.9274(4)
O2 O 0.9699(4) 0.1337(2) 0.9803(4)
O3 O 0.1451(5) -0.0487(2) 0.6234(5)
O4 O 0.3805(5) -0.1354(2) 0.6620(5)
N1 N 0.4121(5) 0.3840(2) 1.0755(6)
N2 N 0.3114(6) -0.0696(2) 0.6667(5)
C1 C 0.5573(6) 0.3719(2) 1.0191(6)
C2 C 0.7459(4) 0.3573(2) 0.9444(5)
C3 C 0.7141(4) 0.3566(2) 0.7225(5)
C4 C 0.8670(5) 0.4171(2) 1.0427(6)
C5 C 0.8433(5) 0.2811(2) 1.0045(5)
C6 C 0.6157(5) 0.4322(2) 0.6612(6)
C7 C 0.8944(5) 0.3295(2) 0.6242(5)
C8 C 0.9320(5) 0.2541(2) 0.5532(6)
C9 C 1.0905(8) 0.2272(3) 0.4624(7)
C10 C 1.2168(8) 0.2738(5) 0.4356(9)
C11 C 1.1820(7) 0.3496(5) 0.5001(8)
C12 C 1.0217(6) 0.3776(3) 0.5963(6)
C13 C 0.8057(5) 0.1516(2) 0.9267(6)
C14 C 0.6724(5) 0.0964(2) 0.8528(5)
C15 C 0.4794(5) 0.1183(2) 0.8035(6)
C16 C 0.3619(5) 0.0641(2) 0.7420(6)
C17 C 0.4375(5) -0.0106(2) 0.7300(5)
C18 C 0.6263(6) -0.0341(2) 0.7765(6)
C19 C 0.7436(5) 0.0197(2) 0.8365(6)
H1 H 0.6252 0.3191 0.6770
H2 H 0.8716 0.4172 1.1793
H3 H 0.8102 0.4664 1.0102
H4 H 0.9919 0.4073 1.0054
H5 H 0.8617 0.2839 1.1435
H6 H 0.9675 0.2692 0.9591
H7 H 0.5019 0.4473 0.7215
H8 H 0.7000 0.4693 0.6994
H9 H 0.5877 0.4293 0.5258
H10 H 0.8425 0.2194 0.5652
H11 H 1.1162 0.1739 0.4162
H12 H 1.3261 0.2544 0.3724
H13 H 1.2692 0.3839 0.4775
H14 H 0.9973 0.4304 0.6447
H15 H 0.4278 0.1718 0.8173
H16 H 0.2285 0.0781 0.7070
H17 H 0.6787 -0.0871 0.7642
H18 H 0.8773 0.0050 0.8690
loop_
_geom_bond_atom_site_label_1
_geom_bond_atom_site_label_2
_geom_bond_site_symmetry_1
_geom_bond_site_symmetry_2
O1 C5 1_555 1_555
O2 C13 1_555 1_555
O3 N2 1_555 1_555
O4 N2 1_555 1_555
N1 C1 1_555 1_555
N2 C17 1_555 1_555
C1 C2 1_555 1_555
C2 C3 1_555 1_555
C3 C6 1_555 1_555
C4 C2 1_555 1_555
C5 C2 1_555 1_555
C6 H7 1_555 1_555
C7 C3 1_555 1_555
C8 C7 1_555 1_555
C9 C8 1_555 1_555
C10 C9 1_555 1_555
C11 C10 1_555 1_555
C12 C7 1_555 1_555
C13 O1 1_555 1_555
C14 C13 1_555 1_555
C15 C14 1_555 1_555
C16 C15 1_555 1_555
C17 C16 1_555 1_555
C18 C17 1_555 1_555
C19 C14 1_555 1_555
H1 C3 1_555 1_555
H2 C4 1_555 1_555
H3 C4 1_555 1_555
H4 C4 1_555 1_555
H5 C5 1_555 1_555
H6 C5 1_555 1_555
H8 C6 1_555 1_555
H9 C6 1_555 1_555
H10 C8 1_555 1_555
H11 C9 1_555 1_555
H12 C10 1_555 1_555
H13 C11 1_555 1_555
H14 C12 1_555 1_555
H15 C15 1_555 1_555
H16 C16 1_555 1_555
H17 C18 1_555 1_555
H18 C19 1_555 1_555
C11 C12 1_555 1_555
C18 C19 1_555 1_555

#END
