
#######################################################################
#
#                 Cambridge Crystallographic Data Centre
#                                CCDC 
#
#######################################################################
#
# If this CIF has been generated from an entry in the Cambridge 
# Structural Database, then it will include bibliographic, chemical, 
# crystal, experimental, refinement or atomic coordinate data resulting 
# from the CCDC's data processing and validation procedures.
#
#######################################################################

data_SIPRUF
_chemical_compound_source        'leaves and fruits of Daphniphyllum paxianum'
_chemical_name_common            
2a-hydroxy-8,10b-dimethyl-2,2a,3,4,4a,5,7,8,9,10,10a,10b,11,12-tetradecahydro-1H-9,10c-methanocyclopenta[1,8]azuleno[4,5-a]indolizine-1,13-dione
_chemical_formula_moiety         'C21 H27 N1 O3'
_chemical_name_systematic        'Daphnipaxianine A'
_symmetry_cell_setting           orthorhombic
_symmetry_space_group_name_H-M   'P 21 21 21'
_symmetry_Int_Tables_number      19
_space_group_name_Hall           'P 2ac 2ab'
loop_
_symmetry_equiv_pos_site_id
_symmetry_equiv_pos_as_xyz
1 x,y,z
2 1/2-x,-y,1/2+z
3 -x,1/2+y,1/2-z
4 1/2+x,1/2-y,-z
_cell_length_a                   8.0560(16)
_cell_length_b                   13.046(3)
_cell_length_c                   16.798(3)
_cell_angle_alpha                90
_cell_angle_beta                 90
_cell_angle_gamma                90
_cell_volume                     1765.45
_exptl_crystal_colour            colorless
_exptl_crystal_description       column
_chemical_melting_point          '175 deg.C'
_cell_formula_units_Z            4
loop_
_atom_site_label
_atom_site_type_symbol
_atom_site_fract_x
_atom_site_fract_y
_atom_site_fract_z
O1 O 0.2451(3) 0.97362(18) 0.51524(13)
O2 O 0.0109(2) 0.8614(2) 0.60126(13)
H1 H 0.0568 0.8950 0.5664
O3 O 0.1817(3) 0.57243(18) 0.66122(15)
N1 N 0.5286(3) 1.13632(19) 0.65611(16)
C1 C 0.3870(4) 0.9702(2) 0.54143(16)
C2 C 0.5197(3) 1.0412(2) 0.50834(17)
H2 H 0.5422 1.0216 0.4531
C3 C 0.6809(4) 1.0326(3) 0.55578(19)
H3 H 0.7334 0.9668 0.5461
H4 H 0.7574 1.0865 0.5405
C4 C 0.6340(3) 1.0430(2) 0.64374(19)
H5 H 0.7356 1.0496 0.6754
C5 C 0.5301(3) 0.9513(2) 0.67625(16)
C6 C 0.4116(3) 1.0080(2) 0.73423(17)
H6 H 0.4831 1.0305 0.7781
C7 C 0.3687(4) 1.1061(2) 0.68943(19)
H7 H 0.2879 1.0932 0.6478
H8 H 0.3257 1.1581 0.7252
C8 C 0.4392(3) 0.8936(2) 0.60530(16)
C9 C 0.2978(3) 0.8265(2) 0.63488(16)
C10 C 0.1237(3) 0.8464(2) 0.66662(17)
C11 C 0.1105(4) 0.9358(3) 0.7245(2)
H9 H 0.0168 0.9241 0.7596
H10 H 0.0881 0.9979 0.6946
C12 C 0.2656(4) 0.9527(3) 0.77520(18)
H11 H 0.2341 0.9919 0.8219
H12 H 0.3044 0.8864 0.7935
C13 C 0.5491(4) 0.8087(2) 0.56175(18)
H13 H 0.5308 0.8112 0.5047
H14 H 0.6660 0.8207 0.5719
C14 C 0.4976(4) 0.7042(2) 0.59462(19)
H15 H 0.4868 0.6538 0.5524
H16 H 0.5764 0.6794 0.6338
C15 C 0.3345(3) 0.7274(2) 0.63154(17)
C16 C 0.1988(4) 0.6649(2) 0.66415(18)
C17 C 0.0804(4) 0.7409(3) 0.7025(2)
H17 H 0.0950 0.7417 0.7598
H18 H -0.0338 0.7229 0.6907
C18 C 0.4601(4) 1.1540(2) 0.50940(18)
H19 H 0.3385 1.1548 0.5085
C19 C 0.5200(4) 1.2049(2) 0.58757(19)
H20 H 0.6294 1.2338 0.5786
H21 H 0.4457 1.2610 0.6003
C20 C 0.5244(5) 1.2137(3) 0.4372(2)
H22 H 0.4854 1.2831 0.4399
H23 H 0.4844 1.1821 0.3893
H24 H 0.6435 1.2131 0.4373
C21 C 0.6368(4) 0.8755(3) 0.72362(19)
H25 H 0.6913 0.9110 0.7663
H26 H 0.7186 0.8456 0.6891
H27 H 0.5675 0.8224 0.7451
loop_
_geom_bond_atom_site_label_1
_geom_bond_atom_site_label_2
_geom_bond_site_symmetry_1
_geom_bond_site_symmetry_2
O1 C1 1_555 1_555
O2 H1 1_555 1_555
O3 C16 1_555 1_555
N1 C4 1_555 1_555
C1 C2 1_555 1_555
C2 H2 1_555 1_555
C3 C2 1_555 1_555
H3 C3 1_555 1_555
H4 C3 1_555 1_555
C4 C3 1_555 1_555
H5 C4 1_555 1_555
C5 C4 1_555 1_555
C6 C5 1_555 1_555
H6 C6 1_555 1_555
C7 N1 1_555 1_555
H7 C7 1_555 1_555
H8 C7 1_555 1_555
C8 C1 1_555 1_555
C9 C8 1_555 1_555
C10 O2 1_555 1_555
C11 C10 1_555 1_555
H9 C11 1_555 1_555
H10 C11 1_555 1_555
C12 C6 1_555 1_555
H11 C12 1_555 1_555
H12 C12 1_555 1_555
C13 C8 1_555 1_555
H13 C13 1_555 1_555
H14 C13 1_555 1_555
C14 C13 1_555 1_555
H15 C14 1_555 1_555
H16 C14 1_555 1_555
C15 C9 1_555 1_555
C16 C15 1_555 1_555
C17 C10 1_555 1_555
H17 C17 1_555 1_555
H18 C17 1_555 1_555
C18 C2 1_555 1_555
H19 C18 1_555 1_555
C19 N1 1_555 1_555
H20 C19 1_555 1_555
H21 C19 1_555 1_555
C20 C18 1_555 1_555
H22 C20 1_555 1_555
H23 C20 1_555 1_555
H24 C20 1_555 1_555
C21 C5 1_555 1_555
H25 C21 1_555 1_555
H26 C21 1_555 1_555
H27 C21 1_555 1_555
C5 C8 1_555 1_555
C6 C7 1_555 1_555
C9 C10 1_555 1_555
C11 C12 1_555 1_555
C14 C15 1_555 1_555
C16 C17 1_555 1_555
C18 C19 1_555 1_555

#END
