
#######################################################################
#
#                 Cambridge Crystallographic Data Centre
#                                CCDC 
#
#######################################################################
#
# If this CIF has been generated from an entry in the Cambridge 
# Structural Database, then it will include bibliographic, chemical, 
# crystal, experimental, refinement or atomic coordinate data resulting 
# from the CCDC's data processing and validation procedures.
#
#######################################################################

data_SIPRUF01
_chemical_name_common            'Daphnipaxianine A'
_chemical_formula_moiety         'C21 H27 N1 O3'
_chemical_name_systematic        
2a-hydroxy-8,10b-dimethyl-2,2a,3,4,4a,5,7,8,9,10,10a,10b,11,12-tetradecahydro-1H-9,10c-methanocyclopenta[1,8]azuleno[4,5-a]indolizine-1,13-dione
_symmetry_cell_setting           orthorhombic
_symmetry_space_group_name_H-M   'P 21 21 21'
_symmetry_Int_Tables_number      19
_space_group_name_Hall           'P 2ac 2ab'
loop_
_symmetry_equiv_pos_site_id
_symmetry_equiv_pos_as_xyz
1 x,y,z
2 1/2-x,-y,1/2+z
3 1/2+x,1/2-y,-z
4 -x,1/2+y,1/2-z
_cell_length_a                   7.9748(2)
_cell_length_b                   13.0316(3)
_cell_length_c                   16.6727(5)
_cell_angle_alpha                90
_cell_angle_beta                 90
_cell_angle_gamma                90
_cell_volume                     1732.7
_exptl_crystal_colour            colorless
_exptl_crystal_description       block
_cell_formula_units_Z            4
loop_
_atom_site_label
_atom_site_type_symbol
_atom_site_fract_x
_atom_site_fract_y
_atom_site_fract_z
C1 C 0.6132(2) 0.03053(15) 0.04167(11)
C2 C 0.4786(2) -0.04072(14) 0.00842(11)
H1 H 0.4558 -0.0213 -0.0473
C3 C 0.3159(2) -0.03201(15) 0.05629(12)
H2 H 0.2385 -0.0860 0.0408
H3 H 0.2628 0.0338 0.0464
C4 C 0.3625(2) -0.04229(15) 0.14483(12)
H4 H 0.2596 -0.0486 0.1766
C5 C 0.4676(2) 0.04999(14) 0.17736(11)
C6 C 0.5596(2) 0.10731(14) 0.10559(11)
C7 C 0.4470(3) 0.19139(14) 0.06137(12)
H5 H 0.4667 0.1894 0.0040
H6 H 0.3291 0.1782 0.0711
C8 C 0.4969(3) 0.29734(14) 0.09555(12)
H7 H 0.5064 0.3483 0.0534
H8 H 0.4169 0.3209 0.1353
C9 C 0.6630(2) 0.27481(15) 0.13246(11)
C10 C 0.7010(2) 0.17510(14) 0.13547(11)
C11 C 0.8001(3) 0.33744(15) 0.16466(12)
C12 C 0.9207(3) 0.26172(16) 0.20351(13)
H9 H 0.9058 0.2610 0.2613
H10 H 1.0359 0.2800 0.1916
C13 C 0.8772(2) 0.15572(15) 0.16724(12)
C14 C 0.8912(2) 0.06581(15) 0.22554(12)
H11 H 0.9858 0.0777 0.2609
H12 H 0.9139 0.0038 0.1953
C15 C 0.7344(2) 0.04873(15) 0.27656(11)
H13 H 0.6948 0.1151 0.2949
H14 H 0.7664 0.0096 0.3237
C16 C 0.5877(2) -0.00681(14) 0.23565(11)
H15 H 0.5157 -0.0293 0.2799
C17 C 0.6305(3) -0.10474(15) 0.19063(12)
H16 H 0.7112 -0.0918 0.1483
H17 H 0.6750 -0.1566 0.2266
C18 C 0.4775(3) -0.20468(15) 0.08850(12)
H18 H 0.3670 -0.2334 0.0792
H19 H 0.5521 -0.2611 0.1015
C19 C 0.5393(3) -0.15406(14) 0.00996(12)
H20 H 0.6621 -0.1549 0.0094
C20 C 0.4752(3) -0.21364(17) -0.06264(13)
H21 H 0.5038 -0.2848 -0.0569
H22 H 0.5260 -0.1869 -0.1105
H23 H 0.3556 -0.2067 -0.0662
C21 C 0.3603(2) 0.12601(16) 0.22471(12)
H24 H 0.3122 0.0920 0.2703
H25 H 0.2722 0.1517 0.1910
H26 H 0.4289 0.1820 0.2426
N1 N 0.4684(2) -0.13602(12) 0.15762(10)
O1 O 0.75593(17) 0.02731(11) 0.01556(8)
O2 O 0.99128(17) 0.14131(11) 0.10130(8)
H27 H 0.9499 0.1015 0.0688
O3 O 0.8166(2) 0.43027(11) 0.16122(9)
loop_
_geom_bond_atom_site_label_1
_geom_bond_atom_site_label_2
_geom_bond_site_symmetry_1
_geom_bond_site_symmetry_2
C1 C2 1_555 1_555
C2 H1 1_555 1_555
C3 C2 1_555 1_555
H2 C3 1_555 1_555
H3 C3 1_555 1_555
C4 C3 1_555 1_555
H4 C4 1_555 1_555
C5 C4 1_555 1_555
C6 C1 1_555 1_555
C7 C6 1_555 1_555
H5 C7 1_555 1_555
H6 C7 1_555 1_555
C8 C7 1_555 1_555
H7 C8 1_555 1_555
H8 C8 1_555 1_555
C9 C8 1_555 1_555
C10 C6 1_555 1_555
C11 C9 1_555 1_555
C12 C11 1_555 1_555
H9 C12 1_555 1_555
H10 C12 1_555 1_555
C13 C10 1_555 1_555
C14 C13 1_555 1_555
H11 C14 1_555 1_555
H12 C14 1_555 1_555
C15 C14 1_555 1_555
H13 C15 1_555 1_555
H14 C15 1_555 1_555
C16 C5 1_555 1_555
H15 C16 1_555 1_555
C17 C16 1_555 1_555
H16 C17 1_555 1_555
H17 C17 1_555 1_555
C18 H18 1_555 1_555
H19 C18 1_555 1_555
C19 C2 1_555 1_555
H20 C19 1_555 1_555
C20 C19 1_555 1_555
H21 C20 1_555 1_555
H22 C20 1_555 1_555
H23 C20 1_555 1_555
C21 C5 1_555 1_555
H24 C21 1_555 1_555
H25 C21 1_555 1_555
H26 C21 1_555 1_555
N1 C4 1_555 1_555
O1 C1 1_555 1_555
O2 C13 1_555 1_555
H27 O2 1_555 1_555
O3 C11 1_555 1_555
C5 C6 1_555 1_555
C9 C10 1_555 1_555
C12 C13 1_555 1_555
C15 C16 1_555 1_555
C17 N1 1_555 1_555
C18 C19 1_555 1_555
C18 N1 1_555 1_555

#END
