
#######################################################################
#
#                 Cambridge Crystallographic Data Centre
#                                CCDC 
#
#######################################################################
#
# If this CIF has been generated from an entry in the Cambridge 
# Structural Database, then it will include bibliographic, chemical, 
# crystal, experimental, refinement or atomic coordinate data resulting 
# from the CCDC's data processing and validation procedures.
#
#######################################################################

data_SIPTOB
_chemical_name_common            
"(4R)-1,2,3,5-tetrahydrospiro(4H-benzazepinium-4,1'-[2]cyclopentene)-3-carboxylic acid (1R)-(-)-10-camphorsulfonate"
_chemical_formula_moiety         'C15 H18 N1 O2 1+,C10 H15 O4 S1 1-'
_chemical_name_systematic        
"(R)-3'-carboxy-1,2,3,5-tetrahydrospiro(1-benzazepinium-4,1'-cyclopent[2]ene) (-)-((1R)-7,7-dimethyl-2-oxobicyclo[2.2.1]hept-1-yl)methanesulfonate"
_symmetry_cell_setting           orthorhombic
_symmetry_space_group_name_H-M   'P 21 21 21'
_symmetry_Int_Tables_number      19
_space_group_name_Hall           'P 2ac 2ab'
loop_
_symmetry_equiv_pos_site_id
_symmetry_equiv_pos_as_xyz
1 x,y,z
2 1/2-x,-y,1/2+z
3 -x,1/2+y,1/2-z
4 1/2+x,1/2-y,-z
_cell_length_a                   7.095(3)
_cell_length_b                   15.592(5)
_cell_length_c                   21.478(7)
_cell_angle_alpha                90
_cell_angle_beta                 90
_cell_angle_gamma                90
_cell_volume                     2376.01
_exptl_crystal_colour            colorless
_exptl_crystal_description       'rectangular plate'
_chemical_melting_point          '289-291 deg.C'
_cell_formula_units_Z            4
_exptl_crystal_recrystallization_method methanol
loop_
_atom_site_label
_atom_site_type_symbol
_atom_site_fract_x
_atom_site_fract_y
_atom_site_fract_z
O1 O -0.2531(9) 0.3286(4) 0.3864(2)
H1 H -0.3187 0.3719 0.3864
O2 O -0.1029(8) 0.3960(3) 0.3091(3)
N1 N 0.5041(7) 0.0306(2) 0.45854(16)
H2 H 0.395(7) 0.010(3) 0.474(2)
H3 H 0.630(8) 0.010(4) 0.485(2)
C1 C 0.5179(7) 0.0034(3) 0.39280(19)
C2 C 0.6862(8) -0.0325(3) 0.3738(2)
H4 H 0.7841 -0.0409 0.4020
C3 C 0.7062(9) -0.0559(3) 0.3119(3)
H5 H 0.8186 -0.0799 0.2980
C4 C 0.5601(10) -0.0437(3) 0.2711(3)
H6 H 0.5735 -0.0598 0.2296
C5 C 0.3928(9) -0.0074(3) 0.2912(2)
H7 H 0.2941 -0.0003 0.2632
C6 C 0.3702(7) 0.0184(3) 0.3524(2)
C7 C 0.1902(7) 0.0620(3) 0.3729(2)
H8 H 0.1394 0.0318 0.4087
H9 H 0.0983 0.0583 0.3396
C8 C 0.2200(7) 0.1582(3) 0.3904(2)
C9 C 0.3087(8) 0.1672(3) 0.4548(2)
H10 H 0.3198 0.2280 0.4638
H11 H 0.2212 0.1434 0.4849
C10 C 0.4991(9) 0.1267(3) 0.4663(2)
H12 H 0.5896 0.1520 0.4378
H13 H 0.5391 0.1407 0.5083
C11 C 0.0344(8) 0.2051(3) 0.3914(3)
H14 H -0.0712 0.1869 0.4133
C12 C 0.0408(8) 0.2752(3) 0.3570(2)
C13 C 0.2258(9) 0.2873(4) 0.3267(3)
H15 H 0.2923 0.3357 0.3447
H16 H 0.2108 0.2971 0.2824
C14 C 0.3293(9) 0.2058(3) 0.3385(3)
H17 H 0.4573 0.2177 0.3518
H18 H 0.3338 0.1712 0.3010
C15 C -0.1104(11) 0.3392(4) 0.3485(3)
S1 S -0.00413(19) -0.01489(8) 0.55413(5)
O3 O -0.3934(7) -0.1520(3) 0.49687(17)
O4 O 0.1783(5) -0.0252(3) 0.52522(18)
O5 O 0.0102(7) 0.0356(3) 0.61104(16)
O6 O -0.1441(5) 0.0173(2) 0.51218(18)
C16 C -0.2691(6) -0.1362(3) 0.6012(2)
C17 C -0.4083(8) -0.1621(3) 0.5517(3)
C18 C -0.5701(9) -0.2059(4) 0.5847(3)
H19 H -0.5864 -0.2643 0.5702
H20 H -0.6871 -0.1747 0.5789
C19 C -0.5062(10) -0.2038(3) 0.6533(3)
H21 H -0.5680 -0.2457 0.6805
C20 C -0.5297(9) -0.1094(4) 0.6734(3)
H22 H -0.6528 -0.0875 0.6618
H23 H -0.5128 -0.1029 0.7179
C21 C -0.3722(8) -0.0635(3) 0.6371(3)
H24 H -0.2866 -0.0345 0.6654
H25 H -0.4246 -0.0216 0.6085
C22 C -0.2920(8) -0.2141(3) 0.6475(2)
C23 C -0.2295(10) -0.2986(3) 0.6187(3)
H26 H -0.2675 -0.3452 0.6451
H27 H -0.0948 -0.2989 0.6143
H28 H -0.2868 -0.3051 0.5785
C24 C -0.1849(11) -0.2014(5) 0.7091(3)
H29 H -0.2255 -0.2437 0.7387
H30 H -0.2104 -0.1452 0.7252
H31 H -0.0521 -0.2075 0.7019
C25 C -0.0723(7) -0.1204(3) 0.5776(2)
H32 H -0.0525 -0.1581 0.5423
H33 H 0.0143 -0.1385 0.6099
loop_
_geom_bond_atom_site_label_1
_geom_bond_atom_site_label_2
_geom_bond_site_symmetry_1
_geom_bond_site_symmetry_2
O1 H1 1_555 1_555
O2 C15 1_555 1_555
N1 H2 1_555 1_555
H3 N1 1_555 1_555
C1 N1 1_555 1_555
C2 C1 1_555 1_555
H4 C2 1_555 1_555
C3 C2 1_555 1_555
H5 C3 1_555 1_555
C4 C3 1_555 1_555
H6 C4 1_555 1_555
C5 C4 1_555 1_555
H7 C5 1_555 1_555
C6 C1 1_555 1_555
C7 C6 1_555 1_555
H8 C7 1_555 1_555
H9 C7 1_555 1_555
C8 C7 1_555 1_555
C9 C8 1_555 1_555
H10 C9 1_555 1_555
H11 C9 1_555 1_555
C10 N1 1_555 1_555
H12 C10 1_555 1_555
H13 C10 1_555 1_555
C11 C8 1_555 1_555
H14 C11 1_555 1_555
C12 C11 1_555 1_555
C13 C12 1_555 1_555
H15 C13 1_555 1_555
H16 C13 1_555 1_555
C14 C8 1_555 1_555
H17 C14 1_555 1_555
H18 C14 1_555 1_555
C15 O1 1_555 1_555
S1 O4 1_555 1_555
O3 C17 1_555 1_555
O5 S1 1_555 1_555
O6 S1 1_555 1_555
C16 C17 1_555 1_555
C17 C18 1_555 1_555
C18 H19 1_555 1_555
H20 C18 1_555 1_555
C19 C18 1_555 1_555
H21 C19 1_555 1_555
C20 C19 1_555 1_555
H22 C20 1_555 1_555
H23 C20 1_555 1_555
C21 C16 1_555 1_555
H24 C21 1_555 1_555
H25 C21 1_555 1_555
C22 C16 1_555 1_555
C23 C22 1_555 1_555
H26 C23 1_555 1_555
H27 C23 1_555 1_555
H28 C23 1_555 1_555
C24 C22 1_555 1_555
H29 C24 1_555 1_555
H30 C24 1_555 1_555
H31 C24 1_555 1_555
C25 S1 1_555 1_555
H32 C25 1_555 1_555
H33 C25 1_555 1_555
C5 C6 1_555 1_555
C9 C10 1_555 1_555
C12 C15 1_555 1_555
C13 C14 1_555 1_555
C16 C25 1_555 1_555
C19 C22 1_555 1_555
C20 C21 1_555 1_555

#END
