
#######################################################################
#
#                 Cambridge Crystallographic Data Centre
#                                CCDC 
#
#######################################################################
#
# If this CIF has been generated from an entry in the Cambridge 
# Structural Database, then it will include bibliographic, chemical, 
# crystal, experimental, refinement or atomic coordinate data resulting 
# from the CCDC's data processing and validation procedures.
#
#######################################################################

data_SIQBIG01
_chemical_formula_moiety         'C38 H26 N2 S3'
_chemical_name_systematic        
2,8-bis(1-methyl-10H-phenothiazin-10-yl)dibenzo[b,d]thiophene
_symmetry_cell_setting           triclinic
_symmetry_space_group_name_H-M   'P -1'
_symmetry_Int_Tables_number      2
_space_group_name_Hall           '-P 1'
loop_
_symmetry_equiv_pos_site_id
_symmetry_equiv_pos_as_xyz
1 x,y,z
2 -x,-y,-z
_cell_length_a                   7.9477(4)
_cell_length_b                   11.9549(7)
_cell_length_c                   15.9521(9)
_cell_angle_alpha                91.458(2)
_cell_angle_beta                 95.161(2)
_cell_angle_gamma                92.542(2)
_cell_volume                     1507.38
_exptl_crystal_colour            colorless
_exptl_crystal_description       irregular
_cell_formula_units_Z            2
_exptl_crystal_recrystallization_method chloroform/hexane
_exptl_crystal_preparation       Luminescent
loop_
_atom_site_label
_atom_site_type_symbol
_atom_site_fract_x
_atom_site_fract_y
_atom_site_fract_z
S1 S 0.67988(5) 0.59245(3) 0.47865(3)
S2 S 0.64712(5) -0.02985(4) 0.36463(3)
N1 N 0.82912(16) 0.16867(11) 0.30066(9)
C1 C 0.73396(19) 0.46399(13) 0.43551(10)
C2 C 0.85708(19) 0.39393(13) 0.46804(10)
H1 H 0.919411 0.412126 0.519106
C3 C 0.88595(19) 0.29703(13) 0.42370(10)
H2 H 0.969087 0.250605 0.445288
C4 C 0.79265(19) 0.26667(12) 0.34654(10)
C5 C 0.66557(19) 0.33568(13) 0.31582(10)
H3 H 0.600478 0.316241 0.265748
C6 C 0.63616(19) 0.43385(13) 0.36025(10)
C7 C 0.5118(2) 0.51571(13) 0.33784(10)
C8 C 0.3910(2) 0.51279(13) 0.26872(11)
H4 H 0.384286 0.452910 0.230013
C9 C 0.2806(2) 0.59943(13) 0.25757(11)
C10 C 0.2944(2) 0.69012(13) 0.31629(11)
H5 H 0.222109 0.748800 0.308670
C11 C 0.4135(2) 0.69334(13) 0.38496(10)
H6 H 0.421123 0.753553 0.423383
C12 C 0.5219(2) 0.60590(13) 0.39616(10)
C13 C 0.93903(19) 0.09019(13) 0.34081(10)
C14 C 0.8687(2) -0.00709(13) 0.37215(10)
C15 C 0.9702(2) -0.08590(15) 0.41129(11)
H7 H 0.922404 -0.152137 0.429918
C16 C 1.1420(2) -0.06430(16) 0.42204(12)
H8 H 1.210899 -0.114495 0.450597
C17 C 1.2131(2) 0.03161(18) 0.39055(12)
H9 H 1.329670 0.044853 0.398432
C18 C 1.1147(2) 0.10934(16) 0.34725(11)
C19 C 0.69792(19) 0.11956(13) 0.24194(10)
C20 C 0.5986(2) 0.02870(13) 0.26536(10)
C21 C 0.4658(2) -0.01669(16) 0.21041(12)
H10 H 0.399718 -0.077511 0.225952
C22 C 0.4330(2) 0.02961(17) 0.13239(13)
H11 H 0.341929 0.001357 0.096172
C23 C 0.5343(2) 0.11748(17) 0.10772(12)
H12 H 0.512353 0.147291 0.054775
C24 C 0.6687(2) 0.16123(15) 0.16189(11)
H13 H 0.739265 0.218568 0.144508
C25 C 1.1954(2) 0.20913(19) 0.30901(14)
H14 H 1.161288 0.208670 0.249718
H15 H 1.316259 0.206169 0.317647
H16 H 1.160469 0.276439 0.335088
S3 S 0.30561(10) 0.69137(9) 0.04896(5)
N2 N 0.1460(7) 0.5942(5) 0.1929(3)
C26 C 0.0729(2) 0.69521(13) 0.16639(10)
C27 C 0.1400(5) 0.7519(3) 0.0987(2)
C28 C 0.0707(5) 0.8503(2) 0.0703(2)
H17 H 0.112123 0.886939 0.025114
C29 C -0.0611(6) 0.8930(3) 0.1103(3)
H18 H -0.104461 0.960628 0.093214
C30 C -0.1294(4) 0.8373(3) 0.1745(3)
H19 H -0.220574 0.865997 0.199226
C31 C -0.0622(4) 0.7370(3) 0.2032(2)
C32 C 0.1647(4) 0.5157(2) 0.12635(18)
C33 C 0.2435(3) 0.5487(2) 0.05700(19)
C34 C 0.2724(4) 0.4694(3) -0.0057(2)
H20 H 0.321060 0.490069 -0.054259
C35 C 0.2233(6) 0.3607(4) 0.0029(2)
H21 H 0.250760 0.308324 -0.038917
C36 C 0.1416(4) 0.3262(3) 0.0720(2)
H22 H 0.106661 0.251259 0.074931
C37 C 0.1089(4) 0.4044(3) 0.1335(2)
H23 H 0.050846 0.382946 0.179025
C38 C -0.1427(4) 0.6743(3) 0.2692(2)
H24 H -0.173163 0.598944 0.249533
H25 H -0.242577 0.711417 0.281699
H26 H -0.065879 0.673116 0.319083
S4? S 0.2885(2) 0.75235(16) 0.05488(12)
N3? N 0.1703(17) 0.5976(10) 0.1805(6)
C39? C 0.1121(12) 0.7725(7) 0.1102(6)
C40? C 0.0117(10) 0.8663(6) 0.0983(5)
H27? H 0.038630 0.919718 0.059690
C41? C -0.1226(10) 0.8769(7) 0.1429(5)
H28? H -0.185160 0.940563 0.136377
C42? C -0.1705(9) 0.7975(6) 0.1979(5)
H29? H -0.264879 0.808651 0.227054
C43? C -0.0803(10) 0.7027(6) 0.2097(6)
C44? C 0.2039(7) 0.5409(4) 0.1030(4)
C45? C 0.2659(6) 0.6038(5) 0.0404(3)
C46? C 0.3129(8) 0.5541(6) -0.0334(4)
H30? H 0.354765 0.597797 -0.074954
C47? C 0.2953(8) 0.4396(6) -0.0427(4)
H31? H 0.337530 0.409816 -0.090492
C48? C 0.2308(16) 0.3708(8) 0.0203(6)
H32? H 0.216444 0.291708 0.013277
C49? C 0.1772(8) 0.4262(5) 0.0901(4)
H33? H 0.128358 0.384515 0.130804
C50? C 0.068(3) 0.354(2) 0.1317(16)
H34? H 0.102246 0.357555 0.192345
H35? H -0.048324 0.377895 0.121625
H36? H 0.074966 0.277515 0.109835
C51? C -0.1218(11) 0.6203(7) 0.2704(5)
H37? H -0.109746 0.546509 0.247163
H38? H -0.236034 0.627639 0.284081
H39? H -0.045841 0.632068 0.320453
loop_
_geom_bond_atom_site_label_1
_geom_bond_atom_site_label_2
_geom_bond_site_symmetry_1
_geom_bond_site_symmetry_2
S1 C1 1_555 1_555
S2 C14 1_555 1_555
N1 C4 1_555 1_555
C1 C2 1_555 1_555
C2 H1 1_555 1_555
C3 C2 1_555 1_555
H2 C3 1_555 1_555
C4 C3 1_555 1_555
C5 C4 1_555 1_555
H3 C5 1_555 1_555
C6 C1 1_555 1_555
C7 C6 1_555 1_555
C8 C7 1_555 1_555
H4 C8 1_555 1_555
C9 C8 1_555 1_555
C10 C9 1_555 1_555
H5 C10 1_555 1_555
C11 C10 1_555 1_555
H6 C11 1_555 1_555
C12 S1 1_555 1_555
C13 N1 1_555 1_555
C14 C13 1_555 1_555
C15 C14 1_555 1_555
H7 C15 1_555 1_555
C16 C15 1_555 1_555
H8 C16 1_555 1_555
C17 C16 1_555 1_555
H9 C17 1_555 1_555
C18 C13 1_555 1_555
C19 N1 1_555 1_555
C20 S2 1_555 1_555
C21 C20 1_555 1_555
H10 C21 1_555 1_555
C22 C21 1_555 1_555
H11 C22 1_555 1_555
C23 C22 1_555 1_555
H12 C23 1_555 1_555
C24 C19 1_555 1_555
H13 C24 1_555 1_555
C25 C18 1_555 1_555
H14 C25 1_555 1_555
H15 C25 1_555 1_555
H16 C25 1_555 1_555
S3 C27 1_555 1_555
N2 C9 1_555 1_555
C26 N2 1_555 1_555
C27 C26 1_555 1_555
C28 C27 1_555 1_555
H17 C28 1_555 1_555
C29 C28 1_555 1_555
H18 C29 1_555 1_555
C30 C29 1_555 1_555
H19 C30 1_555 1_555
C31 C26 1_555 1_555
C32 N2 1_555 1_555
C33 S3 1_555 1_555
C34 C33 1_555 1_555
H20 C34 1_555 1_555
C35 C34 1_555 1_555
H21 C35 1_555 1_555
C36 C35 1_555 1_555
H22 C36 1_555 1_555
C37 C32 1_555 1_555
H23 C37 1_555 1_555
C38 C31 1_555 1_555
H24 C38 1_555 1_555
H25 C38 1_555 1_555
H26 C38 1_555 1_555
C5 C6 1_555 1_555
C7 C12 1_555 1_555
C11 C12 1_555 1_555
C17 C18 1_555 1_555
C19 C20 1_555 1_555
C23 C24 1_555 1_555
C30 C31 1_555 1_555
C32 C33 1_555 1_555
C36 C37 1_555 1_555

#END
