
#######################################################################
#
#                 Cambridge Crystallographic Data Centre
#                                CCDC 
#
#######################################################################
#
# If this CIF has been generated from an entry in the Cambridge 
# Structural Database, then it will include bibliographic, chemical, 
# crystal, experimental, refinement or atomic coordinate data resulting 
# from the CCDC's data processing and validation procedures.
#
#######################################################################

data_SIQFUW
_chemical_formula_moiety         'C21 H21 N1 O4'
_chemical_name_systematic        
'dimethyl 8-(cyanomethyl)-5-methyl-5,6,7,8-tetrahydrophenanthrene-2,5-dicarboxylate'
_symmetry_cell_setting           monoclinic
_symmetry_space_group_name_H-M   'P 21/n'
_symmetry_Int_Tables_number      14
_space_group_name_Hall           '-P 2yn'
loop_
_symmetry_equiv_pos_site_id
_symmetry_equiv_pos_as_xyz
1 x,y,z
2 1/2-x,1/2+y,1/2-z
3 -x,-y,-z
4 1/2+x,1/2-y,1/2+z
_cell_length_a                   10.271(2)
_cell_length_b                   18.417(4)
_cell_length_c                   10.492(2)
_cell_angle_alpha                90
_cell_angle_beta                 114.416(3)
_cell_angle_gamma                90
_cell_volume                     1807.18
_exptl_crystal_colour            colorless
_exptl_crystal_description       block
_cell_formula_units_Z            4
loop_
_atom_site_label
_atom_site_type_symbol
_atom_site_fract_x
_atom_site_fract_y
_atom_site_fract_z
C1 C 1.11122(16) 0.05974(9) 0.32878(15)
C2 C 1.16190(16) 0.05008(8) 0.22835(15)
H1 H 1.2467 0.0247 0.2503
C3 C 1.08798(14) 0.07788(8) 0.09204(15)
C4 C 1.14051(15) 0.06668(8) -0.01035(16)
H2 H 1.2230 0.0394 0.0110
C5 C 1.07228(16) 0.09522(9) -0.13958(16)
H3 H 1.1084 0.0868 -0.2062
C6 C 0.94679(15) 0.13773(8) -0.17628(15)
C7 C 0.88715(14) 0.14664(8) -0.08119(14)
C8 C 0.95820(14) 0.11634(8) 0.05705(14)
C9 C 0.90675(16) 0.12241(9) 0.16253(15)
H4 H 0.8196 0.1453 0.1416
C10 C 0.98101(17) 0.09568(9) 0.29356(16)
H5 H 0.9447 0.1014 0.3608
C11 C 0.74616(15) 0.18733(9) -0.11947(16)
C12 C 0.67369(18) 0.20417(12) -0.27835(19)
H6 H 0.6285 0.1605 -0.3288
H7 H 0.5998 0.2404 -0.2957
C13 C 0.7795(2) 0.23157(12) -0.33239(19)
H8 H 0.8308 0.2730 -0.2776
H9 H 0.7297 0.2468 -0.4291
C14 C 0.88344(17) 0.17127(10) -0.32181(16)
H10 H 0.8285 0.1330 -0.3867
C15 C 1.19310(19) 0.03477(10) 0.47508(17)
C16 C 1.3920(3) -0.03279(15) 0.6277(2)
H11 H 1.4436 0.0072 0.6850
H12 H 1.4584 -0.0680 0.6223
H13 H 1.3332 -0.0548 0.6682
C17 C 0.64010(15) 0.13631(10) -0.09956(16)
C18 C 0.4356(3) 0.12590(16) -0.0559(4)
H14 H 0.3801 0.1049 -0.1459
H15 H 0.3747 0.1549 -0.0272
H16 H 0.4782 0.0879 0.0112
C19 C 0.9967(2) 0.19747(10) -0.37133(17)
H17 H 1.0493 0.1558 -0.3816
H18 H 0.9490 0.2200 -0.4626
C20 C 1.0964(2) 0.24883(12) -0.2764(2)
C21 C 0.76895(18) 0.25927(10) -0.0390(2)
H19 H 0.6788 0.2836 -0.0655
H20 H 0.8330 0.2896 -0.0609
H21 H 0.8093 0.2496 0.0598
N1 N 1.1761(2) 0.28902(12) -0.2018(2)
O1 O 1.30297(14) -0.00688(8) 0.48911(12)
O2 O 1.16509(18) 0.05103(10) 0.57134(14)
O3 O 0.63390(12) 0.07240(7) -0.12077(14)
O4 O 0.54617(13) 0.17086(8) -0.06462(16)
loop_
_geom_bond_atom_site_label_1
_geom_bond_atom_site_label_2
_geom_bond_site_symmetry_1
_geom_bond_site_symmetry_2
C1 C2 1_555 1_555
C2 H1 1_555 1_555
C3 C2 1_555 1_555
C4 C3 1_555 1_555
H2 C4 1_555 1_555
C5 C4 1_555 1_555
H3 C5 1_555 1_555
C6 C5 1_555 1_555
C7 C6 1_555 1_555
C8 C3 1_555 1_555
C9 C8 1_555 1_555
H4 C9 1_555 1_555
C10 C1 1_555 1_555
H5 C10 1_555 1_555
C11 C7 1_555 1_555
C12 C11 1_555 1_555
H6 C12 1_555 1_555
H7 C12 1_555 1_555
C13 C12 1_555 1_555
H8 C13 1_555 1_555
H9 C13 1_555 1_555
C14 C6 1_555 1_555
H10 C14 1_555 1_555
C15 C1 1_555 1_555
C16 H11 1_555 1_555
H12 C16 1_555 1_555
H13 C16 1_555 1_555
C17 C11 1_555 1_555
C18 H14 1_555 1_555
H15 C18 1_555 1_555
H16 C18 1_555 1_555
C19 C14 1_555 1_555
H17 C19 1_555 1_555
H18 C19 1_555 1_555
C20 C19 1_555 1_555
C21 C11 1_555 1_555
H19 C21 1_555 1_555
H20 C21 1_555 1_555
H21 C21 1_555 1_555
N1 C20 1_555 1_555
O1 C15 1_555 1_555
O2 C15 1_555 1_555
O3 C17 1_555 1_555
O4 C17 1_555 1_555
C7 C8 1_555 1_555
C9 C10 1_555 1_555
C13 C14 1_555 1_555
C16 O1 1_555 1_555
C18 O4 1_555 1_555

#END
