
#######################################################################
#
#                 Cambridge Crystallographic Data Centre
#                                CCDC 
#
#######################################################################
#
# If this CIF has been generated from an entry in the Cambridge 
# Structural Database, then it will include bibliographic, chemical, 
# crystal, experimental, refinement or atomic coordinate data resulting 
# from the CCDC's data processing and validation procedures.
#
#######################################################################

data_SIQFIK
_chemical_formula_moiety         'C19 H19 N1 O2'
_chemical_name_systematic        
'methyl 1-(cyanomethyl)-4-methyl-1,2,3,4-tetrahydrophenanthrene-4-carboxylate'
_symmetry_cell_setting           orthorhombic
_symmetry_space_group_name_H-M   'P 21 21 21'
_symmetry_Int_Tables_number      19
_space_group_name_Hall           'P 2ac 2ab'
loop_
_symmetry_equiv_pos_site_id
_symmetry_equiv_pos_as_xyz
1 x,y,z
2 1/2+x,1/2-y,-z
3 -x,1/2+y,1/2-z
4 1/2-x,-y,1/2+z
_cell_length_a                   7.7693(13)
_cell_length_b                   12.582(2)
_cell_length_c                   15.723(3)
_cell_angle_alpha                90
_cell_angle_beta                 90
_cell_angle_gamma                90
_cell_volume                     1536.98
_exptl_crystal_colour            colorless
_exptl_crystal_description       block
_cell_formula_units_Z            4
loop_
_atom_site_label
_atom_site_type_symbol
_atom_site_fract_x
_atom_site_fract_y
_atom_site_fract_z
C1 C 0.1906(2) 0.03404(16) 0.79303(11)
C2 C 0.2741(2) 0.08332(14) 0.87192(9)
C3 C 0.3282(2) 0.02154(15) 0.93932(10)
C4 C 0.3028(3) -0.09786(17) 0.94235(13)
H1 H 0.197094 -0.110552 0.974813
C5 C 0.2742(3) -0.14456(18) 0.85502(15)
H2 H 0.239226 -0.218282 0.860141
H3 H 0.380597 -0.142114 0.822769
C6 C 0.1365(3) -0.08215(17) 0.80921(15)
H4 H 0.031846 -0.082933 0.842884
H5 H 0.111696 -0.116192 0.755226
C7 C 0.3013(2) 0.19594(14) 0.87420(9)
C8 C 0.3787(2) 0.24280(15) 0.94718(10)
C9 C 0.4314(3) 0.17666(17) 1.01387(10)
H6 H 0.484007 0.206251 1.061445
C10 C 0.4072(3) 0.07108(17) 1.01009(11)
H7 H 0.443528 0.029195 1.055405
C11 C 0.2523(3) 0.26629(16) 0.80807(11)
H8 H 0.203981 0.238573 0.758708
C12 C 0.2740(3) 0.37312(17) 0.81481(13)
H9 H 0.240059 0.417030 0.770293
C13 C 0.3468(3) 0.41784(18) 0.88778(14)
H10 H 0.358413 0.491182 0.892395
C14 C 0.4002(3) 0.35394(17) 0.95156(12)
H11 H 0.452026 0.383777 0.999222
C15 C 0.0219(2) 0.08707(15) 0.76885(10)
C16 C -0.2460(3) 0.14501(18) 0.82401(14)
H12 H -0.243740 0.219454 0.810693
H13 H -0.312125 0.133899 0.874819
H14 H -0.297534 0.106624 0.777797
C17 C 0.4477(3) -0.15791(19) 0.98860(14)
H15 H 0.450460 -0.135652 1.047650
H16 H 0.422911 -0.233458 0.987390
C18 C 0.6145(3) -0.1396(2) 0.95092(17)
C19 C 0.3165(3) 0.0379(2) 0.71783(13)
H17 H 0.346557 0.110383 0.706046
H18 H 0.263133 0.007046 0.668583
H19 H 0.418521 -0.001471 0.731824
N1 N 0.7449(4) -0.1266(3) 0.9221(2)
O1 O -0.07349(16) 0.10771(12) 0.83706(8)
O2 O -0.0273(2) 0.10250(14) 0.69770(8)
loop_
_geom_bond_atom_site_label_1
_geom_bond_atom_site_label_2
_geom_bond_site_symmetry_1
_geom_bond_site_symmetry_2
C1 C2 1_555 1_555
C2 C3 1_555 1_555
C3 C4 1_555 1_555
C4 H1 1_555 1_555
C5 C4 1_555 1_555
H2 C5 1_555 1_555
H3 C5 1_555 1_555
C6 C1 1_555 1_555
H4 C6 1_555 1_555
H5 C6 1_555 1_555
C7 C2 1_555 1_555
C8 C7 1_555 1_555
C9 C8 1_555 1_555
H6 C9 1_555 1_555
C10 C3 1_555 1_555
H7 C10 1_555 1_555
C11 C7 1_555 1_555
H8 C11 1_555 1_555
C12 C11 1_555 1_555
H9 C12 1_555 1_555
C13 C12 1_555 1_555
H10 C13 1_555 1_555
C14 C8 1_555 1_555
H11 C14 1_555 1_555
C15 C1 1_555 1_555
C16 H12 1_555 1_555
H13 C16 1_555 1_555
H14 C16 1_555 1_555
C17 C4 1_555 1_555
H15 C17 1_555 1_555
H16 C17 1_555 1_555
C18 C17 1_555 1_555
C19 C1 1_555 1_555
H17 C19 1_555 1_555
H18 C19 1_555 1_555
H19 C19 1_555 1_555
N1 C18 1_555 1_555
O1 C15 1_555 1_555
O2 C15 1_555 1_555
C5 C6 1_555 1_555
C9 C10 1_555 1_555
C13 C14 1_555 1_555
C16 O1 1_555 1_555

#END
