
#######################################################################
#
#                 Cambridge Crystallographic Data Centre
#                                CCDC 
#
#######################################################################
#
# If this CIF has been generated from an entry in the Cambridge 
# Structural Database, then it will include bibliographic, chemical, 
# crystal, experimental, refinement or atomic coordinate data resulting 
# from the CCDC's data processing and validation procedures.
#
#######################################################################

data_SIQHUY
_chemical_formula_moiety         'C27 H30 F1 N2 O1 1+,C4 H3 O4 1-'
_chemical_name_systematic        
'4-(diphenylmethyl)-1-[4-(4-fluorophenyl)-4-oxobutyl]piperazin-1-ium 3-carboxyprop-2-enoate'
_symmetry_cell_setting           monoclinic
_symmetry_space_group_name_H-M   'P 21/c'
_symmetry_Int_Tables_number      14
_space_group_name_Hall           '-P 2ybc'
loop_
_symmetry_equiv_pos_site_id
_symmetry_equiv_pos_as_xyz
1 x,y,z
2 -x,1/2+y,1/2-z
3 -x,-y,-z
4 x,1/2-y,1/2+z
_cell_length_a                   22.601(8)
_cell_length_b                   10.967(4)
_cell_length_c                   11.290(4)
_cell_angle_alpha                90
_cell_angle_beta                 92.377(11)
_cell_angle_gamma                90
_cell_volume                     2795.99
_exptl_crystal_colour            colorless
_exptl_crystal_description       Strip
_cell_formula_units_Z            4
loop_
_atom_site_label
_atom_site_type_symbol
_atom_site_fract_x
_atom_site_fract_y
_atom_site_fract_z
F1 F 0.05678(14) -0.0281(2) 0.5612(3)
N1 N 0.30345(13) 0.8539(3) 0.3670(3)
N2 N 0.18618(13) 0.7511(3) 0.3589(3)
H1 H 0.1906 0.6802 0.3215
O1 O 0.06238(18) 0.5281(3) 0.6638(4)
C1 C 0.4091(2) 0.9743(6) 0.1637(5)
H2 H 0.4228 0.8991 0.1386
C2 C 0.4173(3) 1.0764(8) 0.0947(6)
H3 H 0.4354 1.0695 0.0225
C3 C 0.3986(3) 1.1876(8) 0.1328(9)
H4 H 0.4048 1.2568 0.0873
C4 C 0.3700(3) 1.1976(6) 0.2408(8)
H5 H 0.3566 1.2733 0.2652
C5 C 0.3617(2) 1.0974(4) 0.3101(5)
H6 H 0.3439 1.1057 0.3825
C6 C 0.37989(18) 0.9830(4) 0.2729(5)
C7 C 0.36792(18) 0.8706(4) 0.3477(4)
H7 H 0.3830 0.7982 0.3080
C8 C 0.39716(18) 0.8814(4) 0.4657(4)
C9 C 0.4543(2) 0.8423(5) 0.4761(5)
H8 H 0.4728 0.8074 0.4122
C10 C 0.4828(3) 0.8555(6) 0.5799(7)
H9 H 0.5216 0.8283 0.5895
C11 C 0.4558(3) 0.9088(6) 0.6744(6)
H10 H 0.4773 0.9179 0.7459
C12 C 0.3985(3) 0.9486(4) 0.6665(5)
H11 H 0.3808 0.9840 0.7310
C13 C 0.3688(2) 0.9347(4) 0.5624(4)
H12 H 0.3296 0.9601 0.5536
C14 C 0.28924(17) 0.7375(4) 0.4247(4)
H13 H 0.3154 0.7264 0.4942
H14 H 0.2961 0.6709 0.3705
C15 C 0.22388(17) 0.7333(4) 0.4622(3)
H15 H 0.2156 0.6551 0.4981
H16 H 0.2170 0.7968 0.5199
C16 C 0.20618(17) 0.8591(4) 0.2887(4)
H17 H 0.1992 0.9327 0.3337
H18 H 0.1821 0.8638 0.2157
C17 C 0.27122(17) 0.8553(4) 0.2581(4)
H19 H 0.2795 0.7828 0.2124
H20 H 0.2814 0.9265 0.2122
C18 C 0.12096(18) 0.7643(4) 0.3900(4)
H21 H 0.0970 0.7478 0.3185
H22 H 0.1145 0.8491 0.4104
C19 C 0.09651(19) 0.6856(4) 0.4901(4)
H23 H 0.1196 0.7019 0.5628
H24 H 0.0560 0.7102 0.5027
C20 C 0.09749(19) 0.5505(4) 0.4665(4)
H25 H 0.1376 0.5253 0.4513
H26 H 0.0727 0.5325 0.3965
C21 C 0.07519(19) 0.4790(4) 0.5719(4)
C22 C 0.07104(17) 0.3447(4) 0.5640(4)
C23 C 0.0450(2) 0.2823(4) 0.6605(4)
H27 H 0.0313 0.3259 0.7245
C24 C 0.0403(2) 0.1542(5) 0.6576(5)
H28 H 0.0234 0.1117 0.7189
C25 C 0.0614(2) 0.0942(4) 0.5618(6)
C26 C 0.0868(2) 0.1517(5) 0.4660(5)
H29 H 0.0999 0.1064 0.4026
C27 C 0.09200(19) 0.2776(4) 0.4673(4)
H30 H 0.1092 0.3178 0.4048
O2 O 0.22695(16) 0.4716(3) 0.3231(3)
O3 O 0.19200(15) 0.5836(2) 0.1834(3)
O4 O 0.21649(15) 0.0652(2) 0.1012(3)
O5 O 0.24345(14) 0.2044(3) -0.0347(3)
H31 H 0.2428 0.1455 -0.0787
C28 C 0.21329(19) 0.4862(4) 0.2194(4)
C29 C 0.22179(18) 0.3859(3) 0.1319(4)
H32 H 0.2243 0.4073 0.0526
C30 C 0.22588(18) 0.2709(4) 0.1592(4)
H33 H 0.2272 0.2508 0.2393
C31 C 0.22854(18) 0.1691(4) 0.0732(4)
loop_
_geom_bond_atom_site_label_1
_geom_bond_atom_site_label_2
_geom_bond_site_symmetry_1
_geom_bond_site_symmetry_2
F1 C25 1_555 1_555
N1 C7 1_555 1_555
N2 H1 1_555 1_555
O1 C21 1_555 1_555
C1 H2 1_555 1_555
C2 C1 1_555 1_555
H3 C2 1_555 1_555
C3 C2 1_555 1_555
H4 C3 1_555 1_555
C4 C3 1_555 1_555
H5 C4 1_555 1_555
C5 C4 1_555 1_555
H6 C5 1_555 1_555
C6 C1 1_555 1_555
C7 C6 1_555 1_555
H7 C7 1_555 1_555
C8 C7 1_555 1_555
C9 C8 1_555 1_555
H8 C9 1_555 1_555
C10 C9 1_555 1_555
H9 C10 1_555 1_555
C11 C10 1_555 1_555
H10 C11 1_555 1_555
C12 C11 1_555 1_555
H11 C12 1_555 1_555
C13 C8 1_555 1_555
H12 C13 1_555 1_555
C14 N1 1_555 1_555
H13 C14 1_555 1_555
H14 C14 1_555 1_555
C15 N2 1_555 1_555
H15 C15 1_555 1_555
H16 C15 1_555 1_555
C16 N2 1_555 1_555
H17 C16 1_555 1_555
H18 C16 1_555 1_555
C17 N1 1_555 1_555
H19 C17 1_555 1_555
H20 C17 1_555 1_555
C18 N2 1_555 1_555
H21 C18 1_555 1_555
H22 C18 1_555 1_555
C19 C18 1_555 1_555
H23 C19 1_555 1_555
H24 C19 1_555 1_555
C20 C19 1_555 1_555
H25 C20 1_555 1_555
H26 C20 1_555 1_555
C21 C20 1_555 1_555
C22 C21 1_555 1_555
C23 C22 1_555 1_555
H27 C23 1_555 1_555
C24 C23 1_555 1_555
H28 C24 1_555 1_555
C25 C24 1_555 1_555
C26 C25 1_555 1_555
H29 C26 1_555 1_555
C27 C22 1_555 1_555
H30 C27 1_555 1_555
O2 C28 1_555 1_555
O3 C28 1_555 1_555
O4 C31 1_555 1_555
O5 H31 1_555 1_555
C28 C29 1_555 1_555
C29 H32 1_555 1_555
C30 C29 1_555 1_555
H33 C30 1_555 1_555
C31 O5 1_555 1_555
C5 C6 1_555 1_555
C12 C13 1_555 1_555
C14 C15 1_555 1_555
C16 C17 1_555 1_555
C26 C27 1_555 1_555
C30 C31 1_555 1_555

#END
