
#######################################################################
#
#                 Cambridge Crystallographic Data Centre
#                                CCDC 
#
#######################################################################
#
# If this CIF has been generated from an entry in the Cambridge 
# Structural Database, then it will include bibliographic, chemical, 
# crystal, experimental, refinement or atomic coordinate data resulting 
# from the CCDC's data processing and validation procedures.
#
#######################################################################

data_SIQHOS
_chemical_formula_moiety         'C30 H22 N2 O1'
_chemical_name_systematic        
(Z)-1-benzylidene-2',5'-diphenyl-1,3-dihydrospiro[indene-2,4'-pyrazol]-3'(2'H)-one
_symmetry_cell_setting           triclinic
_symmetry_space_group_name_H-M   'P -1'
_symmetry_Int_Tables_number      2
_space_group_name_Hall           '-P 1'
loop_
_symmetry_equiv_pos_site_id
_symmetry_equiv_pos_as_xyz
1 x,y,z
2 -x,-y,-z
_cell_length_a                   9.6135(5)
_cell_length_b                   10.5171(5)
_cell_length_c                   12.3679(5)
_cell_angle_alpha                72.018(3)
_cell_angle_beta                 70.400(4)
_cell_angle_gamma                89.928(4)
_cell_volume                     1113.15
_exptl_crystal_colour            colorless
_exptl_crystal_description       block
_chemical_melting_point          '162.4-165.1 deg.C'
_cell_formula_units_Z            2
loop_
_atom_site_label
_atom_site_type_symbol
_atom_site_fract_x
_atom_site_fract_y
_atom_site_fract_z
N1 N 0.22832(16) 0.06612(14) 0.86533(12)
O1 O 0.31297(16) 0.02036(13) 0.58422(12)
N2 N 0.30644(16) 0.00956(13) 0.77646(12)
C1 C 0.13794(18) 0.14156(15) 0.82625(14)
C2 C 0.07536(18) 0.27866(16) 0.53508(14)
C3 C 0.04335(18) 0.21579(16) 0.90081(15)
C4 C 0.17561(19) 0.27877(16) 0.60190(14)
C5 C 0.4224(2) -0.06817(16) 0.79428(16)
C6 C 0.0700(2) 0.37593(18) 0.43059(16)
H1 H 0.1338 0.4556 0.3953
C7 C -0.02265(19) 0.16080(16) 0.58839(15)
C8 C -0.0553(2) 0.29812(19) 0.86313(17)
H2 H -0.0647 0.3065 0.7889
C9 C 0.2776(2) 0.37862(17) 0.57913(15)
H3 H 0.2839 0.4566 0.5155
C10 C 0.14236(19) 0.14151(16) 0.70321(14)
C11 C 0.2646(2) 0.05157(16) 0.67568(15)
C12 C -0.1260(2) 0.2329(2) 0.43212(18)
H4 H -0.1922 0.2177 0.3960
C13 C -0.0034(2) 0.07404(17) 0.70296(16)
H5 H 0.0075 -0.0175 0.7024
H6 H -0.0879 0.0728 0.7737
C14 C 0.0548(2) 0.20612(19) 1.01241(16)
H7 H 0.1208 0.1516 1.0394
C15 C -0.0313(2) 0.35213(19) 0.38048(17)
H8 H -0.0364 0.4167 0.3113
C16 C -0.1232(2) 0.13689(19) 0.53614(18)
H9 H -0.1874 0.0575 0.5708
C17 C 0.3815(2) 0.37886(17) 0.64376(15)
C18 C 0.4549(2) -0.0893(2) 0.89853(18)
H10 H 0.3996 -0.0535 0.9575
C19 C -0.0298(2) 0.2759(2) 1.08274(18)
H11 H -0.0206 0.2685 1.1569
C20 C 0.4926(2) 0.2946(2) 0.63920(18)
H12 H 0.5051 0.2392 0.5916
C21 C 0.5061(2) -0.1213(2) 0.70729(18)
H13 H 0.4858 -0.1077 0.6363
C22 C -0.1403(2) 0.3682(2) 0.9350(2)
H14 H -0.2060 0.4234 0.9084
C23 C -0.1287(2) 0.3572(2) 1.0445(2)
H15 H -0.1866 0.4039 1.0927
C24 C 0.6520(3) -0.2162(2) 0.8295(2)
H16 H 0.7289 -0.2659 0.8412
C25 C 0.6202(3) -0.1950(2) 0.7262(2)
H17 H 0.6762 -0.2307 0.6674
C26 C 0.3718(2) 0.4659(2) 0.7092(2)
H18 H 0.3021 0.5273 0.7094
C27 C 0.5688(3) -0.1632(2) 0.9157(2)
H19 H 0.5895 -0.1773 0.9865
C28 C 0.5695(3) 0.3752(3) 0.7717(2)
H20 H 0.6310 0.3725 0.8164
C29 C 0.5853(2) 0.2917(2) 0.7043(2)
H21 H 0.6579 0.2330 0.7022
C30 C 0.4645(3) 0.4628(3) 0.7743(2)
H22 H 0.4553 0.5202 0.8198
loop_
_geom_bond_atom_site_label_1
_geom_bond_atom_site_label_2
_geom_bond_site_symmetry_1
_geom_bond_site_symmetry_2
N1 N2 1_555 1_555
O1 C11 1_555 1_555
N2 C5 1_555 1_555
C1 N1 1_555 1_555
C2 C4 1_555 1_555
C3 C1 1_555 1_555
C4 C9 1_555 1_555
C5 C18 1_555 1_555
C6 C2 1_555 1_555
H1 C6 1_555 1_555
C7 C2 1_555 1_555
C8 C3 1_555 1_555
H2 C8 1_555 1_555
C9 H3 1_555 1_555
C10 C1 1_555 1_555
C11 N2 1_555 1_555
C12 H4 1_555 1_555
C13 C7 1_555 1_555
H5 C13 1_555 1_555
H6 C13 1_555 1_555
C14 C3 1_555 1_555
H7 C14 1_555 1_555
C15 C6 1_555 1_555
H8 C15 1_555 1_555
C16 C7 1_555 1_555
H9 C16 1_555 1_555
C17 C9 1_555 1_555
C18 H10 1_555 1_555
C19 C14 1_555 1_555
H11 C19 1_555 1_555
C20 C17 1_555 1_555
H12 C20 1_555 1_555
C21 C5 1_555 1_555
H13 C21 1_555 1_555
C22 C8 1_555 1_555
H14 C22 1_555 1_555
C23 C19 1_555 1_555
H15 C23 1_555 1_555
C24 H16 1_555 1_555
C25 C21 1_555 1_555
H17 C25 1_555 1_555
C26 C17 1_555 1_555
H18 C26 1_555 1_555
C27 C18 1_555 1_555
H19 C27 1_555 1_555
C28 H20 1_555 1_555
C29 C20 1_555 1_555
H21 C29 1_555 1_555
C30 C26 1_555 1_555
H22 C30 1_555 1_555
C4 C10 1_555 1_555
C10 C11 1_555 1_555
C10 C13 1_555 1_555
C12 C15 1_555 1_555
C12 C16 1_555 1_555
C22 C23 1_555 1_555
C24 C25 1_555 1_555
C24 C27 1_555 1_555
C28 C29 1_555 1_555
C28 C30 1_555 1_555

#END
