
#######################################################################
#
#                 Cambridge Crystallographic Data Centre
#                                CCDC 
#
#######################################################################
#
# If this CIF has been generated from an entry in the Cambridge 
# Structural Database, then it will include bibliographic, chemical, 
# crystal, experimental, refinement or atomic coordinate data resulting 
# from the CCDC's data processing and validation procedures.
#
#######################################################################

data_SIQLAH
_chemical_formula_moiety         'C17 H14 Cl2 O8'
_chemical_name_systematic        
'2-(2,4-dichloro-5-hydroxy-6-(methoxycarbonyl)-3-methylphenoxy)-5-hydroxy-3-methoxybenzoic acid'
_symmetry_cell_setting           triclinic
_symmetry_space_group_name_H-M   'P -1'
_symmetry_Int_Tables_number      2
_space_group_name_Hall           '-P 1'
loop_
_symmetry_equiv_pos_site_id
_symmetry_equiv_pos_as_xyz
1 x,y,z
2 -x,-y,-z
_cell_length_a                   8.1159(5)
_cell_length_b                   8.2472(4)
_cell_length_c                   14.1278(7)
_cell_angle_alpha                81.448(2)
_cell_angle_beta                 84.860(2)
_cell_angle_gamma                70.400(2)
_cell_volume                     880.125
_cell_formula_units_Z            2
loop_
_atom_site_label
_atom_site_type_symbol
_atom_site_fract_x
_atom_site_fract_y
_atom_site_fract_z
C1 C 0.8089(2) 0.9416(2) 0.18461(12)
C2 C 0.9753(2) 0.9066(2) 0.21741(12)
C3 C 1.1213(2) 0.8181(2) 0.16258(13)
C4 C 1.1084(3) 0.7630(2) 0.07611(13)
C5 C 0.9404(3) 0.8015(2) 0.04505(13)
C6 C 0.7944(3) 0.8891(2) 0.09679(13)
C7 C 0.8390(2) 0.9378(2) 0.44624(12)
C8 C 0.8841(2) 1.0327(2) 0.36367(12)
C9 C 0.8120(3) 1.2134(2) 0.35031(13)
C10 C 0.6889(3) 1.2978(2) 0.41629(14)
H1 H 0.6392 1.4180 0.4071
C11 C 0.6399(3) 1.2020(2) 0.49653(13)
C12 C 0.7168(3) 1.0246(2) 0.51247(13)
H2 H 0.6868 0.9625 0.5679
O1 O 1.01464(16) 0.95334(16) 0.29879(9)
C13 C 0.6382(2) 1.0198(2) 0.23805(12)
C14 C 0.3861(3) 1.2641(4) 0.24863(19)
H3 H 0.3148 1.1925 0.2463
H4 H 0.3319 1.3767 0.2144
H5 H 0.3978 1.2753 0.3141
C15 C 1.2680(3) 0.6671(3) 0.01850(17)
H6 H 1.2504 0.7058 -0.0485
H7 H 1.2863 0.5448 0.0307
H8 H 1.3686 0.6898 0.0366
O2 O 0.55864(19) 1.18444(18) 0.20473(10)
O3 O 0.57588(19) 0.93852(19) 0.29992(10)
O4 O 0.6289(2) 0.9277(2) 0.06717(11)
H9 H 0.6324 0.8830 0.0186
Cl1 Cl 1.32509(7) 0.78220(9) 0.20512(5)
Cl2 Cl 0.90674(10) 0.74236(8) -0.06303(4)
C16 C 0.9123(2) 0.7451(2) 0.46719(9)
C17 C 0.7954(4) 1.4764(3) 0.24958(18)
H10 H 0.6719 1.5061 0.2425
H11 H 0.8482 1.5165 0.1913
H12 H 0.8150 1.5303 0.3013
O5 O 1.0141(11) 0.6678(5) 0.3995(4)
H13 H 1.0479 0.5627 0.4158
O6 O 0.8925(18) 0.6890(8) 0.5509(2)
O7 O 0.8713(2) 1.29343(17) 0.26975(10)
O8 O 0.5153(2) 1.29063(18) 0.55784(11)
H14 H 0.4891 1.2218 0.5995
O9? O 0.8734(17) 0.6682(8) 0.5490(3)
H15? H 0.9263 0.5637 0.5523
O10? O 0.9797(11) 0.6494(5) 0.4063(3)
loop_
_geom_bond_atom_site_label_1
_geom_bond_atom_site_label_2
_geom_bond_site_symmetry_1
_geom_bond_site_symmetry_2
C1 C2 1_555 1_555
C2 C3 1_555 1_555
C3 C4 1_555 1_555
C4 C5 1_555 1_555
C5 C6 1_555 1_555
C6 C1 1_555 1_555
C7 C8 1_555 1_555
C8 C9 1_555 1_555
C9 C10 1_555 1_555
C10 H1 1_555 1_555
C11 C10 1_555 1_555
C12 C7 1_555 1_555
H2 C12 1_555 1_555
O1 C2 1_555 1_555
C13 C1 1_555 1_555
C14 H3 1_555 1_555
H4 C14 1_555 1_555
H5 C14 1_555 1_555
C15 C4 1_555 1_555
H6 C15 1_555 1_555
H7 C15 1_555 1_555
H8 C15 1_555 1_555
O2 C13 1_555 1_555
O3 C13 1_555 1_555
O4 C6 1_555 1_555
H9 O4 1_555 1_555
Cl1 C3 1_555 1_555
Cl2 C5 1_555 1_555
C16 C7 1_555 1_555
C17 H10 1_555 1_555
H11 C17 1_555 1_555
H12 C17 1_555 1_555
O5 C16 1_555 1_555
H13 O5 1_555 1_555
O6 C16 1_555 1_555
O7 C9 1_555 1_555
O8 C11 1_555 1_555
H14 O8 1_555 1_555
C8 O1 1_555 1_555
C11 C12 1_555 1_555
C14 O2 1_555 1_555
C17 O7 1_555 1_555

#END
