
#######################################################################
#
#                 Cambridge Crystallographic Data Centre
#                                CCDC 
#
#######################################################################
#
# If this CIF has been generated from an entry in the Cambridge 
# Structural Database, then it will include bibliographic, chemical, 
# crystal, experimental, refinement or atomic coordinate data resulting 
# from the CCDC's data processing and validation procedures.
#
#######################################################################

data_SIQRUI
_chemical_formula_moiety         'C18 H12 Br2 N4'
_chemical_name_systematic        
2-(6-bromopyridin-2-yl)-1-((6-bromopyridin-2-yl)methyl)-1H-benzimidazole
_symmetry_cell_setting           triclinic
_symmetry_space_group_name_H-M   'P -1'
_symmetry_Int_Tables_number      2
_space_group_name_Hall           '-P 1'
loop_
_symmetry_equiv_pos_site_id
_symmetry_equiv_pos_as_xyz
1 x,y,z
2 -x,-y,-z
_cell_length_a                   8.0316(8)
_cell_length_b                   9.4623(9)
_cell_length_c                   12.0952(11)
_cell_angle_alpha                71.450(3)
_cell_angle_beta                 85.303(3)
_cell_angle_gamma                75.018(3)
_cell_volume                     841.825
_exptl_crystal_colour            white
_exptl_crystal_description       block
_cell_formula_units_Z            2
loop_
_atom_site_label
_atom_site_type_symbol
_atom_site_fract_x
_atom_site_fract_y
_atom_site_fract_z
Br1 Br 0.47384(8) 0.24642(7) 0.46918(5)
Br2 Br 1.01440(9) 0.76804(9) 0.53266(5)
N1 N 0.6046(5) 0.3855(5) 0.2571(3)
N2 N 0.7211(6) 0.5625(5) -0.0379(4)
N3 N 0.6816(6) 0.6733(5) 0.1054(3)
N4 N 0.8633(5) 0.7161(5) 0.3574(3)
C1 C 0.6064(7) 0.2475(6) 0.3315(4)
C2 C 0.6945(8) 0.1089(7) 0.3158(5)
H1 H 0.6905 0.0156 0.3713
C3 C 0.7878(9) 0.1150(7) 0.2150(6)
H2 H 0.8498 0.0249 0.2007
C4 C 0.7885(8) 0.2578(7) 0.1345(5)
H3 H 0.8510 0.2643 0.0656
C5 C 0.6947(6) 0.3903(6) 0.1582(4)
C6 C 0.6969(6) 0.5420(6) 0.0748(4)
C7 C 0.7243(7) 0.7157(6) -0.0856(4)
C8 C 0.7468(8) 0.8008(8) -0.2013(5)
H4 H 0.7591 0.7566 -0.2610
C9 C 0.7501(9) 0.9520(8) -0.2238(6)
H5 H 0.7643 1.0109 -0.3002
C10 C 0.7326(9) 1.0194(8) -0.1345(6)
H6 H 0.7366 1.1216 -0.1530
C11 C 0.7094(8) 0.9375(7) -0.0192(6)
H7 H 0.6980 0.9818 0.0403
C12 C 0.7042(7) 0.7861(6) 0.0021(5)
C13 C 0.6827(6) 0.6906(6) 0.2208(4)
H8 H 0.6294 0.6155 0.2759
H9 H 0.6141 0.7921 0.2189
C14 C 0.8621(6) 0.6699(5) 0.2626(4)
C15 C 1.0118(7) 0.6075(6) 0.2125(5)
H10 H 1.0074 0.5781 0.1466
C16 C 1.1678(7) 0.5894(7) 0.2616(5)
H11 H 1.2700 0.5478 0.2288
C17 C 1.1717(7) 0.6332(7) 0.3596(5)
H12 H 1.2749 0.6208 0.3955
C18 C 1.0163(7) 0.6959(6) 0.4014(4)
loop_
_geom_bond_atom_site_label_1
_geom_bond_atom_site_label_2
_geom_bond_site_symmetry_1
_geom_bond_site_symmetry_2
Br1 C1 1_555 1_555
Br2 C18 1_555 1_555
N1 C1 1_555 1_555
N2 C6 1_555 1_555
N3 C6 1_555 1_555
N4 C14 1_555 1_555
C1 C2 1_555 1_555
C2 H1 1_555 1_555
C3 C2 1_555 1_555
H2 C3 1_555 1_555
C4 C3 1_555 1_555
H3 C4 1_555 1_555
C5 N1 1_555 1_555
C6 C5 1_555 1_555
C7 N2 1_555 1_555
C8 C7 1_555 1_555
H4 C8 1_555 1_555
C9 C8 1_555 1_555
H5 C9 1_555 1_555
C10 C9 1_555 1_555
H6 C10 1_555 1_555
C11 C10 1_555 1_555
H7 C11 1_555 1_555
C12 N3 1_555 1_555
C13 N3 1_555 1_555
H8 C13 1_555 1_555
H9 C13 1_555 1_555
C14 C13 1_555 1_555
C15 C14 1_555 1_555
H10 C15 1_555 1_555
C16 C15 1_555 1_555
H11 C16 1_555 1_555
C17 C16 1_555 1_555
H12 C17 1_555 1_555
C18 N4 1_555 1_555
C4 C5 1_555 1_555
C7 C12 1_555 1_555
C11 C12 1_555 1_555
C17 C18 1_555 1_555

#END
