
#######################################################################
#
#                 Cambridge Crystallographic Data Centre
#                                CCDC 
#
#######################################################################
#
# If this CIF has been generated from an entry in the Cambridge 
# Structural Database, then it will include bibliographic, chemical, 
# crystal, experimental, refinement or atomic coordinate data resulting 
# from the CCDC's data processing and validation procedures.
#
#######################################################################

data_SIQSAO
_chemical_formula_moiety         'C39 H33 N3 O3 S1'
_chemical_name_systematic        
(2,4-Dihydroxy-2,4-bis(pyridin-2-yl)-6-(2-thienyl)cyclohexyl)(4-(diphenylamino)phenyl)methanone
_symmetry_cell_setting           monoclinic
_symmetry_space_group_name_H-M   'P 21/c'
_symmetry_Int_Tables_number      14
_space_group_name_Hall           '-P 2ybc'
loop_
_symmetry_equiv_pos_site_id
_symmetry_equiv_pos_as_xyz
1 x,y,z
2 -x,1/2+y,1/2-z
3 -x,-y,-z
4 x,1/2-y,1/2+z
_cell_length_a                   15.316(5)
_cell_length_b                   15.410(5)
_cell_length_c                   13.810(5)
_cell_angle_alpha                90
_cell_angle_beta                 94.886(5)
_cell_angle_gamma                90
_cell_volume                     3247.59
_exptl_crystal_colour            yellow
_exptl_crystal_description       needle
_cell_formula_units_Z            4
loop_
_atom_site_label
_atom_site_type_symbol
_atom_site_fract_x
_atom_site_fract_y
_atom_site_fract_z
S1 S 0.39810(6) 0.22020(6) 0.21563(6)
O1 O 0.34279(11) -0.08135(13) 0.30543(13)
C1 C 0.23189(15) 0.12509(16) 0.10834(17)
H1 H 0.2748 0.1494 0.0682
H2 H 0.1975 0.1726 0.1310
C2 C 0.27327(14) -0.06223(15) 0.10269(17)
C3 C 0.65931(15) 0.00425(17) 0.31242(18)
O2 O 0.09968(10) 0.03943(14) 0.09955(14)
H3 H 0.1142 -0.0014 0.1355
C4 C 0.33358(15) 0.14188(16) 0.25950(18)
C5 C 0.17147(14) 0.06384(16) 0.04649(17)
N1 N 0.19542(14) 0.13872(14) -0.10189(16)
C6 C 0.39257(14) -0.11139(14) 0.01013(16)
H4 H 0.4101 -0.0537 0.0088
C7 C 0.79281(15) 0.08050(18) 0.27216(18)
C8 C 0.38377(15) -0.03956(15) 0.24879(17)
N2 N 0.74810(13) 0.02470(16) 0.33396(16)
C9 C 0.22242(15) -0.01536(15) 0.01737(17)
H5 H 0.2635 0.0026 -0.0285
H6 H 0.1818 -0.0561 -0.0157
O3 O 0.20940(11) -0.09677(13) 0.16214(14)
H7 H 0.2319 -0.1043 0.2175
C10 C 0.27960(14) 0.07987(15) 0.19588(17)
H8 H 0.2348 0.0557 0.2348
C11 C 0.33405(14) 0.00268(14) 0.16103(16)
H9 H 0.3766 0.0252 0.1183
C12 C 0.13498(15) 0.11101(16) -0.04497(18)
C13 C 0.51781(15) -0.03269(16) 0.36328(17)
H10 H 0.4832 -0.0479 0.4128
C14 C 0.62186(15) 0.00666(18) 0.21648(18)
H11 H 0.6572 0.0176 0.1663
C15 C 0.47918(14) -0.02630(15) 0.26824(16)
C16 C 0.60532(16) -0.01706(18) 0.38547(18)
H12 H 0.6289 -0.0207 0.4496
C17 C 0.04611(17) 0.1251(2) -0.0675(2)
H13 H 0.0053 0.1052 -0.0266
C18 C 0.87662(16) 0.0597(2) 0.2494(2)
H14 H 0.9028 0.0083 0.2721
C19 C 0.33765(19) 0.1471(2) 0.3583(2)
H15 H 0.3062 0.1107 0.3962
C20 C 0.32503(16) -0.13518(15) 0.05981(18)
C21 C 0.79683(16) -0.0106(2) 0.4177(2)
C22 C 0.53397(15) -0.00684(16) 0.19529(17)
H16 H 0.5103 -0.0030 0.1312
C23 C 0.1679(2) 0.18081(19) -0.1832(2)
H17 H 0.2096 0.2002 -0.2233
N3 N 0.2984(2) -0.22189(18) 0.0646(2)
C24 C 0.4320(2) -0.1687(2) -0.0349(2)
H18 H 0.4785 -0.1506 -0.0689
C25 C 0.75482(17) 0.15699(19) 0.23687(19)
H19 H 0.6983 0.1712 0.2511
C26 C 0.92129(18) 0.1161(2) 0.1926(2)
H20 H 0.9775 0.1020 0.1772
C27 C 0.79921(19) -0.0982(2) 0.4338(2)
H21 H 0.7663 -0.1352 0.3919
C28 C 0.4119(2) -0.2551(2) -0.0377(3)
H22 H 0.4426 -0.2940 -0.0735
C29 C 0.0196(2) 0.1691(2) -0.1517(3)
H23 H -0.0396 0.1796 -0.1681
C30 C 0.8836(2) 0.1918(2) 0.1592(2)
H24 H 0.9144 0.2295 0.1220
C31 C 0.8004(2) 0.2122(2) 0.1808(2)
H25 H 0.7745 0.2635 0.1574
C32 C 0.3936(2) 0.2123(3) 0.3972(3)
H26 H 0.4031 0.2234 0.4635
C33 C 0.0807(2) 0.1971(2) -0.2108(2)
H27 H 0.0641 0.2265 -0.2682
C34 C 0.4319(3) 0.2569(2) 0.3301(3)
H28 H 0.4717 0.3019 0.3434
C35 C 0.8444(2) 0.0444(3) 0.4811(3)
H29 H 0.8427 0.1041 0.4712
C36 C 0.8505(2) -0.1318(3) 0.5124(3)
H30 H 0.8525 -0.1915 0.5228
C37 C 0.8946(3) 0.0094(3) 0.5598(3)
H31 H 0.9263 0.0460 0.6032
C38 C 0.3451(2) -0.28196(19) 0.0139(3)
H32 H 0.3306 -0.3405 0.0154
C39 C 0.8979(2) -0.0779(3) 0.5745(3)
H33 H 0.9327 -0.1006 0.6269
loop_
_geom_bond_atom_site_label_1
_geom_bond_atom_site_label_2
_geom_bond_site_symmetry_1
_geom_bond_site_symmetry_2
S1 C4 1_555 1_555
O1 C8 1_555 1_555
C1 H1 1_555 1_555
H2 C1 1_555 1_555
C2 C9 1_555 1_555
C3 N2 1_555 1_555
O2 H3 1_555 1_555
C4 C10 1_555 1_555
C5 C1 1_555 1_555
N1 C12 1_555 1_555
C6 H4 1_555 1_555
C7 N2 1_555 1_555
C8 C11 1_555 1_555
N2 C21 1_555 1_555
C9 C5 1_555 1_555
H5 C9 1_555 1_555
H6 C9 1_555 1_555
O3 C2 1_555 1_555
H7 O3 1_555 1_555
C10 C1 1_555 1_555
H8 C10 1_555 1_555
C11 C2 1_555 1_555
H9 C11 1_555 1_555
C12 C5 1_555 1_555
C13 H10 1_555 1_555
C14 C3 1_555 1_555
H11 C14 1_555 1_555
C15 C8 1_555 1_555
C16 C3 1_555 1_555
H12 C16 1_555 1_555
C17 C12 1_555 1_555
H13 C17 1_555 1_555
C18 C7 1_555 1_555
H14 C18 1_555 1_555
C19 C4 1_555 1_555
H15 C19 1_555 1_555
C20 C2 1_555 1_555
C21 C27 1_555 1_555
C22 C14 1_555 1_555
H16 C22 1_555 1_555
C23 N1 1_555 1_555
H17 C23 1_555 1_555
N3 C20 1_555 1_555
C24 C6 1_555 1_555
H18 C24 1_555 1_555
C25 C7 1_555 1_555
H19 C25 1_555 1_555
C26 C18 1_555 1_555
H20 C26 1_555 1_555
C27 H21 1_555 1_555
C28 C24 1_555 1_555
H22 C28 1_555 1_555
C29 C17 1_555 1_555
H23 C29 1_555 1_555
C30 C26 1_555 1_555
H24 C30 1_555 1_555
C31 C25 1_555 1_555
H25 C31 1_555 1_555
C32 C19 1_555 1_555
H26 C32 1_555 1_555
C33 C23 1_555 1_555
H27 C33 1_555 1_555
C34 S1 1_555 1_555
H28 C34 1_555 1_555
C35 C21 1_555 1_555
H29 C35 1_555 1_555
C36 C27 1_555 1_555
H30 C36 1_555 1_555
C37 C35 1_555 1_555
H31 C37 1_555 1_555
C38 N3 1_555 1_555
H32 C38 1_555 1_555
C39 C36 1_555 1_555
H33 C39 1_555 1_555
O2 C5 1_555 1_555
C6 C20 1_555 1_555
C10 C11 1_555 1_555
C13 C15 1_555 1_555
C13 C16 1_555 1_555
C15 C22 1_555 1_555
C28 C38 1_555 1_555
C29 C33 1_555 1_555
C30 C31 1_555 1_555
C32 C34 1_555 1_555
C37 C39 1_555 1_555

#END
