
#######################################################################
#
#                 Cambridge Crystallographic Data Centre
#                                CCDC 
#
#######################################################################
#
# If this CIF has been generated from an entry in the Cambridge 
# Structural Database, then it will include bibliographic, chemical, 
# crystal, experimental, refinement or atomic coordinate data resulting 
# from the CCDC's data processing and validation procedures.
#
#######################################################################

data_SIQSIX
_chemical_formula_moiety         'C32 H28 O2'
_chemical_name_systematic        
"ethyl (1-phenyl-6,7,8,9-tetrahydro-4'H-spiro[benzo[cd]azulene-2,1'-naphthalen]-4'-ylidene)acetate"
_symmetry_cell_setting           monoclinic
_symmetry_space_group_name_H-M   'P 21/c'
_symmetry_Int_Tables_number      14
_space_group_name_Hall           '-P 2ybc'
loop_
_symmetry_equiv_pos_site_id
_symmetry_equiv_pos_as_xyz
1 x,y,z
2 -x,1/2+y,1/2-z
3 -x,-y,-z
4 x,1/2-y,1/2+z
_cell_length_a                   11.890(3)
_cell_length_b                   16.268(4)
_cell_length_c                   12.490(3)
_cell_angle_alpha                90
_cell_angle_beta                 96.059(4)
_cell_angle_gamma                90
_cell_volume                     2402.4
_cell_formula_units_Z            4
loop_
_atom_site_label
_atom_site_type_symbol
_atom_site_fract_x
_atom_site_fract_y
_atom_site_fract_z
O1 O 0.1762(2) 0.27269(16) 0.9865(2)
O2 O 0.0033(7) 0.2671(4) 1.0325(7)
C1 C 0.0790(2) 0.02198(18) 0.8539(2)
C2 C 0.1227(2) 0.10230(18) 0.8943(2)
C3 C 0.2422(2) 0.11834(19) 0.8896(2)
H1 H 0.2714 0.1691 0.9128
C4 C 0.3288(2) -0.10165(19) 0.9972(2)
C5 C 0.2776(2) -0.02121(19) 0.8154(2)
C6 C 0.1507(2) -0.03589(18) 0.8148(2)
C7 C 0.1066(3) -0.1098(2) 0.7750(3)
H2 H 0.1548 -0.1481 0.7486
C8 C 0.4142(2) -0.12851(19) 0.8237(2)
C9 C -0.0362(2) 0.0009(2) 0.8521(2)
H3 H -0.0855 0.0381 0.8789
C10 C 0.3456(2) -0.08643(18) 0.8832(2)
C11 C 0.0545(3) 0.1580(2) 0.9334(3)
H4 H -0.0212 0.1433 0.9326
C12 C 0.4004(2) -0.0985(2) 0.7132(3)
C13 C 0.3114(2) 0.0630(2) 0.8534(3)
H5 H 0.3866 0.0781 0.8517
C14 C -0.0772(3) -0.0718(2) 0.8127(3)
H6 H -0.1538 -0.0836 0.8123
C15 C 0.3193(2) -0.0368(2) 0.7053(3)
C16 C 0.2741(3) -0.1712(2) 1.0268(3)
H7 H 0.2463 -0.2087 0.9744
C17 C 0.3676(3) -0.0480(2) 1.0782(3)
H8 H 0.4036 0.0002 1.0607
C18 C -0.0066(3) -0.1283(2) 0.7734(3)
H9 H -0.0347 -0.1783 0.7460
C19 C 0.0858(3) 0.2392(2) 0.9769(3)
C20 C 0.4539(3) -0.1222(2) 0.6222(3)
C21 C 0.4909(3) -0.1974(2) 0.8629(4)
H10 H 0.5011 -0.1940 0.9408
H11 H 0.4505 -0.2482 0.8448
C22 C 0.3374(4) -0.0229(3) 0.5189(3)
H12 H 0.3160 0.0014 0.4525
C23 C 0.3542(3) -0.0639(3) 1.1838(3)
H13 H 0.3822 -0.0268 1.2368
C24 C 0.2872(3) 0.0030(3) 0.6091(3)
H14 H 0.2344 0.0454 0.6048
C25 C 0.2599(3) -0.1861(3) 1.1336(4)
H15 H 0.2219 -0.2332 1.1519
C26 C 0.6005(4) -0.2058(4) 0.8277(4)
H16 H 0.6197 -0.2637 0.8347
H17 H 0.6521 -0.1770 0.8802
C27 C 0.6302(3) -0.1802(4) 0.7209(4)
H18 H 0.6544 -0.1232 0.7269
H19 H 0.6955 -0.2122 0.7057
C28 C 0.5476(3) -0.1862(3) 0.6285(3)
H20 H 0.5133 -0.2403 0.6282
H21 H 0.5863 -0.1818 0.5642
C29 C 0.4178(3) -0.0837(3) 0.5265(3)
H22 H 0.4492 -0.0996 0.4646
C30 C 0.0290(6) 0.3506(5) 1.0757(10)
H23 H 0.0707 0.3473 1.1466
H24 H 0.0745 0.3806 1.0287
C31 C 0.3008(3) -0.1329(3) 1.2121(3)
H25 H 0.2922 -0.1436 1.2839
C32 C -0.0804(8) 0.3929(6) 1.0817(10)
H26 H -0.1262 0.3875 1.0141
H27 H -0.0671 0.4500 1.0974
H28 H -0.1188 0.3684 1.1377
C33? C -0.0200(14) 0.3634(10) 1.1226(7)
H29? H -0.0930 0.3383 1.1235
H30? H -0.0213 0.4174 1.1535
H31? H 0.0360 0.3306 1.1638
C34? C -0.0070(9) 0.3750(5) 1.0064(7)
H32? H 0.0654 0.3989 0.9948
H33? H -0.0679 0.4072 0.9695
O3? O -0.0147(7) 0.2853(5) 0.9765(7)
loop_
_geom_bond_atom_site_label_1
_geom_bond_atom_site_label_2
_geom_bond_site_symmetry_1
_geom_bond_site_symmetry_2
O1 C19 1_555 1_555
O2 C19 1_555 1_555
C1 C2 1_555 1_555
C2 C3 1_555 1_555
C3 H1 1_555 1_555
C4 C10 1_555 1_555
C5 C6 1_555 1_555
C6 C1 1_555 1_555
C7 C6 1_555 1_555
H2 C7 1_555 1_555
C8 C10 1_555 1_555
C9 C1 1_555 1_555
H3 C9 1_555 1_555
C10 C5 1_555 1_555
C11 C2 1_555 1_555
H4 C11 1_555 1_555
C12 C8 1_555 1_555
C13 C3 1_555 1_555
H5 C13 1_555 1_555
C14 C9 1_555 1_555
H6 C14 1_555 1_555
C15 C5 1_555 1_555
C16 C4 1_555 1_555
H7 C16 1_555 1_555
C17 C4 1_555 1_555
H8 C17 1_555 1_555
C18 C7 1_555 1_555
H9 C18 1_555 1_555
C19 C11 1_555 1_555
C20 C12 1_555 1_555
C21 C8 1_555 1_555
H10 C21 1_555 1_555
H11 C21 1_555 1_555
C22 H12 1_555 1_555
C23 C17 1_555 1_555
H13 C23 1_555 1_555
C24 C15 1_555 1_555
H14 C24 1_555 1_555
C25 C16 1_555 1_555
H15 C25 1_555 1_555
C26 C21 1_555 1_555
H16 C26 1_555 1_555
H17 C26 1_555 1_555
C27 C26 1_555 1_555
H18 C27 1_555 1_555
H19 C27 1_555 1_555
C28 C20 1_555 1_555
H20 C28 1_555 1_555
H21 C28 1_555 1_555
C29 C20 1_555 1_555
H22 C29 1_555 1_555
C30 O2 1_555 1_555
H23 C30 1_555 1_555
H24 C30 1_555 1_555
C31 C23 1_555 1_555
H25 C31 1_555 1_555
C32 C30 1_555 1_555
H26 C32 1_555 1_555
H27 C32 1_555 1_555
H28 C32 1_555 1_555
C5 C13 1_555 1_555
C12 C15 1_555 1_555
C14 C18 1_555 1_555
C22 C24 1_555 1_555
C22 C29 1_555 1_555
C25 C31 1_555 1_555
C27 C28 1_555 1_555

#END
