
#######################################################################
#
#                 Cambridge Crystallographic Data Centre
#                                CCDC 
#
#######################################################################
#
# If this CIF has been generated from an entry in the Cambridge 
# Structural Database, then it will include bibliographic, chemical, 
# crystal, experimental, refinement or atomic coordinate data resulting 
# from the CCDC's data processing and validation procedures.
#
#######################################################################

data_SIQXEY
_chemical_formula_moiety         'C23 H16 F3 N1 S1'
_chemical_name_systematic        
6-(1,1,1-trifluoro-2-methylpropan-2-yl)[1]benzothieno[3,2-k]phenanthridine
_symmetry_cell_setting           triclinic
_symmetry_space_group_name_H-M   'P -1'
_symmetry_Int_Tables_number      2
_space_group_name_Hall           '-P 1'
loop_
_symmetry_equiv_pos_site_id
_symmetry_equiv_pos_as_xyz
1 x,y,z
2 -x,-y,-z
_cell_length_a                   11.6203(6)
_cell_length_b                   13.0651(7)
_cell_length_c                   13.7482(7)
_cell_angle_alpha                116.110(2)
_cell_angle_beta                 101.916(2)
_cell_angle_gamma                90.030(2)
_cell_volume                     1823.92
_exptl_crystal_colour            colorless
_exptl_crystal_description       prismatic
_cell_formula_units_Z            4
loop_
_atom_site_label
_atom_site_type_symbol
_atom_site_fract_x
_atom_site_fract_y
_atom_site_fract_z
S1 S 0.98639(5) 0.16600(5) 0.73867(4)
F1 F 0.54884(17) -0.15619(15) 0.03217(14)
F2 F 0.73512(17) -0.10951(14) 0.07943(13)
F3 F 0.61574(16) 0.02065(14) 0.12470(15)
N1 N 0.80179(15) 0.04877(14) 0.29209(14)
C1 C 0.9318(2) 0.1179(2) 0.82170(19)
C2 C 0.9769(3) 0.1553(3) 0.9357(2)
H1 H 1.0424 0.2123 0.9759
C3 C 0.9228(3) 0.1067(3) 0.9876(2)
H2 H 0.9510 0.1312 1.0651
C4 C 0.8282(3) 0.0228(3) 0.9290(3)
H3 H 0.7930 -0.0096 0.9669
C5 C 0.7839(2) -0.0146(2) 0.8161(2)
H4 H 0.7194 -0.0727 0.7764
C6 C 0.8359(2) 0.0348(2) 0.7613(2)
C7 C 0.80422(19) 0.01213(18) 0.64544(19)
C8 C 0.7098(2) -0.06231(19) 0.5628(2)
H5 H 0.6597 -0.1068 0.5796
C9 C 0.68956(19) -0.07093(18) 0.45817(19)
H6 H 0.6245 -0.1213 0.4031
C10 C 0.76235(17) -0.00731(17) 0.42857(17)
C11 C 0.86024(17) 0.06881(16) 0.51089(17)
C12 C 0.87837(17) 0.07673(17) 0.61993(17)
C13 C 0.93336(17) 0.13312(16) 0.47877(17)
C14 C 1.03712(18) 0.20641(17) 0.54679(18)
H7 H 1.0643 0.2157 0.6206
C15 C 1.09974(19) 0.26459(18) 0.50886(19)
H8 H 1.1690 0.3137 0.5569
C16 C 1.0632(2) 0.25275(19) 0.4009(2)
H9 H 1.1066 0.2940 0.3756
C17 C 0.9641(2) 0.18109(19) 0.33207(19)
H10 H 0.9391 0.1720 0.2582
C18 C 0.89854(18) 0.12072(17) 0.36905(17)
C19 C 0.73880(18) -0.01354(17) 0.31766(17)
C20 C 0.63720(19) -0.09535(18) 0.22155(19)
C21 C 0.6380(3) -0.0830(2) 0.1159(2)
C22 C 0.6563(2) -0.22115(18) 0.1934(2)
H11 H 0.5938 -0.2720 0.1297
H12 H 0.6539 -0.2344 0.2578
H13 H 0.7335 -0.2371 0.1748
C23 C 0.5134(2) -0.0653(2) 0.2481(3)
H14 H 0.5015 0.0126 0.2579
H15 H 0.5096 -0.0700 0.3166
H16 H 0.4513 -0.1197 0.1863
S2 S 0.63596(5) 0.64966(5) 0.71994(5)
F4 F 0.85920(14) 0.38723(14) 0.09840(13)
F5 F 0.83525(13) 0.55712(12) 0.21299(12)
F6 F 0.90907(12) 0.44019(16) 0.27295(13)
N2 N 0.58254(15) 0.55339(15) 0.27526(15)
C24 C 0.72617(19) 0.58741(19) 0.79248(18)
C25 C 0.7330(2) 0.6092(2) 0.9022(2)
H17 H 0.6891 0.6648 0.9469
C26 C 0.8059(2) 0.5473(2) 0.9442(2)
H18 H 0.8124 0.5609 1.0190
C27 C 0.8699(2) 0.4654(2) 0.8786(2)
H19 H 0.9182 0.4228 0.9087
C28 C 0.8639(2) 0.4454(2) 0.7706(2)
H20 H 0.9089 0.3904 0.7266
C29 C 0.79099(18) 0.50686(18) 0.72617(18)
C30 C 0.76677(17) 0.49629(17) 0.61447(17)
C31 C 0.81827(18) 0.42589(18) 0.52764(18)
H21 H 0.8774 0.3799 0.5398
C32 C 0.78357(18) 0.42331(18) 0.42568(18)
H22 H 0.8198 0.3754 0.3678
C33 C 0.69553(17) 0.48946(16) 0.40313(17)
C34 C 0.64253(17) 0.56449(16) 0.49043(17)
C35 C 0.68177(17) 0.56595(16) 0.59647(17)
C36 C 0.55384(17) 0.63276(16) 0.46587(18)
C37 C 0.48787(19) 0.70554(18) 0.5398(2)
H23 H 0.5007 0.7120 0.6129
C38 C 0.4055(2) 0.76717(19) 0.5082(2)
H24 H 0.3624 0.8153 0.5598
C39 C 0.3842(2) 0.7602(2) 0.4023(2)
H25 H 0.3281 0.8041 0.3817
C40 C 0.4449(2) 0.6893(2) 0.3278(2)
H26 H 0.4298 0.6834 0.2548
C41 C 0.52946(18) 0.62494(17) 0.35768(19)
C42 C 0.65827(17) 0.48748(17) 0.29399(17)
C43 C 0.70087(19) 0.40575(18) 0.18793(18)
C44 C 0.8262(2) 0.4465(2) 0.19436(19)
C45 C 0.6223(2) 0.4113(2) 0.08447(19)
H27 H 0.6317 0.4893 0.0924
H28 H 0.5393 0.3902 0.0786
H29 H 0.6465 0.3578 0.0173
C46 C 0.6911(2) 0.27953(19) 0.1661(2)
H30 H 0.6998 0.2303 0.0904
H31 H 0.6136 0.2589 0.1740
H32 H 0.7535 0.2690 0.2199
loop_
_geom_bond_atom_site_label_1
_geom_bond_atom_site_label_2
_geom_bond_site_symmetry_1
_geom_bond_site_symmetry_2
S1 C1 1_555 1_555
F1 C21 1_555 1_555
F2 C21 1_555 1_555
F3 C21 1_555 1_555
N1 C18 1_555 1_555
C1 C2 1_555 1_555
C2 H1 1_555 1_555
C3 C2 1_555 1_555
H2 C3 1_555 1_555
C4 C3 1_555 1_555
H3 C4 1_555 1_555
C5 C4 1_555 1_555
H4 C5 1_555 1_555
C6 C1 1_555 1_555
C7 C6 1_555 1_555
C8 C7 1_555 1_555
H5 C8 1_555 1_555
C9 C8 1_555 1_555
H6 C9 1_555 1_555
C10 C9 1_555 1_555
C11 C10 1_555 1_555
C12 S1 1_555 1_555
C13 C11 1_555 1_555
C14 C13 1_555 1_555
H7 C14 1_555 1_555
C15 C14 1_555 1_555
H8 C15 1_555 1_555
C16 C15 1_555 1_555
H9 C16 1_555 1_555
C17 C16 1_555 1_555
H10 C17 1_555 1_555
C18 C13 1_555 1_555
C19 N1 1_555 1_555
C20 C19 1_555 1_555
C21 C20 1_555 1_555
C22 C20 1_555 1_555
H11 C22 1_555 1_555
H12 C22 1_555 1_555
H13 C22 1_555 1_555
C23 C20 1_555 1_555
H14 C23 1_555 1_555
H15 C23 1_555 1_555
H16 C23 1_555 1_555
S2 C24 1_555 1_555
F4 C44 1_555 1_555
F5 C44 1_555 1_555
F6 C44 1_555 1_555
N2 C41 1_555 1_555
C24 C25 1_555 1_555
C25 H17 1_555 1_555
C26 C25 1_555 1_555
H18 C26 1_555 1_555
C27 C26 1_555 1_555
H19 C27 1_555 1_555
C28 C27 1_555 1_555
H20 C28 1_555 1_555
C29 C24 1_555 1_555
C30 C29 1_555 1_555
C31 C30 1_555 1_555
H21 C31 1_555 1_555
C32 C31 1_555 1_555
H22 C32 1_555 1_555
C33 C32 1_555 1_555
C34 C33 1_555 1_555
C35 S2 1_555 1_555
C36 C34 1_555 1_555
C37 C36 1_555 1_555
H23 C37 1_555 1_555
C38 C37 1_555 1_555
H24 C38 1_555 1_555
C39 C38 1_555 1_555
H25 C39 1_555 1_555
C40 C39 1_555 1_555
H26 C40 1_555 1_555
C41 C36 1_555 1_555
C42 N2 1_555 1_555
C43 C42 1_555 1_555
C44 C43 1_555 1_555
C45 C43 1_555 1_555
H27 C45 1_555 1_555
H28 C45 1_555 1_555
H29 C45 1_555 1_555
C46 C43 1_555 1_555
H30 C46 1_555 1_555
H31 C46 1_555 1_555
H32 C46 1_555 1_555
C5 C6 1_555 1_555
C7 C12 1_555 1_555
C10 C19 1_555 1_555
C11 C12 1_555 1_555
C17 C18 1_555 1_555
C28 C29 1_555 1_555
C30 C35 1_555 1_555
C33 C42 1_555 1_555
C34 C35 1_555 1_555
C40 C41 1_555 1_555

#END
