
#######################################################################
#
#                 Cambridge Crystallographic Data Centre
#                                CCDC 
#
#######################################################################
#
# If this CIF has been generated from an entry in the Cambridge 
# Structural Database, then it will include bibliographic, chemical, 
# crystal, experimental, refinement or atomic coordinate data resulting 
# from the CCDC's data processing and validation procedures.
#
#######################################################################

data_SIQXUO
_chemical_formula_moiety         'C39 H29 Br1 N2 O5 S1'
_chemical_name_systematic        
1'-benzyl-5-(4-bromophenyl)-1-[(4-methylphenyl)sulfonyl]-1,5-dihydrospiro[1-benzofuro[3,2-b]azepine-4,3'-indole]-2,2'(1'H,3H)-dione
_symmetry_cell_setting           orthorhombic
_symmetry_space_group_name_H-M   'P 21 21 21'
_symmetry_Int_Tables_number      19
_space_group_name_Hall           'P 2ac 2ab'
loop_
_symmetry_equiv_pos_site_id
_symmetry_equiv_pos_as_xyz
1 x,y,z
2 1/2-x,-y,1/2+z
3 -x,1/2+y,1/2-z
4 1/2+x,1/2-y,-z
_cell_length_a                   12.4667(3)
_cell_length_b                   15.7431(3)
_cell_length_c                   33.5575(7)
_cell_angle_alpha                90
_cell_angle_beta                 90
_cell_angle_gamma                90
_cell_volume                     6586.15
_exptl_crystal_colour            colorless
_exptl_crystal_description       block
_cell_formula_units_Z            8
loop_
_atom_site_label
_atom_site_type_symbol
_atom_site_fract_x
_atom_site_fract_y
_atom_site_fract_z
Br1 Br 1.09971(5) 0.85692(5) 0.67375(2)
C1 C 0.6607(4) 0.5736(3) 0.65337(17)
C2 C 0.6733(4) 0.6686(3) 0.63988(16)
H1 H 0.620284 0.701014 0.656249
C3 C 0.6363(5) 0.6785(3) 0.59767(16)
C4 C 0.5347(4) 0.6688(3) 0.58388(17)
C5 C 0.4604(4) 0.6022(4) 0.64399(17)
C6 C 0.5495(4) 0.5382(4) 0.63945(18)
H2 H 0.554569 0.521092 0.611126
H3 H 0.531841 0.487006 0.655246
C7 C 0.6800(5) 0.5636(4) 0.69714(16)
C8 C 0.6343(5) 0.6021(4) 0.72998(17)
H4 H 0.579542 0.643487 0.726792
C9 C 0.6695(5) 0.5793(4) 0.76766(18)
H5 H 0.638953 0.605492 0.790514
C10 C 0.7492(5) 0.5186(4) 0.77218(19)
H6 H 0.772023 0.503964 0.798292
C11 C 0.7966(5) 0.4786(4) 0.73986(17)
H7 H 0.850341 0.436428 0.743300
C12 C 0.7623(5) 0.5026(4) 0.70268(18)
C13 C 0.7458(4) 0.5138(3) 0.63480(18)
C14 C 0.8762(5) 0.4059(4) 0.65957(18)
H8 H 0.879147 0.391023 0.630930
H9 H 0.852532 0.354792 0.674348
C15 C 0.9872(5) 0.4303(4) 0.67344(17)
C16 C 1.0469(5) 0.3771(4) 0.69784(17)
H10 H 1.016306 0.325543 0.707223
C17 C 1.1509(6) 0.3985(5) 0.70865(19)
H11 H 1.192133 0.360735 0.724538
C18 C 1.1946(6) 0.4750(5) 0.6963(2)
H12 H 1.264950 0.490421 0.704377
C19 C 1.1367(5) 0.5283(4) 0.6725(2)
H13 H 1.167037 0.580388 0.663640
C20 C 1.0331(5) 0.5060(4) 0.66120(17)
H14 H 0.993026 0.543534 0.644774
C21 C 0.7814(4) 0.7087(3) 0.64905(16)
C22 C 0.7879(4) 0.7681(4) 0.67980(16)
H15 H 0.726379 0.779563 0.695595
C23 C 0.8838(5) 0.8112(4) 0.68772(16)
H16 H 0.887488 0.852232 0.708417
C24 C 0.9719(4) 0.7930(4) 0.66516(17)
C25 C 0.9705(5) 0.7319(4) 0.63535(16)
H17 H 1.033469 0.718903 0.620601
C26 C 0.8743(4) 0.6901(3) 0.62768(16)
H18 H 0.871931 0.647980 0.607427
C27 C 0.5389(5) 0.6690(3) 0.54075(16)
C28 C 0.4679(5) 0.6584(4) 0.50919(17)
H19 H 0.394079 0.647053 0.513861
C29 C 0.5073(5) 0.6648(4) 0.47103(17)
H20 H 0.460010 0.656820 0.449143
C30 C 0.6161(5) 0.6828(4) 0.46368(17)
H21 H 0.640032 0.688545 0.436941
C31 C 0.6886(5) 0.6922(3) 0.49427(16)
H22 H 0.762164 0.703930 0.489409
C32 C 0.6487(5) 0.6837(3) 0.53222(16)
C33 C 0.4230(5) 0.8104(4) 0.64551(17)
C34 C 0.4008(6) 0.8084(4) 0.68574(19)
H23 H 0.348671 0.770642 0.696289
C35 C 0.4575(6) 0.8638(5) 0.7105(2)
H24 H 0.442914 0.863851 0.738263
C36 C 0.5340(6) 0.9183(5) 0.6956(3)
C37 C 0.5532(5) 0.9199(4) 0.6554(2)
H25 H 0.604887 0.958153 0.644838
C38 C 0.4976(5) 0.8663(4) 0.62989(19)
H26 H 0.510705 0.867837 0.602006
C39 C 0.5953(7) 0.9776(6) 0.7231(3)
H27 H 0.576284 0.965165 0.750875
H28 H 0.576615 1.036603 0.716948
H29 H 0.672555 0.969265 0.719388
N1 N 0.4453(3) 0.6556(3) 0.61001(14)
N2 N 0.7974(4) 0.4733(3) 0.66529(13)
O1 O 0.7080(3) 0.6882(2) 0.56701(11)
O2 O 0.3602(3) 0.7751(3) 0.57379(11)
O3 O 0.2606(3) 0.7093(3) 0.62903(13)
O4 O 0.4057(3) 0.6103(2) 0.67352(12)
O5 O 0.7604(3) 0.5024(2) 0.59926(12)
S1 S 0.35872(11) 0.73942(10) 0.61273(5)
Br2 Br -0.00380(6) 0.23558(4) 0.31993(2)
C40 C 0.3519(4) 0.3510(4) 0.46593(16)
C41 C 0.2408(4) 0.3099(4) 0.47688(17)
H30 H 0.199047 0.356946 0.489508
C42 C 0.2524(4) 0.2447(4) 0.50909(17)
C43 C 0.2876(5) 0.2538(4) 0.54694(17)
C44 C 0.3966(5) 0.3844(4) 0.53823(17)
C45 C 0.4359(5) 0.3461(4) 0.49979(17)
H31 H 0.454931 0.285891 0.504468
H32 H 0.501817 0.376209 0.491282
C46 C 0.3339(5) 0.4400(4) 0.44978(18)
C47 C 0.2765(4) 0.5075(4) 0.46485(18)
H33 H 0.247392 0.504854 0.490976
C48 C 0.2616(5) 0.5795(4) 0.44152(19)
H34 H 0.220323 0.625752 0.451339
C49 C 0.3068(5) 0.5837(4) 0.4041(2)
H35 H 0.297593 0.633899 0.388850
C50 C 0.3655(5) 0.5170(4) 0.38798(19)
H36 H 0.395538 0.520484 0.362010
C51 C 0.3783(4) 0.4454(4) 0.41138(18)
C52 C 0.4083(5) 0.3073(4) 0.42995(18)
C53 C 0.4954(5) 0.3527(5) 0.36746(17)
H37 H 0.534974 0.298940 0.371687
H38 H 0.548936 0.399027 0.366116
C54 C 0.4380(5) 0.3476(4) 0.3275(2)
C55 C 0.4964(7) 0.3605(5) 0.2932(2)
H39 H 0.570146 0.375082 0.294940
C56 C 0.4486(7) 0.3524(6) 0.2563(2)
H40 H 0.489643 0.360938 0.232775
C57 C 0.3422(8) 0.3320(5) 0.2535(2)
H41 H 0.309381 0.326857 0.228078
C58 C 0.2822(7) 0.3188(5) 0.2877(2)
H42 H 0.208468 0.304024 0.285858
C59 C 0.3306(5) 0.3272(4) 0.3246(2)
H43 H 0.289629 0.318966 0.348167
C60 C 0.1773(5) 0.2870(4) 0.43976(17)
C61 C 0.1135(5) 0.3491(4) 0.42250(18)
H44 H 0.105100 0.402084 0.435698
C62 C 0.0617(5) 0.3358(4) 0.38648(19)
H45 H 0.021175 0.379967 0.374404
C63 C 0.0700(5) 0.2576(4) 0.36856(17)
C64 C 0.1309(5) 0.1946(4) 0.38555(18)
H46 H 0.135257 0.140589 0.373021
C65 C 0.1860(5) 0.2088(4) 0.42073(18)
H47 H 0.229560 0.165356 0.431844
C66 C 0.2824(5) 0.1719(4) 0.56625(17)
C67 C 0.3029(5) 0.1391(4) 0.60394(17)
H48 H 0.326643 0.174871 0.624947
C68 C 0.2878(5) 0.0529(4) 0.6102(2)
H49 H 0.304520 0.028809 0.635367
C69 C 0.2478(6) 0.0004(4) 0.5794(2)
H50 H 0.238268 -0.058553 0.584275
C70 C 0.2224(6) 0.0328(4) 0.5425(2)
H51 H 0.193115 -0.001594 0.521972
C71 C 0.2419(5) 0.1180(4) 0.53726(18)
C72 C 0.1779(5) 0.4481(4) 0.57825(17)
C73 C 0.2006(5) 0.5335(4) 0.57373(18)
H52 H 0.264649 0.557138 0.584315
C74 C 0.1282(5) 0.5835(4) 0.55356(19)
H53 H 0.143320 0.642261 0.550425
C75 C 0.0345(5) 0.5513(5) 0.5377(2)
C76 C 0.0133(5) 0.4656(4) 0.5431(2)
H54 H -0.051016 0.442029 0.532675
C77 C 0.0844(5) 0.4135(4) 0.56364(19)
H55 H 0.068826 0.355006 0.567506
C78 C -0.0434(6) 0.6057(5) 0.5147(2)
H56 H -0.110483 0.610861 0.529756
H57 H -0.058112 0.579271 0.488816
H58 H -0.012420 0.662168 0.510580
N3 N 0.3307(4) 0.3320(3) 0.56209(14)
N4 N 0.4269(4) 0.3674(3) 0.40179(14)
O6 O 0.2241(3) 0.1615(2) 0.50179(11)
O7 O 0.2085(3) 0.3107(3) 0.61990(11)
O8 O 0.3465(3) 0.4234(3) 0.62425(12)
O9 O 0.4173(4) 0.4566(3) 0.54785(12)
O10 O 0.4343(4) 0.2331(3) 0.42923(13)
S2 S 0.26744(13) 0.37854(10) 0.60208(5)
loop_
_geom_bond_atom_site_label_1
_geom_bond_atom_site_label_2
_geom_bond_site_symmetry_1
_geom_bond_site_symmetry_2
Br1 C24 1_555 1_555
C1 C2 1_555 1_555
C2 H1 1_555 1_555
C3 C2 1_555 1_555
C4 C3 1_555 1_555
C5 C6 1_555 1_555
C6 C1 1_555 1_555
H2 C6 1_555 1_555
H3 C6 1_555 1_555
C7 C1 1_555 1_555
C8 C7 1_555 1_555
H4 C8 1_555 1_555
C9 C8 1_555 1_555
H5 C9 1_555 1_555
C10 C9 1_555 1_555
H6 C10 1_555 1_555
C11 C10 1_555 1_555
H7 C11 1_555 1_555
C12 C7 1_555 1_555
C13 C1 1_555 1_555
C14 H8 1_555 1_555
H9 C14 1_555 1_555
C15 C14 1_555 1_555
C16 C15 1_555 1_555
H10 C16 1_555 1_555
C17 C16 1_555 1_555
H11 C17 1_555 1_555
C18 C17 1_555 1_555
H12 C18 1_555 1_555
C19 C18 1_555 1_555
H13 C19 1_555 1_555
C20 C15 1_555 1_555
H14 C20 1_555 1_555
C21 C2 1_555 1_555
C22 C21 1_555 1_555
H15 C22 1_555 1_555
C23 C22 1_555 1_555
H16 C23 1_555 1_555
C24 C23 1_555 1_555
C25 C24 1_555 1_555
H17 C25 1_555 1_555
C26 C21 1_555 1_555
H18 C26 1_555 1_555
C27 C4 1_555 1_555
C28 C27 1_555 1_555
H19 C28 1_555 1_555
C29 C28 1_555 1_555
H20 C29 1_555 1_555
C30 C29 1_555 1_555
H21 C30 1_555 1_555
C31 C30 1_555 1_555
H22 C31 1_555 1_555
C32 C27 1_555 1_555
C33 C34 1_555 1_555
C34 H23 1_555 1_555
C35 C34 1_555 1_555
H24 C35 1_555 1_555
C36 C35 1_555 1_555
C37 C36 1_555 1_555
H25 C37 1_555 1_555
C38 C33 1_555 1_555
H26 C38 1_555 1_555
C39 C36 1_555 1_555
H27 C39 1_555 1_555
H28 C39 1_555 1_555
H29 C39 1_555 1_555
N1 C4 1_555 1_555
N2 C12 1_555 1_555
O1 C3 1_555 1_555
O2 S1 1_555 1_555
O3 S1 1_555 1_555
O4 C5 1_555 1_555
O5 C13 1_555 1_555
S1 C33 1_555 1_555
Br2 C63 1_555 1_555
C40 C41 1_555 1_555
C41 H30 1_555 1_555
C42 C41 1_555 1_555
C43 C42 1_555 1_555
C44 C45 1_555 1_555
C45 C40 1_555 1_555
H31 C45 1_555 1_555
H32 C45 1_555 1_555
C46 C40 1_555 1_555
C47 C46 1_555 1_555
H33 C47 1_555 1_555
C48 C47 1_555 1_555
H34 C48 1_555 1_555
C49 C48 1_555 1_555
H35 C49 1_555 1_555
C50 C49 1_555 1_555
H36 C50 1_555 1_555
C51 C46 1_555 1_555
C52 C40 1_555 1_555
C53 H37 1_555 1_555
H38 C53 1_555 1_555
C54 C53 1_555 1_555
C55 C54 1_555 1_555
H39 C55 1_555 1_555
C56 C55 1_555 1_555
H40 C56 1_555 1_555
C57 C56 1_555 1_555
H41 C57 1_555 1_555
C58 C57 1_555 1_555
H42 C58 1_555 1_555
C59 C54 1_555 1_555
H43 C59 1_555 1_555
C60 C41 1_555 1_555
C61 C60 1_555 1_555
H44 C61 1_555 1_555
C62 C61 1_555 1_555
H45 C62 1_555 1_555
C63 C62 1_555 1_555
C64 C63 1_555 1_555
H46 C64 1_555 1_555
C65 C60 1_555 1_555
H47 C65 1_555 1_555
C66 C43 1_555 1_555
C67 C66 1_555 1_555
H48 C67 1_555 1_555
C68 C67 1_555 1_555
H49 C68 1_555 1_555
C69 C68 1_555 1_555
H50 C69 1_555 1_555
C70 C69 1_555 1_555
H51 C70 1_555 1_555
C71 C66 1_555 1_555
C72 C73 1_555 1_555
C73 H52 1_555 1_555
C74 C73 1_555 1_555
H53 C74 1_555 1_555
C75 C74 1_555 1_555
C76 C75 1_555 1_555
H54 C76 1_555 1_555
C77 C72 1_555 1_555
H55 C77 1_555 1_555
C78 C75 1_555 1_555
H56 C78 1_555 1_555
H57 C78 1_555 1_555
H58 C78 1_555 1_555
N3 C43 1_555 1_555
N4 C51 1_555 1_555
O6 C42 1_555 1_555
O7 S2 1_555 1_555
O8 S2 1_555 1_555
O9 C44 1_555 1_555
O10 C52 1_555 1_555
S2 C72 1_555 1_555
C5 N1 1_555 1_555
C11 C12 1_555 1_555
C13 N2 1_555 1_555
C14 N2 1_555 1_555
C19 C20 1_555 1_555
C25 C26 1_555 1_555
C31 C32 1_555 1_555
C32 O1 1_555 1_555
C37 C38 1_555 1_555
N1 S1 1_555 1_555
C44 N3 1_555 1_555
C50 C51 1_555 1_555
C52 N4 1_555 1_555
C53 N4 1_555 1_555
C58 C59 1_555 1_555
C64 C65 1_555 1_555
C70 C71 1_555 1_555
C71 O6 1_555 1_555
C76 C77 1_555 1_555
N3 S2 1_555 1_555

#END
