
#######################################################################
#
#                 Cambridge Crystallographic Data Centre
#                                CCDC 
#
#######################################################################
#
# If this CIF has been generated from an entry in the Cambridge 
# Structural Database, then it will include bibliographic, chemical, 
# crystal, experimental, refinement or atomic coordinate data resulting 
# from the CCDC's data processing and validation procedures.
#
#######################################################################

data_SIQYID
_chemical_formula_moiety         'C27 H24 N2 O4 S2'
_chemical_name_systematic        
N-[2-(2-cyano-2-phenylethenylidene)cyclohexyl]-N-(phenylsulfonyl)benzenesulfonamide
_symmetry_cell_setting           monoclinic
_symmetry_space_group_name_H-M   'P 21/c'
_symmetry_Int_Tables_number      14
_space_group_name_Hall           '-P 2ybc'
loop_
_symmetry_equiv_pos_site_id
_symmetry_equiv_pos_as_xyz
1 x,y,z
2 -x,1/2+y,1/2-z
3 -x,-y,-z
4 x,1/2-y,1/2+z
_cell_length_a                   10.112(3)
_cell_length_b                   24.264(7)
_cell_length_c                   11.299(3)
_cell_angle_alpha                90
_cell_angle_beta                 112.743(5)
_cell_angle_gamma                90
_cell_volume                     2556.74
_exptl_crystal_colour            white
_exptl_crystal_description       prism
_cell_formula_units_Z            4
loop_
_atom_site_label
_atom_site_type_symbol
_atom_site_fract_x
_atom_site_fract_y
_atom_site_fract_z
S1 S 0.59464(4) 0.38643(2) 0.94248(4)
S2 S 0.41924(4) 0.42507(2) 0.68645(4)
O1 O 0.59385(13) 0.39681(5) 1.06636(11)
O2 O 0.70097(11) 0.41157(5) 0.90659(12)
O3 O 0.27302(11) 0.44130(5) 0.62420(10)
O4 O 0.47472(13) 0.37992(5) 0.63892(11)
N1 N 0.43605(12) 0.40949(5) 0.83787(12)
N2 N 0.3091(2) 0.21300(7) 0.64179(18)
C1 C 0.1019(2) 0.29534(9) 0.3756(2)
H1 H 0.159644 0.263175 0.390628
C2 C 0.0236(3) 0.31218(12) 0.2512(2)
H2 H 0.027234 0.291532 0.181113
C3 C -0.0585(2) 0.35834(12) 0.2294(3)
H3 H -0.110911 0.370148 0.143748
C4 C -0.0663(2) 0.38795(10) 0.3294(3)
H4 H -0.124439 0.420049 0.312990
C5 C 0.0108(2) 0.37116(8) 0.4555(2)
H5 H 0.004195 0.391436 0.524879
C6 C 0.09678(17) 0.32498(7) 0.47891(18)
C7 C 0.18066(17) 0.30704(6) 0.61360(17)
C8 C 0.19353(17) 0.33606(6) 0.71652(17)
C9 C 0.19660(16) 0.36719(6) 0.81077(16)
C10 C 0.0791(2) 0.36541(8) 0.8637(2)
H6 H 0.119470 0.352547 0.953810
H7 H 0.003202 0.339243 0.812924
C11 C 0.0151(2) 0.42289(9) 0.8568(2)
H8 H -0.031759 0.434329 0.765928
H9 H -0.058909 0.421944 0.893985
C12 C 0.1301(2) 0.46462(8) 0.9294(2)
H10 H 0.172283 0.454623 1.021483
H11 H 0.086122 0.501588 0.921843
C13 C 0.24782(19) 0.46646(7) 0.87690(19)
H12 H 0.324462 0.491920 0.929622
H13 H 0.207841 0.480786 0.787964
C14 C 0.31164(15) 0.40925(6) 0.87794(15)
H14 H 0.352268 0.397821 0.970131
C15 C 0.60369(17) 0.31477(6) 0.92531(16)
C16 C 0.5437(2) 0.28078(8) 0.9887(2)
H15 H 0.490402 0.295500 1.034566
C17 C 0.5634(3) 0.22444(11) 0.9834(3)
H16 H 0.522046 0.200088 1.025455
C18 C 0.6414(3) 0.20353(10) 0.9186(3)
H17 H 0.655587 0.164866 0.917394
C19 C 0.6992(3) 0.23773(11) 0.8556(3)
H18 H 0.752461 0.222704 0.810086
C20 C 0.6808(2) 0.29385(9) 0.8575(2)
H19 H 0.720280 0.317771 0.813052
C21 C 0.52795(16) 0.48288(6) 0.69675(15)
C22 C 0.4926(2) 0.53277(7) 0.73612(17)
H20 H 0.414911 0.535226 0.763390
C23 C 0.5724(2) 0.57914(8) 0.73513(19)
H21 H 0.550372 0.613584 0.763109
C24 C 0.6827(2) 0.57540(9) 0.6940(2)
H22 H 0.735683 0.607507 0.692338
C25 C 0.7180(2) 0.52568(10) 0.6550(2)
H23 H 0.795264 0.523415 0.627111
C26 C 0.63955(19) 0.47896(8) 0.65670(17)
H24 H 0.663045 0.444424 0.630293
C27 C 0.2539(2) 0.25464(7) 0.63149(17)
loop_
_geom_bond_atom_site_label_1
_geom_bond_atom_site_label_2
_geom_bond_site_symmetry_1
_geom_bond_site_symmetry_2
S1 O1 1_555 1_555
S2 O3 1_555 1_555
O2 S1 1_555 1_555
O4 S2 1_555 1_555
N1 S1 1_555 1_555
N2 C27 1_555 1_555
C1 H1 1_555 1_555
C2 C1 1_555 1_555
H2 C2 1_555 1_555
C3 C2 1_555 1_555
H3 C3 1_555 1_555
C4 C3 1_555 1_555
H4 C4 1_555 1_555
C5 C4 1_555 1_555
H5 C5 1_555 1_555
C6 C1 1_555 1_555
C7 C6 1_555 1_555
C8 C7 1_555 1_555
C9 C8 1_555 1_555
C10 C9 1_555 1_555
H6 C10 1_555 1_555
H7 C10 1_555 1_555
C11 C10 1_555 1_555
H8 C11 1_555 1_555
H9 C11 1_555 1_555
C12 C11 1_555 1_555
H10 C12 1_555 1_555
H11 C12 1_555 1_555
C13 C12 1_555 1_555
H12 C13 1_555 1_555
H13 C13 1_555 1_555
C14 N1 1_555 1_555
H14 C14 1_555 1_555
C15 S1 1_555 1_555
C16 C15 1_555 1_555
H15 C16 1_555 1_555
C17 C16 1_555 1_555
H16 C17 1_555 1_555
C18 C17 1_555 1_555
H17 C18 1_555 1_555
C19 C18 1_555 1_555
H18 C19 1_555 1_555
C20 C15 1_555 1_555
H19 C20 1_555 1_555
C21 S2 1_555 1_555
C22 C21 1_555 1_555
H20 C22 1_555 1_555
C23 C22 1_555 1_555
H21 C23 1_555 1_555
C24 C23 1_555 1_555
H22 C24 1_555 1_555
C25 C24 1_555 1_555
H23 C25 1_555 1_555
C26 C21 1_555 1_555
H24 C26 1_555 1_555
C27 C7 1_555 1_555
S2 N1 1_555 1_555
C5 C6 1_555 1_555
C9 C14 1_555 1_555
C13 C14 1_555 1_555
C19 C20 1_555 1_555
C25 C26 1_555 1_555

#END
