
#######################################################################
#
#                 Cambridge Crystallographic Data Centre
#                                CCDC 
#
#######################################################################
#
# If this CIF has been generated from an entry in the Cambridge 
# Structural Database, then it will include bibliographic, chemical, 
# crystal, experimental, refinement or atomic coordinate data resulting 
# from the CCDC's data processing and validation procedures.
#
#######################################################################

data_SIQZOJ
_chemical_formula_moiety         'C39 H41 B1 F2 N4'
_chemical_name_systematic        
4-(1-(8-(2-(4-(Dimethylamino)phenyl)vinyl)-5,5-difluoro-1,3,7,9-tetramethyl-10-phenyl-5H-6\l^5^,5\l^5^-dipyrrolo[1,2-c:2',1'-f][1,3,2]diazaborinin-2-yl)vinyl)-N,N-dimethylaniline
_symmetry_cell_setting           monoclinic
_symmetry_space_group_name_H-M   'P 21/n'
_symmetry_Int_Tables_number      14
_space_group_name_Hall           '-P 2yn'
loop_
_symmetry_equiv_pos_site_id
_symmetry_equiv_pos_as_xyz
1 x,y,z
2 1/2-x,1/2+y,1/2-z
3 -x,-y,-z
4 1/2+x,1/2-y,1/2+z
_cell_length_a                   10.4511(11)
_cell_length_b                   15.7350(16)
_cell_length_c                   20.686(2)
_cell_angle_alpha                90
_cell_angle_beta                 91.512(2)
_cell_angle_gamma                90
_cell_volume                     3400.59
_cell_formula_units_Z            4
loop_
_atom_site_label
_atom_site_type_symbol
_atom_site_fract_x
_atom_site_fract_y
_atom_site_fract_z
B1 B 0.8111(2) 0.39396(12) 1.09623(9)
C1 C 1.0428(3) -0.27862(14) 1.13075(13)
H1 H 1.0867 -0.2652 1.1708
H2 H 1.0907 -0.3205 1.1079
H3 H 0.9593 -0.3006 1.1394
C2 C 1.0267(3) -0.21489(16) 1.02316(12)
H4 H 0.9405 -0.2079 1.0068
H5 H 1.0562 -0.2711 1.0133
H6 H 1.0811 -0.1738 1.0033
C3 C 0.97748(18) -0.13002(11) 1.11795(9)
C4 C 0.93175(19) -0.12676(12) 1.18092(9)
H7 H 0.9393 -0.1746 1.2071
C5 C 0.87612(19) -0.05489(12) 1.20502(9)
H8 H 0.8466 -0.0556 1.2470
C6 C 0.9669(2) -0.05554(13) 1.08201(10)
H9 H 0.9981 -0.0543 1.0403
C7 C 0.9113(2) 0.01635(12) 1.10666(9)
H10 H 0.9063 0.0648 1.0810
C8 C 0.86230(17) 0.01938(11) 1.16847(8)
C9 C 0.79958(17) 0.09702(11) 1.19372(8)
C10 C 0.7719(2) 0.10678(13) 1.25590(9)
H11 H 0.7920 0.0640 1.2855
H12 H 0.7327 0.1564 1.2697
C11 C 0.77129(17) 0.16842(11) 1.14811(8)
C12 C 0.69456(17) 0.16762(10) 1.09172(8)
C13 C 0.6191(2) 0.09245(12) 1.06721(10)
H13 H 0.6345 0.0448 1.0953
H14 H 0.6451 0.0785 1.0243
H15 H 0.5295 0.1061 1.0663
C14 C 0.81829(17) 0.25129(11) 1.15672(8)
C15 C 0.8995(2) 0.28551(13) 1.21103(9)
H16 H 0.9571 0.3275 1.1947
H17 H 0.9479 0.2401 1.2307
H18 H 0.8459 0.3110 1.2426
C16 C 0.69836(16) 0.25116(10) 1.06590(7)
C17 C 0.64157(16) 0.28757(10) 1.01022(7)
C18 C 0.56096(17) 0.23366(10) 0.96585(8)
C19 C 0.4320(2) 0.22519(15) 0.97481(11)
H19 H 0.3938 0.2525 1.0092
C20 C 0.3590(2) 0.17576(18) 0.93254(14)
H20 H 0.2714 0.1707 0.9385
C21 C 0.4134(3) 0.13451(15) 0.88239(12)
H21 H 0.3637 0.1015 0.8542
C22 C 0.5407(3) 0.14220(17) 0.87417(12)
H22 H 0.5787 0.1135 0.8404
C23 C 0.6151(2) 0.19197(15) 0.91516(11)
H23 H 0.7024 0.1973 0.9084
C24 C 0.66110(17) 0.37280(10) 0.99412(8)
C25 C 0.61341(19) 0.42481(11) 0.94225(9)
C26 C 0.5225(3) 0.40212(15) 0.88790(11)
H24 H 0.4946 0.4530 0.8661
H25 H 0.4498 0.3731 0.9048
H26 H 0.5648 0.3657 0.8580
C27 C 0.74751(19) 0.50126(11) 1.00748(8)
C28 C 0.8258(3) 0.57070(12) 1.03811(11)
H27 H 0.8354 0.5603 1.0837
H28 H 0.7836 0.6242 1.0311
H29 H 0.9087 0.5721 1.0192
C29 C 0.66853(19) 0.50458(11) 0.95070(9)
C30 C 0.6432(2) 0.58049(12) 0.91048(9)
H30 H 0.5613 0.5866 0.8924
C31 C 0.7272(2) 0.64026(12) 0.89812(9)
H31 H 0.8101 0.6301 0.9137
C32 C 0.70855(19) 0.72056(12) 0.86319(9)
C33 C 0.5923(2) 0.74692(12) 0.83461(10)
H32 H 0.5215 0.7112 0.8364
C34 C 0.5798(2) 0.82441(12) 0.80378(9)
H33 H 0.5007 0.8397 0.7857
C35 C 0.8091(2) 0.77669(14) 0.85913(11)
H34 H 0.8875 0.7617 0.8782
C36 C 0.7993(2) 0.85372(14) 0.82820(12)
H35 H 0.8706 0.8890 0.8264
C37 C 0.6823(2) 0.88002(12) 0.79907(9)
C38 C 0.5618(3) 0.97906(14) 0.73022(14)
H36 H 0.5479 0.9364 0.6976
H37 H 0.5746 1.0331 0.7099
H38 H 0.4885 0.9821 0.7571
C39 C 0.7817(3) 1.01332(16) 0.76634(15)
H39 H 0.8115 1.0260 0.8096
H40 H 0.7580 1.0651 0.7446
H41 H 0.8486 0.9857 0.7433
F1 F 0.77198(15) 0.44243(7) 1.14780(5)
F2 F 0.94215(11) 0.40240(8) 1.09030(6)
N1 N 1.0304(2) -0.20277(11) 1.09182(9)
N2 N 0.77542(14) 0.30068(8) 1.10706(6)
N3 N 0.74271(14) 0.42324(8) 1.03337(7)
N4 N 0.67179(19) 0.95779(12) 0.76864(10)
loop_
_geom_bond_atom_site_label_1
_geom_bond_atom_site_label_2
_geom_bond_site_symmetry_1
_geom_bond_site_symmetry_2
B1 F1 1_555 1_555
C1 H1 1_555 1_555
H2 C1 1_555 1_555
H3 C1 1_555 1_555
C2 H4 1_555 1_555
H5 C2 1_555 1_555
H6 C2 1_555 1_555
C3 C4 1_555 1_555
C4 H7 1_555 1_555
C5 C4 1_555 1_555
H8 C5 1_555 1_555
C6 C3 1_555 1_555
H9 C6 1_555 1_555
C7 C6 1_555 1_555
H10 C7 1_555 1_555
C8 C5 1_555 1_555
C9 C8 1_555 1_555
C10 C9 1_555 1_555
H11 C10 1_555 1_555
H12 C10 1_555 1_555
C11 C9 1_555 1_555
C12 C11 1_555 1_555
C13 C12 1_555 1_555
H13 C13 1_555 1_555
H14 C13 1_555 1_555
H15 C13 1_555 1_555
C14 C11 1_555 1_555
C15 C14 1_555 1_555
H16 C15 1_555 1_555
H17 C15 1_555 1_555
H18 C15 1_555 1_555
C16 C12 1_555 1_555
C17 C16 1_555 1_555
C18 C17 1_555 1_555
C19 C18 1_555 1_555
H19 C19 1_555 1_555
C20 C19 1_555 1_555
H20 C20 1_555 1_555
C21 C20 1_555 1_555
H21 C21 1_555 1_555
C22 C21 1_555 1_555
H22 C22 1_555 1_555
C23 C18 1_555 1_555
H23 C23 1_555 1_555
C24 C17 1_555 1_555
C25 C24 1_555 1_555
C26 C25 1_555 1_555
H24 C26 1_555 1_555
H25 C26 1_555 1_555
H26 C26 1_555 1_555
C27 C28 1_555 1_555
C28 H27 1_555 1_555
H28 C28 1_555 1_555
H29 C28 1_555 1_555
C29 C25 1_555 1_555
C30 C29 1_555 1_555
H30 C30 1_555 1_555
C31 C30 1_555 1_555
H31 C31 1_555 1_555
C32 C31 1_555 1_555
C33 C32 1_555 1_555
H32 C33 1_555 1_555
C34 C33 1_555 1_555
H33 C34 1_555 1_555
C35 C32 1_555 1_555
H34 C35 1_555 1_555
C36 C35 1_555 1_555
H35 C36 1_555 1_555
C37 C34 1_555 1_555
C38 H36 1_555 1_555
H37 C38 1_555 1_555
H38 C38 1_555 1_555
C39 H39 1_555 1_555
H40 C39 1_555 1_555
H41 C39 1_555 1_555
F2 B1 1_555 1_555
N1 C1 1_555 1_555
N2 B1 1_555 1_555
N3 B1 1_555 1_555
N4 C37 1_555 1_555
C2 N1 1_555 1_555
C3 N1 1_555 1_555
C7 C8 1_555 1_555
C14 N2 1_555 1_555
C16 N2 1_555 1_555
C22 C23 1_555 1_555
C24 N3 1_555 1_555
C27 C29 1_555 1_555
C27 N3 1_555 1_555
C36 C37 1_555 1_555
C38 N4 1_555 1_555
C39 N4 1_555 1_555

#END
