
#######################################################################
#
#                 Cambridge Crystallographic Data Centre
#                                CCDC 
#
#######################################################################
#
# If this CIF has been generated from an entry in the Cambridge 
# Structural Database, then it will include bibliographic, chemical, 
# crystal, experimental, refinement or atomic coordinate data resulting 
# from the CCDC's data processing and validation procedures.
#
#######################################################################

data_SIQZAW
_chemical_formula_moiety         'C15 H16 Cl1 N1 O1'
_chemical_name_systematic        
3-(3-chloropropyl)-6-methyl-5-phenylpyridin-2(1H)-one
_symmetry_cell_setting           orthorhombic
_symmetry_space_group_name_H-M   'P n a 21'
_symmetry_Int_Tables_number      33
_space_group_name_Hall           'P 2c -2n'
loop_
_symmetry_equiv_pos_site_id
_symmetry_equiv_pos_as_xyz
1 x,y,z
2 -x,-y,1/2+z
3 1/2-x,1/2+y,1/2+z
4 1/2+x,1/2-y,z
_cell_length_a                   22.960(5)
_cell_length_b                   11.149(2)
_cell_length_c                   10.666(2)
_cell_angle_alpha                90
_cell_angle_beta                 90
_cell_angle_gamma                90
_cell_volume                     2730.29
_exptl_crystal_colour            colorless
_exptl_crystal_description       Prism
_cell_formula_units_Z            8
loop_
_atom_site_label
_atom_site_type_symbol
_atom_site_fract_x
_atom_site_fract_y
_atom_site_fract_z
Cl1 Cl 0.58822(9) 0.2379(2) 0.4725(3)
O1 O 0.53558(15) 0.6486(3) 0.5553(4)
N1 N 0.43742(16) 0.6705(4) 0.5385(4)
H1 H 0.443412 0.727705 0.485920
C1 C 0.5585(5) 0.3688(10) 0.5440(10)
H2 H 0.585115 0.435005 0.529847
H3 H 0.522200 0.388250 0.502168
C2 C 0.5480(4) 0.3607(9) 0.6701(8)
H4 H 0.584257 0.336895 0.709406
H5 H 0.520902 0.294816 0.681884
C3 C 0.5247(2) 0.4647(5) 0.7438(6)
H6 H 0.555935 0.522171 0.756463
H7 H 0.512603 0.436291 0.825700
C4 C 0.4856(2) 0.6173(4) 0.5899(5)
C5 C 0.4741(2) 0.5280(5) 0.6825(5)
C6 C 0.4175(2) 0.5012(5) 0.7092(5)
H8 H 0.410272 0.443897 0.770548
C7 C 0.3689(2) 0.5553(5) 0.6491(5)
C8 C 0.3806(2) 0.6413(4) 0.5629(5)
C9 C 0.3367(2) 0.7123(5) 0.4892(6)
H9 H 0.330016 0.673963 0.409954
H10 H 0.351319 0.791961 0.475428
H11 H 0.300852 0.716465 0.535205
C10 C 0.3086(2) 0.5161(5) 0.6800(5)
C11 C 0.2883(2) 0.5209(6) 0.8025(6)
H12 H 0.312184 0.551328 0.865308
C12 C 0.2324(3) 0.4806(7) 0.8323(7)
H13 H 0.219432 0.484549 0.914733
C13 C 0.1971(3) 0.4359(6) 0.7426(7)
H14 H 0.159917 0.409300 0.763294
C14 C 0.2162(3) 0.4297(7) 0.6195(7)
H15 H 0.191876 0.399564 0.557430
C15 C 0.2719(3) 0.4687(6) 0.5893(6)
H16 H 0.284767 0.462892 0.506900
Cl2 Cl 0.39411(13) 1.2645(3) 0.4874(4)
O2 O 0.45980(15) 0.8618(3) 0.3810(4)
N2 N 0.55756(18) 0.8358(4) 0.3902(4)
H17 H 0.551468 0.776535 0.440182
C16 C 0.4260(4) 1.1309(7) 0.4106(9)
H18 H 0.457427 1.099062 0.461576
H19 H 0.396628 1.069132 0.401270
C17 C 0.4475(3) 1.1647(7) 0.2919(9)
H20 H 0.479200 1.221184 0.303759
H21 H 0.416832 1.205997 0.246722
C18 C 0.4694(3) 1.0609(6) 0.2112(6)
H22 H 0.437480 1.005158 0.199027
H23 H 0.479803 1.092491 0.129464
C19 C 0.5095(2) 0.8949(5) 0.3454(5)
C20 C 0.5205(2) 0.9923(5) 0.2610(5)
C21 C 0.5769(2) 1.0177(5) 0.2318(5)
H24 H 0.583981 1.080571 0.176502
C22 C 0.6254(2) 0.9549(5) 0.2799(5)
C23 C 0.6146(2) 0.8625(5) 0.3626(5)
C24 C 0.6589(2) 0.7894(6) 0.4308(7)
H25 H 0.647542 0.781078 0.516955
H26 H 0.696093 0.828707 0.426396
H27 H 0.661697 0.711547 0.392891
C25 C 0.6860(2) 0.9899(5) 0.2442(6)
C26 C 0.7246(3) 0.9072(6) 0.1944(6)
H28 H 0.712246 0.828874 0.180615
C27 C 0.7815(3) 0.9389(7) 0.1646(7)
H29 H 0.806978 0.881767 0.132720
C28 C 0.7999(3) 1.0540(7) 0.1822(8)
H30 H 0.837916 1.075113 0.162110
C29 C 0.7623(3) 1.1394(7) 0.2296(8)
H31 H 0.774812 1.217961 0.240962
C30 C 0.7048(2) 1.1065(6) 0.2606(6)
H32 H 0.679251 1.163799 0.292272
loop_
_geom_bond_atom_site_label_1
_geom_bond_atom_site_label_2
_geom_bond_site_symmetry_1
_geom_bond_site_symmetry_2
Cl1 C1 1_555 1_555
O1 C4 1_555 1_555
N1 H1 1_555 1_555
C1 H2 1_555 1_555
H3 C1 1_555 1_555
C2 C1 1_555 1_555
H4 C2 1_555 1_555
H5 C2 1_555 1_555
C3 C2 1_555 1_555
H6 C3 1_555 1_555
H7 C3 1_555 1_555
C4 N1 1_555 1_555
C5 C3 1_555 1_555
C6 C5 1_555 1_555
H8 C6 1_555 1_555
C7 C6 1_555 1_555
C8 N1 1_555 1_555
C9 C8 1_555 1_555
H9 C9 1_555 1_555
H10 C9 1_555 1_555
H11 C9 1_555 1_555
C10 C7 1_555 1_555
C11 C10 1_555 1_555
H12 C11 1_555 1_555
C12 C11 1_555 1_555
H13 C12 1_555 1_555
C13 C12 1_555 1_555
H14 C13 1_555 1_555
C14 C13 1_555 1_555
H15 C14 1_555 1_555
C15 C10 1_555 1_555
H16 C15 1_555 1_555
Cl2 C16 1_555 1_555
O2 C19 1_555 1_555
N2 H17 1_555 1_555
C16 H18 1_555 1_555
H19 C16 1_555 1_555
C17 C16 1_555 1_555
H20 C17 1_555 1_555
H21 C17 1_555 1_555
C18 C17 1_555 1_555
H22 C18 1_555 1_555
H23 C18 1_555 1_555
C19 N2 1_555 1_555
C20 C18 1_555 1_555
C21 C20 1_555 1_555
H24 C21 1_555 1_555
C22 C21 1_555 1_555
C23 N2 1_555 1_555
C24 C23 1_555 1_555
H25 C24 1_555 1_555
H26 C24 1_555 1_555
H27 C24 1_555 1_555
C25 C22 1_555 1_555
C26 C25 1_555 1_555
H28 C26 1_555 1_555
C27 C26 1_555 1_555
H29 C27 1_555 1_555
C28 C27 1_555 1_555
H30 C28 1_555 1_555
C29 C28 1_555 1_555
H31 C29 1_555 1_555
C30 C25 1_555 1_555
H32 C30 1_555 1_555
C4 C5 1_555 1_555
C7 C8 1_555 1_555
C14 C15 1_555 1_555
C19 C20 1_555 1_555
C22 C23 1_555 1_555
C29 C30 1_555 1_555

#END
