
#######################################################################
#
#                 Cambridge Crystallographic Data Centre
#                                CCDC 
#
#######################################################################
#
# If this CIF has been generated from an entry in the Cambridge 
# Structural Database, then it will include bibliographic, chemical, 
# crystal, experimental, refinement or atomic coordinate data resulting 
# from the CCDC's data processing and validation procedures.
#
#######################################################################

data_SIRDIJ
_chemical_formula_moiety         'C58 H48 N4 4+,4(F6 P1 1-),C18 H10 O2'
_chemical_name_systematic        
'13,20,35,42-tetraazadecacyclo[40.2.2.2^2,5^.2^6,9^.2^10,13^.2^15,18^.2^20,23^.2^26,29^.2^32,35^.2^37,40^]dohexaconta-1(44),2,4,6,8,10,12,15,17,20,22,24,26,28,30,32,34,37,39,42,45,47,49,51,53,55,57,59,61-nonacosaene-13,20,35,42-tetraium tetracene-5,12-dione tetrakis(hexafluorophosphate) unknown solvate'
_symmetry_cell_setting           tetragonal
_symmetry_space_group_name_H-M   'I 41 m d'
_symmetry_Int_Tables_number      109
_space_group_name_Hall           'I 4bw -2'
loop_
_symmetry_equiv_pos_site_id
_symmetry_equiv_pos_as_xyz
1 x,y,z
2 1/2-x,1/2-y,1/2+z
3 -y,1/2+x,1/4+z
4 1/2+y,-x,3/4+z
5 x,-y,z
6 1/2-x,1/2+y,1/2+z
7 -y,1/2-x,1/4+z
8 1/2+y,x,3/4+z
9 1/2+x,1/2+y,1/2+z
10 -x,-y,z
11 1/2-y,x,3/4+z
12 y,1/2-x,1/4+z
13 1/2+x,1/2-y,1/2+z
14 -x,y,z
15 1/2-y,-x,3/4+z
16 y,1/2+x,1/4+z
_cell_length_a                   17.802(4)
_cell_length_b                   17.802(4)
_cell_length_c                   26.606(7)
_cell_angle_alpha                90
_cell_angle_beta                 90
_cell_angle_gamma                90
_cell_volume                     8431.74
_exptl_crystal_colour            yellow
_exptl_crystal_description       prism
_cell_formula_units_Z            4
loop_
_atom_site_label
_atom_site_type_symbol
_atom_site_fract_x
_atom_site_fract_y
_atom_site_fract_z
O1 O 0.500000 0.8493(3) 0.6322(3)
C21 C 0.500000 0.9621(7) 0.7700(4)
H13 H 0.500000 0.935864 0.801102
C22 C 0.500000 0.9224(6) 0.7258(4)
H14 H 0.500000 0.869024 0.726261
C23 C 0.500000 0.9611(5) 0.6801(3)
C24 C 0.500000 0.9169(4) 0.6320(4)
C25 C 0.500000 0.9592(4) 0.5839(4)
C26 C 0.500000 0.9234(5) 0.5407(4)
H15 H 0.500000 0.870064 0.541513
C27 C 0.500000 0.9586(5) 0.4933(4)
C28 C 0.500000 0.9217(7) 0.4471(4)
H16 H 0.500000 0.868307 0.446468
C29 C 0.500000 0.9603(7) 0.4024(4)
H17 H 0.500000 0.933673 0.371475
O1D O 0.500000 1.1507(3) 0.6322(3)
C21D C 0.500000 1.0379(7) 0.7700(4)
H13D H 0.500000 1.064136 0.801102
C22D C 0.500000 1.0776(6) 0.7258(4)
H14D H 0.500000 1.130976 0.726261
C23D C 0.500000 1.0389(5) 0.6801(3)
C24D C 0.500000 1.0831(4) 0.6320(4)
C25D C 0.500000 1.0408(4) 0.5839(4)
C26D C 0.500000 1.0766(5) 0.5407(4)
H15D H 0.500000 1.129936 0.541513
C27D C 0.500000 1.0414(5) 0.4933(4)
C28D C 0.500000 1.0783(7) 0.4471(4)
H16D H 0.500000 1.131693 0.446468
C29D C 0.500000 1.0397(7) 0.4024(4)
H17D H 0.500000 1.066327 0.371475
P1 P 0.73961(11) 0.72661(11) 0.71922(12)
F1 F 0.7841(4) 0.8122(4) 0.7167(5)
F2 F 0.7028(7) 0.6546(6) 0.7245(8)
F3 F 0.7573(11) 0.7320(9) 0.7796(8)
F4 F 0.6641(9) 0.7710(12) 0.7315(8)
F5 F 0.7300(7) 0.7342(8) 0.6623(5)
F6 F 0.8242(8) 0.6917(9) 0.7164(8)
N1 N 0.6820(3) 1.000000 0.8871(2)
N2 N 0.6803(6) 1.000000 0.2946(3)
C1 C 0.5385(3) 0.9340(3) 0.9474(3)
H1 H 0.564693 0.887549 0.947668
C2 C 0.5783(4) 1.000000 0.9470(3)
C3 C 0.6627(5) 1.000000 0.9419(3)
H2 H 0.683986 1.045095 0.958355
C4 C 0.6863(4) 0.9358(4) 0.8619(3)
H3 H 0.684428 0.889604 0.879751
C5 C 0.6935(4) 0.9348(5) 0.8104(3)
H4 H 0.695948 0.887703 0.793671
C6 C 0.6973(5) 1.000000 0.7822(4)
C7 C 0.6958(11) 1.000000 0.7232(12)
C8 C 0.6903(15) 0.9342(10) 0.6937(7)
H5 H 0.681293 0.886829 0.708931
C9 C 0.6981(15) 0.9401(15) 0.6427(9)
H6 H 0.708642 0.895069 0.624925
C10 C 0.6925(8) 1.000000 0.6168(9)
C11 C 0.6984(11) 1.000000 0.5607(8)
C12 C 0.6916(13) 0.9337(8) 0.5334(7)
H7 H 0.687992 0.887405 0.551008
C13 C 0.6901(17) 0.9333(10) 0.4815(8)
H8 H 0.688223 0.887329 0.463495
C14 C 0.6912(16) 1.000000 0.4568(10)
C15 C 0.6951(6) 1.000000 0.3987(4)
C16 C 0.6962(5) 1.0645(6) 0.3722(3)
H9 H 0.704454 1.110625 0.389307
C17 C 0.6856(5) 1.0655(4) 0.3208(3)
H10 H 0.681967 1.112089 0.303650
C18 C 0.6627(7) 1.000000 0.2421(4)
H11 H 0.684633 0.954949 0.225908
C19 C 0.5777(6) 1.000000 0.2351(3)
C20 C 0.5372(4) 1.0659(3) 0.2339(3)
H12 H 0.563271 1.112494 0.233063
C1D C 0.5385(3) 1.0660(3) 0.9474(3)
H1D H 0.564693 1.112451 0.947668
H2D H 0.683986 0.954905 0.958355
C4D C 0.6863(4) 1.0642(4) 0.8619(3)
H3D H 0.684428 1.110396 0.879751
C5D C 0.6935(4) 1.0652(5) 0.8104(3)
H4D H 0.695948 1.112297 0.793671
C8D C 0.6903(15) 1.0658(10) 0.6937(7)
H5D H 0.681293 1.113171 0.708931
C9D C 0.6981(15) 1.0599(15) 0.6427(9)
H6D H 0.708642 1.104931 0.624925
C12D C 0.6916(13) 1.0663(8) 0.5334(7)
H7D H 0.687992 1.112595 0.551008
C13D C 0.6901(17) 1.0667(10) 0.4815(8)
H8D H 0.688223 1.112671 0.463495
C16D C 0.6962(5) 0.9355(6) 0.3722(3)
H9D H 0.704454 0.889375 0.389307
C17D C 0.6856(5) 0.9345(4) 0.3208(3)
H10D H 0.681967 0.887911 0.303650
H11D H 0.684633 1.045051 0.225908
C20D C 0.5372(4) 0.9341(3) 0.2339(3)
H12D H 0.563271 0.887506 0.233063
N1I N 0.3180(3) 1.000000 0.8871(2)
N2I N 0.3197(6) 1.000000 0.2946(3)
C1I C 0.4615(3) 1.0660(3) 0.9474(3)
H1I H 0.435307 1.112451 0.947668
C2I C 0.4217(4) 1.000000 0.9470(3)
C3I C 0.3373(5) 1.000000 0.9419(3)
H2I H 0.316014 0.954905 0.958355
C4I C 0.3137(4) 1.0642(4) 0.8619(3)
H3I H 0.315572 1.110396 0.879751
C5I C 0.3065(4) 1.0652(5) 0.8104(3)
H4I H 0.304052 1.112297 0.793671
C6I C 0.3027(5) 1.000000 0.7822(4)
C7I C 0.3042(11) 1.000000 0.7232(12)
C8I C 0.3097(15) 1.0658(10) 0.6937(7)
H5I H 0.318707 1.113171 0.708931
C9I C 0.3019(15) 1.0599(15) 0.6427(9)
H6I H 0.291358 1.104931 0.624925
C10I C 0.3075(8) 1.000000 0.6168(9)
C11I C 0.3016(11) 1.000000 0.5607(8)
C12I C 0.3084(13) 1.0663(8) 0.5334(7)
H7I H 0.312008 1.112595 0.551008
C13I C 0.3099(17) 1.0667(10) 0.4815(8)
H8I H 0.311777 1.112671 0.463495
C14I C 0.3088(16) 1.000000 0.4568(10)
C15I C 0.3049(6) 1.000000 0.3987(4)
C16I C 0.3038(5) 0.9355(6) 0.3722(3)
H9I H 0.295546 0.889375 0.389307
C17I C 0.3144(5) 0.9345(4) 0.3208(3)
H10I H 0.318033 0.887911 0.303650
C18I C 0.3373(7) 1.000000 0.2421(4)
H11I H 0.315367 1.045051 0.225908
C19I C 0.4223(6) 1.000000 0.2351(3)
C20I C 0.4628(4) 0.9341(3) 0.2339(3)
H12I H 0.436729 0.887506 0.233063
C1M C 0.4615(3) 0.9340(3) 0.9474(3)
H1M H 0.435307 0.887549 0.947668
H2M H 0.316014 1.045095 0.958355
C4M C 0.3137(4) 0.9358(4) 0.8619(3)
H3M H 0.315572 0.889604 0.879751
C5M C 0.3065(4) 0.9348(5) 0.8104(3)
H4M H 0.304052 0.887703 0.793671
C8M C 0.3097(15) 0.9342(10) 0.6937(7)
H5M H 0.318707 0.886829 0.708931
C9M C 0.3019(15) 0.9401(15) 0.6427(9)
H6M H 0.291358 0.895069 0.624925
C12M C 0.3084(13) 0.9337(8) 0.5334(7)
H7M H 0.312008 0.887405 0.551008
C13M C 0.3099(17) 0.9333(10) 0.4815(8)
H8M H 0.311777 0.887329 0.463495
C16M C 0.3038(5) 1.0645(6) 0.3722(3)
H9M H 0.295546 1.110625 0.389307
C17M C 0.3144(5) 1.0655(4) 0.3208(3)
H10M H 0.318033 1.112089 0.303650
H11M H 0.315367 0.954949 0.225908
C20M C 0.4628(4) 1.0659(3) 0.2339(3)
H12M H 0.436729 1.112494 0.233063
C30? C 0.7034(13) 0.9671(12) 0.7310(7)
H18? H 0.703353 0.915176 0.722704
C31? C 0.7091(11) 0.9738(14) 0.6978(7)
H19? H 0.713651 0.922642 0.707612
C32? C 0.7074(9) 1.000000 0.6448(7)
C33? C 0.7097(9) 1.0691(9) 0.6179(6)
H20? H 0.709981 1.115806 0.635098
C34? C 0.7115(6) 1.0664(8) 0.5682(5)
H21? H 0.711983 1.112676 0.550420
C35? C 0.7128(13) 1.000000 0.5398(7)
C36? C 0.7126(10) 1.0266(15) 0.4868(8)
H22? H 0.714295 1.078490 0.478440
C37? C 0.7098(15) 1.0285(17) 0.4505(6)
H23? H 0.716613 1.080296 0.457871
F7? F 0.7710(6) 0.7753(9) 0.6809(6)
F8? F 0.6988(15) 0.6533(14) 0.7518(9)
F9? F 0.7522(10) 0.7647(12) 0.7662(7)
F10? F 0.6576(11) 0.7571(14) 0.7115(8)
F11? F 0.7153(9) 0.6640(13) 0.6682(7)
F12? F 0.8064(13) 0.6773(12) 0.7174(14)
loop_
_geom_bond_atom_site_label_1
_geom_bond_atom_site_label_2
_geom_bond_site_symmetry_1
_geom_bond_site_symmetry_2
N1 C3 1_555 1_555
N2 C17 1_555 1_555
C1 H1 1_555 1_555
C2 C1 1_555 1_555
C3 C2 1_555 1_555
H2 C3 1_555 1_555
C4 N1 1_555 1_555
H3 C4 1_555 1_555
C5 C4 1_555 1_555
H4 C5 1_555 1_555
C6 C5 1_555 1_555
C7 C6 1_555 1_555
C8 C7 1_555 1_555
H5 C8 1_555 1_555
C9 C8 1_555 1_555
H6 C9 1_555 1_555
C10 C9 1_555 1_555
C11 C10 1_555 1_555
C12 C11 1_555 1_555
H7 C12 1_555 1_555
C13 C12 1_555 1_555
H8 C13 1_555 1_555
C14 C13 1_555 1_555
C15 C14 1_555 1_555
C16 C15 1_555 1_555
H9 C16 1_555 1_555
C17 C16 1_555 1_555
H10 C17 1_555 1_555
C18 N2 1_555 1_555
H11 C18 1_555 1_555
C19 C18 1_555 1_555
C20 C19 1_555 1_555
H12 C20 1_555 1_555
O1 C24 1_555 1_555
C21 H13 1_555 1_555
C22 C21 1_555 1_555
H14 C22 1_555 1_555
C23 C22 1_555 1_555
C24 C23 1_555 1_555
C25 C24 1_555 1_555
C26 C25 1_555 1_555
H15 C26 1_555 1_555
C27 C26 1_555 1_555
C28 C27 1_555 1_555
H16 C28 1_555 1_555
C29 C28 1_555 1_555
H17 C29 1_555 1_555
P1 F1 1_555 1_555
F2 P1 1_555 1_555
F3 P1 1_555 1_555
F4 P1 1_555 1_555
F5 P1 1_555 1_555
F6 P1 1_555 1_555
C1D C2 1_555 1_555
H1D C1D 1_555 1_555
H2D C3 1_555 1_555
C4D N1 1_555 1_555
H3D C4D 1_555 1_555
C5D C6 1_555 1_555
H4D C5D 1_555 1_555
C8D C7 1_555 1_555
H5D C8D 1_555 1_555
C9D C10 1_555 1_555
H6D C9D 1_555 1_555
C12D C11 1_555 1_555
H7D C12D 1_555 1_555
C13D C14 1_555 1_555
H8D C13D 1_555 1_555
C16D C15 1_555 1_555
H9D C16D 1_555 1_555
C17D N2 1_555 1_555
H10D C17D 1_555 1_555
H11D C18 1_555 1_555
C20D C19 1_555 1_555
H12D C20D 1_555 1_555
N1I C3I 1_555 1_555
N2I C17I 1_555 1_555
C1I C1D 1_555 1_555
H1I C1I 1_555 1_555
C2I C1I 1_555 1_555
C3I C2I 1_555 1_555
H2I C3I 1_555 1_555
C4I N1I 1_555 1_555
H3I C4I 1_555 1_555
C5I C4I 1_555 1_555
H4I C5I 1_555 1_555
C6I C5I 1_555 1_555
C7I C6I 1_555 1_555
C8I C7I 1_555 1_555
H5I C8I 1_555 1_555
C9I C8I 1_555 1_555
H6I C9I 1_555 1_555
C10I C9I 1_555 1_555
C11I C10I 1_555 1_555
C12I C11I 1_555 1_555
H7I C12I 1_555 1_555
C13I C12I 1_555 1_555
H8I C13I 1_555 1_555
C14I C13I 1_555 1_555
C15I C14I 1_555 1_555
C16I C15I 1_555 1_555
H9I C16I 1_555 1_555
C17I C16I 1_555 1_555
H10I C17I 1_555 1_555
C18I N2I 1_555 1_555
H11I C18I 1_555 1_555
C19I C18I 1_555 1_555
C20I C20D 1_555 1_555
H12I C20I 1_555 1_555
C1M C1 1_555 1_555
H1M C1M 1_555 1_555
H2M C3I 1_555 1_555
C4M N1I 1_555 1_555
H3M C4M 1_555 1_555
C5M C6I 1_555 1_555
H4M C5M 1_555 1_555
C8M C7I 1_555 1_555
H5M C8M 1_555 1_555
C9M C10I 1_555 1_555
H6M C9M 1_555 1_555
C12M C11I 1_555 1_555
H7M C12M 1_555 1_555
C13M C14I 1_555 1_555
H8M C13M 1_555 1_555
C16M C15I 1_555 1_555
H9M C16M 1_555 1_555
C17M N2I 1_555 1_555
H10M C17M 1_555 1_555
H11M C18I 1_555 1_555
C20M C20 1_555 1_555
H12M C20M 1_555 1_555
O1D C24D 1_555 1_555
C21D C21 1_555 1_555
H13D C21D 1_555 1_555
C22D C21D 1_555 1_555
H14D C22D 1_555 1_555
C23D C23 1_555 1_555
C24D C23D 1_555 1_555
C25D C25 1_555 1_555
C26D C25D 1_555 1_555
H15D C26D 1_555 1_555
C27D C27 1_555 1_555
C28D C27D 1_555 1_555
H16D C28D 1_555 1_555
C29D C29 1_555 1_555
H17D C29D 1_555 1_555
C4D C5D 1_555 1_555
C8D C9D 1_555 1_555
C12D C13D 1_555 1_555
C16D C17D 1_555 1_555
C2I C1M 1_555 1_555
C19I C20I 1_555 1_555
C19I C20M 1_555 1_555
C4M C5M 1_555 1_555
C8M C9M 1_555 1_555
C12M C13M 1_555 1_555
C16M C17M 1_555 1_555
C22D C23D 1_555 1_555
C24D C25D 1_555 1_555
C26D C27D 1_555 1_555
C28D C29D 1_555 1_555

#END
