
#######################################################################
#
#                 Cambridge Crystallographic Data Centre
#                                CCDC 
#
#######################################################################
#
# If this CIF has been generated from an entry in the Cambridge 
# Structural Database, then it will include bibliographic, chemical, 
# crystal, experimental, refinement or atomic coordinate data resulting 
# from the CCDC's data processing and validation procedures.
#
#######################################################################

data_SIRDEE
_chemical_formula_moiety         'C20 H32 O4'
_chemical_name_systematic        
'3-(2-(2,3-Dihydroxy-3-methylpent-4-en-1-yl)-1-methyl-3-methylene-6-(prop-1-en-2-yl)cyclohexyl)propanoic acid'
_symmetry_cell_setting           monoclinic
_symmetry_space_group_name_H-M   'P 21'
_symmetry_Int_Tables_number      4
_space_group_name_Hall           'P 2yb'
loop_
_symmetry_equiv_pos_site_id
_symmetry_equiv_pos_as_xyz
1 x,y,z
2 -x,1/2+y,-z
_cell_length_a                   14.6413(10)
_cell_length_b                   9.2033(7)
_cell_length_c                   17.0867(13)
_cell_angle_alpha                90
_cell_angle_beta                 114.239(4)
_cell_angle_gamma                90
_cell_volume                     2099.43
_exptl_crystal_colour            colorless
_exptl_crystal_description       block
_cell_formula_units_Z            4
loop_
_atom_site_label
_atom_site_type_symbol
_atom_site_fract_x
_atom_site_fract_y
_atom_site_fract_z
O1 O 0.9128(3) 0.5819(4) 0.0961(2)
O2 O 0.8622(3) 0.7814(4) 0.1380(2)
H1 H 0.8946 0.8203 0.1144
O3 O 0.9410(2) 0.8439(3) 0.46413(18)
H2 H 0.9642 0.9124 0.4971
O4 O 0.9504(2) 0.5465(3) 0.41954(18)
H3 H 1.0001 0.5235 0.4624
C1 C 0.7113(3) 0.6237(5) 0.1685(3)
H4 H 0.6652 0.6344 0.1087
H5 H 0.7261 0.7203 0.1932
C2 C 0.8086(4) 0.5570(6) 0.1716(3)
H6 H 0.8530 0.5423 0.2315
H7 H 0.7927 0.4618 0.1451
C3 C 0.8655(4) 0.6381(5) 0.1304(3)
C4 C 0.5523(4) 0.3948(7) 0.0754(4)
C5 C 0.6208(3) 0.3878(7) 0.1687(3)
H8 H 0.6810 0.3373 0.1717
C6 C 0.5748(5) 0.2892(8) 0.2164(4)
H9 H 0.5133 0.3325 0.2139
H10 H 0.5585 0.1953 0.1882
C7 C 0.6469(5) 0.2685(9) 0.3094(4)
H11 H 0.6148 0.2118 0.3388
H12 H 0.7054 0.2156 0.3121
C8 C 0.6777(4) 0.4094(8) 0.3519(3)
C9 C 0.7312(3) 0.5032(6) 0.3095(3)
H13 H 0.7846 0.4427 0.3063
C10 C 0.6581(3) 0.5382(5) 0.2149(3)
C11 C 0.7828(3) 0.6376(6) 0.3632(3)
H14 H 0.8028 0.7022 0.3282
H15 H 0.7350 0.6891 0.3788
C12 C 0.8747(3) 0.6007(5) 0.4448(3)
H16 H 0.8564 0.5222 0.4744
C13 C 0.9144(4) 0.7290(5) 0.5077(3)
C14 C 0.8363(5) 0.7836(8) 0.5355(4)
H17 H 0.8162 0.7208 0.5680
C15 C 0.7948(5) 0.9078(10) 0.5188(4)
H18 H 0.8125 0.9742 0.4864
H19 H 0.7466 0.9322 0.5389
C16 C 1.0077(5) 0.6820(7) 0.5863(3)
H20 H 1.0575 0.6466 0.5681
H21 H 0.9900 0.6064 0.6163
H22 H 1.0340 0.7637 0.6239
C17 C 0.6570(5) 0.4513(9) 0.4163(5)
H23 H 0.6212 0.3904 0.4369
H24 H 0.6781 0.5419 0.4413
C18 C 0.5864(6) 0.3557(10) 0.0161(5)
H25 H 0.5426 0.3517 -0.0416
H26 H 0.6536 0.3327 0.0329
C19 C 0.4479(6) 0.4296(10) 0.0467(5)
H27 H 0.4348 0.4607 0.0948
H28 H 0.4084 0.3451 0.0214
H29 H 0.4307 0.5061 0.0050
C20 C 0.5708(4) 0.6313(7) 0.2132(4)
H30 H 0.5356 0.5804 0.2414
H31 H 0.5260 0.6507 0.1548
H32 H 0.5961 0.7214 0.2424
O5 O 1.0835(3) 0.8189(6) 0.3987(3)
O6 O 1.0459(3) 0.6200(4) 0.3216(2)
H33 H 1.0137 0.6045 0.3503
O7 O 0.9726(3) 1.3191(4) 0.0550(2)
H34 H 1.0035 1.3149 0.0246
O8 O 0.9855(2) 0.9248(3) 0.07965(19)
H35 H 0.9430 0.9081 0.0312
C21 C 1.2140(3) 0.9219(6) 0.3336(3)
H36 H 1.2636 0.8953 0.3900
H37 H 1.1710 0.9948 0.3420
C22 C 1.1511(4) 0.7900(6) 0.2949(3)
H38 H 1.1069 0.8106 0.2356
H39 H 1.1946 0.7103 0.2950
C23 C 1.0896(4) 0.7445(6) 0.3423(3)
C24 C 1.4264(5) 0.8303(9) 0.3666(5)
C25 C 1.3528(4) 0.8884(7) 0.2809(3)
H40 H 1.3174 0.8035 0.2476
C26 C 1.4100(4) 0.9558(8) 0.2314(4)
H41 H 1.4468 1.0406 0.2620
H42 H 1.4578 0.8860 0.2280
C27 C 1.3374(4) 0.9998(7) 0.1410(4)
H43 H 1.3737 1.0521 0.1134
H44 H 1.3091 0.9131 0.1075
C28 C 1.2549(4) 1.0933(6) 0.1424(3)
C29 C 1.1977(3) 1.0224(5) 0.1889(3)
H45 H 1.1789 0.9260 0.1628
C30 C 1.2697(3) 0.9938(6) 0.2835(3)
C31 C 1.0996(4) 1.0973(5) 0.1740(3)
H46 H 1.0755 1.0614 0.2155
H47 H 1.1114 1.2008 0.1835
C32 C 1.0194(3) 1.0728(5) 0.0842(3)
H48 H 1.0505 1.0839 0.0435
C33 C 0.9294(4) 1.1775(6) 0.0573(3)
C34 C 0.8610(5) 1.1412(9) -0.0322(5)
H49 H 0.8918 1.1413 -0.0702
C35 C 0.7728(9) 1.1116(14) -0.0654(7)
H50 H 0.7357 1.1088 -0.0325
H51 H 0.7422 1.0915 -0.1238
C36 C 0.8821(5) 1.1810(7) 0.1207(4)
H52 H 0.9319 1.2058 0.1765
H53 H 0.8546 1.0872 0.1229
H54 H 0.8296 1.2523 0.1030
C37 C 1.2354(5) 1.2237(7) 0.1056(4)
H55 H 1.2738 1.2591 0.0779
H56 H 1.1834 1.2794 0.1076
C38 C 1.5028(7) 0.9094(13) 0.4246(6)
H57 H 1.5471 0.8662 0.4752
H58 H 1.5106 1.0065 0.4137
C39 C 1.4168(8) 0.6824(15) 0.3855(7)
H59 H 1.3610 0.6397 0.3389
H60 H 1.4060 0.6763 0.4371
H61 H 1.4770 0.6310 0.3932
C40 C 1.3121(4) 1.1386(7) 0.3294(4)
H62 H 1.3489 1.1862 0.3015
H63 H 1.3557 1.1198 0.3882
H64 H 1.2579 1.1998 0.3270
loop_
_geom_bond_atom_site_label_1
_geom_bond_atom_site_label_2
_geom_bond_site_symmetry_1
_geom_bond_site_symmetry_2
O1 C3 1_555 1_555
O2 H1 1_555 1_555
O3 H2 1_555 1_555
O4 H3 1_555 1_555
C1 H4 1_555 1_555
H5 C1 1_555 1_555
C2 C1 1_555 1_555
H6 C2 1_555 1_555
H7 C2 1_555 1_555
C3 O2 1_555 1_555
C4 C5 1_555 1_555
C5 H8 1_555 1_555
C6 C5 1_555 1_555
H9 C6 1_555 1_555
H10 C6 1_555 1_555
C7 C6 1_555 1_555
H11 C7 1_555 1_555
H12 C7 1_555 1_555
C8 C7 1_555 1_555
C9 C8 1_555 1_555
H13 C9 1_555 1_555
C10 C1 1_555 1_555
C11 C9 1_555 1_555
H14 C11 1_555 1_555
H15 C11 1_555 1_555
C12 O4 1_555 1_555
H16 C12 1_555 1_555
C13 O3 1_555 1_555
C14 C13 1_555 1_555
H17 C14 1_555 1_555
C15 C14 1_555 1_555
H18 C15 1_555 1_555
H19 C15 1_555 1_555
C16 C13 1_555 1_555
H20 C16 1_555 1_555
H21 C16 1_555 1_555
H22 C16 1_555 1_555
C17 C8 1_555 1_555
H23 C17 1_555 1_555
H24 C17 1_555 1_555
C18 C4 1_555 1_555
H25 C18 1_555 1_555
H26 C18 1_555 1_555
C19 C4 1_555 1_555
H27 C19 1_555 1_555
H28 C19 1_555 1_555
H29 C19 1_555 1_555
C20 C10 1_555 1_555
H30 C20 1_555 1_555
H31 C20 1_555 1_555
H32 C20 1_555 1_555
O5 C23 1_555 1_555
O6 H33 1_555 1_555
O7 H34 1_555 1_555
O8 H35 1_555 1_555
C21 H36 1_555 1_555
H37 C21 1_555 1_555
C22 C21 1_555 1_555
H38 C22 1_555 1_555
H39 C22 1_555 1_555
C23 O6 1_555 1_555
C24 C25 1_555 1_555
C25 H40 1_555 1_555
C26 C25 1_555 1_555
H41 C26 1_555 1_555
H42 C26 1_555 1_555
C27 C26 1_555 1_555
H43 C27 1_555 1_555
H44 C27 1_555 1_555
C28 C27 1_555 1_555
C29 C28 1_555 1_555
H45 C29 1_555 1_555
C30 C21 1_555 1_555
C31 C29 1_555 1_555
H46 C31 1_555 1_555
H47 C31 1_555 1_555
C32 O8 1_555 1_555
H48 C32 1_555 1_555
C33 O7 1_555 1_555
C34 C33 1_555 1_555
H49 C34 1_555 1_555
C35 C34 1_555 1_555
H50 C35 1_555 1_555
H51 C35 1_555 1_555
C36 C33 1_555 1_555
H52 C36 1_555 1_555
H53 C36 1_555 1_555
H54 C36 1_555 1_555
C37 C28 1_555 1_555
H55 C37 1_555 1_555
H56 C37 1_555 1_555
C38 C24 1_555 1_555
H57 C38 1_555 1_555
H58 C38 1_555 1_555
C39 C24 1_555 1_555
H59 C39 1_555 1_555
H60 C39 1_555 1_555
H61 C39 1_555 1_555
C40 C30 1_555 1_555
H62 C40 1_555 1_555
H63 C40 1_555 1_555
H64 C40 1_555 1_555
C2 C3 1_555 1_555
C5 C10 1_555 1_555
C9 C10 1_555 1_555
C11 C12 1_555 1_555
C12 C13 1_555 1_555
C22 C23 1_555 1_555
C25 C30 1_555 1_555
C29 C30 1_555 1_555
C31 C32 1_555 1_555
C32 C33 1_555 1_555

#END
