
#######################################################################
#
#                 Cambridge Crystallographic Data Centre
#                                CCDC 
#
#######################################################################
#
# If this CIF has been generated from an entry in the Cambridge 
# Structural Database, then it will include bibliographic, chemical, 
# crystal, experimental, refinement or atomic coordinate data resulting 
# from the CCDC's data processing and validation procedures.
#
#######################################################################

data_SIRDAB
_chemical_formula_moiety         
'C58 H48 N4 4+,1.75(C20 H12),4(F6 P1 1-),4(C2 H3 N1)'
_chemical_name_systematic        
'13,20,35,42-tetraazadecacyclo[40.2.2.2^2,5^.2^6,9^.2^10,13^.2^15,18^.2^20,23^.2^26,29^.2^32,35^.2^37,40^]dohexaconta-1(44),2,4,6,8,10,12,15,17,20,22,24,26,28,30,32,34,37,39,42,45,47,49,51,53,55,57,59,61-nonacosaene-13,20,35,42-tetraium perylene tetrakis(hexafluorophosphate) acetonitrile solvate'
_symmetry_cell_setting           triclinic
_symmetry_space_group_name_H-M   'P -1'
_symmetry_Int_Tables_number      2
_space_group_name_Hall           '-P 1'
loop_
_symmetry_equiv_pos_site_id
_symmetry_equiv_pos_as_xyz
1 x,y,z
2 -x,-y,-z
_cell_length_a                   10.6321(6)
_cell_length_b                   21.0128(14)
_cell_length_c                   22.5307(15)
_cell_angle_alpha                98.837(4)
_cell_angle_beta                 103.690(4)
_cell_angle_gamma                102.785(4)
_cell_volume                     4655.25
_exptl_crystal_colour            red
_exptl_crystal_description       needle
_cell_formula_units_Z            2
loop_
_atom_site_label
_atom_site_type_symbol
_atom_site_fract_x
_atom_site_fract_y
_atom_site_fract_z
N1 N 0.7338(4) 0.7711(2) 0.14898(16)
N2 N 0.9347(4) 0.7932(2) 0.86655(16)
N3 N 0.2917(4) 0.73073(19) 0.84038(16)
N4 N 0.0878(4) 0.7095(2) 0.12248(16)
C1 C 0.7711(5) 0.8306(3) 0.1899(2)
H1 H 0.773432 0.870582 0.174968
C2 C 0.8056(6) 0.8334(3) 0.2529(2)
H2 H 0.833561 0.875615 0.281136
C3 C 0.8008(5) 0.7758(3) 0.2764(2)
C4 C 0.7674(5) 0.7158(3) 0.23240(19)
H3 H 0.767608 0.675258 0.246150
C5 C 0.7344(4) 0.7147(2) 0.16975(19)
H4 H 0.711551 0.673390 0.140497
C6 C 0.8140(17) 0.7668(8) 0.3445(6)
C7 C 0.8515(15) 0.8318(6) 0.3892(5)
H5 H 0.861730 0.872533 0.375238
C8 C 0.8710(15) 0.8312(6) 0.4512(5)
H6 H 0.894366 0.872721 0.480274
C9 C 0.8583(10) 0.7733(7) 0.4737(6)
C10 C 0.8195(12) 0.7135(7) 0.4312(5)
H7 H 0.810150 0.673157 0.445916
C11 C 0.7930(17) 0.7099(7) 0.3661(6)
H8 H 0.760630 0.667682 0.337668
C12 C 0.8793(10) 0.7740(7) 0.5417(5)
C13 C 0.9592(11) 0.8327(5) 0.5866(5)
H9 H 1.001536 0.870319 0.573097
C14 C 0.9762(10) 0.8357(5) 0.6496(4)
H10 H 1.032285 0.875045 0.678842
C15 C 0.9125(15) 0.7818(8) 0.6716(7)
C16 C 0.8391(13) 0.7237(7) 0.6279(5)
H11 H 0.800259 0.685643 0.641982
C17 C 0.8205(13) 0.7192(7) 0.5630(5)
H12 H 0.767986 0.678935 0.533991
C18 C 0.9298(5) 0.7934(3) 0.7430(2)
C19 C 0.9576(5) 0.8531(3) 0.7875(2)
H13 H 0.974886 0.894826 0.775444
C20 C 0.9597(5) 0.8511(3) 0.8490(2)
H14 H 0.979353 0.891729 0.878889
C21 C 0.9096(5) 0.7347(3) 0.8256(2)
H15 H 0.892264 0.693859 0.839099
C22 C 0.9089(5) 0.7340(3) 0.7643(2)
H16 H 0.894080 0.692636 0.736281
C23 C 0.9217(5) 0.7901(3) 0.9310(2)
H17 H 0.973425 0.833000 0.960413
H18 H 0.958916 0.754162 0.945539
C24 C 0.7748(5) 0.7763(2) 0.92997(18)
C25 C 0.7173(5) 0.8290(2) 0.93709(19)
H19 H 0.770835 0.873759 0.945554
C26 C 0.5802(5) 0.8159(2) 0.93176(18)
H20 H 0.539839 0.851738 0.936340
C27 C 0.5024(5) 0.7500(2) 0.91969(18)
C28 C 0.5620(5) 0.6979(2) 0.9145(2)
H21 H 0.509505 0.653032 0.907203
C29 C 0.6977(5) 0.7111(2) 0.91992(19)
H22 H 0.738549 0.675333 0.916744
C30 C 0.3523(5) 0.7356(2) 0.90862(19)
H23 H 0.317048 0.693068 0.920386
H24 H 0.329935 0.771942 0.934112
C31 C 0.2852(4) 0.7861(2) 0.81905(19)
H25 H 0.302546 0.827257 0.847805
C32 C 0.2540(4) 0.7842(3) 0.7562(2)
H26 H 0.249218 0.823997 0.741757
C33 C 0.2288(5) 0.7242(3) 0.7128(2)
C34 C 0.2286(6) 0.6680(3) 0.7362(2)
H27 H 0.205975 0.625834 0.708205
C35 C 0.2611(6) 0.6715(3) 0.8004(2)
H28 H 0.261680 0.631949 0.815937
C36 C 0.1887(19) 0.7069(10) 0.6466(7)
H29 H 0.150558 0.661492 0.625059
C37 C 0.2041(15) 0.7521(11) 0.6168(6)
H30 H 0.229949 0.796819 0.640225
C38 C 0.1542(11) 0.7366(8) 0.4187(6)
C39 C 0.1951(14) 0.7971(7) 0.4641(5)
H31 H 0.212872 0.838040 0.450703
C40 C 0.2100(14) 0.7993(8) 0.5247(6)
H32 H 0.238380 0.841722 0.552811
C41 C 0.1859(11) 0.7428(9) 0.5484(6)
C42 C 0.1465(14) 0.6823(9) 0.5063(6)
H33 H 0.129467 0.642102 0.521002
C43 C 0.1309(11) 0.6789(8) 0.4417(5)
H34 H 0.104062 0.636537 0.413681
C44 C 0.1379(11) 0.7391(7) 0.3551(5)
H35 H 0.164235 0.782109 0.346402
C45 C 0.0890(14) 0.6869(7) 0.3053(5)
H36 H 0.054702 0.642230 0.308720
C46 C 0.0936(5) 0.7053(3) 0.2454(2)
C47 C 0.1122(6) 0.7662(3) 0.2251(2)
H37 H 0.127127 0.807061 0.253933
C48 C 0.1087(5) 0.7665(3) 0.1645(2)
H38 H 0.121311 0.807750 0.151511
C49 C 0.0646(5) 0.6508(3) 0.1391(2)
H39 H 0.046686 0.610688 0.108835
C50 C 0.0666(5) 0.6479(3) 0.2009(2)
H40 H 0.049126 0.605713 0.212136
C51 C 0.1009(5) 0.7138(3) 0.05810(19)
H41 H 0.063967 0.750034 0.044089
H42 H 0.049601 0.671196 0.028078
C52 C 0.2478(5) 0.7279(2) 0.06018(18)
C53 C 0.3273(5) 0.7931(2) 0.07358(19)
H43 H 0.288025 0.829270 0.078988
C54 C 0.4628(5) 0.8058(2) 0.0791(2)
H44 H 0.516790 0.850593 0.088944
C55 C 0.5206(5) 0.7533(2) 0.07031(17)
C56 C 0.4408(5) 0.6874(2) 0.05493(18)
H45 H 0.479412 0.651235 0.047976
C57 C 0.3049(5) 0.6752(2) 0.04993(18)
H46 H 0.250210 0.630473 0.039403
C58 C 0.6706(5) 0.7672(2) 0.08144(19)
H47 H 0.691892 0.731018 0.055189
H48 H 0.706153 0.809908 0.070054
C59 C 0.448(3) 0.6691(9) 0.4387(10)
C60 C 0.4391(12) 0.6201(8) 0.4745(7)
H49 H 0.411030 0.574658 0.452674
C61 C 0.4672(16) 0.6324(10) 0.5387(8)
H50 H 0.461342 0.595418 0.558455
C62 C 0.503(2) 0.6958(8) 0.5756(9)
H51 H 0.507944 0.704755 0.618841
C63 C 0.535(2) 0.7496(9) 0.5399(9)
C64 C 0.5845(19) 0.8162(9) 0.5777(9)
H52 H 0.602039 0.825507 0.621979
C65 C 0.6045(19) 0.8653(8) 0.5447(13)
H53 H 0.639891 0.910128 0.567959
C66 C 0.577(2) 0.8548(8) 0.4800(11)
H54 H 0.592263 0.892008 0.460809
C67 C 0.5304(18) 0.7934(8) 0.4447(9)
C68 C 0.5063(15) 0.7810(8) 0.3743(9)
C69 C 0.5146(14) 0.8282(8) 0.3408(9)
H55 H 0.537018 0.873506 0.362437
C70 C 0.4922(14) 0.8148(10) 0.2751(10)
H56 H 0.505575 0.850798 0.254305
C71 C 0.4492(13) 0.7470(9) 0.2396(9)
H57 H 0.431584 0.735702 0.195401
C72 C 0.4357(12) 0.6996(9) 0.2759(9)
C73 C 0.3882(13) 0.6359(9) 0.2406(6)
H58 H 0.372368 0.626994 0.196484
C74 C 0.3636(13) 0.5839(8) 0.2724(6)
H59 H 0.333790 0.538854 0.249509
C75 C 0.3820(13) 0.5971(6) 0.3365(5)
H60 H 0.356904 0.560612 0.355353
C76 C 0.4324(13) 0.6576(6) 0.3730(6)
C77 C 0.4576(12) 0.7125(7) 0.3408(7)
C78 C 0.5059(16) 0.7382(8) 0.4734(7)
C79 C -0.0665(9) 0.4970(4) 0.3275(3)
H61 H -0.109455 0.498462 0.285845
C80 C 0.0534(9) 0.4835(5) 0.3396(4)
H62 H 0.095951 0.476636 0.307426
C81 C 0.1130(8) 0.4799(4) 0.3995(3)
H63 H 0.198062 0.470526 0.407526
C82 C 0.0590(6) 0.4889(3) 0.4487(3)
C83 C 0.1297(6) 0.4855(3) 0.5133(3)
C84 C 0.2533(7) 0.4733(4) 0.5280(4)
H64 H 0.297728 0.467039 0.496464
C85 C 0.3161(8) 0.4698(5) 0.5907(4)
H65 H 0.401682 0.460931 0.599737
C86 C 0.2583(8) 0.4785(4) 0.6369(4)
H66 H 0.302773 0.476353 0.678165
C87 C 0.1331(7) 0.4906(4) 0.6240(3)
C88 C 0.0673(6) 0.4957(3) 0.5616(3)
C79A C 0.0665(9) 0.5030(4) 0.6725(3)
H61A H 0.109455 0.501538 0.714155
C80A C -0.0534(9) 0.5165(5) 0.6604(4)
H62A H -0.095951 0.523364 0.692574
C81A C -0.1130(8) 0.5201(4) 0.6005(3)
H63A H -0.198062 0.529474 0.592474
C82A C -0.0590(6) 0.5111(3) 0.5513(3)
C83A C -0.1297(6) 0.5145(3) 0.4867(3)
C84A C -0.2533(7) 0.5267(4) 0.4720(4)
H64A H -0.297728 0.532961 0.503536
C85A C -0.3161(8) 0.5302(5) 0.4093(4)
H65A H -0.401682 0.539069 0.400263
C86A C -0.2583(8) 0.5215(4) 0.3631(4)
H66A H -0.302773 0.523647 0.321835
C87A C -0.1331(7) 0.5094(4) 0.3760(3)
C88A C -0.0673(6) 0.5043(3) 0.4384(3)
P1 P 0.0050(4) 0.4229(2) 0.11532(17)
F1 F 0.0657(6) 0.5007(2) 0.1406(2)
F2 F -0.0577(4) 0.34296(19) 0.08668(17)
F3 F -0.1435(4) 0.4280(2) 0.1083(2)
F4 F 0.0207(6) 0.4096(2) 0.18402(15)
F5 F 0.1516(5) 0.4131(3) 0.1187(2)
F6 F -0.0092(5) 0.4341(3) 0.04465(19)
P2 P 0.60950(13) 0.51564(7) 0.15943(7)
F7 F 0.7580(3) 0.55612(17) 0.16603(17)
F8 F 0.4609(4) 0.4756(2) 0.1535(2)
F9 F 0.6633(3) 0.46248(16) 0.19417(16)
F10 F 0.6213(5) 0.5599(2) 0.2261(2)
F11 F 0.5553(4) 0.57069(19) 0.1273(2)
F12 F 0.5976(4) 0.47231(19) 0.09381(17)
P3 P 0.3446(6) 0.9892(2) 0.7901(3)
F13 F 0.4921(15) 1.0402(8) 0.8002(7)
F14 F 0.2163(13) 0.9420(6) 0.7851(8)
F15 F 0.4324(16) 0.9474(7) 0.8301(6)
F16 F 0.3381(11) 1.0351(4) 0.8537(5)
F17 F 0.2996(14) 1.0403(6) 0.7513(6)
F18 F 0.3602(16) 0.9477(9) 0.7307(5)
P4 P 0.97133(14) 1.06861(7) 0.89621(7)
F19 F 1.0334(4) 1.14816(19) 0.92116(18)
F20 F 0.9116(6) 0.9919(2) 0.8768(3)
F21 F 1.1262(5) 1.0684(3) 0.9053(2)
F22 F 0.9894(4) 1.0622(2) 0.96772(17)
F23 F 0.8282(4) 1.0793(2) 0.8911(2)
F24 F 0.9586(5) 1.0816(3) 0.82746(18)
N5 N -0.2164(5) 0.6356(2) 0.03819(19)
C89 C -0.2445(5) 0.5801(3) 0.0152(2)
C90 C -0.2740(6) 0.5098(3) -0.0112(3)
H67 H -0.371596 0.490626 -0.026392
H68 H -0.235841 0.487314 0.020850
H69 H -0.234676 0.503490 -0.046179
N6 N 0.6622(8) 0.5781(4) 0.6581(3)
C91 C 0.6217(9) 0.5931(4) 0.6984(4)
C92 C 0.5751(13) 0.6116(6) 0.7489(6)
H70 H 0.476666 0.597682 0.736145
H71 H 0.606529 0.660240 0.763940
H72 H 0.609182 0.589959 0.782565
N7 N 0.5935(8) 0.7771(6) 0.7591(4)
C93 C 0.6158(8) 0.8347(7) 0.7647(4)
C94 C 0.6510(13) 0.9074(7) 0.7623(7)
H73 H 0.594236 0.913707 0.723707
H74 H 0.745663 0.922147 0.763142
H75 H 0.636034 0.933855 0.798524
N8 N 1.2496(5) 0.8732(2) 0.9517(2)
C95 C 1.2766(5) 0.9279(3) 0.9769(3)
C96 C 1.3110(7) 0.9980(3) 1.0086(4)
H76 H 1.343643 1.026323 0.981769
H77 H 1.381339 1.006013 1.048050
H78 H 1.231097 1.008644 1.017345
C97? C 0.0859(17) 0.6613(6) 0.3374(5)
H79? H 0.052235 0.619352 0.308410
C98? C 0.1169(11) 0.7149(6) 0.3161(5)
C99? C 0.1664(15) 0.7770(7) 0.3598(5)
H80? H 0.186375 0.817725 0.346210
C100? C 0.1855(14) 0.7770(7) 0.4238(5)
H81? H 0.220904 0.818598 0.453206
C101? C 0.1564(9) 0.7221(6) 0.4445(5)
C102? C 0.0997(17) 0.6621(6) 0.4017(5)
H82? H 0.070457 0.621989 0.415005
C103? C 0.1724(10) 0.7224(6) 0.5140(5)
C104? C 0.1451(18) 0.6698(6) 0.5356(6)
H83? H 0.112002 0.627873 0.506672
C105? C 0.1609(18) 0.6700(7) 0.5992(5)
H84? H 0.134327 0.629346 0.612078
C106? C 0.2157(15) 0.7300(7) 0.6434(6)
C107? C 0.2466(17) 0.7830(7) 0.6213(5)
H85? H 0.285651 0.824976 0.650011
C108? C 0.2251(16) 0.7815(7) 0.5566(5)
H86? H 0.247621 0.821963 0.542899
C109? C 0.9284(13) 0.8075(7) 0.6825(5)
H87? H 0.955213 0.851995 0.677203
C110? C 0.8880(11) 0.7555(7) 0.6343(5)
H88? H 0.866932 0.712707 0.643984
C111? C 0.8976(13) 0.8153(8) 0.5471(5)
H89? H 0.928817 0.857413 0.575677
C112? C 0.8720(12) 0.7562(7) 0.5686(5)
C113? C 0.8340(11) 0.6971(6) 0.5255(5)
H90? H 0.815501 0.656475 0.539418
C114? C 0.8214(12) 0.6939(6) 0.4636(5)
H91? H 0.801507 0.651834 0.435833
C115? C 0.8378(11) 0.7525(9) 0.4407(6)
C116? C 0.8764(13) 0.8114(8) 0.4818(5)
H92? H 0.889800 0.851618 0.466920
C117? C 0.8180(13) 0.7404(8) 0.3724(5)
H93? H 0.790142 0.695715 0.348769
C118? C 0.8382(16) 0.7903(7) 0.3434(5)
H94? H 0.876855 0.835060 0.366632
C119? C 0.472(4) 0.6783(17) 0.4415(14)
C120? C 0.438(6) 0.619(3) 0.462(2)
H95? H 0.408725 0.577524 0.432767
C121? C 0.447(7) 0.621(2) 0.530(2)
H96? H 0.406041 0.584785 0.544904
C122? C 0.521(6) 0.681(2) 0.5666(19)
H97? H 0.575710 0.680380 0.606497
C123? C 0.526(3) 0.7427(18) 0.5526(12)
C124? C 0.572(3) 0.8017(14) 0.5919(10)
H98? H 0.584178 0.804087 0.635491
C125? C 0.601(2) 0.8597(14) 0.5704(9)
H99? H 0.636016 0.901310 0.599750
C126? C 0.5792(18) 0.8592(11) 0.5061(11)
H100? H 0.594817 0.899716 0.491830
C127? C 0.535(3) 0.7981(14) 0.4645(9)
C128? C 0.510(2) 0.7921(13) 0.3963(10)
C129? C 0.531(2) 0.8531(14) 0.3678(10)
H101? H 0.558545 0.896900 0.393369
C130? C 0.509(2) 0.8435(16) 0.3028(11)
H102? H 0.519253 0.882361 0.285729
C131? C 0.474(2) 0.782(2) 0.2608(10)
H103? H 0.466266 0.776225 0.217270
C132? C 0.454(3) 0.7319(17) 0.2897(7)
C133? C 0.412(2) 0.6740(14) 0.2427(11)
H104? H 0.403030 0.674908 0.199901
C134? C 0.383(3) 0.6146(15) 0.2636(11)
H105? H 0.341541 0.573124 0.234418
C135? C 0.416(3) 0.6168(14) 0.3278(10)
H106? H 0.413801 0.576252 0.341830
C136? C 0.451(3) 0.6766(11) 0.3719(13)
C137? C 0.473(2) 0.7380(15) 0.3540(8)
C138? C 0.504(4) 0.7386(18) 0.4877(12)
C139? C 0.6865(18) 1.0377(12) 0.4208(8)
H107? H 0.615207 1.047418 0.392567
C140? C 0.6885(16) 1.0420(11) 0.4842(7)
H108? H 0.612579 1.049611 0.496447
C141? C 0.7979(15) 1.0355(11) 0.5300(6)
C142? C 0.7986(17) 1.0391(12) 0.5927(7)
H109? H 0.726009 1.049646 0.606151
C143? C 0.9065(18) 1.0273(12) 0.6362(8)
H110? H 0.906124 1.028916 0.678507
C144? C 1.0148(19) 1.0129(11) 0.6154(7)
H111? H 1.090058 1.006684 0.644142
C145? C 1.0100(14) 1.0079(10) 0.5519(6)
C146? C 1.1197(14) 0.9917(9) 0.5332(6)
C147? C 1.2295(16) 0.9800(11) 0.5748(7)
H112? H 1.230999 0.982218 0.617357
C148? C 1.3373(16) 0.9650(12) 0.5544(8)
H113? H 1.412692 0.959929 0.583845
C149? C 1.3346(17) 0.9575(12) 0.4911(7)
H114? H 1.408386 0.947393 0.478423
C150? C 1.2252(14) 0.9646(10) 0.4460(7)
C151? C 1.2192(19) 0.9596(10) 0.3822(7)
H115? H 1.286158 0.945726 0.366152
C152? C 1.1119(16) 0.9755(10) 0.3427(9)
H116? H 1.108669 0.974317 0.300063
C153? C 1.0096(16) 0.9930(10) 0.3658(6)
H117? H 0.936229 1.002147 0.338328
C154? C 1.0151(13) 0.9971(9) 0.4298(6)
C155? C 0.9023(13) 1.0132(10) 0.4446(6)
C156? C 0.7900(15) 1.0189(11) 0.3994(7)
H118? H 0.784559 1.010397 0.356054
C157? C 0.9004(14) 1.0165(10) 0.5074(6)
C158? C 1.1233(15) 0.9827(10) 0.4702(5)
P5? P 0.0406(17) 0.4370(12) 0.1255(11)
F25? F 0.143(2) 0.5019(11) 0.1348(11)
F26? F -0.073(2) 0.3617(14) 0.1116(15)
F27? F 0.106(2) 0.4158(12) 0.1903(11)
F28? F -0.059(2) 0.4698(11) 0.1632(13)
F29? F -0.038(3) 0.4465(16) 0.0605(15)
F30? F 0.118(3) 0.3977(14) 0.0933(14)
P6? P 0.3781(5) 0.98870(19) 0.8246(5)
F31? F 0.5144(15) 1.0304(8) 0.8258(10)
F32? F 0.2477(10) 0.9369(5) 0.8238(7)
F33? F 0.4505(12) 0.9372(6) 0.8545(8)
F34? F 0.3937(14) 1.0307(5) 0.8900(7)
F35? F 0.3076(13) 1.0393(5) 0.7977(8)
F36? F 0.353(2) 0.9401(10) 0.7499(9)
loop_
_geom_bond_atom_site_label_1
_geom_bond_atom_site_label_2
_geom_bond_site_symmetry_1
_geom_bond_site_symmetry_2
N1 C1 1_555 1_555
N2 C20 1_555 1_555
N3 C30 1_555 1_555
N4 C48 1_555 1_555
C1 H1 1_555 1_555
C2 C1 1_555 1_555
H2 C2 1_555 1_555
C3 C2 1_555 1_555
C4 C3 1_555 1_555
H3 C4 1_555 1_555
C5 N1 1_555 1_555
H4 C5 1_555 1_555
C6 C3 1_555 1_555
C7 C6 1_555 1_555
H5 C7 1_555 1_555
C8 C7 1_555 1_555
H6 C8 1_555 1_555
C9 C8 1_555 1_555
C10 C9 1_555 1_555
H7 C10 1_555 1_555
C11 C6 1_555 1_555
H8 C11 1_555 1_555
C12 C9 1_555 1_555
C13 C12 1_555 1_555
H9 C13 1_555 1_555
C14 C13 1_555 1_555
H10 C14 1_555 1_555
C15 C14 1_555 1_555
C16 C15 1_555 1_555
H11 C16 1_555 1_555
C17 C12 1_555 1_555
H12 C17 1_555 1_555
C18 C15 1_555 1_555
C19 C18 1_555 1_555
H13 C19 1_555 1_555
C20 C19 1_555 1_555
H14 C20 1_555 1_555
C21 N2 1_555 1_555
H15 C21 1_555 1_555
C22 C18 1_555 1_555
H16 C22 1_555 1_555
C23 N2 1_555 1_555
H17 C23 1_555 1_555
H18 C23 1_555 1_555
C24 C23 1_555 1_555
C25 C24 1_555 1_555
H19 C25 1_555 1_555
C26 C25 1_555 1_555
H20 C26 1_555 1_555
C27 C26 1_555 1_555
C28 C27 1_555 1_555
H21 C28 1_555 1_555
C29 C24 1_555 1_555
H22 C29 1_555 1_555
C30 C27 1_555 1_555
H23 C30 1_555 1_555
H24 C30 1_555 1_555
C31 N3 1_555 1_555
H25 C31 1_555 1_555
C32 C31 1_555 1_555
H26 C32 1_555 1_555
C33 C32 1_555 1_555
C34 C33 1_555 1_555
H27 C34 1_555 1_555
C35 N3 1_555 1_555
H28 C35 1_555 1_555
C36 C33 1_555 1_555
H29 C36 1_555 1_555
C37 C36 1_555 1_555
H30 C37 1_555 1_555
C38 C39 1_555 1_555
C39 H31 1_555 1_555
C40 C39 1_555 1_555
H32 C40 1_555 1_555
C41 C37 1_555 1_555
C42 C41 1_555 1_555
H33 C42 1_555 1_555
C43 C38 1_555 1_555
H34 C43 1_555 1_555
C44 C38 1_555 1_555
H35 C44 1_555 1_555
C45 C44 1_555 1_555
H36 C45 1_555 1_555
C46 C45 1_555 1_555
C47 C46 1_555 1_555
H37 C47 1_555 1_555
C48 C47 1_555 1_555
H38 C48 1_555 1_555
C49 N4 1_555 1_555
H39 C49 1_555 1_555
C50 C46 1_555 1_555
H40 C50 1_555 1_555
C51 N4 1_555 1_555
H41 C51 1_555 1_555
H42 C51 1_555 1_555
C52 C51 1_555 1_555
C53 C52 1_555 1_555
H43 C53 1_555 1_555
C54 C53 1_555 1_555
H44 C54 1_555 1_555
C55 C54 1_555 1_555
C56 C55 1_555 1_555
H45 C56 1_555 1_555
C57 C52 1_555 1_555
H46 C57 1_555 1_555
C58 N1 1_555 1_555
H47 C58 1_555 1_555
H48 C58 1_555 1_555
C59 C60 1_555 1_555
C60 H49 1_555 1_555
C61 C60 1_555 1_555
H50 C61 1_555 1_555
C62 C61 1_555 1_555
H51 C62 1_555 1_555
C63 C62 1_555 1_555
C64 C63 1_555 1_555
H52 C64 1_555 1_555
C65 C64 1_555 1_555
H53 C65 1_555 1_555
C66 C65 1_555 1_555
H54 C66 1_555 1_555
C67 C66 1_555 1_555
C68 C67 1_555 1_555
C69 C68 1_555 1_555
H55 C69 1_555 1_555
C70 C69 1_555 1_555
H56 C70 1_555 1_555
C71 C70 1_555 1_555
H57 C71 1_555 1_555
C72 C71 1_555 1_555
C73 C72 1_555 1_555
H58 C73 1_555 1_555
C74 C73 1_555 1_555
H59 C74 1_555 1_555
C75 C74 1_555 1_555
H60 C75 1_555 1_555
C76 C59 1_555 1_555
C77 C68 1_555 1_555
C78 C59 1_555 1_555
C79 H61 1_555 1_555
C80 C79 1_555 1_555
H62 C80 1_555 1_555
C81 C80 1_555 1_555
H63 C81 1_555 1_555
C82 C81 1_555 1_555
C83 C82 1_555 1_555
C84 C83 1_555 1_555
H64 C84 1_555 1_555
C85 C84 1_555 1_555
H65 C85 1_555 1_555
C86 C85 1_555 1_555
H66 C86 1_555 1_555
C87 C86 1_555 1_555
C88 C83 1_555 1_555
P1 F1 1_555 1_555
F2 P1 1_555 1_555
F3 P1 1_555 1_555
F4 P1 1_555 1_555
F5 P1 1_555 1_555
F6 P1 1_555 1_555
P2 F7 1_555 1_555
F8 P2 1_555 1_555
F9 P2 1_555 1_555
F10 P2 1_555 1_555
F11 P2 1_555 1_555
F12 P2 1_555 1_555
P3 F13 1_555 1_555
F14 P3 1_555 1_555
F15 P3 1_555 1_555
F16 P3 1_555 1_555
F17 P3 1_555 1_555
F18 P3 1_555 1_555
P4 F19 1_555 1_555
F20 P4 1_555 1_555
F21 P4 1_555 1_555
F22 P4 1_555 1_555
F23 P4 1_555 1_555
F24 P4 1_555 1_555
N5 C89 1_555 1_555
C89 C90 1_555 1_555
C90 H67 1_555 1_555
H68 C90 1_555 1_555
H69 C90 1_555 1_555
N6 C91 1_555 1_555
C91 C92 1_555 1_555
C92 H70 1_555 1_555
H71 C92 1_555 1_555
H72 C92 1_555 1_555
N7 C93 1_555 1_555
C93 C94 1_555 1_555
C94 H73 1_555 1_555
H74 C94 1_555 1_555
H75 C94 1_555 1_555
N8 C95 1_555 1_555
C95 C96 1_555 1_555
C96 H76 1_555 1_555
H77 C96 1_555 1_555
H78 C96 1_555 1_555
C79A C87 1_555 1_555
H61A C79A 1_555 1_555
C80A C79A 1_555 1_555
H62A C80A 1_555 1_555
C81A C80A 1_555 1_555
H63A C81A 1_555 1_555
C82A C88 1_555 1_555
C83A C82A 1_555 1_555
C84A C83A 1_555 1_555
H64A C84A 1_555 1_555
C85A C84A 1_555 1_555
H65A C85A 1_555 1_555
C86A C85A 1_555 1_555
H66A C86A 1_555 1_555
C87A C79 1_555 1_555
C88A C82 1_555 1_555
C4 C5 1_555 1_555
C10 C11 1_555 1_555
C16 C17 1_555 1_555
C21 C22 1_555 1_555
C28 C29 1_555 1_555
C34 C35 1_555 1_555
C40 C41 1_555 1_555
C42 C43 1_555 1_555
C49 C50 1_555 1_555
C55 C58 1_555 1_555
C56 C57 1_555 1_555
C63 C78 1_555 1_555
C67 C78 1_555 1_555
C72 C77 1_555 1_555
C75 C76 1_555 1_555
C76 C77 1_555 1_555
C87 C88 1_555 1_555
C81A C82A 1_555 1_555
C83A C88A 1_555 1_555
C86A C87A 1_555 1_555
C87A C88A 1_555 1_555

#END
