
#######################################################################
#
#                 Cambridge Crystallographic Data Centre
#                                CCDC 
#
#######################################################################
#
# If this CIF has been generated from an entry in the Cambridge 
# Structural Database, then it will include bibliographic, chemical, 
# crystal, experimental, refinement or atomic coordinate data resulting 
# from the CCDC's data processing and validation procedures.
#
#######################################################################

data_SIRGOQ
_chemical_formula_moiety         'C36 H22 O24 S12 2-,H20 Na2 O10 2+,16(H2 O1)'
_chemical_name_systematic        
'bis(\m~2~-Aqua)-octa-aqua-di-sodium 5,11,17,23,29,35-hexasulfonato-37,38,39,40,41,42-hexahydroxycalix(6)arene hexadecahydrate'
_symmetry_cell_setting           monoclinic
_symmetry_space_group_name_H-M   'C 2/c'
_symmetry_Int_Tables_number      15
_space_group_name_Hall           '-C 2yn'
loop_
_symmetry_equiv_pos_site_id
_symmetry_equiv_pos_as_xyz
1 x,y,z
2 1/2+x,1/2+y,z
3 -x,y,1/2-z
4 1/2-x,1/2+y,1/2-z
5 -x,-y,-z
6 1/2-x,1/2-y,-z
7 x,-y,1/2+z
8 1/2+x,1/2-y,1/2+z
_cell_length_a                   27.7660(14)
_cell_length_b                   11.5247(6)
_cell_length_c                   21.2342(10)
_cell_angle_alpha                90
_cell_angle_beta                 94.895(2)
_cell_angle_gamma                90
_cell_volume                     6770.05
_exptl_crystal_colour            brown
_exptl_crystal_description       block
_cell_formula_units_Z            4
loop_
_atom_site_label
_atom_site_type_symbol
_atom_site_fract_x
_atom_site_fract_y
_atom_site_fract_z
S1 S 0.74802(5) 0.35677(12) 0.76495(6)
S2 S 0.73116(5) 0.71630(12) 0.59491(6)
S3 S 0.68255(6) 0.33208(13) 0.44630(8)
S4 S 0.58003(6) 0.60664(15) 0.73471(8)
S5 S 0.61181(5) 0.76156(13) 0.37924(7)
S6 S 0.86388(7) 0.44708(18) 0.38257(11)
O1 O 0.78182(15) 0.5315(3) 0.6784(2)
O4 O 0.73225(19) 0.4643(4) 0.5554(2)
O6 O 0.67965(15) 0.1967(4) 0.3317(2)
O7 O 0.5721(2) 0.7949(8) 0.4131(3)
O8 O 0.6408(2) 0.8596(6) 0.3670(4)
O10 O 0.5657(2) 0.7165(7) 0.7083(4)
O12 O 0.5836(3) 0.6161(7) 0.8032(4)
O13 O 0.5934(3) 0.6891(7) 0.3274(4)
O14 O 0.5520(4) 0.5029(13) 0.7154(5)
O15 O 0.8625(2) 0.5010(8) 0.4421(3)
O17 O 0.8995(2) 0.3620(8) 0.3771(6)
O18 O 0.8683(3) 0.5394(8) 0.3361(4)
C1 C 0.64791(19) 0.6716(4) 0.4316(2)
C2 C 0.6720(2) 0.7193(4) 0.4854(2)
C3 C 0.7001(2) 0.6494(4) 0.5278(2)
C4 C 0.7041(2) 0.5311(5) 0.5146(2)
C5 C 0.6793(2) 0.4834(4) 0.4606(2)
C6 C 0.6510(2) 0.5549(5) 0.4191(2)
C7 C 0.6398(2) 0.5840(4) 0.7151(2)
C8 C 0.6667(2) 0.4927(4) 0.7442(2)
C9 C 0.7143(2) 0.4756(4) 0.7298(2)
C10 C 0.7354(2) 0.5491(4) 0.6877(2)
C11 C 0.7068(2) 0.6354(4) 0.6561(2)
C12 C 0.6597(2) 0.6541(4) 0.6709(2)
C13 C 0.8080(2) 0.3768(5) 0.3644(3)
C14 C 0.7719(2) 0.3886(5) 0.4050(3)
C15 C 0.7289(2) 0.3278(5) 0.3932(2)
C16 C 0.72222(19) 0.2533(4) 0.3404(2)
C17 C 0.74074(19) 0.2590(4) 0.6997(2)
C18 C 0.8019(2) 0.3032(5) 0.3122(2)
H1 H 0.6407 0.5243 0.3812
H2 H 0.6682 0.8038 0.4975
H3 H 0.6471 0.7182 0.6522
H4 H 0.6492 0.4389 0.7649
H5 H 0.7763 0.4399 0.4401
H6 H 0.8295 0.2868 0.2964
H7 H 0.6853 0.1631 0.3096
H8 H 0.7899 0.5844 0.6501
H9 H 0.7293 0.4065 0.5400
S1E S 0.75198(5) 0.14323(12) 0.23505(6)
S2E S 0.76884(5) -0.21630(12) 0.40509(6)
S3E S 0.81745(6) 0.16792(13) 0.55370(8)
S4E S 0.91997(6) -0.10664(15) 0.26529(8)
S5E S 0.88819(5) -0.26156(13) 0.62076(7)
S6E S 0.63612(7) 0.05292(18) 0.61743(11)
O1E O 0.71818(15) -0.0315(3) 0.3216(2)
O4E O 0.76775(19) 0.0357(4) 0.4446(2)
O6E O 0.82035(15) 0.3033(4) 0.6683(2)
O7E O 0.9279(2) -0.2949(8) 0.5869(3)
O8E O 0.8592(2) -0.3596(6) 0.6330(4)
O10E O 0.9343(2) -0.2165(7) 0.2917(4)
O12E O 0.9164(3) -0.1161(7) 0.1968(4)
O13E O 0.9066(3) -0.1891(7) 0.6726(4)
O14E O 0.9480(4) -0.0029(13) 0.2846(5)
O15E O 0.6375(2) -0.0010(8) 0.5579(3)
O17E O 0.6005(2) 0.1380(8) 0.6229(6)
O18E O 0.6317(3) -0.0394(8) 0.6639(4)
C1E C 0.85209(19) -0.1716(4) 0.5684(2)
C2E C 0.8280(2) -0.2193(4) 0.5146(2)
C3E C 0.7999(2) -0.1494(4) 0.4722(2)
C4E C 0.7959(2) -0.0311(5) 0.4854(2)
C5E C 0.8207(2) 0.0166(4) 0.5394(2)
C6E C 0.8490(2) -0.0549(5) 0.5809(2)
C7E C 0.8602(2) -0.0840(4) 0.2849(2)
C8E C 0.8333(2) 0.0073(4) 0.2558(2)
C9E C 0.7857(2) 0.0244(4) 0.2702(2)
C10E C 0.7646(2) -0.0491(4) 0.3123(2)
C11E C 0.7932(2) -0.1354(4) 0.3439(2)
C12E C 0.8403(2) -0.1541(4) 0.3291(2)
C13E C 0.6920(2) 0.1232(5) 0.6356(3)
C14E C 0.7281(2) 0.1114(5) 0.5950(3)
C15E C 0.7711(2) 0.1722(5) 0.6068(2)
C16E C 0.77778(19) 0.2467(4) 0.6596(2)
C17E C 0.75926(19) 0.2410(4) 0.3003(2)
C18E C 0.6981(2) 0.1968(5) 0.6878(2)
H1E H 0.8593 -0.0243 0.6188
H2E H 0.8318 -0.3038 0.5025
H3E H 0.8529 -0.2182 0.3478
H4E H 0.8508 0.0611 0.2351
H5E H 0.7237 0.0601 0.5599
H6E H 0.6705 0.2132 0.7036
H7E H 0.8147 0.3369 0.6904
H8E H 0.7101 -0.0844 0.3499
H9E H 0.7707 0.0935 0.4600
Na1 Na 0.48789(10) 0.8840(2) 0.55411(14)
O3 O 0.5687(2) 0.8092(5) 0.5599(3)
O5 O 0.51017(17) 1.0884(4) 0.5582(2)
O9 O 0.4901(2) 0.8567(5) 0.6648(2)
O11 O 0.40392(18) 0.9346(4) 0.5647(2)
O16 O 0.4452(3) 0.6968(6) 0.5476(5)
Na1D Na 0.51211(10) 1.1160(2) 0.44589(14)
O3D O 0.4313(2) 1.1908(5) 0.4401(3)
O5D O 0.48983(17) 0.9116(4) 0.4418(2)
O9D O 0.5099(2) 1.1433(5) 0.3352(2)
O11D O 0.59608(18) 1.0654(4) 0.4353(2)
O16D O 0.5548(3) 1.3032(6) 0.4524(5)
O2 O 0.59334(12) 0.2041(3) 0.3521(2)
O19 O 0.5000 1.0495(13) 0.7500
O20 O 0.47789(19) 0.4260(6) 0.6817(2)
O21 O 0.4813(3) 0.4754(9) 0.5795(4)
O22 O 0.5652(2) 0.5702(6) 0.5405(4)
O23 O 0.6049(2) 0.0361(6) 0.2834(3)
O24 O 0.6180(6) 0.3681(12) 0.5766(8)
O25 O 0.5367(6) 1.2569(17) 0.7107(7)
O26? O 0.5745(16) 0.565(7) 0.796(2)
O27? O 0.5516(14) 0.543(4) 0.6875(19)
O28? O 0.4893(7) 0.371(2) 0.5599(10)
O29? O 0.6151(12) 0.718(2) 0.3145(14)
loop_
_geom_bond_atom_site_label_1
_geom_bond_atom_site_label_2
_geom_bond_site_symmetry_1
_geom_bond_site_symmetry_2
S1 C9 1_555 1_555
S2 C3 1_555 1_555
S3 C5 1_555 1_555
S4 O10 1_555 1_555
S5 O7 1_555 1_555
S6 O15 1_555 1_555
Na1 O3 1_555 1_555
O1 C10 1_555 1_555
O4 C4 1_555 1_555
O5 Na1 1_555 1_555
O6 C16 1_555 1_555
O8 S5 1_555 1_555
O9 Na1 1_555 1_555
O11 Na1 1_555 1_555
O12 S4 1_555 1_555
O13 S5 1_555 1_555
O14 S4 1_555 1_555
O16 Na1 1_555 1_555
O17 S6 1_555 1_555
O18 S6 1_555 1_555
C1 S5 1_555 1_555
C2 C1 1_555 1_555
C3 C2 1_555 1_555
C4 C3 1_555 1_555
C5 C4 1_555 1_555
C6 C1 1_555 1_555
C7 S4 1_555 1_555
C8 C7 1_555 1_555
C9 C8 1_555 1_555
C10 C9 1_555 1_555
C11 S2 1_555 1_555
C12 C7 1_555 1_555
C13 S6 1_555 1_555
C14 C13 1_555 1_555
C15 S3 1_555 1_555
C16 C15 1_555 1_555
C17 S1 1_555 1_555
C18 C13 1_555 1_555
H1 C6 1_555 1_555
H2 C2 1_555 1_555
H3 C12 1_555 1_555
H4 C8 1_555 1_555
H5 C14 1_555 1_555
H6 C18 1_555 1_555
H7 O6 1_555 1_555
H8 O1 1_555 1_555
H9 O4 1_555 1_555
S1E C9E 1_555 1_555
S2E C3E 1_555 1_555
S3E C5E 1_555 1_555
S4E O10E 1_555 1_555
S5E O7E 1_555 1_555
S6E O15E 1_555 1_555
Na1D O5 1_555 1_555
O1E C10E 1_555 1_555
O3D Na1D 1_555 1_555
O4E C4E 1_555 1_555
O5D Na1 1_555 1_555
O6E C16E 1_555 1_555
O8E S5E 1_555 1_555
O9D Na1D 1_555 1_555
O11D Na1D 1_555 1_555
O12E S4E 1_555 1_555
O13E S5E 1_555 1_555
O14E S4E 1_555 1_555
O16D Na1D 1_555 1_555
O17E S6E 1_555 1_555
O18E S6E 1_555 1_555
C1E S5E 1_555 1_555
C2E C1E 1_555 1_555
C3E C2E 1_555 1_555
C4E C3E 1_555 1_555
C5E C4E 1_555 1_555
C6E C1E 1_555 1_555
C7E S4E 1_555 1_555
C8E C7E 1_555 1_555
C9E C8E 1_555 1_555
C10E C9E 1_555 1_555
C11E S2E 1_555 1_555
C12E C7E 1_555 1_555
C13E S6E 1_555 1_555
C14E C13E 1_555 1_555
C15E S3E 1_555 1_555
C16E C17 1_555 1_555
C17E C16 1_555 1_555
C18E C17 1_555 1_555
H1E C6E 1_555 1_555
H2E C2E 1_555 1_555
H3E C12E 1_555 1_555
H4E C8E 1_555 1_555
H5E C14E 1_555 1_555
H6E C18E 1_555 1_555
H7E O6E 1_555 1_555
H8E O1E 1_555 1_555
H9E O4E 1_555 1_555
C5 C6 1_555 1_555
C10 C11 1_555 1_555
C11 C12 1_555 1_555
C14 C15 1_555 1_555
C18 C17E 1_555 1_555
S1E C17E 1_555 1_555
Na1D O5D 1_555 1_555
C5E C6E 1_555 1_555
C10E C11E 1_555 1_555
C11E C12E 1_555 1_555
C13E C18E 1_555 1_555
C14E C15E 1_555 1_555
C15E C16E 1_555 1_555

#END
