
#######################################################################
#
#                 Cambridge Crystallographic Data Centre
#                                CCDC 
#
#######################################################################
#
# If this CIF has been generated from an entry in the Cambridge 
# Structural Database, then it will include bibliographic, chemical, 
# crystal, experimental, refinement or atomic coordinate data resulting 
# from the CCDC's data processing and validation procedures.
#
#######################################################################

data_SIRKUA
_chemical_formula_moiety         'C8 H12 N1 1+,C11 H19 O3 1-'
_chemical_name_systematic        
'1-Phenylethylammonium 2-hydroxy-2-methyl-3-(propenyl)heptanoate'
_symmetry_cell_setting           monoclinic
_symmetry_space_group_name_H-M   'P 21'
_symmetry_Int_Tables_number      4
_space_group_name_Hall           'P 2yb'
loop_
_symmetry_equiv_pos_site_id
_symmetry_equiv_pos_as_xyz
1 x,y,z
2 -x,1/2+y,-z
_cell_length_a                   17.558(3)
_cell_length_b                   5.4049(9)
_cell_length_c                   20.711(3)
_cell_angle_alpha                90
_cell_angle_beta                 92.475(3)
_cell_angle_gamma                90
_cell_volume                     1963.62
_exptl_crystal_colour            colorless
_exptl_crystal_description       needle
_cell_formula_units_Z            4
loop_
_atom_site_label
_atom_site_type_symbol
_atom_site_fract_x
_atom_site_fract_y
_atom_site_fract_z
O1 O 0.13429(12) 0.9490(5) 0.05264(13)
O2 O 0.08872(13) 0.5696(5) 0.04249(11)
O3 O 0.22758(18) 0.3699(6) 0.0360(2)
H1 H 0.197(3) 0.280(11) 0.056(2)
C1 C 0.14297(17) 0.7213(7) 0.05048(15)
C2 C 0.2236(2) 0.6164(7) 0.06074(19)
C3 C 0.28063(17) 0.7673(7) 0.02192(17)
H5 H 0.2789 0.9424 0.0374
C4 C 0.2426(2) 0.6257(13) 0.1331(2)
H6 H 0.2052 0.5279 0.1559
H7 H 0.2411 0.7978 0.1480
H8 H 0.2937 0.5576 0.1421
C5 C 0.25891(18) 0.7671(8) -0.05048(16)
H9 H 0.2687 0.6004 -0.0681
H10 H 0.2035 0.7997 -0.0563
C6 C 0.3015(2) 0.9559(8) -0.08923(17)
H11 H 0.2932 1.1221 -0.0706
H12 H 0.3568 0.9197 -0.0847
C7 C 0.2780(2) 0.9619(9) -0.16045(18)
H13 H 0.2892 0.7988 -0.1796
H14 H 0.2222 0.9882 -0.1649
C8 C 0.3174(3) 1.1607(10) -0.1983(2)
H15 H 0.3004 1.1505 -0.2440
H16 H 0.3727 1.1365 -0.1943
H17 H 0.3045 1.3238 -0.1813
C9 C 0.36076(18) 0.6731(8) 0.03452(16)
H18 H 0.3706 0.5046 0.0248
C10 C 0.41818(18) 0.8080(8) 0.05808(18)
H19 H 0.4084 0.9774 0.0668
C11 C 0.4976(2) 0.7147(10) 0.0722(2)
H20 H 0.5338 0.8163 0.0491
H21 H 0.5013 0.5424 0.0579
H22 H 0.5097 0.7243 0.1188
N1 N -0.00030(14) 1.1643(5) 0.06879(12)
H2 H -0.0307 1.1401 0.0327
H3 H 0.0408 1.0622 0.0679
H4 H 0.0157 1.3244 0.0702
C12 C -0.04398(18) 1.1092(7) 0.12704(16)
H23 H -0.0843 1.2383 0.1311
C13 C 0.0104(2) 1.1229(7) 0.18647(16)
C14 C 0.0105(3) 1.3202(9) 0.2278(2)
H24 H -0.0250 1.4507 0.2203
C15 C 0.0626(3) 1.3328(11) 0.2815(2)
H25 H 0.0612 1.4695 0.3102
C16 C 0.1137(3) 1.1548(10) 0.2921(2)
H26 H 0.1478 1.1637 0.3288
C17 C 0.1175(3) 0.9617(11) 0.2514(2)
H27 H 0.1555 0.8385 0.2587
C18 C 0.0657(2) 0.9416(10) 0.1980(2)
H28 H 0.0683 0.8037 0.1698
C19 C -0.08262(19) 0.8580(7) 0.11794(17)
H29 H -0.1168 0.8622 0.0793
H30 H -0.1121 0.8203 0.1558
H31 H -0.0438 0.7300 0.1129
O4 O 0.36920(12) 0.8360(5) 0.45640(11)
O5 O 0.40184(12) 0.4387(4) 0.46299(11)
O6 O 0.26567(16) 0.2772(5) 0.42178(16)
H32 H 0.302(3) 0.210(13) 0.436(3)
C20 C 0.35469(18) 0.6104(7) 0.45064(15)
C21 C 0.27363(18) 0.5369(6) 0.42605(17)
C22 C 0.21659(17) 0.6429(7) 0.47354(16)
H36 H 0.2235 0.8265 0.4749
C23 C 0.25939(19) 0.6460(8) 0.35879(16)
H37 H 0.2989 0.5883 0.3304
H38 H 0.2608 0.8270 0.3614
H39 H 0.2093 0.5928 0.3413
C24 C 0.2323(2) 0.5433(11) 0.54258(19)
H40 H 0.2187 0.3656 0.5433
H41 H 0.2876 0.5565 0.5534
C25 C 0.1901(2) 0.6730(17) 0.5936(2)
H42 H 0.1347 0.6592 0.5831
H43 H 0.2035 0.8508 0.5930
C26 C 0.2064(3) 0.573(3) 0.6619(3)
H44 H 0.2152 0.3929 0.6575
H45 H 0.2555 0.6461 0.6775
C27 C 0.1623(4) 0.598(3) 0.7053(3)
H46 H 0.1857 0.5332 0.7457
H47 H 0.1151 0.5081 0.6945
H48 H 0.1509 0.7745 0.7107
C28 C 0.13521(18) 0.5913(8) 0.45250(18)
H49 H 0.1210 0.4230 0.4464
C29 C 0.0821(2) 0.7588(9) 0.44182(19)
H50 H 0.0969 0.9271 0.4465
C30 C -0.0002(2) 0.7078(13) 0.4227(2)
H51 H -0.0129 0.7852 0.3809
H52 H -0.0329 0.7764 0.4555
H53 H -0.0083 0.5288 0.4195
N2 N 0.50209(14) 1.0580(5) 0.43316(12)
H33 H 0.5342 1.0419 0.4686
H34 H 0.4614 0.9556 0.4369
H35 H 0.4856 1.2173 0.4300
C31 C 0.54313(19) 0.9915(7) 0.37424(16)
H54 H 0.5937 1.0765 0.3771
C32 C 0.50115(19) 1.0820(7) 0.31363(16)
C33 C 0.5429(3) 1.1399(8) 0.26081(17)
H55 H 0.5969 1.1274 0.2640
C34 C 0.5075(3) 1.2157(10) 0.2035(2)
H56 H 0.5368 1.2528 0.1671
C35 C 0.4289(3) 1.2369(11) 0.1995(2)
H57 H 0.4042 1.2909 0.1603
C36 C 0.3866(3) 1.1814(11) 0.2511(2)
H58 H 0.3327 1.1964 0.2479
C37 C 0.4229(2) 1.1021(9) 0.30888(18)
H59 H 0.3936 1.0621 0.3449
C38 C 0.5579(2) 0.7152(8) 0.37403(19)
H60 H 0.5894 0.6731 0.3377
H61 H 0.5093 0.6265 0.3696
H62 H 0.5846 0.6673 0.4146
loop_
_geom_bond_atom_site_label_1
_geom_bond_atom_site_label_2
_geom_bond_site_symmetry_1
_geom_bond_site_symmetry_2
O1 C1 1_555 1_555
O2 C1 1_555 1_555
O3 H1 1_555 1_555
N1 H2 1_555 1_555
H3 N1 1_555 1_555
H4 N1 1_555 1_555
C1 C2 1_555 1_555
C2 O3 1_555 1_555
C3 C2 1_555 1_555
H5 C3 1_555 1_555
C4 C2 1_555 1_555
H6 C4 1_555 1_555
H7 C4 1_555 1_555
H8 C4 1_555 1_555
C5 C3 1_555 1_555
H9 C5 1_555 1_555
H10 C5 1_555 1_555
C6 C5 1_555 1_555
H11 C6 1_555 1_555
H12 C6 1_555 1_555
C7 C6 1_555 1_555
H13 C7 1_555 1_555
H14 C7 1_555 1_555
C8 C7 1_555 1_555
H15 C8 1_555 1_555
H16 C8 1_555 1_555
H17 C8 1_555 1_555
C9 C3 1_555 1_555
H18 C9 1_555 1_555
C10 C9 1_555 1_555
H19 C10 1_555 1_555
C11 C10 1_555 1_555
H20 C11 1_555 1_555
H21 C11 1_555 1_555
H22 C11 1_555 1_555
C12 N1 1_555 1_555
H23 C12 1_555 1_555
C13 C12 1_555 1_555
C14 C13 1_555 1_555
H24 C14 1_555 1_555
C15 C14 1_555 1_555
H25 C15 1_555 1_555
C16 C15 1_555 1_555
H26 C16 1_555 1_555
C17 C16 1_555 1_555
H27 C17 1_555 1_555
C18 C13 1_555 1_555
H28 C18 1_555 1_555
C19 C12 1_555 1_555
H29 C19 1_555 1_555
H30 C19 1_555 1_555
H31 C19 1_555 1_555
O4 C20 1_555 1_555
O5 C20 1_555 1_555
O6 H32 1_555 1_555
N2 H33 1_555 1_555
H34 N2 1_555 1_555
H35 N2 1_555 1_555
C20 C21 1_555 1_555
C21 O6 1_555 1_555
C22 C21 1_555 1_555
H36 C22 1_555 1_555
C23 C21 1_555 1_555
H37 C23 1_555 1_555
H38 C23 1_555 1_555
H39 C23 1_555 1_555
C24 C22 1_555 1_555
H40 C24 1_555 1_555
H41 C24 1_555 1_555
C25 C24 1_555 1_555
H42 C25 1_555 1_555
H43 C25 1_555 1_555
C26 C25 1_555 1_555
H44 C26 1_555 1_555
H45 C26 1_555 1_555
C27 C26 1_555 1_555
H46 C27 1_555 1_555
H47 C27 1_555 1_555
H48 C27 1_555 1_555
C28 C22 1_555 1_555
H49 C28 1_555 1_555
C29 C28 1_555 1_555
H50 C29 1_555 1_555
C30 C29 1_555 1_555
H51 C30 1_555 1_555
H52 C30 1_555 1_555
H53 C30 1_555 1_555
C31 N2 1_555 1_555
H54 C31 1_555 1_555
C32 C31 1_555 1_555
C33 C32 1_555 1_555
H55 C33 1_555 1_555
C34 C33 1_555 1_555
H56 C34 1_555 1_555
C35 C34 1_555 1_555
H57 C35 1_555 1_555
C36 C35 1_555 1_555
H58 C36 1_555 1_555
C37 C32 1_555 1_555
H59 C37 1_555 1_555
C38 C31 1_555 1_555
H60 C38 1_555 1_555
H61 C38 1_555 1_555
H62 C38 1_555 1_555
C17 C18 1_555 1_555
C36 C37 1_555 1_555

#END
