
#######################################################################
#
#                 Cambridge Crystallographic Data Centre
#                                CCDC 
#
#######################################################################
#
# If this CIF has been generated from an entry in the Cambridge 
# Structural Database, then it will include bibliographic, chemical, 
# crystal, experimental, refinement or atomic coordinate data resulting 
# from the CCDC's data processing and validation procedures.
#
#######################################################################

data_SIRMUC
_chemical_formula_moiety         'C14 H16 Br1 N1 O3'
_chemical_name_systematic        
3-(3-Bromotetrahydro-2H-pyran-2-yl)-4-phenyl-1,3-oxazolidin-2-one
_symmetry_cell_setting           orthorhombic
_symmetry_space_group_name_H-M   'P 21 21 21'
_symmetry_Int_Tables_number      19
_space_group_name_Hall           'P 2ac 2ab'
loop_
_symmetry_equiv_pos_site_id
_symmetry_equiv_pos_as_xyz
1 x,y,z
2 1/2-x,-y,1/2+z
3 1/2+x,1/2-y,-z
4 -x,1/2+y,1/2-z
_cell_length_a                   7.1777(3)
_cell_length_b                   10.2206(5)
_cell_length_c                   18.6229(9)
_cell_angle_alpha                90
_cell_angle_beta                 90
_cell_angle_gamma                90
_cell_volume                     1366.18
_exptl_crystal_colour            colorless
_exptl_crystal_description       Block
_cell_formula_units_Z            4
loop_
_atom_site_label
_atom_site_type_symbol
_atom_site_fract_x
_atom_site_fract_y
_atom_site_fract_z
O1 O 0.7879(2) 0.33887(17) 0.40355(9)
C1 C 0.6712(3) 0.2826(2) 0.35485(12)
N1 N 0.4920(2) 0.31776(17) 0.37025(9)
C2 C 0.4793(3) 0.3787(2) 0.44166(11)
H1 H 0.4502 0.3109 0.4787
C3 C 0.6821(3) 0.4249(2) 0.44961(13)
H2 H 0.6954 0.5170 0.4341
H3 H 0.7241 0.4171 0.5001
C4 C 0.3307(3) 0.25355(19) 0.33973(11)
H4 H 0.2179 0.3077 0.3504
C5 C 0.3396(3) 0.2294(2) 0.25922(12)
H5 H 0.4483 0.1716 0.2483
C6 C 0.1624(3) 0.1634(2) 0.23402(13)
H6 H 0.1720 0.1431 0.1822
H7 H 0.0553 0.2231 0.2411
C7 C 0.1313(4) 0.0378(2) 0.27626(14)
H8 H 0.0088 -0.0001 0.2635
H9 H 0.2290 -0.0267 0.2638
C8 C 0.1378(4) 0.0662(2) 0.35595(14)
H10 H 0.0319 0.1234 0.3691
H11 H 0.1253 -0.0167 0.3830
O2 O 0.3117(2) 0.12982(14) 0.37553(9)
C9 C 0.3394(3) 0.4887(2) 0.44563(11)
C10 C 0.3322(3) 0.5837(2) 0.39227(12)
H12 H 0.4146 0.5783 0.3525
C11 C 0.2062(4) 0.6863(2) 0.39643(14)
H13 H 0.2021 0.7502 0.3594
C12 C 0.0861(3) 0.6959(2) 0.45460(13)
H14 H 0.0002 0.7664 0.4577
C13 C 0.0922(3) 0.6020(3) 0.50812(13)
H15 H 0.0101 0.6081 0.5480
C14 C 0.2179(3) 0.4987(2) 0.50376(12)
H16 H 0.2210 0.4346 0.5407
O3 O 0.7286(2) 0.21523(18) 0.30671(10)
Br1 Br 0.37144(4) 0.39642(3) 0.209499(12)
loop_
_geom_bond_atom_site_label_1
_geom_bond_atom_site_label_2
_geom_bond_site_symmetry_1
_geom_bond_site_symmetry_2
O1 C1 1_555 1_555
C1 N1 1_555 1_555
N1 C2 1_555 1_555
C2 H1 1_555 1_555
C3 O1 1_555 1_555
H2 C3 1_555 1_555
H3 C3 1_555 1_555
C4 N1 1_555 1_555
H4 C4 1_555 1_555
C5 C4 1_555 1_555
H5 C5 1_555 1_555
C6 C5 1_555 1_555
H6 C6 1_555 1_555
H7 C6 1_555 1_555
C7 C6 1_555 1_555
H8 C7 1_555 1_555
H9 C7 1_555 1_555
C8 C7 1_555 1_555
H10 C8 1_555 1_555
H11 C8 1_555 1_555
O2 C4 1_555 1_555
C9 C2 1_555 1_555
C10 C9 1_555 1_555
H12 C10 1_555 1_555
C11 C10 1_555 1_555
H13 C11 1_555 1_555
C12 C11 1_555 1_555
H14 C12 1_555 1_555
C13 C12 1_555 1_555
H15 C13 1_555 1_555
C14 C9 1_555 1_555
H16 C14 1_555 1_555
O3 C1 1_555 1_555
Br1 C5 1_555 1_555
C2 C3 1_555 1_555
C8 O2 1_555 1_555
C13 C14 1_555 1_555

#END
