
#######################################################################
#
#                 Cambridge Crystallographic Data Centre
#                                CCDC 
#
#######################################################################
#
# If this CIF has been generated from an entry in the Cambridge 
# Structural Database, then it will include bibliographic, chemical, 
# crystal, experimental, refinement or atomic coordinate data resulting 
# from the CCDC's data processing and validation procedures.
#
#######################################################################

data_SIRNEN
_chemical_formula_moiety         'C52 H72 Br1 N1 O4'
_chemical_name_systematic        
(-)-5-Amino-4-bromo-11,17,23-tri-t-butyl-25,26,27,28-tetrakis(n-propoxy)calix(4)arene
_symmetry_cell_setting           monoclinic
_symmetry_space_group_name_H-M   'P 21'
_symmetry_Int_Tables_number      4
_space_group_name_Hall           'P 2yb'
loop_
_symmetry_equiv_pos_site_id
_symmetry_equiv_pos_as_xyz
1 x,y,z
2 -x,1/2+y,-z
_cell_length_a                   12.568(7)
_cell_length_b                   16.286(9)
_cell_length_c                   24.219(14)
_cell_angle_alpha                90
_cell_angle_beta                 99.468(6)
_cell_angle_gamma                90
_cell_volume                     4889.68
_exptl_crystal_colour            colorless
_exptl_crystal_description       platelet
_cell_formula_units_Z            4
_exptl_crystal_recrystallization_method tetrahydrofuran/methanol/n-pentane
loop_
_atom_site_label
_atom_site_type_symbol
_atom_site_fract_x
_atom_site_fract_y
_atom_site_fract_z
Br1 Br 0.37334(5) 0.21830(3) -0.11281(2)
N1 N 0.3684(4) 0.4057(3) -0.13393(19)
H1 H 0.340(4) 0.4551(13) -0.142(2)
H2 H 0.324(3) 0.368(2) -0.150(2)
O1 O 0.4349(3) 0.3283(2) 0.09384(14)
O2 O 0.5091(3) 0.4765(2) 0.18358(15)
O3 O 0.6012(3) 0.2875(2) 0.22616(14)
O4 O 0.4634(3) 0.1434(2) 0.13700(14)
C1 C 0.4184(4) 0.3481(3) 0.0378(2)
C2 C 0.4030(4) 0.2831(3) -0.0011(2)
C3 C 0.3886(4) 0.3034(3) -0.0580(2)
C4 C 0.3849(4) 0.3852(3) -0.0761(2)
C5 C 0.4055(4) 0.4467(3) -0.0364(2)
H5 H 0.4064 0.5022 -0.0483
C6 C 0.4249(4) 0.4288(3) 0.0210(2)
C7 C 0.4537(4) 0.4963(3) 0.0641(2)
H6 H 0.4431 0.5503 0.0453
H7 H 0.4043 0.4933 0.0920
C8 C 0.5934(4) 0.4769(3) 0.1521(2)
C9 C 0.5691(4) 0.4899(3) 0.0941(2)
C10 C 0.6541(4) 0.4971(3) 0.0642(2)
H8 H 0.6385 0.5053 0.0249
C11 C 0.7619(4) 0.4927(4) 0.0903(2)
C12 C 0.7821(4) 0.4759(3) 0.1482(2)
H9 H 0.8546 0.4713 0.1667
C13 C 0.6992(4) 0.4660(3) 0.1791(2)
C14 C 0.7258(4) 0.4349(3) 0.2398(2)
H10 H 0.7764 0.4731 0.2625
H11 H 0.6591 0.4316 0.2565
C15 C 0.7117(4) 0.2799(4) 0.2285(2)
C16 C 0.7768(4) 0.3503(3) 0.2390(2)
C17 C 0.8880(4) 0.3417(4) 0.2434(2)
H12 H 0.9324 0.3889 0.2510
C18 C 0.9363(4) 0.2657(4) 0.2369(2)
C19 C 0.8669(4) 0.1991(3) 0.2240(2)
H13 H 0.8979 0.1470 0.2189
C20 C 0.7565(4) 0.2042(3) 0.2182(2)
C21 C 0.6838(4) 0.1331(4) 0.1947(2)
H14 H 0.7219 0.0803 0.2033
H15 H 0.6177 0.1326 0.2120
C22 C 0.5473(4) 0.1538(3) 0.1060(2)
C23 C 0.6538(4) 0.1435(3) 0.1315(2)
C24 C 0.7344(5) 0.1517(4) 0.0986(2)
H16 H 0.8074 0.1447 0.1158
C25 C 0.7127(4) 0.1697(3) 0.0422(2)
C26 C 0.6053(5) 0.1835(3) 0.0190(2)
H17 H 0.5888 0.1990 -0.0193
C27 C 0.5217(4) 0.1757(3) 0.0490(2)
C28 C 0.4074(4) 0.1966(3) 0.0213(2)
H18 H 0.3836 0.1577 -0.0097
H19 H 0.3579 0.1913 0.0490
C29 C 0.3459(4) 0.3287(4) 0.1245(2)
H20 H 0.3666 0.3633 0.1582
H21 H 0.3365 0.2720 0.1377
C30 C 0.2363(5) 0.3587(4) 0.0942(2)
H22 H 0.1915 0.3739 0.1227
H23 H 0.2478 0.4091 0.0731
C31 C 0.1737(5) 0.2976(4) 0.0540(3)
H24 H 0.2074 0.2930 0.0204
H25 H 0.0991 0.3165 0.0435
H26 H 0.1743 0.2438 0.0722
C32 C 0.4940(5) 0.5565(4) 0.2055(3)
H27 H 0.4859 0.5974 0.1749
H28 H 0.5580 0.5717 0.2332
C33 C 0.3959(5) 0.5570(4) 0.2328(3)
H29 H 0.3936 0.6095 0.2531
H30 H 0.4023 0.5122 0.2608
C34 C 0.2900(5) 0.5467(5) 0.1928(3)
H31 H 0.2809 0.5922 0.1660
H32 H 0.2301 0.5466 0.2141
H33 H 0.2908 0.4946 0.1726
C35 C 0.5706(5) 0.2724(4) 0.2796(2)
H34 H 0.6181 0.3039 0.3087
H35 H 0.5792 0.2133 0.2888
C36 C 0.4554(5) 0.2974(4) 0.2786(2)
H36 H 0.4085 0.2686 0.2478
H37 H 0.4478 0.3572 0.2717
C37 C 0.4196(5) 0.2762(5) 0.3349(3)
H38 H 0.4085 0.2168 0.3371
H39 H 0.3520 0.3048 0.3376
H40 H 0.4755 0.2935 0.3658
C38 C 0.4218(5) 0.0608(4) 0.1331(2)
H41 H 0.4790 0.0217 0.1491
H42 H 0.3969 0.0460 0.0935
C39 C 0.3300(5) 0.0566(4) 0.1651(3)
H43 H 0.2943 0.0025 0.1583
H44 H 0.2766 0.0994 0.1507
C40 C 0.3639(7) 0.0685(5) 0.2272(3)
H45 H 0.4235 0.0311 0.2410
H46 H 0.3028 0.0568 0.2464
H47 H 0.3876 0.1253 0.2347
C41 C 0.8569(5) 0.5136(4) 0.0610(3)
C42 C 0.8249(6) 0.5146(5) -0.0024(3)
H48 H 0.8049 0.4591 -0.0158
H49 H 0.8859 0.5339 -0.0194
H50 H 0.7634 0.5516 -0.0129
C43 C 0.8963(6) 0.6020(5) 0.0789(4)
H51 H 0.8356 0.6404 0.0711
H52 H 0.9530 0.6186 0.0579
H53 H 0.9249 0.6027 0.1191
C44 C 0.9512(5) 0.4556(4) 0.0777(3)
H54 H 0.9786 0.4615 0.1178
H55 H 1.0087 0.4688 0.0563
H56 H 0.9273 0.3989 0.0698
C45 C 1.0593(4) 0.2565(4) 0.2427(3)
C46 C 1.0870(5) 0.2219(6) 0.1870(3)
H57 H 1.1649 0.2263 0.1873
H58 H 1.0485 0.2534 0.1555
H59 H 1.0653 0.1641 0.1831
C47 C 1.1175(5) 0.3382(5) 0.2517(4)
H60 H 1.1118 0.3592 0.2890
H61 H 1.0846 0.3774 0.2233
H62 H 1.1937 0.3307 0.2487
C48 C 1.1007(6) 0.2015(6) 0.2898(4)
H63 H 1.0883 0.2266 0.3250
H64 H 1.1782 0.1928 0.2911
H65 H 1.0630 0.1487 0.2847
C49 C 0.8019(5) 0.1777(4) 0.0063(2)
C50 C 0.7933(10) 0.2691(6) -0.0168(6)
H66 H 0.8545 0.2806 -0.0360
H67 H 0.7943 0.3074 0.0145
H68 H 0.7258 0.2756 -0.0431
C51 C 0.9155(7) 0.1747(8) 0.0421(5)
H69 H 0.9270 0.1208 0.0601
H70 H 0.9215 0.2175 0.0709
H71 H 0.9700 0.1839 0.0182
C52 C 0.7912(9) 0.1219(8) -0.0421(5)
H72 H 0.8482 0.1336 -0.0641
H73 H 0.7206 0.1300 -0.0655
H74 H 0.7976 0.0650 -0.0289
Br2 Br -0.08790(6) 0.41889(4) 0.38450(2)
N2 N -0.1406(4) 0.2340(3) 0.3724(2)
H3 H -0.153(5) 0.267(3) 0.3432(15)
H4 H -0.146(5) 0.1822(11) 0.361(2)
O5 O 0.2154(3) 0.2953(2) 0.53803(15)
O6 O 0.2849(3) 0.1535(2) 0.63156(15)
O7 O 0.2983(3) 0.3368(2) 0.68820(15)
O8 O 0.2655(3) 0.4818(3) 0.58313(16)
C56 C 0.1247(4) 0.2806(3) 0.4969(2)
C57 C 0.0772(4) 0.3470(3) 0.4666(2)
C58 C -0.0134(5) 0.3300(3) 0.4256(2)
C59 C -0.0518(5) 0.2512(4) 0.4145(2)
C60 C -0.0016(4) 0.1873(3) 0.4478(2)
H84 H -0.0284 0.1329 0.4416
C61 C 0.0858(4) 0.2012(3) 0.4894(2)
C62 C 0.1330(5) 0.1337(3) 0.5293(2)
H85 H 0.1085 0.0797 0.5132
H86 H 0.2127 0.1353 0.5335
C63 C 0.1759(4) 0.1531(3) 0.6350(2)
C64 C 0.0999(5) 0.1424(3) 0.5865(2)
C65 C -0.0088(4) 0.1374(3) 0.5914(2)
H87 H -0.0605 0.1303 0.5585
C66 C -0.0449(5) 0.1426(3) 0.6433(2)
C67 C 0.0341(5) 0.1592(3) 0.6896(2)
H88 H 0.0120 0.1653 0.7250
C68 C 0.1427(4) 0.1673(3) 0.6867(2)
C69 C 0.2224(4) 0.1941(3) 0.7386(2)
H89 H 0.2179 0.1563 0.7701
H90 H 0.2970 0.1925 0.7304
C70 C 0.2269(5) 0.3475(4) 0.7258(2)
C71 C 0.1944(5) 0.2803(4) 0.7541(2)
C72 C 0.1265(4) 0.2947(4) 0.7932(2)
H91 H 0.1052 0.2495 0.8136
C73 C 0.0885(4) 0.3728(4) 0.8035(2)
C74 C 0.1179(4) 0.4369(3) 0.7720(2)
H92 H 0.0911 0.4902 0.7777
C75 C 0.1853(4) 0.4266(4) 0.7321(2)
C76 C 0.2020(5) 0.4957(4) 0.6929(2)
H93 H 0.2769 0.4944 0.6851
H94 H 0.1903 0.5491 0.7104
C77 C 0.1559(5) 0.4757(3) 0.5868(2)
C78 C 0.1223(5) 0.4861(3) 0.6380(2)
C79 C 0.0110(5) 0.4839(3) 0.6403(2)
H95 H -0.0128 0.4940 0.6749
C80 C -0.0652(5) 0.4673(3) 0.5930(2)
C81 C -0.0265(5) 0.4502(3) 0.5434(2)
H96 H -0.0765 0.4351 0.5111
C82 C 0.0820(5) 0.4545(3) 0.5395(2)
C83 C 0.1166(5) 0.4325(3) 0.4837(2)
H97 H 0.0857 0.4725 0.4546
H98 H 0.1962 0.4348 0.4875
C84 C 0.3144(4) 0.2854(4) 0.5169(3)
H99 H 0.3173 0.3244 0.4859
H100 H 0.3196 0.2289 0.5025
C85 C 0.4072(5) 0.3017(4) 0.5643(3)
H101 H 0.4011 0.2648 0.5961
H102 H 0.4032 0.3591 0.5773
C86 C 0.5161(6) 0.2876(5) 0.5451(4)
H103 H 0.5237 0.2294 0.5363
H104 H 0.5746 0.3038 0.5750
H105 H 0.5197 0.3207 0.5116
C87 C 0.3280(4) 0.0719(3) 0.6307(2)
H106 H 0.2788 0.0379 0.6038
H107 H 0.3326 0.0469 0.6682
C88 C 0.4377(5) 0.0729(4) 0.6141(3)
H108 H 0.4872 0.1058 0.6415
H109 H 0.4333 0.0993 0.5770
C89 C 0.4826(5) -0.0127(4) 0.6116(3)
H110 H 0.4818 -0.0406 0.6474
H111 H 0.5569 -0.0096 0.6043
H112 H 0.4383 -0.0436 0.5815
C90 C 0.4077(5) 0.3638(4) 0.7101(3)
H113 H 0.4049 0.4093 0.7369
H114 H 0.4421 0.3848 0.6789
C91 C 0.4741(5) 0.2952(4) 0.7387(3)
H115 H 0.4771 0.2495 0.7121
H116 H 0.4405 0.2745 0.7702
C92 C 0.5909(5) 0.3266(5) 0.7612(3)
H117 H 0.6166 0.3600 0.7324
H118 H 0.6391 0.2795 0.7705
H119 H 0.5902 0.3599 0.7949
C93 C 0.2987(5) 0.5646(4) 0.5775(3)
H120 H 0.2827 0.5974 0.6095
H121 H 0.2581 0.5885 0.5427
C94 C 0.4181(6) 0.5678(6) 0.5756(4)
H122 H 0.4422 0.6257 0.5796
H123 H 0.4568 0.5370 0.6080
C95 C 0.4468(7) 0.5362(8) 0.5273(4)
H124 H 0.4229 0.4789 0.5227
H125 H 0.5253 0.5387 0.5298
H126 H 0.4124 0.5684 0.4950
C96 C -0.1630(5) 0.1285(4) 0.6489(2)
C97 C -0.1714(6) 0.0383(4) 0.6665(3)
H127 H -0.2452 0.0268 0.6725
H128 H -0.1212 0.0283 0.7014
H129 H -0.1531 0.0023 0.6370
C98 C -0.1953(5) 0.1830(4) 0.6953(3)
H130 H -0.1884 0.2409 0.6856
H131 H -0.1480 0.1713 0.7308
H132 H -0.2703 0.1715 0.6992
C99 C -0.2393(5) 0.1440(5) 0.5943(3)
H133 H -0.2267 0.1029 0.5665
H134 H -0.2263 0.1990 0.5804
H135 H -0.3140 0.1401 0.6008
C100 C 0.0155(5) 0.3843(4) 0.8485(2)
C101 C -0.0893(6) 0.3332(6) 0.8319(3)
H136 H -0.0708 0.2750 0.8294
H137 H -0.1274 0.3520 0.7955
H138 H -0.1359 0.3404 0.8603
C102 C 0.0726(6) 0.3580(6) 0.9043(3)
H139 H 0.1382 0.3910 0.9146
H140 H 0.0921 0.2999 0.9029
H141 H 0.0253 0.3659 0.9322
C103 C -0.0246(7) 0.4722(5) 0.8510(3)
H142 H 0.0367 0.5088 0.8631
H143 H -0.0752 0.4756 0.8777
H144 H -0.0613 0.4890 0.8138
C104 C -0.1856(5) 0.4636(4) 0.5967(2)
C105 C -0.2048(6) 0.4060(7) 0.6424(4)
H145 H -0.1758 0.3517 0.6358
H146 H -0.2825 0.4016 0.6427
H147 H -0.1688 0.4272 0.6786
C106 C -0.2249(6) 0.5517(5) 0.6083(3)
H148 H -0.1800 0.5738 0.6419
H149 H -0.3002 0.5494 0.6141
H150 H -0.2192 0.5872 0.5763
C107 C -0.2559(5) 0.4384(5) 0.5418(3)
H151 H -0.2436 0.3803 0.5343
H152 H -0.2373 0.4719 0.5112
H153 H -0.3320 0.4468 0.5447
C53? C 0.7655(14) 0.2142(13) -0.0516(6)
H75? H 0.7030 0.1836 -0.0708
H76? H 0.8245 0.2106 -0.0734
H77? H 0.7456 0.2719 -0.0480
C54? C 0.9062(13) 0.2159(13) 0.0347(9)
H78? H 0.9252 0.1935 0.0726
H79? H 0.8974 0.2755 0.0368
H80? H 0.9638 0.2033 0.0132
C55? C 0.8269(14) 0.0847(6) -0.0046(8)
H81? H 0.8523 0.0573 0.0312
H82? H 0.8828 0.0813 -0.0283
H83? H 0.7612 0.0576 -0.0234
loop_
_geom_bond_atom_site_label_1
_geom_bond_atom_site_label_2
_geom_bond_site_symmetry_1
_geom_bond_site_symmetry_2
Br1 C3 1_555 1_555
Br2 C58 1_555 1_555
N1 H1 1_555 1_555
H2 N1 1_555 1_555
N2 H3 1_555 1_555
H4 N2 1_555 1_555
O1 C1 1_555 1_555
O2 C8 1_555 1_555
O3 C15 1_555 1_555
O4 C22 1_555 1_555
O5 C56 1_555 1_555
O6 C63 1_555 1_555
O7 C70 1_555 1_555
O8 C77 1_555 1_555
C1 C2 1_555 1_555
C2 C3 1_555 1_555
C3 C4 1_555 1_555
C4 N1 1_555 1_555
C5 C4 1_555 1_555
H5 C5 1_555 1_555
C6 C1 1_555 1_555
C7 C6 1_555 1_555
H6 C7 1_555 1_555
H7 C7 1_555 1_555
C8 C9 1_555 1_555
C9 C7 1_555 1_555
C10 C9 1_555 1_555
H8 C10 1_555 1_555
C11 C10 1_555 1_555
C12 C11 1_555 1_555
H9 C12 1_555 1_555
C13 C8 1_555 1_555
C14 C13 1_555 1_555
H10 C14 1_555 1_555
H11 C14 1_555 1_555
C15 C16 1_555 1_555
C16 C14 1_555 1_555
C17 C16 1_555 1_555
H12 C17 1_555 1_555
C18 C17 1_555 1_555
C19 C18 1_555 1_555
H13 C19 1_555 1_555
C20 C15 1_555 1_555
C21 C20 1_555 1_555
H14 C21 1_555 1_555
H15 C21 1_555 1_555
C22 C23 1_555 1_555
C23 C21 1_555 1_555
C24 C23 1_555 1_555
H16 C24 1_555 1_555
C25 C24 1_555 1_555
C26 C25 1_555 1_555
H17 C26 1_555 1_555
C27 C22 1_555 1_555
C28 C2 1_555 1_555
H18 C28 1_555 1_555
H19 C28 1_555 1_555
C29 O1 1_555 1_555
H20 C29 1_555 1_555
H21 C29 1_555 1_555
C30 C29 1_555 1_555
H22 C30 1_555 1_555
H23 C30 1_555 1_555
C31 C30 1_555 1_555
H24 C31 1_555 1_555
H25 C31 1_555 1_555
H26 C31 1_555 1_555
C32 O2 1_555 1_555
H27 C32 1_555 1_555
H28 C32 1_555 1_555
C33 C32 1_555 1_555
H29 C33 1_555 1_555
H30 C33 1_555 1_555
C34 C33 1_555 1_555
H31 C34 1_555 1_555
H32 C34 1_555 1_555
H33 C34 1_555 1_555
C35 O3 1_555 1_555
H34 C35 1_555 1_555
H35 C35 1_555 1_555
C36 C35 1_555 1_555
H36 C36 1_555 1_555
H37 C36 1_555 1_555
C37 C36 1_555 1_555
H38 C37 1_555 1_555
H39 C37 1_555 1_555
H40 C37 1_555 1_555
C38 O4 1_555 1_555
H41 C38 1_555 1_555
H42 C38 1_555 1_555
C39 C38 1_555 1_555
H43 C39 1_555 1_555
H44 C39 1_555 1_555
C40 C39 1_555 1_555
H45 C40 1_555 1_555
H46 C40 1_555 1_555
H47 C40 1_555 1_555
C41 C11 1_555 1_555
C42 C41 1_555 1_555
H48 C42 1_555 1_555
H49 C42 1_555 1_555
H50 C42 1_555 1_555
C43 C41 1_555 1_555
H51 C43 1_555 1_555
H52 C43 1_555 1_555
H53 C43 1_555 1_555
C44 C41 1_555 1_555
H54 C44 1_555 1_555
H55 C44 1_555 1_555
H56 C44 1_555 1_555
C45 C18 1_555 1_555
C46 C45 1_555 1_555
H57 C46 1_555 1_555
H58 C46 1_555 1_555
H59 C46 1_555 1_555
C47 C45 1_555 1_555
H60 C47 1_555 1_555
H61 C47 1_555 1_555
H62 C47 1_555 1_555
C48 C45 1_555 1_555
H63 C48 1_555 1_555
H64 C48 1_555 1_555
H65 C48 1_555 1_555
C49 C25 1_555 1_555
C50 C49 1_555 1_555
H66 C50 1_555 1_555
H67 C50 1_555 1_555
H68 C50 1_555 1_555
C51 C49 1_555 1_555
H69 C51 1_555 1_555
H70 C51 1_555 1_555
H71 C51 1_555 1_555
C52 C49 1_555 1_555
H72 C52 1_555 1_555
H73 C52 1_555 1_555
H74 C52 1_555 1_555
C56 C57 1_555 1_555
C57 C58 1_555 1_555
C58 C59 1_555 1_555
C59 N2 1_555 1_555
C60 C59 1_555 1_555
H84 C60 1_555 1_555
C61 C56 1_555 1_555
C62 C61 1_555 1_555
H85 C62 1_555 1_555
H86 C62 1_555 1_555
C63 C64 1_555 1_555
C64 C62 1_555 1_555
C65 C64 1_555 1_555
H87 C65 1_555 1_555
C66 C65 1_555 1_555
C67 C66 1_555 1_555
H88 C67 1_555 1_555
C68 C63 1_555 1_555
C69 C68 1_555 1_555
H89 C69 1_555 1_555
H90 C69 1_555 1_555
C70 C71 1_555 1_555
C71 C69 1_555 1_555
C72 C71 1_555 1_555
H91 C72 1_555 1_555
C73 C72 1_555 1_555
C74 C73 1_555 1_555
H92 C74 1_555 1_555
C75 C70 1_555 1_555
C76 C75 1_555 1_555
H93 C76 1_555 1_555
H94 C76 1_555 1_555
C77 C78 1_555 1_555
C78 C76 1_555 1_555
C79 C78 1_555 1_555
H95 C79 1_555 1_555
C80 C79 1_555 1_555
C81 C80 1_555 1_555
H96 C81 1_555 1_555
C82 C77 1_555 1_555
C83 C57 1_555 1_555
H97 C83 1_555 1_555
H98 C83 1_555 1_555
C84 O5 1_555 1_555
H99 C84 1_555 1_555
H100 C84 1_555 1_555
C85 C84 1_555 1_555
H101 C85 1_555 1_555
H102 C85 1_555 1_555
C86 C85 1_555 1_555
H103 C86 1_555 1_555
H104 C86 1_555 1_555
H105 C86 1_555 1_555
C87 O6 1_555 1_555
H106 C87 1_555 1_555
H107 C87 1_555 1_555
C88 C87 1_555 1_555
H108 C88 1_555 1_555
H109 C88 1_555 1_555
C89 C88 1_555 1_555
H110 C89 1_555 1_555
H111 C89 1_555 1_555
H112 C89 1_555 1_555
C90 O7 1_555 1_555
H113 C90 1_555 1_555
H114 C90 1_555 1_555
C91 C90 1_555 1_555
H115 C91 1_555 1_555
H116 C91 1_555 1_555
C92 C91 1_555 1_555
H117 C92 1_555 1_555
H118 C92 1_555 1_555
H119 C92 1_555 1_555
C93 O8 1_555 1_555
H120 C93 1_555 1_555
H121 C93 1_555 1_555
C94 C93 1_555 1_555
H122 C94 1_555 1_555
H123 C94 1_555 1_555
C95 C94 1_555 1_555
H124 C95 1_555 1_555
H125 C95 1_555 1_555
H126 C95 1_555 1_555
C96 C66 1_555 1_555
C97 C96 1_555 1_555
H127 C97 1_555 1_555
H128 C97 1_555 1_555
H129 C97 1_555 1_555
C98 C96 1_555 1_555
H130 C98 1_555 1_555
H131 C98 1_555 1_555
H132 C98 1_555 1_555
C99 C96 1_555 1_555
H133 C99 1_555 1_555
H134 C99 1_555 1_555
H135 C99 1_555 1_555
C100 C73 1_555 1_555
C101 C100 1_555 1_555
H136 C101 1_555 1_555
H137 C101 1_555 1_555
H138 C101 1_555 1_555
C102 C100 1_555 1_555
H139 C102 1_555 1_555
H140 C102 1_555 1_555
H141 C102 1_555 1_555
C103 C100 1_555 1_555
H142 C103 1_555 1_555
H143 C103 1_555 1_555
H144 C103 1_555 1_555
C104 C80 1_555 1_555
C105 C104 1_555 1_555
H145 C105 1_555 1_555
H146 C105 1_555 1_555
H147 C105 1_555 1_555
C106 C104 1_555 1_555
H148 C106 1_555 1_555
H149 C106 1_555 1_555
H150 C106 1_555 1_555
C107 C104 1_555 1_555
H151 C107 1_555 1_555
H152 C107 1_555 1_555
H153 C107 1_555 1_555
C5 C6 1_555 1_555
C12 C13 1_555 1_555
C19 C20 1_555 1_555
C26 C27 1_555 1_555
C27 C28 1_555 1_555
C60 C61 1_555 1_555
C67 C68 1_555 1_555
C74 C75 1_555 1_555
C81 C82 1_555 1_555
C82 C83 1_555 1_555

#END
