
#######################################################################
#
#                 Cambridge Crystallographic Data Centre
#                                CCDC 
#
#######################################################################
#
# If this CIF has been generated from an entry in the Cambridge 
# Structural Database, then it will include bibliographic, chemical, 
# crystal, experimental, refinement or atomic coordinate data resulting 
# from the CCDC's data processing and validation procedures.
#
#######################################################################

data_SIRNAJ
_chemical_formula_moiety         'C13 H14 Br1 N1 O3'
_chemical_name_systematic        
3-(3-Bromotetrahydrofuran-2-yl)-4-phenyl-1,3-oxazolidin-2-one
_symmetry_cell_setting           monoclinic
_symmetry_space_group_name_H-M   'C 2'
_symmetry_Int_Tables_number      5
_space_group_name_Hall           'C 2y'
loop_
_symmetry_equiv_pos_site_id
_symmetry_equiv_pos_as_xyz
1 x,y,z
2 -x,y,-z
3 1/2+x,1/2+y,z
4 1/2-x,1/2+y,-z
_cell_length_a                   20.682(4)
_cell_length_b                   5.9165(10)
_cell_length_c                   11.670(2)
_cell_angle_alpha                90
_cell_angle_beta                 115.333(2)
_cell_angle_gamma                90
_cell_volume                     1290.68
_exptl_crystal_colour            colorless
_exptl_crystal_description       Needle
_cell_formula_units_Z            4
loop_
_atom_site_label
_atom_site_type_symbol
_atom_site_fract_x
_atom_site_fract_y
_atom_site_fract_z
Br1 Br 0.580522(16) 0.49735(8) 0.63622(3)
C1 C 0.68530(15) 0.5204(8) 0.7242(3)
H1 H 0.7012 0.6007 0.8072
C2 C 0.71299(19) 0.6348(6) 0.6377(3)
H2 H 0.6802 0.7559 0.5871
H3 H 0.7612 0.6997 0.6867
C3 C 0.7154(2) 0.4430(5) 0.5539(3)
H4 H 0.6700 0.4348 0.4759
H5 H 0.7553 0.4645 0.5294
O1 O 0.72587(14) 0.2387(4) 0.6286(2)
C4 C 0.71693(19) 0.2830(6) 0.7404(3)
H6 H 0.6815 0.1731 0.7453
N1 N 0.78387(14) 0.2583(5) 0.8533(2)
C5 C 0.7942(2) 0.0800(6) 0.9319(3)
O2 O 0.75429(17) -0.0797(4) 0.9161(3)
O3 O 0.85726(14) 0.0954(4) 1.0338(2)
C6 C 0.8874(2) 0.3186(7) 1.0368(4)
H7 H 0.9381 0.3069 1.0517
H8 H 0.8845 0.4117 1.1050
C7 C 0.84199(18) 0.4241(5) 0.9057(3)
H9 H 0.8221 0.5719 0.9173
C8 C 0.88437(17) 0.4610(6) 0.8286(3)
C9 C 0.91968(19) 0.6666(6) 0.8409(4)
H10 H 0.9153 0.7809 0.8944
C10 C 0.9610(2) 0.7056(7) 0.7758(4)
H11 H 0.9858 0.8448 0.7861
C11 C 0.9662(2) 0.5419(8) 0.6960(4)
H12 H 0.9936 0.5701 0.6496
C12 C 0.9319(2) 0.3379(7) 0.6834(4)
H13 H 0.9363 0.2243 0.6296
C13 C 0.8909(2) 0.2979(6) 0.7493(3)
H14 H 0.8671 0.1572 0.7398
loop_
_geom_bond_atom_site_label_1
_geom_bond_atom_site_label_2
_geom_bond_site_symmetry_1
_geom_bond_site_symmetry_2
Br1 C1 1_555 1_555
C1 H1 1_555 1_555
C2 C1 1_555 1_555
H2 C2 1_555 1_555
H3 C2 1_555 1_555
C3 C2 1_555 1_555
H4 C3 1_555 1_555
H5 C3 1_555 1_555
O1 C3 1_555 1_555
C4 C1 1_555 1_555
H6 C4 1_555 1_555
N1 C4 1_555 1_555
C5 N1 1_555 1_555
O2 C5 1_555 1_555
O3 C5 1_555 1_555
C6 O3 1_555 1_555
H7 C6 1_555 1_555
H8 C6 1_555 1_555
C7 N1 1_555 1_555
H9 C7 1_555 1_555
C8 C7 1_555 1_555
C9 C8 1_555 1_555
H10 C9 1_555 1_555
C10 C9 1_555 1_555
H11 C10 1_555 1_555
C11 C10 1_555 1_555
H12 C11 1_555 1_555
C12 C11 1_555 1_555
H13 C12 1_555 1_555
C13 C8 1_555 1_555
H14 C13 1_555 1_555
O1 C4 1_555 1_555
C6 C7 1_555 1_555
C12 C13 1_555 1_555

#END
