
#######################################################################
#
#                 Cambridge Crystallographic Data Centre
#                                CCDC 
#
#######################################################################
#
# If this CIF has been generated from an entry in the Cambridge 
# Structural Database, then it will include bibliographic, chemical, 
# crystal, experimental, refinement or atomic coordinate data resulting 
# from the CCDC's data processing and validation procedures.
#
#######################################################################

data_SIRSIX
_chemical_formula_moiety         'C42 H34 N2'
_chemical_name_systematic        
3,3'-(1,2-diphenylethene-1,2-diyl)bis(9-ethyl-9H-carbazole)
_symmetry_cell_setting           monoclinic
_symmetry_space_group_name_H-M   'P 21/c'
_symmetry_Int_Tables_number      14
_space_group_name_Hall           '-P 2ybc'
loop_
_symmetry_equiv_pos_site_id
_symmetry_equiv_pos_as_xyz
1 x,y,z
2 -x,1/2+y,1/2-z
3 -x,-y,-z
4 x,1/2-y,1/2+z
_cell_length_a                   12.6635(13)
_cell_length_b                   21.772(2)
_cell_length_c                   12.6541(12)
_cell_angle_alpha                90
_cell_angle_beta                 117.068(2)
_cell_angle_gamma                90
_cell_volume                     3106.71
_exptl_crystal_colour            colorless
_exptl_crystal_description       bar
_cell_formula_units_Z            4
loop_
_atom_site_label
_atom_site_type_symbol
_atom_site_fract_x
_atom_site_fract_y
_atom_site_fract_z
N1 N 0.38806(17) 0.53681(8) 0.57624(16)
N2 N 0.02453(16) 0.03489(8) 0.65952(16)
C1 C 0.4114(2) 0.55838(10) 0.68761(19)
C2 C 0.4610(2) 0.61416(10) 0.7411(2)
H1 H 0.4843 0.6439 0.7009
C3 C 0.4752(2) 0.62475(10) 0.8546(2)
H2 H 0.5093 0.6623 0.8931
C4 C 0.4405(2) 0.58155(11) 0.9133(2)
H3 H 0.4510 0.5902 0.9911
C5 C 0.3910(2) 0.52606(10) 0.8606(2)
H4 H 0.3676 0.4968 0.9016
C6 C 0.37600(18) 0.51389(9) 0.74689(18)
C7 C 0.32667(18) 0.46325(9) 0.66441(19)
C8 C 0.2770(2) 0.40645(9) 0.6700(2)
H5 H 0.2741 0.3941 0.7407
C9 C 0.23225(19) 0.36855(10) 0.5711(2)
C10 C 0.2379(2) 0.38713(9) 0.4675(2)
H6 H 0.2055 0.3611 0.3999
C11 C 0.2887(2) 0.44186(10) 0.4607(2)
H7 H 0.2933 0.4533 0.3904
C12 C 0.33328(19) 0.47998(10) 0.56005(19)
C13 C 0.1757(2) 0.30747(10) 0.5708(2)
C14 C 0.0509(2) 0.30042(10) 0.4741(2)
C15 C 0.0140(2) 0.24955(10) 0.4001(2)
H8 H 0.0683 0.2170 0.4120
C16 C -0.1001(2) 0.24546(12) 0.3095(2)
H9 H -0.1239 0.2101 0.2601
C17 C -0.1788(2) 0.29195(12) 0.2907(2)
H10 H -0.2570 0.2889 0.2277
C18 C -0.1462(2) 0.34296(12) 0.3617(2)
H11 H -0.2016 0.3750 0.3488
C19 C -0.0307(2) 0.34729(11) 0.4531(2)
H12 H -0.0075 0.3829 0.5018
C20 C 0.10224(19) -0.00483(9) 0.64552(18)
C21 C 0.0975(2) -0.06855(10) 0.63414(19)
H13 H 0.0350 -0.0915 0.6367
C22 C 0.1876(2) -0.09720(10) 0.6189(2)
H14 H 0.1853 -0.1405 0.6092
C23 C 0.2810(2) -0.06421(10) 0.6175(2)
H15 H 0.3427 -0.0854 0.6097
C24 C 0.2852(2) -0.00084(10) 0.62735(19)
H16 H 0.3489 0.0217 0.6261
C25 C 0.19413(19) 0.02928(10) 0.63919(18)
C26 C 0.1679(2) 0.09312(9) 0.64860(18)
C27 C 0.2236(2) 0.14819(9) 0.64681(19)
H17 H 0.2956 0.1476 0.6405
C28 C 0.1737(2) 0.20381(10) 0.65423(19)
C29 C 0.0685(2) 0.20339(10) 0.66569(19)
H18 H 0.0345 0.2415 0.6706
C30 C 0.0127(2) 0.14986(10) 0.67005(19)
H19 H -0.0578 0.1506 0.6792
C31 C 0.0633(2) 0.09447(10) 0.66058(18)
C32 C 0.2330(2) 0.26304(10) 0.6500(2)
C33 C 0.36105(19) 0.26728(9) 0.73816(19)
C34 C 0.4478(2) 0.28641(9) 0.7063(2)
H20 H 0.4248 0.2978 0.6263
C35 C 0.5656(2) 0.28917(10) 0.7875(2)
H21 H 0.6226 0.3021 0.7629
C36 C 0.6014(2) 0.27333(10) 0.9041(2)
H22 H 0.6827 0.2760 0.9603
C37 C 0.5181(2) 0.25352(10) 0.9388(2)
H23 H 0.5421 0.2423 1.0191
C38 C 0.3983(2) 0.24996(9) 0.8555(2)
H24 H 0.3418 0.2355 0.8796
C39 C 0.3963(2) 0.57446(10) 0.4837(2)
H25 H 0.3971 0.5473 0.4213
H26 H 0.4715 0.5979 0.5188
C40 C 0.2941(2) 0.61824(12) 0.4290(2)
H27 H 0.3029 0.6434 0.3692
H28 H 0.2928 0.6450 0.4907
H29 H 0.2197 0.5950 0.3913
C41 C -0.0733(2) 0.01622(11) 0.6834(2)
H30 H -0.1148 -0.0192 0.6322
H31 H -0.1307 0.0505 0.6632
C42 C -0.0308(2) -0.00145(11) 0.8121(2)
H32 H 0.0131 0.0329 0.8632
H33 H 0.0212 -0.0374 0.8307
H34 H -0.0992 -0.0113 0.8256
loop_
_geom_bond_atom_site_label_1
_geom_bond_atom_site_label_2
_geom_bond_site_symmetry_1
_geom_bond_site_symmetry_2
N1 C1 1_555 1_555
N2 C20 1_555 1_555
C1 C2 1_555 1_555
C2 H1 1_555 1_555
C3 C2 1_555 1_555
H2 C3 1_555 1_555
C4 C3 1_555 1_555
H3 C4 1_555 1_555
C5 C4 1_555 1_555
H4 C5 1_555 1_555
C6 C1 1_555 1_555
C7 C6 1_555 1_555
C8 C7 1_555 1_555
H5 C8 1_555 1_555
C9 C8 1_555 1_555
C10 C9 1_555 1_555
H6 C10 1_555 1_555
C11 C10 1_555 1_555
H7 C11 1_555 1_555
C12 N1 1_555 1_555
C13 C9 1_555 1_555
C14 C13 1_555 1_555
C15 C14 1_555 1_555
H8 C15 1_555 1_555
C16 C15 1_555 1_555
H9 C16 1_555 1_555
C17 C16 1_555 1_555
H10 C17 1_555 1_555
C18 C17 1_555 1_555
H11 C18 1_555 1_555
C19 C14 1_555 1_555
H12 C19 1_555 1_555
C20 C21 1_555 1_555
C21 H13 1_555 1_555
C22 C21 1_555 1_555
H14 C22 1_555 1_555
C23 C22 1_555 1_555
H15 C23 1_555 1_555
C24 C23 1_555 1_555
H16 C24 1_555 1_555
C25 C20 1_555 1_555
C26 C25 1_555 1_555
C27 C26 1_555 1_555
H17 C27 1_555 1_555
C28 C27 1_555 1_555
C29 C28 1_555 1_555
H18 C29 1_555 1_555
C30 C29 1_555 1_555
H19 C30 1_555 1_555
C31 N2 1_555 1_555
C32 C13 1_555 1_555
C33 C32 1_555 1_555
C34 C33 1_555 1_555
H20 C34 1_555 1_555
C35 C34 1_555 1_555
H21 C35 1_555 1_555
C36 C35 1_555 1_555
H22 C36 1_555 1_555
C37 C36 1_555 1_555
H23 C37 1_555 1_555
C38 C33 1_555 1_555
H24 C38 1_555 1_555
C39 N1 1_555 1_555
H25 C39 1_555 1_555
H26 C39 1_555 1_555
C40 C39 1_555 1_555
H27 C40 1_555 1_555
H28 C40 1_555 1_555
H29 C40 1_555 1_555
C41 N2 1_555 1_555
H30 C41 1_555 1_555
H31 C41 1_555 1_555
C42 C41 1_555 1_555
H32 C42 1_555 1_555
H33 C42 1_555 1_555
H34 C42 1_555 1_555
C5 C6 1_555 1_555
C7 C12 1_555 1_555
C11 C12 1_555 1_555
C18 C19 1_555 1_555
C24 C25 1_555 1_555
C26 C31 1_555 1_555
C28 C32 1_555 1_555
C30 C31 1_555 1_555
C37 C38 1_555 1_555

#END
