
#######################################################################
#
#                 Cambridge Crystallographic Data Centre
#                                CCDC 
#
#######################################################################
#
# If this CIF has been generated from an entry in the Cambridge 
# Structural Database, then it will include bibliographic, chemical, 
# crystal, experimental, refinement or atomic coordinate data resulting 
# from the CCDC's data processing and validation procedures.
#
#######################################################################

data_SIRSET
_chemical_formula_moiety         'C45 H28 S2'
_chemical_name_systematic        
2,2'-(9,9'-spirobi[fluorene]-2,7-diyl)bis(5-phenylthiophene)
_symmetry_cell_setting           monoclinic
_symmetry_space_group_name_H-M   'P 21/n'
_symmetry_Int_Tables_number      14
_space_group_name_Hall           '-P 2yn'
loop_
_symmetry_equiv_pos_site_id
_symmetry_equiv_pos_as_xyz
1 x,y,z
2 1/2-x,1/2+y,1/2-z
3 -x,-y,-z
4 1/2+x,1/2-y,1/2+z
_cell_length_a                   16.0960(4)
_cell_length_b                   9.0213(2)
_cell_length_c                   22.1626(5)
_cell_angle_alpha                90
_cell_angle_beta                 93.855(7)
_cell_angle_gamma                90
_cell_volume                     3210.88
_exptl_crystal_colour            yellow
_exptl_crystal_description       block
_cell_formula_units_Z            4
loop_
_atom_site_label
_atom_site_type_symbol
_atom_site_fract_x
_atom_site_fract_y
_atom_site_fract_z
S1 S 0.761239(19) -0.06135(4) 1.178776(14)
S2 S 0.98276(2) 0.10514(4) 0.681151(14)
C1 C 0.92585(7) 0.05250(14) 0.81099(5)
C2 C 1.03426(8) -0.12747(14) 0.83712(6)
C3 C 0.99548(7) -0.02950(13) 0.79470(5)
C4 C 0.88915(7) -0.06786(13) 0.96395(5)
C5 C 0.72720(8) -0.00842(14) 1.10601(5)
C6 C 1.02590(8) -0.01923(14) 0.73397(5)
C7 C 1.08677(8) -0.10079(15) 0.70884(6)
C8 C 0.89631(7) 0.03222(13) 0.86761(5)
C9 C 0.93499(7) -0.06664(13) 0.90920(5)
C10 C 0.78134(8) -0.02913(13) 1.05608(5)
C11 C 0.64917(8) 0.05238(15) 1.10568(6)
C12 C 0.76702(8) 0.04912(14) 1.00121(6)
C13 C 0.65938(8) -0.01517(14) 1.27351(6)
C14 C 0.61690(8) 0.05507(15) 1.16346(6)
C15 C 0.84939(8) -0.12597(14) 1.06312(6)
C16 C 0.74147(7) 0.08555(14) 0.85183(5)
C17 C 0.88304(8) 0.35792(15) 0.93246(6)
C18 C 0.76925(8) 0.33954(14) 0.85581(6)
C19 C 0.71228(9) -0.10329(15) 1.31126(6)
C20 C 0.81999(7) 0.10381(13) 0.89402(5)
C21 C 0.67023(8) -0.00223(14) 1.20838(6)
C22 C 1.04755(8) 0.04892(15) 0.62599(6)
C23 C 0.82069(8) 0.02865(13) 0.95587(5)
C24 C 0.69899(8) -0.04265(15) 0.83447(6)
C25 C 1.04269(9) 0.12104(15) 0.56636(6)
C26 C 0.71549(8) 0.22314(14) 0.82802(6)
C27 C 0.76772(9) 0.49318(15) 0.84886(7)
C28 C 1.09861(8) -0.06214(16) 0.64809(6)
C29 C 0.82791(7) 0.27278(13) 0.89675(5)
C30 C 1.00509(8) -0.14577(14) 0.89403(6)
C31 C 1.10215(10) 0.09027(17) 0.52473(6)
C32 C 0.64711(9) 0.23314(15) 0.78633(6)
C33 C 0.88112(9) 0.51153(15) 0.92588(6)
C34 C 0.59471(9) 0.06239(16) 1.29904(6)
C35 C 0.90320(8) -0.14552(14) 1.01779(6)
C36 C 0.63767(10) -0.03424(17) 1.39773(6)
C37 C 0.62995(9) -0.03197(16) 0.79315(6)
C38 C 0.70157(10) -0.11141(16) 1.37316(6)
C39 C 0.82441(9) 0.57789(15) 0.88394(7)
C40 C 0.58387(10) 0.05130(17) 1.36038(7)
C41 C 0.60441(9) 0.10473(16) 0.76921(7)
C42 C 0.97991(10) 0.22292(16) 0.54966(7)
C43 C 1.09875(11) 0.16052(19) 0.46888(7)
C44 C 0.97726(11) 0.29307(18) 0.49366(7)
C45 C 1.03692(12) 0.26240(19) 0.45334(7)
H1 H 0.89947 0.12101 0.78335
H2 H 1.08151 -0.18234 0.82652
H3 H 1.11794 -0.17592 0.73016
H4 H 0.61971 0.08905 1.0702
H5 H 0.7211 0.11497 0.99555
H6 H 0.56334 0.09299 1.17048
H7 H 0.85872 -0.17936 1.0999
H8 H 0.92163 0.31246 0.96104
H9 H 0.75575 -0.1579 1.29464
H10 H 0.71654 -0.13614 0.8504
H11 H 0.72866 0.53891 0.82069
H12 H 1.13847 -0.1092 0.62481
H13 H 1.03247 -0.2114 0.92239
H14 H 1.14518 0.02071 0.5348
H15 H 0.62997 0.32635 0.76989
H16 H 0.91871 0.57136 0.95013
H17 H 0.55822 0.12275 1.27414
H18 H 0.9492 -0.21121 1.02336
H19 H 0.63059 -0.03965 1.43989
H20 H 0.59997 -0.11899 0.78117
H21 H 0.73833 -0.17019 1.39852
H22 H 0.82455 0.68258 0.87929
H23 H 0.53925 0.10262 1.37707
H24 H 0.55741 0.11 0.74097
H25 H 0.93847 0.24458 0.57692
H26 H 1.13939 0.13828 0.44106
H27 H 0.93427 0.36235 0.48308
H28 H 1.03539 0.31101 0.41525
loop_
_geom_bond_atom_site_label_1
_geom_bond_atom_site_label_2
_geom_bond_site_symmetry_1
_geom_bond_site_symmetry_2
S1 C5 1_555 1_555
S2 C6 1_555 1_555
C1 C3 1_555 1_555
C2 C3 1_555 1_555
C3 C6 1_555 1_555
C4 C9 1_555 1_555
C5 C10 1_555 1_555
C6 C7 1_555 1_555
C7 C28 1_555 1_555
C8 C1 1_555 1_555
C9 C8 1_555 1_555
C10 C12 1_555 1_555
C11 C5 1_555 1_555
C12 C23 1_555 1_555
C13 C19 1_555 1_555
C14 C11 1_555 1_555
C15 C10 1_555 1_555
C16 C20 1_555 1_555
C17 C29 1_555 1_555
C18 C26 1_555 1_555
C19 C38 1_555 1_555
C20 C8 1_555 1_555
C21 S1 1_555 1_555
C22 S2 1_555 1_555
C23 C4 1_555 1_555
C24 C16 1_555 1_555
C25 C22 1_555 1_555
C26 C16 1_555 1_555
C27 C18 1_555 1_555
C28 C22 1_555 1_555
C29 C18 1_555 1_555
C30 C2 1_555 1_555
C31 C25 1_555 1_555
C32 C26 1_555 1_555
C33 C17 1_555 1_555
C34 C13 1_555 1_555
C35 C4 1_555 1_555
C36 C38 1_555 1_555
C37 C24 1_555 1_555
C38 H21 1_555 1_555
C39 C27 1_555 1_555
C40 C34 1_555 1_555
C41 C32 1_555 1_555
C42 C25 1_555 1_555
C43 C31 1_555 1_555
C44 C42 1_555 1_555
C45 C43 1_555 1_555
H1 C1 1_555 1_555
H2 C2 1_555 1_555
H3 C7 1_555 1_555
H4 C11 1_555 1_555
H5 C12 1_555 1_555
H6 C14 1_555 1_555
H7 C15 1_555 1_555
H8 C17 1_555 1_555
H9 C19 1_555 1_555
H10 C24 1_555 1_555
H11 C27 1_555 1_555
H12 C28 1_555 1_555
H13 C30 1_555 1_555
H14 C31 1_555 1_555
H15 C32 1_555 1_555
H16 C33 1_555 1_555
H17 C34 1_555 1_555
H18 C35 1_555 1_555
H19 C36 1_555 1_555
H20 C37 1_555 1_555
H22 C39 1_555 1_555
H23 C40 1_555 1_555
H24 C41 1_555 1_555
H25 C42 1_555 1_555
H26 C43 1_555 1_555
H27 C44 1_555 1_555
H28 C45 1_555 1_555
C9 C30 1_555 1_555
C13 C21 1_555 1_555
C14 C21 1_555 1_555
C15 C35 1_555 1_555
C20 C23 1_555 1_555
C20 C29 1_555 1_555
C33 C39 1_555 1_555
C36 C40 1_555 1_555
C37 C41 1_555 1_555
C44 C45 1_555 1_555

#END
