
#######################################################################
#
#                 Cambridge Crystallographic Data Centre
#                                CCDC 
#
#######################################################################
#
# If this CIF has been generated from an entry in the Cambridge 
# Structural Database, then it will include bibliographic, chemical, 
# crystal, experimental, refinement or atomic coordinate data resulting 
# from the CCDC's data processing and validation procedures.
#
#######################################################################

data_SIRXIC
_chemical_formula_moiety         'C35 H41 N1 O4'
_chemical_name_systematic        
'methyl 19-isopropyl-5,9-dimethyl-15-(1-naphthyl)-14,16-dioxo-15-azapentacyclo[10.5.2.0^1,10^.0^4,9^.0^13,17^]nonadec-18-ene-5-carboxylate'
_symmetry_cell_setting           orthorhombic
_symmetry_space_group_name_H-M   'P 21 21 21'
_symmetry_Int_Tables_number      19
_space_group_name_Hall           'P 2ac 2ab'
loop_
_symmetry_equiv_pos_site_id
_symmetry_equiv_pos_as_xyz
1 x,y,z
2 1/2+x,1/2-y,-z
3 -x,1/2+y,1/2-z
4 1/2-x,-y,1/2+z
_cell_length_a                   7.5322(15)
_cell_length_b                   16.363(3)
_cell_length_c                   24.127(5)
_cell_angle_alpha                90
_cell_angle_beta                 90
_cell_angle_gamma                90
_cell_volume                     2973.64
_exptl_crystal_colour            colorless
_exptl_crystal_description       Block
_cell_formula_units_Z            4
loop_
_atom_site_label
_atom_site_type_symbol
_atom_site_fract_x
_atom_site_fract_y
_atom_site_fract_z
O1 O 0.4411(6) 0.6801(3) 0.6516(2)
O2 O 0.7763(8) 0.6930(3) 0.4953(2)
N1 N 0.6283(8) 0.7033(4) 0.5773(3)
C1 C 0.3717(10) 0.6268(4) 0.5592(3)
H1 H 0.2634 0.6568 0.5495
C2 C 0.4953(9) 0.6217(4) 0.5092(3)
H2 H 0.4349 0.6444 0.4767
C3 C 0.5396(9) 0.5291(4) 0.4983(3)
C4 C 0.6742(10) 0.5204(4) 0.4507(3)
H3 H 0.7905 0.5372 0.4636
H4 H 0.6402 0.5565 0.4206
C5 C 0.6847(9) 0.4329(4) 0.4290(3)
H5 H 0.7692 0.4303 0.3987
H6 H 0.7263 0.3971 0.4583
C6 C 0.5038(9) 0.4040(4) 0.4089(3)
H7 H 0.4597 0.4489 0.3858
C7 C 0.5058(10) 0.3292(4) 0.3701(3)
C8 C 0.3154(10) 0.3129(5) 0.3506(3)
H8 H 0.2765 0.3582 0.3276
H9 H 0.3141 0.2639 0.3280
C9 C 0.1850(10) 0.3023(5) 0.3985(3)
H10 H 0.0668 0.2929 0.3839
H11 H 0.2186 0.2550 0.4203
C10 C 0.1834(11) 0.3787(5) 0.4358(3)
H12 H 0.1033 0.3695 0.4667
H13 H 0.1384 0.4248 0.4147
C11 C 0.3723(9) 0.4004(4) 0.4589(3)
C12 C 0.3591(9) 0.4884(4) 0.4830(3)
H14 H 0.3078 0.5221 0.4535
C13 C 0.2300(9) 0.4958(5) 0.5332(3)
H15 H 0.1248 0.5260 0.5223
H16 H 0.1934 0.4418 0.5452
C14 C 0.3242(10) 0.5406(4) 0.5813(3)
H17 H 0.2476 0.5439 0.6140
C15 C 0.616(3) 0.255(2) 0.3960(14)
H18 H 0.7334 0.2735 0.4055
H19 H 0.6244 0.2116 0.3694
H20 H 0.5573 0.2355 0.4287
C16 C 0.6089(12) 0.3534(5) 0.3186(3)
C17 C 0.4254(11) 0.3368(4) 0.5047(3)
H21 H 0.3921 0.3574 0.5405
H22 H 0.5514 0.3280 0.5037
H23 H 0.3652 0.2860 0.4980
C18 C 0.6055(9) 0.4942(4) 0.5525(3)
H24 H 0.7161 0.4694 0.5556
C19 C 0.4980(10) 0.5009(4) 0.5949(3)
C20 C 0.563(2) 0.4697(16) 0.6542(11)
H25 H 0.5235 0.5106 0.6812
C21 C 0.457(3) 0.3912(16) 0.6667(12)
H26 H 0.4687 0.3776 0.7052
H27 H 0.5019 0.3471 0.6445
H28 H 0.3339 0.4000 0.6581
C22 C 0.761(2) 0.4625(16) 0.6612(11)
H29 H 0.8040 0.4168 0.6400
H30 H 0.7891 0.4543 0.6996
H31 H 0.8173 0.5116 0.6483
C23 C 0.4757(10) 0.6731(4) 0.6019(3)
C24 C 0.6524(11) 0.6749(5) 0.5235(3)
C25 C 0.7601(11) 0.7513(5) 0.6086(3)
C26 C 0.9248(12) 0.7175(6) 0.6188(4)
H32 H 0.9541 0.6667 0.6042
C27 C 1.0452(13) 0.7596(7) 0.6509(4)
H33 H 1.1584 0.7383 0.6559
C28 C 1.0023(13) 0.8309(6) 0.6749(4)
H34 H 1.0840 0.8575 0.6975
C29 C 0.8355(13) 0.8652(6) 0.6660(4)
C30 C 0.7785(14) 0.9375(6) 0.6928(4)
H35 H 0.8596 0.9649 0.7151
C31 C 0.6206(15) 0.9679(5) 0.6881(4)
H36 H 0.5888 1.0146 0.7077
C32 C 0.4992(13) 0.9296(5) 0.6532(3)
H37 H 0.3875 0.9529 0.6488
C33 C 0.5375(12) 0.8591(5) 0.6253(3)
H38 H 0.4533 0.8344 0.6026
C34 C 0.7069(11) 0.8247(5) 0.6317(3)
O3 O 0.758(2) 0.3104(12) 0.3068(9)
O4 O 0.6295(19) 0.4238(9) 0.3010(6)
C35 C 0.869(3) 0.3284(17) 0.2587(10)
H39 H 0.8298 0.3781 0.2416
H40 H 0.8609 0.2843 0.2325
H41 H 0.9906 0.3344 0.2703
C36? C 0.562(3) 0.2455(19) 0.3957(14)
H42? H 0.6639 0.2533 0.4192
H43? H 0.5921 0.2080 0.3665
H44? H 0.4662 0.2236 0.4172
C37? C 0.500(2) 0.4728(16) 0.6548(10)
H45? H 0.4680 0.5195 0.6782
C38? C 0.374(3) 0.4014(15) 0.6690(11)
H46? H 0.3980 0.3561 0.6449
H47? H 0.2532 0.4188 0.6642
H48? H 0.3922 0.3851 0.7068
C39? C 0.695(2) 0.4484(16) 0.6690(11)
H49? H 0.7675 0.4965 0.6698
H50? H 0.7385 0.4115 0.6413
H51? H 0.6975 0.4223 0.7046
C40? C 0.808(3) 0.3103(17) 0.2533(10)
H52? H 0.8396 0.3671 0.2519
H53? H 0.7359 0.2970 0.2217
H54? H 0.9136 0.2776 0.2529
O5? O 0.710(2) 0.2943(12) 0.3032(8)
O6? O 0.5458(19) 0.4039(9) 0.2857(6)
loop_
_geom_bond_atom_site_label_1
_geom_bond_atom_site_label_2
_geom_bond_site_symmetry_1
_geom_bond_site_symmetry_2
O1 C23 1_555 1_555
O2 C24 1_555 1_555
N1 C23 1_555 1_555
C1 H1 1_555 1_555
C2 C1 1_555 1_555
H2 C2 1_555 1_555
C3 C2 1_555 1_555
C4 C3 1_555 1_555
H3 C4 1_555 1_555
H4 C4 1_555 1_555
C5 C4 1_555 1_555
H5 C5 1_555 1_555
H6 C5 1_555 1_555
C6 C5 1_555 1_555
H7 C6 1_555 1_555
C7 C6 1_555 1_555
C8 C7 1_555 1_555
H8 C8 1_555 1_555
H9 C8 1_555 1_555
C9 C8 1_555 1_555
H10 C9 1_555 1_555
H11 C9 1_555 1_555
C10 C9 1_555 1_555
H12 C10 1_555 1_555
H13 C10 1_555 1_555
C11 C6 1_555 1_555
C12 C3 1_555 1_555
H14 C12 1_555 1_555
C13 C12 1_555 1_555
H15 C13 1_555 1_555
H16 C13 1_555 1_555
C14 C1 1_555 1_555
H17 C14 1_555 1_555
C15 C7 1_555 1_555
H18 C15 1_555 1_555
H19 C15 1_555 1_555
H20 C15 1_555 1_555
C16 C7 1_555 1_555
C17 C11 1_555 1_555
H21 C17 1_555 1_555
H22 C17 1_555 1_555
H23 C17 1_555 1_555
C18 C3 1_555 1_555
H24 C18 1_555 1_555
C19 C14 1_555 1_555
C20 C19 1_555 1_555
H25 C20 1_555 1_555
C21 C20 1_555 1_555
H26 C21 1_555 1_555
H27 C21 1_555 1_555
H28 C21 1_555 1_555
C22 C20 1_555 1_555
H29 C22 1_555 1_555
H30 C22 1_555 1_555
H31 C22 1_555 1_555
C23 C1 1_555 1_555
C24 N1 1_555 1_555
C25 N1 1_555 1_555
C26 C25 1_555 1_555
H32 C26 1_555 1_555
C27 C26 1_555 1_555
H33 C27 1_555 1_555
C28 C27 1_555 1_555
H34 C28 1_555 1_555
C29 C28 1_555 1_555
C30 C29 1_555 1_555
H35 C30 1_555 1_555
C31 C30 1_555 1_555
H36 C31 1_555 1_555
C32 C31 1_555 1_555
H37 C32 1_555 1_555
C33 C32 1_555 1_555
H38 C33 1_555 1_555
C34 C25 1_555 1_555
O3 C16 1_555 1_555
O4 C16 1_555 1_555
C35 O3 1_555 1_555
H39 C35 1_555 1_555
H40 C35 1_555 1_555
H41 C35 1_555 1_555
C2 C24 1_555 1_555
C10 C11 1_555 1_555
C11 C12 1_555 1_555
C13 C14 1_555 1_555
C18 C19 1_555 1_555
C29 C34 1_555 1_555
C33 C34 1_555 1_555

#END
