
#######################################################################
#
#                 Cambridge Crystallographic Data Centre
#                                CCDC 
#
#######################################################################
#
# If this CIF has been generated from an entry in the Cambridge 
# Structural Database, then it will include bibliographic, chemical, 
# crystal, experimental, refinement or atomic coordinate data resulting 
# from the CCDC's data processing and validation procedures.
#
#######################################################################

data_SIRXOI
_chemical_formula_moiety         'C34 H40 N2 O4'
_chemical_name_systematic        
'methyl 19-isopropyl-5,9-dimethyl-14,16-dioxo-15-(quinolin-8-yl)-15-azapentacyclo[10.5.2.0^1,10^.0^4,9^.0^13,17^]nonadec-18-ene-5-carboxylate'
_symmetry_cell_setting           orthorhombic
_symmetry_space_group_name_H-M   'P 21 21 21'
_symmetry_Int_Tables_number      19
_space_group_name_Hall           'P 2ac 2ab'
loop_
_symmetry_equiv_pos_site_id
_symmetry_equiv_pos_as_xyz
1 x,y,z
2 1/2-x,-y,1/2+z
3 1/2+x,1/2-y,-z
4 -x,1/2+y,1/2-z
_cell_length_a                   8.54394(18)
_cell_length_b                   14.0556(4)
_cell_length_c                   24.3015(7)
_cell_angle_alpha                90
_cell_angle_beta                 90
_cell_angle_gamma                90
_cell_volume                     2918.37
_cell_formula_units_Z            4
loop_
_atom_site_label
_atom_site_type_symbol
_atom_site_fract_x
_atom_site_fract_y
_atom_site_fract_z
O1 O 0.9495(4) 0.36923(18) -0.02042(10)
O2 O 0.8854(3) 0.35903(14) 0.06587(9)
O3 O 1.30550(18) 0.71098(13) 0.19948(8)
O4 O 0.9958(2) 0.92417(13) 0.28818(7)
N1 N 1.3741(2) 0.76487(14) 0.32668(8)
N2 N 1.1785(2) 0.83113(12) 0.24505(7)
C1 C 0.8836(3) 0.40201(16) 0.01789(10)
C2 C 1.4718(3) 0.7336(2) 0.36451(11)
H1 H 1.4453 0.6776 0.3826
C3 C 1.6109(3) 0.7772(2) 0.37962(12)
H2 H 1.6744 0.7505 0.4066
C4 C 1.6526(3) 0.8592(2) 0.35441(10)
H3 H 1.7459 0.8893 0.3636
C5 C 1.5533(2) 0.89838(15) 0.31418(8)
C6 C 1.5855(3) 0.98556(16) 0.28715(9)
H4 H 1.6753 1.0197 0.2961
C7 C 1.4872(3) 1.01909(17) 0.24873(11)
H5 H 1.5086 1.0768 0.2316
C8 C 1.3494(3) 0.96696(16) 0.23383(10)
H6 H 1.2828 0.9897 0.2066
C9 C 1.3177(2) 0.88436(15) 0.25994(9)
C10 C 1.4151(2) 0.84724(15) 0.30102(8)
C11 C 1.1854(2) 0.74601(15) 0.21497(8)
C12 C 1.0191(2) 0.71051(14) 0.20657(7)
H7 H 1.0059 0.6489 0.2248
C13 C 0.9158(2) 0.78524(14) 0.23481(8)
H8 H 0.8522 0.7552 0.2635
C14 C 1.0280(2) 0.85623(16) 0.26045(8)
C15 C 0.8078(2) 0.83261(14) 0.19108(8)
H9 H 0.7467 0.8846 0.2072
C16 C 0.7002(2) 0.75332(15) 0.16885(8)
H10 H 0.6296 0.7796 0.1416
H11 H 0.6377 0.7277 0.1987
C17 C 0.7985(2) 0.67258(12) 0.14258(7)
H12 H 0.7877 0.6174 0.1669
C18 C 0.97616(19) 0.70101(12) 0.14389(7)
C19 C 0.9933(2) 0.79962(12) 0.12070(7)
H13 H 1.0600 0.8122 0.0913
C20 C 0.9089(2) 0.86797(13) 0.14409(8)
C21 C 0.8997(3) 0.96990(14) 0.12387(9)
H14 H 0.9825 0.9787 0.0964
C22 C 0.9267(4) 1.04284(16) 0.16972(12)
H15 H 0.8507 1.0335 0.1983
H16 H 0.9163 1.1059 0.1550
H17 H 1.0300 1.0348 0.1846
C23 C 0.7444(4) 0.9889(2) 0.09573(12)
H18 H 0.7311 0.9452 0.0658
H19 H 0.7431 1.0529 0.0819
H20 H 0.6608 0.9807 0.1217
C24 C 0.7389(2) 0.64014(13) 0.08483(7)
C25 C 0.5710(2) 0.60202(17) 0.09170(9)
H21 H 0.5679 0.5598 0.1233
H22 H 0.5014 0.6550 0.0992
C26 C 0.5111(3) 0.54836(18) 0.04115(10)
H23 H 0.4059 0.5254 0.0482
H24 H 0.5068 0.5914 0.0100
C27 C 0.6158(3) 0.46556(17) 0.02755(10)
H25 H 0.5765 0.4346 -0.0053
H26 H 0.6108 0.4198 0.0574
C28 C 0.7902(2) 0.49375(15) 0.01800(8)
C29 C 0.8115(3) 0.53995(19) -0.03853(8)
H27 H 0.7495 0.5968 -0.0405
H28 H 0.7785 0.4964 -0.0666
H29 H 0.9198 0.5556 -0.0439
C30 C 0.8472(2) 0.55590(13) 0.06762(7)
H30 H 0.8475 0.5128 0.0993
C31 C 1.0161(2) 0.58923(13) 0.06179(8)
H31 H 1.0215 0.6400 0.0348
H32 H 1.0804 0.5370 0.0488
C32 C 1.0787(2) 0.62490(13) 0.11707(8)
H33 H 1.0878 0.5713 0.1420
H34 H 1.1828 0.6507 0.1116
C33 C 0.7353(3) 0.72251(15) 0.04290(8)
H35 H 0.6802 0.7756 0.0584
H36 H 0.6831 0.7020 0.0100
H37 H 0.8405 0.7412 0.0341
C34 C 0.9596(5) 0.2680(2) 0.06906(19)
H38 H 1.0565 0.2696 0.0491
H39 H 0.8921 0.2206 0.0534
H40 H 0.9799 0.2526 0.1069
loop_
_geom_bond_atom_site_label_1
_geom_bond_atom_site_label_2
_geom_bond_site_symmetry_1
_geom_bond_site_symmetry_2
O1 C1 1_555 1_555
O2 C1 1_555 1_555
O3 C11 1_555 1_555
O4 C14 1_555 1_555
N1 C2 1_555 1_555
N2 C9 1_555 1_555
C1 C28 1_555 1_555
C2 H1 1_555 1_555
C3 C2 1_555 1_555
H2 C3 1_555 1_555
C4 C3 1_555 1_555
H3 C4 1_555 1_555
C5 C4 1_555 1_555
C6 C5 1_555 1_555
H4 C6 1_555 1_555
C7 C6 1_555 1_555
H5 C7 1_555 1_555
C8 C7 1_555 1_555
H6 C8 1_555 1_555
C9 C8 1_555 1_555
C10 N1 1_555 1_555
C11 N2 1_555 1_555
C12 C11 1_555 1_555
H7 C12 1_555 1_555
C13 C12 1_555 1_555
H8 C13 1_555 1_555
C14 N2 1_555 1_555
C15 C13 1_555 1_555
H9 C15 1_555 1_555
C16 C15 1_555 1_555
H10 C16 1_555 1_555
H11 C16 1_555 1_555
C17 C16 1_555 1_555
H12 C17 1_555 1_555
C18 C12 1_555 1_555
C19 C18 1_555 1_555
H13 C19 1_555 1_555
C20 C15 1_555 1_555
C21 C20 1_555 1_555
H14 C21 1_555 1_555
C22 C21 1_555 1_555
H15 C22 1_555 1_555
H16 C22 1_555 1_555
H17 C22 1_555 1_555
C23 C21 1_555 1_555
H18 C23 1_555 1_555
H19 C23 1_555 1_555
H20 C23 1_555 1_555
C24 C17 1_555 1_555
C25 C24 1_555 1_555
H21 C25 1_555 1_555
H22 C25 1_555 1_555
C26 C25 1_555 1_555
H23 C26 1_555 1_555
H24 C26 1_555 1_555
C27 C26 1_555 1_555
H25 C27 1_555 1_555
H26 C27 1_555 1_555
C28 C27 1_555 1_555
C29 C28 1_555 1_555
H27 C29 1_555 1_555
H28 C29 1_555 1_555
H29 C29 1_555 1_555
C30 C24 1_555 1_555
H30 C30 1_555 1_555
C31 C30 1_555 1_555
H31 C31 1_555 1_555
H32 C31 1_555 1_555
C32 C18 1_555 1_555
H33 C32 1_555 1_555
H34 C32 1_555 1_555
C33 C24 1_555 1_555
H35 C33 1_555 1_555
H36 C33 1_555 1_555
H37 C33 1_555 1_555
C34 O2 1_555 1_555
H38 C34 1_555 1_555
H39 C34 1_555 1_555
H40 C34 1_555 1_555
C5 C10 1_555 1_555
C9 C10 1_555 1_555
C13 C14 1_555 1_555
C17 C18 1_555 1_555
C19 C20 1_555 1_555
C28 C30 1_555 1_555
C31 C32 1_555 1_555

#END
