
#######################################################################
#
#                 Cambridge Crystallographic Data Centre
#                                CCDC 
#
#######################################################################
#
# If this CIF has been generated from an entry in the Cambridge 
# Structural Database, then it will include bibliographic, chemical, 
# crystal, experimental, refinement or atomic coordinate data resulting 
# from the CCDC's data processing and validation procedures.
#
#######################################################################

data_SIRZAU
_chemical_formula_moiety         'C57 H78 N8 6+,3(C8 H4 O4 2-),14(H2 O1)'
_chemical_name_systematic        
'6,8,18,20,29,31-Hexa-p-benzo-1,13-diaza-5,9,16,22,27,33-hexa-azoniabicyclo(11.11.11)pentatriacontane tris(terephthalate) tetradecahydrate clathrate'
_symmetry_cell_setting           orthorhombic
_symmetry_space_group_name_H-M   'P n n a'
_symmetry_Int_Tables_number      52
_space_group_name_Hall           '-P 2a 2bc'
loop_
_symmetry_equiv_pos_site_id
_symmetry_equiv_pos_as_xyz
1 x,y,z
2 1/2-x,-y,z
3 x,1/2-y,1/2-z
4 1/2-x,1/2+y,1/2-z
5 -x,-y,-z
6 1/2+x,y,-z
7 -x,1/2+y,1/2+z
8 1/2+x,1/2-y,1/2+z
_cell_length_a                   20.01(1)
_cell_length_b                   34.80(1)
_cell_length_c                   13.08(1)
_cell_angle_alpha                90
_cell_angle_beta                 90
_cell_angle_gamma                90
_cell_volume                     9108.23
_cell_formula_units_Z            4
loop_
_atom_site_label
_atom_site_type_symbol
_atom_site_fract_x
_atom_site_fract_y
_atom_site_fract_z
N1 N 0.1498(2) 0.6893(1) 0.4137(4)
C1 C 0.2049(3) 0.7153(1) 0.3867(6)
C2 C 0.2713(3) 0.7013(2) 0.4280(5)
N2 N 0.2974(2) 0.6693(1) 0.3644(4)
C3 C 0.3677(3) 0.6578(2) 0.3933(6)
C4 C 0.3955(3) 0.6287(2) 0.3197(5)
C5 C 0.3955(3) 0.5902(2) 0.3431(5)
C6 C 0.4227(3) 0.5638(2) 0.2768(5)
C7 C 0.4499(3) 0.5743(2) 0.1847(5)
C8 C 0.4494(3) 0.6134(2) 0.1593(5)
C9 C 0.4232(3) 0.6399(2) 0.2256(6)
C10 C 0.4809(4) 0.5456(2) 0.1117(6)
C11 C 0.1262(3) 0.6982(2) 0.5168(5)
C12 C 0.0860(3) 0.6670(2) 0.5663(6)
N3 N 0.1279(2) 0.6343(1) 0.6010(4)
C13 C 0.0897(4) 0.6081(2) 0.6699(7)
C14 C 0.1316(4) 0.5812(2) 0.7286(6)
C15 C 0.1656(5) 0.5918(3) 0.8161(7)
C16 C 0.2036(6) 0.5663(3) 0.8697(6)
C17 C 0.2092(5) 0.5277(3) 0.8390(6)
C18 C 0.1757(4) 0.5178(2) 0.7547(7)
C19 C 0.1377(4) 0.5426(3) 0.7003(6)
C20 C 0.2500 0.5000 0.8991(10)
C21 C 0.0951(4) 0.6941(2) 0.3431(6)
C22 C 0.1049(4) 0.6749(2) 0.2386(6)
N4 N 0.1025(3) 0.6320(1) 0.2447(4)
C23 C 0.0887(5) 0.6155(2) 0.1429(6)
C24 C 0.0733(4) 0.5730(2) 0.1426(5)
C25 C 0.0112(4) 0.5606(2) 0.1712(5)
C26 C -0.0062(4) 0.5222(2) 0.1629(5)
C27 C 0.4602(4) 0.5051(2) 0.1246(5)
C28 C 0.3989(4) 0.4919(2) 0.0996(6)
C29 C 0.1194(4) 0.5461(2) 0.1089(6)
H1 H 0.208 0.717 0.311
H2 H 0.195 0.741 0.416
H3 H 0.265 0.692 0.500
H4 H 0.304 0.723 0.427
H5 H 0.267 0.647 0.373
H6 H 0.297 0.678 0.291
H7 H 0.367 0.646 0.463
H8 H 0.397 0.681 0.394
H9 H 0.376 0.581 0.409
H10 H 0.422 0.536 0.296
H11 H 0.468 0.622 0.092
H12 H 0.424 0.668 0.206
H13 H 0.469 0.554 0.041
H14 H 0.530 0.547 0.120
H15 H 0.166 0.704 0.561
H16 H 0.097 0.722 0.513
H17 H 0.053 0.657 0.516
H18 H 0.062 0.678 0.627
H19 H 0.144 0.619 0.540
H20 H 0.167 0.644 0.640
H21 H 0.058 0.593 0.627
H22 H 0.063 0.624 0.719
H23 H 0.162 0.619 0.841
H24 H 0.228 0.575 0.932
H25 H 0.179 0.491 0.731
H26 H 0.113 0.533 0.639
H27 H 0.281 0.515 0.943
H28 H 0.054 0.683 0.375
H29 H 0.089 0.722 0.332
H30 H 0.149 0.683 0.211
H31 H 0.069 0.684 0.191
H32 H 0.066 0.624 0.293
H33 H 0.146 0.622 0.270
H34 H 0.049 0.629 0.114
H35 H 0.128 0.620 0.098
C17A C 0.2908(5) 0.4723(3) 0.8390(6)
H27A H 0.219 0.485 0.943
C27A C 0.0398(4) 0.4949(2) 0.1246(5)
C26A C 0.5062(4) 0.4778(2) 0.1629(5)
C29A C 0.3806(4) 0.4539(2) 0.1089(6)
C28A C 0.1011(4) 0.5081(2) 0.0996(6)
C16A C 0.2964(6) 0.4337(3) 0.8697(6)
C18A C 0.3243(4) 0.4822(2) 0.7547(7)
C10A C 0.0191(4) 0.4544(2) 0.1117(6)
C25A C 0.4888(4) 0.4394(2) 0.1712(5)
C24A C 0.4267(4) 0.4270(2) 0.1426(5)
C15A C 0.3344(5) 0.4082(3) 0.8161(7)
H24A H 0.272 0.425 0.932
C19A C 0.3623(4) 0.4574(3) 0.7003(6)
H25A H 0.321 0.509 0.731
C7A C 0.0501(3) 0.4257(2) 0.1847(5)
H13A H 0.031 0.446 0.041
H14A H -0.030 0.453 0.120
C23A C 0.4113(5) 0.3845(2) 0.1429(6)
C14A C 0.3684(4) 0.4188(2) 0.7286(6)
H23A H 0.338 0.381 0.841
H26A H 0.387 0.467 0.639
C6A C 0.0773(3) 0.4362(2) 0.2768(5)
C8A C 0.0506(3) 0.3866(2) 0.1593(5)
N4A N 0.3975(3) 0.3680(1) 0.2447(4)
H34A H 0.451 0.371 0.114
H35A H 0.372 0.380 0.098
C13A C 0.4103(4) 0.3919(2) 0.6699(7)
C5A C 0.1045(3) 0.4098(2) 0.3431(5)
H10A H 0.078 0.464 0.296
C9A C 0.0768(3) 0.3601(2) 0.2256(6)
H11A H 0.032 0.378 0.092
C22A C 0.3951(4) 0.3251(2) 0.2386(6)
H32A H 0.434 0.376 0.293
H33A H 0.354 0.378 0.270
N3A N 0.3721(2) 0.3657(1) 0.6010(4)
H21A H 0.442 0.407 0.627
H22A H 0.437 0.376 0.719
C4A C 0.1045(3) 0.3713(2) 0.3197(5)
H9A H 0.124 0.419 0.409
H12A H 0.076 0.332 0.206
C21A C 0.4049(4) 0.3059(2) 0.3431(6)
H30A H 0.351 0.317 0.211
H31A H 0.431 0.316 0.191
C12A C 0.4140(3) 0.3330(2) 0.5663(6)
H19A H 0.356 0.381 0.540
H20A H 0.333 0.356 0.640
C3A C 0.1323(3) 0.3422(2) 0.3933(6)
N1A N 0.3502(2) 0.3107(1) 0.4137(4)
H28A H 0.446 0.317 0.375
H29A H 0.411 0.278 0.332
C11A C 0.3738(3) 0.3018(2) 0.5168(5)
H17A H 0.447 0.343 0.516
H18A H 0.438 0.322 0.627
N2A N 0.2026(2) 0.3307(1) 0.3644(4)
H7A H 0.133 0.354 0.463
H8A H 0.103 0.319 0.394
C1A C 0.2951(3) 0.2847(1) 0.3867(6)
H15A H 0.334 0.296 0.561
H16A H 0.403 0.278 0.513
C2A C 0.2287(3) 0.2987(2) 0.4280(5)
H5A H 0.233 0.353 0.373
H6A H 0.203 0.322 0.291
H1A H 0.292 0.283 0.311
H2A H 0.305 0.259 0.416
H3A H 0.235 0.308 0.500
H4A H 0.196 0.277 0.427
O1 O 0.2228(2) 0.5996(1) 0.3034(4)
O2 O 0.2270(2) 0.5997(1) 0.4714(5)
C30 C 0.2289(3) 0.5825(2) 0.3896(7)
C31 C 0.2396(3) 0.5397(1) 0.3879(5)
C32 C 0.2456(3) 0.5199(1) 0.4777(5)
C33 C 0.2442(4) 0.5193(2) 0.2975(5)
H36 H 0.241 0.540 0.532
H37 H 0.238 0.539 0.244
C32A C 0.2544(3) 0.4801(1) 0.4777(5)
C33A C 0.2558(4) 0.4807(2) 0.2975(5)
C31A C 0.2604(3) 0.4603(1) 0.3879(5)
H36A H 0.259 0.460 0.532
H37A H 0.262 0.461 0.244
C30A C 0.2711(3) 0.4175(2) 0.3896(7)
O1A O 0.2772(2) 0.4004(1) 0.3034(4)
O2A O 0.2730(2) 0.4003(1) 0.4714(5)
O3 O 0.0476(2) 0.5963(1) 0.4125(3)
O4 O -0.0624(2) 0.5921(1) 0.4000(4)
C34 C -0.0067(3) 0.5785(2) 0.4219(5)
C35 C -0.0039(3) 0.5373(1) 0.4598(4)
C36 C 0.0570(3) 0.5188(1) 0.4698(4)
C37 C -0.0609(3) 0.5180(1) 0.4905(4)
H38 H 0.099 0.532 0.448
H39 H -0.105 0.531 0.484
C37D C 0.0609(3) 0.4820(1) 0.5095(4)
C36D C -0.0570(3) 0.4812(1) 0.5302(4)
C35D C 0.0039(3) 0.4627(1) 0.5402(4)
H39D H 0.105 0.469 0.516
H38D H -0.099 0.468 0.552
C34D C 0.0067(3) 0.4215(2) 0.5781(5)
O3D O -0.0476(2) 0.4037(1) 0.5875(3)
O4D O 0.0624(2) 0.4079(1) 0.6000(4)
O5 O 0.2986(3) 0.7055(2) 0.1756(4)
O6 O 0.2483(3) 0.6631(2) 0.6858(5)
O7 O 0.3098(3) 0.5910(2) 0.6577(7)
O8 O -0.0565(4) 0.6592(2) 0.2952(8)
O9 O 0.2791(3) 0.5964(3) 0.1024(6)
O10 O 0.5948(11) 0.2282(7) 0.1127(16)
O11 O 0.5882(13) 0.1631(7) 0.4050(19)
O12 O 0.6458(12) 0.1003(6) 0.3957(19)
O13? O 0.2186(5) 0.8239(4) 0.4928(9)
O14? O 0.2623(3) 0.7993(4) 0.6352(10)
O15? O -0.0655(4) 0.7455(4) 0.7956(8)
O16? O -0.1014(3) 0.7566(3) 0.6399(9)
C38? C 0.2116(4) 0.8079(5) 0.5802(10)
C39? C 0.1429(3) 0.7939(5) 0.6141(10)
C40? C 0.0867(5) 0.8051(5) 0.5583(12)
C41? C 0.0236(4) 0.7903(4) 0.5840(9)
C42? C 0.0160(4) 0.7679(5) 0.6724(8)
C43? C 0.0718(4) 0.7588(6) 0.7318(12)
C44? C 0.1358(4) 0.7699(4) 0.6997(8)
C45? C -0.0535(6) 0.7552(10) 0.7039(10)
O17? O 0.7271(12) 0.2531(9) 0.1981(15)
H40? H 0.219 0.485 0.943
H41? H -0.022 0.580 0.199
H42? H -0.052 0.514 0.184
H43? H 0.135 0.489 0.073
H44? H 0.166 0.554 0.092
H45? H 0.092 0.823 0.499
H46? H -0.016 0.796 0.540
H47? H 0.066 0.745 0.798
H48? H 0.176 0.760 0.737
loop_
_geom_bond_atom_site_label_1
_geom_bond_atom_site_label_2
_geom_bond_site_symmetry_1
_geom_bond_site_symmetry_2
N1 C1 1_555 1_555
C1 C2 1_555 1_555
C2 N2 1_555 1_555
N2 C3 1_555 1_555
C3 C4 1_555 1_555
C4 C5 1_555 1_555
C5 C6 1_555 1_555
C6 C7 1_555 1_555
C7 C8 1_555 1_555
C8 C9 1_555 1_555
C9 C4 1_555 1_555
C10 C7 1_555 1_555
C11 N1 1_555 1_555
C12 C11 1_555 1_555
N3 C12 1_555 1_555
C13 N3 1_555 1_555
C14 C13 1_555 1_555
C15 C14 1_555 1_555
C16 C15 1_555 1_555
C17 C16 1_555 1_555
C18 C17 1_555 1_555
C19 C14 1_555 1_555
C20 C17 1_555 1_555
C21 N1 1_555 1_555
C22 C21 1_555 1_555
N4 C22 1_555 1_555
C23 N4 1_555 1_555
C24 C23 1_555 1_555
C25 C24 1_555 1_555
C26 C25 1_555 1_555
C27 C10 1_555 1_555
C28 C27 1_555 1_555
C29 C24 1_555 1_555
H1 C1 1_555 1_555
H2 C1 1_555 1_555
H3 C2 1_555 1_555
H4 C2 1_555 1_555
H5 N2 1_555 1_555
H6 N2 1_555 1_555
H7 C3 1_555 1_555
H8 C3 1_555 1_555
H9 C5 1_555 1_555
H10 C6 1_555 1_555
H11 C8 1_555 1_555
H12 C9 1_555 1_555
H13 C10 1_555 1_555
H14 C10 1_555 1_555
H15 C11 1_555 1_555
H16 C11 1_555 1_555
H17 C12 1_555 1_555
H18 C12 1_555 1_555
H19 N3 1_555 1_555
H20 N3 1_555 1_555
H21 C13 1_555 1_555
H22 C13 1_555 1_555
H23 C15 1_555 1_555
H24 C16 1_555 1_555
H25 C18 1_555 1_555
H26 C19 1_555 1_555
H27 C20 1_555 1_555
H28 C21 1_555 1_555
H29 C21 1_555 1_555
H30 C22 1_555 1_555
H31 C22 1_555 1_555
H32 N4 1_555 1_555
H33 N4 1_555 1_555
H34 C23 1_555 1_555
H35 C23 1_555 1_555
O1 C30 1_555 1_555
O2 C30 1_555 1_555
C30 C31 1_555 1_555
C31 C32 1_555 1_555
C32 H36 1_555 1_555
C33 C31 1_555 1_555
H37 C33 1_555 1_555
O3 C34 1_555 1_555
O4 C34 1_555 1_555
C34 C35 1_555 1_555
C35 C36 1_555 1_555
C36 H38 1_555 1_555
C37 C35 1_555 1_555
H39 C37 1_555 1_555
C17A C20 1_555 1_555
H27A C20 1_555 1_555
C27A C26 1_555 1_555
C26A C27 1_555 1_555
C29A C28 1_555 1_555
C28A C29 1_555 1_555
C16A C17A 1_555 1_555
C18A C17A 1_555 1_555
C10A C27A 1_555 1_555
C25A C26A 1_555 1_555
C24A C29A 1_555 1_555
C15A C16A 1_555 1_555
H24A C16A 1_555 1_555
C19A C18A 1_555 1_555
H25A C18A 1_555 1_555
C7A C10A 1_555 1_555
H13A C10A 1_555 1_555
H14A C10A 1_555 1_555
C23A C24A 1_555 1_555
C14A C15A 1_555 1_555
H23A C15A 1_555 1_555
H26A C19A 1_555 1_555
C6A C7A 1_555 1_555
C8A C7A 1_555 1_555
N4A C23A 1_555 1_555
H34A C23A 1_555 1_555
H35A C23A 1_555 1_555
C13A C14A 1_555 1_555
C5A C6A 1_555 1_555
H10A C6A 1_555 1_555
C9A C8A 1_555 1_555
H11A C8A 1_555 1_555
C22A N4A 1_555 1_555
H32A N4A 1_555 1_555
H33A N4A 1_555 1_555
N3A C13A 1_555 1_555
H21A C13A 1_555 1_555
H22A C13A 1_555 1_555
C4A C5A 1_555 1_555
H9A C5A 1_555 1_555
H12A C9A 1_555 1_555
C21A C22A 1_555 1_555
H30A C22A 1_555 1_555
H31A C22A 1_555 1_555
C12A N3A 1_555 1_555
H19A N3A 1_555 1_555
H20A N3A 1_555 1_555
C3A C4A 1_555 1_555
N1A C21A 1_555 1_555
H28A C21A 1_555 1_555
H29A C21A 1_555 1_555
C11A C12A 1_555 1_555
H17A C12A 1_555 1_555
H18A C12A 1_555 1_555
N2A C3A 1_555 1_555
H7A C3A 1_555 1_555
H8A C3A 1_555 1_555
C1A N1A 1_555 1_555
H15A C11A 1_555 1_555
H16A C11A 1_555 1_555
C2A N2A 1_555 1_555
H5A N2A 1_555 1_555
H6A N2A 1_555 1_555
H1A C1A 1_555 1_555
H2A C1A 1_555 1_555
H3A C2A 1_555 1_555
H4A C2A 1_555 1_555
C32A C32 1_555 1_555
C33A C33 1_555 1_555
C31A C32A 1_555 1_555
H36A C32A 1_555 1_555
H37A C33A 1_555 1_555
C30A C31A 1_555 1_555
O1A C30A 1_555 1_555
O2A C30A 1_555 1_555
C37D C36 1_555 1_555
C36D C37 1_555 1_555
C35D C37D 1_555 1_555
H39D C37D 1_555 1_555
H38D C36D 1_555 1_555
C34D C35D 1_555 1_555
O3D C34D 1_555 1_555
O4D C34D 1_555 1_555
C18 C19 1_555 1_555
C27A C28A 1_555 1_555
C25A C24A 1_555 1_555
C19A C14A 1_555 1_555
C9A C4A 1_555 1_555
N1A C11A 1_555 1_555
C1A C2A 1_555 1_555
C33A C31A 1_555 1_555
C36D C35D 1_555 1_555

#END
