
#######################################################################
#
#                 Cambridge Crystallographic Data Centre
#                                CCDC 
#
#######################################################################
#
# If this CIF has been generated from an entry in the Cambridge 
# Structural Database, then it will include bibliographic, chemical, 
# crystal, experimental, refinement or atomic coordinate data resulting 
# from the CCDC's data processing and validation procedures.
#
#######################################################################

data_SISCEF
_chemical_formula_moiety         
'2(C34 H16 Cl2 N8 O12),2(C16 H36 N1 1+),C10 H6 O6 S2 2-,2(C4 H10 O1)'
_chemical_name_systematic        
'bis(tetrabutylammonium) bis(29,38-dichloro-5,19,26,32,35,41-hexaoxa-8,16,28,30,37,39,42,44-octaazanonacyclo[21.11.7.1^3,33^.1^8,11^.1^10,14^.1^13,16^.1^21,25^.1^27,31^.1^36,40^]octatetraconta-1,3(43),10(47),11,13,21(45),22,24,27(44),28,30,33,36(42),37,39-pentadecaene-4,9,15,20,46,48-hexone) naphthalene-1,5-disulfonate diethyl ether solvate'
_symmetry_cell_setting           triclinic
_symmetry_space_group_name_H-M   'P -1'
_symmetry_Int_Tables_number      2
_space_group_name_Hall           '-P 1'
loop_
_symmetry_equiv_pos_site_id
_symmetry_equiv_pos_as_xyz
1 x,y,z
2 -x,-y,-z
_cell_length_a                   18.522(5)
_cell_length_b                   18.643(4)
_cell_length_c                   19.169(5)
_cell_angle_alpha                87.147(11)
_cell_angle_beta                 78.044(6)
_cell_angle_gamma                85.787(10)
_cell_volume                     6454.02
_exptl_crystal_colour            colorless
_exptl_crystal_description       block
_cell_formula_units_Z            2
loop_
_atom_site_label
_atom_site_type_symbol
_atom_site_fract_x
_atom_site_fract_y
_atom_site_fract_z
Cl1 Cl 0.33011(19) 0.9931(2) 0.48255(14)
Cl2 Cl -0.08718(14) 0.97482(16) 0.09808(17)
O1 O 0.3050(4) 1.1032(3) 0.2549(3)
O2 O 0.1341(3) 1.0951(3) 0.0986(3)
O3 O 0.1460(3) 0.8477(3) 0.1121(3)
O4 O 0.2958(4) 0.8569(3) 0.2886(3)
O5 O 0.4426(4) 1.1918(4) 0.0181(3)
O6 O 0.3596(3) 1.1924(3) -0.0506(3)
O7 O 0.2660(3) 1.1042(3) -0.1312(3)
O8 O 0.5148(3) 1.1011(3) -0.2285(3)
O9 O 0.5348(3) 0.7775(3) -0.1800(3)
O10 O 0.2860(3) 0.7844(3) -0.0899(3)
O11 O 0.3829(3) 0.7193(3) 0.0086(3)
O12 O 0.4425(3) 0.6976(3) 0.0986(3)
N1 N 0.3128(4) 0.9231(4) 0.3760(3)
N2 N 0.3163(4) 1.0506(4) 0.3595(4)
N3 N 0.2999(3) 0.9796(3) 0.2640(3)
N4 N 0.0337(4) 1.0370(4) 0.1003(4)
N5 N 0.0396(4) 0.9096(4) 0.1046(4)
N6 N 0.1473(3) 0.9719(4) 0.1078(3)
N7 N 0.3894(3) 1.1218(3) -0.1805(3)
N8 N 0.4122(4) 0.7613(4) -0.1319(3)
C1 C 0.3031(4) 0.9238(4) 0.3094(4)
C2 C 0.3173(5) 0.9888(7) 0.3960(5)
C3 C 0.3064(5) 1.0414(5) 0.2942(4)
C4 C 0.2885(5) 1.1068(4) 0.1871(4)
C5 C 0.2196(5) 1.0905(4) 0.1785(4)
H1 H 0.1844 1.0727 0.2159
C6 C 0.2066(5) 1.1024(4) 0.1096(5)
C7 C 0.2572(5) 1.1299(4) 0.0534(5)
H2 H 0.2461 1.1370 0.0084
C8 C 0.3250(4) 1.1465(4) 0.0656(4)
C9 C 0.3409(5) 1.1350(4) 0.1332(4)
H3 H 0.3863 1.1462 0.1419
C10 C 0.3833(5) 1.1795(4) 0.0093(4)
C11 C 0.4101(5) 1.2216(4) -0.1132(5)
H4 H 0.4604 1.2030 -0.1133
H5 H 0.4082 1.2736 -0.1120
C12 C 0.3869(5) 1.1998(5) -0.1774(4)
H6 H 0.3370 1.2196 -0.1773
H7 H 0.4193 1.2191 -0.2195
C13 C 0.3296(5) 1.0807(5) -0.1530(4)
C14 C 0.3587(4) 1.0044(4) -0.1561(4)
C15 C 0.3231(4) 0.9429(5) -0.1327(4)
H8 H 0.2728 0.9442 -0.1130
C16 C 0.3662(5) 0.8791(5) -0.1400(4)
C17 C 0.3468(5) 0.8042(5) -0.1171(4)
C18 C 0.4718(5) 0.8020(5) -0.1635(4)
C19 C 0.4416(4) 0.8778(4) -0.1694(3)
C20 C 0.4769(5) 0.9393(5) -0.1933(4)
H9 H 0.5272 0.9381 -0.2131
C21 C 0.4331(4) 1.0034(4) -0.1859(4)
C22 C 0.4533(5) 1.0801(5) -0.2012(4)
C23 C 0.4207(5) 0.6849(4) -0.1094(4)
H10 H 0.3750 0.6622 -0.1082
H11 H 0.4594 0.6604 -0.1437
C24 C 0.4395(5) 0.6773(4) -0.0387(4)
H12 H 0.4403 0.6272 -0.0226
H13 H 0.4877 0.6950 -0.0402
C25 C 0.3917(5) 0.7260(4) 0.0749(5)
C26 C 0.3323(4) 0.7751(4) 0.1165(4)
C27 C 0.3422(4) 0.7988(4) 0.1806(4)
H14 H 0.3852 0.7853 0.1972
C28 C 0.2873(5) 0.8427(4) 0.2192(3)
C29 C 0.2220(5) 0.8628(4) 0.1980(4)
H15 H 0.1849 0.8914 0.2259
C30 C 0.2142(4) 0.8387(4) 0.1333(4)
C31 C 0.2685(4) 0.7966(4) 0.0919(4)
H16 H 0.2626 0.7825 0.0477
C32 C 0.1116(4) 0.9118(4) 0.1085(4)
C33 C 0.0061(4) 0.9728(5) 0.1008(4)
C34 C 0.1050(4) 1.0318(4) 0.1037(4)
Cl3 Cl 0.3427(2) 0.43309(19) 0.97474(13)
Cl4 Cl -0.08704(11) 0.55311(13) 0.59297(14)
O13 O 0.3132(3) 0.5859(3) 0.7712(3)
O14 O 0.1521(3) 0.6314(3) 0.6031(3)
O15 O 0.1238(3) 0.3889(3) 0.6018(3)
O16 O 0.2918(3) 0.3412(3) 0.7629(2)
O17 O 0.4731(3) 0.6883(3) 0.5495(3)
O18 O 0.3911(3) 0.7202(3) 0.4808(3)
O19 O 0.2844(3) 0.6751(4) 0.3880(3)
O20 O 0.5319(3) 0.6450(3) 0.2891(3)
O21 O 0.5003(3) 0.3239(3) 0.2821(3)
O22 O 0.2529(3) 0.3601(3) 0.3772(3)
O23 O 0.3413(3) 0.2553(3) 0.4631(3)
O24 O 0.4020(3) 0.2020(3) 0.5429(3)
N9 N 0.3135(4) 0.3875(4) 0.8602(3)
N10 N 0.3257(4) 0.5137(4) 0.8641(4)
N11 N 0.3021(3) 0.4646(3) 0.7590(3)
N12 N 0.0434(3) 0.5927(3) 0.5969(3)
N13 N 0.0283(3) 0.4669(3) 0.5992(3)
N14 N 0.1451(3) 0.5094(3) 0.6046(3)
N15 N 0.4106(4) 0.6792(4) 0.3394(4)
N16 N 0.3748(4) 0.3227(4) 0.3303(3)
C35 C 0.3025(4) 0.4012(4) 0.7944(4)
C36 C 0.3251(5) 0.4466(6) 0.8889(4)
C37 C 0.3134(4) 0.5179(5) 0.7966(3)
C38 C 0.3018(4) 0.6017(4) 0.7012(3)
C39 C 0.2326(4) 0.5986(4) 0.6860(4)
H17 H 0.1938 0.5799 0.7190
C40 C 0.2236(4) 0.6246(3) 0.6196(4)
C41 C 0.2795(4) 0.6536(4) 0.5708(4)
H18 H 0.2717 0.6708 0.5264
C42 C 0.3481(4) 0.6570(4) 0.5886(4)
C43 C 0.3590(4) 0.6314(3) 0.6540(4)
H19 H 0.4046 0.6342 0.6664
C44 C 0.4113(4) 0.6899(4) 0.5387(4)
C45 C 0.4482(4) 0.7522(5) 0.4273(4)
H20 H 0.4949 0.7239 0.4230
H21 H 0.4551 0.8009 0.4392
C46 C 0.4194(4) 0.7522(5) 0.3588(4)
H22 H 0.3720 0.7796 0.3648
H23 H 0.4535 0.7753 0.3205
C47 C 0.3435(5) 0.6455(5) 0.3613(4)
C48 C 0.3606(4) 0.5676(5) 0.3465(4)
C49 C 0.3153(4) 0.5109(5) 0.3609(4)
H24 H 0.2653 0.5171 0.3817
C50 C 0.3490(4) 0.4453(5) 0.3425(4)
C51 C 0.3169(5) 0.3730(6) 0.3531(4)
C52 C 0.4414(5) 0.3545(5) 0.3044(4)
C53 C 0.4237(4) 0.4332(5) 0.3133(4)
C54 C 0.4698(5) 0.4917(5) 0.2978(4)
H25 H 0.5198 0.4853 0.2774
C55 C 0.4359(5) 0.5588(5) 0.3148(4)
C56 C 0.4685(5) 0.6304(5) 0.3115(4)
C57 C 0.3681(5) 0.2448(5) 0.3376(5)
H26 H 0.4001 0.2216 0.2973
H27 H 0.3175 0.2342 0.3378
C58 C 0.3891(5) 0.2160(5) 0.4057(4)
H28 H 0.3820 0.1648 0.4120
H29 H 0.4406 0.2233 0.4048
C59 C 0.3545(4) 0.2436(4) 0.5284(4)
C60 C 0.3036(4) 0.2914(4) 0.5804(4)
C61 C 0.3209(4) 0.2998(4) 0.6471(4)
H30 H 0.3636 0.2770 0.6584
C62 C 0.2737(4) 0.3426(4) 0.6958(3)
C63 C 0.2102(4) 0.3752(4) 0.6811(4)
H31 H 0.1788 0.4033 0.7149
C64 C 0.1926(4) 0.3664(4) 0.6155(4)
C65 C 0.2407(4) 0.3266(4) 0.5640(4)
H32 H 0.2306 0.3238 0.5187
C66 C 0.0993(4) 0.4581(4) 0.6027(4)
C67 C 0.0062(4) 0.5345(4) 0.5969(4)
C68 C 0.1127(4) 0.5734(4) 0.6024(4)
N17 N 0.9362(4) 0.2535(4) 0.1180(5)
C69 C 0.7036(8) 0.1805(8) 0.2920(8)
H33 H 0.6748 0.2127 0.2661
H34 H 0.7123 0.2041 0.3325
H35 H 0.6771 0.1383 0.3078
C70 C 0.7770(6) 0.1588(6) 0.2436(5)
H36 H 0.8077 0.1302 0.2713
H37 H 0.7681 0.1289 0.2066
C71 C 0.8184(6) 0.2226(5) 0.2088(7)
H38 H 0.7850 0.2565 0.1893
H39 H 0.8374 0.2467 0.2443
C72 C 0.8816(5) 0.1983(4) 0.1501(5)
H40 H 0.8610 0.1808 0.1121
H41 H 0.9088 0.1577 0.1687
C73 C 0.7760(8) 0.3896(7) -0.0321(9)
H42 H 0.8071 0.3722 -0.0752
H43 H 0.7604 0.4391 -0.0394
H44 H 0.7334 0.3616 -0.0194
C74 C 0.8185(10) 0.3830(8) 0.0270(10)
H45 H 0.7843 0.3889 0.0724
H46 H 0.8524 0.4211 0.0210
C75 C 0.8626(8) 0.3092(7) 0.0279(9)
H47 H 0.8303 0.2696 0.0376
H48 H 0.8982 0.3015 -0.0163
C76 C 0.8982(6) 0.3196(6) 0.0872(7)
H49 H 0.8612 0.3404 0.1255
H50 H 0.9348 0.3548 0.0718
C77 C 1.1689(6) 0.2676(6) -0.0768(8)
H51 H 1.1961 0.2409 -0.1165
H52 H 1.2007 0.2745 -0.0443
H53 H 1.1513 0.3136 -0.0937
C78 C 1.1036(6) 0.2261(6) -0.0386(6)
H54 H 1.0731 0.2178 -0.0725
H55 H 1.1222 0.1795 -0.0227
C79 C 1.0560(6) 0.2626(6) 0.0244(6)
H56 H 1.0359 0.3086 0.0087
H57 H 1.0863 0.2717 0.0583
C80 C 0.9930(5) 0.2184(5) 0.0615(5)
H58 H 0.9683 0.2028 0.0255
H59 H 1.0140 0.1755 0.0826
C81 C 1.1053(10) 0.2922(10) 0.2459(10)
H60 H 1.0920 0.3337 0.2183
H61 H 1.1410 0.2612 0.2158
H62 H 1.1263 0.3074 0.2841
C82 C 1.0408(8) 0.2542(7) 0.2747(7)
H63 H 1.0043 0.2869 0.3029
H64 H 1.0540 0.2157 0.3067
C83 C 1.0054(7) 0.2218(6) 0.2187(6)
H65 H 1.0427 0.1930 0.1869
H66 H 0.9675 0.1905 0.2424
C84 C 0.9714(6) 0.2803(5) 0.1757(6)
H67 H 1.0095 0.3121 0.1537
H68 H 0.9340 0.3085 0.2081
N18 N 0.9503(5) 0.2520(5) 0.6075(6)
C85 C 0.8362(13) 0.1667(11) 0.4223(9)
H69 H 0.8737 0.1290 0.4081
H70 H 0.8534 0.2118 0.4016
H71 H 0.7922 0.1570 0.4062
C86 C 0.8189(9) 0.1703(8) 0.5032(9)
H72 H 0.8302 0.1240 0.5251
H73 H 0.7672 0.1847 0.5206
C87 C 0.8690(7) 0.2275(6) 0.5197(7)
H74 H 0.9093 0.2346 0.4792
H75 H 0.8407 0.2731 0.5290
C88 C 0.8992(6) 0.2013(6) 0.5842(7)
H76 H 0.9262 0.1552 0.5741
H77 H 0.8580 0.1937 0.6237
C89 C 1.1617(7) 0.1968(7) 0.4136(9)
H78 H 1.1959 0.2188 0.3754
H79 H 1.1371 0.1608 0.3949
H80 H 1.1881 0.1748 0.4481
C90 C 1.1091(8) 0.2494(8) 0.4463(8)
H81 H 1.0793 0.2675 0.4123
H82 H 1.1350 0.2893 0.4577
C91 C 1.0577(7) 0.2233(8) 0.5142(8)
H83 H 1.0300 0.1851 0.5024
H84 H 1.0876 0.2030 0.5473
C92 C 1.0076(7) 0.2773(7) 0.5485(7)
H85 H 0.9836 0.3027 0.5133
H86 H 1.0354 0.3116 0.5667
C93 C 1.1349(10) 0.2059(10) 0.7674(10)
H87 H 1.1758 0.2112 0.7279
H88 H 1.1484 0.1698 0.8007
H89 H 1.1224 0.2509 0.7906
C94 C 1.0695(10) 0.1838(9) 0.7408(10)
H90 H 1.0307 0.1718 0.7811
H91 H 1.0838 0.1411 0.7130
C95 C 1.0393(9) 0.2448(9) 0.6939(9)
H92 H 1.0156 0.2847 0.7225
H93 H 1.0785 0.2623 0.6566
C96 C 0.9853(7) 0.2081(7) 0.6637(7)
H94 H 0.9459 0.1940 0.7026
H95 H 1.0098 0.1644 0.6422
C97 C 0.8538(13) 0.4307(12) 0.7651(12)
H96 H 0.8886 0.4465 0.7238
H97 H 0.8800 0.4062 0.7985
H98 H 0.8250 0.4716 0.7869
C98 C 0.8041(9) 0.3807(8) 0.7434(9)
H99 H 0.7768 0.4060 0.7105
H100 H 0.7686 0.3656 0.7852
C99 C 0.8498(8) 0.3091(8) 0.7050(8)
H101 H 0.8744 0.2835 0.7397
H102 H 0.8136 0.2780 0.6951
C100 C 0.9043(8) 0.3178(7) 0.6400(7)
H103 H 0.9384 0.3518 0.6487
H104 H 0.8790 0.3401 0.6041
S1 S 0.9217(3) 0.50282(16) 0.17966(18)
O25 O 0.8590(5) 0.4662(6) 0.1707(4)
O26 O 0.9110(7) 0.5802(5) 0.1837(5)
O27 O 0.9542(6) 0.4702(5) 0.2346(4)
C101 C 0.8887(6) 0.5559(6) -0.0445(6)
H105 H 0.8428 0.5767 -0.0496
C102 C 0.9031(6) 0.5400(5) 0.0212(6)
H106 H 0.8662 0.5503 0.0609
C103 C 0.9728(5) 0.5081(5) 0.0320(5)
C104 C 0.9889(6) 0.4887(5) 0.0982(5)
C105 C 1.0555(6) 0.4597(5) 0.1055(6)
H107 H 1.0652 0.4498 0.1509
S1A S 1.0783(3) 0.49718(16) -0.17966(18)
O25A O 1.1410(5) 0.5338(6) -0.1707(4)
O26A O 1.0890(7) 0.4198(5) -0.1837(5)
O27A O 1.0458(6) 0.5298(5) -0.2346(4)
C101A C 1.1113(6) 0.4441(6) 0.0445(6)
H105A H 1.1572 0.4233 0.0496
C102A C 1.0969(6) 0.4600(5) -0.0212(6)
H106A H 1.1338 0.4497 -0.0609
C103A C 1.0272(5) 0.4919(5) -0.0320(5)
C104A C 1.0111(6) 0.5113(5) -0.0982(5)
C105A C 0.9445(6) 0.5403(5) -0.1055(6)
H107A H 0.9348 0.5502 -0.1509
S2 S 0.9276(2) 1.00296(13) 0.68127(15)
O28 O 0.9119(8) 0.9292(4) 0.6907(5)
O29 O 0.8660(4) 1.0526(4) 0.6712(4)
O30 O 0.9660(7) 1.0256(7) 0.7359(4)
C106 C 0.8816(6) 0.9753(7) 0.4637(8)
H108 H 0.8335 0.9651 0.4624
C107 C 0.8998(5) 0.9851(5) 0.5270(6)
H109 H 0.8635 0.9832 0.5685
C108 C 0.9718(5) 0.9980(4) 0.5315(4)
C109 C 0.9931(6) 1.0060(5) 0.5994(5)
C110 C 1.0659(7) 1.0198(6) 0.6000(6)
H110 H 1.0797 1.0258 0.6432
S2A S 1.0724(2) 0.99704(13) 0.31873(15)
O28A O 1.0881(8) 1.0708(4) 0.3093(5)
O29A O 1.1340(4) 0.9474(4) 0.3288(4)
O30A O 1.0340(7) 0.9744(7) 0.2641(4)
C106A C 1.1184(6) 1.0247(7) 0.5363(8)
H108A H 1.1665 1.0349 0.5376
C107A C 1.1002(5) 1.0149(5) 0.4730(6)
H109A H 1.1365 1.0168 0.4315
C108A C 1.0282(5) 1.0020(4) 0.4685(4)
C109A C 1.0069(6) 0.9940(5) 0.4006(5)
C110A C 0.9341(7) 0.9802(6) 0.4000(6)
H110A H 0.9203 0.9742 0.3568
O31 O 0.3695(6) 0.0029(7) 0.6485(6)
C111 C 0.4732(12) -0.0620(15) 0.6025(11)
H111 H 0.4978 -0.0662 0.5534
H112 H 0.4332 -0.0934 0.6130
H113 H 0.5078 -0.0754 0.6327
C112 C 0.4421(14) 0.0179(15) 0.6161(8)
H114 H 0.4667 0.0412 0.6479
H115 H 0.4444 0.0464 0.5721
C113 C 0.2456(13) 0.0418(12) 0.6885(11)
H116 H 0.2306 0.0121 0.6552
H117 H 0.2097 0.0816 0.6999
H118 H 0.2492 0.0139 0.7312
C114 C 0.3187(15) 0.0695(10) 0.6562(9)
H119 H 0.3332 0.1029 0.6872
H120 H 0.3180 0.0934 0.6102
O32 O 0.3870(6) 0.4280(4) 0.1348(5)
C115 C 0.3088(10) 0.3309(7) 0.1517(8)
H121 H 0.3238 0.3174 0.1029
H122 H 0.2588 0.3187 0.1699
H123 H 0.3408 0.3057 0.1796
C116 C 0.3137(9) 0.4097(8) 0.1559(7)
H124 H 0.2840 0.4352 0.1253
H125 H 0.2943 0.4242 0.2045
C117 C 0.3982(8) 0.5053(7) 0.1329(7)
H126 H 0.3707 0.5309 0.1004
H127 H 0.3810 0.5244 0.1800
C118 C 0.4761(9) 0.5141(7) 0.1091(7)
H128 H 0.4934 0.4915 0.0642
H129 H 0.5023 0.4922 0.1437
H130 H 0.4845 0.5644 0.1034
loop_
_geom_bond_atom_site_label_1
_geom_bond_atom_site_label_2
_geom_bond_site_symmetry_1
_geom_bond_site_symmetry_2
Cl1 C2 1_555 1_555
Cl2 C33 1_555 1_555
O1 C3 1_555 1_555
O2 C6 1_555 1_555
O3 C30 1_555 1_555
O4 C1 1_555 1_555
O5 C10 1_555 1_555
O6 C10 1_555 1_555
O7 C13 1_555 1_555
O8 C22 1_555 1_555
O9 C18 1_555 1_555
O10 C17 1_555 1_555
O11 C24 1_555 1_555
O12 C25 1_555 1_555
N1 C1 1_555 1_555
N2 C2 1_555 1_555
N3 C1 1_555 1_555
N4 C33 1_555 1_555
N5 C32 1_555 1_555
N6 C32 1_555 1_555
N7 C12 1_555 1_555
N8 C17 1_555 1_555
C2 N1 1_555 1_555
C3 N2 1_555 1_555
C4 O1 1_555 1_555
C5 C4 1_555 1_555
H1 C5 1_555 1_555
C6 C5 1_555 1_555
C7 C6 1_555 1_555
H2 C7 1_555 1_555
C8 C7 1_555 1_555
C9 C4 1_555 1_555
H3 C9 1_555 1_555
C10 C8 1_555 1_555
C11 O6 1_555 1_555
H4 C11 1_555 1_555
H5 C11 1_555 1_555
C12 C11 1_555 1_555
H6 C12 1_555 1_555
H7 C12 1_555 1_555
C13 N7 1_555 1_555
C14 C13 1_555 1_555
C15 C14 1_555 1_555
H8 C15 1_555 1_555
C16 C15 1_555 1_555
C17 C16 1_555 1_555
C18 N8 1_555 1_555
C19 C16 1_555 1_555
C20 C19 1_555 1_555
H9 C20 1_555 1_555
C21 C14 1_555 1_555
C22 N7 1_555 1_555
C23 N8 1_555 1_555
H10 C23 1_555 1_555
H11 C23 1_555 1_555
C24 C23 1_555 1_555
H12 C24 1_555 1_555
H13 C24 1_555 1_555
C25 O11 1_555 1_555
C26 C25 1_555 1_555
C27 C26 1_555 1_555
H14 C27 1_555 1_555
C28 O4 1_555 1_555
C29 C28 1_555 1_555
H15 C29 1_555 1_555
C30 C29 1_555 1_555
C31 C26 1_555 1_555
H16 C31 1_555 1_555
C32 O3 1_555 1_555
C33 N5 1_555 1_555
C34 O2 1_555 1_555
Cl3 C36 1_555 1_555
Cl4 C67 1_555 1_555
O13 C37 1_555 1_555
O14 C40 1_555 1_555
O15 C64 1_555 1_555
O16 C35 1_555 1_555
O17 C44 1_555 1_555
O18 C44 1_555 1_555
O19 C47 1_555 1_555
O20 C56 1_555 1_555
O21 C52 1_555 1_555
O22 C51 1_555 1_555
O23 C58 1_555 1_555
O24 C59 1_555 1_555
N9 C35 1_555 1_555
N10 C36 1_555 1_555
N11 C35 1_555 1_555
N12 C67 1_555 1_555
N13 C66 1_555 1_555
N14 C66 1_555 1_555
N15 C46 1_555 1_555
N16 C51 1_555 1_555
C36 N9 1_555 1_555
C37 N10 1_555 1_555
C38 O13 1_555 1_555
C39 C38 1_555 1_555
H17 C39 1_555 1_555
C40 C39 1_555 1_555
C41 C40 1_555 1_555
H18 C41 1_555 1_555
C42 C41 1_555 1_555
C43 C38 1_555 1_555
H19 C43 1_555 1_555
C44 C42 1_555 1_555
C45 O18 1_555 1_555
H20 C45 1_555 1_555
H21 C45 1_555 1_555
C46 C45 1_555 1_555
H22 C46 1_555 1_555
H23 C46 1_555 1_555
C47 N15 1_555 1_555
C48 C47 1_555 1_555
C49 C48 1_555 1_555
H24 C49 1_555 1_555
C50 C49 1_555 1_555
C51 C50 1_555 1_555
C52 N16 1_555 1_555
C53 C50 1_555 1_555
C54 C53 1_555 1_555
H25 C54 1_555 1_555
C55 C48 1_555 1_555
C56 N15 1_555 1_555
C57 N16 1_555 1_555
H26 C57 1_555 1_555
H27 C57 1_555 1_555
C58 C57 1_555 1_555
H28 C58 1_555 1_555
H29 C58 1_555 1_555
C59 O23 1_555 1_555
C60 C59 1_555 1_555
C61 C60 1_555 1_555
H30 C61 1_555 1_555
C62 O16 1_555 1_555
C63 C62 1_555 1_555
H31 C63 1_555 1_555
C64 C63 1_555 1_555
C65 C60 1_555 1_555
H32 C65 1_555 1_555
C66 O15 1_555 1_555
C67 N13 1_555 1_555
C68 O14 1_555 1_555
N17 C72 1_555 1_555
C69 H33 1_555 1_555
H34 C69 1_555 1_555
H35 C69 1_555 1_555
C70 C69 1_555 1_555
H36 C70 1_555 1_555
H37 C70 1_555 1_555
C71 C70 1_555 1_555
H38 C71 1_555 1_555
H39 C71 1_555 1_555
C72 C71 1_555 1_555
H40 C72 1_555 1_555
H41 C72 1_555 1_555
C73 H42 1_555 1_555
H43 C73 1_555 1_555
H44 C73 1_555 1_555
C74 C73 1_555 1_555
H45 C74 1_555 1_555
H46 C74 1_555 1_555
C75 C74 1_555 1_555
H47 C75 1_555 1_555
H48 C75 1_555 1_555
C76 N17 1_555 1_555
H49 C76 1_555 1_555
H50 C76 1_555 1_555
C77 H51 1_555 1_555
H52 C77 1_555 1_555
H53 C77 1_555 1_555
C78 C77 1_555 1_555
H54 C78 1_555 1_555
H55 C78 1_555 1_555
C79 C78 1_555 1_555
H56 C79 1_555 1_555
H57 C79 1_555 1_555
C80 N17 1_555 1_555
H58 C80 1_555 1_555
H59 C80 1_555 1_555
C81 H60 1_555 1_555
H61 C81 1_555 1_555
H62 C81 1_555 1_555
C82 C81 1_555 1_555
H63 C82 1_555 1_555
H64 C82 1_555 1_555
C83 C82 1_555 1_555
H65 C83 1_555 1_555
H66 C83 1_555 1_555
C84 N17 1_555 1_555
H67 C84 1_555 1_555
H68 C84 1_555 1_555
N18 C88 1_555 1_555
C85 H69 1_555 1_555
H70 C85 1_555 1_555
H71 C85 1_555 1_555
C86 C85 1_555 1_555
H72 C86 1_555 1_555
H73 C86 1_555 1_555
C87 C86 1_555 1_555
H74 C87 1_555 1_555
H75 C87 1_555 1_555
C88 C87 1_555 1_555
H76 C88 1_555 1_555
H77 C88 1_555 1_555
C89 H78 1_555 1_555
H79 C89 1_555 1_555
H80 C89 1_555 1_555
C90 C89 1_555 1_555
H81 C90 1_555 1_555
H82 C90 1_555 1_555
C91 C90 1_555 1_555
H83 C91 1_555 1_555
H84 C91 1_555 1_555
C92 N18 1_555 1_555
H85 C92 1_555 1_555
H86 C92 1_555 1_555
C93 H87 1_555 1_555
H88 C93 1_555 1_555
H89 C93 1_555 1_555
C94 C93 1_555 1_555
H90 C94 1_555 1_555
H91 C94 1_555 1_555
C95 C94 1_555 1_555
H92 C95 1_555 1_555
H93 C95 1_555 1_555
C96 N18 1_555 1_555
H94 C96 1_555 1_555
H95 C96 1_555 1_555
C97 H96 1_555 1_555
H97 C97 1_555 1_555
H98 C97 1_555 1_555
C98 C97 1_555 1_555
H99 C98 1_555 1_555
H100 C98 1_555 1_555
C99 C98 1_555 1_555
H101 C99 1_555 1_555
H102 C99 1_555 1_555
C100 N18 1_555 1_555
H103 C100 1_555 1_555
H104 C100 1_555 1_555
S1 O25 1_555 1_555
O26 S1 1_555 1_555
O27 S1 1_555 1_555
C101 H105 1_555 1_555
C102 C101 1_555 1_555
H106 C102 1_555 1_555
C103 C102 1_555 1_555
C104 S1 1_555 1_555
C105 C104 1_555 1_555
H107 C105 1_555 1_555
S2 O28 1_555 1_555
O29 S2 1_555 1_555
O30 S2 1_555 1_555
C106 H108 1_555 1_555
C107 C106 1_555 1_555
H109 C107 1_555 1_555
C108 C107 1_555 1_555
C109 S2 1_555 1_555
C110 C109 1_555 1_555
H110 C110 1_555 1_555
O31 C112 1_555 1_555
C111 H111 1_555 1_555
H112 C111 1_555 1_555
H113 C111 1_555 1_555
C112 C111 1_555 1_555
H114 C112 1_555 1_555
H115 C112 1_555 1_555
C113 H116 1_555 1_555
H117 C113 1_555 1_555
H118 C113 1_555 1_555
C114 O31 1_555 1_555
H119 C114 1_555 1_555
H120 C114 1_555 1_555
O32 C116 1_555 1_555
C115 H121 1_555 1_555
H122 C115 1_555 1_555
H123 C115 1_555 1_555
C116 C115 1_555 1_555
H124 C116 1_555 1_555
H125 C116 1_555 1_555
C117 O32 1_555 1_555
H126 C117 1_555 1_555
H127 C117 1_555 1_555
C118 C117 1_555 1_555
H128 C118 1_555 1_555
H129 C118 1_555 1_555
H130 C118 1_555 1_555
S1A O25A 1_555 1_555
O26A S1A 1_555 1_555
O27A S1A 1_555 1_555
C101A C105 1_555 1_555
H105A C101A 1_555 1_555
C102A C101A 1_555 1_555
H106A C102A 1_555 1_555
C103A C103 1_555 1_555
C104A S1A 1_555 1_555
C105A C101 1_555 1_555
H107A C105A 1_555 1_555
S2A O28A 1_555 1_555
O29A S2A 1_555 1_555
O30A S2A 1_555 1_555
C106A C110 1_555 1_555
H108A C106A 1_555 1_555
C107A C106A 1_555 1_555
H109A C107A 1_555 1_555
C108A C108 1_555 1_555
C109A S2A 1_555 1_555
C110A C106 1_555 1_555
H110A C110A 1_555 1_555
N3 C3 1_555 1_555
N4 C34 1_555 1_555
N6 C34 1_555 1_555
C8 C9 1_555 1_555
C18 C19 1_555 1_555
C20 C21 1_555 1_555
C21 C22 1_555 1_555
C27 C28 1_555 1_555
C30 C31 1_555 1_555
N11 C37 1_555 1_555
N12 C68 1_555 1_555
N14 C68 1_555 1_555
C42 C43 1_555 1_555
C52 C53 1_555 1_555
C54 C55 1_555 1_555
C55 C56 1_555 1_555
C61 C62 1_555 1_555
C64 C65 1_555 1_555
C75 C76 1_555 1_555
C79 C80 1_555 1_555
C83 C84 1_555 1_555
C91 C92 1_555 1_555
C95 C96 1_555 1_555
C99 C100 1_555 1_555
C103 C104 1_555 1_555
C108 C109 1_555 1_555
C113 C114 1_555 1_555
C102A C103A 1_555 1_555
C103A C104A 1_555 1_555
C104A C105A 1_555 1_555
C107A C108A 1_555 1_555
C108A C109A 1_555 1_555
C109A C110A 1_555 1_555

#END
