
#######################################################################
#
#                 Cambridge Crystallographic Data Centre
#                                CCDC 
#
#######################################################################
#
# If this CIF has been generated from an entry in the Cambridge 
# Structural Database, then it will include bibliographic, chemical, 
# crystal, experimental, refinement or atomic coordinate data resulting 
# from the CCDC's data processing and validation procedures.
#
#######################################################################

data_SISDEG
_chemical_formula_moiety         'C13 H13 Br1 N2 O2'
_chemical_name_systematic        'methyl 5-(4-bromophenyl)-4-cyanoprolinate'
_symmetry_cell_setting           monoclinic
_symmetry_space_group_name_H-M   'P 21'
_symmetry_Int_Tables_number      4
_space_group_name_Hall           'P 2yb'
loop_
_symmetry_equiv_pos_site_id
_symmetry_equiv_pos_as_xyz
1 x,y,z
2 -x,1/2+y,-z
_cell_length_a                   10.4672(6)
_cell_length_b                   5.7450(3)
_cell_length_c                   11.4377(7)
_cell_angle_alpha                90
_cell_angle_beta                 110.754(7)
_cell_angle_gamma                90
_cell_volume                     643.165
_exptl_crystal_colour            colorless
_exptl_crystal_description       Block
_cell_formula_units_Z            2
loop_
_atom_site_label
_atom_site_type_symbol
_atom_site_fract_x
_atom_site_fract_y
_atom_site_fract_z
Br1 Br -0.17205(7) 0.7584(2) 0.15363(6)
O1 O 0.6368(5) 0.7270(12) 0.4114(5)
O2 O 0.8246(4) 0.5148(9) 0.4587(5)
C1 C 0.1133(6) 0.7071(12) 0.2610(6)
H1 H 0.1100 0.8509 0.2971
C2 C -0.0034(7) 0.6019(13) 0.1848(6)
N1 N 0.4225(6) 0.7416(14) 0.0848(5)
C3 C 0.4534(6) 0.3094(11) 0.1642(6)
H2 H 0.4190 0.2052 0.0920
C4 C -0.0015(7) 0.3904(14) 0.1307(6)
H3 H -0.0821 0.3219 0.0788
C5 C 0.6020(5) 0.2497(16) 0.2409(5)
H4 H 0.6641 0.3407 0.2133
H5 H 0.6197 0.0857 0.2335
C6 C 0.1232(5) 0.2798(15) 0.1545(5)
H6 H 0.1251 0.1357 0.1182
C7 C 0.3792(5) 0.2601(15) 0.2567(5)
H7 H 0.3641 0.0918 0.2575
N2 N 0.4804(5) 0.3250(11) 0.3772(5)
C8 C 0.6915(7) 0.5413(13) 0.4167(6)
C9 C 0.2452(6) 0.3791(11) 0.2315(6)
C10 C 0.2376(7) 0.5942(11) 0.2834(6)
H8 H 0.3177 0.6654 0.3347
C11 C 0.6184(6) 0.3112(12) 0.3762(5)
H9 H 0.6687 0.1872 0.4326
C12 C 0.9041(7) 0.7243(17) 0.4979(7)
H10 H 0.8552 0.8533 0.4490
H11 H 0.9900 0.7065 0.4862
H12 H 0.9201 0.7527 0.5847
C13 C 0.4366(7) 0.5535(13) 0.1224(6)
H13 H 0.468(4) 0.308(10) 0.445(4)
loop_
_geom_bond_atom_site_label_1
_geom_bond_atom_site_label_2
_geom_bond_site_symmetry_1
_geom_bond_site_symmetry_2
Br1 C2 1_555 1_555
O1 C8 1_555 1_555
O2 C8 1_555 1_555
C1 H1 1_555 1_555
C2 C1 1_555 1_555
N1 C13 1_555 1_555
C3 H2 1_555 1_555
C4 C2 1_555 1_555
H3 C4 1_555 1_555
C5 C3 1_555 1_555
H4 C5 1_555 1_555
H5 C5 1_555 1_555
C6 C4 1_555 1_555
H6 C6 1_555 1_555
C7 C3 1_555 1_555
H7 C7 1_555 1_555
N2 C7 1_555 1_555
C8 C11 1_555 1_555
C9 C6 1_555 1_555
C10 C1 1_555 1_555
H8 C10 1_555 1_555
C11 C5 1_555 1_555
H9 C11 1_555 1_555
C12 O2 1_555 1_555
H10 C12 1_555 1_555
H11 C12 1_555 1_555
H12 C12 1_555 1_555
C13 C3 1_555 1_555
H13 N2 1_555 1_555
C7 C9 1_555 1_555
N2 C11 1_555 1_555
C9 C10 1_555 1_555

#END
