
#######################################################################
#
#                 Cambridge Crystallographic Data Centre
#                                CCDC 
#
#######################################################################
#
# If this CIF has been generated from an entry in the Cambridge 
# Structural Database, then it will include bibliographic, chemical, 
# crystal, experimental, refinement or atomic coordinate data resulting 
# from the CCDC's data processing and validation procedures.
#
#######################################################################

data_SISFUY
_chemical_formula_moiety         'C3 H2 N6'
_chemical_name_systematic        '[1,2,4]triazolo[4,3-b][1,2,4,5]tetrazine'
_symmetry_cell_setting           orthorhombic
_symmetry_space_group_name_H-M   'P 21 21 21'
_symmetry_Int_Tables_number      19
_space_group_name_Hall           'P 2ac 2ab'
loop_
_symmetry_equiv_pos_site_id
_symmetry_equiv_pos_as_xyz
1 x,y,z
2 1/2-x,-y,1/2+z
3 1/2+x,1/2-y,-z
4 -x,1/2+y,1/2-z
_cell_length_a                   5.4334(7)
_cell_length_b                   6.5582(9)
_cell_length_c                   13.8317(19)
_cell_angle_alpha                90
_cell_angle_beta                 90
_cell_angle_gamma                90
_cell_volume                     492.869
_exptl_crystal_colour            colorless
_exptl_crystal_description       cuboid
_cell_formula_units_Z            4
loop_
_atom_site_label
_atom_site_type_symbol
_atom_site_fract_x
_atom_site_fract_y
_atom_site_fract_z
N1 N 0.1046(17) 1.0859(12) 0.9361(6)
N2 N -0.1652(13) 0.8127(11) 0.9388(5)
N3 N 0.2702(13) 1.0117(11) 0.8780(5)
N4 N 0.0000(14) 0.7239(12) 0.8785(5)
N5 N 0.3296(18) 0.6917(13) 0.7886(6)
N6 N 0.1901(16) 0.5233(11) 0.7827(5)
C1 C -0.1101(14) 0.9957(12) 0.9670(5)
H1 H -0.2157 1.0660 1.0081
C2 C 0.2097(12) 0.8210(10) 0.8488(4)
C3 C -0.0084(16) 0.5415(11) 0.8376(5)
H2 H -0.1311 0.4442 0.8458
loop_
_geom_bond_atom_site_label_1
_geom_bond_atom_site_label_2
_geom_bond_site_symmetry_1
_geom_bond_site_symmetry_2
N1 N3 1_555 1_555
N2 N4 1_555 1_555
N3 C2 1_555 1_555
N4 C2 1_555 1_555
N5 N6 1_555 1_555
N6 C3 1_555 1_555
C1 N1 1_555 1_555
H1 C1 1_555 1_555
C2 N5 1_555 1_555
C3 N4 1_555 1_555
H2 C3 1_555 1_555
N2 C1 1_555 1_555

#END
