
#######################################################################
#
#                 Cambridge Crystallographic Data Centre
#                                CCDC 
#
#######################################################################
#
# If this CIF has been generated from an entry in the Cambridge 
# Structural Database, then it will include bibliographic, chemical, 
# crystal, experimental, refinement or atomic coordinate data resulting 
# from the CCDC's data processing and validation procedures.
#
#######################################################################

data_SISLIR
_chemical_formula_moiety         'C58 H42 O2,C1 H2 Cl2'
_chemical_name_systematic        
'1,10-bis(biphenyl-4-yl)-3,4,7,8-tetraphenyldeca-2,4,6,8-tetraene-1,10-dione dichloromethane solvate'
_symmetry_cell_setting           triclinic
_symmetry_space_group_name_H-M   'P -1'
_symmetry_Int_Tables_number      2
_space_group_name_Hall           '-P 1'
loop_
_symmetry_equiv_pos_site_id
_symmetry_equiv_pos_as_xyz
1 x,y,z
2 -x,-y,-z
_cell_length_a                   10.4943(5)
_cell_length_b                   10.8997(5)
_cell_length_c                   21.0623(10)
_cell_angle_alpha                78.066(3)
_cell_angle_beta                 75.876(3)
_cell_angle_gamma                89.067(4)
_cell_volume                     2284.39
_exptl_crystal_colour            yellow
_exptl_crystal_description       block
_cell_formula_units_Z            2
loop_
_atom_site_label
_atom_site_type_symbol
_atom_site_fract_x
_atom_site_fract_y
_atom_site_fract_z
C1 C 0.5909(2) 0.2591(2) 0.53267(12)
O1 O 0.64700(19) 0.2044(2) 0.57429(9)
C2 C 0.4474(2) 0.2579(2) 0.54673(11)
H1 H 0.4072 0.3340 0.5378
C3 C 0.3705(2) 0.15375(19) 0.57175(9)
C4 C 0.42640(19) 0.02737(19) 0.58531(9)
C5 C 0.4898(2) -0.0265(2) 0.53543(10)
H2 H 0.5237 -0.1049 0.5473
C6 C 0.6693(2) 0.3249(2) 0.46526(12)
C7 C 0.8040(2) 0.3119(3) 0.44777(13)
H3 H 0.8446 0.2650 0.4790
C8 C 0.8791(2) 0.3664(3) 0.38559(13)
H4 H 0.9692 0.3546 0.3752
C9 C 0.8225(2) 0.4391(2) 0.33777(12)
C10 C 0.6877(2) 0.4516(3) 0.35564(13)
H5 H 0.6470 0.4993 0.3247
C11 C 0.6122(2) 0.3956(3) 0.41776(13)
H6 H 0.5217 0.4054 0.4279
C12 C 0.9039(2) 0.4995(2) 0.27077(12)
C13 C 1.0363(2) 0.5277(3) 0.26031(14)
H7 H 1.0757 0.5078 0.2960
C14 C 1.1110(3) 0.5849(3) 0.19815(15)
H8 H 1.2000 0.6027 0.1922
C15 C 1.0550(3) 0.6155(3) 0.14516(15)
H9 H 1.1055 0.6547 0.1033
C16 C 0.9240(3) 0.5881(3) 0.15385(14)
H10 H 0.8858 0.6081 0.1177
C17 C 0.8490(3) 0.5310(3) 0.21587(13)
H11 H 0.7602 0.5133 0.2213
C18 C 0.2264(2) 0.1585(2) 0.58171(10)
C19 C 0.1584(3) 0.2628(3) 0.59910(13)
H12 H 0.2033 0.3287 0.6070
C20 C 0.0263(4) 0.2681(5) 0.60444(17)
H13 H -0.0178 0.3379 0.6162
C21 C -0.0415(3) 0.1753(6) 0.59313(16)
H14 H -0.1311 0.1821 0.5961
C22 C 0.0215(3) 0.0693(4) 0.57703(16)
H15 H -0.0256 0.0037 0.5702
C23 C 0.1566(2) 0.0620(3) 0.57123(13)
H16 H 0.1998 -0.0087 0.5602
C24 C 0.4088(2) -0.0375(2) 0.65695(10)
C25 C 0.3025(3) -0.1148(4) 0.69102(17)
H17 H 0.2370 -0.1261 0.6698
C26 C 0.2905(4) -0.1768(5) 0.75670(19)
H18 H 0.2165 -0.2282 0.7789
C27 C 0.3836(4) -0.1642(3) 0.78883(13)
H19 H 0.3752 -0.2068 0.8328
C28 C 0.4893(5) -0.0886(3) 0.75606(17)
H20 H 0.5548 -0.0787 0.7776
C29 C 0.5017(4) -0.0250(3) 0.69045(15)
H21 H 0.5754 0.0273 0.6689
C1A C 0.4091(2) -0.2591(2) 0.46733(12)
O1A O 0.35300(19) -0.2044(2) 0.42571(9)
C2A C 0.5526(2) -0.2579(2) 0.45327(11)
H1A H 0.5928 -0.3340 0.4622
C3A C 0.6295(2) -0.15375(19) 0.42825(9)
C4A C 0.57360(19) -0.02737(19) 0.41469(9)
C5A C 0.5102(2) 0.0265(2) 0.46457(10)
H2A H 0.4763 0.1049 0.4527
C6A C 0.3307(2) -0.3249(2) 0.53474(12)
C7A C 0.1960(2) -0.3119(3) 0.55223(13)
H3A H 0.1554 -0.2650 0.5210
C8A C 0.1209(2) -0.3664(3) 0.61441(13)
H4A H 0.0308 -0.3546 0.6248
C9A C 0.1775(2) -0.4391(2) 0.66223(12)
C10A C 0.3123(2) -0.4516(3) 0.64436(13)
H5A H 0.3530 -0.4993 0.6753
C11A C 0.3878(2) -0.3956(3) 0.58224(13)
H6A H 0.4783 -0.4054 0.5721
C12A C 0.0961(2) -0.4995(2) 0.72923(12)
C13A C -0.0363(2) -0.5277(3) 0.73969(14)
H7A H -0.0757 -0.5078 0.7040
C14A C -0.1110(3) -0.5849(3) 0.80185(15)
H8A H -0.2000 -0.6027 0.8078
C15A C -0.0550(3) -0.6155(3) 0.85484(15)
H9A H -0.1055 -0.6547 0.8967
C16A C 0.0760(3) -0.5881(3) 0.84615(14)
H10A H 0.1142 -0.6081 0.8823
C17A C 0.1510(3) -0.5310(3) 0.78413(13)
H11A H 0.2398 -0.5133 0.7787
C18A C 0.7736(2) -0.1585(2) 0.41829(10)
C19A C 0.8416(3) -0.2628(3) 0.40090(13)
H12A H 0.7967 -0.3287 0.3930
C20A C 0.9737(4) -0.2681(5) 0.39556(17)
H13A H 1.0178 -0.3379 0.3838
C21A C 1.0415(3) -0.1753(6) 0.40687(16)
H14A H 1.1311 -0.1821 0.4039
C22A C 0.9785(3) -0.0693(4) 0.42297(16)
H15A H 1.0256 -0.0037 0.4298
C23A C 0.8434(2) -0.0620(3) 0.42877(13)
H16A H 0.8002 0.0087 0.4398
C24A C 0.5912(2) 0.0375(2) 0.34305(10)
C25A C 0.6975(3) 0.1148(4) 0.30898(17)
H17A H 0.7630 0.1261 0.3302
C26A C 0.7095(4) 0.1768(5) 0.24330(19)
H18A H 0.7835 0.2282 0.2211
C27A C 0.6164(4) 0.1642(3) 0.21117(13)
H19A H 0.6248 0.2068 0.1672
C28A C 0.5107(5) 0.0886(3) 0.24394(17)
H20A H 0.4452 0.0787 0.2224
C29A C 0.4983(4) 0.0250(3) 0.30955(15)
H21A H 0.4246 -0.0273 0.3311
Cl1 Cl 0.1201(3) 0.2244(2) 0.2281(2)
Cl2 Cl 0.34914(16) 0.28531(13) 0.11848(8)
C30 C 0.1943(6) 0.2668(6) 0.1373(3)
H22 H 0.1711 0.2015 0.1166
H23 H 0.1569 0.3439 0.1188
O2 O 0.2382(2) 0.21046(16) 0.97729(9)
C31 C 0.2854(2) 0.1657(2) 0.92874(11)
C32 C 0.2622(2) 0.0319(2) 0.92969(11)
H24 H 0.2374 0.0118 0.8935
C33 C 0.27478(19) -0.06197(19) 0.97971(9)
C34 C 0.32265(19) -0.04070(18) 1.03793(9)
C35 C 0.44909(19) -0.00817(19) 1.03058(10)
H25 H 0.4731 0.0050 1.0684
C36 C 0.3721(2) 0.24530(19) 0.86741(11)
C37 C 0.4291(2) 0.3549(2) 0.87342(12)
H26 H 0.4130 0.3767 0.9150
C38 C 0.5094(2) 0.4317(2) 0.81837(12)
H27 H 0.5469 0.5046 0.8236
C39 C 0.5357(2) 0.4031(2) 0.75528(11)
C40 C 0.4794(3) 0.2926(2) 0.74966(12)
H28 H 0.4954 0.2707 0.7081
C41 C 0.3998(3) 0.2146(2) 0.80510(12)
H29 H 0.3644 0.1403 0.8003
C42 C 0.6198(2) 0.4886(2) 0.69583(11)
C43 C 0.6252(3) 0.6171(2) 0.69193(14)
H30 H 0.5764 0.6505 0.7271
C44 C 0.7026(3) 0.6962(3) 0.63618(16)
H31 H 0.7055 0.7820 0.6346
C45 C 0.7742(3) 0.6502(3) 0.58387(14)
H32 H 0.8260 0.7040 0.5467
C46 C 0.7694(3) 0.5243(3) 0.58631(13)
H33 H 0.8174 0.4923 0.5504
C47 C 0.6934(3) 0.4437(3) 0.64203(13)
H34 H 0.6919 0.3579 0.6432
C48 C 0.2498(2) -0.19423(19) 0.97774(10)
C49 C 0.1442(2) -0.2306(2) 0.95599(12)
H35 H 0.0861 -0.1712 0.9427
C50 C 0.1255(3) -0.3551(3) 0.95402(15)
H36 H 0.0547 -0.3786 0.9393
C51 C 0.2092(3) -0.4436(3) 0.97332(16)
H37 H 0.1959 -0.5270 0.9717
C52 C 0.3130(3) -0.4092(2) 0.99507(16)
H38 H 0.3706 -0.4694 1.0082
C53 C 0.3331(2) -0.2863(2) 0.99775(13)
H39 H 0.4035 -0.2646 1.0132
C54 C 0.2260(2) -0.06250(19) 1.10375(10)
C55 C 0.0932(2) -0.0478(2) 1.10846(11)
H40 H 0.0634 -0.0270 1.0696
C56 C 0.0042(2) -0.0636(3) 1.16989(13)
H41 H -0.0846 -0.0520 1.1719
C57 C 0.0447(3) -0.0959(3) 1.22763(12)
H42 H -0.0158 -0.1055 1.2689
C58 C 0.1752(3) -0.1140(3) 1.22437(12)
H43 H 0.2034 -0.1369 1.2636
C59 C 0.2655(2) -0.0985(2) 1.16302(11)
H44 H 0.3538 -0.1123 1.1614
O2A O 0.7618(2) -0.21046(16) 1.02271(9)
C31A C 0.7146(2) -0.1657(2) 1.07126(11)
C32A C 0.7378(2) -0.0319(2) 1.07031(11)
H24A H 0.7626 -0.0118 1.1065
C33A C 0.72522(19) 0.06197(19) 1.02029(9)
C34A C 0.67735(19) 0.04070(18) 0.96207(9)
C35A C 0.55091(19) 0.00817(19) 0.96942(10)
H25A H 0.5269 -0.0050 0.9316
C36A C 0.6279(2) -0.24530(19) 1.13259(11)
C37A C 0.5709(2) -0.3549(2) 1.12658(12)
H26A H 0.5870 -0.3767 1.0850
C38A C 0.4906(2) -0.4317(2) 1.18163(12)
H27A H 0.4531 -0.5046 1.1764
C39A C 0.4643(2) -0.4031(2) 1.24472(11)
C40A C 0.5206(3) -0.2926(2) 1.25034(12)
H28A H 0.5046 -0.2707 1.2919
C41A C 0.6002(3) -0.2146(2) 1.19490(12)
H29A H 0.6356 -0.1403 1.1997
C42A C 0.3802(2) -0.4886(2) 1.30417(11)
C43A C 0.3748(3) -0.6171(2) 1.30807(14)
H30A H 0.4236 -0.6505 1.2729
C44A C 0.2974(3) -0.6962(3) 1.36382(16)
H31A H 0.2945 -0.7820 1.3654
C45A C 0.2258(3) -0.6502(3) 1.41613(14)
H32A H 0.1740 -0.7040 1.4533
C46A C 0.2306(3) -0.5243(3) 1.41369(13)
H33A H 0.1826 -0.4923 1.4496
C47A C 0.3066(3) -0.4437(3) 1.35797(13)
H34A H 0.3081 -0.3579 1.3568
C48A C 0.7502(2) 0.19423(19) 1.02226(10)
C49A C 0.8558(2) 0.2306(2) 1.04401(12)
H35A H 0.9139 0.1712 1.0573
C50A C 0.8745(3) 0.3551(3) 1.04598(15)
H36A H 0.9453 0.3786 1.0607
C51A C 0.7908(3) 0.4436(3) 1.02668(16)
H37A H 0.8041 0.5270 1.0283
C52A C 0.6870(3) 0.4092(2) 1.00493(16)
H38A H 0.6294 0.4694 0.9918
C53A C 0.6669(2) 0.2863(2) 1.00225(13)
H39A H 0.5965 0.2646 0.9868
C54A C 0.7740(2) 0.06250(19) 0.89625(10)
C55A C 0.9068(2) 0.0478(2) 0.89154(11)
H40A H 0.9366 0.0270 0.9304
C56A C 0.9958(2) 0.0636(3) 0.83011(13)
H41A H 1.0846 0.0520 0.8281
C57A C 0.9553(3) 0.0959(3) 0.77237(12)
H42A H 1.0158 0.1055 0.7311
C58A C 0.8248(3) 0.1140(3) 0.77563(12)
H43A H 0.7966 0.1369 0.7364
C59A C 0.7345(2) 0.0985(2) 0.83698(11)
H44A H 0.6462 0.1123 0.8386
loop_
_geom_bond_atom_site_label_1
_geom_bond_atom_site_label_2
_geom_bond_site_symmetry_1
_geom_bond_site_symmetry_2
C1 O1 1_555 1_555
C2 C1 1_555 1_555
H1 C2 1_555 1_555
C3 C2 1_555 1_555
C4 C3 1_555 1_555
C5 C4 1_555 1_555
H2 C5 1_555 1_555
C6 C1 1_555 1_555
C7 C6 1_555 1_555
H3 C7 1_555 1_555
C8 C7 1_555 1_555
H4 C8 1_555 1_555
C9 C8 1_555 1_555
C10 C9 1_555 1_555
H5 C10 1_555 1_555
C11 C6 1_555 1_555
H6 C11 1_555 1_555
C12 C9 1_555 1_555
C13 C12 1_555 1_555
H7 C13 1_555 1_555
C14 C13 1_555 1_555
H8 C14 1_555 1_555
C15 C14 1_555 1_555
H9 C15 1_555 1_555
C16 C15 1_555 1_555
H10 C16 1_555 1_555
C17 C12 1_555 1_555
H11 C17 1_555 1_555
C18 C3 1_555 1_555
C19 C18 1_555 1_555
H12 C19 1_555 1_555
C20 C19 1_555 1_555
H13 C20 1_555 1_555
C21 C20 1_555 1_555
H14 C21 1_555 1_555
C22 C21 1_555 1_555
H15 C22 1_555 1_555
C23 C18 1_555 1_555
H16 C23 1_555 1_555
C24 C4 1_555 1_555
C25 C24 1_555 1_555
H17 C25 1_555 1_555
C26 C25 1_555 1_555
H18 C26 1_555 1_555
C27 C26 1_555 1_555
H19 C27 1_555 1_555
C28 C27 1_555 1_555
H20 C28 1_555 1_555
C29 C24 1_555 1_555
H21 C29 1_555 1_555
Cl1 C30 1_555 1_555
Cl2 C30 1_555 1_555
C30 H22 1_555 1_555
H23 C30 1_555 1_555
O2 C31 1_555 1_555
C31 C32 1_555 1_555
C32 H24 1_555 1_555
C33 C32 1_555 1_555
C34 C33 1_555 1_555
C35 C34 1_555 1_555
H25 C35 1_555 1_555
C36 C31 1_555 1_555
C37 C36 1_555 1_555
H26 C37 1_555 1_555
C38 C37 1_555 1_555
H27 C38 1_555 1_555
C39 C38 1_555 1_555
C40 C39 1_555 1_555
H28 C40 1_555 1_555
C41 C36 1_555 1_555
H29 C41 1_555 1_555
C42 C39 1_555 1_555
C43 C42 1_555 1_555
H30 C43 1_555 1_555
C44 C43 1_555 1_555
H31 C44 1_555 1_555
C45 C44 1_555 1_555
H32 C45 1_555 1_555
C46 C45 1_555 1_555
H33 C46 1_555 1_555
C47 C42 1_555 1_555
H34 C47 1_555 1_555
C48 C33 1_555 1_555
C49 C48 1_555 1_555
H35 C49 1_555 1_555
C50 C49 1_555 1_555
H36 C50 1_555 1_555
C51 C50 1_555 1_555
H37 C51 1_555 1_555
C52 C51 1_555 1_555
H38 C52 1_555 1_555
C53 C48 1_555 1_555
H39 C53 1_555 1_555
C54 C34 1_555 1_555
C55 C54 1_555 1_555
H40 C55 1_555 1_555
C56 C55 1_555 1_555
H41 C56 1_555 1_555
C57 C56 1_555 1_555
H42 C57 1_555 1_555
C58 C57 1_555 1_555
H43 C58 1_555 1_555
C59 C54 1_555 1_555
H44 C59 1_555 1_555
C1A O1A 1_555 1_555
C2A C1A 1_555 1_555
H1A C2A 1_555 1_555
C3A C2A 1_555 1_555
C4A C3A 1_555 1_555
C5A C5 1_555 1_555
H2A C5A 1_555 1_555
C6A C1A 1_555 1_555
C7A C6A 1_555 1_555
H3A C7A 1_555 1_555
C8A C7A 1_555 1_555
H4A C8A 1_555 1_555
C9A C8A 1_555 1_555
C10A C9A 1_555 1_555
H5A C10A 1_555 1_555
C11A C6A 1_555 1_555
H6A C11A 1_555 1_555
C12A C9A 1_555 1_555
C13A C12A 1_555 1_555
H7A C13A 1_555 1_555
C14A C13A 1_555 1_555
H8A C14A 1_555 1_555
C15A C14A 1_555 1_555
H9A C15A 1_555 1_555
C16A C15A 1_555 1_555
H10A C16A 1_555 1_555
C17A C12A 1_555 1_555
H11A C17A 1_555 1_555
C18A C3A 1_555 1_555
C19A C18A 1_555 1_555
H12A C19A 1_555 1_555
C20A C19A 1_555 1_555
H13A C20A 1_555 1_555
C21A C20A 1_555 1_555
H14A C21A 1_555 1_555
C22A C21A 1_555 1_555
H15A C22A 1_555 1_555
C23A C18A 1_555 1_555
H16A C23A 1_555 1_555
C24A C4A 1_555 1_555
C25A C24A 1_555 1_555
H17A C25A 1_555 1_555
C26A C25A 1_555 1_555
H18A C26A 1_555 1_555
C27A C26A 1_555 1_555
H19A C27A 1_555 1_555
C28A C27A 1_555 1_555
H20A C28A 1_555 1_555
C29A C24A 1_555 1_555
H21A C29A 1_555 1_555
O2A C31A 1_555 1_555
C31A C32A 1_555 1_555
C32A H24A 1_555 1_555
C33A C32A 1_555 1_555
C34A C33A 1_555 1_555
C35A C35 1_555 1_555
H25A C35A 1_555 1_555
C36A C31A 1_555 1_555
C37A C36A 1_555 1_555
H26A C37A 1_555 1_555
C38A C37A 1_555 1_555
H27A C38A 1_555 1_555
C39A C38A 1_555 1_555
C40A C39A 1_555 1_555
H28A C40A 1_555 1_555
C41A C36A 1_555 1_555
H29A C41A 1_555 1_555
C42A C39A 1_555 1_555
C43A C42A 1_555 1_555
H30A C43A 1_555 1_555
C44A C43A 1_555 1_555
H31A C44A 1_555 1_555
C45A C44A 1_555 1_555
H32A C45A 1_555 1_555
C46A C45A 1_555 1_555
H33A C46A 1_555 1_555
C47A C42A 1_555 1_555
H34A C47A 1_555 1_555
C48A C33A 1_555 1_555
C49A C48A 1_555 1_555
H35A C49A 1_555 1_555
C50A C49A 1_555 1_555
H36A C50A 1_555 1_555
C51A C50A 1_555 1_555
H37A C51A 1_555 1_555
C52A C51A 1_555 1_555
H38A C52A 1_555 1_555
C53A C48A 1_555 1_555
H39A C53A 1_555 1_555
C54A C34A 1_555 1_555
C55A C54A 1_555 1_555
H40A C55A 1_555 1_555
C56A C55A 1_555 1_555
H41A C56A 1_555 1_555
C57A C56A 1_555 1_555
H42A C57A 1_555 1_555
C58A C57A 1_555 1_555
H43A C58A 1_555 1_555
C59A C54A 1_555 1_555
H44A C59A 1_555 1_555
C10 C11 1_555 1_555
C16 C17 1_555 1_555
C22 C23 1_555 1_555
C28 C29 1_555 1_555
C40 C41 1_555 1_555
C46 C47 1_555 1_555
C52 C53 1_555 1_555
C58 C59 1_555 1_555
C4A C5A 1_555 1_555
C10A C11A 1_555 1_555
C16A C17A 1_555 1_555
C22A C23A 1_555 1_555
C28A C29A 1_555 1_555
C34A C35A 1_555 1_555
C40A C41A 1_555 1_555
C46A C47A 1_555 1_555
C52A C53A 1_555 1_555
C58A C59A 1_555 1_555

#END
