
#######################################################################
#
#                 Cambridge Crystallographic Data Centre
#                                CCDC 
#
#######################################################################
#
# If this CIF has been generated from an entry in the Cambridge 
# Structural Database, then it will include bibliographic, chemical, 
# crystal, experimental, refinement or atomic coordinate data resulting 
# from the CCDC's data processing and validation procedures.
#
#######################################################################

data_SISQOD
_chemical_formula_moiety         
'C48 H20 Cl4 N12 O12,4(C3 H7 N1 O1),2(C2 H3 N1)'
_chemical_name_systematic        
'naphthalene-2,6-diyl bis[5,17-dichloro-2,8,14,20-tetraoxa-4,6,16,18,26,28-hexaazapentacyclo[19.3.1.1^3,7^.1^9,13^.1^15,19^]octacosa-1(25),3(28),4,6,9(27),10,12,15(26),16,18,21,23-dodecaene-11-carboxylate] N,N-dimethylformamide acetonitrile solvate'
_symmetry_cell_setting           triclinic
_symmetry_space_group_name_H-M   'P -1'
_symmetry_Int_Tables_number      2
_space_group_name_Hall           '-P 1'
loop_
_symmetry_equiv_pos_site_id
_symmetry_equiv_pos_as_xyz
1 x,y,z
2 -x,-y,-z
_cell_length_a                   12.036(5)
_cell_length_b                   12.274(6)
_cell_length_c                   13.289(5)
_cell_angle_alpha                82.49(3)
_cell_angle_beta                 67.68(3)
_cell_angle_gamma                67.96(2)
_cell_volume                     1683.22
_exptl_crystal_colour            colorless
_exptl_crystal_description       plate
_cell_formula_units_Z            1
loop_
_atom_site_label
_atom_site_type_symbol
_atom_site_fract_x
_atom_site_fract_y
_atom_site_fract_z
Cl1 Cl 0.65914(19) 0.58471(17) 0.43360(16)
Cl2 Cl -0.30258(15) 0.98287(16) 0.19316(16)
O1 O 0.0387(4) 1.0853(4) 0.2103(4)
O2 O 0.4399(4) 0.9374(3) 0.2742(4)
O3 O 0.4734(4) 0.5815(3) 0.1690(3)
O4 O 0.1452(4) 0.7573(4) 0.0132(4)
O5 O 0.5674(4) 0.7162(4) -0.3002(4)
O6 O 0.7109(4) 0.5935(4) -0.2271(3)
N1 N 0.5427(5) 0.7713(5) 0.3448(4)
N2 N 0.5529(5) 0.5861(4) 0.2960(4)
N3 N 0.4555(4) 0.7634(4) 0.2131(4)
N4 N -0.0606(4) 0.8697(4) 0.0906(4)
N5 N -0.1167(4) 1.0370(4) 0.1965(4)
N6 N 0.1063(4) 0.9205(4) 0.1049(4)
C1 C 0.4801(5) 0.8190(5) 0.2759(5)
C2 C 0.5763(6) 0.6553(6) 0.3461(5)
C3 C 0.4945(5) 0.6476(5) 0.2277(5)
C4 C 0.4358(5) 0.6337(5) 0.0815(5)
C5 C 0.5319(5) 0.6289(5) -0.0196(5)
H1 H 0.6181 0.5982 -0.0272
C6 C 0.4950(5) 0.6718(5) -0.1104(5)
C7 C 0.3649(5) 0.7178(5) -0.0979(5)
H2 H 0.3394 0.7470 -0.1569
C8 C 0.2766(5) 0.7183(5) 0.0039(5)
C9 C 0.3085(5) 0.6779(5) 0.0949(5)
H3 H 0.2453 0.6806 0.1630
C10 C 0.0605(5) 0.8533(5) 0.0736(5)
C11 C -0.1429(5) 0.9613(5) 0.1555(5)
C12 C 0.0109(6) 1.0109(5) 0.1683(5)
C13 C 0.1701(5) 1.0729(5) 0.1786(5)
C14 C 0.2411(5) 1.0015(5) 0.2389(5)
H4 H 0.2072 0.9563 0.2954
C15 C 0.3645(5) 1.0001(5) 0.2116(5)
C16 C 0.4155(5) 1.0670(5) 0.1288(6)
H5 H 0.4987 1.0646 0.1121
C17 C 0.3407(6) 1.1384(5) 0.0701(6)
H6 H 0.3735 1.1853 0.0150
C18 C 0.2171(6) 1.1397(5) 0.0939(6)
H7 H 0.1678 1.1846 0.0534
C19 C 0.5907(5) 0.6648(5) -0.2214(5)
C20 C 0.8128(6) 0.5790(6) -0.3284(5)
C21 C 0.8545(5) 0.4825(6) -0.3900(5)
H8 H 0.8101 0.4306 -0.3700
C22 C 0.9657(6) 0.4607(5) -0.4846(5)
C23 C 1.0155(6) 0.3595(6) -0.5528(5)
H9 H 0.9734 0.3059 -0.5353
C24 C 1.1249(6) 0.3407(6) -0.6437(6)
H10 H 1.1573 0.2739 -0.6867
Cl1A Cl 1.34086(19) 0.41529(17) -1.43360(16)
Cl2A Cl 2.30258(15) 0.01713(16) -1.19316(16)
O1A O 1.9613(4) -0.0853(4) -1.2103(4)
O2A O 1.5601(4) 0.0626(3) -1.2742(4)
O3A O 1.5266(4) 0.4185(3) -1.1690(3)
O4A O 1.8548(4) 0.2427(4) -1.0132(4)
O5A O 1.4326(4) 0.2838(4) -0.6998(4)
O6A O 1.2891(4) 0.4065(4) -0.7729(3)
N1A N 1.4573(5) 0.2287(5) -1.3448(4)
N2A N 1.4471(5) 0.4139(4) -1.2960(4)
N3A N 1.5445(4) 0.2366(4) -1.2131(4)
N4A N 2.0606(4) 0.1303(4) -1.0906(4)
N5A N 2.1167(4) -0.0370(4) -1.1965(4)
N6A N 1.8937(4) 0.0795(4) -1.1049(4)
C1A C 1.5199(5) 0.1810(5) -1.2759(5)
C2A C 1.4237(6) 0.3447(6) -1.3461(5)
C3A C 1.5055(5) 0.3524(5) -1.2277(5)
C4A C 1.5642(5) 0.3663(5) -1.0815(5)
C5A C 1.4681(5) 0.3711(5) -0.9804(5)
H1A H 1.3819 0.4018 -0.9728
C6A C 1.5050(5) 0.3282(5) -0.8896(5)
C7A C 1.6351(5) 0.2822(5) -0.9021(5)
H2A H 1.6606 0.2530 -0.8431
C8A C 1.7234(5) 0.2817(5) -1.0039(5)
C9A C 1.6915(5) 0.3221(5) -1.0949(5)
H3A H 1.7547 0.3194 -1.1630
C10A C 1.9395(5) 0.1467(5) -1.0736(5)
C11A C 2.1429(5) 0.0387(5) -1.1555(5)
C12A C 1.9891(6) -0.0109(5) -1.1683(5)
C13A C 1.8299(5) -0.0729(5) -1.1786(5)
C14A C 1.7589(5) -0.0015(5) -1.2389(5)
H4A H 1.7928 0.0437 -1.2954
C15A C 1.6355(5) -0.0001(5) -1.2116(5)
C16A C 1.5845(5) -0.0670(5) -1.1288(6)
H5A H 1.5013 -0.0646 -1.1121
C17A C 1.6593(6) -0.1384(5) -1.0701(6)
H6A H 1.6265 -0.1853 -1.0150
C18A C 1.7829(6) -0.1397(5) -1.0939(6)
H7A H 1.8322 -0.1846 -1.0534
C19A C 1.4093(5) 0.3352(5) -0.7786(5)
C20A C 1.1872(6) 0.4210(6) -0.6716(5)
C21A C 1.1455(5) 0.5175(6) -0.6100(5)
H8A H 1.1899 0.5694 -0.6300
C22A C 1.0343(6) 0.5393(5) -0.5154(5)
C23A C 0.9845(6) 0.6405(6) -0.4472(5)
H9A H 1.0266 0.6941 -0.4647
C24A C 0.8751(6) 0.6593(6) -0.3563(6)
H10A H 0.8427 0.7261 -0.3133
O7 O 1.0084(7) 0.7626(6) 0.2927(6)
N7 N 0.8277(7) 0.8670(6) 0.4260(6)
C25 C 0.8945(12) 0.9306(9) 0.4538(9)
H11 H 0.8563 1.0133 0.4434
H12 H 0.9835 0.9033 0.4078
H13 H 0.8872 0.9168 0.5285
C26 C 0.6910(9) 0.8945(9) 0.4875(8)
H14 H 0.6773 0.8819 0.5635
H15 H 0.6609 0.8445 0.4631
H16 H 0.6448 0.9751 0.4766
C27 C 0.8923(9) 0.7889(8) 0.3489(7)
H17 H 0.8482 0.7488 0.3341
O8 O 0.7535(5) 0.6309(5) 0.0673(5)
N8 N 0.8987(6) 0.5267(5) 0.1429(5)
C28 C 0.9934(9) 0.5301(10) 0.1806(9)
H18 H 0.9867 0.4884 0.2477
H19 H 0.9801 0.6103 0.1923
H20 H 1.0773 0.4939 0.1273
C29 C 0.8794(10) 0.4185(8) 0.1482(10)
H21 H 0.9280 0.3785 0.0791
H22 H 0.7898 0.4335 0.1659
H23 H 0.9073 0.3703 0.2032
C30 C 0.8330(8) 0.6223(7) 0.1035(7)
H24 H 0.8505 0.6898 0.1040
N9 N 0.2427(7) 0.7567(8) 0.4634(6)
C31 C 0.3295(8) 0.7311(8) 0.6172(7)
H25 H 0.4160 0.7303 0.5866
H26 H 0.3285 0.6589 0.6547
H27 H 0.2768 0.7960 0.6674
C32 C 0.2807(7) 0.7430(8) 0.5324(7)
loop_
_geom_bond_atom_site_label_1
_geom_bond_atom_site_label_2
_geom_bond_site_symmetry_1
_geom_bond_site_symmetry_2
Cl1 C2 1_555 1_555
Cl2 C11 1_555 1_555
O1 C12 1_555 1_555
O2 C1 1_555 1_555
O3 C3 1_555 1_555
O4 C8 1_555 1_555
O5 C19 1_555 1_555
O6 C19 1_555 1_555
N1 C1 1_555 1_555
N2 C2 1_555 1_555
N3 C1 1_555 1_555
N4 C10 1_555 1_555
N5 C11 1_555 1_555
N6 C10 1_555 1_555
C2 N1 1_555 1_555
C3 N2 1_555 1_555
C4 O3 1_555 1_555
C5 C4 1_555 1_555
H1 C5 1_555 1_555
C6 C5 1_555 1_555
C7 C6 1_555 1_555
H2 C7 1_555 1_555
C8 C7 1_555 1_555
C9 C4 1_555 1_555
H3 C9 1_555 1_555
C10 O4 1_555 1_555
C11 N4 1_555 1_555
C12 N5 1_555 1_555
C13 O1 1_555 1_555
C14 C13 1_555 1_555
H4 C14 1_555 1_555
C15 O2 1_555 1_555
C16 C15 1_555 1_555
H5 C16 1_555 1_555
C17 C16 1_555 1_555
H6 C17 1_555 1_555
C18 C13 1_555 1_555
H7 C18 1_555 1_555
C19 C6 1_555 1_555
C20 O6 1_555 1_555
C21 C20 1_555 1_555
H8 C21 1_555 1_555
C22 C21 1_555 1_555
C23 C22 1_555 1_555
H9 C23 1_555 1_555
C24 C23 1_555 1_555
H10 C24 1_555 1_555
O7 C27 1_555 1_555
N7 C25 1_555 1_555
C25 H11 1_555 1_555
H12 C25 1_555 1_555
H13 C25 1_555 1_555
C26 N7 1_555 1_555
H14 C26 1_555 1_555
H15 C26 1_555 1_555
H16 C26 1_555 1_555
C27 N7 1_555 1_555
H17 C27 1_555 1_555
O8 C30 1_555 1_555
N8 C28 1_555 1_555
C28 H18 1_555 1_555
H19 C28 1_555 1_555
H20 C28 1_555 1_555
C29 N8 1_555 1_555
H21 C29 1_555 1_555
H22 C29 1_555 1_555
H23 C29 1_555 1_555
C30 N8 1_555 1_555
H24 C30 1_555 1_555
N9 C32 1_555 1_555
C31 H25 1_555 1_555
H26 C31 1_555 1_555
H27 C31 1_555 1_555
C32 C31 1_555 1_555
Cl1A C2A 1_555 1_555
Cl2A C11A 1_555 1_555
O1A C12A 1_555 1_555
O2A C1A 1_555 1_555
O3A C3A 1_555 1_555
O4A C8A 1_555 1_555
O5A C19A 1_555 1_555
O6A C19A 1_555 1_555
N1A C1A 1_555 1_555
N2A C2A 1_555 1_555
N3A C1A 1_555 1_555
N4A C10A 1_555 1_555
N5A C11A 1_555 1_555
N6A C10A 1_555 1_555
C2A N1A 1_555 1_555
C3A N2A 1_555 1_555
C4A O3A 1_555 1_555
C5A C4A 1_555 1_555
H1A C5A 1_555 1_555
C6A C5A 1_555 1_555
C7A C6A 1_555 1_555
H2A C7A 1_555 1_555
C8A C7A 1_555 1_555
C9A C4A 1_555 1_555
H3A C9A 1_555 1_555
C10A O4A 1_555 1_555
C11A N4A 1_555 1_555
C12A N5A 1_555 1_555
C13A O1A 1_555 1_555
C14A C13A 1_555 1_555
H4A C14A 1_555 1_555
C15A O2A 1_555 1_555
C16A C15A 1_555 1_555
H5A C16A 1_555 1_555
C17A C16A 1_555 1_555
H6A C17A 1_555 1_555
C18A C13A 1_555 1_555
H7A C18A 1_555 1_555
C19A C6A 1_555 1_555
C20A C24 1_555 1_555
C21A C20A 1_555 1_555
H8A C21A 1_555 1_555
C22A C22 1_555 1_555
C23A C22A 1_555 1_555
H9A C23A 1_555 1_555
C24A C20 1_555 1_555
H10A C24A 1_555 1_555
N3 C3 1_555 1_555
N6 C12 1_555 1_555
C8 C9 1_555 1_555
C14 C15 1_555 1_555
C17 C18 1_555 1_555
O6A C20A 1_555 1_555
N3A C3A 1_555 1_555
N6A C12A 1_555 1_555
C8A C9A 1_555 1_555
C14A C15A 1_555 1_555
C17A C18A 1_555 1_555
C21A C22A 1_555 1_555
C23A C24A 1_555 1_555

#END
