
#######################################################################
#
#                 Cambridge Crystallographic Data Centre
#                                CCDC 
#
#######################################################################
#
# If this CIF has been generated from an entry in the Cambridge 
# Structural Database, then it will include bibliographic, chemical, 
# crystal, experimental, refinement or atomic coordinate data resulting 
# from the CCDC's data processing and validation procedures.
#
#######################################################################

data_SISQUJ
_chemical_formula_moiety         'C48 H20 Cl4 N12 O12'
_chemical_name_systematic        
'naphthalene-2,7-diyl bis[5,17-dichloro-2,8,14,20-tetraoxa-4,6,16,18,26,28-hexaazapentacyclo[19.3.1.1^3,7^.1^9,13^.1^15,19^]octacosa-1(25),3(28),4,6,9(27),10,12,15(26),16,18,21,23-dodecaene-11-carboxylate] unknown solvate'
_symmetry_cell_setting           monoclinic
_symmetry_space_group_name_H-M   'P 2/n'
_symmetry_Int_Tables_number      13
_space_group_name_Hall           '-P 2yac'
loop_
_symmetry_equiv_pos_site_id
_symmetry_equiv_pos_as_xyz
1 x,y,z
2 1/2-x,y,1/2-z
3 -x,-y,-z
4 1/2+x,-y,1/2+z
_cell_length_a                   16.2491(6)
_cell_length_b                   13.0217(5)
_cell_length_c                   26.5922(11)
_cell_angle_alpha                90
_cell_angle_beta                 96.520(3)
_cell_angle_gamma                90
_cell_volume                     5590.28
_exptl_crystal_colour            colorless
_exptl_crystal_description       Block
_cell_formula_units_Z            4
loop_
_atom_site_label
_atom_site_type_symbol
_atom_site_fract_x
_atom_site_fract_y
_atom_site_fract_z
Cl1 Cl 0.26484(5) 0.40503(7) 0.68723(3)
Cl2 Cl 0.22530(6) 0.91189(8) -0.00474(4)
Cl3 Cl 0.97240(6) 0.87108(7) 0.00446(4)
Cl4 Cl 1.00635(7) 0.40546(9) 0.70275(5)
O1 O 0.48376(14) 0.16043(17) 0.67909(8)
O2 O 0.47788(14) 0.44613(16) 0.57764(8)
O3 O 0.77255(14) 0.42882(17) 0.57489(8)
O4 O 0.78102(14) 0.16404(19) 0.68980(9)
O5 O 0.51716(15) 0.2986(2) 0.40668(9)
O6 O 0.65547(13) 0.28809(16) 0.40907(7)
O7 O 0.65083(13) 0.38370(16) 0.14199(8)
O8 O 0.51477(14) 0.36721(19) 0.11738(9)
O9 O 0.46459(14) 0.93481(19) 0.11864(9)
O10 O 0.45177(13) 0.67213(17) 0.00313(8)
O11 O 0.74775(13) 0.63409(16) 0.01825(8)
O12 O 0.75957(14) 0.93072(16) 0.11215(9)
N1 N 0.38346(16) 0.2761(2) 0.68097(10)
N2 N 0.38099(17) 0.42465(19) 0.62960(9)
N3 N 0.48791(16) 0.29976(19) 0.62578(9)
N4 N 0.35489(17) 0.9208(2) 0.06052(11)
N5 N 0.34811(16) 0.7852(2) -0.00009(10)
N6 N 0.46433(16) 0.7986(2) 0.06383(10)
N7 N 0.74763(15) 0.77918(19) 0.06760(9)
N8 N 0.85137(17) 0.7449(2) 0.01310(10)
N9 N 0.85788(17) 0.89833(19) 0.06276(10)
N10 N 0.76972(16) 0.2935(2) 0.63004(10)
N11 N 0.87817(18) 0.4163(2) 0.63567(11)
N12 N 0.88349(18) 0.2789(2) 0.69476(11)
C1 C 0.3528(2) 0.3645(3) 0.66342(11)
C2 C 0.4491(2) 0.3865(2) 0.61211(11)
C3 C 0.4520(2) 0.2494(2) 0.66084(12)
C4 C 0.5586(2) 0.1244(3) 0.66280(13)
C5 C 0.5545(2) 0.0395(3) 0.63137(15)
H1 H 0.503713 0.011029 0.618975
C6 C 0.6277(3) -0.0020(3) 0.61888(16)
H2 H 0.626372 -0.059319 0.597948
C7 C 0.7027(2) 0.0407(3) 0.63710(15)
H3 H 0.752036 0.012826 0.628620
C8 C 0.7034(2) 0.1255(3) 0.66813(14)
C9 C 0.6325(2) 0.1689(3) 0.68209(12)
H4 H 0.634161 0.225557 0.703493
C10 C 0.8105(2) 0.2494(3) 0.67004(14)
C11 C 0.8066(2) 0.3766(3) 0.61502(13)
C12 C 0.9124(2) 0.3625(3) 0.67439(15)
C13 C 0.6919(2) 0.4044(2) 0.55339(12)
C14 C 0.6812(2) 0.3670(2) 0.50459(12)
H5 H 0.726782 0.351959 0.487653
C15 C 0.6017(2) 0.3523(2) 0.48128(12)
C16 C 0.5345(2) 0.3764(2) 0.50639(11)
H6 H 0.480914 0.367746 0.490633
C17 C 0.5478(2) 0.4133(2) 0.55473(12)
C18 C 0.6256(2) 0.4291(2) 0.57917(12)
H7 H 0.633374 0.455526 0.611860
C19 C 0.5851(2) 0.3108(3) 0.42884(12)
C20 C 0.64622(18) 0.2516(3) 0.35869(12)
C21 C 0.64658(18) 0.3195(2) 0.32034(11)
H8 H 0.648702 0.389575 0.327004
C22 C 0.64371(18) 0.2834(2) 0.26992(11)
C23 C 0.64045(18) 0.1758(2) 0.26118(12)
C24 C 0.6397(2) 0.1089(2) 0.30262(13)
H9 H 0.637746 0.038436 0.296996
C25 C 0.64193(19) 0.1450(3) 0.35084(13)
H10 H 0.640608 0.100122 0.377927
C26 C 0.63933(19) 0.1415(3) 0.21053(12)
H11 H 0.637087 0.071344 0.203894
C27 C 0.6414(2) 0.2080(3) 0.17144(12)
H12 H 0.640997 0.183690 0.138532
C28 C 0.64427(18) 0.3129(3) 0.18108(12)
C29 C 0.64533(18) 0.3504(2) 0.22882(12)
H13 H 0.647150 0.420991 0.234238
C30 C 0.5793(2) 0.4086(3) 0.11356(12)
C31 C 0.5902(2) 0.4949(2) 0.07875(11)
C32 C 0.5185(2) 0.5459(2) 0.05874(11)
H14 H 0.466910 0.525098 0.066894
C33 C 0.5255(2) 0.6274(2) 0.02670(12)
C34 C 0.6004(2) 0.6598(2) 0.01300(12)
H15 H 0.603904 0.713974 -0.009461
C35 C 0.6704(2) 0.6081(2) 0.03421(11)
C36 C 0.66739(19) 0.5263(2) 0.06646(11)
H16 H 0.715530 0.492754 0.079743
C37 C 0.7824(2) 0.7241(2) 0.03398(12)
C38 C 0.8843(2) 0.8335(3) 0.02946(13)
C39 C 0.7881(2) 0.8659(3) 0.07968(12)
C40 C 0.6888(2) 0.9034(2) 0.13535(12)
C41 C 0.7017(2) 0.8589(2) 0.18192(13)
H17 H 0.754849 0.842695 0.196487
C42 C 0.6340(2) 0.8389(3) 0.20664(13)
H18 H 0.641755 0.808171 0.238392
C43 C 0.5544(2) 0.8630(3) 0.18580(14)
H19 H 0.508905 0.850323 0.203168
C44 C 0.5456(2) 0.9056(3) 0.13926(15)
C45 C 0.6106(2) 0.9284(2) 0.11221(12)
H20 H 0.602628 0.958768 0.080369
C46 C 0.4277(2) 0.8820(3) 0.07932(13)
C47 C 0.3197(2) 0.8680(3) 0.02142(13)
C48 C 0.4214(2) 0.7553(3) 0.02370(12)
loop_
_geom_bond_atom_site_label_1
_geom_bond_atom_site_label_2
_geom_bond_site_symmetry_1
_geom_bond_site_symmetry_2
Cl1 C1 1_555 1_555
Cl2 C47 1_555 1_555
Cl3 C38 1_555 1_555
Cl4 C12 1_555 1_555
O1 C3 1_555 1_555
O2 C2 1_555 1_555
O3 C11 1_555 1_555
O4 C8 1_555 1_555
O5 C19 1_555 1_555
O6 C19 1_555 1_555
O7 C28 1_555 1_555
O8 C30 1_555 1_555
O9 C44 1_555 1_555
O10 C33 1_555 1_555
O11 C35 1_555 1_555
O12 C39 1_555 1_555
N1 C1 1_555 1_555
N2 C1 1_555 1_555
N3 C2 1_555 1_555
N4 C46 1_555 1_555
N5 C47 1_555 1_555
N6 C46 1_555 1_555
N7 C37 1_555 1_555
N8 C37 1_555 1_555
N9 C38 1_555 1_555
N10 C10 1_555 1_555
N11 C11 1_555 1_555
N12 C10 1_555 1_555
C2 N2 1_555 1_555
C3 N1 1_555 1_555
C4 O1 1_555 1_555
C5 C4 1_555 1_555
H1 C5 1_555 1_555
C6 C5 1_555 1_555
H2 C6 1_555 1_555
C7 C6 1_555 1_555
H3 C7 1_555 1_555
C8 C7 1_555 1_555
C9 C4 1_555 1_555
H4 C9 1_555 1_555
C10 O4 1_555 1_555
C11 N10 1_555 1_555
C12 N11 1_555 1_555
C13 O3 1_555 1_555
C14 C13 1_555 1_555
H5 C14 1_555 1_555
C15 C14 1_555 1_555
C16 C15 1_555 1_555
H6 C16 1_555 1_555
C17 O2 1_555 1_555
C18 C13 1_555 1_555
H7 C18 1_555 1_555
C19 C15 1_555 1_555
C20 O6 1_555 1_555
C21 C20 1_555 1_555
H8 C21 1_555 1_555
C22 C21 1_555 1_555
C23 C22 1_555 1_555
C24 C23 1_555 1_555
H9 C24 1_555 1_555
C25 C20 1_555 1_555
H10 C25 1_555 1_555
C26 C23 1_555 1_555
H11 C26 1_555 1_555
C27 C26 1_555 1_555
H12 C27 1_555 1_555
C28 C27 1_555 1_555
C29 C22 1_555 1_555
H13 C29 1_555 1_555
C30 O7 1_555 1_555
C31 C30 1_555 1_555
C32 C31 1_555 1_555
H14 C32 1_555 1_555
C33 C32 1_555 1_555
C34 C33 1_555 1_555
H15 C34 1_555 1_555
C35 C34 1_555 1_555
C36 C31 1_555 1_555
H16 C36 1_555 1_555
C37 O11 1_555 1_555
C38 N8 1_555 1_555
C39 N7 1_555 1_555
C40 O12 1_555 1_555
C41 C40 1_555 1_555
H17 C41 1_555 1_555
C42 C41 1_555 1_555
H18 C42 1_555 1_555
C43 C42 1_555 1_555
H19 C43 1_555 1_555
C44 C43 1_555 1_555
C45 C40 1_555 1_555
H20 C45 1_555 1_555
C46 O9 1_555 1_555
C47 N4 1_555 1_555
C48 O10 1_555 1_555
N3 C3 1_555 1_555
N5 C48 1_555 1_555
N6 C48 1_555 1_555
N9 C39 1_555 1_555
N12 C12 1_555 1_555
C8 C9 1_555 1_555
C16 C17 1_555 1_555
C17 C18 1_555 1_555
C24 C25 1_555 1_555
C28 C29 1_555 1_555
C35 C36 1_555 1_555
C44 C45 1_555 1_555

#END
