
#######################################################################
#
#                 Cambridge Crystallographic Data Centre
#                                CCDC 
#
#######################################################################
#
# If this CIF has been generated from an entry in the Cambridge 
# Structural Database, then it will include bibliographic, chemical, 
# crystal, experimental, refinement or atomic coordinate data resulting 
# from the CCDC's data processing and validation procedures.
#
#######################################################################

data_SISRAQ
_chemical_formula_moiety         'C46 H22 Cl4 N12 O12'
_chemical_name_systematic        
'(1,4-phenylene)bis(methylene) bis[5,17-dichloro-2,8,14,20-tetraoxa-4,6,16,18,26,28-hexaazapentacyclo[19.3.1.1^3,7^.1^9,13^.1^15,19^]octacosa-1(25),3(28),4,6,9(27),10,12,15(26),16,18,21,23-dodecaene-11-carboxylate] unknown solvate'
_symmetry_cell_setting           monoclinic
_symmetry_space_group_name_H-M   'P n'
_symmetry_Int_Tables_number      7
_space_group_name_Hall           'P -2yac'
loop_
_symmetry_equiv_pos_site_id
_symmetry_equiv_pos_as_xyz
1 x,y,z
2 1/2+x,-y,1/2+z
_cell_length_a                   12.671(3)
_cell_length_b                   26.317(5)
_cell_length_c                   16.009(3)
_cell_angle_alpha                90
_cell_angle_beta                 111.17(3)
_cell_angle_gamma                90
_cell_volume                     4978.13
_exptl_crystal_colour            colorless
_exptl_crystal_description       block
_cell_formula_units_Z            4
loop_
_atom_site_label
_atom_site_type_symbol
_atom_site_fract_x
_atom_site_fract_y
_atom_site_fract_z
Cl1 Cl 0.2661(4) 0.12376(19) -0.3026(3)
Cl2 Cl 0.2692(4) 0.53769(17) -0.0333(3)
Cl3 Cl -0.2746(4) 0.41044(19) 0.1684(3)
Cl4 Cl 0.4640(5) 0.7055(2) 0.1823(4)
O1 O 0.5080(9) 0.4944(4) 0.6098(8)
O2 O 0.4666(10) 0.2125(5) -0.0237(9)
O3 O 0.4688(14) 0.3800(6) 0.0814(12)
O4 O 0.0728(11) 0.2147(5) -0.1363(10)
O5 O 0.0125(10) 0.5171(4) 0.3820(8)
O6 O 0.1269(11) 0.4007(5) 0.2187(9)
O7 O 0.3960(10) 0.5258(4) 0.2000(8)
O8 O 0.0820(11) 0.3818(5) -0.0131(9)
O9 O 0.6581(13) 0.2036(6) 0.3135(10)
O10 O 0.3020(13) 0.6325(5) 0.3895(10)
O11 O 0.3730(12) 0.4341(5) 0.5871(9)
O12 O 0.5952(15) 0.2746(6) 0.3545(11)
N1 N 0.1728(13) 0.1713(6) -0.2047(11)
N2 N 0.3625(14) 0.1712(6) -0.1618(10)
N3 N 0.2621(13) 0.2142(5) -0.0742(10)
N4 N 0.3738(16) 0.4522(7) 0.0239(13)
N5 N 0.1697(16) 0.4506(7) -0.0309(13)
N6 N 0.2734(13) 0.3752(5) 0.0390(10)
N7 N -0.1231(14) 0.4648(5) 0.2800(11)
N8 N -0.0613(13) 0.4041(5) 0.1938(9)
N9 N 0.0783(11) 0.4595(5) 0.3050(9)
N10 N 0.4227(13) 0.6117(6) 0.1893(11)
N11 N 0.3659(12) 0.6672(5) 0.2892(10)
N12 N 0.3445(11) 0.5777(5) 0.2972(9)
C1 C 0.1749(12) 0.2001(5) -0.1398(9)
C2 C 0.2557(13) 0.1598(6) -0.2117(9)
C3 C 0.3719(15) 0.2017(6) -0.0858(12)
C4 C 0.4708(15) 0.2479(6) 0.0423(12)
C5 C 0.5205(18) 0.2289(8) 0.1285(14)
H1 H 0.5378 0.1945 0.1371
C6 C 0.546(2) 0.2628(9) 0.2063(16)
C7 C 0.5233(11) 0.3119(5) 0.1872(9)
H2 H 0.5385 0.3346 0.2346
C8 C 0.4791(15) 0.3306(7) 0.1018(14)
C9 C 0.4541(12) 0.2955(5) 0.0316(10)
H3 H 0.4233 0.3078 -0.0267
C10 C 0.3660(19) 0.4054(8) 0.0409(14)
C11 C 0.2794(17) 0.4739(7) -0.0058(14)
C12 C 0.1774(16) 0.4030(7) 0.0014(12)
C13 C 0.0700(12) 0.3258(6) -0.0120(10)
C14 C 0.0146(16) 0.3101(7) 0.0485(13)
H4 H -0.0063 0.3330 0.0840
C15 C -0.0064(15) 0.2544(6) 0.0498(12)
H5 H -0.0381 0.2405 0.0888
C16 C 0.0207(13) 0.2264(7) -0.0046(11)
H6 H 0.0136 0.1914 -0.0009
C17 C 0.0616(16) 0.2460(7) -0.0715(12)
C18 C 0.0943(18) 0.2969(8) -0.0677(14)
H7 H 0.1319 0.3094 -0.1037
C19 C 0.6112(17) 0.2461(7) 0.2996(14)
C20 C 0.6548(19) 0.2673(8) 0.4507(13)
H8 H 0.7326 0.2787 0.4683
H9 H 0.6547 0.2317 0.4664
C21 C 0.5922(18) 0.2983(7) 0.4959(13)
C22 C 0.6699(18) 0.3434(8) 0.5487(14)
H10 H 0.7428 0.3494 0.5501
C23 C 0.6129(15) 0.3745(7) 0.5953(12)
H11 H 0.6543 0.4006 0.6316
C24 C 0.516(2) 0.3687(8) 0.5902(15)
C25 C 0.4449(14) 0.3280(6) 0.5351(10)
H12 H 0.3709 0.3231 0.5320
C26 C 0.4903(18) 0.2986(7) 0.4898(14)
H13 H 0.4420 0.2759 0.4493
C27 C 0.4579(13) 0.4032(6) 0.6470(11)
H14 H 0.4251 0.3813 0.6800
H15 H 0.5150 0.4243 0.6897
C28 C 0.4096(17) 0.4854(7) 0.5731(13)
C29 C 0.3061(15) 0.5140(7) 0.5071(13)
C30 C 0.3423(17) 0.5614(7) 0.4813(12)
H16 H 0.4171 0.5722 0.5048
C31 C 0.2639(14) 0.5876(6) 0.4234(11)
C32 C 0.1504(19) 0.5765(8) 0.3933(15)
H17 H 0.0971 0.5992 0.3571
C33 C 0.1191(15) 0.5331(7) 0.4169(12)
C34 C 0.2044(16) 0.4989(8) 0.4770(12)
H18 H 0.1844 0.4673 0.4925
C35 C -0.0075(16) 0.4802(6) 0.3214(12)
C36 C -0.1354(12) 0.4290(5) 0.2256(10)
C37 C 0.0526(19) 0.4217(8) 0.2487(14)
C38 C 0.2351(16) 0.4228(7) 0.2596(12)
C39 C 0.3193(15) 0.3990(7) 0.3262(12)
H19 H 0.3064 0.3685 0.3505
C40 C 0.416(2) 0.4199(9) 0.3539(18)
H20 H 0.4711 0.4063 0.4047
C41 C 0.4486(14) 0.4640(6) 0.3119(11)
H21 H 0.5215 0.4774 0.3316
C42 C 0.3636(10) 0.4828(4) 0.2430(8)
C43 C 0.2533(18) 0.4669(7) 0.2087(14)
H22 H 0.1973 0.4818 0.1600
C44 C 0.3815(16) 0.5678(7) 0.2348(13)
C45 C 0.3411(15) 0.6238(7) 0.3171(11)
C46 C 0.4166(17) 0.6543(7) 0.2334(14)
Cl5 Cl 0.4985(5) 0.6231(2) 0.9997(4)
Cl6 Cl 0.4954(5) 1.0360(2) 0.7337(4)
Cl7 Cl 1.0381(5) 0.91048(19) 0.5300(4)
Cl8 Cl 0.2971(4) 1.20575(17) 0.5120(3)
O13 O 0.2594(13) 0.9929(6) 0.1014(10)
O14 O 0.2963(12) 0.7072(5) 0.7242(9)
O15 O 0.2936(10) 0.8821(4) 0.6146(8)
O16 O 0.6846(10) 0.7110(4) 0.8298(7)
O17 O 0.7577(13) 1.0133(5) 0.3137(10)
O18 O 0.6379(11) 0.9013(4) 0.4824(8)
O19 O 0.3662(13) 1.0253(5) 0.4983(10)
O20 O 0.6870(11) 0.8811(4) 0.7165(9)
O21 O 0.0893(10) 0.7064(4) 0.3762(8)
O22 O 0.4681(11) 1.1338(4) 0.3130(8)
O23 O 0.3940(11) 0.9363(4) 0.1128(8)
O24 O 0.1680(11) 0.7784(5) 0.3442(8)
N13 N 0.5999(13) 0.6726(6) 0.9104(10)
N14 N 0.3881(12) 0.6726(5) 0.8459(10)
N15 N 0.4861(11) 0.7163(5) 0.7679(9)
N16 N 0.3911(11) 0.9520(5) 0.6696(9)
N17 N 0.5908(11) 0.9532(5) 0.7185(9)
N18 N 0.4899(14) 0.8768(5) 0.6627(10)
N19 N 0.8819(15) 0.9665(6) 0.4132(13)
N20 N 0.8195(13) 0.9051(6) 0.4946(10)
N21 N 0.6912(15) 0.9599(6) 0.3976(12)
N22 N 0.3309(13) 1.1081(6) 0.4989(10)
N23 N 0.3865(14) 1.1641(6) 0.4097(12)
N24 N 0.4168(16) 1.0756(7) 0.4014(12)
C47 C 0.589(2) 0.7017(9) 0.8334(17)
C48 C 0.4843(17) 0.6603(7) 0.9094(15)
C49 C 0.4094(16) 0.6974(7) 0.7840(13)
C50 C 0.2839(15) 0.7408(7) 0.6509(13)
C51 C 0.2320(12) 0.7267(6) 0.5628(9)
H23 H 0.2123 0.6928 0.5490
C52 C 0.2099(11) 0.7599(5) 0.4981(9)
C53 C 0.233(2) 0.8123(10) 0.5160(18)
H24 H 0.2127 0.8362 0.4700
C54 C 0.2872(15) 0.8268(6) 0.6040(12)
C55 C 0.3179(17) 0.7960(8) 0.6823(14)
H25 H 0.3521 0.8069 0.7412
C56 C 0.3955(13) 0.9022(6) 0.6456(10)
C57 C 0.4971(17) 0.9720(7) 0.7067(13)
C58 C 0.5802(14) 0.9019(6) 0.6994(12)
C59 C 0.6963(16) 0.8291(7) 0.7010(12)
C60 C 0.7413(14) 0.8106(6) 0.6468(11)
H26 H 0.7527 0.8322 0.6048
C61 C 0.7716(15) 0.7630(6) 0.6485(12)
H27 H 0.8037 0.7512 0.6082
C62 C 0.7538(16) 0.7265(8) 0.7171(12)
H28 H 0.7838 0.6938 0.7262
C63 C 0.6949(14) 0.7439(6) 0.7612(12)
C64 C 0.6678(12) 0.7946(5) 0.7629(10)
H29 H 0.6331 0.8066 0.8012
C65 C 0.1532(15) 0.7414(7) 0.4032(13)
C66 C 0.113(2) 0.7648(10) 0.2506(18)
H30 H 0.0315 0.7657 0.2333
H31 H 0.1355 0.7309 0.2396
C67 C 0.1529(16) 0.8046(7) 0.1981(13)
C68 C 0.1040(18) 0.8407(8) 0.1467(14)
H32 H 0.0287 0.8457 0.1398
C69 C 0.144(2) 0.8727(9) 0.1009(18)
H33 H 0.0985 0.8981 0.0657
C70 C 0.2639(13) 0.8667(6) 0.1076(11)
C71 C 0.327(2) 0.8284(9) 0.1613(17)
H34 H 0.4027 0.8245 0.1690
C72 C 0.275(2) 0.7944(9) 0.2053(17)
H35 H 0.3146 0.7667 0.2376
C73 C 0.3124(19) 0.8976(7) 0.0570(15)
H36 H 0.2521 0.9148 0.0100
H37 H 0.3513 0.8757 0.0286
C74 C 0.3552(14) 0.9774(6) 0.1281(11)
C75 C 0.4379(14) 1.0142(6) 0.1822(12)
C76 C 0.4129(16) 1.0575(7) 0.2150(13)
H38 H 0.3366 1.0657 0.1980
C77 C 0.4906(19) 1.0919(8) 0.2725(14)
C78 C 0.6106(15) 1.0768(6) 0.3057(12)
H39 H 0.6671 1.0962 0.3468
C79 C 0.6339(16) 1.0293(7) 0.2692(13)
C80 C 0.5630(15) 0.9988(7) 0.2137(12)
H40 H 0.5863 0.9691 0.1939
C81 C 0.7767(17) 0.9759(7) 0.3780(13)
C82 C 0.896(2) 0.9275(9) 0.4788(17)
C83 C 0.7229(11) 0.9238(5) 0.4610(9)
C84 C 0.5271(14) 0.9228(6) 0.4513(11)
C85 C 0.4480(19) 0.9006(8) 0.3743(16)
H41 H 0.4693 0.8738 0.3460
C86 C 0.3320(12) 0.9200(5) 0.3387(10)
H42 H 0.2772 0.9044 0.2902
C87 C 0.3080(18) 0.9594(8) 0.3769(14)
H43 H 0.2350 0.9725 0.3532
C88 C 0.3867(19) 0.9835(9) 0.4523(15)
C89 C 0.4999(14) 0.9631(6) 0.4889(12)
H44 H 0.5536 0.9782 0.5387
C90 C 0.3707(13) 1.0755(6) 0.4643(11)
C91 C 0.4240(17) 1.1252(7) 0.3715(13)
C92 C 0.3463(18) 1.1552(7) 0.4728(12)
loop_
_geom_bond_atom_site_label_1
_geom_bond_atom_site_label_2
_geom_bond_site_symmetry_1
_geom_bond_site_symmetry_2
Cl1 C2 1_555 1_555
Cl2 C11 1_555 1_555
Cl3 C36 1_555 1_555
Cl4 C46 1_555 1_555
O1 C28 1_555 1_555
O2 C3 1_555 1_555
O3 C8 1_555 1_555
O4 C1 1_555 1_555
O5 C33 1_555 1_555
O6 C37 1_555 1_555
O7 C42 1_555 1_555
O8 C12 1_555 1_555
O9 C19 1_555 1_555
O10 C31 1_555 1_555
O11 C27 1_555 1_555
O12 C19 1_555 1_555
N1 C1 1_555 1_555
N2 C2 1_555 1_555
N3 C1 1_555 1_555
N4 C10 1_555 1_555
N5 C11 1_555 1_555
N6 C10 1_555 1_555
N7 C35 1_555 1_555
N8 C36 1_555 1_555
N9 C35 1_555 1_555
N10 C44 1_555 1_555
N11 C45 1_555 1_555
N12 C44 1_555 1_555
C2 N1 1_555 1_555
C3 N2 1_555 1_555
C4 O2 1_555 1_555
C5 C4 1_555 1_555
H1 C5 1_555 1_555
C6 C5 1_555 1_555
C7 C6 1_555 1_555
H2 C7 1_555 1_555
C8 C7 1_555 1_555
C9 C4 1_555 1_555
H3 C9 1_555 1_555
C10 O3 1_555 1_555
C11 N4 1_555 1_555
C12 N5 1_555 1_555
C13 O8 1_555 1_555
C14 C13 1_555 1_555
H4 C14 1_555 1_555
C15 C14 1_555 1_555
H5 C15 1_555 1_555
C16 C15 1_555 1_555
H6 C16 1_555 1_555
C17 O4 1_555 1_555
C18 C13 1_555 1_555
H7 C18 1_555 1_555
C19 C6 1_555 1_555
C20 O12 1_555 1_555
H8 C20 1_555 1_555
H9 C20 1_555 1_555
C21 C20 1_555 1_555
C22 C21 1_555 1_555
H10 C22 1_555 1_555
C23 C22 1_555 1_555
H11 C23 1_555 1_555
C24 C23 1_555 1_555
C25 C24 1_555 1_555
H12 C25 1_555 1_555
C26 C21 1_555 1_555
H13 C26 1_555 1_555
C27 C24 1_555 1_555
H14 C27 1_555 1_555
H15 C27 1_555 1_555
C28 O11 1_555 1_555
C29 C28 1_555 1_555
C30 C29 1_555 1_555
H16 C30 1_555 1_555
C31 C30 1_555 1_555
C32 C31 1_555 1_555
H17 C32 1_555 1_555
C33 C32 1_555 1_555
C34 C29 1_555 1_555
H18 C34 1_555 1_555
C35 O5 1_555 1_555
C36 N7 1_555 1_555
C37 N8 1_555 1_555
C38 O6 1_555 1_555
C39 C38 1_555 1_555
H19 C39 1_555 1_555
C40 C39 1_555 1_555
H20 C40 1_555 1_555
C41 C40 1_555 1_555
H21 C41 1_555 1_555
C42 C41 1_555 1_555
C43 C38 1_555 1_555
H22 C43 1_555 1_555
C44 O7 1_555 1_555
C45 O10 1_555 1_555
C46 N10 1_555 1_555
Cl5 C48 1_555 1_555
Cl6 C57 1_555 1_555
Cl7 C82 1_555 1_555
Cl8 C92 1_555 1_555
O13 C74 1_555 1_555
O14 C49 1_555 1_555
O15 C54 1_555 1_555
O16 C47 1_555 1_555
O17 C79 1_555 1_555
O18 C83 1_555 1_555
O19 C88 1_555 1_555
O20 C58 1_555 1_555
O21 C65 1_555 1_555
O22 C77 1_555 1_555
O23 C73 1_555 1_555
O24 C65 1_555 1_555
N13 C47 1_555 1_555
N14 C48 1_555 1_555
N15 C47 1_555 1_555
N16 C56 1_555 1_555
N17 C57 1_555 1_555
N18 C56 1_555 1_555
N19 C81 1_555 1_555
N20 C82 1_555 1_555
N21 C81 1_555 1_555
N22 C90 1_555 1_555
N23 C91 1_555 1_555
N24 C90 1_555 1_555
C48 N13 1_555 1_555
C49 N14 1_555 1_555
C50 O14 1_555 1_555
C51 C50 1_555 1_555
H23 C51 1_555 1_555
C52 C51 1_555 1_555
C53 C52 1_555 1_555
H24 C53 1_555 1_555
C54 C53 1_555 1_555
C55 C50 1_555 1_555
H25 C55 1_555 1_555
C56 O15 1_555 1_555
C57 N16 1_555 1_555
C58 N17 1_555 1_555
C59 O20 1_555 1_555
C60 C59 1_555 1_555
H26 C60 1_555 1_555
C61 C60 1_555 1_555
H27 C61 1_555 1_555
C62 C61 1_555 1_555
H28 C62 1_555 1_555
C63 O16 1_555 1_555
C64 C59 1_555 1_555
H29 C64 1_555 1_555
C65 C52 1_555 1_555
C66 O24 1_555 1_555
H30 C66 1_555 1_555
H31 C66 1_555 1_555
C67 C66 1_555 1_555
C68 C67 1_555 1_555
H32 C68 1_555 1_555
C69 C68 1_555 1_555
H33 C69 1_555 1_555
C70 C69 1_555 1_555
C71 C70 1_555 1_555
H34 C71 1_555 1_555
C72 C67 1_555 1_555
H35 C72 1_555 1_555
C73 C70 1_555 1_555
H36 C73 1_555 1_555
H37 C73 1_555 1_555
C74 O23 1_555 1_555
C75 C74 1_555 1_555
C76 C75 1_555 1_555
H38 C76 1_555 1_555
C77 C76 1_555 1_555
C78 C77 1_555 1_555
H39 C78 1_555 1_555
C79 C78 1_555 1_555
C80 C75 1_555 1_555
H40 C80 1_555 1_555
C81 O17 1_555 1_555
C82 N19 1_555 1_555
C83 N20 1_555 1_555
C84 O18 1_555 1_555
C85 C84 1_555 1_555
H41 C85 1_555 1_555
C86 C85 1_555 1_555
H42 C86 1_555 1_555
C87 C86 1_555 1_555
H43 C87 1_555 1_555
C88 C87 1_555 1_555
C89 C84 1_555 1_555
H44 C89 1_555 1_555
C90 O19 1_555 1_555
C91 O22 1_555 1_555
C92 N22 1_555 1_555
N3 C3 1_555 1_555
N6 C12 1_555 1_555
N9 C37 1_555 1_555
N11 C46 1_555 1_555
N12 C45 1_555 1_555
C8 C9 1_555 1_555
C16 C17 1_555 1_555
C17 C18 1_555 1_555
C25 C26 1_555 1_555
C33 C34 1_555 1_555
C42 C43 1_555 1_555
N15 C49 1_555 1_555
N18 C58 1_555 1_555
N21 C83 1_555 1_555
N23 C92 1_555 1_555
N24 C91 1_555 1_555
C54 C55 1_555 1_555
C62 C63 1_555 1_555
C63 C64 1_555 1_555
C71 C72 1_555 1_555
C79 C80 1_555 1_555
C88 C89 1_555 1_555

#END
