
#######################################################################
#
#                 Cambridge Crystallographic Data Centre
#                                CCDC 
#
#######################################################################
#
# If this CIF has been generated from an entry in the Cambridge 
# Structural Database, then it will include bibliographic, chemical, 
# crystal, experimental, refinement or atomic coordinate data resulting 
# from the CCDC's data processing and validation procedures.
#
#######################################################################

data_SISRUJ
_chemical_name_common            
'(4-carboxyphenyl)methanaminium 15-crown-5 tetrafluoroborate'
_chemical_formula_moiety         'C10 H20 O5,C8 H10 N1 O2 1+,B1 F4 1-'
_chemical_name_systematic        
'(4-carboxyphenyl)methanaminium 1,4,7,10,13-pentaoxacyclopentadecane tetrafluoroborate'
_symmetry_cell_setting           monoclinic
_symmetry_space_group_name_H-M   'P 21/n'
_symmetry_Int_Tables_number      14
_space_group_name_Hall           '-P 2yn'
loop_
_symmetry_equiv_pos_site_id
_symmetry_equiv_pos_as_xyz
1 x,y,z
2 1/2-x,1/2+y,1/2-z
3 -x,-y,-z
4 1/2+x,1/2-y,1/2+z
_cell_length_a                   9.5060(19)
_cell_length_b                   15.001(3)
_cell_length_c                   15.777(3)
_cell_angle_alpha                90
_cell_angle_beta                 94.68(3)
_cell_angle_gamma                90
_cell_volume                     2242.29
_exptl_crystal_colour            white
_exptl_crystal_description       block
_cell_formula_units_Z            4
loop_
_atom_site_label
_atom_site_type_symbol
_atom_site_fract_x
_atom_site_fract_y
_atom_site_fract_z
O1 O 0.4579(6) 0.6605(4) 0.5275(3)
O2 O 0.3241(5) 0.5967(3) 0.6756(3)
C1 C 0.3890(11) 0.7801(6) 0.4493(6)
H1 H 0.2927 0.7605 0.4543
H2 H 0.3923 0.8074 0.3937
C2 C 0.4738(10) 0.7080(6) 0.4533(6)
H3 H 0.4504 0.6701 0.4044
H4 H 0.5713 0.7268 0.4521
O3 O 0.1744(5) 0.7520(3) 0.6904(3)
C3 C 0.3568(9) 0.5929(7) 0.5247(6)
H5 H 0.3698 0.5530 0.4776
H6 H 0.2629 0.6183 0.5166
O4 O 0.3021(5) 0.9160(3) 0.6650(4)
C4 C 0.3730(8) 0.5422(5) 0.6070(6)
H7 H 0.4714 0.5266 0.6202
H8 H 0.3186 0.4875 0.6017
O5 O 0.4262(7) 0.8510(5) 0.5174(3)
C5 C 0.1785(8) 0.5963(5) 0.6799(5)
H9 H 0.1494 0.5413 0.7056
H10 H 0.1313 0.6005 0.6232
C6 C 0.1390(8) 0.6752(6) 0.7329(4)
H11 H 0.0386 0.6744 0.7400
H12 H 0.1899 0.6728 0.7887
C7 C 0.1292(9) 0.8309(6) 0.7290(5)
H13 H 0.1808 0.8396 0.7839
H14 H 0.0293 0.8275 0.7371
C8 C 0.1572(9) 0.9060(5) 0.6706(7)
H15 H 0.1111 0.8943 0.6146
H16 H 0.1185 0.9608 0.6917
C9 C 0.3382(11) 0.9669(6) 0.5918(7)
H17 H 0.2764 1.0183 0.5855
H18 H 0.4341 0.9887 0.6025
C10 C 0.3277(11) 0.9181(7) 0.5143(6)
H19 H 0.2338 0.8929 0.5046
H20 H 0.3428 0.9579 0.4674
O6 O 0.2730(6) 0.7832(3) 1.1142(3)
O7 O 0.3396(5) 0.9217(3) 1.0862(3)
H21 H 0.2972 0.9326 1.1282
C11 C 0.4461(5) 0.8739(4) 0.9365(3)
H22 H 0.4426 0.9340 0.9508
C12 C 0.5040(6) 0.8490(4) 0.8638(3)
H23 H 0.5398 0.8923 0.8293
C13 C 0.5102(6) 0.7600(4) 0.8405(3)
C14 C 0.4577(6) 0.6960(4) 0.8935(4)
H24 H 0.4624 0.6360 0.8793
C15 C 0.3991(6) 0.7207(4) 0.9666(4)
H25 H 0.3635 0.6773 1.0011
C16 C 0.3923(6) 0.8106(4) 0.9897(3)
C17 C 0.3298(6) 0.8352(5) 1.0685(4)
N1 N 0.4984(5) 0.7650(3) 0.6837(3)
H26 H 0.4141 0.7389 0.6770
H27 H 0.5468 0.7526 0.6392
H28 H 0.4873 0.8237 0.6876
C18 C 0.5753(7) 0.7318(4) 0.7611(4)
H29 H 0.6717 0.7534 0.7635
H30 H 0.5782 0.6672 0.7589
F1 F 0.6453(5) 0.5058(4) 0.8360(3)
F2 F 0.8132(9) 0.5492(4) 0.7596(5)
F3 F 0.8303(7) 0.4272(4) 0.8186(4)
F4 F 0.6824(6) 0.4420(7) 0.7115(4)
B1 B 0.7388(7) 0.4795(5) 0.7813(4)
loop_
_geom_bond_atom_site_label_1
_geom_bond_atom_site_label_2
_geom_bond_site_symmetry_1
_geom_bond_site_symmetry_2
O1 C2 1_555 1_555
O2 C4 1_555 1_555
C1 H1 1_555 1_555
H2 C1 1_555 1_555
C2 C1 1_555 1_555
H3 C2 1_555 1_555
H4 C2 1_555 1_555
O3 C6 1_555 1_555
C3 O1 1_555 1_555
H5 C3 1_555 1_555
H6 C3 1_555 1_555
O4 C8 1_555 1_555
C4 C3 1_555 1_555
H7 C4 1_555 1_555
H8 C4 1_555 1_555
O5 C1 1_555 1_555
C5 O2 1_555 1_555
H9 C5 1_555 1_555
H10 C5 1_555 1_555
C6 C5 1_555 1_555
H11 C6 1_555 1_555
H12 C6 1_555 1_555
C7 O3 1_555 1_555
H13 C7 1_555 1_555
H14 C7 1_555 1_555
C8 C7 1_555 1_555
H15 C8 1_555 1_555
H16 C8 1_555 1_555
C9 O4 1_555 1_555
H17 C9 1_555 1_555
H18 C9 1_555 1_555
C10 O5 1_555 1_555
H19 C10 1_555 1_555
H20 C10 1_555 1_555
O6 C17 1_555 1_555
O7 H21 1_555 1_555
C11 H22 1_555 1_555
C12 C11 1_555 1_555
H23 C12 1_555 1_555
C13 C12 1_555 1_555
C14 C13 1_555 1_555
H24 C14 1_555 1_555
C15 C14 1_555 1_555
H25 C15 1_555 1_555
C16 C11 1_555 1_555
C17 O7 1_555 1_555
N1 H26 1_555 1_555
H27 N1 1_555 1_555
H28 N1 1_555 1_555
C18 C13 1_555 1_555
H29 C18 1_555 1_555
H30 C18 1_555 1_555
F1 B1 1_555 1_555
F2 B1 1_555 1_555
F3 B1 1_555 1_555
F4 B1 1_555 1_555
C9 C10 1_555 1_555
C15 C16 1_555 1_555
C16 C17 1_555 1_555
N1 C18 1_555 1_555

#END
