
#######################################################################
#
#                 Cambridge Crystallographic Data Centre
#                                CCDC 
#
#######################################################################
#
# If this CIF has been generated from an entry in the Cambridge 
# Structural Database, then it will include bibliographic, chemical, 
# crystal, experimental, refinement or atomic coordinate data resulting 
# from the CCDC's data processing and validation procedures.
#
#######################################################################

data_SISSEU
_chemical_name_common            
'(4-carboxyphenyl)methanaminium 18-crown-6 tetrafluoroborate'
_chemical_formula_moiety         'C12 H24 O6,C8 H10 N1 O2 1+,B1 F4 1-'
_chemical_name_systematic        
'(4-carboxyphenyl)methanaminium 1,4,7,10,13,16-hexaoxacyclooctadecane tetrafluoroborate'
_symmetry_cell_setting           monoclinic
_symmetry_space_group_name_H-M   'C 2/c'
_symmetry_Int_Tables_number      15
_space_group_name_Hall           '-C 2yn'
loop_
_symmetry_equiv_pos_site_id
_symmetry_equiv_pos_as_xyz
1 x,y,z
2 -x,y,1/2-z
3 1/2+x,1/2+y,z
4 1/2-x,1/2+y,1/2-z
5 -x,-y,-z
6 x,-y,1/2+z
7 1/2-x,1/2-y,-z
8 1/2+x,1/2-y,1/2+z
_cell_length_a                   23.270(5)
_cell_length_b                   12.926(3)
_cell_length_c                   19.947(4)
_cell_angle_alpha                90
_cell_angle_beta                 117.76(3)
_cell_angle_gamma                90
_cell_volume                     5309.28
_exptl_crystal_colour            colorless
_exptl_crystal_description       Prism
_cell_formula_units_Z            8
loop_
_atom_site_label
_atom_site_type_symbol
_atom_site_fract_x
_atom_site_fract_y
_atom_site_fract_z
O1 O 0.05557(16) 0.3105(2) 0.19919(16)
H1 H 0.0438 0.3384 0.1561
N1 N 0.22097(13) -0.01602(19) 0.52439(14)
H2 H 0.1804 -0.0373 0.4954
H3 H 0.2349 -0.0397 0.5713
H4 H 0.2465 -0.0399 0.5058
C1 C 0.22836(18) 0.1508(3) 0.4070(2)
H5 H 0.2707 0.1259 0.4293
C2 C 0.2228(2) 0.1013(3) 0.52562(19)
H6 H 0.1998 0.1272 0.5521
H7 H 0.2675 0.1247 0.5526
C3 C 0.2032(2) 0.1942(3) 0.3370(2)
H8 H 0.2287 0.1989 0.3125
C4 C 0.1317(2) 0.1810(3) 0.4142(2)
H9 H 0.1073 0.1788 0.4402
C5 C 0.1159(2) 0.2811(3) 0.2256(2)
C6 C 0.1049(2) 0.2246(3) 0.3413(2)
H10 H 0.0625 0.2494 0.3191
C7 C 0.1404(2) 0.2314(3) 0.30182(19)
C8 C 0.19205(19) 0.1427(3) 0.44645(18)
O2 O 0.14931(16) 0.2936(2) 0.19640(14)
O3 O 0.09097(15) 0.0605(2) -0.0031(2)
O4 O 0.1922(2) 0.0497(2) 0.14873(18)
O5 O 0.32052(18) 0.0176(2) 0.18228(18)
O6 O 0.35383(18) 0.0876(3) 0.0744(3)
O7 O 0.12907(19) 0.1327(2) -0.10852(17)
O8 O 0.2621(2) 0.1139(2) -0.0771(2)
C9 C 0.0494(2) 0.1169(5) -0.0672(4)
H11 H 0.0526 0.1899 -0.0548
H12 H 0.0049 0.0952 -0.0838
C10 C 0.0672(3) 0.0999(4) -0.1306(4)
H13 H 0.0635 0.0270 -0.1435
H14 H 0.0373 0.1379 -0.1753
C11 C 0.3248(4) 0.1538(5) -0.0469(4)
H15 H 0.3256 0.2240 -0.0292
H16 H 0.3393 0.1548 -0.0852
C12 C 0.2340(4) -0.0060(4) 0.2112(3)
H17 H 0.2337 -0.0783 0.1980
H18 H 0.2209 -0.0011 0.2507
C13 C 0.0844(3) 0.0859(4) 0.0622(4)
H19 H 0.0396 0.0764 0.0515
H20 H 0.0956 0.1581 0.0749
C14 C 0.1254(4) 0.0229(5) 0.1248(4)
H21 H 0.1182 -0.0494 0.1103
H22 H 0.1152 0.0335 0.1662
C15 C 0.2978(3) 0.0370(4) 0.2371(2)
H23 H 0.3275 0.0061 0.2852
H24 H 0.2966 0.1110 0.2445
C16 C 0.1500(3) 0.1267(4) -0.1677(3)
H25 H 0.1205 0.1654 -0.2121
H26 H 0.1505 0.0553 -0.1824
C17 C 0.2168(4) 0.1717(5) -0.1350(3)
H27 H 0.2295 0.1777 -0.1747
H28 H 0.2160 0.2408 -0.1164
C18 C 0.3675(3) 0.0869(5) 0.0169(5)
H29 H 0.3642 0.0165 -0.0014
H30 H 0.4121 0.1092 0.0350
C19 C 0.3976(3) 0.0365(5) 0.1416(5)
H31 H 0.4416 0.0593 0.1563
H32 H 0.3955 -0.0376 0.1329
C20 C 0.3805(3) 0.0601(5) 0.2040(4)
H33 H 0.4122 0.0300 0.2514
H34 H 0.3792 0.1343 0.2107
F1 F 0.0687(7) 0.7251(15) 0.1461(6)
F2 F 0.1484(4) 0.7240(16) 0.1251(9)
F3 F 0.0875(16) 0.5976(9) 0.0872(7)
F4 F 0.0798(8) 0.7690(14) 0.0407(9)
B1 B 0.0880(3) 0.7019(5) 0.0937(3)
F5? F 0.0378(5) 0.6527(11) 0.0816(9)
F6? F 0.1162(10) 0.7561(7) 0.1575(5)
F7? F 0.1287(7) 0.6311(10) 0.0919(8)
F8? F 0.0556(6) 0.7624(11) 0.0326(6)
loop_
_geom_bond_atom_site_label_1
_geom_bond_atom_site_label_2
_geom_bond_site_symmetry_1
_geom_bond_site_symmetry_2
O1 H1 1_555 1_555
N1 H2 1_555 1_555
H3 N1 1_555 1_555
H4 N1 1_555 1_555
C1 H5 1_555 1_555
C2 N1 1_555 1_555
H6 C2 1_555 1_555
H7 C2 1_555 1_555
C3 C1 1_555 1_555
H8 C3 1_555 1_555
C4 H9 1_555 1_555
C5 O1 1_555 1_555
C6 C4 1_555 1_555
H10 C6 1_555 1_555
C7 C3 1_555 1_555
C8 C1 1_555 1_555
O2 C5 1_555 1_555
O3 C9 1_555 1_555
O4 C12 1_555 1_555
O5 C15 1_555 1_555
O6 C18 1_555 1_555
O7 C10 1_555 1_555
O8 C11 1_555 1_555
C9 H11 1_555 1_555
H12 C9 1_555 1_555
C10 C9 1_555 1_555
H13 C10 1_555 1_555
H14 C10 1_555 1_555
C11 H15 1_555 1_555
H16 C11 1_555 1_555
C12 H17 1_555 1_555
H18 C12 1_555 1_555
C13 O3 1_555 1_555
H19 C13 1_555 1_555
H20 C13 1_555 1_555
C14 O4 1_555 1_555
H21 C14 1_555 1_555
H22 C14 1_555 1_555
C15 C12 1_555 1_555
H23 C15 1_555 1_555
H24 C15 1_555 1_555
C16 O7 1_555 1_555
H25 C16 1_555 1_555
H26 C16 1_555 1_555
C17 O8 1_555 1_555
H27 C17 1_555 1_555
H28 C17 1_555 1_555
C18 C11 1_555 1_555
H29 C18 1_555 1_555
H30 C18 1_555 1_555
C19 O6 1_555 1_555
H31 C19 1_555 1_555
H32 C19 1_555 1_555
C20 O5 1_555 1_555
H33 C20 1_555 1_555
H34 C20 1_555 1_555
F1 B1 1_555 1_555
F2 B1 1_555 1_555
F3 B1 1_555 1_555
F4 B1 1_555 1_555
C2 C8 1_555 1_555
C4 C8 1_555 1_555
C5 C7 1_555 1_555
C6 C7 1_555 1_555
C13 C14 1_555 1_555
C16 C17 1_555 1_555
C19 C20 1_555 1_555

#END
