
#######################################################################
#
#                 Cambridge Crystallographic Data Centre
#                                CCDC 
#
#######################################################################
#
# If this CIF has been generated from an entry in the Cambridge 
# Structural Database, then it will include bibliographic, chemical, 
# crystal, experimental, refinement or atomic coordinate data resulting 
# from the CCDC's data processing and validation procedures.
#
#######################################################################

data_SISZAY
_chemical_formula_moiety         'C21 H32 O8,2(H2 O1)'
_chemical_name_systematic        
'3a,5,11-trihydroxy-7-(hydroxymethyl)-2-(2-hydroxypropan-2-yl)-2-methoxy-4,10-dimethyl-2,3,3a,4,5,7,8,9,10,10a-decahydro-6H-5,10-methanocyclopenta[6,7]cycloocta[1,2-b]furan-6-one dihydrate'
_symmetry_cell_setting           orthorhombic
_symmetry_space_group_name_H-M   'P 21 21 21'
_symmetry_Int_Tables_number      19
_space_group_name_Hall           'P 2ac 2ab'
loop_
_symmetry_equiv_pos_site_id
_symmetry_equiv_pos_as_xyz
1 x,y,z
2 1/2+x,1/2-y,-z
3 -x,1/2+y,1/2-z
4 1/2-x,-y,1/2+z
_cell_length_a                   8.6292(2)
_cell_length_b                   9.7930(2)
_cell_length_c                   26.5455(6)
_cell_angle_alpha                90
_cell_angle_beta                 90
_cell_angle_gamma                90
_cell_volume                     2243.25
_exptl_crystal_colour            colorless
_exptl_crystal_description       block
_cell_formula_units_Z            4
loop_
_atom_site_label
_atom_site_type_symbol
_atom_site_fract_x
_atom_site_fract_y
_atom_site_fract_z
C1 C 0.2349(2) 0.46572(19) 0.14204(7)
C2 C 0.0968(2) 0.5569(2) 0.13218(8)
H1 H 0.1077 0.6423 0.1511
C3 C 0.1121(3) 0.5856(3) 0.07525(9)
H2 H 0.0129 0.5731 0.0587
H3 H 0.1463 0.6788 0.0697
C4 C 0.2309(3) 0.4853(2) 0.05425(8)
H4 H 0.1808 0.4155 0.0341
H5 H 0.3071 0.5321 0.0337
C5 C 0.3055(2) 0.42361(19) 0.10020(7)
C6 C 0.2886(2) 0.42500(19) 0.19172(7)
C7 C 0.4180(2) 0.31853(19) 0.19406(7)
C8 C 0.5278(2) 0.33894(18) 0.14967(7)
H6 H 0.5701 0.4317 0.1513
C9 C 0.4382(2) 0.32312(19) 0.09963(7)
C10 C 0.3551(2) 0.17003(18) 0.19367(7)
H7 H 0.4459 0.1117 0.1990
C11 C 0.2836(2) 0.12207(18) 0.14292(7)
C12 C 0.3626(2) 0.18075(18) 0.09539(7)
H8 H 0.2851 0.1844 0.0684
C13 C 0.3074(2) -0.03305(18) 0.13531(7)
H9 H 0.3371 -0.0759 0.1668
H10 H 0.2124 -0.0751 0.1235
C14 C 0.4362(2) -0.05000(18) 0.09608(7)
C15 C -0.0536(3) 0.4864(3) 0.14660(10)
H11 H -0.0506 0.4643 0.1822
H12 H -0.1390 0.5492 0.1412
C16 C 0.5461(3) 0.3487(2) 0.05455(8)
H13 H 0.4909 0.3318 0.0238
H14 H 0.6338 0.2887 0.0566
H15 H 0.5810 0.4418 0.0551
C17 C 0.2478(3) 0.1411(2) 0.23813(7)
H16 H 0.2994 0.1646 0.2690
H17 H 0.2214 0.0459 0.2386
H18 H 0.1552 0.1946 0.2348
C18 C 0.5860(2) -0.1192(2) 0.11534(7)
C19 C 0.5544(3) -0.2669(2) 0.12962(9)
H19 H 0.6472 -0.3072 0.1430
H20 H 0.5220 -0.3167 0.1003
H21 H 0.4741 -0.2702 0.1546
C20 C 0.7152(3) -0.1088(3) 0.07636(9)
H22 H 0.7371 -0.0144 0.0697
H23 H 0.6831 -0.1528 0.0458
H24 H 0.8067 -0.1527 0.0890
C21 C 0.2762(3) -0.0698(3) 0.02238(9)
H25 H 0.1869 -0.0462 0.0421
H26 H 0.2470 -0.1338 -0.0033
H27 H 0.3177 0.0110 0.0070
O1 O -0.08183(17) 0.36504(18) 0.11882(8)
H28 H -0.009(3) 0.312(3) 0.1243(13)
O2 O 0.2383(2) 0.47452(16) 0.23070(5)
O3 O 0.50338(17) 0.33967(15) 0.23925(5)
H29 H 0.441(3) 0.371(3) 0.2601(9)
O4 O 0.65187(15) 0.24467(14) 0.15446(6)
H30 H 0.732(2) 0.281(3) 0.1436(10)
O5 O 0.12251(15) 0.15696(14) 0.14030(5)
H31 H 0.072(3) 0.094(2) 0.1530(10)
O6 O 0.47860(15) 0.08413(13) 0.08110(5)
O7 O 0.63317(17) -0.05150(14) 0.16065(5)
H32 H 0.649(3) 0.0278(16) 0.1533(10)
O8 O 0.39002(17) -0.12936(15) 0.05394(5)
O9 O 0.02780(19) 0.4270(2) 0.32164(7)
H33 H 0.1205(16) 0.417(4) 0.3179(13)
H34 H -0.023(3) 0.381(3) 0.3018(11)
O10 O 0.1622(2) 0.76583(19) 0.24413(8)
H35 H 0.250(2) 0.784(3) 0.2550(13)
H36 H 0.158(4) 0.6818(15) 0.2409(14)
loop_
_geom_bond_atom_site_label_1
_geom_bond_atom_site_label_2
_geom_bond_site_symmetry_1
_geom_bond_site_symmetry_2
C1 C2 1_555 1_555
C2 H1 1_555 1_555
C3 C2 1_555 1_555
H2 C3 1_555 1_555
H3 C3 1_555 1_555
C4 C3 1_555 1_555
H4 C4 1_555 1_555
H5 C4 1_555 1_555
C5 C1 1_555 1_555
C6 C1 1_555 1_555
C7 C6 1_555 1_555
C8 C7 1_555 1_555
H6 C8 1_555 1_555
C9 C5 1_555 1_555
C10 C7 1_555 1_555
H7 C10 1_555 1_555
C11 C10 1_555 1_555
C12 C9 1_555 1_555
H8 C12 1_555 1_555
C13 C11 1_555 1_555
H9 C13 1_555 1_555
H10 C13 1_555 1_555
C14 C13 1_555 1_555
C15 C2 1_555 1_555
H11 C15 1_555 1_555
H12 C15 1_555 1_555
C16 C9 1_555 1_555
H13 C16 1_555 1_555
H14 C16 1_555 1_555
H15 C16 1_555 1_555
C17 C10 1_555 1_555
H16 C17 1_555 1_555
H17 C17 1_555 1_555
H18 C17 1_555 1_555
C18 C14 1_555 1_555
C19 C18 1_555 1_555
H19 C19 1_555 1_555
H20 C19 1_555 1_555
H21 C19 1_555 1_555
C20 C18 1_555 1_555
H22 C20 1_555 1_555
H23 C20 1_555 1_555
H24 C20 1_555 1_555
C21 H25 1_555 1_555
H26 C21 1_555 1_555
H27 C21 1_555 1_555
O1 C15 1_555 1_555
H28 O1 1_555 1_555
O2 C6 1_555 1_555
O3 C7 1_555 1_555
H29 O3 1_555 1_555
O4 C8 1_555 1_555
H30 O4 1_555 1_555
O5 C11 1_555 1_555
H31 O5 1_555 1_555
O6 C12 1_555 1_555
O7 C18 1_555 1_555
H32 O7 1_555 1_555
O8 C14 1_555 1_555
O9 H33 1_555 1_555
H34 O9 1_555 1_555
O10 H35 1_555 1_555
H36 O10 1_555 1_555
C4 C5 1_555 1_555
C8 C9 1_555 1_555
C11 C12 1_555 1_555
C14 O6 1_555 1_555
C21 O8 1_555 1_555

#END
