
#######################################################################
#
#                 Cambridge Crystallographic Data Centre
#                                CCDC 
#
#######################################################################
#
# If this CIF has been generated from an entry in the Cambridge 
# Structural Database, then it will include bibliographic, chemical, 
# crystal, experimental, refinement or atomic coordinate data resulting 
# from the CCDC's data processing and validation procedures.
#
#######################################################################

data_SITBUT01
_chemical_formula_moiety         'C14 H10 Cl2 N2'
_chemical_name_systematic        
1,4-bis(2-Chlorophenyl)-2,3-diaza-1,3-butadiene
_symmetry_cell_setting           monoclinic
_symmetry_space_group_name_H-M   'P 21/c'
_symmetry_Int_Tables_number      14
_space_group_name_Hall           '-P 2ybc'
loop_
_symmetry_equiv_pos_site_id
_symmetry_equiv_pos_as_xyz
1 x,y,z
2 -x,1/2+y,1/2-z
3 -x,-y,-z
4 x,1/2-y,1/2+z
_cell_length_a                   3.8516(2)
_cell_length_b                   13.4638(11)
_cell_length_c                   11.8868(9)
_cell_angle_alpha                90
_cell_angle_beta                 93.494(4)
_cell_angle_gamma                90
_cell_volume                     615.27
_exptl_crystal_colour            yellow
_exptl_crystal_description       block
_cell_formula_units_Z            2
loop_
_atom_site_label
_atom_site_type_symbol
_atom_site_fract_x
_atom_site_fract_y
_atom_site_fract_z
Cl1 Cl 0.97960(18) 0.61346(4) 0.83935(5)
N1 N 0.4743(6) 0.55074(14) 0.51282(17)
C1 C 0.6580(6) 0.67977(17) 0.64168(19)
C2 C 0.8003(6) 0.70527(17) 0.7491(2)
C3 C 0.7957(7) 0.80204(18) 0.7893(2)
H1 H 0.8927 0.8176 0.8626
C4 C 0.6471(7) 0.87542(18) 0.7205(2)
H2 H 0.6431 0.9420 0.7467
C5 C 0.5035(7) 0.85288(19) 0.6134(2)
H3 H 0.4018 0.9039 0.5670
C6 C 0.5089(7) 0.75630(18) 0.5746(2)
H4 H 0.4102 0.7414 0.5014
C7 C 0.6646(7) 0.57716(18) 0.60008(19)
H5 H 0.8115 0.5297 0.6382
Cl1B Cl 0.02040(18) 0.38654(4) 0.16065(5)
N1B N 0.5257(6) 0.44926(14) 0.48718(17)
C1B C 0.3420(6) 0.32023(17) 0.35832(19)
C2B C 0.1997(6) 0.29473(17) 0.2509(2)
C3B C 0.2043(7) 0.19796(18) 0.2107(2)
H1B H 0.1073 0.1824 0.1374
C4B C 0.3529(7) 0.12458(18) 0.2795(2)
H2B H 0.3569 0.0580 0.2533
C5B C 0.4965(7) 0.14712(19) 0.3866(2)
H3B H 0.5982 0.0961 0.4330
C6B C 0.4911(7) 0.24370(18) 0.4254(2)
H4B H 0.5898 0.2586 0.4986
C7B C 0.3354(7) 0.42284(18) 0.39992(19)
H5B H 0.1885 0.4703 0.3618
loop_
_geom_bond_atom_site_label_1
_geom_bond_atom_site_label_2
_geom_bond_site_symmetry_1
_geom_bond_site_symmetry_2
Cl1 C2 1_555 1_555
N1 C7 1_555 1_555
C1 C2 1_555 1_555
C2 C3 1_555 1_555
C3 H1 1_555 1_555
C4 C3 1_555 1_555
H2 C4 1_555 1_555
C5 C4 1_555 1_555
H3 C5 1_555 1_555
C6 C1 1_555 1_555
H4 C6 1_555 1_555
C7 C1 1_555 1_555
H5 C7 1_555 1_555
Cl1B C2B 1_555 1_555
N1B N1 1_555 1_555
C1B C2B 1_555 1_555
C2B C3B 1_555 1_555
C3B H1B 1_555 1_555
C4B C3B 1_555 1_555
H2B C4B 1_555 1_555
C5B C4B 1_555 1_555
H3B C5B 1_555 1_555
C6B C1B 1_555 1_555
H4B C6B 1_555 1_555
C7B N1B 1_555 1_555
H5B C7B 1_555 1_555
C5 C6 1_555 1_555
C1B C7B 1_555 1_555
C5B C6B 1_555 1_555

#END
