
#######################################################################
#
#                 Cambridge Crystallographic Data Centre
#                                CCDC 
#
#######################################################################
#
# If this CIF has been generated from an entry in the Cambridge 
# Structural Database, then it will include bibliographic, chemical, 
# crystal, experimental, refinement or atomic coordinate data resulting 
# from the CCDC's data processing and validation procedures.
#
#######################################################################

data_SITFAD
_chemical_formula_moiety         'C16 H16 O7'
_chemical_name_systematic        '3,4-Dihydroxyphenyl 3,4,5-trimethoxybenzoate'
_symmetry_cell_setting           monoclinic
_symmetry_space_group_name_H-M   'P 21/c'
_symmetry_Int_Tables_number      14
_space_group_name_Hall           '-P 2ybc'
loop_
_symmetry_equiv_pos_site_id
_symmetry_equiv_pos_as_xyz
1 x,y,z
2 -x,1/2+y,1/2-z
3 -x,-y,-z
4 x,1/2-y,1/2+z
_cell_length_a                   11.552(2)
_cell_length_b                   12.817(3)
_cell_length_c                   10.572(2)
_cell_angle_alpha                90
_cell_angle_beta                 105.57(3)
_cell_angle_gamma                90
_cell_volume                     1507.87
_exptl_crystal_colour            colorless
_exptl_crystal_description       block
_chemical_melting_point          '408 K'
_cell_formula_units_Z            4
_exptl_crystal_recrystallization_method 'ethyl acetate'
loop_
_atom_site_label
_atom_site_type_symbol
_atom_site_fract_x
_atom_site_fract_y
_atom_site_fract_z
O1 O -0.00088(14) -0.18103(12) 0.14141(16)
O2 O 0.09341(15) -0.33144(11) 0.01850(15)
O3 O 0.27941(14) -0.29798(11) -0.07081(15)
O4 O 0.41661(13) 0.07744(11) 0.09149(15)
O5 O 0.24027(13) 0.13828(11) 0.11272(16)
O6 O 0.24533(18) 0.48003(14) -0.05695(17)
H1 H 0.261(3) 0.541(3) -0.030(3)
O7 O 0.39231(17) 0.54885(12) 0.17566(19)
H2 H 0.448(3) 0.556(2) 0.244(3)
C1 C 0.25245(18) -0.04039(15) 0.07245(19)
C2 C 0.15217(18) -0.05794(16) 0.1181(2)
H3 H 0.1214 -0.0047 0.1594
C3 C 0.09822(18) -0.15538(17) 0.1017(2)
C4 C 0.14486(19) -0.23470(15) 0.0401(2)
C5 C 0.24393(19) -0.21565(15) -0.00864(19)
C6 C 0.29865(18) -0.11831(15) 0.0089(2)
H4 H 0.3657 -0.1054 -0.0216
C7 C 0.31335(19) 0.06225(15) 0.09277(19)
C8 C 0.28605(19) 0.24148(15) 0.1316(2)
C9 C 0.2473(2) 0.31040(16) 0.0299(2)
H5 H 0.1966 0.2881 -0.0495
C10 C 0.28413(19) 0.41347(16) 0.0461(2)
C11 C 0.35900(18) 0.44546(15) 0.1663(2)
C12 C 0.3939(2) 0.37553(18) 0.2672(2)
H6 H 0.4424 0.3978 0.3478
C13 C 0.3579(2) 0.27155(17) 0.2510(2)
H7 H 0.382 0.224 0.3194
C14 C -0.0468(2) -0.1053(2) 0.2138(2)
H8 H 0.0153 -0.0851 0.2901
H9 H -0.1131 -0.1346 0.2405
H10 H -0.0737 -0.0452 0.1596
C15 C 0.0859(2) -0.38926(18) 0.1315(3)
H11 H 0.1518 -0.3706 0.2048
H12 H 0.0893 -0.4626 0.1141
H13 H 0.0115 -0.3735 0.1514
C16 C 0.3815(2) -0.28499(19) -0.1210(3)
H14 H 0.3659 -0.2304 -0.1855
H15 H 0.3971 -0.349 -0.1606
H16 H 0.4502 -0.2668 -0.0505
loop_
_geom_bond_atom_site_label_1
_geom_bond_atom_site_label_2
_geom_bond_site_symmetry_1
_geom_bond_site_symmetry_2
O1 C3 1_555 1_555
O2 C4 1_555 1_555
O3 C5 1_555 1_555
O4 C7 1_555 1_555
O5 C7 1_555 1_555
O6 H1 1_555 1_555
O7 H2 1_555 1_555
C1 C2 1_555 1_555
C2 H3 1_555 1_555
C3 C2 1_555 1_555
C4 C3 1_555 1_555
C5 C4 1_555 1_555
C6 C1 1_555 1_555
H4 C6 1_555 1_555
C7 C1 1_555 1_555
C8 O5 1_555 1_555
C9 C8 1_555 1_555
H5 C9 1_555 1_555
C10 O6 1_555 1_555
C11 O7 1_555 1_555
C12 C11 1_555 1_555
H6 C12 1_555 1_555
C13 C8 1_555 1_555
H7 C13 1_555 1_555
C14 O1 1_555 1_555
H8 C14 1_555 1_555
H9 C14 1_555 1_555
H10 C14 1_555 1_555
C15 O2 1_555 1_555
H11 C15 1_555 1_555
H12 C15 1_555 1_555
H13 C15 1_555 1_555
C16 O3 1_555 1_555
H14 C16 1_555 1_555
H15 C16 1_555 1_555
H16 C16 1_555 1_555
C5 C6 1_555 1_555
C9 C10 1_555 1_555
C10 C11 1_555 1_555
C12 C13 1_555 1_555

#END
