
#######################################################################
#
#                 Cambridge Crystallographic Data Centre
#                                CCDC 
#
#######################################################################
#
# If this CIF has been generated from an entry in the Cambridge 
# Structural Database, then it will include bibliographic, chemical, 
# crystal, experimental, refinement or atomic coordinate data resulting 
# from the CCDC's data processing and validation procedures.
#
#######################################################################

data_SITGOT
_chemical_formula_moiety         'C24 H27 N1 O1 S1'
_chemical_name_systematic        
2-t-Butyl-4-methyl-6-(((2-(phenylsulfanyl)phenyl)amino)methyl)phenol
_symmetry_cell_setting           triclinic
_symmetry_space_group_name_H-M   'P -1'
_symmetry_Int_Tables_number      2
_space_group_name_Hall           '-P 1'
loop_
_symmetry_equiv_pos_site_id
_symmetry_equiv_pos_as_xyz
1 x,y,z
2 -x,-y,-z
_cell_length_a                   10.483(5)
_cell_length_b                   10.507(5)
_cell_length_c                   10.554(5)
_cell_angle_alpha                72.669(6)
_cell_angle_beta                 81.005(6)
_cell_angle_gamma                73.973(6)
_cell_volume                     1063.08
_exptl_crystal_colour            colorless
_exptl_crystal_description       rod
_cell_formula_units_Z            2
loop_
_atom_site_label
_atom_site_type_symbol
_atom_site_fract_x
_atom_site_fract_y
_atom_site_fract_z
S1 S 0.16902(6) 1.07055(6) 0.25209(7)
N1 N 0.38307(18) 0.86314(19) 0.1403(2)
O1 O 0.63113(17) 0.89615(15) 0.13838(17)
C1 C 0.6770(2) 0.7609(2) 0.1368(2)
C2 C 0.8053(2) 0.6890(2) 0.1765(2)
C3 C 0.8503(2) 0.5563(2) 0.1624(2)
H1 H 0.9365 0.5084 0.1835
C4 C 0.7744(2) 0.4907(2) 0.1188(2)
C5 C 0.6463(2) 0.5628(2) 0.0893(2)
H2 H 0.5919 0.5198 0.0638
C6 C 0.5961(2) 0.6971(2) 0.0963(2)
C7 C 0.4568(2) 0.7736(2) 0.0569(2)
H3 H 0.4628 0.8288 -0.0346
H4 H 0.4070 0.7071 0.0607
C8 C 0.32854(19) 0.8084(2) 0.2676(2)
C9 C 0.3717(2) 0.6703(2) 0.3366(2)
H5 H 0.4379 0.6119 0.2966
C10 C 0.3180(2) 0.6198(3) 0.4622(3)
H6 H 0.3473 0.5272 0.5057
C11 C 0.2216(3) 0.7034(3) 0.5252(3)
H7 H 0.1849 0.6676 0.6102
C12 C 0.1797(3) 0.8409(3) 0.4612(3)
H8 H 0.1158 0.8983 0.5043
C13 C 0.2315(2) 0.8949(2) 0.3336(2)
C14 C 0.2882(2) 1.1513(2) 0.2766(2)
C15 C 0.4086(2) 1.0812(2) 0.3299(2)
H9 H 0.4318 0.9856 0.3559
C16 C 0.4943(2) 1.1543(3) 0.3441(3)
H10 H 0.5760 1.1074 0.3784
C17 C 0.4605(3) 1.2948(3) 0.3084(3)
H11 H 0.5182 1.3433 0.3191
C18 C 0.3404(3) 1.3636(3) 0.2565(3)
H12 H 0.3169 1.4592 0.2319
C19 C 0.2547(2) 1.2927(2) 0.2404(2)
H13 H 0.1737 1.3404 0.2050
C20 C 0.8878(2) 0.7529(3) 0.2373(2)
C21 C 0.9188(3) 0.8825(3) 0.1375(3)
H14 H 0.8375 0.9519 0.1188
H15 H 0.9615 0.8608 0.0565
H16 H 0.9769 0.9158 0.1746
C22 C 1.0208(3) 0.6519(3) 0.2775(3)
H17 H 1.0690 0.6930 0.3180
H18 H 1.0724 0.6300 0.1998
H19 H 1.0044 0.5693 0.3398
C23 C 0.8111(3) 0.7865(3) 0.3647(3)
H20 H 0.8599 0.8315 0.4001
H21 H 0.8006 0.7030 0.4294
H22 H 0.7251 0.8461 0.3441
C24 C 0.8279(3) 0.3452(3) 0.1069(3)
H23 H 0.7634 0.2927 0.1480
H24 H 0.9089 0.3041 0.1506
H25 H 0.8454 0.3465 0.0146
H26 H 0.330(2) 0.936(2) 0.100(2)
H27 H 0.545(3) 0.916(3) 0.145(3)
loop_
_geom_bond_atom_site_label_1
_geom_bond_atom_site_label_2
_geom_bond_site_symmetry_1
_geom_bond_site_symmetry_2
S1 C13 1_555 1_555
N1 C7 1_555 1_555
O1 C1 1_555 1_555
C1 C2 1_555 1_555
C2 C3 1_555 1_555
C3 H1 1_555 1_555
C4 C3 1_555 1_555
C5 C4 1_555 1_555
H2 C5 1_555 1_555
C6 C1 1_555 1_555
C7 C6 1_555 1_555
H3 C7 1_555 1_555
H4 C7 1_555 1_555
C8 N1 1_555 1_555
C9 C8 1_555 1_555
H5 C9 1_555 1_555
C10 C9 1_555 1_555
H6 C10 1_555 1_555
C11 C10 1_555 1_555
H7 C11 1_555 1_555
C12 C11 1_555 1_555
H8 C12 1_555 1_555
C13 C8 1_555 1_555
C14 S1 1_555 1_555
C15 C14 1_555 1_555
H9 C15 1_555 1_555
C16 C15 1_555 1_555
H10 C16 1_555 1_555
C17 C16 1_555 1_555
H11 C17 1_555 1_555
C18 C17 1_555 1_555
H12 C18 1_555 1_555
C19 C14 1_555 1_555
H13 C19 1_555 1_555
C20 C2 1_555 1_555
C21 C20 1_555 1_555
H14 C21 1_555 1_555
H15 C21 1_555 1_555
H16 C21 1_555 1_555
C22 C20 1_555 1_555
H17 C22 1_555 1_555
H18 C22 1_555 1_555
H19 C22 1_555 1_555
C23 C20 1_555 1_555
H20 C23 1_555 1_555
H21 C23 1_555 1_555
H22 C23 1_555 1_555
C24 C4 1_555 1_555
H23 C24 1_555 1_555
H24 C24 1_555 1_555
H25 C24 1_555 1_555
H26 N1 1_555 1_555
H27 O1 1_555 1_555
C5 C6 1_555 1_555
C12 C13 1_555 1_555
C18 C19 1_555 1_555

#END
