
#######################################################################
#
#                 Cambridge Crystallographic Data Centre
#                                CCDC 
#
#######################################################################
#
# If this CIF has been generated from an entry in the Cambridge 
# Structural Database, then it will include bibliographic, chemical, 
# crystal, experimental, refinement or atomic coordinate data resulting 
# from the CCDC's data processing and validation procedures.
#
#######################################################################

data_SITJEL
_chemical_formula_moiety         'C9 H20 N1 O1 1+,H1 O4 S1 1-,H2 O1'
_chemical_name_systematic        
'4-Hydroxy-2,2,6,6-tetramethylpiperidinium hydrogen sulfate monohydrate'
_symmetry_cell_setting           triclinic
_symmetry_space_group_name_H-M   'P -1'
_symmetry_Int_Tables_number      2
_space_group_name_Hall           '-P 1'
loop_
_symmetry_equiv_pos_site_id
_symmetry_equiv_pos_as_xyz
1 x,y,z
2 -x,-y,-z
_cell_length_a                   8.334(3)
_cell_length_b                   8.518(3)
_cell_length_c                   10.245(3)
_cell_angle_alpha                78.465(5)
_cell_angle_beta                 82.546(5)
_cell_angle_gamma                71.586(4)
_cell_volume                     674.372
_exptl_crystal_colour            colorless
_exptl_crystal_description       plate
_cell_formula_units_Z            2
loop_
_atom_site_label
_atom_site_type_symbol
_atom_site_fract_x
_atom_site_fract_y
_atom_site_fract_z
S1 S 0.14016(7) 0.73866(7) 0.24152(5)
O2 O 0.3063(3) 0.7840(3) 0.24406(19)
H2 H 0.344(5) 0.760(5) 0.319(2)
O3 O 0.0141(2) 0.8333(2) 0.33050(17)
O4 O 0.1771(3) 0.5626(3) 0.2834(2)
O5 O 0.0982(3) 0.7967(3) 0.10455(17)
O1 O 0.4452(2) 0.7411(3) 0.46414(17)
H1 H 0.547(2) 0.720(4) 0.457(4)
N1 N 0.1898(2) 0.8477(2) 0.83066(18)
H3 H 0.164(3) 0.832(3) 0.9156(11)
H4 H 0.124(2) 0.9428(18) 0.795(2)
C1 C 0.3968(3) 0.7257(3) 0.6054(2)
H5 H 0.4668 0.6187 0.6519
C2 C 0.4211(3) 0.8696(3) 0.6595(2)
H6 H 0.3553 0.9749 0.6101
H7 H 0.5396 0.8656 0.6444
C3 C 0.3682(3) 0.8660(3) 0.8082(2)
C4 C 0.1464(3) 0.7153(3) 0.7725(2)
C5 C 0.2122(3) 0.7299(3) 0.6255(2)
H8 H 0.1989 0.6383 0.5891
H9 H 0.1442 0.8343 0.5763
C6 C 0.4904(3) 0.7243(3) 0.8968(2)
H10 H 0.4410 0.7137 0.9870
H11 H 0.5952 0.7495 0.8946
H12 H 0.5116 0.6208 0.8645
C7 C 0.3528(3) 1.0332(3) 0.8499(3)
H13 H 0.2729 1.1223 0.7972
H14 H 0.4614 1.0530 0.8359
H15 H 0.3145 1.0291 0.9427
C8 C -0.0472(3) 0.7621(3) 0.7869(3)
H16 H -0.0831 0.6808 0.7552
H17 H -0.0942 0.8711 0.7354
H18 H -0.0859 0.7639 0.8792
C9 C 0.2196(4) 0.5397(3) 0.8522(3)
H19 H 0.1695 0.4635 0.8278
H20 H 0.1950 0.5431 0.9459
H21 H 0.3401 0.5023 0.8328
O6 O 0.7835(3) 0.6591(3) 0.4742(2)
H22 H 0.858(4) 0.702(5) 0.442(4)
H23 H 0.814(5) 0.591(4) 0.540(3)
loop_
_geom_bond_atom_site_label_1
_geom_bond_atom_site_label_2
_geom_bond_site_symmetry_1
_geom_bond_site_symmetry_2
S1 O2 1_555 1_555
O1 H1 1_555 1_555
O2 H2 1_555 1_555
O3 S1 1_555 1_555
O4 S1 1_555 1_555
O5 S1 1_555 1_555
N1 H3 1_555 1_555
H4 N1 1_555 1_555
C1 O1 1_555 1_555
H5 C1 1_555 1_555
C2 C1 1_555 1_555
H6 C2 1_555 1_555
H7 C2 1_555 1_555
C3 N1 1_555 1_555
C4 N1 1_555 1_555
C5 C1 1_555 1_555
H8 C5 1_555 1_555
H9 C5 1_555 1_555
C6 C3 1_555 1_555
H10 C6 1_555 1_555
H11 C6 1_555 1_555
H12 C6 1_555 1_555
C7 C3 1_555 1_555
H13 C7 1_555 1_555
H14 C7 1_555 1_555
H15 C7 1_555 1_555
C8 C4 1_555 1_555
H16 C8 1_555 1_555
H17 C8 1_555 1_555
H18 C8 1_555 1_555
C9 C4 1_555 1_555
H19 C9 1_555 1_555
H20 C9 1_555 1_555
H21 C9 1_555 1_555
O6 H22 1_555 1_555
H23 O6 1_555 1_555
C2 C3 1_555 1_555
C4 C5 1_555 1_555

#END
