
#######################################################################
#
#                 Cambridge Crystallographic Data Centre
#                                CCDC 
#
#######################################################################
#
# If this CIF has been generated from an entry in the Cambridge 
# Structural Database, then it will include bibliographic, chemical, 
# crystal, experimental, refinement or atomic coordinate data resulting 
# from the CCDC's data processing and validation procedures.
#
#######################################################################

data_SITJIP
_chemical_formula_moiety         'C20 H19 N5 O1'
_chemical_name_systematic        
N,N-Dimethyl-4-(5-(5-methyl-1-phenyl-1H-pyrazol-4-yl)-1,3,4-oxadiazol-2-yl)aniline
_symmetry_cell_setting           monoclinic
_symmetry_space_group_name_H-M   'P 21/c'
_symmetry_Int_Tables_number      14
_space_group_name_Hall           '-P 2ybc'
loop_
_symmetry_equiv_pos_site_id
_symmetry_equiv_pos_as_xyz
1 x,y,z
2 -x,1/2+y,1/2-z
3 -x,-y,-z
4 x,1/2-y,1/2+z
_cell_length_a                   17.746(7)
_cell_length_b                   6.942(3)
_cell_length_c                   14.474(6)
_cell_angle_alpha                90
_cell_angle_beta                 99.738(5)
_cell_angle_gamma                90
_cell_volume                     1757.4
_exptl_crystal_colour            colorless
_exptl_crystal_description       plate
_chemical_melting_point          488K
_cell_formula_units_Z            4
_exptl_crystal_recrystallization_method ethanol
loop_
_atom_site_label
_atom_site_type_symbol
_atom_site_fract_x
_atom_site_fract_y
_atom_site_fract_z
O1 O 0.23457(6) 0.46275(15) 0.97159(7)
N1 N 0.36081(7) 0.98159(18) 0.95277(9)
N2 N 0.35181(8) 1.0599(2) 1.03710(9)
N3 N 0.22892(9) 0.5614(2) 1.11520(10)
N4 N 0.18766(9) 0.3870(2) 1.09869(10)
N5 N 0.07036(9) -0.3315(2) 0.82215(11)
C1 C 0.46094(10) 1.2036(2) 0.92564(13)
H1 H 0.4814 1.1998 0.9892
C2 C 0.49418(11) 1.3160(3) 0.86493(16)
H2 H 0.5375 1.3882 0.8878
C3 C 0.46404(12) 1.3224(3) 0.77106(16)
H3 H 0.4869 1.3984 0.7307
C4 C 0.40026(11) 1.2166(2) 0.73698(13)
H4 H 0.3802 1.2199 0.6733
C5 C 0.36550(9) 1.1050(2) 0.79661(11)
H5 H 0.3214 1.0361 0.7736
C6 C 0.39648(9) 1.0964(2) 0.89030(11)
C7 C 0.32987(9) 0.8024(2) 0.93957(10)
C8 C 0.29830(9) 0.7646(2) 1.01870(10)
C9 C 0.31435(10) 0.9277(2) 1.07553(12)
H6 H 0.3000 0.9408 1.1341
C10 C 0.33531(11) 0.6795(3) 0.85662(12)
H7 H 0.2911 0.6998 0.8094
H8 H 0.3379 0.5465 0.8750
H9 H 0.3805 0.7130 0.8319
C11 C 0.25474(9) 0.5991(2) 1.03925(11)
C12 C 0.19272(9) 0.3352(2) 1.01439(11)
C13 C 0.16085(9) 0.1674(2) 0.96261(11)
C14 C 0.17535(9) 0.1234(2) 0.87380(12)
H10 H 0.2054 0.2063 0.8450
C15 C 0.14621(9) -0.0402(3) 0.82743(12)
H11 H 0.1573 -0.0663 0.7681
C16 C 0.10020(9) -0.1681(2) 0.86788(12)
C17 C 0.08488(10) -0.1211(3) 0.95697(12)
H12 H 0.0540 -0.2020 0.9856
C18 C 0.11459(10) 0.0419(3) 1.00279(12)
H13 H 0.1036 0.0691 1.0620
C19 C 0.09588(13) -0.4001(3) 0.73912(15)
H14 H 0.0894 -0.3005 0.6924
H15 H 0.0664 -0.5109 0.7155
H16 H 0.1489 -0.4349 0.7539
C20 C 0.02076(12) -0.4574(3) 0.86451(16)
H17 H 0.0480 -0.5061 0.9228
H18 H 0.0047 -0.5631 0.8230
H19 H -0.0233 -0.3866 0.8758
loop_
_geom_bond_atom_site_label_1
_geom_bond_atom_site_label_2
_geom_bond_site_symmetry_1
_geom_bond_site_symmetry_2
O1 C11 1_555 1_555
N1 N2 1_555 1_555
N2 C9 1_555 1_555
N3 N4 1_555 1_555
N4 C12 1_555 1_555
N5 C16 1_555 1_555
C1 H1 1_555 1_555
C2 C1 1_555 1_555
H2 C2 1_555 1_555
C3 C2 1_555 1_555
H3 C3 1_555 1_555
C4 C3 1_555 1_555
H4 C4 1_555 1_555
C5 C4 1_555 1_555
H5 C5 1_555 1_555
C6 N1 1_555 1_555
C7 N1 1_555 1_555
C8 C7 1_555 1_555
C9 C8 1_555 1_555
H6 C9 1_555 1_555
C10 C7 1_555 1_555
H7 C10 1_555 1_555
H8 C10 1_555 1_555
H9 C10 1_555 1_555
C11 N3 1_555 1_555
C12 O1 1_555 1_555
C13 C12 1_555 1_555
C14 C13 1_555 1_555
H10 C14 1_555 1_555
C15 C14 1_555 1_555
H11 C15 1_555 1_555
C16 C15 1_555 1_555
C17 C16 1_555 1_555
H12 C17 1_555 1_555
C18 C13 1_555 1_555
H13 C18 1_555 1_555
C19 N5 1_555 1_555
H14 C19 1_555 1_555
H15 C19 1_555 1_555
H16 C19 1_555 1_555
C20 N5 1_555 1_555
H17 C20 1_555 1_555
H18 C20 1_555 1_555
H19 C20 1_555 1_555
C1 C6 1_555 1_555
C5 C6 1_555 1_555
C8 C11 1_555 1_555
C17 C18 1_555 1_555

#END
