
#######################################################################
#
#                 Cambridge Crystallographic Data Centre
#                                CCDC 
#
#######################################################################
#
# If this CIF has been generated from an entry in the Cambridge 
# Structural Database, then it will include bibliographic, chemical, 
# crystal, experimental, refinement or atomic coordinate data resulting 
# from the CCDC's data processing and validation procedures.
#
#######################################################################

data_SITKOW
_chemical_formula_moiety         'C20 H20 N2'
_chemical_name_systematic        
(4aR,8aR)-2,3-Diphenyl-4a,5,6,7,8,8a-hexahydroquinoxaline
_symmetry_cell_setting           orthorhombic
_symmetry_space_group_name_H-M   'P 21 21 21'
_symmetry_Int_Tables_number      19
_space_group_name_Hall           'P 2ac 2ab'
loop_
_symmetry_equiv_pos_site_id
_symmetry_equiv_pos_as_xyz
1 x,y,z
2 1/2-x,-y,1/2+z
3 -x,1/2+y,1/2-z
4 1/2+x,1/2-y,-z
_cell_length_a                   5.6253(11)
_cell_length_b                   15.402(3)
_cell_length_c                   18.315(4)
_cell_angle_alpha                90
_cell_angle_beta                 90
_cell_angle_gamma                90
_cell_volume                     1586.83
_exptl_crystal_colour            yellow
_exptl_crystal_description       block
_cell_formula_units_Z            4
_exptl_crystal_recrystallization_method ethanol
loop_
_atom_site_label
_atom_site_type_symbol
_atom_site_fract_x
_atom_site_fract_y
_atom_site_fract_z
C1 C 0.7959(6) 0.65882(17) 0.09928(14)
H1 H 0.6841 0.6288 0.1316
C2 C 0.7195(7) 0.75311(18) 0.09215(16)
H2 H 0.5568 0.7557 0.0748
H3 H 0.8198 0.7822 0.0567
C3 C 0.7381(7) 0.7995(2) 0.16551(17)
H4 H 0.7004 0.8605 0.1589
H5 H 0.6221 0.7752 0.1989
C4 C 0.9823(7) 0.79159(18) 0.19858(17)
H6 H 0.9824 0.8180 0.2467
H7 H 1.0958 0.8227 0.1685
C5 C 1.0578(7) 0.69734(16) 0.20496(15)
H8 H 1.2196 0.6944 0.2231
H9 H 0.9556 0.6678 0.2396
C6 C 1.0429(5) 0.65242(16) 0.13156(14)
H10 H 1.1540 0.6811 0.0982
C7 C 1.0503(5) 0.51148(15) 0.08549(13)
C8 C 1.1020(5) 0.41698(17) 0.09128(14)
C9 C 1.3120(6) 0.39001(19) 0.12512(15)
H11 H 1.4192 0.4307 0.1430
C10 C 1.3595(7) 0.3016(2) 0.13178(17)
H12 H 1.4989 0.2834 0.1544
C11 C 1.2019(7) 0.24103(19) 0.10512(18)
H13 H 1.2349 0.1821 0.1094
C12 C 0.9971(7) 0.26799(18) 0.07241(16)
H14 H 0.8894 0.2270 0.0552
C13 C 0.9474(6) 0.35524(17) 0.06444(15)
H15 H 0.8089 0.3725 0.0408
C14 C 0.9184(5) 0.54805(16) 0.02031(14)
C15 C 0.9435(5) 0.50996(15) -0.05353(13)
C16 C 1.1486(5) 0.46658(17) -0.07485(15)
H16 H 1.2679 0.4558 -0.0409
C17 C 1.1760(6) 0.43947(19) -0.14618(15)
H17 H 1.3142 0.4108 -0.1601
C18 C 1.0006(6) 0.45455(18) -0.19673(15)
H18 H 1.0213 0.4365 -0.2448
C19 C 0.7950(6) 0.49611(19) -0.17673(15)
H19 H 0.6759 0.5059 -0.2110
C20 C 0.7659(6) 0.52341(16) -0.10515(14)
H20 H 0.6258 0.5511 -0.0915
N1 N 1.1133(5) 0.56069(14) 0.13814(12)
N2 N 0.7915(5) 0.61639(14) 0.02727(12)
loop_
_geom_bond_atom_site_label_1
_geom_bond_atom_site_label_2
_geom_bond_site_symmetry_1
_geom_bond_site_symmetry_2
C1 H1 1_555 1_555
C2 C1 1_555 1_555
H2 C2 1_555 1_555
H3 C2 1_555 1_555
C3 C2 1_555 1_555
H4 C3 1_555 1_555
H5 C3 1_555 1_555
C4 C3 1_555 1_555
H6 C4 1_555 1_555
H7 C4 1_555 1_555
C5 C4 1_555 1_555
H8 C5 1_555 1_555
H9 C5 1_555 1_555
C6 C1 1_555 1_555
H10 C6 1_555 1_555
C7 C8 1_555 1_555
C8 C9 1_555 1_555
C9 H11 1_555 1_555
C10 C9 1_555 1_555
H12 C10 1_555 1_555
C11 C10 1_555 1_555
H13 C11 1_555 1_555
C12 C11 1_555 1_555
H14 C12 1_555 1_555
C13 C8 1_555 1_555
H15 C13 1_555 1_555
C14 C7 1_555 1_555
C15 C14 1_555 1_555
C16 C15 1_555 1_555
H16 C16 1_555 1_555
C17 C16 1_555 1_555
H17 C17 1_555 1_555
C18 C17 1_555 1_555
H18 C18 1_555 1_555
C19 C18 1_555 1_555
H19 C19 1_555 1_555
C20 C15 1_555 1_555
H20 C20 1_555 1_555
N1 C6 1_555 1_555
N2 C1 1_555 1_555
C5 C6 1_555 1_555
C7 N1 1_555 1_555
C12 C13 1_555 1_555
C14 N2 1_555 1_555
C19 C20 1_555 1_555

#END
