
#######################################################################
#
#                 Cambridge Crystallographic Data Centre
#                                CCDC 
#
#######################################################################
#
# If this CIF has been generated from an entry in the Cambridge 
# Structural Database, then it will include bibliographic, chemical, 
# crystal, experimental, refinement or atomic coordinate data resulting 
# from the CCDC's data processing and validation procedures.
#
#######################################################################

data_SITKEM
_chemical_formula_moiety         'C16 H17 Cl1 N2 O4 S1'
_chemical_name_systematic        
N-(2-Chloro-2-nitro-1-phenylpropyl)-4-methylbenzenesulfonamide
_symmetry_cell_setting           orthorhombic
_symmetry_space_group_name_H-M   'P b c a'
_symmetry_Int_Tables_number      61
_space_group_name_Hall           '-P 2ac 2ab'
loop_
_symmetry_equiv_pos_site_id
_symmetry_equiv_pos_as_xyz
1 x,y,z
2 1/2-x,-y,1/2+z
3 -x,1/2+y,1/2-z
4 1/2+x,1/2-y,-z
5 -x,-y,-z
6 1/2+x,y,1/2-z
7 x,1/2-y,1/2+z
8 1/2-x,1/2+y,z
_cell_length_a                   7.8254(8)
_cell_length_b                   19.610(2)
_cell_length_c                   22.533(3)
_cell_angle_alpha                90
_cell_angle_beta                 90
_cell_angle_gamma                90
_cell_volume                     3457.83
_exptl_crystal_colour            colorless
_exptl_crystal_description       block
_chemical_melting_point          '423.2 K'
_cell_formula_units_Z            8
_exptl_crystal_recrystallization_method 'ethyl acetate'
loop_
_atom_site_label
_atom_site_type_symbol
_atom_site_fract_x
_atom_site_fract_y
_atom_site_fract_z
C1 C 0.7916(4) 0.10320(17) 0.61740(13)
H1 H 0.7709 0.1030 0.6594
H2 H 0.8606 0.1420 0.6072
H3 H 0.8503 0.0621 0.6064
C2 C 0.6185(4) 0.10723(16) 0.58376(13)
C3 C 0.5059(4) 0.16923(14) 0.59888(13)
H4 H 0.3995 0.1645 0.5763
C4 C 0.5853(3) 0.23727(15) 0.58138(13)
C5 C 0.5405(4) 0.26704(17) 0.52790(13)
H5 H 0.4651 0.2445 0.5028
C6 C 0.6055(4) 0.32954(17) 0.51103(14)
H6 H 0.5765 0.3484 0.4745
C7 C 0.7156(4) 0.36407(18) 0.54968(15)
H7 H 0.7570 0.4070 0.5396
C8 C 0.7623(4) 0.33466(18) 0.60226(15)
H8 H 0.8381 0.3572 0.6273
C9 C 0.6972(4) 0.27113(17) 0.61859(14)
H9 H 0.7290 0.2516 0.6545
C10 C 0.3185(3) 0.28495(15) 0.69070(12)
C11 C 0.2653(4) 0.32776(18) 0.64579(14)
H10 H 0.2085 0.3099 0.6131
C12 C 0.2959(5) 0.39679(18) 0.64904(15)
H11 H 0.2601 0.4252 0.6184
C13 C 0.3804(4) 0.42454(18) 0.69822(14)
C14 C 0.4350(4) 0.38054(17) 0.74268(15)
H12 H 0.4939 0.3980 0.7751
C15 C 0.4037(4) 0.31171(16) 0.73966(13)
H13 H 0.4392 0.2831 0.7702
C16 C 0.4064(4) 0.49975(18) 0.70326(17)
H14 H 0.3241 0.5184 0.7304
H15 H 0.3922 0.5204 0.6650
H16 H 0.5196 0.5087 0.7177
Cl1 Cl 0.65350(9) 0.10276(4) 0.50665(3)
N1 N 0.5083(4) 0.04372(13) 0.59707(12)
N2 N 0.4620(3) 0.16217(13) 0.66251(11)
H17 H 0.547(4) 0.1794(17) 0.6841(15)
O1 O 0.1557(3) 0.18367(12) 0.64347(10)
O2 O 0.2635(3) 0.17162(12) 0.74582(9)
O3 O 0.3667(3) 0.04155(12) 0.57591(12)
O4 O 0.5674(3) -0.00057(13) 0.62846(12)
S1 S 0.28433(9) 0.19677(4) 0.68662(3)
loop_
_geom_bond_atom_site_label_1
_geom_bond_atom_site_label_2
_geom_bond_site_symmetry_1
_geom_bond_site_symmetry_2
C1 H1 1_555 1_555
H2 C1 1_555 1_555
H3 C1 1_555 1_555
C2 C1 1_555 1_555
C3 C2 1_555 1_555
H4 C3 1_555 1_555
C4 C3 1_555 1_555
C5 C4 1_555 1_555
H5 C5 1_555 1_555
C6 C5 1_555 1_555
H6 C6 1_555 1_555
C7 C6 1_555 1_555
H7 C7 1_555 1_555
C8 C7 1_555 1_555
H8 C8 1_555 1_555
C9 C4 1_555 1_555
H9 C9 1_555 1_555
C10 C11 1_555 1_555
C11 H10 1_555 1_555
C12 C11 1_555 1_555
H11 C12 1_555 1_555
C13 C12 1_555 1_555
C14 C13 1_555 1_555
H12 C14 1_555 1_555
C15 C10 1_555 1_555
H13 C15 1_555 1_555
C16 C13 1_555 1_555
H14 C16 1_555 1_555
H15 C16 1_555 1_555
H16 C16 1_555 1_555
Cl1 C2 1_555 1_555
N1 C2 1_555 1_555
N2 C3 1_555 1_555
H17 N2 1_555 1_555
O1 S1 1_555 1_555
O2 S1 1_555 1_555
O3 N1 1_555 1_555
O4 N1 1_555 1_555
S1 C10 1_555 1_555
C8 C9 1_555 1_555
C14 C15 1_555 1_555
N2 S1 1_555 1_555

#END
