
#######################################################################
#
#                 Cambridge Crystallographic Data Centre
#                                CCDC 
#
#######################################################################
#
# If this CIF has been generated from an entry in the Cambridge 
# Structural Database, then it will include bibliographic, chemical, 
# crystal, experimental, refinement or atomic coordinate data resulting 
# from the CCDC's data processing and validation procedures.
#
#######################################################################

data_SITNOZ
_chemical_formula_moiety         'C13 H10 Br1 Cl1 N2 O1'
_chemical_name_systematic        
(E)-2-(3'-Bromo-5'-chlorosalicylideneamino)-4-methylpyridine
_chemical_properties_biological  
'antibacterial activity against Escherichia coli, Pseudomonas aeruginosa, Salmonella typhi and Staphylococcus aureus'
_symmetry_cell_setting           monoclinic
_symmetry_space_group_name_H-M   'P 21'
_symmetry_Int_Tables_number      4
_space_group_name_Hall           'P 2yb'
loop_
_symmetry_equiv_pos_site_id
_symmetry_equiv_pos_as_xyz
1 x,y,z
2 -x,1/2+y,-z
_cell_length_a                   6.048(3)
_cell_length_b                   14.063(7)
_cell_length_c                   7.623(4)
_cell_angle_alpha                90
_cell_angle_beta                 97.703(7)
_cell_angle_gamma                90
_cell_volume                     642.509
_exptl_crystal_colour            orange
_exptl_crystal_description       block
_chemical_melting_point          237.0-238.0deg.C
_cell_formula_units_Z            2
loop_
_atom_site_label
_atom_site_type_symbol
_atom_site_fract_x
_atom_site_fract_y
_atom_site_fract_z
Br1 Br 1.36734(8) 0.73029(4) 1.24167(6)
Cl1 Cl 1.5010(2) 1.11683(8) 1.29371(16)
O1 O 0.9249(5) 0.79459(19) 1.0474(4)
H1 H 0.8032 0.8126 0.9981
N1 N 0.6379(6) 0.9166(2) 0.8970(4)
N2 N 0.3861(6) 1.0304(2) 0.7511(5)
C1 C 0.9781(7) 0.9638(3) 1.0667(5)
C2 C 1.0497(7) 0.8704(3) 1.1039(5)
C3 C 1.2595(7) 0.8553(2) 1.2000(5)
C4 C 1.3965(8) 0.9305(3) 1.2592(5)
H2 H 1.5353 0.9196 1.3246
C5 C 1.3229(8) 1.0228(3) 1.2193(6)
C6 C 1.1200(7) 1.0405(3) 1.1248(5)
H3 H 1.0750 1.1027 1.0986
C7 C 0.7682(7) 0.9832(3) 0.9616(5)
H4 H 0.7255 1.0461 0.9398
C8 C 0.4325(7) 0.9398(3) 0.7917(5)
C9 C 0.2898(8) 0.8647(3) 0.7353(5)
H5 H 0.3307 0.8024 0.7654
C10 C 0.0877(8) 0.8833(3) 0.6345(5)
C11 C 0.0375(8) 0.9781(3) 0.5960(5)
H6 H -0.0975 0.9948 0.5300
C12 C 0.1887(8) 1.0463(3) 0.6563(6)
H7 H 0.1508 1.1091 0.6290
C13 C -0.0697(8) 0.8043(3) 0.5713(6)
H8 H -0.0204 0.7464 0.6307
H9 H -0.0728 0.7964 0.4459
H10 H -0.2168 0.8197 0.5968
loop_
_geom_bond_atom_site_label_1
_geom_bond_atom_site_label_2
_geom_bond_site_symmetry_1
_geom_bond_site_symmetry_2
Br1 C3 1_555 1_555
Cl1 C5 1_555 1_555
O1 H1 1_555 1_555
N1 C7 1_555 1_555
N2 C8 1_555 1_555
C1 C2 1_555 1_555
C2 O1 1_555 1_555
C3 C2 1_555 1_555
C4 C3 1_555 1_555
H2 C4 1_555 1_555
C5 C4 1_555 1_555
C6 C1 1_555 1_555
H3 C6 1_555 1_555
C7 C1 1_555 1_555
H4 C7 1_555 1_555
C8 N1 1_555 1_555
C9 C8 1_555 1_555
H5 C9 1_555 1_555
C10 C9 1_555 1_555
C11 C10 1_555 1_555
H6 C11 1_555 1_555
C12 N2 1_555 1_555
H7 C12 1_555 1_555
C13 C10 1_555 1_555
H8 C13 1_555 1_555
H9 C13 1_555 1_555
H10 C13 1_555 1_555
C5 C6 1_555 1_555
C11 C12 1_555 1_555

#END
