
#######################################################################
#
#                 Cambridge Crystallographic Data Centre
#                                CCDC 
#
#######################################################################
#
# If this CIF has been generated from an entry in the Cambridge 
# Structural Database, then it will include bibliographic, chemical, 
# crystal, experimental, refinement or atomic coordinate data resulting 
# from the CCDC's data processing and validation procedures.
#
#######################################################################

data_SITPET
_chemical_formula_moiety         'C13 H22 O2'
_chemical_name_systematic        
6,6-dimethyltricyclo[5.4.0.0^2,8^]undecane-2,9-diol
_symmetry_cell_setting           orthorhombic
_symmetry_space_group_name_H-M   'P b c a'
_symmetry_Int_Tables_number      61
_space_group_name_Hall           '-P 2ac 2ab'
loop_
_symmetry_equiv_pos_site_id
_symmetry_equiv_pos_as_xyz
1 x,y,z
2 1/2-x,-y,1/2+z
3 1/2+x,1/2-y,-z
4 -x,1/2+y,1/2-z
5 -x,-y,-z
6 1/2+x,y,1/2-z
7 1/2-x,1/2+y,z
8 x,1/2-y,1/2+z
_cell_length_a                   11.8513(6)
_cell_length_b                   8.0917(4)
_cell_length_c                   24.6768(12)
_cell_angle_alpha                90
_cell_angle_beta                 90
_cell_angle_gamma                90
_cell_volume                     2366.44
_exptl_crystal_colour            colorless
_exptl_crystal_description       block
_cell_formula_units_Z            8
loop_
_atom_site_label
_atom_site_type_symbol
_atom_site_fract_x
_atom_site_fract_y
_atom_site_fract_z
O1 O 0.17540(14) 0.1870(2) 0.25835(8)
H1 H 0.1592 0.2775 0.2456
O2 O -0.14650(15) 0.0112(2) 0.29289(7)
H2 H -0.1962 0.0656 0.2782
C1 C 0.06166(19) 0.1570(3) 0.37610(9)
H3 H 0.1397 0.1185 0.3724
C2 C 0.01328(18) 0.2014(3) 0.31957(9)
H4 H 0.0038 0.3197 0.3124
C3 C 0.07400(19) 0.1041(3) 0.27554(9)
H5 H 0.0236 0.0903 0.2444
C4 C -0.09633(19) 0.1067(3) 0.33540(9)
C5 C 0.0543(2) 0.2864(3) 0.42150(10)
C6 C -0.0204(2) 0.0068(3) 0.37420(10)
H6 H -0.0549 -0.0240 0.4089
C7 C 0.0369(2) -0.1339(3) 0.34325(10)
H7 H -0.0201 -0.2076 0.3287
H8 H 0.0840 -0.1968 0.3679
C8 C 0.1101(2) -0.0663(3) 0.29641(10)
H9 H 0.1878 -0.0597 0.3086
H10 H 0.1075 -0.1442 0.2665
C9 C -0.1878(2) 0.2089(4) 0.36283(11)
H11 H -0.2079 0.2981 0.3384
H12 H -0.2539 0.1393 0.3667
C10 C -0.0589(3) 0.3826(4) 0.42140(13)
H13 H -0.0628 0.4473 0.4544
H14 H -0.0576 0.4597 0.3913
C11 C 0.1455(3) 0.4170(4) 0.41128(13)
H15 H 0.2187 0.3676 0.4152
H16 H 0.1374 0.5052 0.4370
H17 H 0.1375 0.4601 0.3752
C12 C -0.1634(3) 0.2840(5) 0.41734(13)
H18 H -0.2265 0.3542 0.4272
H19 H -0.1595 0.1956 0.4438
C13 C 0.0760(3) 0.2045(4) 0.47532(11)
H20 H 0.0166 0.1272 0.4829
H21 H 0.0784 0.2868 0.5033
H22 H 0.1469 0.1471 0.4740
loop_
_geom_bond_atom_site_label_1
_geom_bond_atom_site_label_2
_geom_bond_site_symmetry_1
_geom_bond_site_symmetry_2
O1 H1 1_555 1_555
O2 H2 1_555 1_555
C1 H3 1_555 1_555
C2 C1 1_555 1_555
H4 C2 1_555 1_555
C3 O1 1_555 1_555
H5 C3 1_555 1_555
C4 O2 1_555 1_555
C5 C1 1_555 1_555
C6 C1 1_555 1_555
H6 C6 1_555 1_555
C7 C6 1_555 1_555
H7 C7 1_555 1_555
H8 C7 1_555 1_555
C8 C3 1_555 1_555
H9 C8 1_555 1_555
H10 C8 1_555 1_555
C9 C4 1_555 1_555
H11 C9 1_555 1_555
H12 C9 1_555 1_555
C10 C5 1_555 1_555
H13 C10 1_555 1_555
H14 C10 1_555 1_555
C11 C5 1_555 1_555
H15 C11 1_555 1_555
H16 C11 1_555 1_555
H17 C11 1_555 1_555
C12 C9 1_555 1_555
H18 C12 1_555 1_555
H19 C12 1_555 1_555
C13 C5 1_555 1_555
H20 C13 1_555 1_555
H21 C13 1_555 1_555
H22 C13 1_555 1_555
C2 C3 1_555 1_555
C2 C4 1_555 1_555
C4 C6 1_555 1_555
C7 C8 1_555 1_555
C10 C12 1_555 1_555

#END
