
#######################################################################
#
#                 Cambridge Crystallographic Data Centre
#                                CCDC 
#
#######################################################################
#
# If this CIF has been generated from an entry in the Cambridge 
# Structural Database, then it will include bibliographic, chemical, 
# crystal, experimental, refinement or atomic coordinate data resulting 
# from the CCDC's data processing and validation procedures.
#
#######################################################################

data_SITROD
_chemical_formula_moiety         'C12 H13 N1 O5'
_chemical_name_systematic        
syn-3-Hydroxy-5-methyl-3-(2-nitrobenzyl)dihydrofuran-2(3H)-one
_symmetry_cell_setting           monoclinic
_symmetry_space_group_name_H-M   'P 21'
_symmetry_Int_Tables_number      4
_space_group_name_Hall           'P 2yb'
loop_
_symmetry_equiv_pos_site_id
_symmetry_equiv_pos_as_xyz
1 x,y,z
2 -x,1/2+y,-z
_cell_length_a                   5.630(3)
_cell_length_b                   6.028(3)
_cell_length_c                   17.632(10)
_cell_angle_alpha                90.00
_cell_angle_beta                 92.560(2)
_cell_angle_gamma                90.00
_cell_volume                     597.791
_cell_formula_units_Z            2
loop_
_atom_site_label
_atom_site_type_symbol
_atom_site_fract_x
_atom_site_fract_y
_atom_site_fract_z
O1 O 0.0568(3) 0.8382(3) 0.13754(10)
O2 O 0.0535(3) 0.5000(3) 0.18727(11)
O3 O 0.5408(3) 0.4947(3) 0.15264(10)
H1 H 0.4925 0.4627 0.1094
O4 O 0.0831(3) 0.9006(4) 0.30554(11)
N1 N 0.1130(4) 0.7941(4) 0.36374(12)
C1 C 0.1645(4) 0.6605(4) 0.16898(14)
C2 C 0.5217(4) 0.7625(5) 0.25628(14)
H2 H 0.6921 0.7863 0.2567
H3 H 0.4483 0.9028 0.2686
C3 C 0.2320(4) 1.0149(5) 0.12304(15)
H4 H 0.2399 1.1190 0.1658
C4 C 0.4695(4) 0.5970(5) 0.31761(14)
C5 C 0.4351(4) 0.6954(4) 0.17493(14)
C6 C 0.2477(5) 0.4536(6) 0.42356(15)
H5 H 0.1211 0.4680 0.4553
C7 C 0.2823(4) 0.6093(5) 0.36729(14)
C8 C 0.4642(5) 0.8895(5) 0.12026(15)
H6 H 0.5971 0.9827 0.1367
H7 H 0.4895 0.8367 0.0693
C9 C 0.6230(5) 0.4174(5) 0.32997(17)
H8 H 0.7520 0.4023 0.2992
O5 O 0.0042(5) 0.8336(5) 0.42052(14)
C10 C 0.4012(6) 0.2784(6) 0.43204(18)
H9 H 0.3772 0.1712 0.4689
C11 C 0.5911(6) 0.2615(6) 0.38591(19)
H10 H 0.6981 0.1448 0.3924
C12 C 0.1499(6) 1.1347(6) 0.05194(17)
H11 H 0.1483 1.0337 0.0098
H12 H 0.2564 1.2552 0.0428
H13 H -0.0074 1.1917 0.0578
loop_
_geom_bond_atom_site_label_1
_geom_bond_atom_site_label_2
_geom_bond_site_symmetry_1
_geom_bond_site_symmetry_2
O1 C1 1_555 1_555
O2 C1 1_555 1_555
O3 H1 1_555 1_555
O4 N1 1_555 1_555
N1 C7 1_555 1_555
C1 C5 1_555 1_555
C2 H2 1_555 1_555
H3 C2 1_555 1_555
C3 O1 1_555 1_555
H4 C3 1_555 1_555
C4 C2 1_555 1_555
C5 O3 1_555 1_555
C6 H5 1_555 1_555
C7 C4 1_555 1_555
C8 C3 1_555 1_555
H6 C8 1_555 1_555
H7 C8 1_555 1_555
C9 C4 1_555 1_555
H8 C9 1_555 1_555
O5 N1 1_555 1_555
C10 C6 1_555 1_555
H9 C10 1_555 1_555
C11 C9 1_555 1_555
H10 C11 1_555 1_555
C12 C3 1_555 1_555
H11 C12 1_555 1_555
H12 C12 1_555 1_555
H13 C12 1_555 1_555
C2 C5 1_555 1_555
C5 C8 1_555 1_555
C6 C7 1_555 1_555
C10 C11 1_555 1_555

#END
