
#######################################################################
#
#                 Cambridge Crystallographic Data Centre
#                                CCDC 
#
#######################################################################
#
# If this CIF has been generated from an entry in the Cambridge 
# Structural Database, then it will include bibliographic, chemical, 
# crystal, experimental, refinement or atomic coordinate data resulting 
# from the CCDC's data processing and validation procedures.
#
#######################################################################

data_SITVOJ
_chemical_formula_moiety         'C2 H2 N8 O4'
_chemical_name_systematic        
N^3^,N^6^-dinitro-1,2,4,5-tetrazine-3,6-diamine
_symmetry_cell_setting           orthorhombic
_symmetry_space_group_name_H-M   'P b c a'
_symmetry_Int_Tables_number      61
_space_group_name_Hall           '-P 2ac 2ab'
loop_
_symmetry_equiv_pos_site_id
_symmetry_equiv_pos_as_xyz
1 x,y,z
2 1/2-x,-y,1/2+z
3 -x,1/2+y,1/2-z
4 1/2+x,1/2-y,-z
5 -x,-y,-z
6 1/2+x,y,1/2-z
7 x,1/2-y,1/2+z
8 1/2-x,1/2+y,z
_cell_length_a                   9.4039(19)
_cell_length_b                   7.8696(16)
_cell_length_c                   9.4732(19)
_cell_angle_alpha                90
_cell_angle_beta                 90
_cell_angle_gamma                90
_cell_volume                     701.064
_exptl_crystal_colour            yellow
_exptl_crystal_description       plate
_cell_formula_units_Z            4
loop_
_atom_site_label
_atom_site_type_symbol
_atom_site_fract_x
_atom_site_fract_y
_atom_site_fract_z
O1 O 0.7339(2) -0.1468(2) 0.73700(18)
O2 O 0.54568(19) 0.0093(2) 0.7022(2)
N1 N 0.6653(2) -0.0399(3) 0.6729(2)
N2 N 0.7242(2) 0.0325(3) 0.5536(2)
H1 H 0.6902 0.1316 0.5424
N3 N 0.94290(19) 0.1586(2) 0.51649(19)
N4 N 1.0798(2) 0.1436(2) 0.48708(19)
C1 C 0.8695(2) 0.0140(3) 0.5292(2)
O1D O 1.2661(2) 0.1468(2) 0.26300(18)
O2D O 1.45432(19) -0.0093(2) 0.2978(2)
N1D N 1.3347(2) 0.0399(3) 0.3271(2)
N2D N 1.2758(2) -0.0325(3) 0.4464(2)
H1D H 1.3098 -0.1316 0.4576
N3D N 1.05710(19) -0.1586(2) 0.48351(19)
N4D N 0.9202(2) -0.1436(2) 0.51292(19)
C1D C 1.1305(2) -0.0140(3) 0.4708(2)
loop_
_geom_bond_atom_site_label_1
_geom_bond_atom_site_label_2
_geom_bond_site_symmetry_1
_geom_bond_site_symmetry_2
O1 N1 1_555 1_555
O2 N1 1_555 1_555
N1 N2 1_555 1_555
N2 H1 1_555 1_555
N3 N4 1_555 1_555
N4 C1D 1_555 1_555
C1 N2 1_555 1_555
O1D N1D 1_555 1_555
O2D N1D 1_555 1_555
N1D N2D 1_555 1_555
N2D H1D 1_555 1_555
N3D N4D 1_555 1_555
N4D C1 1_555 1_555
C1D N2D 1_555 1_555
N3 C1 1_555 1_555
N3D C1D 1_555 1_555

#END
