
#######################################################################
#
#                 Cambridge Crystallographic Data Centre
#                                CCDC 
#
#######################################################################
#
# If this CIF has been generated from an entry in the Cambridge 
# Structural Database, then it will include bibliographic, chemical, 
# crystal, experimental, refinement or atomic coordinate data resulting 
# from the CCDC's data processing and validation procedures.
#
#######################################################################

data_SITXIF
_chemical_formula_moiety         'C2 N8 O4 2-,3(H2 O1),2(Na1 1+)'
_chemical_name_systematic        
'di-sodium (1,2,4,5-tetrazine-3,6-diyl)bis(nitroazanide) trihydrate'
_symmetry_cell_setting           monoclinic
_symmetry_space_group_name_H-M   'C 2'
_symmetry_Int_Tables_number      5
_space_group_name_Hall           'C 2y'
loop_
_symmetry_equiv_pos_site_id
_symmetry_equiv_pos_as_xyz
1 x,y,z
2 -x,y,-z
3 1/2+x,1/2+y,z
4 1/2-x,1/2+y,-z
_cell_length_a                   8.8499(18)
_cell_length_b                   12.469(3)
_cell_length_c                   6.0807(12)
_cell_angle_alpha                90
_cell_angle_beta                 129.15(3)
_cell_angle_gamma                90
_cell_volume                     520.359
_exptl_crystal_colour            red
_exptl_crystal_description       plate
_cell_formula_units_Z            2
loop_
_atom_site_label
_atom_site_type_symbol
_atom_site_fract_x
_atom_site_fract_y
_atom_site_fract_z
O1 O 0.2543(3) 0.44775(13) 0.7176(4)
O2 O 0.1595(3) 0.57067(13) 0.8615(4)
N1 N 0.2360(3) 0.54442(15) 0.7484(4)
N2 N 0.2905(3) 0.62580(15) 0.6752(4)
N3 N 0.4476(3) 0.70406(17) 0.5406(4)
N4 N 0.4433(3) 0.51248(16) 0.5373(4)
C1 C 0.3946(3) 0.60716(17) 0.5801(5)
O1A O 0.7457(3) 0.44775(13) 0.2824(4)
O2A O 0.8405(3) 0.57067(13) 0.1385(4)
N1A N 0.7640(3) 0.54442(15) 0.2516(4)
N2A N 0.7095(3) 0.62580(15) 0.3248(4)
N3A N 0.5524(3) 0.70406(17) 0.4594(4)
N4A N 0.5567(3) 0.51248(16) 0.4627(4)
C1A C 0.6054(3) 0.60716(17) 0.4199(5)
Na1 Na 0.27143(13) 0.33137(6) 0.41320(18)
O3 O 0.0000 0.41652(19) 0.0000
H1 H 0.0423 0.4624 -0.0504
H1A H -0.0423 0.4624 0.0504
O4 O 0.5912(3) 0.29245(14) 0.8199(3)
H2 H 0.6444 0.3296 0.9671
H3 H 0.6229 0.2278 0.8633
loop_
_geom_bond_atom_site_label_1
_geom_bond_atom_site_label_2
_geom_bond_site_symmetry_1
_geom_bond_site_symmetry_2
O1 N1 1_555 1_555
O2 N1 1_555 1_555
N1 N2 1_555 1_555
N2 C1 1_555 1_555
N3 C1 1_555 1_555
N4 C1 1_555 1_555
O3 H1 1_555 1_555
O4 H2 1_555 1_555
H3 O4 1_555 1_555
O1A N1A 1_555 1_555
O2A N1A 1_555 1_555
N1A N2A 1_555 1_555
N2A C1A 1_555 1_555
N3A N3 1_555 1_555
N4A N4 1_555 1_555
C1A N3A 1_555 1_555
H1A O3 1_555 1_555
N4A C1A 1_555 1_555

#END
