
#######################################################################
#
#                 Cambridge Crystallographic Data Centre
#                                CCDC 
#
#######################################################################
#
# If this CIF has been generated from an entry in the Cambridge 
# Structural Database, then it will include bibliographic, chemical, 
# crystal, experimental, refinement or atomic coordinate data resulting 
# from the CCDC's data processing and validation procedures.
#
#######################################################################

data_SITXOL
_chemical_formula_moiety         'C2 N8 O4 2-,H2 O1,2(K1 1+)'
_chemical_name_systematic        
'di-potassium (1,2,4,5-tetrazine-3,6-diyl)bis(nitroazanide) monohydrate'
_symmetry_cell_setting           orthorhombic
_symmetry_space_group_name_H-M   'P n n a'
_symmetry_Int_Tables_number      52
_space_group_name_Hall           '-P 2a 2bc'
loop_
_symmetry_equiv_pos_site_id
_symmetry_equiv_pos_as_xyz
1 x,y,z
2 1/2-x,-y,z
3 1/2-x,1/2+y,1/2-z
4 x,1/2-y,1/2-z
5 -x,-y,-z
6 1/2+x,y,-z
7 1/2+x,1/2-y,1/2+z
8 -x,1/2+y,1/2+z
_cell_length_a                   24.506(5)
_cell_length_b                   8.0284(16)
_cell_length_c                   4.7044(9)
_cell_angle_alpha                90
_cell_angle_beta                 90
_cell_angle_gamma                90
_cell_volume                     925.562
_exptl_crystal_colour            red
_exptl_crystal_description       block
_cell_formula_units_Z            4
loop_
_atom_site_label
_atom_site_type_symbol
_atom_site_fract_x
_atom_site_fract_y
_atom_site_fract_z
K1 K 0.48489(2) 0.7500 0.7500
K2 K 0.29373(3) 0.7500 0.7500
O1 O 0.38689(6) 0.63748(18) 0.5070(3)
O2 O 0.44942(5) 0.53522(18) 0.2306(3)
N1 N 0.40034(6) 0.5477(2) 0.2979(3)
N2 N 0.35968(6) 0.4732(2) 0.1662(4)
N3 N 0.32093(6) 0.3060(2) -0.1510(4)
N4 N 0.41792(7) 0.3064(2) -0.1435(4)
C1 C 0.37010(7) 0.3608(2) -0.0491(4)
O1C O 0.38689(6) -0.13748(18) -1.0070(3)
O2C O 0.44942(5) -0.03522(18) -0.7306(3)
N1C N 0.40034(6) -0.0477(2) -0.7979(3)
N2C N 0.35968(6) 0.0268(2) -0.6662(4)
N3C N 0.32093(6) 0.1940(2) -0.3490(4)
N4C N 0.41792(7) 0.1936(2) -0.3565(4)
C1C C 0.37010(7) 0.1392(2) -0.4509(4)
O3 O 0.2500 0.5000 0.4064(5)
H1 H 0.2236 0.5324 0.3068
H1A H 0.2764 0.4676 0.3068
loop_
_geom_bond_atom_site_label_1
_geom_bond_atom_site_label_2
_geom_bond_site_symmetry_1
_geom_bond_site_symmetry_2
O1 N1 1_555 1_555
O2 N1 1_555 1_555
N1 N2 1_555 1_555
N2 C1 1_555 1_555
N3 C1 1_555 1_555
N4 C1 1_555 1_555
O3 H1 1_555 1_555
O1C N1C 1_555 1_555
O2C N1C 1_555 1_555
N1C N2C 1_555 1_555
N2C C1C 1_555 1_555
N3C N3 1_555 1_555
N4C N4 1_555 1_555
C1C N3C 1_555 1_555
H1A O3 1_555 1_555
N4C C1C 1_555 1_555

#END
