
#######################################################################
#
#                 Cambridge Crystallographic Data Centre
#                                CCDC 
#
#######################################################################
#
# If this CIF has been generated from an entry in the Cambridge 
# Structural Database, then it will include bibliographic, chemical, 
# crystal, experimental, refinement or atomic coordinate data resulting 
# from the CCDC's data processing and validation procedures.
#
#######################################################################

data_SITXUR
_chemical_formula_moiety         'C2 N8 O4 2-,2(Rb1 1+)'
_chemical_name_systematic        
'di-rubidium (1,2,4,5-tetrazine-3,6-diyl)bis(nitroazanide)'
_symmetry_cell_setting           monoclinic
_symmetry_space_group_name_H-M   'C 2/c'
_symmetry_Int_Tables_number      15
_space_group_name_Hall           '-C 2yn'
loop_
_symmetry_equiv_pos_site_id
_symmetry_equiv_pos_as_xyz
1 x,y,z
2 -x,y,1/2-z
3 1/2+x,1/2+y,z
4 1/2-x,1/2+y,1/2-z
5 -x,-y,-z
6 x,-y,1/2+z
7 1/2-x,1/2-y,-z
8 1/2+x,1/2-y,1/2+z
_cell_length_a                   9.1059(18)
_cell_length_b                   11.496(2)
_cell_length_c                   9.1102(18)
_cell_angle_alpha                90
_cell_angle_beta                 110.86(3)
_cell_angle_gamma                90
_cell_volume                     891.159
_exptl_crystal_colour            red
_exptl_crystal_description       block
_cell_formula_units_Z            4
loop_
_atom_site_label
_atom_site_type_symbol
_atom_site_fract_x
_atom_site_fract_y
_atom_site_fract_z
Rb1 Rb 0.0000 0.04667(5) 0.2500
Rb2 Rb 0.0000 0.45680(5) 0.2500
O1 O 0.1946(4) 0.2435(3) 0.3076(5)
O2 O 0.3569(4) 0.3821(3) 0.4135(4)
N1 N 0.3331(5) 0.2782(4) 0.3752(5)
N2 N 0.8033(5) 0.3583(3) 0.4887(5)
N3 N 0.6512(5) 0.3420(4) 0.4432(5)
N4 N 0.4450(5) 0.1972(3) 0.4014(5)
C1 C 0.5998(6) 0.2334(4) 0.4548(6)
O1F O 1.3054(4) 0.2565(3) 0.6924(5)
O2F O 1.1431(4) 0.1179(3) 0.5865(4)
N1F N 1.1669(5) 0.2218(4) 0.6248(5)
N2F N 0.6967(5) 0.1417(3) 0.5113(5)
N3F N 0.8488(5) 0.1580(4) 0.5568(5)
N4F N 1.0550(5) 0.3028(3) 0.5986(5)
C1F C 0.9002(6) 0.2666(4) 0.5452(6)
loop_
_geom_bond_atom_site_label_1
_geom_bond_atom_site_label_2
_geom_bond_site_symmetry_1
_geom_bond_site_symmetry_2
O1 N1 1_555 1_555
O2 N1 1_555 1_555
N1 N4 1_555 1_555
N2 N3 1_555 1_555
N3 C1 1_555 1_555
N4 C1 1_555 1_555
C1 N2F 1_555 1_555
O1F N1F 1_555 1_555
O2F N1F 1_555 1_555
N1F N4F 1_555 1_555
N2F N3F 1_555 1_555
N3F C1F 1_555 1_555
N4F C1F 1_555 1_555
C1F N2 1_555 1_555

#END
