
#######################################################################
#
#                 Cambridge Crystallographic Data Centre
#                                CCDC 
#
#######################################################################
#
# If this CIF has been generated from an entry in the Cambridge 
# Structural Database, then it will include bibliographic, chemical, 
# crystal, experimental, refinement or atomic coordinate data resulting 
# from the CCDC's data processing and validation procedures.
#
#######################################################################

data_SITYAY
_chemical_formula_moiety         'C2 N8 O4 2-,4(H2 O1),2(Li1 1+)'
_chemical_name_systematic        
'di-lithium (1,2,4,5-tetrazine-3,6-diyl)bis(nitroazanide) tetrahydrate'
_symmetry_cell_setting           monoclinic
_symmetry_space_group_name_H-M   'C 2/c'
_symmetry_Int_Tables_number      15
_space_group_name_Hall           '-C 2yn'
loop_
_symmetry_equiv_pos_site_id
_symmetry_equiv_pos_as_xyz
1 x,y,z
2 -x,y,1/2-z
3 1/2+x,1/2+y,z
4 1/2-x,1/2+y,1/2-z
5 -x,-y,-z
6 x,-y,1/2+z
7 1/2-x,1/2-y,-z
8 1/2+x,1/2-y,1/2+z
_cell_length_a                   6.1408(12)
_cell_length_b                   14.773(3)
_cell_length_c                   11.457(2)
_cell_angle_alpha                90
_cell_angle_beta                 100.56(3)
_cell_angle_gamma                90
_cell_volume                     1021.75
_exptl_crystal_colour            red
_exptl_crystal_description       block
_cell_formula_units_Z            4
loop_
_atom_site_label
_atom_site_type_symbol
_atom_site_fract_x
_atom_site_fract_y
_atom_site_fract_z
O1 O 0.60139(13) 0.69969(5) 0.04966(7)
O2 O 0.38360(13) 0.59906(5) 0.10623(7)
N1 N 0.08019(15) 0.81924(6) 0.22059(8)
N2 N 0.07727(14) 0.65880(6) 0.21591(7)
N3 N 0.33105(14) 0.75145(6) 0.12885(7)
N4 N 0.43629(14) 0.68065(6) 0.09531(8)
C1 C 0.15932(16) 0.73781(7) 0.18840(8)
O1A O -0.60139(13) 0.69969(5) 0.45034(7)
O2A O -0.38360(13) 0.59906(5) 0.39377(7)
N1A N -0.08019(15) 0.81924(6) 0.27941(8)
N2A N -0.07727(14) 0.65880(6) 0.28409(7)
N3A N -0.33105(14) 0.75145(6) 0.37115(7)
N4A N -0.43629(14) 0.68065(6) 0.40469(8)
C1A C -0.15932(16) 0.73781(7) 0.31160(8)
O3 O 0.09570(13) 0.41177(5) 0.04130(7)
H1 H 0.2082 0.3854 0.0258
H2 H 0.0234 0.3706 0.0675
O4 O 0.22305(12) 0.49049(5) 0.31346(7)
H3 H 0.2663 0.4372 0.3063
H4 H 0.3343 0.5232 0.3370
Li1 Li 0.0854(3) 0.52822(13) 0.13382(17)
loop_
_geom_bond_atom_site_label_1
_geom_bond_atom_site_label_2
_geom_bond_site_symmetry_1
_geom_bond_site_symmetry_2
O1 N4 1_555 1_555
O2 N4 1_555 1_555
N1 C1 1_555 1_555
N2 C1 1_555 1_555
N3 N4 1_555 1_555
C1 N3 1_555 1_555
O3 H1 1_555 1_555
H2 O3 1_555 1_555
O4 H3 1_555 1_555
H4 O4 1_555 1_555
O1A N4A 1_555 1_555
O2A N4A 1_555 1_555
N1A N1 1_555 1_555
N2A N2 1_555 1_555
N3A N4A 1_555 1_555
C1A N1A 1_555 1_555
N2A C1A 1_555 1_555
N3A C1A 1_555 1_555

#END
