
#######################################################################
#
#                 Cambridge Crystallographic Data Centre
#                                CCDC 
#
#######################################################################
#
# If this CIF has been generated from an entry in the Cambridge 
# Structural Database, then it will include bibliographic, chemical, 
# crystal, experimental, refinement or atomic coordinate data resulting 
# from the CCDC's data processing and validation procedures.
#
#######################################################################

data_SIVJOY
_chemical_formula_moiety         'C17 H16 O3'
_chemical_name_systematic        'Ethyl 2-(2-hydroxyphenyl)-3-phenylacrylate'
_symmetry_cell_setting           monoclinic
_symmetry_space_group_name_H-M   'P 21/c'
_symmetry_Int_Tables_number      14
_space_group_name_Hall           '-P 2ybc'
loop_
_symmetry_equiv_pos_site_id
_symmetry_equiv_pos_as_xyz
1 x,y,z
2 -x,1/2+y,1/2-z
3 -x,-y,-z
4 x,1/2-y,1/2+z
_cell_length_a                   15.3571(18)
_cell_length_b                   10.3766(9)
_cell_length_c                   9.4486(9)
_cell_angle_alpha                90
_cell_angle_beta                 104.599(10)
_cell_angle_gamma                90
_cell_volume                     1457.06
_cell_formula_units_Z            4
loop_
_atom_site_label
_atom_site_type_symbol
_atom_site_fract_x
_atom_site_fract_y
_atom_site_fract_z
C1 C 0.26257(11) -0.01042(16) 0.42443(16)
C2 C 0.25060(11) -0.12442(17) 0.49368(17)
H1 H 0.2395 -0.2019 0.4385
C3 C 0.25443(12) -0.12767(18) 0.64126(17)
H2 H 0.2465 -0.2068 0.6871
C4 C 0.26979(12) -0.01516(18) 0.72173(18)
H3 H 0.2725 -0.0170 0.8233
C5 C 0.28119(11) 0.10011(17) 0.65538(17)
H4 H 0.2910 0.1775 0.7108
C6 C 0.27832(10) 0.10231(16) 0.50774(16)
C7 C 0.25871(11) -0.00480(15) 0.26544(16)
C8 C 0.34140(11) 0.03584(16) 0.22225(16)
C9 C 0.49876(12) 0.0754(2) 0.3066(2)
H5 H 0.5003 0.0580 0.2042
H6 H 0.5504 0.0306 0.3719
C10 C 0.50652(16) 0.2161(3) 0.3349(3)
H7 H 0.4578 0.2610 0.2653
H8 H 0.5647 0.2468 0.3233
H9 H 0.5022 0.2335 0.4348
C11 C 0.18679(11) -0.03638(16) 0.15719(16)
H10 H 0.1956 -0.0344 0.0612
C12 C 0.09645(11) -0.07355(16) 0.16766(15)
C13 C 0.04597(12) -0.15800(17) 0.06469(17)
H11 H 0.0708 -0.1915 -0.0102
C14 C -0.03978(13) -0.19373(19) 0.07009(19)
H12 H -0.0730 -0.2527 0.0001
C15 C -0.07741(12) -0.14418(19) 0.17656(19)
H13 H -0.1361 -0.1696 0.1808
C16 C -0.02915(12) -0.0574(2) 0.27685(19)
H14 H -0.0555 -0.0211 0.3486
C17 C 0.05696(12) -0.02311(18) 0.27356(17)
H15 H 0.0899 0.0356 0.3442
O1 O 0.28895(8) 0.21255(11) 0.43524(11)
H16 H 0.3024 0.2736 0.4952
O2 O 0.41491(8) 0.02615(12) 0.33173(11)
O3 O 0.34269(8) 0.07316(11) 0.10066(11)
loop_
_geom_bond_atom_site_label_1
_geom_bond_atom_site_label_2
_geom_bond_site_symmetry_1
_geom_bond_site_symmetry_2
C1 C2 1_555 1_555
C2 H1 1_555 1_555
C3 C2 1_555 1_555
H2 C3 1_555 1_555
C4 C3 1_555 1_555
H3 C4 1_555 1_555
C5 C4 1_555 1_555
H4 C5 1_555 1_555
C6 C1 1_555 1_555
C7 C1 1_555 1_555
C8 C7 1_555 1_555
C9 H5 1_555 1_555
H6 C9 1_555 1_555
C10 C9 1_555 1_555
H7 C10 1_555 1_555
H8 C10 1_555 1_555
H9 C10 1_555 1_555
C11 C7 1_555 1_555
H10 C11 1_555 1_555
C12 C11 1_555 1_555
C13 C12 1_555 1_555
H11 C13 1_555 1_555
C14 C13 1_555 1_555
H12 C14 1_555 1_555
C15 C14 1_555 1_555
H13 C15 1_555 1_555
C16 C15 1_555 1_555
H14 C16 1_555 1_555
C17 C12 1_555 1_555
H15 C17 1_555 1_555
O1 C6 1_555 1_555
H16 O1 1_555 1_555
O2 C8 1_555 1_555
O3 C8 1_555 1_555
C5 C6 1_555 1_555
C9 O2 1_555 1_555
C16 C17 1_555 1_555

#END
