
#######################################################################
#
#                 Cambridge Crystallographic Data Centre
#                                CCDC 
#
#######################################################################
#
# If this CIF has been generated from an entry in the Cambridge 
# Structural Database, then it will include bibliographic, chemical, 
# crystal, experimental, refinement or atomic coordinate data resulting 
# from the CCDC's data processing and validation procedures.
#
#######################################################################

data_SIVJAK
_chemical_formula_moiety         'C17 H13 Br1 O1'
_chemical_name_systematic        (R)-3-(4-Bromophenyl)-1-phenylpent-4-yn-1-one
_symmetry_cell_setting           monoclinic
_symmetry_space_group_name_H-M   'P 21'
_symmetry_Int_Tables_number      4
_space_group_name_Hall           'P 2yb'
loop_
_symmetry_equiv_pos_site_id
_symmetry_equiv_pos_as_xyz
1 x,y,z
2 -x,1/2+y,-z
_cell_length_a                   5.4952(11)
_cell_length_b                   8.5976(17)
_cell_length_c                   15.471(3)
_cell_angle_alpha                90
_cell_angle_beta                 96.54(3)
_cell_angle_gamma                90
_cell_volume                     726.179
_exptl_crystal_colour            colorless
_exptl_crystal_description       block
_cell_formula_units_Z            2
loop_
_atom_site_label
_atom_site_type_symbol
_atom_site_fract_x
_atom_site_fract_y
_atom_site_fract_z
Br1 Br 1.57350(7) 0.86252(8) 1.14683(3)
O1 O 0.5006(5) 0.6513(3) 0.68953(18)
C1 C 1.3529(7) 0.8364(5) 1.0431(3)
C2 C 1.4003(7) 0.9093(4) 0.9682(3)
H1 H 1.5451 0.9693 0.9670
C3 C 1.2332(7) 0.8945(4) 0.8938(3)
H2 H 1.2634 0.9452 0.8416
C4 C 1.0224(7) 0.8056(4) 0.8958(2)
C5 C 0.9845(7) 0.7309(5) 0.9728(3)
H3 H 0.8421 0.6687 0.9741
C6 C 1.1462(7) 0.7439(5) 1.0475(3)
H4 H 1.1181 0.6920 1.0997
C7 C 0.8369(7) 0.7847(4) 0.8160(3)
H5 H 0.6746 0.7618 0.8365
C8 C 0.8097(9) 0.9252(5) 0.7623(3)
C9 C 0.7915(15) 1.0373(7) 0.7182(4)
H6 H 0.7769 1.1277 0.6827
C10 C 0.9074(6) 0.6441(4) 0.7620(2)
H7 H 1.0599 0.6685 0.7363
H8 H 0.9407 0.5534 0.8011
C11 C 0.7090(6) 0.6016(4) 0.6900(2)
C12 C 0.7722(7) 0.4968(4) 0.6188(3)
C13 C 0.6108(8) 0.4859(5) 0.5429(3)
H9 H 0.4612 0.5423 0.5381
C14 C 0.6669(9) 0.3926(5) 0.4733(3)
H10 H 0.5591 0.3881 0.4208
C15 C 0.8787(10) 0.3085(5) 0.4824(3)
H11 H 0.9150 0.2430 0.4361
C16 C 1.0424(9) 0.3160(5) 0.5574(4)
H12 H 1.1887 0.2562 0.5622
C17 C 0.9912(7) 0.4113(4) 0.6252(3)
H13 H 1.1047 0.4188 0.6762
loop_
_geom_bond_atom_site_label_1
_geom_bond_atom_site_label_2
_geom_bond_site_symmetry_1
_geom_bond_site_symmetry_2
Br1 C1 1_555 1_555
O1 C11 1_555 1_555
C1 C2 1_555 1_555
C2 H1 1_555 1_555
C3 C2 1_555 1_555
H2 C3 1_555 1_555
C4 C3 1_555 1_555
C5 C4 1_555 1_555
H3 C5 1_555 1_555
C6 C1 1_555 1_555
H4 C6 1_555 1_555
C7 C4 1_555 1_555
H5 C7 1_555 1_555
C8 C7 1_555 1_555
C9 C8 1_555 1_555
H6 C9 1_555 1_555
C10 C7 1_555 1_555
H7 C10 1_555 1_555
H8 C10 1_555 1_555
C11 C10 1_555 1_555
C12 C11 1_555 1_555
C13 C12 1_555 1_555
H9 C13 1_555 1_555
C14 C13 1_555 1_555
H10 C14 1_555 1_555
C15 C14 1_555 1_555
H11 C15 1_555 1_555
C16 C15 1_555 1_555
H12 C16 1_555 1_555
C17 C12 1_555 1_555
H13 C17 1_555 1_555
C5 C6 1_555 1_555
C16 C17 1_555 1_555

#END
