
#######################################################################
#
#                 Cambridge Crystallographic Data Centre
#                                CCDC 
#
#######################################################################
#
# If this CIF has been generated from an entry in the Cambridge 
# Structural Database, then it will include bibliographic, chemical, 
# crystal, experimental, refinement or atomic coordinate data resulting 
# from the CCDC's data processing and validation procedures.
#
#######################################################################

data_SIVMEP10
_chemical_formula_moiety         'C44 H57 N1 O2,2(C5 H5 N1)'
_chemical_name_systematic        
'5,11,17,23-Tetra-t-butyl-25,27-dihydroxy-26-monoaminocalix(4) arene pyridine solvate'
_symmetry_cell_setting           orthorhombic
_symmetry_space_group_name_H-M   'P 21 21 21'
_symmetry_Int_Tables_number      19
_space_group_name_Hall           'P 2ac 2ab'
loop_
_symmetry_equiv_pos_site_id
_symmetry_equiv_pos_as_xyz
1 x,y,z
2 1/2+x,1/2-y,-z
3 -x,1/2+y,1/2-z
4 1/2-x,-y,1/2+z
_cell_length_a                   20.539(3)
_cell_length_b                   24.435(2)
_cell_length_c                   9.452(1)
_cell_angle_alpha                90
_cell_angle_beta                 90
_cell_angle_gamma                90
_cell_volume                     4743.68
_cell_formula_units_Z            4
loop_
_atom_site_label
_atom_site_type_symbol
_atom_site_fract_x
_atom_site_fract_y
_atom_site_fract_z
O1 O 0.5489(3) 0.2600(2) 0.3747(5)
O2 O 0.4217(2) 0.3523(2) 0.2962(6)
N1 N 0.4230(5) 0.2283(5) 0.260(1)
C1 C 0.3920(3) 0.2229(3) 0.3840(7)
C2 C 0.3323(3) 0.2467(2) 0.4171(6)
C3 C 0.3001(3) 0.2311(3) 0.5393(8)
C4 C 0.3245(3) 0.1923(2) 0.6336(8)
C5 C 0.3865(3) 0.1695(2) 0.5962(8)
C6 C 0.4194(3) 0.1836(3) 0.4753(7)
C7 C 0.4853(4) 0.1592(3) 0.4481(8)
C8 C 0.5638(3) 0.2371(3) 0.5051(7)
C9 C 0.5365(3) 0.1871(3) 0.5426(8)
C10 C 0.5532(3) 0.1640(2) 0.6678(7)
C11 C 0.5947(3) 0.1889(2) 0.7659(7)
C12 C 0.6206(3) 0.2383(2) 0.7244(7)
C13 C 0.6061(3) 0.2646(2) 0.5982(7)
C14 C 0.6331(3) 0.3203(3) 0.5636(8)
C15 C 0.5414(3) 0.3867(3) 0.5056(7)
C16 C 0.5865(3) 0.3665(2) 0.6018(8)
C17 C 0.5893(3) 0.3884(2) 0.7349(7)
C18 C 0.5478(3) 0.4303(2) 0.7802(7)
C19 C 0.5016(3) 0.4476(2) 0.6817(7)
C20 C 0.4972(3) 0.4270(2) 0.5449(7)
C21 C 0.4470(3) 0.4510(2) 0.4445(7)
C22 C 0.3706(3) 0.3746(2) 0.3777(6)
C23 C 0.3815(3) 0.4225(2) 0.4483(6)
C24 C 0.3285(3) 0.4459(2) 0.5215(6)
C25 C 0.2682(3) 0.4225(3) 0.5279(6)
C26 C 0.2608(3) 0.3725(2) 0.4607(7)
C27 C 0.3111(3) 0.3475(2) 0.3870(6)
C28 C 0.3016(3) 0.2902(3) 0.3258(7)
C29 C 0.2908(4) 0.1740(3) 0.7667(8)
C30 C 0.2359(5) 0.2122(4) 0.805(1)
C31 C 0.2640(5) 0.1163(4) 0.745(1)
C32 C 0.3380(6) 0.1745(5) 0.895(1)
C33 C 0.6113(3) 0.1606(3) 0.9036(8)
C34 C 0.547(1) 0.1424(9) 0.973(2)
C35 C 0.650(1) 0.1107(8) 0.873(2)
C36 C 0.650(1) 0.1994(9) 0.995(2)
C37 C 0.5557(4) 0.4580(3) 0.9226(8)
C38 C 0.5994(6) 0.4275(5) 1.022(1)
C39 C 0.5906(6) 0.5137(5) 0.891(1)
C40 C 0.4909(8) 0.4701(7) 0.989(2)
C41 C 0.2124(3) 0.4489(3) 0.6057(8)
C42 C 0.228(1) 0.452(1) 0.772(3)
C43 C 0.202(1) 0.507(1) 0.569(3)
C44 C 0.147(1) 0.4160(8) 0.614(2)
H1 H 0.2593 0.2477 0.5599
H2 H 0.4056 0.1433 0.6579
H3 H 0.4842 0.1211 0.4685
H4 H 0.4967 0.1644 0.3515
H5 H 0.5359 0.1290 0.6901
H6 H 0.6505 0.2556 0.7867
H7 H 0.6725 0.3253 0.6146
H8 H 0.6417 0.3219 0.4650
H9 H 0.6208 0.3746 0.7992
H10 H 0.4715 0.4751 0.7097
H11 H 0.4406 0.4883 0.4688
H12 H 0.4636 0.4486 0.3510
H13 H 0.3351 0.4797 0.5688
H14 H 0.2197 0.3547 0.4651
H15 H 0.3208 0.2888 0.2344
H16 H 0.2563 0.2830 0.3183
H17 H 0.2526 0.2480 0.8191
H18 H 0.2050 0.2128 0.7299
H19 H 0.2155 0.1998 0.8890
H20 H 0.2445 0.1037 0.8297
H21 H 0.2323 0.1168 0.6713
H22 H 0.2985 0.0924 0.7188
H23 H 0.3161 0.1611 0.9762
H24 H 0.3744 0.1518 0.8748
H25 H 0.3525 0.2108 0.9115
H26 H 0.5803 0.3931 1.0440
H27 H 0.6405 0.4218 0.9781
H28 H 0.6050 0.4481 1.1060
H29 H 0.6313 0.5068 0.8469
H30 H 0.5641 0.5351 0.8301
H31 H 0.5974 0.5328 0.9773
H32 H 0.4973 0.4905 1.0738
H33 H 0.4650 0.4908 0.9254
H34 H 0.4694 0.4368 1.0109
N2 N 0.5957(3) 0.8255(3) 0.4774(8)
C45 C 0.5451(4) 0.7988(3) 0.5346(9)
C46 C 0.5380(4) 0.7896(4) 0.676(1)
C47 C 0.5813(4) 0.8117(3) 0.766(1)
C48 C 0.6326(4) 0.8409(3) 0.713(1)
C49 C 0.6404(4) 0.8453(4) 0.572(1)
N3 N 0.3253(6) 0.0894(5) 0.248(1)
C50 C 0.2788(7) 0.0541(6) 0.209(2)
C51 C 0.2957(7) 0.0149(6) 0.104(2)
C52 C 0.3571(7) 0.0111(5) 0.056(1)
C53 C 0.3987(7) 0.0456(6) 0.107(2)
C54 C 0.3855(6) 0.0855(5) 0.198(1)
N4? N 0.5487(5) 0.3705(4) 0.368(1)
C55? C 0.587(1) 0.198(1) 1.032(3)
C56? C 0.589(1) 0.0988(8) 0.922(2)
C57? C 0.6889(9) 0.1611(8) 0.924(2)
C58? C 0.197(1) 0.4171(9) 0.730(2)
C59? C 0.2283(8) 0.5102(7) 0.643(2)
C60? C 0.1522(8) 0.4501(6) 0.505(2)
loop_
_geom_bond_atom_site_label_1
_geom_bond_atom_site_label_2
_geom_bond_site_symmetry_1
_geom_bond_site_symmetry_2
O1 C8 1_555 1_555
O2 C22 1_555 1_555
N1 C1 1_555 1_555
C1 C2 1_555 1_555
C2 C3 1_555 1_555
C3 C4 1_555 1_555
C4 C5 1_555 1_555
C5 C6 1_555 1_555
C6 C1 1_555 1_555
C7 C6 1_555 1_555
C8 C9 1_555 1_555
C9 C7 1_555 1_555
C10 C9 1_555 1_555
C11 C10 1_555 1_555
C12 C11 1_555 1_555
C13 C8 1_555 1_555
C14 C13 1_555 1_555
C15 C16 1_555 1_555
C16 C14 1_555 1_555
C17 C16 1_555 1_555
C18 C17 1_555 1_555
C19 C18 1_555 1_555
C20 C15 1_555 1_555
C21 C20 1_555 1_555
C22 C23 1_555 1_555
C23 C21 1_555 1_555
C24 C23 1_555 1_555
C25 C24 1_555 1_555
C26 C25 1_555 1_555
C27 C22 1_555 1_555
C28 C2 1_555 1_555
C29 C4 1_555 1_555
C30 C29 1_555 1_555
C31 C29 1_555 1_555
C32 C29 1_555 1_555
C33 C11 1_555 1_555
C34 C33 1_555 1_555
C35 C33 1_555 1_555
C36 C33 1_555 1_555
C37 C18 1_555 1_555
C38 C37 1_555 1_555
C39 C37 1_555 1_555
C40 C37 1_555 1_555
C41 C25 1_555 1_555
C42 C41 1_555 1_555
C43 C41 1_555 1_555
C44 C41 1_555 1_555
H1 C3 1_555 1_555
H2 C5 1_555 1_555
H3 C7 1_555 1_555
H4 C7 1_555 1_555
H5 C10 1_555 1_555
H6 C12 1_555 1_555
H7 C14 1_555 1_555
H8 C14 1_555 1_555
H9 C17 1_555 1_555
H10 C19 1_555 1_555
H11 C21 1_555 1_555
H12 C21 1_555 1_555
H13 C24 1_555 1_555
H14 C26 1_555 1_555
H15 C28 1_555 1_555
H16 C28 1_555 1_555
H17 C30 1_555 1_555
H18 C30 1_555 1_555
H19 C30 1_555 1_555
H20 C31 1_555 1_555
H21 C31 1_555 1_555
H22 C31 1_555 1_555
H23 C32 1_555 1_555
H24 C32 1_555 1_555
H25 C32 1_555 1_555
H26 C38 1_555 1_555
H27 C38 1_555 1_555
H28 C38 1_555 1_555
H29 C39 1_555 1_555
H30 C39 1_555 1_555
H31 C39 1_555 1_555
H32 C40 1_555 1_555
H33 C40 1_555 1_555
H34 C40 1_555 1_555
N2 C45 1_555 1_555
C45 C46 1_555 1_555
C46 C47 1_555 1_555
C47 C48 1_555 1_555
C48 C49 1_555 1_555
C49 N2 1_555 1_555
N3 C50 1_555 1_555
C50 C51 1_555 1_555
C51 C52 1_555 1_555
C52 C53 1_555 1_555
C53 C54 1_555 1_555
C54 N3 1_555 1_555
C12 C13 1_555 1_555
C19 C20 1_555 1_555
C26 C27 1_555 1_555
C27 C28 1_555 1_555

#END
