
#######################################################################
#
#                 Cambridge Crystallographic Data Centre
#                                CCDC 
#
#######################################################################
#
# If this CIF has been generated from an entry in the Cambridge 
# Structural Database, then it will include bibliographic, chemical, 
# crystal, experimental, refinement or atomic coordinate data resulting 
# from the CCDC's data processing and validation procedures.
#
#######################################################################

data_SIVYUU
_chemical_formula_moiety         'C24 H19 F3 N2 O4,C1 H1 Cl3'
_chemical_name_systematic        
'4-[3,3,3-trifluoro-1-(5-methoxy-1H-indol-3-yl)-1-(4-nitrophenyl)propyl]phenol chloroform unknown solvate'
_symmetry_cell_setting           hexagonal
_symmetry_space_group_name_H-M   'P 6'
_symmetry_Int_Tables_number      168
_space_group_name_Hall           'P 6'
loop_
_symmetry_equiv_pos_site_id
_symmetry_equiv_pos_as_xyz
1 x,y,z
2 x-y,x,z
3 -y,x-y,z
4 -x,-y,z
5 -x+y,-x,z
6 y,-x+y,z
_cell_length_a                   22.0755(4)
_cell_length_b                   22.0755(4)
_cell_length_c                   10.0326(2)
_cell_angle_alpha                90
_cell_angle_beta                 90
_cell_angle_gamma                120
_cell_volume                     4234.14
_exptl_crystal_colour            yellow
_exptl_crystal_description       prism
_cell_formula_units_Z            6
loop_
_atom_site_label
_atom_site_type_symbol
_atom_site_fract_x
_atom_site_fract_y
_atom_site_fract_z
F1 F 0.2209(4) -0.1243(4) 0.3367(7)
F2 F 0.2849(5) -0.1544(5) 0.2241(7)
F3 F 0.3072(4) -0.0487(4) 0.2250(6)
O1 O 0.1077(3) -0.0178(3) 0.6186(11)
H1 H 0.0773 -0.0580 0.6438
O2 O 0.4692(3) 0.2459(3) 0.7568(8)
O3 O 0.4767(3) -0.1290(3) 0.9981(6)
N1 N 0.5045(4) 0.1138(5) 0.3256(7)
H2 H 0.5347 0.1291 0.2592
C1 C 0.2372(3) -0.0734(3) 0.6185(8)
H3 H 0.2426 -0.1101 0.6550
C2 C 0.1763(4) -0.0714(4) 0.6457(10)
H4 H 0.1413 -0.1051 0.7027
C3 C 0.1680(3) -0.0180(3) 0.5863(10)
C4 C 0.2183(4) 0.0297(4) 0.5045(9)
H5 H 0.2115 0.0643 0.4623
C5 C 0.2804(4) 0.0283(4) 0.4818(7)
H6 H 0.3160 0.0626 0.4267
C6 C 0.2892(4) -0.0243(4) 0.5413(6)
C7 C 0.3560(4) -0.0285(4) 0.5137(7)
C8 C 0.3342(5) -0.0935(5) 0.4201(7)
H7 H 0.3775 -0.0902 0.3842
H8 H 0.3112 -0.1361 0.4761
C9 C 0.2863(7) -0.1040(6) 0.3039(10)
C10 C 0.3820(3) -0.0443(3) 0.6449(6)
C11 C 0.4215(4) -0.0781(3) 0.6437(7)
H9 H 0.4347 -0.0885 0.5605
C12 C 0.4413(3) -0.0962(3) 0.7573(7)
H10 H 0.4656 -0.1216 0.7543
C13 C 0.4255(3) -0.0769(3) 0.8789(6)
C14 C 0.3901(3) -0.0409(3) 0.8869(6)
H11 H 0.3801 -0.0279 0.9708
C15 C 0.3689(3) -0.0234(3) 0.7678(6)
H12 H 0.3455 0.0028 0.7709
C16 C 0.4144(4) 0.0393(4) 0.4574(6)
C17 C 0.4523(5) 0.0458(6) 0.3423(8)
H13 H 0.4433 0.0084 0.2837
C18 C 0.5022(5) 0.1547(5) 0.4261(8)
C19 C 0.5452(4) 0.2270(5) 0.4542(11)
H14 H 0.5833 0.2561 0.3975
C20 C 0.5314(4) 0.2530(5) 0.5595(11)
H15 H 0.5589 0.3017 0.5763
C21 C 0.4763(4) 0.2105(4) 0.6501(9)
C22 C 0.4340(3) 0.1398(4) 0.6265(8)
H16 H 0.3968 0.1119 0.6857
C23 C 0.4463(4) 0.1092(4) 0.5133(7)
C24 C 0.4252(4) 0.2053(5) 0.8619(9)
H17 H 0.3767 0.1795 0.8304
H18 H 0.4288 0.2361 0.9357
H19 H 0.4394 0.1722 0.8927
O4 O 0.4187(6) -0.0973(7) 1.1123(10)
N2 N 0.4415(10) -0.1021(10) 1.0027(18)
Cl1 Cl 0.3480(2) 0.10075(17) 1.1286(3)
Cl2 Cl 0.23995(16) 0.0177(2) 0.9351(3)
Cl3 Cl 0.2043(4) 0.0823(4) 1.1511(5)
C25 C 0.2586(8) 0.0497(8) 1.1003(13)
H20 H 0.2437 0.0071 1.1564
N3? N 0.4537(13) -0.0877(12) 0.997(2)
O5? O 0.4526(7) -0.0545(8) 1.0968(12)
loop_
_geom_bond_atom_site_label_1
_geom_bond_atom_site_label_2
_geom_bond_site_symmetry_1
_geom_bond_site_symmetry_2
F1 C9 1_555 1_555
F2 C9 1_555 1_555
F3 C9 1_555 1_555
O1 H1 1_555 1_555
O2 C21 1_555 1_555
O3 N2 1_555 1_555
N1 H2 1_555 1_555
C1 H3 1_555 1_555
C2 C1 1_555 1_555
H4 C2 1_555 1_555
C3 O1 1_555 1_555
C4 C3 1_555 1_555
H5 C4 1_555 1_555
C5 C4 1_555 1_555
H6 C5 1_555 1_555
C6 C1 1_555 1_555
C7 C6 1_555 1_555
C8 C7 1_555 1_555
H7 C8 1_555 1_555
H8 C8 1_555 1_555
C9 C8 1_555 1_555
C10 C7 1_555 1_555
C11 C10 1_555 1_555
H9 C11 1_555 1_555
C12 C11 1_555 1_555
H10 C12 1_555 1_555
C13 C12 1_555 1_555
C14 C13 1_555 1_555
H11 C14 1_555 1_555
C15 C10 1_555 1_555
H12 C15 1_555 1_555
C16 C7 1_555 1_555
C17 N1 1_555 1_555
H13 C17 1_555 1_555
C18 N1 1_555 1_555
C19 C18 1_555 1_555
H14 C19 1_555 1_555
C20 C19 1_555 1_555
H15 C20 1_555 1_555
C21 C20 1_555 1_555
C22 C21 1_555 1_555
H16 C22 1_555 1_555
C23 C16 1_555 1_555
C24 O2 1_555 1_555
H17 C24 1_555 1_555
H18 C24 1_555 1_555
H19 C24 1_555 1_555
O4 N2 1_555 1_555
N2 C13 1_555 1_555
Cl1 C25 1_555 1_555
Cl2 C25 1_555 1_555
Cl3 C25 1_555 1_555
C25 H20 1_555 1_555
C2 C3 1_555 1_555
C5 C6 1_555 1_555
C14 C15 1_555 1_555
C16 C17 1_555 1_555
C18 C23 1_555 1_555
C22 C23 1_555 1_555

#END
