
#######################################################################
#
#                 Cambridge Crystallographic Data Centre
#                                CCDC 
#
#######################################################################
#
# If this CIF has been generated from an entry in the Cambridge 
# Structural Database, then it will include bibliographic, chemical, 
# crystal, experimental, refinement or atomic coordinate data resulting 
# from the CCDC's data processing and validation procedures.
#
#######################################################################

data_SIVZOM
_chemical_formula_moiety         'C26 H31 N3 O3'
_chemical_name_systematic        
(8aS,12aS,13aS)-5,8,8a,9,10,11,12,12a,13,13a-Decahydro-3-methoxy-12((R)-(1-phenylethyl)carbamoyl)-8-oxo-6H-isoquino(2,1-g)(1,6)naphthyridine
_symmetry_cell_setting           monoclinic
_symmetry_space_group_name_H-M   'P 21'
_symmetry_Int_Tables_number      4
_space_group_name_Hall           'P 2yb'
loop_
_symmetry_equiv_pos_site_id
_symmetry_equiv_pos_as_xyz
1 x,y,z
2 -x,1/2+y,-z
_cell_length_a                   9.9666(12)
_cell_length_b                   7.9226(16)
_cell_length_c                   14.541(1)
_cell_angle_alpha                90
_cell_angle_beta                 102.460(16)
_cell_angle_gamma                90
_cell_volume                     1121.13
_chemical_melting_point          198-199deg.C
_cell_formula_units_Z            2
loop_
_atom_site_label
_atom_site_type_symbol
_atom_site_fract_x
_atom_site_fract_y
_atom_site_fract_z
O1 O 0.0741(2) 0.5000 -0.5414(1)
O2 O -0.1321(2) 0.0105(3) -0.0979(1)
O3 O 0.4893(2) 0.0298(3) 0.1607(1)
N1 N 0.3495(2) 0.1113(3) 0.0230(1)
N2 N -0.0345(2) 0.2364(3) -0.1499(1)
N3 N 0.3287(2) 0.2259(3) 0.1672(1)
C1 C -0.0477(2) 0.3966(3) -0.4248(2)
C2 C 0.0644(2) 0.4689(3) -0.4510(2)
C3 C 0.1771(2) 0.5145(4) -0.3808(2)
C4 C 0.1794(2) 0.4787(3) -0.2880(2)
C5 C 0.0691(2) 0.3974(3) -0.2617(1)
C6 C 0.0822(2) 0.3459(3) -0.1586(1)
C7 C 0.2194(2) 0.2616(3) -0.1195(2)
C8 C 0.2151(2) 0.1757(3) -0.0264(1)
C9 C 0.4014(2) -0.0277(4) -0.0262(2)
C10 C 0.3019(3) -0.1740(4) -0.0419(2)
C11 C 0.1598(3) -0.1190(4) -0.0944(2)
C12 C 0.1099(2) 0.0328(3) -0.0454(1)
C13 C -0.0279(2) 0.0936(3) -0.1001(1)
C14 C -0.1672(2) 0.2997(4) -0.2015(2)
C15 C -0.1736(2) 0.2865(4) -0.3056(2)
C16 C -0.0464(2) 0.3613(3) -0.3307(2)
C17 C -0.0424(3) 0.4636(4) -0.6132(2)
C18 C 0.3934(2) 0.1176(3) 0.1193(1)
C19 C 0.3608(2) 0.2362(3) 0.2692(2)
C20 C 0.2257(3) 0.2558(4) 0.3025(2)
C21 C 0.4552(2) 0.3803(3) 0.3086(1)
C22 C 0.5222(3) 0.3760(4) 0.4036(2)
C23 C 0.5950(3) 0.5131(5) 0.4452(2)
C24 C 0.6061(3) 0.6559(4) 0.3941(2)
C25 C 0.5434(3) 0.6616(4) 0.3003(2)
C26 C 0.4692(2) 0.5238(4) 0.2578(2)
H1 H -0.1271 0.3703 -0.4717
H2 H 0.2528 0.5706 -0.3972
H3 H 0.2573 0.5096 -0.2409
H4 H 0.0792 0.4446 -0.1220
H5 H 0.2901 0.3442 -0.1093
H6 H 0.2373 0.1798 -0.1630
H7 H 0.1893 0.2579 0.0141
H8 H 0.4868 -0.0650 0.0105
H9 H 0.4140 0.0115 -0.0854
H10 H 0.2953 -0.2193 0.0174
H11 H 0.3354 -0.2581 -0.0777
H12 H 0.0973 -0.2100 -0.0957
H13 H 0.1634 -0.0886 -0.1569
H14 H 0.0989 -0.0046 0.0146
H15 H -0.1775 0.4144 -0.1851
H16 H -0.2389 0.2344 -0.1857
H17 H -0.2521 0.3455 -0.3387
H18 H -0.1804 0.1709 -0.3234
H19 H -0.0232 0.4903 -0.6727
H20 H -0.0641 0.3470 -0.6114
H21 H -0.1182 0.5289 -0.6037
H22 H 0.2669 0.2903 0.1363
H23 H 0.4084 0.1354 0.2916
H24 H 0.2447 0.2628 0.3692
H25 H 0.1802 0.3557 0.2763
H26 H 0.1684 0.1610 0.2824
H27 H 0.5173 0.2771 0.4396
H28 H 0.6382 0.5090 0.5101
H29 H 0.6568 0.7502 0.4233
H30 H 0.5507 0.7600 0.2644
H31 H 0.4273 0.5283 0.1926
loop_
_geom_bond_atom_site_label_1
_geom_bond_atom_site_label_2
_geom_bond_site_symmetry_1
_geom_bond_site_symmetry_2
O1 C2 1_555 1_555
O2 C13 1_555 1_555
O3 C18 1_555 1_555
N1 C8 1_555 1_555
N2 C6 1_555 1_555
N3 C18 1_555 1_555
C1 C2 1_555 1_555
C2 C3 1_555 1_555
C3 C4 1_555 1_555
C4 C5 1_555 1_555
C5 C6 1_555 1_555
C6 C7 1_555 1_555
C7 C8 1_555 1_555
C8 C12 1_555 1_555
C9 N1 1_555 1_555
C10 C9 1_555 1_555
C11 C10 1_555 1_555
C12 C11 1_555 1_555
C13 N2 1_555 1_555
C14 N2 1_555 1_555
C15 C14 1_555 1_555
C16 C1 1_555 1_555
C17 O1 1_555 1_555
C18 N1 1_555 1_555
C19 N3 1_555 1_555
C20 C19 1_555 1_555
C21 C19 1_555 1_555
C22 C21 1_555 1_555
C23 C22 1_555 1_555
C24 C23 1_555 1_555
C25 C24 1_555 1_555
C26 C21 1_555 1_555
H1 C1 1_555 1_555
H2 C3 1_555 1_555
H3 C4 1_555 1_555
H4 C6 1_555 1_555
H5 C7 1_555 1_555
H6 C7 1_555 1_555
H7 C8 1_555 1_555
H8 C9 1_555 1_555
H9 C9 1_555 1_555
H10 C10 1_555 1_555
H11 C10 1_555 1_555
H12 C11 1_555 1_555
H13 C11 1_555 1_555
H14 C12 1_555 1_555
H15 C14 1_555 1_555
H16 C14 1_555 1_555
H17 C15 1_555 1_555
H18 C15 1_555 1_555
H19 C17 1_555 1_555
H20 C17 1_555 1_555
H21 C17 1_555 1_555
H22 N3 1_555 1_555
H23 C19 1_555 1_555
H24 C20 1_555 1_555
H25 C20 1_555 1_555
H26 C20 1_555 1_555
H27 C22 1_555 1_555
H28 C23 1_555 1_555
H29 C24 1_555 1_555
H30 C25 1_555 1_555
H31 C26 1_555 1_555
C5 C16 1_555 1_555
C12 C13 1_555 1_555
C15 C16 1_555 1_555
C25 C26 1_555 1_555

#END
