
#######################################################################
#
#                 Cambridge Crystallographic Data Centre
#                                CCDC 
#
#######################################################################
#
# If this CIF has been generated from an entry in the Cambridge 
# Structural Database, then it will include bibliographic, chemical, 
# crystal, experimental, refinement or atomic coordinate data resulting 
# from the CCDC's data processing and validation procedures.
#
#######################################################################

data_SIVZIG
_chemical_formula_moiety         'C18 H27 N2 O3 S1 1+,Cl1 1-'
_chemical_name_systematic        
'(8aR,12aS,13aS)-5,8,8a,9,10,11,12,12a,13,13a-Decahydro-3-methoxy-12-methylsulfonyl-6H-isoquino(2,1-g)(1,6)naphthyridine hydrochloride'
_chemical_properties_biological  'alpha!2$-adrenoceptor antagonistic activity'
_symmetry_cell_setting           triclinic
_symmetry_space_group_name_H-M   'P 1'
_symmetry_Int_Tables_number      1
_space_group_name_Hall           'P 1'
loop_
_symmetry_equiv_pos_site_id
_symmetry_equiv_pos_as_xyz
1 x,y,z
_cell_length_a                   6.0593(11)
_cell_length_b                   7.9695(14)
_cell_length_c                   11.134(2)
_cell_angle_alpha                109.313(14)
_cell_angle_beta                 93.901(15)
_cell_angle_gamma                107.886(13)
_cell_volume                     474.189
_exptl_crystal_colour            colorless
_cell_formula_units_Z            1
loop_
_atom_site_label
_atom_site_type_symbol
_atom_site_fract_x
_atom_site_fract_y
_atom_site_fract_z
C1 C -0.6014(7) 0.0700(5) -0.1492(3)
C2 C -0.8267(7) -0.0217(5) -0.2290(3)
C3 C -0.8713(7) 0.0244(5) -0.3356(4)
C4 C -0.6933(7) 0.1577(5) -0.3620(3)
C5 C -0.4720(7) 0.2467(5) -0.2833(3)
C6 C -0.2891(7) 0.3976(5) -0.3136(3)
C7 C -0.0442(7) 0.4381(5) -0.2508(4)
N1 N -0.0346(5) 0.4696(4) -0.1089(3)
C8 C 0.2200(7) 0.5304(7) -0.0448(4)
C9 C 0.2450(7) 0.5733(6) 0.0999(4)
C10 C 0.2214(10) 0.7644(6) 0.1734(4)
C11 C 0.2448(12) 0.8029(6) 0.3169(5)
C12 C 0.0639(10) 0.6430(7) 0.3396(4)
N2 N 0.0970(8) 0.4654(5) 0.2700(3)
C13 C 0.0802(7) 0.4114(5) 0.1283(4)
C14 C -0.1737(7) 0.3466(5) 0.0574(3)
C15 C -0.1801(7) 0.2939(5) -0.0886(3)
C16 C -0.4230(7) 0.2052(5) -0.1745(3)
C17 C -0.1427(10) 0.1418(7) 0.3038(5)
C18 C -1.2742(9) -0.1881(7) -0.3980(5)
O1 O 0.2933(7) 0.2460(7) 0.2894(5)
O2 O 0.1743(8) 0.4319(5) 0.4791(3)
O3 O -1.0846(5) -0.0476(4) -0.4171(3)
S1 S 0.1300(2) 0.3264(2) 0.3423(1)
H1 H -0.5699 0.0383 -0.0753
H2 H -0.9476 -0.1146 -0.2099
H3 H -0.7242 0.1887 -0.4362
H4 H -0.3244 0.5124 -0.2853
H5 H -0.2987 0.3570 -0.4058
H6 H 0.0612 0.5491 -0.2599
H7 H 0.0057 0.3333 -0.2924
H8 H -0.1112 0.5660 -0.0722
H9 H 0.3119 0.6416 -0.0590
H10 H 0.2810 0.4314 -0.0837
H11 H 0.4027 0.5837 0.1299
H12 H 0.0704 0.7642 0.1408
H13 H 0.3415 0.8636 0.1595
H14 H 0.2217 0.9203 0.3609
H15 H 0.4006 0.8143 0.3514
H16 H -0.0923 0.6357 0.3095
H17 H 0.0817 0.6660 0.4306
H18 H 0.1340 0.3060 0.0978
H19 H -0.2363 0.4466 0.0891
H20 H -0.2699 0.2386 0.0736
H21 H -0.1015 0.2035 -0.1148
H22 H -0.1313 0.0553 0.3448
H23 H -0.2613 0.1935 0.3338
H24 H -0.1851 0.0755 0.2115
H25 H -1.4118 -0.2247 -0.4622
H26 H -1.2308 -0.2969 -0.4060
H27 H -1.3079 -0.1377 -0.3132
Cl1 Cl 0.7780 0.8070 0.9634
loop_
_geom_bond_atom_site_label_1
_geom_bond_atom_site_label_2
_geom_bond_site_symmetry_1
_geom_bond_site_symmetry_2
C1 C2 1_555 1_555
C2 C3 1_555 1_555
C3 C4 1_555 1_555
C4 C5 1_555 1_555
C5 C6 1_555 1_555
C6 C7 1_555 1_555
C7 N1 1_555 1_555
N1 C8 1_555 1_555
C8 C9 1_555 1_555
C9 C10 1_555 1_555
C10 C11 1_555 1_555
C11 C12 1_555 1_555
C12 N2 1_555 1_555
N2 C13 1_555 1_555
C13 C9 1_555 1_555
C14 C13 1_555 1_555
C15 N1 1_555 1_555
C16 C1 1_555 1_555
C17 S1 1_555 1_555
C18 O3 1_555 1_555
O1 S1 1_555 1_555
O2 S1 1_555 1_555
O3 C3 1_555 1_555
S1 N2 1_555 1_555
H1 C1 1_555 1_555
H2 C2 1_555 1_555
H3 C4 1_555 1_555
H4 C6 1_555 1_555
H5 C6 1_555 1_555
H6 C7 1_555 1_555
H7 C7 1_555 1_555
H8 N1 1_555 1_555
H9 C8 1_555 1_555
H10 C8 1_555 1_555
H11 C9 1_555 1_555
H12 C10 1_555 1_555
H13 C10 1_555 1_555
H14 C11 1_555 1_555
H15 C11 1_555 1_555
H16 C12 1_555 1_555
H17 C12 1_555 1_555
H18 C13 1_555 1_555
H19 C14 1_555 1_555
H20 C14 1_555 1_555
H21 C15 1_555 1_555
H22 C17 1_555 1_555
H23 C17 1_555 1_555
H24 C17 1_555 1_555
H25 C18 1_555 1_555
H26 C18 1_555 1_555
H27 C18 1_555 1_555
C5 C16 1_555 1_555
C14 C15 1_555 1_555
C15 C16 1_555 1_555

#END
