
#######################################################################
#
#                 Cambridge Crystallographic Data Centre
#                                CCDC 
#
#######################################################################
#
# If this CIF has been generated from an entry in the Cambridge 
# Structural Database, then it will include bibliographic, chemical, 
# crystal, experimental, refinement or atomic coordinate data resulting 
# from the CCDC's data processing and validation procedures.
#
#######################################################################

data_SIWBIJ
_chemical_formula_moiety         'C21 H26 N1 O1 1+,Cl1 1-,x(H2 O1)'
_chemical_name_systematic        
'4aS,10aS-trans-1-Benzyl-1,2,3,4,4a,5,10,10a-octahydro-9-methoxybenzo(g)quinoline hydrochloride hydrate'
_symmetry_cell_setting           monoclinic
_symmetry_space_group_name_H-M   'A 2'
_symmetry_Int_Tables_number      5
_space_group_name_Hall           'A 2y'
loop_
_symmetry_equiv_pos_site_id
_symmetry_equiv_pos_as_xyz
1 x,y,z
2 x,1/2+y,1/2+z
3 -x,y,-z
4 -x,1/2+y,1/2-z
_cell_length_a                   10.5281(4)
_cell_length_b                   7.2177(3)
_cell_length_c                   25.6400(22)
_cell_angle_alpha                90
_cell_angle_beta                 97.75(1)
_cell_angle_gamma                90
_cell_volume                     1930.55
_chemical_melting_point          235-237deg.C
_cell_formula_units_Z            4
loop_
_atom_site_label
_atom_site_type_symbol
_atom_site_fract_x
_atom_site_fract_y
_atom_site_fract_z
N1 N -0.8125(3) -0.4996(6) -0.0895(1)
C1 C -0.9278(4) -0.4721(10) -0.0618(2)
C2 C -1.0426(4) -0.5731(10) -0.0903(2)
C3 C -1.0720(4) -0.5086(9) -0.1469(2)
C4 C -0.9555(4) -0.5283(7) -0.1750(2)
C5 C -0.9812(4) -0.4534(8) -0.2315(2)
C6 C -0.8666(4) -0.4634(7) -0.2606(2)
C7 C -0.8844(5) -0.4745(8) -0.3151(2)
C8 C -0.7799(5) -0.4793(8) -0.3418(2)
C9 C -0.6552(5) -0.4733(8) -0.3152(2)
C10 C -0.6385(4) -0.4632(8) -0.2612(2)
O1 O -0.5209(3) -0.4600(7) -0.2310(1)
C11 C -0.4098(5) -0.4580(10) -0.2575(2)
C12 C -0.7441(4) -0.4598(7) -0.2327(2)
C13 C -0.7178(4) -0.4607(8) -0.1732(2)
C14 C -0.8384(4) -0.4303(7) -0.1470(2)
C15 C -0.6961(4) -0.4066(8) -0.0599(2)
C16 C -0.6713(4) -0.4638(8) -0.0024(2)
C17 C -0.6661(5) -0.3312(10) 0.0362(2)
C18 C -0.6334(5) -0.3855(11) 0.0894(2)
C19 C -0.6103(5) -0.5656(11) 0.1025(2)
C20 C -0.6161(5) -0.6959(10) 0.0640(2)
C21 C -0.6470(4) -0.6473(9) 0.0117(2)
H1 H -0.8017 -0.6321 -0.0925
H2 H -0.9420 -0.3204 -0.0619
H3 H -0.8948 -0.5364 -0.0233
H4 H -1.0126 -0.7134 -0.0867
H5 H -1.1351 -0.5775 -0.0681
H6 H -1.1345 -0.5702 -0.1620
H7 H -1.0870 -0.3969 -0.1438
H8 H -0.9385 -0.6444 -0.1795
H9 H -1.0024 -0.3295 -0.2266
H10 H -1.0518 -0.5243 -0.2456
H11 H -0.9755 -0.4871 -0.3378
H12 H -0.7963 -0.4808 -0.3824
H13 H -0.5795 -0.4512 -0.3411
H14 H -0.4070 -0.5802 -0.2757
H15 H -0.4117 -0.3375 -0.2814
H16 H -0.3417 -0.4266 -0.2324
H17 H -0.6866 -0.5927 -0.1612
H18 H -0.6608 -0.3637 -0.1589
H19 H -0.8585 -0.2941 -0.1425
H20 H -0.7047 -0.2504 -0.0608
H21 H -0.6252 -0.4410 -0.0808
H22 H -0.6730 -0.2098 0.0248
H23 H -0.6350 -0.2862 0.1183
H24 H -0.5938 -0.6155 0.1382
H25 H -0.5964 -0.8160 0.0790
H26 H -0.6602 -0.7308 -0.0124
Cl1 Cl -0.7638(2) -0.92916 -0.1066(1)
O2? O -1.0000 -1.001(6) 0.0000
O3? O -0.883(2) -0.993(4) 0.001(1)
O4? O -0.958(5) -1.051(9) -0.044(2)
loop_
_geom_bond_atom_site_label_1
_geom_bond_atom_site_label_2
_geom_bond_site_symmetry_1
_geom_bond_site_symmetry_2
N1 C1 1_555 1_555
C1 C2 1_555 1_555
C2 C3 1_555 1_555
C3 C4 1_555 1_555
C4 C5 1_555 1_555
C5 C6 1_555 1_555
C6 C7 1_555 1_555
C7 C8 1_555 1_555
C8 C9 1_555 1_555
C9 C10 1_555 1_555
C10 O1 1_555 1_555
O1 C11 1_555 1_555
C11 H14 1_555 1_555
C12 C6 1_555 1_555
C13 C12 1_555 1_555
C14 N1 1_555 1_555
C15 N1 1_555 1_555
C16 C15 1_555 1_555
C17 C16 1_555 1_555
C18 C17 1_555 1_555
C19 C18 1_555 1_555
C20 C19 1_555 1_555
C21 C16 1_555 1_555
H1 N1 1_555 1_555
H2 C1 1_555 1_555
H3 C1 1_555 1_555
H4 C2 1_555 1_555
H5 C2 1_555 1_555
H6 C3 1_555 1_555
H7 C3 1_555 1_555
H8 C4 1_555 1_555
H9 C5 1_555 1_555
H10 C5 1_555 1_555
H11 C7 1_555 1_555
H12 C8 1_555 1_555
H13 C9 1_555 1_555
H15 C11 1_555 1_555
H16 C11 1_555 1_555
H17 C13 1_555 1_555
H18 C13 1_555 1_555
H19 C14 1_555 1_555
H20 C15 1_555 1_555
H21 C15 1_555 1_555
H22 C17 1_555 1_555
H23 C18 1_555 1_555
H24 C19 1_555 1_555
H25 C20 1_555 1_555
H26 C21 1_555 1_555
C4 C14 1_555 1_555
C10 C12 1_555 1_555
C13 C14 1_555 1_555
C20 C21 1_555 1_555

#END
