
#######################################################################
#
#                 Cambridge Crystallographic Data Centre
#                                CCDC 
#
#######################################################################
#
# If this CIF has been generated from an entry in the Cambridge 
# Structural Database, then it will include bibliographic, chemical, 
# crystal, experimental, refinement or atomic coordinate data resulting 
# from the CCDC's data processing and validation procedures.
#
#######################################################################

data_SIWHIS
_chemical_formula_moiety         'C39 H29 N3 O2'
_chemical_name_systematic        
N-{[(benzenecarbonyl)imino][4-(diphenylamino)phenyl]methyl}-N-phenylbenzamide
_symmetry_cell_setting           triclinic
_symmetry_space_group_name_H-M   'P -1'
_symmetry_Int_Tables_number      2
_space_group_name_Hall           '-P 1'
loop_
_symmetry_equiv_pos_site_id
_symmetry_equiv_pos_as_xyz
1 x,y,z
2 -x,-y,-z
_cell_length_a                   8.2965(9)
_cell_length_b                   13.0985(17)
_cell_length_c                   14.7393(14)
_cell_angle_alpha                98.478(9)
_cell_angle_beta                 94.853(8)
_cell_angle_gamma                106.655(10)
_cell_volume                     1504.12
_cell_formula_units_Z            2
loop_
_atom_site_label
_atom_site_type_symbol
_atom_site_fract_x
_atom_site_fract_y
_atom_site_fract_z
N1 N 0.4577(3) 0.1226(2) 0.36176(17)
C1 C 0.5521(4) 0.1723(2) 0.44764(19)
O1 O 0.8350(3) 0.4044(2) 0.91352(17)
O2 O 1.1402(3) 0.5413(2) 0.6549(2)
C2 C 0.7429(4) 0.2724(2) 0.62300(18)
C3 C 0.8383(4) 0.3182(2) 0.7166(2)
C4 C 0.4730(4) 0.1855(3) 0.5267(2)
H1 H 0.3551 0.1624 0.5213
C5 C 0.5652(4) 0.2319(2) 0.6124(2)
H2 H 0.5088 0.2364 0.6641
N2 N 0.7917(3) 0.2745(2) 0.78522(16)
N3 N 0.9899(3) 0.4057(2) 0.72179(17)
C6 C 0.7311(4) 0.2123(3) 0.4585(2)
H3 H 0.7885 0.2049 0.4076
C7 C 0.8214(4) 0.2624(2) 0.5444(2)
H4 H 0.9389 0.2903 0.5496
C8 C 0.8621(4) 0.3227(3) 0.8770(2)
C9 C 0.2761(4) 0.0775(3) 0.3538(2)
C10 C 0.5305(4) 0.1139(3) 0.2773(2)
C11 C 1.0025(4) 0.4908(2) 0.6731(2)
C12 C 0.9578(4) 0.2641(3) 0.9283(2)
C13 C 1.1427(4) 0.4047(3) 0.7753(2)
C14 C 0.8475(4) 0.5222(2) 0.6497(2)
C15 C 0.2036(4) -0.0068(3) 0.3972(2)
H5 H 0.2723 -0.0367 0.4310
C16 C 0.7205(5) 0.5149(3) 0.7054(2)
H6 H 0.7265 0.4851 0.7587
C17 C 0.5000(5) 0.0104(3) 0.2249(2)
H7 H 0.4389 -0.0508 0.2462
C18 C 0.9603(5) 0.1608(3) 0.8920(2)
H8 H 0.8958 0.1241 0.8357
C19 C 0.6214(5) 0.2027(3) 0.2446(2)
H9 H 0.6415 0.2719 0.2785
C20 C 0.8383(5) 0.5681(3) 0.5712(3)
H10 H 0.9249 0.5750 0.5342
C21 C 1.0529(5) 0.3175(3) 1.0129(2)
H11 H 1.0507 0.3864 1.0380
C22 C 0.6833(6) 0.1887(4) 0.1606(3)
H12 H 0.7464 0.2489 0.1389
C23 C 0.5622(6) 0.0005(4) 0.1409(3)
H13 H 0.5408 -0.0681 0.1055
C24 C 0.1739(5) 0.1203(3) 0.3014(3)
H14 H 0.2216 0.1772 0.2714
C25 C 0.7013(6) 0.6036(3) 0.5473(3)
H15 H 0.6942 0.6326 0.4937
C26 C 0.5749(5) 0.5956(3) 0.6039(3)
H16 H 0.4833 0.6201 0.5885
C27 C -0.0027(5) 0.0762(4) 0.2944(3)
H17 H -0.0724 0.1035 0.2585
C28 C 1.1513(6) 0.2670(4) 1.0601(3)
H18 H 1.2161 0.3028 1.1166
C29 C 0.5836(5) 0.5517(3) 0.6825(3)
H19 H 0.4983 0.5466 0.7202
C30 C 1.1533(6) 0.1658(4) 1.0242(3)
H20 H 1.2183 0.1323 1.0565
C31 C 1.2292(5) 0.4950(4) 0.8418(3)
H21 H 1.1875 0.5537 0.8536
C32 C 1.1973(6) 0.3156(4) 0.7604(3)
H22 H 1.1362 0.2550 0.7167
C33 C 0.0273(5) -0.0481(3) 0.3907(3)
H23 H -0.0208 -0.1042 0.4215
C34 C -0.0748(5) -0.0065(4) 0.3396(3)
H24 H -0.1923 -0.0339 0.3355
C35 C 0.6527(6) 0.0874(4) 0.1091(3)
H25 H 0.6942 0.0789 0.0527
C36 C 1.0598(7) 0.1128(4) 0.9404(3)
H26 H 1.0632 0.0439 0.9160
C37 C 1.3786(7) 0.4947(7) 0.8898(4)
H27 H 1.4403 0.5557 0.9329
C38 C 1.3486(8) 0.3178(7) 0.8129(4)
H28 H 1.3882 0.2579 0.8050
C39 C 1.4378(7) 0.4101(10) 0.8765(4)
H29 H 1.5396 0.4129 0.9101
loop_
_geom_bond_atom_site_label_1
_geom_bond_atom_site_label_2
_geom_bond_site_symmetry_1
_geom_bond_site_symmetry_2
N1 C1 1_555 1_555
C1 C4 1_555 1_555
O1 C8 1_555 1_555
O2 C11 1_555 1_555
C2 C3 1_555 1_555
C3 N2 1_555 1_555
C4 H1 1_555 1_555
C5 C2 1_555 1_555
H2 C5 1_555 1_555
N2 C8 1_555 1_555
N3 C3 1_555 1_555
C6 C1 1_555 1_555
H3 C6 1_555 1_555
C7 C2 1_555 1_555
H4 C7 1_555 1_555
C8 C12 1_555 1_555
C9 N1 1_555 1_555
C10 N1 1_555 1_555
C11 N3 1_555 1_555
C12 C18 1_555 1_555
C13 N3 1_555 1_555
C14 C11 1_555 1_555
C15 C9 1_555 1_555
H5 C15 1_555 1_555
C16 C14 1_555 1_555
H6 C16 1_555 1_555
C17 C10 1_555 1_555
H7 C17 1_555 1_555
C18 H8 1_555 1_555
C19 C10 1_555 1_555
H9 C19 1_555 1_555
C20 C14 1_555 1_555
H10 C20 1_555 1_555
C21 C12 1_555 1_555
H11 C21 1_555 1_555
C22 C19 1_555 1_555
H12 C22 1_555 1_555
C23 C17 1_555 1_555
H13 C23 1_555 1_555
C24 C9 1_555 1_555
H14 C24 1_555 1_555
C25 C20 1_555 1_555
H15 C25 1_555 1_555
C26 C25 1_555 1_555
H16 C26 1_555 1_555
C27 C24 1_555 1_555
H17 C27 1_555 1_555
C28 C21 1_555 1_555
H18 C28 1_555 1_555
C29 C16 1_555 1_555
H19 C29 1_555 1_555
C30 C28 1_555 1_555
H20 C30 1_555 1_555
C31 C13 1_555 1_555
H21 C31 1_555 1_555
C32 C13 1_555 1_555
H22 C32 1_555 1_555
C33 C15 1_555 1_555
H23 C33 1_555 1_555
C34 C27 1_555 1_555
H24 C34 1_555 1_555
C35 C22 1_555 1_555
H25 C35 1_555 1_555
C36 C18 1_555 1_555
H26 C36 1_555 1_555
C37 C31 1_555 1_555
H27 C37 1_555 1_555
C38 C32 1_555 1_555
H28 C38 1_555 1_555
C39 C37 1_555 1_555
H29 C39 1_555 1_555
C4 C5 1_555 1_555
C6 C7 1_555 1_555
C23 C35 1_555 1_555
C26 C29 1_555 1_555
C30 C36 1_555 1_555
C33 C34 1_555 1_555
C38 C39 1_555 1_555

#END
