
#######################################################################
#
#                 Cambridge Crystallographic Data Centre
#                                CCDC 
#
#######################################################################
#
# If this CIF has been generated from an entry in the Cambridge 
# Structural Database, then it will include bibliographic, chemical, 
# crystal, experimental, refinement or atomic coordinate data resulting 
# from the CCDC's data processing and validation procedures.
#
#######################################################################

data_SIWMES
_chemical_formula_moiety         'C30 H30 N2 O3'
_chemical_name_systematic        
't-Butyl (2-(1,2-diphenylvinyl)-4-methyl-5-oxocyclopent-1-en-1-yl)pyridin-2-ylcarbamate'
_symmetry_cell_setting           monoclinic
_symmetry_space_group_name_H-M   'P 21/n'
_symmetry_Int_Tables_number      14
_space_group_name_Hall           '-P 2yn'
loop_
_symmetry_equiv_pos_site_id
_symmetry_equiv_pos_as_xyz
1 x,y,z
2 1/2-x,1/2+y,1/2-z
3 -x,-y,-z
4 1/2+x,1/2-y,1/2+z
_cell_length_a                   9.8277(4)
_cell_length_b                   9.8709(4)
_cell_length_c                   26.4181(12)
_cell_angle_alpha                90
_cell_angle_beta                 92.566(2)
_cell_angle_gamma                90
_cell_volume                     2560.2
_exptl_crystal_colour            colorless
_exptl_crystal_description       prism
_cell_formula_units_Z            4
loop_
_atom_site_label
_atom_site_type_symbol
_atom_site_fract_x
_atom_site_fract_y
_atom_site_fract_z
O1 O 0.4544(15) 0.8632(10) 0.1238(5)
C1 C 0.3106(4) 0.6767(4) 0.09324(16)
H1 H 0.3039 0.6965 0.0561
C2 C 0.4395(6) 0.7435(9) 0.1157(3)
C3 C 0.3371(12) 0.5252(6) 0.1004(5)
H2 H 0.2732 0.4863 0.1244
H3 H 0.3251 0.4770 0.0676
C4 C 0.1835(4) 0.7288(6) 0.1166(2)
H4 H 0.1881 0.7096 0.1530
H5 H 0.1036 0.6838 0.1008
H6 H 0.1762 0.8268 0.1112
C5 C 0.5378(2) 0.6349(2) 0.12842(8)
C6 C 0.4824(2) 0.5121(2) 0.12115(8)
C7 C 0.7319(2) 0.6124(2) 0.19047(8)
C8 C 0.8721(2) 0.6058(3) 0.20004(10)
H7 H 0.9336 0.6420 0.1768
C9 C 0.9182(3) 0.5449(3) 0.24437(11)
H8 H 1.0133 0.5393 0.2524
C10 C 0.8274(3) 0.4923(3) 0.27700(10)
H9 H 0.8579 0.4493 0.3076
C11 C 0.6916(3) 0.5035(3) 0.26413(10)
H10 H 0.6285 0.4668 0.2866
C12 C 0.7456(2) 0.7608(2) 0.11607(8)
C13 C 0.7314(3) 0.8749(3) 0.03427(10)
C14 C 0.6367(4) 0.8507(3) -0.01123(12)
H11 H 0.6569 0.7624 -0.0261
H12 H 0.6494 0.9221 -0.0363
H13 H 0.5423 0.8517 -0.0008
C15 C 0.7099(4) 1.0139(3) 0.05707(12)
H14 H 0.6161 1.0213 0.0679
H15 H 0.7262 1.0836 0.0316
H16 H 0.7734 1.0265 0.0863
C16 C 0.8784(4) 0.8516(4) 0.02198(14)
H17 H 0.9380 0.8796 0.0508
H18 H 0.8999 0.9049 -0.0079
H19 H 0.8927 0.7552 0.0151
C17 C 0.5535(2) 0.3810(2) 0.12447(8)
C18 C 0.5002(2) 0.2678(2) 0.14367(8)
H20 H 0.5501 0.1871 0.1383
C19 C 0.3753(2) 0.2513(2) 0.17183(9)
C20 C 0.3429(2) 0.3420(2) 0.20997(9)
H21 H 0.3981 0.4196 0.2164
C21 C 0.2302(2) 0.3190(3) 0.23852(10)
H22 H 0.2090 0.3809 0.2646
C22 C 0.1489(3) 0.2075(3) 0.22952(10)
H23 H 0.0715 0.1927 0.2491
C23 C 0.1805(3) 0.1173(3) 0.19193(10)
H24 H 0.1242 0.0404 0.1855
C24 C 0.2931(2) 0.1378(2) 0.16366(9)
H25 H 0.3149 0.0740 0.1384
C25 C 0.6936(2) 0.3761(2) 0.10467(8)
C26 C 0.7216(2) 0.4352(2) 0.05860(9)
H26 H 0.6505 0.4780 0.0390
C27 C 0.8517(3) 0.4326(3) 0.04101(11)
H27 H 0.8693 0.4722 0.0092
C28 C 0.9558(3) 0.3729(3) 0.06945(11)
H28 H 1.0457 0.3726 0.0577
C29 C 0.9291(3) 0.3135(3) 0.11500(11)
H29 H 1.0007 0.2712 0.1345
C30 C 0.7987(2) 0.3150(3) 0.13258(10)
H30 H 0.7813 0.2737 0.1641
N1 N 0.67389(16) 0.66817(18) 0.14446(7)
N2 N 0.64233(19) 0.5637(2) 0.22145(7)
O2 O 0.84579(17) 0.82000(18) 0.13101(7)
O3 O 0.68638(17) 0.76989(16) 0.06968(6)
O4? O 0.448(3) 0.8599(18) 0.1364(8)
C31? C 0.2922(8) 0.6712(8) 0.1198(3)
H31? H 0.2467 0.6731 0.1529
C32? C 0.4299(10) 0.7403(16) 0.1291(5)
C33? C 0.327(2) 0.5236(10) 0.1100(8)
H32? H 0.3025 0.4988 0.0744
H33? H 0.2766 0.4633 0.1326
C34? C 0.1995(9) 0.7435(9) 0.0830(4)
H34? H 0.2410 0.7472 0.0500
H35? H 0.1840 0.8359 0.0951
H36? H 0.1124 0.6953 0.0796
loop_
_geom_bond_atom_site_label_1
_geom_bond_atom_site_label_2
_geom_bond_site_symmetry_1
_geom_bond_site_symmetry_2
O1 C2 1_555 1_555
C1 H1 1_555 1_555
C2 C1 1_555 1_555
C3 C1 1_555 1_555
H2 C3 1_555 1_555
H3 C3 1_555 1_555
C4 C1 1_555 1_555
H4 C4 1_555 1_555
H5 C4 1_555 1_555
H6 C4 1_555 1_555
C5 C2 1_555 1_555
C6 C3 1_555 1_555
C7 C8 1_555 1_555
C8 H7 1_555 1_555
C9 C8 1_555 1_555
H8 C9 1_555 1_555
C10 C9 1_555 1_555
H9 C10 1_555 1_555
C11 C10 1_555 1_555
H10 C11 1_555 1_555
C12 N1 1_555 1_555
C13 C14 1_555 1_555
C14 H11 1_555 1_555
H12 C14 1_555 1_555
H13 C14 1_555 1_555
C15 C13 1_555 1_555
H14 C15 1_555 1_555
H15 C15 1_555 1_555
H16 C15 1_555 1_555
C16 C13 1_555 1_555
H17 C16 1_555 1_555
H18 C16 1_555 1_555
H19 C16 1_555 1_555
C17 C6 1_555 1_555
C18 C17 1_555 1_555
H20 C18 1_555 1_555
C19 C18 1_555 1_555
C20 C19 1_555 1_555
H21 C20 1_555 1_555
C21 C20 1_555 1_555
H22 C21 1_555 1_555
C22 C21 1_555 1_555
H23 C22 1_555 1_555
C23 C22 1_555 1_555
H24 C23 1_555 1_555
C24 C19 1_555 1_555
H25 C24 1_555 1_555
C25 C17 1_555 1_555
C26 C25 1_555 1_555
H26 C26 1_555 1_555
C27 C26 1_555 1_555
H27 C27 1_555 1_555
C28 C27 1_555 1_555
H28 C28 1_555 1_555
C29 C28 1_555 1_555
H29 C29 1_555 1_555
C30 C25 1_555 1_555
H30 C30 1_555 1_555
N1 C5 1_555 1_555
N2 C7 1_555 1_555
O2 C12 1_555 1_555
O3 C12 1_555 1_555
C5 C6 1_555 1_555
C7 N1 1_555 1_555
C11 N2 1_555 1_555
C13 O3 1_555 1_555
C23 C24 1_555 1_555
C29 C30 1_555 1_555

#END
