
#######################################################################
#
#                 Cambridge Crystallographic Data Centre
#                                CCDC 
#
#######################################################################
#
# If this CIF has been generated from an entry in the Cambridge 
# Structural Database, then it will include bibliographic, chemical, 
# crystal, experimental, refinement or atomic coordinate data resulting 
# from the CCDC's data processing and validation procedures.
#
#######################################################################

data_SIWQIB
_chemical_formula_moiety         'C11 H10 Br2 N5 S2 1+,H2 O1,Cl1 1-'
_chemical_name_systematic        
'bis{2-[(5-bromothiophen-2-yl)methylidene]hydrazinyl}methaniminium chloride monohydrate'
_symmetry_cell_setting           orthorhombic
_symmetry_space_group_name_H-M   'P b c a'
_symmetry_Int_Tables_number      61
_space_group_name_Hall           '-P 2ac 2ab'
loop_
_symmetry_equiv_pos_site_id
_symmetry_equiv_pos_as_xyz
1 x,y,z
2 1/2-x,-y,1/2+z
3 -x,1/2+y,1/2-z
4 1/2+x,1/2-y,-z
5 -x,-y,-z
6 1/2+x,y,1/2-z
7 x,1/2-y,1/2+z
8 1/2-x,1/2+y,z
_cell_length_a                   14.723(3)
_cell_length_b                   9.4871(16)
_cell_length_c                   26.049(5)
_cell_angle_alpha                90
_cell_angle_beta                 90
_cell_angle_gamma                90
_cell_volume                     3638.49
_exptl_crystal_colour            white
_exptl_crystal_description       block
_cell_formula_units_Z            8
loop_
_atom_site_label
_atom_site_type_symbol
_atom_site_fract_x
_atom_site_fract_y
_atom_site_fract_z
Br1 Br 0.43500(5) -0.00287(7) 0.57265(3)
Br2 Br 0.46184(7) 1.18933(8) 0.98725(3)
S1 S 0.36280(9) 0.22807(15) 0.64651(5)
S2 S 0.37250(10) 0.97384(16) 0.91346(6)
N1 N 0.3547(3) 0.6142(4) 0.77951(16)
H1 H 0.389(3) 0.549(4) 0.7563(16)
H2 H 0.382(3) 0.698(3) 0.7966(16)
N2 N 0.2173(2) 0.5212(4) 0.75196(14)
H3 H 0.1590 0.5185 0.7539
N3 N 0.2638(2) 0.4343(4) 0.71864(14)
N4 N 0.2180(3) 0.6950(4) 0.81207(14)
H4 H 0.1595 0.6948 0.8117
N5 N 0.2650(3) 0.7830(4) 0.84447(14)
C1 C 0.2653(3) 0.6095(5) 0.78098(16)
C2 C 0.2125(3) 0.3603(5) 0.68912(17)
H5 H 0.1498 0.3711 0.6915
C3 C 0.2484(3) 0.2624(5) 0.65297(18)
C4 C 0.1986(4) 0.1798(5) 0.62021(19)
H6 H 0.1356 0.1827 0.6186
C5 C 0.2508(4) 0.0915(5) 0.5898(2)
H7 H 0.2274 0.0308 0.5651
C6 C 0.3405(4) 0.1052(5) 0.6006(2)
C7 C 0.2151(3) 0.8587(5) 0.87362(18)
H8 H 0.1521 0.8513 0.8718
C8 C 0.2564(4) 0.9557(5) 0.90941(19)
C9 C 0.2129(5) 1.0446(6) 0.9425(2)
H9 H 0.1501 1.0499 0.9457
C10 C 0.2738(6) 1.1272(6) 0.9711(2)
H10 H 0.2557 1.1936 0.9954
C11 C 0.3604(5) 1.0999(6) 0.9597(2)
Cl1 Cl 0.01764(8) 0.42347(14) 0.77346(6)
O1 O 0.0303(3) 0.7250(5) 0.81906(18)
H11 H 0.022(6) 0.784(6) 0.7926(19)
H12 H 0.011(7) 0.645(4) 0.804(3)
loop_
_geom_bond_atom_site_label_1
_geom_bond_atom_site_label_2
_geom_bond_site_symmetry_1
_geom_bond_site_symmetry_2
Br1 C6 1_555 1_555
Br2 C11 1_555 1_555
S1 C3 1_555 1_555
S2 C8 1_555 1_555
N1 H1 1_555 1_555
H2 N1 1_555 1_555
N2 H3 1_555 1_555
N3 N2 1_555 1_555
N4 H4 1_555 1_555
N5 N4 1_555 1_555
C1 N1 1_555 1_555
C2 N3 1_555 1_555
H5 C2 1_555 1_555
C3 C2 1_555 1_555
C4 C3 1_555 1_555
H6 C4 1_555 1_555
C5 C4 1_555 1_555
H7 C5 1_555 1_555
C6 S1 1_555 1_555
C7 N5 1_555 1_555
H8 C7 1_555 1_555
C8 C7 1_555 1_555
C9 C8 1_555 1_555
H9 C9 1_555 1_555
C10 C9 1_555 1_555
H10 C10 1_555 1_555
C11 S2 1_555 1_555
O1 H11 1_555 1_555
H12 O1 1_555 1_555
N2 C1 1_555 1_555
N4 C1 1_555 1_555
C5 C6 1_555 1_555
C10 C11 1_555 1_555

#END
