
#######################################################################
#
#                 Cambridge Crystallographic Data Centre
#                                CCDC 
#
#######################################################################
#
# If this CIF has been generated from an entry in the Cambridge 
# Structural Database, then it will include bibliographic, chemical, 
# crystal, experimental, refinement or atomic coordinate data resulting 
# from the CCDC's data processing and validation procedures.
#
#######################################################################

data_SIWRAU
_chemical_formula_moiety         'C24 H32 N2 O5'
_chemical_name_systematic        
't-butyl [3-hydroxy-17-methoxy-11-oxo-10-azatetracyclo[12.3.1.1^2,6^.0^8,10^]nonadeca-1(18),6(19),14,16-tetraen-12-yl]carbamate'
_symmetry_cell_setting           orthorhombic
_symmetry_space_group_name_H-M   'P 21 21 21'
_symmetry_Int_Tables_number      19
_space_group_name_Hall           'P 2ac 2ab'
loop_
_symmetry_equiv_pos_site_id
_symmetry_equiv_pos_as_xyz
1 x,y,z
2 1/2+x,1/2-y,-z
3 -x,1/2+y,1/2-z
4 1/2-x,-y,1/2+z
_cell_length_a                   9.8618(11)
_cell_length_b                   14.6415(18)
_cell_length_c                   15.0218(19)
_cell_angle_alpha                90
_cell_angle_beta                 90
_cell_angle_gamma                90
_cell_volume                     2169.02
_exptl_crystal_colour            colorless
_exptl_crystal_description       blocklike
_cell_formula_units_Z            4
loop_
_atom_site_label
_atom_site_type_symbol
_atom_site_fract_x
_atom_site_fract_y
_atom_site_fract_z
O1 O 1.15625(17) 0.75671(12) 0.34315(12)
O2 O 0.8848(2) 0.88885(12) -0.09837(13)
O3 O 1.02898(18) 0.63921(13) 0.39893(12)
N1 N 0.9514(2) 0.73272(14) 0.28882(13)
H1 H 0.9698 0.7804 0.2552
O4 O 0.72180(19) 0.55143(13) 0.22345(14)
N2 N 0.9374(2) 0.58220(14) 0.17549(14)
O5 O 0.6242(2) 0.71446(15) -0.14251(13)
H2 H 0.5995 0.7414 -0.0959
C1 C 1.3369(3) 0.64225(19) 0.3471(2)
H3 H 1.2757 0.5920 0.3626
H4 H 1.4276 0.6296 0.3707
H5 H 1.3416 0.6482 0.2822
C2 C 1.2835(3) 0.73103(18) 0.38725(17)
C3 C 1.0450(2) 0.70306(17) 0.34769(17)
C4 C 0.8218(2) 0.68788(17) 0.27991(17)
H6 H 0.7903 0.6725 0.3414
C5 C 0.7155(3) 0.75337(18) 0.23956(17)
H7 H 0.6286 0.7201 0.2334
H8 H 0.7005 0.8044 0.2817
C6 C 0.7538(2) 0.79269(18) 0.14975(17)
C7 C 0.7737(2) 0.73561(18) 0.07656(16)
H9 H 0.7562 0.6722 0.0836
C8 C 0.8175(2) 0.76632(17) -0.00595(17)
C9 C 0.8526(3) 0.69761(18) -0.07919(17)
H10 H 0.9026 0.7306 -0.1273
C10 C 0.7284(3) 0.64986(19) -0.12130(18)
H11 H 0.7591 0.6219 -0.1786
C11 C 0.6724(3) 0.5737(2) -0.06426(19)
H12 H 0.5984 0.5428 -0.0970
H13 H 0.6332 0.6003 -0.0094
C12 C 0.9171(3) 0.98327(19) -0.1097(2)
H14 H 0.8344 1.0199 -0.1040
H15 H 0.9566 0.9927 -0.1688
H16 H 0.9824 1.0020 -0.0641
C13 C 0.8395(2) 0.86081(18) -0.01619(17)
C14 C 1.3773(3) 0.80987(19) 0.3634(2)
H17 H 1.3914 0.8112 0.2989
H18 H 1.4647 0.8017 0.3935
H19 H 1.3363 0.8676 0.3827
C15 C 1.2622(3) 0.7260(2) 0.48817(18)
H20 H 1.2158 0.7813 0.5086
H21 H 1.3504 0.7210 0.5179
H22 H 1.2070 0.6724 0.5026
C16 C 0.8231(3) 0.59843(17) 0.22674(17)
C17 C 1.0582(3) 0.5358(2) 0.2081(2)
H23 H 1.0567 0.5117 0.2696
H24 H 1.1476 0.5584 0.1876
C18 C 0.9677(3) 0.49164(18) 0.14094(19)
H25 H 0.9092 0.4408 0.1634
C19 C 1.0061(3) 0.48736(19) 0.04331(18)
H26 H 1.1004 0.5093 0.0360
H27 H 1.0027 0.4231 0.0231
C20 C 0.9133(3) 0.54410(18) -0.01411(17)
C21 C 0.7790(3) 0.5034(2) -0.0386(2)
H28 H 0.7449 0.4673 0.0124
H29 H 0.7922 0.4609 -0.0892
C22 C 0.9476(3) 0.62828(17) -0.03817(17)
H30 H 1.0390 0.6464 -0.0289
C23 C 0.7756(3) 0.88524(18) 0.13685(18)
H31 H 0.7615 0.9262 0.1850
C24 C 0.8174(3) 0.91932(18) 0.05529(19)
H32 H 0.8310 0.9831 0.0481
loop_
_geom_bond_atom_site_label_1
_geom_bond_atom_site_label_2
_geom_bond_site_symmetry_1
_geom_bond_site_symmetry_2
O1 C2 1_555 1_555
O2 C12 1_555 1_555
O3 C3 1_555 1_555
N1 H1 1_555 1_555
O4 C16 1_555 1_555
N2 C16 1_555 1_555
O5 H2 1_555 1_555
C1 H3 1_555 1_555
H4 C1 1_555 1_555
H5 C1 1_555 1_555
C2 C1 1_555 1_555
C3 O1 1_555 1_555
C4 N1 1_555 1_555
H6 C4 1_555 1_555
C5 C4 1_555 1_555
H7 C5 1_555 1_555
H8 C5 1_555 1_555
C6 C5 1_555 1_555
C7 C6 1_555 1_555
H9 C7 1_555 1_555
C8 C7 1_555 1_555
C9 C8 1_555 1_555
H10 C9 1_555 1_555
C10 O5 1_555 1_555
H11 C10 1_555 1_555
C11 C10 1_555 1_555
H12 C11 1_555 1_555
H13 C11 1_555 1_555
C12 H14 1_555 1_555
H15 C12 1_555 1_555
H16 C12 1_555 1_555
C13 O2 1_555 1_555
C14 C2 1_555 1_555
H17 C14 1_555 1_555
H18 C14 1_555 1_555
H19 C14 1_555 1_555
C15 C2 1_555 1_555
H20 C15 1_555 1_555
H21 C15 1_555 1_555
H22 C15 1_555 1_555
C16 C4 1_555 1_555
C17 N2 1_555 1_555
H23 C17 1_555 1_555
H24 C17 1_555 1_555
C18 N2 1_555 1_555
H25 C18 1_555 1_555
C19 C18 1_555 1_555
H26 C19 1_555 1_555
H27 C19 1_555 1_555
C20 C19 1_555 1_555
C21 C11 1_555 1_555
H28 C21 1_555 1_555
H29 C21 1_555 1_555
C22 C9 1_555 1_555
H30 C22 1_555 1_555
C23 C6 1_555 1_555
H31 C23 1_555 1_555
C24 C13 1_555 1_555
H32 C24 1_555 1_555
N1 C3 1_555 1_555
C8 C13 1_555 1_555
C9 C10 1_555 1_555
C17 C18 1_555 1_555
C20 C21 1_555 1_555
C20 C22 1_555 1_555
C23 C24 1_555 1_555

#END
