
#######################################################################
#
#                 Cambridge Crystallographic Data Centre
#                                CCDC 
#
#######################################################################
#
# If this CIF has been generated from an entry in the Cambridge 
# Structural Database, then it will include bibliographic, chemical, 
# crystal, experimental, refinement or atomic coordinate data resulting 
# from the CCDC's data processing and validation procedures.
#
#######################################################################

data_SIWWOK10
_chemical_formula_moiety         'C40 H54 Mg1 N20 O32 P4,C2 H5 N1 O2,21(H2 O1)'
_chemical_name_systematic        
'bis(Cyclo(ribodiguanylic acid))-tetra-aqua-magnesium glycine hydrate'
_symmetry_cell_setting           trigonal
_symmetry_space_group_name_H-M   'P 31 2 1'
_symmetry_Int_Tables_number      152
_space_group_name_Hall           'P 31 2"'
loop_
_symmetry_equiv_pos_site_id
_symmetry_equiv_pos_as_xyz
1 x,y,z
2 -y,x-y,1/3+z
3 -x+y,-x,2/3+z
4 y,x,-z
5 x-y,-y,2/3-z
6 -x,-x+y,1/3-z
_cell_length_a                   13.520(3)
_cell_length_b                   13.520(3)
_cell_length_c                   76.29(2)
_cell_angle_alpha                90
_cell_angle_beta                 90
_cell_angle_gamma                120
_cell_volume                     12076.8
_cell_formula_units_Z            6
loop_
_atom_site_label
_atom_site_type_symbol
_atom_site_fract_x
_atom_site_fract_y
_atom_site_fract_z
O2 O 0.5089 0.8162 0.0993
O3 O 0.5198 0.5620 0.0174
O4 O 0.2940 0.2939 0.5000
O5 O 0.2187 0.0617 0.0424
O6 O 0.9131 0.7470 0.0117
O7 O 0.9430 0.6370 0.8578
O8 O 0.3640 0.2850 0.4699
O9 O 0.9910 0.2070 0.0130
O10 O 0.6090 0.7040 0.0752
O11 O 0.7750 0.7130 0.9773
O12 O 0.2335 0.6301 0.2121
O13 O 0.0469 0.9180 0.0143
O14 O 0.0800 0.6360 0.1445
O15 O 0.7170 0.4630 0.4907
O16 O 0.5510 0.3430 0.5008
O17 O 0.3560 0.7659 0.1275
O18 O 0.4360 0.1729 0.1707
O19 O 0.7280 0.6590 0.1242
O20 O 0.4110 0.9200 0.1581
O21 O 0.6860 0.3980 0.5204
O22 O 0.6050 0.6490 0.1112
Mg1 Mg 0.9157 0.0403 0.0596
P1 P 0.4729 0.2234 0.0062
O23 O 0.4998 0.2870 -0.0107
O24 O 0.3547 0.1755 0.0131
O25 O 0.6614 0.0780 0.0408
O26 O 0.5095 -0.1159 0.0203
C1 C 0.4000 -0.1559 0.0234
C2 C 0.3703 -0.0619 0.0162
O27 O 0.3352 -0.0982 -0.0027
C3 C 0.4883 0.0465 0.0167
C4 C 0.5741 0.0040 0.0136
C5 C 0.6837 0.0653 0.0230
N1 N 0.0880 -0.2810 0.0671
C6 C 0.1000 -0.2630 0.0512
N2 N -0.0210 -0.3019 0.0472
N3 N 0.1694 -0.2321 0.0413
C7 C 0.2550 -0.2086 0.0491
C8 C 0.2750 -0.2150 0.0669
C9 C 0.1729 -0.2660 0.0768
O28 O 0.1940 -0.2717 0.0949
N4 N 0.3930 -0.1764 0.0708
C10 C 0.4550 -0.1470 0.0555
N5 N 0.3739 -0.1656 0.0433
O29 O 0.5048 0.1275 0.0031
P2 P 0.7622 0.1619 0.0532
O30 O 0.8667 0.1530 0.0505
O31 O 0.7142 0.1481 0.0710
O32 O 0.5640 0.3055 0.0209
O33 O 0.7026 0.4891 0.0432
C11 C 0.6833 0.4618 0.0603
C12 C 0.7396 0.3956 0.0660
O34 O 0.8530 0.4697 0.0687
C13 C 0.7203 0.3287 0.0486
C14 C 0.7382 0.4175 0.0349
C15 C 0.6778 0.3749 0.0178
N6 N 0.3741 0.3043 0.1068
C16 C 0.4902 0.3470 0.1088
N7 N 0.5319 0.3488 0.1246
N8 N 0.5604 0.3776 0.0951
N9 N 1.5908 0.0858 0.1102
N10 N 1.4069 0.0339 0.1120
C17 C 1.3140 0.0122 0.1027
C18 C 1.3090 0.0392 0.0861
C19 C 1.4019 0.0699 0.0761
O35 O 1.4171 0.0930 0.0604
N11 N 1.2000 0.0059 0.0807
C20 C 1.1460 -0.0240 0.0950
N12 N 1.2059 -0.0223 0.1096
O36 O 1.1336 0.1363 0.1535
P3 P 0.8499 0.0154 0.1044
O37 O 0.7287 -0.0810 0.1075
O38 O 0.8953 0.0473 0.0859
O39 O 1.1365 0.3075 0.1378
O40 O 1.0411 0.4225 0.1210
C21 C 1.0290 0.4200 0.1033
C22 C 0.9440 0.3019 0.0966
O41 O 0.8341 0.2855 0.0958
C23 C 0.9658 0.2414 0.1119
C24 C 0.9751 0.3101 0.1271
C25 C 1.0283 0.2920 0.1435
N13 N 1.2459 0.5536 0.0469
C26 C 1.1286 0.5088 0.0502
N14 N 1.0618 0.4958 0.0359
N15 N 1.0797 0.4686 0.0652
C27 C 1.1595 0.4871 0.0768
C28 C 1.2724 0.5277 0.0751
C29 C 1.3336 0.5680 0.0587
O42 O 1.4273 0.6095 0.0545
N16 N 1.3197 0.5323 0.0920
C30 C 1.2384 0.4982 0.1021
N17 N 1.1343 0.4605 0.0950
O43 O 0.8654 0.1307 0.1136
O44 O 0.9750 -0.0760 0.0641
O45 O 1.0872 0.1760 0.0616
O46 O 0.7497 -0.1045 0.0573
O47 O 0.9436 0.0230 0.0332
C31 C 0.5041 0.3705 0.0801
C32 C 0.3914 0.3271 0.0775
C33 C 0.3040 0.2845 0.0917
O48 O 0.2087 0.2558 0.0921
N18 N 0.3714 0.3369 0.0594
C34 C 0.4710 0.3850 0.0527
N19 N 0.5590 0.4056 0.0635
O49 O 0.7986 0.2881 0.0460
P4 P 1.2092 0.2769 0.1515
O50 O 1.2158 0.3235 0.1694
O51 O 1.3199 0.3063 0.1433
O52 O 0.9396 -0.0086 0.1140
O53 O 1.0569 -0.1164 0.1291
C35 C 1.1760 -0.0600 0.1280
C36 C 1.2220 0.0380 0.1415
O54 O 1.2332 0.0027 0.1580
C37 C 1.1343 0.0750 0.1398
C38 C 1.0258 -0.0420 0.1398
C39 C 0.9160 -0.0440 0.1322
N20 N 1.4982 0.0870 0.0848
C40 C 1.4965 0.0710 0.1032
O1 O 0.2458 0.3003 0.0290
loop_
_geom_bond_atom_site_label_1
_geom_bond_atom_site_label_2
_geom_bond_site_symmetry_1
_geom_bond_site_symmetry_2
Mg1 O30 1_555 1_555
P1 O23 1_555 1_555
O24 P1 1_555 1_555
O25 C5 1_555 1_555
O26 C1 1_555 1_555
C1 C2 1_555 1_555
C2 O27 1_555 1_555
C3 C2 1_555 1_555
C4 O26 1_555 1_555
C5 C4 1_555 1_555
N1 C6 1_555 1_555
C6 N2 1_555 1_555
N3 C6 1_555 1_555
C7 N3 1_555 1_555
C8 C7 1_555 1_555
C9 N1 1_555 1_555
O28 C9 1_555 1_555
N4 C8 1_555 1_555
C10 N4 1_555 1_555
N5 C1 1_555 1_555
O29 P1 1_555 1_555
P2 O25 1_555 1_555
O30 P2 1_555 1_555
O31 P2 1_555 1_555
O32 P1 1_555 1_555
O33 C11 1_555 1_555
C11 C12 1_555 1_555
C12 O34 1_555 1_555
C13 C12 1_555 1_555
C14 O33 1_555 1_555
C15 O32 1_555 1_555
N6 C16 1_555 1_555
C16 N7 1_555 1_555
N8 C16 1_555 1_555
N9 C40 1_555 1_555
N10 C17 1_555 1_555
C17 C18 1_555 1_555
C18 C19 1_555 1_555
C19 O35 1_555 1_555
N11 C18 1_555 1_555
C20 N11 1_555 1_555
N12 C17 1_555 1_555
O36 P4 1_555 1_555
P3 O37 1_555 1_555
O38 Mg1 1_555 1_555
O39 C25 1_555 1_555
O40 C21 1_555 1_555
C21 C22 1_555 1_555
C22 O41 1_555 1_555
C23 C22 1_555 1_555
C24 O40 1_555 1_555
C25 C24 1_555 1_555
N13 C26 1_555 1_555
C26 N14 1_555 1_555
N15 C26 1_555 1_555
C27 N15 1_555 1_555
C28 C27 1_555 1_555
C29 N13 1_555 1_555
O42 C29 1_555 1_555
N16 C28 1_555 1_555
C30 N16 1_555 1_555
N17 C21 1_555 1_555
O43 P3 1_555 1_555
O44 Mg1 1_555 1_555
O45 Mg1 1_555 1_555
O46 Mg1 1_555 1_555
O47 Mg1 1_555 1_555
C31 N8 1_555 1_555
C32 C31 1_555 1_555
C33 N6 1_555 1_555
O48 C33 1_555 1_555
N18 C32 1_555 1_555
C34 N18 1_555 1_555
N19 C11 1_555 1_555
O49 P2 1_555 1_555
P4 O39 1_555 1_555
O50 P4 1_555 1_555
O51 P4 1_555 1_555
O52 P3 1_555 1_555
O53 C35 1_555 1_555
C35 N12 1_555 1_555
C36 C35 1_555 1_555
O54 C36 1_555 1_555
C37 O36 1_555 1_555
C38 O53 1_555 1_555
C39 O52 1_555 1_555
N20 C19 1_555 1_555
C40 N10 1_555 1_555
C3 C4 1_555 1_555
C3 O29 1_555 1_555
C7 N5 1_555 1_555
C8 C9 1_555 1_555
C10 N5 1_555 1_555
C13 C14 1_555 1_555
C13 O49 1_555 1_555
C14 C15 1_555 1_555
C20 N12 1_555 1_555
P3 O38 1_555 1_555
C23 C24 1_555 1_555
C23 O43 1_555 1_555
C27 N17 1_555 1_555
C28 C29 1_555 1_555
C30 N17 1_555 1_555
C31 N19 1_555 1_555
C32 C33 1_555 1_555
C34 N19 1_555 1_555
C36 C37 1_555 1_555
C37 C38 1_555 1_555
C38 C39 1_555 1_555
N20 C40 1_555 1_555

#END
