
#######################################################################
#
#                 Cambridge Crystallographic Data Centre
#                                CCDC 
#
#######################################################################
#
# If this CIF has been generated from an entry in the Cambridge 
# Structural Database, then it will include bibliographic, chemical, 
# crystal, experimental, refinement or atomic coordinate data resulting 
# from the CCDC's data processing and validation procedures.
#
#######################################################################

data_SIWXUR
_chemical_formula_moiety         'C14 H15 N7 O2 S2'
_chemical_name_systematic        
'3-Phthalimido-2-oxo-butyraldehyde bis(thiosemicarbazone)'
_chemical_properties_biological  'antiviral drug'
_symmetry_cell_setting           orthorhombic
_symmetry_space_group_name_H-M   'P 21 21 21'
_symmetry_Int_Tables_number      19
_space_group_name_Hall           'P 2ac 2ab'
loop_
_symmetry_equiv_pos_site_id
_symmetry_equiv_pos_as_xyz
1 x,y,z
2 1/2+x,1/2-y,-z
3 -x,1/2+y,1/2-z
4 1/2-x,-y,1/2+z
_cell_length_a                   15.986(7)
_cell_length_b                   11.526(3)
_cell_length_c                   9.409(8)
_cell_angle_alpha                90
_cell_angle_beta                 90
_cell_angle_gamma                90
_cell_volume                     1733.65
_cell_formula_units_Z            4
loop_
_atom_site_label
_atom_site_type_symbol
_atom_site_fract_x
_atom_site_fract_y
_atom_site_fract_z
S1 S 0.0915(2) 0.0216(3) 0.7529(3)
S2 S -0.2226(2) 0.3359(3) 0.5166(3)
O1 O 0.1000(6) 0.6693(8) 0.4802(10)
O2 O 0.2922(7) 0.4880(10) 0.2007(12)
N1 N -0.0360(7) 0.1672(9) 0.7151(11)
N2 N 0.0868(6) 0.2099(9) 0.5978(10)
N3 N 0.0473(6) 0.2976(7) 0.5276(9)
N4 N -0.1933(7) 0.4420(10) 0.2656(12)
N5 N -0.0814(6) 0.4000(8) 0.4085(10)
N6 N -0.0271(6) 0.4581(7) 0.3201(9)
N7 N 0.1796(5) 0.5616(8) 0.3268(9)
C1 C 0.0526(7) 0.4413(9) 0.3427(11)
C2 C 0.0907(7) 0.3564(9) 0.4384(11)
C3 C 0.1125(7) 0.5041(9) 0.2436(11)
C4 C 0.0698(8) 0.5922(10) 0.1468(12)
C5 C 0.1677(7) 0.6457(9) 0.4331(10)
C6 C 0.2520(4) 0.6876(7) 0.4703(8)
C7 C 0.2759(4) 0.7683(7) 0.5733(8)
C8 C 0.3613(4) 0.7859(7) 0.5894(8)
C9 C 0.4206(4) 0.7266(7) 0.5088(8)
C10 C 0.3951(4) 0.6476(7) 0.4060(8)
C11 C 0.3104(4) 0.6294(7) 0.3885(8)
C12 C 0.2647(7) 0.5493(9) 0.2936(11)
C13 C 0.0437(7) 0.1402(9) 0.6863(11)
C14 C -0.1645(9) 0.3993(12) 0.3878(13)
loop_
_geom_bond_atom_site_label_1
_geom_bond_atom_site_label_2
_geom_bond_site_symmetry_1
_geom_bond_site_symmetry_2
S1 C13 1_555 1_555
S2 C14 1_555 1_555
O1 C5 1_555 1_555
O2 C12 1_555 1_555
N1 C13 1_555 1_555
N2 N3 1_555 1_555
N3 C2 1_555 1_555
N4 C14 1_555 1_555
N5 N6 1_555 1_555
N6 C1 1_555 1_555
N7 C3 1_555 1_555
C1 C2 1_555 1_555
C3 C1 1_555 1_555
C4 C3 1_555 1_555
C5 N7 1_555 1_555
C6 C5 1_555 1_555
C7 C6 1_555 1_555
C8 C7 1_555 1_555
C9 C8 1_555 1_555
C10 C9 1_555 1_555
C11 C6 1_555 1_555
C12 N7 1_555 1_555
C13 N2 1_555 1_555
C14 N5 1_555 1_555
C10 C11 1_555 1_555
C11 C12 1_555 1_555

#END
