
#######################################################################
#
#                 Cambridge Crystallographic Data Centre
#                                CCDC 
#
#######################################################################
#
# If this CIF has been generated from an entry in the Cambridge 
# Structural Database, then it will include bibliographic, chemical, 
# crystal, experimental, refinement or atomic coordinate data resulting 
# from the CCDC's data processing and validation procedures.
#
#######################################################################

data_SIXFEM
_chemical_formula_moiety         'C50 H52 N6'
_chemical_name_systematic        
4,4'-((5,12-dioctyl-5,12-dihydroquinolino[2,3-b]acridine-7,14-diylidene)diazanylylidene)dibenzonitrile
_symmetry_cell_setting           triclinic
_symmetry_space_group_name_H-M   'P -1'
_symmetry_Int_Tables_number      2
_space_group_name_Hall           '-P 1'
loop_
_symmetry_equiv_pos_site_id
_symmetry_equiv_pos_as_xyz
1 x,y,z
2 -x,-y,-z
_cell_length_a                   8.8472(18)
_cell_length_b                   9.2195(18)
_cell_length_c                   14.044(3)
_cell_angle_alpha                84.46(3)
_cell_angle_beta                 76.26(3)
_cell_angle_gamma                64.35(3)
_cell_volume                     1003.06
_exptl_crystal_colour            red
_exptl_crystal_description       needle
_cell_formula_units_Z            1
loop_
_atom_site_label
_atom_site_type_symbol
_atom_site_fract_x
_atom_site_fract_y
_atom_site_fract_z
C1 C 0.7595(3) 0.2506(3) 0.01199(18)
C2 C 0.7326(4) 0.1129(3) 0.00722(19)
H1 H 0.8091 0.0313 -0.0398
C3 C 0.5972(4) 0.0944(4) 0.0695(2)
H2 H 0.5808 -0.0001 0.0666
C4 C 0.4850(4) 0.2148(4) 0.1367(2)
H3 H 0.3894 0.2033 0.1787
C5 C 0.5086(3) 0.3498(4) 0.1441(2)
H4 H 0.4302 0.4308 0.1910
C6 C 0.6500(3) 0.3690(3) 0.08167(18)
C7 C 0.8371(3) 0.5035(3) 0.04408(17)
C8 C 0.9491(3) 0.3913(3) -0.03017(17)
C9 C 0.8954(3) 0.2758(3) -0.06132(18)
C10 C 0.8898(3) 0.6118(3) 0.07231(17)
H5 H 0.8142 0.6899 0.1215
C11 C 1.0483(3) 0.2236(3) -0.22974(19)
C12 C 1.1958(4) 0.0977(4) -0.2770(2)
H6 H 1.2421 -0.0010 -0.2435
C13 C 1.2767(4) 0.1131(4) -0.3717(2)
H7 H 1.3783 0.0258 -0.4029
C14 C 1.2089(4) 0.2573(4) -0.4217(2)
C15 C 1.0648(3) 0.3844(4) -0.3740(2)
H8 H 1.0195 0.4837 -0.4071
C16 C 0.9856(3) 0.3690(3) -0.27906(19)
H9 H 0.8874 0.4582 -0.2469
C17 C 1.2852(4) 0.2702(4) -0.5225(2)
C18 C 0.5462(3) 0.6404(3) 0.15110(18)
H10 H 0.4319 0.6552 0.1436
H11 H 0.5604 0.7393 0.1272
C19 C 0.5490(3) 0.6222(4) 0.25931(19)
H12 H 0.5665 0.5112 0.2796
H13 H 0.6473 0.6387 0.2697
C20 C 0.3849(3) 0.7401(4) 0.3232(2)
H14 H 0.3825 0.8489 0.3152
H15 H 0.2853 0.7439 0.3008
C21 C 0.3673(4) 0.6963(4) 0.4308(2)
H16 H 0.3845 0.5827 0.4372
H17 H 0.4605 0.7043 0.4543
C22 C 0.1992(3) 0.7976(4) 0.4964(2)
H18 H 0.1053 0.7928 0.4719
H19 H 0.1836 0.9108 0.4922
C23 C 0.1831(3) 0.7474(4) 0.60277(19)
H20 H 0.2087 0.6316 0.6063
H21 H 0.2709 0.7612 0.6288
C24 C 0.0096(4) 0.8395(4) 0.6675(2)
H22 H -0.0782 0.8260 0.6415
H23 H -0.0159 0.9554 0.6641
C25 C -0.0061(4) 0.7890(4) 0.7736(2)
H24 H 0.0114 0.6762 0.7784
H25 H -0.1209 0.8569 0.8112
H26 H 0.0808 0.8010 0.8002
N1 N 0.6779(2) 0.5052(3) 0.08906(15)
N2 N 0.9514(3) 0.1965(3) -0.14192(16)
N3 N 1.3430(4) 0.2827(4) -0.6035(2)
C1A C 1.2405(3) 0.7494(3) -0.01199(18)
C2A C 1.2674(4) 0.8871(3) -0.00722(19)
H1A H 1.1909 0.9687 0.0398
C3A C 1.4028(4) 0.9056(4) -0.0695(2)
H2A H 1.4192 1.0001 -0.0666
C4A C 1.5150(4) 0.7852(4) -0.1367(2)
H3A H 1.6106 0.7967 -0.1787
C5A C 1.4914(3) 0.6502(4) -0.1441(2)
H4A H 1.5698 0.5692 -0.1910
C6A C 1.3500(3) 0.6310(3) -0.08167(18)
C7A C 1.1629(3) 0.4965(3) -0.04408(17)
C8A C 1.0509(3) 0.6087(3) 0.03017(17)
C9A C 1.1046(3) 0.7242(3) 0.06132(18)
C10A C 1.1102(3) 0.3882(3) -0.07231(17)
H5A H 1.1858 0.3101 -0.1215
C11A C 0.9517(3) 0.7764(3) 0.22974(19)
C12A C 0.8042(4) 0.9023(4) 0.2770(2)
H6A H 0.7579 1.0010 0.2435
C13A C 0.7233(4) 0.8869(4) 0.3717(2)
H7A H 0.6217 0.9742 0.4029
C14A C 0.7911(4) 0.7427(4) 0.4217(2)
C15A C 0.9352(3) 0.6156(4) 0.3740(2)
H8A H 0.9805 0.5163 0.4071
C16A C 1.0144(3) 0.6310(3) 0.27906(19)
H9A H 1.1126 0.5418 0.2469
C17A C 0.7148(4) 0.7298(4) 0.5225(2)
C18A C 1.4538(3) 0.3596(3) -0.15110(18)
H10A H 1.5681 0.3448 -0.1436
H11A H 1.4396 0.2607 -0.1272
C19A C 1.4510(3) 0.3778(4) -0.25931(19)
H12A H 1.4335 0.4888 -0.2796
H13A H 1.3527 0.3613 -0.2697
C20A C 1.6151(3) 0.2599(4) -0.3232(2)
H14A H 1.6175 0.1511 -0.3152
H15A H 1.7147 0.2561 -0.3008
C21A C 1.6327(4) 0.3037(4) -0.4308(2)
H16A H 1.6155 0.4173 -0.4372
H17A H 1.5395 0.2957 -0.4543
C22A C 1.8008(3) 0.2024(4) -0.4964(2)
H18A H 1.8947 0.2072 -0.4719
H19A H 1.8164 0.0892 -0.4922
C23A C 1.8169(3) 0.2526(4) -0.60277(19)
H20A H 1.7913 0.3684 -0.6063
H21A H 1.7291 0.2388 -0.6288
C24A C 1.9904(4) 0.1605(4) -0.6675(2)
H22A H 2.0782 0.1740 -0.6415
H23A H 2.0159 0.0446 -0.6641
C25A C 2.0061(4) 0.2110(4) -0.7736(2)
H24A H 1.9886 0.3238 -0.7784
H25A H 2.1209 0.1431 -0.8112
H26A H 1.9192 0.1990 -0.8002
N1A N 1.3221(2) 0.4948(3) -0.08906(15)
N2A N 1.0486(3) 0.8035(3) 0.14192(16)
N3A N 0.6570(4) 0.7173(4) 0.6035(2)
loop_
_geom_bond_atom_site_label_1
_geom_bond_atom_site_label_2
_geom_bond_site_symmetry_1
_geom_bond_site_symmetry_2
C1 C2 1_555 1_555
C2 H1 1_555 1_555
C3 C2 1_555 1_555
H2 C3 1_555 1_555
C4 C3 1_555 1_555
H3 C4 1_555 1_555
C5 C4 1_555 1_555
H4 C5 1_555 1_555
C6 C1 1_555 1_555
C7 C8 1_555 1_555
C8 C9 1_555 1_555
C9 C1 1_555 1_555
C10 C7 1_555 1_555
H5 C10 1_555 1_555
C11 C12 1_555 1_555
C12 H6 1_555 1_555
C13 C12 1_555 1_555
H7 C13 1_555 1_555
C14 C13 1_555 1_555
C15 C14 1_555 1_555
H8 C15 1_555 1_555
C16 C11 1_555 1_555
H9 C16 1_555 1_555
C17 C14 1_555 1_555
C18 H10 1_555 1_555
H11 C18 1_555 1_555
C19 C18 1_555 1_555
H12 C19 1_555 1_555
H13 C19 1_555 1_555
C20 C19 1_555 1_555
H14 C20 1_555 1_555
H15 C20 1_555 1_555
C21 C20 1_555 1_555
H16 C21 1_555 1_555
H17 C21 1_555 1_555
C22 C21 1_555 1_555
H18 C22 1_555 1_555
H19 C22 1_555 1_555
C23 C22 1_555 1_555
H20 C23 1_555 1_555
H21 C23 1_555 1_555
C24 C23 1_555 1_555
H22 C24 1_555 1_555
H23 C24 1_555 1_555
C25 C24 1_555 1_555
H24 C25 1_555 1_555
H25 C25 1_555 1_555
H26 C25 1_555 1_555
N1 C6 1_555 1_555
N2 C9 1_555 1_555
N3 C17 1_555 1_555
C1A C2A 1_555 1_555
C2A H1A 1_555 1_555
C3A C2A 1_555 1_555
H2A C3A 1_555 1_555
C4A C3A 1_555 1_555
H3A C4A 1_555 1_555
C5A C4A 1_555 1_555
H4A C5A 1_555 1_555
C6A C1A 1_555 1_555
C7A C8A 1_555 1_555
C8A C10 1_555 1_555
C9A C1A 1_555 1_555
C10A C8 1_555 1_555
H5A C10A 1_555 1_555
C11A C12A 1_555 1_555
C12A H6A 1_555 1_555
C13A C12A 1_555 1_555
H7A C13A 1_555 1_555
C14A C13A 1_555 1_555
C15A C14A 1_555 1_555
H8A C15A 1_555 1_555
C16A C11A 1_555 1_555
H9A C16A 1_555 1_555
C17A C14A 1_555 1_555
C18A H10A 1_555 1_555
H11A C18A 1_555 1_555
C19A C18A 1_555 1_555
H12A C19A 1_555 1_555
H13A C19A 1_555 1_555
C20A C19A 1_555 1_555
H14A C20A 1_555 1_555
H15A C20A 1_555 1_555
C21A C20A 1_555 1_555
H16A C21A 1_555 1_555
H17A C21A 1_555 1_555
C22A C21A 1_555 1_555
H18A C22A 1_555 1_555
H19A C22A 1_555 1_555
C23A C22A 1_555 1_555
H20A C23A 1_555 1_555
H21A C23A 1_555 1_555
C24A C23A 1_555 1_555
H22A C24A 1_555 1_555
H23A C24A 1_555 1_555
C25A C24A 1_555 1_555
H24A C25A 1_555 1_555
H25A C25A 1_555 1_555
H26A C25A 1_555 1_555
N1A C6A 1_555 1_555
N2A C9A 1_555 1_555
N3A C17A 1_555 1_555
C5 C6 1_555 1_555
C7 N1 1_555 1_555
C11 N2 1_555 1_555
C15 C16 1_555 1_555
C18 N1 1_555 1_555
C5A C6A 1_555 1_555
C7A C10A 1_555 1_555
C7A N1A 1_555 1_555
C8A C9A 1_555 1_555
C11A N2A 1_555 1_555
C15A C16A 1_555 1_555
C18A N1A 1_555 1_555

#END
