
#######################################################################
#
#                 Cambridge Crystallographic Data Centre
#                                CCDC 
#
#######################################################################
#
# If this CIF has been generated from an entry in the Cambridge 
# Structural Database, then it will include bibliographic, chemical, 
# crystal, experimental, refinement or atomic coordinate data resulting 
# from the CCDC's data processing and validation procedures.
#
#######################################################################

data_SIXKOC
_chemical_formula_moiety         'C24 H18 O3'
_chemical_name_systematic        
7-(2-methoxyphenyl)-2H,2'H-spiro[1-benzofuran-3,1'-naphthalen]-2'-one
_symmetry_cell_setting           monoclinic
_symmetry_space_group_name_H-M   'P 21/n'
_symmetry_Int_Tables_number      14
_space_group_name_Hall           '-P 2yn'
loop_
_symmetry_equiv_pos_site_id
_symmetry_equiv_pos_as_xyz
1 x,y,z
2 1/2-x,1/2+y,1/2-z
3 -x,-y,-z
4 1/2+x,1/2-y,1/2+z
_cell_length_a                   9.6764(16)
_cell_length_b                   13.222(2)
_cell_length_c                   14.548(2)
_cell_angle_alpha                90
_cell_angle_beta                 107.068(3)
_cell_angle_gamma                90
_cell_volume                     1779.31
_exptl_crystal_colour            colorless
_exptl_crystal_description       block
_cell_formula_units_Z            4
loop_
_atom_site_label
_atom_site_type_symbol
_atom_site_fract_x
_atom_site_fract_y
_atom_site_fract_z
O1 O 0.4874(2) 0.18356(16) 0.84834(16)
O2 O 0.36996(18) 0.22508(12) 1.05136(11)
O3 O 0.3025(2) 0.52940(13) 0.98402(13)
C1 C 0.3967(3) 0.1172(2) 0.8402(2)
C2 C 0.3562(3) 0.0509(3) 0.7586(2)
H1 H 0.386479 0.065378 0.705043
C3 C 0.2764(3) -0.0307(2) 0.7582(2)
H2 H 0.252172 -0.071086 0.703465
C4 C 0.2249(3) -0.06070(19) 0.83787(18)
C5 C 0.1580(3) -0.1536(2) 0.8386(3)
H3 H 0.145027 -0.197041 0.786509
C6 C 0.1109(3) -0.1822(2) 0.9149(3)
H4 H 0.068792 -0.245341 0.915222
C7 C 0.1261(3) -0.1177(3) 0.9900(3)
H5 H 0.092107 -0.136130 1.041104
C8 C 0.1918(3) -0.0250(2) 0.99070(19)
H6 H 0.200400 0.018810 1.042101
C9 C 0.2450(3) 0.00391(17) 0.91651(17)
C10 C 0.3190(3) 0.10500(17) 0.91811(16)
C11 C 0.4239(3) 0.13426(19) 1.01799(18)
H7 H 0.429414 0.079647 1.063446
H8 H 0.520070 0.146176 1.012497
C12 C 0.2493(2) 0.25613(17) 0.98063(16)
C13 C 0.2101(2) 0.19212(17) 0.90277(16)
C14 C 0.0885(3) 0.21211(18) 0.82697(17)
H9 H 0.060583 0.168884 0.774323
C15 C 0.0094(3) 0.29840(18) 0.83152(17)
H10 H -0.073272 0.313297 0.781580
C16 C 0.0527(3) 0.36256(18) 0.91010(17)
H11 H -0.001459 0.420455 0.911040
C17 C 0.1740(2) 0.34373(17) 0.98758(16)
C18 C 0.2208(2) 0.41066(18) 1.07372(18)
C19 C 0.2023(3) 0.3786(2) 1.16079(18)
H12 H 0.161057 0.315790 1.164499
C20 C 0.2448(3) 0.4396(3) 1.2418(2)
H13 H 0.228249 0.419239 1.298889
C21 C 0.3113(3) 0.5302(2) 1.2370(2)
H14 H 0.341991 0.570175 1.291826
C22 C 0.3335(3) 0.5630(2) 1.1532(2)
H15 H 0.379046 0.624502 1.151171
C23 C 0.2870(3) 0.50303(19) 1.07055(19)
C24 C 0.3914(3) 0.6157(2) 0.9802(2)
H16 H 0.347575 0.675663 0.996219
H17 H 0.400629 0.622142 0.916534
H18 H 0.485444 0.606754 1.025328
loop_
_geom_bond_atom_site_label_1
_geom_bond_atom_site_label_2
_geom_bond_site_symmetry_1
_geom_bond_site_symmetry_2
O1 C1 1_555 1_555
O2 C11 1_555 1_555
O3 C23 1_555 1_555
C1 C2 1_555 1_555
C2 H1 1_555 1_555
C3 C2 1_555 1_555
H2 C3 1_555 1_555
C4 C3 1_555 1_555
C5 C4 1_555 1_555
H3 C5 1_555 1_555
C6 C5 1_555 1_555
H4 C6 1_555 1_555
C7 C6 1_555 1_555
H5 C7 1_555 1_555
C8 C7 1_555 1_555
H6 C8 1_555 1_555
C9 C4 1_555 1_555
C10 C1 1_555 1_555
C11 C10 1_555 1_555
H7 C11 1_555 1_555
H8 C11 1_555 1_555
C12 O2 1_555 1_555
C13 C10 1_555 1_555
C14 C13 1_555 1_555
H9 C14 1_555 1_555
C15 C14 1_555 1_555
H10 C15 1_555 1_555
C16 C15 1_555 1_555
H11 C16 1_555 1_555
C17 C12 1_555 1_555
C18 C17 1_555 1_555
C19 C18 1_555 1_555
H12 C19 1_555 1_555
C20 C19 1_555 1_555
H13 C20 1_555 1_555
C21 C20 1_555 1_555
H14 C21 1_555 1_555
C22 C21 1_555 1_555
H15 C22 1_555 1_555
C23 C18 1_555 1_555
C24 O3 1_555 1_555
H16 C24 1_555 1_555
H17 C24 1_555 1_555
H18 C24 1_555 1_555
C8 C9 1_555 1_555
C9 C10 1_555 1_555
C12 C13 1_555 1_555
C16 C17 1_555 1_555
C22 C23 1_555 1_555

#END
