
#######################################################################
#
#                 Cambridge Crystallographic Data Centre
#                                CCDC 
#
#######################################################################
#
# If this CIF has been generated from an entry in the Cambridge 
# Structural Database, then it will include bibliographic, chemical, 
# crystal, experimental, refinement or atomic coordinate data resulting 
# from the CCDC's data processing and validation procedures.
#
#######################################################################

data_SIXLES
_chemical_formula_moiety         'C21 H15 N3 S1'
_chemical_name_systematic        
6-Methyl-4-(phenyl(2-thienyl)methylene)-4H-[1,2,3]triazolo[1,5-a]indole
_symmetry_cell_setting           monoclinic
_symmetry_space_group_name_H-M   'P 21/n'
_symmetry_Int_Tables_number      14
_space_group_name_Hall           '-P 2yn'
loop_
_symmetry_equiv_pos_site_id
_symmetry_equiv_pos_as_xyz
1 x,y,z
2 1/2-x,1/2+y,1/2-z
3 -x,-y,-z
4 1/2+x,1/2-y,1/2+z
_cell_length_a                   13.9276(5)
_cell_length_b                   7.5579(3)
_cell_length_c                   16.1407(4)
_cell_angle_alpha                90
_cell_angle_beta                 98.140(3)
_cell_angle_gamma                90
_cell_volume                     1681.91
_exptl_crystal_colour            yellow
_exptl_crystal_description       parallelepiped
_cell_formula_units_Z            4
loop_
_atom_site_label
_atom_site_type_symbol
_atom_site_fract_x
_atom_site_fract_y
_atom_site_fract_z
S1 S -0.10784(3) 0.45323(6) 0.22364(2)
N1 N 0.20265(11) 0.3123(2) 0.50639(8)
N2 N 0.21426(12) 0.1623(2) 0.55123(8)
N3 N 0.13527(13) 0.0688(2) 0.52796(9)
C1 C 0.20625(11) 0.5751(2) 0.44220(9)
C2 C 0.24430(12) 0.7413(2) 0.42980(9)
H1 H 0.2096 0.8204 0.3929
C3 C 0.33444(12) 0.7897(3) 0.47259(10)
C4 C 0.38559(13) 0.6715(3) 0.52831(11)
H2 H 0.4463 0.7040 0.5557
C5 C 0.34883(14) 0.5073(3) 0.54413(11)
H3 H 0.3828 0.4296 0.5822
C6 C 0.25958(13) 0.4640(2) 0.50091(10)
C7 C 0.07489(14) 0.1594(2) 0.46945(10)
H4 H 0.0148 0.1201 0.4436
C8 C 0.11696(12) 0.3184(2) 0.45464(9)
C9 C 0.11402(11) 0.4859(2) 0.40833(9)
C10 C 0.04401(11) 0.5424(2) 0.34643(9)
C11 C 0.05964(11) 0.7001(2) 0.29495(8)
C12 C 0.00187(13) 0.8491(2) 0.29632(10)
H5 H -0.0485 0.8495 0.3285
C13 C 0.01861(16) 0.9968(3) 0.25028(12)
H6 H -0.0197 1.0970 0.2522
C14 C 0.09223(17) 0.9961(3) 0.20123(12)
H7 H 0.1039 1.0960 0.1705
C15 C 0.14816(15) 0.8472(3) 0.19796(11)
H8 H 0.1967 0.8459 0.1638
C16 C 0.13317(13) 0.6997(2) 0.24466(9)
H9 H 0.1720 0.6002 0.2426
C17 C -0.04890(11) 0.4534(2) 0.32592(9)
C18 C -0.10259(12) 0.3627(2) 0.37619(9)
H10 H -0.0841 0.3501 0.4335
C19 C -0.18816(13) 0.2902(2) 0.33357(10)
H11 H -0.2318 0.2240 0.3594
C20 C -0.20033(13) 0.3272(2) 0.25062(10)
H12 H -0.2528 0.2886 0.2129
C21 C 0.37514(15) 0.9682(3) 0.45663(13)
H13 H 0.3987 1.0239 0.5090
H14 H 0.3253 1.0401 0.4263
H15 H 0.4275 0.9548 0.4244
loop_
_geom_bond_atom_site_label_1
_geom_bond_atom_site_label_2
_geom_bond_site_symmetry_1
_geom_bond_site_symmetry_2
S1 C17 1_555 1_555
N1 N2 1_555 1_555
N2 N3 1_555 1_555
N3 C7 1_555 1_555
C1 C2 1_555 1_555
C2 H1 1_555 1_555
C3 C2 1_555 1_555
C4 C3 1_555 1_555
H2 C4 1_555 1_555
C5 C4 1_555 1_555
H3 C5 1_555 1_555
C6 N1 1_555 1_555
C7 H4 1_555 1_555
C8 N1 1_555 1_555
C9 C1 1_555 1_555
C10 C9 1_555 1_555
C11 C10 1_555 1_555
C12 C11 1_555 1_555
H5 C12 1_555 1_555
C13 C12 1_555 1_555
H6 C13 1_555 1_555
C14 C13 1_555 1_555
H7 C14 1_555 1_555
C15 C14 1_555 1_555
H8 C15 1_555 1_555
C16 C11 1_555 1_555
H9 C16 1_555 1_555
C17 C10 1_555 1_555
C18 C17 1_555 1_555
H10 C18 1_555 1_555
C19 C18 1_555 1_555
H11 C19 1_555 1_555
C20 S1 1_555 1_555
H12 C20 1_555 1_555
C21 C3 1_555 1_555
H13 C21 1_555 1_555
H14 C21 1_555 1_555
H15 C21 1_555 1_555
C1 C6 1_555 1_555
C5 C6 1_555 1_555
C7 C8 1_555 1_555
C8 C9 1_555 1_555
C15 C16 1_555 1_555
C19 C20 1_555 1_555

#END
