
#######################################################################
#
#                 Cambridge Crystallographic Data Centre
#                                CCDC 
#
#######################################################################
#
# If this CIF has been generated from an entry in the Cambridge 
# Structural Database, then it will include bibliographic, chemical, 
# crystal, experimental, refinement or atomic coordinate data resulting 
# from the CCDC's data processing and validation procedures.
#
#######################################################################

data_SIXLET
_chemical_formula_moiety         'C28 H27 N1 O3 S1'
_chemical_name_systematic        
N,4-dimethyl-N-[(3-methyl-2'-oxo-2,3-dihydro-2'H-spiro[indene-1,1'-naphthalen]-3-yl)methyl]benzene-1-sulfonamide
_symmetry_cell_setting           monoclinic
_symmetry_space_group_name_H-M   'P 21/c'
_symmetry_Int_Tables_number      14
_space_group_name_Hall           '-P 2ybc'
loop_
_symmetry_equiv_pos_site_id
_symmetry_equiv_pos_as_xyz
1 x,y,z
2 -x,1/2+y,1/2-z
3 -x,-y,-z
4 x,1/2-y,1/2+z
_cell_length_a                   8.1984(14)
_cell_length_b                   10.9568(19)
_cell_length_c                   27.382(5)
_cell_angle_alpha                90
_cell_angle_beta                 97.695(3)
_cell_angle_gamma                90
_cell_volume                     2437.53
_exptl_crystal_colour            colorless
_exptl_crystal_description       block
_cell_formula_units_Z            4
loop_
_atom_site_label
_atom_site_type_symbol
_atom_site_fract_x
_atom_site_fract_y
_atom_site_fract_z
S1 S 0.08640(11) 0.16939(8) 0.07788(3)
N1 N 0.2617(3) 0.0984(2) 0.09529(8)
O1 O -0.0259(3) 0.07897(19) 0.05468(8)
O2 O 0.0487(3) 0.2339(2) 0.12005(8)
O3 O 0.3691(4) -0.4128(2) 0.12394(10)
C1 C 0.2759(5) 0.5289(3) -0.07234(13)
H1 H 0.263115 0.491588 -0.104347
H2 H 0.210002 0.601506 -0.073387
H3 H 0.389469 0.549649 -0.062779
C2 C 0.2210(4) 0.4405(3) -0.03531(12)
C3 C 0.2266(4) 0.4711(3) 0.01348(13)
H4 H 0.262218 0.548690 0.023712
C4 C 0.1811(4) 0.3906(3) 0.04766(12)
H5 H 0.186757 0.413890 0.080500
C5 C 0.1275(3) 0.2760(3) 0.03338(10)
C6 C 0.1187(4) 0.2425(3) -0.01584(10)
H6 H 0.082321 0.165015 -0.026016
C7 C 0.1640(4) 0.3248(3) -0.04927(10)
H7 H 0.156393 0.302364 -0.082253
C8 C 0.3930(4) 0.1751(3) 0.12167(13)
H8 H 0.346364 0.229348 0.143596
H9 H 0.473668 0.123903 0.140290
H10 H 0.444308 0.221818 0.098287
C9 C 0.3159(4) 0.0106(3) 0.06029(10)
H11 H 0.405645 0.046782 0.045583
H12 H 0.225724 -0.002793 0.034063
C10 C 0.3731(3) -0.1142(2) 0.08203(9)
C11 C 0.4010(4) -0.1937(3) 0.03779(10)
H13 H 0.302297 -0.195617 0.014571
H14 H 0.489252 -0.160217 0.022257
H15 H 0.428929 -0.275174 0.048847
C12 C 0.2450(3) -0.1725(3) 0.11219(9)
H16 H 0.189170 -0.239563 0.093808
H17 H 0.163255 -0.112275 0.118170
C13 C 0.3364(3) -0.2200(3) 0.16216(9)
C14 C 0.5117(3) -0.1724(2) 0.16116(10)
C15 C 0.6438(4) -0.1890(3) 0.19738(11)
H18 H 0.631405 -0.231770 0.226000
C16 C 0.7967(4) -0.1404(3) 0.19029(13)
H19 H 0.887858 -0.151520 0.213993
C17 C 0.8109(4) -0.0763(3) 0.14807(13)
H20 H 0.911943 -0.042109 0.143927
C18 C 0.6798(4) -0.0612(3) 0.11174(12)
H21 H 0.692096 -0.018242 0.083172
C19 C 0.5277(3) -0.1113(2) 0.11834(10)
C20 C 0.3484(4) -0.3606(3) 0.16146(14)
C21 C 0.3392(5) -0.4256(4) 0.20704(18)
H22 H 0.365872 -0.508110 0.209192
C22 C 0.2926(6) -0.3680(5) 0.24639(18)
H23 H 0.287404 -0.413806 0.274739
C23 C 0.2512(4) -0.2435(5) 0.24763(13)
C24 C 0.1917(5) -0.1950(6) 0.28904(14)
H24 H 0.179470 -0.245181 0.315698
C25 C 0.1521(6) -0.0757(6) 0.29050(17)
H25 H 0.110411 -0.044571 0.317905
C26 C 0.1728(5) 0.0007(5) 0.25163(16)
H26 H 0.147174 0.083199 0.253046
C27 C 0.2325(4) -0.0472(4) 0.21024(12)
H27 H 0.248061 0.004302 0.184254
C28 C 0.2690(3) -0.1706(3) 0.20726(10)
loop_
_geom_bond_atom_site_label_1
_geom_bond_atom_site_label_2
_geom_bond_site_symmetry_1
_geom_bond_site_symmetry_2
S1 N1 1_555 1_555
N1 C8 1_555 1_555
O1 S1 1_555 1_555
O2 S1 1_555 1_555
O3 C20 1_555 1_555
C1 H1 1_555 1_555
H2 C1 1_555 1_555
H3 C1 1_555 1_555
C2 C1 1_555 1_555
C3 C2 1_555 1_555
H4 C3 1_555 1_555
C4 C3 1_555 1_555
H5 C4 1_555 1_555
C5 S1 1_555 1_555
C6 C5 1_555 1_555
H6 C6 1_555 1_555
C7 C2 1_555 1_555
H7 C7 1_555 1_555
C8 H8 1_555 1_555
H9 C8 1_555 1_555
H10 C8 1_555 1_555
C9 N1 1_555 1_555
H11 C9 1_555 1_555
H12 C9 1_555 1_555
C10 C9 1_555 1_555
C11 C10 1_555 1_555
H13 C11 1_555 1_555
H14 C11 1_555 1_555
H15 C11 1_555 1_555
C12 C10 1_555 1_555
H16 C12 1_555 1_555
H17 C12 1_555 1_555
C13 C12 1_555 1_555
C14 C13 1_555 1_555
C15 C14 1_555 1_555
H18 C15 1_555 1_555
C16 C15 1_555 1_555
H19 C16 1_555 1_555
C17 C16 1_555 1_555
H20 C17 1_555 1_555
C18 C17 1_555 1_555
H21 C18 1_555 1_555
C19 C10 1_555 1_555
C20 C13 1_555 1_555
C21 C20 1_555 1_555
H22 C21 1_555 1_555
C22 C21 1_555 1_555
H23 C22 1_555 1_555
C23 C22 1_555 1_555
C24 C23 1_555 1_555
H24 C24 1_555 1_555
C25 C24 1_555 1_555
H25 C25 1_555 1_555
C26 C25 1_555 1_555
H26 C26 1_555 1_555
C27 C26 1_555 1_555
H27 C27 1_555 1_555
C28 C13 1_555 1_555
C4 C5 1_555 1_555
C6 C7 1_555 1_555
C14 C19 1_555 1_555
C18 C19 1_555 1_555
C23 C28 1_555 1_555
C27 C28 1_555 1_555

#END
