
#######################################################################
#
#                 Cambridge Crystallographic Data Centre
#                                CCDC 
#
#######################################################################
#
# If this CIF has been generated from an entry in the Cambridge 
# Structural Database, then it will include bibliographic, chemical, 
# crystal, experimental, refinement or atomic coordinate data resulting 
# from the CCDC's data processing and validation procedures.
#
#######################################################################

data_SIXQOH
_chemical_name_common            
cis-2,5-bis(2-Methylbutoxy)-1,4-bis(2-(pyridin-2-yl)ethenyl)benzene
_chemical_formula_moiety         'C30 H36 N2 O2'
_chemical_name_systematic        
cis-2,2'-((2,5-bis(2-Methylbutoxy)-1,4-phenylene)diethene-2,1-diyl)dipyridine
_symmetry_cell_setting           monoclinic
_symmetry_space_group_name_H-M   'P 21'
_symmetry_Int_Tables_number      4
_space_group_name_Hall           'P 2yb'
loop_
_symmetry_equiv_pos_site_id
_symmetry_equiv_pos_as_xyz
1 x,y,z
2 -x,1/2+y,-z
_cell_length_a                   9.2930(15)
_cell_length_b                   14.162(2)
_cell_length_c                   10.4495(18)
_cell_angle_alpha                90
_cell_angle_beta                 104.566(2)
_cell_angle_gamma                90
_cell_volume                     1331.03
_cell_formula_units_Z            2
loop_
_atom_site_label
_atom_site_type_symbol
_atom_site_fract_x
_atom_site_fract_y
_atom_site_fract_z
C1 C 0.6117(3) 1.0384(3) 0.8629(3)
C2 C 0.5105(4) 1.0798(3) 0.7595(4)
H1 H 0.4714 1.0454 0.6829
C3 C 0.4664(5) 1.1719(3) 0.7683(4)
H2 H 0.3981 1.2005 0.6986
C4 C 0.5273(5) 1.2208(4) 0.8844(5)
H3 H 0.5005 1.2830 0.8955
C5 C 0.6273(5) 1.1745(4) 0.9811(4)
H4 H 0.6677 1.2077 1.0586
C6 C 0.6627(4) 0.9418(4) 0.8603(4)
H5 H 0.7648 0.9330 0.8906
C7 C 0.5845(4) 0.8650(3) 0.8210(4)
H6 H 0.6393 0.8103 0.8189
C8 C 0.4214(3) 0.8538(3) 0.7797(3)
C9 C 0.3581(4) 0.7819(3) 0.6914(3)
C10 C 0.2042(4) 0.7703(2) 0.6555(3)
H7 H 0.1635 0.7220 0.5973
C11 C 0.1095(3) 0.8287(2) 0.7037(3)
C12 C 0.1741(3) 0.9019(2) 0.7895(3)
C13 C 0.3267(3) 0.9108(2) 0.8283(3)
H8 H 0.3676 0.9571 0.8898
C14 C -0.0528(4) 0.8228(3) 0.6585(4)
H9 H -0.1030 0.8801 0.6517
C15 C -0.1387(4) 0.7463(3) 0.6255(4)
H10 H -0.2394 0.7592 0.5929
C16 C -0.1013(4) 0.6462(3) 0.6319(3)
C17 C 0.0045(4) 0.6063(3) 0.7372(4)
H11 H 0.0551 0.6438 0.8071
C18 C 0.0330(6) 0.5118(4) 0.7364(5)
H12 H 0.1046 0.4838 0.8042
C19 C -0.0470(6) 0.4595(4) 0.6328(5)
H13 H -0.0307 0.3949 0.6301
C20 C -0.1508(5) 0.5017(4) 0.5330(4)
H14 H -0.2033 0.4646 0.4634
C21 C 0.4151(7) 0.6415(4) 0.5849(5)
H15 H 0.4828 0.6237 0.5319
H16 H 0.3161 0.6459 0.5265
C22 C 0.4164(6) 0.5684(4) 0.6837(5)
C23 C 0.3690(9) 0.4702(6) 0.6187(8)
H17 H 0.3437 0.4301 0.6850
H18 H 0.2788 0.4793 0.5492
C24 C 0.4675(12) 0.4219(8) 0.5655(10)
H19 H 0.4724 0.4509 0.4838
H20 H 0.4350 0.3576 0.5494
H21 H 0.5641 0.4231 0.6262
C25 C 0.5610(6) 0.5574(6) 0.7862(5)
H22 H 0.6380 0.5410 0.7439
H23 H 0.5516 0.5084 0.8471
H24 H 0.5859 0.6158 0.8333
C26 C 0.1360(4) 1.0523(3) 0.8768(4)
H25 H 0.2035 1.0740 0.8257
H26 H 0.1918 1.0471 0.9683
C27 C 0.0149(4) 1.1230(3) 0.8666(3)
C28 C 0.0796(5) 1.2135(3) 0.9316(5)
H27 H 0.1366 1.1991 1.0207
H28 H 0.1483 1.2383 0.8838
C29 C -0.0305(5) 1.2894(4) 0.9393(6)
H29 H -0.0801 1.3097 0.8516
H30 H 0.0205 1.3421 0.9884
H31 H -0.1024 1.2652 0.9826
C30 C -0.0766(6) 1.1332(4) 0.7257(5)
H32 H -0.1670 1.1664 0.7248
H33 H -0.1000 1.0718 0.6873
H34 H -0.0210 1.1680 0.6755
H35 H 0.321(4) 0.588(4) 0.702(5)
H36 H -0.035(6) 1.116(5) 0.918(6)
N1 N 0.6717(3) 1.0874(3) 0.9748(3)
N2 N -0.1799(3) 0.5940(3) 0.5315(3)
O1 O 0.0794(2) 0.96124(18) 0.8297(3)
O2 O 0.4565(3) 0.7296(3) 0.6418(3)
loop_
_geom_bond_atom_site_label_1
_geom_bond_atom_site_label_2
_geom_bond_site_symmetry_1
_geom_bond_site_symmetry_2
C1 C2 1_555 1_555
C2 H1 1_555 1_555
C3 C2 1_555 1_555
H2 C3 1_555 1_555
C4 C3 1_555 1_555
H3 C4 1_555 1_555
C5 C4 1_555 1_555
H4 C5 1_555 1_555
C6 C1 1_555 1_555
H5 C6 1_555 1_555
C7 C6 1_555 1_555
H6 C7 1_555 1_555
C8 C7 1_555 1_555
C9 C8 1_555 1_555
C10 C9 1_555 1_555
H7 C10 1_555 1_555
C11 C10 1_555 1_555
C12 C11 1_555 1_555
C13 C8 1_555 1_555
H8 C13 1_555 1_555
C14 C11 1_555 1_555
H9 C14 1_555 1_555
C15 C14 1_555 1_555
H10 C15 1_555 1_555
C16 C15 1_555 1_555
C17 C16 1_555 1_555
H11 C17 1_555 1_555
C18 C17 1_555 1_555
H12 C18 1_555 1_555
C19 C18 1_555 1_555
H13 C19 1_555 1_555
C20 C19 1_555 1_555
H14 C20 1_555 1_555
C21 H15 1_555 1_555
H16 C21 1_555 1_555
C22 C21 1_555 1_555
C23 C22 1_555 1_555
H17 C23 1_555 1_555
H18 C23 1_555 1_555
C24 C23 1_555 1_555
H19 C24 1_555 1_555
H20 C24 1_555 1_555
H21 C24 1_555 1_555
C25 C22 1_555 1_555
H22 C25 1_555 1_555
H23 C25 1_555 1_555
H24 C25 1_555 1_555
C26 H25 1_555 1_555
H26 C26 1_555 1_555
C27 C26 1_555 1_555
C28 C27 1_555 1_555
H27 C28 1_555 1_555
H28 C28 1_555 1_555
C29 C28 1_555 1_555
H29 C29 1_555 1_555
H30 C29 1_555 1_555
H31 C29 1_555 1_555
C30 C27 1_555 1_555
H32 C30 1_555 1_555
H33 C30 1_555 1_555
H34 C30 1_555 1_555
H35 C22 1_555 1_555
H36 C27 1_555 1_555
N1 C1 1_555 1_555
N2 C16 1_555 1_555
O1 C12 1_555 1_555
O2 C9 1_555 1_555
C5 N1 1_555 1_555
C12 C13 1_555 1_555
C20 N2 1_555 1_555
C21 O2 1_555 1_555
C26 O1 1_555 1_555

#END
