
#######################################################################
#
#                 Cambridge Crystallographic Data Centre
#                                CCDC 
#
#######################################################################
#
# If this CIF has been generated from an entry in the Cambridge 
# Structural Database, then it will include bibliographic, chemical, 
# crystal, experimental, refinement or atomic coordinate data resulting 
# from the CCDC's data processing and validation procedures.
#
#######################################################################

data_SIXQUN
_chemical_name_common            
cis-2,5-Dibutoxy-1,4-bis(2-(pyridin-2-yl)ethenyl)benzene
_chemical_formula_moiety         'C28 H32 N2 O2'
_chemical_name_systematic        
cis-2,2'-((2,5-Dibutoxy-1,4-phenylene)diethene-2,1-diyl)dipyridine
_symmetry_cell_setting           monoclinic
_symmetry_space_group_name_H-M   'P 21/c'
_symmetry_Int_Tables_number      14
_space_group_name_Hall           '-P 2ybc'
loop_
_symmetry_equiv_pos_site_id
_symmetry_equiv_pos_as_xyz
1 x,y,z
2 -x,1/2+y,1/2-z
3 -x,-y,-z
4 x,1/2-y,1/2+z
_cell_length_a                   9.0577(16)
_cell_length_b                   8.8169(15)
_cell_length_c                   16.292(3)
_cell_angle_alpha                90
_cell_angle_beta                 113.972(8)
_cell_angle_gamma                90
_cell_volume                     1188.87
_cell_formula_units_Z            2
loop_
_atom_site_label
_atom_site_type_symbol
_atom_site_fract_x
_atom_site_fract_y
_atom_site_fract_z
O1 O 0.71198(12) 0.34411(14) 0.92013(7)
N1 N 0.79694(17) 0.67393(18) 1.26984(10)
C1 C 0.83124(18) 0.58228(18) 1.21420(11)
C2 C 0.9624(2) 0.4852(2) 1.24509(11)
H1 H 0.9824 0.4212 1.2053
C3 C 1.0635(2) 0.4838(2) 1.33520(13)
H2 H 1.1518 0.4187 1.3570
C4 C 1.0314(3) 0.5803(3) 1.39218(13)
H3 H 1.0987 0.5837 1.4530
C5 C 0.8979(3) 0.6710(3) 1.35708(13)
H4 H 0.8757 0.7348 1.3961
C6 C 0.71290(19) 0.58706(19) 1.12035(11)
H5 H 0.6101 0.6179 1.1130
C7 C 0.72690(18) 0.55502(19) 1.04390(10)
H6 H 0.6294 0.5523 0.9936
C8 C 0.87001(17) 0.52310(17) 1.02515(9)
C9 C 0.85617(16) 0.42196(17) 0.95625(9)
C10 C 0.98394(17) 0.39976(17) 0.93194(9)
H7 H 0.9725 0.3320 0.8860
C11 C 0.66846(19) 0.26690(19) 0.83590(10)
H8 H 0.5813 0.1965 0.8277
H9 H 0.7604 0.2085 0.8375
C12 C 0.6162(2) 0.3733(2) 0.75755(11)
H10 H 0.7051 0.4404 0.7639
H11 H 0.5275 0.4352 0.7573
C13 C 0.5634(3) 0.2895(2) 0.66945(12)
H12 H 0.6558 0.2366 0.6675
H13 H 0.4838 0.2139 0.6668
C14 C 0.4927(3) 0.3894(3) 0.58863(14)
H14 H 0.3910 0.4290 0.5843
H15 H 0.4763 0.3316 0.5357
H16 H 0.5653 0.4718 0.5940
O1B O 1.28802(12) 0.65589(14) 1.07987(7)
N1B N 1.20306(17) 0.32607(18) 0.73016(10)
C1B C 1.16876(18) 0.41772(18) 0.78580(11)
C2B C 1.0376(2) 0.5148(2) 0.75491(11)
H1B H 1.0176 0.5788 0.7947
C3B C 0.9365(2) 0.5162(2) 0.66480(13)
H2B H 0.8482 0.5813 0.6430
C4B C 0.9686(3) 0.4197(3) 0.60782(13)
H3B H 0.9013 0.4163 0.5470
C5B C 1.1021(3) 0.3290(3) 0.64292(13)
H4B H 1.1243 0.2652 0.6039
C6B C 1.28710(19) 0.41294(19) 0.87965(11)
H5B H 1.3899 0.3821 0.8870
C7B C 1.27310(18) 0.44498(19) 0.95610(10)
H6B H 1.3706 0.4477 1.0064
C8B C 1.12999(17) 0.47690(17) 0.97485(9)
C9B C 1.14383(16) 0.57804(17) 1.04375(9)
C10B C 1.01606(17) 0.60024(17) 1.06806(9)
H7B H 1.0275 0.6680 1.1140
C11B C 1.33154(19) 0.73310(19) 1.16410(10)
H8B H 1.4187 0.8035 1.1723
H9B H 1.2396 0.7915 1.1625
C12B C 1.3838(2) 0.6267(2) 1.24245(11)
H10B H 1.2949 0.5596 1.2361
H11B H 1.4725 0.5648 1.2427
C13B C 1.4366(3) 0.7105(2) 1.33055(12)
H12B H 1.3442 0.7634 1.3325
H13B H 1.5162 0.7861 1.3332
C14B C 1.5073(3) 0.6106(3) 1.41137(14)
H14B H 1.6090 0.5710 1.4157
H15B H 1.5237 0.6684 1.4643
H16B H 1.4347 0.5282 1.4060
loop_
_geom_bond_atom_site_label_1
_geom_bond_atom_site_label_2
_geom_bond_site_symmetry_1
_geom_bond_site_symmetry_2
O1 C9 1_555 1_555
N1 C1 1_555 1_555
C1 C2 1_555 1_555
C2 H1 1_555 1_555
C3 C2 1_555 1_555
H2 C3 1_555 1_555
C4 C3 1_555 1_555
H3 C4 1_555 1_555
C5 N1 1_555 1_555
H4 C5 1_555 1_555
C6 C1 1_555 1_555
H5 C6 1_555 1_555
C7 C6 1_555 1_555
H6 C7 1_555 1_555
C8 C7 1_555 1_555
C9 C8 1_555 1_555
C10 C9 1_555 1_555
H7 C10 1_555 1_555
C11 O1 1_555 1_555
H8 C11 1_555 1_555
H9 C11 1_555 1_555
C12 C11 1_555 1_555
H10 C12 1_555 1_555
H11 C12 1_555 1_555
C13 C12 1_555 1_555
H12 C13 1_555 1_555
H13 C13 1_555 1_555
C14 C13 1_555 1_555
H14 C14 1_555 1_555
H15 C14 1_555 1_555
H16 C14 1_555 1_555
O1B C9B 1_555 1_555
N1B C1B 1_555 1_555
C1B C2B 1_555 1_555
C2B H1B 1_555 1_555
C3B C2B 1_555 1_555
H2B C3B 1_555 1_555
C4B C3B 1_555 1_555
H3B C4B 1_555 1_555
C5B N1B 1_555 1_555
H4B C5B 1_555 1_555
C6B C1B 1_555 1_555
H5B C6B 1_555 1_555
C7B C6B 1_555 1_555
H6B C7B 1_555 1_555
C8B C10 1_555 1_555
C9B C8B 1_555 1_555
C10B C8 1_555 1_555
H7B C10B 1_555 1_555
C11B O1B 1_555 1_555
H8B C11B 1_555 1_555
H9B C11B 1_555 1_555
C12B C11B 1_555 1_555
H10B C12B 1_555 1_555
H11B C12B 1_555 1_555
C13B C12B 1_555 1_555
H12B C13B 1_555 1_555
H13B C13B 1_555 1_555
C14B C13B 1_555 1_555
H14B C14B 1_555 1_555
H15B C14B 1_555 1_555
H16B C14B 1_555 1_555
C4 C5 1_555 1_555
C4B C5B 1_555 1_555
C7B C8B 1_555 1_555
C9B C10B 1_555 1_555

#END
