
#######################################################################
#
#                 Cambridge Crystallographic Data Centre
#                                CCDC 
#
#######################################################################
#
# If this CIF has been generated from an entry in the Cambridge 
# Structural Database, then it will include bibliographic, chemical, 
# crystal, experimental, refinement or atomic coordinate data resulting 
# from the CCDC's data processing and validation procedures.
#
#######################################################################

data_SIXQIB
_chemical_name_common            
trans-2,5-bis(2-Methylbutoxy)-1,4-bis(2-(pyridin-2-yl)ethenyl)benzene
_chemical_formula_moiety         'C30 H36 N2 O2'
_chemical_name_systematic        
trans-2,2'-((2,5-bis(2-Methylbutoxy)-1,4-phenylene)diethene-2,1-diyl)dipyridine
_symmetry_cell_setting           monoclinic
_symmetry_space_group_name_H-M   'P 21/c'
_symmetry_Int_Tables_number      14
_space_group_name_Hall           '-P 2ybc'
loop_
_symmetry_equiv_pos_site_id
_symmetry_equiv_pos_as_xyz
1 x,y,z
2 -x,1/2+y,1/2-z
3 -x,-y,-z
4 x,1/2-y,1/2+z
_cell_length_a                   9.735(7)
_cell_length_b                   13.866(10)
_cell_length_c                   10.782(8)
_cell_angle_alpha                90
_cell_angle_beta                 113.771(9)
_cell_angle_gamma                90
_cell_volume                     1331.94
_cell_formula_units_Z            2
loop_
_atom_site_label
_atom_site_type_symbol
_atom_site_fract_x
_atom_site_fract_y
_atom_site_fract_z
C1 C 0.1333(5) 0.2839(3) 0.2640(4)
C2 C 0.0441(6) 0.3385(4) 0.3078(5)
H1 H 0.0557 0.3347 0.3976
C3 C -0.0626(8) 0.3990(5) 0.2191(6)
H2 H -0.1265 0.4342 0.2468
C4 C -0.0723(7) 0.4060(4) 0.0892(6)
H3 H -0.1426 0.4462 0.0263
C5 C 0.0244(7) 0.3522(4) 0.0547(5)
H4 H 0.0193 0.3586 -0.0329
C6 C 0.2359(5) 0.2129(3) 0.3551(4)
H5 H 0.2540 0.2175 0.4464
C7 C 0.3055(5) 0.1430(3) 0.3203(4)
H6 H 0.2911 0.1398 0.2297
C8 C 0.4037(4) 0.0696(3) 0.4121(4)
C9 C 0.4510(5) -0.0103(3) 0.3605(4)
C10 C 0.5449(5) -0.0778(3) 0.4472(4)
H7 H 0.5750 -0.1305 0.4110
C11 C 0.4352(7) -0.0960(4) 0.1613(4)
H8 H 0.4117 -0.1561 0.1945
H9 H 0.5422 -0.0944 0.1839
C12 C 0.3492(7) -0.0893(4) 0.0100(5)
C13 C 0.4141(11) -0.1598(6) -0.0605(7)
H10 H 0.4029 -0.2256 -0.0357
H11 H 0.5199 -0.1470 -0.0356
C14 C 0.324(2) -0.1438(11) -0.2147(12)
H12 H 0.2864 -0.2046 -0.2578
H13 H 0.3876 -0.1156 -0.2531
H14 H 0.2407 -0.1014 -0.2286
C15 C 0.1800(10) -0.0998(7) -0.0273(7)
H15 H 0.1261 -0.0920 -0.1233
H16 H 0.1483 -0.0514 0.0192
H17 H 0.1599 -0.1626 -0.0009
H18 H 0.373(11) -0.031(4) -0.027(8)
N1 N 0.1250(5) 0.2913(3) 0.1370(4)
O1 O 0.3937(4) -0.0166(2) 0.2219(3)
C1B C 0.8667(5) -0.2839(3) 0.7360(4)
C2B C 0.9559(6) -0.3385(4) 0.6922(5)
H1B H 0.9443 -0.3347 0.6024
C3B C 1.0626(8) -0.3990(5) 0.7809(6)
H2B H 1.1265 -0.4342 0.7532
C4B C 1.0723(7) -0.4060(4) 0.9108(6)
H3B H 1.1426 -0.4462 0.9737
C5B C 0.9756(7) -0.3522(4) 0.9453(5)
H4B H 0.9807 -0.3586 1.0329
C6B C 0.7641(5) -0.2129(3) 0.6449(4)
H5B H 0.7460 -0.2175 0.5536
C7B C 0.6945(5) -0.1430(3) 0.6797(4)
H6B H 0.7089 -0.1398 0.7703
C8B C 0.5963(4) -0.0696(3) 0.5879(4)
C9B C 0.5490(5) 0.0103(3) 0.6395(4)
C10B C 0.4551(5) 0.0778(3) 0.5528(4)
H7B H 0.4250 0.1305 0.5890
C11B C 0.5648(7) 0.0960(4) 0.8387(4)
H8B H 0.5883 0.1561 0.8055
H9B H 0.4578 0.0944 0.8161
C12B C 0.6508(7) 0.0893(4) 0.9900(5)
C13B C 0.5859(11) 0.1598(6) 1.0605(7)
H10B H 0.5971 0.2256 1.0357
H11B H 0.4801 0.1470 1.0356
C14B C 0.676(2) 0.1438(11) 1.2147(12)
H12B H 0.7136 0.2046 1.2578
H13B H 0.6124 0.1156 1.2531
H14B H 0.7593 0.1014 1.2286
C15B C 0.8200(10) 0.0998(7) 1.0273(7)
H15B H 0.8739 0.0920 1.1233
H16B H 0.8517 0.0514 0.9808
H17B H 0.8401 0.1626 1.0009
H18B H 0.627(11) 0.031(4) 1.027(8)
N1B N 0.8750(5) -0.2913(3) 0.8630(4)
O1B O 0.6063(4) 0.0166(2) 0.7781(3)
loop_
_geom_bond_atom_site_label_1
_geom_bond_atom_site_label_2
_geom_bond_site_symmetry_1
_geom_bond_site_symmetry_2
C1 C2 1_555 1_555
C2 H1 1_555 1_555
C3 C2 1_555 1_555
H2 C3 1_555 1_555
C4 C3 1_555 1_555
H3 C4 1_555 1_555
C5 C4 1_555 1_555
H4 C5 1_555 1_555
C6 C1 1_555 1_555
H5 C6 1_555 1_555
C7 C6 1_555 1_555
H6 C7 1_555 1_555
C8 C7 1_555 1_555
C9 C8 1_555 1_555
C10 C9 1_555 1_555
H7 C10 1_555 1_555
C11 H8 1_555 1_555
H9 C11 1_555 1_555
C12 C11 1_555 1_555
C13 C12 1_555 1_555
H10 C13 1_555 1_555
H11 C13 1_555 1_555
C14 C13 1_555 1_555
H12 C14 1_555 1_555
H13 C14 1_555 1_555
H14 C14 1_555 1_555
C15 C12 1_555 1_555
H15 C15 1_555 1_555
H16 C15 1_555 1_555
H17 C15 1_555 1_555
H18 C12 1_555 1_555
N1 C1 1_555 1_555
O1 C9 1_555 1_555
C1B C2B 1_555 1_555
C2B H1B 1_555 1_555
C3B C2B 1_555 1_555
H2B C3B 1_555 1_555
C4B C3B 1_555 1_555
H3B C4B 1_555 1_555
C5B C4B 1_555 1_555
H4B C5B 1_555 1_555
C6B C1B 1_555 1_555
H5B C6B 1_555 1_555
C7B C6B 1_555 1_555
H6B C7B 1_555 1_555
C8B C10 1_555 1_555
C9B C8B 1_555 1_555
C10B C8 1_555 1_555
H7B C10B 1_555 1_555
C11B H8B 1_555 1_555
H9B C11B 1_555 1_555
C12B C11B 1_555 1_555
C13B C12B 1_555 1_555
H10B C13B 1_555 1_555
H11B C13B 1_555 1_555
C14B C13B 1_555 1_555
H12B C14B 1_555 1_555
H13B C14B 1_555 1_555
H14B C14B 1_555 1_555
C15B C12B 1_555 1_555
H15B C15B 1_555 1_555
H16B C15B 1_555 1_555
H17B C15B 1_555 1_555
H18B C12B 1_555 1_555
N1B C1B 1_555 1_555
O1B C9B 1_555 1_555
C5 N1 1_555 1_555
C11 O1 1_555 1_555
C5B N1B 1_555 1_555
C7B C8B 1_555 1_555
C9B C10B 1_555 1_555
C11B O1B 1_555 1_555

#END
