
#######################################################################
#
#                 Cambridge Crystallographic Data Centre
#                                CCDC 
#
#######################################################################
#
# If this CIF has been generated from an entry in the Cambridge 
# Structural Database, then it will include bibliographic, chemical, 
# crystal, experimental, refinement or atomic coordinate data resulting 
# from the CCDC's data processing and validation procedures.
#
#######################################################################

data_SIXVIE
_chemical_formula_moiety         'C19 H23 Cl1 N3 O3 P1 S1'
_chemical_name_systematic        
2-Diethylamino-1-p-tosyl-3-p-chlorophenyl-1,3,2-diazaphospholidin-4-one
_symmetry_cell_setting           monoclinic
_symmetry_space_group_name_H-M   'P 21/c'
_symmetry_Int_Tables_number      14
_space_group_name_Hall           '-P 2ybc'
loop_
_symmetry_equiv_pos_site_id
_symmetry_equiv_pos_as_xyz
1 x,y,z
2 -x,1/2+y,1/2-z
3 -x,-y,-z
4 x,1/2-y,1/2+z
_cell_length_a                   8.120
_cell_length_b                   11.165(2)
_cell_length_c                   23.61(6)
_cell_angle_alpha                90
_cell_angle_beta                 96.28(2)
_cell_angle_gamma                90
_cell_volume                     2127.63
_exptl_crystal_colour            colorless
_chemical_melting_point          138-140deg.C
_cell_formula_units_Z            4
loop_
_atom_site_label
_atom_site_type_symbol
_atom_site_fract_x
_atom_site_fract_y
_atom_site_fract_z
Cl1 Cl 0.2623(4) 0.1122(3) 0.0108(1)
S1 S 0.4999(2) -0.6453(2) 0.2020(1)
P1 P 0.3494(3) -0.4221(2) 0.1543(1)
O1 O 0.6328(7) -0.4204(6) 0.0332(2)
O2 O 0.3712(6) -0.6278(6) 0.2375(2)
O3 O 0.5319(7) -0.7618(5) 0.1801(3)
N1 N 0.4564(7) -0.5570(6) 0.1474(2)
N2 N 0.4533(7) -0.3698(6) 0.0980(2)
C1 C 0.6851(9) -0.5915(7) 0.2384(3)
C2 C 0.682(1) -0.4860(8) 0.2695(4)
C3 C 0.831(1) -0.4435(8) 0.2997(4)
C4 C 0.976(1) -0.5072(8) 0.2971(4)
C5 C 0.979(1) -0.6120(8) 0.2645(4)
C6 C 0.834(1) -0.6542(8) 0.2346(3)
N3 N 0.1590(7) -0.4495(6) 0.1251(5)
C7 C 0.559(1) -0.5675(8) 0.1003(3)
C8 C 0.5525(9) -0.4458(8) 0.0730(3)
C9 C 0.4115(9) -0.2521(8) 0.0757(3)
C10 C 0.460(1) -0.1535(8) 0.1094(4)
C11 C 0.415(1) -0.0383(9) 0.0888(4)
C12 C 0.319(1) -0.0305(8) 0.0363(4)
C13 C 0.273(1) -0.1298(9) 0.0029(4)
C14 C 0.321(1) -0.2431(9) 0.0232(4)
C15 C 1.134(1) -0.4642(9) 0.3337(4)
C16 C 0.0214(9) -0.3930(8) 0.1504(4)
C17 C -0.050(1) -0.2851(9) 0.1144(4)
C18 C 0.116(1) -0.5234(8) 0.0733(4)
C19 C 0.060(1) -0.6493(9) 0.0883(5)
loop_
_geom_bond_atom_site_label_1
_geom_bond_atom_site_label_2
_geom_bond_site_symmetry_1
_geom_bond_site_symmetry_2
Cl1 C12 1_555 1_555
S1 O2 1_555 1_555
P1 N1 1_555 1_555
O1 C8 1_555 1_555
O3 S1 1_555 1_555
N1 S1 1_555 1_555
N2 P1 1_555 1_555
C1 S1 1_555 1_555
C2 C1 1_555 1_555
C3 C2 1_555 1_555
C4 C3 1_555 1_555
C5 C4 1_555 1_555
C6 C1 1_555 1_555
N3 P1 1_555 1_555
C7 N1 1_555 1_555
C8 N2 1_555 1_555
C9 N2 1_555 1_555
C10 C9 1_555 1_555
C11 C10 1_555 1_555
C12 C11 1_555 1_555
C13 C12 1_555 1_555
C14 C9 1_555 1_555
C15 C4 1_555 1_555
C16 N3 1_555 1_555
C17 C16 1_555 1_555
C18 N3 1_555 1_555
C19 C18 1_555 1_555
C5 C6 1_555 1_555
C7 C8 1_555 1_555
C13 C14 1_555 1_555

#END
