
#######################################################################
#
#                 Cambridge Crystallographic Data Centre
#                                CCDC 
#
#######################################################################
#
# If this CIF has been generated from an entry in the Cambridge 
# Structural Database, then it will include bibliographic, chemical, 
# crystal, experimental, refinement or atomic coordinate data resulting 
# from the CCDC's data processing and validation procedures.
#
#######################################################################

data_SIXWAY
_chemical_formula_moiety         'C24 H31 N1 O1'
_chemical_name_systematic        
((1R,3S)-2,2-Dimethyl-3-((piperidin-1-yl)methyl)cyclopropyl)diphenylmethanol
_symmetry_cell_setting           triclinic
_symmetry_space_group_name_H-M   'P 1'
_symmetry_Int_Tables_number      1
_space_group_name_Hall           'P 1'
loop_
_symmetry_equiv_pos_site_id
_symmetry_equiv_pos_as_xyz
1 x,y,z
_cell_length_a                   6.1917(12)
_cell_length_b                   8.8540(18)
_cell_length_c                   9.7155(19)
_cell_angle_alpha                92.53(3)
_cell_angle_beta                 95.90(3)
_cell_angle_gamma                105.29(3)
_cell_volume                     509.631
_exptl_crystal_colour            colorless
_exptl_crystal_description       block
_chemical_melting_point          '162-163 deg.C'
_cell_formula_units_Z            1
loop_
_atom_site_label
_atom_site_type_symbol
_atom_site_fract_x
_atom_site_fract_y
_atom_site_fract_z
O1 O 0.4687(3) 0.6772(4) 0.0335(2)
H1 H 0.440(8) 0.577(7) -0.026(6)
N1 N 0.4969(5) 0.3950(3) -0.0760(3)
C1 C 0.5792(6) 0.3674(4) 0.0663(3)
H2 H 0.6010 0.2628 0.0659
H3 H 0.4643 0.3707 0.1263
C2 C 0.7983(5) 0.4850(4) 0.1267(3)
H4 H 0.9314 0.4463 0.1193
C3 C 0.8492(5) 0.6648(3) 0.1263(3)
H5 H 1.0096 0.7131 0.1208
C4 C 0.7011(5) 0.7615(3) 0.0558(3)
C5 C 0.7755(5) 0.8116(3) -0.0863(3)
C6 C 0.9621(6) 0.7879(4) -0.1378(3)
H6 H 1.0589 0.7439 -0.0835
C7 C 1.0097(7) 0.8288(5) -0.2714(4)
H7 H 1.1352 0.8093 -0.3058
C8 C 0.8699(8) 0.8986(5) -0.3527(4)
H8 H 0.9022 0.9274 -0.4408
C9 C 0.6843(8) 0.9242(5) -0.3007(4)
H9 H 0.5884 0.9693 -0.3544
C10 C 0.6386(7) 0.8837(4) -0.1698(4)
H10 H 0.5137 0.9044 -0.1356
C11 C 0.7284(5) 0.9070(4) 0.1515(3)
C12 C 0.9359(6) 1.0197(4) 0.1800(4)
H11 H 1.0560 1.0099 0.1333
C13 C 0.9665(8) 1.1459(4) 0.2764(4)
H12 H 1.1060 1.2196 0.2945
C14 C 0.7903(8) 1.1613(4) 0.3447(4)
H13 H 0.8116 1.2444 0.4111
C15 C 0.5818(8) 1.0547(5) 0.3162(4)
H14 H 0.4618 1.0669 0.3617
C16 C 0.5515(6) 0.9274(4) 0.2180(4)
H15 H 0.4102 0.8562 0.1978
C17 C 0.8138(5) 0.5849(4) 0.2603(3)
C18 C 0.6040(6) 0.5716(5) 0.3274(4)
H16 H 0.6123 0.5178 0.4106
H17 H 0.4759 0.5138 0.2647
H18 H 0.5890 0.6747 0.3501
C19 C 1.0232(6) 0.6079(5) 0.3650(4)
H19 H 1.1527 0.6155 0.3165
H20 H 1.0042 0.5201 0.4215
H21 H 1.0445 0.7026 0.4229
C20 C 0.6547(6) 0.3764(4) -0.1725(3)
H22 H 0.6659 0.2691 -0.1757
H23 H 0.8030 0.4452 -0.1402
C21 C 0.5786(7) 0.4154(5) -0.3176(4)
H24 H 0.6822 0.3977 -0.3810
H25 H 0.5798 0.5252 -0.3163
C22 C 0.3416(7) 0.3129(6) -0.3673(4)
H26 H 0.2889 0.3453 -0.4558
H27 H 0.3450 0.2044 -0.3808
C23 C 0.1822(6) 0.3258(5) -0.2641(4)
H28 H 0.0359 0.2530 -0.2937
H29 H 0.1634 0.4312 -0.2598
C24 C 0.2706(6) 0.2897(4) -0.1212(4)
H30 H 0.1682 0.3026 -0.0553
H31 H 0.2776 0.1815 -0.1238
loop_
_geom_bond_atom_site_label_1
_geom_bond_atom_site_label_2
_geom_bond_site_symmetry_1
_geom_bond_site_symmetry_2
O1 H1 1_555 1_555
N1 C1 1_555 1_555
C1 H2 1_555 1_555
H3 C1 1_555 1_555
C2 C1 1_555 1_555
H4 C2 1_555 1_555
C3 C2 1_555 1_555
H5 C3 1_555 1_555
C4 O1 1_555 1_555
C5 C4 1_555 1_555
C6 C5 1_555 1_555
H6 C6 1_555 1_555
C7 C6 1_555 1_555
H7 C7 1_555 1_555
C8 C7 1_555 1_555
H8 C8 1_555 1_555
C9 C8 1_555 1_555
H9 C9 1_555 1_555
C10 C5 1_555 1_555
H10 C10 1_555 1_555
C11 C4 1_555 1_555
C12 C11 1_555 1_555
H11 C12 1_555 1_555
C13 C12 1_555 1_555
H12 C13 1_555 1_555
C14 C13 1_555 1_555
H13 C14 1_555 1_555
C15 C14 1_555 1_555
H14 C15 1_555 1_555
C16 C11 1_555 1_555
H15 C16 1_555 1_555
C17 C2 1_555 1_555
C18 C17 1_555 1_555
H16 C18 1_555 1_555
H17 C18 1_555 1_555
H18 C18 1_555 1_555
C19 C17 1_555 1_555
H19 C19 1_555 1_555
H20 C19 1_555 1_555
H21 C19 1_555 1_555
C20 N1 1_555 1_555
H22 C20 1_555 1_555
H23 C20 1_555 1_555
C21 C20 1_555 1_555
H24 C21 1_555 1_555
H25 C21 1_555 1_555
C22 C21 1_555 1_555
H26 C22 1_555 1_555
H27 C22 1_555 1_555
C23 C22 1_555 1_555
H28 C23 1_555 1_555
H29 C23 1_555 1_555
C24 N1 1_555 1_555
H30 C24 1_555 1_555
H31 C24 1_555 1_555
C3 C4 1_555 1_555
C3 C17 1_555 1_555
C9 C10 1_555 1_555
C15 C16 1_555 1_555
C23 C24 1_555 1_555

#END
