
#######################################################################
#
#                 Cambridge Crystallographic Data Centre
#                                CCDC 
#
#######################################################################
#
# If this CIF has been generated from an entry in the Cambridge 
# Structural Database, then it will include bibliographic, chemical, 
# crystal, experimental, refinement or atomic coordinate data resulting 
# from the CCDC's data processing and validation procedures.
#
#######################################################################

data_SIXYOQ
_chemical_formula_moiety         'C21 H21 Cl1 N2 O6 S1'
_chemical_name_systematic        
'diethyl 8-chloro-1-(2,5-dioxopyrrolidin-1-yl)-1,2-dihydro-3H-pyrrolo[2,1-c][1,4]benzothiazine-3,3-dicarboxylate'
_symmetry_cell_setting           triclinic
_symmetry_space_group_name_H-M   'P -1'
_symmetry_Int_Tables_number      2
_space_group_name_Hall           '-P 1'
loop_
_symmetry_equiv_pos_site_id
_symmetry_equiv_pos_as_xyz
1 x,y,z
2 -x,-y,-z
_cell_length_a                   11.2274(5)
_cell_length_b                   12.9410(5)
_cell_length_c                   15.8025(5)
_cell_angle_alpha                108.240(3)
_cell_angle_beta                 90.836(3)
_cell_angle_gamma                96.092(4)
_cell_volume                     2165.54
_exptl_crystal_colour            colorless
_exptl_crystal_description       block
_cell_formula_units_Z            4
loop_
_atom_site_label
_atom_site_type_symbol
_atom_site_fract_x
_atom_site_fract_y
_atom_site_fract_z
S1 S 0.39364(9) 0.80719(10) 0.13392(7)
Cl1 Cl 0.01674(12) 0.91473(11) -0.11156(8)
O1 O 0.2359(2) 0.6726(2) 0.33483(16)
O2 O 0.0626(2) 0.5657(2) 0.32468(17)
N1 N -0.0626(3) 0.8077(2) 0.19651(18)
O3 O 0.0397(3) 0.8214(2) 0.32657(18)
O4 O -0.2036(3) 0.8159(3) 0.09353(19)
N2 N 0.1206(3) 0.7465(2) 0.12875(18)
O5 O 0.0988(3) 0.4370(3) 0.0696(2)
C1 C 0.1957(3) 0.6865(3) 0.1616(2)
O6 O 0.2321(3) 0.4560(2) 0.1790(2)
C2 C 0.1607(3) 0.8007(3) 0.0676(2)
C3 C -0.0061(3) 0.7162(3) 0.1377(2)
H1 H -0.047140 0.693296 0.078509
C4 C 0.1485(3) 0.6212(3) 0.2923(2)
C5 C -0.0105(3) 0.6170(3) 0.1710(2)
H2 H -0.047399 0.551858 0.125225
H3 H -0.057226 0.628712 0.223634
C6 C 0.1198(3) 0.6034(3) 0.1934(2)
C7 C 0.2833(3) 0.8282(3) 0.0618(2)
C8 C -0.0391(4) 0.8483(3) 0.2874(3)
C9 C 0.3135(3) 0.7019(3) 0.1642(2)
H4 H 0.356141 0.654612 0.183023
C10 C 0.0791(4) 0.8282(3) 0.0135(2)
H5 H -0.002902 0.810593 0.016528
C11 C -0.1634(4) 0.8451(3) 0.1693(3)
C12 C 0.1471(4) 0.4886(3) 0.1398(3)
C13 C 0.1217(4) 0.8820(3) -0.0447(2)
C14 C 0.3208(4) 0.8812(4) 0.0016(2)
H6 H 0.402527 0.897391 -0.003469
C15 C -0.1276(4) 0.9269(3) 0.3275(3)
H7 H -0.086977 0.999746 0.356724
H8 H -0.173947 0.902940 0.370666
C16 C -0.2075(4) 0.9257(3) 0.2490(3)
H9 H -0.290525 0.903542 0.257574
H10 H -0.201633 0.997865 0.241872
C17 C 0.2407(4) 0.9106(4) -0.0510(3)
H11 H 0.267045 0.948752 -0.089522
C18 C 0.0872(4) 0.5633(4) 0.4143(3)
H12 H 0.012268 0.550595 0.441271
H13 H 0.128157 0.633487 0.450327
C19 C 0.1625(5) 0.4757(5) 0.4126(4)
H14 H 0.120399 0.405961 0.379160
H15 H 0.179998 0.476696 0.472508
H16 H 0.236075 0.487692 0.385019
C20 C 0.2574(7) 0.3416(6) 0.1360(7)
C21 C 0.3633(8) 0.3297(7) 0.1325(8)
S2 S 0.88502(10) 0.81981(10) 0.53494(7)
Cl2 Cl 0.49732(12) 0.90198(11) 0.82033(7)
O7 O 0.7391(2) 0.6768(2) 0.25781(16)
O8 O 0.5687(2) 0.5661(2) 0.20789(15)
O9 O 0.5404(3) 0.8203(2) 0.34129(19)
N3 N 0.4339(3) 0.8003(2) 0.45835(17)
N4 N 0.6154(3) 0.7407(2) 0.49984(17)
O10 O 0.2930(3) 0.8087(3) 0.56325(19)
O11 O 0.7421(3) 0.4610(3) 0.3032(3)
C22 C 0.6945(3) 0.6897(3) 0.4373(2)
C23 C 0.6234(3) 0.6042(3) 0.3594(2)
C24 C 0.4897(3) 0.7087(3) 0.4694(2)
H17 H 0.446910 0.682447 0.513664
O12 O 0.6071(3) 0.4383(3) 0.3984(3)
C25 C 0.6521(3) 0.6227(3) 0.2705(2)
C26 C 0.6515(3) 0.7959(3) 0.5896(2)
C27 C 0.4914(3) 0.6131(3) 0.3838(2)
H18 H 0.445638 0.625576 0.336125
H19 H 0.456043 0.545795 0.392653
C28 C 0.8124(3) 0.7132(3) 0.4460(2)
H20 H 0.858649 0.671163 0.403122
C29 C 0.4594(4) 0.8448(3) 0.3909(2)
C30 C 0.5689(3) 0.8176(3) 0.6545(2)
H21 H 0.487971 0.793851 0.639459
C31 C 0.7734(3) 0.8319(3) 0.6138(2)
C32 C 0.6548(4) 0.4912(3) 0.3559(3)
C33 C 0.3343(4) 0.8395(3) 0.5042(3)
C34 C 0.6061(4) 0.8748(3) 0.7418(2)
C35 C 0.8066(4) 0.8865(3) 0.7024(3)
H22 H 0.887473 0.908347 0.718844
C36 C 0.2926(4) 0.9236(3) 0.4677(3)
H23 H 0.300852 0.994984 0.512997
H24 H 0.209158 0.904078 0.446386
C37 C 0.7241(4) 0.9096(4) 0.7672(3)
H25 H 0.747853 0.947822 0.826307
C38 C 0.5939(4) 0.5638(4) 0.1169(3)
H26 H 0.636342 0.633567 0.118013
H27 H 0.519090 0.552604 0.082071
C39 C 0.3721(4) 0.9245(3) 0.3918(3)
H28 H 0.325146 0.902268 0.335694
H29 H 0.413670 0.997156 0.401404
C40 C 0.6674(5) 0.4749(5) 0.0748(3)
H30 H 0.686409 0.476727 0.016228
H31 H 0.623293 0.405488 0.070391
H32 H 0.740216 0.484637 0.110450
C41 C 0.7712(6) 0.3502(4) 0.2929(5)
H33 H 0.733652 0.302156 0.320046
C42 C 0.8656(10) 0.3290(7) 0.2350(9)
H34 H 0.836567 0.319805 0.175348
H35 H 0.896779 0.263355 0.236645
H36 H 0.928046 0.389351 0.253383
H37? H 0.712656 0.291780 0.266910
C43? C 0.8838(13) 0.3264(18) 0.320(2)
H38? H 0.925556 0.290589 0.268577
H39? H 0.870892 0.279304 0.356418
H40? H 0.930921 0.393396 0.354181
H41? H 0.197089 0.283724 0.113524
H42? H 0.444335 0.320504 0.129816
loop_
_geom_bond_atom_site_label_1
_geom_bond_atom_site_label_2
_geom_bond_site_symmetry_1
_geom_bond_site_symmetry_2
S1 C7 1_555 1_555
Cl1 C13 1_555 1_555
O1 C4 1_555 1_555
O2 C4 1_555 1_555
N1 C3 1_555 1_555
O3 C8 1_555 1_555
O4 C11 1_555 1_555
N2 C1 1_555 1_555
O5 C12 1_555 1_555
C1 C6 1_555 1_555
O6 C12 1_555 1_555
C2 N2 1_555 1_555
C3 N2 1_555 1_555
H1 C3 1_555 1_555
C4 C6 1_555 1_555
C5 C3 1_555 1_555
H2 C5 1_555 1_555
H3 C5 1_555 1_555
C6 C5 1_555 1_555
C7 C2 1_555 1_555
C8 N1 1_555 1_555
C9 S1 1_555 1_555
H4 C9 1_555 1_555
C10 C2 1_555 1_555
H5 C10 1_555 1_555
C11 N1 1_555 1_555
C12 C6 1_555 1_555
C13 C10 1_555 1_555
C14 C7 1_555 1_555
H6 C14 1_555 1_555
C15 C8 1_555 1_555
H7 C15 1_555 1_555
H8 C15 1_555 1_555
C16 C11 1_555 1_555
H9 C16 1_555 1_555
H10 C16 1_555 1_555
C17 C13 1_555 1_555
H11 C17 1_555 1_555
C18 O2 1_555 1_555
H12 C18 1_555 1_555
H13 C18 1_555 1_555
C19 C18 1_555 1_555
H14 C19 1_555 1_555
H15 C19 1_555 1_555
H16 C19 1_555 1_555
C20 O6 1_555 1_555
C21 C20 1_555 1_555
S2 C28 1_555 1_555
Cl2 C34 1_555 1_555
O7 C25 1_555 1_555
O8 C25 1_555 1_555
O9 C29 1_555 1_555
N3 C24 1_555 1_555
N4 C22 1_555 1_555
O10 C33 1_555 1_555
O11 C32 1_555 1_555
C22 C23 1_555 1_555
C23 C25 1_555 1_555
C24 N4 1_555 1_555
H17 C24 1_555 1_555
O12 C32 1_555 1_555
C26 N4 1_555 1_555
C27 C23 1_555 1_555
H18 C27 1_555 1_555
H19 C27 1_555 1_555
C28 C22 1_555 1_555
H20 C28 1_555 1_555
C29 N3 1_555 1_555
C30 C26 1_555 1_555
H21 C30 1_555 1_555
C31 S2 1_555 1_555
C32 C23 1_555 1_555
C33 N3 1_555 1_555
C34 C30 1_555 1_555
C35 C31 1_555 1_555
H22 C35 1_555 1_555
C36 C33 1_555 1_555
H23 C36 1_555 1_555
H24 C36 1_555 1_555
C37 C34 1_555 1_555
H25 C37 1_555 1_555
C38 O8 1_555 1_555
H26 C38 1_555 1_555
H27 C38 1_555 1_555
C39 C29 1_555 1_555
H28 C39 1_555 1_555
H29 C39 1_555 1_555
C40 C38 1_555 1_555
H30 C40 1_555 1_555
H31 C40 1_555 1_555
H32 C40 1_555 1_555
C41 O11 1_555 1_555
H33 C41 1_555 1_555
C42 C41 1_555 1_555
H34 C42 1_555 1_555
H35 C42 1_555 1_555
H36 C42 1_555 1_555
C1 C9 1_555 1_555
C14 C17 1_555 1_555
C15 C16 1_555 1_555
C24 C27 1_555 1_555
C26 C31 1_555 1_555
C35 C37 1_555 1_555
C36 C39 1_555 1_555

#END
