
#######################################################################
#
#                 Cambridge Crystallographic Data Centre
#                                CCDC 
#
#######################################################################
#
# If this CIF has been generated from an entry in the Cambridge 
# Structural Database, then it will include bibliographic, chemical, 
# crystal, experimental, refinement or atomic coordinate data resulting 
# from the CCDC's data processing and validation procedures.
#
#######################################################################

data_SIXYUW
_chemical_formula_moiety         'C20 H22 N2 O7 S1'
_chemical_name_systematic        
'diethyl 4-(2,5-dioxopyrrolidin-1-yl)-5-formyl-4,5-dihydro-1,5-benzothiazepine-2,2(3H)-dicarboxylate'
_symmetry_cell_setting           triclinic
_symmetry_space_group_name_H-M   'P -1'
_symmetry_Int_Tables_number      2
_space_group_name_Hall           '-P 1'
loop_
_symmetry_equiv_pos_site_id
_symmetry_equiv_pos_as_xyz
1 x,y,z
2 -x,-y,-z
_cell_length_a                   9.9475(3)
_cell_length_b                   10.1363(3)
_cell_length_c                   11.5606(4)
_cell_angle_alpha                96.601(2)
_cell_angle_beta                 109.424(3)
_cell_angle_gamma                107.395(3)
_cell_volume                     1018.85
_exptl_crystal_colour            colorless
_exptl_crystal_description       block
_cell_formula_units_Z            2
loop_
_atom_site_label
_atom_site_type_symbol
_atom_site_fract_x
_atom_site_fract_y
_atom_site_fract_z
S1 S 0.70421(6) 0.57074(5) 0.66724(5)
O1 O 0.71483(18) 0.61832(17) 0.94179(15)
O2 O 0.96211(19) 0.74855(17) 0.99379(16)
O3 O 1.0829(2) 0.53196(19) 0.84874(19)
O4 O 1.0272(2) 0.70669(19) 0.76431(19)
O5 O 0.6108(2) 0.11777(19) 0.86003(19)
O6 O 0.9361(2) 0.1297(2) 0.6594(2)
N1 N 0.6197(2) 0.25384(19) 0.60770(17)
N2 N 0.7721(2) 0.15249(19) 0.75364(18)
O7 O 0.5007(3) 0.1532(3) 0.3959(2)
C1 C 0.7623(2) 0.2839(2) 0.7167(2)
H1 H 0.846760 0.322354 0.689759
C2 C 0.5000(3) 0.2988(2) 0.6184(2)
C3 C 0.7852(2) 0.3948(2) 0.8291(2)
H2 H 0.861501 0.387924 0.904136
H3 H 0.690169 0.373296 0.841922
C4 C 0.5277(3) 0.4442(2) 0.6511(2)
C5 C 0.8358(2) 0.5482(2) 0.8137(2)
C6 C 0.7005(3) 0.0831(2) 0.8261(2)
C7 C 0.8466(3) 0.6509(2) 0.9274(2)
C8 C 0.8656(3) 0.0881(2) 0.7232(2)
C9 C 0.9963(3) 0.5929(2) 0.8106(2)
C10 C 0.4122(3) 0.4885(3) 0.6626(2)
H4 H 0.430318 0.584978 0.686662
C11 C 0.3579(3) 0.1994(3) 0.5950(2)
H5 H 0.340285 0.102690 0.573639
C12 C 0.7142(3) 0.7015(3) 1.0539(2)
H6 H 0.787846 0.797528 1.076425
H7 H 0.742214 0.658274 1.124602
C13 C 0.2697(3) 0.3880(3) 0.6378(3)
H8 H 0.191974 0.417601 0.644331
C14 C 0.7570(3) -0.0367(2) 0.8541(2)
H9 H 0.672047 -0.126598 0.827444
H10 H 0.815871 -0.019514 0.943705
C15 C 0.8564(3) -0.0386(3) 0.7793(3)
H11 H 0.957390 -0.031911 0.834198
H12 H 0.811054 -0.125710 0.713497
C16 C 0.6076(4) 0.1864(3) 0.4938(2)
H13 H 0.691124 0.164079 0.492097
C17 C 0.2424(3) 0.2440(3) 0.6035(3)
H14 H 0.146395 0.177327 0.586193
C18 C 0.5585(3) 0.7049(3) 1.0251(3)
H15 H 0.533423 0.751566 0.957578
H16 H 0.555384 0.756077 1.098876
H17 H 0.485922 0.609391 1.000398
C19 C 1.1851(4) 0.7661(3) 0.7725(4)
H18 H 1.256091 0.784709 0.858908
H19 H 1.204813 0.698659 0.719791
C20 C 1.2060(4) 0.8974(4) 0.7303(4)
H20 H 1.133413 0.878743 0.645563
H21 H 1.307708 0.935348 0.732332
H22 H 1.190673 0.965137 0.785043
loop_
_geom_bond_atom_site_label_1
_geom_bond_atom_site_label_2
_geom_bond_site_symmetry_1
_geom_bond_site_symmetry_2
S1 C4 1_555 1_555
O1 C7 1_555 1_555
O2 C7 1_555 1_555
O3 C9 1_555 1_555
O4 C9 1_555 1_555
O5 C6 1_555 1_555
O6 C8 1_555 1_555
N1 C1 1_555 1_555
N2 C1 1_555 1_555
O7 C16 1_555 1_555
C1 H1 1_555 1_555
C2 N1 1_555 1_555
C3 C1 1_555 1_555
H2 C3 1_555 1_555
H3 C3 1_555 1_555
C4 C2 1_555 1_555
C5 S1 1_555 1_555
C6 N2 1_555 1_555
C7 C5 1_555 1_555
C8 N2 1_555 1_555
C9 C5 1_555 1_555
C10 C4 1_555 1_555
H4 C10 1_555 1_555
C11 C2 1_555 1_555
H5 C11 1_555 1_555
C12 O1 1_555 1_555
H6 C12 1_555 1_555
H7 C12 1_555 1_555
C13 C10 1_555 1_555
H8 C13 1_555 1_555
C14 C6 1_555 1_555
H9 C14 1_555 1_555
H10 C14 1_555 1_555
C15 C8 1_555 1_555
H11 C15 1_555 1_555
H12 C15 1_555 1_555
C16 N1 1_555 1_555
H13 C16 1_555 1_555
C17 C11 1_555 1_555
H14 C17 1_555 1_555
C18 C12 1_555 1_555
H15 C18 1_555 1_555
H16 C18 1_555 1_555
H17 C18 1_555 1_555
C19 O4 1_555 1_555
H18 C19 1_555 1_555
H19 C19 1_555 1_555
C20 C19 1_555 1_555
H20 C20 1_555 1_555
H21 C20 1_555 1_555
H22 C20 1_555 1_555
C3 C5 1_555 1_555
C13 C17 1_555 1_555
C14 C15 1_555 1_555

#END
