
#######################################################################
#
#                 Cambridge Crystallographic Data Centre
#                                CCDC 
#
#######################################################################
#
# If this CIF has been generated from an entry in the Cambridge 
# Structural Database, then it will include bibliographic, chemical, 
# crystal, experimental, refinement or atomic coordinate data resulting 
# from the CCDC's data processing and validation procedures.
#
#######################################################################

data_SIYDAH
_chemical_formula_moiety         'C40 H42 Cl2 Li2 N2 O4'
_chemical_name_systematic        
bis(\m~2~-3-((4-Chlorophenyl)imino)-1-phenylbut-1-en-1-oxy)-bis(tetrahydrofuran)-di-lithium
_symmetry_cell_setting           triclinic
_symmetry_space_group_name_H-M   'P -1'
_symmetry_Int_Tables_number      2
_space_group_name_Hall           '-P 1'
loop_
_symmetry_equiv_pos_site_id
_symmetry_equiv_pos_as_xyz
1 x,y,z
2 -x,-y,-z
_cell_length_a                   10.7407(8)
_cell_length_b                   12.0863(7)
_cell_length_c                   15.3976(10)
_cell_angle_alpha                92.443(5)
_cell_angle_beta                 97.514(6)
_cell_angle_gamma                107.357(6)
_cell_volume                     1884.39
_exptl_crystal_colour            colorless
_exptl_crystal_description       block
_cell_formula_units_Z            2
loop_
_atom_site_label
_atom_site_type_symbol
_atom_site_fract_x
_atom_site_fract_y
_atom_site_fract_z
Li1 Li 0.3820(5) 0.7210(4) 0.7952(3)
Li2 Li 0.5921(5) 0.7770(4) 0.7145(3)
O1 O 0.4974(2) 0.86429(17) 0.76670(13)
O2 O 0.4730(2) 0.63304(18) 0.73975(13)
O3 O 0.7628(3) 0.7897(3) 0.78231(17)
O4 O 0.2007(2) 0.6946(2) 0.73209(15)
N1 N 0.6304(3) 0.8798(2) 0.61376(17)
N2 N 0.3528(3) 0.6224(2) 0.89685(16)
Cl1 Cl 0.94084(10) 0.74170(9) 0.35933(6)
Cl2 Cl 0.05349(11) 0.77912(10) 1.14988(6)
C1 C 0.4892(3) 0.9643(2) 0.74550(19)
C2 C 0.5471(3) 1.0230(3) 0.6790(2)
H1 H 0.5397 1.0973 0.6736
C3 C 0.6169(3) 0.9840(3) 0.6172(2)
C4 C 0.6727(4) 1.0712(3) 0.5536(2)
H2 H 0.7623 1.1147 0.5768
H3 H 0.6209 1.1235 0.5456
H4 H 0.6703 1.0308 0.4980
C5 C 0.4100(3) 1.0168(2) 0.7987(2)
C6 C 0.3525(4) 1.0986(3) 0.7684(2)
H5 H 0.3643 1.1243 0.7131
C7 C 0.2774(4) 1.1434(3) 0.8187(3)
H6 H 0.2393 1.1983 0.7971
C8 C 0.2597(4) 1.1060(3) 0.9010(3)
H7 H 0.2097 1.1359 0.9350
C9 C 0.3155(4) 1.0246(3) 0.9328(2)
H8 H 0.3034 0.9995 0.9882
C10 C 0.3904(3) 0.9797(3) 0.8819(2)
H9 H 0.4278 0.9244 0.9037
C11 C 0.7041(3) 0.8488(3) 0.5525(2)
C12 C 0.8416(4) 0.8908(3) 0.5650(2)
H10 H 0.8856 0.9425 0.6136
C13 C 0.9143(4) 0.8570(3) 0.5067(2)
H11 H 1.0059 0.8858 0.5160
C14 C 0.8487(4) 0.7799(3) 0.4345(2)
C15 C 0.7137(4) 0.7347(3) 0.4218(2)
H12 H 0.6703 0.6815 0.3740
C16 C 0.6423(3) 0.7691(3) 0.4810(2)
H13 H 0.5509 0.7379 0.4723
C17 C 0.4915(3) 0.5379(3) 0.76456(19)
C18 C 0.4378(3) 0.4802(3) 0.8331(2)
H14 H 0.4476 0.4069 0.8394
C19 C 0.3692(3) 0.5195(3) 0.89528(19)
C20 C 0.3187(3) 0.4345(3) 0.9619(2)
H15 H 0.3207 0.4769 1.0165
H16 H 0.3736 0.3851 0.9711
H17 H 0.2297 0.3878 0.9402
C21 C 0.5768(3) 0.4899(2) 0.71417(19)
C22 C 0.6419(4) 0.4143(3) 0.7476(2)
H18 H 0.6291 0.3880 0.8026
C23 C 0.7260(4) 0.3771(3) 0.7004(3)
H19 H 0.7689 0.3262 0.7240
C24 C 0.7459(4) 0.4152(3) 0.6192(3)
H20 H 0.8028 0.3908 0.5879
C25 C 0.6812(4) 0.4898(3) 0.5842(2)
H21 H 0.6939 0.5152 0.5290
C26 C 0.5977(4) 0.5267(3) 0.6310(2)
H22 H 0.5546 0.5770 0.6067
C27 C 0.2823(3) 0.6556(3) 0.95946(19)
C28 C 0.1451(3) 0.6161(3) 0.9481(2)
H23 H 0.0993 0.5632 0.9006
C29 C 0.0758(4) 0.6538(3) 1.0059(2)
H24 H -0.0159 0.6257 0.9976
C30 C 0.1423(4) 0.7332(3) 1.0762(2)
C31 C 0.2777(4) 0.7760(3) 1.0884(2)
H25 H 0.3226 0.8304 1.1352
C32 C 0.3465(3) 0.7369(3) 1.0297(2)
H26 H 0.4381 0.7661 1.0378
C33 C 0.8685(4) 0.7454(4) 0.7730(3)
H27 H 0.8774 0.7353 0.7115
H28 H 0.8549 0.6710 0.7979
C34 C 0.9903(4) 0.8361(5) 0.8231(3)
H29 H 1.0577 0.8009 0.8435
H30 H 1.0237 0.8986 0.7885
C35 C 0.9314(8) 0.8695(11) 0.9044(6)
H31 H 0.9514 0.8278 0.9541
H32 H 0.9664 0.9524 0.9213
C36 C 0.7851(7) 0.8346(9) 0.8739(4)
H33 H 0.7390 0.7752 0.9089
H34 H 0.7532 0.9012 0.8797
C37 C 0.1381(4) 0.5745(3) 0.7019(2)
H35 H 0.0498 0.5482 0.7172
H36 H 0.1885 0.5266 0.7282
C38 C 0.1331(6) 0.5674(4) 0.6048(3)
H37 H 0.0537 0.5110 0.5755
H38 H 0.2094 0.5508 0.5891
C39 C 0.1826(13) 0.6938(8) 0.5841(7)
H39 H 0.2719 0.7124 0.5707
H40 H 0.1263 0.7080 0.5340
C40 C 0.1787(5) 0.7612(4) 0.6599(3)
H41 H 0.2593 0.8204 0.6544
H42 H 0.1118 0.7962 0.6693
H43? H 1.0380 0.8857 0.7827
H44? H 1.0489 0.7992 0.8551
C41? C 0.9401(11) 0.9087(18) 0.8855(11)
H45? H 0.9410 0.8803 0.9435
H46? H 0.9928 0.9900 0.8907
C42? C 0.8009(10) 0.8926(11) 0.8419(8)
H47? H 0.7421 0.8839 0.8856
H48? H 0.7972 0.9595 0.8102
H49? H 0.0538 0.5094 0.5751
H50? H 0.2097 0.5495 0.5886
C43? C 0.0901(10) 0.6745(9) 0.5838(6)
H51? H -0.0029 0.6610 0.5865
H52? H 0.1095 0.6999 0.5268
H53? H 0.1118 0.7975 0.6696
H54? H 0.2595 0.8219 0.6546
loop_
_geom_bond_atom_site_label_1
_geom_bond_atom_site_label_2
_geom_bond_site_symmetry_1
_geom_bond_site_symmetry_2
Li1 O1 1_555 1_555
Li2 O1 1_555 1_555
O1 C1 1_555 1_555
O2 Li1 1_555 1_555
O3 Li2 1_555 1_555
O4 Li1 1_555 1_555
N1 Li2 1_555 1_555
N2 Li1 1_555 1_555
Cl1 C14 1_555 1_555
Cl2 C30 1_555 1_555
C1 C2 1_555 1_555
C2 H1 1_555 1_555
C3 N1 1_555 1_555
C4 C3 1_555 1_555
H2 C4 1_555 1_555
H3 C4 1_555 1_555
H4 C4 1_555 1_555
C5 C1 1_555 1_555
C6 C5 1_555 1_555
H5 C6 1_555 1_555
C7 C6 1_555 1_555
H6 C7 1_555 1_555
C8 C7 1_555 1_555
H7 C8 1_555 1_555
C9 C8 1_555 1_555
H8 C9 1_555 1_555
C10 C5 1_555 1_555
H9 C10 1_555 1_555
C11 N1 1_555 1_555
C12 C11 1_555 1_555
H10 C12 1_555 1_555
C13 C12 1_555 1_555
H11 C13 1_555 1_555
C14 C13 1_555 1_555
C15 C14 1_555 1_555
H12 C15 1_555 1_555
C16 C11 1_555 1_555
H13 C16 1_555 1_555
C17 O2 1_555 1_555
C18 C17 1_555 1_555
H14 C18 1_555 1_555
C19 N2 1_555 1_555
C20 C19 1_555 1_555
H15 C20 1_555 1_555
H16 C20 1_555 1_555
H17 C20 1_555 1_555
C21 C17 1_555 1_555
C22 C21 1_555 1_555
H18 C22 1_555 1_555
C23 C22 1_555 1_555
H19 C23 1_555 1_555
C24 C23 1_555 1_555
H20 C24 1_555 1_555
C25 C24 1_555 1_555
H21 C25 1_555 1_555
C26 C21 1_555 1_555
H22 C26 1_555 1_555
C27 N2 1_555 1_555
C28 C27 1_555 1_555
H23 C28 1_555 1_555
C29 C28 1_555 1_555
H24 C29 1_555 1_555
C30 C29 1_555 1_555
C31 C30 1_555 1_555
H25 C31 1_555 1_555
C32 C27 1_555 1_555
H26 C32 1_555 1_555
C33 O3 1_555 1_555
H27 C33 1_555 1_555
H28 C33 1_555 1_555
C34 C33 1_555 1_555
H29 C34 1_555 1_555
H30 C34 1_555 1_555
C35 C34 1_555 1_555
H31 C35 1_555 1_555
H32 C35 1_555 1_555
C36 O3 1_555 1_555
H33 C36 1_555 1_555
H34 C36 1_555 1_555
C37 O4 1_555 1_555
H35 C37 1_555 1_555
H36 C37 1_555 1_555
C38 C37 1_555 1_555
H37 C38 1_555 1_555
H38 C38 1_555 1_555
C39 C38 1_555 1_555
H39 C39 1_555 1_555
H40 C39 1_555 1_555
C40 O4 1_555 1_555
H41 C40 1_555 1_555
H42 C40 1_555 1_555
Li2 O2 1_555 1_555
C2 C3 1_555 1_555
C9 C10 1_555 1_555
C15 C16 1_555 1_555
C18 C19 1_555 1_555
C25 C26 1_555 1_555
C31 C32 1_555 1_555
C35 C36 1_555 1_555
C39 C40 1_555 1_555

#END
