
#######################################################################
#
#                 Cambridge Crystallographic Data Centre
#                                CCDC 
#
#######################################################################
#
# If this CIF has been generated from an entry in the Cambridge 
# Structural Database, then it will include bibliographic, chemical, 
# crystal, experimental, refinement or atomic coordinate data resulting 
# from the CCDC's data processing and validation procedures.
#
#######################################################################

data_SIYJOZ
_chemical_formula_moiety         'C44 H48,2(C8 H10)'
_chemical_name_systematic        
"1,1':4,4'-bis(4,4'-Di-t-butylbiphenyl-2,2'-diyl)butatriene bis(p-xylene) clathrate"
_symmetry_cell_setting           monoclinic
_symmetry_space_group_name_H-M   'P 21/a'
_symmetry_Int_Tables_number      14
_space_group_name_Hall           '-P 2yab'
loop_
_symmetry_equiv_pos_site_id
_symmetry_equiv_pos_as_xyz
1 x,y,z
2 1/2-x,1/2+y,-z
3 -x,-y,-z
4 1/2+x,1/2-y,z
_cell_length_a                   9.103(1)
_cell_length_b                   19.440(5)
_cell_length_c                   14.091(4)
_cell_angle_alpha                90
_cell_angle_beta                 96.38(2)
_cell_angle_gamma                90
_cell_volume                     2478.13
_exptl_crystal_colour            red
_cell_formula_units_Z            2
loop_
_atom_site_label
_atom_site_type_symbol
_atom_site_fract_x
_atom_site_fract_y
_atom_site_fract_z
C1 C 0.0177(5) 0.4762(3) 0.4742(3)
C2 C 0.0576(6) 0.4253(3) 0.4177(3)
C3 C -0.0253(6) 0.3993(3) 0.3296(3)
C4 C -0.1587(6) 0.4189(3) 0.2830(4)
C5 C -0.2131(6) 0.3884(3) 0.1964(4)
C6 C -0.1250(7) 0.3382(3) 0.1598(4)
C7 C 0.0099(6) 0.3180(3) 0.2058(4)
C8 C 0.0599(6) 0.3477(3) 0.2923(3)
C9 C 0.1969(6) 0.3380(3) 0.3582(3)
C10 C 0.3148(6) 0.2942(3) 0.3571(4)
C11 C 0.4314(6) 0.2985(3) 0.4271(4)
C12 C 0.4367(6) 0.3472(3) 0.5007(4)
C13 C 0.3134(6) 0.3906(3) 0.5028(4)
C14 C 0.1973(6) 0.3858(3) 0.4322(3)
C15 C 0.5717(6) 0.3558(3) 0.5751(5)
C16 C 0.6350(18) 0.4312(8) 0.5695(14)
C17 C 0.5290(23) 0.3449(11) 0.6775(13)
C18 C 0.7042(18) 0.3100(11) 0.5600(16)
C19 C -0.3628(7) 0.4105(3) 0.1465(4)
C20 C -0.3617(9) 0.4886(3) 0.1262(6)
C21 C -0.4829(7) 0.3946(4) 0.2098(5)
C22 C -0.4041(8) 0.3723(4) 0.0514(5)
H1 H -0.2158 0.4538 0.3102
H2 H -0.1600 0.3170 0.1000
H3 H 0.0677 0.2836 0.1782
H4 H 0.3146 0.2601 0.3078
H5 H 0.5133 0.2677 0.4254
H6 H 0.3104 0.4234 0.5535
H7 H -0.3370 0.5136 0.1846
H8 H -0.4574 0.5028 0.0973
H9 H -0.2892 0.4979 0.0833
H10 H -0.4610 0.4178 0.2698
H11 H -0.4855 0.3458 0.2204
H12 H -0.5773 0.4096 0.1798
H13 H -0.3309 0.3818 0.0092
H14 H -0.4991 0.3874 0.0226
H15 H -0.4073 0.3237 0.0633
C1B C -0.0177(5) 0.5238(3) 0.5258(3)
C2B C -0.0576(6) 0.5747(3) 0.5823(3)
C3B C 0.0253(6) 0.6007(3) 0.6704(3)
C14B C -0.1973(6) 0.6142(3) 0.5678(3)
C4B C 0.1587(6) 0.5811(3) 0.7170(4)
C8B C -0.0599(6) 0.6523(3) 0.7077(3)
C9B C -0.1969(6) 0.6620(3) 0.6418(3)
C13B C -0.3134(6) 0.6094(3) 0.4972(4)
C5B C 0.2131(6) 0.6116(3) 0.8036(4)
H1B H 0.2158 0.5462 0.6898
C7B C -0.0099(6) 0.6820(3) 0.7942(4)
C10B C -0.3148(6) 0.7058(3) 0.6429(4)
C12B C -0.4367(6) 0.6528(3) 0.4993(4)
H6B H -0.3104 0.5766 0.4465
C6B C 0.1250(7) 0.6618(3) 0.8402(4)
C19B C 0.3628(7) 0.5895(3) 0.8535(4)
H3B H -0.0677 0.7164 0.8218
C11B C -0.4314(6) 0.7015(3) 0.5729(4)
H4B H -0.3146 0.7399 0.6922
C15B C -0.5717(6) 0.6442(3) 0.4249(5)
H2B H 0.1600 0.6830 0.9000
C20B C 0.3617(9) 0.5114(3) 0.8738(6)
C21B C 0.4829(7) 0.6054(4) 0.7902(5)
C22B C 0.4041(8) 0.6277(4) 0.9486(5)
H5B H -0.5133 0.7323 0.5746
C16B C -0.6350(18) 0.5688(8) 0.4305(14)
C17B C -0.5290(23) 0.6551(11) 0.3225(13)
C18B C -0.7042(18) 0.6900(11) 0.4400(16)
H7B H 0.3370 0.4864 0.8154
H8B H 0.4574 0.4972 0.9027
H9B H 0.2892 0.5021 0.9167
H10B H 0.4610 0.5822 0.7302
H11B H 0.4855 0.6542 0.7796
H12B H 0.5773 0.5904 0.8202
H13B H 0.3309 0.6182 0.9908
H14B H 0.4991 0.6126 0.9774
H15B H 0.4073 0.6763 0.9367
C23 C -0.0377(8) 0.4303(4) -0.1519(5)
C24 C 0.0115(9) 0.4037(4) -0.0659(5)
C25 C 0.1183(10) 0.3530(5) -0.0577(5)
C26 C 0.1806(9) 0.3265(4) -0.1346(6)
C27 C 0.1285(9) 0.3548(4) -0.2225(5)
C28 C 0.0221(8) 0.4053(4) -0.2311(5)
C29 C -0.1533(9) 0.4858(4) -0.1617(6)
C30 C 0.2990(11) 0.2713(5) -0.1253(7)
H16 H -0.0283 0.4200 -0.0007
H17 H 0.1510 0.3349 0.0045
H18 H 0.1684 0.3382 -0.2785
H19 H -0.0091 0.4241 -0.2931
H20 H -0.1750 0.4988 -0.2274
H21 H -0.1174 0.5251 -0.1249
H22 H -0.2414 0.4689 -0.1381
H23 H 0.3200 0.2582 -0.0595
H24 H 0.3873 0.2889 -0.1480
H25 H 0.2649 0.2320 -0.1625
C31? C 0.7007(17) 0.3813(14) 0.5164(14)
C32? C 0.5441(29) 0.3998(18) 0.6547(19)
C33? C 0.6223(29) 0.2793(9) 0.6036(19)
loop_
_geom_bond_atom_site_label_1
_geom_bond_atom_site_label_2
_geom_bond_site_symmetry_1
_geom_bond_site_symmetry_2
C1 C2 1_555 1_555
C2 C3 1_555 1_555
C3 C4 1_555 1_555
C4 C5 1_555 1_555
C5 C6 1_555 1_555
C6 C7 1_555 1_555
C7 C8 1_555 1_555
C8 C3 1_555 1_555
C9 C8 1_555 1_555
C10 C9 1_555 1_555
C11 C10 1_555 1_555
C12 C11 1_555 1_555
C13 C12 1_555 1_555
C14 C2 1_555 1_555
C15 C12 1_555 1_555
C16 C15 1_555 1_555
C17 C15 1_555 1_555
C18 C15 1_555 1_555
C19 C5 1_555 1_555
C20 C19 1_555 1_555
C21 C19 1_555 1_555
C22 C19 1_555 1_555
H1 C4 1_555 1_555
H2 C6 1_555 1_555
H3 C7 1_555 1_555
H4 C10 1_555 1_555
H5 C11 1_555 1_555
H6 C13 1_555 1_555
H7 C20 1_555 1_555
H8 C20 1_555 1_555
H9 C20 1_555 1_555
H10 C21 1_555 1_555
H11 C21 1_555 1_555
H12 C21 1_555 1_555
H13 C22 1_555 1_555
H14 C22 1_555 1_555
H15 C22 1_555 1_555
C23 C24 1_555 1_555
C24 C25 1_555 1_555
C25 C26 1_555 1_555
C26 C27 1_555 1_555
C27 C28 1_555 1_555
C28 C23 1_555 1_555
C29 C23 1_555 1_555
C30 C26 1_555 1_555
H16 C24 1_555 1_555
H17 C25 1_555 1_555
H18 C27 1_555 1_555
H19 C28 1_555 1_555
H20 C29 1_555 1_555
H21 C29 1_555 1_555
H22 C29 1_555 1_555
H23 C30 1_555 1_555
H24 C30 1_555 1_555
H25 C30 1_555 1_555
C1B C1 1_555 1_555
C2B C1B 1_555 1_555
C3B C2B 1_555 1_555
C14B C2B 1_555 1_555
C4B C3B 1_555 1_555
C8B C3B 1_555 1_555
C9B C14B 1_555 1_555
C13B C14B 1_555 1_555
C5B C4B 1_555 1_555
H1B C4B 1_555 1_555
C7B C8B 1_555 1_555
C10B C9B 1_555 1_555
C12B C13B 1_555 1_555
H6B C13B 1_555 1_555
C6B C5B 1_555 1_555
C19B C5B 1_555 1_555
H3B C7B 1_555 1_555
C11B C10B 1_555 1_555
H4B C10B 1_555 1_555
C15B C12B 1_555 1_555
H2B C6B 1_555 1_555
C20B C19B 1_555 1_555
C21B C19B 1_555 1_555
C22B C19B 1_555 1_555
H5B C11B 1_555 1_555
C16B C15B 1_555 1_555
C17B C15B 1_555 1_555
C18B C15B 1_555 1_555
H7B C20B 1_555 1_555
H8B C20B 1_555 1_555
H9B C20B 1_555 1_555
H10B C21B 1_555 1_555
H11B C21B 1_555 1_555
H12B C21B 1_555 1_555
H13B C22B 1_555 1_555
H14B C22B 1_555 1_555
H15B C22B 1_555 1_555
C9 C14 1_555 1_555
C13 C14 1_555 1_555
C8B C9B 1_555 1_555
C7B C6B 1_555 1_555
C12B C11B 1_555 1_555

#END
