
#######################################################################
#
#                 Cambridge Crystallographic Data Centre
#                                CCDC 
#
#######################################################################
#
# If this CIF has been generated from an entry in the Cambridge 
# Structural Database, then it will include bibliographic, chemical, 
# crystal, experimental, refinement or atomic coordinate data resulting 
# from the CCDC's data processing and validation procedures.
#
#######################################################################

data_SIYJUI
_chemical_name_common            B-MFDP
_chemical_formula_moiety         'C25 H20 N2,0.5(H2 O1)'
_chemical_name_systematic        
"4,4'-(9,9-dimethyl-9H-fluorene-2,7-diyl)dipyridine hemihydrate"
_symmetry_cell_setting           triclinic
_symmetry_space_group_name_H-M   'P -1'
_symmetry_Int_Tables_number      2
_space_group_name_Hall           '-P 1'
loop_
_symmetry_equiv_pos_site_id
_symmetry_equiv_pos_as_xyz
1 x,y,z
2 -x,-y,-z
_cell_length_a                   11.6274(7)
_cell_length_b                   12.6713(8)
_cell_length_c                   13.6465(8)
_cell_angle_alpha                80.873(2)
_cell_angle_beta                 86.787(2)
_cell_angle_gamma                74.236(2)
_cell_volume                     1910.3
_exptl_crystal_colour            colorless
_exptl_crystal_description       Block
_cell_formula_units_Z            4
loop_
_atom_site_label
_atom_site_type_symbol
_atom_site_fract_x
_atom_site_fract_y
_atom_site_fract_z
C1 C 0.9010(3) -0.0436(2) -0.18747(18)
H1 H 0.8804 -0.0980 -0.2157
C2 C 0.8138(2) 0.02295(17) -0.13466(15)
H2 H 0.7373 0.0129 -0.1284
C3 C 0.84058(17) 0.10465(15) -0.09102(13)
C4 C 0.95783(18) 0.11203(17) -0.10236(15)
H3 H 0.9820 0.1640 -0.0733
C5 C 1.0381(2) 0.0418(2) -0.15703(17)
H4 H 1.1158 0.0489 -0.1637
C6 C 0.74965(15) 0.18122(14) -0.03646(12)
C7 C 0.62932(16) 0.20866(15) -0.06175(13)
H5 H 0.6068 0.1774 -0.1123
C8 C 0.54298(15) 0.28120(14) -0.01342(13)
H6 H 0.4632 0.2984 -0.0310
C9 C 0.57655(14) 0.32795(13) 0.06143(12)
C10 C 0.69672(14) 0.30153(13) 0.08778(12)
C11 C 0.78218(15) 0.22904(14) 0.03935(13)
H7 H 0.8619 0.2118 0.0572
C12 C 0.71311(14) 0.36347(14) 0.17065(12)
C13 C 0.58475(14) 0.42783(13) 0.18859(12)
C14 C 0.50680(14) 0.40623(13) 0.12416(12)
C15 C 0.38558(14) 0.45595(14) 0.12930(13)
H8 H 0.3334 0.4407 0.0877
C16 C 0.34275(15) 0.52805(14) 0.19633(13)
H9 H 0.2611 0.5616 0.1992
C17 C 0.41849(14) 0.55228(13) 0.26033(12)
C18 C 0.54090(14) 0.50021(13) 0.25595(12)
H10 H 0.5928 0.5144 0.2985
C19 C 0.36844(14) 0.63100(13) 0.33098(12)
C20 C 0.25986(17) 0.71034(15) 0.31471(15)
H11 H 0.2168 0.7153 0.2580
C21 C 0.2159(2) 0.78159(17) 0.38217(17)
H12 H 0.1430 0.8338 0.3687
C22 C 0.3743(2) 0.70622(18) 0.47989(15)
H13 H 0.4154 0.7037 0.5371
C23 C 0.42636(17) 0.63173(15) 0.41679(13)
H14 H 0.5004 0.5819 0.4317
C24 C 0.76638(17) 0.28353(17) 0.26330(14)
H15 H 0.7724 0.3252 0.3149
H16 H 0.8444 0.2396 0.2475
H17 H 0.7157 0.2358 0.2855
C25 C 0.79066(16) 0.44299(18) 0.13588(15)
H18 H 0.7572 0.4916 0.0772
H19 H 0.8702 0.4011 0.1215
H20 H 0.7932 0.4860 0.1872
N1 N 1.0125(2) -0.03501(18) -0.20066(15)
N2 N 0.27020(17) 0.78120(15) 0.46552(14)
C26 C 0.61865(19) -0.21730(17) 0.23446(17)
H21 H 0.6400 -0.2908 0.2650
C27 C 0.54525(17) -0.13998(15) 0.28683(15)
H22 H 0.5185 -0.1619 0.3503
C28 C 0.51152(15) -0.02948(15) 0.24443(13)
C29 C 0.55351(19) -0.00548(17) 0.14877(15)
H23 H 0.5324 0.0669 0.1156
C30 C 0.6264(2) -0.0887(2) 0.10300(17)
H24 H 0.6534 -0.0696 0.0389
C31 C 0.44136(15) 0.05896(14) 0.30001(13)
C32 C 0.46545(16) 0.16255(14) 0.28377(14)
H25 H 0.5212 0.1760 0.2351
C33 C 0.40901(16) 0.24508(14) 0.33777(13)
H26 H 0.4265 0.3134 0.3261
C34 C 0.32575(15) 0.22500(13) 0.40979(12)
C35 C 0.29754(15) 0.12305(13) 0.42590(12)
C36 C 0.35587(15) 0.04029(14) 0.37189(13)
H27 H 0.3382 -0.0280 0.3834
C37 C 0.19986(16) 0.12268(14) 0.50498(13)
C38 C 0.18329(15) 0.23631(14) 0.53675(12)
C39 C 0.25497(14) 0.29522(13) 0.47850(12)
C40 C 0.2368(2) 0.02703(16) 0.59049(15)
H28 H 0.2488 -0.0422 0.5661
H29 H 0.1751 0.0336 0.6407
H30 H 0.3098 0.0297 0.6184
C41 C 0.08487(17) 0.11701(18) 0.45806(16)
H31 H 0.0618 0.1774 0.4047
H32 H 0.0222 0.1221 0.5074
H33 H 0.0989 0.0480 0.4328
C42 C 0.25012(16) 0.40280(14) 0.49151(14)
H34 H 0.2973 0.4420 0.4523
C43 C 0.17484(16) 0.45074(15) 0.56307(14)
H35 H 0.1704 0.5233 0.5711
C44 C 0.10482(15) 0.39234(14) 0.62395(13)
C45 C 0.10996(15) 0.28423(14) 0.60975(13)
H36 H 0.0638 0.2445 0.6496
C46 C 0.03103(15) 0.44476(15) 0.70430(14)
C47 C 0.02647(16) 0.38755(16) 0.79908(14)
H37 H 0.0657 0.3125 0.8127
C48 C -0.03642(17) 0.44227(18) 0.87310(16)
H38 H -0.0375 0.4018 0.9361
C49 C -0.09303(17) 0.60317(18) 0.76861(18)
H39 H -0.1352 0.6776 0.7568
C50 C -0.03215(17) 0.55623(16) 0.69023(16)
H40 H -0.0331 0.5988 0.6280
N3 N 0.66106(15) -0.19451(15) 0.14357(14)
N4 N -0.09556(14) 0.54900(16) 0.86037(14)
O1 O 0.8183(3) 0.73868(19) 0.97204(18)
H41 H 0.836(4) 0.678(2) 0.948(3)
H42 H 0.770(4) 0.736(4) 1.021(3)
loop_
_geom_bond_atom_site_label_1
_geom_bond_atom_site_label_2
_geom_bond_site_symmetry_1
_geom_bond_site_symmetry_2
C1 H1 1_555 1_555
C2 C1 1_555 1_555
H2 C2 1_555 1_555
C3 C2 1_555 1_555
C4 C3 1_555 1_555
H3 C4 1_555 1_555
C5 C4 1_555 1_555
H4 C5 1_555 1_555
C6 C3 1_555 1_555
C7 C6 1_555 1_555
H5 C7 1_555 1_555
C8 C7 1_555 1_555
H6 C8 1_555 1_555
C9 C8 1_555 1_555
C10 C9 1_555 1_555
C11 C6 1_555 1_555
H7 C11 1_555 1_555
C12 C10 1_555 1_555
C13 C12 1_555 1_555
C14 C9 1_555 1_555
C15 C14 1_555 1_555
H8 C15 1_555 1_555
C16 C15 1_555 1_555
H9 C16 1_555 1_555
C17 C16 1_555 1_555
C18 C13 1_555 1_555
H10 C18 1_555 1_555
C19 C17 1_555 1_555
C20 C19 1_555 1_555
H11 C20 1_555 1_555
C21 C20 1_555 1_555
H12 C21 1_555 1_555
C22 H13 1_555 1_555
C23 C19 1_555 1_555
H14 C23 1_555 1_555
C24 C12 1_555 1_555
H15 C24 1_555 1_555
H16 C24 1_555 1_555
H17 C24 1_555 1_555
C25 C12 1_555 1_555
H18 C25 1_555 1_555
H19 C25 1_555 1_555
H20 C25 1_555 1_555
N1 C1 1_555 1_555
N2 C21 1_555 1_555
C26 H21 1_555 1_555
C27 C26 1_555 1_555
H22 C27 1_555 1_555
C28 C27 1_555 1_555
C29 C28 1_555 1_555
H23 C29 1_555 1_555
C30 C29 1_555 1_555
H24 C30 1_555 1_555
C31 C28 1_555 1_555
C32 C31 1_555 1_555
H25 C32 1_555 1_555
C33 C32 1_555 1_555
H26 C33 1_555 1_555
C34 C33 1_555 1_555
C35 C34 1_555 1_555
C36 C31 1_555 1_555
H27 C36 1_555 1_555
C37 C35 1_555 1_555
C38 C37 1_555 1_555
C39 C34 1_555 1_555
C40 C37 1_555 1_555
H28 C40 1_555 1_555
H29 C40 1_555 1_555
H30 C40 1_555 1_555
C41 C37 1_555 1_555
H31 C41 1_555 1_555
H32 C41 1_555 1_555
H33 C41 1_555 1_555
C42 C39 1_555 1_555
H34 C42 1_555 1_555
C43 C42 1_555 1_555
H35 C43 1_555 1_555
C44 C43 1_555 1_555
C45 C38 1_555 1_555
H36 C45 1_555 1_555
C46 C44 1_555 1_555
C47 C46 1_555 1_555
H37 C47 1_555 1_555
C48 C47 1_555 1_555
H38 C48 1_555 1_555
C49 H39 1_555 1_555
C50 C46 1_555 1_555
H40 C50 1_555 1_555
N3 C26 1_555 1_555
N4 C48 1_555 1_555
O1 H41 1_555 1_555
H42 O1 1_555 1_555
C5 N1 1_555 1_555
C10 C11 1_555 1_555
C13 C14 1_555 1_555
C17 C18 1_555 1_555
C22 C23 1_555 1_555
C22 N2 1_555 1_555
C30 N3 1_555 1_555
C35 C36 1_555 1_555
C38 C39 1_555 1_555
C44 C45 1_555 1_555
C49 C50 1_555 1_555
C49 N4 1_555 1_555

#END
