
#######################################################################
#
#                 Cambridge Crystallographic Data Centre
#                                CCDC 
#
#######################################################################
#
# If this CIF has been generated from an entry in the Cambridge 
# Structural Database, then it will include bibliographic, chemical, 
# crystal, experimental, refinement or atomic coordinate data resulting 
# from the CCDC's data processing and validation procedures.
#
#######################################################################

data_SIYLIX
_chemical_formula_moiety         'C18 H28 N2 O2 S1 Si2'
_chemical_name_systematic        
N,N'-(Sulfonyldi-4,1-phenylene)bis(1,1,1-trimethylsilanamine)
_symmetry_cell_setting           monoclinic
_symmetry_space_group_name_H-M   'P 21/c'
_symmetry_Int_Tables_number      14
_space_group_name_Hall           '-P 2ybc'
loop_
_symmetry_equiv_pos_site_id
_symmetry_equiv_pos_as_xyz
1 x,y,z
2 -x,1/2+y,1/2-z
3 -x,-y,-z
4 x,1/2-y,1/2+z
_cell_length_a                   21.449(4)
_cell_length_b                   11.909(2)
_cell_length_c                   17.144(3)
_cell_angle_alpha                90
_cell_angle_beta                 91.09(3)
_cell_angle_gamma                90
_cell_volume                     4378.4
_exptl_crystal_colour            colorless
_exptl_crystal_description       block
_cell_formula_units_Z            8
loop_
_atom_site_label
_atom_site_type_symbol
_atom_site_fract_x
_atom_site_fract_y
_atom_site_fract_z
S1 S 0.49337(3) 1.21628(5) 0.56228(3)
Si1 Si 0.16312(4) 1.22970(7) 0.47260(5)
Si2 Si 0.64831(3) 1.42461(6) 0.22350(4)
O1 O 0.49964(9) 1.09834(14) 0.57964(10)
O2 O 0.51809(9) 1.29677(15) 0.61779(9)
N1 N 0.22607(11) 1.3162(2) 0.49798(14)
H1 H 0.2186 1.3888 0.4978
N2 N 0.59965(10) 1.31521(18) 0.25315(11)
H2 H 0.5829 1.2778 0.2138
C1 C 0.17842(18) 1.1459(3) 0.3831(3)
H3 H 0.1761 1.1950 0.3373
H4 H 0.1472 1.0862 0.3779
H5 H 0.2201 1.1124 0.3872
C2 C 0.1453(2) 1.1327(4) 0.5524(3)
H6 H 0.1048 1.0971 0.5420
H7 H 0.1440 1.1743 0.6016
H8 H 0.1777 1.0748 0.5560
C3 C 0.09826(15) 1.3299(3) 0.4572(2)
H9 H 0.1087 1.3821 0.4152
H10 H 0.0915 1.3720 0.5054
H11 H 0.0602 1.2886 0.4428
C4 C 0.28774(12) 1.2908(2) 0.51421(15)
C5 C 0.31049(14) 1.1804(2) 0.51317(18)
H12 H 0.2826 1.1204 0.5018
C6 C 0.37238(13) 1.1574(2) 0.52829(16)
H13 H 0.3869 1.0821 0.5263
C7 C 0.41384(11) 1.24370(19) 0.54644(13)
C8 C 0.39247(12) 1.3534(2) 0.54769(14)
H14 H 0.4207 1.4128 0.5592
C9 C 0.33053(13) 1.3767(2) 0.53232(15)
H15 H 0.3165 1.4523 0.5340
C10 C 0.52709(10) 1.24434(19) 0.47192(13)
C11 C 0.51478(11) 1.17272(19) 0.40923(13)
H16 H 0.4904 1.1070 0.4163
C12 C 0.53818(10) 1.19784(19) 0.33683(13)
H17 H 0.5290 1.1495 0.2940
C13 C 0.57504(11) 1.29290(19) 0.32526(13)
C14 C 0.58706(11) 1.36343(19) 0.38952(13)
H18 H 0.6123 1.4282 0.3832
C15 C 0.56280(11) 1.34016(19) 0.46144(13)
H19 H 0.5705 1.3897 0.5040
C16 C 0.66512(16) 1.3922(3) 0.12065(16)
H20 H 0.6947 1.4474 0.1006
H21 H 0.6264 1.3950 0.0895
H22 H 0.6833 1.3169 0.1172
C17 C 0.72200(13) 1.4262(3) 0.28155(17)
H23 H 0.7136 1.4510 0.3348
H24 H 0.7515 1.4780 0.2576
H25 H 0.7399 1.3505 0.2830
C18 C 0.60749(17) 1.5603(3) 0.2304(2)
H26 H 0.6039 1.5815 0.2853
H27 H 0.5658 1.5536 0.2065
H28 H 0.6311 1.6180 0.2029
S2 S 0.15197(3) 0.67650(5) 0.53551(3)
Si3 Si -0.00124(3) 1.01960(6) 0.23986(4)
Si4 Si 0.33779(4) 1.05007(7) 0.77193(5)
O3 O 0.18566(9) 0.57896(14) 0.50936(11)
O4 O 0.10201(8) 0.66237(15) 0.59004(10)
N3 N 0.05901(10) 0.92230(17) 0.25552(11)
H29 H 0.0790 0.9049 0.2128
N4 N 0.33933(9) 0.97838(17) 0.68345(12)
H30 H 0.3739 0.9729 0.6569
C19 C -0.07888(14) 0.9547(3) 0.25069(19)
H31 H -0.1110 1.0057 0.2300
H32 H -0.0863 0.9402 0.3060
H33 H -0.0805 0.8837 0.2218
C20 C 0.01011(15) 1.0678(3) 0.13904(17)
H34 H 0.0502 1.1067 0.1357
H35 H -0.0236 1.1193 0.1239
H36 H 0.0098 1.0029 0.1038
C21 C 0.00611(17) 1.1383(3) 0.3096(2)
H37 H 0.0024 1.1101 0.3630
H38 H -0.0270 1.1931 0.2988
H39 H 0.0468 1.1744 0.3037
C22 C 0.07892(10) 0.8650(2) 0.32121(13)
C23 C 0.13121(11) 0.7948(2) 0.31783(13)
H40 H 0.1525 0.7874 0.2700
C24 C 0.15248(11) 0.7362(2) 0.38244(14)
H41 H 0.1881 0.6892 0.3788
C25 C 0.12194(10) 0.74594(19) 0.45278(13)
C26 C 0.07020(11) 0.8149(2) 0.45744(13)
H42 H 0.0494 0.8223 0.5056
C27 C 0.04846(11) 0.8731(2) 0.39263(14)
H43 H 0.0125 0.9191 0.3966
C28 C 0.20604(10) 0.76969(19) 0.57720(12)
C29 C 0.26660(11) 0.7747(2) 0.54943(13)
H44 H 0.2782 0.7286 0.5069
C30 C 0.30957(11) 0.8456(2) 0.58294(13)
H45 H 0.3503 0.8494 0.5624
C31 C 0.29455(10) 0.91275(19) 0.64703(13)
C32 C 0.23280(11) 0.9101(2) 0.67282(14)
H46 H 0.2209 0.9572 0.7148
C33 C 0.18900(11) 0.8398(2) 0.63789(14)
H47 H 0.1473 0.8397 0.6555
C34 C 0.41871(16) 1.0969(3) 0.7900(2)
H48 H 0.4208 1.1418 0.8379
H49 H 0.4324 1.1425 0.7460
H50 H 0.4460 1.0313 0.7958
C35 C 0.3132(2) 0.9515(4) 0.84947(19)
H51 H 0.2927 0.8862 0.8256
H52 H 0.2842 0.9896 0.8841
H53 H 0.3500 0.9267 0.8797
C36 C 0.2844(2) 1.1701(4) 0.7653(3)
H54 H 0.2415 1.1429 0.7585
H55 H 0.2954 1.2170 0.7207
H56 H 0.2878 1.2145 0.8133
loop_
_geom_bond_atom_site_label_1
_geom_bond_atom_site_label_2
_geom_bond_site_symmetry_1
_geom_bond_site_symmetry_2
S1 O1 1_555 1_555
Si1 N1 1_555 1_555
Si2 N2 1_555 1_555
O2 S1 1_555 1_555
N1 H1 1_555 1_555
N2 H2 1_555 1_555
C1 Si1 1_555 1_555
H3 C1 1_555 1_555
H4 C1 1_555 1_555
H5 C1 1_555 1_555
C2 Si1 1_555 1_555
H6 C2 1_555 1_555
H7 C2 1_555 1_555
H8 C2 1_555 1_555
C3 Si1 1_555 1_555
H9 C3 1_555 1_555
H10 C3 1_555 1_555
H11 C3 1_555 1_555
C4 N1 1_555 1_555
C5 C4 1_555 1_555
H12 C5 1_555 1_555
C6 C5 1_555 1_555
H13 C6 1_555 1_555
C7 S1 1_555 1_555
C8 C7 1_555 1_555
H14 C8 1_555 1_555
C9 C4 1_555 1_555
H15 C9 1_555 1_555
C10 S1 1_555 1_555
C11 C10 1_555 1_555
H16 C11 1_555 1_555
C12 C11 1_555 1_555
H17 C12 1_555 1_555
C13 N2 1_555 1_555
C14 C13 1_555 1_555
H18 C14 1_555 1_555
C15 C10 1_555 1_555
H19 C15 1_555 1_555
C16 Si2 1_555 1_555
H20 C16 1_555 1_555
H21 C16 1_555 1_555
H22 C16 1_555 1_555
C17 Si2 1_555 1_555
H23 C17 1_555 1_555
H24 C17 1_555 1_555
H25 C17 1_555 1_555
C18 Si2 1_555 1_555
H26 C18 1_555 1_555
H27 C18 1_555 1_555
H28 C18 1_555 1_555
S2 O3 1_555 1_555
Si3 N3 1_555 1_555
Si4 N4 1_555 1_555
O4 S2 1_555 1_555
N3 H29 1_555 1_555
N4 H30 1_555 1_555
C19 Si3 1_555 1_555
H31 C19 1_555 1_555
H32 C19 1_555 1_555
H33 C19 1_555 1_555
C20 Si3 1_555 1_555
H34 C20 1_555 1_555
H35 C20 1_555 1_555
H36 C20 1_555 1_555
C21 Si3 1_555 1_555
H37 C21 1_555 1_555
H38 C21 1_555 1_555
H39 C21 1_555 1_555
C22 N3 1_555 1_555
C23 C22 1_555 1_555
H40 C23 1_555 1_555
C24 C23 1_555 1_555
H41 C24 1_555 1_555
C25 S2 1_555 1_555
C26 C25 1_555 1_555
H42 C26 1_555 1_555
C27 C22 1_555 1_555
H43 C27 1_555 1_555
C28 S2 1_555 1_555
C29 C28 1_555 1_555
H44 C29 1_555 1_555
C30 C29 1_555 1_555
H45 C30 1_555 1_555
C31 N4 1_555 1_555
C32 C31 1_555 1_555
H46 C32 1_555 1_555
C33 C28 1_555 1_555
H47 C33 1_555 1_555
C34 Si4 1_555 1_555
H48 C34 1_555 1_555
H49 C34 1_555 1_555
H50 C34 1_555 1_555
C35 Si4 1_555 1_555
H51 C35 1_555 1_555
H52 C35 1_555 1_555
H53 C35 1_555 1_555
C36 Si4 1_555 1_555
H54 C36 1_555 1_555
H55 C36 1_555 1_555
H56 C36 1_555 1_555
C6 C7 1_555 1_555
C8 C9 1_555 1_555
C12 C13 1_555 1_555
C14 C15 1_555 1_555
C24 C25 1_555 1_555
C26 C27 1_555 1_555
C30 C31 1_555 1_555
C32 C33 1_555 1_555

#END
