
#######################################################################
#
#                 Cambridge Crystallographic Data Centre
#                                CCDC 
#
#######################################################################
#
# If this CIF has been generated from an entry in the Cambridge 
# Structural Database, then it will include bibliographic, chemical, 
# crystal, experimental, refinement or atomic coordinate data resulting 
# from the CCDC's data processing and validation procedures.
#
#######################################################################

data_SIYPAU
_chemical_formula_moiety         'C25 H19 Br1 N2 O2'
_chemical_name_systematic        
2-(4-bromophenyl)-4-phenyl-1-(1-phenyl-1H-imidazol-2-yl)butane-1,4-dione
_symmetry_cell_setting           orthorhombic
_symmetry_space_group_name_H-M   'P 21 21 21'
_symmetry_Int_Tables_number      19
_space_group_name_Hall           'P 2ac 2ab'
loop_
_symmetry_equiv_pos_site_id
_symmetry_equiv_pos_as_xyz
1 x,y,z
2 1/2-x,-y,1/2+z
3 -x,1/2+y,1/2-z
4 1/2+x,1/2-y,-z
_cell_length_a                   12.1520(2)
_cell_length_b                   12.7735(3)
_cell_length_c                   13.4315(2)
_cell_angle_alpha                90
_cell_angle_beta                 90
_cell_angle_gamma                90
_cell_volume                     2084.89
_exptl_crystal_colour            colorless
_exptl_crystal_description       nugget
_cell_formula_units_Z            4
loop_
_atom_site_label
_atom_site_type_symbol
_atom_site_fract_x
_atom_site_fract_y
_atom_site_fract_z
Br1 Br 0.11080(2) 0.60769(3) 0.91740(2)
O1 O 0.62521(14) 0.33086(13) 0.82673(12)
O2 O 0.66284(14) 0.32476(13) 0.58213(15)
N1 N 0.66111(16) 0.58812(15) 0.73152(14)
N2 N 0.78253(15) 0.50131(15) 0.82428(14)
C1 C 0.61071(19) 0.40573(16) 0.77281(15)
C2 C 0.51217(17) 0.41373(17) 0.70236(15)
H1 H 0.532328 0.461910 0.646587
C3 C 0.48731(18) 0.30595(17) 0.65831(16)
H2 H 0.482575 0.253517 0.712415
H3 H 0.415567 0.307731 0.623418
C4 C 0.57727(18) 0.27494(16) 0.58577(17)
C5 C 0.55838(19) 0.18468(18) 0.51684(17)
C6 C 0.6372(2) 0.16549(19) 0.44346(17)
H4 H 0.701104 0.208212 0.439692
C7 C 0.6229(2) 0.0846(2) 0.37622(18)
H5 H 0.676064 0.072382 0.325711
C8 C 0.5300(3) 0.0213(2) 0.3830(2)
H6 H 0.520229 -0.034486 0.337137
C9 C 0.4518(2) 0.0388(2) 0.4560(2)
H7 H 0.389008 -0.005228 0.460663
C10 C 0.4655(2) 0.12148(19) 0.52271(18)
H8 H 0.411369 0.134591 0.572178
C11 C 0.68470(18) 0.49728(18) 0.77365(16)
C12 C 0.7468(2) 0.65293(19) 0.75533(19)
H9 H 0.752871 0.724015 0.735282
C13 C 0.82227(19) 0.60075(18) 0.81210(18)
H10 H 0.889106 0.628091 0.837989
C14 C 0.84606(19) 0.41745(18) 0.86770(18)
C15 C 0.86364(19) 0.41583(19) 0.96981(17)
H11 H 0.829904 0.466267 1.011878
C16 C 0.9318(2) 0.3387(2) 1.00916(18)
H12 H 0.944142 0.335898 1.078945
C17 C 0.9816(2) 0.26601(19) 0.94743(19)
H13 H 1.029068 0.214303 0.974702
C18 C 0.9622(2) 0.2688(2) 0.8457(2)
H14 H 0.996122 0.218603 0.803482
C19 C 0.8937(2) 0.34441(18) 0.80508(17)
H15 H 0.879794 0.346017 0.735501
C20 C 0.41438(17) 0.46078(17) 0.75756(16)
C21 C 0.37025(18) 0.55525(18) 0.72517(17)
H16 H 0.402330 0.590053 0.669809
C22 C 0.27978(19) 0.59955(19) 0.77268(19)
H17 H 0.249786 0.664116 0.750422
C23 C 0.23468(19) 0.5475(2) 0.85286(18)
C24 C 0.2768(2) 0.4538(2) 0.88762(18)
H18 H 0.244409 0.419528 0.943127
C25 C 0.36769(19) 0.41093(19) 0.83941(18)
H19 H 0.398151 0.346950 0.862667
loop_
_geom_bond_atom_site_label_1
_geom_bond_atom_site_label_2
_geom_bond_site_symmetry_1
_geom_bond_site_symmetry_2
Br1 C23 1_555 1_555
O1 C1 1_555 1_555
O2 C4 1_555 1_555
N1 C11 1_555 1_555
N2 C11 1_555 1_555
C1 C2 1_555 1_555
C2 H1 1_555 1_555
C3 C2 1_555 1_555
H2 C3 1_555 1_555
H3 C3 1_555 1_555
C4 C3 1_555 1_555
C5 C4 1_555 1_555
C6 C5 1_555 1_555
H4 C6 1_555 1_555
C7 C6 1_555 1_555
H5 C7 1_555 1_555
C8 C7 1_555 1_555
H6 C8 1_555 1_555
C9 C8 1_555 1_555
H7 C9 1_555 1_555
C10 C5 1_555 1_555
H8 C10 1_555 1_555
C11 C1 1_555 1_555
C12 N1 1_555 1_555
H9 C12 1_555 1_555
C13 N2 1_555 1_555
H10 C13 1_555 1_555
C14 N2 1_555 1_555
C15 C14 1_555 1_555
H11 C15 1_555 1_555
C16 C15 1_555 1_555
H12 C16 1_555 1_555
C17 C16 1_555 1_555
H13 C17 1_555 1_555
C18 C17 1_555 1_555
H14 C18 1_555 1_555
C19 C14 1_555 1_555
H15 C19 1_555 1_555
C20 C2 1_555 1_555
C21 C20 1_555 1_555
H16 C21 1_555 1_555
C22 C21 1_555 1_555
H17 C22 1_555 1_555
C23 C22 1_555 1_555
C24 C23 1_555 1_555
H18 C24 1_555 1_555
C25 C20 1_555 1_555
H19 C25 1_555 1_555
C9 C10 1_555 1_555
C12 C13 1_555 1_555
C18 C19 1_555 1_555
C24 C25 1_555 1_555

#END
