
#######################################################################
#
#                 Cambridge Crystallographic Data Centre
#                                CCDC 
#
#######################################################################
#
# If this CIF has been generated from an entry in the Cambridge 
# Structural Database, then it will include bibliographic, chemical, 
# crystal, experimental, refinement or atomic coordinate data resulting 
# from the CCDC's data processing and validation procedures.
#
#######################################################################

data_SIYQAV
_chemical_formula_moiety         'C22 H19 Br1 N2 O4'
_chemical_name_systematic        
'methyl 4-(4-bromophenyl)-2-methyl-4-oxo-2-(1-phenyl-1H-imidazole-2-carbonyl)butanoate'
_symmetry_cell_setting           orthorhombic
_symmetry_space_group_name_H-M   'P 21 21 21'
_symmetry_Int_Tables_number      19
_space_group_name_Hall           'P 2ac 2ab'
loop_
_symmetry_equiv_pos_site_id
_symmetry_equiv_pos_as_xyz
1 x,y,z
2 1/2-x,-y,1/2+z
3 -x,1/2+y,1/2-z
4 1/2+x,1/2-y,-z
_cell_length_a                   7.0991(3)
_cell_length_b                   14.6639(9)
_cell_length_c                   19.2121(9)
_cell_angle_alpha                90
_cell_angle_beta                 90
_cell_angle_gamma                90
_cell_volume                     1999.99
_exptl_crystal_colour            colorless
_exptl_crystal_description       needle
_cell_formula_units_Z            4
loop_
_atom_site_label
_atom_site_type_symbol
_atom_site_fract_x
_atom_site_fract_y
_atom_site_fract_z
Br1 Br 0.64051(9) 0.91830(4) 0.59967(3)
C1 C 0.7480(7) 0.5068(3) 0.2329(3)
O1 O 0.8095(6) 0.4666(2) 0.2812(2)
C2 C 0.6006(6) 0.5840(4) 0.2379(2)
O2 O 0.7921(5) 0.4864(2) 0.16669(18)
C3 C 0.6431(8) 0.6301(3) 0.3084(2)
H1 H 0.598617 0.589371 0.346097
H2 H 0.781392 0.636048 0.313316
O3 O 0.4733(5) 0.7623(2) 0.27222(18)
O4 O 0.4989(5) 0.6481(2) 0.12901(18)
C4 C 0.5560(7) 0.7224(3) 0.3187(2)
C5 C 0.5838(6) 0.7671(3) 0.3876(2)
C6 C 0.6492(8) 0.7205(3) 0.4459(2)
H3 H 0.681879 0.657795 0.442429
C7 C 0.6668(7) 0.7655(4) 0.5088(3)
H4 H 0.710343 0.733584 0.548740
C8 C 0.6206(7) 0.8576(4) 0.5138(2)
C9 C 0.5570(7) 0.9057(4) 0.4561(3)
H5 H 0.526908 0.968708 0.459529
C10 C 0.5384(7) 0.8597(3) 0.3936(3)
H6 H 0.493921 0.891606 0.353895
C11 C 0.4019(7) 0.5415(3) 0.2380(3)
H7 H 0.310033 0.586994 0.253531
H8 H 0.399577 0.489082 0.269618
H9 H 0.369851 0.521301 0.190795
C12 C 0.6169(7) 0.6479(3) 0.1739(2)
C13 C 0.7890(7) 0.7036(3) 0.1703(2)
N1 N 0.9430(6) 0.6875(3) 0.2070(2)
C14 C 1.0705(8) 0.7510(4) 0.1859(3)
H10 H 1.195227 0.756266 0.203320
C15 C 0.9942(8) 0.8060(4) 0.1364(3)
H11 H 1.054530 0.855260 0.113308
N2 N 0.8132(6) 0.7763(3) 0.1263(2)
C16 C 0.6823(7) 0.8215(3) 0.0804(2)
C17 C 0.5215(7) 0.8619(3) 0.1077(3)
H12 H 0.492243 0.855477 0.155677
C18 C 0.4041(7) 0.9117(3) 0.0643(3)
H13 H 0.294036 0.939522 0.082744
C19 C 0.4467(7) 0.9211(4) -0.0060(3)
H14 H 0.365684 0.954792 -0.035740
C20 C 0.6098(8) 0.8804(4) -0.0324(3)
H15 H 0.640261 0.886925 -0.080282
C21 C 0.7275(8) 0.8306(3) 0.0111(3)
H16 H 0.838363 0.803033 -0.006867
C22 C 0.9326(8) 0.4143(4) 0.1596(3)
H17 H 0.973239 0.410338 0.110937
H18 H 0.877445 0.355968 0.173893
H19 H 1.041307 0.428194 0.189169
loop_
_geom_bond_atom_site_label_1
_geom_bond_atom_site_label_2
_geom_bond_site_symmetry_1
_geom_bond_site_symmetry_2
Br1 C8 1_555 1_555
C1 O1 1_555 1_555
C2 C1 1_555 1_555
O2 C1 1_555 1_555
C3 C2 1_555 1_555
H1 C3 1_555 1_555
H2 C3 1_555 1_555
O3 C4 1_555 1_555
O4 C12 1_555 1_555
C4 C3 1_555 1_555
C5 C4 1_555 1_555
C6 C5 1_555 1_555
H3 C6 1_555 1_555
C7 C6 1_555 1_555
H4 C7 1_555 1_555
C8 C7 1_555 1_555
C9 C8 1_555 1_555
H5 C9 1_555 1_555
C10 C5 1_555 1_555
H6 C10 1_555 1_555
C11 C2 1_555 1_555
H7 C11 1_555 1_555
H8 C11 1_555 1_555
H9 C11 1_555 1_555
C12 C2 1_555 1_555
C13 C12 1_555 1_555
N1 C13 1_555 1_555
C14 N1 1_555 1_555
H10 C14 1_555 1_555
C15 C14 1_555 1_555
H11 C15 1_555 1_555
N2 C13 1_555 1_555
C16 N2 1_555 1_555
C17 C16 1_555 1_555
H12 C17 1_555 1_555
C18 C17 1_555 1_555
H13 C18 1_555 1_555
C19 C18 1_555 1_555
H14 C19 1_555 1_555
C20 C19 1_555 1_555
H15 C20 1_555 1_555
C21 C16 1_555 1_555
H16 C21 1_555 1_555
C22 O2 1_555 1_555
H17 C22 1_555 1_555
H18 C22 1_555 1_555
H19 C22 1_555 1_555
C9 C10 1_555 1_555
C15 N2 1_555 1_555
C20 C21 1_555 1_555

#END
