
#######################################################################
#
#                 Cambridge Crystallographic Data Centre
#                                CCDC 
#
#######################################################################
#
# If this CIF has been generated from an entry in the Cambridge 
# Structural Database, then it will include bibliographic, chemical, 
# crystal, experimental, refinement or atomic coordinate data resulting 
# from the CCDC's data processing and validation procedures.
#
#######################################################################

data_SIYZAC
_chemical_formula_moiety         'C19 H22 N2 O2'
_chemical_name_systematic        
1-(4-Isopropylphenyl)-5-(4-methoxyphenyl)pyrazolidin-3-one
_symmetry_cell_setting           monoclinic
_symmetry_space_group_name_H-M   'P 21/n'
_symmetry_Int_Tables_number      14
_space_group_name_Hall           '-P 2yn'
loop_
_symmetry_equiv_pos_site_id
_symmetry_equiv_pos_as_xyz
1 x,y,z
2 1/2-x,1/2+y,1/2-z
3 -x,-y,-z
4 1/2+x,1/2-y,1/2+z
_cell_length_a                   14.737(3)
_cell_length_b                   7.1490(14)
_cell_length_c                   17.493(4)
_cell_angle_alpha                90
_cell_angle_beta                 112.03(3)
_cell_angle_gamma                90
_cell_volume                     1708.41
_exptl_crystal_colour            colorless
_exptl_crystal_description       block
_chemical_melting_point          '435-437 K'
_cell_formula_units_Z            4
_exptl_crystal_recrystallization_method 'ethyl acetate'
loop_
_atom_site_label
_atom_site_type_symbol
_atom_site_fract_x
_atom_site_fract_y
_atom_site_fract_z
O1 O 0.52570(18) 0.7545(4) 1.04046(16)
N1 N 0.2835(2) 0.9106(4) 0.97974(18)
N2 N 0.3849(2) 0.9266(4) 0.99532(18)
H1 H 0.4104 1.0278 0.9859
C1 C 0.0956(5) 1.2768(9) 1.2266(4)
H2 H 0.0772 1.3608 1.2611
H3 H 0.1383 1.1821 1.2601
H4 H 0.0380 1.2191 1.1876
O2 O 0.0840(2) 0.3384(4) 0.67816(16)
C2 C 0.0897(4) 1.5470(7) 1.1350(3)
H5 H 0.0705 1.6238 1.1714
H6 H 0.0323 1.5035 1.0906
H7 H 0.1294 1.6189 1.1131
C3 C 0.1471(4) 1.3827(7) 1.1817(3)
H8 H 0.2057 1.4352 1.2244
C4 C 0.1840(3) 1.2577(6) 1.1290(3)
C5 C 0.1216(3) 1.1481(7) 1.0656(3)
H9 H 0.0549 1.1507 1.0548
C6 C 0.1557(3) 1.0349(6) 1.0180(3)
H10 H 0.1116 0.9649 0.9754
C7 C 0.2539(3) 1.0251(5) 1.0332(2)
C8 C 0.3165(3) 1.1359(5) 1.0951(2)
H11 H 0.3831 1.1348 1.1053
C9 C 0.2817(3) 1.2487(6) 1.1424(3)
H12 H 0.3257 1.3203 1.1843
C10 C 0.2671(3) 0.7054(5) 0.9853(2)
H13 H 0.2251 0.6878 1.0169
C11 C 0.3691(3) 0.6265(5) 1.0361(2)
H14 H 0.3780 0.6123 1.0936
H15 H 0.3792 0.5064 1.0147
C12 C 0.4378(3) 0.7731(5) 1.0257(2)
C13 C 0.2185(3) 0.6143(5) 0.9026(2)
C14 C 0.1919(3) 0.7046(6) 0.8282(2)
H16 H 0.2044 0.8320 0.8274
C15 C 0.1471(3) 0.6114(6) 0.7545(2)
H17 H 0.1289 0.6768 0.7050
C16 C 0.1289(3) 0.4205(6) 0.7537(2)
C17 C 0.1560(3) 0.3291(6) 0.8282(2)
H18 H 0.1439 0.2017 0.8292
C18 C 0.2002(3) 0.4224(5) 0.9003(2)
H19 H 0.2188 0.3565 0.9497
C19 C 0.0726(3) 0.1427(6) 0.6765(3)
H20 H 0.0399 0.1019 0.6206
H21 H 0.0344 0.1084 0.7083
H22 H 0.1358 0.0845 0.6996
loop_
_geom_bond_atom_site_label_1
_geom_bond_atom_site_label_2
_geom_bond_site_symmetry_1
_geom_bond_site_symmetry_2
O1 C12 1_555 1_555
N1 N2 1_555 1_555
N2 H1 1_555 1_555
C1 H2 1_555 1_555
H3 C1 1_555 1_555
H4 C1 1_555 1_555
O2 C16 1_555 1_555
C2 H5 1_555 1_555
H6 C2 1_555 1_555
H7 C2 1_555 1_555
C3 C1 1_555 1_555
H8 C3 1_555 1_555
C4 C3 1_555 1_555
C5 C4 1_555 1_555
H9 C5 1_555 1_555
C6 C5 1_555 1_555
H10 C6 1_555 1_555
C7 N1 1_555 1_555
C8 C7 1_555 1_555
H11 C8 1_555 1_555
C9 C4 1_555 1_555
H12 C9 1_555 1_555
C10 N1 1_555 1_555
H13 C10 1_555 1_555
C11 C10 1_555 1_555
H14 C11 1_555 1_555
H15 C11 1_555 1_555
C12 N2 1_555 1_555
C13 C10 1_555 1_555
C14 C13 1_555 1_555
H16 C14 1_555 1_555
C15 C14 1_555 1_555
H17 C15 1_555 1_555
C16 C15 1_555 1_555
C17 C16 1_555 1_555
H18 C17 1_555 1_555
C18 C13 1_555 1_555
H19 C18 1_555 1_555
C19 O2 1_555 1_555
H20 C19 1_555 1_555
H21 C19 1_555 1_555
H22 C19 1_555 1_555
C2 C3 1_555 1_555
C6 C7 1_555 1_555
C8 C9 1_555 1_555
C11 C12 1_555 1_555
C17 C18 1_555 1_555

#END
