
#######################################################################
#
#                 Cambridge Crystallographic Data Centre
#                                CCDC 
#
#######################################################################
#
# If this CIF has been generated from an entry in the Cambridge 
# Structural Database, then it will include bibliographic, chemical, 
# crystal, experimental, refinement or atomic coordinate data resulting 
# from the CCDC's data processing and validation procedures.
#
#######################################################################

data_SIZDAJ
_chemical_formula_moiety         'C14 H7 F2 N1 O2'
_chemical_name_systematic        
6,8-difluoro-2-(pyridin-2-yl)-4H-1-benzopyran-4-one
_symmetry_cell_setting           orthorhombic
_symmetry_space_group_name_H-M   'P c a 21'
_symmetry_Int_Tables_number      29
_space_group_name_Hall           'P 2c -2ac'
loop_
_symmetry_equiv_pos_site_id
_symmetry_equiv_pos_as_xyz
1 x,y,z
2 -x,-y,1/2+z
3 1/2-x,y,1/2+z
4 1/2+x,-y,z
_cell_length_a                   24.8334(13)
_cell_length_b                   5.7013(3)
_cell_length_c                   7.5769(4)
_cell_angle_alpha                90
_cell_angle_beta                 90
_cell_angle_gamma                90
_cell_volume                     1072.76
_exptl_crystal_colour            colorless
_exptl_crystal_description       Tabular
_cell_formula_units_Z            4
loop_
_atom_site_label
_atom_site_type_symbol
_atom_site_fract_x
_atom_site_fract_y
_atom_site_fract_z
F1 F 0.82842(5) 0.3693(3) 0.3381(2)
F2 F 0.68152(5) -0.0878(2) 0.15763(18)
O1 O 0.61207(6) 0.2081(3) 0.3054(2)
O2 O 0.66157(7) 0.8095(3) 0.5489(2)
N1 N 0.48349(7) 0.4035(3) 0.4535(3)
C1 C 0.77430(8) 0.3376(4) 0.3305(3)
C2 C 0.75593(9) 0.1355(4) 0.2470(3)
H1 H 0.7802 0.0252 0.1971
C3 C 0.70177(9) 0.1024(4) 0.2399(3)
C4 C 0.66564(8) 0.2610(4) 0.3159(3)
C5 C 0.57632(9) 0.3539(4) 0.3872(3)
C6 C 0.52049(8) 0.2632(4) 0.3790(3)
C7 C 0.43267(9) 0.3262(5) 0.4531(3)
H2 H 0.4058 0.4231 0.5045
C8 C 0.41695(9) 0.1130(4) 0.3823(3)
H3 H 0.3803 0.0655 0.3852
C9 C 0.59106(9) 0.5526(4) 0.4687(3)
H4 H 0.5642 0.6477 0.5220
C10 C 0.64672(8) 0.6258(4) 0.4779(3)
C11 C 0.68545(9) 0.4618(4) 0.3973(3)
C12 C 0.74116(9) 0.5013(4) 0.4036(3)
H5 H 0.7554 0.6385 0.4574
C13 C 0.45550(9) -0.0281(4) 0.3077(3)
H6 H 0.4459 -0.1757 0.2587
C14 C 0.50869(9) 0.0475(4) 0.3049(3)
H7 H 0.5362 -0.0463 0.2536
loop_
_geom_bond_atom_site_label_1
_geom_bond_atom_site_label_2
_geom_bond_site_symmetry_1
_geom_bond_site_symmetry_2
F1 C1 1_555 1_555
F2 C3 1_555 1_555
O1 C4 1_555 1_555
O2 C10 1_555 1_555
N1 C6 1_555 1_555
C1 C2 1_555 1_555
C2 H1 1_555 1_555
C3 C2 1_555 1_555
C4 C3 1_555 1_555
C5 O1 1_555 1_555
C6 C5 1_555 1_555
C7 N1 1_555 1_555
H2 C7 1_555 1_555
C8 C7 1_555 1_555
H3 C8 1_555 1_555
C9 C5 1_555 1_555
H4 C9 1_555 1_555
C10 C9 1_555 1_555
C11 C4 1_555 1_555
C12 C1 1_555 1_555
H5 C12 1_555 1_555
C13 C8 1_555 1_555
H6 C13 1_555 1_555
C14 C6 1_555 1_555
H7 C14 1_555 1_555
C10 C11 1_555 1_555
C11 C12 1_555 1_555
C13 C14 1_555 1_555

#END
