
#######################################################################
#
#                 Cambridge Crystallographic Data Centre
#                                CCDC 
#
#######################################################################
#
# If this CIF has been generated from an entry in the Cambridge 
# Structural Database, then it will include bibliographic, chemical, 
# crystal, experimental, refinement or atomic coordinate data resulting 
# from the CCDC's data processing and validation procedures.
#
#######################################################################

data_SIZDOX
_chemical_formula_moiety         'C18 H10 F1 N1 O2'
_chemical_name_systematic        
5-fluoro-2-[(quinolin-2-yl)methylidene]-1-benzofuran-3(2H)-one
_symmetry_cell_setting           monoclinic
_symmetry_space_group_name_H-M   'P 21/c'
_symmetry_Int_Tables_number      14
_space_group_name_Hall           '-P 2ybc'
loop_
_symmetry_equiv_pos_site_id
_symmetry_equiv_pos_as_xyz
1 x,y,z
2 -x,1/2+y,1/2-z
3 -x,-y,-z
4 x,1/2-y,1/2+z
_cell_length_a                   12.5941(15)
_cell_length_b                   14.2233(18)
_cell_length_c                   7.5547(9)
_cell_angle_alpha                90
_cell_angle_beta                 104.868(3)
_cell_angle_gamma                90
_cell_volume                     1307.96
_exptl_crystal_colour            colorless
_cell_formula_units_Z            4
loop_
_atom_site_label
_atom_site_type_symbol
_atom_site_fract_x
_atom_site_fract_y
_atom_site_fract_z
F1 F 1.00730(12) 0.13473(13) 0.0675(2)
O1 O 0.64184(13) 0.13454(13) 0.3250(2)
O2 O 0.85870(13) 0.03692(14) 0.6681(2)
N1 N 0.47665(15) 0.08555(15) 0.7616(3)
C1 C 0.8188(2) 0.16797(19) 0.0142(3)
H1 H 0.8187 0.1904 -0.1043
C2 C 0.7226(2) 0.16989(18) 0.0715(3)
H2 H 0.6557 0.1933 -0.0047
C3 C 0.72920(18) 0.13581(18) 0.2457(3)
C4 C 0.68038(18) 0.09561(18) 0.4984(3)
C5 C 0.62222(18) 0.08378(18) 0.6207(3)
H3 H 0.6613 0.0555 0.7324
C6 C 0.50749(18) 0.10740(18) 0.6113(3)
C7 C 0.37045(18) 0.10370(18) 0.7644(3)
C8 C 0.29328(18) 0.14445(18) 0.6127(3)
C9 C 0.18391(19) 0.16000(18) 0.6251(3)
H4 H 0.1319 0.1883 0.5257
C10 C 0.1530(2) 0.13462(19) 0.7791(4)
H5 H 0.0792 0.1438 0.7846
C11 C 0.9158(2) 0.13324(19) 0.1297(3)
C12 C 0.79996(18) 0.07148(19) 0.5289(3)
C13 C 0.82579(19) 0.10015(18) 0.3588(3)
C14 C 0.92225(19) 0.09769(19) 0.3015(3)
H6 H 0.9887 0.0729 0.3765
C15 C 0.23025(19) 0.09463(18) 0.9305(3)
H7 H 0.2081 0.0782 1.0376
C16 C 0.33648(19) 0.07949(19) 0.9240(3)
H8 H 0.3876 0.0527 1.0264
C17 C 0.32954(19) 0.16667(18) 0.4555(3)
H9 H 0.2802 0.1942 0.3520
C18 C 0.43586(19) 0.14850(18) 0.4526(3)
H10 H 0.4613 0.1629 0.3477
loop_
_geom_bond_atom_site_label_1
_geom_bond_atom_site_label_2
_geom_bond_site_symmetry_1
_geom_bond_site_symmetry_2
F1 C11 1_555 1_555
O1 C3 1_555 1_555
O2 C12 1_555 1_555
N1 C6 1_555 1_555
C1 H1 1_555 1_555
C2 C1 1_555 1_555
H2 C2 1_555 1_555
C3 C2 1_555 1_555
C4 O1 1_555 1_555
C5 C4 1_555 1_555
H3 C5 1_555 1_555
C6 C5 1_555 1_555
C7 N1 1_555 1_555
C8 C7 1_555 1_555
C9 C8 1_555 1_555
H4 C9 1_555 1_555
C10 C9 1_555 1_555
H5 C10 1_555 1_555
C11 C1 1_555 1_555
C12 C4 1_555 1_555
C13 C3 1_555 1_555
C14 C11 1_555 1_555
H6 C14 1_555 1_555
C15 C10 1_555 1_555
H7 C15 1_555 1_555
C16 C7 1_555 1_555
H8 C16 1_555 1_555
C17 C8 1_555 1_555
H9 C17 1_555 1_555
C18 C6 1_555 1_555
H10 C18 1_555 1_555
C12 C13 1_555 1_555
C13 C14 1_555 1_555
C15 C16 1_555 1_555
C17 C18 1_555 1_555

#END
