
#######################################################################
#
#                 Cambridge Crystallographic Data Centre
#                                CCDC 
#
#######################################################################
#
# If this CIF has been generated from an entry in the Cambridge 
# Structural Database, then it will include bibliographic, chemical, 
# crystal, experimental, refinement or atomic coordinate data resulting 
# from the CCDC's data processing and validation procedures.
#
#######################################################################

data_SIZDIR
_chemical_formula_moiety         'C25 H24 O5 S1'
_chemical_name_systematic        
9,10-dimethoxy-13-[(4-methylphenyl)sulfonyl]-7,12-dihydro-6H-6,12-methanodibenzo[b,e]oxocine
_symmetry_cell_setting           monoclinic
_symmetry_space_group_name_H-M   'P 21/c'
_symmetry_Int_Tables_number      14
_space_group_name_Hall           '-P 2ybc'
loop_
_symmetry_equiv_pos_site_id
_symmetry_equiv_pos_as_xyz
1 x,y,z
2 -x,1/2+y,1/2-z
3 -x,-y,-z
4 x,1/2-y,1/2+z
_cell_length_a                   12.756(4)
_cell_length_b                   8.772(3)
_cell_length_c                   19.326(6)
_cell_angle_alpha                90
_cell_angle_beta                 106.925(13)
_cell_angle_gamma                90
_cell_volume                     2068.83
_exptl_crystal_colour            colorless
_exptl_crystal_description       Columnar
_cell_formula_units_Z            4
loop_
_atom_site_label
_atom_site_type_symbol
_atom_site_fract_x
_atom_site_fract_y
_atom_site_fract_z
C1 C 0.14323(14) 0.5372(2) 0.62159(10)
H1 H 0.0644 0.5125 0.6150
C2 C 0.19217(15) 0.3992(2) 0.59397(10)
H2 H 0.1604 0.3940 0.5402
C3 C 0.16034(15) 0.2540(2) 0.62665(10)
H3 H 0.0867 0.2217 0.5967
H4 H 0.2126 0.1723 0.6240
C4 C 0.15838(14) 0.2684(2) 0.70491(10)
C5 C 0.13906(14) 0.1371(2) 0.74116(10)
H5 H 0.1317 0.0411 0.7175
C6 C 0.13067(14) 0.1461(2) 0.81101(10)
C7 C 0.13954(14) 0.2881(2) 0.84625(10)
C8 C 0.15961(14) 0.4165(2) 0.81053(10)
H6 H 0.1667 0.5127 0.8340
C9 C 0.16964(14) 0.4070(2) 0.73999(10)
C10 C 0.19751(15) 0.5492(2) 0.70356(10)
H7 H 0.1695 0.6416 0.7228
C11 C 0.32129(15) 0.5619(2) 0.71813(10)
C12 C 0.38947(16) 0.6382(2) 0.77761(11)
H8 H 0.3581 0.6852 0.8112
C13 C 0.50185(17) 0.6473(3) 0.78912(12)
H9 H 0.5469 0.6972 0.8309
C14 C 0.54813(17) 0.5827(3) 0.73904(12)
H10 H 0.6246 0.5916 0.7456
C15 C 0.48247(16) 0.5056(2) 0.67964(12)
H11 H 0.5139 0.4617 0.6453
C16 C 0.36981(15) 0.4921(2) 0.67013(10)
C17 C 0.11858(16) -0.1234(2) 0.82074(11)
H12 H 0.0619 -0.1319 0.7741
H13 H 0.1066 -0.2016 0.8539
H14 H 0.1909 -0.1379 0.8136
C18 C 0.12283(17) 0.4327(2) 0.94679(11)
H15 H 0.1931 0.4854 0.9546
H16 H 0.1076 0.4186 0.9933
H17 H 0.0643 0.4938 0.9146
C19 C 0.27392(15) 0.7349(2) 0.55587(10)
C20 C 0.35220(16) 0.8308(2) 0.59943(11)
H18 H 0.3369 0.8859 0.6377
C21 C 0.45385(17) 0.8455(2) 0.58638(11)
H19 H 0.5075 0.9113 0.6161
C22 C 0.47802(17) 0.7656(2) 0.53065(11)
C23 C 0.39714(17) 0.6714(3) 0.48724(11)
H20 H 0.4119 0.6171 0.4486
C24 C 0.29510(16) 0.6552(2) 0.49927(10)
H21 H 0.2409 0.5906 0.4692
C25 C 0.59031(19) 0.7792(3) 0.51895(14)
H22 H 0.5982 0.8805 0.4997
H23 H 0.5981 0.7012 0.4845
H24 H 0.6471 0.7647 0.5651
O1 O 0.06441(11) 0.69145(17) 0.50243(7)
O2 O 0.13170(11) 0.83564(16) 0.61839(7)
O3 O 0.11323(11) 0.02385(15) 0.85079(7)
O4 O 0.12785(11) 0.28742(15) 0.91453(7)
O5 O 0.31116(10) 0.40987(16) 0.61088(7)
S1 S 0.14473(4) 0.71215(6) 0.57233(2)
loop_
_geom_bond_atom_site_label_1
_geom_bond_atom_site_label_2
_geom_bond_site_symmetry_1
_geom_bond_site_symmetry_2
C1 H1 1_555 1_555
C2 C1 1_555 1_555
H2 C2 1_555 1_555
C3 C2 1_555 1_555
H3 C3 1_555 1_555
H4 C3 1_555 1_555
C4 C3 1_555 1_555
C5 C4 1_555 1_555
H5 C5 1_555 1_555
C6 C5 1_555 1_555
C7 C6 1_555 1_555
C8 C7 1_555 1_555
H6 C8 1_555 1_555
C9 C4 1_555 1_555
C10 C1 1_555 1_555
H7 C10 1_555 1_555
C11 C10 1_555 1_555
C12 C11 1_555 1_555
H8 C12 1_555 1_555
C13 C12 1_555 1_555
H9 C13 1_555 1_555
C14 C13 1_555 1_555
H10 C14 1_555 1_555
C15 C14 1_555 1_555
H11 C15 1_555 1_555
C16 C11 1_555 1_555
C17 H12 1_555 1_555
H13 C17 1_555 1_555
H14 C17 1_555 1_555
C18 H15 1_555 1_555
H16 C18 1_555 1_555
H17 C18 1_555 1_555
C19 C20 1_555 1_555
C20 H18 1_555 1_555
C21 C20 1_555 1_555
H19 C21 1_555 1_555
C22 C21 1_555 1_555
C23 C22 1_555 1_555
H20 C23 1_555 1_555
C24 C19 1_555 1_555
H21 C24 1_555 1_555
C25 C22 1_555 1_555
H22 C25 1_555 1_555
H23 C25 1_555 1_555
H24 C25 1_555 1_555
O1 S1 1_555 1_555
O2 S1 1_555 1_555
O3 C6 1_555 1_555
O4 C7 1_555 1_555
O5 C2 1_555 1_555
S1 C1 1_555 1_555
C8 C9 1_555 1_555
C9 C10 1_555 1_555
C15 C16 1_555 1_555
C16 O5 1_555 1_555
C17 O3 1_555 1_555
C18 O4 1_555 1_555
C19 S1 1_555 1_555
C23 C24 1_555 1_555

#END
