
#######################################################################
#
#                 Cambridge Crystallographic Data Centre
#                                CCDC 
#
#######################################################################
#
# If this CIF has been generated from an entry in the Cambridge 
# Structural Database, then it will include bibliographic, chemical, 
# crystal, experimental, refinement or atomic coordinate data resulting 
# from the CCDC's data processing and validation procedures.
#
#######################################################################

data_SIZFAL
_chemical_formula_moiety         'C27 H22 O3 S1'
_chemical_name_systematic        
15-[(4-methylphenyl)sulfonyl]-7,14-dihydro-8H-8,14-methanobenzo[b]naphtho[2,1-e]oxocine
_symmetry_cell_setting           triclinic
_symmetry_space_group_name_H-M   'P -1'
_symmetry_Int_Tables_number      2
_space_group_name_Hall           '-P 1'
loop_
_symmetry_equiv_pos_site_id
_symmetry_equiv_pos_as_xyz
1 x,y,z
2 -x,-y,-z
_cell_length_a                   8.5240(16)
_cell_length_b                   10.785(2)
_cell_length_c                   12.112(2)
_cell_angle_alpha                110.385(6)
_cell_angle_beta                 97.830(6)
_cell_angle_gamma                98.906(6)
_cell_volume                     1009.18
_exptl_crystal_colour            colorless
_exptl_crystal_description       Tabular
_cell_formula_units_Z            2
loop_
_atom_site_label
_atom_site_type_symbol
_atom_site_fract_x
_atom_site_fract_y
_atom_site_fract_z
C1 C 0.4309(3) 0.0798(3) 0.8201(2)
C2 C 0.3012(4) -0.0185(3) 0.8137(3)
H1 H 0.2506 -0.0898 0.7390
C3 C 0.2458(4) -0.0118(3) 0.9176(3)
H2 H 0.1560 -0.0786 0.9137
C4 C 0.3205(4) 0.0918(3) 1.0276(3)
C5 C 0.4541(4) 0.1848(3) 1.0323(3)
H3 H 0.5088 0.2531 1.1077
C6 C 0.5106(4) 0.1806(3) 0.9293(2)
H4 H 0.6023 0.2459 0.9336
C7 C 0.2556(4) 0.1033(4) 1.1401(3)
H5 H 0.3465 0.1279 1.2083
H6 H 0.1869 0.0161 1.1283
H7 H 0.1915 0.1733 1.1567
C8 C 0.3890(3) 0.1732(2) 0.6216(2)
H8 H 0.4413 0.1765 0.5534
C9 C 0.4031(3) 0.3213(2) 0.7027(2)
H9 H 0.5175 0.3634 0.7478
C10 C 0.3510(3) 0.3953(3) 0.6213(2)
C11 C 0.4282(3) 0.5316(3) 0.6514(2)
H10 H 0.5155 0.5743 0.7191
C12 C 0.3795(4) 0.6031(3) 0.5848(2)
H11 H 0.4320 0.6952 0.6072
C13 C 0.2516(3) 0.5411(3) 0.4828(2)
C14 C 0.2009(4) 0.6114(3) 0.4093(3)
H12 H 0.2532 0.7032 0.4298
C15 C 0.0790(4) 0.5498(3) 0.3101(3)
H13 H 0.0474 0.5981 0.2617
C16 C 0.0001(4) 0.4145(3) 0.2798(3)
H14 H -0.0866 0.3722 0.2116
C17 C 0.0465(3) 0.3428(3) 0.3474(2)
H15 H -0.0076 0.2511 0.3247
C18 C 0.1736(3) 0.4030(3) 0.4506(2)
C19 C 0.2262(3) 0.3307(3) 0.5233(2)
C20 C 0.1459(4) 0.1827(3) 0.4864(2)
H16 H 0.1574 0.1333 0.4031
H17 H 0.0285 0.1760 0.4852
C21 C 0.2115(3) 0.1103(3) 0.5662(2)
H18 H 0.2028 0.0137 0.5134
C22 C 0.2890(3) 0.3284(3) 0.7901(2)
C23 C 0.1548(3) 0.2255(3) 0.7620(2)
C24 C 0.0500(4) 0.2283(3) 0.8413(3)
H19 H -0.0409 0.1557 0.8216
C25 C 0.0803(4) 0.3385(3) 0.9494(3)
H20 H 0.0102 0.3410 1.0044
C26 C 0.2117(4) 0.4445(3) 0.9775(2)
H21 H 0.2312 0.5204 1.0512
C27 C 0.3149(3) 0.4399(3) 0.8981(2)
H22 H 0.4045 0.5134 0.9173
O1 O 0.6638(2) 0.1438(2) 0.71999(19)
O2 O 0.4485(3) -0.06246(19) 0.60272(18)
O3 O 0.1173(2) 0.11132(18) 0.65703(17)
S1 S 0.49621(9) 0.07642(7) 0.68773(6)
loop_
_geom_bond_atom_site_label_1
_geom_bond_atom_site_label_2
_geom_bond_site_symmetry_1
_geom_bond_site_symmetry_2
C1 C2 1_555 1_555
C2 H1 1_555 1_555
C3 C2 1_555 1_555
H2 C3 1_555 1_555
C4 C3 1_555 1_555
C5 C4 1_555 1_555
H3 C5 1_555 1_555
C6 C1 1_555 1_555
H4 C6 1_555 1_555
C7 C4 1_555 1_555
H5 C7 1_555 1_555
H6 C7 1_555 1_555
H7 C7 1_555 1_555
C8 H8 1_555 1_555
C9 C8 1_555 1_555
H9 C9 1_555 1_555
C10 C9 1_555 1_555
C11 C10 1_555 1_555
H10 C11 1_555 1_555
C12 C11 1_555 1_555
H11 C12 1_555 1_555
C13 C12 1_555 1_555
C14 C13 1_555 1_555
H12 C14 1_555 1_555
C15 C14 1_555 1_555
H13 C15 1_555 1_555
C16 C15 1_555 1_555
H14 C16 1_555 1_555
C17 C16 1_555 1_555
H15 C17 1_555 1_555
C18 C13 1_555 1_555
C19 C10 1_555 1_555
C20 C19 1_555 1_555
H16 C20 1_555 1_555
H17 C20 1_555 1_555
C21 C8 1_555 1_555
H18 C21 1_555 1_555
C22 C9 1_555 1_555
C23 C22 1_555 1_555
C24 C23 1_555 1_555
H19 C24 1_555 1_555
C25 C24 1_555 1_555
H20 C25 1_555 1_555
C26 C25 1_555 1_555
H21 C26 1_555 1_555
C27 C22 1_555 1_555
H22 C27 1_555 1_555
O1 S1 1_555 1_555
O2 S1 1_555 1_555
O3 C21 1_555 1_555
S1 C1 1_555 1_555
C5 C6 1_555 1_555
C8 S1 1_555 1_555
C17 C18 1_555 1_555
C18 C19 1_555 1_555
C20 C21 1_555 1_555
C23 O3 1_555 1_555
C26 C27 1_555 1_555

#END
