
#######################################################################
#
#                 Cambridge Crystallographic Data Centre
#                                CCDC 
#
#######################################################################
#
# If this CIF has been generated from an entry in the Cambridge 
# Structural Database, then it will include bibliographic, chemical, 
# crystal, experimental, refinement or atomic coordinate data resulting 
# from the CCDC's data processing and validation procedures.
#
#######################################################################

data_SIZGAM
_chemical_formula_moiety         
'C42 H6 F20 N4 O4,0.397(C6 H14),1.206(C1 H2 Cl2)'
_chemical_name_systematic        
'2,7,12,17-tetrakis(pentafluorophenyl)-4,9-dioxa-21,22,23,24-tetra-azapentacyclo[16.2.1.1^3,6^.1^8,11^.1^13,16^]tetracosa-1,3(24),6,8(23),11,13,15,17,19-nonaene-5,10-dione dichloromethane n-hexane solvate'
_symmetry_cell_setting           orthorhombic
_symmetry_space_group_name_H-M   'F d d 2'
_symmetry_Int_Tables_number      43
_space_group_name_Hall           'F 2 -2d'
loop_
_symmetry_equiv_pos_site_id
_symmetry_equiv_pos_as_xyz
1 x,y,z
2 -x,-y,z
3 1/4+x,1/4-y,1/4+z
4 1/4-x,1/4+y,1/4+z
5 x,1/2+y,1/2+z
6 -x,1/2-y,1/2+z
7 1/4+x,3/4-y,3/4+z
8 1/4-x,3/4+y,3/4+z
9 1/2+x,y,1/2+z
10 1/2-x,-y,1/2+z
11 3/4+x,1/4-y,3/4+z
12 3/4-x,1/4+y,3/4+z
13 1/2+x,1/2+y,z
14 1/2-x,1/2-y,z
15 3/4+x,3/4-y,1/4+z
16 3/4-x,3/4+y,1/4+z
_cell_length_a                   28.859(2)
_cell_length_b                   49.537(3)
_cell_length_c                   12.0811(7)
_cell_angle_alpha                90
_cell_angle_beta                 90
_cell_angle_gamma                90
_cell_volume                     17271
_exptl_crystal_colour            black
_exptl_crystal_description       block
_cell_formula_units_Z            16
loop_
_atom_site_label
_atom_site_type_symbol
_atom_site_fract_x
_atom_site_fract_y
_atom_site_fract_z
C1 C -0.1246(2) -0.27230(11) 1.1800(6)
C2 C -0.1345(2) -0.25301(12) 1.0899(6)
C3 C -0.1575(2) -0.29478(11) 1.0507(6)
C4 C -0.1792(2) -0.31398(13) 0.9818(6)
C5 C -0.1808(2) -0.34121(13) 1.0058(5)
C6 C -0.2047(2) -0.36156(14) 0.9360(7)
C7 C -0.1683(2) -0.38061(12) 1.0759(6)
C8 C -0.1539(2) -0.40191(12) 1.1432(6)
C9 C -0.1314(2) -0.39693(12) 1.2446(6)
C10 C -0.1135(3) -0.41614(13) 1.3208(7)
H1 H -0.113105 -0.435168 1.311177
C11 C -0.0971(2) -0.40242(13) 1.4097(6)
H2 H -0.083659 -0.410297 1.473748
C12 C -0.1035(2) -0.37420(12) 1.3912(6)
C13 C -0.0898(2) -0.35350(12) 1.4625(5)
C14 C -0.0908(2) -0.32557(12) 1.4464(6)
C15 C -0.0729(2) -0.30561(13) 1.5194(6)
H3 H -0.060090 -0.308954 1.590601
C16 C -0.0769(2) -0.28084(12) 1.4705(6)
H4 H -0.067647 -0.264061 1.501462
C17 C -0.0974(2) -0.28473(12) 1.3659(6)
C18 C -0.1056(2) -0.26563(11) 1.2811(5)
C19 C -0.2022(2) -0.30361(13) 0.8795(5)
C20 C -0.2473(3) -0.2930(3) 0.8860(9)
C21 C -0.2695(3) -0.2832(3) 0.7939(9)
C22 C -0.2478(4) -0.2837(3) 0.6932(10)
C23 C -0.2036(5) -0.2934(4) 0.6842(10)
C24 C -0.1812(6) -0.3025(8) 0.7771(10)
F1 F -0.2699(3) -0.2921(3) 0.9812(8)
F2 F -0.3124(3) -0.2724(3) 0.8017(8)
F3 F -0.2700(4) -0.2747(3) 0.6023(9)
F4 F -0.1817(6) -0.2925(5) 0.5863(11)
F5 F -0.1358(4) -0.3089(4) 0.7700(15)
C25 C -0.1633(2) -0.43034(12) 1.1071(6)
C26 C -0.1456(2) -0.44004(13) 1.0087(6)
C27 C -0.1534(2) -0.46638(14) 0.9739(6)
C28 C -0.1790(2) -0.48355(13) 1.0388(6)
C29 C -0.1975(2) -0.47423(13) 1.1370(7)
C30 C -0.1902(2) -0.44789(13) 1.1704(6)
F6 F -0.11888(17) -0.42434(9) 0.9454(4)
F7 F -0.13523(18) -0.47529(9) 0.8783(4)
F8 F -0.18505(16) -0.50921(8) 1.0078(4)
F9 F -0.22244(17) -0.49116(8) 1.2000(5)
F10 F -0.20894(16) -0.43958(8) 1.2651(4)
C31 C -0.0705(2) -0.36249(11) 1.5725(6)
C32 C -0.0242(2) -0.36949(14) 1.5846(6)
C33 C -0.0069(3) -0.37714(16) 1.6868(7)
C34 C -0.0349(3) -0.37759(14) 1.7782(6)
C35 C -0.0810(3) -0.37077(13) 1.7675(6)
C36 C -0.0983(2) -0.36361(13) 1.6661(6)
C37 C -0.0935(2) -0.23697(12) 1.3039(5)
C38 C -0.1202(2) -0.22071(13) 1.3727(6)
C39 C -0.1089(3) -0.19411(14) 1.3922(6)
C40 C -0.0701(3) -0.18309(13) 1.3459(6)
C41 C -0.0427(3) -0.19844(14) 1.2775(7)
C42 C -0.0544(2) -0.22529(13) 1.2565(6)
N1 N -0.13879(18) -0.29749(10) 1.1502(5)
N2 N -0.16025(19) -0.35438(10) 1.0918(5)
N3 N -0.1240(2) -0.37191(10) 1.2876(5)
H5 H -0.131118 -0.356604 1.254764
N4 N -0.10579(19) -0.31187(10) 1.3535(5)
H6 H -0.118710 -0.319390 1.295197
O1 O -0.12738(18) -0.22985(9) 1.0756(5)
O2 O -0.15635(16) -0.26867(9) 1.0094(4)
O3 O -0.2288(2) -0.36023(12) 0.8546(6)
O4 O -0.19533(18) -0.38626(10) 0.9845(5)
F11 F 0.00363(15) -0.36917(10) 1.4962(4)
F12 F 0.03816(18) -0.38363(13) 1.6962(5)
F13 F -0.0181(2) -0.38490(11) 1.8758(4)
F14 F -0.1090(2) -0.37154(10) 1.8556(4)
F15 F -0.14377(16) -0.35770(11) 1.6570(4)
F16 F -0.15847(15) -0.23115(9) 1.4182(4)
F17 F -0.1364(2) -0.17885(9) 1.4570(5)
F18 F -0.0589(2) -0.15738(8) 1.3643(4)
F19 F -0.00549(18) -0.18749(9) 1.2287(4)
F20 F -0.02786(14) -0.23951(8) 1.1881(4)
C48 C -0.0380(3) -0.33208(17) 1.0665(8)
H7 H -0.014964 -0.346218 1.048125
H8 H -0.066271 -0.341160 1.093997
Cl1 Cl -0.01546(9) -0.31128(6) 1.1715(3)
Cl2 Cl -0.05146(8) -0.31384(5) 0.9465(2)
C51 C -0.2449(7) -0.3097(3) 1.3191(19)
H13 H -0.278379 -0.312940 1.314270
H14 H -0.232532 -0.318655 1.385011
H15 H -0.229696 -0.316872 1.252921
C52 C -0.2360(5) -0.2794(3) 1.3271(13)
H16 H -0.251028 -0.272180 1.394576
H17 H -0.202230 -0.276128 1.333541
C53 C -0.2545(6) -0.2645(2) 1.2266(16)
H18 H -0.240391 -0.272500 1.159355
H19 H -0.288351 -0.267493 1.222136
C51M C -0.2551(7) -0.1903(3) 1.3191(19)
H13M H -0.221621 -0.187060 1.314270
H14M H -0.267468 -0.181345 1.385011
H15M H -0.270304 -0.183128 1.252921
C52M C -0.2640(5) -0.2206(3) 1.3271(13)
H16M H -0.248972 -0.227820 1.394576
H17M H -0.297770 -0.223872 1.333541
C53M C -0.2455(6) -0.2355(2) 1.2266(16)
H18M H -0.259609 -0.227500 1.159355
H19M H -0.211649 -0.232507 1.222136
C43? C -0.2492(7) -0.2994(11) 0.874(2)
C44? C -0.2689(9) -0.2929(11) 0.774(2)
C45? C -0.2445(11) -0.2916(12) 0.677(2)
C46? C -0.1983(13) -0.2983(15) 0.680(2)
C47? C -0.1783(18) -0.304(3) 0.780(3)
F21? F -0.2746(9) -0.3045(9) 0.962(2)
F22? F -0.3142(8) -0.2869(10) 0.776(3)
F23? F -0.2656(14) -0.2857(9) 0.581(3)
F24? F -0.1756(18) -0.2994(12) 0.583(3)
F25? F -0.1358(13) -0.3151(11) 0.776(4)
C49? C 0.0072(17) -0.323(2) 1.146(9)
H9? H 0.026758 -0.313616 1.201106
H10? H 0.027603 -0.334428 1.099279
Cl3? Cl -0.0340(12) -0.3436(8) 1.215(4)
Cl4? Cl -0.0224(12) -0.2994(7) 1.063(3)
C50? C -0.226(2) -0.2786(7) 1.307(5)
H11? H -0.236601 -0.273426 1.381567
H12? H -0.191464 -0.279889 1.308883
Cl5? Cl -0.2495(9) -0.3103(5) 1.2700(17)
Cl6? Cl -0.2425(6) -0.2537(4) 1.2101(13)
loop_
_geom_bond_atom_site_label_1
_geom_bond_atom_site_label_2
_geom_bond_site_symmetry_1
_geom_bond_site_symmetry_2
C1 C2 1_555 1_555
C2 O1 1_555 1_555
C3 C4 1_555 1_555
C4 C5 1_555 1_555
C5 C6 1_555 1_555
C6 O3 1_555 1_555
C7 C8 1_555 1_555
C8 C9 1_555 1_555
C9 C10 1_555 1_555
C10 H1 1_555 1_555
C11 C10 1_555 1_555
H2 C11 1_555 1_555
C12 C11 1_555 1_555
C13 C12 1_555 1_555
C14 C13 1_555 1_555
C15 C14 1_555 1_555
H3 C15 1_555 1_555
C16 C15 1_555 1_555
H4 C16 1_555 1_555
C17 C16 1_555 1_555
C18 C1 1_555 1_555
C19 C4 1_555 1_555
C20 C19 1_555 1_555
C21 C20 1_555 1_555
C22 C21 1_555 1_555
C23 C22 1_555 1_555
C24 C19 1_555 1_555
F1 C20 1_555 1_555
F2 C21 1_555 1_555
F3 C22 1_555 1_555
F4 C23 1_555 1_555
F5 C24 1_555 1_555
C25 C8 1_555 1_555
C26 C25 1_555 1_555
C27 C26 1_555 1_555
C28 C27 1_555 1_555
C29 C28 1_555 1_555
C30 C25 1_555 1_555
F6 C26 1_555 1_555
F7 C27 1_555 1_555
F8 C28 1_555 1_555
F9 C29 1_555 1_555
F10 C30 1_555 1_555
C31 C13 1_555 1_555
C32 C31 1_555 1_555
C33 C32 1_555 1_555
C34 C33 1_555 1_555
C35 C34 1_555 1_555
C36 C31 1_555 1_555
C37 C18 1_555 1_555
C38 C37 1_555 1_555
C39 C38 1_555 1_555
C40 C39 1_555 1_555
C41 C40 1_555 1_555
C42 C37 1_555 1_555
N1 C1 1_555 1_555
N2 C5 1_555 1_555
N3 C9 1_555 1_555
H5 N3 1_555 1_555
N4 C14 1_555 1_555
H6 N4 1_555 1_555
O2 C2 1_555 1_555
O4 C6 1_555 1_555
F11 C32 1_555 1_555
F12 C33 1_555 1_555
F13 C34 1_555 1_555
F14 C35 1_555 1_555
F15 C36 1_555 1_555
F16 C38 1_555 1_555
F17 C39 1_555 1_555
F18 C40 1_555 1_555
F19 C41 1_555 1_555
F20 C42 1_555 1_555
C48 H7 1_555 1_555
H8 C48 1_555 1_555
Cl1 C48 1_555 1_555
Cl2 C48 1_555 1_555
C51 H13 1_555 1_555
H14 C51 1_555 1_555
H15 C51 1_555 1_555
C52 C51 1_555 1_555
H16 C52 1_555 1_555
H17 C52 1_555 1_555
C53 C52 1_555 1_555
H18 C53 1_555 1_555
H19 C53 1_555 1_555
C51M H13M 1_555 1_555
H14M C51M 1_555 1_555
H15M C51M 1_555 1_555
C52M C51M 1_555 1_555
H16M C52M 1_555 1_555
H17M C52M 1_555 1_555
C53M C53 1_555 1_555
H18M C53M 1_555 1_555
H19M C53M 1_555 1_555
C3 N1 1_555 1_555
C3 O2 1_555 1_555
C7 N2 1_555 1_555
C7 O4 1_555 1_555
C12 N3 1_555 1_555
C17 C18 1_555 1_555
C17 N4 1_555 1_555
C23 C24 1_555 1_555
C29 C30 1_555 1_555
C35 C36 1_555 1_555
C41 C42 1_555 1_555
C52M C53M 1_555 1_555

#END
