
#######################################################################
#
#                 Cambridge Crystallographic Data Centre
#                                CCDC 
#
#######################################################################
#
# If this CIF has been generated from an entry in the Cambridge 
# Structural Database, then it will include bibliographic, chemical, 
# crystal, experimental, refinement or atomic coordinate data resulting 
# from the CCDC's data processing and validation procedures.
#
#######################################################################

data_SIZHAN
_chemical_compound_source        
'solid culture of Aspergillus flocculosus 16D-1'
_chemical_name_common            'asperfloroid A'
_chemical_formula_moiety         'C28 H40 O7'
_chemical_name_systematic        
3,12,14,23-tetrahydroxy-24-methylfurosta-5,8-dien-7,11-dione
_chemical_properties_biological  
'inhibitory activity towards IL-6 production in induced THP-1 cells'
_symmetry_cell_setting           rhombohedral
_symmetry_space_group_name_H-M   'R 3'
_symmetry_Int_Tables_number      146
_space_group_name_Hall           'R 3'
loop_
_symmetry_equiv_pos_site_id
_symmetry_equiv_pos_as_xyz
1 x,y,z
2 -y,x-y,z
3 -x+y,-x,z
4 2/3+x,1/3+y,1/3+z
5 2/3-y,1/3+x-y,1/3+z
6 2/3-x+y,1/3-x,1/3+z
7 1/3+x,2/3+y,2/3+z
8 1/3-y,2/3+x-y,2/3+z
9 1/3-x+y,2/3-x,2/3+z
_cell_length_a                   34.8146(7)
_cell_length_b                   34.8146(7)
_cell_length_c                   6.27930(10)
_cell_angle_alpha                90
_cell_angle_beta                 90
_cell_angle_gamma                120
_cell_volume                     6591.2
_exptl_crystal_colour            colorless
_exptl_crystal_description       block
_cell_formula_units_Z            9
_exptl_crystal_recrystallization_method methanol/water
loop_
_atom_site_label
_atom_site_type_symbol
_atom_site_fract_x
_atom_site_fract_y
_atom_site_fract_z
O1 O -0.07426(9) 0.45875(10) 0.6447(4)
H1 H -0.091294 0.433132 0.691866
O2 O 0.09747(10) 0.42460(10) 0.9661(5)
O3 O 0.18411(9) 0.48612(9) 0.9039(4)
H2 H 0.168461 0.461162 0.960664
O4 O 0.15300(9) 0.50965(10) 0.2583(4)
H3 H 0.168847 0.500401 0.203150
O5 O 0.14275(10) 0.58502(10) 0.4634(6)
O6 O 0.22208(8) 0.44121(8) 0.5716(4)
O7 O 0.28060(9) 0.47738(9) 0.1999(4)
H4 H 0.259121 0.454437 0.148109
C1 C 0.04565(13) 0.51400(14) 0.4795(6)
H5 H 0.064440 0.542105 0.402268
H6 H 0.044796 0.489662 0.394241
C2 C -0.00088(14) 0.50672(15) 0.4959(6)
H7 H -0.013263 0.503981 0.351115
H8 H 0.000109 0.532696 0.565683
C3 C -0.03075(12) 0.46523(13) 0.6226(6)
H9 H -0.032597 0.438993 0.547847
C4 C -0.01170(13) 0.46846(16) 0.8450(6)
H10 H -0.030381 0.440600 0.924181
H11 H -0.011480 0.493135 0.924349
C5 C 0.03555(13) 0.47654(15) 0.8257(5)
C6 C 0.04609(14) 0.44872(16) 0.9181(7)
H12 H 0.024800 0.425888 1.006805
C7 C 0.08886(13) 0.45193(13) 0.8884(6)
C8 C 0.12179(11) 0.48809(12) 0.7480(5)
C9 C 0.11140(11) 0.51748(12) 0.6592(6)
C10 C 0.06732(12) 0.51601(13) 0.6973(5)
C11 C 0.14398(13) 0.55175(13) 0.5135(6)
C12 C 0.17814(13) 0.54242(13) 0.4152(6)
H13 H 0.201324 0.569830 0.342573
C13 C 0.20017(12) 0.52843(12) 0.5844(6)
C14 C 0.16438(11) 0.48770(12) 0.7043(5)
C15 C 0.15610(11) 0.44823(12) 0.5659(6)
H14 H 0.146115 0.421369 0.654547
H15 H 0.133036 0.442188 0.457936
C16 C 0.19955(11) 0.46072(11) 0.4598(5)
H16 H 0.194756 0.451299 0.307107
C17 C 0.22954(11) 0.51166(12) 0.4776(6)
H17 H 0.239025 0.525001 0.332603
C18 C 0.22578(15) 0.56914(14) 0.7299(8)
H18 H 0.245882 0.594894 0.643588
H19 H 0.243002 0.563066 0.834310
H20 H 0.204738 0.575335 0.804501
C19 C 0.07775(16) 0.55864(17) 0.8246(9)
H21 H 0.093582 0.559947 0.955904
H22 H 0.049965 0.557851 0.860267
H23 H 0.096273 0.584897 0.737595
C20 C 0.27010(13) 0.51772(14) 0.6057(8)
H24 H 0.264477 0.520958 0.759033
C21 C 0.31402(16) 0.55820(17) 0.5450(13)
H25 H 0.338464 0.555952 0.609373
H26 H 0.314649 0.585062 0.596747
H27 H 0.317239 0.559654 0.389674
C22 C 0.26930(12) 0.47318(13) 0.5820(7)
H28 H 0.281119 0.467700 0.716732
C23 C 0.29358(13) 0.46662(13) 0.3962(6)
H29 H 0.325872 0.488285 0.415661
C24 C 0.28847(13) 0.42087(13) 0.3920(6)
H30 H 0.256187 0.399325 0.371085
C25 C 0.31290(15) 0.41493(13) 0.2032(6)
H31 H 0.305254 0.426512 0.073935
C26 C 0.3632(2) 0.4412(2) 0.2273(15)
H32 H 0.372461 0.471711 0.269638
H33 H 0.377122 0.441473 0.091184
H34 H 0.372388 0.427316 0.336465
C27 C 0.29768(17) 0.36584(16) 0.1614(8)
H35 H 0.312727 0.363385 0.034617
H36 H 0.265535 0.349368 0.138479
H37 H 0.305087 0.353472 0.284549
C28 C 0.30180(19) 0.40862(18) 0.6014(7)
H38 H 0.331811 0.431819 0.640406
H39 H 0.301181 0.380324 0.584857
H40 H 0.280964 0.405830 0.713462
loop_
_geom_bond_atom_site_label_1
_geom_bond_atom_site_label_2
_geom_bond_site_symmetry_1
_geom_bond_site_symmetry_2
O1 H1 1_555 1_555
O2 C7 1_555 1_555
O3 H2 1_555 1_555
O4 H3 1_555 1_555
O5 C11 1_555 1_555
O6 C16 1_555 1_555
O7 H4 1_555 1_555
C1 H5 1_555 1_555
H6 C1 1_555 1_555
C2 C1 1_555 1_555
H7 C2 1_555 1_555
H8 C2 1_555 1_555
C3 O1 1_555 1_555
H9 C3 1_555 1_555
C4 C3 1_555 1_555
H10 C4 1_555 1_555
H11 C4 1_555 1_555
C5 C4 1_555 1_555
C6 C5 1_555 1_555
H12 C6 1_555 1_555
C7 C6 1_555 1_555
C8 C7 1_555 1_555
C9 C8 1_555 1_555
C10 C1 1_555 1_555
C11 C9 1_555 1_555
C12 O4 1_555 1_555
H13 C12 1_555 1_555
C13 C12 1_555 1_555
C14 O3 1_555 1_555
C15 C14 1_555 1_555
H14 C15 1_555 1_555
H15 C15 1_555 1_555
C16 C15 1_555 1_555
H16 C16 1_555 1_555
C17 C13 1_555 1_555
H17 C17 1_555 1_555
C18 C13 1_555 1_555
H18 C18 1_555 1_555
H19 C18 1_555 1_555
H20 C18 1_555 1_555
C19 C10 1_555 1_555
H21 C19 1_555 1_555
H22 C19 1_555 1_555
H23 C19 1_555 1_555
C20 C17 1_555 1_555
H24 C20 1_555 1_555
C21 C20 1_555 1_555
H25 C21 1_555 1_555
H26 C21 1_555 1_555
H27 C21 1_555 1_555
C22 O6 1_555 1_555
H28 C22 1_555 1_555
C23 O7 1_555 1_555
H29 C23 1_555 1_555
C24 C23 1_555 1_555
H30 C24 1_555 1_555
C25 C24 1_555 1_555
H31 C25 1_555 1_555
C26 C25 1_555 1_555
H32 C26 1_555 1_555
H33 C26 1_555 1_555
H34 C26 1_555 1_555
C27 C25 1_555 1_555
H35 C27 1_555 1_555
H36 C27 1_555 1_555
H37 C27 1_555 1_555
C28 C24 1_555 1_555
H38 C28 1_555 1_555
H39 C28 1_555 1_555
H40 C28 1_555 1_555
C2 C3 1_555 1_555
C5 C10 1_555 1_555
C8 C14 1_555 1_555
C9 C10 1_555 1_555
C11 C12 1_555 1_555
C13 C14 1_555 1_555
C16 C17 1_555 1_555
C20 C22 1_555 1_555
C22 C23 1_555 1_555

#END
