
#######################################################################
#
#                 Cambridge Crystallographic Data Centre
#                                CCDC 
#
#######################################################################
#
# If this CIF has been generated from an entry in the Cambridge 
# Structural Database, then it will include bibliographic, chemical, 
# crystal, experimental, refinement or atomic coordinate data resulting 
# from the CCDC's data processing and validation procedures.
#
#######################################################################

data_SIZHAM
_chemical_formula_moiety         
'C38 H34 N10 4+,2(C8 H4 O4 2-),2(C3 H7 N1 O1),4(H2 O1)'
_chemical_name_systematic        
'6,12,25,31,42,47-hexaaza-3,15,22,34-tetraazonianonacyclo[34.2.2.2^17,20^.1^3,6^.1^7,11^.1^12,15^.1^22,25^.1^26,30^.1^31,34^]octatetraconta-1(38),3(48),4,7(47),8,10,13,15(46),17,19,22(43),23,26(42),27,29,32,34(41),36,39,44-icosaene bis(phthalate)-N,N-dimethylformamide solvate tetrahydrate'
_symmetry_cell_setting           triclinic
_symmetry_space_group_name_H-M   'P -1'
_symmetry_Int_Tables_number      2
_space_group_name_Hall           '-P 1'
loop_
_symmetry_equiv_pos_site_id
_symmetry_equiv_pos_as_xyz
1 x,y,z
2 -x,-y,-z
_cell_length_a                   9.5369(19)
_cell_length_b                   16.789(3)
_cell_length_c                   18.613(4)
_cell_angle_alpha                81.99(3)
_cell_angle_beta                 78.19(3)
_cell_angle_gamma                85.70(3)
_cell_volume                     2885.35
_exptl_crystal_colour            colorless
_exptl_crystal_description       block
_cell_formula_units_Z            2
loop_
_atom_site_label
_atom_site_type_symbol
_atom_site_fract_x
_atom_site_fract_y
_atom_site_fract_z
N1 N 0.1316(3) 0.45310(17) 0.32561(15)
N2 N 0.2737(3) 0.54041(16) 0.34221(15)
N3 N 0.4774(3) 0.51385(16) 0.39139(15)
N4 N 0.6797(3) 0.46886(17) 0.43753(16)
N5 N 0.7407(3) 0.34505(17) 0.47266(15)
N6 N 0.9916(3) 0.05315(17) 0.20267(15)
N7 N 0.8564(3) -0.03417(17) 0.17901(15)
N8 N 0.6513(3) -0.00542(17) 0.13027(16)
N9 N 0.4479(3) 0.03853(18) 0.08488(15)
N10 N 0.3780(3) 0.16298(18) 0.05721(15)
C1 C 0.2479(4) 0.4612(2) 0.35255(19)
H1 H 0.3017 0.4198 0.3745
C2 C 0.0804(4) 0.5279(2) 0.2981(2)
H2 H 0.0004 0.5386 0.2763
C3 C 0.1686(4) 0.5823(2) 0.3090(2)
H3 H 0.1602 0.6378 0.2964
C4 C 0.3994(4) 0.5704(2) 0.35883(19)
C5 C 0.4367(4) 0.6502(2) 0.3380(2)
H4 H 0.3786 0.6883 0.3151
C6 C 0.5654(4) 0.6694(2) 0.3533(2)
H5 H 0.5952 0.7219 0.3405
C7 C 0.6513(4) 0.6112(2) 0.3876(2)
H6 H 0.7378 0.6233 0.3983
C8 C 0.6004(4) 0.5351(2) 0.40443(19)
C9 C 0.6423(4) 0.3918(2) 0.44457(18)
H7 H 0.5612 0.3745 0.4318
C10 C 0.8072(4) 0.4692(2) 0.46336(19)
H8 H 0.8564 0.5143 0.4655
C11 C 0.8455(4) 0.3922(2) 0.4844(2)
H9 H 0.9268 0.3739 0.5033
C12 C 0.7395(4) 0.2557(2) 0.4834(2)
H10 H 0.6412 0.2393 0.4966
H11 H 0.7874 0.2344 0.5237
C13 C 0.8145(4) 0.2214(2) 0.4135(2)
C14 C 0.9461(4) 0.1789(2) 0.4110(2)
H12 H 0.9867 0.1703 0.4530
C15 C 1.0173(4) 0.1492(2) 0.34659(19)
H13 H 1.1047 0.1205 0.3461
C16 C 0.9600(4) 0.1618(2) 0.28297(19)
C17 C 0.8270(4) 0.2030(2) 0.2862(2)
H14 H 0.7861 0.2113 0.2443
C18 C 0.7542(4) 0.2319(2) 0.3510(2)
H15 H 0.6646 0.2583 0.3522
C19 C 1.0410(4) 0.1320(2) 0.2123(2)
H16 H 1.0277 0.1712 0.1705
H17 H 1.1426 0.1268 0.2133
C20 C 0.8759(4) 0.0453(2) 0.17546(19)
H18 H 0.8183 0.0872 0.1571
C21 C 1.0502(4) -0.0225(2) 0.2232(2)
H19 H 1.1319 -0.0340 0.2435
C22 C 0.9652(4) -0.0763(2) 0.2078(2)
H20 H 0.9784 -0.1321 0.2155
C23 C 0.7360(4) -0.0633(2) 0.15686(19)
C24 C 0.7114(4) -0.1450(2) 0.1659(2)
H21 H 0.7745 -0.1838 0.1841
C25 C 0.5878(5) -0.1653(2) 0.1461(2)
H22 H 0.5665 -0.2192 0.1512
C26 C 0.4953(4) -0.1065(2) 0.1187(2)
H23 H 0.4115 -0.1194 0.1057
C27 C 0.5347(4) -0.0278(2) 0.11202(19)
C28 C 0.4825(4) 0.1162(2) 0.07873(18)
H24 H 0.5665 0.1336 0.0882
C29 C 0.3143(4) 0.0379(2) 0.0658(2)
H25 H 0.2643 -0.0074 0.0651
C30 C 0.2714(4) 0.1151(2) 0.0486(2)
H26 H 0.1859 0.1331 0.0338
C31 C 0.3756(4) 0.2516(2) 0.0492(2)
H27 H 0.3281 0.2736 0.0089
H28 H 0.4732 0.2692 0.0370
C32 C 0.2979(4) 0.2830(2) 0.11987(19)
C33 C 0.1638(4) 0.3222(2) 0.1237(2)
H29 H 0.1212 0.3291 0.0824
C34 C 0.0926(4) 0.3513(2) 0.1882(2)
H30 H 0.0034 0.3781 0.1896
C35 C 0.1534(4) 0.3406(2) 0.25063(18)
C36 C 0.2871(4) 0.2998(2) 0.2478(2)
H31 H 0.3283 0.2912 0.2896
C37 C 0.3588(4) 0.2718(2) 0.1824(2)
H32 H 0.4485 0.2454 0.1806
C38 C 0.0769(4) 0.3735(2) 0.3207(2)
H33 H -0.0252 0.3794 0.3212
H34 H 0.0915 0.3359 0.3633
N11 N 0.6179(4) 0.5196(2) 0.1913(2)
C39 C 0.7350(5) 0.5198(3) 0.2208(3)
H35 H 0.7863 0.5663 0.2103
C40 C 0.5328(6) 0.4513(3) 0.2010(3)
H36 H 0.5698 0.4087 0.2332
H37 H 0.5359 0.4335 0.1539
H38 H 0.4355 0.4656 0.2226
C41 C 0.5758(7) 0.5902(4) 0.1442(4)
H39 H 0.6402 0.6322 0.1416
H40 H 0.4799 0.6084 0.1645
H41 H 0.5795 0.5765 0.0954
O1 O 0.7797(4) 0.4626(2) 0.2610(2)
N12 N 0.5095(4) 0.9774(2) 0.32142(19)
C42 C 0.3978(5) 0.9847(4) 0.2893(3)
H42 H 0.3485 0.9387 0.2901
C43 C 0.5458(7) 0.8977(3) 0.3600(3)
H43 H 0.4816 0.8591 0.3536
H44 H 0.5367 0.9014 0.4118
H45 H 0.6426 0.8811 0.3397
C44 C 0.5955(6) 1.0419(3) 0.3256(3)
H46 H 0.5627 1.0903 0.2988
H47 H 0.6937 1.0291 0.3043
H48 H 0.5879 1.0495 0.3764
O2 O 0.3533(4) 1.0503(2) 0.25744(19)
C45 C 0.2677(4) 0.2923(2) 0.47425(19)
C46 C 0.2379(4) 0.2044(2) 0.49881(18)
C47 C 0.3065(4) 0.1467(2) 0.4550(2)
H49 H 0.3775 0.1627 0.4143
C48 C 0.2733(5) 0.0673(2) 0.4695(2)
H50 H 0.3194 0.0306 0.4383
C49 C 0.1698(5) 0.0420(2) 0.5316(2)
H51 H 0.1470 -0.0118 0.5425
C50 C 0.1018(5) 0.0979(2) 0.5764(2)
H52 H 0.0325 0.0810 0.6176
C51 C 0.1337(4) 0.1789(2) 0.56181(18)
C52 C 0.0579(4) 0.2341(2) 0.61684(19)
O3 O 0.3853(3) 0.30819(15) 0.43060(15)
O4 O 0.1717(3) 0.34410(15) 0.49627(14)
O5 O -0.0735(3) 0.25146(17) 0.61845(15)
O6 O 0.1313(3) 0.25161(17) 0.66103(14)
C53 C 0.7488(4) 0.2590(3) -0.0844(2)
C54 C 0.7723(4) 0.3277(2) -0.0444(2)
C55 C 0.7687(5) 0.4065(3) -0.0806(3)
H53 H 0.7533 0.4152 -0.1289
C56 C 0.7872(7) 0.4712(3) -0.0464(3)
H54 H 0.7837 0.5231 -0.0715
C57 C 0.8110(6) 0.4592(3) 0.0257(3)
H55 H 0.8253 0.5026 0.0490
C58 C 0.8133(4) 0.3825(2) 0.0618(3)
H56 H 0.8275 0.3743 0.1103
C59 C 0.7947(4) 0.3163(2) 0.0277(2)
C60 C 0.8174(4) 0.2334(2) 0.06889(19)
O7 O 0.7733(4) 0.2708(2) -0.15433(16)
O8 O 0.7046(3) 0.1955(2) -0.04652(16)
O9 O 0.9401(3) 0.19912(17) 0.05004(16)
O10 O 0.7209(3) 0.20567(16) 0.12171(14)
O11 O 0.9412(3) 0.6878(2) 0.20806(16)
H57 H 1.0413(17) 0.698(3) 0.192(2)
H58 H 0.912(4) 0.703(3) 0.2566(13)
O12 O 0.7371(4) 0.1829(2) -0.26150(18)
H59 H 0.753(4) 0.206(2) -0.2193(12)
H60 H 0.804(4) 0.206(3) -0.3038(12)
O13 O 0.8601(3) 0.7103(2) 0.06249(19)
H61 H 0.878(6) 0.701(4) 0.1120(13)
H62 H 0.942(4) 0.736(4) 0.032(2)
O14 O 0.0619(6) 0.9308(4) 0.0356(3)
H63 H 0.030(10) 0.919(5) -0.007(3)
H64 H 0.105(16) 0.882(4) 0.057(7)
loop_
_geom_bond_atom_site_label_1
_geom_bond_atom_site_label_2
_geom_bond_site_symmetry_1
_geom_bond_site_symmetry_2
N1 C1 1_555 1_555
N2 C1 1_555 1_555
N3 C4 1_555 1_555
N4 C8 1_555 1_555
N5 C9 1_555 1_555
N6 C19 1_555 1_555
N7 C20 1_555 1_555
N8 C23 1_555 1_555
N9 C27 1_555 1_555
N10 C28 1_555 1_555
C1 H1 1_555 1_555
C2 N1 1_555 1_555
H2 C2 1_555 1_555
C3 N2 1_555 1_555
H3 C3 1_555 1_555
C4 N2 1_555 1_555
C5 C4 1_555 1_555
H4 C5 1_555 1_555
C6 C5 1_555 1_555
H5 C6 1_555 1_555
C7 C6 1_555 1_555
H6 C7 1_555 1_555
C8 N3 1_555 1_555
C9 N4 1_555 1_555
H7 C9 1_555 1_555
C10 N4 1_555 1_555
H8 C10 1_555 1_555
C11 N5 1_555 1_555
H9 C11 1_555 1_555
C12 N5 1_555 1_555
H10 C12 1_555 1_555
H11 C12 1_555 1_555
C13 C12 1_555 1_555
C14 C13 1_555 1_555
H12 C14 1_555 1_555
C15 C14 1_555 1_555
H13 C15 1_555 1_555
C16 C15 1_555 1_555
C17 C16 1_555 1_555
H14 C17 1_555 1_555
C18 C13 1_555 1_555
H15 C18 1_555 1_555
C19 C16 1_555 1_555
H16 C19 1_555 1_555
H17 C19 1_555 1_555
C20 N6 1_555 1_555
H18 C20 1_555 1_555
C21 N6 1_555 1_555
H19 C21 1_555 1_555
C22 N7 1_555 1_555
H20 C22 1_555 1_555
C23 N7 1_555 1_555
C24 C23 1_555 1_555
H21 C24 1_555 1_555
C25 C24 1_555 1_555
H22 C25 1_555 1_555
C26 C25 1_555 1_555
H23 C26 1_555 1_555
C27 N8 1_555 1_555
C28 N9 1_555 1_555
H24 C28 1_555 1_555
C29 N9 1_555 1_555
H25 C29 1_555 1_555
C30 N10 1_555 1_555
H26 C30 1_555 1_555
C31 N10 1_555 1_555
H27 C31 1_555 1_555
H28 C31 1_555 1_555
C32 C31 1_555 1_555
C33 C32 1_555 1_555
H29 C33 1_555 1_555
C34 C33 1_555 1_555
H30 C34 1_555 1_555
C35 C34 1_555 1_555
C36 C35 1_555 1_555
H31 C36 1_555 1_555
C37 C32 1_555 1_555
H32 C37 1_555 1_555
C38 N1 1_555 1_555
H33 C38 1_555 1_555
H34 C38 1_555 1_555
N11 C39 1_555 1_555
C39 H35 1_555 1_555
C40 N11 1_555 1_555
H36 C40 1_555 1_555
H37 C40 1_555 1_555
H38 C40 1_555 1_555
C41 N11 1_555 1_555
H39 C41 1_555 1_555
H40 C41 1_555 1_555
H41 C41 1_555 1_555
O1 C39 1_555 1_555
N12 C42 1_555 1_555
C42 H42 1_555 1_555
C43 N12 1_555 1_555
H43 C43 1_555 1_555
H44 C43 1_555 1_555
H45 C43 1_555 1_555
C44 N12 1_555 1_555
H46 C44 1_555 1_555
H47 C44 1_555 1_555
H48 C44 1_555 1_555
O2 C42 1_555 1_555
C45 C46 1_555 1_555
C46 C47 1_555 1_555
C47 H49 1_555 1_555
C48 C47 1_555 1_555
H50 C48 1_555 1_555
C49 C48 1_555 1_555
H51 C49 1_555 1_555
C50 C49 1_555 1_555
H52 C50 1_555 1_555
C51 C46 1_555 1_555
C52 C51 1_555 1_555
O3 C45 1_555 1_555
O4 C45 1_555 1_555
O5 C52 1_555 1_555
O6 C52 1_555 1_555
C53 C54 1_555 1_555
C54 C55 1_555 1_555
C55 H53 1_555 1_555
C56 C55 1_555 1_555
H54 C56 1_555 1_555
C57 C56 1_555 1_555
H55 C57 1_555 1_555
C58 C57 1_555 1_555
H56 C58 1_555 1_555
C59 C54 1_555 1_555
C60 C59 1_555 1_555
O7 C53 1_555 1_555
O8 C53 1_555 1_555
O9 C60 1_555 1_555
O10 C60 1_555 1_555
O11 H57 1_555 1_555
H58 O11 1_555 1_555
O12 H59 1_555 1_555
H60 O12 1_555 1_555
O13 H61 1_555 1_555
H62 O13 1_555 1_555
O14 H63 1_555 1_555
H64 O14 1_555 1_555
C2 C3 1_555 1_555
C7 C8 1_555 1_555
C10 C11 1_555 1_555
C17 C18 1_555 1_555
C21 C22 1_555 1_555
C26 C27 1_555 1_555
C29 C30 1_555 1_555
C35 C38 1_555 1_555
C36 C37 1_555 1_555
C50 C51 1_555 1_555
C58 C59 1_555 1_555

#END
