
#######################################################################
#
#                 Cambridge Crystallographic Data Centre
#                                CCDC 
#
#######################################################################
#
# If this CIF has been generated from an entry in the Cambridge 
# Structural Database, then it will include bibliographic, chemical, 
# crystal, experimental, refinement or atomic coordinate data resulting 
# from the CCDC's data processing and validation procedures.
#
#######################################################################

data_SIZJET
_chemical_formula_moiety         'C24 H14 Br2 O2,C1 H2 Cl2'
_chemical_name_systematic        
'(+-)-4,13-dibromotetraphenylene-1,16-diol dichloromethane solvate'
_symmetry_cell_setting           monoclinic
_symmetry_space_group_name_H-M   'P 21/n'
_symmetry_Int_Tables_number      14
_space_group_name_Hall           '-P 2yn'
loop_
_symmetry_equiv_pos_site_id
_symmetry_equiv_pos_as_xyz
1 x,y,z
2 1/2-x,1/2+y,1/2-z
3 -x,-y,-z
4 1/2+x,1/2-y,1/2+z
_cell_length_a                   13.6805(16)
_cell_length_b                   9.6013(11)
_cell_length_c                   18.120(2)
_cell_angle_alpha                90
_cell_angle_beta                 107.042(3)
_cell_angle_gamma                90
_cell_volume                     2275.56
_exptl_crystal_colour            colorless
_exptl_crystal_description       prismatic
_cell_formula_units_Z            4
loop_
_atom_site_label
_atom_site_type_symbol
_atom_site_fract_x
_atom_site_fract_y
_atom_site_fract_z
Br1 Br 1.02927(5) 1.25340(7) 0.16769(4)
Br2 Br 0.58468(6) 0.65252(8) -0.03564(5)
O1 O 0.7564(3) 0.8906(6) 0.2908(2)
O2 O 0.5915(4) 1.1135(7) 0.1889(3)
C1 C 0.9343(4) 1.1485(5) 0.2027(3)
C2 C 0.9599(4) 1.1211(6) 0.2806(3)
H1 H 1.0186 1.1599 0.3139
C3 C 0.8983(4) 1.0361(7) 0.3092(3)
H2 H 0.9157 1.0168 0.3618
C4 C 0.8110(4) 0.9797(6) 0.2597(3)
C5 C 0.7829(4) 1.0117(5) 0.1814(3)
C6 C 0.8445(3) 1.0973(5) 0.1512(3)
C7 C 0.8130(3) 1.1291(5) 0.0673(3)
C8 C 0.7857(4) 1.2646(5) 0.0423(3)
H3 H 0.7858 1.3338 0.0782
C9 C 0.7586(4) 1.2971(6) -0.0349(3)
H4 H 0.7390 1.3876 -0.0507
C10 C 0.7600(4) 1.1979(7) -0.0888(3)
H5 H 0.7432 1.2207 -0.1409
C11 C 0.7866(4) 1.0638(6) -0.0644(3)
H6 H 0.7870 0.9957 -0.1008
C12 C 0.8127(3) 1.0276(5) 0.0128(3)
C13 C 0.8431(4) 0.8803(5) 0.0372(3)
C14 C 0.9291(4) 0.8249(6) 0.0243(3)
H7 H 0.9670 0.8789 0.0000
C15 C 0.9607(5) 0.6910(6) 0.0466(4)
H8 H 1.0198 0.6561 0.0379
C16 C 0.9052(5) 0.6098(6) 0.0813(4)
H9 H 0.9264 0.5195 0.0967
C17 C 0.8175(4) 0.6626(6) 0.0933(4)
H10 H 0.7799 0.6073 0.1172
C18 C 0.7841(4) 0.7966(5) 0.0705(3)
C19 C 0.6848(4) 0.8484(5) 0.0791(3)
C20 C 0.6854(3) 0.9547(6) 0.1317(3)
C21 C 0.5932(4) 1.0060(7) 0.1408(3)
C22 C 0.5026(5) 0.9463(8) 0.0998(4)
H11 H 0.4416 0.9781 0.1066
C23 C 0.5009(4) 0.8405(8) 0.0491(4)
H12 H 0.4390 0.8001 0.0219
C24 C 0.5916(4) 0.7930(6) 0.0379(3)
H13 H 0.710(3) 0.864(5) 0.254(2)
H14 H 0.648(3) 1.148(7) 0.201(4)
Cl1 Cl 0.1314(2) 0.6301(2) 0.25157(15)
Cl2 Cl 0.1830(2) 0.9176(3) 0.28341(19)
C25 C 0.0865(6) 0.7987(9) 0.2486(5)
H15 H 0.0497 0.8224 0.1957
H16 H 0.0388 0.8044 0.2790
loop_
_geom_bond_atom_site_label_1
_geom_bond_atom_site_label_2
_geom_bond_site_symmetry_1
_geom_bond_site_symmetry_2
Br1 C1 1_555 1_555
Br2 C24 1_555 1_555
O1 C4 1_555 1_555
O2 C21 1_555 1_555
C1 C2 1_555 1_555
C2 H1 1_555 1_555
C3 C2 1_555 1_555
H2 C3 1_555 1_555
C4 C3 1_555 1_555
C5 C4 1_555 1_555
C6 C1 1_555 1_555
C7 C6 1_555 1_555
C8 C7 1_555 1_555
H3 C8 1_555 1_555
C9 C8 1_555 1_555
H4 C9 1_555 1_555
C10 C9 1_555 1_555
H5 C10 1_555 1_555
C11 C10 1_555 1_555
H6 C11 1_555 1_555
C12 C7 1_555 1_555
C13 C12 1_555 1_555
C14 C13 1_555 1_555
H7 C14 1_555 1_555
C15 C14 1_555 1_555
H8 C15 1_555 1_555
C16 C15 1_555 1_555
H9 C16 1_555 1_555
C17 C16 1_555 1_555
H10 C17 1_555 1_555
C18 C13 1_555 1_555
C19 C18 1_555 1_555
C20 C5 1_555 1_555
C21 C20 1_555 1_555
C22 C21 1_555 1_555
H11 C22 1_555 1_555
C23 C22 1_555 1_555
H12 C23 1_555 1_555
C24 C19 1_555 1_555
H13 O1 1_555 1_555
H14 O2 1_555 1_555
Cl1 C25 1_555 1_555
Cl2 C25 1_555 1_555
C25 H15 1_555 1_555
H16 C25 1_555 1_555
C5 C6 1_555 1_555
C11 C12 1_555 1_555
C17 C18 1_555 1_555
C19 C20 1_555 1_555
C23 C24 1_555 1_555

#END
