
#######################################################################
#
#                 Cambridge Crystallographic Data Centre
#                                CCDC 
#
#######################################################################
#
# If this CIF has been generated from an entry in the Cambridge 
# Structural Database, then it will include bibliographic, chemical, 
# crystal, experimental, refinement or atomic coordinate data resulting 
# from the CCDC's data processing and validation procedures.
#
#######################################################################

data_SIZKIY
_chemical_formula_moiety         'C19 H20 Cl1 F2 N3 O2'
_chemical_name_systematic        
3-(3-chlorophenyl)-2,2-difluoro-4-(1-methyl-1H-imidazol-2-yl)-1-(piperidin-1-yl)butane-1,4-dione
_symmetry_cell_setting           monoclinic
_symmetry_space_group_name_H-M   'P 21'
_symmetry_Int_Tables_number      4
_space_group_name_Hall           'P 2yb'
loop_
_symmetry_equiv_pos_site_id
_symmetry_equiv_pos_as_xyz
1 x,y,z
2 -x,1/2+y,-z
_cell_length_a                   7.3869(4)
_cell_length_b                   7.8823(5)
_cell_length_c                   16.1317(9)
_cell_angle_alpha                90
_cell_angle_beta                 96.726(5)
_cell_angle_gamma                90
_cell_volume                     932.816
_exptl_crystal_colour            colorless
_exptl_crystal_description       block
_cell_formula_units_Z            2
loop_
_atom_site_label
_atom_site_type_symbol
_atom_site_fract_x
_atom_site_fract_y
_atom_site_fract_z
Cl1 Cl -0.53227(17) -0.6232(2) -0.47881(8)
F1 F 0.0561(4) -1.1018(5) -0.36944(16)
F2 F 0.2784(4) -0.9341(4) -0.32011(17)
O1 O 0.1911(4) -0.7570(6) -0.1701(2)
O2 O 0.1222(4) -1.1376(6) -0.1639(2)
N1 N -0.0935(6) -0.7149(6) -0.0621(3)
N2 N -0.2782(6) -0.8522(7) -0.1591(3)
N3 N 0.3120(5) -1.2685(6) -0.2455(2)
C1 C -0.3713(7) -0.8074(8) -0.0950(3)
H1 H -0.4940 -0.8304 -0.0926
C2 C -0.2612(7) -0.7239(7) -0.0344(3)
H2 H -0.2936 -0.6817 0.0157
C3 C -0.1096(6) -0.7944(7) -0.1383(3)
C4 C 0.0396(7) -0.8116(7) -0.1904(3)
C5 C -0.0155(6) -0.8973(7) -0.2742(3)
H3 H -0.1244 -0.9651 -0.2684
C6 C 0.1285(7) -1.0177(7) -0.2981(3)
C7 C 0.1924(6) -1.1491(8) -0.2303(3)
C8 C 0.3799(7) -1.3840(7) -0.1774(3)
H4 H 0.3731 -1.5004 -0.1971
H5 H 0.3059 -1.3737 -0.1318
C9 C 0.5766(8) -1.3374(9) -0.1476(4)
H6 H 0.5808 -1.2243 -0.1237
H7 H 0.6253 -1.4160 -0.1044
C10 C 0.6930(7) -1.3427(9) -0.2191(4)
H8 H 0.8144 -1.3018 -0.1997
H9 H 0.7035 -1.4591 -0.2374
C11 C 0.6120(6) -1.2351(8) -0.2920(3)
H10 H 0.6810 -1.2526 -0.3389
H11 H 0.6218 -1.1162 -0.2766
C12 C 0.4135(6) -1.2787(8) -0.3181(3)
H12 H 0.3621 -1.2002 -0.3608
H13 H 0.4043 -1.3924 -0.3412
C13 C 0.0654(7) -0.6345(11) -0.0170(3)
H14 H 0.0920 -0.5313 -0.0448
H15 H 0.1679 -0.7098 -0.0152
H16 H 0.0412 -0.6091 0.0389
C14 C -0.0707(6) -0.7621(7) -0.3392(3)
C15 C 0.0482(7) -0.6397(8) -0.3614(3)
H17 H 0.1681 -0.6393 -0.3362
C16 C -0.0075(7) -0.5181(7) -0.4204(3)
H18 H 0.0757 -0.4386 -0.4355
C17 C -0.1861(7) -0.5133(7) -0.4573(3)
H19 H -0.2237 -0.4313 -0.4971
C18 C -0.3055(6) -0.6303(8) -0.4343(3)
C19 C -0.2518(7) -0.7568(8) -0.3771(3)
H20 H -0.3352 -0.8379 -0.3638
loop_
_geom_bond_atom_site_label_1
_geom_bond_atom_site_label_2
_geom_bond_site_symmetry_1
_geom_bond_site_symmetry_2
Cl1 C18 1_555 1_555
F1 C6 1_555 1_555
F2 C6 1_555 1_555
O1 C4 1_555 1_555
O2 C7 1_555 1_555
N1 C2 1_555 1_555
N2 C1 1_555 1_555
N3 C7 1_555 1_555
C1 H1 1_555 1_555
C2 C1 1_555 1_555
H2 C2 1_555 1_555
C3 N1 1_555 1_555
C4 C3 1_555 1_555
C5 C4 1_555 1_555
H3 C5 1_555 1_555
C6 C5 1_555 1_555
C7 C6 1_555 1_555
C8 N3 1_555 1_555
H4 C8 1_555 1_555
H5 C8 1_555 1_555
C9 C8 1_555 1_555
H6 C9 1_555 1_555
H7 C9 1_555 1_555
C10 C9 1_555 1_555
H8 C10 1_555 1_555
H9 C10 1_555 1_555
C11 C10 1_555 1_555
H10 C11 1_555 1_555
H11 C11 1_555 1_555
C12 N3 1_555 1_555
H12 C12 1_555 1_555
H13 C12 1_555 1_555
C13 N1 1_555 1_555
H14 C13 1_555 1_555
H15 C13 1_555 1_555
H16 C13 1_555 1_555
C14 C5 1_555 1_555
C15 C14 1_555 1_555
H17 C15 1_555 1_555
C16 C15 1_555 1_555
H18 C16 1_555 1_555
C17 C16 1_555 1_555
H19 C17 1_555 1_555
C18 C17 1_555 1_555
C19 C14 1_555 1_555
H20 C19 1_555 1_555
N2 C3 1_555 1_555
C11 C12 1_555 1_555
C18 C19 1_555 1_555

#END
