
#######################################################################
#
#                 Cambridge Crystallographic Data Centre
#                                CCDC 
#
#######################################################################
#
# If this CIF has been generated from an entry in the Cambridge 
# Structural Database, then it will include bibliographic, chemical, 
# crystal, experimental, refinement or atomic coordinate data resulting 
# from the CCDC's data processing and validation procedures.
#
#######################################################################

data_SIZKEU
_chemical_formula_moiety         'C22 H19 F1 N2 O3'
_chemical_name_systematic        
"ethyl 3-([1,1'-biphenyl]-4-yl)-2-fluoro-4-(1-methyl-1H-imidazol-2-yl)-4-oxobut-2-enoate"
_symmetry_cell_setting           triclinic
_symmetry_space_group_name_H-M   'P -1'
_symmetry_Int_Tables_number      2
_space_group_name_Hall           '-P 1'
loop_
_symmetry_equiv_pos_site_id
_symmetry_equiv_pos_as_xyz
1 x,y,z
2 -x,-y,-z
_cell_length_a                   6.9619(14)
_cell_length_b                   9.2892(19)
_cell_length_c                   15.045(4)
_cell_angle_alpha                93.627(18)
_cell_angle_beta                 99.834(18)
_cell_angle_gamma                93.558(16)
_cell_volume                     954.121
_exptl_crystal_colour            colorless
_cell_formula_units_Z            2
loop_
_atom_site_label
_atom_site_type_symbol
_atom_site_fract_x
_atom_site_fract_y
_atom_site_fract_z
F1 F 0.2046(3) -0.00149(16) 0.27201(12)
O1 O 0.4323(3) 0.2997(2) 0.09162(14)
O2 O -0.0999(3) -0.0107(2) 0.15284(14)
O3 O 0.0068(3) 0.1793(2) 0.08454(15)
N1 N 0.1867(4) 0.4748(3) 0.25138(18)
N2 N 0.2135(3) 0.5538(2) 0.11691(18)
C1 C 1.1787(5) 0.3657(3) 0.5152(2)
H1 H 1.1666 0.4346 0.4727
C2 C 1.3424(5) 0.3752(4) 0.5821(2)
H2 H 1.4381 0.4505 0.5848
C3 C 1.3639(5) 0.2732(4) 0.6449(2)
H3 H 1.4744 0.2788 0.6899
C4 C 1.2192(6) 0.1622(3) 0.6404(2)
H4 H 1.2339 0.0927 0.6824
C5 C 1.0539(5) 0.1532(3) 0.5745(2)
H5 H 0.9573 0.0789 0.5733
C6 C 1.0306(4) 0.2548(3) 0.50958(19)
C7 C 0.8554(4) 0.2431(3) 0.43758(19)
C8 C 0.8689(5) 0.2809(3) 0.3506(2)
H6 H 0.9894 0.3140 0.3378
C9 C 0.7068(5) 0.2702(3) 0.2831(2)
H7 H 0.7197 0.2983 0.2261
C10 C 0.5230(4) 0.2182(3) 0.29821(19)
C11 C 0.5101(4) 0.1826(3) 0.3859(2)
H8 H 0.3897 0.1501 0.3990
C12 C 0.6727(5) 0.1948(3) 0.4534(2)
H9 H 0.6594 0.1700 0.5111
C13 C 0.3508(4) 0.2068(3) 0.22549(19)
C14 C 0.2036(4) 0.1059(3) 0.2148(2)
C15 C 0.0286(4) 0.0967(3) 0.1440(2)
C16 C -0.2824(5) -0.0244(3) 0.0865(2)
H10 H -0.2582 -0.0610 0.0279
H11 H -0.3360 0.0691 0.0802
C17 C -0.4202(5) -0.1256(4) 0.1196(2)
H12 H -0.5405 -0.1384 0.0769
H13 H -0.4453 -0.0874 0.1769
H14 H -0.3647 -0.2172 0.1265
C18 C 0.3479(4) 0.3177(3) 0.15564(19)
C19 C 0.2521(4) 0.4479(3) 0.1747(2)
C20 C 0.1197(5) 0.6519(3) 0.1604(3)
H15 H 0.0751 0.7374 0.1384
C21 C 0.1027(5) 0.6032(4) 0.2416(3)
H16 H 0.0426 0.6503 0.2846
C22 C 0.2524(5) 0.5585(3) 0.0247(2)
H17 H 0.3896 0.5810 0.0265
H18 H 0.1798 0.6316 -0.0052
H19 H 0.2136 0.4662 -0.0078
loop_
_geom_bond_atom_site_label_1
_geom_bond_atom_site_label_2
_geom_bond_site_symmetry_1
_geom_bond_site_symmetry_2
F1 C14 1_555 1_555
O1 C18 1_555 1_555
O2 C15 1_555 1_555
O3 C15 1_555 1_555
N1 C19 1_555 1_555
N2 C19 1_555 1_555
C1 H1 1_555 1_555
C2 C1 1_555 1_555
H2 C2 1_555 1_555
C3 C2 1_555 1_555
H3 C3 1_555 1_555
C4 C3 1_555 1_555
H4 C4 1_555 1_555
C5 C4 1_555 1_555
H5 C5 1_555 1_555
C6 C1 1_555 1_555
C7 C6 1_555 1_555
C8 C7 1_555 1_555
H6 C8 1_555 1_555
C9 C8 1_555 1_555
H7 C9 1_555 1_555
C10 C9 1_555 1_555
C11 C10 1_555 1_555
H8 C11 1_555 1_555
C12 C7 1_555 1_555
H9 C12 1_555 1_555
C13 C10 1_555 1_555
C14 C13 1_555 1_555
C15 C14 1_555 1_555
C16 O2 1_555 1_555
H10 C16 1_555 1_555
H11 C16 1_555 1_555
C17 C16 1_555 1_555
H12 C17 1_555 1_555
H13 C17 1_555 1_555
H14 C17 1_555 1_555
C18 C13 1_555 1_555
C19 C18 1_555 1_555
C20 N2 1_555 1_555
H15 C20 1_555 1_555
C21 N1 1_555 1_555
H16 C21 1_555 1_555
C22 N2 1_555 1_555
H17 C22 1_555 1_555
H18 C22 1_555 1_555
H19 C22 1_555 1_555
C5 C6 1_555 1_555
C11 C12 1_555 1_555
C20 C21 1_555 1_555

#END
