
#######################################################################
#
#                 Cambridge Crystallographic Data Centre
#                                CCDC 
#
#######################################################################
#
# If this CIF has been generated from an entry in the Cambridge 
# Structural Database, then it will include bibliographic, chemical, 
# crystal, experimental, refinement or atomic coordinate data resulting 
# from the CCDC's data processing and validation procedures.
#
#######################################################################

data_SIZLUL
_chemical_formula_moiety         'C14 H14 N2 O3'
_chemical_name_systematic        N-benzyl-4-methoxy-2-nitroaniline
_symmetry_cell_setting           orthorhombic
_symmetry_space_group_name_H-M   'P 21 21 21'
_symmetry_Int_Tables_number      19
_space_group_name_Hall           'P 2ac 2ab'
loop_
_symmetry_equiv_pos_site_id
_symmetry_equiv_pos_as_xyz
1 x,y,z
2 1/2-x,-y,1/2+z
3 1/2+x,1/2-y,-z
4 -x,1/2+y,1/2-z
_cell_length_a                   7.0221(10)
_cell_length_b                   19.019(3)
_cell_length_c                   19.187(3)
_cell_angle_alpha                90
_cell_angle_beta                 90
_cell_angle_gamma                90
_cell_volume                     2562.49
_exptl_crystal_colour            red
_exptl_crystal_description       needle
_cell_formula_units_Z            8
loop_
_atom_site_label
_atom_site_type_symbol
_atom_site_fract_x
_atom_site_fract_y
_atom_site_fract_z
C1 C 1.0003(16) -0.1838(4) 0.2797(5)
H1 H 0.9046 -0.1692 0.2470
H2 H 0.9928 -0.2338 0.2862
H3 H 1.1239 -0.1717 0.2621
C2 C 0.9687(12) -0.0786(4) 0.3433(4)
C3 C 0.9290(14) -0.0463(4) 0.4066(5)
H4 H 0.9055 -0.0744 0.4454
C4 C 0.9234(12) 0.0246(4) 0.4138(5)
H5 H 0.8965 0.0438 0.4573
C5 C 0.9570(12) 0.0695(4) 0.3573(4)
C6 C 0.9957(11) 0.0362(4) 0.2934(4)
C7 C 1.0017(13) -0.0371(4) 0.2873(4)
H6 H 1.0287 -0.0574 0.2444
C8 C 0.9171(15) 0.1760(4) 0.4288(4)
H7 H 1.0032 0.1588 0.4644
H8 H 0.7879 0.1656 0.4434
C9 C 0.9406(17) 0.2535(5) 0.4214(4)
C10 C 0.7866(16) 0.2971(6) 0.4161(5)
H9 H 0.6650 0.2779 0.4186
C11 C 0.806(2) 0.3688(7) 0.4071(6)
H10 H 0.6991 0.3975 0.4029
C12 C 0.986(3) 0.3968(6) 0.4044(5)
H11 H 1.0010 0.4452 0.4002
C13 C 1.1429(18) 0.3542(6) 0.4080(6)
H12 H 1.2644 0.3734 0.4051
C14 C 1.1196(17) 0.2830(5) 0.4159(5)
H13 H 1.2263 0.2541 0.4175
N1 N 1.0331(12) 0.0748(3) 0.2313(4)
N2 N 0.9563(11) 0.1409(3) 0.3639(4)
O1 O 0.9698(10) -0.1495(2) 0.3444(3)
O2 O 1.0800(12) 0.0444(3) 0.1779(3)
O3 O 1.0256(10) 0.1399(3) 0.2314(3)
H14 H 0.959(12) 0.165(3) 0.323(2)
C15 C 0.4978(16) 0.2111(4) 0.2777(5)
H15 H 0.6170 0.1957 0.2586
H16 H 0.5017 0.2610 0.2850
H17 H 0.3968 0.2000 0.2458
C16 C 0.4667(13) 0.1040(4) 0.3418(5)
C17 C 0.4261(12) 0.0730(5) 0.4056(4)
H18 H 0.4007 0.1008 0.4444
C18 C 0.4238(13) 0.0018(4) 0.4110(5)
H19 H 0.3959 -0.0180 0.4541
C19 C 0.4609(11) -0.0429(4) 0.3556(4)
C20 C 0.5004(12) -0.0090(3) 0.2914(4)
C21 C 0.5034(11) 0.0640(4) 0.2855(4)
H20 H 0.5305 0.0850 0.2428
C22 C 0.4243(15) -0.1487(4) 0.4292(4)
H21 H 0.2964 -0.1386 0.4456
H22 H 0.5136 -0.1317 0.4639
C23 C 0.4480(17) -0.2258(5) 0.4203(5)
C24 C 0.2941(16) -0.2696(6) 0.4156(5)
H23 H 0.1716 -0.2511 0.4176
C25 C 0.320(2) -0.3414(7) 0.4079(7)
H24 H 0.2160 -0.3714 0.4046
C26 C 0.503(3) -0.3674(6) 0.4053(6)
H25 H 0.5213 -0.4156 0.4004
C27 C 0.6557(19) -0.3246(7) 0.4098(6)
H26 H 0.7783 -0.3430 0.4077
C28 C 0.6281(17) -0.2534(6) 0.4176(5)
H27 H 0.7328 -0.2237 0.4210
N3 N 0.5387(11) -0.0480(4) 0.2305(4)
N4 N 0.4574(12) -0.1129(4) 0.3638(4)
O4 O 0.4649(9) 0.1766(3) 0.3424(3)
O5 O 0.5816(12) -0.0161(3) 0.1769(3)
O6 O 0.5317(12) -0.1125(3) 0.2316(3)
H28 H 0.505(10) -0.136(3) 0.326(3)
loop_
_geom_bond_atom_site_label_1
_geom_bond_atom_site_label_2
_geom_bond_site_symmetry_1
_geom_bond_site_symmetry_2
C1 H1 1_555 1_555
H2 C1 1_555 1_555
H3 C1 1_555 1_555
C2 C3 1_555 1_555
C3 H4 1_555 1_555
C4 C3 1_555 1_555
H5 C4 1_555 1_555
C5 C4 1_555 1_555
C6 C5 1_555 1_555
C7 C2 1_555 1_555
H6 C7 1_555 1_555
C8 H7 1_555 1_555
H8 C8 1_555 1_555
C9 C8 1_555 1_555
C10 C9 1_555 1_555
H9 C10 1_555 1_555
C11 C10 1_555 1_555
H10 C11 1_555 1_555
C12 C11 1_555 1_555
H11 C12 1_555 1_555
C13 C12 1_555 1_555
H12 C13 1_555 1_555
C14 C9 1_555 1_555
H13 C14 1_555 1_555
N1 C6 1_555 1_555
N2 C5 1_555 1_555
O1 C1 1_555 1_555
O2 N1 1_555 1_555
O3 N1 1_555 1_555
H14 N2 1_555 1_555
C15 H15 1_555 1_555
H16 C15 1_555 1_555
H17 C15 1_555 1_555
C16 C17 1_555 1_555
C17 H18 1_555 1_555
C18 C17 1_555 1_555
H19 C18 1_555 1_555
C19 C18 1_555 1_555
C20 C19 1_555 1_555
C21 C16 1_555 1_555
H20 C21 1_555 1_555
C22 H21 1_555 1_555
H22 C22 1_555 1_555
C23 C22 1_555 1_555
C24 C23 1_555 1_555
H23 C24 1_555 1_555
C25 C24 1_555 1_555
H24 C25 1_555 1_555
C26 C25 1_555 1_555
H25 C26 1_555 1_555
C27 C26 1_555 1_555
H26 C27 1_555 1_555
C28 C23 1_555 1_555
H27 C28 1_555 1_555
N3 C20 1_555 1_555
N4 C19 1_555 1_555
O4 C15 1_555 1_555
O5 N3 1_555 1_555
O6 N3 1_555 1_555
H28 N4 1_555 1_555
C2 O1 1_555 1_555
C6 C7 1_555 1_555
C8 N2 1_555 1_555
C13 C14 1_555 1_555
C16 O4 1_555 1_555
C20 C21 1_555 1_555
C22 N4 1_555 1_555
C27 C28 1_555 1_555

#END
