
#######################################################################
#
#                 Cambridge Crystallographic Data Centre
#                                CCDC 
#
#######################################################################
#
# If this CIF has been generated from an entry in the Cambridge 
# Structural Database, then it will include bibliographic, chemical, 
# crystal, experimental, refinement or atomic coordinate data resulting 
# from the CCDC's data processing and validation procedures.
#
#######################################################################

data_SIZMUM
_chemical_formula_moiety         'C22 H17 F1 O3 S1'
_chemical_name_systematic        
13-[(4-fluorophenyl)sulfonyl]-7,12-dihydro-6H-6,12-methanodibenzo[b,e]oxocine
_symmetry_cell_setting           monoclinic
_symmetry_space_group_name_H-M   'P 21/c'
_symmetry_Int_Tables_number      14
_space_group_name_Hall           '-P 2ybc'
loop_
_symmetry_equiv_pos_site_id
_symmetry_equiv_pos_as_xyz
1 x,y,z
2 -x,1/2+y,1/2-z
3 -x,-y,-z
4 x,1/2-y,1/2+z
_cell_length_a                   8.8548(5)
_cell_length_b                   10.0501(6)
_cell_length_c                   20.0035(12)
_cell_angle_alpha                90
_cell_angle_beta                 101.423(2)
_cell_angle_gamma                90
_cell_volume                     1744.88
_exptl_crystal_colour            colorless
_exptl_crystal_description       tabular
_cell_formula_units_Z            4
loop_
_atom_site_label
_atom_site_type_symbol
_atom_site_fract_x
_atom_site_fract_y
_atom_site_fract_z
S1 S 0.57296(4) 1.07529(3) 0.11860(2)
F1 F 0.60407(12) 1.00975(10) 0.41064(4)
O1 O 0.65488(11) 0.76149(10) 0.16683(5)
O2 O 0.41623(11) 1.05197(10) 0.08362(5)
O3 O 0.64543(11) 1.19990(10) 0.10779(5)
C1 C 0.59653(18) 1.02483(15) 0.34265(7)
C2 C 0.48274(17) 0.95756(14) 0.29865(8)
H1 H 0.4122 0.9016 0.3154
C3 C 0.47426(16) 0.97397(14) 0.22930(7)
H2 H 0.3972 0.9292 0.1974
C4 C 0.58003(15) 1.05687(13) 0.20676(7)
C5 C 0.68644(15) 0.94667(13) 0.09018(7)
H3 H 0.6780 0.9620 0.0402
C6 C 0.62908(15) 0.80494(13) 0.09675(7)
H4 H 0.5155 0.8037 0.0784
C7 C 0.78484(15) 0.80387(13) 0.21093(7)
C8 C 0.80449(17) 0.75528(14) 0.27739(7)
H5 H 0.7311 0.6958 0.2896
C9 C 0.93138(17) 0.79414(15) 0.32543(7)
H6 H 0.9458 0.7605 0.3706
C10 C 0.70350(17) 1.10685(15) 0.32187(7)
H7 H 0.7807 1.1507 0.3541
C11 C 0.69458(16) 1.12319(14) 0.25237(7)
H8 H 0.7659 1.1791 0.2360
C12 C 1.03816(17) 0.88239(16) 0.30780(8)
H9 H 1.1261 0.9080 0.3407
C13 C 1.01554(16) 0.93272(14) 0.24212(7)
H10 H 1.0879 0.9938 0.2304
C14 C 0.88806(15) 0.89493(13) 0.19298(7)
C15 C 0.85927(15) 0.95041(13) 0.12105(7)
H11 H 0.8981 1.0439 0.1217
C16 C 0.94075(15) 0.86419(13) 0.07677(7)
C17 C 0.86872(16) 0.74895(14) 0.04684(7)
C18 C 0.94719(16) 0.66895(15) 0.00796(7)
H12 H 0.8993 0.5907 -0.0129
C19 C 1.09428(17) 0.70223(15) -0.00067(7)
H13 H 1.1470 0.6462 -0.0267
C20 C 1.16409(16) 0.81735(15) 0.02875(7)
H14 H 1.2644 0.8407 0.0225
C21 C 1.08748(16) 0.89825(14) 0.06721(7)
H15 H 1.1352 0.9773 0.0871
C22 C 0.70549(16) 0.71227(14) 0.05263(7)
H16 H 0.7067 0.6212 0.0715
H17 H 0.6409 0.7102 0.0062
loop_
_geom_bond_atom_site_label_1
_geom_bond_atom_site_label_2
_geom_bond_site_symmetry_1
_geom_bond_site_symmetry_2
S1 O2 1_555 1_555
F1 C1 1_555 1_555
O1 C6 1_555 1_555
O3 S1 1_555 1_555
C1 C2 1_555 1_555
C2 H1 1_555 1_555
C3 C2 1_555 1_555
H2 C3 1_555 1_555
C4 S1 1_555 1_555
C5 S1 1_555 1_555
H3 C5 1_555 1_555
C6 C5 1_555 1_555
H4 C6 1_555 1_555
C7 O1 1_555 1_555
C8 C7 1_555 1_555
H5 C8 1_555 1_555
C9 C8 1_555 1_555
H6 C9 1_555 1_555
C10 C1 1_555 1_555
H7 C10 1_555 1_555
C11 C4 1_555 1_555
H8 C11 1_555 1_555
C12 C9 1_555 1_555
H9 C12 1_555 1_555
C13 C12 1_555 1_555
H10 C13 1_555 1_555
C14 C7 1_555 1_555
C15 C5 1_555 1_555
H11 C15 1_555 1_555
C16 C15 1_555 1_555
C17 C16 1_555 1_555
C18 C17 1_555 1_555
H12 C18 1_555 1_555
C19 C18 1_555 1_555
H13 C19 1_555 1_555
C20 C19 1_555 1_555
H14 C20 1_555 1_555
C21 C16 1_555 1_555
H15 C21 1_555 1_555
C22 C6 1_555 1_555
H16 C22 1_555 1_555
H17 C22 1_555 1_555
C3 C4 1_555 1_555
C10 C11 1_555 1_555
C13 C14 1_555 1_555
C14 C15 1_555 1_555
C17 C22 1_555 1_555
C20 C21 1_555 1_555

#END
