
#######################################################################
#
#                 Cambridge Crystallographic Data Centre
#                                CCDC 
#
#######################################################################
#
# If this CIF has been generated from an entry in the Cambridge 
# Structural Database, then it will include bibliographic, chemical, 
# crystal, experimental, refinement or atomic coordinate data resulting 
# from the CCDC's data processing and validation procedures.
#
#######################################################################

data_SIZPIB
_chemical_formula_moiety         'C7 H4 F12 O8 S4'
_chemical_name_systematic        
1,1,3,3-tetrakis(Trifluoromethanesulfonyl)propane
_symmetry_cell_setting           monoclinic
_symmetry_space_group_name_H-M   'P 21/c'
_symmetry_Int_Tables_number      14
_space_group_name_Hall           '-P 2ybc'
loop_
_symmetry_equiv_pos_site_id
_symmetry_equiv_pos_as_xyz
1 x,y,z
2 -x,1/2+y,1/2-z
3 -x,-y,-z
4 x,1/2-y,1/2+z
_cell_length_a                   9.9367(9)
_cell_length_b                   16.5820(15)
_cell_length_c                   10.9892(10)
_cell_angle_alpha                90
_cell_angle_beta                 103.5850(10)
_cell_angle_gamma                90
_cell_volume                     1760.04
_exptl_crystal_colour            colorless
_exptl_crystal_description       plate
_cell_formula_units_Z            4
loop_
_atom_site_label
_atom_site_type_symbol
_atom_site_fract_x
_atom_site_fract_y
_atom_site_fract_z
C1 C 0.8580(2) 0.40309(12) 0.3092(2)
C2 C 1.1831(2) 0.18911(12) 0.31144(19)
C3 C 0.89515(19) 0.23223(11) 0.32610(18)
H1 H 0.8802 0.2441 0.2347
C4 C 0.76230(19) 0.19609(11) 0.35427(17)
H2 H 0.7876 0.1669 0.4350
H3 H 0.6997 0.2408 0.3641
C5 C 0.68293(19) 0.13775(11) 0.25272(17)
H4 H 0.7499 0.1093 0.2125
C6 C 0.7127(2) -0.01729(12) 0.37193(19)
C7 C 0.5096(2) 0.13040(12) -0.00394(18)
F1 F 0.72234(13) 0.39247(7) 0.28216(12)
F2 F 0.90175(15) 0.40103(8) 0.20468(12)
F3 F 0.88958(16) 0.47299(7) 0.36594(14)
F4 F 1.14459(12) 0.24387(8) 0.22288(11)
F5 F 1.22783(13) 0.12410(8) 0.26445(13)
F6 F 1.28137(12) 0.21741(7) 0.40253(11)
F7 F 0.64667(13) -0.07718(7) 0.41129(13)
F8 F 0.76546(12) -0.04193(7) 0.27919(11)
F9 F 0.81297(13) 0.00939(7) 0.46551(11)
F10 F 0.38447(12) 0.10155(7) -0.01242(11)
F11 F 0.60028(12) 0.07078(7) 0.00357(10)
F12 F 0.50945(12) 0.17410(7) -0.10495(10)
O1 O 0.88434(15) 0.32434(8) 0.52237(13)
O2 O 1.09073(14) 0.33654(8) 0.43125(14)
O3 O 1.07040(14) 0.15540(8) 0.50623(13)
O4 O 0.97804(14) 0.08595(8) 0.30301(13)
O5 O 0.54903(15) 0.09625(9) 0.42659(13)
O6 O 0.48298(14) 0.02947(8) 0.21734(13)
O7 O 0.44540(14) 0.21817(8) 0.18056(13)
O8 O 0.64968(14) 0.25853(8) 0.09995(12)
S1 S 0.94637(5) 0.32374(3) 0.41767(5)
S2 S 1.03010(5) 0.15646(3) 0.37297(4)
S3 S 0.58362(5) 0.06378(3) 0.31824(4)
S4 S 0.56447(5) 0.19796(3) 0.13612(4)
loop_
_geom_bond_atom_site_label_1
_geom_bond_atom_site_label_2
_geom_bond_site_symmetry_1
_geom_bond_site_symmetry_2
C1 F1 1_555 1_555
C2 F4 1_555 1_555
C3 H1 1_555 1_555
C4 C3 1_555 1_555
H2 C4 1_555 1_555
H3 C4 1_555 1_555
C5 C4 1_555 1_555
H4 C5 1_555 1_555
C6 F7 1_555 1_555
C7 F10 1_555 1_555
F2 C1 1_555 1_555
F3 C1 1_555 1_555
F5 C2 1_555 1_555
F6 C2 1_555 1_555
F8 C6 1_555 1_555
F9 C6 1_555 1_555
F11 C7 1_555 1_555
F12 C7 1_555 1_555
O1 S1 1_555 1_555
O2 S1 1_555 1_555
O3 S2 1_555 1_555
O4 S2 1_555 1_555
O5 S3 1_555 1_555
O6 S3 1_555 1_555
O7 S4 1_555 1_555
O8 S4 1_555 1_555
S1 C1 1_555 1_555
S2 C2 1_555 1_555
S3 C5 1_555 1_555
S4 C5 1_555 1_555
C3 S1 1_555 1_555
C3 S2 1_555 1_555
C6 S3 1_555 1_555
C7 S4 1_555 1_555

#END
