
#######################################################################
#
#                 Cambridge Crystallographic Data Centre
#                                CCDC 
#
#######################################################################
#
# If this CIF has been generated from an entry in the Cambridge 
# Structural Database, then it will include bibliographic, chemical, 
# crystal, experimental, refinement or atomic coordinate data resulting 
# from the CCDC's data processing and validation procedures.
#
#######################################################################

data_SIZQOH
_chemical_name_common            
7,8:22,23-Dibenzo-2,17-dithia-(3.0)(2,2')(1,1')(3.0)(5',2'')(4',1'')-1,1':4',1''-terphenylophane
_chemical_formula_moiety         'C30 H22 S2'
_chemical_name_systematic        
6,8,16,18-Tetrahydro-dinaphtho(1,2-c;1,2-c')dithiepino(3,4-a;3',4'-d)benzene
_symmetry_cell_setting           triclinic
_symmetry_space_group_name_H-M   'P -1'
_symmetry_Int_Tables_number      2
_space_group_name_Hall           '-P 1'
loop_
_symmetry_equiv_pos_site_id
_symmetry_equiv_pos_as_xyz
1 x,y,z
2 -x,-y,-z
_cell_length_a                   10.8438(2)
_cell_length_b                   11.3563(4)
_cell_length_c                   14.7272(5)
_cell_angle_alpha                73.222(2)
_cell_angle_beta                 78.281(2)
_cell_angle_gamma                74.078(2)
_cell_volume                     1654.58
_exptl_crystal_colour            colorless
_exptl_crystal_description       plates
_chemical_melting_point          '332 deg.C'
_cell_formula_units_Z            3
_exptl_crystal_recrystallization_method chloroform/hexane
loop_
_atom_site_label
_atom_site_type_symbol
_atom_site_fract_x
_atom_site_fract_y
_atom_site_fract_z
C1 C 0.66330(14) 0.15366(13) 0.18248(10)
C2 C 0.61760(14) 0.07494(13) 0.26687(10)
H1 H 0.6741 0.0324 0.3137
C3 C 0.49274(14) 0.05607(13) 0.28530(10)
C4 C 0.44081(15) -0.02110(14) 0.37890(10)
C5 C 0.50323(15) -0.15039(14) 0.41579(10)
C6 C 0.61968(15) -0.21411(15) 0.36964(11)
H2 H 0.6599 -0.1700 0.3111
C7 C 0.67527(17) -0.33803(15) 0.40790(12)
H3 H 0.7534 -0.3785 0.3757
C8 C 0.61770(18) -0.40608(16) 0.49447(13)
H4 H 0.6574 -0.4917 0.5208
C9 C 0.50528(17) -0.34892(16) 0.54017(12)
H5 H 0.4668 -0.3956 0.5983
C10 C 0.44414(16) -0.22085(15) 0.50276(10)
C11 C 0.32594(16) -0.16198(16) 0.54888(11)
H6 H 0.2849 -0.2093 0.6054
C12 C 0.26998(16) -0.03841(16) 0.51354(11)
H7 H 0.1909 -0.0003 0.5461
C13 C 0.32799(15) 0.03434(15) 0.42878(11)
C14 C 0.26549(16) 0.17211(16) 0.39418(12)
H8 H 0.3338 0.2203 0.3681
H9 H 0.2123 0.2038 0.4491
S1 S 0.16348(4) 0.20010(4) 0.30211(3)
C15 C 0.27470(14) 0.09888(14) 0.22978(11)
H10 H 0.2742 0.0095 0.2620
H11 H 0.2443 0.1185 0.1669
C16 C 0.41046(14) 0.11597(13) 0.21429(10)
C17 C 0.45620(14) 0.19463(13) 0.12990(10)
H12 H 0.4006 0.2349 0.0821
C18 C 0.57949(14) 0.21661(13) 0.11273(10)
C19 C 0.62088(13) 0.31074(13) 0.02510(10)
C20 C 0.61068(13) 0.30565(13) -0.06889(10)
C21 C 0.56496(14) 0.21026(14) -0.08816(11)
H13 H 0.5403 0.1449 -0.0364
C22 C 0.55573(14) 0.21052(15) -0.17963(11)
H14 H 0.5240 0.1462 -0.1902
C23 C 0.59271(15) 0.30504(16) -0.25808(11)
H15 H 0.5856 0.3048 -0.3213
C24 C 0.63886(14) 0.39704(15) -0.24265(11)
H16 H 0.6644 0.4603 -0.2958
C25 C 0.64954(13) 0.40034(13) -0.14939(10)
C26 C 0.69736(14) 0.49579(14) -0.13409(11)
H17 H 0.7232 0.5590 -0.1872
C27 C 0.70679(14) 0.49808(13) -0.04372(11)
H18 H 0.7416 0.5616 -0.0349
C28 C 0.66577(13) 0.40773(13) 0.03711(10)
C29 C 0.66759(14) 0.42142(14) 0.13550(11)
H19 H 0.5881 0.4019 0.1772
H20 H 0.6667 0.5103 0.1311
S2 S 0.80828(4) 0.31844(4) 0.19025(3)
C30 C 0.79872(14) 0.17135(14) 0.16702(11)
H21 H 0.8369 0.1706 0.1001
H22 H 0.8512 0.0991 0.2095
C31 C 0.10752(13) 1.05420(13) -0.03341(10)
C32 C 0.10781(14) 0.95300(13) 0.04708(10)
H23 H 0.1819 0.9216 0.0795
C33 C -0.00246(14) 1.10406(13) -0.08184(10)
C34 C -0.00735(13) 1.21856(14) -0.16377(10)
C35 C -0.03353(14) 1.22115(14) -0.25637(11)
C36 C -0.05182(14) 1.11415(15) -0.27906(11)
H24 H -0.0477 1.0369 -0.2312
C37 C -0.07522(15) 1.11990(16) -0.36834(11)
H25 H -0.0858 1.0466 -0.3819
C38 C -0.08372(17) 1.23326(18) -0.44006(12)
H26 H -0.1007 1.2367 -0.5017
C39 C -0.06763(16) 1.33830(17) -0.42115(12)
H27 H -0.0745 1.4149 -0.4698
C40 C -0.04076(14) 1.33537(15) -0.32996(11)
C41 C -0.02163(15) 1.44400(15) -0.31121(12)
H28 H -0.0283 1.5207 -0.3598
C42 C 0.00615(15) 1.43926(15) -0.22432(11)
H29 H 0.0214 1.5122 -0.2134
C43 C 0.01286(14) 1.32740(14) -0.14960(11)
C44 C 0.03918(15) 1.32966(15) -0.05437(11)
H30 H 0.0193 1.4184 -0.0498
H31 H -0.0186 1.2849 -0.0032
S3 S 0.20701(4) 1.25548(4) -0.03576(3)
C45 C 0.22423(14) 1.10993(14) -0.07056(11)
H32 H 0.3012 1.0474 -0.0460
H33 H 0.2390 1.1272 -0.1413
C33A C 0.00246(14) 0.89594(13) 0.08184(10)
C31A C -0.10752(13) 0.94580(13) 0.03341(10)
C32A C -0.10781(14) 1.04700(13) -0.04708(10)
H23A H -0.1819 1.0784 -0.0795
C45A C -0.22423(14) 0.89007(14) 0.07056(11)
S3A S -0.20701(4) 0.74452(4) 0.03576(3)
C44A C -0.03918(15) 0.67034(15) 0.05437(11)
C43A C -0.01286(14) 0.67260(14) 0.14960(11)
C34A C 0.00735(13) 0.78144(14) 0.16377(10)
C35A C 0.03353(14) 0.77885(14) 0.25637(11)
C36A C 0.05182(14) 0.88585(15) 0.27906(11)
H24A H 0.0477 0.9631 0.2312
C37A C 0.07522(15) 0.88010(16) 0.36834(11)
H25A H 0.0858 0.9534 0.3819
C38A C 0.08372(17) 0.76674(18) 0.44006(12)
H26A H 0.1007 0.7633 0.5017
C39A C 0.06763(16) 0.66170(17) 0.42115(12)
H27A H 0.0745 0.5851 0.4698
C40A C 0.04076(14) 0.66463(15) 0.32996(11)
C41A C 0.02163(15) 0.55600(15) 0.31121(12)
H28A H 0.0283 0.4793 0.3598
C42A C -0.00615(15) 0.56074(15) 0.22432(11)
H29A H -0.0214 0.4878 0.2134
H30A H -0.0193 0.5816 0.0498
H31A H 0.0186 0.7151 0.0032
H32A H -0.3012 0.9526 0.0460
H33A H -0.2390 0.8728 0.1413
loop_
_geom_bond_atom_site_label_1
_geom_bond_atom_site_label_2
_geom_bond_site_symmetry_1
_geom_bond_site_symmetry_2
C1 C2 1_555 1_555
C2 H1 1_555 1_555
C3 C2 1_555 1_555
C4 C3 1_555 1_555
C5 C4 1_555 1_555
C6 C5 1_555 1_555
H2 C6 1_555 1_555
C7 C6 1_555 1_555
H3 C7 1_555 1_555
C8 C7 1_555 1_555
H4 C8 1_555 1_555
C9 C8 1_555 1_555
H5 C9 1_555 1_555
C10 C5 1_555 1_555
C11 C10 1_555 1_555
H6 C11 1_555 1_555
C12 C11 1_555 1_555
H7 C12 1_555 1_555
C13 C4 1_555 1_555
C14 C13 1_555 1_555
H8 C14 1_555 1_555
H9 C14 1_555 1_555
S1 C14 1_555 1_555
C15 S1 1_555 1_555
H10 C15 1_555 1_555
H11 C15 1_555 1_555
C16 C3 1_555 1_555
C17 C16 1_555 1_555
H12 C17 1_555 1_555
C18 C1 1_555 1_555
C19 C18 1_555 1_555
C20 C19 1_555 1_555
C21 C20 1_555 1_555
H13 C21 1_555 1_555
C22 C21 1_555 1_555
H14 C22 1_555 1_555
C23 C22 1_555 1_555
H15 C23 1_555 1_555
C24 C23 1_555 1_555
H16 C24 1_555 1_555
C25 C20 1_555 1_555
C26 C25 1_555 1_555
H17 C26 1_555 1_555
C27 C26 1_555 1_555
H18 C27 1_555 1_555
C28 C19 1_555 1_555
C29 C28 1_555 1_555
H19 C29 1_555 1_555
H20 C29 1_555 1_555
S2 C29 1_555 1_555
C30 C1 1_555 1_555
H21 C30 1_555 1_555
H22 C30 1_555 1_555
C31 C32 1_555 1_555
C32 H23 1_555 1_555
C33 C31 1_555 1_555
C34 C33 1_555 1_555
C35 C34 1_555 1_555
C36 C35 1_555 1_555
H24 C36 1_555 1_555
C37 C36 1_555 1_555
H25 C37 1_555 1_555
C38 C37 1_555 1_555
H26 C38 1_555 1_555
C39 C38 1_555 1_555
H27 C39 1_555 1_555
C40 C35 1_555 1_555
C41 C40 1_555 1_555
H28 C41 1_555 1_555
C42 C41 1_555 1_555
H29 C42 1_555 1_555
C43 C34 1_555 1_555
C44 C43 1_555 1_555
H30 C44 1_555 1_555
H31 C44 1_555 1_555
S3 C44 1_555 1_555
C45 C31 1_555 1_555
H32 C45 1_555 1_555
H33 C45 1_555 1_555
C33A C32 1_555 1_555
C31A C33A 1_555 1_555
C32A C33 1_555 1_555
H23A C32A 1_555 1_555
C45A C31A 1_555 1_555
S3A C45A 1_555 1_555
C44A S3A 1_555 1_555
C43A C44A 1_555 1_555
C34A C33A 1_555 1_555
C35A C34A 1_555 1_555
C36A C35A 1_555 1_555
H24A C36A 1_555 1_555
C37A C36A 1_555 1_555
H25A C37A 1_555 1_555
C38A C37A 1_555 1_555
H26A C38A 1_555 1_555
C39A C38A 1_555 1_555
H27A C39A 1_555 1_555
C40A C35A 1_555 1_555
C41A C40A 1_555 1_555
H28A C41A 1_555 1_555
C42A C43A 1_555 1_555
H29A C42A 1_555 1_555
H30A C44A 1_555 1_555
H31A C44A 1_555 1_555
H32A C45A 1_555 1_555
H33A C45A 1_555 1_555
C9 C10 1_555 1_555
C12 C13 1_555 1_555
C15 C16 1_555 1_555
C17 C18 1_555 1_555
C24 C25 1_555 1_555
C27 C28 1_555 1_555
S2 C30 1_555 1_555
C39 C40 1_555 1_555
C42 C43 1_555 1_555
S3 C45 1_555 1_555
C31A C32A 1_555 1_555
C43A C34A 1_555 1_555
C39A C40A 1_555 1_555
C41A C42A 1_555 1_555

#END
