
#######################################################################
#
#                 Cambridge Crystallographic Data Centre
#                                CCDC 
#
#######################################################################
#
# If this CIF has been generated from an entry in the Cambridge 
# Structural Database, then it will include bibliographic, chemical, 
# crystal, experimental, refinement or atomic coordinate data resulting 
# from the CCDC's data processing and validation procedures.
#
#######################################################################

data_SIZQIC
_chemical_formula_moiety         'C58 H60'
_chemical_name_systematic        3,6,9,12-tetrakis(4-t-Butylphenyl)chrysene
_symmetry_cell_setting           monoclinic
_symmetry_space_group_name_H-M   'P 21/c'
_symmetry_Int_Tables_number      14
_space_group_name_Hall           '-P 2ybc'
loop_
_symmetry_equiv_pos_site_id
_symmetry_equiv_pos_as_xyz
1 x,y,z
2 -x,1/2+y,1/2-z
3 -x,-y,-z
4 x,1/2-y,1/2+z
_cell_length_a                   15.3050(15)
_cell_length_b                   9.6769(9)
_cell_length_c                   14.6721(15)
_cell_angle_alpha                90
_cell_angle_beta                 90.280(2)
_cell_angle_gamma                90
_cell_volume                     2172.98
_exptl_crystal_colour            colorless
_exptl_crystal_description       'irregular block'
_chemical_melting_point          376.48deg.C
_cell_formula_units_Z            2
_exptl_crystal_recrystallization_method pentane
_exptl_crystal_preparation       photoluminescent
loop_
_atom_site_label
_atom_site_type_symbol
_atom_site_fract_x
_atom_site_fract_y
_atom_site_fract_z
C1 C 0.37755(15) 0.0282(2) -0.00678(16)
C2 C 0.30971(16) 0.0463(3) -0.07158(17)
H1 H 0.3237 0.0457 -0.1332
C3 C 0.22323(16) 0.0650(3) -0.04671(18)
C4 C 0.20305(18) 0.0620(3) 0.04618(19)
H2 H 0.1453 0.0735 0.0642
C5 C 0.26636(17) 0.0424(3) 0.11115(19)
H3 H 0.2508 0.0403 0.1723
C6 C 0.35472(16) 0.0252(2) 0.08689(16)
C7 C 0.42217(16) 0.0019(2) 0.15440(16)
C8 C 0.50631(16) -0.0163(2) 0.12700(16)
H4 H 0.5489 -0.0328 0.1711
C9 C 0.46803(15) 0.0111(2) -0.03407(16)
C10 C 0.15384(18) 0.0876(3) -0.1157(2)
C15 C 0.1717(3) 0.1306(7) -0.2042(3)
H9 H 0.2293 0.1497 -0.2198
C16 C 0.1068(3) 0.1462(7) -0.2700(4)
H10 H 0.1218 0.1741 -0.3286
C17 C -0.0012(5) 0.0946(9) -0.1611(7)
H11 H -0.0596 0.0874 -0.1444
C18 C 0.0644(6) 0.0786(9) -0.0945(6)
H12 H 0.0482 0.0616 -0.0345
C19 C 0.01924(19) 0.1204(4) -0.2493(2)
C20 C -0.0536(2) 0.1300(4) -0.3219(2)
C21 C -0.0839(4) -0.0119(6) -0.3443(5)
H13 H -0.1354 -0.0067 -0.3817
H14 H -0.0971 -0.0606 -0.2891
H15 H -0.0388 -0.0601 -0.3767
C22 C -0.0238(2) 0.2083(6) -0.4026(3)
H16 H -0.0721 0.2224 -0.4435
H17 H 0.0212 0.1572 -0.4331
H18 H -0.0011 0.2962 -0.3835
C23 C -0.1331(3) 0.2061(8) -0.2849(3)
H19 H -0.1784 0.2071 -0.3303
H20 H -0.1171 0.2993 -0.2698
H21 H -0.1538 0.1599 -0.2313
C24 C 0.39993(15) -0.0089(2) 0.25342(16)
C25 C 0.3652(2) 0.1013(3) 0.30154(19)
H22 H 0.3552 0.1847 0.2717
C26 C 0.3451(2) 0.0897(3) 0.39274(19)
H23 H 0.3217 0.1656 0.4229
C27 C 0.35869(16) -0.0319(3) 0.44068(17)
C28 C 0.39370(19) -0.1412(3) 0.39213(18)
H24 H 0.4038 -0.2246 0.4219
C29 C 0.41417(18) -0.1299(3) 0.30029(18)
H25 H 0.4379 -0.2054 0.2700
C30 C 0.33578(19) -0.0465(3) 0.54178(17)
C31 C 0.2545(3) -0.1364(7) 0.5510(3)
H26 H 0.2041 -0.0852 0.5313
H27 H 0.2475 -0.1631 0.6136
H28 H 0.2607 -0.2175 0.5139
C32 C 0.3291(4) 0.0910(5) 0.5878(3)
H29 H 0.2763 0.1364 0.5685
H30 H 0.3785 0.1468 0.5717
H31 H 0.3280 0.0782 0.6526
C33 C 0.4105(3) -0.1228(4) 0.5916(2)
H32 H 0.4635 -0.0704 0.5863
H33 H 0.4186 -0.2123 0.5646
H34 H 0.3960 -0.1333 0.6548
C1B C 0.62245(15) -0.0282(2) 0.00678(16)
C2B C 0.69029(16) -0.0463(3) 0.07158(17)
H1B H 0.6763 -0.0457 0.1332
C3B C 0.77677(16) -0.0650(3) 0.04671(18)
C4B C 0.79695(18) -0.0620(3) -0.04618(19)
H2B H 0.8547 -0.0735 -0.0642
C5B C 0.73364(17) -0.0424(3) -0.11115(19)
H3B H 0.7492 -0.0403 -0.1723
C6B C 0.64528(16) -0.0252(2) -0.08689(16)
C7B C 0.57783(16) -0.0019(2) -0.15440(16)
C8B C 0.49369(16) 0.0163(2) -0.12700(16)
H4B H 0.4511 0.0328 -0.1711
C9B C 0.53197(15) -0.0111(2) 0.03407(16)
C10B C 0.84616(18) -0.0876(3) 0.1157(2)
C15B C 0.8283(3) -0.1306(7) 0.2042(3)
H9B H 0.7707 -0.1497 0.2198
C16B C 0.8932(3) -0.1462(7) 0.2700(4)
H10B H 0.8782 -0.1741 0.3286
C17B C 1.0012(5) -0.0946(9) 0.1611(7)
H11B H 1.0596 -0.0874 0.1444
C18B C 0.9356(6) -0.0786(9) 0.0945(6)
H12B H 0.9518 -0.0616 0.0345
C19B C 0.98076(19) -0.1204(4) 0.2493(2)
C20B C 1.0536(2) -0.1300(4) 0.3219(2)
C21B C 1.0839(4) 0.0119(6) 0.3443(5)
H13B H 1.1354 0.0067 0.3817
H14B H 1.0971 0.0606 0.2891
H15B H 1.0388 0.0601 0.3767
C22B C 1.0238(2) -0.2083(6) 0.4026(3)
H16B H 1.0721 -0.2224 0.4435
H17B H 0.9788 -0.1572 0.4331
H18B H 1.0011 -0.2962 0.3835
C23B C 1.1331(3) -0.2061(8) 0.2849(3)
H19B H 1.1784 -0.2071 0.3303
H20B H 1.1171 -0.2993 0.2698
H21B H 1.1538 -0.1599 0.2313
C24B C 0.60007(15) 0.0089(2) -0.25342(16)
C25B C 0.6348(2) -0.1013(3) -0.30154(19)
H22B H 0.6448 -0.1847 -0.2717
C26B C 0.6549(2) -0.0897(3) -0.39274(19)
H23B H 0.6783 -0.1656 -0.4229
C27B C 0.64131(16) 0.0319(3) -0.44068(17)
C28B C 0.60630(19) 0.1412(3) -0.39213(18)
H24B H 0.5962 0.2246 -0.4219
C29B C 0.58583(18) 0.1299(3) -0.30029(18)
H25B H 0.5621 0.2054 -0.2700
C30B C 0.66422(19) 0.0465(3) -0.54178(17)
C31B C 0.7455(3) 0.1364(7) -0.5510(3)
H26B H 0.7959 0.0852 -0.5313
H27B H 0.7525 0.1631 -0.6136
H28B H 0.7393 0.2175 -0.5139
C32B C 0.6709(4) -0.0910(5) -0.5878(3)
H29B H 0.7237 -0.1364 -0.5685
H30B H 0.6215 -0.1468 -0.5717
H31B H 0.6720 -0.0782 -0.6526
C33B C 0.5895(3) 0.1228(4) -0.5916(2)
H32B H 0.5365 0.0704 -0.5863
H33B H 0.5814 0.2123 -0.5646
H34B H 0.6040 0.1333 -0.6548
C11? C 0.1622(6) 0.0224(14) -0.2047(7)
H5? H 0.2115 -0.0293 -0.2191
C12? C 0.0947(7) 0.0393(15) -0.2680(8)
H6? H 0.0991 -0.0041 -0.3243
C13? C 0.0111(13) 0.154(2) -0.1600(16)
H7? H -0.0418 0.1900 -0.1400
C14? C 0.0785(14) 0.137(2) -0.0973(16)
H8? H 0.0679 0.1631 -0.0374
loop_
_geom_bond_atom_site_label_1
_geom_bond_atom_site_label_2
_geom_bond_site_symmetry_1
_geom_bond_site_symmetry_2
C1 C2 1_555 1_555
C2 H1 1_555 1_555
C3 C2 1_555 1_555
C4 C3 1_555 1_555
H2 C4 1_555 1_555
C5 C4 1_555 1_555
H3 C5 1_555 1_555
C6 C1 1_555 1_555
C7 C6 1_555 1_555
C8 C7 1_555 1_555
H4 C8 1_555 1_555
C9 C1 1_555 1_555
C10 C3 1_555 1_555
C15 C10 1_555 1_555
H9 C15 1_555 1_555
C16 C15 1_555 1_555
H10 C16 1_555 1_555
C17 H11 1_555 1_555
C18 C10 1_555 1_555
H12 C18 1_555 1_555
C19 C16 1_555 1_555
C20 C19 1_555 1_555
C21 C20 1_555 1_555
H13 C21 1_555 1_555
H14 C21 1_555 1_555
H15 C21 1_555 1_555
C22 C20 1_555 1_555
H16 C22 1_555 1_555
H17 C22 1_555 1_555
H18 C22 1_555 1_555
C23 C20 1_555 1_555
H19 C23 1_555 1_555
H20 C23 1_555 1_555
H21 C23 1_555 1_555
C24 C7 1_555 1_555
C25 C24 1_555 1_555
H22 C25 1_555 1_555
C26 C25 1_555 1_555
H23 C26 1_555 1_555
C27 C26 1_555 1_555
C28 C27 1_555 1_555
H24 C28 1_555 1_555
C29 C24 1_555 1_555
H25 C29 1_555 1_555
C30 C27 1_555 1_555
C31 C30 1_555 1_555
H26 C31 1_555 1_555
H27 C31 1_555 1_555
H28 C31 1_555 1_555
C32 C30 1_555 1_555
H29 C32 1_555 1_555
H30 C32 1_555 1_555
H31 C32 1_555 1_555
C33 C30 1_555 1_555
H32 C33 1_555 1_555
H33 C33 1_555 1_555
H34 C33 1_555 1_555
C1B C2B 1_555 1_555
C2B H1B 1_555 1_555
C3B C2B 1_555 1_555
C4B C3B 1_555 1_555
H2B C4B 1_555 1_555
C5B C4B 1_555 1_555
H3B C5B 1_555 1_555
C6B C1B 1_555 1_555
C7B C6B 1_555 1_555
C8B C9 1_555 1_555
H4B C8B 1_555 1_555
C9B C8 1_555 1_555
C10B C3B 1_555 1_555
C15B C10B 1_555 1_555
H9B C15B 1_555 1_555
C16B C15B 1_555 1_555
H10B C16B 1_555 1_555
C17B H11B 1_555 1_555
C18B C10B 1_555 1_555
H12B C18B 1_555 1_555
C19B C16B 1_555 1_555
C20B C19B 1_555 1_555
C21B C20B 1_555 1_555
H13B C21B 1_555 1_555
H14B C21B 1_555 1_555
H15B C21B 1_555 1_555
C22B C20B 1_555 1_555
H16B C22B 1_555 1_555
H17B C22B 1_555 1_555
H18B C22B 1_555 1_555
C23B C20B 1_555 1_555
H19B C23B 1_555 1_555
H20B C23B 1_555 1_555
H21B C23B 1_555 1_555
C24B C7B 1_555 1_555
C25B C24B 1_555 1_555
H22B C25B 1_555 1_555
C26B C25B 1_555 1_555
H23B C26B 1_555 1_555
C27B C26B 1_555 1_555
C28B C27B 1_555 1_555
H24B C28B 1_555 1_555
C29B C24B 1_555 1_555
H25B C29B 1_555 1_555
C30B C27B 1_555 1_555
C31B C30B 1_555 1_555
H26B C31B 1_555 1_555
H27B C31B 1_555 1_555
H28B C31B 1_555 1_555
C32B C30B 1_555 1_555
H29B C32B 1_555 1_555
H30B C32B 1_555 1_555
H31B C32B 1_555 1_555
C33B C30B 1_555 1_555
H32B C33B 1_555 1_555
H33B C33B 1_555 1_555
H34B C33B 1_555 1_555
C5 C6 1_555 1_555
C9 C9B 1_555 1_555
C17 C18 1_555 1_555
C17 C19 1_555 1_555
C28 C29 1_555 1_555
C1B C9B 1_555 1_555
C5B C6B 1_555 1_555
C7B C8B 1_555 1_555
C17B C18B 1_555 1_555
C17B C19B 1_555 1_555
C28B C29B 1_555 1_555

#END
