
#######################################################################
#
#                 Cambridge Crystallographic Data Centre
#                                CCDC 
#
#######################################################################
#
# If this CIF has been generated from an entry in the Cambridge 
# Structural Database, then it will include bibliographic, chemical, 
# crystal, experimental, refinement or atomic coordinate data resulting 
# from the CCDC's data processing and validation procedures.
#
#######################################################################

data_SIZROJ
_chemical_formula_moiety         'C19 H16 O1'
_chemical_name_systematic        (E)-3-Benzyl-4-benzylidenecyclopent-2-enone
_symmetry_cell_setting           monoclinic
_symmetry_space_group_name_H-M   'C c'
_symmetry_Int_Tables_number      9
_space_group_name_Hall           'C -2yc'
loop_
_symmetry_equiv_pos_site_id
_symmetry_equiv_pos_as_xyz
1 x,y,z
2 x,-y,1/2+z
3 1/2+x,1/2+y,z
4 1/2+x,1/2-y,1/2+z
_cell_length_a                   27.151(3)
_cell_length_b                   7.5779(4)
_cell_length_c                   7.2416(8)
_cell_angle_alpha                90
_cell_angle_beta                 101.694(3)
_cell_angle_gamma                90
_cell_volume                     1459.02
_exptl_crystal_colour            yellow
_exptl_crystal_description       plate
_cell_formula_units_Z            4
loop_
_atom_site_label
_atom_site_type_symbol
_atom_site_fract_x
_atom_site_fract_y
_atom_site_fract_z
O1 O 0.3342(2) 0.14737(18) 0.4275(9)
C1 C 0.22393(14) 0.7529(5) 0.4472(5)
C2 C 0.20836(17) 0.8676(6) 0.5718(6)
H1 H 0.2317 0.9414 0.6460
C3 C 0.1592(2) 0.8740(9) 0.5875(7)
H2 H 0.1494 0.9532 0.6713
C4 C 0.12376(19) 0.7647(7) 0.4809(6)
H3 H 0.0905 0.7679 0.4953
C5 C 0.13751(17) 0.6555(7) 0.3584(8)
H4 H 0.1138 0.5826 0.2848
C6 C 0.18912(17) 0.6492(6) 0.3386(7)
H5 H 0.1986 0.5736 0.2508
C7 C 0.27809(15) 0.7518(5) 0.4358(5)
H6 H 0.2943 0.8595 0.4323
C8 C 0.30578(13) 0.5981(4) 0.4301(4)
C9 C 0.28966(16) 0.4148(4) 0.4280(5)
H7 H 0.2758 0.3895 0.5385
H8 H 0.2640 0.3915 0.3165
C10 C 0.3330(2) 0.3074(2) 0.4276(8)
C11 C 0.37719(15) 0.4273(5) 0.4294(5)
H9 H 0.4100 0.3922 0.4299
C12 C 0.36008(13) 0.6004(4) 0.4301(4)
C13 C 0.38850(16) 0.7591(5) 0.4325(5)
H10 H 0.3862 0.8215 0.5474
H11 H 0.3714 0.8312 0.3283
C14 C 0.44265(14) 0.7549(4) 0.4215(5)
C15 C 0.45919(16) 0.8535(6) 0.2886(6)
H12 H 0.4364 0.9239 0.2076
C16 C 0.5097(2) 0.8517(7) 0.2710(8)
H13 H 0.5200 0.9180 0.1776
C17 C 0.54290(18) 0.7540(7) 0.3895(7)
H14 H 0.5765 0.7531 0.3798
C18 C 0.52708(17) 0.6533(6) 0.5275(6)
H15 H 0.5502 0.5856 0.6105
C19 C 0.47907(16) 0.6541(6) 0.5403(6)
H16 H 0.4692 0.5846 0.6322
loop_
_geom_bond_atom_site_label_1
_geom_bond_atom_site_label_2
_geom_bond_site_symmetry_1
_geom_bond_site_symmetry_2
O1 C10 1_555 1_555
C1 C2 1_555 1_555
C2 H1 1_555 1_555
C3 C2 1_555 1_555
H2 C3 1_555 1_555
C4 C3 1_555 1_555
H3 C4 1_555 1_555
C5 C4 1_555 1_555
H4 C5 1_555 1_555
C6 C1 1_555 1_555
H5 C6 1_555 1_555
C7 C1 1_555 1_555
H6 C7 1_555 1_555
C8 C7 1_555 1_555
C9 C8 1_555 1_555
H7 C9 1_555 1_555
H8 C9 1_555 1_555
C10 C9 1_555 1_555
C11 C10 1_555 1_555
H9 C11 1_555 1_555
C12 C8 1_555 1_555
C13 C12 1_555 1_555
H10 C13 1_555 1_555
H11 C13 1_555 1_555
C14 C13 1_555 1_555
C15 C14 1_555 1_555
H12 C15 1_555 1_555
C16 C15 1_555 1_555
H13 C16 1_555 1_555
C17 C16 1_555 1_555
H14 C17 1_555 1_555
C18 C17 1_555 1_555
H15 C18 1_555 1_555
C19 C14 1_555 1_555
H16 C19 1_555 1_555
C5 C6 1_555 1_555
C11 C12 1_555 1_555
C18 C19 1_555 1_555

#END
