
#######################################################################
#
#                 Cambridge Crystallographic Data Centre
#                                CCDC 
#
#######################################################################
#
# If this CIF has been generated from an entry in the Cambridge 
# Structural Database, then it will include bibliographic, chemical, 
# crystal, experimental, refinement or atomic coordinate data resulting 
# from the CCDC's data processing and validation procedures.
#
#######################################################################

data_SIZTED
_chemical_formula_moiety         'C10 H7 Br1 I1 N1 O1'
_chemical_name_systematic        6-bromo-4-iodo-2-methylisoquinolin-1(2H)-one
_symmetry_cell_setting           triclinic
_symmetry_space_group_name_H-M   'P -1'
_symmetry_Int_Tables_number      2
_space_group_name_Hall           '-P 1'
loop_
_symmetry_equiv_pos_site_id
_symmetry_equiv_pos_as_xyz
1 x,y,z
2 -x,-y,-z
_cell_length_a                   4.1645(3)
_cell_length_b                   14.2076(8)
_cell_length_c                   17.6560(9)
_cell_angle_alpha                87.065(4)
_cell_angle_beta                 86.447(5)
_cell_angle_gamma                87.932(5)
_cell_volume                     1040.72
_cell_formula_units_Z            4
loop_
_atom_site_label
_atom_site_type_symbol
_atom_site_fract_x
_atom_site_fract_y
_atom_site_fract_z
I1 I 0.23242(13) 0.59027(3) 0.63061(3)
Br1 Br 0.9221(3) 0.49155(8) 0.90208(6)
O1 O 0.655(2) 0.1691(5) 0.6392(4)
C1 C 0.5631(19) 0.4098(5) 0.7018(5)
N1 N 0.414(2) 0.2986(5) 0.5830(4)
C2 C 0.390(2) 0.4486(5) 0.6383(5)
C3 C 0.642(2) 0.4608(6) 0.7639(4)
H1 H 0.580644 0.524207 0.765739
C4 C 0.328(2) 0.3909(6) 0.5835(4)
H2 H 0.217422 0.416671 0.542788
C5 C 0.658(2) 0.3129(6) 0.7031(4)
C6 C 0.805(2) 0.4194(6) 0.8207(4)
C7 C 0.330(3) 0.2425(8) 0.5206(6)
H3 H 0.208826 0.189569 0.540490
H4 H 0.522966 0.220352 0.493621
H5 H 0.202570 0.280674 0.486547
C8 C 0.584(2) 0.2532(6) 0.6412(5)
C9 C 0.823(2) 0.2714(6) 0.7632(5)
H6 H 0.879650 0.207462 0.763577
C10 C 0.903(2) 0.3236(7) 0.8215(5)
H7 H 1.019271 0.296552 0.860883
I2 I -0.26011(14) -0.06333(4) 0.11584(3)
Br2 Br 0.4966(3) 0.25682(8) 0.00012(6)
O2 O 0.002(2) 0.1923(5) 0.3752(3)
N2 N -0.193(2) 0.0587(5) 0.3310(4)
C11 C -0.142(2) 0.0271(6) 0.1994(4)
C12 C 0.401(2) 0.2726(5) 0.1600(5)
H8 H 0.524991 0.325676 0.152041
C13 C 0.157(2) 0.1397(6) 0.1080(4)
H9 H 0.115825 0.105652 0.066309
C14 C 0.281(2) 0.2458(6) 0.2314(5)
H10 H 0.322479 0.281364 0.272221
C15 C 0.038(2) 0.1104(6) 0.1826(4)
C16 C -0.249(2) 0.0031(6) 0.2721(5)
H11 H -0.362629 -0.051827 0.281995
C17 C 0.333(2) 0.2188(6) 0.0995(5)
C18 C -0.035(2) 0.1425(7) 0.3215(5)
C19 C 0.099(2) 0.1666(5) 0.2436(4)
C20 C -0.322(3) 0.0322(7) 0.4076(5)
H12 H -0.474680 0.079992 0.424635
H13 H -0.149445 0.026227 0.441411
H14 H -0.426244 -0.026853 0.407218
loop_
_geom_bond_atom_site_label_1
_geom_bond_atom_site_label_2
_geom_bond_site_symmetry_1
_geom_bond_site_symmetry_2
I1 C2 1_555 1_555
Br1 C6 1_555 1_555
O1 C8 1_555 1_555
C1 C2 1_555 1_555
N1 C4 1_555 1_555
C2 C4 1_555 1_555
C3 C1 1_555 1_555
H1 C3 1_555 1_555
C4 H2 1_555 1_555
C5 C1 1_555 1_555
C6 C3 1_555 1_555
C7 N1 1_555 1_555
H3 C7 1_555 1_555
H4 C7 1_555 1_555
H5 C7 1_555 1_555
C8 N1 1_555 1_555
C9 C5 1_555 1_555
H6 C9 1_555 1_555
C10 C6 1_555 1_555
H7 C10 1_555 1_555
I2 C11 1_555 1_555
Br2 C17 1_555 1_555
O2 C18 1_555 1_555
N2 C16 1_555 1_555
C11 C15 1_555 1_555
C12 H8 1_555 1_555
C13 H9 1_555 1_555
C14 C12 1_555 1_555
H10 C14 1_555 1_555
C15 C13 1_555 1_555
C16 C11 1_555 1_555
H11 C16 1_555 1_555
C17 C12 1_555 1_555
C18 N2 1_555 1_555
C19 C14 1_555 1_555
C20 N2 1_555 1_555
H12 C20 1_555 1_555
H13 C20 1_555 1_555
H14 C20 1_555 1_555
C5 C8 1_555 1_555
C9 C10 1_555 1_555
C13 C17 1_555 1_555
C15 C19 1_555 1_555
C18 C19 1_555 1_555

#END
