
#######################################################################
#
#                 Cambridge Crystallographic Data Centre
#                                CCDC 
#
#######################################################################
#
# If this CIF has been generated from an entry in the Cambridge 
# Structural Database, then it will include bibliographic, chemical, 
# crystal, experimental, refinement or atomic coordinate data resulting 
# from the CCDC's data processing and validation procedures.
#
#######################################################################

data_SIZYUX
_chemical_compound_source        'Aspergillus clavatus'
_chemical_formula_moiety         'C28 H33 N1 O3'
_chemical_name_systematic        
3-benzyl-4,5,10,12-tetramethyl-3,3a,4,6a,9,10-hexahydro-1H-cycloundeca[d]isoindole-1,11,15(2H,12H)-trione
_symmetry_cell_setting           orthorhombic
_symmetry_space_group_name_H-M   'P 21 21 21'
_symmetry_Int_Tables_number      19
_space_group_name_Hall           'P 2ac 2ab'
loop_
_symmetry_equiv_pos_site_id
_symmetry_equiv_pos_as_xyz
1 x,y,z
2 1/2-x,-y,1/2+z
3 -x,1/2+y,1/2-z
4 1/2+x,1/2-y,-z
_cell_length_a                   8.4582(8)
_cell_length_b                   12.7947(11)
_cell_length_c                   21.9144(19)
_cell_angle_alpha                90
_cell_angle_beta                 90
_cell_angle_gamma                90
_cell_volume                     2371.58
_exptl_crystal_colour            colorless
_exptl_crystal_description       block
_cell_formula_units_Z            4
loop_
_atom_site_label
_atom_site_type_symbol
_atom_site_fract_x
_atom_site_fract_y
_atom_site_fract_z
C1 C 0.12942(19) 0.94350(12) 0.72326(7)
C2 C 0.1324(2) 0.84804(13) 0.69252(8)
H1 H 0.2230 0.8289 0.6695
C3 C 0.0032(2) 0.78058(13) 0.69544(9)
H2 H 0.0065 0.7156 0.6745
C4 C -0.1300(2) 0.80749(13) 0.72871(8)
H3 H -0.2170 0.7607 0.7312
C5 C -0.1355(2) 0.90311(15) 0.75828(8)
H4 H -0.2271 0.9227 0.7806
C6 C -0.0069(2) 0.97032(13) 0.75521(7)
H5 H -0.0121 1.0360 0.7753
O1 O 0.49646(14) 0.70680(9) 0.77885(5)
O2 O 0.44132(16) 0.42060(10) 0.87506(6)
O3 O 0.11795(15) 0.82185(9) 0.89252(6)
C7 C 0.45217(18) 0.79652(12) 0.78954(7)
N1 N 0.46657(15) 0.87718(10) 0.75110(6)
H6 H 0.511(2) 0.8714(14) 0.7148(9)
C8 C 0.39984(18) 0.97646(12) 0.77035(7)
H7 H 0.4861 1.0298 0.7722
C9 C 0.34015(19) 0.95369(12) 0.83642(7)
H8 H 0.2230 0.9642 0.8377
C10 C 0.41822(19) 1.02788(12) 0.88346(7)
H9 H 0.3741 1.0092 0.9244
C11 C 0.59339(19) 1.00317(12) 0.88530(7)
C12 C 0.6304(2) 0.90336(13) 0.89472(7)
H10 H 0.7379 0.8819 0.8957
C13 C 0.4998(2) 0.82458(12) 0.90389(7)
H11 H 0.4425 0.8455 0.9419
C14 C 0.37661(19) 0.83646(12) 0.84890(7)
C15 C 0.27210(18) 1.01383(12) 0.72510(7)
H12 H 0.2381 1.0852 0.7367
H13 H 0.3188 1.0177 0.6837
C16 C 0.3752(2) 1.14231(13) 0.87177(8)
H14 H 0.4217 1.1862 0.9037
H15 H 0.2600 1.1502 0.8722
H16 H 0.4165 1.1638 0.8319
C17 C 0.7144(2) 1.08691(13) 0.87384(8)
H17 H 0.8207 1.0569 0.8770
H18 H 0.7023 1.1426 0.9042
H19 H 0.6991 1.1159 0.8329
C18 C 0.5599(2) 0.71546(13) 0.91426(7)
H20 H 0.6265 0.6850 0.8842
C19 C 0.5243(2) 0.65987(13) 0.96337(7)
H21 H 0.4616 0.6930 0.9937
C20 C 0.5742(2) 0.54911(13) 0.97521(8)
H22 H 0.6337 0.5464 1.0141
H23 H 0.6463 0.5263 0.9422
C21 C 0.4333(2) 0.47255(13) 0.97885(7)
H24 H 0.3515 0.5017 1.0070
C22 C 0.3600(2) 0.45552(12) 0.91588(7)
C23 C 0.1856(2) 0.48097(13) 0.90472(7)
H25 H 0.1576 0.4556 0.8629
C24 C 0.1660(2) 0.59870(13) 0.90532(8)
H26 H 0.1061 0.6298 0.9372
C25 C 0.2292(2) 0.65991(13) 0.86310(8)
H27 H 0.2771 0.6289 0.8283
C26 C 0.22716(19) 0.77571(13) 0.86854(7)
C27 C 0.4893(3) 0.36610(13) 1.00307(8)
H28 H 0.4001 0.3173 1.0038
H29 H 0.5311 0.3746 1.0445
H30 H 0.5724 0.3386 0.9764
C28 C 0.0759(2) 0.42613(14) 0.95032(8)
H31 H 0.0957 0.4533 0.9914
H32 H 0.0964 0.3508 0.9496
H33 H -0.0344 0.4392 0.9391
loop_
_geom_bond_atom_site_label_1
_geom_bond_atom_site_label_2
_geom_bond_site_symmetry_1
_geom_bond_site_symmetry_2
C1 C2 1_555 1_555
C2 H1 1_555 1_555
C3 C2 1_555 1_555
H2 C3 1_555 1_555
C4 C3 1_555 1_555
H3 C4 1_555 1_555
C5 C4 1_555 1_555
H4 C5 1_555 1_555
C6 C1 1_555 1_555
H5 C6 1_555 1_555
O1 C7 1_555 1_555
O2 C22 1_555 1_555
O3 C26 1_555 1_555
C7 N1 1_555 1_555
N1 H6 1_555 1_555
C8 N1 1_555 1_555
H7 C8 1_555 1_555
C9 C8 1_555 1_555
H8 C9 1_555 1_555
C10 C9 1_555 1_555
H9 C10 1_555 1_555
C11 C10 1_555 1_555
C12 C11 1_555 1_555
H10 C12 1_555 1_555
C13 C12 1_555 1_555
H11 C13 1_555 1_555
C14 C7 1_555 1_555
C15 C1 1_555 1_555
H12 C15 1_555 1_555
H13 C15 1_555 1_555
C16 C10 1_555 1_555
H14 C16 1_555 1_555
H15 C16 1_555 1_555
H16 C16 1_555 1_555
C17 C11 1_555 1_555
H17 C17 1_555 1_555
H18 C17 1_555 1_555
H19 C17 1_555 1_555
C18 C13 1_555 1_555
H20 C18 1_555 1_555
C19 C18 1_555 1_555
H21 C19 1_555 1_555
C20 C19 1_555 1_555
H22 C20 1_555 1_555
H23 C20 1_555 1_555
C21 C20 1_555 1_555
H24 C21 1_555 1_555
C22 C21 1_555 1_555
C23 C22 1_555 1_555
H25 C23 1_555 1_555
C24 C23 1_555 1_555
H26 C24 1_555 1_555
C25 C24 1_555 1_555
H27 C25 1_555 1_555
C26 C14 1_555 1_555
C27 C21 1_555 1_555
H28 C27 1_555 1_555
H29 C27 1_555 1_555
H30 C27 1_555 1_555
C28 C23 1_555 1_555
H31 C28 1_555 1_555
H32 C28 1_555 1_555
H33 C28 1_555 1_555
C5 C6 1_555 1_555
C8 C15 1_555 1_555
C9 C14 1_555 1_555
C13 C14 1_555 1_555
C25 C26 1_555 1_555

#END
