
#######################################################################
#
#                 Cambridge Crystallographic Data Centre
#                                CCDC 
#
#######################################################################
#
# If this CIF has been generated from an entry in the Cambridge 
# Structural Database, then it will include bibliographic, chemical, 
# crystal, experimental, refinement or atomic coordinate data resulting 
# from the CCDC's data processing and validation procedures.
#
#######################################################################

data_SIZZEI
_chemical_formula_moiety         'C20 H21 N1 O3'
_chemical_name_systematic        
'ethyl 3-hydroxy-2-(2-methyl-1H-indol-3-yl)-3-phenylpropanoate'
_symmetry_cell_setting           monoclinic
_symmetry_space_group_name_H-M   'P 21/c'
_symmetry_Int_Tables_number      14
_space_group_name_Hall           '-P 2ybc'
loop_
_symmetry_equiv_pos_site_id
_symmetry_equiv_pos_as_xyz
1 x,y,z
2 -x,1/2+y,1/2-z
3 -x,-y,-z
4 x,1/2-y,1/2+z
_cell_length_a                   7.093(8)
_cell_length_b                   15.469(17)
_cell_length_c                   16.194(18)
_cell_angle_alpha                90
_cell_angle_beta                 95.977(17)
_cell_angle_gamma                90
_cell_volume                     1767.17
_exptl_crystal_colour            colorless
_exptl_crystal_description       prismatic
_cell_formula_units_Z            4
loop_
_atom_site_label
_atom_site_type_symbol
_atom_site_fract_x
_atom_site_fract_y
_atom_site_fract_z
N1 N 0.4879(10) 0.7873(4) 0.8483(3)
O1 O 0.4211(7) 0.8379(3) 0.4864(2)
O2 O 0.4867(8) 1.0045(3) 0.5908(3)
O3 O 0.2103(8) 0.9933(3) 0.6437(3)
C1 C 0.5027(9) 0.8238(4) 0.5706(3)
H1 H 0.6289 0.8502 0.5775
C2 C 0.3824(9) 0.8653(4) 0.6325(3)
H2 H 0.2534 0.8422 0.6223
C3 C 0.3733(12) 0.9598(5) 0.6194(4)
C4 C 0.1824(13) 1.0875(5) 0.6371(5)
H3 H 0.3035 1.1161 0.6349
H4 H 0.1261 1.1088 0.6853
C5 C 0.0552(14) 1.1067(5) 0.5602(6)
H5 H 0.1172 1.0908 0.5125
H6 H 0.0267 1.1674 0.5580
H7 H -0.0601 1.0744 0.5605
C6 C 0.4563(9) 0.8452(4) 0.7217(3)
C7 C 0.6373(10) 0.8725(4) 0.7640(3)
C8 C 0.7819(11) 0.9243(4) 0.7418(4)
H8 H 0.7737 0.9515 0.6903
C9 C 0.9423(11) 0.9347(5) 0.7997(5)
H9 H 1.0479 0.9649 0.7857
C10 C 0.9397(12) 0.8994(6) 0.8773(5)
H10 H 1.0429 0.9109 0.9160
C11 C 0.8011(12) 0.8498(5) 0.9021(4)
H11 H 0.8083 0.8260 0.9551
C12 C 0.6413(11) 0.8360(4) 0.8419(4)
C13 C 0.3709(10) 0.7920(4) 0.7738(4)
C14 C 0.1940(10) 0.7396(5) 0.7624(4)
H12 H 0.1162 0.7593 0.7140
H13 H 0.1260 0.7459 0.8103
H14 H 0.2257 0.6799 0.7556
C15 C 0.5243(11) 0.7286(5) 0.5829(3)
C16 C 0.7002(13) 0.6957(6) 0.6192(4)
H15 H 0.8014 0.7324 0.6350
C17 C 0.716(2) 0.6091(8) 0.6302(6)
H16 H 0.8341 0.5874 0.6504
C18 C 0.579(2) 0.5540(7) 0.6145(7)
H17 H 0.5980 0.4960 0.6277
C19 C 0.3990(17) 0.5829(7) 0.5769(6)
H18 H 0.2995 0.5447 0.5630
C20 C 0.3805(12) 0.6721(5) 0.5623(4)
H19 H 0.2655 0.6933 0.5376
H20 H 0.442(9) 0.8916(16) 0.480(4)
H21 H 0.463(7) 0.756(3) 0.889(2)
loop_
_geom_bond_atom_site_label_1
_geom_bond_atom_site_label_2
_geom_bond_site_symmetry_1
_geom_bond_site_symmetry_2
N1 C12 1_555 1_555
O1 C1 1_555 1_555
O2 C3 1_555 1_555
O3 C3 1_555 1_555
C1 H1 1_555 1_555
C2 C1 1_555 1_555
H2 C2 1_555 1_555
C3 C2 1_555 1_555
C4 O3 1_555 1_555
H3 C4 1_555 1_555
H4 C4 1_555 1_555
C5 C4 1_555 1_555
H5 C5 1_555 1_555
H6 C5 1_555 1_555
H7 C5 1_555 1_555
C6 C2 1_555 1_555
C7 C6 1_555 1_555
C8 C7 1_555 1_555
H8 C8 1_555 1_555
C9 C8 1_555 1_555
H9 C9 1_555 1_555
C10 C9 1_555 1_555
H10 C10 1_555 1_555
C11 C10 1_555 1_555
H11 C11 1_555 1_555
C12 C7 1_555 1_555
C13 N1 1_555 1_555
C14 C13 1_555 1_555
H12 C14 1_555 1_555
H13 C14 1_555 1_555
H14 C14 1_555 1_555
C15 C1 1_555 1_555
C16 C15 1_555 1_555
H15 C16 1_555 1_555
C17 C16 1_555 1_555
H16 C17 1_555 1_555
C18 C17 1_555 1_555
H17 C18 1_555 1_555
C19 C18 1_555 1_555
H18 C19 1_555 1_555
C20 C15 1_555 1_555
H19 C20 1_555 1_555
H20 O1 1_555 1_555
H21 N1 1_555 1_555
C6 C13 1_555 1_555
C11 C12 1_555 1_555
C19 C20 1_555 1_555

#END
