
#######################################################################
#
#                 Cambridge Crystallographic Data Centre
#                                CCDC 
#
#######################################################################
#
# If this CIF has been generated from an entry in the Cambridge 
# Structural Database, then it will include bibliographic, chemical, 
# crystal, experimental, refinement or atomic coordinate data resulting 
# from the CCDC's data processing and validation procedures.
#
#######################################################################

data_SMAARA01
_chemical_formula_moiety         'C24 H26 N2 O8 S2'
_chemical_name_systematic        
"7a,15a-bis(Methylsulfanyl)-7,15-dioxo-5,5a,7a,8,13,13a,15a,16-octahydro-7H,15H-bisoxepino[3',4':4,5]pyrrolo[1,2-a:1',2'-d]pyrazine-5,13-diyl diacetate"
_symmetry_cell_setting           monoclinic
_symmetry_space_group_name_H-M   'P 21'
_symmetry_Int_Tables_number      4
_space_group_name_Hall           'P 2yb'
loop_
_symmetry_equiv_pos_site_id
_symmetry_equiv_pos_as_xyz
1 x,y,z
2 -x,1/2+y,-z
_cell_length_a                   9.4623(12)
_cell_length_b                   12.9379(16)
_cell_length_c                   10.97900(13)
_cell_angle_alpha                90
_cell_angle_beta                 110.758(2)
_cell_angle_gamma                90
_cell_volume                     1256.82
_cell_formula_units_Z            2
loop_
_atom_site_label
_atom_site_type_symbol
_atom_site_fract_x
_atom_site_fract_y
_atom_site_fract_z
S1 S 0.46849(12) 0.21759(7) 0.64884(10)
S2 S 0.91885(7) 0.04630(6) 0.82772(8)
N1 N 0.6537(2) -0.00137(19) 0.8463(2)
N2 N 0.5585(2) 0.03145(19) 0.5786(2)
O1 O 0.7325(2) -0.0821(2) 0.5616(2)
O2 O 0.4212(2) 0.0427(2) 0.8440(2)
O3 O 0.1807(3) 0.0265(3) 0.1970(3)
O4 O 0.6626(2) 0.1290(2) 0.3953(2)
O5 O 0.6359(5) 0.2983(3) 0.3568(4)
O6 O 0.8908(4) -0.2052(3) 1.1891(3)
O7 O 0.6898(2) 0.11120(17) 1.0763(2)
O8 O 0.8918(11) 0.2105(11) 1.143(6)
C1 C 0.6797(3) -0.0330(2) 0.6296(3)
C2 C 0.4678(3) 0.0744(2) 0.6498(3)
C3 C 0.5116(3) 0.0370(3) 0.7887(3)
C4 C 0.7503(3) -0.0387(2) 0.7760(3)
C5 C 0.3051(3) 0.0419(3) 0.5655(3)
H1 H 0.2789 -0.0238 0.5945
H2 H 0.2324 0.0937 0.5687
C6 C 0.1899(4) 0.0357(4) 0.3235(4)
H3 H 0.0983 0.0450 0.3356
C7 C 0.3099(3) 0.0330(3) 0.4304(3)
C8 C 0.4719(3) 0.0277(3) 0.4371(3)
H4 H 0.4907 -0.0376 0.4001
C9 C 0.5004(3) 0.1192(3) 0.3610(3)
H5 H 0.4594 0.1825 0.3847
C10 C 0.4251(4) 0.0987(3) 0.2180(4)
H6 H 0.4804 0.1177 0.1664
C11 C 0.2928(4) 0.0579(4) 0.1556(4)
H7 H 0.2717 0.0488 0.0669
C12 C 0.7156(5) 0.2249(4) 0.3961(4)
C13 C 0.8847(6) 0.2236(5) 0.4488(5)
H8 H 0.9221 0.2928 0.4506
H9 H 0.9208 0.1813 0.3942
H10 H 0.9196 0.1959 0.5356
C14 C 0.7875(3) -0.1487(2) 0.8277(3)
H11 H 0.7101 -0.1969 0.7777
H12 H 0.8843 -0.1708 0.8251
C15 C 0.8776(4) -0.2009(3) 1.0607(4)
H13 H 0.9382 -0.2474 1.0369
C16 C 0.7921(3) -0.1410(2) 0.9657(3)
C17 C 0.6945(3) -0.0512(2) 0.9744(3)
H14 H 0.6029 -0.0773 0.9862
C18 C 0.7806(3) 0.0186(2) 1.0888(3)
H15 H 0.8803 0.0361 1.0863
C19 C 0.7960(3) -0.0342(3) 1.2139(3)
H16 H 0.7738 0.0060 1.2750
C20 C 0.8368(4) -0.1304(4) 1.2493(4)
H17 H 0.8273 -0.1505 1.3274
C21 C 0.7523(4) 0.2025(3) 1.0810(4)
C22 C 0.6348(5) 0.2864(3) 1.0456(4)
H18 H 0.6804 0.3506 1.0359
H19 H 0.5932 0.2930 1.1133
H20 H 0.5557 0.2691 0.9652
C23 C 0.6627(5) 0.2498(3) 0.7094(4)
H21 H 0.7067 0.2286 0.7988
H22 H 0.6740 0.3232 0.7036
H23 H 0.7129 0.2152 0.6589
C24 C 1.0415(4) -0.0126(4) 0.7566(4)
H24 H 1.0568 -0.0838 0.7825
H25 H 1.1370 0.0227 0.7856
H26 H 0.9969 -0.0084 0.6634
O9? O 0.870(4) 0.2154(9) 1.069(6)
loop_
_geom_bond_atom_site_label_1
_geom_bond_atom_site_label_2
_geom_bond_site_symmetry_1
_geom_bond_site_symmetry_2
S1 C2 1_555 1_555
S2 C4 1_555 1_555
N1 C3 1_555 1_555
N2 C1 1_555 1_555
O1 C1 1_555 1_555
O2 C3 1_555 1_555
O3 C6 1_555 1_555
O4 C9 1_555 1_555
O5 C12 1_555 1_555
O6 C15 1_555 1_555
O7 C18 1_555 1_555
O8 C21 1_555 1_555
C1 C4 1_555 1_555
C2 N2 1_555 1_555
C3 C2 1_555 1_555
C4 N1 1_555 1_555
C5 C2 1_555 1_555
H1 C5 1_555 1_555
H2 C5 1_555 1_555
C6 H3 1_555 1_555
C7 C5 1_555 1_555
C8 N2 1_555 1_555
H4 C8 1_555 1_555
C9 C8 1_555 1_555
H5 C9 1_555 1_555
C10 C9 1_555 1_555
H6 C10 1_555 1_555
C11 O3 1_555 1_555
H7 C11 1_555 1_555
C12 O4 1_555 1_555
C13 C12 1_555 1_555
H8 C13 1_555 1_555
H9 C13 1_555 1_555
H10 C13 1_555 1_555
C14 C4 1_555 1_555
H11 C14 1_555 1_555
H12 C14 1_555 1_555
C15 H13 1_555 1_555
C16 C14 1_555 1_555
C17 N1 1_555 1_555
H14 C17 1_555 1_555
C18 C17 1_555 1_555
H15 C18 1_555 1_555
C19 C18 1_555 1_555
H16 C19 1_555 1_555
C20 O6 1_555 1_555
H17 C20 1_555 1_555
C21 O7 1_555 1_555
C22 C21 1_555 1_555
H18 C22 1_555 1_555
H19 C22 1_555 1_555
H20 C22 1_555 1_555
C23 S1 1_555 1_555
H21 C23 1_555 1_555
H22 C23 1_555 1_555
H23 C23 1_555 1_555
C24 S2 1_555 1_555
H24 C24 1_555 1_555
H25 C24 1_555 1_555
H26 C24 1_555 1_555
C6 C7 1_555 1_555
C7 C8 1_555 1_555
C10 C11 1_555 1_555
C15 C16 1_555 1_555
C16 C17 1_555 1_555
C19 C20 1_555 1_555

#END
