
#######################################################################
#
#                 Cambridge Crystallographic Data Centre
#                                CCDC 
#
#######################################################################
#
# If this CIF has been generated from an entry in the Cambridge 
# Structural Database, then it will include bibliographic, chemical, 
# crystal, experimental, refinement or atomic coordinate data resulting 
# from the CCDC's data processing and validation procedures.
#
#######################################################################

data_SOBGEY
_chemical_formula_moiety         'C35 H46 N4,C32 H34 N2 O2'
_chemical_name_systematic        
'[2]-(2-(3,5-di-t-butylphenyl)-6-[1-(3,5-di-t-butylphenyl)-1H-1,2,3-triazol-4-yl]pyridine)-(22,27-dioxa-35,36-diazapentacyclo[26.2.2.2^18,21^.1^5,9^.1^10,14^]hexatriaconta-1(30),5(36),6,8,10(35),11,13,18,20,28,31,33-dodecaene)-rotaxane'
_symmetry_cell_setting           monoclinic
_symmetry_space_group_name_H-M   'P 21/n'
_symmetry_Int_Tables_number      14
_space_group_name_Hall           '-P 2yn'
loop_
_symmetry_equiv_pos_site_id
_symmetry_equiv_pos_as_xyz
1 x,y,z
2 1/2-x,1/2+y,1/2-z
3 -x,-y,-z
4 1/2+x,1/2-y,1/2+z
_cell_length_a                   19.0585(2)
_cell_length_b                   12.47470(10)
_cell_length_c                   25.7522(2)
_cell_angle_alpha                90
_cell_angle_beta                 101.8300(10)
_cell_angle_gamma                90
_cell_volume                     5992.52
_exptl_crystal_colour            colorless
_exptl_crystal_description       block
_cell_formula_units_Z            4
loop_
_atom_site_label
_atom_site_type_symbol
_atom_site_fract_x
_atom_site_fract_y
_atom_site_fract_z
N1 N 0.26548(5) 0.25780(8) 0.61050(4)
N2 N 0.25599(5) 0.17000(8) 0.63943(4)
N3 N 0.31071(6) 0.16487(8) 0.67938(4)
N4 N 0.46087(5) 0.35260(8) 0.71126(4)
C1 C 0.32656(6) 0.30969(10) 0.63256(5)
H1 H 0.345174 0.373632 0.620562
C2 C 0.35563(6) 0.24929(9) 0.67618(5)
C3 C 0.42472(6) 0.26074(10) 0.71349(5)
C4 C 0.44993(7) 0.17742(11) 0.74845(5)
H2 H 0.423246 0.113109 0.748491
C5 C 0.51496(7) 0.19146(12) 0.78299(6)
H3 H 0.533815 0.136693 0.807541
C6 C 0.55237(7) 0.28594(11) 0.78153(5)
H4 H 0.596865 0.296922 0.805423
C7 C 0.52455(6) 0.36497(10) 0.74485(5)
C8 C 0.56305(7) 0.46839(10) 0.74232(5)
C9 C 0.52627(6) 0.55880(10) 0.71871(5)
H5 H 0.476685 0.553187 0.703228
C10 C 0.56075(7) 0.65654(10) 0.71743(5)
C11 C 0.63402(7) 0.66212(11) 0.74031(5)
H6 H 0.658281 0.728424 0.739463
C12 C 0.67242(7) 0.57451(11) 0.76413(5)
C13 C 0.63601(7) 0.47748(11) 0.76449(5)
H7 H 0.661504 0.416241 0.780184
C14 C 0.52281(7) 0.75849(10) 0.69282(5)
C15 C 0.55503(7) 0.79385(11) 0.64555(6)
H8 H 0.606724 0.805122 0.657437
H9 H 0.532367 0.860851 0.630921
H10 H 0.546557 0.738140 0.618148
C16 C 0.53290(8) 0.84809(12) 0.73473(6)
H11 H 0.513553 0.824640 0.765303
H12 H 0.507490 0.912621 0.719370
H13 H 0.584075 0.864097 0.746219
C17 C 0.44237(7) 0.74099(11) 0.67340(6)
H14 H 0.434452 0.684254 0.646513
H15 H 0.420135 0.807607 0.657896
H16 H 0.420930 0.719873 0.703352
C18 C 0.75163(8) 0.58369(13) 0.79182(7)
C19 C 0.78478(9) 0.69101(18) 0.78097(8)
H17 H 0.776758 0.703056 0.742598
H18 H 0.836403 0.689728 0.795846
H19 H 0.762415 0.748962 0.797512
C20 C 0.79512(11) 0.49931(19) 0.76297(11)
H20 H 0.778975 0.426374 0.768469
H21 H 0.846523 0.505450 0.778028
H22 H 0.786281 0.514820 0.724876
C21 C 0.76227(13) 0.5587(2) 0.84757(9)
H23 H 0.737729 0.612212 0.865296
H24 H 0.813660 0.559449 0.863270
H25 H 0.742656 0.487451 0.852022
C22 C 0.21746(7) 0.27910(10) 0.56107(5)
C23 C 0.24525(7) 0.32689(10) 0.52104(5)
H26 H 0.294450 0.346272 0.526814
C24 C 0.19986(7) 0.34601(12) 0.47221(5)
C25 C 0.12849(8) 0.31568(12) 0.46594(5)
H27 H 0.097229 0.329480 0.432853
C26 C 0.10043(7) 0.26614(11) 0.50560(5)
C27 C 0.14641(7) 0.24802(10) 0.55427(5)
H28 H 0.129252 0.214782 0.582443
C28 C 0.22706(8) 0.39336(15) 0.42513(6)
C29 C 0.30412(8) 0.43183(14) 0.43976(6)
H29 H 0.307677 0.490487 0.465485
H30 H 0.319399 0.457344 0.407833
H31 H 0.335049 0.372501 0.455419
C30 C 0.18019(11) 0.4875(2) 0.40178(11)
H32 H 0.130687 0.463019 0.389641
H33 H 0.198024 0.517257 0.371708
H34 H 0.181692 0.542973 0.428952
C31 C 0.22422(16) 0.3040(2) 0.38382(8)
H35 H 0.254400 0.243961 0.399609
H36 H 0.241806 0.331532 0.353211
H37 H 0.174654 0.279298 0.372272
C32 C 0.02072(8) 0.23639(14) 0.49508(6)
C33 C -0.02320(9) 0.33972(17) 0.49500(8)
H38 H -0.009603 0.375031 0.529601
H39 H -0.074381 0.322057 0.488123
H40 H -0.013641 0.387973 0.467231
C34 C -0.00078(10) 0.1795(2) 0.44130(7)
H41 H 0.004902 0.228943 0.412868
H42 H -0.050928 0.156581 0.435982
H43 H 0.029954 0.116738 0.440715
C35 C 0.00351(8) 0.16070(14) 0.53758(6)
H44 H 0.032693 0.095674 0.538963
H45 H -0.047403 0.141454 0.528805
H46 H 0.014232 0.196517 0.572173
O1 O 0.16969(5) -0.06799(8) 0.60700(3)
O2 O 0.06757(5) 0.21281(7) 0.67865(4)
N5 N 0.35411(5) 0.53188(8) 0.57467(4)
N6 N 0.43998(5) 0.35026(8) 0.56197(4)
C39 C 0.30597(7) 0.61137(10) 0.56280(5)
C40 C 0.31843(7) 0.70022(10) 0.53308(5)
H56 H 0.283007 0.754425 0.524084
C41 C 0.38301(8) 0.70830(10) 0.51692(5)
H57 H 0.392627 0.768586 0.496945
C42 C 0.43359(7) 0.62796(10) 0.53003(5)
H58 H 0.478702 0.632580 0.519907
C43 C 0.41657(7) 0.54015(10) 0.55847(5)
C44 C 0.46736(7) 0.44887(10) 0.57319(5)
C45 C 0.53810(7) 0.46662(11) 0.59844(5)
H59 H 0.556113 0.537462 0.604770
C46 C 0.58172(7) 0.37911(11) 0.61415(5)
H60 H 0.629996 0.388721 0.632259
C47 C 0.55401(7) 0.27742(11) 0.60312(5)
H61 H 0.583084 0.216125 0.613491
C48 C 0.48304(7) 0.26566(10) 0.57664(5)
C49 C 0.45050(7) 0.15652(10) 0.56403(5)
H62 H 0.413549 0.144926 0.585445
H63 H 0.488257 0.101713 0.574769
C50 C 0.41629(7) 0.13998(10) 0.50554(5)
H64 H 0.452161 0.156369 0.483783
H65 H 0.376003 0.190948 0.495355
C51 C 0.38830(7) 0.02526(11) 0.49318(5)
H66 H 0.368944 0.018891 0.454582
H67 H 0.428851 -0.025510 0.502547
C52 C 0.33052(7) -0.00607(10) 0.52274(5)
C53 C 0.34813(7) -0.04360(10) 0.57458(5)
H68 H 0.397188 -0.054624 0.590376
C54 C 0.29655(7) -0.06552(10) 0.60404(5)
H69 H 0.310258 -0.090247 0.639571
C55 C 0.22471(7) -0.05095(10) 0.58109(5)
C56 C 0.20558(7) -0.01677(11) 0.52870(5)
H70 H 0.156410 -0.008972 0.512408
C57 C 0.25794(7) 0.00592(11) 0.50022(5)
H71 H 0.244155 0.030165 0.464617
C58 C 0.18858(7) -0.07798(10) 0.66370(5)
H72 H 0.219498 -0.017318 0.679020
H73 H 0.215241 -0.145536 0.673575
C59 C 0.11993(7) -0.07790(10) 0.68476(5)
H74 H 0.132310 -0.085645 0.723834
H75 H 0.090989 -0.141104 0.670316
C60 C 0.07422(7) 0.02272(10) 0.67109(5)
H76 H 0.061795 0.031338 0.632060
H77 H 0.029011 0.014266 0.683948
C61 C 0.11276(7) 0.12199(10) 0.69559(5)
H78 H 0.122768 0.116390 0.734761
H79 H 0.158921 0.130022 0.684029
C62 C 0.10012(7) 0.31126(10) 0.67932(5)
C63 C 0.05922(7) 0.39196(11) 0.65073(5)
H80 H 0.011237 0.377852 0.633150
C64 C 0.08829(7) 0.49305(11) 0.64779(5)
H81 H 0.059839 0.547396 0.627892
C65 C 0.15828(7) 0.51681(10) 0.67335(5)
C66 C 0.19751(7) 0.43537(10) 0.70273(5)
H82 H 0.245082 0.449961 0.721072
C67 C 0.16960(7) 0.33344(10) 0.70621(5)
H83 H 0.197649 0.279464 0.726721
C68 C 0.19046(7) 0.62689(10) 0.67065(5)
H84 H 0.204086 0.656124 0.707068
H85 H 0.153457 0.674760 0.650143
C69 C 0.25652(7) 0.62854(10) 0.64518(5)
H86 H 0.278825 0.700455 0.650315
H87 H 0.291909 0.576021 0.663728
C70 C 0.23973(7) 0.60235(11) 0.58581(5)
H88 H 0.220372 0.528624 0.580436
H89 H 0.202705 0.652390 0.567111
C36? C 0.7436(4) 0.6566(5) 0.8433(2)
H47? H 0.725174 0.727675 0.831246
H48? H 0.790564 0.664107 0.867054
H49? H 0.710254 0.621632 0.862243
C37? C 0.7837(4) 0.4803(4) 0.8196(3)
H50? H 0.755388 0.458003 0.845479
H51? H 0.833293 0.493551 0.837784
H52? H 0.782674 0.423575 0.793112
C38? C 0.7998(4) 0.6414(6) 0.7648(3)
H53? H 0.804230 0.602548 0.732528
H54? H 0.847118 0.647368 0.788283
H55? H 0.780671 0.713288 0.755277
loop_
_geom_bond_atom_site_label_1
_geom_bond_atom_site_label_2
_geom_bond_site_symmetry_1
_geom_bond_site_symmetry_2
N1 N2 1_555 1_555
N2 N3 1_555 1_555
N3 C2 1_555 1_555
N4 C3 1_555 1_555
C1 N1 1_555 1_555
H1 C1 1_555 1_555
C2 C1 1_555 1_555
C3 C2 1_555 1_555
C4 C3 1_555 1_555
H2 C4 1_555 1_555
C5 C4 1_555 1_555
H3 C5 1_555 1_555
C6 C5 1_555 1_555
H4 C6 1_555 1_555
C7 N4 1_555 1_555
C8 C7 1_555 1_555
C9 C8 1_555 1_555
H5 C9 1_555 1_555
C10 C9 1_555 1_555
C11 C10 1_555 1_555
H6 C11 1_555 1_555
C12 C11 1_555 1_555
C13 C8 1_555 1_555
H7 C13 1_555 1_555
C14 C10 1_555 1_555
C15 C14 1_555 1_555
H8 C15 1_555 1_555
H9 C15 1_555 1_555
H10 C15 1_555 1_555
C16 C14 1_555 1_555
H11 C16 1_555 1_555
H12 C16 1_555 1_555
H13 C16 1_555 1_555
C17 C14 1_555 1_555
H14 C17 1_555 1_555
H15 C17 1_555 1_555
H16 C17 1_555 1_555
C18 C12 1_555 1_555
C19 C18 1_555 1_555
H17 C19 1_555 1_555
H18 C19 1_555 1_555
H19 C19 1_555 1_555
C20 C18 1_555 1_555
H20 C20 1_555 1_555
H21 C20 1_555 1_555
H22 C20 1_555 1_555
C21 C18 1_555 1_555
H23 C21 1_555 1_555
H24 C21 1_555 1_555
H25 C21 1_555 1_555
C22 N1 1_555 1_555
C23 C22 1_555 1_555
H26 C23 1_555 1_555
C24 C23 1_555 1_555
C25 C24 1_555 1_555
H27 C25 1_555 1_555
C26 C25 1_555 1_555
C27 C22 1_555 1_555
H28 C27 1_555 1_555
C28 C24 1_555 1_555
C29 C28 1_555 1_555
H29 C29 1_555 1_555
H30 C29 1_555 1_555
H31 C29 1_555 1_555
C30 C28 1_555 1_555
H32 C30 1_555 1_555
H33 C30 1_555 1_555
H34 C30 1_555 1_555
C31 C28 1_555 1_555
H35 C31 1_555 1_555
H36 C31 1_555 1_555
H37 C31 1_555 1_555
C32 C26 1_555 1_555
C33 C32 1_555 1_555
H38 C33 1_555 1_555
H39 C33 1_555 1_555
H40 C33 1_555 1_555
C34 C32 1_555 1_555
H41 C34 1_555 1_555
H42 C34 1_555 1_555
H43 C34 1_555 1_555
C35 C32 1_555 1_555
H44 C35 1_555 1_555
H45 C35 1_555 1_555
H46 C35 1_555 1_555
O1 C55 1_555 1_555
O2 C61 1_555 1_555
N5 C39 1_555 1_555
N6 C44 1_555 1_555
C39 C40 1_555 1_555
C40 H56 1_555 1_555
C41 C40 1_555 1_555
H57 C41 1_555 1_555
C42 C41 1_555 1_555
H58 C42 1_555 1_555
C43 N5 1_555 1_555
C44 C43 1_555 1_555
C45 C44 1_555 1_555
H59 C45 1_555 1_555
C46 C45 1_555 1_555
H60 C46 1_555 1_555
C47 C46 1_555 1_555
H61 C47 1_555 1_555
C48 N6 1_555 1_555
C49 C48 1_555 1_555
H62 C49 1_555 1_555
H63 C49 1_555 1_555
C50 C49 1_555 1_555
H64 C50 1_555 1_555
H65 C50 1_555 1_555
C51 C50 1_555 1_555
H66 C51 1_555 1_555
H67 C51 1_555 1_555
C52 C51 1_555 1_555
C53 C52 1_555 1_555
H68 C53 1_555 1_555
C54 C53 1_555 1_555
H69 C54 1_555 1_555
C55 C54 1_555 1_555
C56 C55 1_555 1_555
H70 C56 1_555 1_555
C57 C52 1_555 1_555
H71 C57 1_555 1_555
C58 O1 1_555 1_555
H72 C58 1_555 1_555
H73 C58 1_555 1_555
C59 C58 1_555 1_555
H74 C59 1_555 1_555
H75 C59 1_555 1_555
C60 C59 1_555 1_555
H76 C60 1_555 1_555
H77 C60 1_555 1_555
C61 C60 1_555 1_555
H78 C61 1_555 1_555
H79 C61 1_555 1_555
C62 O2 1_555 1_555
C63 C62 1_555 1_555
H80 C63 1_555 1_555
C64 C63 1_555 1_555
H81 C64 1_555 1_555
C65 C64 1_555 1_555
C66 C65 1_555 1_555
H82 C66 1_555 1_555
C67 C62 1_555 1_555
H83 C67 1_555 1_555
C68 C65 1_555 1_555
H84 C68 1_555 1_555
H85 C68 1_555 1_555
C69 C68 1_555 1_555
H86 C69 1_555 1_555
H87 C69 1_555 1_555
C70 C39 1_555 1_555
H88 C70 1_555 1_555
H89 C70 1_555 1_555
C6 C7 1_555 1_555
C12 C13 1_555 1_555
C26 C27 1_555 1_555
C42 C43 1_555 1_555
C47 C48 1_555 1_555
C56 C57 1_555 1_555
C66 C67 1_555 1_555
C69 C70 1_555 1_555

#END
