
#######################################################################
#
#                 Cambridge Crystallographic Data Centre
#                                CCDC 
#
#######################################################################
#
# If this CIF has been generated from an entry in the Cambridge 
# Structural Database, then it will include bibliographic, chemical, 
# crystal, experimental, refinement or atomic coordinate data resulting 
# from the CCDC's data processing and validation procedures.
#
#######################################################################

data_SOBGAR
_chemical_formula_moiety         'C6 H6 N10 O10'
_chemical_name_systematic        
cis-syn-cis-2,6-Dioxo-1,4,7,8-tetranitrodecahydro-1H,5H-di-imidazo(4,5-b:4',5'-e)pyrazine
_symmetry_cell_setting           monoclinic
_symmetry_space_group_name_H-M   'P 21/n'
_symmetry_Int_Tables_number      14
_space_group_name_Hall           '-P 2yn'
loop_
_symmetry_equiv_pos_site_id
_symmetry_equiv_pos_as_xyz
1 x,y,z
2 1/2-x,1/2+y,1/2-z
3 -x,-y,-z
4 1/2+x,1/2-y,1/2+z
_cell_length_a                   8.5114(14)
_cell_length_b                   12.259(3)
_cell_length_c                   24.952(7)
_cell_angle_alpha                90
_cell_angle_beta                 97.30(2)
_cell_angle_gamma                90
_cell_volume                     2582.42
_exptl_crystal_colour            colorless
_chemical_melting_point          220-225deg.C(dec.)
_cell_formula_units_Z            8
loop_
_atom_site_label
_atom_site_type_symbol
_atom_site_fract_x
_atom_site_fract_y
_atom_site_fract_z
N1 N 0.2721(8) 0.3169(6) -0.0177(3)
N2 N 0.3276(10) 0.3494(7) -0.0653(3)
O1 O 0.2606(8) 0.3129(6) -0.1071(3)
O2 O 0.4375(8) 0.4148(6) -0.0613(3)
C1 C 0.3459(10) 0.3599(8) 0.0330(4)
N3 N 0.4387(9) 0.2807(6) 0.0668(3)
N4 N 0.5796(9) 0.2414(7) 0.0529(3)
O3 O 0.6041(7) 0.2602(6) 0.0070(3)
O4 O 0.6647(8) 0.1896(6) 0.0866(3)
C2 C 0.3787(11) 0.2555(8) 0.1158(4)
O5 O 0.4281(7) 0.1871(6) 0.1481(3)
N5 N 0.2543(9) 0.3219(8) 0.1155(3)
C3 C 0.2220(11) 0.3919(8) 0.0700(3)
N6 N 0.0643(8) 0.3769(6) 0.0419(3)
N7 N -0.0527(10) 0.4494(7) 0.0543(3)
O6 O -0.1864(8) 0.4327(5) 0.0324(3)
O7 O -0.0098(8) 0.5257(6) 0.0835(3)
C4 C 0.0110(10) 0.2801(7) 0.0115(4)
N8 N -0.0187(9) 0.1868(7) 0.0444(3)
C5 C 0.0752(11) 0.1005(9) 0.0411(3)
O8 O 0.0672(7) 0.0104(6) 0.0600(3)
N9 N 0.1913(8) 0.1372(6) 0.0087(3)
N10 N 0.2880(9) 0.0636(7) -0.0156(3)
O9 O 0.3202(8) -0.0221(6) 0.0075(3)
O10 O 0.3348(7) 0.0959(5) -0.0571(3)
C6 C 0.1447(10) 0.2386(7) -0.0204(3)
H1 H 0.4094(98) 0.4198(75) 0.0180(35)
H2 H 0.201(11) 0.3182(83) 0.1406(38)
H3 H 0.2322(99) 0.4663(74) 0.0897(35)
H4 H -0.0841(99) 0.2954(69) -0.0218(34)
H5 H -0.090(11) 0.1866(81) 0.0640(37)
H6 H 0.121(10) 0.2291(74) -0.0567(35)
N11 N 0.1878(8) 0.5989(6) 0.6808(3)
N12 N 0.3287(10) 0.5606(8) 0.6629(3)
O11 O 0.3308(8) 0.4656(6) 0.6480(3)
O12 O 0.4371(7) 0.6259(6) 0.6645(3)
C7 C 0.1904(10) 0.6958(7) 0.7130(4)
N13 N 0.1827(8) 0.6712(6) 0.7692(3)
N14 N 0.3144(11) 0.6247(7) 0.8015(3)
O13 O 0.4296(8) 0.6101(7) 0.7781(3)
O14 O 0.2985(9) 0.6024(7) 0.8471(3)
C8 C 0.0499(10) 0.7173(7) 0.7899(4)
O15 O 0.0205(7) 0.7094(6) 0.8356(3)
N15 N -0.0376(9) 0.7614(7) 0.7467(3)
C9 C 0.0393(10) 0.7637(8) 0.6984(3)
N16 N -0.0590(8) 0.7185(6) 0.6519(3)
N17 N -0.1791(10) 0.7874(8) 0.6283(3)
O16 O -0.2760(8) 0.7466(6) 0.5937(3)
O17 O -0.1731(8) 0.8837(6) 0.6420(3)
C10 C -0.0901(10) 0.6017(8) 0.6409(4)
N18 N -0.2261(9) 0.5594(7) 0.6629(3)
C11 C -0.1944(11) 0.4974(9) 0.7067(4)
O18 O -0.2817(8) 0.4506(6) 0.7331(3)
N19 N -0.0229(8) 0.5001(6) 0.7186(3)
N20 N 0.0567(11) 0.4168(7) 0.7502(3)
O19 O -0.0132(9) 0.3726(7) 0.7830(3)
O20 O 0.1936(8) 0.4022(6) 0.7421(3)
C12 C 0.0451(10) 0.5328(8) 0.6694(4)
H7 H 0.275(11) 0.7296(79) 0.7079(37)
H8 H -0.094(11) 0.8223(77) 0.7523(37)
H9 H 0.0548(97) 0.8397(73) 0.6841(34)
H10 H -0.0993(95) 0.6034(73) 0.5983(55)
H11 H -0.307(11) 0.5608(79) 0.6403(38)
H12 H 0.0800(98) 0.4679(72) 0.6457(35)
loop_
_geom_bond_atom_site_label_1
_geom_bond_atom_site_label_2
_geom_bond_site_symmetry_1
_geom_bond_site_symmetry_2
N1 N2 1_555 1_555
N2 O1 1_555 1_555
O2 N2 1_555 1_555
C1 N1 1_555 1_555
N3 C1 1_555 1_555
N4 N3 1_555 1_555
O3 N4 1_555 1_555
O4 N4 1_555 1_555
C2 N3 1_555 1_555
O5 C2 1_555 1_555
N5 C2 1_555 1_555
C3 C1 1_555 1_555
N6 C3 1_555 1_555
N7 N6 1_555 1_555
O6 N7 1_555 1_555
O7 N7 1_555 1_555
C4 N6 1_555 1_555
N8 C4 1_555 1_555
C5 N8 1_555 1_555
O8 C5 1_555 1_555
N9 C5 1_555 1_555
N10 N9 1_555 1_555
O9 N10 1_555 1_555
O10 N10 1_555 1_555
C6 N1 1_555 1_555
N11 N12 1_555 1_555
N12 O11 1_555 1_555
O12 N12 1_555 1_555
C7 N11 1_555 1_555
N13 C7 1_555 1_555
N14 N13 1_555 1_555
O13 N14 1_555 1_555
O14 N14 1_555 1_555
C8 N13 1_555 1_555
O15 C8 1_555 1_555
N15 C8 1_555 1_555
C9 C7 1_555 1_555
N16 C9 1_555 1_555
N17 N16 1_555 1_555
O16 N17 1_555 1_555
O17 N17 1_555 1_555
C10 N16 1_555 1_555
N18 C10 1_555 1_555
C11 N18 1_555 1_555
O18 C11 1_555 1_555
N19 C11 1_555 1_555
N20 N19 1_555 1_555
O19 N20 1_555 1_555
O20 N20 1_555 1_555
C12 N11 1_555 1_555
H1 C1 1_555 1_555
H2 N5 1_555 1_555
H3 C3 1_555 1_555
H4 C4 1_555 1_555
H5 N8 1_555 1_555
H6 C6 1_555 1_555
H7 C7 1_555 1_555
H8 N15 1_555 1_555
H9 C9 1_555 1_555
H10 C10 1_555 1_555
H11 N18 1_555 1_555
H12 C12 1_555 1_555
N5 C3 1_555 1_555
C4 C6 1_555 1_555
N9 C6 1_555 1_555
N15 C9 1_555 1_555
C10 C12 1_555 1_555
N19 C12 1_555 1_555

#END
