
#######################################################################
#
#                 Cambridge Crystallographic Data Centre
#                                CCDC 
#
#######################################################################
#
# If this CIF has been generated from an entry in the Cambridge 
# Structural Database, then it will include bibliographic, chemical, 
# crystal, experimental, refinement or atomic coordinate data resulting 
# from the CCDC's data processing and validation procedures.
#
#######################################################################

data_SOBHID
_chemical_formula_moiety         'C37 H47 N7,C32 H34 N2 O2'
_chemical_name_systematic        
'[2]-(2,6-bis[1-(3,5-di-t-butylphenyl)-1H-1,2,3-triazol-4-yl]pyridine)-(22,27-dioxa-35,36-diazapentacyclo[26.2.2.2^18,21^.1^5,9^.1^10,14^]hexatriaconta-1(30),5(36),6,8,10(35),11,13,18,20,28,31,33-dodecaene)-rotaxane'
_symmetry_cell_setting           monoclinic
_symmetry_space_group_name_H-M   'P 21/c'
_symmetry_Int_Tables_number      14
_space_group_name_Hall           '-P 2ybc'
loop_
_symmetry_equiv_pos_site_id
_symmetry_equiv_pos_as_xyz
1 x,y,z
2 -x,1/2+y,1/2-z
3 -x,-y,-z
4 x,1/2-y,1/2+z
_cell_length_a                   19.9187(6)
_cell_length_b                   12.8361(3)
_cell_length_c                   24.6531(6)
_cell_angle_alpha                90
_cell_angle_beta                 101.661(3)
_cell_angle_gamma                90
_cell_volume                     6173.17
_exptl_crystal_colour            colorless
_exptl_crystal_description       block
_cell_formula_units_Z            4
loop_
_atom_site_label
_atom_site_type_symbol
_atom_site_fract_x
_atom_site_fract_y
_atom_site_fract_z
N1 N 0.78066(6) 0.10177(10) 0.57000(5)
N2 N 0.82015(7) 0.18385(11) 0.57771(5)
N3 N 0.79248(6) 0.25549(9) 0.53887(5)
N4 N 0.61956(6) 0.06676(9) 0.47056(4)
N5 N 0.45605(6) -0.04052(9) 0.39761(5)
N6 N 0.40919(6) 0.00676(9) 0.36102(5)
N7 N 0.43310(6) 0.10460(8) 0.35444(5)
C1 C 0.73472(7) 0.21760(11) 0.50624(6)
H1 H 0.705672 0.251386 0.476059
C2 C 0.72749(7) 0.11974(11) 0.52642(6)
C3 C 0.67362(7) 0.04121(11) 0.51027(5)
C4 C 0.67932(8) -0.05524(11) 0.53755(6)
H2 H 0.719175 -0.072002 0.564406
C5 C 0.62607(8) -0.12519(11) 0.52467(6)
H3 H 0.628276 -0.190333 0.543240
C6 C 0.56941(8) -0.09980(11) 0.48450(6)
H4 H 0.531888 -0.146562 0.475140
C7 C 0.56882(7) -0.00380(10) 0.45813(5)
C8 C 0.50977(7) 0.02604(10) 0.41491(5)
C9 C 0.49567(7) 0.11863(10) 0.38723(5)
H5 H 0.523606 0.179187 0.390361
C10 C 0.39003(7) 0.17550(10) 0.31824(5)
C11 C 0.41699(7) 0.23659(10) 0.28153(6)
H6 H 0.464610 0.234108 0.281344
C12 C 0.37359(7) 0.30200(11) 0.24470(6)
C13 C 0.30420(7) 0.30309(11) 0.24686(6)
H7 H 0.274434 0.347772 0.222277
C14 C 0.27638(7) 0.24129(11) 0.28363(6)
C15 C 0.32074(7) 0.17688(11) 0.31975(6)
H8 H 0.303650 0.134046 0.345324
C16 C 0.19934(8) 0.24346(13) 0.28377(7)
C17 C 0.40204(8) 0.36380(11) 0.20088(6)
C18 C 0.46562(9) 0.42544(13) 0.22831(7)
H9 H 0.453353 0.474357 0.255245
H10 H 0.483395 0.464163 0.199980
H11 H 0.500831 0.377267 0.247285
C19 C 0.34935(10) 0.44090(16) 0.16934(8)
H12 H 0.309472 0.402497 0.149226
H13 H 0.370121 0.480518 0.142991
H14 H 0.334801 0.488902 0.195649
C20 C 0.42166(9) 0.28610(13) 0.15975(7)
H15 H 0.456795 0.238451 0.179331
H16 H 0.439695 0.323861 0.131227
H17 H 0.381077 0.246184 0.142311
C21 C 0.82350(7) 0.35636(12) 0.54017(6)
C22 C 0.78705(7) 0.43865(11) 0.51236(6)
H18 H 0.742116 0.427842 0.491273
C23 C 0.81663(8) 0.53803(12) 0.51542(6)
C24 C 0.88271(8) 0.54980(14) 0.54676(7)
H19 H 0.903331 0.616817 0.549125
C25 C 0.91981(8) 0.46691(15) 0.57485(7)
C26 C 0.88945(8) 0.36924(14) 0.57118(6)
H20 H 0.913609 0.311453 0.589762
C27 C 0.77603(8) 0.62898(12) 0.48428(7)
C28 C 0.70448(9) 0.63405(14) 0.49878(10)
H21 H 0.680156 0.568462 0.488226
H22 H 0.678498 0.691822 0.478644
H23 H 0.709244 0.645101 0.538712
C29 C 0.76730(10) 0.61104(14) 0.42201(8)
H24 H 0.812494 0.607127 0.412152
H25 H 0.741248 0.668872 0.401986
H26 H 0.742552 0.545623 0.411931
C30 C 0.81120(10) 0.73490(14) 0.49850(9)
H27 H 0.820045 0.745454 0.538686
H28 H 0.781297 0.790567 0.480185
H29 H 0.854672 0.736216 0.485690
C31 C 0.99234(10) 0.48277(19) 0.60994(9)
C32 C 0.17743(17) 0.1703(3) 0.32713(19)
H30 H 0.189790 0.098363 0.320113
H31 H 0.127738 0.175146 0.324287
H32 H 0.200907 0.191148 0.364385
C33 C 0.15914(16) 0.2045(3) 0.22522(16)
H33 H 0.168655 0.251265 0.196280
H34 H 0.109821 0.204253 0.224717
H35 H 0.174078 0.133761 0.218434
C34 C 0.17457(15) 0.3523(3) 0.29331(15)
H36 H 0.199108 0.378068 0.329301
H37 H 0.125273 0.350471 0.292873
H38 H 0.183297 0.398676 0.263932
C35 C 0.98493(16) 0.4547(3) 0.67386(13)
H39 H 0.954127 0.505040 0.686137
H40 H 1.030133 0.458122 0.698489
H41 H 0.966128 0.384355 0.674862
C36 C 1.03957(15) 0.3913(3) 0.59718(17)
H42 H 1.018625 0.324329 0.603262
H43 H 1.084696 0.396723 0.621781
H44 H 1.044748 0.395904 0.558561
C37 C 1.0202(2) 0.5808(4) 0.6086(2)
H45 H 1.025827 0.596355 0.570838
H46 H 1.065042 0.583169 0.633844
H47 H 0.989695 0.632403 0.620111
O1 O 0.97261(6) 0.07700(10) 0.57485(5)
O2 O 0.88490(6) 0.23063(10) 0.71264(5)
N8 N 0.60291(6) 0.38514(9) 0.47257(5)
N9 N 0.67459(6) 0.35406(9) 0.38729(5)
C44 C 0.56424(8) 0.36958(12) 0.51053(6)
C45 C 0.49255(8) 0.36256(11) 0.49567(7)
H66 H 0.466129 0.348888 0.522937
C46 C 0.46106(8) 0.37578(11) 0.44103(7)
H67 H 0.412572 0.371749 0.430243
C47 C 0.50045(7) 0.39493(11) 0.40204(7)
H68 H 0.479673 0.406182 0.364295
C48 C 0.57158(7) 0.39732(10) 0.41952(6)
C49 C 0.61741(7) 0.41307(11) 0.37948(6)
C50 C 0.60210(8) 0.48601(12) 0.33689(6)
H69 H 0.561710 0.527127 0.332587
C51 C 0.64660(10) 0.49747(13) 0.30109(7)
H70 H 0.637419 0.546878 0.271833
C52 C 0.70451(9) 0.43629(12) 0.30835(6)
H71 H 0.735442 0.442408 0.283816
C53 C 0.71735(8) 0.36535(11) 0.35199(6)
C54 C 0.77997(8) 0.29670(12) 0.36190(6)
H72 H 0.802645 0.300655 0.401465
H73 H 0.812673 0.322874 0.339720
C55 C 0.76270(8) 0.18308(12) 0.34657(6)
H74 H 0.736122 0.180003 0.308056
H75 H 0.733372 0.155165 0.371150
C56 C 0.82676(9) 0.11367(13) 0.35141(7)
H76 H 0.812438 0.044191 0.335829
H77 H 0.857458 0.144469 0.328754
C57 C 0.86647(8) 0.10013(12) 0.40997(7)
C58 C 0.85311(9) 0.01833(13) 0.44310(7)
H78 H 0.819146 -0.031374 0.427911
C59 C 0.88756(9) 0.00653(13) 0.49762(7)
H79 H 0.877476 -0.050876 0.518951
C60 C 0.93666(8) 0.07875(14) 0.52078(7)
C61 C 0.95178(8) 0.16030(14) 0.48852(7)
H80 H 0.985970 0.209619 0.503784
C62 C 0.91722(9) 0.17029(14) 0.43404(7)
H81 H 0.928452 0.226565 0.412475
C63 C 0.95572(9) -0.00236(15) 0.61046(7)
H82 H 0.969150 -0.071584 0.598488
H83 H 0.905744 -0.002742 0.609261
C64 C 0.99459(10) 0.02140(16) 0.66884(8)
H84 H 1.044303 0.022768 0.668934
H85 H 0.986291 -0.035484 0.693797
C65 C 0.97425(9) 0.12476(15) 0.69155(7)
H86 H 1.005998 0.139663 0.727084
H87 H 0.979570 0.181045 0.665284
C66 C 0.90181(9) 0.12618(14) 0.70085(7)
H88 H 0.869910 0.100682 0.667366
H89 H 0.897838 0.080119 0.732252
C67 C 0.81672(8) 0.25676(14) 0.70368(6)
C68 C 0.76303(9) 0.18563(13) 0.69569(6)
H90 H 0.772486 0.113039 0.696806
C69 C 0.69577(9) 0.22013(14) 0.68612(6)
H91 H 0.659659 0.170482 0.680560
C70 C 0.67986(9) 0.32576(13) 0.68447(6)
C71 C 0.73426(9) 0.39551(14) 0.69305(7)
H92 H 0.724889 0.468110 0.692470
C72 C 0.80178(9) 0.36235(13) 0.70244(7)
H93 H 0.837904 0.411982 0.708029
C73 C 0.60660(9) 0.36316(15) 0.67208(7)
H94 H 0.606402 0.439647 0.677221
H95 H 0.582314 0.331767 0.699357
C74 C 0.56700(9) 0.33768(14) 0.61411(7)
H96 H 0.557278 0.261995 0.611748
H97 H 0.522526 0.374795 0.607672
C75 C 0.60477(8) 0.36722(14) 0.56919(7)
H98 H 0.625038 0.437131 0.578021
H99 H 0.643195 0.317693 0.570665
C38? C 0.17355(19) 0.1356(3) 0.2799(2)
H48? H 0.179706 0.104709 0.244888
H49? H 0.124742 0.135603 0.281338
H50? H 0.199053 0.094773 0.310918
C39? C 0.16117(19) 0.3144(4) 0.2399(2)
H51? H 0.179479 0.385272 0.246048
H52? H 0.112419 0.314519 0.241502
H53? H 0.166663 0.289930 0.203375
C40? C 0.1947(2) 0.2913(4) 0.34181(19)
H54? H 0.221745 0.248648 0.371346
H55? H 0.146790 0.292399 0.345796
H56? H 0.212859 0.362479 0.344366
C41? C 0.9922(3) 0.5895(6) 0.6467(2)
H57? H 1.039007 0.605201 0.666073
H58? H 0.962880 0.579356 0.673746
H59? H 0.974467 0.647475 0.622048
C42? C 1.0256(3) 0.4030(5) 0.6386(3)
H60? H 0.999626 0.378484 0.665882
H61? H 1.071164 0.426209 0.657764
H62? H 1.030475 0.346158 0.613172
C43? C 1.0404(2) 0.5285(4) 0.56485(19)
H63? H 1.044352 0.474264 0.537660
H64? H 1.086260 0.547188 0.585400
H65? H 1.018266 0.590098 0.545661
loop_
_geom_bond_atom_site_label_1
_geom_bond_atom_site_label_2
_geom_bond_site_symmetry_1
_geom_bond_site_symmetry_2
N1 N2 1_555 1_555
N2 N3 1_555 1_555
N3 C1 1_555 1_555
N4 C3 1_555 1_555
N5 N6 1_555 1_555
N6 N7 1_555 1_555
N7 C9 1_555 1_555
C1 H1 1_555 1_555
C2 N1 1_555 1_555
C3 C2 1_555 1_555
C4 C3 1_555 1_555
H2 C4 1_555 1_555
C5 C4 1_555 1_555
H3 C5 1_555 1_555
C6 C5 1_555 1_555
H4 C6 1_555 1_555
C7 N4 1_555 1_555
C8 N5 1_555 1_555
C9 C8 1_555 1_555
H5 C9 1_555 1_555
C10 N7 1_555 1_555
C11 C10 1_555 1_555
H6 C11 1_555 1_555
C12 C11 1_555 1_555
C13 C12 1_555 1_555
H7 C13 1_555 1_555
C14 C13 1_555 1_555
C15 C10 1_555 1_555
H8 C15 1_555 1_555
C16 C14 1_555 1_555
C17 C12 1_555 1_555
C18 C17 1_555 1_555
H9 C18 1_555 1_555
H10 C18 1_555 1_555
H11 C18 1_555 1_555
C19 C17 1_555 1_555
H12 C19 1_555 1_555
H13 C19 1_555 1_555
H14 C19 1_555 1_555
C20 C17 1_555 1_555
H15 C20 1_555 1_555
H16 C20 1_555 1_555
H17 C20 1_555 1_555
C21 N3 1_555 1_555
C22 C21 1_555 1_555
H18 C22 1_555 1_555
C23 C22 1_555 1_555
C24 C23 1_555 1_555
H19 C24 1_555 1_555
C25 C24 1_555 1_555
C26 C21 1_555 1_555
H20 C26 1_555 1_555
C27 C23 1_555 1_555
C28 C27 1_555 1_555
H21 C28 1_555 1_555
H22 C28 1_555 1_555
H23 C28 1_555 1_555
C29 C27 1_555 1_555
H24 C29 1_555 1_555
H25 C29 1_555 1_555
H26 C29 1_555 1_555
C30 C27 1_555 1_555
H27 C30 1_555 1_555
H28 C30 1_555 1_555
H29 C30 1_555 1_555
C31 C25 1_555 1_555
C32 C16 1_555 1_555
H30 C32 1_555 1_555
H31 C32 1_555 1_555
H32 C32 1_555 1_555
C33 C16 1_555 1_555
H33 C33 1_555 1_555
H34 C33 1_555 1_555
H35 C33 1_555 1_555
C34 C16 1_555 1_555
H36 C34 1_555 1_555
H37 C34 1_555 1_555
H38 C34 1_555 1_555
C35 C31 1_555 1_555
H39 C35 1_555 1_555
H40 C35 1_555 1_555
H41 C35 1_555 1_555
C36 C31 1_555 1_555
H42 C36 1_555 1_555
H43 C36 1_555 1_555
H44 C36 1_555 1_555
C37 C31 1_555 1_555
H45 C37 1_555 1_555
H46 C37 1_555 1_555
H47 C37 1_555 1_555
O1 C60 1_555 1_555
O2 C66 1_555 1_555
N8 C44 1_555 1_555
N9 C49 1_555 1_555
C44 C45 1_555 1_555
C45 H66 1_555 1_555
C46 C45 1_555 1_555
H67 C46 1_555 1_555
C47 C46 1_555 1_555
H68 C47 1_555 1_555
C48 N8 1_555 1_555
C49 C48 1_555 1_555
C50 C49 1_555 1_555
H69 C50 1_555 1_555
C51 C50 1_555 1_555
H70 C51 1_555 1_555
C52 C51 1_555 1_555
H71 C52 1_555 1_555
C53 N9 1_555 1_555
C54 C53 1_555 1_555
H72 C54 1_555 1_555
H73 C54 1_555 1_555
C55 C54 1_555 1_555
H74 C55 1_555 1_555
H75 C55 1_555 1_555
C56 C55 1_555 1_555
H76 C56 1_555 1_555
H77 C56 1_555 1_555
C57 C56 1_555 1_555
C58 C57 1_555 1_555
H78 C58 1_555 1_555
C59 C58 1_555 1_555
H79 C59 1_555 1_555
C60 C59 1_555 1_555
C61 C60 1_555 1_555
H80 C61 1_555 1_555
C62 C57 1_555 1_555
H81 C62 1_555 1_555
C63 O1 1_555 1_555
H82 C63 1_555 1_555
H83 C63 1_555 1_555
C64 C63 1_555 1_555
H84 C64 1_555 1_555
H85 C64 1_555 1_555
C65 C64 1_555 1_555
H86 C65 1_555 1_555
H87 C65 1_555 1_555
C66 C65 1_555 1_555
H88 C66 1_555 1_555
H89 C66 1_555 1_555
C67 O2 1_555 1_555
C68 C67 1_555 1_555
H90 C68 1_555 1_555
C69 C68 1_555 1_555
H91 C69 1_555 1_555
C70 C69 1_555 1_555
C71 C70 1_555 1_555
H92 C71 1_555 1_555
C72 C67 1_555 1_555
H93 C72 1_555 1_555
C73 C70 1_555 1_555
H94 C73 1_555 1_555
H95 C73 1_555 1_555
C74 C73 1_555 1_555
H96 C74 1_555 1_555
H97 C74 1_555 1_555
C75 C44 1_555 1_555
H98 C75 1_555 1_555
H99 C75 1_555 1_555
C1 C2 1_555 1_555
C6 C7 1_555 1_555
C7 C8 1_555 1_555
C14 C15 1_555 1_555
C25 C26 1_555 1_555
C47 C48 1_555 1_555
C52 C53 1_555 1_555
C61 C62 1_555 1_555
C71 C72 1_555 1_555
C74 C75 1_555 1_555

#END
