
#######################################################################
#
#                 Cambridge Crystallographic Data Centre
#                                CCDC 
#
#######################################################################
#
# If this CIF has been generated from an entry in the Cambridge 
# Structural Database, then it will include bibliographic, chemical, 
# crystal, experimental, refinement or atomic coordinate data resulting 
# from the CCDC's data processing and validation procedures.
#
#######################################################################

data_SOBQAC
_chemical_formula_moiety         'C19 H19 N1 O4'
_chemical_name_systematic        
3-(4-Methylphenyl)-5-(1-phenylhydroxymethyl)-5-(methoxycarbonyl)isoxazoline
_symmetry_cell_setting           triclinic
_symmetry_space_group_name_H-M   'P -1'
_symmetry_Int_Tables_number      2
_space_group_name_Hall           '-P 1'
loop_
_symmetry_equiv_pos_site_id
_symmetry_equiv_pos_as_xyz
1 x,y,z
2 -x,-y,-z
_cell_length_a                   8.5400(3)
_cell_length_b                   10.5119(4)
_cell_length_c                   20.8093(8)
_cell_angle_alpha                84.800(2)
_cell_angle_beta                 88.209(2)
_cell_angle_gamma                67.405(2)
_cell_volume                     1717.59
_cell_formula_units_Z            4
loop_
_atom_site_label
_atom_site_type_symbol
_atom_site_fract_x
_atom_site_fract_y
_atom_site_fract_z
C1 C 0.24651(19) 0.18879(15) 0.89987(8)
H1 H 0.2276 0.1043 0.8940
C2 C 0.13796(19) 0.30110(16) 0.85087(8)
C3 C 0.0900(3) 0.44034(18) 0.85668(10)
H2 H 0.1216 0.4697 0.8932
C4 C -0.0045(3) 0.5374(2) 0.80881(11)
H3 H -0.0356 0.6310 0.8136
C5 C 0.0877(3) 0.2627(2) 0.79621(10)
H4 H 0.1175 0.1693 0.7912
C6 C -0.0522(3) 0.4977(2) 0.75524(11)
H5 H -0.1157 0.5634 0.7233
C7 C -0.0061(4) 0.3600(3) 0.74862(12)
H6 H -0.0380 0.3316 0.7119
C8 C 0.41724(19) 0.30318(16) 1.10850(8)
C9 C 0.36053(18) 0.24240(15) 1.05790(8)
C10 C 0.2793(2) 0.31902(16) 0.99577(8)
H7 H 0.3617 0.3348 0.9664
H8 H 0.1891 0.4069 1.0030
C11 C 0.4462(2) 0.2423(2) 1.17157(9)
H9 H 0.4349 0.1584 1.1819
C12 C 0.4352(2) 0.42851(19) 1.09521(9)
H10 H 0.4146 0.4720 1.0536
C13 C 0.4915(2) 0.3056(2) 1.21863(9)
H11 H 0.5093 0.2636 1.2605
C14 C 0.5112(2) 0.4296(2) 1.20540(9)
C15 C 0.4831(3) 0.4897(2) 1.14285(9)
H12 H 0.4968 0.5728 1.1326
C16 C 0.5594(4) 0.4992(3) 1.25746(11)
H13 H 0.5647 0.5847 1.2394
H14 H 0.6681 0.4397 1.2751
H15 H 0.4759 0.5174 1.2910
O1 O 0.30341(14) 0.08852(10) 1.00846(6)
O2 O -0.03262(14) 0.16390(11) 0.97189(6)
O3 O 0.41931(14) 0.16289(12) 0.88579(7)
H16 H 0.4786 0.0839 0.8997
O4 O -0.06032(17) 0.35504(13) 1.01585(8)
C17 C 0.02382(19) 0.25676(14) 0.98825(7)
C18 C -0.2064(2) 0.1873(2) 0.98833(11)
H17 H -0.2261 0.2079 1.0326
H18 H -0.2277 0.1059 0.9823
H19 H -0.2809 0.2638 0.9610
N1 N 0.37533(16) 0.11605(13) 1.06343(7)
C38 C 0.21035(19) 0.21962(14) 0.97063(8)
C19 C 1.0735(2) -0.03531(19) 0.35748(8)
H20 H 1.1549 -0.1286 0.3707
C20 C 1.0668(2) -0.01496(18) 0.28461(8)
C21 C 0.9273(2) 0.0826(2) 0.25227(8)
H21 H 0.8323 0.1328 0.2756
C22 C 0.9783(2) 0.2463(2) 0.45251(8)
C23 C 1.1294(2) 0.0710(2) 0.38567(8)
C24 C 0.9942(3) 0.2168(2) 0.38328(9)
H22 H 1.0303 0.2817 0.3571
H23 H 0.8879 0.2203 0.3664
C25 C 0.8648(3) 0.3761(2) 0.47640(9)
C26 C 0.9267(3) 0.1069(2) 0.18579(9)
H24 H 0.8324 0.1740 0.1649
C27 C 1.2033(2) -0.0907(2) 0.24841(10)
H25 H 1.2975 -0.1588 0.2689
C28 C 1.0637(3) 0.0328(2) 0.15081(10)
H26 H 1.0636 0.0495 0.1062
C29 C 0.8646(3) 0.4045(3) 0.54026(10)
H27 H 0.9418 0.3403 0.5693
C30 C 0.7515(3) 0.5268(3) 0.56096(12)
H28 H 0.7548 0.5435 0.6039
C31 C 1.2018(3) -0.0666(3) 0.18190(12)
H29 H 1.2951 -0.1181 0.1581
C32 C 0.7478(3) 0.4775(3) 0.43516(11)
H30 H 0.7462 0.4631 0.3918
C33 C 0.6330(3) 0.6259(3) 0.52022(12)
C34 C 0.5090(4) 0.7589(3) 0.54302(16)
H31 H 0.5488 0.8317 0.5313
H32 H 0.4983 0.7488 0.5891
H33 H 0.4005 0.7814 0.5233
C35 C 0.6346(3) 0.5984(3) 0.45722(13)
H34 H 0.5570 0.6632 0.4284
C36 C 1.5830(3) -0.0749(4) 0.3395(2)
H35 H 1.5684 -0.0358 0.2955
H36 H 1.6518 -0.1720 0.3408
H37 H 1.6375 -0.0298 0.3636
O5 O 0.91196(15) -0.02140(17) 0.38113(6)
H38 H 0.9194 -0.0492 0.4195
O6 O 1.16087(17) 0.02929(14) 0.45468(6)
O7 O 1.41755(18) -0.05549(19) 0.36767(9)
O8 O 1.3132(2) 0.1618(2) 0.32517(9)
N2 N 1.0692(2) 0.14236(17) 0.49021(7)
C37 C 1.2949(3) 0.0677(2) 0.35587(10)
loop_
_geom_bond_atom_site_label_1
_geom_bond_atom_site_label_2
_geom_bond_site_symmetry_1
_geom_bond_site_symmetry_2
C1 H1 1_555 1_555
C2 C1 1_555 1_555
C3 C2 1_555 1_555
H2 C3 1_555 1_555
C4 C3 1_555 1_555
H3 C4 1_555 1_555
C5 C2 1_555 1_555
H4 C5 1_555 1_555
C6 C4 1_555 1_555
H5 C6 1_555 1_555
C7 C5 1_555 1_555
H6 C7 1_555 1_555
C8 C9 1_555 1_555
C9 C10 1_555 1_555
C10 H7 1_555 1_555
H8 C10 1_555 1_555
C11 C8 1_555 1_555
H9 C11 1_555 1_555
C12 C8 1_555 1_555
H10 C12 1_555 1_555
C13 C11 1_555 1_555
H11 C13 1_555 1_555
C14 C13 1_555 1_555
C15 C12 1_555 1_555
H12 C15 1_555 1_555
C16 C14 1_555 1_555
H13 C16 1_555 1_555
H14 C16 1_555 1_555
H15 C16 1_555 1_555
O1 N1 1_555 1_555
O2 C17 1_555 1_555
O3 C1 1_555 1_555
H16 O3 1_555 1_555
O4 C17 1_555 1_555
C17 C38 1_555 1_555
C18 O2 1_555 1_555
H17 C18 1_555 1_555
H18 C18 1_555 1_555
H19 C18 1_555 1_555
C19 H20 1_555 1_555
C20 C19 1_555 1_555
C21 C20 1_555 1_555
H21 C21 1_555 1_555
C22 C24 1_555 1_555
C23 C19 1_555 1_555
C24 C23 1_555 1_555
H22 C24 1_555 1_555
H23 C24 1_555 1_555
C25 C22 1_555 1_555
C26 C21 1_555 1_555
H24 C26 1_555 1_555
C27 C20 1_555 1_555
H25 C27 1_555 1_555
C28 C26 1_555 1_555
H26 C28 1_555 1_555
C29 C25 1_555 1_555
H27 C29 1_555 1_555
C30 C29 1_555 1_555
H28 C30 1_555 1_555
C31 C27 1_555 1_555
H29 C31 1_555 1_555
C32 C25 1_555 1_555
H30 C32 1_555 1_555
C33 C30 1_555 1_555
C34 C33 1_555 1_555
H31 C34 1_555 1_555
H32 C34 1_555 1_555
H33 C34 1_555 1_555
C35 C32 1_555 1_555
H34 C35 1_555 1_555
C36 H35 1_555 1_555
H36 C36 1_555 1_555
H37 C36 1_555 1_555
O5 C19 1_555 1_555
H38 O5 1_555 1_555
O6 C23 1_555 1_555
O7 C36 1_555 1_555
O8 C37 1_555 1_555
N1 C9 1_555 1_555
N2 C22 1_555 1_555
C37 C23 1_555 1_555
C38 C1 1_555 1_555
C6 C7 1_555 1_555
C10 C38 1_555 1_555
C14 C15 1_555 1_555
O1 C38 1_555 1_555
C28 C31 1_555 1_555
C33 C35 1_555 1_555
O6 N2 1_555 1_555
O7 C37 1_555 1_555

#END
