
#######################################################################
#
#                 Cambridge Crystallographic Data Centre
#                                CCDC 
#
#######################################################################
#
# If this CIF has been generated from an entry in the Cambridge 
# Structural Database, then it will include bibliographic, chemical, 
# crystal, experimental, refinement or atomic coordinate data resulting 
# from the CCDC's data processing and validation procedures.
#
#######################################################################

data_SOBQOR
_chemical_formula_moiety         'C21 H17 N3 O4'
_chemical_name_systematic        
2,3-bis(Methoxycarbonyl)-5,7-diphenyl-3H-pyrazolo[1,2-a][1,2,3]triazol-8-ium-3-ide
_symmetry_cell_setting           monoclinic
_symmetry_space_group_name_H-M   'P 21/c'
_symmetry_Int_Tables_number      14
_space_group_name_Hall           '-P 2ybc'
loop_
_symmetry_equiv_pos_site_id
_symmetry_equiv_pos_as_xyz
1 x,y,z
2 -x,1/2+y,1/2-z
3 -x,-y,-z
4 x,1/2-y,1/2+z
_cell_length_a                   8.0570(6)
_cell_length_b                   22.7381(17)
_cell_length_c                   10.3968(7)
_cell_angle_alpha                90
_cell_angle_beta                 107.446(1)
_cell_angle_gamma                90
_cell_volume                     1817.09
_exptl_crystal_colour            'light yellow'
_exptl_crystal_description       block
_cell_formula_units_Z            4
loop_
_atom_site_label
_atom_site_type_symbol
_atom_site_fract_x
_atom_site_fract_y
_atom_site_fract_z
O1 O -0.02298(19) 0.72673(5) 0.48867(13)
O2 O -0.13056(17) 0.67528(5) 0.29807(11)
O3 O 0.3398(2) 0.71399(6) 0.69790(13)
O4 O 0.23330(19) 0.65243(6) 0.81897(11)
N1 N 0.08961(14) 0.57872(5) 0.40616(10)
N2 N 0.20287(14) 0.54387(5) 0.50176(10)
N3 N 0.27358(15) 0.57190(5) 0.62078(10)
C1 C 0.08669(18) 0.63302(6) 0.47042(13)
C2 C 0.20278(19) 0.62544(6) 0.59828(13)
C3 C 0.02587(18) 0.54522(6) 0.29180(13)
C4 C 0.09886(19) 0.48996(6) 0.32207(14)
H1 H 0.0758 0.4581 0.2632
C5 C 0.21168(18) 0.48872(6) 0.45304(13)
C6 C -0.0251(2) 0.68306(6) 0.42197(14)
C7 C -0.2362(3) 0.72471(9) 0.2352(2)
H2 H -0.2996 0.7391 0.2935
H3 H -0.3165 0.7125 0.1510
H4 H -0.1628 0.7554 0.2192
C8 C 0.2647(2) 0.67021(7) 0.70835(14)
C9 C 0.3044(4) 0.68866(11) 0.93768(19)
H5 H 0.4282 0.6916 0.9564
H6 H 0.2782 0.6711 1.0133
H7 H 0.2536 0.7272 0.9219
C10 C -0.08628(18) 0.56469(6) 0.15859(13)
C11 C -0.0500(2) 0.61395(7) 0.09334(15)
H8 H 0.0454 0.6374 0.1356
C12 C -0.1553(2) 0.62857(8) -0.03489(16)
H9 H -0.1304 0.6618 -0.0778
C13 C -0.2958(2) 0.59417(10) -0.09850(15)
H10 H -0.3682 0.6047 -0.1832
C14 C -0.3291(2) 0.54392(10) -0.03611(16)
H11 H -0.4218 0.5198 -0.0803
C15 C -0.2251(2) 0.52920(8) 0.09210(15)
H12 H -0.2487 0.4953 0.1336
C16 C 0.32902(18) 0.44290(6) 0.52649(13)
C17 C 0.3231(2) 0.38742(7) 0.46903(16)
H13 H 0.2421 0.3797 0.3860
C18 C 0.4363(3) 0.34375(7) 0.53405(19)
H14 H 0.4317 0.3070 0.4938
C19 C 0.5563(2) 0.35402(7) 0.65806(18)
H15 H 0.6315 0.3243 0.7019
C20 C 0.5632(2) 0.40862(8) 0.71591(17)
H16 H 0.6437 0.4158 0.7995
C21 C 0.4522(2) 0.45294(7) 0.65148(15)
H17 H 0.4594 0.4898 0.6916
loop_
_geom_bond_atom_site_label_1
_geom_bond_atom_site_label_2
_geom_bond_site_symmetry_1
_geom_bond_site_symmetry_2
O1 C6 1_555 1_555
O2 C6 1_555 1_555
O3 C8 1_555 1_555
O4 C8 1_555 1_555
N1 N2 1_555 1_555
N2 N3 1_555 1_555
N3 C2 1_555 1_555
C1 N1 1_555 1_555
C2 C1 1_555 1_555
C3 N1 1_555 1_555
C4 C3 1_555 1_555
H1 C4 1_555 1_555
C5 N2 1_555 1_555
C6 C1 1_555 1_555
C7 O2 1_555 1_555
H2 C7 1_555 1_555
H3 C7 1_555 1_555
H4 C7 1_555 1_555
C8 C2 1_555 1_555
C9 O4 1_555 1_555
H5 C9 1_555 1_555
H6 C9 1_555 1_555
H7 C9 1_555 1_555
C10 C3 1_555 1_555
C11 C10 1_555 1_555
H8 C11 1_555 1_555
C12 C11 1_555 1_555
H9 C12 1_555 1_555
C13 C12 1_555 1_555
H10 C13 1_555 1_555
C14 C13 1_555 1_555
H11 C14 1_555 1_555
C15 C10 1_555 1_555
H12 C15 1_555 1_555
C16 C5 1_555 1_555
C17 C16 1_555 1_555
H13 C17 1_555 1_555
C18 C17 1_555 1_555
H14 C18 1_555 1_555
C19 C18 1_555 1_555
H15 C19 1_555 1_555
C20 C19 1_555 1_555
H16 C20 1_555 1_555
C21 C16 1_555 1_555
H17 C21 1_555 1_555
C4 C5 1_555 1_555
C14 C15 1_555 1_555
C20 C21 1_555 1_555

#END
