
#######################################################################
#
#                 Cambridge Crystallographic Data Centre
#                                CCDC 
#
#######################################################################
#
# If this CIF has been generated from an entry in the Cambridge 
# Structural Database, then it will include bibliographic, chemical, 
# crystal, experimental, refinement or atomic coordinate data resulting 
# from the CCDC's data processing and validation procedures.
#
#######################################################################

data_SOBROS
_chemical_formula_moiety         'C13 H15 N1 O2'
_chemical_name_systematic        
N-(4-Ethylidene-3,4-dihydro-2H-chromen-5-yl)acetamide
_symmetry_cell_setting           rhombohedral
_symmetry_space_group_name_H-M   'R 3 c'
_symmetry_Int_Tables_number      161
_space_group_name_Hall           'R 3 -2"c'
loop_
_symmetry_equiv_pos_site_id
_symmetry_equiv_pos_as_xyz
1 x,y,z
2 -y,x-y,z
3 -x+y,-x,z
4 -x+y,y,1/2+z
5 x,x-y,1/2+z
6 -y,-x,1/2+z
7 2/3+x,1/3+y,1/3+z
8 2/3-y,1/3+x-y,1/3+z
9 2/3-x+y,1/3-x,1/3+z
10 2/3-x+y,1/3+y,5/6+z
11 2/3+x,1/3+x-y,5/6+z
12 2/3-y,1/3-x,5/6+z
13 1/3+x,2/3+y,2/3+z
14 1/3-y,2/3+x-y,2/3+z
15 1/3-x+y,2/3-x,2/3+z
16 1/3-x+y,2/3+y,1/6+z
17 1/3+x,2/3+x-y,1/6+z
18 1/3-y,2/3-x,1/6+z
_cell_length_a                   25.053(2)
_cell_length_b                   25.053(2)
_cell_length_c                   9.6450(13)
_cell_angle_alpha                90
_cell_angle_beta                 90
_cell_angle_gamma                120
_cell_volume                     5242.67
_cell_formula_units_Z            18
loop_
_atom_site_label
_atom_site_type_symbol
_atom_site_fract_x
_atom_site_fract_y
_atom_site_fract_z
C1 C 0.19815(18) -0.02295(17) 0.2453(3)
N1 N 0.13849(15) -0.06943(15) 0.2064(3)
C2 C 0.22763(17) 0.03387(17) 0.1742(4)
C3 C 0.19758(19) 0.05399(18) 0.0701(4)
C4 C 0.09395(19) -0.10841(18) 0.2944(4)
O1 O 0.09969(15) -0.10320(16) 0.4201(3)
O2 O 0.32360(15) 0.12854(16) 0.1359(4)
C5 C 0.1382(2) 0.03757(18) 0.0678(5)
H1 H 0.1135 0.0098 0.1357
C6 C 0.2297(2) -0.0352(2) 0.3466(4)
H2 H 0.2100 -0.0727 0.3935
C7 C 0.0367(2) -0.1585(2) 0.2271(5)
H3 H 0.0413 -0.1550 0.1281
H4 H 0.0019 -0.1547 0.2542
H5 H 0.0304 -0.1980 0.2558
C8 C 0.3208(2) 0.0616(2) 0.3062(4)
H6 H 0.3620 0.0894 0.3252
C9 C 0.2900(2) 0.0747(2) 0.2039(4)
C10 C 0.2423(2) 0.1012(3) -0.0305(6)
H7 H 0.2453 0.0799 -0.1115
H8 H 0.2258 0.1270 -0.0607
C11 C 0.1070(2) 0.0585(2) -0.0306(6)
H9 H 0.0640 0.0393 -0.0076
H10 H 0.1114 0.0472 -0.1233
H11 H 0.1253 0.1024 -0.0248
C12 C 0.2901(2) 0.0074(2) 0.3790(5)
H12 H 0.3100 -0.0006 0.4504
C13 C 0.2989(4) 0.1374(4) 0.0201(9)
H13 H 0.3029 0.1777 0.0309
H14 H 0.3268 0.1415 -0.0542
H15 H 0.1318(19) -0.0678(19) 0.130(5)
loop_
_geom_bond_atom_site_label_1
_geom_bond_atom_site_label_2
_geom_bond_site_symmetry_1
_geom_bond_site_symmetry_2
C1 N1 1_555 1_555
N1 C4 1_555 1_555
C2 C1 1_555 1_555
C3 C2 1_555 1_555
C4 O1 1_555 1_555
O2 C9 1_555 1_555
C5 C3 1_555 1_555
H1 C5 1_555 1_555
C6 C1 1_555 1_555
H2 C6 1_555 1_555
C7 C4 1_555 1_555
H3 C7 1_555 1_555
H4 C7 1_555 1_555
H5 C7 1_555 1_555
C8 H6 1_555 1_555
C9 C2 1_555 1_555
C10 C3 1_555 1_555
H7 C10 1_555 1_555
H8 C10 1_555 1_555
C11 C5 1_555 1_555
H9 C11 1_555 1_555
H10 C11 1_555 1_555
H11 C11 1_555 1_555
C12 C6 1_555 1_555
H12 C12 1_555 1_555
C13 O2 1_555 1_555
H13 C13 1_555 1_555
H14 C13 1_555 1_555
H15 N1 1_555 1_555
C8 C9 1_555 1_555
C8 C12 1_555 1_555
C10 C13 1_555 1_555

#END
