
#######################################################################
#
#                 Cambridge Crystallographic Data Centre
#                                CCDC 
#
#######################################################################
#
# If this CIF has been generated from an entry in the Cambridge 
# Structural Database, then it will include bibliographic, chemical, 
# crystal, experimental, refinement or atomic coordinate data resulting 
# from the CCDC's data processing and validation procedures.
#
#######################################################################

data_SOBSOS
_chemical_compound_source        'the fungus Blennoria sp'
_chemical_formula_moiety         'C16 H16 O7'
_chemical_name_systematic        'Blennolide A'
_chemical_properties_biological  
'antibacterial, antifungal and antialgal activity'
_symmetry_cell_setting           monoclinic
_symmetry_space_group_name_H-M   'P 21'
_symmetry_Int_Tables_number      4
_space_group_name_Hall           'P 2yb'
loop_
_symmetry_equiv_pos_site_id
_symmetry_equiv_pos_as_xyz
1 x,y,z
2 -x,1/2+y,-z
_cell_length_a                   8.9805(11)
_cell_length_b                   7.5036(10)
_cell_length_c                   11.1525(14)
_cell_angle_alpha                90
_cell_angle_beta                 104.497(3)
_cell_angle_gamma                90
_cell_volume                     727.595
_exptl_crystal_colour            yellow
_exptl_crystal_description       block
_chemical_melting_point          159-160deg.C
_cell_formula_units_Z            2
_exptl_crystal_recrystallization_method acetone/hexane
loop_
_atom_site_label
_atom_site_type_symbol
_atom_site_fract_x
_atom_site_fract_y
_atom_site_fract_z
O1 O -1.27443(17) -0.2269(2) -0.90966(15)
H1 H -1.1996 -0.1633 -0.8737
O2 O -0.99035(17) -0.1488(2) -0.80488(14)
O3 O -0.69840(18) -0.0884(2) -0.71472(14)
H2 H -0.7919 -0.0617 -0.7393
O4 O -0.58290(15) -0.6027(2) -0.83906(13)
H3 H -0.6446 -0.6600 -0.8948
O5 O -0.87506(15) -0.6719(2) -0.83581(13)
O6 O -0.8763(2) -0.7968(2) -0.61043(16)
O7 O -0.82343(19) -0.5250(2) -0.52958(14)
C1 C -1.0269(2) -0.6214(3) -0.87474(17)
C2 C -1.1304(2) -0.7488(3) -0.93445(18)
H4 H -1.0986 -0.8684 -0.9409
C3 C -1.2823(2) -0.6981(3) -0.98484(19)
H5 H -1.3547 -0.7847 -1.0255
C4 C -1.3301(2) -0.5232(4) -0.97687(19)
H6 H -1.4337 -0.4903 -1.0135
C5 C -1.2266(2) -0.3974(3) -0.91554(18)
C6 C -1.0714(2) -0.4456(3) -0.86093(18)
C7 C -0.9574(2) -0.3123(3) -0.80257(17)
C8 C -0.8048(2) -0.3777(3) -0.74739(17)
C9 C -0.6835(2) -0.2638(3) -0.71058(17)
C10 C -0.5208(2) -0.3253(3) -0.66690(19)
H7 H -0.4679 -0.2511 -0.5955
H8 H -0.4682 -0.3062 -0.7340
C11 C -0.5046(2) -0.5217(3) -0.62826(18)
H9 H -0.5322 -0.5336 -0.5471
C12 C -0.3402(2) -0.5891(4) -0.6118(2)
H10 H -0.2698 -0.5160 -0.5498
H11 H -0.3118 -0.5813 -0.6909
H12 H -0.3337 -0.7135 -0.5840
C13 C -0.6176(2) -0.6336(3) -0.72409(18)
H13 H -0.6042 -0.7628 -0.7020
C14 C -0.7847(2) -0.5753(3) -0.73161(18)
C15 C -0.8349(2) -0.6474(3) -0.61730(18)
C16 C -0.8714(3) -0.5831(4) -0.4206(2)
H14 H -0.8056 -0.6815 -0.3807
H15 H -0.9786 -0.6235 -0.4453
H16 H -0.8625 -0.4836 -0.3624
loop_
_geom_bond_atom_site_label_1
_geom_bond_atom_site_label_2
_geom_bond_site_symmetry_1
_geom_bond_site_symmetry_2
O1 H1 1_555 1_555
O2 C7 1_555 1_555
O3 H2 1_555 1_555
O4 H3 1_555 1_555
O5 C1 1_555 1_555
O6 C15 1_555 1_555
O7 C15 1_555 1_555
C1 C2 1_555 1_555
C2 H4 1_555 1_555
C3 C2 1_555 1_555
H5 C3 1_555 1_555
C4 C3 1_555 1_555
H6 C4 1_555 1_555
C5 O1 1_555 1_555
C6 C1 1_555 1_555
C7 C6 1_555 1_555
C8 C7 1_555 1_555
C9 O3 1_555 1_555
C10 C9 1_555 1_555
H7 C10 1_555 1_555
H8 C10 1_555 1_555
C11 C10 1_555 1_555
H9 C11 1_555 1_555
C12 C11 1_555 1_555
H10 C12 1_555 1_555
H11 C12 1_555 1_555
H12 C12 1_555 1_555
C13 O4 1_555 1_555
H13 C13 1_555 1_555
C14 O5 1_555 1_555
C15 C14 1_555 1_555
C16 O7 1_555 1_555
H14 C16 1_555 1_555
H15 C16 1_555 1_555
H16 C16 1_555 1_555
C4 C5 1_555 1_555
C5 C6 1_555 1_555
C8 C9 1_555 1_555
C8 C14 1_555 1_555
C11 C13 1_555 1_555
C13 C14 1_555 1_555

#END
