
#######################################################################
#
#                 Cambridge Crystallographic Data Centre
#                                CCDC 
#
#######################################################################
#
# If this CIF has been generated from an entry in the Cambridge 
# Structural Database, then it will include bibliographic, chemical, 
# crystal, experimental, refinement or atomic coordinate data resulting 
# from the CCDC's data processing and validation procedures.
#
#######################################################################

data_SOBVIR
_chemical_formula_moiety         'C37 H27 N1 O3 S1'
_chemical_name_systematic        
'5-[3-(4-hydroxyphenyl)-1,3-diphenylpropadienyl]-2-(3-methoxyphenyl)-5-phenyl-1,3-thiazol-4(5H)-one unknown solvate'
_symmetry_cell_setting           monoclinic
_symmetry_space_group_name_H-M   'P 21/n'
_symmetry_Int_Tables_number      14
_space_group_name_Hall           '-P 2yn'
loop_
_symmetry_equiv_pos_site_id
_symmetry_equiv_pos_as_xyz
1 x,y,z
2 1/2-x,1/2+y,1/2-z
3 -x,-y,-z
4 1/2+x,1/2-y,1/2+z
_cell_length_a                   15.836(14)
_cell_length_b                   9.677(8)
_cell_length_c                   21.725(16)
_cell_angle_alpha                90
_cell_angle_beta                 103.32(2)
_cell_angle_gamma                90
_cell_volume                     3239.69
_exptl_crystal_colour            colorless
_exptl_crystal_description       block
_cell_formula_units_Z            4
loop_
_atom_site_label
_atom_site_type_symbol
_atom_site_fract_x
_atom_site_fract_y
_atom_site_fract_z
S1 S 0.46393(3) 0.34410(4) 0.54662(2)
O1 O 0.28440(8) 0.36122(13) 0.63962(6)
O2 O 0.34903(9) 0.60020(16) 0.96015(6)
H1 H 0.301309 0.641219 0.948225
O3 O 0.21044(10) -0.07801(17) 0.36122(7)
N1 N 0.31316(9) 0.24111(15) 0.55540(6)
C1 C 0.45746(11) -0.16890(19) 0.79416(9)
H2 H 0.462825 -0.265870 0.800735
C2 C 0.51216(11) -0.10004(19) 0.76260(9)
H3 H 0.554498 -0.150109 0.747060
C3 C 0.50470(10) 0.04225(18) 0.75387(8)
H4 H 0.541941 0.088563 0.732032
C4 C 0.44323(10) 0.11824(17) 0.77673(7)
C5 C 0.43623(10) 0.27159(17) 0.76800(7)
C6 C 0.45705(10) 0.33306(17) 0.71917(8)
C7 C 0.48175(10) 0.39698(16) 0.67282(7)
C8 C 0.41735(10) 0.42192(17) 0.60856(7)
C9 C 0.37399(10) 0.23508(17) 0.52369(7)
C10 C 0.36919(11) 0.14176(17) 0.46973(7)
C11 C 0.28905(11) 0.08029(18) 0.44165(8)
H5 H 0.238776 0.101103 0.456758
C12 C 0.28407(12) -0.01130(19) 0.39153(8)
C13 C 0.13120(16) -0.0372(4) 0.37777(14)
H6 H 0.133728 -0.062780 0.421812
H7 H 0.082057 -0.084149 0.349948
H8 H 0.123820 0.063008 0.372845
C14 C 0.35859(13) -0.04151(19) 0.36969(8)
H9 H 0.355391 -0.105422 0.336037
C15 C 0.43686(12) 0.02120(19) 0.39683(8)
H10 H 0.486823 0.000965 0.381244
C16 C 0.44307(11) 0.11406(18) 0.44699(8)
H11 H 0.496720 0.157647 0.465331
C17 C 0.33178(10) 0.33936(17) 0.60434(8)
C18 C 0.39506(12) -0.0952(2) 0.81597(9)
H12 H 0.357030 -0.142329 0.836846
C19 C 0.38773(11) 0.04724(19) 0.80751(9)
H13 H 0.344826 0.096622 0.822712
C20 C 0.40748(11) 0.35713(17) 0.81706(8)
C21 C 0.34535(11) 0.46093(18) 0.80057(8)
H14 H 0.317495 0.475231 0.757407
C22 C 0.32389(11) 0.54410(19) 0.84738(8)
H15 H 0.281425 0.614634 0.836039
C23 C 0.36522(11) 0.52316(19) 0.91115(8)
C24 C 0.42607(12) 0.4188(2) 0.92798(9)
H16 H 0.453498 0.403915 0.971185
C25 C 0.44672(12) 0.3362(2) 0.88126(8)
H17 H 0.488117 0.264239 0.892944
C26 C 0.57453(11) 0.43933(17) 0.67912(7)
C27 C 0.59837(11) 0.54207(19) 0.64096(8)
H18 H 0.554765 0.590266 0.611388
C28 C 0.68550(12) 0.5742(2) 0.64598(9)
H19 H 0.700674 0.644826 0.620136
C29 C 0.75002(12) 0.5044(2) 0.68817(9)
H20 H 0.809307 0.525143 0.690524
C30 C 0.72762(12) 0.4031(2) 0.72733(9)
H21 H 0.771649 0.355757 0.756920
C31 C 0.64095(11) 0.37166(18) 0.72297(8)
H22 H 0.626184 0.303257 0.750052
C32 C 0.38893(10) 0.57212(17) 0.59405(8)
C33 C 0.35829(11) 0.61668(19) 0.53147(8)
H23 H 0.360865 0.556501 0.497402
C34 C 0.32411(13) 0.7490(2) 0.51921(9)
H24 H 0.303457 0.778982 0.476764
C35 C 0.32009(12) 0.8375(2) 0.56887(9)
H25 H 0.296896 0.927860 0.560326
C36 C 0.34995(12) 0.7938(2) 0.63093(9)
H26 H 0.346879 0.854160 0.664824
C37 C 0.38456(12) 0.66111(18) 0.64368(8)
H27 H 0.405115 0.631601 0.686205
loop_
_geom_bond_atom_site_label_1
_geom_bond_atom_site_label_2
_geom_bond_site_symmetry_1
_geom_bond_site_symmetry_2
S1 C8 1_555 1_555
O1 C17 1_555 1_555
O2 H1 1_555 1_555
O3 C12 1_555 1_555
N1 C9 1_555 1_555
C1 H2 1_555 1_555
C2 C1 1_555 1_555
H3 C2 1_555 1_555
C3 C2 1_555 1_555
H4 C3 1_555 1_555
C4 C3 1_555 1_555
C5 C4 1_555 1_555
C6 C5 1_555 1_555
C7 C6 1_555 1_555
C8 C7 1_555 1_555
C9 S1 1_555 1_555
C10 C9 1_555 1_555
C11 C10 1_555 1_555
H5 C11 1_555 1_555
C12 C11 1_555 1_555
C13 O3 1_555 1_555
H6 C13 1_555 1_555
H7 C13 1_555 1_555
H8 C13 1_555 1_555
C14 C12 1_555 1_555
H9 C14 1_555 1_555
C15 C14 1_555 1_555
H10 C15 1_555 1_555
C16 C10 1_555 1_555
H11 C16 1_555 1_555
C17 N1 1_555 1_555
C18 C1 1_555 1_555
H12 C18 1_555 1_555
C19 C4 1_555 1_555
H13 C19 1_555 1_555
C20 C5 1_555 1_555
C21 C20 1_555 1_555
H14 C21 1_555 1_555
C22 C21 1_555 1_555
H15 C22 1_555 1_555
C23 O2 1_555 1_555
C24 C23 1_555 1_555
H16 C24 1_555 1_555
C25 C20 1_555 1_555
H17 C25 1_555 1_555
C26 C7 1_555 1_555
C27 C26 1_555 1_555
H18 C27 1_555 1_555
C28 C27 1_555 1_555
H19 C28 1_555 1_555
C29 C28 1_555 1_555
H20 C29 1_555 1_555
C30 C29 1_555 1_555
H21 C30 1_555 1_555
C31 C26 1_555 1_555
H22 C31 1_555 1_555
C32 C8 1_555 1_555
C33 C32 1_555 1_555
H23 C33 1_555 1_555
C34 C33 1_555 1_555
H24 C34 1_555 1_555
C35 C34 1_555 1_555
H25 C35 1_555 1_555
C36 C35 1_555 1_555
H26 C36 1_555 1_555
C37 C32 1_555 1_555
H27 C37 1_555 1_555
C8 C17 1_555 1_555
C15 C16 1_555 1_555
C18 C19 1_555 1_555
C22 C23 1_555 1_555
C24 C25 1_555 1_555
C30 C31 1_555 1_555
C36 C37 1_555 1_555

#END
