
#######################################################################
#
#                 Cambridge Crystallographic Data Centre
#                                CCDC 
#
#######################################################################
#
# If this CIF has been generated from an entry in the Cambridge 
# Structural Database, then it will include bibliographic, chemical, 
# crystal, experimental, refinement or atomic coordinate data resulting 
# from the CCDC's data processing and validation procedures.
#
#######################################################################

data_SOBWOX
_chemical_name_common            
"N,N'-bis(Propan-2-ylidene)methanetriamium dicyanamide"
_chemical_formula_moiety         'C7 H16 N5 1+,C2 N3 1-'
_chemical_name_systematic        
'bis(2-Isopropylidenehydrazino)methaniminium dicyanamide'
_symmetry_cell_setting           triclinic
_symmetry_space_group_name_H-M   'P -1'
_symmetry_Int_Tables_number      2
_space_group_name_Hall           '-P 1'
loop_
_symmetry_equiv_pos_site_id
_symmetry_equiv_pos_as_xyz
1 x,y,z
2 -x,-y,-z
_cell_length_a                   7.7226(18)
_cell_length_b                   8.6961(18)
_cell_length_c                   10.263(2)
_cell_angle_alpha                74.688(8)
_cell_angle_beta                 86.268(9)
_cell_angle_gamma                70.039(6)
_cell_volume                     624.587
_exptl_crystal_colour            colorless
_exptl_crystal_description       Prism
_cell_formula_units_Z            2
loop_
_atom_site_label
_atom_site_type_symbol
_atom_site_fract_x
_atom_site_fract_y
_atom_site_fract_z
N1 N 0.55833(12) 0.71086(10) 0.33431(9)
N2 N 0.69065(11) 0.55006(10) 0.36726(9)
N3 N 0.36600(13) 0.93218(11) 0.17919(9)
N4 N 0.27158(12) 0.99666(10) 0.05504(9)
N5 N 0.51396(13) 0.67777(11) 0.12278(10)
C1 C 0.48035(13) 0.77128(12) 0.20933(10)
C2 C 0.75024(13) 0.49286(12) 0.49068(10)
C3 C 0.89372(14) 0.32051(13) 0.52745(11)
H1 H 0.9264 0.2781 0.4465
H2 H 0.8452 0.2434 0.5947
H3 H 1.0035 0.3271 0.5652
C4 C 0.68595(15) 0.58400(13) 0.59952(11)
H4 H 0.7137 0.6898 0.5753
H5 H 0.7495 0.5123 0.6852
H6 H 0.5527 0.6095 0.6092
C5 C 0.16393(14) 1.15132(12) 0.03152(10)
C6 C 0.05771(16) 1.22441(13) -0.09983(11)
H7 H 0.0908 1.1397 -0.1523
H8 H 0.0872 1.3244 -0.1508
H9 H -0.0746 1.2571 -0.0826
C7 C 0.13788(19) 1.26286(14) 0.12551(12)
H10 H 0.0948 1.2109 0.2123
H11 H 0.0464 1.3739 0.0860
H12 H 0.2554 1.2767 0.1397
H13 H 0.529(2) 0.7777(19) 0.3903(15)
H14 H 0.343(2) 0.9794(18) 0.2467(14)
H15 H 0.580(2) 0.5686(19) 0.1509(14)
H16 H 0.4532(19) 0.7179(17) 0.0454(15)
N6 N 1.2033(11) -0.0563(9) 0.6782(4)
N7 N 1.3069(11) 0.0003(7) 0.4418(6)
N8 N 1.352(2) -0.3065(15) 0.8632(12)
C8 C 1.2596(14) -0.0255(11) 0.5556(10)
C9 C 1.2837(14) -0.1834(17) 0.7776(13)
N9? N 1.270(2) -0.0344(7) 0.6824(6)
N10? N 1.3049(16) -0.0052(11) 0.4428(9)
N11? N 1.341(3) -0.3022(19) 0.8596(15)
C10? C 1.3018(13) -0.0401(18) 0.5540(17)
C11? C 1.319(2) -0.193(3) 0.7655(18)
loop_
_geom_bond_atom_site_label_1
_geom_bond_atom_site_label_2
_geom_bond_site_symmetry_1
_geom_bond_site_symmetry_2
N1 N2 1_555 1_555
N2 C2 1_555 1_555
N3 N4 1_555 1_555
N4 C5 1_555 1_555
N5 C1 1_555 1_555
C1 N1 1_555 1_555
C2 C3 1_555 1_555
C3 H1 1_555 1_555
H2 C3 1_555 1_555
H3 C3 1_555 1_555
C4 C2 1_555 1_555
H4 C4 1_555 1_555
H5 C4 1_555 1_555
H6 C4 1_555 1_555
C5 C6 1_555 1_555
C6 H7 1_555 1_555
H8 C6 1_555 1_555
H9 C6 1_555 1_555
C7 C5 1_555 1_555
H10 C7 1_555 1_555
H11 C7 1_555 1_555
H12 C7 1_555 1_555
H13 N1 1_555 1_555
H14 N3 1_555 1_555
H15 N5 1_555 1_555
H16 N5 1_555 1_555
N6 C8 1_555 1_555
N7 C8 1_555 1_555
N8 C9 1_555 1_555
C9 N6 1_555 1_555
N3 C1 1_555 1_555

#END
