
#######################################################################
#
#                 Cambridge Crystallographic Data Centre
#                                CCDC 
#
#######################################################################
#
# If this CIF has been generated from an entry in the Cambridge 
# Structural Database, then it will include bibliographic, chemical, 
# crystal, experimental, refinement or atomic coordinate data resulting 
# from the CCDC's data processing and validation procedures.
#
#######################################################################

data_SOBWIQ
_chemical_formula_moiety         
'C196 H181 F5 N36 O32,2.5(C4 H10 O2),6(C1 H1 Cl3),5.5(H2 O1)'
_chemical_name_systematic        
"N,N'-bis(2-(2-(6-(6-(6-(8-(8-(4-isobutoxy-8-nitroquinoline-2-carboxamido)4-isobutoxyquinoline-2-carboxamido)4-isobutoxyquinoline-2-carboxamido)pyridine-2-carbamoyl)pyridine-2-carboxamido)pyridine-2-carbamoyl)8-fluoro-4-isobutoxyquinoline-7-carbamoyl)8-fluoro-4-isobutoxyquinoline-7-yl)1,8-diaza-4,5-di-isobutoxy-9-fluoro-2,7-anthracenedicarboxamide 1,4-butanediol clathrate sesquikis(1,4-butanediol) chloroform solvate hydrate"
_symmetry_cell_setting           triclinic
_symmetry_space_group_name_H-M   'P -1'
_symmetry_Int_Tables_number      2
_space_group_name_Hall           '-P 1'
loop_
_symmetry_equiv_pos_site_id
_symmetry_equiv_pos_as_xyz
1 x,y,z
2 -x,-y,-z
_cell_length_a                   18.6735(3)
_cell_length_b                   24.7835(3)
_cell_length_c                   26.9042(7)
_cell_angle_alpha                80.920(6)
_cell_angle_beta                 85.094(6)
_cell_angle_gamma                70.093(4)
_cell_volume                     11553.6
_cell_formula_units_Z            2
loop_
_atom_site_label
_atom_site_type_symbol
_atom_site_fract_x
_atom_site_fract_y
_atom_site_fract_z
Cl1 Cl 0.0731(3) 0.0793(3) 0.6550(2)
Cl2 Cl -0.0090(4) 0.1084(3) 0.5638(3)
Cl3 Cl 0.1160(4) 0.1471(3) 0.5683(3)
C196 C 0.0445(10) 0.1270(8) 0.6039(7)
Cl4 Cl 0.7331(4) 0.0140(3) 0.4344(3)
Cl5 Cl 0.6001(7) -0.0113(5) 0.4702(4)
Cl6 Cl 0.7341(7) -0.0518(5) 0.5291(5)
C197 C 0.6761(18) 0.0002(13) 0.4841(12)
Cl7 Cl 0.2119(5) 0.6441(4) 0.8361(3)
Cl8 Cl 0.1085(7) 0.7023(5) 0.7659(4)
Cl9 Cl 0.2608(7) 0.7117(5) 0.7594(5)
C198 C 0.2038(12) 0.6655(9) 0.7732(8)
O33 O 0.5564(5) 0.3895(4) 0.7064(3)
O34 O 0.4595(7) 0.1760(5) 0.7182(4)
C199 C 0.5100(11) 0.3499(8) 0.7141(7)
C200 C 0.5433(12) 0.2843(9) 0.7231(12)
C201 C 0.4968(17) 0.2016(14) 0.7372(8)
C202 C 0.4807(13) 0.2705(8) 0.7099(11)
H178 H 0.5681 0.3939 0.7338
H179 H 0.4147 0.1881 0.7275
H180 H 0.4788 0.3595 0.6848
H181 H 0.4752 0.3611 0.7425
H182 H 0.5878 0.2697 0.7014
H183 H 0.5562 0.2699 0.7579
H184 H 0.5508 0.1801 0.7339
H185 H 0.4834 0.2014 0.7728
H186 H 0.4786 0.2736 0.6736
H187 H 0.4332 0.2961 0.7227
Cl10 Cl 0.5861(14) 0.8625(11) 0.8293(9)
Cl11 Cl 0.6951(9) 0.8719(7) 0.8748(6)
Cl12 Cl 0.7034(10) 0.8654(8) 0.7794(7)
C203 C 0.6410(17) 0.9097(14) 0.8215(10)
O35 O 0.8741(16) 0.9781(12) 0.9449(11)
C204 C 0.9601(17) 1.010(2) 0.9935(16)
C205 C 0.943(3) 0.969(2) 0.9820(19)
H188 H 0.8906 0.9783 0.9156
H189 H 0.9281 1.0254 1.0218
H190 H 0.9513 1.0410 0.9652
H191 H 0.9324 0.9473 1.0134
H192 H 0.9890 0.9435 0.9672
O35A O 1.1259(16) 1.0219(12) 1.0551(11)
C204A C 1.0399(17) 0.990(2) 1.0065(16)
C205A C 1.057(3) 1.031(2) 1.0180(19)
H188A H 1.1094 1.0217 1.0844
H189A H 1.0719 0.9746 0.9782
H190A H 1.0487 0.9590 1.0348
H191A H 1.0676 1.0527 0.9866
H192A H 1.0110 1.0565 1.0328
O36 O 0.679(2) 0.2716(14) 0.4018(13)
C206 C 0.668(3) 0.211(2) 0.3513(9)
C207 C 0.675(3) 0.2711(17) 0.3515(15)
C208 C 0.681(3) 0.1144(18) 0.311(4)
C209 C 0.6508(18) 0.1802(13) 0.3104(12)
O37 O 0.645(3) 0.1042(12) 0.2698(14)
H193 H 0.6746 0.3043 0.4069
H194 H 0.7163 0.1842 0.3644
H195 H 0.6304 0.2088 0.3778
H196 H 0.7214 0.2743 0.3335
H197 H 0.6315 0.3019 0.3372
H198 H 0.7356 0.1002 0.3070
H199 H 0.6662 0.0952 0.3430
H200 H 0.5958 0.1922 0.3093
H201 H 0.6684 0.1965 0.2785
H202 H 0.6630 0.0699 0.2660
Cl13 Cl 0.9649(15) 0.9165(11) 0.8474(10)
Cl14 Cl 1.0732(19) 0.9011(14) 0.7594(12)
Cl15 Cl 0.9405(14) 0.8793(11) 0.7485(9)
C210 C 0.978(2) 0.916(2) 0.7834(13)
O38 O 0.1960(17) 0.4608(13) 0.3020(18)
O39 O 0.785(3) 0.561(2) 0.7866(18)
O40 O 0.809(3) 0.875(2) 0.8389(19)
Cl16 Cl 0.2213(7) 0.2901(5) 0.4212(5)
Cl17 Cl 0.1339(7) 0.3366(6) 0.4999(5)
Cl18 Cl 0.1819(11) 0.2167(9) 0.5005(7)
C211 C 0.1422(18) 0.2826(11) 0.4607(10)
O41 O -0.0833(17) 0.5734(13) 0.7464(11)
O42 O -0.091(6) 0.703(5) 0.737(4)
O43 O 0.860(6) -0.140(5) 0.621(4)
O44 O 0.811(3) 0.798(2) 0.8285(18)
Cl19 Cl 0.7130(2) 0.4024(2) 0.02841(17)
Cl20 Cl 0.5936(3) 0.5082(2) -0.01049(18)
Cl21 Cl 0.7514(3) 0.4876(2) -0.04235(18)
C212 C 0.6785(8) 0.4570(6) -0.0245(5)
F1 F 0.4737(3) 0.2615(2) 0.8408(2)
F2 F 0.3171(3) 0.4066(3) 0.7361(2)
F3 F 0.6477(4) 0.1938(3) 0.6274(3)
F4 F 0.6903(3) 0.2339(3) 0.7776(2)
O1 O 0.5729(4) 0.3869(3) 0.9410(2)
N1 N 0.5565(4) 0.3818(3) 0.8616(3)
F5 F 0.4166(4) 0.3394(3) 0.5921(2)
N2 N 0.6641(5) 0.2821(4) 0.8631(3)
O2 O 0.3187(5) 0.5739(4) 0.7082(3)
O3 O 0.7088(4) 0.4242(3) 0.8731(3)
O4 O 0.6779(4) 0.4738(3) 0.5618(3)
N3 N 0.7620(5) 0.3750(4) 0.8072(3)
O5 O 0.8915(5) 0.2081(4) 0.6511(3)
N4 N 0.3993(5) 0.3421(4) 0.8949(4)
O6 O 0.5029(4) 0.6023(3) 0.8017(3)
N5 N 0.4234(5) 0.4933(4) 0.7246(4)
N6 N 0.4376(6) 0.4807(5) 0.6246(4)
O7 O 0.7987(4) 0.1973(3) 0.9851(3)
N7 N 0.6676(4) 0.4646(4) 0.7451(3)
N8 N 0.2994(5) 0.4182(4) 0.8364(4)
O8 O 0.1301(5) 0.5447(4) 0.6212(3)
O9 O 0.3366(4) 0.3862(3) 0.9643(3)
C1 C 0.4524(6) 0.2947(4) 0.9193(4)
N9 N 0.7812(5) 0.2811(4) 0.6670(3)
O10 O 1.0186(4) 0.1468(4) 0.8201(3)
N10 N 0.4833(5) 0.4417(4) 0.7960(3)
C2 C 0.8577(6) 0.2802(5) 0.8031(3)
C3 C 0.2487(7) 0.4584(5) 0.8021(5)
C4 C 0.7313(6) 0.2051(5) 0.8198(5)
C5 C 0.6037(6) 0.5149(6) 0.8156(5)
O11 O 0.1138(5) 0.5549(4) 0.8818(3)
N11 N 0.8360(4) 0.2852(4) 0.7574(3)
N12 N 0.2243(6) 0.4748(4) 0.6651(4)
O12 O 0.1714(5) 0.4693(4) 0.4482(3)
C6 C 0.8191(6) 0.3273(5) 0.8334(4)
C7 C 0.4900(6) 0.2566(5) 0.8900(4)
C8 C 0.7120(7) 0.4192(6) 0.8298(4)
C9 C 0.2572(7) 0.4544(6) 0.7504(5)
N13 N 0.4785(6) 0.2766(5) 0.5155(4)
C10 C 0.6933(7) 0.2815(6) 0.9516(5)
O13 O 0.1270(4) 0.2192(4) 0.7530(3)
O14 O 0.6417(5) 0.1356(4) 1.0200(4)
O15 O 0.5092(4) 0.4103(4) 0.5166(3)
C11 C 0.6250(6) 0.5090(5) 0.6610(4)
N14 N 0.1862(5) 0.1649(4) 0.8772(4)
N15 N 0.5666(6) 0.3943(4) 0.5942(3)
C12 C 0.7172(6) 0.2317(5) 0.8613(4)
C13 C 0.3917(6) 0.1708(6) 0.9839(4)
C14 C 0.3962(7) 0.1581(6) 0.9338(6)
N16 N 0.2859(6) 0.2665(5) 0.8203(4)
N17 N 0.6914(5) 0.4681(5) 0.6460(4)
C15 C 0.8379(6) 0.3224(5) 0.8825(4)
N18 N 0.7939(6) 0.1334(5) 0.7656(4)
C16 C 0.6512(6) 0.3065(5) 0.9023(4)
C17 C 0.3713(8) 0.5353(6) 0.6941(5)
C18 C 0.3779(7) 0.5253(6) 0.6417(4)
C19 C 0.3442(7) 0.3838(5) 0.9195(4)
C20 C 0.8748(6) 0.2409(5) 0.7305(4)
N19 N 0.3531(6) 0.1935(5) 0.8939(4)
C21 C 0.4459(7) 0.4727(6) 0.5777(4)
C22 C 0.3792(6) 0.5269(4) 0.8071(4)
C23 C 0.6170(6) 0.5114(5) 0.7140(4)
C24 C 0.2836(7) 0.4317(6) 0.8822(4)
C25 C 0.7972(6) 0.4087(5) 0.5990(5)
C26 C 0.5585(7) 0.5541(5) 0.7348(5)
C27 C 0.7873(6) 0.1546(7) 0.8090(5)
O16 O 0.3734(6) 0.3180(4) 0.3793(3)
N20 N 0.6777(6) 0.3359(4) 0.6251(3)
O17 O 0.9086(5) 0.0569(4) 0.7713(4)
O18 O 0.9221(4) 0.3167(4) 0.5090(4)
O19 O 0.5352(6) 0.0072(5) 0.8677(5)
N21 N 0.7730(5) 0.1212(4) 0.6732(4)
C28 C 0.4256(7) 0.4897(6) 0.7776(4)
C29 C 0.7551(7) 0.2262(5) 0.9485(4)
N22 N 0.2969(9) 0.2573(6) 0.7376(6)
C30 C 0.7140(7) 0.4527(6) 0.5995(5)
C31 C 0.5902(5) 0.3629(4) 0.9067(2)
C32 C 0.5069(6) 0.5960(5) 0.6983(5)
C33 C 0.6595(7) 0.4712(6) 0.7914(4)
C34 C 0.4083(7) 0.3248(5) 0.5125(6)
C35 C 0.2561(10) 0.2873(8) 0.8653(6)
C36 C 0.7662(6) 0.2011(5) 0.9064(5)
C37 C 0.4511(8) 0.1013(6) 0.9231(6)
O20 O 0.3327(6) 0.2370(5) 1.0389(4)
C38 C 0.9625(7) 0.1913(6) 0.7973(5)
C39 C 0.5307(6) 0.2372(5) 0.9876(5)
C40 C 0.1500(6) 0.2061(6) 0.8401(5)
C41 C 0.4780(6) 0.2869(4) 0.9690(4)
C42 C 0.3058(7) 0.2442(6) 0.9066(5)
C43 C 0.4955(6) 0.4336(5) 0.8451(5)
O21 O 0.2091(6) 0.3305(4) 0.8685(4)
C44 C 0.1743(7) 0.5110(6) 0.8664(6)
C45 C 0.5741(8) 0.5507(6) 0.6298(4)
C46 C 0.6484(9) 0.3237(6) 0.5413(5)
C47 C 0.4512(6) 0.4692(4) 0.8786(4)
C48 C 0.5566(7) 0.5573(5) 0.7836(5)
C49 C 0.8183(6) 0.3842(5) 0.5527(5)
C50 C 0.2918(6) 0.2622(5) 0.9524(6)
C51 C 0.3953(8) 0.5138(7) 0.5438(5)
C52 C 0.5084(8) 0.4266(6) 0.5576(5)
C53 C 0.2066(7) 0.4894(6) 0.7127(5)
O22 O 0.0374(5) 0.3272(5) 0.9071(3)
O23 O 0.2214(6) 0.0565(5) 0.9322(4)
C54 C 0.2228(7) 0.4720(6) 0.9027(4)
C55 C 0.5514(7) 0.2021(6) 0.9067(5)
N23 N 0.8331(6) 0.3978(5) 0.6381(3)
N24 N 0.2829(6) 0.4279(5) 0.5844(4)
C56 C 0.4978(7) 0.6094(6) 0.8557(5)
C57 C 0.9393(6) 0.1929(6) 0.7497(5)
C58 C 0.2044(8) 0.1382(7) 0.9640(6)
O24 O 0.6048(6) 0.1615(4) 0.4582(4)
C59 C 0.8958(6) 0.2749(6) 0.9046(4)
N25 N 0.4429(5) 0.0919(5) 0.8740(5)
C60 C 0.7410(8) 0.2910(7) 0.6222(5)
C61 C 0.4750(10) 0.2558(6) 0.4286(5)
C62 C 0.3096(9) 0.4013(6) 0.5434(6)
C63 C 0.1735(8) 0.4884(6) 0.5330(4)
C64 C 0.9336(6) 0.2352(6) 0.8756(4)
N26 N 0.3788(7) 0.0822(4) 0.7943(4)
C65 C 0.0952(6) 0.2620(5) 0.8487(7)
C66 C 0.1822(7) 0.5028(6) 0.8158(6)
C67 C 0.9092(8) 0.3570(6) 0.6355(5)
C68 C 0.9215(8) 0.2350(6) 0.8256(4)
C69 C 0.5676(6) 0.1982(5) 0.9578(7)
C70 C 0.5115(7) 0.5914(5) 0.6504(5)
C71 C 0.3289(8) 0.5672(6) 0.6073(5)
C72 C 0.2007(8) 0.4622(7) 0.4950(6)
C73 C 0.9579(9) 0.3456(8) 0.6767(5)
C74 C 0.3353(9) 0.2256(8) 0.9922(6)
C75 C 0.7671(8) 0.2608(6) 0.5819(5)
C76 C 0.3950(7) 0.5162(6) 0.8584(4)
C77 C 0.1185(7) 0.2342(6) 0.9391(5)
C78 C 0.8374(7) 0.0827(6) 0.6927(5)
C79 C 0.6952(8) 0.1539(6) 0.6014(5)
C80 C 0.8515(7) 0.2407(6) 0.6791(4)
C81 C 0.8896(8) 0.3438(6) 0.5482(5)
C82 C 0.3750(9) 0.3365(6) 0.4653(5)
N27 N 0.9281(7) 0.3798(6) 0.7222(4)
C83 C 0.4939(7) 0.0650(7) 0.9618(6)
C84 C 0.2179(8) 0.4718(7) 0.5784(7)
N28 N 0.5858(7) 0.1615(5) 0.8755(4)
C85 C 0.1681(7) 0.1828(6) 0.9240(5)
C86 C 0.7620(8) 0.1174(6) 0.6237(5)
C87 C 0.4492(9) 0.0438(6) 0.7986(5)
C88 C 0.1859(9) 0.4998(7) 0.6227(6)
N29 N 0.2355(6) 0.1482(5) 0.7832(4)
C89 C 0.0805(9) 0.2786(8) 0.8938(7)
C90 C 0.8910(7) 0.0412(6) 0.6705(6)
C91 C 1.0577(7) 0.1030(6) 0.7920(4)
C92 C 0.6327(8) 0.3494(6) 0.5848(5)
C93 C 0.1327(7) 0.5421(5) 0.7786(5)
C94 C 0.8512(11) 0.0900(7) 0.7448(7)
C95 C 0.5081(8) 0.2466(6) 0.4784(5)
C96 C 0.6821(9) 0.1517(6) 0.5553(6)
O25 O 0.3122(7) 0.0588(5) 0.9755(4)
C97 C 0.8315(7) 0.1239(5) 0.8538(5)
C98 C 0.1454(6) 0.5326(5) 0.7302(5)
C99 C 0.6253(9) 0.1400(10) 0.9712(6)
C100 C 0.2732(9) 0.1230(6) 0.7414(6)
C101 C 0.3778(10) 0.3559(7) 0.5488(5)
C102 C 0.4090(8) 0.3035(6) 0.4249(5)
C103 C 0.8107(7) 0.0737(6) 0.5956(5)
N30 N 0.2539(10) 0.0801(7) 0.9554(5)
C104 C 0.1095(7) 0.2470(7) 0.9852(5)
C105 C 0.8763(6) 0.3301(5) 0.4655(4)
C106 C 0.6614(8) 0.1022(7) 0.9353(10)
O26 O 0.7262(7) 0.0307(5) 0.8618(6)
C107 C 0.3045(9) 0.3825(6) 0.4592(5)
O27 O 0.9274(5) -0.0077(5) 0.5960(4)
C108 C 0.7169(9) 0.2804(7) 0.5421(4)
C109 C 0.7981(7) 0.0696(6) 0.5474(5)
C110 C 0.1670(7) 0.1921(5) 0.7897(4)
C111 C 0.4025(9) 0.2900(6) 0.3389(5)
N31 N 0.6142(6) 0.1913(5) 0.5342(4)
C112 C 1.0296(8) 0.3079(6) 0.6748(6)
C113 C 0.2431(9) 0.1322(6) 0.6969(4)
N32 N 0.5515(18) 0.1022(10) 0.6523(7)
C114 C 0.8221(7) 0.1476(6) 0.8961(5)
C115 C 0.3514(9) 0.0832(6) 0.7488(5)
C116 C 0.2584(13) 0.2910(10) 0.7710(6)
C117 C 0.4821(8) 0.0476(6) 0.8483(8)
C118 C 0.9352(6) 0.3288(6) 0.5929(4)
C119 C 0.9249(9) 0.2975(7) 0.4286(5)
C120 C 0.2731(10) 0.4126(7) 0.4969(5)
C121 C 0.3494(14) 0.0622(10) 0.6623(7)
C122 C 0.4430(9) 0.1272(8) 1.0166(5)
C123 C 0.6725(11) 0.0723(8) 0.8519(8)
C124 C 1.1181(8) 0.0554(7) 0.8245(5)
C125 C 0.6935(11) 0.0805(5) 1.0530(11)
N33 N 0.6399(7) 0.0908(7) 0.8040(9)
C126 C 0.1959(8) 0.1505(7) 1.0122(5)
C127 C 0.7943(11) 0.2234(7) 1.0315(6)
C128 C 0.7344(9) 0.1093(8) 0.5260(6)
O28 O 0.4919(8) -0.0166(6) 0.6865(5)
C129 C 0.8821(8) 0.0373(7) 0.6223(5)
C130 C 0.1026(9) 0.5638(7) 0.9352(5)
C131 C 0.5812(7) 0.1959(6) 0.4898(6)
C132 C 0.2060(11) 0.3326(12) 0.6803(12)
C133 C 0.4315(9) 0.6642(9) 0.8666(8)
C134 C 0.3385(9) 0.5562(7) 0.5578(7)
C135 C 0.6459(7) 0.0635(6) 0.7590(7)
C136 C 0.6389(9) 0.1144(8) 0.8910(9)
C137 C 0.4883(8) 0.0088(6) 0.7657(6)
C138 C 0.4252(10) 0.7208(9) 0.8339(7)
C139 C 0.0912(9) 0.5022(7) 0.4484(6)
C140 C 0.6082(14) 0.0686(9) 0.6831(9)
C141 C 1.0136(9) 0.2908(6) 0.5932(5)
C142 C 0.1456(8) 0.2074(9) 1.0239(6)
N34 N 0.5958(10) 0.0982(7) 0.7271(7)
O29 O 0.9691(9) 0.3603(11) 0.7523(7)
O30 O 0.8769(6) 0.4118(7) 0.7220(4)
C143 C 0.4938(10) 0.0778(9) 1.0060(8)
C144 C 0.6558(18) 0.0706(9) 1.1027(9)
O31 O 0.5971(17) 0.0515(11) 0.5800(9)
C145 C 0.2799(15) 0.0987(11) 0.6592(8)
C146 C 1.0801(9) 0.0298(8) 0.8642(6)
C147 C 0.0619(8) 0.5063(8) 0.3951(5)
N35 N 0.4135(12) 0.1682(9) 0.5982(6)
C148 C 0.335(2) 0.3106(10) 0.3021(9)
C149 C 1.0549(9) 0.2772(8) 0.6352(7)
C150 C 0.4313(9) 0.6667(6) 0.9218(6)
C151 C 0.6984(12) 0.1108(12) 1.1101(10)
C152 C 0.8542(13) 0.1878(10) 1.0633(7)
C153 C 1.1717(7) 0.0086(6) 0.7926(5)
C154 C 0.5170(15) -0.1196(11) 0.6304(10)
C155 C 0.2320(13) 0.3601(12) 1.1197(9)
C156 C 0.7266(18) -0.0014(17) 0.720(2)
C157 C 0.9294(13) 0.1944(9) 1.0343(8)
C158 C -0.0195(8) 0.5446(8) 0.3930(5)
C159 C 0.9998(8) -0.0475(7) 0.6153(6)
C160 C 0.8831(9) 0.3068(7) 0.3791(6)
C161 C 0.2907(12) 0.3005(12) 1.1041(7)
C162 C 0.5619(14) -0.0663(11) 0.6961(11)
C163 C 0.3690(10) 0.3080(9) 1.1013(5)
C164 C 0.0002(8) 0.3711(6) 0.8658(7)
C165 C 0.2806(11) 0.2913(11) 1.0526(7)
C166 C 0.4612(16) 0.1234(13) 0.5249(6)
C167 C 0.3822(9) 0.0565(6) 0.7148(6)
C168 C 0.5448(16) 0.0884(13) 0.6011(8)
C169 C 0.4604(12) 0.1347(11) 0.5739(9)
C170 C -0.0444(15) 0.4261(11) 0.8886(9)
C171 C -0.0843(14) 0.4770(9) 0.8429(12)
C172 C 0.0151(16) 0.4470(11) 0.9171(13)
C173 C -0.0342(10) 0.6161(10) 0.9264(8)
C174 C 0.259(2) 0.2924(19) 0.6821(15)
C175 C 0.671(4) 0.0232(19) 0.672(3)
C176 C 0.4531(17) 0.0175(9) 0.7166(8)
C177 C 0.600(2) 0.101(2) 1.1349(11)
C178 C 0.3338(19) 0.2000(18) 0.5313(9)
C179 C 0.8413(12) 0.2169(12) 1.1133(7)
C180 C 0.052(2) 0.6751(16) 0.9138(13)
C181 C 0.694(2) 0.0295(13) 0.7524(16)
C182 C 0.9409(16) 0.2323(12) 0.4480(10)
C183 C 1.0414(12) -0.0776(10) 0.5718(8)
C184 C 0.0675(15) 0.4476(10) 0.3863(9)
C185 C 0.5832(19) -0.0931(10) 0.6384(9)
C186 C 0.310(2) 0.3614(18) 0.2900(11)
C187 C 0.1636(15) 0.3623(11) 0.7100(12)
N36 N 0.3255(16) 0.2407(12) 0.6593(7)
O32 O 0.2455(12) 0.2773(9) 0.5869(5)
C188 C 0.3493(15) 0.2078(11) 0.5787(8)
C189 C 0.3048(12) 0.2436(10) 0.6108(9)
C190 C 0.3796(13) 0.2859(15) 0.2522(8)
C191 C 1.1026(17) -0.1224(13) 0.6043(10)
C192 C 0.389(2) 0.1591(14) 0.5079(10)
C193 C 0.6588(17) -0.1356(14) 0.6455(13)
C194 C 0.0405(11) 0.6199(10) 0.9385(9)
C195 C 0.1920(12) 0.3400(9) 0.7606(9)
H1 H 0.5747 0.3590 0.8393
H2 H 0.7590 0.3760 0.7753
H3 H 0.3999 0.3464 0.8625
H4 H 0.4578 0.4669 0.7103
H5 H 0.7590 0.3030 0.6894
H6 H 0.5999 0.5144 0.8503
H7 H 0.2652 0.4459 0.6619
H8 H 0.6810 0.2995 0.9805
H9 H 0.5593 0.4039 0.6240
H10 H 0.3253 0.2356 0.8223
H11 H 0.7227 0.4498 0.6694
H12 H 0.8111 0.3518 0.9015
H13 H 0.7551 0.1498 0.7469
H14 H 0.3385 0.5583 0.7941
H15 H 0.4689 0.6273 0.7097
H16 H 0.5414 0.2303 1.0216
H17 H 0.4579 0.3164 0.9888
H18 H 0.5810 0.5518 0.5950
H19 H 0.6157 0.3347 0.5145
H20 H 0.4597 0.4614 0.9130
H21 H 0.7846 0.3954 0.5265
H22 H 0.2548 0.2973 0.9574
H23 H 0.4030 0.5104 0.5097
H24 H 0.2146 0.4733 0.9372
H25 H 0.5453 0.6121 0.8652
H26 H 0.4901 0.5756 0.8759
H27 H 0.9647 0.1635 0.7304
H28 H 0.9074 0.2712 0.9382
H29 H 0.4070 0.1187 0.8577
H30 H 0.4956 0.2329 0.4033
H31 H 0.1262 0.5176 0.5318
H32 H 0.9729 0.2039 0.8905
H33 H 0.0697 0.2870 0.8214
H34 H 0.4726 0.6156 0.6296
H35 H 0.2923 0.6003 0.6171
H36 H 0.8132 0.2306 0.5811
H37 H 0.3654 0.5425 0.8793
H38 H 0.5253 0.0284 0.9553
H39 H 0.2596 0.1335 0.8106
H40 H 0.9331 0.0160 0.6879
H41 H 1.0822 0.1184 0.7626
H42 H 1.0225 0.0868 0.7806
H43 H 0.0925 0.5737 0.7877
H44 H 0.8668 0.0871 0.8526
H45 H 0.1104 0.5569 0.7068
H46 H 0.0780 0.2836 0.9915
H47 H 0.8602 0.3713 0.4533
H48 H 0.8314 0.3186 0.4733
H49 H 0.7017 0.0684 0.9446
H50 H 0.2803 0.3917 0.4287
H51 H 0.7319 0.2621 0.5134
H52 H 0.8315 0.0410 0.5299
H53 H 0.4188 0.2483 0.3486
H54 H 0.4456 0.3006 0.3235
H55 H 0.5890 0.2172 0.5528
H56 H 1.0622 0.3029 0.7007
H57 H 0.1967 0.1615 0.6906
H58 H 0.5183 0.1325 0.6625
H59 H 0.8555 0.1272 0.9216
H60 H 0.9723 0.3065 0.4224
H61 H 0.3760 0.0421 0.6364
H62 H 0.4408 0.1341 1.0497
H63 H 1.1492 0.0734 0.8391
H64 H 0.7039 0.0469 1.0357
H65 H 0.7417 0.0854 1.0577
H66 H 0.6098 0.1262 0.8007
H67 H 0.2221 0.1227 1.0378
H68 H 0.7985 0.2617 1.0229
H69 H 0.7456 0.2272 1.0490
H70 H 0.7244 0.1092 0.4928
H71 H 0.1493 0.5647 0.9478
H72 H 0.0888 0.5325 0.9552
H73 H 0.1910 0.3466 0.6473
H74 H 0.3849 0.6563 0.8615
H75 H 0.3035 0.5798 0.5343
H76 H 0.5352 -0.0196 0.7731
H77 H 0.4250 0.7161 0.7991
H78 H 0.4678 0.7323 0.8390
H79 H 0.3788 0.7500 0.8425
H80 H 0.0830 0.5407 0.4565
H81 H 0.0639 0.4832 0.4735
H82 H 1.0360 0.2753 0.5641
H83 H 0.1387 0.2161 1.0568
H84 H 0.5280 0.0535 1.0297
H85 H 0.6820 0.0315 1.1194
H86 H 0.2535 0.1025 0.6303
H87 H 1.1171 0.0010 0.8857
H88 H 1.0495 0.0119 0.8504
H89 H 1.0480 0.0591 0.8834
H90 H 0.0928 0.5221 0.3695
H91 H 0.2945 0.2941 0.3140
H92 H 1.1009 0.2467 0.6371
H93 H 0.3893 0.6993 0.9306
H94 H 0.4782 0.6707 0.9298
H95 H 0.4264 0.6317 0.9404
H96 H 0.6978 0.1137 1.1453
H97 H 0.6743 0.1485 1.0920
H98 H 0.7502 0.0956 1.0979
H99 H 0.8555 0.1475 1.0699
H100 H 1.2083 -0.0205 0.8141
H101 H 1.1977 0.0266 0.7665
H102 H 1.1417 -0.0090 0.7778
H103 H 0.4701 -0.0884 0.6232
H104 H 0.5102 -0.1440 0.6606
H105 H 0.5317 -0.1418 0.6029
H106 H 0.2436 0.3650 1.1524
H107 H 0.1810 0.3590 1.1205
H108 H 0.2362 0.3918 1.0955
H109 H 0.7727 -0.0318 0.7220
H110 H 0.9732 0.1703 1.0531
H111 H 0.9272 0.2340 1.0308
H112 H 0.9333 0.1826 1.0016
H113 H -0.0381 0.5475 0.3601
H114 H -0.0234 0.5824 0.3997
H115 H -0.0494 0.5285 0.4178
H116 H 0.9914 -0.0754 0.6428
H117 H 1.0287 -0.0266 0.6274
H118 H 0.9162 0.2834 0.3557
H119 H 0.8689 0.3469 0.3649
H120 H 0.8381 0.2960 0.3860
H121 H 0.2891 0.2673 1.1289
H122 H 0.5534 -0.0951 0.7226
H123 H 0.6026 -0.0542 0.7055
H124 H 0.4071 0.2738 1.0915
H125 H 0.3802 0.3140 1.1337
H126 H 0.3688 0.3409 1.0770
H127 H -0.0339 0.3581 0.8493
H128 H 0.0380 0.3785 0.8411
H129 H 0.2288 0.2921 1.0499
H130 H 0.2880 0.3229 1.0288
H131 H 0.5002 0.0981 0.5075
H132 H -0.0835 0.4189 0.9127
H133 H -0.1136 0.5117 0.8566
H134 H -0.1173 0.4645 0.8253
H135 H -0.0456 0.4845 0.8198
H136 H -0.0131 0.4802 0.9331
H137 H 0.0510 0.4567 0.8927
H138 H 0.0420 0.4160 0.9420
H139 H -0.0416 0.5824 0.9460
H140 H -0.0342 0.6134 0.8912
H141 H -0.0747 0.6501 0.9343
H142 H 0.6807 0.0085 0.6414
H143 H 0.6173 0.0908 1.1687
H144 H 0.5545 0.0907 1.1336
H145 H 0.5879 0.1417 1.1248
H146 H 0.2880 0.2216 0.5162
H147 H 0.8811 0.1949 1.1361
H148 H 0.7929 0.2176 1.1289
H149 H 0.8423 0.2558 1.1052
H150 H 0.0981 0.6774 0.9251
H151 H 0.0095 0.7075 0.9225
H152 H 0.0555 0.6757 0.8779
H153 H 0.7230 0.0176 0.7810
H154 H 0.9733 0.2094 0.4239
H155 H 0.8937 0.2244 0.4526
H156 H 0.9658 0.2226 0.4796
H157 H 0.0538 0.4489 0.3525
H158 H 0.0334 0.4339 0.4095
H159 H 0.1188 0.4219 0.3914
H160 H 0.5842 -0.0622 0.6109
H161 H 0.2831 0.3797 0.3181
H162 H 0.2763 0.3699 0.2628
H163 H 0.3516 0.3757 0.2792
H164 H 0.1202 0.3940 0.7018
H165 H 0.3651 0.2165 0.6742
H166 H 0.4040 0.2448 0.2595
H167 H 0.4174 0.3040 0.2415
H168 H 0.3442 0.2942 0.2259
H169 H 1.1375 -0.1487 0.5837
H170 H 1.0793 -0.1435 0.6297
H171 H 1.1296 -0.1034 0.6201
H172 H 0.3772 0.1542 0.4764
H173 H 0.6940 -0.1164 0.6503
H174 H 0.6747 -0.1553 0.6164
H175 H 0.6577 -0.1632 0.6747
H176 H 0.0354 0.6235 0.9745
H177 H 0.1654 0.3587 0.7873
loop_
_geom_bond_atom_site_label_1
_geom_bond_atom_site_label_2
_geom_bond_site_symmetry_1
_geom_bond_site_symmetry_2
F1 C7 1_555 1_555
F2 C9 1_555 1_555
F3 C79 1_555 1_555
F4 C4 1_555 1_555
O1 C31 1_555 1_555
N1 C31 1_555 1_555
F5 C101 1_555 1_555
N2 C12 1_555 1_555
O2 C17 1_555 1_555
O3 C8 1_555 1_555
O4 C30 1_555 1_555
N3 C6 1_555 1_555
O5 C80 1_555 1_555
N4 C1 1_555 1_555
O6 C48 1_555 1_555
N5 C17 1_555 1_555
N6 C18 1_555 1_555
O7 C29 1_555 1_555
N7 C23 1_555 1_555
N8 C3 1_555 1_555
O8 C88 1_555 1_555
O9 C19 1_555 1_555
C1 C7 1_555 1_555
N9 C60 1_555 1_555
O10 C38 1_555 1_555
N10 C28 1_555 1_555
C2 N11 1_555 1_555
C3 C9 1_555 1_555
C4 C12 1_555 1_555
C5 C33 1_555 1_555
O11 C44 1_555 1_555
N11 C20 1_555 1_555
N12 C53 1_555 1_555
O12 C72 1_555 1_555
C6 C2 1_555 1_555
C7 C55 1_555 1_555
C8 N3 1_555 1_555
C9 C53 1_555 1_555
N13 C34 1_555 1_555
C10 C16 1_555 1_555
O13 C110 1_555 1_555
O14 C99 1_555 1_555
O15 C52 1_555 1_555
C11 N17 1_555 1_555
N14 C40 1_555 1_555
N15 C52 1_555 1_555
C12 C36 1_555 1_555
C13 C14 1_555 1_555
C14 N19 1_555 1_555
N16 C35 1_555 1_555
N17 C30 1_555 1_555
C15 C6 1_555 1_555
N18 C27 1_555 1_555
C16 N2 1_555 1_555
C17 C18 1_555 1_555
C18 C71 1_555 1_555
C19 N4 1_555 1_555
C20 C57 1_555 1_555
N19 C42 1_555 1_555
C21 N6 1_555 1_555
C22 C28 1_555 1_555
C23 C11 1_555 1_555
C24 N8 1_555 1_555
C25 C30 1_555 1_555
C26 C23 1_555 1_555
C27 C4 1_555 1_555
O16 C102 1_555 1_555
N20 C60 1_555 1_555
O17 C94 1_555 1_555
O18 C81 1_555 1_555
O19 C117 1_555 1_555
N21 C78 1_555 1_555
C28 N5 1_555 1_555
C29 C10 1_555 1_555
N22 C116 1_555 1_555
C31 C16 1_555 1_555
C32 C26 1_555 1_555
C33 N7 1_555 1_555
C34 C82 1_555 1_555
C35 C42 1_555 1_555
C36 C29 1_555 1_555
C37 C14 1_555 1_555
O20 C74 1_555 1_555
C38 C57 1_555 1_555
C39 C41 1_555 1_555
C40 C65 1_555 1_555
C41 C1 1_555 1_555
C42 C50 1_555 1_555
C43 N1 1_555 1_555
O21 C35 1_555 1_555
C44 C54 1_555 1_555
C45 C11 1_555 1_555
C46 C92 1_555 1_555
C47 C43 1_555 1_555
C48 C5 1_555 1_555
C49 C25 1_555 1_555
C50 C74 1_555 1_555
C51 C21 1_555 1_555
C52 C21 1_555 1_555
C53 C98 1_555 1_555
O22 C89 1_555 1_555
O23 N30 1_555 1_555
C54 C24 1_555 1_555
C55 C69 1_555 1_555
N23 C25 1_555 1_555
N24 C62 1_555 1_555
C56 O6 1_555 1_555
C57 H27 1_555 1_555
C58 C85 1_555 1_555
O24 C131 1_555 1_555
C59 C15 1_555 1_555
N25 C37 1_555 1_555
C60 C75 1_555 1_555
C61 C95 1_555 1_555
C62 C101 1_555 1_555
C63 C72 1_555 1_555
C64 C59 1_555 1_555
N26 C87 1_555 1_555
C65 C89 1_555 1_555
C66 C3 1_555 1_555
C67 N23 1_555 1_555
C68 C2 1_555 1_555
C69 C39 1_555 1_555
C70 C32 1_555 1_555
C71 C134 1_555 1_555
C72 C120 1_555 1_555
C73 C67 1_555 1_555
C74 C13 1_555 1_555
C75 C108 1_555 1_555
C76 C22 1_555 1_555
C77 C85 1_555 1_555
C78 C90 1_555 1_555
C79 C86 1_555 1_555
C80 N9 1_555 1_555
C81 C49 1_555 1_555
C82 C102 1_555 1_555
N27 C73 1_555 1_555
C83 C37 1_555 1_555
C84 N24 1_555 1_555
N28 C55 1_555 1_555
C85 N14 1_555 1_555
C86 N21 1_555 1_555
C87 C117 1_555 1_555
C88 N12 1_555 1_555
N29 C100 1_555 1_555
C89 C77 1_555 1_555
C90 C129 1_555 1_555
C91 O10 1_555 1_555
C92 N15 1_555 1_555
C93 C66 1_555 1_555
C94 N18 1_555 1_555
C95 N13 1_555 1_555
C96 C79 1_555 1_555
O25 N30 1_555 1_555
C97 C27 1_555 1_555
C98 C93 1_555 1_555
C99 C69 1_555 1_555
C100 C113 1_555 1_555
C101 C34 1_555 1_555
C102 C61 1_555 1_555
C103 C86 1_555 1_555
N30 C58 1_555 1_555
C104 C77 1_555 1_555
C105 O18 1_555 1_555
C106 C99 1_555 1_555
O26 C123 1_555 1_555
C107 C82 1_555 1_555
O27 C129 1_555 1_555
C108 C46 1_555 1_555
C109 C103 1_555 1_555
C110 C40 1_555 1_555
C111 O16 1_555 1_555
N31 C96 1_555 1_555
C112 C73 1_555 1_555
C113 C145 1_555 1_555
N32 C140 1_555 1_555
C114 C36 1_555 1_555
C115 N26 1_555 1_555
C116 N16 1_555 1_555
C117 N25 1_555 1_555
C118 C67 1_555 1_555
C119 C105 1_555 1_555
C120 C62 1_555 1_555
C121 C145 1_555 1_555
C122 C13 1_555 1_555
C123 N33 1_555 1_555
C124 C91 1_555 1_555
C125 O14 1_555 1_555
N33 C135 1_555 1_555
C126 C58 1_555 1_555
C127 O7 1_555 1_555
C128 C96 1_555 1_555
O28 C162 1_555 1_555
C129 C103 1_555 1_555
C130 O11 1_555 1_555
C131 C95 1_555 1_555
C132 C174 1_555 1_555
C133 C56 1_555 1_555
C134 C51 1_555 1_555
C135 N34 1_555 1_555
C136 N28 1_555 1_555
C137 C87 1_555 1_555
C138 C133 1_555 1_555
C139 O12 1_555 1_555
C140 N34 1_555 1_555
C141 C118 1_555 1_555
C142 C104 1_555 1_555
O29 N27 1_555 1_555
O30 N27 1_555 1_555
C143 C83 1_555 1_555
C144 C125 1_555 1_555
O31 C168 1_555 1_555
C145 H86 1_555 1_555
C146 C124 1_555 1_555
C147 C139 1_555 1_555
N35 C169 1_555 1_555
C148 C111 1_555 1_555
C149 C112 1_555 1_555
C150 C133 1_555 1_555
C151 C144 1_555 1_555
C152 C127 1_555 1_555
C153 C124 1_555 1_555
C154 C185 1_555 1_555
C155 C161 1_555 1_555
C156 C175 1_555 1_555
C157 C152 1_555 1_555
C158 C147 1_555 1_555
C159 O27 1_555 1_555
C160 C119 1_555 1_555
C161 C163 1_555 1_555
C162 C185 1_555 1_555
C163 H124 1_555 1_555
C164 O22 1_555 1_555
C165 O20 1_555 1_555
C166 C169 1_555 1_555
C167 C115 1_555 1_555
C168 N32 1_555 1_555
C169 C168 1_555 1_555
C170 C164 1_555 1_555
C171 C170 1_555 1_555
C172 C170 1_555 1_555
C173 C194 1_555 1_555
C174 N22 1_555 1_555
C175 C140 1_555 1_555
C176 O28 1_555 1_555
C177 C144 1_555 1_555
C178 C188 1_555 1_555
C179 C152 1_555 1_555
C180 C194 1_555 1_555
C181 C135 1_555 1_555
C182 C119 1_555 1_555
C183 C159 1_555 1_555
C184 C147 1_555 1_555
C185 C193 1_555 1_555
C186 C148 1_555 1_555
C187 C132 1_555 1_555
N36 C174 1_555 1_555
O32 C189 1_555 1_555
C188 N35 1_555 1_555
C189 N36 1_555 1_555
C190 C148 1_555 1_555
C191 C183 1_555 1_555
C192 C166 1_555 1_555
C193 H173 1_555 1_555
C194 C130 1_555 1_555
C195 C116 1_555 1_555
H1 N1 1_555 1_555
H2 N3 1_555 1_555
H3 N4 1_555 1_555
H4 N5 1_555 1_555
H5 N9 1_555 1_555
H6 C5 1_555 1_555
H7 N12 1_555 1_555
H8 C10 1_555 1_555
H9 N15 1_555 1_555
H10 N16 1_555 1_555
H11 N17 1_555 1_555
H12 C15 1_555 1_555
H13 N18 1_555 1_555
H14 C22 1_555 1_555
H15 C32 1_555 1_555
H16 C39 1_555 1_555
H17 C41 1_555 1_555
H18 C45 1_555 1_555
H19 C46 1_555 1_555
H20 C47 1_555 1_555
H21 C49 1_555 1_555
H22 C50 1_555 1_555
H23 C51 1_555 1_555
H24 C54 1_555 1_555
H25 C56 1_555 1_555
H26 C56 1_555 1_555
H28 C59 1_555 1_555
H29 N25 1_555 1_555
H30 C61 1_555 1_555
H31 C63 1_555 1_555
H32 C64 1_555 1_555
H33 C65 1_555 1_555
H34 C70 1_555 1_555
H35 C71 1_555 1_555
H36 C75 1_555 1_555
H37 C76 1_555 1_555
H38 C83 1_555 1_555
H39 N29 1_555 1_555
H40 C90 1_555 1_555
H41 C91 1_555 1_555
H42 C91 1_555 1_555
H43 C93 1_555 1_555
H44 C97 1_555 1_555
H45 C98 1_555 1_555
H46 C104 1_555 1_555
H47 C105 1_555 1_555
H48 C105 1_555 1_555
H49 C106 1_555 1_555
H50 C107 1_555 1_555
H51 C108 1_555 1_555
H52 C109 1_555 1_555
H53 C111 1_555 1_555
H54 C111 1_555 1_555
H55 N31 1_555 1_555
H56 C112 1_555 1_555
H57 C113 1_555 1_555
H58 N32 1_555 1_555
H59 C114 1_555 1_555
H60 C119 1_555 1_555
H61 C121 1_555 1_555
H62 C122 1_555 1_555
H63 C124 1_555 1_555
H64 C125 1_555 1_555
H65 C125 1_555 1_555
H66 N33 1_555 1_555
H67 C126 1_555 1_555
H68 C127 1_555 1_555
H69 C127 1_555 1_555
H70 C128 1_555 1_555
H71 C130 1_555 1_555
H72 C130 1_555 1_555
H73 C132 1_555 1_555
H74 C133 1_555 1_555
H75 C134 1_555 1_555
H76 C137 1_555 1_555
H77 C138 1_555 1_555
H78 C138 1_555 1_555
H79 C138 1_555 1_555
H80 C139 1_555 1_555
H81 C139 1_555 1_555
H82 C141 1_555 1_555
H83 C142 1_555 1_555
H84 C143 1_555 1_555
H85 C144 1_555 1_555
H87 C146 1_555 1_555
H88 C146 1_555 1_555
H89 C146 1_555 1_555
H90 C147 1_555 1_555
H91 C148 1_555 1_555
H92 C149 1_555 1_555
H93 C150 1_555 1_555
H94 C150 1_555 1_555
H95 C150 1_555 1_555
H96 C151 1_555 1_555
H97 C151 1_555 1_555
H98 C151 1_555 1_555
H99 C152 1_555 1_555
H100 C153 1_555 1_555
H101 C153 1_555 1_555
H102 C153 1_555 1_555
H103 C154 1_555 1_555
H104 C154 1_555 1_555
H105 C154 1_555 1_555
H106 C155 1_555 1_555
H107 C155 1_555 1_555
H108 C155 1_555 1_555
H109 C156 1_555 1_555
H110 C157 1_555 1_555
H111 C157 1_555 1_555
H112 C157 1_555 1_555
H113 C158 1_555 1_555
H114 C158 1_555 1_555
H115 C158 1_555 1_555
H116 C159 1_555 1_555
H117 C159 1_555 1_555
H118 C160 1_555 1_555
H119 C160 1_555 1_555
H120 C160 1_555 1_555
H121 C161 1_555 1_555
H122 C162 1_555 1_555
H123 C162 1_555 1_555
H125 C163 1_555 1_555
H126 C163 1_555 1_555
H127 C164 1_555 1_555
H128 C164 1_555 1_555
H129 C165 1_555 1_555
H130 C165 1_555 1_555
H131 C166 1_555 1_555
H132 C170 1_555 1_555
H133 C171 1_555 1_555
H134 C171 1_555 1_555
H135 C171 1_555 1_555
H136 C172 1_555 1_555
H137 C172 1_555 1_555
H138 C172 1_555 1_555
H139 C173 1_555 1_555
H140 C173 1_555 1_555
H141 C173 1_555 1_555
H142 C175 1_555 1_555
H143 C177 1_555 1_555
H144 C177 1_555 1_555
H145 C177 1_555 1_555
H146 C178 1_555 1_555
H147 C179 1_555 1_555
H148 C179 1_555 1_555
H149 C179 1_555 1_555
H150 C180 1_555 1_555
H151 C180 1_555 1_555
H152 C180 1_555 1_555
H153 C181 1_555 1_555
H154 C182 1_555 1_555
H155 C182 1_555 1_555
H156 C182 1_555 1_555
H157 C184 1_555 1_555
H158 C184 1_555 1_555
H159 C184 1_555 1_555
H160 C185 1_555 1_555
H161 C186 1_555 1_555
H162 C186 1_555 1_555
H163 C186 1_555 1_555
H164 C187 1_555 1_555
H165 N36 1_555 1_555
H166 C190 1_555 1_555
H167 C190 1_555 1_555
H168 C190 1_555 1_555
H169 C191 1_555 1_555
H170 C191 1_555 1_555
H171 C191 1_555 1_555
H172 C192 1_555 1_555
H174 C193 1_555 1_555
H175 C193 1_555 1_555
H176 C194 1_555 1_555
H177 C195 1_555 1_555
Cl1 C196 1_555 1_555
Cl2 C196 1_555 1_555
Cl3 C196 1_555 1_555
Cl4 C197 1_555 1_555
Cl5 C197 1_555 1_555
Cl6 C197 1_555 1_555
Cl7 C198 1_555 1_555
Cl8 C198 1_555 1_555
Cl9 C198 1_555 1_555
O33 C199 1_555 1_555
O34 C201 1_555 1_555
C199 C200 1_555 1_555
C200 C202 1_555 1_555
C201 C202 1_555 1_555
C202 H186 1_555 1_555
H178 O33 1_555 1_555
H179 O34 1_555 1_555
H180 C199 1_555 1_555
H181 C199 1_555 1_555
H182 C200 1_555 1_555
H183 C200 1_555 1_555
H184 C201 1_555 1_555
H185 C201 1_555 1_555
H187 C202 1_555 1_555
Cl10 C203 1_555 1_555
Cl11 C203 1_555 1_555
Cl12 C203 1_555 1_555
O35 C205 1_555 1_555
C204 C205 1_555 1_555
C205 H191 1_555 1_555
H188 O35 1_555 1_555
H189 C204 1_555 1_555
H190 C204 1_555 1_555
H192 C205 1_555 1_555
O36 C207 1_555 1_555
C206 C207 1_555 1_555
C207 H196 1_555 1_555
C208 C209 1_555 1_555
C209 C206 1_555 1_555
O37 C208 1_555 1_555
H193 O36 1_555 1_555
H194 C206 1_555 1_555
H195 C206 1_555 1_555
H197 C207 1_555 1_555
H198 C208 1_555 1_555
H199 C208 1_555 1_555
H200 C209 1_555 1_555
H201 C209 1_555 1_555
H202 O37 1_555 1_555
Cl13 C210 1_555 1_555
Cl14 C210 1_555 1_555
Cl15 C210 1_555 1_555
Cl16 C211 1_555 1_555
Cl17 C211 1_555 1_555
Cl18 C211 1_555 1_555
Cl19 C212 1_555 1_555
Cl20 C212 1_555 1_555
Cl21 C212 1_555 1_555
O35A C205A 1_555 1_555
C204A C204 1_555 1_555
C205A C204A 1_555 1_555
H188A O35A 1_555 1_555
H189A C204A 1_555 1_555
H190A C204A 1_555 1_555
H191A C205A 1_555 1_555
H192A C205A 1_555 1_555
N10 C43 1_555 1_555
C8 C33 1_555 1_555
C19 C24 1_555 1_555
C20 C80 1_555 1_555
C26 C48 1_555 1_555
N20 C92 1_555 1_555
C38 C68 1_555 1_555
C44 C66 1_555 1_555
C45 C70 1_555 1_555
C47 C76 1_555 1_555
C63 C84 1_555 1_555
C64 C68 1_555 1_555
C78 C94 1_555 1_555
C81 C118 1_555 1_555
C84 C88 1_555 1_555
N29 C110 1_555 1_555
C97 C114 1_555 1_555
C100 C115 1_555 1_555
C106 C136 1_555 1_555
C107 C120 1_555 1_555
C109 C128 1_555 1_555
N31 C131 1_555 1_555
C121 C167 1_555 1_555
C122 C143 1_555 1_555
C123 C136 1_555 1_555
C126 C142 1_555 1_555
C137 C176 1_555 1_555
C141 C149 1_555 1_555
C156 C181 1_555 1_555
C161 C165 1_555 1_555
C167 C176 1_555 1_555
C178 C192 1_555 1_555
C187 C195 1_555 1_555
C188 C189 1_555 1_555

#END
