
#######################################################################
#
#                 Cambridge Crystallographic Data Centre
#                                CCDC 
#
#######################################################################
#
# If this CIF has been generated from an entry in the Cambridge 
# Structural Database, then it will include bibliographic, chemical, 
# crystal, experimental, refinement or atomic coordinate data resulting 
# from the CCDC's data processing and validation procedures.
#
#######################################################################

data_SOBWUD
_chemical_name_common            
"N,N' ,N''-tris(Propan-2-ylidene)methanetriamium dicyanamide"
_chemical_formula_moiety         'C10 H21 N6 1+,C2 N3 1-,0.5(H2 O1)'
_chemical_name_systematic        
'1-(bis(2-Isopropylidenehydrazino)methylene)-2-isopropylidenehydrazinium dicyanamide hemihydrate'
_symmetry_cell_setting           monoclinic
_symmetry_space_group_name_H-M   'C 2/c'
_symmetry_Int_Tables_number      15
_space_group_name_Hall           '-C 2yn'
loop_
_symmetry_equiv_pos_site_id
_symmetry_equiv_pos_as_xyz
1 x,y,z
2 -x,y,1/2-z
3 1/2+x,1/2+y,z
4 1/2-x,1/2+y,1/2-z
5 -x,-y,-z
6 x,-y,1/2+z
7 1/2-x,1/2-y,-z
8 1/2+x,1/2-y,1/2+z
_cell_length_a                   20.647(5)
_cell_length_b                   11.871(3)
_cell_length_c                   13.822(3)
_cell_angle_alpha                90
_cell_angle_beta                 93.831(3)
_cell_angle_gamma                90
_cell_volume                     3380.21
_exptl_crystal_colour            colorless
_exptl_crystal_description       Block
_cell_formula_units_Z            8
loop_
_atom_site_label
_atom_site_type_symbol
_atom_site_fract_x
_atom_site_fract_y
_atom_site_fract_z
N1 N 0.44601(5) 0.92827(9) 0.10568(8)
N2 N 0.47567(5) 1.03395(9) 0.10996(8)
N3 N 0.54863(5) 0.85633(9) 0.14867(8)
N4 N 0.58736(5) 0.75909(9) 0.14899(8)
N5 N 0.46182(5) 0.73537(9) 0.11381(8)
N6 N 0.39406(5) 0.72510(9) 0.09696(8)
C1 C 0.48538(6) 0.83977(10) 0.12222(8)
C2 C 0.43815(6) 1.11999(10) 0.10233(9)
C3 C 0.36534(7) 1.11860(12) 0.09008(12)
H1 H 0.3500 1.0405 0.0879
H2 H 0.3510 1.1568 0.0295
H3 H 0.3475 1.1576 0.1448
C4 C 0.47050(7) 1.23275(11) 0.10718(11)
H4 H 0.5177 1.2227 0.1125
H5 H 0.4571 1.2740 0.1639
H6 H 0.4579 1.2755 0.0482
C5 C 0.64709(6) 0.76929(11) 0.18033(9)
C6 C 0.67962(7) 0.87277(12) 0.22140(12)
H7 H 0.7057 0.9071 0.1725
H8 H 0.7079 0.8526 0.2786
H9 H 0.6467 0.9266 0.2400
C7 C 0.68783(7) 0.66537(13) 0.17396(13)
H10 H 0.6596 0.6000 0.1608
H11 H 0.7134 0.6541 0.2355
H12 H 0.7171 0.6740 0.1215
C8 C 0.37390(6) 0.62891(11) 0.06521(9)
C9 C 0.41466(7) 0.53023(12) 0.04082(11)
H13 H 0.4598 0.5545 0.0373
H14 H 0.3986 0.4991 -0.0219
H15 H 0.4123 0.4725 0.0911
C10 C 0.30179(7) 0.61480(13) 0.05021(13)
H16 H 0.2803 0.6842 0.0692
H17 H 0.2879 0.5521 0.0900
H18 H 0.2901 0.5989 -0.0183
H19 H 0.4856(8) 0.6808(15) 0.1412(12)
H20 H 0.5653(9) 0.9290(16) 0.1427(13)
H21 H 0.4074(9) 0.9159(15) 0.0708(14)
N7 N 0.67122(6) 0.24989(12) 0.17334(11)
N8 N 0.63359(6) 0.08156(11) 0.08225(10)
N9 N 0.60649(7) 0.41211(11) 0.21855(12)
C11 C 0.64807(6) 0.16290(12) 0.12461(10)
C12 C 0.63421(7) 0.33371(12) 0.19499(10)
O1 O 0.5000 0.56026(11) 0.2500
H25 H 0.5346(10) 0.5114(18) 0.2409(16)
H25A H 0.4654(10) 0.5114(18) 0.2591(16)
H22? H 0.3490 1.1961 0.0869
H23? H 0.3480 1.0798 0.1453
H24? H 0.3515 1.0790 0.0300
loop_
_geom_bond_atom_site_label_1
_geom_bond_atom_site_label_2
_geom_bond_site_symmetry_1
_geom_bond_site_symmetry_2
N1 N2 1_555 1_555
N2 C2 1_555 1_555
N3 N4 1_555 1_555
N4 C5 1_555 1_555
N5 N6 1_555 1_555
N6 C8 1_555 1_555
C1 N1 1_555 1_555
C2 C3 1_555 1_555
C3 H1 1_555 1_555
H2 C3 1_555 1_555
H3 C3 1_555 1_555
C4 C2 1_555 1_555
H4 C4 1_555 1_555
H5 C4 1_555 1_555
H6 C4 1_555 1_555
C5 C6 1_555 1_555
C6 H7 1_555 1_555
H8 C6 1_555 1_555
H9 C6 1_555 1_555
C7 C5 1_555 1_555
H10 C7 1_555 1_555
H11 C7 1_555 1_555
H12 C7 1_555 1_555
C8 C9 1_555 1_555
C9 H13 1_555 1_555
H14 C9 1_555 1_555
H15 C9 1_555 1_555
C10 C8 1_555 1_555
H16 C10 1_555 1_555
H17 C10 1_555 1_555
H18 C10 1_555 1_555
H19 N5 1_555 1_555
H20 N3 1_555 1_555
H21 N1 1_555 1_555
N7 C11 1_555 1_555
N8 C11 1_555 1_555
N9 C12 1_555 1_555
C12 N7 1_555 1_555
O1 H25 1_555 1_555
H25A O1 1_555 1_555
N3 C1 1_555 1_555
N5 C1 1_555 1_555

#END
