
#######################################################################
#
#                 Cambridge Crystallographic Data Centre
#                                CCDC 
#
#######################################################################
#
# If this CIF has been generated from an entry in the Cambridge 
# Structural Database, then it will include bibliographic, chemical, 
# crystal, experimental, refinement or atomic coordinate data resulting 
# from the CCDC's data processing and validation procedures.
#
#######################################################################

data_SOBWIR
_chemical_name_common            
'N-(Propan-2-ylidene)methanetriamium dicyanamide'
_chemical_formula_moiety         'C4 H11 N4 1+,C2 N3 1-'
_chemical_name_systematic        
'Amino(2-isopropylidenehydrazino)methaniminium dicyanamide'
_symmetry_cell_setting           monoclinic
_symmetry_space_group_name_H-M   'P 21/n'
_symmetry_Int_Tables_number      14
_space_group_name_Hall           '-P 2yn'
loop_
_symmetry_equiv_pos_site_id
_symmetry_equiv_pos_as_xyz
1 x,y,z
2 1/2-x,1/2+y,1/2-z
3 -x,-y,-z
4 1/2+x,1/2-y,1/2+z
_cell_length_a                   8.009(3)
_cell_length_b                   11.382(3)
_cell_length_c                   10.271(3)
_cell_angle_alpha                90
_cell_angle_beta                 104.759(3)
_cell_angle_gamma                90
_cell_volume                     905.396
_exptl_crystal_colour            colorless
_exptl_crystal_description       Block
_cell_formula_units_Z            4
loop_
_atom_site_label
_atom_site_type_symbol
_atom_site_fract_x
_atom_site_fract_y
_atom_site_fract_z
N1 N 0.29910(11) 0.52497(8) 0.56142(8)
N2 N 0.19375(12) 0.49197(8) 0.43712(9)
N3 N 0.02227(13) 0.34893(9) 0.31217(10)
N4 N 0.14056(13) 0.32042(9) 0.53983(10)
C1 C 0.38402(13) 0.62070(9) 0.56527(10)
C2 C 0.11796(13) 0.38621(9) 0.43016(10)
C3 C 0.38048(16) 0.69806(10) 0.44654(11)
H1 H 0.4263 0.6548 0.3807
H2 H 0.4515 0.7679 0.4763
H3 H 0.2613 0.7221 0.4049
C4 C 0.49488(14) 0.65693(10) 0.69957(11)
H4 H 0.4843 0.5990 0.7676
H5 H 0.4574 0.7340 0.7239
H6 H 0.6155 0.6615 0.6952
H7 H 0.190(2) 0.5315(14) 0.3598(17)
H8 H -0.040(2) 0.2836(15) 0.3123(15)
H9 H 0.007(2) 0.3957(15) 0.2441(16)
H10 H 0.1036(19) 0.2476(14) 0.5304(14)
H11 H 0.209(2) 0.3481(14) 0.6131(16)
N5 N 0.23936(13) 0.04623(8) 0.55045(10)
N6 N 0.34639(14) 0.05378(9) 0.34518(10)
N7 N 0.16383(13) -0.13494(9) 0.65439(10)
C5 C 0.29527(14) 0.04414(9) 0.44066(10)
C6 C 0.20108(13) -0.05336(9) 0.60067(10)
loop_
_geom_bond_atom_site_label_1
_geom_bond_atom_site_label_2
_geom_bond_site_symmetry_1
_geom_bond_site_symmetry_2
N1 N2 1_555 1_555
N2 C2 1_555 1_555
N3 C2 1_555 1_555
N4 C2 1_555 1_555
C1 N1 1_555 1_555
C3 C1 1_555 1_555
H1 C3 1_555 1_555
H2 C3 1_555 1_555
H3 C3 1_555 1_555
C4 C1 1_555 1_555
H4 C4 1_555 1_555
H5 C4 1_555 1_555
H6 C4 1_555 1_555
H7 N2 1_555 1_555
H8 N3 1_555 1_555
H9 N3 1_555 1_555
H10 N4 1_555 1_555
H11 N4 1_555 1_555
N5 C5 1_555 1_555
N6 C5 1_555 1_555
N7 C6 1_555 1_555
C6 N5 1_555 1_555

#END
