
#######################################################################
#
#                 Cambridge Crystallographic Data Centre
#                                CCDC 
#
#######################################################################
#
# If this CIF has been generated from an entry in the Cambridge 
# Structural Database, then it will include bibliographic, chemical, 
# crystal, experimental, refinement or atomic coordinate data resulting 
# from the CCDC's data processing and validation procedures.
#
#######################################################################

data_SOBXAJ
_chemical_formula_moiety         
'C196 H181 F5 N36 O32,C3 H8 O2,2.5(C1 H1 Cl3),5.5(C1 H2 Cl2),2(C1 H4 O1),9(H2 O1)'
_chemical_name_systematic        
"N,N'-bis(2-(2-(6-(6-(6-(8-(8-(4-isobutoxy-8-nitroquinoline-2-carboxamido)4-isobutoxyquinoline-2-carboxamido)4-isobutoxyquinoline-2-carboxamido)pyridine-2-carbamoyl)pyridine-2-carboxamido)pyridine-2-carbamoyl)8-fluoro-4-isobutoxyquinoline-7-carbamoyl)8-fluoro-4-isobutoxyquinoline-7-yl)1,8-diaza-4,5-di-isobutoxy-9-fluoro-2,7-anthracenedicarboxamide 1,3-propanediol clathrate chloroform dichloromethane methanol solvate nonahydrate"
_symmetry_cell_setting           triclinic
_symmetry_space_group_name_H-M   'P -1'
_symmetry_Int_Tables_number      2
_space_group_name_Hall           '-P 1'
loop_
_symmetry_equiv_pos_site_id
_symmetry_equiv_pos_as_xyz
1 x,y,z
2 -x,-y,-z
_cell_length_a                   18.8716(6)
_cell_length_b                   25.0352(2)
_cell_length_c                   27.0598(8)
_cell_angle_alpha                80.890(7)
_cell_angle_beta                 84.806(8)
_cell_angle_gamma                70.220(6)
_cell_volume                     11869.1
_cell_formula_units_Z            2
loop_
_atom_site_label
_atom_site_type_symbol
_atom_site_fract_x
_atom_site_fract_y
_atom_site_fract_z
F1 F 0.8443(3) 0.3053(2) 0.3749(2)
F2 F 1.0261(4) 0.2357(2) 0.1609(2)
F3 F 0.8106(3) 0.2647(3) 0.2227(2)
F4 F 1.1755(4) 0.0963(3) 0.2638(2)
C1 C 1.0489(7) 0.2028(5) 0.0825(4)
N1 N 1.0797(5) 0.0120(4) 0.2773(3)
O1 O 0.9331(4) 0.1115(3) 0.0592(3)
F5 F 1.0760(4) 0.1633(3) 0.4086(2)
N2 N 1.0169(5) 0.0605(3) 0.2060(3)
N3 N 0.8395(5) 0.2167(4) 0.1401(3)
N4 N 0.7054(5) 0.3618(4) 0.2357(3)
N5 N 1.1014(5) 0.1557(4) 0.1057(3)
O2 O 0.8262(5) 0.0222(3) 0.4381(3)
N6 N 0.7410(6) 0.1235(4) 0.1913(2)
N7 N 0.7237(7) 0.3724(5) 0.3282(4)
O3 O 0.4846(4) 0.3460(4) 0.1820(3)
O4 O 0.6095(4) 0.2829(3) 0.3493(3)
N8 N 1.1986(5) 0.0819(3) 0.1657(3)
C2 C 0.8979(7) -0.0150(5) 0.1822(4)
N9 N 0.9453(5) 0.1178(4) 0.1413(3)
C3 C 1.0080(6) 0.2455(5) 0.1135(4)
O5 O 0.7065(5) 0.2998(3) 0.0165(3)
O6 O 1.1768(6) -0.0731(4) 0.2924(3)
N10 N 0.8329(5) 0.0346(4) 0.2538(3)
N11 N 0.8240(7) 0.1669(5) 0.3739(3)
O7 O 0.9995(4) -0.1023(3) 0.1969(3)
O8 O 0.7924(4) 0.0750(3) 0.1264(3)
C4 C 0.6432(7) 0.2152(5) 0.1967(4)
C5 C 0.8857(7) -0.0096(5) 0.2831(4)
N12 N 1.0582(6) 0.0233(5) 0.3751(3)
C6 C 0.6840(7) 0.1705(4) 0.1667(3)
C7 C 0.7154(7) 0.3425(5) 0.1877(5)
C8 C 0.7834(6) 0.2658(5) 0.1400(4)
N13 N 0.9148(6) 0.3357(4) 0.1308(3)
C9 C 0.7885(8) 0.0461(5) 0.4009(5)
C10 C 0.9287(7) 0.3074(4) 0.0465(4)
C11 C 0.8411(7) 0.0304(5) 0.2047(4)
N14 N 0.8112(6) 0.0330(4) 0.3534(3)
O9 O 1.2900(5) 0.1672(4) 0.1286(3)
O10 O 0.9881(5) 0.0919(3) 0.4832(3)
O11 O 1.1618(5) 0.1142(3) 0.0362(3)
N15 N 1.0107(7) 0.2262(5) 0.4830(4)
C12 C 0.7942(6) 0.3451(4) 0.3973(4)
C13 C 1.0726(7) 0.0156(5) 0.2245(4)
C14 C 0.6580(10) 0.4142(7) 0.3077(4)
N16 N 0.7200(6) 0.2147(4) 0.3315(4)
O12 O 0.8626(5) 0.3666(3) -0.0203(4)
C15 C 0.9512(7) 0.2963(6) 0.0965(4)
C16 C 0.8773(6) -0.0078(5) 0.3360(4)
O13 O 1.3235(7) 0.0362(5) 0.5500(3)
C17 C 1.1554(7) 0.1169(5) 0.0820(5)
N17 N 1.2061(5) 0.2299(4) 0.2662(4)
C18 C 0.5832(7) 0.2616(5) 0.1747(4)
N18 N 0.9359(7) 0.1099(5) 0.4061(4)
N19 N 1.2130(5) 0.2272(4) 0.1820(4)
N20 N 1.1509(6) 0.3020(5) 0.1078(3)
N21 N 0.6683(5) 0.2109(4) 0.2434(3)
C19 C 0.8717(9) 0.1503(6) 0.4122(5)
C20 C 0.9460(8) -0.0554(5) 0.2114(5)
C21 C 0.9287(7) -0.0486(4) 0.3676(4)
O14 O 1.3813(6) -0.0536(4) 0.1227(3)
C22 C 1.2094(7) 0.0743(5) 0.1185(5)
O15 O 1.4636(5) 0.1706(5) 0.0952(3)
C23 C 1.1189(7) -0.0231(6) 0.3602(5)
C24 C 0.7650(7) 0.2955(5) 0.1827(4)
C25 C 0.7299(4) 0.3816(4) 0.3765(4)
C26 C 1.2445(8) 0.0453(5) 0.1984(5)
C27 C 0.9723(6) 0.2640(4) 0.0149(4)
C28 C 0.6287(7) 0.2505(6) 0.2691(4)
O16 O 0.5818(5) 0.1750(3) 0.4907(3)
C29 C 1.0038(7) 0.0701(5) 0.1584(4)
C30 C 1.1296(8) -0.0348(6) 0.3069(4)
C31 C 1.2700(9) 0.0287(6) 0.1019(5)
O17 O 0.5923(6) 0.4389(4) 0.2299(3)
C32 C 0.7123(8) 0.0846(4) 0.4029(4)
C33 C 0.6847(7) 0.1088(4) 0.4480(4)
C34 C 0.8549(7) 0.1921(4) 0.0974(5)
N22 N 1.2678(7) 0.3404(5) 0.2208(3)
N23 N 1.3172(6) 0.3263(4) 0.1281(5)
O18 O 0.9687(5) 0.4877(4) 0.1381(4)
C35 C 0.6549(10) 0.2498(5) 0.3199(4)
C36 C 1.2409(8) 0.2081(6) 0.1363(7)
O19 O 1.3735(5) 0.2743(4) 0.2517(3)
C37 C 0.6650(7) 0.1726(5) 0.1177(4)
C38 C 1.4219(7) 0.2198(6) 0.1098(6)
C39 C 1.1204(6) -0.0269(5) 0.1973(4)
N24 N 1.2668(5) 0.0299(4) 0.3346(4)
C40 C 0.9425(9) -0.0546(6) 0.2636(5)
O20 O 1.1711(5) 0.2623(5) -0.0399(3)
O21 O 1.1238(6) 0.1858(4) 0.6177(3)
C41 C 1.0250(7) 0.2142(5) 0.0330(5)
C42 C 0.7383(7) 0.2963(5) 0.0984(4)
C43 C 0.6057(7) 0.2206(6) 0.0976(4)
C44 C 0.7878(7) 0.0807(6) 0.1706(4)
N25 N 0.8967(7) 0.4023(5) 0.2725(4)
C45 C 1.3227(8) -0.0079(5) 0.1374(5)
C46 C 0.8777(7) 0.3580(5) 0.0260(5)
C47 C 1.3858(8) 0.2592(7) 0.0669(6)
O22 O 0.9121(6) 0.4377(4) 0.4181(3)
C48 C 1.1846(8) 0.1240(6) 0.5407(5)
N26 N 0.8797(7) 0.3075(4) 0.4657(4)
C49 C 0.5435(8) 0.3044(6) 0.2028(5)
C50 C 1.1059(9) 0.3428(9) 0.0695(6)
C51 C 1.3090(7) 0.0000(6) 0.1843(4)
C52 C 0.6020(8) 0.1345(6) 0.3680(5)
N27 N 0.9496(8) 0.3926(5) 0.3518(5)
C53 C 0.9949(9) 0.0776(7) 0.4380(5)
C54 C 1.2921(10) 0.1679(7) 0.3282(7)
N28 N 1.1241(7) 0.4084(5) 0.2123(5)
C55 C 0.7537(8) 0.2674(5) 0.0535(5)
C56 C 1.0496(8) 0.0292(5) 0.4222(5)
C57 C 1.0487(6) 0.0317(5) 0.1251(4)
C58 C 1.1199(10) 0.4357(7) 0.2958(6)
N29 N 1.2110(8) 0.0770(6) 0.4169(4)
C59 C 0.8492(9) 0.1765(6) 0.4562(5)
C60 C 1.1653(7) -0.0615(5) 0.3953(5)
C61 C 1.2330(8) 0.0537(6) 0.2496(5)
N30 N 0.6687(6) 0.0992(4) 0.3630(3)
C62 C 0.8154(8) 0.3463(5) 0.4450(5)
N31 N 0.8619(6) 0.4039(5) 0.1948(5)
C63 C 0.5458(9) 0.1522(6) 0.3277(5)
C64 C 1.1141(9) 0.3262(6) 0.0200(5)
C65 C 0.5635(8) 0.1646(6) 0.4119(5)
O23 O 1.3642(6) -0.0384(4) 0.3789(3)
C66 C 1.3553(9) -0.0364(5) 0.2202(5)
O24 O 0.7773(6) 0.4661(4) 0.1381(4)
C67 C 0.9093(7) 0.1378(5) 0.0965(4)
C68 C 1.4079(7) 0.2338(6) 0.1573(5)
C69 C 1.2990(10) 0.3542(8) 0.0403(6)
C70 C 1.1048(8) -0.0172(5) 0.1464(4)
C71 C 0.8438(7) 0.3977(5) 0.0639(5)
N32 N 0.5772(9) 0.1174(6) 0.2813(5)
C72 C 1.1015(9) -0.0069(7) 0.4588(5)
C73 C 0.9875(7) -0.0918(5) 0.3481(4)
C74 C 0.6683(7) 0.3708(5) 0.1477(5)
C75 C 1.2261(12) 0.2153(9) 0.3106(5)
C76 C 0.9957(7) -0.0953(4) 0.2989(5)
C77 C 0.7548(8) 0.2070(5) 0.3748(5)
C78 C 0.8092(7) 0.2189(5) 0.0537(4)
C79 C 0.5637(8) 0.2980(5) 0.2507(5)
C80 C 1.0255(12) 0.4481(7) 0.1555(7)
C81 C 0.7012(11) 0.4236(7) 0.4527(6)
C82 C 0.5719(6) 0.2602(5) 0.1248(4)
C83 C 1.2235(12) 0.0907(6) 0.5029(4)
C84 C 1.2819(10) 0.0157(6) 0.2853(5)
C85 C 1.1196(10) 0.1695(6) 0.5373(5)
C86 C 1.0736(8) 0.1831(5) 0.4915(4)
C87 C 1.1927(7) 0.2545(6) 0.0940(4)
C88 C 1.2305(8) 0.3654(5) 0.2622(5)
C89 C 1.2440(9) 0.2013(6) 0.2309(5)
C90 C 1.3350(9) 0.2983(7) 0.2174(6)
C91 C 0.6430(10) 0.4080(7) 0.2515(5)
N33 N 1.1808(8) 0.2472(5) 0.3457(4)
N34 N 1.0629(6) 0.4037(5) 0.1299(4)
C92 C 1.1359(10) 0.2948(8) 0.4208(5)
C93 C 1.3384(7) 0.3089(8) 0.0813(6)
C94 C 1.2731(10) 0.0357(7) 0.4203(4)
C95 C 0.7313(8) 0.2345(5) 0.4186(4)
C96 C 1.0559(9) 0.3941(6) 0.0836(6)
C97 C 1.0042(8) -0.1101(6) 0.1442(4)
C98 C 0.8685(8) 0.3812(5) 0.1116(4)
C99 C 0.6843(6) 0.4168(5) 0.4014(6)
C100 C 1.3522(8) 0.2873(6) 0.1628(5)
C101 C 0.9815(11) 0.2577(8) 0.5200(5)
C102 C 0.6203(8) 0.4596(6) 0.3791(5)
C103 C 0.7812(11) 0.2183(7) 0.4552(4)
C104 C 0.6279(7) 0.1606(5) 0.5356(5)
O25 O 0.5692(6) 0.4996(4) 0.4056(3)
C105 C 1.1585(10) 0.4044(6) 0.2555(6)
C106 C 0.6836(7) 0.3475(5) 0.1049(4)
C107 C 1.1651(8) 0.2747(5) 0.0078(6)
C108 C 1.3467(7) -0.0270(5) 0.2685(6)
C109 C 0.7149(9) 0.2724(5) -0.0274(4)
N35 N 1.0774(11) 0.3259(7) 0.3968(4)
C110 C 1.0789(13) 0.2053(8) 0.5752(6)
C111 C 0.6040(7) 0.4559(6) 0.3311(5)
C112 C 0.4764(10) 0.1866(7) 0.3293(6)
O26 O 0.8852(8) 0.3393(5) 0.5413(4)
C113 C 1.0267(11) 0.3636(8) 0.4277(15)
C114 C 1.2062(7) 0.2379(6) 0.0466(5)
O27 O 1.2571(7) 0.2212(5) 0.4114(4)
C115 C 1.2945(9) 0.0452(4) 0.5078(6)
C116 C 1.0108(10) 0.4318(6) 0.0483(6)
C117 C 0.4401(9) 0.3905(6) 0.2110(5)
C118 C 1.3135(7) 0.0195(5) 0.4647(5)
C119 C 1.1163(12) 0.1510(7) 0.4506(5)
C120 C 1.2617(10) 0.3580(6) 0.3049(5)
C121 C 1.1832(10) 0.1057(6) 0.4573(8)
C122 C 0.6177(9) 0.1467(6) 0.4533(5)
C123 C 1.3253(7) 0.1384(7) 0.2849(8)
C124 C 1.3057(9) 0.1540(6) 0.2373(5)
O28 O 1.0136(8) 0.5075(5) 0.3212(4)
C125 C 1.0610(9) 0.3691(7) -0.0152(4)
C126 C 1.2250(11) 0.3906(8) 0.3446(6)
C127 C 1.3603(10) 0.2936(9) -0.0209(6)
C128 C 0.8305(9) 0.4221(6) 0.1505(6)
C129 C 0.8284(12) 0.4651(8) 0.3289(6)
C130 C 1.0643(9) -0.1600(7) 0.1305(6)
C131 C 1.0127(9) 0.4840(6) 0.2375(7)
C132 C 0.7595(10) 0.3853(7) 0.4722(4)
C133 C 1.0146(12) 0.2477(8) 0.5655(6)
C134 C 1.3135(10) 0.3449(8) -0.0093(6)
C135 C 0.7782(8) 0.4796(6) 0.2451(6)
C136 C 0.9121(11) 0.3072(7) 0.5108(7)
C137 C 0.8902(10) 0.4211(6) 0.3185(7)
C138 C 1.3072(9) 0.0025(7) 0.3775(6)
C139 C 0.3823(7) 0.4358(6) 0.1758(5)
C140 C 1.0109(11) 0.4212(7) 0.0001(8)
C141 C 0.8120(9) 0.4213(6) -0.0402(6)
C142 C 1.1985(14) 0.2041(9) -0.1021(6)
C143 C 1.0386(18) 0.3749(12) 0.4748(6)
C144 C 1.0881(9) 0.2159(5) 0.6577(5)
O29 O 1.2759(7) 0.4382(5) 0.0726(5)
C145 C 0.4924(10) 0.2009(6) 0.4116(6)
C146 C 0.7765(10) 0.4939(6) 0.2940(7)
C147 C 1.4037(9) 0.0034(6) 0.5542(6)
C148 C 1.1510(12) 0.4303(8) 0.3410(6)
C149 C 0.4492(8) 0.2135(7) 0.3714(7)
C150 C 0.8447(9) 0.4315(7) 0.2379(6)
C151 C 1.0570(15) 0.4717(9) 0.2871(7)
O30 O 1.1943(8) 0.4316(4) 0.0303(5)
C152 C 1.3963(8) 0.2510(7) 0.0170(6)
C153 C 0.6501(9) 0.3085(7) -0.0611(4)
C154 C 0.5027(9) 0.5379(9) 0.3832(6)
C155 C 1.1573(8) -0.0529(8) 0.4438(6)
C156 C 1.0611(11) 0.4447(6) 0.2026(6)
C157 C 1.3882(8) -0.0626(6) 0.0699(6)
N36 N 1.2545(8) 0.4122(6) 0.0487(5)
C158 C 0.9653(12) 0.3985(8) 0.4000(4)
C159 C 1.2178(12) 0.2123(8) -0.0509(5)
C160 C 1.1049(12) 0.3389(9) 0.4932(6)
O31 O 0.5352(7) 0.1372(8) 0.2457(6)
C161 C 0.4234(8) 0.4625(6) 0.1336(5)
C162 C 0.5761(12) 0.1957(10) 0.5743(6)
O32 O 0.6251(9) 0.0787(7) 0.2794(4)
C163 C 1.1999(12) 0.2500(8) 0.3920(8)
C164 C 1.5021(8) 0.1243(6) 0.1373(5)
C165 C 1.1259(14) 0.1987(10) -0.1027(6)
C166 C 1.0639(11) -0.2136(8) 0.1673(6)
C167 C 0.3317(8) 0.4828(6) 0.2107(5)
C168 C 0.5729(12) 0.3067(9) -0.0356(7)
C169 C 0.8276(15) 0.4224(7) -0.0967(7)
C170 C 0.9534(11) 0.5556(8) 0.3119(7)
C171 C 1.0620(9) -0.1704(7) 0.0788(6)
C172 C 0.6638(10) 0.2821(7) -0.1095(5)
C173 C 1.5396(10) 0.0706(10) 0.1144(8)
C174 C 0.6252(11) 0.1860(7) 0.6187(6)
C175 C 1.1572(11) 0.2979(7) 0.4677(4)
C176 C 0.4487(11) 0.5693(10) 0.4258(7)
C177 C 1.4225(14) 0.0039(10) 0.6042(7)
C178 C 0.7988(10) 0.3849(8) -0.1139(6)
C179 C 1.491(2) 0.0495(9) 0.0914(12)
C180 C 0.9830(13) 0.6074(8) 0.3732(6)
C181 C 1.5064(12) -0.0334(9) 0.6096(7)
C182 C 0.8911(17) 0.4287(11) -0.1239(8)
C183 C 1.2617(11) 0.1537(11) -0.1166(6)
C184 C 0.9182(17) 0.5804(7) 0.3608(9)
C185 C 1.5250(10) -0.1112(9) 0.0704(8)
C186 C 1.5941(15) 0.0264(9) 0.1570(10)
C187 C 1.461(2) -0.1832(14) 0.0955(18)
C188 C 1.4493(12) -0.1223(9) 0.0708(11)
C189 C 0.5673(14) 0.2548(11) 0.5535(8)
C190 C 0.8521(13) 0.6234(9) 0.3572(9)
C191 C 0.3832(12) 0.6146(11) 0.3968(8)
C192 C 1.1088(13) 0.2308(14) 0.7459(6)
C193 C 1.1782(15) 0.1421(10) 0.7141(9)
C194 C 1.4353(16) 0.0593(11) 0.6042(10)
C195 C 1.1581(11) 0.2043(8) 0.6994(6)
C196 C 0.506(2) 0.5968(19) 0.4353(19)
H1 H 1.0516 0.0404 0.2920
H2 H 0.7398 0.3441 0.2569
H3 H 1.0998 0.1505 0.1379
H4 H 0.7450 0.1231 0.2228
H5 H 0.9005 -0.0155 0.1478
H6 H 0.9268 0.1404 0.1635
H7 H 0.7803 0.0527 0.3306
H8 H 0.7444 0.1937 0.3092
H9 H 0.9438 0.1012 0.3762
H10 H 1.1736 0.2573 0.1813
H11 H 0.9240 -0.0471 0.4019
H12 H 0.9633 0.2710 -0.0191
H13 H 1.2754 0.0228 0.0685
H14 H 0.7159 0.0971 0.4751
H15 H 1.2447 0.3535 0.1932
H16 H 0.6907 0.1434 0.0988
H17 H 1.1588 -0.0584 0.2117
H18 H 1.2277 0.0593 0.3387
H19 H 1.0461 0.1865 0.0118
H20 H 0.5912 0.2235 0.0651
H21 H 1.2062 0.1134 0.5719
H22 H 0.9035 0.2798 0.4489
H23 H 0.9842 0.3651 0.3395
H24 H 1.3097 0.1583 0.3605
H25 H 1.0410 0.0388 0.0909
H26 H 0.8791 0.1658 0.4840
H27 H 1.2025 -0.0938 0.3856
H28 H 0.8972 0.3712 0.1974
H29 H 1.3936 -0.0685 0.2112
H30 H 1.4335 0.2097 0.1844
H31 H 1.1328 -0.0442 0.1260
H32 H 0.8068 0.4328 0.0553
H33 H 1.0973 0.0008 0.4917
H34 H 1.0217 -0.1188 0.3697
H35 H 0.6282 0.4044 0.1506
H36 H 1.0361 -0.1242 0.2870
H37 H 0.8199 0.2009 0.0251
H38 H 0.5359 0.3241 0.2719
H39 H 0.6712 0.4537 0.4693
H40 H 0.5353 0.2920 0.1092
H41 H 1.1357 0.2674 0.3373
H42 H 1.0974 0.3767 0.1465
H43 H 0.6841 0.2621 0.4217
H44 H 0.9567 -0.1127 0.1359
H45 H 1.0107 -0.0763 0.1240
H46 H 0.7673 0.2379 0.4829
H47 H 0.6730 0.1713 0.5281
H48 H 0.6426 0.1199 0.5476
H49 H 0.6549 0.3675 0.0776
H50 H 1.3835 -0.0488 0.2910
H51 H 0.7129 0.2338 -0.0183
H52 H 0.7630 0.2701 -0.0447
H53 H 0.5599 0.4797 0.3159
H54 H 0.4456 0.1930 0.3026
H55 H 1.2418 0.2029 0.0411
H56 H 0.9783 0.4664 0.0572
H57 H 0.4722 0.4078 0.2239
H58 H 0.4143 0.3746 0.2391
H59 H 1.3577 -0.0117 0.4650
H60 H 1.3092 0.3308 0.3098
H61 H 1.3653 0.1045 0.2914
H62 H 1.3318 0.1343 0.2113
H63 H 1.0603 0.3620 -0.0479
H64 H 1.2507 0.3853 0.3737
H65 H 1.3684 0.2869 -0.0542
H66 H 0.8212 0.4760 0.3608
H67 H 1.1122 -0.1537 0.1337
H68 H 0.9652 0.5107 0.2312
H69 H 0.7655 0.3830 0.5063
H70 H 0.9914 0.2711 0.5898
H71 H 1.2911 0.3739 -0.0346
H72 H 0.7419 0.4984 0.2215
H73 H 0.3506 0.4181 0.1622
H74 H 0.9783 0.4480 -0.0226
H75 H 0.8229 0.4522 -0.0284
H76 H 0.7600 0.4243 -0.0313
H77 H 1.1995 0.2378 -0.1258
H78 H 1.0050 0.4037 0.4914
H79 H 1.0486 0.2016 0.6735
H80 H 1.0660 0.2564 0.6460
H81 H 0.4722 0.2180 0.4401
H82 H 0.7369 0.5254 0.3028
H83 H 1.4135 -0.0357 0.5481
H84 H 1.4334 0.0207 0.5301
H85 H 1.1259 0.4508 0.3668
H86 H 0.4010 0.2403 0.3720
H87 H 1.4283 0.2160 0.0085
H88 H 0.6500 0.3481 -0.0681
H89 H 0.4780 0.5170 0.3675
H90 H 0.5148 0.5657 0.3577
H91 H 1.1901 -0.0785 0.4670
H92 H 1.4042 -0.0335 0.0486
H93 H 1.3410 -0.0627 0.0585
H94 H 1.2123 0.1816 -0.0258
H95 H 1.2695 0.2118 -0.0517
H96 H 1.1161 0.3419 0.5252
H97 H 0.3876 0.4882 0.1103
H98 H 0.4588 0.4329 0.1167
H99 H 0.4497 0.4833 0.1471
H100 H 0.5287 0.1877 0.5826
H101 H 1.5391 0.1353 0.1522
H102 H 1.4653 0.1187 0.1632
H103 H 1.0880 0.2338 -0.0955
H104 H 1.1222 0.1678 -0.0778
H105 H 1.1185 0.1911 -0.1351
H106 H 1.0627 -0.2059 0.2010
H107 H 1.1086 -0.2450 0.1613
H108 H 1.0202 -0.2233 0.1624
H109 H 0.2907 0.5099 0.1921
H110 H 0.3623 0.5024 0.2212
H111 H 0.3121 0.4639 0.2397
H112 H 0.5326 0.3314 -0.0562
H113 H 0.5670 0.3195 -0.0034
H114 H 0.5719 0.2682 -0.0316
H115 H 0.7899 0.4591 -0.1086
H116 H 0.9157 0.5468 0.2956
H117 H 0.9690 0.5840 0.2893
H118 H 1.0611 -0.1366 0.0561
H119 H 1.0175 -0.1797 0.0752
H120 H 1.1059 -0.2017 0.0712
H121 H 0.7104 0.2842 -0.1255
H122 H 0.6232 0.3027 -0.1314
H123 H 0.6663 0.2427 -0.1021
H124 H 1.5734 0.0801 0.0875
H125 H 0.6341 0.1478 0.6358
H126 H 0.6001 0.2131 0.6413
H127 H 0.6725 0.1909 0.6070
H128 H 1.2029 0.2744 0.4810
H129 H 0.4349 0.5447 0.4542
H130 H 1.3878 -0.0051 0.6308
H131 H 0.7501 0.3883 -0.0981
H132 H 0.8322 0.3464 -0.1061
H133 H 0.7941 0.3942 -0.1495
H134 H 1.5213 0.0201 0.0721
H135 H 1.4583 0.0802 0.0699
H136 H 1.4621 0.0339 0.1168
H137 H 1.0301 0.5770 0.3789
H138 H 0.9671 0.6262 0.4026
H139 H 0.9892 0.6345 0.3453
H140 H 1.5111 -0.0731 0.6120
H141 H 1.5247 -0.0269 0.6393
H142 H 1.5354 -0.0233 0.5809
H143 H 0.9044 0.4584 -0.1125
H144 H 0.8804 0.4389 -0.1588
H145 H 0.9322 0.3933 -0.1191
H146 H 1.3085 0.1609 -0.1164
H147 H 1.2544 0.1474 -0.1496
H148 H 1.2629 0.1204 -0.0931
H149 H 0.9149 0.5498 0.3874
H150 H 1.5232 -0.0772 0.0477
H151 H 1.5651 -0.1433 0.0598
H152 H 1.5339 -0.1063 0.1035
H153 H 1.6241 -0.0076 0.1432
H154 H 1.5638 0.0165 0.1850
H155 H 1.6265 0.0444 0.1679
H156 H 1.4164 -0.1927 0.0925
H157 H 1.4704 -0.1864 0.1303
H158 H 1.5030 -0.2090 0.0793
H159 H 1.4495 -0.1276 0.0357
H160 H 0.5391 0.2651 0.5237
H161 H 0.6161 0.2587 0.5455
H162 H 0.5411 0.2797 0.5777
H163 H 0.8400 0.6397 0.3880
H164 H 0.8133 0.6089 0.3508
H165 H 0.8559 0.6524 0.3302
H166 H 0.3504 0.6389 0.4194
H167 H 0.3554 0.5958 0.3819
H168 H 0.4030 0.6374 0.3710
H169 H 1.0880 0.2717 0.7376
H170 H 1.1400 0.2218 0.7742
H171 H 1.0687 0.2151 0.7539
H172 H 1.2189 0.1292 0.7367
H173 H 1.1936 0.1231 0.6849
H174 H 1.1353 0.1334 0.7304
H175 H 1.4474 0.0619 0.6372
H176 H 1.3906 0.0903 0.5942
H177 H 1.4764 0.0613 0.5811
H178 H 1.1996 0.2187 0.6871
H179 H 0.5467 0.5688 0.4537
H180 H 0.4822 0.6279 0.4544
H181 H 0.5255 0.6112 0.4039
Cl1 Cl 0.7655(4) 0.4893(3) 0.5613(2)
Cl2 Cl 0.7623(5) 0.5527(4) 0.4670(3)
C197 C 0.8216(8) 0.4973(7) 0.5079(6)
Cl3 Cl 0.8978(4) 0.5155(3) 0.5222(3)
Cl4 Cl 0.5105(4) 0.3824(3) 0.4360(2)
Cl5 Cl 0.4271(4) 0.4114(3) 0.3496(2)
C198 C 0.4638(9) 0.3555(7) 0.3962(5)
Cl6 Cl 0.3893(4) 0.3424(3) 0.4369(3)
O33 O 0.9640(7) 0.1231(4) 0.2912(3)
C199 C 0.9592(12) 0.1785(10) 0.2777(6)
O34 O 1.0377(8) 0.2929(6) 0.2880(4)
C200 C 0.9937(9) 0.2623(10) 0.2769(6)
C201 C 1.0005(14) 0.2067(8) 0.2886(6)
H182 H 0.9601 0.1094 0.2665
H183 H 0.9600 0.1838 0.2414
H184 H 0.9084 0.2001 0.2882
H185 H 1.0393 0.2905 0.3185
H186 H 0.9916 0.2695 0.2407
H187 H 0.9435 0.2826 0.2894
H188 H 1.0508 0.1864 0.2763
H189 H 1.0021 0.1995 0.3248
Cl7 Cl 0.2860(5) 0.8546(4) 0.1691(4)
C202 C 0.2932(12) 0.8313(11) 0.2327(8)
Cl8 Cl 0.3345(14) 0.7612(10) 0.2604(8)
Cl9 Cl 0.9098(9) 0.6343(7) 0.1673(6)
Cl10 Cl 0.7942(9) 0.6287(7) 0.2214(6)
C203 C 0.8523(14) 0.5936(11) 0.1768(9)
Cl11 Cl 0.7999(8) 0.6123(6) 0.1223(6)
Cl12 Cl 0.6384(9) 0.5169(6) 0.0520(5)
Cl13 Cl 0.5525(11) 0.4705(9) -0.0003(8)
C204 C 0.5489(17) 0.5327(14) 0.0266(13)
Cl14 Cl 0.540(2) 0.5951(19) -0.0168(16)
O35 O 0.3672(12) 0.1709(9) 0.5096(6)
Cl15 Cl 0.4345(10) 0.5840(7) 0.2426(6)
Cl16 Cl 0.5702(10) 0.6040(7) 0.2437(6)
Cl17 Cl 0.5519(19) 0.5969(14) 0.1509(12)
C205 C 0.5198(15) 0.5738(14) 0.2098(12)
Cl18 Cl 0.7895(3) 0.0956(2) 0.9731(2)
Cl19 Cl 0.9073(4) -0.0081(3) 1.0092(2)
Cl20 Cl 0.7537(4) 0.0085(3) 1.0412(2)
C206 C 0.8212(8) 0.0432(6) 1.0245(6)
O36 O 0.2752(12) 0.2166(8) 0.5731(6)
O37 O 0.3457(19) 0.269(2) 0.5155(13)
C207 C 0.3192(11) 0.3007(8) 0.5683(7)
O38 O 0.5746(18) 0.888(4) 0.2451(13)
O39 O 0.2823(18) 0.0535(12) 0.697(2)
C208 C 0.136(3) 0.6590(16) 0.286(2)
Cl21 Cl 0.1794(15) 0.5831(13) 0.2837(9)
Cl22 Cl 0.179(2) 0.6894(18) 0.3256(14)
O40 O 0.314(6) 0.079(2) 0.759(2)
O41 O 0.581(5) 0.806(3) 0.246(3)
O42 O 0.8122(13) 0.2299(10) 0.6059(9)
C209 C 0.8296(10) 0.2340(8) 0.6598(7)
O43 O 0.615(2) 0.748(3) 0.293(3)
O44 O 0.633(2) 0.647(2) 0.3522(16)
O45 O 0.7002(16) 0.6757(13) 0.1645(10)
Cl23? Cl 0.2253(9) 0.7958(6) 0.2338(5)
Cl24? Cl 0.3910(9) 0.8003(6) 0.2364(5)
Cl25? Cl 0.163(5) 0.629(3) 0.3486(19)
O46? O 0.6974(14) 0.6131(11) 0.1567(9)
loop_
_geom_bond_atom_site_label_1
_geom_bond_atom_site_label_2
_geom_bond_site_symmetry_1
_geom_bond_site_symmetry_2
F1 C12 1_555 1_555
F2 C3 1_555 1_555
F3 C24 1_555 1_555
F4 C61 1_555 1_555
C1 N5 1_555 1_555
N1 C13 1_555 1_555
O1 C67 1_555 1_555
F5 C119 1_555 1_555
N2 C13 1_555 1_555
N3 C8 1_555 1_555
N4 C7 1_555 1_555
N5 C17 1_555 1_555
O2 C9 1_555 1_555
N6 C6 1_555 1_555
N7 C14 1_555 1_555
O3 C49 1_555 1_555
O4 C35 1_555 1_555
N8 C22 1_555 1_555
C2 C11 1_555 1_555
N9 C29 1_555 1_555
C3 C1 1_555 1_555
O5 C55 1_555 1_555
O6 C30 1_555 1_555
N10 C5 1_555 1_555
N11 C19 1_555 1_555
O7 C20 1_555 1_555
O8 C44 1_555 1_555
C4 C6 1_555 1_555
C5 C16 1_555 1_555
N12 C23 1_555 1_555
C6 C37 1_555 1_555
C7 C24 1_555 1_555
C8 C24 1_555 1_555
N13 C15 1_555 1_555
C9 N14 1_555 1_555
C10 C15 1_555 1_555
C11 N10 1_555 1_555
N14 C16 1_555 1_555
O9 C36 1_555 1_555
O10 C53 1_555 1_555
O11 C17 1_555 1_555
N15 C86 1_555 1_555
C12 C25 1_555 1_555
C13 C39 1_555 1_555
C14 C91 1_555 1_555
N16 C35 1_555 1_555
O12 C46 1_555 1_555
C15 C3 1_555 1_555
C16 C21 1_555 1_555
O13 C115 1_555 1_555
C17 C22 1_555 1_555
N17 C75 1_555 1_555
C18 C4 1_555 1_555
N18 C19 1_555 1_555
N19 C36 1_555 1_555
N20 C50 1_555 1_555
N21 C4 1_555 1_555
C19 C59 1_555 1_555
C20 C2 1_555 1_555
C21 C73 1_555 1_555
O14 C45 1_555 1_555
C22 C31 1_555 1_555
O15 C38 1_555 1_555
C23 C30 1_555 1_555
C25 N7 1_555 1_555
C26 N8 1_555 1_555
C27 C10 1_555 1_555
C28 N21 1_555 1_555
O16 C104 1_555 1_555
C29 N2 1_555 1_555
C30 N1 1_555 1_555
C31 C45 1_555 1_555
O17 C91 1_555 1_555
C32 C9 1_555 1_555
C33 C32 1_555 1_555
C34 N3 1_555 1_555
N22 C88 1_555 1_555
N23 C93 1_555 1_555
O18 C80 1_555 1_555
C35 C28 1_555 1_555
C36 C87 1_555 1_555
O19 C90 1_555 1_555
C37 C43 1_555 1_555
C38 C47 1_555 1_555
C39 C70 1_555 1_555
N24 C84 1_555 1_555
C40 C5 1_555 1_555
O20 C107 1_555 1_555
O21 C110 1_555 1_555
C41 C1 1_555 1_555
C42 C8 1_555 1_555
C43 C82 1_555 1_555
C44 N6 1_555 1_555
N25 C137 1_555 1_555
C45 C51 1_555 1_555
C46 C10 1_555 1_555
C47 C93 1_555 1_555
O22 C158 1_555 1_555
C48 C83 1_555 1_555
N26 C62 1_555 1_555
C49 C18 1_555 1_555
C50 C64 1_555 1_555
C51 C26 1_555 1_555
C52 N30 1_555 1_555
N27 C137 1_555 1_555
C53 N18 1_555 1_555
C54 C75 1_555 1_555
N28 C105 1_555 1_555
C55 C42 1_555 1_555
C56 N12 1_555 1_555
C57 C29 1_555 1_555
C58 C105 1_555 1_555
N29 C94 1_555 1_555
C59 C103 1_555 1_555
C60 C23 1_555 1_555
C61 C26 1_555 1_555
N30 C32 1_555 1_555
C62 C12 1_555 1_555
N31 C128 1_555 1_555
C63 C52 1_555 1_555
C64 C107 1_555 1_555
C65 C52 1_555 1_555
O23 C138 1_555 1_555
C66 C51 1_555 1_555
O24 C128 1_555 1_555
C67 N9 1_555 1_555
C68 C38 1_555 1_555
C69 C93 1_555 1_555
C70 C57 1_555 1_555
C71 C46 1_555 1_555
N32 C63 1_555 1_555
C72 C56 1_555 1_555
C73 C76 1_555 1_555
C74 C7 1_555 1_555
C75 N33 1_555 1_555
C76 C40 1_555 1_555
C77 N11 1_555 1_555
C78 C34 1_555 1_555
C79 C28 1_555 1_555
C80 N34 1_555 1_555
C81 C99 1_555 1_555
C82 C18 1_555 1_555
C83 C115 1_555 1_555
C84 C61 1_555 1_555
C85 C48 1_555 1_555
C86 C85 1_555 1_555
C87 N20 1_555 1_555
C88 C105 1_555 1_555
C89 N17 1_555 1_555
C90 N22 1_555 1_555
C91 N4 1_555 1_555
N33 C163 1_555 1_555
N34 C96 1_555 1_555
C92 N35 1_555 1_555
C94 C118 1_555 1_555
C95 C77 1_555 1_555
C96 C50 1_555 1_555
C97 O7 1_555 1_555
C98 N13 1_555 1_555
C99 C25 1_555 1_555
C100 N23 1_555 1_555
C101 N15 1_555 1_555
C102 C99 1_555 1_555
C103 C95 1_555 1_555
C104 C162 1_555 1_555
O25 C102 1_555 1_555
C106 C42 1_555 1_555
C107 C114 1_555 1_555
C108 C66 1_555 1_555
C109 O5 1_555 1_555
N35 C113 1_555 1_555
C110 C85 1_555 1_555
C111 C14 1_555 1_555
C112 C63 1_555 1_555
O26 C136 1_555 1_555
C113 C143 1_555 1_555
C114 C87 1_555 1_555
O27 C163 1_555 1_555
C115 C118 1_555 1_555
C116 C96 1_555 1_555
C117 O3 1_555 1_555
C118 H59 1_555 1_555
C119 C86 1_555 1_555
C120 C88 1_555 1_555
C121 N29 1_555 1_555
C122 O16 1_555 1_555
C123 C54 1_555 1_555
C124 C89 1_555 1_555
O28 C151 1_555 1_555
C125 C64 1_555 1_555
C126 C120 1_555 1_555
C127 C134 1_555 1_555
C128 C98 1_555 1_555
C129 C137 1_555 1_555
C130 C97 1_555 1_555
C131 C151 1_555 1_555
C132 C62 1_555 1_555
C133 C101 1_555 1_555
C134 C69 1_555 1_555
C135 C146 1_555 1_555
C136 N26 1_555 1_555
C138 N24 1_555 1_555
C139 C117 1_555 1_555
C140 C116 1_555 1_555
C141 O12 1_555 1_555
C142 C159 1_555 1_555
C143 C160 1_555 1_555
C144 O21 1_555 1_555
O29 N36 1_555 1_555
C145 C65 1_555 1_555
C146 C129 1_555 1_555
C147 O13 1_555 1_555
C148 C58 1_555 1_555
C149 C112 1_555 1_555
C150 N25 1_555 1_555
C151 C58 1_555 1_555
O30 N36 1_555 1_555
C152 C47 1_555 1_555
C153 C109 1_555 1_555
C154 O25 1_555 1_555
C155 C60 1_555 1_555
C156 N28 1_555 1_555
C157 O14 1_555 1_555
N36 C69 1_555 1_555
C158 N27 1_555 1_555
C159 O20 1_555 1_555
C160 C175 1_555 1_555
O31 N32 1_555 1_555
C161 C139 1_555 1_555
C162 C174 1_555 1_555
O32 N32 1_555 1_555
C163 C92 1_555 1_555
C164 O15 1_555 1_555
C165 C142 1_555 1_555
C166 C130 1_555 1_555
C167 C139 1_555 1_555
C168 C153 1_555 1_555
C169 C141 1_555 1_555
C170 O28 1_555 1_555
C171 C130 1_555 1_555
C172 C153 1_555 1_555
C173 C164 1_555 1_555
C174 H125 1_555 1_555
C175 C92 1_555 1_555
C176 C154 1_555 1_555
C177 C147 1_555 1_555
C178 C169 1_555 1_555
C179 C173 1_555 1_555
C180 C184 1_555 1_555
C181 C177 1_555 1_555
C182 C169 1_555 1_555
C183 C142 1_555 1_555
C184 C170 1_555 1_555
C185 C188 1_555 1_555
C186 C173 1_555 1_555
C187 C188 1_555 1_555
C188 C157 1_555 1_555
C189 C162 1_555 1_555
C190 C184 1_555 1_555
C191 C176 1_555 1_555
C192 C195 1_555 1_555
C193 C195 1_555 1_555
C194 C177 1_555 1_555
C195 C144 1_555 1_555
C196 C176 1_555 1_555
H1 N1 1_555 1_555
H2 N4 1_555 1_555
H3 N5 1_555 1_555
H4 N6 1_555 1_555
H5 C2 1_555 1_555
H6 N9 1_555 1_555
H7 N14 1_555 1_555
H8 N16 1_555 1_555
H9 N18 1_555 1_555
H10 N19 1_555 1_555
H11 C21 1_555 1_555
H12 C27 1_555 1_555
H13 C31 1_555 1_555
H14 C33 1_555 1_555
H15 N22 1_555 1_555
H16 C37 1_555 1_555
H17 C39 1_555 1_555
H18 N24 1_555 1_555
H19 C41 1_555 1_555
H20 C43 1_555 1_555
H21 C48 1_555 1_555
H22 N26 1_555 1_555
H23 N27 1_555 1_555
H24 C54 1_555 1_555
H25 C57 1_555 1_555
H26 C59 1_555 1_555
H27 C60 1_555 1_555
H28 N31 1_555 1_555
H29 C66 1_555 1_555
H30 C68 1_555 1_555
H31 C70 1_555 1_555
H32 C71 1_555 1_555
H33 C72 1_555 1_555
H34 C73 1_555 1_555
H35 C74 1_555 1_555
H36 C76 1_555 1_555
H37 C78 1_555 1_555
H38 C79 1_555 1_555
H39 C81 1_555 1_555
H40 C82 1_555 1_555
H41 N33 1_555 1_555
H42 N34 1_555 1_555
H43 C95 1_555 1_555
H44 C97 1_555 1_555
H45 C97 1_555 1_555
H46 C103 1_555 1_555
H47 C104 1_555 1_555
H48 C104 1_555 1_555
H49 C106 1_555 1_555
H50 C108 1_555 1_555
H51 C109 1_555 1_555
H52 C109 1_555 1_555
H53 C111 1_555 1_555
H54 C112 1_555 1_555
H55 C114 1_555 1_555
H56 C116 1_555 1_555
H57 C117 1_555 1_555
H58 C117 1_555 1_555
H60 C120 1_555 1_555
H61 C123 1_555 1_555
H62 C124 1_555 1_555
H63 C125 1_555 1_555
H64 C126 1_555 1_555
H65 C127 1_555 1_555
H66 C129 1_555 1_555
H67 C130 1_555 1_555
H68 C131 1_555 1_555
H69 C132 1_555 1_555
H70 C133 1_555 1_555
H71 C134 1_555 1_555
H72 C135 1_555 1_555
H73 C139 1_555 1_555
H74 C140 1_555 1_555
H75 C141 1_555 1_555
H76 C141 1_555 1_555
H77 C142 1_555 1_555
H78 C143 1_555 1_555
H79 C144 1_555 1_555
H80 C144 1_555 1_555
H81 C145 1_555 1_555
H82 C146 1_555 1_555
H83 C147 1_555 1_555
H84 C147 1_555 1_555
H85 C148 1_555 1_555
H86 C149 1_555 1_555
H87 C152 1_555 1_555
H88 C153 1_555 1_555
H89 C154 1_555 1_555
H90 C154 1_555 1_555
H91 C155 1_555 1_555
H92 C157 1_555 1_555
H93 C157 1_555 1_555
H94 C159 1_555 1_555
H95 C159 1_555 1_555
H96 C160 1_555 1_555
H97 C161 1_555 1_555
H98 C161 1_555 1_555
H99 C161 1_555 1_555
H100 C162 1_555 1_555
H101 C164 1_555 1_555
H102 C164 1_555 1_555
H103 C165 1_555 1_555
H104 C165 1_555 1_555
H105 C165 1_555 1_555
H106 C166 1_555 1_555
H107 C166 1_555 1_555
H108 C166 1_555 1_555
H109 C167 1_555 1_555
H110 C167 1_555 1_555
H111 C167 1_555 1_555
H112 C168 1_555 1_555
H113 C168 1_555 1_555
H114 C168 1_555 1_555
H115 C169 1_555 1_555
H116 C170 1_555 1_555
H117 C170 1_555 1_555
H118 C171 1_555 1_555
H119 C171 1_555 1_555
H120 C171 1_555 1_555
H121 C172 1_555 1_555
H122 C172 1_555 1_555
H123 C172 1_555 1_555
H124 C173 1_555 1_555
H126 C174 1_555 1_555
H127 C174 1_555 1_555
H128 C175 1_555 1_555
H129 C176 1_555 1_555
H130 C177 1_555 1_555
H131 C178 1_555 1_555
H132 C178 1_555 1_555
H133 C178 1_555 1_555
H134 C179 1_555 1_555
H135 C179 1_555 1_555
H136 C179 1_555 1_555
H137 C180 1_555 1_555
H138 C180 1_555 1_555
H139 C180 1_555 1_555
H140 C181 1_555 1_555
H141 C181 1_555 1_555
H142 C181 1_555 1_555
H143 C182 1_555 1_555
H144 C182 1_555 1_555
H145 C182 1_555 1_555
H146 C183 1_555 1_555
H147 C183 1_555 1_555
H148 C183 1_555 1_555
H149 C184 1_555 1_555
H150 C185 1_555 1_555
H151 C185 1_555 1_555
H152 C185 1_555 1_555
H153 C186 1_555 1_555
H154 C186 1_555 1_555
H155 C186 1_555 1_555
H156 C187 1_555 1_555
H157 C187 1_555 1_555
H158 C187 1_555 1_555
H159 C188 1_555 1_555
H160 C189 1_555 1_555
H161 C189 1_555 1_555
H162 C189 1_555 1_555
H163 C190 1_555 1_555
H164 C190 1_555 1_555
H165 C190 1_555 1_555
H166 C191 1_555 1_555
H167 C191 1_555 1_555
H168 C191 1_555 1_555
H169 C192 1_555 1_555
H170 C192 1_555 1_555
H171 C192 1_555 1_555
H172 C193 1_555 1_555
H173 C193 1_555 1_555
H174 C193 1_555 1_555
H175 C194 1_555 1_555
H176 C194 1_555 1_555
H177 C194 1_555 1_555
H178 C195 1_555 1_555
H179 C196 1_555 1_555
H180 C196 1_555 1_555
H181 C196 1_555 1_555
Cl1 C197 1_555 1_555
Cl2 C197 1_555 1_555
C197 Cl3 1_555 1_555
Cl4 C198 1_555 1_555
Cl5 C198 1_555 1_555
C198 Cl6 1_555 1_555
O33 C199 1_555 1_555
C199 C201 1_555 1_555
O34 C200 1_555 1_555
C200 C201 1_555 1_555
C201 H188 1_555 1_555
H182 O33 1_555 1_555
H183 C199 1_555 1_555
H184 C199 1_555 1_555
H185 O34 1_555 1_555
H186 C200 1_555 1_555
H187 C200 1_555 1_555
H189 C201 1_555 1_555
Cl7 C202 1_555 1_555
C202 Cl8 1_555 1_555
Cl9 C203 1_555 1_555
Cl10 C203 1_555 1_555
C203 Cl11 1_555 1_555
Cl12 C204 1_555 1_555
Cl13 C204 1_555 1_555
C204 Cl14 1_555 1_555
Cl15 C205 1_555 1_555
Cl16 C205 1_555 1_555
Cl17 C205 1_555 1_555
Cl18 C206 1_555 1_555
Cl19 C206 1_555 1_555
Cl20 C206 1_555 1_555
O37 C207 1_555 1_555
C208 Cl21 1_555 1_555
Cl22 C208 1_555 1_555
O42 C209 1_555 1_555
C11 C44 1_555 1_555
N16 C77 1_555 1_555
N19 C89 1_555 1_555
C20 C40 1_555 1_555
C27 C41 1_555 1_555
C33 C122 1_555 1_555
C34 C67 1_555 1_555
C49 C79 1_555 1_555
C53 C56 1_555 1_555
C55 C78 1_555 1_555
N31 C150 1_555 1_555
C65 C122 1_555 1_555
C68 C100 1_555 1_555
C71 C98 1_555 1_555
C72 C155 1_555 1_555
C74 C106 1_555 1_555
C80 C156 1_555 1_555
C81 C132 1_555 1_555
C83 C121 1_555 1_555
C84 C108 1_555 1_555
C90 C100 1_555 1_555
C94 C138 1_555 1_555
C101 C136 1_555 1_555
C102 C111 1_555 1_555
C110 C133 1_555 1_555
C113 C158 1_555 1_555
C119 C121 1_555 1_555
C123 C124 1_555 1_555
C125 C140 1_555 1_555
C126 C148 1_555 1_555
C127 C152 1_555 1_555
C131 C156 1_555 1_555
C135 C150 1_555 1_555
C145 C149 1_555 1_555

#END
