
#######################################################################
#
#                 Cambridge Crystallographic Data Centre
#                                CCDC 
#
#######################################################################
#
# If this CIF has been generated from an entry in the Cambridge 
# Structural Database, then it will include bibliographic, chemical, 
# crystal, experimental, refinement or atomic coordinate data resulting 
# from the CCDC's data processing and validation procedures.
#
#######################################################################

data_SOBXEP
_chemical_formula_moiety         'C25 H24 O5 S1'
_chemical_name_systematic        
'1-[3-(4-ethylphenyl)-1-(ethylsulfonyl)-3-oxoprop-1-en-1-yl]naphthalen-2-yl acetate'
_symmetry_cell_setting           monoclinic
_symmetry_space_group_name_H-M   'P 21'
_symmetry_Int_Tables_number      4
_space_group_name_Hall           'P 2yb'
loop_
_symmetry_equiv_pos_site_id
_symmetry_equiv_pos_as_xyz
1 x,y,z
2 -x,1/2+y,-z
_cell_length_a                   9.1789(3)
_cell_length_b                   10.5740(3)
_cell_length_c                   11.4116(4)
_cell_angle_alpha                90
_cell_angle_beta                 91.684(3)
_cell_angle_gamma                90
_cell_volume                     1107.11
_exptl_crystal_colour            colorless
_exptl_crystal_description       block
_cell_formula_units_Z            2
loop_
_atom_site_label
_atom_site_type_symbol
_atom_site_fract_x
_atom_site_fract_y
_atom_site_fract_z
S1 S 0.08550(10) 0.50439(9) 0.49781(8)
O1 O -0.1023(2) 0.3881(2) 0.2263(2)
O2 O 0.1647(3) 0.5760(3) 0.0940(2)
O3 O 0.1064(3) 0.6323(3) 0.5379(3)
O4 O -0.1179(3) 0.3902(3) 0.0288(3)
O5 O 0.1665(3) 0.4055(3) 0.5555(3)
C1 C 0.1439(4) 0.3708(3) 0.2910(3)
C2 C -0.1693(4) 0.4154(4) 0.1196(4)
C3 C 0.1680(4) 0.6070(3) 0.2983(3)
H1 H 0.1544 0.6801 0.3420
C4 C 0.1328(3) 0.4984(3) 0.3464(3)
C5 C 0.3674(4) 0.6921(3) 0.1701(3)
C6 C 0.5774(4) 0.7947(3) 0.2600(4)
H2 H 0.6293 0.8191 0.3275
C7 C 0.2283(4) 0.6215(3) 0.1783(3)
C8 C 0.0293(4) 0.3209(3) 0.2275(3)
C9 C 0.2840(5) 0.1803(3) 0.2445(3)
C10 C 0.2770(4) 0.3002(3) 0.3008(3)
C11 C 0.4468(4) 0.7309(3) 0.2698(3)
H3 H 0.4116 0.7136 0.3437
C12 C 0.4012(4) 0.3427(4) 0.3653(4)
H4 H 0.3988 0.4207 0.4029
C13 C -0.3120(4) 0.4778(4) 0.1378(4)
H5 H -0.3729 0.4228 0.1821
H6 H -0.3586 0.4954 0.0632
H7 H -0.2967 0.5555 0.1799
C14 C 0.6320(4) 0.8228(4) 0.1509(4)
C15 C -0.1020(4) 0.4665(4) 0.5046(4)
H8 H -0.1204 0.3891 0.4609
H9 H -0.1253 0.4506 0.5857
C16 C 0.0355(5) 0.2019(3) 0.1718(4)
H10 H -0.0450 0.1703 0.1300
C17 C 0.4226(4) 0.7191(4) 0.0615(3)
H11 H 0.3719 0.6934 -0.0062
C18 C 0.5525(4) 0.7840(4) 0.0529(4)
H12 H 0.5873 0.8020 -0.0210
C19 C 0.1605(5) 0.1351(4) 0.1804(4)
H13 H 0.1656 0.0571 0.1430
C20 C 0.4140(5) 0.1102(4) 0.2539(4)
H14 H 0.4197 0.0326 0.2160
C21 C -0.2008(5) 0.5681(5) 0.4569(4)
H15 H -0.1850 0.5788 0.3747
H16 H -0.1802 0.6460 0.4971
H17 H -0.3004 0.5445 0.4682
C22 C 0.7776(4) 0.8897(5) 0.1422(4)
H18 H 0.7877 0.9218 0.0632
H19 H 0.7808 0.9612 0.1955
C23 C 0.5310(6) 0.1532(5) 0.3170(5)
H20 H 0.6155 0.1047 0.3230
C24 C 0.5249(5) 0.2710(5) 0.3732(5)
H21 H 0.6056 0.3005 0.4163
C25 C 0.9032(4) 0.8012(5) 0.1719(5)
H22 H 0.9014 0.7313 0.1182
H23 H 0.8940 0.7702 0.2505
H24 H 0.9936 0.8460 0.1660
loop_
_geom_bond_atom_site_label_1
_geom_bond_atom_site_label_2
_geom_bond_site_symmetry_1
_geom_bond_site_symmetry_2
S1 O3 1_555 1_555
O1 C2 1_555 1_555
O2 C7 1_555 1_555
O4 C2 1_555 1_555
O5 S1 1_555 1_555
C1 C4 1_555 1_555
C2 C13 1_555 1_555
C3 H1 1_555 1_555
C4 S1 1_555 1_555
C5 C7 1_555 1_555
C6 H2 1_555 1_555
C7 C3 1_555 1_555
C8 O1 1_555 1_555
C9 C10 1_555 1_555
C10 C1 1_555 1_555
C11 C5 1_555 1_555
H3 C11 1_555 1_555
C12 C10 1_555 1_555
H4 C12 1_555 1_555
C13 H5 1_555 1_555
H6 C13 1_555 1_555
H7 C13 1_555 1_555
C14 C6 1_555 1_555
C15 S1 1_555 1_555
H8 C15 1_555 1_555
H9 C15 1_555 1_555
C16 C8 1_555 1_555
H10 C16 1_555 1_555
C17 C5 1_555 1_555
H11 C17 1_555 1_555
C18 C14 1_555 1_555
H12 C18 1_555 1_555
C19 C9 1_555 1_555
H13 C19 1_555 1_555
C20 C9 1_555 1_555
H14 C20 1_555 1_555
C21 C15 1_555 1_555
H15 C21 1_555 1_555
H16 C21 1_555 1_555
H17 C21 1_555 1_555
C22 C14 1_555 1_555
H18 C22 1_555 1_555
H19 C22 1_555 1_555
C23 C20 1_555 1_555
H20 C23 1_555 1_555
C24 C12 1_555 1_555
H21 C24 1_555 1_555
C25 C22 1_555 1_555
H22 C25 1_555 1_555
H23 C25 1_555 1_555
H24 C25 1_555 1_555
C1 C8 1_555 1_555
C3 C4 1_555 1_555
C6 C11 1_555 1_555
C16 C19 1_555 1_555
C17 C18 1_555 1_555
C23 C24 1_555 1_555

#END
