
#######################################################################
#
#                 Cambridge Crystallographic Data Centre
#                                CCDC 
#
#######################################################################
#
# If this CIF has been generated from an entry in the Cambridge 
# Structural Database, then it will include bibliographic, chemical, 
# crystal, experimental, refinement or atomic coordinate data resulting 
# from the CCDC's data processing and validation procedures.
#
#######################################################################

data_SOBZAN
_chemical_formula_moiety         'C56 H43 F4 N3 O2'
_chemical_name_systematic        
N^1^-{2,6-bis[bis(4-fluorophenyl)methyl]-4-nitrophenyl}-N^2^-[2,6-di-isopropylphenyl]acenaphthylene-1,2-di-imine
_symmetry_cell_setting           monoclinic
_symmetry_space_group_name_H-M   'P 21/c'
_symmetry_Int_Tables_number      14
_space_group_name_Hall           '-P 2ybc'
loop_
_symmetry_equiv_pos_site_id
_symmetry_equiv_pos_as_xyz
1 x,y,z
2 -x,1/2+y,1/2-z
3 -x,-y,-z
4 x,1/2-y,1/2+z
_cell_length_a                   11.3537(4)
_cell_length_b                   23.9312(6)
_cell_length_c                   17.2928(5)
_cell_angle_alpha                90
_cell_angle_beta                 105.819(3)
_cell_angle_gamma                90
_cell_volume                     4520.64
_exptl_crystal_colour            orange
_exptl_crystal_description       plate
_cell_formula_units_Z            4
loop_
_atom_site_label
_atom_site_type_symbol
_atom_site_fract_x
_atom_site_fract_y
_atom_site_fract_z
F1 F 1.12854(11) 0.48241(5) 0.63964(7)
O1 O 0.41539(13) 0.54992(5) 0.39400(9)
N1 N 0.53466(12) 0.29609(6) 0.36300(8)
O2 O 0.61279(13) 0.55387(6) 0.43233(10)
N2 N 0.53893(13) 0.17877(6) 0.33785(8)
F2 F -0.05241(14) 0.47902(6) 0.09664(9)
N3 N 0.51646(16) 0.52795(6) 0.40788(9)
F3 F 0.13354(16) 0.22132(7) 0.53455(11)
C1 C 0.53236(15) 0.35426(7) 0.37593(10)
C2 C 0.53321(15) 0.19873(7) 0.40494(10)
C3 C 0.53933(15) 0.26944(7) 0.50510(10)
C4 C 0.53739(15) 0.26147(7) 0.41984(10)
C5 C 0.41856(15) 0.38164(7) 0.35126(10)
C6 C 0.52804(15) 0.21556(7) 0.53625(10)
C7 C 0.64262(16) 0.38425(7) 0.40636(10)
C8 C 0.30401(15) 0.34782(7) 0.31173(10)
H1 H 0.329565 0.319826 0.278215
C9 C 0.52257(16) 0.46753(7) 0.39573(10)
C10 C 0.41501(16) 0.43886(7) 0.36300(10)
H2 H 0.340678 0.457799 0.348924
C11 C 0.53765(18) 0.11960(7) 0.32620(10)
C12 C 0.52412(16) 0.17204(7) 0.48059(10)
C13 C 0.63547(17) 0.44166(7) 0.41547(10)
H3 H 0.706421 0.462596 0.434783
C14 C 0.20511(16) 0.38252(7) 0.25462(11)
C15 C 0.54685(17) 0.31496(8) 0.55448(11)
H4 H 0.554103 0.350788 0.535458
C16 C 0.25700(16) 0.31498(8) 0.37290(11)
C17 C 0.52069(17) 0.20657(8) 0.61504(11)
C18 C 0.76485(16) 0.35361(8) 0.42533(11)
H5 H 0.754285 0.318879 0.452721
C19 C 0.86768(17) 0.38631(8) 0.48346(12)
C20 C 0.42734(19) 0.08998(8) 0.30805(11)
C21 C 0.54341(18) 0.30649(8) 0.63463(11)
H6 H 0.549988 0.337284 0.668361
C22 C 0.53069(18) 0.25441(8) 0.66445(11)
H7 H 0.528623 0.250510 0.717575
C23 C 0.79432(17) 0.33683(9) 0.34759(13)
F4 F 0.87575(19) 0.29105(10) 0.13842(12)
C24 C 0.12350(17) 0.41549(8) 0.28120(13)
H8 H 0.126809 0.415765 0.335529
C25 C 1.04386(18) 0.44926(8) 0.58875(12)
C26 C 0.97152(17) 0.40352(8) 0.46380(12)
H9 H 0.982184 0.393759 0.414094
C27 C 0.25992(18) 0.33574(8) 0.44764(12)
H10 H 0.291111 0.371356 0.461841
C28 C 0.6493(2) 0.09414(8) 0.32772(11)
C29 C 1.06099(18) 0.43525(9) 0.51675(13)
H11 H 1.130956 0.446572 0.502943
C30 C 0.5062(2) 0.15056(8) 0.63615(12)
H12 H 0.499548 0.142248 0.687327
C31 C 0.5116(2) 0.11799(8) 0.50354(12)
H13 H 0.509655 0.088473 0.468226
C32 C 0.19643(19) 0.38248(9) 0.17298(12)
H14 H 0.249633 0.360295 0.153866
C33 C 0.85600(19) 0.40031(9) 0.55913(12)
H15 H 0.788216 0.387857 0.574597
C34 C 0.94364(19) 0.43246(10) 0.61174(13)
H16 H 0.934376 0.442402 0.661741
C35 C 0.30741(19) 0.11927(9) 0.30251(12)
H17 H 0.324629 0.149943 0.341534
C36 C 0.2173(2) 0.30466(10) 0.50239(14)
H18 H 0.218133 0.319370 0.552309
C37 C 0.6479(3) 0.03681(9) 0.31345(13)
H19 H 0.720943 0.018522 0.315524
C38 C 0.5019(2) 0.10828(9) 0.58200(12)
H20 H 0.492123 0.071764 0.597591
C39 C 0.03710(19) 0.44803(9) 0.22806(14)
H21 H -0.016945 0.470201 0.246411
C40 C 0.4326(2) 0.03294(9) 0.29314(12)
H22 H 0.360735 0.012105 0.280654
C41 C 0.5413(3) 0.00687(9) 0.29646(13)
H23 H 0.542654 -0.031361 0.287118
C42 C 0.7660(2) 0.12769(10) 0.34559(14)
H24 H 0.742782 0.166637 0.331826
C43 C 0.0326(2) 0.44702(9) 0.14851(14)
C44 C 0.7767(2) 0.37308(11) 0.28346(13)
H25 H 0.745133 0.408496 0.287532
C45 C 0.1100(2) 0.41484(10) 0.11922(14)
H26 H 0.105009 0.414601 0.064639
C46 C 0.1745(2) 0.25234(10) 0.48118(17)
C47 C 0.2588(2) 0.14542(10) 0.21890(13)
H27 H 0.314859 0.173556 0.211306
H28 H 0.180286 0.162092 0.214428
H29 H 0.250722 0.116992 0.178628
C48 C 0.2122(2) 0.26152(9) 0.35463(15)
H30 H 0.210042 0.246406 0.304719
C49 C 0.8047(2) 0.35808(14) 0.21293(16)
H31 H 0.792363 0.383005 0.170208
C50 C 0.8421(2) 0.28494(11) 0.34000(18)
H32 H 0.855849 0.259696 0.382410
C51 C 0.1705(3) 0.22996(10) 0.40859(18)
H33 H 0.140313 0.194062 0.395359
C52 C 0.2114(2) 0.08180(11) 0.32354(16)
H34 H 0.188732 0.052457 0.284440
H35 H 0.140481 0.103610 0.323533
H36 H 0.244891 0.065803 0.375846
C53 C 0.8500(3) 0.30684(17) 0.2078(2)
C54 C 0.8488(3) 0.10967(12) 0.2939(2)
H37 H 0.875939 0.072016 0.307236
H38 H 0.918387 0.134075 0.303720
H39 H 0.804074 0.111575 0.238157
C55 C 0.8324(3) 0.12625(14) 0.43463(18)
H40 H 0.779853 0.140801 0.464893
H41 H 0.905183 0.148639 0.444513
H42 H 0.854247 0.088411 0.450760
C56 C 0.8702(3) 0.26991(14) 0.2688(2)
H43 H 0.902481 0.234815 0.263730
loop_
_geom_bond_atom_site_label_1
_geom_bond_atom_site_label_2
_geom_bond_site_symmetry_1
_geom_bond_site_symmetry_2
F1 C25 1_555 1_555
O1 N3 1_555 1_555
N1 C1 1_555 1_555
O2 N3 1_555 1_555
N2 C2 1_555 1_555
F2 C43 1_555 1_555
N3 C9 1_555 1_555
F3 C46 1_555 1_555
C1 C5 1_555 1_555
C2 C4 1_555 1_555
C3 C4 1_555 1_555
C4 N1 1_555 1_555
C5 C8 1_555 1_555
C6 C3 1_555 1_555
C7 C1 1_555 1_555
C8 H1 1_555 1_555
C9 C10 1_555 1_555
C10 C5 1_555 1_555
H2 C10 1_555 1_555
C11 N2 1_555 1_555
C12 C2 1_555 1_555
C13 C7 1_555 1_555
H3 C13 1_555 1_555
C14 C8 1_555 1_555
C15 C3 1_555 1_555
H4 C15 1_555 1_555
C16 C8 1_555 1_555
C17 C6 1_555 1_555
C18 C7 1_555 1_555
H5 C18 1_555 1_555
C19 C18 1_555 1_555
C20 C11 1_555 1_555
C21 C15 1_555 1_555
H6 C21 1_555 1_555
C22 C17 1_555 1_555
H7 C22 1_555 1_555
C23 C18 1_555 1_555
F4 C53 1_555 1_555
C24 C14 1_555 1_555
H8 C24 1_555 1_555
C25 C29 1_555 1_555
C26 C19 1_555 1_555
H9 C26 1_555 1_555
C27 C16 1_555 1_555
H10 C27 1_555 1_555
C28 C11 1_555 1_555
C29 C26 1_555 1_555
H11 C29 1_555 1_555
C30 C17 1_555 1_555
H12 C30 1_555 1_555
C31 C12 1_555 1_555
H13 C31 1_555 1_555
C32 C14 1_555 1_555
H14 C32 1_555 1_555
C33 C19 1_555 1_555
H15 C33 1_555 1_555
C34 C25 1_555 1_555
H16 C34 1_555 1_555
C35 C20 1_555 1_555
H17 C35 1_555 1_555
C36 C27 1_555 1_555
H18 C36 1_555 1_555
C37 C28 1_555 1_555
H19 C37 1_555 1_555
C38 C30 1_555 1_555
H20 C38 1_555 1_555
C39 C24 1_555 1_555
H21 C39 1_555 1_555
C40 C20 1_555 1_555
H22 C40 1_555 1_555
C41 C37 1_555 1_555
H23 C41 1_555 1_555
C42 C28 1_555 1_555
H24 C42 1_555 1_555
C43 C39 1_555 1_555
C44 C23 1_555 1_555
H25 C44 1_555 1_555
C45 C32 1_555 1_555
H26 C45 1_555 1_555
C46 C36 1_555 1_555
C47 C35 1_555 1_555
H27 C47 1_555 1_555
H28 C47 1_555 1_555
H29 C47 1_555 1_555
C48 C16 1_555 1_555
H30 C48 1_555 1_555
C49 C44 1_555 1_555
H31 C49 1_555 1_555
C50 C23 1_555 1_555
H32 C50 1_555 1_555
C51 C46 1_555 1_555
H33 C51 1_555 1_555
C52 C35 1_555 1_555
H34 C52 1_555 1_555
H35 C52 1_555 1_555
H36 C52 1_555 1_555
C53 C49 1_555 1_555
C54 C42 1_555 1_555
H37 C54 1_555 1_555
H38 C54 1_555 1_555
H39 C54 1_555 1_555
C55 C42 1_555 1_555
H40 C55 1_555 1_555
H41 C55 1_555 1_555
H42 C55 1_555 1_555
C56 C50 1_555 1_555
H43 C56 1_555 1_555
C6 C12 1_555 1_555
C9 C13 1_555 1_555
C21 C22 1_555 1_555
C31 C38 1_555 1_555
C33 C34 1_555 1_555
C40 C41 1_555 1_555
C43 C45 1_555 1_555
C48 C51 1_555 1_555
C53 C56 1_555 1_555

#END
