
#######################################################################
#
#                 Cambridge Crystallographic Data Centre
#                                CCDC 
#
#######################################################################
#
# If this CIF has been generated from an entry in the Cambridge 
# Structural Database, then it will include bibliographic, chemical, 
# crystal, experimental, refinement or atomic coordinate data resulting 
# from the CCDC's data processing and validation procedures.
#
#######################################################################

data_SOCDIZ
_chemical_name_common            Secobufalinamide
_chemical_formula_moiety         'C26 H39 N1 O3'
_chemical_name_systematic        
3-Hydroxy-N,N-dimethyl-14,21-epoxychola-20,22-dien-24-amide
_chemical_properties_biological  'cytotoxic activity'
_symmetry_cell_setting           orthorhombic
_symmetry_space_group_name_H-M   'P 21 21 21'
_symmetry_Int_Tables_number      19
_space_group_name_Hall           'P 2ac 2ab'
loop_
_symmetry_equiv_pos_site_id
_symmetry_equiv_pos_as_xyz
1 x,y,z
2 1/2-x,-y,1/2+z
3 1/2+x,1/2-y,-z
4 -x,1/2+y,1/2-z
_cell_length_a                   6.69108(13)
_cell_length_b                   16.3181(3)
_cell_length_c                   21.0016(5)
_cell_angle_alpha                90
_cell_angle_beta                 90
_cell_angle_gamma                90
_cell_volume                     2293.07
_exptl_crystal_colour            colorless
_exptl_crystal_description       block
_cell_formula_units_Z            4
loop_
_atom_site_label
_atom_site_type_symbol
_atom_site_fract_x
_atom_site_fract_y
_atom_site_fract_z
O1 O 0.5878(3) 0.18619(10) 0.36272(12)
H1 H 0.5199 0.1451 0.3568
O2 O 0.7062(2) 0.67101(9) 0.33970(9)
O3 O 0.3927(2) 1.03522(10) 0.34674(11)
N1 N 0.0571(3) 1.02804(12) 0.34976(12)
C1 C 0.5209(4) 0.32324(15) 0.45472(12)
H2 H 0.6029 0.2780 0.4693
H3 H 0.4495 0.3447 0.4913
C2 C 0.3700(4) 0.29093(15) 0.40699(12)
H4 H 0.2799 0.3348 0.3948
H5 H 0.2914 0.2479 0.4266
C3 C 0.4724(4) 0.25744(15) 0.34800(14)
H6 H 0.3707 0.2431 0.3163
C4 C 0.6112(4) 0.32166(15) 0.32011(12)
H7 H 0.5312 0.3661 0.3031
H8 H 0.6844 0.2974 0.2850
C5 C 0.7609(4) 0.35691(14) 0.36785(13)
H9 H 0.8487 0.3120 0.3812
C6 C 0.8923(4) 0.42172(15) 0.33516(15)
H10 H 1.0031 0.4355 0.3630
H11 H 0.9471 0.3989 0.2963
C7 C 0.7765(4) 0.49928(14) 0.31929(13)
H12 H 0.6776 0.4870 0.2869
H13 H 0.8676 0.5399 0.3021
C8 C 0.6717(3) 0.53463(13) 0.37788(11)
H14 H 0.7762 0.5503 0.4082
C9 C 0.5392(3) 0.47016(13) 0.41106(10)
H15 H 0.4377 0.4537 0.3800
C10 C 0.6591(4) 0.39114(13) 0.42822(12)
C11 C 0.4260(5) 0.50780(15) 0.46786(11)
H16 H 0.3351 0.4673 0.4854
H17 H 0.5208 0.5226 0.5009
C12 C 0.3077(4) 0.58380(14) 0.44820(12)
H18 H 0.2403 0.6060 0.4853
H19 H 0.2062 0.5681 0.4175
C13 C 0.4413(4) 0.65050(13) 0.41884(10)
C14 C 0.5531(3) 0.61219(13) 0.36221(10)
C15 C 0.3937(3) 0.60503(13) 0.30981(10)
H20 H 0.3381 0.5502 0.3089
H21 H 0.4513 0.6170 0.2684
C16 C 0.2309(3) 0.66824(14) 0.32655(11)
H22 H 0.2041 0.7041 0.2907
H23 H 0.1078 0.6412 0.3389
C17 C 0.3203(3) 0.71623(13) 0.38244(11)
H24 H 0.2176 0.7419 0.4091
C18 C 0.5748(5) 0.68648(17) 0.47057(13)
H25 H 0.6471 0.6432 0.4912
H26 H 0.4938 0.7146 0.5013
H27 H 0.6675 0.7243 0.4518
C19 C 0.8168(5) 0.40903(18) 0.47959(15)
H28 H 0.8877 0.3595 0.4896
H29 H 0.7521 0.4293 0.5172
H30 H 0.9091 0.4494 0.4640
C20 C 0.4667(3) 0.77808(14) 0.35547(12)
C21 C 0.6452(3) 0.74995(13) 0.33584(14)
H31 H 0.7336 0.7876 0.3182
C22 C 0.4230(3) 0.86412(14) 0.34838(12)
H32 H 0.5263 0.8963 0.3324
C23 C 0.2533(3) 0.90354(13) 0.36178(12)
H33 H 0.1436 0.8746 0.3771
C24 C 0.2396(3) 0.99312(14) 0.35230(11)
C25 C 0.0462(4) 1.11610(16) 0.33929(18)
H34 H 0.1782 1.1391 0.3411
H35 H -0.0355 1.1406 0.3717
H36 H -0.0112 1.1267 0.2982
C26 C -0.1290(4) 0.98329(19) 0.34862(18)
H37 H -0.1033 0.9262 0.3560
H38 H -0.1917 0.9901 0.3078
H39 H -0.2159 1.0039 0.3813
loop_
_geom_bond_atom_site_label_1
_geom_bond_atom_site_label_2
_geom_bond_site_symmetry_1
_geom_bond_site_symmetry_2
O1 H1 1_555 1_555
O2 C14 1_555 1_555
O3 C24 1_555 1_555
N1 C24 1_555 1_555
C1 H2 1_555 1_555
H3 C1 1_555 1_555
C2 C1 1_555 1_555
H4 C2 1_555 1_555
H5 C2 1_555 1_555
C3 O1 1_555 1_555
H6 C3 1_555 1_555
C4 C3 1_555 1_555
H7 C4 1_555 1_555
H8 C4 1_555 1_555
C5 C4 1_555 1_555
H9 C5 1_555 1_555
C6 C5 1_555 1_555
H10 C6 1_555 1_555
H11 C6 1_555 1_555
C7 C6 1_555 1_555
H12 C7 1_555 1_555
H13 C7 1_555 1_555
C8 C7 1_555 1_555
H14 C8 1_555 1_555
C9 C8 1_555 1_555
H15 C9 1_555 1_555
C10 C1 1_555 1_555
C11 C9 1_555 1_555
H16 C11 1_555 1_555
H17 C11 1_555 1_555
C12 C11 1_555 1_555
H18 C12 1_555 1_555
H19 C12 1_555 1_555
C13 C12 1_555 1_555
C14 C8 1_555 1_555
C15 C14 1_555 1_555
H20 C15 1_555 1_555
H21 C15 1_555 1_555
C16 C15 1_555 1_555
H22 C16 1_555 1_555
H23 C16 1_555 1_555
C17 C13 1_555 1_555
H24 C17 1_555 1_555
C18 C13 1_555 1_555
H25 C18 1_555 1_555
H26 C18 1_555 1_555
H27 C18 1_555 1_555
C19 C10 1_555 1_555
H28 C19 1_555 1_555
H29 C19 1_555 1_555
H30 C19 1_555 1_555
C20 C17 1_555 1_555
C21 O2 1_555 1_555
H31 C21 1_555 1_555
C22 C20 1_555 1_555
H32 C22 1_555 1_555
C23 C22 1_555 1_555
H33 C23 1_555 1_555
C24 C23 1_555 1_555
C25 N1 1_555 1_555
H34 C25 1_555 1_555
H35 C25 1_555 1_555
H36 C25 1_555 1_555
C26 N1 1_555 1_555
H37 C26 1_555 1_555
H38 C26 1_555 1_555
H39 C26 1_555 1_555
C2 C3 1_555 1_555
C5 C10 1_555 1_555
C9 C10 1_555 1_555
C13 C14 1_555 1_555
C16 C17 1_555 1_555
C20 C21 1_555 1_555

#END
