
#######################################################################
#
#                 Cambridge Crystallographic Data Centre
#                                CCDC 
#
#######################################################################
#
# If this CIF has been generated from an entry in the Cambridge 
# Structural Database, then it will include bibliographic, chemical, 
# crystal, experimental, refinement or atomic coordinate data resulting 
# from the CCDC's data processing and validation procedures.
#
#######################################################################

data_SOCNAA
_chemical_formula_moiety         'C19 H22 F1 N2 O4 P1 S1'
_chemical_name_systematic        
'diethyl ((4-fluorophenyl)((6-methoxy-1,3-benzothiazol-2-yl)amino)methyl)phosphonate'
_chemical_properties_biological  
'Anticancer activities against PC3, A431, A375 and Bcap37 cells'
_symmetry_cell_setting           tetragonal
_symmetry_space_group_name_H-M   'I 41/a'
_symmetry_Int_Tables_number      88
_space_group_name_Hall           '-I 4ad'
loop_
_symmetry_equiv_pos_site_id
_symmetry_equiv_pos_as_xyz
1 x,y,z
2 3/4-y,1/4+x,1/4+z
3 1/2+x,1/2+y,1/2+z
4 1/4-y,3/4+x,3/4+z
5 1/4+y,1/4-x,1/4+z
6 1/2-x,-y,1/2+z
7 3/4+y,3/4-x,3/4+z
8 -x,1/2-y,z
9 -x,-y,-z
10 1/4+y,3/4-x,3/4-z
11 1/2-x,1/2-y,1/2-z
12 3/4+y,1/4-x,1/4-z
13 3/4-y,3/4+x,3/4-z
14 1/2+x,y,1/2-z
15 1/4-y,1/4+x,1/4-z
16 x,1/2+y,-z
_cell_length_a                   21.169(3)
_cell_length_b                   21.169(3)
_cell_length_c                   18.545(6)
_cell_angle_alpha                90
_cell_angle_beta                 90
_cell_angle_gamma                90
_cell_volume                     8310.51
_chemical_melting_point          '198-200 deg.C'
_cell_formula_units_Z            16
loop_
_atom_site_label
_atom_site_type_symbol
_atom_site_fract_x
_atom_site_fract_y
_atom_site_fract_z
P1 P 0.41864(5) 0.34230(5) 0.08131(6)
S1 S 0.38071(4) 0.10340(5) 0.01716(6)
F1 F 0.35622(14) 0.23667(12) 0.40775(14)
N1 N 0.29166(13) 0.18638(14) 0.03844(17)
N2 N 0.39292(14) 0.22122(15) 0.06998(17)
H1 H 0.4328 0.2163 0.0629
O1 O 0.48635(12) 0.33170(12) 0.08979(17)
O2 O 0.39272(13) 0.39991(12) 0.12281(17)
O3 O 0.39447(15) 0.35443(17) 0.00308(17)
O4 O 0.19104(14) -0.03149(15) -0.08013(19)
C1 C 0.37031(16) 0.27632(17) 0.1086(2)
H2 H 0.3271 0.2848 0.0922
C2 C 0.36807(16) 0.26732(15) 0.1898(2)
C3 C 0.32232(19) 0.2961(2) 0.2312(3)
H3 H 0.2932 0.3225 0.2088
C4 C 0.3184(2) 0.2871(2) 0.3046(3)
H4 H 0.2877 0.3074 0.3319
C5 C 0.3605(2) 0.24806(19) 0.3354(2)
C6 C 0.4074(2) 0.2198(2) 0.2976(3)
H5 H 0.4368 0.1942 0.3209
C7 C 0.41087(19) 0.22938(18) 0.2243(2)
H6 H 0.4427 0.2099 0.1979
C8 C 0.35163(16) 0.17729(18) 0.04488(19)
C9 C 0.26354(16) 0.13295(17) 0.0082(2)
C10 C 0.30358(16) 0.08310(19) -0.0074(2)
C11 C 0.28263(17) 0.02701(19) -0.0373(2)
H7 H 0.3104 -0.0060 -0.0468
C12 C 0.21915(19) 0.0219(2) -0.0523(2)
C13 C 0.17841(19) 0.0715(2) -0.0387(2)
H8 H 0.1358 0.0675 -0.0501
C14 C 0.20003(17) 0.1266(2) -0.0087(2)
H9 H 0.1722 0.1596 0.0004
C15 C 0.2304(2) -0.0795(2) -0.1057(3)
H10 H 0.2579 -0.0628 -0.1423
H11 H 0.2052 -0.1128 -0.1257
H12 H 0.2554 -0.0958 -0.0666
C16 C 0.4337(10) 0.4294(7) 0.1760(11)
H13 H 0.4777 0.4228 0.1631
H14 H 0.4265 0.4109 0.2231
C17 C 0.4190(11) 0.4997(5) 0.1778(8)
H15 H 0.4285 0.5180 0.1317
H16 H 0.4441 0.5197 0.2143
H17 H 0.3750 0.5056 0.1884
C18 C 0.4327(7) 0.3668(6) -0.0588(7)
H18 H 0.4194 0.3401 -0.0985
H19 H 0.4765 0.3572 -0.0480
C19 C 0.4265(8) 0.4358(6) -0.0801(8)
H20 H 0.3834 0.4446 -0.0926
H21 H 0.4532 0.4442 -0.1208
H22 H 0.4390 0.4620 -0.0404
C20? C 0.4179(11) 0.4311(9) 0.1863(7)
H23? H 0.4466 0.4032 0.2118
H24? H 0.3840 0.4430 0.2187
C21? C 0.4533(14) 0.4901(9) 0.1599(12)
H25? H 0.4834 0.4783 0.1237
H26? H 0.4749 0.5094 0.1998
H27? H 0.4236 0.5196 0.1399
C22? C 0.4267(9) 0.3981(6) -0.0455(9)
H28? H 0.4567 0.4235 -0.0186
H29? H 0.3962 0.4262 -0.0676
C23? C 0.4613(9) 0.3605(10) -0.1038(9)
H30? H 0.4678 0.3180 -0.0874
H31? H 0.5014 0.3799 -0.1135
H32? H 0.4364 0.3601 -0.1470
loop_
_geom_bond_atom_site_label_1
_geom_bond_atom_site_label_2
_geom_bond_site_symmetry_1
_geom_bond_site_symmetry_2
P1 O1 1_555 1_555
S1 C8 1_555 1_555
F1 C5 1_555 1_555
N1 C8 1_555 1_555
N2 H1 1_555 1_555
O2 P1 1_555 1_555
O3 P1 1_555 1_555
O4 C12 1_555 1_555
C1 P1 1_555 1_555
H2 C1 1_555 1_555
C2 C1 1_555 1_555
C3 C2 1_555 1_555
H3 C3 1_555 1_555
C4 C3 1_555 1_555
H4 C4 1_555 1_555
C5 C4 1_555 1_555
C6 C5 1_555 1_555
H5 C6 1_555 1_555
C7 C2 1_555 1_555
H6 C7 1_555 1_555
C8 N2 1_555 1_555
C9 N1 1_555 1_555
C10 S1 1_555 1_555
C11 C10 1_555 1_555
H7 C11 1_555 1_555
C12 C11 1_555 1_555
C13 C12 1_555 1_555
H8 C13 1_555 1_555
C14 C9 1_555 1_555
H9 C14 1_555 1_555
C15 O4 1_555 1_555
H10 C15 1_555 1_555
H11 C15 1_555 1_555
H12 C15 1_555 1_555
C16 O2 1_555 1_555
H13 C16 1_555 1_555
H14 C16 1_555 1_555
C17 C16 1_555 1_555
H15 C17 1_555 1_555
H16 C17 1_555 1_555
H17 C17 1_555 1_555
C18 O3 1_555 1_555
H18 C18 1_555 1_555
H19 C18 1_555 1_555
C19 C18 1_555 1_555
H20 C19 1_555 1_555
H21 C19 1_555 1_555
H22 C19 1_555 1_555
N2 C1 1_555 1_555
C6 C7 1_555 1_555
C9 C10 1_555 1_555
C13 C14 1_555 1_555

#END
