
#######################################################################
#
#                 Cambridge Crystallographic Data Centre
#                                CCDC 
#
#######################################################################
#
# If this CIF has been generated from an entry in the Cambridge 
# Structural Database, then it will include bibliographic, chemical, 
# crystal, experimental, refinement or atomic coordinate data resulting 
# from the CCDC's data processing and validation procedures.
#
#######################################################################

data_SOCSOS
_chemical_formula_moiety         'C36 H46 N2 Na1 O6 1+,I1 1-'
_chemical_name_systematic        
"(N,N'-bis(2-Methoxy-1-naphthylmethyl)-4,13-diaza-18-crown-6)-sodium iodide"
_symmetry_cell_setting           orthorhombic
_symmetry_space_group_name_H-M   'P 21 21 21'
_symmetry_Int_Tables_number      19
_space_group_name_Hall           'P 2ac 2ab'
loop_
_symmetry_equiv_pos_site_id
_symmetry_equiv_pos_as_xyz
1 x,y,z
2 1/2+x,1/2-y,-z
3 -x,1/2+y,1/2-z
4 1/2-x,-y,1/2+z
_cell_length_a                   10.421(2)
_cell_length_b                   10.439(3)
_cell_length_c                   32.243(9)
_cell_angle_alpha                90
_cell_angle_beta                 90
_cell_angle_gamma                90
_cell_volume                     3507.55
_exptl_crystal_colour            colorless
_chemical_melting_point          223-224deg.C
_cell_formula_units_Z            4
loop_
_atom_site_label
_atom_site_type_symbol
_atom_site_fract_x
_atom_site_fract_y
_atom_site_fract_z
I1 I 0.1375(1) 0.6125(1) 0.3751(1)
Na1 Na 0.3627(2) 0.6129(2) 0.1248(1)
O1 O 0.1262(4) 0.5503(4) 0.1396(1)
O2 O 0.2994(4) 0.3760(4) 0.1104(1)
O3 O 0.5747(4) 0.6931(4) 0.0954(1)
O4 O 0.4425(4) 0.8252(4) 0.1551(2)
O5 O 0.3914(4) 0.5577(5) 0.2001(1)
O6 O 0.3084(5) 0.6413(4) 0.0504(1)
N1 N 0.5586(4) 0.4357(4) 0.1301(1)
N2 N 0.1856(4) 0.8094(4) 0.1202(1)
C1 C 0.0244(6) 0.6426(6) 0.1399(2)
C2 C 0.0837(6) 0.4339(6) 0.1219(2)
C3 C 0.1840(6) 0.3338(6) 0.1268(2)
C4 C 0.3933(6) 0.2781(5) 0.1088(2)
C5 C 0.5238(6) 0.3331(6) 0.1002(2)
C6 C 0.6800(5) 0.4950(5) 0.1153(2)
C7 C 0.6586(6) 0.5918(6) 0.0832(2)
C8 C 0.6351(7) 0.7883(7) 0.1184(3)
C9 C 0.5375(7) 0.8865(7) 0.1290(3)
C10 C 0.3426(6) 0.9071(6) 0.1679(2)
C11 C 0.2448(6) 0.9285(5) 0.1334(2)
C12 C 0.0840(6) 0.7728(6) 0.1498(2)
C13 C 0.5138(6) 0.5708(7) 0.2162(2)
C14 C 0.5420(6) 0.6742(7) 0.2423(2)
C15 C 0.6611(7) 0.6837(6) 0.2593(2)
C16 C 0.7560(6) 0.5927(6) 0.2497(2)
C17 C 0.8779(6) 0.5952(6) 0.2709(2)
C18 C 0.9686(6) 0.5062(7) 0.2633(2)
C19 C 0.9432(6) 0.4113(6) 0.2353(2)
C20 C 0.8284(6) 0.4023(6) 0.2136(2)
C21 C 0.7303(6) 0.4923(5) 0.2221(2)
C22 C 0.6050(6) 0.4841(5) 0.2038(2)
C23 C 0.5703(6) 0.3836(6) 0.1720(2)
C24 C 0.3221(6) 0.7639(6) 0.0328(2)
C25 C 0.4221(7) 0.7927(7) 0.0070(2)
C26 C 0.4336(6) 0.9106(7) -0.0085(2)
C27 C 0.3428(6) 1.0062(5) 0.0002(2)
C28 C 0.3445(6) 1.1260(6) -0.0212(2)
C29 C 0.2561(7) 1.2181(6) -0.0137(2)
C30 C 0.1594(7) 1.1935(6) 0.0156(2)
C31 C 0.1525(6) 1.0778(6) 0.0364(2)
C32 C 0.2432(5) 0.9801(5) 0.0280(2)
C33 C 0.2362(5) 0.8543(4) 0.0467(2)
C34 C 0.1324(6) 0.8206(6) 0.0783(2)
C35 C 0.2894(7) 0.5706(8) 0.2284(3)
C36 C 0.3207(8) 0.5398(6) 0.0209(2)
loop_
_geom_bond_atom_site_label_1
_geom_bond_atom_site_label_2
_geom_bond_site_symmetry_1
_geom_bond_site_symmetry_2
Na1 O1 1_555 1_555
O1 C1 1_555 1_555
O2 Na1 1_555 1_555
O3 Na1 1_555 1_555
O4 Na1 1_555 1_555
O5 Na1 1_555 1_555
O6 Na1 1_555 1_555
N1 Na1 1_555 1_555
N2 Na1 1_555 1_555
C1 C12 1_555 1_555
C2 O1 1_555 1_555
C3 O2 1_555 1_555
C4 O2 1_555 1_555
C5 N1 1_555 1_555
C6 N1 1_555 1_555
C7 O3 1_555 1_555
C8 O3 1_555 1_555
C9 O4 1_555 1_555
C10 O4 1_555 1_555
C11 N2 1_555 1_555
C12 N2 1_555 1_555
C13 O5 1_555 1_555
C14 C13 1_555 1_555
C15 C14 1_555 1_555
C16 C15 1_555 1_555
C17 C16 1_555 1_555
C18 C17 1_555 1_555
C19 C18 1_555 1_555
C20 C19 1_555 1_555
C21 C16 1_555 1_555
C22 C13 1_555 1_555
C23 N1 1_555 1_555
C24 O6 1_555 1_555
C25 C24 1_555 1_555
C26 C25 1_555 1_555
C27 C26 1_555 1_555
C28 C27 1_555 1_555
C29 C28 1_555 1_555
C30 C29 1_555 1_555
C31 C30 1_555 1_555
C32 C27 1_555 1_555
C33 C24 1_555 1_555
C34 N2 1_555 1_555
C35 O5 1_555 1_555
C36 O6 1_555 1_555
C2 C3 1_555 1_555
C4 C5 1_555 1_555
C6 C7 1_555 1_555
C8 C9 1_555 1_555
C10 C11 1_555 1_555
C20 C21 1_555 1_555
C21 C22 1_555 1_555
C22 C23 1_555 1_555
C31 C32 1_555 1_555
C32 C33 1_555 1_555
C33 C34 1_555 1_555

#END
