
#######################################################################
#
#                 Cambridge Crystallographic Data Centre
#                                CCDC 
#
#######################################################################
#
# If this CIF has been generated from an entry in the Cambridge 
# Structural Database, then it will include bibliographic, chemical, 
# crystal, experimental, refinement or atomic coordinate data resulting 
# from the CCDC's data processing and validation procedures.
#
#######################################################################

data_SOCSIO01
_chemical_formula_moiety         '2(C15 H18 N2 O2 S1),I5 1-,H1 1+'
_chemical_name_systematic        
'hydrogen bis((6-methylpyridinium-2-yl)[(2,4,6-trimethylphenyl)sulfonyl]azanide) pentaiodide'
_symmetry_cell_setting           monoclinic
_symmetry_space_group_name_H-M   'C 2/c'
_symmetry_Int_Tables_number      15
_space_group_name_Hall           '-C 2yn'
loop_
_symmetry_equiv_pos_site_id
_symmetry_equiv_pos_as_xyz
1 x,y,z
2 -x,y,1/2-z
3 1/2+x,1/2+y,z
4 1/2-x,1/2+y,1/2-z
5 -x,-y,-z
6 x,-y,1/2+z
7 1/2-x,1/2-y,-z
8 1/2+x,1/2-y,1/2+z
_cell_length_a                   26.487(3)
_cell_length_b                   5.8297(7)
_cell_length_c                   25.371(3)
_cell_angle_alpha                90
_cell_angle_beta                 101.571(3)
_cell_angle_gamma                90
_cell_volume                     3837.95
_exptl_crystal_colour            brown
_exptl_crystal_description       needle
_cell_formula_units_Z            4
loop_
_atom_site_label
_atom_site_type_symbol
_atom_site_fract_x
_atom_site_fract_y
_atom_site_fract_z
I1 I 0.0000 0.64086(13) 0.2500
I2 I 0.033483(19) 1.00546(9) 0.18138(2)
I3 I 0.06572(2) 1.33685(10) 0.11345(2)
I2A I -0.033483(19) 1.00546(9) 0.31862(2)
I3A I -0.06572(2) 1.33685(10) 0.38655(2)
S1 S 0.28483(7) -0.0596(3) 0.07616(7)
O1 O 0.22986(18) -0.0955(8) 0.0599(2)
O2 O 0.31674(18) -0.2538(8) 0.07262(19)
N1 N 0.3523(2) 0.4037(11) 0.0093(2)
H1 H 0.3242(16) 0.446(11) -0.012(2)
N2 N 0.2974(2) 0.1467(10) 0.0374(2)
C1 C 0.3472(3) 0.2235(13) 0.0407(3)
C2 C 0.3976(3) 0.5092(14) 0.0075(3)
C3 C 0.4417(3) 0.4266(17) 0.0408(3)
H2 H 0.4741 0.4977 0.0416
C4 C 0.4377(3) 0.2414(16) 0.0724(3)
H3 H 0.4682 0.1827 0.0945
C5 C 0.3916(3) 0.1355(14) 0.0736(3)
H4 H 0.3900 0.0067 0.0962
C6 C 0.3947(3) 0.7041(13) -0.0311(3)
H5 H 0.3899 0.6443 -0.0678
H6 H 0.4267 0.7929 -0.0228
H7 H 0.3655 0.8031 -0.0279
C7 C 0.2977(3) 0.0510(12) 0.1432(3)
C8 C 0.2677(3) 0.2395(12) 0.1530(3)
C9 C 0.2770(3) 0.3258(13) 0.2050(3)
H8 H 0.2568 0.4517 0.2126
C10 C 0.3143(3) 0.2370(13) 0.2466(3)
C11 C 0.3420(3) 0.0483(13) 0.2352(3)
H9 H 0.3671 -0.0162 0.2634
C12 C 0.3348(3) -0.0525(12) 0.1837(3)
C13 C 0.2250(3) 0.3471(12) 0.1126(3)
H10 H 0.2159 0.4956 0.1262
H11 H 0.1948 0.2461 0.1067
H12 H 0.2364 0.3696 0.0786
C14 C 0.3234(3) 0.3438(13) 0.3019(3)
H13 H 0.3375 0.4984 0.3004
H14 H 0.3478 0.2496 0.3270
H15 H 0.2907 0.3529 0.3143
C15 C 0.3673(3) -0.2601(12) 0.1794(3)
H16 H 0.3455 -0.3834 0.1610
H17 H 0.3839 -0.3113 0.2155
H18 H 0.3937 -0.2210 0.1589
H19 H 0.2500 0.2500 0.0000
loop_
_geom_bond_atom_site_label_1
_geom_bond_atom_site_label_2
_geom_bond_site_symmetry_1
_geom_bond_site_symmetry_2
I1 I2 1_555 1_555
I2 I3 1_555 1_555
S1 O1 1_555 1_555
O2 S1 1_555 1_555
N1 H1 1_555 1_555
N2 S1 1_555 1_555
C1 N1 1_555 1_555
C2 N1 1_555 1_555
C3 C2 1_555 1_555
H2 C3 1_555 1_555
C4 C3 1_555 1_555
H3 C4 1_555 1_555
C5 C1 1_555 1_555
H4 C5 1_555 1_555
C6 C2 1_555 1_555
H5 C6 1_555 1_555
H6 C6 1_555 1_555
H7 C6 1_555 1_555
C7 S1 1_555 1_555
C8 C7 1_555 1_555
C9 C8 1_555 1_555
H8 C9 1_555 1_555
C10 C9 1_555 1_555
C11 C10 1_555 1_555
H9 C11 1_555 1_555
C12 C7 1_555 1_555
C13 C8 1_555 1_555
H10 C13 1_555 1_555
H11 C13 1_555 1_555
H12 C13 1_555 1_555
C14 C10 1_555 1_555
H13 C14 1_555 1_555
H14 C14 1_555 1_555
H15 C14 1_555 1_555
C15 C12 1_555 1_555
H16 C15 1_555 1_555
H17 C15 1_555 1_555
H18 C15 1_555 1_555
I2A I1 1_555 1_555
I3A I2A 1_555 1_555
N2 C1 1_555 1_555
C4 C5 1_555 1_555
C11 C12 1_555 1_555

#END
