
#######################################################################
#
#                 Cambridge Crystallographic Data Centre
#                                CCDC 
#
#######################################################################
#
# If this CIF has been generated from an entry in the Cambridge 
# Structural Database, then it will include bibliographic, chemical, 
# crystal, experimental, refinement or atomic coordinate data resulting 
# from the CCDC's data processing and validation procedures.
#
#######################################################################

data_SOCVUD
_chemical_formula_moiety         
'C15 H19 N2 O2 S1 1+,C15 H18 N2 O2 S1,0.5(C6 H6),I5 1-'
_chemical_name_systematic        
'2-methyl-6-{[(2,4,6-trimethylphenyl)sulfonyl]amino}pyridinium (6-methylpyridinium-2-yl)[(2,4,6-trimethylphenyl)sulfonyl]azanide pentaiodide benzene solvate'
_symmetry_cell_setting           monoclinic
_symmetry_space_group_name_H-M   'P 21/c'
_symmetry_Int_Tables_number      14
_space_group_name_Hall           '-P 2ybc'
loop_
_symmetry_equiv_pos_site_id
_symmetry_equiv_pos_as_xyz
1 x,y,z
2 -x,1/2+y,1/2-z
3 -x,-y,-z
4 x,1/2-y,1/2+z
_cell_length_a                   25.3481(18)
_cell_length_b                   5.9873(4)
_cell_length_c                   28.340(2)
_cell_angle_alpha                90
_cell_angle_beta                 105.5530(10)
_cell_angle_gamma                90
_cell_volume                     4143.57
_exptl_crystal_colour            brown
_exptl_crystal_description       needle
_chemical_melting_point          '401-405 K'
_cell_formula_units_Z            4
loop_
_atom_site_label
_atom_site_type_symbol
_atom_site_fract_x
_atom_site_fract_y
_atom_site_fract_z
S1 S 0.33358(5) 0.3981(2) 0.13444(5)
O1 O 0.31293(14) 0.4460(6) 0.17632(14)
O2 O 0.33452(14) 0.5785(6) 0.10185(14)
N1 N 0.26946(16) -0.0698(7) 0.04621(15)
H1 H 0.2443(15) -0.112(8) 0.0576(18)
N2 N 0.29473(17) 0.1984(8) 0.10597(15)
C1 C 0.30400(19) 0.0982(9) 0.06535(18)
C2 C 0.2714(2) -0.1970(10) 0.00777(19)
C3 C 0.3114(2) -0.1514(11) -0.0154(2)
H2 H 0.3139 -0.2355 -0.0432
C4 C 0.3477(2) 0.0200(12) 0.0026(2)
H3 H 0.3761 0.0504 -0.0126
C5 C 0.3442(2) 0.1479(10) 0.04192(19)
H4 H 0.3688 0.2684 0.0529
C6 C 0.2294(2) -0.3770(10) -0.00696(19)
H5 H 0.2336 -0.4841 0.0199
H6 H 0.2342 -0.4539 -0.0360
H7 H 0.1927 -0.3109 -0.0145
C7 C 0.40059(19) 0.2874(8) 0.15661(16)
C8 C 0.44503(19) 0.3811(8) 0.14342(17)
C9 C 0.4963(2) 0.2768(9) 0.16141(17)
H8 H 0.5271 0.3376 0.1528
C10 C 0.5038(2) 0.0897(9) 0.19110(17)
C11 C 0.4592(2) 0.0044(9) 0.20428(18)
H9 H 0.4641 -0.1225 0.2251
C12 C 0.4073(2) 0.0982(8) 0.18803(17)
C13 C 0.4444(2) 0.5875(8) 0.11218(18)
H10 H 0.4223 0.5581 0.0787
H11 H 0.4819 0.6249 0.1118
H12 H 0.4285 0.7128 0.1259
C14 C 0.5590(2) -0.0219(10) 0.2078(2)
H13 H 0.5714 -0.0205 0.2436
H14 H 0.5855 0.0590 0.1945
H15 H 0.5561 -0.1765 0.1961
C15 C 0.3618(2) -0.0046(9) 0.20638(19)
H16 H 0.3756 -0.1387 0.2256
H17 H 0.3312 -0.0451 0.1784
H18 H 0.3493 0.1035 0.2270
S2 S 0.16547(5) -0.1290(2) 0.12721(5)
O3 O 0.18950(15) -0.1911(6) 0.08821(15)
O4 O 0.16381(15) -0.2972(7) 0.16228(16)
N3 N 0.22731(17) 0.3442(8) 0.21505(15)
H20 H 0.255(2) 0.365(9) 0.2032(19)
N4 N 0.20238(16) 0.0809(7) 0.15427(16)
H21 H 0.226(3) 0.133(16) 0.142(3)
C16 C 0.1905(2) 0.1879(9) 0.19256(18)
C17 C 0.2220(2) 0.4796(10) 0.25148(18)
C18 C 0.1763(2) 0.4547(11) 0.26837(19)
H22 H 0.1711 0.5464 0.2941
C19 C 0.1382(2) 0.2945(11) 0.24741(19)
H23 H 0.1067 0.2774 0.2591
C20 C 0.1444(2) 0.1578(10) 0.20995(18)
H24 H 0.1180 0.0463 0.1964
C21 C 0.2664(2) 0.6453(12) 0.2709(2)
H25 H 0.3005 0.5666 0.2863
H26 H 0.2562 0.7409 0.2951
H27 H 0.2715 0.7375 0.2439
C22 C 0.0982(2) -0.0312(8) 0.10014(17)
C23 C 0.0922(2) 0.1519(8) 0.06779(17)
C24 C 0.03959(19) 0.2290(8) 0.04676(18)
H28 H 0.0348 0.3529 0.0251
C25 C -0.0063(2) 0.1334(9) 0.05597(17)
C26 C 0.0013(2) -0.0470(9) 0.08678(17)
H29 H -0.0301 -0.1153 0.0928
C27 C 0.0527(2) -0.1363(8) 0.10983(18)
C28 C 0.1387(2) 0.2645(9) 0.0530(2)
H30 H 0.1241 0.3852 0.0298
H31 H 0.1574 0.1550 0.0375
H32 H 0.1647 0.3264 0.0821
C29 C 0.0540(2) -0.3360(9) 0.1427(2)
H33 H 0.0712 -0.4623 0.1306
H34 H 0.0165 -0.3760 0.1427
H35 H 0.0751 -0.2991 0.1761
C30 C -0.0628(2) 0.2266(10) 0.03263(19)
H36 H -0.0906 0.1236 0.0382
H37 H -0.0677 0.2445 -0.0027
H38 H -0.0667 0.3720 0.0472
C31 C 0.5272(2) 0.5268(8) 0.54934(18)
H39 H 0.5457 0.5441 0.5830
C32 C 0.5234(2) 0.7043(8) 0.51698(17)
H40 H 0.5393 0.8447 0.5282
C33 C 0.4962(2) 0.6733(8) 0.46812(17)
H41 H 0.4936 0.7947 0.4460
C31B C 0.4728(2) 0.4732(8) 0.45066(18)
H39B H 0.4543 0.4559 0.4170
C32B C 0.4766(2) 0.2957(8) 0.48302(17)
H40B H 0.4607 0.1553 0.4718
C33B C 0.5038(2) 0.3267(8) 0.53188(17)
H41B H 0.5064 0.2053 0.5540
I1 I 0.271549(14) 0.18510(6) 0.382662(13)
I2 I 0.171176(16) 0.36284(6) 0.405141(15)
I3 I 0.031020(16) -0.35306(7) 0.290901(14)
I4 I 0.096989(15) -0.02769(6) 0.346305(14)
I5 I 0.368375(15) 0.01109(7) 0.363854(15)
H19? H 0.270(3) 0.150(17) 0.117(4)
loop_
_geom_bond_atom_site_label_1
_geom_bond_atom_site_label_2
_geom_bond_site_symmetry_1
_geom_bond_site_symmetry_2
I1 I2 1_555 1_555
I2 I4 1_555 1_555
I3 I4 1_555 1_555
I5 I1 1_555 1_555
S1 O1 1_555 1_555
O2 S1 1_555 1_555
N1 H1 1_555 1_555
N2 S1 1_555 1_555
C1 N1 1_555 1_555
C2 N1 1_555 1_555
C3 C2 1_555 1_555
H2 C3 1_555 1_555
C4 C3 1_555 1_555
H3 C4 1_555 1_555
C5 C1 1_555 1_555
H4 C5 1_555 1_555
C6 C2 1_555 1_555
H5 C6 1_555 1_555
H6 C6 1_555 1_555
H7 C6 1_555 1_555
C7 S1 1_555 1_555
C8 C7 1_555 1_555
C9 C8 1_555 1_555
H8 C9 1_555 1_555
C10 C9 1_555 1_555
C11 C10 1_555 1_555
H9 C11 1_555 1_555
C12 C7 1_555 1_555
C13 C8 1_555 1_555
H10 C13 1_555 1_555
H11 C13 1_555 1_555
H12 C13 1_555 1_555
C14 C10 1_555 1_555
H13 C14 1_555 1_555
H14 C14 1_555 1_555
H15 C14 1_555 1_555
C15 C12 1_555 1_555
H16 C15 1_555 1_555
H17 C15 1_555 1_555
H18 C15 1_555 1_555
S2 O3 1_555 1_555
O4 S2 1_555 1_555
N3 H20 1_555 1_555
N4 S2 1_555 1_555
H21 N4 1_555 1_555
C16 N3 1_555 1_555
C17 N3 1_555 1_555
C18 C17 1_555 1_555
H22 C18 1_555 1_555
C19 C18 1_555 1_555
H23 C19 1_555 1_555
C20 C16 1_555 1_555
H24 C20 1_555 1_555
C21 C17 1_555 1_555
H25 C21 1_555 1_555
H26 C21 1_555 1_555
H27 C21 1_555 1_555
C22 S2 1_555 1_555
C23 C22 1_555 1_555
C24 C23 1_555 1_555
H28 C24 1_555 1_555
C25 C24 1_555 1_555
C26 C25 1_555 1_555
H29 C26 1_555 1_555
C27 C22 1_555 1_555
C28 C23 1_555 1_555
H30 C28 1_555 1_555
H31 C28 1_555 1_555
H32 C28 1_555 1_555
C29 C27 1_555 1_555
H33 C29 1_555 1_555
H34 C29 1_555 1_555
H35 C29 1_555 1_555
C30 C25 1_555 1_555
H36 C30 1_555 1_555
H37 C30 1_555 1_555
H38 C30 1_555 1_555
C31 H39 1_555 1_555
C32 C31 1_555 1_555
H40 C32 1_555 1_555
C33 C32 1_555 1_555
H41 C33 1_555 1_555
C31B C33 1_555 1_555
H39B C31B 1_555 1_555
C32B C31B 1_555 1_555
H40B C32B 1_555 1_555
C33B C31 1_555 1_555
H41B C33B 1_555 1_555
N2 C1 1_555 1_555
C4 C5 1_555 1_555
C11 C12 1_555 1_555
N4 C16 1_555 1_555
C19 C20 1_555 1_555
C26 C27 1_555 1_555
C32B C33B 1_555 1_555

#END
