
#######################################################################
#
#                 Cambridge Crystallographic Data Centre
#                                CCDC 
#
#######################################################################
#
# If this CIF has been generated from an entry in the Cambridge 
# Structural Database, then it will include bibliographic, chemical, 
# crystal, experimental, refinement or atomic coordinate data resulting 
# from the CCDC's data processing and validation procedures.
#
#######################################################################

data_SOCVIR
_chemical_formula_moiety         'C15 H19 N2 O2 S1 1+,I3 1-'
_chemical_name_systematic        
'2-methyl-6-(((2,4,6-trimethylphenyl)sulfonyl)amino)pyridinium triiodide'
_symmetry_cell_setting           triclinic
_symmetry_space_group_name_H-M   'P -1'
_symmetry_Int_Tables_number      2
_space_group_name_Hall           '-P 1'
loop_
_symmetry_equiv_pos_site_id
_symmetry_equiv_pos_as_xyz
1 x,y,z
2 -x,-y,-z
_cell_length_a                   8.5794(7)
_cell_length_b                   11.5623(10)
_cell_length_c                   12.2139(10)
_cell_angle_alpha                113.8862(12)
_cell_angle_beta                 107.7636(12)
_cell_angle_gamma                90.7049(14)
_cell_volume                     1042.09
_exptl_crystal_colour            brown
_exptl_crystal_description       brick
_chemical_melting_point          '384-386 K'
_cell_formula_units_Z            2
loop_
_atom_site_label
_atom_site_type_symbol
_atom_site_fract_x
_atom_site_fract_y
_atom_site_fract_z
S1 S 0.55641(11) 0.31893(9) 0.31471(8)
O1 O 0.7232(3) 0.2952(3) 0.3310(2)
O2 O 0.5209(3) 0.4452(2) 0.3376(2)
N1 N 0.3661(4) 0.2582(3) 0.5423(3)
H1 H 0.4438 0.2166 0.5688
N2 N 0.5147(4) 0.2831(3) 0.4229(3)
H2 H 0.6040 0.2509 0.4566
C1 C 0.3721(4) 0.2963(3) 0.4527(3)
C2 C 0.2383(4) 0.2665(3) 0.5869(3)
C3 C 0.1031(4) 0.3138(4) 0.5352(3)
H3 H 0.0101 0.3199 0.5629
C4 C 0.1052(4) 0.3527(3) 0.4412(3)
H4 H 0.0123 0.3859 0.4056
C5 C 0.2370(4) 0.3445(3) 0.3987(3)
H5 H 0.2362 0.3709 0.3343
C6 C 0.2556(5) 0.2204(4) 0.6875(4)
H6 H 0.2679 0.1297 0.6541
H7 H 0.1568 0.2312 0.7127
H8 H 0.3536 0.2703 0.7617
C7 C 0.4167(4) 0.2075(3) 0.1673(3)
C8 C 0.3113(4) 0.2494(3) 0.0810(3)
C9 C 0.1981(4) 0.1559(4) -0.0307(3)
H9 H 0.1270 0.1818 -0.0903
C10 C 0.1850(4) 0.0271(4) -0.0583(3)
C11 C 0.2948(4) -0.0107(3) 0.0257(3)
H10 H 0.2895 -0.0994 0.0055
C12 C 0.4122(4) 0.0759(4) 0.1381(3)
C13 C 0.3130(5) 0.3860(4) 0.0972(4)
H11 H 0.2422 0.3872 0.0178
H12 H 0.4266 0.4247 0.1180
H13 H 0.2714 0.4349 0.1662
C14 C 0.0541(5) -0.0703(4) -0.1770(4)
H14 H -0.0426 -0.0878 -0.1561
H15 H 0.0989 -0.1497 -0.2108
H16 H 0.0209 -0.0365 -0.2411
C15 C 0.5240(5) 0.0207(4) 0.2206(4)
H17 H 0.4744 0.0168 0.2817
H18 H 0.6325 0.0752 0.2667
H19 H 0.5373 -0.0658 0.1669
I1 I 0.74853(3) 0.12363(3) 0.59983(2)
I2 I 0.79107(3) 0.29259(2) 0.87929(2)
I3 I 0.83631(4) 0.43119(3) 1.13764(3)
loop_
_geom_bond_atom_site_label_1
_geom_bond_atom_site_label_2
_geom_bond_site_symmetry_1
_geom_bond_site_symmetry_2
S1 O1 1_555 1_555
O2 S1 1_555 1_555
N1 H1 1_555 1_555
N2 S1 1_555 1_555
H2 N2 1_555 1_555
C1 N1 1_555 1_555
C2 N1 1_555 1_555
C3 C2 1_555 1_555
H3 C3 1_555 1_555
C4 C3 1_555 1_555
H4 C4 1_555 1_555
C5 C1 1_555 1_555
H5 C5 1_555 1_555
C6 C2 1_555 1_555
H6 C6 1_555 1_555
H7 C6 1_555 1_555
H8 C6 1_555 1_555
C7 S1 1_555 1_555
C8 C7 1_555 1_555
C9 C8 1_555 1_555
H9 C9 1_555 1_555
C10 C9 1_555 1_555
C11 C10 1_555 1_555
H10 C11 1_555 1_555
C12 C7 1_555 1_555
C13 C8 1_555 1_555
H11 C13 1_555 1_555
H12 C13 1_555 1_555
H13 C13 1_555 1_555
C14 C10 1_555 1_555
H14 C14 1_555 1_555
H15 C14 1_555 1_555
H16 C14 1_555 1_555
C15 C12 1_555 1_555
H17 C15 1_555 1_555
H18 C15 1_555 1_555
H19 C15 1_555 1_555
I1 I2 1_555 1_555
I2 I3 1_555 1_555
N2 C1 1_555 1_555
C4 C5 1_555 1_555
C11 C12 1_555 1_555

#END
