
#######################################################################
#
#                 Cambridge Crystallographic Data Centre
#                                CCDC 
#
#######################################################################
#
# If this CIF has been generated from an entry in the Cambridge 
# Structural Database, then it will include bibliographic, chemical, 
# crystal, experimental, refinement or atomic coordinate data resulting 
# from the CCDC's data processing and validation procedures.
#
#######################################################################

data_SOCVOX
_chemical_formula_moiety         'C15 H19 N2 O2 S1 1+,0.5(C6 H6),0.5(I4 2-)'
_chemical_name_systematic        
'2-methyl-6-(((2,4,6-trimethylphenyl)sulfonyl)amino)pyridinium tetraiodide benzene solvate'
_symmetry_cell_setting           triclinic
_symmetry_space_group_name_H-M   'P -1'
_symmetry_Int_Tables_number      2
_space_group_name_Hall           '-P 1'
loop_
_symmetry_equiv_pos_site_id
_symmetry_equiv_pos_as_xyz
1 x,y,z
2 -x,-y,-z
_cell_length_a                   8.8726(8)
_cell_length_b                   10.5812(9)
_cell_length_c                   11.2061(10)
_cell_angle_alpha                94.0410(10)
_cell_angle_beta                 104.4000(10)
_cell_angle_gamma                90.7170(10)
_cell_volume                     1015.98
_exptl_crystal_colour            brown
_exptl_crystal_description       plate
_cell_formula_units_Z            2
loop_
_atom_site_label
_atom_site_type_symbol
_atom_site_fract_x
_atom_site_fract_y
_atom_site_fract_z
I1 I 0.801187(18) -0.194517(14) 0.247129(14)
I2 I 0.926682(18) -0.416886(15) 0.065843(15)
I1A I 1.198813(18) -0.805483(14) -0.247129(14)
I2A I 1.073318(18) -0.583114(15) -0.065843(15)
S1 S 0.70894(7) 0.22960(6) 0.12829(5)
O1 O 0.85726(19) 0.19324(16) 0.11180(16)
O2 O 0.6018(2) 0.28499(16) 0.03073(15)
N1 N 0.4430(2) -0.04569(19) 0.18457(18)
H1 H 0.523(3) -0.095(2) 0.208(2)
N2 N 0.6272(2) 0.09206(19) 0.1484(2)
H2 H 0.682(3) 0.034(3) 0.165(3)
C1 C 0.4734(3) 0.0695(2) 0.1483(2)
C2 C 0.3002(3) -0.0866(2) 0.1907(2)
C3 C 0.1777(3) -0.0071(2) 0.1578(2)
H3 H 0.0760 -0.0329 0.1613
C4 C 0.2044(3) 0.1111(2) 0.1195(2)
H4 H 0.1199 0.1661 0.0967
C5 C 0.3518(3) 0.1505(2) 0.1139(2)
H5 H 0.3689 0.2313 0.0869
C6 C 0.2872(3) -0.2177(2) 0.2291(2)
H6 H 0.2713 -0.2785 0.1566
H7 H 0.1987 -0.2241 0.2663
H8 H 0.3831 -0.2367 0.2896
C7 C 0.7321(3) 0.3232(2) 0.2698(2)
C8 C 0.6401(3) 0.4308(2) 0.2779(2)
C9 C 0.6616(3) 0.4950(2) 0.3938(2)
H9 H 0.6007 0.5669 0.4014
C10 C 0.7674(3) 0.4597(2) 0.4990(2)
C11 C 0.8586(3) 0.3561(2) 0.4864(2)
H10 H 0.9337 0.3325 0.5571
C12 C 0.8440(3) 0.2856(2) 0.3741(2)
C13 C 0.5296(3) 0.4875(2) 0.1723(2)
H11 H 0.4908 0.5667 0.2024
H12 H 0.4420 0.4278 0.1368
H13 H 0.5842 0.5049 0.1089
C14 C 0.7844(3) 0.5322(2) 0.6223(2)
H14 H 0.7203 0.6073 0.6116
H15 H 0.8937 0.5585 0.6570
H16 H 0.7502 0.4780 0.6786
C15 C 0.9522(3) 0.1768(2) 0.3727(2)
H17 H 0.8910 0.0989 0.3387
H18 H 1.0125 0.1659 0.4571
H19 H 1.0232 0.1950 0.3212
C16 C 0.5408(3) 0.1174(3) 0.4685(2)
H20 H 0.5684 0.1982 0.4470
C17 C 0.3480(3) -0.0271(3) 0.5043(3)
H21 H 0.2439 -0.0454 0.5073
C18 C 0.3885(3) 0.0912(3) 0.4724(2)
H22 H 0.3121 0.1538 0.4534
C16A C 0.4592(3) -0.1174(3) 0.5315(2)
H20A H 0.4316 -0.1982 0.5530
C17A C 0.6520(3) 0.0271(3) 0.4957(3)
H21A H 0.7561 0.0454 0.4927
C18A C 0.6115(3) -0.0912(3) 0.5276(2)
H22A H 0.6879 -0.1538 0.5466
loop_
_geom_bond_atom_site_label_1
_geom_bond_atom_site_label_2
_geom_bond_site_symmetry_1
_geom_bond_site_symmetry_2
I1 I2 1_555 1_555
I2 I2A 1_555 1_555
S1 O1 1_555 1_555
O2 S1 1_555 1_555
N1 H1 1_555 1_555
N2 S1 1_555 1_555
H2 N2 1_555 1_555
C1 N1 1_555 1_555
C2 N1 1_555 1_555
C3 C2 1_555 1_555
H3 C3 1_555 1_555
C4 C3 1_555 1_555
H4 C4 1_555 1_555
C5 C1 1_555 1_555
H5 C5 1_555 1_555
C6 C2 1_555 1_555
H6 C6 1_555 1_555
H7 C6 1_555 1_555
H8 C6 1_555 1_555
C7 S1 1_555 1_555
C8 C7 1_555 1_555
C9 C8 1_555 1_555
H9 C9 1_555 1_555
C10 C9 1_555 1_555
C11 C10 1_555 1_555
H10 C11 1_555 1_555
C12 C7 1_555 1_555
C13 C8 1_555 1_555
H11 C13 1_555 1_555
H12 C13 1_555 1_555
H13 C13 1_555 1_555
C14 C10 1_555 1_555
H14 C14 1_555 1_555
H15 C14 1_555 1_555
H16 C14 1_555 1_555
C15 C12 1_555 1_555
H17 C15 1_555 1_555
H18 C15 1_555 1_555
H19 C15 1_555 1_555
C16 H20 1_555 1_555
C17 H21 1_555 1_555
C18 C16 1_555 1_555
H22 C18 1_555 1_555
I1A I2A 1_555 1_555
C16A C17 1_555 1_555
H20A C16A 1_555 1_555
C17A C16 1_555 1_555
H21A C17A 1_555 1_555
C18A C16A 1_555 1_555
H22A C18A 1_555 1_555
N2 C1 1_555 1_555
C4 C5 1_555 1_555
C11 C12 1_555 1_555
C17 C18 1_555 1_555
C17A C18A 1_555 1_555

#END
