
#######################################################################
#
#                 Cambridge Crystallographic Data Centre
#                                CCDC 
#
#######################################################################
#
# If this CIF has been generated from an entry in the Cambridge 
# Structural Database, then it will include bibliographic, chemical, 
# crystal, experimental, refinement or atomic coordinate data resulting 
# from the CCDC's data processing and validation procedures.
#
#######################################################################

data_SODBET
_chemical_formula_moiety         'C43 H26 I3 N5,2(C9 H10 O2)'
_chemical_name_systematic        
'5-(4-Pyridyl)-10,15,20-tris(4-iodophenyl)porphyrin ethyl benzoate solvate'
_symmetry_cell_setting           triclinic
_symmetry_space_group_name_H-M   'P 1'
_symmetry_Int_Tables_number      1
_space_group_name_Hall           'P 1'
loop_
_symmetry_equiv_pos_site_id
_symmetry_equiv_pos_as_xyz
1 x,y,z
_cell_length_a                   10.9529(4)
_cell_length_b                   11.0322(4)
_cell_length_c                   12.6814(4)
_cell_angle_alpha                83.148(2)
_cell_angle_beta                 66.664(2)
_cell_angle_gamma                69.3550(14)
_cell_volume                     1316.28
_exptl_crystal_colour            purple
_exptl_crystal_description       prism
_cell_formula_units_Z            1
_exptl_crystal_recrystallization_method 'ethyl benzoate/chloroform'
loop_
_atom_site_label
_atom_site_type_symbol
_atom_site_fract_x
_atom_site_fract_y
_atom_site_fract_z
C1 C 0.56541(6) 0.55033(6) 0.21211(6)
C2 C 0.67780(7) 0.60788(7) 0.18181(7)
H1 H 0.6762 0.6779 0.2199
C3 C 0.78504(8) 0.53824(8) 0.08676(7)
H2 H 0.8731 0.5512 0.0461
C4 C 0.74008(7) 0.44204(7) 0.05962(6)
C5 C 0.81891(8) 0.35531(8) -0.03157(6)
C6 C 0.78075(7) 0.26191(7) -0.06784(6)
C7 C 0.86376(7) 0.16973(8) -0.15716(6)
H3 H 0.9585 0.1588 -0.2074
C8 C 0.78587(8) 0.09809(8) -0.16014(6)
H4 H 0.8155 0.0315 -0.2149
C9 C 0.64902(8) 0.14138(8) -0.06461(6)
C10 C 0.54208(7) 0.08859(8) -0.03182(7)
C11 C 0.41404(7) 0.13012(7) 0.06142(7)
C12 C 0.30395(7) 0.07597(7) 0.09223(6)
H5 H 0.3057 0.0062 0.0537
C13 C 0.20102(7) 0.13966(7) 0.18252(7)
H6 H 0.1150 0.1229 0.2232
C14 C 0.24073(7) 0.24266(7) 0.21115(6)
C15 C 0.15668(7) 0.32586(7) 0.30789(6)
C16 C 0.20132(7) 0.41704(7) 0.33815(6)
C17 C 0.11711(8) 0.51171(8) 0.43157(6)
H7 H 0.0242 0.5197 0.4843
C18 C 0.19038(8) 0.58639(8) 0.43213(6)
H8 H 0.1587 0.6563 0.4842
C19 C 0.32531(7) 0.54137(7) 0.33986(6)
C20 C 0.43541(7) 0.59490(7) 0.30690(6)
N1 N 0.60497(6) 0.45583(7) 0.13852(6)
H9 H 0.5539 0.4092 0.1394
N2 N 0.65068(6) 0.24497(6) -0.01211(5)
N3 N 0.37236(6) 0.23434(6) 0.13578(5)
H11 H 0.4211 0.2837 0.1339
N4 N 0.32738(6) 0.44021(6) 0.28470(5)
C21 C 0.96576(7) 0.35668(7) -0.10215(6)
C22 C 1.07101(9) 0.30930(10) -0.05959(8)
H13 H 1.0502 0.2785 0.0166
C23 C 1.20885(9) 0.30618(9) -0.12805(8)
H14 H 1.2804 0.2727 -0.0975
N5 N 1.24286(7) 0.35073(7) -0.23888(7)
C24 C 1.14060(7) 0.39704(8) -0.27845(7)
H15 H 1.1621 0.4298 -0.3540
C25 C 1.00185(8) 0.39997(8) -0.21397(7)
H16 H 0.9325 0.4316 -0.2469
C26 C 0.57158(8) -0.02732(8) -0.10460(7)
C27 C 0.6005(2) -0.1479(1) -0.0479(1)
H17 H 0.5961 -0.1532 0.0288
C28 C 0.6371(2) -0.2618(2) -0.1156(1)
H18 H 0.6607 -0.3463 -0.0856
C31 C 0.63641(8) -0.24237(8) -0.23054(7)
C32 C 0.6213(2) -0.1358(2) -0.2726(1)
H21 H 0.6351 -0.1303 -0.3516
C33 C 0.5824(2) -0.0114(2) -0.2099(1)
H22 H 0.5673 0.0708 -0.2447
I1 I 0.683871(7) -0.407156(6) -0.329844(6)
C36 C 0.01358(7) 0.32676(7) 0.37938(6)
C37 C -0.02077(7) 0.28187(8) 0.48396(6)
H25 H 0.0497 0.2480 0.5156
C38 C -0.15881(8) 0.28226(8) 0.55081(7)
H26 H -0.1806 0.2522 0.6272
C39 C -0.25870(7) 0.32435(7) 0.50785(7)
C40 C -0.22780(8) 0.37144(9) 0.40042(7)
H27 H -0.2998 0.4051 0.3704
C41 C -0.09087(7) 0.37109(8) 0.33299(6)
H28 H -0.0690 0.4007 0.2564
I2 I -0.468329(6) 0.331553(6) 0.610274(6)
C42 C 0.40648(7) 0.71197(8) 0.37279(7)
C45 C 0.39003(18) 0.82927(17) 0.32642(15)
H31 H 0.4026 0.8361 0.2477
C46 C 0.35593(17) 0.94103(17) 0.38611(14)
H32 H 0.3379 1.0230 0.3510
C47 C 0.34854(9) 0.93099(8) 0.49951(7)
C50 C 0.38585(18) 0.80357(17) 0.54783(16)
H35 H 0.3960 0.7897 0.6198
C51 C 0.40493(16) 0.70636(16) 0.48092(13)
H36 H 0.4191 0.6231 0.5140
I3 I 0.308978(7) 1.091260(6) 0.596349(6)
H10? H 0.5805 0.2919 0.0468
H12? H 0.3985 0.3968 0.2243
C29? C 0.6890(2) -0.1372(2) -0.1078(1)
H19? H 0.7449 -0.1372 -0.0665
C30? C 0.7216(2) -0.2472(2) -0.1738(1)
H20? H 0.8003 -0.3225 -0.1786
C34? C 0.5338(2) -0.1344(2) -0.2340(1)
H23? H 0.4782 -0.1329 -0.2760
C35? C 0.5081(2) -0.0221(2) -0.1747(2)
H24? H 0.4442 0.0582 -0.1856
C43? C 0.30257(18) 0.82374(18) 0.37830(15)
H29? H 0.2443 0.8302 0.3374
C44? C 0.27592(19) 0.93448(18) 0.44384(16)
H30? H 0.2012 1.0120 0.4447
C48? C 0.46621(17) 0.80658(17) 0.50833(15)
H33? H 0.5163 0.7986 0.5566
C49? C 0.48870(16) 0.71140(16) 0.43924(14)
H34? H 0.5670 0.6351 0.4330
loop_
_geom_bond_atom_site_label_1
_geom_bond_atom_site_label_2
_geom_bond_site_symmetry_1
_geom_bond_site_symmetry_2
C1 C2 1_555 1_555
C2 H1 1_555 1_555
C3 C2 1_555 1_555
H2 C3 1_555 1_555
C4 C3 1_555 1_555
C5 C4 1_555 1_555
C6 C5 1_555 1_555
C7 C6 1_555 1_555
H3 C7 1_555 1_555
C8 C7 1_555 1_555
H4 C8 1_555 1_555
C9 C8 1_555 1_555
C10 C9 1_555 1_555
C11 C10 1_555 1_555
C12 C11 1_555 1_555
H5 C12 1_555 1_555
C13 C12 1_555 1_555
H6 C13 1_555 1_555
C14 C13 1_555 1_555
C15 C14 1_555 1_555
C16 C15 1_555 1_555
C17 C16 1_555 1_555
H7 C17 1_555 1_555
C18 C17 1_555 1_555
H8 C18 1_555 1_555
C19 C18 1_555 1_555
C20 C1 1_555 1_555
N1 C1 1_555 1_555
H9 N1 1_555 1_555
N2 C6 1_555 1_555
N3 C11 1_555 1_555
H11 N3 1_555 1_555
N4 C16 1_555 1_555
C21 C5 1_555 1_555
C22 C21 1_555 1_555
H13 C22 1_555 1_555
C23 C22 1_555 1_555
H14 C23 1_555 1_555
N5 C23 1_555 1_555
C24 N5 1_555 1_555
H15 C24 1_555 1_555
C25 C21 1_555 1_555
H16 C25 1_555 1_555
C26 C10 1_555 1_555
C27 C26 1_555 1_555
H17 C27 1_555 1_555
C28 C27 1_555 1_555
H18 C28 1_555 1_555
C31 C28 1_555 1_555
C32 C31 1_555 1_555
H21 C32 1_555 1_555
C33 C26 1_555 1_555
H22 C33 1_555 1_555
I1 C31 1_555 1_555
C36 C15 1_555 1_555
C37 C36 1_555 1_555
H25 C37 1_555 1_555
C38 C37 1_555 1_555
H26 C38 1_555 1_555
C39 C38 1_555 1_555
C40 C39 1_555 1_555
H27 C40 1_555 1_555
C41 C36 1_555 1_555
H28 C41 1_555 1_555
I2 C39 1_555 1_555
C42 C20 1_555 1_555
C45 C42 1_555 1_555
H31 C45 1_555 1_555
C46 C45 1_555 1_555
H32 C46 1_555 1_555
C47 C46 1_555 1_555
C50 C47 1_555 1_555
H35 C50 1_555 1_555
C51 C42 1_555 1_555
H36 C51 1_555 1_555
I3 C47 1_555 1_555
C4 N1 1_555 1_555
C9 N2 1_555 1_555
C14 N3 1_555 1_555
C19 C20 1_555 1_555
C19 N4 1_555 1_555
C24 C25 1_555 1_555
C32 C33 1_555 1_555
C40 C41 1_555 1_555
C50 C51 1_555 1_555

#END
