
#######################################################################
#
#                 Cambridge Crystallographic Data Centre
#                                CCDC 
#
#######################################################################
#
# If this CIF has been generated from an entry in the Cambridge 
# Structural Database, then it will include bibliographic, chemical, 
# crystal, experimental, refinement or atomic coordinate data resulting 
# from the CCDC's data processing and validation procedures.
#
#######################################################################

data_SODCEU
_chemical_formula_moiety         'C42 H26 I2 N6,2(C7 H6 O2)'
_chemical_name_systematic        
'5,15-bis(4-Pyridyl)-10,20-bis(4-iodophenyl)porphyrin benzoic acid solvate'
_symmetry_cell_setting           monoclinic
_symmetry_space_group_name_H-M   'P 21/n'
_symmetry_Int_Tables_number      14
_space_group_name_Hall           '-P 2yn'
loop_
_symmetry_equiv_pos_site_id
_symmetry_equiv_pos_as_xyz
1 x,y,z
2 1/2-x,1/2+y,1/2-z
3 -x,-y,-z
4 1/2+x,1/2-y,1/2+z
_cell_length_a                   6.39930(10)
_cell_length_b                   16.6146(4)
_cell_length_c                   21.4865(5)
_cell_angle_alpha                90
_cell_angle_beta                 90.0560(11)
_cell_angle_gamma                90
_cell_volume                     2284.48
_exptl_crystal_colour            purple
_exptl_crystal_description       needle
_cell_formula_units_Z            2
loop_
_atom_site_label
_atom_site_type_symbol
_atom_site_fract_x
_atom_site_fract_y
_atom_site_fract_z
C1 C 0.8227(4) 0.65631(19) 0.44582(14)
C2 C 0.6527(4) 0.6877(2) 0.40802(14)
H1 H 0.6291 0.7424 0.3973
C3 C 0.5355(5) 0.62424(19) 0.39122(14)
H2 H 0.4121 0.6255 0.3666
C4 C 0.6335(4) 0.55337(19) 0.41790(14)
C5 C 0.5580(4) 0.47473(19) 0.40890(14)
C6 C 0.6400(4) 0.40526(18) 0.43681(14)
C7 C 0.5814(4) 0.32371(19) 0.42372(15)
H3 H 0.4733 0.3070 0.3962
C8 C 0.7073(4) 0.2744(2) 0.45753(15)
H4 H 0.7013 0.2173 0.4581
C9 C 0.8504(4) 0.32313(18) 0.49203(14)
C10 C 0.9827(4) 0.70435(18) 0.47158(13)
N1 N 0.8075(4) 0.57430(16) 0.45186(11)
N2 N 0.8016(4) 0.40162(15) 0.47886(12)
H5 H 0.8649 0.4437 0.4950
C11 C 0.3883(4) 0.46237(18) 0.36213(14)
C12 C 0.2022(5) 0.4233(2) 0.37808(15)
H6 H 0.1782 0.4081 0.4201
C13 C 0.0514(5) 0.40624(19) 0.33301(16)
H7 H -0.0742 0.3794 0.3441
C14 C 0.0871(5) 0.4289(2) 0.27210(15)
I1 I -0.13133(3) 0.397991(14) 0.203079(10)
C15 C 0.2680(5) 0.4703(2) 0.25548(15)
H8 H 0.2887 0.4873 0.2137
C16 C 0.4175(5) 0.48636(19) 0.30058(14)
H9 H 0.5417 0.5141 0.2894
C17 C 0.9742(4) 0.79336(18) 0.46052(13)
C18 C 0.8049(5) 0.8399(2) 0.47942(14)
H10 H 0.6941 0.8158 0.5022
C19 C 0.7976(5) 0.9204(2) 0.46519(15)
H11 H 0.6792 0.9506 0.4780
N3 N 0.9508(4) 0.95868(16) 0.43383(12)
C20 C 1.1181(5) 0.9149(2) 0.41799(15)
H12 H 1.2307 0.9411 0.3975
C21 C 1.1351(5) 0.8335(2) 0.42991(15)
H13 H 1.2564 0.8049 0.4173
C1B C 1.1773(4) 0.34369(19) 0.55418(14)
C2B C 1.3473(4) 0.3123(2) 0.59198(14)
H1B H 1.3709 0.2576 0.6027
C3B C 1.4645(5) 0.37576(19) 0.60878(14)
H2B H 1.5879 0.3745 0.6334
C4B C 1.3665(4) 0.44663(19) 0.58210(14)
C5B C 1.4420(4) 0.52527(19) 0.59110(14)
C6B C 1.3600(4) 0.59474(18) 0.56319(14)
C7B C 1.4186(4) 0.67629(19) 0.57628(15)
H3B H 1.5267 0.6930 0.6038
C8B C 1.2927(4) 0.7256(2) 0.54247(15)
H4B H 1.2987 0.7827 0.5419
C9B C 1.1496(4) 0.67687(18) 0.50797(14)
C10B C 1.0173(4) 0.29565(18) 0.52842(13)
N1B N 1.1925(4) 0.42570(16) 0.54814(11)
N2B N 1.1984(4) 0.59838(15) 0.52114(12)
H5B H 1.1351 0.5563 0.5050
C11B C 1.6117(4) 0.53763(18) 0.63787(14)
C12B C 1.7978(5) 0.5767(2) 0.62192(15)
H6B H 1.8218 0.5919 0.5799
C13B C 1.9486(5) 0.59376(19) 0.66699(16)
H7B H 2.0742 0.6206 0.6559
C14B C 1.9129(5) 0.5711(2) 0.72790(15)
I1B I 2.13133(3) 0.602009(14) 0.796921(10)
C15B C 1.7320(5) 0.5297(2) 0.74452(15)
H8B H 1.7113 0.5127 0.7863
C16B C 1.5825(5) 0.51364(19) 0.69942(14)
H9B H 1.4583 0.4859 0.7106
C17B C 1.0258(4) 0.20664(18) 0.53948(13)
C18B C 1.1951(5) 0.1601(2) 0.52058(14)
H10B H 1.3059 0.1842 0.4978
C19B C 1.2024(5) 0.0796(2) 0.53481(15)
H11B H 1.3208 0.0494 0.5220
N3B N 1.0492(4) 0.04132(16) 0.56617(12)
C20B C 0.8819(5) 0.0851(2) 0.58201(15)
H12B H 0.7693 0.0589 0.6025
C21B C 0.8649(5) 0.1665(2) 0.57009(15)
H13B H 0.7436 0.1951 0.5827
C22 C 0.6016(5) 0.1566(2) 0.27006(17)
H14 H 0.7416 0.1404 0.2624
C23 C 0.4896(6) 0.1975(2) 0.22467(17)
H15 H 0.5528 0.2087 0.1856
C24 C 0.2854(6) 0.2222(2) 0.23595(18)
H16 H 0.2104 0.2512 0.2051
C25 C 0.1917(5) 0.2044(2) 0.29249(16)
H17 H 0.0520 0.2209 0.3003
C26 C 0.3007(5) 0.1630(2) 0.33717(16)
H18 H 0.2348 0.1503 0.3755
C27 C 0.5066(5) 0.13930(19) 0.32712(15)
C28 C 0.6182(5) 0.09543(19) 0.37716(16)
O1 O 0.8221(3) 0.08556(14) 0.36765(12)
H19 H 0.8751 0.0616 0.3983
O2 O 0.5307(4) 0.07138(17) 0.42408(12)
loop_
_geom_bond_atom_site_label_1
_geom_bond_atom_site_label_2
_geom_bond_site_symmetry_1
_geom_bond_site_symmetry_2
C1 C2 1_555 1_555
C2 H1 1_555 1_555
C3 C2 1_555 1_555
H2 C3 1_555 1_555
C4 C3 1_555 1_555
C5 C4 1_555 1_555
C6 C5 1_555 1_555
C7 C6 1_555 1_555
H3 C7 1_555 1_555
C8 C7 1_555 1_555
H4 C8 1_555 1_555
C9 C8 1_555 1_555
C10 C1 1_555 1_555
N1 C1 1_555 1_555
N2 C6 1_555 1_555
H5 N2 1_555 1_555
C11 C5 1_555 1_555
C12 C11 1_555 1_555
H6 C12 1_555 1_555
C13 C12 1_555 1_555
H7 C13 1_555 1_555
C14 C13 1_555 1_555
I1 C14 1_555 1_555
C15 C14 1_555 1_555
H8 C15 1_555 1_555
C16 C11 1_555 1_555
H9 C16 1_555 1_555
C17 C10 1_555 1_555
C18 C17 1_555 1_555
H10 C18 1_555 1_555
C19 C18 1_555 1_555
H11 C19 1_555 1_555
N3 C19 1_555 1_555
C20 N3 1_555 1_555
H12 C20 1_555 1_555
C21 C17 1_555 1_555
H13 C21 1_555 1_555
C22 H14 1_555 1_555
C23 C22 1_555 1_555
H15 C23 1_555 1_555
C24 C23 1_555 1_555
H16 C24 1_555 1_555
C25 C24 1_555 1_555
H17 C25 1_555 1_555
C26 C25 1_555 1_555
H18 C26 1_555 1_555
C27 C22 1_555 1_555
C28 C27 1_555 1_555
O1 C28 1_555 1_555
H19 O1 1_555 1_555
O2 C28 1_555 1_555
C1B C2B 1_555 1_555
C2B H1B 1_555 1_555
C3B C2B 1_555 1_555
H2B C3B 1_555 1_555
C4B C3B 1_555 1_555
C5B C4B 1_555 1_555
C6B C5B 1_555 1_555
C7B C6B 1_555 1_555
H3B C7B 1_555 1_555
C8B C7B 1_555 1_555
H4B C8B 1_555 1_555
C9B C10 1_555 1_555
C10B C9 1_555 1_555
N1B C1B 1_555 1_555
N2B C6B 1_555 1_555
H5B N2B 1_555 1_555
C11B C5B 1_555 1_555
C12B C11B 1_555 1_555
H6B C12B 1_555 1_555
C13B C12B 1_555 1_555
H7B C13B 1_555 1_555
C14B C13B 1_555 1_555
I1B C14B 1_555 1_555
C15B C14B 1_555 1_555
H8B C15B 1_555 1_555
C16B C11B 1_555 1_555
H9B C16B 1_555 1_555
C17B C10B 1_555 1_555
C18B C17B 1_555 1_555
H10B C18B 1_555 1_555
C19B C18B 1_555 1_555
H11B C19B 1_555 1_555
N3B C19B 1_555 1_555
C20B N3B 1_555 1_555
H12B C20B 1_555 1_555
C21B C17B 1_555 1_555
H13B C21B 1_555 1_555
C4 N1 1_555 1_555
C9 N2 1_555 1_555
C15 C16 1_555 1_555
C20 C21 1_555 1_555
C26 C27 1_555 1_555
C1B C10B 1_555 1_555
C4B N1B 1_555 1_555
C8B C9B 1_555 1_555
C9B N2B 1_555 1_555
C15B C16B 1_555 1_555
C20B C21B 1_555 1_555

#END
