
#######################################################################
#
#                 Cambridge Crystallographic Data Centre
#                                CCDC 
#
#######################################################################
#
# If this CIF has been generated from an entry in the Cambridge 
# Structural Database, then it will include bibliographic, chemical, 
# crystal, experimental, refinement or atomic coordinate data resulting 
# from the CCDC's data processing and validation procedures.
#
#######################################################################

data_SODDOG
_chemical_formula_moiety         'C17 H16 O1 S2'
_chemical_name_systematic        2,7-bis(2-Thienylmethylene)cycloheptanone
_symmetry_cell_setting           orthorhombic
_symmetry_space_group_name_H-M   'P b c n'
_symmetry_Int_Tables_number      60
_space_group_name_Hall           '-P 2n 2ab'
loop_
_symmetry_equiv_pos_site_id
_symmetry_equiv_pos_as_xyz
1 x,y,z
2 1/2+x,1/2-y,-z
3 -x,y,1/2-z
4 1/2-x,1/2-y,1/2+z
5 -x,-y,-z
6 1/2-x,1/2+y,z
7 x,-y,1/2+z
8 1/2+x,1/2+y,1/2-z
_cell_length_a                   16.383(2)
_cell_length_b                   11.6119(14)
_cell_length_c                   7.8213(7)
_cell_angle_alpha                90
_cell_angle_beta                 90
_cell_angle_gamma                90
_cell_volume                     1487.91
_exptl_crystal_colour            colorless
_exptl_crystal_description       block
_chemical_melting_point          '144-146 deg.C'
_cell_formula_units_Z            4
_exptl_crystal_recrystallization_method methanol
loop_
_atom_site_label
_atom_site_type_symbol
_atom_site_fract_x
_atom_site_fract_y
_atom_site_fract_z
C1 C 0.6448(2) 0.2975(4) 0.3099(5)
H1 H 0.6039 0.2459 0.3403
C2 C 0.6311(2) 0.3968(4) 0.2293(5)
H2 H 0.5793 0.4217 0.1976
C3 C 0.70218(17) 0.4600(3) 0.1968(4)
H3 H 0.7028 0.5309 0.1413
C4 C 0.77149(18) 0.4051(2) 0.2567(3)
C5 C 0.85397(16) 0.4491(2) 0.2406(3)
H4 H 0.8575 0.5190 0.1831
C6 C 0.92557(17) 0.4079(2) 0.2929(3)
C7 C 0.9388(2) 0.2988(3) 0.3929(4)
H5 H 0.8902 0.2839 0.4604
H6 H 0.9836 0.3112 0.4719
C8 C 0.9573(2) 0.1929(3) 0.2876(5)
H7 H 0.9180 0.1876 0.1952
H8 H 0.9508 0.1252 0.3589
C9 C 1.0000 0.4747(3) 0.2500
O1 O 1.0000 0.5804(2) 0.2500
S1 S 0.74489(6) 0.27612(8) 0.35060(12)
C1B C 1.3552(2) 0.2975(4) 0.1901(5)
H1B H 1.3961 0.2459 0.1597
C2B C 1.3689(2) 0.3968(4) 0.2707(5)
H2B H 1.4207 0.4217 0.3024
C3B C 1.29782(17) 0.4600(3) 0.3032(4)
H3B H 1.2972 0.5309 0.3587
C4B C 1.22851(18) 0.4051(2) 0.2433(3)
C5B C 1.14603(16) 0.4491(2) 0.2594(3)
H4B H 1.1425 0.5190 0.3169
C6B C 1.07443(17) 0.4079(2) 0.2071(3)
C7B C 1.0612(2) 0.2988(3) 0.1071(4)
H5B H 1.1098 0.2839 0.0396
H6B H 1.0164 0.3112 0.0281
C8B C 1.0427(2) 0.1929(3) 0.2124(5)
H7B H 1.0820 0.1876 0.3048
H8B H 1.0492 0.1252 0.1411
S1B S 1.25511(6) 0.27612(8) 0.14940(12)
loop_
_geom_bond_atom_site_label_1
_geom_bond_atom_site_label_2
_geom_bond_site_symmetry_1
_geom_bond_site_symmetry_2
C1 H1 1_555 1_555
C2 C1 1_555 1_555
H2 C2 1_555 1_555
C3 C2 1_555 1_555
H3 C3 1_555 1_555
C4 C3 1_555 1_555
C5 C4 1_555 1_555
H4 C5 1_555 1_555
C6 C5 1_555 1_555
C7 C6 1_555 1_555
H5 C7 1_555 1_555
H6 C7 1_555 1_555
C8 C7 1_555 1_555
H7 C8 1_555 1_555
H8 C8 1_555 1_555
C9 C6 1_555 1_555
O1 C9 1_555 1_555
S1 C1 1_555 1_555
C1B H1B 1_555 1_555
C2B C1B 1_555 1_555
H2B C2B 1_555 1_555
C3B C2B 1_555 1_555
H3B C3B 1_555 1_555
C4B C3B 1_555 1_555
C5B C4B 1_555 1_555
H4B C5B 1_555 1_555
C6B C9 1_555 1_555
C7B C6B 1_555 1_555
H5B C7B 1_555 1_555
H6B C7B 1_555 1_555
C8B C8 1_555 1_555
H7B C8B 1_555 1_555
H8B C8B 1_555 1_555
S1B C1B 1_555 1_555
C4 S1 1_555 1_555
C4B S1B 1_555 1_555
C5B C6B 1_555 1_555
C7B C8B 1_555 1_555

#END
