
#######################################################################
#
#                 Cambridge Crystallographic Data Centre
#                                CCDC 
#
#######################################################################
#
# If this CIF has been generated from an entry in the Cambridge 
# Structural Database, then it will include bibliographic, chemical, 
# crystal, experimental, refinement or atomic coordinate data resulting 
# from the CCDC's data processing and validation procedures.
#
#######################################################################

data_SODFEY
_chemical_formula_moiety         'C24 H28 N4 O4'
_chemical_name_systematic        
'Diethyl 2,3-bis(methyl(phenyl)carbonohydrazonoyl)but-2-enedioate'
_symmetry_cell_setting           orthorhombic
_symmetry_space_group_name_H-M   'P b c a'
_symmetry_Int_Tables_number      61
_space_group_name_Hall           '-P 2ac 2ab'
loop_
_symmetry_equiv_pos_site_id
_symmetry_equiv_pos_as_xyz
1 x,y,z
2 1/2-x,-y,1/2+z
3 -x,1/2+y,1/2-z
4 1/2+x,1/2-y,-z
5 -x,-y,-z
6 1/2+x,y,1/2-z
7 x,1/2-y,1/2+z
8 1/2-x,1/2+y,z
_cell_length_a                   15.922(3)
_cell_length_b                   8.0335(16)
_cell_length_c                   18.655(4)
_cell_angle_alpha                90
_cell_angle_beta                 90
_cell_angle_gamma                90
_cell_volume                     2386.15
_exptl_crystal_colour            red
_exptl_crystal_description       block
_cell_formula_units_Z            4
loop_
_atom_site_label
_atom_site_type_symbol
_atom_site_fract_x
_atom_site_fract_y
_atom_site_fract_z
O1 O 0.17130(5) 0.95435(11) 0.47833(5)
O2 O 0.08700(5) 0.74716(11) 0.44282(5)
N1 N 0.03970(6) 1.17222(12) 0.29214(5)
N2 N 0.05365(6) 1.08830(12) 0.35347(5)
C1 C 0.10279(7) 1.15535(14) 0.23935(6)
C2 C 0.09073(9) 1.21349(17) 0.16961(7)
H1 H 0.0404 1.2705 0.1574
C3 C 0.15209(11) 1.18797(19) 0.11824(7)
H2 H 0.1438 1.2298 0.0711
C4 C 0.22471(10) 1.1034(2) 0.13400(8)
H3 H 0.2658 1.0845 0.0980
C5 C 0.23704(9) 1.04608(18) 0.20314(7)
H4 H 0.2870 0.9872 0.2145
C6 C 0.17769(8) 1.07337(16) 0.25580(7)
H5 H 0.1878 1.0363 0.3034
C7 C -0.03664(8) 1.26664(17) 0.28254(7)
H6 H -0.0408 1.3515 0.3201
H7 H -0.0851 1.1917 0.2855
H8 H -0.0358 1.3208 0.2355
C8 C 0.00195(7) 1.09756(14) 0.40658(6)
H9 H -0.0473 1.1640 0.4044
C9 C 0.02301(7) 1.00148(13) 0.46959(6)
C10 C 0.10276(7) 0.90180(14) 0.46439(6)
C11 C 0.1581(6) 0.6302(13) 0.4421(8)
H10 H 0.1836 0.6218 0.4904
H11 H 0.2017 0.6679 0.4079
C12 C 0.1231(7) 0.4658(13) 0.4194(9)
H12 H 0.1689 0.3854 0.4140
H13 H 0.0938 0.4784 0.3735
H14 H 0.0835 0.4258 0.4558
O1D O -0.17130(5) 1.04565(11) 0.52167(5)
O2D O -0.08700(5) 1.25284(11) 0.55718(5)
N1D N -0.03970(6) 0.82778(12) 0.70786(5)
N2D N -0.05365(6) 0.91170(12) 0.64653(5)
C1D C -0.10279(7) 0.84465(14) 0.76065(6)
C2D C -0.09073(9) 0.78651(17) 0.83039(7)
H1D H -0.0404 0.7295 0.8426
C3D C -0.15209(11) 0.81203(19) 0.88176(7)
H2D H -0.1438 0.7702 0.9289
C4D C -0.22471(10) 0.8966(2) 0.86600(8)
H3D H -0.2658 0.9155 0.9020
C5D C -0.23704(9) 0.95392(18) 0.79686(7)
H4D H -0.2870 1.0128 0.7855
C6D C -0.17769(8) 0.92663(16) 0.74420(7)
H5D H -0.1878 0.9637 0.6966
C7D C 0.03664(8) 0.73336(17) 0.71746(7)
H6D H 0.0408 0.6485 0.6799
H7D H 0.0851 0.8083 0.7145
H8D H 0.0358 0.6792 0.7645
C8D C -0.00195(7) 0.90244(14) 0.59342(6)
H9D H 0.0473 0.8360 0.5956
C9D C -0.02301(7) 0.99852(13) 0.53041(6)
C10D C -0.10276(7) 1.09820(14) 0.53561(6)
C11D C -0.1581(6) 1.3698(13) 0.5579(8)
H10D H -0.1836 1.3782 0.5096
H11D H -0.2017 1.3321 0.5921
C12D C -0.1231(7) 1.5342(13) 0.5806(9)
H12D H -0.1689 1.6146 0.5860
H13D H -0.0938 1.5216 0.6265
H14D H -0.0835 1.5742 0.5442
C13? C 0.1622(7) 0.6478(17) 0.4289(12)
H15? H 0.1926 0.6258 0.4743
H16? H 0.2003 0.7077 0.3959
C14? C 0.1334(9) 0.4862(17) 0.3956(10)
H17? H 0.1802 0.4070 0.3948
H18? H 0.1143 0.5070 0.3465
H19? H 0.0871 0.4399 0.4238
loop_
_geom_bond_atom_site_label_1
_geom_bond_atom_site_label_2
_geom_bond_site_symmetry_1
_geom_bond_site_symmetry_2
O1 C10 1_555 1_555
O2 C10 1_555 1_555
N1 N2 1_555 1_555
N2 C8 1_555 1_555
C1 N1 1_555 1_555
C2 C1 1_555 1_555
H1 C2 1_555 1_555
C3 C2 1_555 1_555
H2 C3 1_555 1_555
C4 C3 1_555 1_555
H3 C4 1_555 1_555
C5 C4 1_555 1_555
H4 C5 1_555 1_555
C6 C1 1_555 1_555
H5 C6 1_555 1_555
C7 N1 1_555 1_555
H6 C7 1_555 1_555
H7 C7 1_555 1_555
H8 C7 1_555 1_555
C8 H9 1_555 1_555
C9 C8 1_555 1_555
C10 C9 1_555 1_555
C11 O2 1_555 1_555
H10 C11 1_555 1_555
H11 C11 1_555 1_555
C12 C11 1_555 1_555
H12 C12 1_555 1_555
H13 C12 1_555 1_555
H14 C12 1_555 1_555
O1D C10D 1_555 1_555
O2D C10D 1_555 1_555
N1D N2D 1_555 1_555
N2D C8D 1_555 1_555
C1D N1D 1_555 1_555
C2D C1D 1_555 1_555
H1D C2D 1_555 1_555
C3D C2D 1_555 1_555
H2D C3D 1_555 1_555
C4D C3D 1_555 1_555
H3D C4D 1_555 1_555
C5D C4D 1_555 1_555
H4D C5D 1_555 1_555
C6D C1D 1_555 1_555
H5D C6D 1_555 1_555
C7D N1D 1_555 1_555
H6D C7D 1_555 1_555
H7D C7D 1_555 1_555
H8D C7D 1_555 1_555
C8D H9D 1_555 1_555
C9D C9 1_555 1_555
C10D C9D 1_555 1_555
C11D O2D 1_555 1_555
H10D C11D 1_555 1_555
H11D C11D 1_555 1_555
C12D C11D 1_555 1_555
H12D C12D 1_555 1_555
H13D C12D 1_555 1_555
H14D C12D 1_555 1_555
C5 C6 1_555 1_555
C5D C6D 1_555 1_555
C8D C9D 1_555 1_555

#END
