
#######################################################################
#
#                 Cambridge Crystallographic Data Centre
#                                CCDC 
#
#######################################################################
#
# If this CIF has been generated from an entry in the Cambridge 
# Structural Database, then it will include bibliographic, chemical, 
# crystal, experimental, refinement or atomic coordinate data resulting 
# from the CCDC's data processing and validation procedures.
#
#######################################################################

data_SODFEY01
_chemical_formula_moiety         'C24 H28 N4 O4'
_chemical_name_systematic        
'Diethyl 2,3-bis(methyl(phenyl)carbonohydrazonoyl)but-2-enedioate'
_symmetry_cell_setting           orthorhombic
_symmetry_space_group_name_H-M   'P b c a'
_symmetry_Int_Tables_number      61
_space_group_name_Hall           '-P 2ac 2ab'
loop_
_symmetry_equiv_pos_site_id
_symmetry_equiv_pos_as_xyz
1 x,y,z
2 1/2-x,-y,1/2+z
3 -x,1/2+y,1/2-z
4 1/2+x,1/2-y,-z
5 -x,-y,-z
6 1/2+x,y,1/2-z
7 x,1/2-y,1/2+z
8 1/2-x,1/2+y,z
_cell_length_a                   15.922(3)
_cell_length_b                   8.0335(16)
_cell_length_c                   18.655(4)
_cell_angle_alpha                90
_cell_angle_beta                 90
_cell_angle_gamma                90
_cell_volume                     2386.15
_cell_formula_units_Z            4
loop_
_atom_site_label
_atom_site_type_symbol
_atom_site_fract_x
_atom_site_fract_y
_atom_site_fract_z
O1 O 0.17133(8) 0.95426(18) 0.47837(8)
O2 O 0.08710(8) 0.74707(18) 0.44287(9)
N1 N 0.03971(11) 1.1722(2) 0.29217(8)
N2 N 0.05369(10) 1.08832(19) 0.35352(8)
C1 C 0.10284(12) 1.1552(2) 0.23921(10)
C2 C 0.09068(14) 1.2133(3) 0.16963(11)
H1 H 0.0404 1.2702 0.1575
C3 C 0.15217(17) 1.1879(3) 0.11810(12)
H2 H 0.1439 1.2296 0.0710
C4 C 0.22486(16) 1.1033(3) 0.13411(12)
H3 H 0.2661 1.0844 0.0982
C5 C 0.23698(15) 1.0463(3) 0.20324(12)
H4 H 0.2870 0.9876 0.2147
C6 C 0.17755(13) 1.0735(3) 0.25581(11)
H5 H 0.1876 1.0365 0.3034
C7 C -0.03662(14) 1.2668(3) 0.28279(11)
H6 H -0.0705 1.2601 0.3266
H7 H -0.0686 1.2211 0.2425
H8 H -0.0226 1.3834 0.2730
C8 C 0.00185(12) 1.0975(2) 0.40655(10)
H9 H -0.0475 1.1636 0.4042
C9 C 0.02292(11) 1.0017(2) 0.46964(10)
C10 C 0.10269(12) 0.9016(2) 0.46443(9)
C11 C 0.1584(5) 0.6302(12) 0.4435(7)
H10 H 0.1824 0.6212 0.4923
H11 H 0.2030 0.6680 0.4103
C12 C 0.1235(7) 0.4667(13) 0.4199(9)
H12 H 0.1679 0.3823 0.4211
H13 H 0.1019 0.4769 0.3709
H14 H 0.0778 0.4337 0.4520
O1D O -0.17133(8) 1.04574(18) 0.52163(8)
O2D O -0.08710(8) 1.25293(18) 0.55713(9)
N1D N -0.03971(11) 0.8278(2) 0.70783(8)
N2D N -0.05369(10) 0.91168(19) 0.64648(8)
C1D C -0.10284(12) 0.8448(2) 0.76079(10)
C2D C -0.09068(14) 0.7867(3) 0.83037(11)
H1D H -0.0404 0.7298 0.8425
C3D C -0.15217(17) 0.8121(3) 0.88190(12)
H2D H -0.1439 0.7704 0.9290
C4D C -0.22486(16) 0.8967(3) 0.86589(12)
H3D H -0.2661 0.9156 0.9018
C5D C -0.23698(15) 0.9537(3) 0.79676(12)
H4D H -0.2870 1.0124 0.7853
C6D C -0.17755(13) 0.9265(3) 0.74419(11)
H5D H -0.1876 0.9635 0.6966
C7D C 0.03662(14) 0.7332(3) 0.71721(11)
H6D H 0.0705 0.7399 0.6734
H7D H 0.0686 0.7789 0.7575
H8D H 0.0226 0.6166 0.7270
C8D C -0.00185(12) 0.9025(2) 0.59345(10)
H9D H 0.0475 0.8364 0.5958
C9D C -0.02292(11) 0.9983(2) 0.53036(10)
C10D C -0.10269(12) 1.0984(2) 0.53557(9)
C11D C -0.1584(5) 1.3698(12) 0.5565(7)
H10D H -0.1824 1.3788 0.5077
H11D H -0.2030 1.3320 0.5897
C12D C -0.1235(7) 1.5333(13) 0.5801(9)
H12D H -0.1679 1.6177 0.5789
H13D H -0.1019 1.5231 0.6291
H14D H -0.0778 1.5663 0.5480
C13? C 0.1621(7) 0.6505(17) 0.4248(10)
H15? H 0.1970 0.6332 0.4680
H16? H 0.1961 0.7108 0.3887
C14? C 0.1338(9) 0.4851(17) 0.3950(9)
H17? H 0.1830 0.4156 0.3849
H18? H 0.1022 0.5033 0.3506
H19? H 0.0978 0.4290 0.4301
loop_
_geom_bond_atom_site_label_1
_geom_bond_atom_site_label_2
_geom_bond_site_symmetry_1
_geom_bond_site_symmetry_2
O1 C10 1_555 1_555
O2 C10 1_555 1_555
N1 N2 1_555 1_555
N2 C8 1_555 1_555
C1 N1 1_555 1_555
C2 C1 1_555 1_555
H1 C2 1_555 1_555
C3 C2 1_555 1_555
H2 C3 1_555 1_555
C4 C3 1_555 1_555
H3 C4 1_555 1_555
C5 C4 1_555 1_555
H4 C5 1_555 1_555
C6 C1 1_555 1_555
H5 C6 1_555 1_555
C7 N1 1_555 1_555
H6 C7 1_555 1_555
H7 C7 1_555 1_555
H8 C7 1_555 1_555
C8 H9 1_555 1_555
C9 C8 1_555 1_555
C10 C9 1_555 1_555
C11 O2 1_555 1_555
H10 C11 1_555 1_555
H11 C11 1_555 1_555
C12 C11 1_555 1_555
H12 C12 1_555 1_555
H13 C12 1_555 1_555
H14 C12 1_555 1_555
O1D C10D 1_555 1_555
O2D C10D 1_555 1_555
N1D N2D 1_555 1_555
N2D C8D 1_555 1_555
C1D N1D 1_555 1_555
C2D C1D 1_555 1_555
H1D C2D 1_555 1_555
C3D C2D 1_555 1_555
H2D C3D 1_555 1_555
C4D C3D 1_555 1_555
H3D C4D 1_555 1_555
C5D C4D 1_555 1_555
H4D C5D 1_555 1_555
C6D C1D 1_555 1_555
H5D C6D 1_555 1_555
C7D N1D 1_555 1_555
H6D C7D 1_555 1_555
H7D C7D 1_555 1_555
H8D C7D 1_555 1_555
C8D H9D 1_555 1_555
C9D C9 1_555 1_555
C10D C9D 1_555 1_555
C11D O2D 1_555 1_555
H10D C11D 1_555 1_555
H11D C11D 1_555 1_555
C12D C11D 1_555 1_555
H12D C12D 1_555 1_555
H13D C12D 1_555 1_555
H14D C12D 1_555 1_555
C5 C6 1_555 1_555
C5D C6D 1_555 1_555
C8D C9D 1_555 1_555

#END
