
#######################################################################
#
#                 Cambridge Crystallographic Data Centre
#                                CCDC 
#
#######################################################################
#
# If this CIF has been generated from an entry in the Cambridge 
# Structural Database, then it will include bibliographic, chemical, 
# crystal, experimental, refinement or atomic coordinate data resulting 
# from the CCDC's data processing and validation procedures.
#
#######################################################################

data_SODTUC
_chemical_formula_moiety         'C23 H19 Cl2 N3 O2 S1'
_chemical_name_systematic        
'ethyl 5-(4-chlorophenyl)-1-(4-(4-chlorophenyl)-5-methyl-1,3-thiazol-2-yl)-4-methyl-1H-pyrazole-3-carboxylate'
_symmetry_cell_setting           triclinic
_symmetry_space_group_name_H-M   'P -1'
_symmetry_Int_Tables_number      2
_space_group_name_Hall           '-P 1'
loop_
_symmetry_equiv_pos_site_id
_symmetry_equiv_pos_as_xyz
1 x,y,z
2 -x,-y,-z
_cell_length_a                   7.398(4)
_cell_length_b                   12.986(7)
_cell_length_c                   24.091(13)
_cell_angle_alpha                91.991(7)
_cell_angle_beta                 94.452(7)
_cell_angle_gamma                92.203(7)
_cell_volume                     2304.09
_exptl_crystal_colour            colorless
_exptl_crystal_description       Block
_cell_formula_units_Z            4
loop_
_atom_site_label
_atom_site_type_symbol
_atom_site_fract_x
_atom_site_fract_y
_atom_site_fract_z
S1 S 0.05611(16) 0.53297(9) 0.79908(5)
Cl1 Cl -0.3246(3) 0.29519(18) 1.09545(6)
Cl2 Cl 0.2340(3) 0.00984(16) 0.98341(9)
N1 N 0.1241(4) 0.4001(3) 0.87295(14)
N2 N 0.3322(4) 0.4004(2) 0.80377(13)
N3 N 0.4031(5) 0.4562(3) 0.76363(15)
O1 O 0.7865(5) 0.3921(3) 0.69161(14)
O2 O 0.6244(5) 0.5306(3) 0.68947(15)
C1 C -0.2170(6) 0.4703(4) 0.97096(18)
H1 H -0.2451 0.5363 0.9602
C2 C -0.2863(7) 0.4345(5) 1.01847(19)
H2 H -0.3629 0.4741 1.0384
C3 C -0.2392(7) 0.3390(5) 1.03549(19)
C4 C -0.1213(7) 0.2828(4) 1.0075(2)
H3 H -0.0839 0.2199 1.0205
C5 C -0.0582(6) 0.3204(3) 0.95944(18)
H4 H 0.0216 0.2812 0.9405
C6 C -0.1077(5) 0.4133(3) 0.93822(18)
C7 C -0.0313(5) 0.4483(3) 0.88716(18)
C8 C -0.0873(6) 0.5232(3) 0.85242(19)
C9 C 0.1779(5) 0.4363(3) 0.82769(16)
C10 C 0.4276(5) 0.3141(3) 0.81573(16)
C11 C 0.5693(5) 0.3163(3) 0.78143(17)
C12 C 0.5470(6) 0.4039(3) 0.75057(16)
C13 C 0.3787(5) 0.2388(3) 0.85686(13)
C14 C 0.2401(6) 0.1654(3) 0.84497(19)
H5 H 0.1771 0.1627 0.8100
C15 C 0.1935(7) 0.0966(4) 0.8836(2)
H6 H 0.0978 0.0486 0.8752
C16 C 0.2882(6) 0.0986(4) 0.9346(2)
C17 C 0.4246(7) 0.1730(4) 0.9490(2)
H7 H 0.4838 0.1766 0.9845
C18 C 0.4706(6) 0.2417(4) 0.90943(15)
H8 H 0.5645 0.2907 0.9181
C19 C 0.6650(7) 0.4391(4) 0.70810(19)
C20 C 0.7388(10) 0.5688(4) 0.6492(3)
H9 H 0.7124 0.5303 0.6141
H10 H 0.8648 0.5599 0.6617
C21 C 0.7083(12) 0.6791(5) 0.6412(4)
H11 H 0.7828 0.7039 0.6132
H12 H 0.7394 0.7173 0.6757
H13 H 0.5829 0.6877 0.6296
C22 C 0.7120(7) 0.2376(4) 0.7790(2)
H14 H 0.6911 0.1856 0.8054
H15 H 0.8296 0.2706 0.7879
H16 H 0.7067 0.2063 0.7422
C23 C -0.2526(7) 0.5930(4) 0.8475(3)
H17 H -0.3167 0.5777 0.8796
H18 H -0.3323 0.5803 0.8144
H19 H -0.2110 0.6640 0.8499
S2 S 1.10336(12) 0.22999(7) 0.68359(4)
Cl3 Cl 1.92294(19) 0.36320(10) 0.46435(6)
Cl4 Cl 1.85302(17) -0.09592(12) 0.51879(6)
N4 N 1.3685(4) 0.1475(2) 0.63856(11)
N5 N 1.2121(4) 0.0327(2) 0.69389(11)
N6 N 1.0812(4) 0.0231(2) 0.72955(11)
O3 O 0.9406(7) -0.2090(3) 0.7888(2)
O4 O 0.8511(4) -0.0526(3) 0.80096(14)
C24 C 1.4627(6) 0.3479(3) 0.53907(16)
H20 H 1.3491 0.3760 0.5344
C25 C 1.5919(6) 0.3737(3) 0.50378(17)
H21 H 1.5660 0.4191 0.4755
C26 C 1.7606(6) 0.3322(3) 0.51024(16)
C27 C 1.7982(5) 0.2638(3) 0.55112(16)
H22 H 1.9115 0.2350 0.5550
C28 C 1.6681(5) 0.2378(3) 0.58630(15)
H23 H 1.6942 0.1908 0.6138
C29 C 1.4978(5) 0.2802(2) 0.58186(14)
C30 C 1.3598(5) 0.2488(3) 0.61983(13)
C31 C 1.2278(5) 0.3044(3) 0.64065(15)
C32 C 1.2428(4) 0.1306(3) 0.67067(13)
C33 C 1.2914(5) -0.0584(3) 0.68272(15)
C34 C 1.2106(5) -0.1304(3) 0.71398(18)
C35 C 1.0816(5) -0.0767(3) 0.74174(15)
C36 C 1.4332(4) -0.0692(2) 0.64324(14)
C37 C 1.3851(5) -0.0998(3) 0.58849(16)
H24 H 1.2637 -0.1153 0.5773
C38 C 1.5126(5) -0.1080(3) 0.55016(17)
H25 H 1.4783 -0.1282 0.5133
C39 C 1.6906(5) -0.0858(3) 0.56729(16)
C40 C 1.7434(5) -0.0548(3) 0.62075(19)
H26 H 1.8652 -0.0391 0.6313
C41 C 1.6154(4) -0.0469(3) 0.65926(17)
H27 H 1.6511 -0.0265 0.6960
C42 C 0.9528(6) -0.1207(4) 0.77956(19)
C43 C 0.7347(10) -0.0960(7) 0.8409(3)
H28 H 0.7962 -0.0906 0.8780
H29 H 0.7063 -0.1683 0.8314
C44 C 0.5666(11) -0.0384(7) 0.8395(4)
H30 H 0.4883 -0.0662 0.8657
H31 H 0.5062 -0.0445 0.8027
H32 H 0.5959 0.0329 0.8491
C45 C 1.2540(8) -0.2416(4) 0.7156(2)
H33 H 1.3488 -0.2550 0.6917
H34 H 1.1477 -0.2834 0.7033
H35 H 1.2935 -0.2579 0.7531
C46 C 1.1815(6) 0.4151(3) 0.63266(18)
H36 H 1.2618 0.4458 0.6079
H37 H 1.1947 0.4522 0.6680
H38 H 1.0585 0.4178 0.6170
loop_
_geom_bond_atom_site_label_1
_geom_bond_atom_site_label_2
_geom_bond_site_symmetry_1
_geom_bond_site_symmetry_2
S1 C8 1_555 1_555
Cl1 C3 1_555 1_555
Cl2 C16 1_555 1_555
N1 C7 1_555 1_555
N2 N3 1_555 1_555
N3 C12 1_555 1_555
O1 C19 1_555 1_555
O2 C19 1_555 1_555
C1 H1 1_555 1_555
C2 C1 1_555 1_555
H2 C2 1_555 1_555
C3 C2 1_555 1_555
C4 C3 1_555 1_555
H3 C4 1_555 1_555
C5 C4 1_555 1_555
H4 C5 1_555 1_555
C6 C1 1_555 1_555
C7 C6 1_555 1_555
C8 C7 1_555 1_555
C9 S1 1_555 1_555
C10 N2 1_555 1_555
C11 C10 1_555 1_555
C12 C11 1_555 1_555
C13 C10 1_555 1_555
C14 C13 1_555 1_555
H5 C14 1_555 1_555
C15 C14 1_555 1_555
H6 C15 1_555 1_555
C16 C15 1_555 1_555
C17 C16 1_555 1_555
H7 C17 1_555 1_555
C18 C13 1_555 1_555
H8 C18 1_555 1_555
C19 C12 1_555 1_555
C20 O2 1_555 1_555
H9 C20 1_555 1_555
H10 C20 1_555 1_555
C21 C20 1_555 1_555
H11 C21 1_555 1_555
H12 C21 1_555 1_555
H13 C21 1_555 1_555
C22 C11 1_555 1_555
H14 C22 1_555 1_555
H15 C22 1_555 1_555
H16 C22 1_555 1_555
C23 C8 1_555 1_555
H17 C23 1_555 1_555
H18 C23 1_555 1_555
H19 C23 1_555 1_555
S2 C31 1_555 1_555
Cl3 C26 1_555 1_555
Cl4 C39 1_555 1_555
N4 C30 1_555 1_555
N5 N6 1_555 1_555
N6 C35 1_555 1_555
O3 C42 1_555 1_555
O4 C42 1_555 1_555
C24 H20 1_555 1_555
C25 C24 1_555 1_555
H21 C25 1_555 1_555
C26 C25 1_555 1_555
C27 C26 1_555 1_555
H22 C27 1_555 1_555
C28 C27 1_555 1_555
H23 C28 1_555 1_555
C29 C24 1_555 1_555
C30 C29 1_555 1_555
C31 C30 1_555 1_555
C32 S2 1_555 1_555
C33 N5 1_555 1_555
C34 C33 1_555 1_555
C35 C34 1_555 1_555
C36 C33 1_555 1_555
C37 C36 1_555 1_555
H24 C37 1_555 1_555
C38 C37 1_555 1_555
H25 C38 1_555 1_555
C39 C38 1_555 1_555
C40 C39 1_555 1_555
H26 C40 1_555 1_555
C41 C36 1_555 1_555
H27 C41 1_555 1_555
C42 C35 1_555 1_555
C43 O4 1_555 1_555
H28 C43 1_555 1_555
H29 C43 1_555 1_555
C44 C43 1_555 1_555
H30 C44 1_555 1_555
H31 C44 1_555 1_555
H32 C44 1_555 1_555
C45 C34 1_555 1_555
H33 C45 1_555 1_555
H34 C45 1_555 1_555
H35 C45 1_555 1_555
C46 C31 1_555 1_555
H36 C46 1_555 1_555
H37 C46 1_555 1_555
H38 C46 1_555 1_555
N1 C9 1_555 1_555
N2 C9 1_555 1_555
C5 C6 1_555 1_555
C17 C18 1_555 1_555
N4 C32 1_555 1_555
N5 C32 1_555 1_555
C28 C29 1_555 1_555
C40 C41 1_555 1_555

#END
