
#######################################################################
#
#                 Cambridge Crystallographic Data Centre
#                                CCDC 
#
#######################################################################
#
# If this CIF has been generated from an entry in the Cambridge 
# Structural Database, then it will include bibliographic, chemical, 
# crystal, experimental, refinement or atomic coordinate data resulting 
# from the CCDC's data processing and validation procedures.
#
#######################################################################

data_SOFKOO
_chemical_formula_moiety         'C16 H15 N1 O5'
_chemical_name_systematic        
"Methyl 3-hydroxy-4,5-dimethyl-4'-nitro-2-biphenylcarboxylate"
_symmetry_cell_setting           monoclinic
_symmetry_space_group_name_H-M   'P 21/n'
_symmetry_Int_Tables_number      14
_space_group_name_Hall           '-P 2yn'
loop_
_symmetry_equiv_pos_site_id
_symmetry_equiv_pos_as_xyz
1 x,y,z
2 1/2-x,1/2+y,1/2-z
3 -x,-y,-z
4 1/2+x,1/2-y,1/2+z
_cell_length_a                   13.539(3)
_cell_length_b                   7.6294(15)
_cell_length_c                   13.870(3)
_cell_angle_alpha                90
_cell_angle_beta                 98.50(3)
_cell_angle_gamma                90
_cell_volume                     1416.96
_exptl_crystal_colour            colorless
_exptl_crystal_description       prism
_cell_formula_units_Z            4
loop_
_atom_site_label
_atom_site_type_symbol
_atom_site_fract_x
_atom_site_fract_y
_atom_site_fract_z
C1 C 0.61316(14) 0.3566(3) 0.58019(13)
C2 C 0.62141(14) 0.3600(3) 0.48013(14)
C3 C 0.70157(15) 0.4408(3) 0.44432(14)
C4 C 0.77536(14) 0.5178(3) 0.51044(15)
C5 C 0.76700(14) 0.5183(3) 0.60986(14)
H1 H 0.8181 0.5724 0.6542
C6 C 0.68695(14) 0.4430(2) 0.64575(13)
C7 C 0.68009(13) 0.4747(2) 0.75056(13)
C8 C 0.75989(14) 0.4357(2) 0.82231(14)
H2 H 0.8183 0.3839 0.8043
C9 C 0.75593(15) 0.4710(3) 0.91967(14)
H3 H 0.8102 0.4421 0.9687
C10 C 0.67118(15) 0.5489(3) 0.94317(13)
C11 C 0.59110(15) 0.5934(3) 0.87393(14)
H4 H 0.5339 0.6491 0.8922
C12 C 0.59597(14) 0.5553(3) 0.77766(14)
H5 H 0.5413 0.5842 0.7291
C13 C 0.53142(14) 0.2511(3) 0.60933(14)
C14 C 0.46318(18) 0.1048(3) 0.73358(17)
H6 H 0.4789 0.0803 0.8035
H7 H 0.4565 -0.0059 0.6973
H8 H 0.4003 0.1703 0.7207
C15 C 0.70428(19) 0.4417(3) 0.33634(16)
H9 H 0.7645 0.5028 0.3230
H10 H 0.6450 0.5020 0.3030
H11 H 0.7051 0.3208 0.3126
C16 C 0.86470(17) 0.6051(3) 0.47733(18)
H12 H 0.8603 0.5936 0.4065
H13 H 0.9260 0.5488 0.5091
H14 H 0.8657 0.7296 0.4949
N1 N 0.66451(14) 0.5818(2) 1.04649(12)
O1 O 0.54258(10) 0.2077(2) 0.70282(10)
O2 O 0.46029(12) 0.2002(3) 0.55299(11)
O3 O 0.55209(13) 0.2834(2) 0.41293(10)
O4 O 0.73119(14) 0.5272(2) 1.10754(11)
O5 O 0.59184(13) 0.6626(2) 1.06602(12)
H15 H 0.503(3) 0.243(5) 0.440(3)
loop_
_geom_bond_atom_site_label_1
_geom_bond_atom_site_label_2
_geom_bond_site_symmetry_1
_geom_bond_site_symmetry_2
C1 C2 1_555 1_555
C2 C3 1_555 1_555
C3 C4 1_555 1_555
C4 C5 1_555 1_555
C5 H1 1_555 1_555
C6 C1 1_555 1_555
C7 C6 1_555 1_555
C8 C7 1_555 1_555
H2 C8 1_555 1_555
C9 C8 1_555 1_555
H3 C9 1_555 1_555
C10 C9 1_555 1_555
C11 C10 1_555 1_555
H4 C11 1_555 1_555
C12 C7 1_555 1_555
H5 C12 1_555 1_555
C13 C1 1_555 1_555
C14 H6 1_555 1_555
H7 C14 1_555 1_555
H8 C14 1_555 1_555
C15 C3 1_555 1_555
H9 C15 1_555 1_555
H10 C15 1_555 1_555
H11 C15 1_555 1_555
C16 C4 1_555 1_555
H12 C16 1_555 1_555
H13 C16 1_555 1_555
H14 C16 1_555 1_555
N1 C10 1_555 1_555
O1 C13 1_555 1_555
O2 C13 1_555 1_555
O3 C2 1_555 1_555
O4 N1 1_555 1_555
O5 N1 1_555 1_555
H15 O3 1_555 1_555
C5 C6 1_555 1_555
C11 C12 1_555 1_555
C14 O1 1_555 1_555

#END
