
#######################################################################
#
#                 Cambridge Crystallographic Data Centre
#                                CCDC 
#
#######################################################################
#
# If this CIF has been generated from an entry in the Cambridge 
# Structural Database, then it will include bibliographic, chemical, 
# crystal, experimental, refinement or atomic coordinate data resulting 
# from the CCDC's data processing and validation procedures.
#
#######################################################################

data_SOFLAB
_chemical_formula_moiety         'C30 H16 S2'
_chemical_name_systematic        
Naphtho(2,1-b)naphtho(1'',2'':4',5')thieno(2',3':3,4)naphtho(1,2-d)thiophene
_symmetry_cell_setting           triclinic
_symmetry_space_group_name_H-M   'P -1'
_symmetry_Int_Tables_number      2
_space_group_name_Hall           '-P 1'
loop_
_symmetry_equiv_pos_site_id
_symmetry_equiv_pos_as_xyz
1 x,y,z
2 -x,-y,-z
_cell_length_a                   7.4572(14)
_cell_length_b                   10.0581(19)
_cell_length_c                   14.328(3)
_cell_angle_alpha                78.549(4)
_cell_angle_beta                 76.326(4)
_cell_angle_gamma                86.313(4)
_cell_volume                     1023.26
_exptl_crystal_colour            yellow
_cell_formula_units_Z            2
loop_
_atom_site_label
_atom_site_type_symbol
_atom_site_fract_x
_atom_site_fract_y
_atom_site_fract_z
S1 S 0.14113(14) 0.54388(10) 1.13566(7)
S2 S 0.29892(14) 0.74780(10) 0.91729(8)
C1 C 0.0988(5) 0.3792(4) 1.1970(3)
C2 C 0.0095(6) 0.3422(5) 1.2968(3)
C3 C -0.0083(6) 0.2097(5) 1.3386(3)
C4 C 0.0779(6) 0.1072(5) 1.2869(3)
C5 C 0.0854(7) -0.0295(6) 1.3344(4)
C6 C 0.1840(8) -0.1249(5) 1.2888(4)
C7 C 0.2857(7) -0.0894(5) 1.1931(4)
C8 C 0.2787(6) 0.0404(4) 1.1436(4)
C9 C 0.1704(5) 0.1421(4) 1.1865(3)
C10 C 0.1624(5) 0.2817(4) 1.1388(3)
C11 C 0.2242(5) 0.3473(4) 1.0360(3)
C12 C 0.2471(5) 0.2951(4) 0.9470(3)
C13 C 0.1727(5) 0.1688(4) 0.9476(3)
C14 C 0.1662(6) 0.1283(4) 0.8631(3)
C15 C 0.2320(6) 0.2119(4) 0.7734(3)
C16 C 0.3021(5) 0.3357(4) 0.7696(3)
C17 C 0.3141(5) 0.3807(4) 0.8549(3)
C18 C 0.3601(5) 0.5202(4) 0.8513(3)
C19 C 0.4333(5) 0.6278(4) 0.7682(3)
C20 C 0.5438(5) 0.6224(4) 0.6723(3)
C21 C 0.6362(5) 0.5041(4) 0.6451(3)
C22 C 0.7431(6) 0.5050(5) 0.5528(3)
C23 C 0.7639(6) 0.6254(5) 0.4836(3)
C24 C 0.6850(6) 0.7423(5) 0.5084(3)
C25 C 0.5767(5) 0.7463(4) 0.6025(3)
C26 C 0.5157(6) 0.8711(4) 0.6321(3)
C27 C 0.4334(6) 0.8772(4) 0.7255(3)
C28 C 0.3947(5) 0.7557(4) 0.7936(3)
C29 C 0.2960(5) 0.5718(4) 0.9363(3)
C30 C 0.2303(5) 0.4869(4) 1.0275(3)
H1 H -0.040(6) 0.418(4) 1.331(3)
H2 H -0.069(7) 0.184(5) 1.404(4)
H3 H 0.032(7) -0.048(5) 1.398(4)
H4 H 0.188(6) -0.216(5) 1.321(3)
H5 H 0.358(7) -0.155(5) 1.165(4)
H6 H 0.348(5) 0.060(4) 1.083(3)
H7 H 0.117(5) 0.115(4) 1.012(3)
H8 H 0.114(6) 0.048(4) 0.866(3)
H9 H 0.223(5) 0.183(4) 0.714(3)
H10 H 0.339(5) 0.393(4) 0.706(3)
H11 H 0.630(5) 0.423(4) 0.691(3)
H12 H 0.803(6) 0.425(4) 0.538(3)
H13 H 0.842(6) 0.629(4) 0.420(3)
H14 H 0.703(6) 0.828(4) 0.461(3)
H15 H 0.539(6) 0.948(4) 0.587(3)
H16 H 0.404(6) 0.963(5) 0.747(3)
loop_
_geom_bond_atom_site_label_1
_geom_bond_atom_site_label_2
_geom_bond_site_symmetry_1
_geom_bond_site_symmetry_2
S1 C1 1_555 1_555
S2 C28 1_555 1_555
C1 C2 1_555 1_555
C2 C3 1_555 1_555
C3 C4 1_555 1_555
C4 C5 1_555 1_555
C5 C6 1_555 1_555
C6 C7 1_555 1_555
C7 C8 1_555 1_555
C8 C9 1_555 1_555
C9 C4 1_555 1_555
C10 C1 1_555 1_555
C11 C10 1_555 1_555
C12 C11 1_555 1_555
C13 C12 1_555 1_555
C14 C13 1_555 1_555
C15 C14 1_555 1_555
C16 C15 1_555 1_555
C17 C12 1_555 1_555
C18 C17 1_555 1_555
C19 C18 1_555 1_555
C20 C19 1_555 1_555
C21 C20 1_555 1_555
C22 C21 1_555 1_555
C23 C22 1_555 1_555
C24 C23 1_555 1_555
C25 C20 1_555 1_555
C26 C25 1_555 1_555
C27 C26 1_555 1_555
C28 C19 1_555 1_555
C29 S2 1_555 1_555
C30 S1 1_555 1_555
H1 C2 1_555 1_555
H2 C3 1_555 1_555
H3 C5 1_555 1_555
H4 C6 1_555 1_555
H5 C7 1_555 1_555
H6 C8 1_555 1_555
H7 C13 1_555 1_555
H8 C14 1_555 1_555
H9 C15 1_555 1_555
H10 C16 1_555 1_555
H11 C21 1_555 1_555
H12 C22 1_555 1_555
H13 C23 1_555 1_555
H14 C24 1_555 1_555
H15 C26 1_555 1_555
H16 C27 1_555 1_555
C9 C10 1_555 1_555
C11 C30 1_555 1_555
C16 C17 1_555 1_555
C18 C29 1_555 1_555
C24 C25 1_555 1_555
C27 C28 1_555 1_555
C29 C30 1_555 1_555

#END
