
#######################################################################
#
#                 Cambridge Crystallographic Data Centre
#                                CCDC 
#
#######################################################################
#
# If this CIF has been generated from an entry in the Cambridge 
# Structural Database, then it will include bibliographic, chemical, 
# crystal, experimental, refinement or atomic coordinate data resulting 
# from the CCDC's data processing and validation procedures.
#
#######################################################################

data_SOFNIL
_chemical_formula_moiety         'C22 H19 N1 O5'
_chemical_name_systematic        
2-Methoxy-1'-methyl-4H-dispiro[chromene-3,3'-pyrrolidine-2',2''-indene]-1'',3'',4-trione
_symmetry_cell_setting           triclinic
_symmetry_space_group_name_H-M   'P -1'
_symmetry_Int_Tables_number      2
_space_group_name_Hall           '-P 1'
loop_
_symmetry_equiv_pos_site_id
_symmetry_equiv_pos_as_xyz
1 x,y,z
2 -x,-y,-z
_cell_length_a                   7.9600(18)
_cell_length_b                   15.677(15)
_cell_length_c                   29.348(28)
_cell_angle_alpha                83.03(3)
_cell_angle_beta                 87.97(2)
_cell_angle_gamma                80.53(4)
_cell_volume                     3585.25
_exptl_crystal_colour            yellow
_exptl_crystal_description       Square
_cell_formula_units_Z            8
loop_
_atom_site_label
_atom_site_type_symbol
_atom_site_fract_x
_atom_site_fract_y
_atom_site_fract_z
O1 O 0.65998(19) 0.66808(9) 0.34391(5)
O4 O 0.7926(2) 0.77164(10) 0.29907(5)
O12 O 0.3781(2) 0.84103(10) 0.44314(5)
O15 O 0.2710(2) 0.71913(10) 0.31045(5)
O20 O 0.7035(2) 0.89674(9) 0.39200(5)
C2 C 0.3706(3) 0.78810(14) 0.41680(7)
C4 C 0.6373(3) 0.75014(14) 0.31541(8)
C5 C 0.3726(3) 0.80777(13) 0.36388(7)
N1 N 0.2618(2) 0.88961(11) 0.35043(6)
C10 C 0.7507(3) 0.74318(14) 0.40430(7)
C11 C 0.5523(3) 0.82420(13) 0.34234(7)
C13 C 0.8282(3) 0.73646(15) 0.44661(8)
H1 H 0.8377 0.7868 0.4595
C16 C 0.7368(3) 0.66690(14) 0.38515(7)
C17 C 0.6755(3) 0.82839(14) 0.38083(7)
C29 C 0.8009(3) 0.58602(15) 0.40799(8)
H6 H 0.7925 0.5354 0.3952
C31 C 0.8770(3) 0.58156(16) 0.44978(8)
H7 H 0.9202 0.5273 0.4651
C37 C 0.8789(3) 0.71258(16) 0.26874(9)
H10 H 0.9852 0.7303 0.2586
H11 H 0.8090 0.7132 0.2427
H12 H 0.9000 0.6548 0.2847
C40 C 0.3139(3) 0.72565(13) 0.34896(7)
C43 C 0.3489(3) 0.69633(14) 0.42903(8)
C50 C 0.8911(3) 0.65642(17) 0.46980(8)
H16 H 0.9419 0.6523 0.4982
C51 C 0.2880(3) 0.57456(15) 0.39265(9)
H17 H 0.2640 0.5503 0.3667
C63 C 0.5108(3) 0.91108(14) 0.31110(8)
H28 H 0.5467 0.9580 0.3250
H29 H 0.5675 0.9072 0.2814
C67 C 0.3195(3) 0.92626(14) 0.30605(8)
H36 H 0.2747 0.9879 0.3000
H37 H 0.2863 0.8964 0.2816
C72 C 0.3582(3) 0.64810(15) 0.47180(8)
H44 H 0.3807 0.6725 0.4978
C78 C 0.0794(3) 0.88827(16) 0.35503(9)
H53 H 0.0182 0.9453 0.3454
H54 H 0.0512 0.8712 0.3865
H55 H 0.0486 0.8474 0.3362
C80 C 0.3137(3) 0.66070(14) 0.38977(8)
C85 C 0.3329(3) 0.56245(16) 0.47458(9)
H65 H 0.3384 0.5284 0.5029
C86 C 0.2992(3) 0.52658(15) 0.43529(10)
H66 H 0.2840 0.4686 0.4380
H76 H 0.571(3) 0.7386(12) 0.2900(7)
O2 O 0.09573(19) 1.07723(9) 0.16015(5)
O5 O 0.3713(2) 0.89959(10) 0.05960(5)
O10 O 0.4835(2) 1.02186(10) 0.19146(5)
O13 O -0.0436(2) 0.97505(10) 0.20403(5)
O17 O 0.0365(2) 0.85285(10) 0.10943(6)
C6 C 0.4377(3) 1.01566(13) 0.15342(8)
N2 N 0.4822(2) 0.85120(11) 0.15271(6)
C9 C 0.3779(3) 0.95289(13) 0.08593(7)
C14 C 0.1135(3) 0.99404(13) 0.18789(7)
C15 C 0.3747(3) 0.93358(13) 0.13874(7)
C19 C -0.0379(3) 1.16378(14) 0.09621(8)
H2 H -0.0221 1.2131 0.1091
C21 C 0.4594(3) 1.16690(14) 0.10934(9)
H3 H 0.4861 1.1910 0.1351
C22 C 0.1940(3) 0.92021(13) 0.16024(7)
C24 C 0.3974(3) 1.04473(14) 0.07338(8)
C27 C 0.0676(3) 0.91992(14) 0.12172(7)
C28 C 0.3832(3) 1.09314(15) 0.03071(8)
H5 H 0.3599 1.0686 0.0048
C36 C -0.1157(3) 1.17160(16) 0.05456(8)
H9 H -0.1524 1.2267 0.0393
C46 C 0.0170(3) 1.08135(13) 0.11881(7)
C47 C 0.4356(3) 1.08056(14) 0.11261(8)
C49 C -0.0041(3) 1.00669(13) 0.09940(7)
C55 C -0.0858(3) 1.01680(15) 0.05728(8)
H20 H -0.1033 0.9678 0.0443
C58 C 0.4049(3) 1.17926(15) 0.02790(9)
H23 H 0.3945 1.2135 -0.0004
C59 C 0.4425(3) 1.21613(16) 0.06688(9)
H24 H 0.4562 1.2743 0.0641
C64 C -0.1271(3) 1.03468(17) 0.23456(9)
H30 H -0.2351 1.0186 0.2444
H31 H -0.1445 1.0927 0.2188
H32 H -0.0573 1.0324 0.2608
C66 C 0.4201(3) 0.81520(14) 0.19672(8)
H34 H 0.4530 0.8445 0.2215
H35 H 0.4621 0.7533 0.2028
C70 C 0.2297(3) 0.83256(13) 0.19067(8)
H41 H 0.1711 0.8360 0.2201
H42 H 0.1929 0.7869 0.1759
C75 C 0.6646(3) 0.85074(16) 0.14872(9)
H48 H 0.7236 0.7934 0.1587
H49 H 0.6961 0.8914 0.1675
H50 H 0.6947 0.8671 0.1173
C79 C -0.1409(3) 1.09827(16) 0.03473(8)
H56 H -0.1943 1.1044 0.0066
H75 H 0.187(3) 1.0017(13) 0.2133(7)
O3 O 0.5436(2) 0.60392(9) 0.16246(5)
O8 O 0.8351(2) 0.38459(10) 0.08107(5)
O14 O 0.4797(2) 0.36965(10) 0.12525(6)
O16 O 0.9230(2) 0.55993(11) 0.19477(5)
O19 O 0.3926(2) 0.51110(10) 0.20941(5)
C8 C 0.4607(3) 0.52139(14) 0.10425(8)
C20 C 0.8886(3) 0.53737(14) 0.15874(8)
N3 N 0.9260(2) 0.37824(12) 0.18043(7)
C30 C 0.8683(3) 0.53432(13) 0.07890(8)
C35 C 0.8385(3) 0.44816(14) 0.10064(8)
C39 C 0.9023(3) 0.58492(14) 0.11273(8)
C41 C 0.4312(3) 0.67903(14) 0.09304(8)
H15 H 0.4414 0.7313 0.1038
C42 C 0.8235(3) 0.45055(14) 0.15361(7)
C44 C 0.6353(3) 0.44523(13) 0.17222(7)
C45 C 0.4781(3) 0.60052(14) 0.12019(7)
C48 C 0.5178(3) 0.43860(14) 0.13276(8)
C54 C 0.5532(3) 0.52624(14) 0.19422(8)
C57 C 0.3694(3) 0.67870(16) 0.04995(8)
H22 H 0.3374 0.7313 0.0317
C60 C 0.6564(3) 0.36363(14) 0.20717(8)
H25 H 0.6630 0.3786 0.2381
H26 H 0.5622 0.3319 0.2058
C62 C 0.9408(3) 0.66835(14) 0.10039(8)
H27 H 0.9672 0.7016 0.1225
C68 C 0.9013(3) 0.65083(15) 0.02088(9)
H38 H 0.8994 0.6745 -0.0098
C71 C 0.3973(3) 0.52316(15) 0.06028(8)
H43 H 0.3844 0.4713 0.0494
C73 C 0.8224(3) 0.31033(14) 0.19295(8)
H45 H 0.8714 0.2690 0.2182
H46 H 0.8071 0.2795 0.1671
C74 C 0.3537(3) 0.60097(16) 0.03291(8)
H47 H 0.3142 0.6018 0.0034
C77 C 0.8673(3) 0.56676(15) 0.03273(8)
H52 H 0.8444 0.5332 0.0104
C84 C 0.9385(3) 0.69995(15) 0.05482(9)
H64 H 0.9624 0.7558 0.0462
C87 C 1.0991(3) 0.35258(17) 0.16380(9)
H67 H 1.1550 0.3042 0.1840
H68 H 1.1603 0.4006 0.1630
H69 H 1.0961 0.3359 0.1335
C88 C 0.3061(3) 0.57582(15) 0.23618(9)
H70 H 0.1959 0.5619 0.2455
H71 H 0.2928 0.6318 0.2181
H72 H 0.3714 0.5772 0.2629
H73 H 0.618(3) 0.5371(14) 0.2209(7)
O6 O -0.0936(2) 1.36492(10) 0.41838(5)
O7 O 0.18658(19) 1.14533(9) 0.33500(5)
O9 O 0.3392(2) 1.23672(10) 0.28748(5)
O11 O 0.2622(2) 1.37694(10) 0.37308(6)
O18 O -0.1969(2) 1.19618(11) 0.30325(5)
C1 C -0.1249(3) 1.21458(14) 0.41908(8)
C3 C 0.2588(3) 1.14717(14) 0.37663(7)
C7 C -0.1626(3) 1.16594(14) 0.38509(8)
C12 C 0.2813(3) 1.22476(14) 0.39258(8)
C18 C 0.1777(3) 1.22359(13) 0.30337(8)
C23 C -0.0861(3) 1.30131(13) 0.34519(7)
C25 C 0.2220(3) 1.30849(14) 0.36514(8)
C26 C -0.1962(3) 1.08144(14) 0.39619(8)
H4 H -0.2253 1.0496 0.3738
C32 C -0.0976(3) 1.30160(14) 0.39827(8)
C33 C -0.1550(3) 1.21598(14) 0.33941(8)
C34 C -0.1167(3) 1.17984(14) 0.46478(8)
H8 H -0.0934 1.2126 0.4875
C38 C 0.0834(3) 1.38670(14) 0.29138(8)
H13 H 0.1800 1.4168 0.2927
H14 H 0.0744 1.3726 0.2604
N4 N -0.1862(3) 1.37594(12) 0.31892(7)
C52 C -0.1444(3) 1.09468(15) 0.47556(8)
H18 H -0.1361 1.0691 0.5059
C53 C 0.3050(3) 1.06760(14) 0.40307(8)
H19 H 0.2893 1.0161 0.3924
C56 C 0.3532(3) 1.22104(15) 0.43574(8)
H21 H 0.3702 1.2723 0.4466
C61 C 0.1024(3) 1.30394(13) 0.32595(7)
C65 C 0.3745(3) 1.06660(16) 0.44552(8)
H33 H 0.4059 1.0135 0.4634
C69 C -0.0778(3) 1.44149(14) 0.30600(8)
H39 H -0.0589 1.4718 0.3318
H40 H -0.1258 1.4836 0.2809
C76 C -0.1846(3) 1.04692(14) 0.44146(8)
H51 H -0.2041 0.9901 0.4496
C81 C 0.3991(3) 1.14263(16) 0.46244(8)
H57 H 0.4456 1.1406 0.4912
C82 C 0.4224(3) 1.17138(15) 0.26071(9)
H58 H 0.5331 1.1841 0.2512
H59 H 0.3559 1.1706 0.2341
H60 H 0.4340 1.1155 0.2788
C83 C -0.3570(3) 1.40428(16) 0.33607(9)
H61 H -0.4109 1.4536 0.3162
H62 H -0.3511 1.4203 0.3665
H63 H -0.4222 1.3577 0.3369
H74 H 0.106(3) 1.2166(13) 0.2783(7)
loop_
_geom_bond_atom_site_label_1
_geom_bond_atom_site_label_2
_geom_bond_site_symmetry_1
_geom_bond_site_symmetry_2
O1 C4 1_555 1_555
O2 C14 1_555 1_555
O3 C45 1_555 1_555
O4 C4 1_555 1_555
O5 C9 1_555 1_555
O6 C32 1_555 1_555
O7 C3 1_555 1_555
O8 C35 1_555 1_555
O9 C18 1_555 1_555
O10 C6 1_555 1_555
O11 C25 1_555 1_555
O12 C2 1_555 1_555
O13 C14 1_555 1_555
O14 C48 1_555 1_555
O15 C40 1_555 1_555
O16 C20 1_555 1_555
O17 C27 1_555 1_555
O18 C33 1_555 1_555
O19 C54 1_555 1_555
O20 C17 1_555 1_555
C1 C7 1_555 1_555
C2 C5 1_555 1_555
C3 C12 1_555 1_555
C4 C11 1_555 1_555
C5 N1 1_555 1_555
C6 C15 1_555 1_555
N1 C67 1_555 1_555
N2 C15 1_555 1_555
C7 C26 1_555 1_555
C8 C45 1_555 1_555
C9 C15 1_555 1_555
C10 C13 1_555 1_555
C11 C5 1_555 1_555
C12 C25 1_555 1_555
C13 H1 1_555 1_555
C14 C22 1_555 1_555
C15 C22 1_555 1_555
C16 O1 1_555 1_555
C17 C10 1_555 1_555
C18 O7 1_555 1_555
C19 H2 1_555 1_555
C20 C39 1_555 1_555
C21 H3 1_555 1_555
C22 C27 1_555 1_555
C23 C32 1_555 1_555
C24 C9 1_555 1_555
C25 C61 1_555 1_555
C26 H4 1_555 1_555
N3 C42 1_555 1_555
C27 C49 1_555 1_555
C28 C24 1_555 1_555
H5 C28 1_555 1_555
C29 C16 1_555 1_555
H6 C29 1_555 1_555
C30 C35 1_555 1_555
C31 C29 1_555 1_555
H7 C31 1_555 1_555
C32 C1 1_555 1_555
C33 C7 1_555 1_555
C34 C1 1_555 1_555
H8 C34 1_555 1_555
C35 C42 1_555 1_555
C36 C19 1_555 1_555
H9 C36 1_555 1_555
C37 O4 1_555 1_555
H10 C37 1_555 1_555
H11 C37 1_555 1_555
H12 C37 1_555 1_555
C38 H13 1_555 1_555
H14 C38 1_555 1_555
C39 C30 1_555 1_555
C40 C5 1_555 1_555
C41 H15 1_555 1_555
C42 C20 1_555 1_555
C43 C2 1_555 1_555
C44 C42 1_555 1_555
C45 C41 1_555 1_555
C46 O2 1_555 1_555
C47 C6 1_555 1_555
C48 C8 1_555 1_555
C49 C46 1_555 1_555
N4 C23 1_555 1_555
C50 C13 1_555 1_555
H16 C50 1_555 1_555
C51 H17 1_555 1_555
C52 C34 1_555 1_555
H18 C52 1_555 1_555
C53 C3 1_555 1_555
H19 C53 1_555 1_555
C54 O3 1_555 1_555
C55 C49 1_555 1_555
H20 C55 1_555 1_555
C56 C12 1_555 1_555
H21 C56 1_555 1_555
C57 C41 1_555 1_555
H22 C57 1_555 1_555
C58 C28 1_555 1_555
H23 C58 1_555 1_555
C59 C21 1_555 1_555
H24 C59 1_555 1_555
C60 C44 1_555 1_555
H25 C60 1_555 1_555
H26 C60 1_555 1_555
C61 C18 1_555 1_555
C62 C39 1_555 1_555
H27 C62 1_555 1_555
C63 C11 1_555 1_555
H28 C63 1_555 1_555
H29 C63 1_555 1_555
C64 O13 1_555 1_555
H30 C64 1_555 1_555
H31 C64 1_555 1_555
H32 C64 1_555 1_555
C65 C53 1_555 1_555
H33 C65 1_555 1_555
C66 N2 1_555 1_555
H34 C66 1_555 1_555
H35 C66 1_555 1_555
C67 C63 1_555 1_555
H36 C67 1_555 1_555
H37 C67 1_555 1_555
C68 H38 1_555 1_555
C69 C38 1_555 1_555
H39 C69 1_555 1_555
H40 C69 1_555 1_555
C70 C22 1_555 1_555
H41 C70 1_555 1_555
H42 C70 1_555 1_555
C71 C8 1_555 1_555
H43 C71 1_555 1_555
C72 C43 1_555 1_555
H44 C72 1_555 1_555
C73 N3 1_555 1_555
H45 C73 1_555 1_555
H46 C73 1_555 1_555
C74 C57 1_555 1_555
H47 C74 1_555 1_555
C75 N2 1_555 1_555
H48 C75 1_555 1_555
H49 C75 1_555 1_555
H50 C75 1_555 1_555
C76 C26 1_555 1_555
H51 C76 1_555 1_555
C77 C30 1_555 1_555
H52 C77 1_555 1_555
C78 N1 1_555 1_555
H53 C78 1_555 1_555
H54 C78 1_555 1_555
H55 C78 1_555 1_555
C79 C36 1_555 1_555
H56 C79 1_555 1_555
C80 C40 1_555 1_555
C81 C56 1_555 1_555
H57 C81 1_555 1_555
C82 O9 1_555 1_555
H58 C82 1_555 1_555
H59 C82 1_555 1_555
H60 C82 1_555 1_555
C83 N4 1_555 1_555
H61 C83 1_555 1_555
H62 C83 1_555 1_555
H63 C83 1_555 1_555
C84 C62 1_555 1_555
H64 C84 1_555 1_555
C85 C72 1_555 1_555
H65 C85 1_555 1_555
C86 C51 1_555 1_555
H66 C86 1_555 1_555
C87 N3 1_555 1_555
H67 C87 1_555 1_555
H68 C87 1_555 1_555
H69 C87 1_555 1_555
C88 O19 1_555 1_555
H70 C88 1_555 1_555
H71 C88 1_555 1_555
H72 C88 1_555 1_555
H73 C54 1_555 1_555
H74 C18 1_555 1_555
H75 C14 1_555 1_555
H76 C4 1_555 1_555
C10 C16 1_555 1_555
C11 C17 1_555 1_555
C19 C46 1_555 1_555
C21 C47 1_555 1_555
C23 C33 1_555 1_555
C23 C61 1_555 1_555
C24 C47 1_555 1_555
C31 C50 1_555 1_555
C38 C61 1_555 1_555
C43 C80 1_555 1_555
C44 C48 1_555 1_555
C44 C54 1_555 1_555
N4 C69 1_555 1_555
C51 C80 1_555 1_555
C52 C76 1_555 1_555
C55 C79 1_555 1_555
C58 C59 1_555 1_555
C60 C73 1_555 1_555
C65 C81 1_555 1_555
C66 C70 1_555 1_555
C68 C77 1_555 1_555
C68 C84 1_555 1_555
C71 C74 1_555 1_555
C85 C86 1_555 1_555

#END
