
#######################################################################
#
#                 Cambridge Crystallographic Data Centre
#                                CCDC 
#
#######################################################################
#
# If this CIF has been generated from an entry in the Cambridge 
# Structural Database, then it will include bibliographic, chemical, 
# crystal, experimental, refinement or atomic coordinate data resulting 
# from the CCDC's data processing and validation procedures.
#
#######################################################################

data_SOFREL
_chemical_compound_source        'roots of Aconitum szechenyianum Gay'
_chemical_name_common            'songorine chloride trihydrate'
_chemical_formula_moiety         'C22 H32 N1 O3 1+,Cl1 1-,3(H2 O1)'
_chemical_name_systematic        
'11-Ethyl-7,16-dihydroxy-13-methyl-6-methylene-4-oxo-11-azoniahexacyclo[7.7.2.1^5,8^.0^1,10^.0^2,8^.0^13,17^]nonadecane chloride trihydrate'
_chemical_properties_biological  
'songorine is novel non-competitive antagonist at the GABA!A$ receptor in rat brain'
_symmetry_cell_setting           rhombohedral
_symmetry_space_group_name_H-M   'R 3'
_symmetry_Int_Tables_number      146
_space_group_name_Hall           'R 3'
loop_
_symmetry_equiv_pos_site_id
_symmetry_equiv_pos_as_xyz
1 x,y,z
2 -y,x-y,z
3 -x+y,-x,z
4 2/3+x,1/3+y,1/3+z
5 2/3-y,1/3+x-y,1/3+z
6 2/3-x+y,1/3-x,1/3+z
7 1/3+x,2/3+y,2/3+z
8 1/3-y,2/3+x-y,2/3+z
9 1/3-x+y,2/3-x,2/3+z
_cell_length_a                   28.293(2)
_cell_length_b                   28.293(2)
_cell_length_c                   7.4204(7)
_cell_angle_alpha                90
_cell_angle_beta                 90
_cell_angle_gamma                120
_cell_volume                     5144.18
_exptl_crystal_colour            colorless
_exptl_crystal_description       prism
_cell_formula_units_Z            9
loop_
_atom_site_label
_atom_site_type_symbol
_atom_site_fract_x
_atom_site_fract_y
_atom_site_fract_z
N1 N 0.4010(1) 0.8472(1) -0.0739(4)
H1 H 0.3836 0.8233 0.0177
O1 O 0.4136(1) 0.8794(1) 0.4073(3)
H2 H 0.4050 0.8492 0.3662
O2 O 0.5509(1) 1.0736(1) -0.0633(4)
H3 H 0.5564 1.0917 0.0285
O3 O 0.6007(1) 1.0189(1) 0.5226(4)
C1 C 0.3978(2) 0.9076(2) 0.2854(5)
H4 H 0.4001 0.9386 0.3521
C2 C 0.3375(2) 0.8711(2) 0.2353(6)
H5 H 0.3313 0.8353 0.2019
H6 H 0.3152 0.8667 0.3401
C3 C 0.3198(2) 0.8937(2) 0.0821(6)
H7 H 0.3196 0.9261 0.1231
H8 H 0.2827 0.8670 0.0482
C4 C 0.3562(2) 0.90780(2) -0.0828(5)
C5 C 0.4137(1) 0.95233(14) -0.0295(5)
H9 H 0.4138 0.9857 0.0073
C6 C 0.4549(1) 0.9646(2) -0.1880(5)
H10 H 0.4360 0.9465 -0.2981
H11 H 0.4769 1.0035 -0.2100
C7 C 0.4900(1) 0.9411(1) -0.1190(5)
H12 H 0.5051 0.9286 -0.2143
C8 C 0.5320(1) 0.9796(2) 0.0173(5)
C9 C 0.4948(1) 0.9800(1) 0.1764(5)
H13 H 0.4942 1.0142 0.1701
C10 C 0.4363(1) 0.9318(1) 0.1235(5)
C11 C 0.5169(2) 0.9767(2) 0.3621(5)
H14 H 0.5039 0.9931 0.4497
H15 H 0.5013 0.9386 0.3939
C12 C 0.5782(2) 1.0039(2) 0.3796(5)
C13 C 0.6086(2) 1.0080(2) 0.2069(5)
H16 H 0.6433 1.0091 0.2291
C14 C 0.5711(2) 0.9612(2) 0.0825(5)
H17 H 0.5912 0.9574 -0.0169
H18 H 0.5520 0.9269 0.1474
C15 C 0.5733(2) 1.0385(2) -0.0424(5)
H19 H 0.5899 1.0371 -0.1566
C16 C 0.6161(1) 1.0578(2) 0.1053(5)
C17 C 0.6509(2) 1.1091(2) 0.1480(6)
H20 H 0.6734 1.1170 0.2481
H21 H 0.6528 1.1373 0.0779
C18 C 0.3317(2) 0.9270(2) -0.2309(6)
H22 H 0.3295 0.9579 -0.1888
H23 H 0.2957 0.8979 -0.2603
H24 H 0.3544 0.9370 -0.3362
C19 C 0.3585(2) 0.8586(2) -0.1576(5)
H25 H 0.3229 0.8265 -0.1419
H26 H 0.3654 0.8639 -0.2861
C20 C 0.4506(2) 0.8955(1) 0.0108(5)
H27 H 0.4708 0.8827 0.0840
C21 C 0.4180(2) 0.8176(2) -0.2044(6)
H28 H 0.4321 0.8393 -0.3130
H29 H 0.4471 0.8137 -0.1512
C22 C 0.3718(2) 0.7623(2) -0.2536(8)
H30 H 0.3845 0.7451 -0.3367
H31 H 0.3431 0.7660 -0.3087
H32 H 0.3582 0.7404 -0.1470
O4 O 0.3800(2) 0.7789(1) 0.2364(5)
H33 H 0.3950 0.760 0.266
H34 H 0.3455 0.759 0.236
O5 O 0.5592(2) 0.1469(2) 0.2216(6)
H35 H 0.575 0.147 0.319
H36 H 0.549 0.118 0.163
Cl1 Cl 0.59713(6) 0.15293(6) 0.6269(2)
O6 O 0.629(1) 0.2233(1) 0.9592(6)
H37 H 0.613 0.205 0.861
H38 H 0.604 0.203 1.048
loop_
_geom_bond_atom_site_label_1
_geom_bond_atom_site_label_2
_geom_bond_site_symmetry_1
_geom_bond_site_symmetry_2
N1 H1 1_555 1_555
O1 H2 1_555 1_555
O2 H3 1_555 1_555
O3 C12 1_555 1_555
C1 O1 1_555 1_555
H4 C1 1_555 1_555
C2 C1 1_555 1_555
H5 C2 1_555 1_555
H6 C2 1_555 1_555
C3 C2 1_555 1_555
H7 C3 1_555 1_555
H8 C3 1_555 1_555
C4 C3 1_555 1_555
C5 C4 1_555 1_555
H9 C5 1_555 1_555
C6 C5 1_555 1_555
H10 C6 1_555 1_555
H11 C6 1_555 1_555
C7 C6 1_555 1_555
H12 C7 1_555 1_555
C8 C7 1_555 1_555
C9 C8 1_555 1_555
H13 C9 1_555 1_555
C10 C1 1_555 1_555
C11 C9 1_555 1_555
H14 C11 1_555 1_555
H15 C11 1_555 1_555
C12 C11 1_555 1_555
C13 C12 1_555 1_555
H16 C13 1_555 1_555
C14 C8 1_555 1_555
H17 C14 1_555 1_555
H18 C14 1_555 1_555
C15 O2 1_555 1_555
H19 C15 1_555 1_555
C16 C13 1_555 1_555
C17 C16 1_555 1_555
H20 C17 1_555 1_555
H21 C17 1_555 1_555
C18 C4 1_555 1_555
H22 C18 1_555 1_555
H23 C18 1_555 1_555
H24 C18 1_555 1_555
C19 N1 1_555 1_555
H25 C19 1_555 1_555
H26 C19 1_555 1_555
C20 N1 1_555 1_555
H27 C20 1_555 1_555
C21 N1 1_555 1_555
H28 C21 1_555 1_555
H29 C21 1_555 1_555
C22 C21 1_555 1_555
H30 C22 1_555 1_555
H31 C22 1_555 1_555
H32 C22 1_555 1_555
O4 H33 1_555 1_555
H34 O4 1_555 1_555
O5 H35 1_555 1_555
H36 O5 1_555 1_555
O6 H37 1_555 1_555
H38 O6 1_555 1_555
C4 C19 1_555 1_555
C5 C10 1_555 1_555
C7 C20 1_555 1_555
C8 C15 1_555 1_555
C9 C10 1_555 1_555
C10 C20 1_555 1_555
C13 C14 1_555 1_555
C15 C16 1_555 1_555

#END
