
#######################################################################
#
#                 Cambridge Crystallographic Data Centre
#                                CCDC 
#
#######################################################################
#
# If this CIF has been generated from an entry in the Cambridge 
# Structural Database, then it will include bibliographic, chemical, 
# crystal, experimental, refinement or atomic coordinate data resulting 
# from the CCDC's data processing and validation procedures.
#
#######################################################################

data_SOGDAU
_chemical_formula_moiety         'C12 H11 N5 O2'
_chemical_name_systematic        '(E)-2-Acetylpyrazine 4-nitrophenylhydrazone'
_symmetry_cell_setting           monoclinic
_symmetry_space_group_name_H-M   'P 21/n'
_symmetry_Int_Tables_number      14
_space_group_name_Hall           '-P 2yn'
loop_
_symmetry_equiv_pos_site_id
_symmetry_equiv_pos_as_xyz
1 x,y,z
2 1/2-x,1/2+y,1/2-z
3 -x,-y,-z
4 1/2+x,1/2-y,1/2+z
_cell_length_a                   8.0101(6)
_cell_length_b                   12.5154(11)
_cell_length_c                   12.1506(12)
_cell_angle_alpha                90
_cell_angle_beta                 98.564(2)
_cell_angle_gamma                90
_cell_volume                     1204.51
_exptl_crystal_colour            yellow
_exptl_crystal_description       prism
_chemical_melting_point          '498 K'
_cell_formula_units_Z            4
_exptl_crystal_recrystallization_method 'absolute ethanol'
loop_
_atom_site_label
_atom_site_type_symbol
_atom_site_fract_x
_atom_site_fract_y
_atom_site_fract_z
N1 N 0.9003(3) 0.68785(16) 0.3418(2)
N2 N 0.6332(2) 0.36085(12) 0.57394(13)
H1 H 0.6470 0.3652 0.6496
N3 N 0.5365(2) 0.28334(12) 0.51838(13)
N4 N 0.3197(2) 0.04376(14) 0.55830(14)
N5 N 0.2175(2) 0.07812(15) 0.33069(14)
O1 O 0.9806(3) 0.75846(16) 0.3955(2)
O2 O 0.8729(3) 0.68826(16) 0.2397(2)
C1 C 0.6976(2) 0.43994(15) 0.51344(16)
C2 C 0.7855(3) 0.52394(16) 0.57162(17)
H2 H 0.7989 0.5251 0.6490
C3 C 0.8519(3) 0.60439(16) 0.51558(18)
H3 H 0.9109 0.6601 0.5544
C4 C 0.8306(3) 0.60198(15) 0.40117(18)
C5 C 0.7461(3) 0.51920(17) 0.34168(17)
H4 H 0.7339 0.5187 0.2644
C6 C 0.6803(3) 0.43744(17) 0.39758(16)
H5 H 0.6246 0.3809 0.3583
C7 C 0.4778(2) 0.20837(14) 0.57459(15)
C8 C 0.5120(3) 0.19727(18) 0.69835(17)
H6 H 0.6317 0.1939 0.7222
H7 H 0.4602 0.1331 0.7202
H8 H 0.4663 0.2578 0.7322
C9 C 0.3700(2) 0.13023(15) 0.50718(15)
C10 C 0.3179(3) 0.14575(16) 0.39353(16)
H9 H 0.3553 0.2063 0.3602
C11 C 0.1699(3) -0.00860(18) 0.38283(19)
H10 H 0.1002 -0.0587 0.3424
C12 C 0.2214(3) -0.02519(17) 0.49398(19)
H11 H 0.1865 -0.0871 0.5263
loop_
_geom_bond_atom_site_label_1
_geom_bond_atom_site_label_2
_geom_bond_site_symmetry_1
_geom_bond_site_symmetry_2
N1 O1 1_555 1_555
N2 H1 1_555 1_555
N3 N2 1_555 1_555
N4 C9 1_555 1_555
N5 C10 1_555 1_555
O2 N1 1_555 1_555
C1 N2 1_555 1_555
C2 C1 1_555 1_555
H2 C2 1_555 1_555
C3 C2 1_555 1_555
H3 C3 1_555 1_555
C4 N1 1_555 1_555
C5 C4 1_555 1_555
H4 C5 1_555 1_555
C6 C1 1_555 1_555
H5 C6 1_555 1_555
C7 N3 1_555 1_555
C8 C7 1_555 1_555
H6 C8 1_555 1_555
H7 C8 1_555 1_555
H8 C8 1_555 1_555
C9 C7 1_555 1_555
C10 C9 1_555 1_555
H9 C10 1_555 1_555
C11 N5 1_555 1_555
H10 C11 1_555 1_555
C12 N4 1_555 1_555
H11 C12 1_555 1_555
C3 C4 1_555 1_555
C5 C6 1_555 1_555
C11 C12 1_555 1_555

#END
