
#######################################################################
#
#                 Cambridge Crystallographic Data Centre
#                                CCDC 
#
#######################################################################
#
# If this CIF has been generated from an entry in the Cambridge 
# Structural Database, then it will include bibliographic, chemical, 
# crystal, experimental, refinement or atomic coordinate data resulting 
# from the CCDC's data processing and validation procedures.
#
#######################################################################

data_SOGFOK
_chemical_formula_moiety         'C14 H14 N2'
_chemical_name_systematic        N^2^-o-Tolylbenzamidine
_symmetry_cell_setting           triclinic
_symmetry_space_group_name_H-M   'P -1'
_symmetry_Int_Tables_number      2
_space_group_name_Hall           '-P 1'
loop_
_symmetry_equiv_pos_site_id
_symmetry_equiv_pos_as_xyz
1 x,y,z
2 -x,-y,-z
_cell_length_a                   10.347(2)
_cell_length_b                   10.697(2)
_cell_length_c                   11.495(2)
_cell_angle_alpha                97.088(4)
_cell_angle_beta                 103.184(4)
_cell_angle_gamma                95.898(4)
_cell_volume                     1217.95
_exptl_crystal_colour            colorless
_exptl_crystal_description       plate
_cell_formula_units_Z            4
loop_
_atom_site_label
_atom_site_type_symbol
_atom_site_fract_x
_atom_site_fract_y
_atom_site_fract_z
N1 N 0.90491(17) 0.79986(19) 0.88806(17)
N2 N 0.69224(19) 0.8197(2) 0.9148(2)
H1 H 0.6726 0.8582 0.8530
H2 H 0.6343 0.8055 0.9564
C1 C 0.7749(4) 0.6552(3) 0.6545(3)
H3 H 0.7196 0.6274 0.5744
H4 H 0.7251 0.6362 0.7126
H5 H 0.8527 0.6121 0.6659
C2 C 0.8172(3) 0.7949(3) 0.6711(2)
C3 C 0.8023(3) 0.8623(3) 0.5739(3)
H6 H 0.7654 0.8180 0.4965
C4 C 0.8387(4) 0.9873(4) 0.5865(3)
H7 H 0.8248 1.0285 0.5189
C5 C 0.8971(4) 1.0561(3) 0.7000(3)
H8 H 0.9236 1.1433 0.7096
C6 C 0.9149(3) 0.9920(3) 0.7983(3)
H9 H 0.9543 1.0371 0.8749
C7 C 0.8762(2) 0.8639(2) 0.7862(2)
C8 C 0.81298(19) 0.7817(2) 0.9464(2)
C9 C 0.8415(2) 0.7144(2) 1.05346(19)
C10 C 0.9449(3) 0.6419(2) 1.0709(2)
H10 H 0.9974 0.6353 1.0152
C11 C 0.9718(3) 0.5790(3) 1.1693(3)
H11 H 1.0427 0.5313 1.1796
C12 C 0.8962(3) 0.5858(3) 1.2516(3)
H12 H 0.9148 0.5427 1.3177
C13 C 0.7939(3) 0.6555(4) 1.2367(3)
H13 H 0.7411 0.6594 1.2922
C14 C 0.7669(3) 0.7217(3) 1.1390(3)
H14 H 0.6977 0.7715 1.1312
N3 N 0.42879(17) 0.78365(18) 0.99087(16)
N4 N 0.20510(18) 0.8125(2) 0.96875(18)
H15 H 0.2161 0.8348 1.0452
H16 H 0.1275 0.8098 0.9206
C15 C 0.3694(4) 0.5807(3) 1.1207(3)
H17 H 0.3615 0.5260 1.1796
H18 H 0.4309 0.5519 1.0755
H19 H 0.2832 0.5790 1.0667
C16 C 0.4201(2) 0.7134(3) 1.1833(2)
C17 C 0.4444(3) 0.7462(4) 1.3083(3)
H20 H 0.4277 0.6830 1.3538
C18 C 0.4913(3) 0.8661(4) 1.3665(3)
H21 H 0.5050 0.8843 1.4500
C19 C 0.5182(3) 0.9601(3) 1.3013(3)
H22 H 0.5513 1.0424 1.3405
C20 C 0.4963(2) 0.9325(3) 1.1778(2)
H23 H 0.5155 0.9965 1.1340
C21 C 0.44635(19) 0.8118(2) 1.1180(2)
C22 C 0.3093(2) 0.7819(2) 0.9244(2)
C23 C 0.2832(2) 0.7442(2) 0.7916(2)
C24 C 0.1744(3) 0.7776(3) 0.7119(2)
H24 H 0.1161 0.8262 0.7416
C25 C 0.1519(3) 0.7395(3) 0.5887(3)
H25 H 0.0783 0.7621 0.5364
C26 C 0.2365(3) 0.6692(3) 0.5435(3)
H26 H 0.2214 0.6442 0.4606
C27 C 0.3439(3) 0.6357(3) 0.6208(3)
H27 H 0.4020 0.5878 0.5900
C28 C 0.3671(3) 0.6717(3) 0.7434(2)
H28 H 0.4402 0.6471 0.7947
loop_
_geom_bond_atom_site_label_1
_geom_bond_atom_site_label_2
_geom_bond_site_symmetry_1
_geom_bond_site_symmetry_2
N1 C7 1_555 1_555
N2 H1 1_555 1_555
H2 N2 1_555 1_555
C1 H3 1_555 1_555
H4 C1 1_555 1_555
H5 C1 1_555 1_555
C2 C1 1_555 1_555
C3 C2 1_555 1_555
H6 C3 1_555 1_555
C4 C3 1_555 1_555
H7 C4 1_555 1_555
C5 C4 1_555 1_555
H8 C5 1_555 1_555
C6 C5 1_555 1_555
H9 C6 1_555 1_555
C7 C2 1_555 1_555
C8 N1 1_555 1_555
C9 C8 1_555 1_555
C10 C9 1_555 1_555
H10 C10 1_555 1_555
C11 C10 1_555 1_555
H11 C11 1_555 1_555
C12 C11 1_555 1_555
H12 C12 1_555 1_555
C13 C12 1_555 1_555
H13 C13 1_555 1_555
C14 C9 1_555 1_555
H14 C14 1_555 1_555
N3 C21 1_555 1_555
N4 H15 1_555 1_555
H16 N4 1_555 1_555
C15 H17 1_555 1_555
H18 C15 1_555 1_555
H19 C15 1_555 1_555
C16 C15 1_555 1_555
C17 C16 1_555 1_555
H20 C17 1_555 1_555
C18 C17 1_555 1_555
H21 C18 1_555 1_555
C19 C18 1_555 1_555
H22 C19 1_555 1_555
C20 C19 1_555 1_555
H23 C20 1_555 1_555
C21 C16 1_555 1_555
C22 N3 1_555 1_555
C23 C22 1_555 1_555
C24 C23 1_555 1_555
H24 C24 1_555 1_555
C25 C24 1_555 1_555
H25 C25 1_555 1_555
C26 C25 1_555 1_555
H26 C26 1_555 1_555
C27 C26 1_555 1_555
H27 C27 1_555 1_555
C28 C23 1_555 1_555
H28 C28 1_555 1_555
N2 C8 1_555 1_555
C6 C7 1_555 1_555
C13 C14 1_555 1_555
N4 C22 1_555 1_555
C20 C21 1_555 1_555
C27 C28 1_555 1_555

#END
