
#######################################################################
#
#                 Cambridge Crystallographic Data Centre
#                                CCDC 
#
#######################################################################
#
# If this CIF has been generated from an entry in the Cambridge 
# Structural Database, then it will include bibliographic, chemical, 
# crystal, experimental, refinement or atomic coordinate data resulting 
# from the CCDC's data processing and validation procedures.
#
#######################################################################

data_SOGFEZ
_chemical_formula_moiety         'C14 H18 N2 O3'
_chemical_name_systematic        
2-(Dimethylamino)-3-(2-hydroxybenzoyl)-N,N-dimethylacrylamide
_symmetry_cell_setting           triclinic
_symmetry_space_group_name_H-M   'P -1'
_symmetry_Int_Tables_number      2
_space_group_name_Hall           '-P 1'
loop_
_symmetry_equiv_pos_site_id
_symmetry_equiv_pos_as_xyz
1 x,y,z
2 -x,-y,-z
_cell_length_a                   6.8745(6)
_cell_length_b                   9.353(1)
_cell_length_c                   10.872(1)
_cell_angle_alpha                94.536(8)
_cell_angle_beta                 99.245(8)
_cell_angle_gamma                91.223(8)
_cell_volume                     687.386
_exptl_crystal_colour            yellow
_chemical_melting_point          165-166deg.C
_cell_formula_units_Z            2
loop_
_atom_site_label
_atom_site_type_symbol
_atom_site_fract_x
_atom_site_fract_y
_atom_site_fract_z
C1 C 0.3746(3) 0.2544(2) 0.7544(2)
C2 C 0.4446(3) 0.1354(2) 0.8181(2)
C3 C 0.3164(4) 0.0227(3) 0.8319(3)
C4 C 0.1200(4) 0.0271(3) 0.7832(3)
C5 C 0.0472(4) 0.1427(3) 0.7209(3)
C6 C 0.1730(3) 0.2549(3) 0.7066(3)
O1 O 0.6362(3) 0.1258(2) 0.8686(2)
H1 H 0.6934(51) 0.2084(37) 0.8613(32)
O2 O 0.6909(2) 0.3670(2) 0.7972(2)
C7 C 0.5145(3) 0.3749(2) 0.7440(2)
C8 C 0.4480(3) 0.4935(2) 0.6764(2)
C9 C 0.5709(3) 0.6084(2) 0.6666(2)
C10 C 0.7921(3) 0.6067(2) 0.7141(2)
N1 N 0.5105(3) 0.7253(2) 0.6094(2)
C11 C 0.3046(4) 0.7375(3) 0.5518(3)
C12 C 0.6442(4) 0.8452(3) 0.5964(3)
O3 O 0.8996(2) 0.5627(2) 0.6412(2)
N2 N 0.8558(3) 0.6626(2) 0.8313(2)
C13 C 1.0644(4) 0.6488(3) 0.8826(3)
C14 C 0.7234(5) 0.7056(4) 0.9187(3)
H2 H 0.3715(4) -0.0679(3) 0.8809(3)
H3 H 0.0212(4) -0.0607(3) 0.7938(3)
H4 H -0.1079(4) 0.1451(3) 0.6834(3)
H5 H 0.1149(3) 0.3448(3) 0.6577(3)
H6 H 0.2961(3) 0.4932(2) 0.6312(2)
H7 H 0.2818(4) 0.8447(3) 0.5231(3)
H8 H 0.2095(4) 0.7161(3) 0.6187(3)
H9 H 0.2704(4) 0.6607(3) 0.4711(3)
H10 H 0.5614(4) 0.9168(3) 0.5362(3)
H11 H 0.7712(4) 0.8105(3) 0.5565(3)
H12 H 0.6924(4) 0.9005(3) 0.6876(3)
H13 H 1.0942(4) 0.7148(3) 0.9700(3)
H14 H 1.1647(4) 0.6801(3) 0.8219(3)
H15 H 1.0840(4) 0.5376(3) 0.9001(3)
H16 H 0.8074(5) 0.7683(4) 0.9980(3)
H17 H 0.6618(5) 0.6102(4) 0.9496(3)
H18 H 0.6056(5) 0.7685(4) 0.8753(3)
loop_
_geom_bond_atom_site_label_1
_geom_bond_atom_site_label_2
_geom_bond_site_symmetry_1
_geom_bond_site_symmetry_2
C1 C2 1_555 1_555
C2 C3 1_555 1_555
C3 C4 1_555 1_555
C4 C5 1_555 1_555
C5 C6 1_555 1_555
C6 C1 1_555 1_555
O1 C2 1_555 1_555
H1 O1 1_555 1_555
O2 C7 1_555 1_555
C7 C1 1_555 1_555
C8 C7 1_555 1_555
C9 C8 1_555 1_555
C10 C9 1_555 1_555
N1 C9 1_555 1_555
C11 N1 1_555 1_555
C12 N1 1_555 1_555
O3 C10 1_555 1_555
N2 C10 1_555 1_555
C13 N2 1_555 1_555
C14 N2 1_555 1_555
H2 C3 1_555 1_555
H3 C4 1_555 1_555
H4 C5 1_555 1_555
H5 C6 1_555 1_555
H6 C8 1_555 1_555
H7 C11 1_555 1_555
H8 C11 1_555 1_555
H9 C11 1_555 1_555
H10 C12 1_555 1_555
H11 C12 1_555 1_555
H12 C12 1_555 1_555
H13 C13 1_555 1_555
H14 C13 1_555 1_555
H15 C13 1_555 1_555
H16 C14 1_555 1_555
H17 C14 1_555 1_555
H18 C14 1_555 1_555

#END
