
#######################################################################
#
#                 Cambridge Crystallographic Data Centre
#                                CCDC 
#
#######################################################################
#
# If this CIF has been generated from an entry in the Cambridge 
# Structural Database, then it will include bibliographic, chemical, 
# crystal, experimental, refinement or atomic coordinate data resulting 
# from the CCDC's data processing and validation procedures.
#
#######################################################################

data_SOGKAB
_chemical_compound_source        'bark and twigs of Itoa orientalis Hemsley'
_chemical_formula_moiety         'C20 H32 O6'
_chemical_name_systematic        'Itol A'
_chemical_properties_biological  
'insecticidal activity against S. exigua but no activity against Heliothis armigera. Inhibitory COX-2 activity in anti-inflammatory assay. Almost no cytotoxic activity against HL-60, BGC-823, Bel-7402 and KB human cancer cell lines'
_symmetry_cell_setting           orthorhombic
_symmetry_space_group_name_H-M   'P 21 21 21'
_symmetry_Int_Tables_number      19
_space_group_name_Hall           'P 2ac 2ab'
loop_
_symmetry_equiv_pos_site_id
_symmetry_equiv_pos_as_xyz
1 x,y,z
2 1/2-x,-y,1/2+z
3 -x,1/2+y,1/2-z
4 1/2+x,1/2-y,-z
_cell_length_a                   7.6990(15)
_cell_length_b                   12.995(3)
_cell_length_c                   18.349(4)
_cell_angle_alpha                90
_cell_angle_beta                 90
_cell_angle_gamma                90
_cell_volume                     1835.79
_exptl_crystal_colour            colorless
_exptl_crystal_description       Column
_chemical_melting_point          241-243deg.C
_cell_formula_units_Z            4
loop_
_atom_site_label
_atom_site_type_symbol
_atom_site_fract_x
_atom_site_fract_y
_atom_site_fract_z
O1 O -1.2731(3) -0.57841(19) -0.03931(10)
H1 H -1.2309 -0.5642 0.0005
O2 O -1.2081(3) -0.37908(12) -0.24125(10)
H2 H -1.1454 -0.3419 -0.2166
O3 O -0.8902(2) -0.57272(13) -0.21919(9)
O4 O -0.9109(3) -0.68619(14) -0.31505(10)
H3 H -0.8799 -0.7407 -0.2966
O5 O -1.3529(3) -0.48269(15) -0.37679(10)
H4 H -1.3314 -0.4294 -0.3546
O6 O -1.5619(2) -0.50404(15) -0.27340(10)
H5 H -1.6514 -0.5289 -0.2568
C1 C -1.0215(3) -0.5082(2) -0.10481(13)
H6 H -1.0829 -0.4481 -0.0854
C2 C -0.8568(4) -0.5255(3) -0.05823(14)
H7 H -0.8868 -0.5080 -0.0078
C3 C -0.8296(4) -0.6431(3) -0.06110(17)
H8 H -0.7780 -0.6639 -0.1070
H9 H -0.7560 -0.6663 -0.0214
C4 C -1.0125(4) -0.6852(2) -0.05343(15)
H10 H -1.0421 -0.6938 -0.0024
H11 H -1.0222 -0.7514 -0.0775
C5 C -1.1352(3) -0.6055(2) -0.08983(13)
C6 C -0.9896(3) -0.49032(18) -0.18597(13)
H12 H -0.9260 -0.4256 -0.1921
C7 C -1.1585(3) -0.48497(16) -0.23073(12)
C8 C -1.3089(3) -0.54860(17) -0.19824(12)
H13 H -1.3753 -0.5068 -0.1636
C9 C -1.2322(3) -0.64521(18) -0.15930(12)
C10 C -1.1135(3) -0.70146(17) -0.21448(13)
H14 H -1.0326 -0.7442 -0.1876
H15 H -1.1849 -0.7467 -0.2440
C11 C -1.0100(3) -0.63115(17) -0.26521(12)
C12 C -1.1164(3) -0.54327(17) -0.30185(12)
C13 C -1.2999(3) -0.57002(18) -0.33358(12)
C14 C -1.4220(3) -0.57572(18) -0.26448(12)
H16 H -1.4683 -0.6456 -0.2592
C15 C -0.6979(4) -0.4620(3) -0.07857(19)
H17 H -0.7257 -0.3901 -0.0754
H18 H -0.6632 -0.4783 -0.1275
H19 H -0.6046 -0.4775 -0.0457
C16 C -1.3741(4) -0.7215(2) -0.13528(15)
H20 H -1.4349 -0.7465 -0.1774
H21 H -1.4544 -0.6873 -0.1034
H22 H -1.3216 -0.7783 -0.1101
C17 C -0.9998(4) -0.4826(2) -0.35443(14)
H23 H -0.8900 -0.4691 -0.3315
H24 H -1.0549 -0.4186 -0.3667
H25 H -0.9816 -0.5221 -0.3980
C18 C -1.3152(4) -0.6680(2) -0.38136(14)
H26 H -1.2803 -0.7266 -0.3510
C19 C -1.1981(5) -0.6682(3) -0.44854(15)
H27 H -1.2144 -0.7311 -0.4751
H28 H -1.0789 -0.6627 -0.4336
H29 H -1.2272 -0.6108 -0.4792
C20 C -1.5036(4) -0.6864(3) -0.40433(19)
H30 H -1.5102 -0.7474 -0.4336
H31 H -1.5443 -0.6285 -0.4320
H32 H -1.5746 -0.6947 -0.3617
loop_
_geom_bond_atom_site_label_1
_geom_bond_atom_site_label_2
_geom_bond_site_symmetry_1
_geom_bond_site_symmetry_2
O1 H1 1_555 1_555
O2 H2 1_555 1_555
O3 C6 1_555 1_555
O4 H3 1_555 1_555
O5 H4 1_555 1_555
O6 H5 1_555 1_555
C1 H6 1_555 1_555
C2 C1 1_555 1_555
H7 C2 1_555 1_555
C3 C2 1_555 1_555
H8 C3 1_555 1_555
H9 C3 1_555 1_555
C4 C3 1_555 1_555
H10 C4 1_555 1_555
H11 C4 1_555 1_555
C5 O1 1_555 1_555
C6 C1 1_555 1_555
H12 C6 1_555 1_555
C7 O2 1_555 1_555
C8 C7 1_555 1_555
H13 C8 1_555 1_555
C9 C5 1_555 1_555
C10 C9 1_555 1_555
H14 C10 1_555 1_555
H15 C10 1_555 1_555
C11 O3 1_555 1_555
C12 C7 1_555 1_555
C13 O5 1_555 1_555
C14 O6 1_555 1_555
H16 C14 1_555 1_555
C15 C2 1_555 1_555
H17 C15 1_555 1_555
H18 C15 1_555 1_555
H19 C15 1_555 1_555
C16 C9 1_555 1_555
H20 C16 1_555 1_555
H21 C16 1_555 1_555
H22 C16 1_555 1_555
C17 C12 1_555 1_555
H23 C17 1_555 1_555
H24 C17 1_555 1_555
H25 C17 1_555 1_555
C18 C13 1_555 1_555
H26 C18 1_555 1_555
C19 C18 1_555 1_555
H27 C19 1_555 1_555
H28 C19 1_555 1_555
H29 C19 1_555 1_555
C20 C18 1_555 1_555
H30 C20 1_555 1_555
H31 C20 1_555 1_555
H32 C20 1_555 1_555
O4 C11 1_555 1_555
C1 C5 1_555 1_555
C4 C5 1_555 1_555
C6 C7 1_555 1_555
C8 C9 1_555 1_555
C8 C14 1_555 1_555
C10 C11 1_555 1_555
C11 C12 1_555 1_555
C12 C13 1_555 1_555
C13 C14 1_555 1_555

#END
