
#######################################################################
#
#                 Cambridge Crystallographic Data Centre
#                                CCDC 
#
#######################################################################
#
# If this CIF has been generated from an entry in the Cambridge 
# Structural Database, then it will include bibliographic, chemical, 
# crystal, experimental, refinement or atomic coordinate data resulting 
# from the CCDC's data processing and validation procedures.
#
#######################################################################

data_SOGMUX
_chemical_formula_moiety         'C14 H18 O7'
_chemical_name_systematic        
'Diethyl 3-hydroxy-4-oxo-2,3,4,5,6,7-hexahydro-1-benzofuran-2,3-dicarboxylate'
_symmetry_cell_setting           monoclinic
_symmetry_space_group_name_H-M   'P 21/c'
_symmetry_Int_Tables_number      14
_space_group_name_Hall           '-P 2ybc'
loop_
_symmetry_equiv_pos_site_id
_symmetry_equiv_pos_as_xyz
1 x,y,z
2 -x,1/2+y,1/2-z
3 -x,-y,-z
4 x,1/2-y,1/2+z
_cell_length_a                   12.0874(11)
_cell_length_b                   8.3643(8)
_cell_length_c                   14.1378(13)
_cell_angle_alpha                90
_cell_angle_beta                 95.2730(10)
_cell_angle_gamma                90
_cell_volume                     1423.32
_exptl_crystal_colour            colorless
_exptl_crystal_description       plate
_cell_formula_units_Z            4
loop_
_atom_site_label
_atom_site_type_symbol
_atom_site_fract_x
_atom_site_fract_y
_atom_site_fract_z
C2 C 0.8432(2) 1.3745(3) 1.09664(17)
C3 C 0.72134(15) 1.3210(2) 1.07767(14)
C4 C 0.71612(13) 1.1608(2) 1.03282(11)
C5 C 0.79539(13) 1.0917(2) 0.98598(11)
C6 C 0.89683(13) 1.1731(2) 0.97005(11)
O1 O 0.96784(9) 1.11417(15) 0.92339(8)
C7 C 0.90944(17) 1.3384(2) 1.01236(15)
O2 O 0.62452(9) 1.06985(14) 1.03825(8)
C8 C 0.63722(13) 0.9318(2) 0.97728(12)
C9 C 0.59440(13) 0.7800(2) 1.01837(12)
O3 O 0.58932(10) 0.65881(14) 0.97222(8)
O4 O 0.56464(9) 0.79759(14) 1.10569(8)
C10 C 0.52109(16) 0.6535(2) 1.14853(13)
C11 C 0.46368(18) 0.7072(3) 1.23282(15)
C12 C 0.76291(13) 0.92095(19) 0.96276(11)
O5 O 0.81269(10) 0.81105(14) 1.02927(8)
C13 C 0.77768(13) 0.8774(2) 0.85912(11)
O6 O 0.74100(10) 0.96043(15) 0.79381(8)
O7 O 0.83196(10) 0.74129(15) 0.85114(8)
C14 C 0.84570(18) 0.6895(2) 0.75425(13)
C15 C 0.8765(2) 0.5164(2) 0.75803(14)
H1 H 0.671(2) 1.392(3) 1.0417(19)
H2 H 0.698(2) 1.314(3) 1.136(2)
H3 H 0.885(3) 1.416(4) 0.957(2)
H4 H 0.986(2) 1.363(3) 1.0220(19)
H5 H 0.5973(15) 0.953(2) 0.9186(13)
H6 H 0.4771(18) 0.600(3) 1.1012(15)
H7 H 0.5839(17) 0.588(2) 1.1659(13)
H8 H 0.403(2) 0.778(3) 1.2123(16)
H9 H 0.433(2) 0.616(3) 1.2607(17)
H10 H 0.516(2) 0.762(3) 1.2777(17)
H11 H 0.881(2) 0.831(3) 1.0393(16)
H12 H 0.776(2) 0.707(3) 0.7175(18)
H13 H 0.9054(18) 0.753(3) 0.7327(15)
H14 H 0.894(2) 0.481(3) 0.6970(19)
H15 H 0.948(2) 0.501(3) 0.8004(18)
H16 H 0.816(2) 0.457(3) 0.7811(17)
C1? C 0.8097(6) 1.4175(9) 1.0323(5)
loop_
_geom_bond_atom_site_label_1
_geom_bond_atom_site_label_2
_geom_bond_site_symmetry_1
_geom_bond_site_symmetry_2
C2 C3 1_555 1_555
C3 C4 1_555 1_555
C4 C5 1_555 1_555
C5 C6 1_555 1_555
C6 O1 1_555 1_555
C7 C2 1_555 1_555
O2 C4 1_555 1_555
C8 O2 1_555 1_555
C9 C8 1_555 1_555
O3 C9 1_555 1_555
O4 C9 1_555 1_555
C10 O4 1_555 1_555
C11 C10 1_555 1_555
C12 C5 1_555 1_555
O5 C12 1_555 1_555
C13 C12 1_555 1_555
O6 C13 1_555 1_555
O7 C13 1_555 1_555
C14 O7 1_555 1_555
C15 C14 1_555 1_555
H1 C3 1_555 1_555
H2 C3 1_555 1_555
H3 C7 1_555 1_555
H4 C7 1_555 1_555
H5 C8 1_555 1_555
H6 C10 1_555 1_555
H7 C10 1_555 1_555
H8 C11 1_555 1_555
H9 C11 1_555 1_555
H10 C11 1_555 1_555
H11 O5 1_555 1_555
H12 C14 1_555 1_555
H13 C14 1_555 1_555
H14 C15 1_555 1_555
H15 C15 1_555 1_555
H16 C15 1_555 1_555
C6 C7 1_555 1_555
C8 C12 1_555 1_555

#END
