
#######################################################################
#
#                 Cambridge Crystallographic Data Centre
#                                CCDC 
#
#######################################################################
#
# If this CIF has been generated from an entry in the Cambridge 
# Structural Database, then it will include bibliographic, chemical, 
# crystal, experimental, refinement or atomic coordinate data resulting 
# from the CCDC's data processing and validation procedures.
#
#######################################################################

data_SOGNEI
_chemical_name_common            
3-(1H-Benzotriazol-1-yl)-4-methyl-2H-benzo[h]chromen-2-one
_chemical_formula_moiety         'C20 H13 N3 O2'
_chemical_name_systematic        
3-(1H-benzotriazol-1-yl)-4-methylbenzo[7,8]coumarin
_symmetry_cell_setting           monoclinic
_symmetry_space_group_name_H-M   'P 21/n'
_symmetry_Int_Tables_number      14
_space_group_name_Hall           '-P 2yn'
loop_
_symmetry_equiv_pos_site_id
_symmetry_equiv_pos_as_xyz
1 x,y,z
2 1/2-x,1/2+y,1/2-z
3 -x,-y,-z
4 1/2+x,1/2-y,1/2+z
_cell_length_a                   6.4080(10)
_cell_length_b                   21.181(3)
_cell_length_c                   11.5900(17)
_cell_angle_alpha                90
_cell_angle_beta                 100.126(2)
_cell_angle_gamma                90
_cell_volume                     1548.58
_chemical_melting_point          '262-264 deg.C'
_cell_formula_units_Z            4
_exptl_crystal_recrystallization_method acetone
_exptl_crystal_preparation       fluorescent
loop_
_atom_site_label
_atom_site_type_symbol
_atom_site_fract_x
_atom_site_fract_y
_atom_site_fract_z
C1 C 1.3291(2) 0.09996(6) 0.94107(12)
C2 C 1.1829(2) 0.07612(7) 1.00547(13)
H1 H 1.0383 0.0755 0.9758
C3 C 1.2641(3) 0.05368(8) 1.11503(14)
H2 H 1.1717 0.0375 1.1612
C4 C 1.4826(3) 0.05432(8) 1.15972(14)
H3 H 1.5310 0.0387 1.2346
C5 C 1.6254(2) 0.07724(8) 1.09600(14)
H4 H 1.7700 0.0772 1.1257
C6 C 1.5458(2) 0.10078(6) 0.98419(13)
C7 C 1.0109(2) 0.07885(7) 0.70917(13)
C8 C 1.1222(2) 0.13675(6) 0.74904(12)
C9 C 1.0529(2) 0.19464(6) 0.70992(12)
C10 C 0.8495(2) 0.19848(6) 0.63238(12)
C11 C 0.7381(2) 0.14386(6) 0.60153(12)
C12 C 0.7519(2) 0.25646(7) 0.59040(13)
H5 H 0.8235 0.2942 0.6097
C13 C 0.5564(2) 0.25758(7) 0.52272(14)
H6 H 0.4965 0.2961 0.4964
C14 C 0.4413(2) 0.20109(7) 0.49126(12)
C15 C 0.2373(3) 0.20056(8) 0.42096(15)
H7 H 0.1758 0.2384 0.3916
C16 C 0.1297(3) 0.14556(9) 0.39564(16)
H8 H -0.0037 0.1462 0.3486
C17 C 0.2170(3) 0.08823(8) 0.43937(16)
H9 H 0.1406 0.0510 0.4226
C18 C 0.4144(3) 0.08662(7) 0.50676(15)
H10 H 0.4717 0.0483 0.5360
C19 C 0.5319(2) 0.14267(6) 0.53236(12)
C20 C 1.1772(2) 0.25380(7) 0.74437(14)
H11 H 1.2887 0.2450 0.8092
H12 H 1.0850 0.2855 0.7667
H13 H 1.2374 0.2687 0.6792
N1 N 1.31070(17) 0.12679(5) 0.83265(10)
N2 N 1.50655(19) 0.14250(7) 0.81012(12)
N3 N 1.64761(19) 0.12711(7) 0.90042(12)
O1 O 0.81878(15) 0.08573(4) 0.63710(9)
O2 O 1.07184(17) 0.02597(5) 0.73360(10)
loop_
_geom_bond_atom_site_label_1
_geom_bond_atom_site_label_2
_geom_bond_site_symmetry_1
_geom_bond_site_symmetry_2
C1 C2 1_555 1_555
C2 H1 1_555 1_555
C3 C2 1_555 1_555
H2 C3 1_555 1_555
C4 C3 1_555 1_555
H3 C4 1_555 1_555
C5 C4 1_555 1_555
H4 C5 1_555 1_555
C6 C1 1_555 1_555
C7 C8 1_555 1_555
C8 C9 1_555 1_555
C9 C10 1_555 1_555
C10 C11 1_555 1_555
C11 C19 1_555 1_555
C12 C10 1_555 1_555
H5 C12 1_555 1_555
C13 C12 1_555 1_555
H6 C13 1_555 1_555
C14 C13 1_555 1_555
C15 C14 1_555 1_555
H7 C15 1_555 1_555
C16 C15 1_555 1_555
H8 C16 1_555 1_555
C17 C16 1_555 1_555
H9 C17 1_555 1_555
C18 C17 1_555 1_555
H10 C18 1_555 1_555
C19 C14 1_555 1_555
C20 C9 1_555 1_555
H11 C20 1_555 1_555
H12 C20 1_555 1_555
H13 C20 1_555 1_555
N1 C1 1_555 1_555
N2 N1 1_555 1_555
N3 C6 1_555 1_555
O1 C7 1_555 1_555
O2 C7 1_555 1_555
C5 C6 1_555 1_555
C8 N1 1_555 1_555
C11 O1 1_555 1_555
C18 C19 1_555 1_555
N2 N3 1_555 1_555

#END
