
#######################################################################
#
#                 Cambridge Crystallographic Data Centre
#                                CCDC 
#
#######################################################################
#
# If this CIF has been generated from an entry in the Cambridge 
# Structural Database, then it will include bibliographic, chemical, 
# crystal, experimental, refinement or atomic coordinate data resulting 
# from the CCDC's data processing and validation procedures.
#
#######################################################################

data_SOGQIP
_chemical_formula_moiety         'C22 H16 N2 O2'
_chemical_name_systematic        
1-[4-(9H-carbazol-9-yl)phenyl]pyrrolidine-2,5-dione
_symmetry_cell_setting           monoclinic
_symmetry_space_group_name_H-M   'C 2/c'
_symmetry_Int_Tables_number      15
_space_group_name_Hall           '-C 2yn'
loop_
_symmetry_equiv_pos_site_id
_symmetry_equiv_pos_as_xyz
1 x,y,z
2 1/2+x,1/2+y,z
3 -x,y,1/2-z
4 1/2-x,1/2+y,1/2-z
5 -x,-y,-z
6 1/2-x,1/2-y,-z
7 x,-y,1/2+z
8 1/2+x,1/2-y,1/2+z
_cell_length_a                   9.1191(18)
_cell_length_b                   21.135(4)
_cell_length_c                   9.3342(19)
_cell_angle_alpha                90
_cell_angle_beta                 110.66(3)
_cell_angle_gamma                90
_cell_volume                     1683.31
_exptl_crystal_description       Block
_cell_formula_units_Z            4
loop_
_atom_site_label
_atom_site_type_symbol
_atom_site_fract_x
_atom_site_fract_y
_atom_site_fract_z
O1 O -0.17070(11) -0.01018(4) 0.87724(11)
N1 N 0.0000 0.26983(7) 0.7500
N2 N 0.0000 0.00462(7) 0.7500
C1 C 0.03819(14) 0.30839(6) 0.64746(15)
C2 C 0.08473(16) 0.29100(7) 0.52717(17)
H1 H 0.0939 0.2487 0.5040
C3 C 0.11680(18) 0.33901(8) 0.44340(19)
H2 H 0.1491 0.3289 0.3622
C4 C 0.10237(18) 0.40229(8) 0.4765(2)
H3 H 0.1250 0.4335 0.4172
C5 C 0.05535(16) 0.41931(7) 0.59505(19)
H4 H 0.0446 0.4617 0.6158
C6 C 0.02378(14) 0.37196(6) 0.68425(15)
C7 C 0.0000 0.20239(8) 0.7500
C8 C 0.13474(15) 0.16973(6) 0.82588(17)
H5 H 0.2267 0.1916 0.8774
C9 C 0.13473(15) 0.10430(6) 0.82623(16)
H6 H 0.2264 0.0823 0.8783
C10 C 0.0000 0.07212(8) 0.7500
C11 C -0.08411(15) -0.03181(6) 0.81797(15)
C12 C -0.04354(16) -0.09977(6) 0.80554(17)
H7 H -0.1376 -0.1254 0.7669
H8 H 0.0222 -0.1161 0.9045
O1B O 0.17070(11) -0.01018(4) 0.62276(11)
C1B C -0.03819(14) 0.30839(6) 0.85254(15)
C2B C -0.08473(16) 0.29100(7) 0.97283(17)
H1B H -0.0939 0.2487 0.9960
C3B C -0.11680(18) 0.33901(8) 1.05660(19)
H2B H -0.1491 0.3289 1.1378
C4B C -0.10237(18) 0.40229(8) 1.0235(2)
H3B H -0.1250 0.4335 1.0828
C5B C -0.05535(16) 0.41931(7) 0.90495(19)
H4B H -0.0446 0.4617 0.8842
C6B C -0.02378(14) 0.37196(6) 0.81575(15)
C8B C -0.13474(15) 0.16973(6) 0.67412(17)
H5B H -0.2267 0.1916 0.6226
C9B C -0.13473(15) 0.10430(6) 0.67377(16)
H6B H -0.2264 0.0823 0.6217
C11B C 0.08411(15) -0.03181(6) 0.68203(15)
C12B C 0.04354(16) -0.09977(6) 0.69446(17)
H7B H 0.1376 -0.1254 0.7331
H8B H -0.0222 -0.1161 0.5955
loop_
_geom_bond_atom_site_label_1
_geom_bond_atom_site_label_2
_geom_bond_site_symmetry_1
_geom_bond_site_symmetry_2
O1 C11 1_555 1_555
N1 C1 1_555 1_555
N2 C10 1_555 1_555
C1 C2 1_555 1_555
C2 H1 1_555 1_555
C3 C2 1_555 1_555
H2 C3 1_555 1_555
C4 C3 1_555 1_555
H3 C4 1_555 1_555
C5 C4 1_555 1_555
H4 C5 1_555 1_555
C6 C1 1_555 1_555
C7 N1 1_555 1_555
C8 C7 1_555 1_555
H5 C8 1_555 1_555
C9 C8 1_555 1_555
H6 C9 1_555 1_555
C10 C9 1_555 1_555
C11 N2 1_555 1_555
C12 C11 1_555 1_555
H7 C12 1_555 1_555
H8 C12 1_555 1_555
O1B C11B 1_555 1_555
C1B N1 1_555 1_555
C2B C1B 1_555 1_555
H1B C2B 1_555 1_555
C3B C2B 1_555 1_555
H2B C3B 1_555 1_555
C4B C3B 1_555 1_555
H3B C4B 1_555 1_555
C5B C4B 1_555 1_555
H4B C5B 1_555 1_555
C6B C6 1_555 1_555
C8B C7 1_555 1_555
H5B C8B 1_555 1_555
C9B C10 1_555 1_555
H6B C9B 1_555 1_555
C11B N2 1_555 1_555
C12B C12 1_555 1_555
H7B C12B 1_555 1_555
H8B C12B 1_555 1_555
C5 C6 1_555 1_555
C1B C6B 1_555 1_555
C5B C6B 1_555 1_555
C8B C9B 1_555 1_555
C11B C12B 1_555 1_555

#END
