
#######################################################################
#
#                 Cambridge Crystallographic Data Centre
#                                CCDC 
#
#######################################################################
#
# If this CIF has been generated from an entry in the Cambridge 
# Structural Database, then it will include bibliographic, chemical, 
# crystal, experimental, refinement or atomic coordinate data resulting 
# from the CCDC's data processing and validation procedures.
#
#######################################################################

data_SOGSOY
_chemical_formula_moiety         'C34 H26 N2 O4'
_chemical_name_systematic        
2,8,21,24-tetraoxa-13,32-diazahexacyclo[31.2.2.2^9,12^.1^3,7^.0^15,20^.0^25,30^]tetraconta-1(35),3(40),4,6,9,11,13,15,17,19,25,27,29,31,33,36,38-heptadecaene
_symmetry_cell_setting           orthorhombic
_symmetry_space_group_name_H-M   'P b c a'
_symmetry_Int_Tables_number      61
_space_group_name_Hall           '-P 2ac 2ab'
loop_
_symmetry_equiv_pos_site_id
_symmetry_equiv_pos_as_xyz
1 x,y,z
2 1/2-x,-y,1/2+z
3 1/2+x,1/2-y,-z
4 -x,1/2+y,1/2-z
5 -x,-y,-z
6 1/2+x,y,1/2-z
7 1/2-x,1/2+y,z
8 x,1/2-y,1/2+z
_cell_length_a                   9.958(4)
_cell_length_b                   20.230(8)
_cell_length_c                   30.201(12)
_cell_angle_alpha                90
_cell_angle_beta                 90
_cell_angle_gamma                90
_cell_volume                     6084
_cell_formula_units_Z            8
loop_
_atom_site_label
_atom_site_type_symbol
_atom_site_fract_x
_atom_site_fract_y
_atom_site_fract_z
C1 C 1.4387(4) 0.0013(2) 0.06236(14)
C2 C 1.5147(5) -0.0524(2) 0.05233(15)
H1 H 1.6080 -0.0502 0.0532
C3 C 1.4518(5) -0.1094(3) 0.04107(17)
H2 H 1.5032 -0.1462 0.0337
C4 C 1.3132(5) -0.1144(2) 0.04021(16)
H3 H 1.2715 -0.1542 0.0331
C5 C 1.2394(4) -0.0596(2) 0.05008(13)
C6 C 1.2994(4) -0.0014(2) 0.06106(14)
H4 H 1.2481 0.0358 0.0676
C7 C 1.0235(4) -0.0311(2) 0.07826(14)
C8 C 1.0510(4) -0.0372(2) 0.12273(15)
H5 H 1.1231 -0.0629 0.1320
C9 C 0.9719(4) -0.0053(2) 0.15343(15)
H6 H 0.9892 -0.0109 0.1835
C10 C 0.8669(4) 0.03499(18) 0.14007(14)
C11 C 0.8369(4) 0.0383(2) 0.09547(16)
H7 H 0.7638 0.0632 0.0861
C12 C 0.9143(4) 0.0050(2) 0.06460(14)
H8 H 0.8924 0.0070 0.0347
C13 C 0.7586(4) 0.1270(2) 0.16729(14)
H9 H 0.7879 0.1485 0.1418
C14 C 0.6776(4) 0.1632(2) 0.19956(16)
C15 C 0.6211(4) 0.1320(3) 0.23522(17)
H10 H 0.6388 0.0873 0.2394
C16 C 0.5396(5) 0.1635(4) 0.2651(2)
H11 H 0.5039 0.1405 0.2890
C17 C 0.5124(5) 0.2266(4) 0.2595(2)
H12 H 0.4520 0.2470 0.2786
C18 C 0.5692(5) 0.2629(3) 0.2269(2)
H13 H 0.5534 0.3081 0.2251
C19 C 0.6551(4) 0.2305(2) 0.19472(19)
C20 C 0.7092(7) 0.3291(3) 0.1573(4)
H14 H 0.6215 0.3395 0.1452
H15 H 0.7135 0.3477 0.1868
C21 C 0.7975(7) 0.3569(4) 0.1336(3)
H16 H 0.7844 0.4043 0.1362
H17 H 0.7795 0.3452 0.1030
C22 C 1.0160(5) 0.3828(2) 0.16934(17)
C23 C 0.9722(7) 0.4408(3) 0.1876(2)
H18 H 0.8861 0.4567 0.1822
C24 C 1.0616(11) 0.4749(3) 0.2143(2)
H19 H 1.0338 0.5147 0.2268
C25 C 1.1887(8) 0.4529(3) 0.22317(19)
H20 H 1.2449 0.4767 0.2419
C26 C 1.2323(5) 0.3951(2) 0.20392(15)
H21 H 1.3183 0.3795 0.2098
C27 C 1.1479(5) 0.36007(19) 0.17566(13)
C28 C 1.1962(4) 0.29990(19) 0.15439(14)
H22 H 1.1344 0.2685 0.1449
C29 C 1.3612(4) 0.2288(2) 0.12925(14)
C30 C 1.4456(4) 0.2306(2) 0.09302(16)
H23 H 1.4730 0.2710 0.0814
C31 C 1.4890(5) 0.1727(3) 0.07410(17)
H24 H 1.5440 0.1741 0.0492
C32 C 1.4528(4) 0.1136(2) 0.09117(16)
C33 C 1.3725(5) 0.1105(2) 0.12802(16)
H25 H 1.3490 0.0699 0.1402
C34 C 1.3267(5) 0.1687(2) 0.14691(16)
H26 H 1.2720 0.1670 0.1718
N1 N 0.7898(3) 0.06709(17) 0.17322(11)
N2 N 1.3197(3) 0.28950(16) 0.14862(12)
O1 O 1.0995(3) -0.06465(15) 0.04670(10)
O2 O 1.5113(3) 0.05787(16) 0.07204(13)
O3 O 0.9379(3) 0.34350(17) 0.14209(13)
O4 O 0.7208(3) 0.26017(15) 0.16055(14)
loop_
_geom_bond_atom_site_label_1
_geom_bond_atom_site_label_2
_geom_bond_site_symmetry_1
_geom_bond_site_symmetry_2
C1 C2 1_555 1_555
C2 H1 1_555 1_555
C3 C2 1_555 1_555
H2 C3 1_555 1_555
C4 C3 1_555 1_555
H3 C4 1_555 1_555
C5 C4 1_555 1_555
C6 C1 1_555 1_555
H4 C6 1_555 1_555
C7 C8 1_555 1_555
C8 H5 1_555 1_555
C9 C8 1_555 1_555
H6 C9 1_555 1_555
C10 C9 1_555 1_555
C11 C10 1_555 1_555
H7 C11 1_555 1_555
C12 C7 1_555 1_555
H8 C12 1_555 1_555
C13 H9 1_555 1_555
C14 C13 1_555 1_555
C15 C14 1_555 1_555
H10 C15 1_555 1_555
C16 C15 1_555 1_555
H11 C16 1_555 1_555
C17 C16 1_555 1_555
H12 C17 1_555 1_555
C18 C17 1_555 1_555
H13 C18 1_555 1_555
C19 C14 1_555 1_555
C20 H14 1_555 1_555
H15 C20 1_555 1_555
C21 C20 1_555 1_555
H16 C21 1_555 1_555
H17 C21 1_555 1_555
C22 C23 1_555 1_555
C23 H18 1_555 1_555
C24 C23 1_555 1_555
H19 C24 1_555 1_555
C25 C24 1_555 1_555
H20 C25 1_555 1_555
C26 C25 1_555 1_555
H21 C26 1_555 1_555
C27 C22 1_555 1_555
C28 C27 1_555 1_555
H22 C28 1_555 1_555
C29 C30 1_555 1_555
C30 H23 1_555 1_555
C31 C30 1_555 1_555
H24 C31 1_555 1_555
C32 C31 1_555 1_555
C33 C32 1_555 1_555
H25 C33 1_555 1_555
C34 C29 1_555 1_555
H26 C34 1_555 1_555
N1 C10 1_555 1_555
N2 C28 1_555 1_555
O1 C5 1_555 1_555
O2 C1 1_555 1_555
O3 C21 1_555 1_555
O4 C19 1_555 1_555
C5 C6 1_555 1_555
C7 O1 1_555 1_555
C11 C12 1_555 1_555
C13 N1 1_555 1_555
C18 C19 1_555 1_555
C20 O4 1_555 1_555
C22 O3 1_555 1_555
C26 C27 1_555 1_555
C29 N2 1_555 1_555
C32 O2 1_555 1_555
C33 C34 1_555 1_555

#END
