
#######################################################################
#
#                 Cambridge Crystallographic Data Centre
#                                CCDC 
#
#######################################################################
#
# If this CIF has been generated from an entry in the Cambridge 
# Structural Database, then it will include bibliographic, chemical, 
# crystal, experimental, refinement or atomic coordinate data resulting 
# from the CCDC's data processing and validation procedures.
#
#######################################################################

data_SOGWOB
_chemical_formula_moiety         'C18 H17 Cl1 N2 O1'
_chemical_name_systematic        
1-Acetyl-3-(4-chlorophenyl)-5-(4-methylphenyl)-2-pyrazoline
_symmetry_cell_setting           monoclinic
_symmetry_space_group_name_H-M   'P 21/c'
_symmetry_Int_Tables_number      14
_space_group_name_Hall           '-P 2ybc'
loop_
_symmetry_equiv_pos_site_id
_symmetry_equiv_pos_as_xyz
1 x,y,z
2 -x,1/2+y,1/2-z
3 -x,-y,-z
4 x,1/2-y,1/2+z
_cell_length_a                   18.158(16)
_cell_length_b                   13.461(12)
_cell_length_c                   14.751(14)
_cell_angle_alpha                90
_cell_angle_beta                 112.654(16)
_cell_angle_gamma                90
_cell_volume                     3327.34
_exptl_crystal_colour            yellow
_chemical_melting_point          123-125deg.C
_cell_formula_units_Z            8
loop_
_atom_site_label
_atom_site_type_symbol
_atom_site_fract_x
_atom_site_fract_y
_atom_site_fract_z
Cl1 Cl 0.02423(6) 0.29488(8) 0.42734(9)
O1 O 0.21638(17) 0.7538(2) 1.0292(2)
N1 N 0.13617(17) 0.5979(2) 0.8221(2)
N2 N 0.17661(18) 0.6752(2) 0.8843(2)
C1 C 0.0845(2) 0.4388(3) 0.6821(3)
H1 H 0.0769 0.4306 0.7406
C2 C 0.0523(2) 0.3700(3) 0.6077(3)
H2 H 0.0226 0.3168 0.6155
C3 C 0.0646(2) 0.3810(3) 0.5221(3)
C4 C 0.1071(2) 0.4601(3) 0.5085(3)
H3 H 0.1144 0.4675 0.4498
C5 C 0.13928(19) 0.5294(3) 0.5841(3)
H4 H 0.1687 0.5826 0.5759
C6 C 0.12771(19) 0.5196(3) 0.6715(3)
C7 C 0.1596(2) 0.5943(3) 0.7498(3)
C8 C 0.2226(2) 0.6701(3) 0.7564(3)
H5 H 0.2065 0.7103 0.6974
H6 H 0.2732 0.6385 0.7670
C9 C 0.2280(2) 0.7336(3) 0.8466(3)
H7 H 0.2831 0.7339 0.8952
C10 C 0.1990(2) 0.8392(3) 0.8202(2)
C11 C 0.2521(2) 0.9173(3) 0.8392(3)
H8 H 0.3063 0.9053 0.8730
C12 C 0.2263(3) 1.0136(3) 0.8090(3)
H9 H 0.2637 1.0645 0.8222
C13 C 0.1466(3) 1.0348(3) 0.7598(3)
C14 C 0.0938(2) 0.9573(3) 0.7426(3)
H10 H 0.0395 0.9696 0.7097
C15 C 0.1192(2) 0.8611(3) 0.7730(3)
H11 H 0.0817 0.8107 0.7612
C16 C 0.1188(3) 1.1395(3) 0.7241(3)
H12 H 0.1097 1.1449 0.6558
H13 H 0.1589 1.1863 0.7612
H14 H 0.0700 1.1533 0.7329
C17 C 0.1756(3) 0.6886(3) 0.9760(3)
C18 C 0.1214(2) 0.6208(3) 1.0030(3)
H15 H 0.1391 0.6174 1.0732
H16 H 0.1227 0.5556 0.9773
H17 H 0.0679 0.6461 0.9757
Cl2 Cl 0.21370(10) 1.19101(11) 0.45905(12)
O2 O 0.57417(18) 0.5764(3) 0.6386(2)
N3 N 0.44483(17) 0.7817(2) 0.5580(2)
N4 N 0.48689(19) 0.7006(3) 0.6129(2)
C19 C 0.3513(2) 0.9556(3) 0.4810(3)
H18 H 0.3735 0.9238 0.4416
C20 C 0.3055(2) 1.0395(4) 0.4468(3)
H19 H 0.2962 1.0631 0.3841
C21 C 0.2734(3) 1.0883(3) 0.5044(4)
C22 C 0.2872(3) 1.0536(4) 0.5974(4)
H20 H 0.2657 1.0869 0.6368
C23 C 0.3327(2) 0.9696(3) 0.6322(3)
H21 H 0.3422 0.9470 0.6953
C24 C 0.3647(2) 0.9182(3) 0.5738(3)
C25 C 0.4121(2) 0.8272(3) 0.6101(3)
C26 C 0.4286(2) 0.7815(3) 0.7091(3)
H22 H 0.3794 0.7657 0.7173
H23 H 0.4605 0.8254 0.7617
C27 C 0.4752(2) 0.6865(3) 0.7065(3)
H24 H 0.5271 0.6873 0.7616
C28 C 0.4325(2) 0.5906(3) 0.7078(3)
C29 C 0.4525(2) 0.5359(3) 0.7926(3)
H25 H 0.4937 0.5576 0.8495
C30 C 0.4121(3) 0.4482(4) 0.7948(4)
H26 H 0.4264 0.4122 0.8529
C31 C 0.3506(3) 0.4146(3) 0.7103(4)
C32 C 0.3312(3) 0.4699(4) 0.6259(4)
H27 H 0.2906 0.4479 0.5686
C33 C 0.3705(3) 0.5570(4) 0.6241(3)
H28 H 0.3553 0.5936 0.5663
C34 C 0.3068(3) 0.3189(3) 0.7129(4)
H29 H 0.2512 0.3328 0.6952
H30 H 0.3287 0.2914 0.7779
H31 H 0.3131 0.2722 0.6672
C35 C 0.5357(3) 0.6428(4) 0.5842(4)
C36 C 0.5383(3) 0.6654(4) 0.4863(4)
H32 H 0.5869 0.7000 0.4954
H33 H 0.4935 0.7063 0.4491
H34 H 0.5363 0.6045 0.4515
loop_
_geom_bond_atom_site_label_1
_geom_bond_atom_site_label_2
_geom_bond_site_symmetry_1
_geom_bond_site_symmetry_2
Cl1 C3 1_555 1_555
Cl2 C21 1_555 1_555
O1 C17 1_555 1_555
O2 C35 1_555 1_555
N1 N2 1_555 1_555
N2 C9 1_555 1_555
N3 N4 1_555 1_555
N4 C27 1_555 1_555
C1 H1 1_555 1_555
C2 C1 1_555 1_555
H2 C2 1_555 1_555
C3 C2 1_555 1_555
C4 C3 1_555 1_555
H3 C4 1_555 1_555
C5 C4 1_555 1_555
H4 C5 1_555 1_555
C6 C1 1_555 1_555
C7 N1 1_555 1_555
C8 C7 1_555 1_555
H5 C8 1_555 1_555
H6 C8 1_555 1_555
C9 C8 1_555 1_555
H7 C9 1_555 1_555
C10 C9 1_555 1_555
C11 C10 1_555 1_555
H8 C11 1_555 1_555
C12 C11 1_555 1_555
H9 C12 1_555 1_555
C13 C12 1_555 1_555
C14 C13 1_555 1_555
H10 C14 1_555 1_555
C15 C10 1_555 1_555
H11 C15 1_555 1_555
C16 C13 1_555 1_555
H12 C16 1_555 1_555
H13 C16 1_555 1_555
H14 C16 1_555 1_555
C17 N2 1_555 1_555
C18 C17 1_555 1_555
H15 C18 1_555 1_555
H16 C18 1_555 1_555
H17 C18 1_555 1_555
C19 H18 1_555 1_555
C20 C19 1_555 1_555
H19 C20 1_555 1_555
C21 C20 1_555 1_555
C22 C21 1_555 1_555
H20 C22 1_555 1_555
C23 C22 1_555 1_555
H21 C23 1_555 1_555
C24 C19 1_555 1_555
C25 N3 1_555 1_555
C26 C25 1_555 1_555
H22 C26 1_555 1_555
H23 C26 1_555 1_555
C27 C26 1_555 1_555
H24 C27 1_555 1_555
C28 C27 1_555 1_555
C29 C28 1_555 1_555
H25 C29 1_555 1_555
C30 C29 1_555 1_555
H26 C30 1_555 1_555
C31 C30 1_555 1_555
C32 C31 1_555 1_555
H27 C32 1_555 1_555
C33 C28 1_555 1_555
H28 C33 1_555 1_555
C34 C31 1_555 1_555
H29 C34 1_555 1_555
H30 C34 1_555 1_555
H31 C34 1_555 1_555
C35 N4 1_555 1_555
C36 C35 1_555 1_555
H32 C36 1_555 1_555
H33 C36 1_555 1_555
H34 C36 1_555 1_555
C5 C6 1_555 1_555
C6 C7 1_555 1_555
C14 C15 1_555 1_555
C23 C24 1_555 1_555
C24 C25 1_555 1_555
C32 C33 1_555 1_555

#END
