
#######################################################################
#
#                 Cambridge Crystallographic Data Centre
#                                CCDC 
#
#######################################################################
#
# If this CIF has been generated from an entry in the Cambridge 
# Structural Database, then it will include bibliographic, chemical, 
# crystal, experimental, refinement or atomic coordinate data resulting 
# from the CCDC's data processing and validation procedures.
#
#######################################################################

data_SOHGUT
_chemical_formula_moiety         'C50 H52 N2'
_chemical_name_systematic        
N,N'-bis(2-methyl-4,6-bis(1-phenylethyl)phenyl)butane-2,3-diimine
_symmetry_cell_setting           monoclinic
_symmetry_space_group_name_H-M   'C 2/c'
_symmetry_Int_Tables_number      15
_space_group_name_Hall           '-C 2yn'
loop_
_symmetry_equiv_pos_site_id
_symmetry_equiv_pos_as_xyz
1 x,y,z
2 -x,y,1/2-z
3 1/2+x,1/2+y,z
4 1/2-x,1/2+y,1/2-z
5 -x,-y,-z
6 x,-y,1/2+z
7 1/2-x,1/2-y,-z
8 1/2+x,1/2-y,1/2+z
_cell_length_a                   27.51(2)
_cell_length_b                   6.599(5)
_cell_length_c                   25.42(3)
_cell_angle_alpha                90
_cell_angle_beta                 120.848(8)
_cell_angle_gamma                90
_cell_volume                     3961.87
_exptl_crystal_colour            yellow
_exptl_crystal_description       block
_cell_formula_units_Z            4
_chemical_properties_physical    'air- and moisture-sensitive; Oxygen-sensitive'
_exptl_crystal_recrystallization_method dichloromethane/n-hexane
loop_
_atom_site_label
_atom_site_type_symbol
_atom_site_fract_x
_atom_site_fract_y
_atom_site_fract_z
C1 C 0.3143(2) -0.1050(9) 0.0728(3)
H1 H 0.2759 -0.0955 0.0437
C2 C 0.3480(3) -0.2329(10) 0.0624(3)
H2 H 0.3320 -0.3106 0.0269
C3 C 0.4045(3) -0.2470(10) 0.1034(4)
H3 H 0.4272 -0.3304 0.0954
C4 C 0.4272(2) -0.1395(10) 0.1556(3)
H4 H 0.4656 -0.1511 0.1844
C5 C 0.3936(2) -0.0114(9) 0.1668(2)
H5 H 0.4097 0.0629 0.2030
C6 C 0.33615(18) 0.0074(8) 0.1247(2)
C7 C 0.30159(19) 0.1627(8) 0.1361(3)
H6 H 0.3161 0.1604 0.1803
C8 C 0.23952(18) 0.1092(8) 0.1052(2)
C9 C 0.19876(19) 0.2078(8) 0.0538(2)
H7 H 0.2099 0.3106 0.0371
C10 C 0.14139(18) 0.1599(8) 0.0256(2)
C11 C 0.12535(17) 0.0055(7) 0.0507(2)
C12 C 0.16555(17) -0.0991(7) 0.1029(2)
C13 C 0.22199(17) -0.0423(7) 0.1289(2)
H8 H 0.2491 -0.1098 0.1639
C14 C 0.3128(2) 0.3691(10) 0.1219(3)
H9 H 0.3516 0.4047 0.1500
H10 H 0.2884 0.4643 0.1256
H11 H 0.3057 0.3721 0.0808
C15 C 0.0990(2) 0.2710(9) -0.0322(2)
H12 H 0.0666 0.1864 -0.0560
H13 H 0.1162 0.3033 -0.0558
H14 H 0.0875 0.3937 -0.0214
C16 C 0.14537(18) -0.2581(7) 0.1297(2)
H15 H 0.1171 -0.3391 0.0952
C17 C 0.11556(18) -0.1674(7) 0.1600(2)
C18 C 0.0665(2) -0.2481(9) 0.1524(2)
H16 H 0.0510 -0.3614 0.1276
C19 C 0.0397(2) -0.1659(11) 0.1807(3)
H17 H 0.0065 -0.2240 0.1750
C20 C 0.0617(3) -0.0005(12) 0.2165(3)
H18 H 0.0433 0.0560 0.2351
C21 C 0.1102(3) 0.0839(10) 0.2256(3)
H19 H 0.1255 0.1964 0.2510
C22 C 0.1364(2) 0.0020(8) 0.1972(2)
H20 H 0.1693 0.0622 0.2030
C23 C 0.1908(2) -0.4055(8) 0.1736(3)
H21 H 0.2064 -0.4757 0.1525
H22 H 0.1744 -0.5017 0.1883
H23 H 0.2203 -0.3320 0.2076
C24 C 0.02904(16) 0.0404(6) 0.01863(19)
C25 C 0.03639(18) 0.2342(7) 0.0528(2)
H24 H 0.0245 0.2145 0.0820
H25 H 0.0138 0.3386 0.0244
H26 H 0.0755 0.2736 0.0739
N1 N 0.06814(13) -0.0616(5) 0.01927(15)
C1D C -0.3143(2) 0.1050(9) -0.0728(3)
H1D H -0.2759 0.0955 -0.0437
C2D C -0.3480(3) 0.2329(10) -0.0624(3)
H2D H -0.3320 0.3106 -0.0269
C3D C -0.4045(3) 0.2470(10) -0.1034(4)
H3D H -0.4272 0.3304 -0.0954
C4D C -0.4272(2) 0.1395(10) -0.1556(3)
H4D H -0.4656 0.1511 -0.1844
C5D C -0.3936(2) 0.0114(9) -0.1668(2)
H5D H -0.4097 -0.0629 -0.2030
C6D C -0.33615(18) -0.0074(8) -0.1247(2)
C7D C -0.30159(19) -0.1627(8) -0.1361(3)
H6D H -0.3161 -0.1604 -0.1803
C8D C -0.23952(18) -0.1092(8) -0.1052(2)
C9D C -0.19876(19) -0.2078(8) -0.0538(2)
H7D H -0.2099 -0.3106 -0.0371
C10D C -0.14139(18) -0.1599(8) -0.0256(2)
C11D C -0.12535(17) -0.0055(7) -0.0507(2)
C12D C -0.16555(17) 0.0991(7) -0.1029(2)
C13D C -0.22199(17) 0.0423(7) -0.1289(2)
H8D H -0.2491 0.1098 -0.1639
C14D C -0.3128(2) -0.3691(10) -0.1219(3)
H9D H -0.3516 -0.4047 -0.1500
H10D H -0.2884 -0.4643 -0.1256
H11D H -0.3057 -0.3721 -0.0808
C15D C -0.0990(2) -0.2710(9) 0.0322(2)
H12D H -0.0666 -0.1864 0.0560
H13D H -0.1162 -0.3033 0.0558
H14D H -0.0875 -0.3937 0.0214
C16D C -0.14537(18) 0.2581(7) -0.1297(2)
H15D H -0.1171 0.3391 -0.0952
C17D C -0.11556(18) 0.1674(7) -0.1600(2)
C18D C -0.0665(2) 0.2481(9) -0.1524(2)
H16D H -0.0510 0.3614 -0.1276
C19D C -0.0397(2) 0.1659(11) -0.1807(3)
H17D H -0.0065 0.2240 -0.1750
C20D C -0.0617(3) 0.0005(12) -0.2165(3)
H18D H -0.0433 -0.0560 -0.2351
C21D C -0.1102(3) -0.0839(10) -0.2256(3)
H19D H -0.1255 -0.1964 -0.2510
C22D C -0.1364(2) -0.0020(8) -0.1972(2)
H20D H -0.1693 -0.0622 -0.2030
C23D C -0.1908(2) 0.4055(8) -0.1736(3)
H21D H -0.2064 0.4757 -0.1525
H22D H -0.1744 0.5017 -0.1883
H23D H -0.2203 0.3320 -0.2076
C24D C -0.02904(16) -0.0404(6) -0.01863(19)
C25D C -0.03639(18) -0.2342(7) -0.0528(2)
H24D H -0.0245 -0.2145 -0.0820
H25D H -0.0138 -0.3386 -0.0244
H26D H -0.0755 -0.2736 -0.0739
N1D N -0.06814(13) 0.0616(5) -0.01927(15)
loop_
_geom_bond_atom_site_label_1
_geom_bond_atom_site_label_2
_geom_bond_site_symmetry_1
_geom_bond_site_symmetry_2
C1 H1 1_555 1_555
C2 C1 1_555 1_555
H2 C2 1_555 1_555
C3 C2 1_555 1_555
H3 C3 1_555 1_555
C4 C3 1_555 1_555
H4 C4 1_555 1_555
C5 C4 1_555 1_555
H5 C5 1_555 1_555
C6 C1 1_555 1_555
C7 C6 1_555 1_555
H6 C7 1_555 1_555
C8 C7 1_555 1_555
C9 C8 1_555 1_555
H7 C9 1_555 1_555
C10 C9 1_555 1_555
C11 C10 1_555 1_555
C12 C11 1_555 1_555
C13 C8 1_555 1_555
H8 C13 1_555 1_555
C14 C7 1_555 1_555
H9 C14 1_555 1_555
H10 C14 1_555 1_555
H11 C14 1_555 1_555
C15 C10 1_555 1_555
H12 C15 1_555 1_555
H13 C15 1_555 1_555
H14 C15 1_555 1_555
C16 C12 1_555 1_555
H15 C16 1_555 1_555
C17 C16 1_555 1_555
C18 C17 1_555 1_555
H16 C18 1_555 1_555
C19 C18 1_555 1_555
H17 C19 1_555 1_555
C20 C19 1_555 1_555
H18 C20 1_555 1_555
C21 C20 1_555 1_555
H19 C21 1_555 1_555
C22 C17 1_555 1_555
H20 C22 1_555 1_555
C23 C16 1_555 1_555
H21 C23 1_555 1_555
H22 C23 1_555 1_555
H23 C23 1_555 1_555
C24 C25 1_555 1_555
C25 H24 1_555 1_555
H25 C25 1_555 1_555
H26 C25 1_555 1_555
N1 C11 1_555 1_555
C1D H1D 1_555 1_555
C2D C1D 1_555 1_555
H2D C2D 1_555 1_555
C3D C2D 1_555 1_555
H3D C3D 1_555 1_555
C4D C3D 1_555 1_555
H4D C4D 1_555 1_555
C5D C4D 1_555 1_555
H5D C5D 1_555 1_555
C6D C1D 1_555 1_555
C7D C6D 1_555 1_555
H6D C7D 1_555 1_555
C8D C7D 1_555 1_555
C9D C8D 1_555 1_555
H7D C9D 1_555 1_555
C10D C9D 1_555 1_555
C11D C10D 1_555 1_555
C12D C11D 1_555 1_555
C13D C8D 1_555 1_555
H8D C13D 1_555 1_555
C14D C7D 1_555 1_555
H9D C14D 1_555 1_555
H10D C14D 1_555 1_555
H11D C14D 1_555 1_555
C15D C10D 1_555 1_555
H12D C15D 1_555 1_555
H13D C15D 1_555 1_555
H14D C15D 1_555 1_555
C16D C12D 1_555 1_555
H15D C16D 1_555 1_555
C17D C16D 1_555 1_555
C18D C17D 1_555 1_555
H16D C18D 1_555 1_555
C19D C18D 1_555 1_555
H17D C19D 1_555 1_555
C20D C19D 1_555 1_555
H18D C20D 1_555 1_555
C21D C20D 1_555 1_555
H19D C21D 1_555 1_555
C22D C17D 1_555 1_555
H20D C22D 1_555 1_555
C23D C16D 1_555 1_555
H21D C23D 1_555 1_555
H22D C23D 1_555 1_555
H23D C23D 1_555 1_555
C24D C24 1_555 1_555
C25D C24D 1_555 1_555
H24D C25D 1_555 1_555
H25D C25D 1_555 1_555
H26D C25D 1_555 1_555
N1D C11D 1_555 1_555
C5 C6 1_555 1_555
C12 C13 1_555 1_555
C21 C22 1_555 1_555
C24 N1 1_555 1_555
C5D C6D 1_555 1_555
C12D C13D 1_555 1_555
C21D C22D 1_555 1_555
C24D N1D 1_555 1_555

#END
