
#######################################################################
#
#                 Cambridge Crystallographic Data Centre
#                                CCDC 
#
#######################################################################
#
# If this CIF has been generated from an entry in the Cambridge 
# Structural Database, then it will include bibliographic, chemical, 
# crystal, experimental, refinement or atomic coordinate data resulting 
# from the CCDC's data processing and validation procedures.
#
#######################################################################

data_SOHHOM
_chemical_formula_moiety         'C9 H8 Cl1 N1 O2'
_chemical_name_systematic        (E)-1-(p-Chlorophenyl)-2-nitropropene
_symmetry_cell_setting           monoclinic
_symmetry_space_group_name_H-M   'P 21/c'
_symmetry_Int_Tables_number      14
_space_group_name_Hall           '-P 2ybc'
loop_
_symmetry_equiv_pos_site_id
_symmetry_equiv_pos_as_xyz
1 x,y,z
2 -x,1/2+y,1/2-z
3 -x,-y,-z
4 x,1/2-y,1/2+z
_cell_length_a                   12.943(3)
_cell_length_b                   9.760(4)
_cell_length_c                   14.597(4)
_cell_angle_alpha                90
_cell_angle_beta                 96.32(2)
_cell_angle_gamma                90
_cell_volume                     1832.74
_cell_formula_units_Z            8
loop_
_atom_site_label
_atom_site_type_symbol
_atom_site_fract_x
_atom_site_fract_y
_atom_site_fract_z
Cl1 Cl 0.04714(5) 0.14218(7) 0.45952(5)
C1 C 0.32917(16) 0.61974(23) 0.42902(15)
C2 C 0.31262(17) 0.75507(23) 0.42659(15)
C3 C 0.21703(19) 0.83535(26) 0.43598(19)
C4 C 0.25507(16) 0.50880(21) 0.43763(14)
C5 C 0.14756(18) 0.51899(24) 0.41671(17)
C6 C 0.08387(17) 0.40664(25) 0.42357(17)
C7 C 0.12705(17) 0.28355(24) 0.45175(16)
C8 C 0.23322(18) 0.26870(24) 0.47178(17)
C9 C 0.29635(17) 0.38103(24) 0.46415(17)
N1 N 0.40520(17) 0.83934(23) 0.41448(14)
O1 O 0.49001(14) 0.78515(22) 0.41296(17)
O2 O 0.39190(17) 0.96270(20) 0.40519(16)
H1 H 0.40500 0.58200 0.41900
H2 H 0.24300 0.92100 0.47000
H3 H 0.18100 0.85500 0.37400
H4 H 0.16400 0.78300 0.47000
H5 H 0.11500 0.61700 0.38900
H6 H 0.00400 0.41800 0.40500
H7 H 0.26800 0.17800 0.49300
H8 H 0.37300 0.36800 0.47800
Cl2 Cl 0.55495(5) 0.42201(6) 0.33896(5)
C10 C 0.82623(16) -0.06703(23) 0.30818(15)
C11 C 0.80451(17) -0.19832(24) 0.29028(15)
C12 C 0.70370(19) -0.26951(26) 0.26837(18)
C13 C 0.75598(15) 0.04752(21) 0.31607(14)
C14 C 0.65254(17) 0.03558(23) 0.33660(16)
C15 C 0.59188(16) 0.14984(24) 0.34354(16)
C16 C 0.63202(16) 0.27812(22) 0.33072(14)
C17 C 0.73450(17) 0.29426(23) 0.31280(16)
C18 C 0.79465(15) 0.17990(24) 0.30600(15)
N2 N 0.89580(17) -0.28966(24) 0.29106(16)
O3 O 0.98299(14) -0.24166(22) 0.29716(16)
O4 O 0.88009(18) -0.41283(22) 0.28611(21)
H9 H 0.90400 -0.05300 0.33000
H10 H 0.68700 -0.31200 0.32200
H11 H 0.70900 -0.34800 0.21900
H12 H 0.65700 -0.20700 0.24400
H13 H 0.62700 -0.06200 0.35700
H14 H 0.51800 0.14200 0.36000
H15 H 0.75800 0.39100 0.30000
H16 H 0.87200 0.19200 0.29500
loop_
_geom_bond_atom_site_label_1
_geom_bond_atom_site_label_2
_geom_bond_site_symmetry_1
_geom_bond_site_symmetry_2
Cl1 C7 1_555 1_555
C1 C2 1_555 1_555
C2 C3 1_555 1_555
C3 H2 1_555 1_555
C4 C1 1_555 1_555
C5 C4 1_555 1_555
C6 C5 1_555 1_555
C7 C6 1_555 1_555
C8 C7 1_555 1_555
C9 C4 1_555 1_555
N1 C2 1_555 1_555
O1 N1 1_555 1_555
O2 N1 1_555 1_555
Cl2 C16 1_555 1_555
C10 C11 1_555 1_555
C11 C12 1_555 1_555
C12 H10 1_555 1_555
C13 C10 1_555 1_555
C14 C13 1_555 1_555
C15 C14 1_555 1_555
C16 C15 1_555 1_555
C17 C16 1_555 1_555
C18 C13 1_555 1_555
N2 C11 1_555 1_555
O3 N2 1_555 1_555
O4 N2 1_555 1_555
H1 C1 1_555 1_555
H3 C3 1_555 1_555
H4 C3 1_555 1_555
H5 C5 1_555 1_555
H6 C6 1_555 1_555
H7 C8 1_555 1_555
H8 C9 1_555 1_555
H9 C10 1_555 1_555
H11 C12 1_555 1_555
H12 C12 1_555 1_555
H13 C14 1_555 1_555
H14 C15 1_555 1_555
H15 C17 1_555 1_555
H16 C18 1_555 1_555
C8 C9 1_555 1_555
C17 C18 1_555 1_555

#END
