
#######################################################################
#
#                 Cambridge Crystallographic Data Centre
#                                CCDC 
#
#######################################################################
#
# If this CIF has been generated from an entry in the Cambridge 
# Structural Database, then it will include bibliographic, chemical, 
# crystal, experimental, refinement or atomic coordinate data resulting 
# from the CCDC's data processing and validation procedures.
#
#######################################################################

data_SOHROW
_chemical_compound_source        'Schisandra Sphenanthera Rehd. et Wils'
_chemical_formula_moiety         'C21 H24 O5'
_chemical_name_systematic        Schisandrone
_symmetry_cell_setting           triclinic
_symmetry_space_group_name_H-M   'P 1'
_symmetry_Int_Tables_number      1
_space_group_name_Hall           'P 1'
loop_
_symmetry_equiv_pos_site_id
_symmetry_equiv_pos_as_xyz
1 x,y,z
_cell_length_a                   9.109(3)
_cell_length_b                   9.749(2)
_cell_length_c                   11.663(1)
_cell_angle_alpha                65.21(1)
_cell_angle_beta                 89.82(1)
_cell_angle_gamma                89.96(2)
_cell_volume                     940.271
_exptl_crystal_colour            colorless
_cell_formula_units_Z            2
loop_
_atom_site_label
_atom_site_type_symbol
_atom_site_fract_x
_atom_site_fract_y
_atom_site_fract_z
O1 O 0.5320 0.6053 0.6160
O2 O 0.7732(6) 0.7502(6) 0.5572(4)
O3 O 0.5148(6) 0.9246(5) -0.1099(4)
O4 O 0.5899(7) 0.8065(6) -0.2639(4)
O5 O 0.6648(8) 0.2497(6) 0.0093(5)
C1 C 0.5798(8) 0.5332(7) 0.1245(6)
C2 C 0.5847(8) 0.4392(7) 0.2675(6)
C3 C 0.687(1) 0.3031(8) 0.2963(6)
C4 C 0.643(1) 0.2073(8) 0.2253(7)
C5 C 0.6425(9) 0.3084(8) 0.0839(6)
C6 C 0.6119(8) 0.4696(7) 0.0403(6)
C7 C 0.6152(8) 0.5598(8) -0.0913(6)
C8 C 0.5850(8) 0.7115(8) -0.1377(6)
C9 C 0.5446(8) 0.7750(7) -0.0542(6)
C10 C 0.5443(8) 0.6864(7) 0.0750(6)
C11 C 0.6328(8) 0.5280(8) 0.3401(6)
C12 C 0.5509(8) 0.5275(8) 0.4429(6)
C13 C 0.6029(8) 0.6003(8) 0.5119(5)
C14 C 0.7335(8) 0.6796(7) 0.4824(6)
C15 C 0.8165(9) 0.6837(8) 0.3807(6)
C16 C 0.7660(9) 0.6055(8) 0.3104(6)
C17 C 0.404(1) 0.512(1) 0.6632(8)
C18 C 0.915(1) 0.8226(8) 0.5359(7)
C19 C 0.694(1) 0.2026(9) 0.4428(7)
C20 C 0.496(1) 0.124(1) 0.264(1)
C21 C 0.464(1) 0.9999(9) -0.0330(8)
O6 O 1.1818(6) 1.0845(7) 0.6587(5)
O7 O 0.9403(6) 1.1705(6) 0.7168(5)
O8 O 1.1990(6) 0.6779(5) 1.3840(5)
O9 O 1.1231(7) 0.4057(6) 1.5377(4)
O10 O 1.0482(8) 0.1222(5) 1.2649(5)
C22 C 1.1357(8) 0.5206(7) 1.1497(6)
C23 C 1.1299(8) 0.5701(7) 1.0064(6)
C24 C 1.030(1) 0.4622(8) 0.9775(7)
C25 C 1.073(1) 0.2599(9) 1.0492(7)
C26 C 1.0727(9) 0.2533(8) 1.1903(7)
C27 C 1.1033(8) 0.3733(7) 1.2334(6)
C28 C 1.0990(8) 0.3309(4) 1.3653(7)
C29 C 1.1296(9) 0.4368(8) 1.4126(6)
C30 C 1.1704(8) 0.5839(7) 1.3278(6)
C31 C 1.1707(8) 0.6244(7) 1.1984(6)
C32 C 1.0819(8) 0.7306(8) 0.9340(6)
C33 C 1.1640(8) 0.8334(8) 0.8321(6)
C34 C 1.1125(8) 0.9747(8) 0.7622(6)
C35 C 0.9807(8) 1.0247(7) 0.7918(6)
C36 C 0.8971(8) 0.9276(8) 0.8926(6)
C37 C 0.9495(9) 0.7786(8) 0.9636(7)
C38 C 1.311(1) 1.038(1) 0.6112(9)
C39 C 0.798(1) 1.2205(9) 0.7391(9)
C40 C 1.021(1) 0.509(1) 0.8307(7)
C41 C 1.220(1) 0.252(1) 1.009(1)
C42 C 1.250(1) 0.8291(9) 1.3083(8)
loop_
_geom_bond_atom_site_label_1
_geom_bond_atom_site_label_2
_geom_bond_site_symmetry_1
_geom_bond_site_symmetry_2
O1 C13 1_555 1_555
O2 C14 1_555 1_555
O3 C9 1_555 1_555
O4 C8 1_555 1_555
O5 C5 1_555 1_555
C1 C2 1_555 1_555
C2 C3 1_555 1_555
C3 C4 1_555 1_555
C4 C5 1_555 1_555
C5 C6 1_555 1_555
C6 C1 1_555 1_555
C7 C6 1_555 1_555
C8 C7 1_555 1_555
C9 C8 1_555 1_555
C10 C1 1_555 1_555
C11 C2 1_555 1_555
C12 C11 1_555 1_555
C13 C12 1_555 1_555
C14 C13 1_555 1_555
C15 C14 1_555 1_555
C16 C11 1_555 1_555
C17 O1 1_555 1_555
C18 O2 1_555 1_555
C19 C3 1_555 1_555
C20 C4 1_555 1_555
C21 O3 1_555 1_555
O6 C34 1_555 1_555
O7 C35 1_555 1_555
O8 C30 1_555 1_555
O9 C29 1_555 1_555
O10 C26 1_555 1_555
C22 C23 1_555 1_555
C23 C24 1_555 1_555
C24 C25 1_555 1_555
C25 C26 1_555 1_555
C26 C27 1_555 1_555
C27 C22 1_555 1_555
C28 C27 1_555 1_555
C29 C28 1_555 1_555
C30 C29 1_555 1_555
C31 C22 1_555 1_555
C32 C23 1_555 1_555
C33 C32 1_555 1_555
C34 C33 1_555 1_555
C35 C34 1_555 1_555
C36 C35 1_555 1_555
C37 C32 1_555 1_555
C38 O6 1_555 1_555
C39 O7 1_555 1_555
C40 C24 1_555 1_555
C41 C25 1_555 1_555
C42 O8 1_555 1_555
C9 C10 1_555 1_555
C15 C16 1_555 1_555
C30 C31 1_555 1_555
C36 C37 1_555 1_555

#END
