
#######################################################################
#
#                 Cambridge Crystallographic Data Centre
#                                CCDC 
#
#######################################################################
#
# If this CIF has been generated from an entry in the Cambridge 
# Structural Database, then it will include bibliographic, chemical, 
# crystal, experimental, refinement or atomic coordinate data resulting 
# from the CCDC's data processing and validation procedures.
#
#######################################################################

data_SOHVER
_chemical_formula_moiety         'C18 H14 O3'
_chemical_name_systematic        
(5-(4-methoxy-phenyl)furan-2-yl)(phenyl)methanone
_symmetry_cell_setting           triclinic
_symmetry_space_group_name_H-M   'P 1'
_symmetry_Int_Tables_number      1
_space_group_name_Hall           'P 1'
loop_
_symmetry_equiv_pos_site_id
_symmetry_equiv_pos_as_xyz
1 x,y,z
_cell_length_a                   4.8315(10)
_cell_length_b                   8.0044(17)
_cell_length_c                   9.992(2)
_cell_angle_alpha                104.302(4)
_cell_angle_beta                 99.710(4)
_cell_angle_gamma                106.187(3)
_cell_volume                     347.691
_exptl_crystal_colour            yellow
_exptl_crystal_description       prismatic
_chemical_melting_point          '85-86 deg.C'
_cell_formula_units_Z            1
loop_
_atom_site_label
_atom_site_type_symbol
_atom_site_fract_x
_atom_site_fract_y
_atom_site_fract_z
O1 O -0.2133(6) 0.5818(3) 0.5556(3)
O2 O 0.1830(4) 0.6563(2) 0.8043(2)
O3 O 0.9091(5) 0.2577(3) 1.1161(2)
C1 C -0.1443(7) 0.7329(4) 0.6407(3)
C2 C 0.0423(7) 0.7784(4) 0.7836(3)
C3 C 0.0956(7) 0.9085(4) 0.9099(3)
H1 H 0.0271 1.0075 0.9251
C4 C 0.2740(7) 0.8656(4) 1.0137(3)
H2 H 0.3458 0.9307 1.1105
C5 C 0.3213(6) 0.7109(4) 0.9452(3)
C6 C 0.4825(6) 0.5985(4) 0.9926(3)
C7 C 0.5390(6) 0.4637(4) 0.8955(3)
H3 H 0.4790 0.4471 0.7983
C8 C 0.6826(7) 0.3538(4) 0.9411(3)
H4 H 0.7188 0.2638 0.8746
C9 C 0.7730(6) 0.3767(4) 1.0847(3)
C10 C 0.7237(7) 0.5119(4) 1.1834(3)
H5 H 0.7872 0.5290 1.2805
C11 C 0.5799(7) 0.6216(4) 1.1374(3)
H6 H 0.5471 0.7129 1.2043
C12 C -0.2549(6) 0.8753(4) 0.6006(3)
C13 C -0.0839(7) 1.0597(4) 0.6506(3)
H7 H 0.0994 1.0994 0.7169
C14 C -0.1866(7) 1.1843(4) 0.6016(3)
H8 H -0.0715 1.3077 0.6343
C15 C -0.4552(8) 1.1263(4) 0.5058(4)
H9 H -0.5239 1.2109 0.4740
C16 C -0.6272(8) 0.9442(5) 0.4551(4)
H10 H -0.8111 0.9057 0.3896
C17 C -0.5247(7) 0.8189(4) 0.5021(3)
H11 H -0.6389 0.6954 0.4669
C18 C 1.0018(11) 0.2689(7) 1.2602(5)
H12 H 1.1551 0.3846 1.3108
H13 H 1.0784 0.1716 1.2660
H14 H 0.8354 0.2580 1.3020
loop_
_geom_bond_atom_site_label_1
_geom_bond_atom_site_label_2
_geom_bond_site_symmetry_1
_geom_bond_site_symmetry_2
O1 C1 1_555 1_555
O2 C2 1_555 1_555
O3 C9 1_555 1_555
C1 C2 1_555 1_555
C2 C3 1_555 1_555
C3 H1 1_555 1_555
C4 C3 1_555 1_555
H2 C4 1_555 1_555
C5 O2 1_555 1_555
C6 C5 1_555 1_555
C7 C6 1_555 1_555
H3 C7 1_555 1_555
C8 C7 1_555 1_555
H4 C8 1_555 1_555
C9 C8 1_555 1_555
C10 C9 1_555 1_555
H5 C10 1_555 1_555
C11 C6 1_555 1_555
H6 C11 1_555 1_555
C12 C1 1_555 1_555
C13 C12 1_555 1_555
H7 C13 1_555 1_555
C14 C13 1_555 1_555
H8 C14 1_555 1_555
C15 C14 1_555 1_555
H9 C15 1_555 1_555
C16 C15 1_555 1_555
H10 C16 1_555 1_555
C17 C12 1_555 1_555
H11 C17 1_555 1_555
C18 O3 1_555 1_555
H12 C18 1_555 1_555
H13 C18 1_555 1_555
H14 C18 1_555 1_555
C4 C5 1_555 1_555
C10 C11 1_555 1_555
C16 C17 1_555 1_555

#END
