
#######################################################################
#
#                 Cambridge Crystallographic Data Centre
#                                CCDC 
#
#######################################################################
#
# If this CIF has been generated from an entry in the Cambridge 
# Structural Database, then it will include bibliographic, chemical, 
# crystal, experimental, refinement or atomic coordinate data resulting 
# from the CCDC's data processing and validation procedures.
#
#######################################################################

data_SOHYUJ
_chemical_formula_moiety         'C22 H25 N5 O4'
_chemical_name_systematic        
cis,syn-4a-(Spiro(cyclopropane-1,3'-indolin)-2'-yl)-1,3,6,8-tetramethyl-4a,4b,8a,8b-tetrahydrocyclobuta(1,2-d:4,3-d')dipyrimidine-2,4,5,7(1H,3H,6H,8H)-tetraone
_symmetry_cell_setting           orthorhombic
_symmetry_space_group_name_H-M   'P n a 21'
_symmetry_Int_Tables_number      33
_space_group_name_Hall           'P 2c -2n'
loop_
_symmetry_equiv_pos_site_id
_symmetry_equiv_pos_as_xyz
1 x,y,z
2 1/2-x,1/2+y,1/2+z
3 1/2+x,1/2-y,z
4 -x,-y,1/2+z
_cell_length_a                   22.856(12)
_cell_length_b                   7.785(4)
_cell_length_c                   11.604(3)
_cell_angle_alpha                90
_cell_angle_beta                 90
_cell_angle_gamma                90
_cell_volume                     2064.75
_cell_formula_units_Z            4
loop_
_atom_site_label
_atom_site_type_symbol
_atom_site_fract_x
_atom_site_fract_y
_atom_site_fract_z
N1 N 0.3124(2) 0.3227(5) 0.5000
C1 C 0.2717(2) 0.2130(6) 0.4636(5)
N2 N 0.2911(1) 0.0503(4) 0.4236(4)
C2 C 0.3464(2) -0.0169(6) 0.4389(5)
C3 C 0.3934(2) 0.1023(5) 0.4828(5)
C4 C 0.3742(2) 0.2931(5) 0.4855(5)
N3 N 0.3686(2) 0.3291(5) 0.2680(5)
C5 C 0.3676(2) 0.2079(6) 0.1834(6)
N4 N 0.4027(2) 0.0603(5) 0.1971(4)
C6 C 0.4408(2) 0.0330(6) 0.2849(5)
C7 C 0.4374(2) 0.1551(5) 0.3839(5)
C8 C 0.4051(2) 0.3266(6) 0.3684(5)
C9 C 0.2938(2) 0.4906(6) 0.5457(6)
C10 C 0.2456(2) -0.0671(7) 0.3798(6)
O1 O 0.2195(1) 0.2433(4) 0.4663(5)
O2 O 0.3570(1) -0.1661(4) 0.4166(4)
C11 C 0.3383(2) 0.4915(6) 0.2436(6)
C12 C 0.3999(3) -0.0711(7) 0.1058(6)
O3 O 0.3379(2) 0.2216(5) 0.0971(5)
O4 O 0.4742(1) -0.0906(4) 0.2877(4)
N5 N 0.4638(2) -0.1137(5) 0.5591(5)
C13 C 0.4250(2) 0.0292(6) 0.5886(5)
C14 C 0.3890(2) -0.0392(6) 0.6914(5)
C15 C 0.4156(2) -0.2074(6) 0.7194(5)
C16 C 0.4043(2) -0.3194(7) 0.8083(6)
C17 C 0.4354(3) -0.4756(7) 0.8114(7)
C18 C 0.4749(2) -0.5165(7) 0.7281(7)
C19 C 0.4876(2) -0.4048(7) 0.6382(6)
C20 C 0.4576(2) -0.2474(6) 0.6365(5)
C21 C 0.3238(2) -0.0149(9) 0.7071(6)
C22 C 0.3655(3) 0.0785(8) 0.7828(6)
H1 H 0.3954 0.3508 0.5456
H2 H 0.4757 0.1734 0.4155
H3 H 0.4313 0.4229 0.3710
H4 H 0.2519 0.4953 0.5515
H5 H 0.3107 0.5043 0.6209
H6 H 0.3072 0.5812 0.4962
H7 H 0.2624 -0.1744 0.3559
H8 H 0.2175 -0.0873 0.4395
H9 H 0.2267 -0.0134 0.3152
H10 H 0.3150 0.4801 0.1753
H11 H 0.3136 0.5179 0.3080
H12 H 0.3663 0.5822 0.2331
H13 H 0.4253 -0.1652 0.1246
H14 H 0.3605 -0.1122 0.0986
H15 H 0.4121 -0.0207 0.0342
H16 H 0.4881 -0.1146 0.4982
H17 H 0.4493 0.1200 0.6178
H18 H 0.3765 -0.2592 0.8668
H19 H 0.4280 -0.5561 0.8724
H20 H 0.4950 -0.6247 0.7321
H21 H 0.5157 -0.4348 0.5800
H22 H 0.3022 -0.1078 0.7410
H23 H 0.3029 0.0504 0.6503
H24 H 0.3700 0.1998 0.7709
H25 H 0.3693 0.0419 0.8614
loop_
_geom_bond_atom_site_label_1
_geom_bond_atom_site_label_2
_geom_bond_site_symmetry_1
_geom_bond_site_symmetry_2
N1 C1 1_555 1_555
C1 N2 1_555 1_555
N2 C2 1_555 1_555
C2 C3 1_555 1_555
C3 C4 1_555 1_555
C4 N1 1_555 1_555
N3 C5 1_555 1_555
C5 N4 1_555 1_555
N4 C6 1_555 1_555
C6 C7 1_555 1_555
C7 C3 1_555 1_555
C8 C4 1_555 1_555
C9 N1 1_555 1_555
C10 N2 1_555 1_555
O1 C1 1_555 1_555
O2 C2 1_555 1_555
C11 N3 1_555 1_555
C12 N4 1_555 1_555
O3 C5 1_555 1_555
O4 C6 1_555 1_555
N5 C13 1_555 1_555
C13 C3 1_555 1_555
C14 C13 1_555 1_555
C15 C14 1_555 1_555
C16 C15 1_555 1_555
C17 C16 1_555 1_555
C18 C17 1_555 1_555
C19 C18 1_555 1_555
C20 N5 1_555 1_555
C21 C14 1_555 1_555
C22 C14 1_555 1_555
H1 C4 1_555 1_555
H2 C7 1_555 1_555
H3 C8 1_555 1_555
H4 C9 1_555 1_555
H5 C9 1_555 1_555
H6 C9 1_555 1_555
H7 C10 1_555 1_555
H8 C10 1_555 1_555
H9 C10 1_555 1_555
H10 C11 1_555 1_555
H11 C11 1_555 1_555
H12 C11 1_555 1_555
H13 C12 1_555 1_555
H14 C12 1_555 1_555
H15 C12 1_555 1_555
H16 N5 1_555 1_555
H17 C13 1_555 1_555
H18 C16 1_555 1_555
H19 C17 1_555 1_555
H20 C18 1_555 1_555
H21 C19 1_555 1_555
H22 C21 1_555 1_555
H23 C21 1_555 1_555
H24 C22 1_555 1_555
H25 C22 1_555 1_555
N3 C8 1_555 1_555
C7 C8 1_555 1_555
C15 C20 1_555 1_555
C19 C20 1_555 1_555
C21 C22 1_555 1_555

#END
