
#######################################################################
#
#                 Cambridge Crystallographic Data Centre
#                                CCDC 
#
#######################################################################
#
# If this CIF has been generated from an entry in the Cambridge 
# Structural Database, then it will include bibliographic, chemical, 
# crystal, experimental, refinement or atomic coordinate data resulting 
# from the CCDC's data processing and validation procedures.
#
#######################################################################

data_SOJJAC
_chemical_formula_moiety         'C11 H4 N2 O2'
_chemical_name_systematic        3-Dicyanomethylene-isobenzofuran-1-one
_symmetry_cell_setting           monoclinic
_symmetry_space_group_name_H-M   'P 21/n'
_symmetry_Int_Tables_number      14
_space_group_name_Hall           '-P 2yn'
loop_
_symmetry_equiv_pos_site_id
_symmetry_equiv_pos_as_xyz
1 x,y,z
2 1/2-x,1/2+y,1/2-z
3 -x,-y,-z
4 1/2+x,1/2-y,1/2+z
_cell_length_a                   6.944(2)
_cell_length_b                   7.995(2)
_cell_length_c                   16.388(2)
_cell_angle_alpha                90
_cell_angle_beta                 93.75(1)
_cell_angle_gamma                90
_cell_volume                     907.869
_exptl_crystal_colour            colorless
_chemical_melting_point          157.5deg.C
_cell_formula_units_Z            4
loop_
_atom_site_label
_atom_site_type_symbol
_atom_site_fract_x
_atom_site_fract_y
_atom_site_fract_z
C1 C 0.0551(3) 0.2984(2) 0.3312(1)
C2 C 0.1156(3) 0.1734(3) 0.3850(1)
C3 C 0.2102(3) 0.2081(3) 0.4604(1)
C4 C 0.2479(3) 0.3709(3) 0.4845(1)
C5 C 0.1890(2) 0.4959(3) 0.4306(1)
C6 C 0.2131(2) 0.6780(3) 0.4381(1)
O1 O 0.1304(2) 0.7475(2) 0.3636(1)
C7 C 0.0613(2) 0.6220(2) 0.3142(1)
C8 C 0.0945(2) 0.4618(2) 0.3546(1)
O2 O 0.2807(2) 0.7659(2) 0.4900(1)
C9 C -0.0212(3) 0.6613(2) 0.2393(1)
C10 C -0.0919(3) 0.5316(3) 0.1847(1)
N1 N -0.1476(3) 0.4264(3) 0.1429(1)
C11 C -0.0377(3) 0.8310(3) 0.2120(1)
N2 N -0.0519(3) 0.9668(2) 0.1907(1)
H1 H -0.0118 0.2731 0.2795
H2 H 0.0917 0.0589 0.3698
H3 H 0.2496 0.1178 0.4963
H4 H 0.3128 0.3961 0.5366
loop_
_geom_bond_atom_site_label_1
_geom_bond_atom_site_label_2
_geom_bond_site_symmetry_1
_geom_bond_site_symmetry_2
C1 C2 1_555 1_555
C2 C3 1_555 1_555
C3 C4 1_555 1_555
C4 C5 1_555 1_555
C5 C6 1_555 1_555
C6 O1 1_555 1_555
O1 C7 1_555 1_555
C7 C8 1_555 1_555
C8 C1 1_555 1_555
O2 C6 1_555 1_555
C9 C7 1_555 1_555
C10 C9 1_555 1_555
N1 C10 1_555 1_555
C11 C9 1_555 1_555
N2 C11 1_555 1_555
H1 C1 1_555 1_555
H2 C2 1_555 1_555
H3 C3 1_555 1_555
H4 C4 1_555 1_555
C5 C8 1_555 1_555

#END
