
#######################################################################
#
#                 Cambridge Crystallographic Data Centre
#                                CCDC 
#
#######################################################################
#
# If this CIF has been generated from an entry in the Cambridge 
# Structural Database, then it will include bibliographic, chemical, 
# crystal, experimental, refinement or atomic coordinate data resulting 
# from the CCDC's data processing and validation procedures.
#
#######################################################################

data_SOJMIP
_chemical_formula_moiety         'C33 H26 Br1 N2 O2'
_chemical_name_systematic        
1'-Benzyl-6-bromo-3'-(2-(2-hydroxyphenyl)but-2-en-1-yl)-1',3'-dihydro-1H,2'H-3,3'-biindol-2'-one
_symmetry_cell_setting           orthorhombic
_symmetry_space_group_name_H-M   'P 21 21 21'
_symmetry_Int_Tables_number      19
_space_group_name_Hall           'P 2ac 2ab'
loop_
_symmetry_equiv_pos_site_id
_symmetry_equiv_pos_as_xyz
1 x,y,z
2 1/2-x,-y,1/2+z
3 -x,1/2+y,1/2-z
4 1/2+x,1/2-y,-z
_cell_length_a                   8.9032(6)
_cell_length_b                   11.1649(7)
_cell_length_c                   27.772(2)
_cell_angle_alpha                90
_cell_angle_beta                 90
_cell_angle_gamma                90
_cell_volume                     2760.63
_exptl_crystal_colour            colorless
_cell_formula_units_Z            4
loop_
_atom_site_label
_atom_site_type_symbol
_atom_site_fract_x
_atom_site_fract_y
_atom_site_fract_z
Br1 Br 0.52869(18) 0.03084(8) -0.15785(3)
N1 N 0.7560(6) -0.2649(5) -0.02830(19)
H1 H 0.7973 -0.3179 -0.0465
N2 N 0.5869(6) 0.0510(4) 0.12101(15)
O1 O 0.4026(5) -0.0782(4) 0.09525(13)
O2 O 0.4117(16) -0.3685(14) 0.1815(4)
H2 H 0.3708 -0.4182 0.1988
C1 C 0.6803(8) -0.1678(6) -0.0438(2)
C2 C 0.6500(9) -0.1294(6) -0.0902(2)
H3 H 0.6836 -0.1719 -0.1169
C3 C 0.5688(9) -0.0264(7) -0.0951(2)
C4 C 0.5161(8) 0.0394(6) -0.0562(2)
H4 H 0.4609 0.1091 -0.0611
C5 C 0.5469(7) 0.0001(5) -0.0101(2)
H5 H 0.5130 0.0442 0.0162
C6 C 0.6278(7) -0.1044(5) -0.0025(2)
C7 C 0.6784(7) -0.1709(6) 0.0385(2)
C8 C 0.7567(7) -0.2658(6) 0.0209(2)
H6 H 0.8043 -0.3233 0.0397
C9 C 0.6710(7) -0.1356(5) 0.09186(19)
C10 C 0.5350(8) -0.0543(5) 0.10244(18)
C11 C 0.7993(6) -0.0556(6) 0.10565(19)
C12 C 0.9510(8) -0.0746(6) 0.1035(2)
H7 H 0.9889 -0.1457 0.0910
C13 C 1.0478(9) 0.0138(7) 0.1201(2)
H8 H 1.1510 0.0008 0.1199
C14 C 0.9917(9) 0.1195(7) 0.1367(2)
H9 H 1.0580 0.1784 0.1471
C15 C 0.8384(9) 0.1417(6) 0.1386(2)
H10 H 0.8003 0.2137 0.1502
C16 C 0.7462(7) 0.0521(6) 0.12255(19)
C17 C 0.4879(8) 0.1488(6) 0.1361(2)
H11 H 0.5285 0.1853 0.1650
H12 H 0.3900 0.1161 0.1440
C18 C 0.4696(8) 0.2426(6) 0.0986(3)
C19 C 0.3702(10) 0.2261(8) 0.0615(3)
H13 H 0.3109 0.1575 0.0612
C20 C 0.3554(15) 0.3063(13) 0.0252(5)
H14 H 0.2870 0.2934 0.0004
C21 C 0.4450(19) 0.4086(17) 0.0259(6)
H15 H 0.4387 0.4628 0.0006
C22 C 0.5425(16) 0.4314(11) 0.0633(6)
H16 H 0.5984 0.5017 0.0644
C23 C 0.5539(13) 0.3469(9) 0.0985(5)
H17 H 0.6213 0.3598 0.1235
C24 C 0.6611(8) -0.2501(6) 0.12288(19)
H18 H 0.5682 -0.2911 0.1150
H19 H 0.7431 -0.3027 0.1139
C25 C 0.6664(9) -0.2320(6) 0.1765(2)
C26 C 0.7941(10) -0.2527(9) 0.2006(3)
H20 H 0.8783 -0.2706 0.1821
C27 C 0.8160(12) -0.2503(11) 0.2535(3)
H21 H 0.7209 -0.2387 0.2690
H22 H 0.8824 -0.1858 0.2618
H23 H 0.8589 -0.3248 0.2638
C28 C 0.5258(10) -0.1954(6) 0.2014(2)
C29 C 0.5219(13) -0.0851(8) 0.2270(2)
C30 C 0.3857(15) -0.0582(10) 0.2501(3)
H24 H 0.3798 0.0117 0.2682
C31 C 0.2614(15) -0.1299(15) 0.2472(4)
H25 H 0.1723 -0.1058 0.2618
C32 C 0.2669(11) -0.2366(12) 0.2232(4)
H26 H 0.1845 -0.2876 0.2224
C33 C 0.3995(12) -0.2656(9) 0.2003(3)
O3? O 0.6416(11) -0.0164(8) 0.2326(3)
H27? H 0.7170 -0.0536 0.2245
loop_
_geom_bond_atom_site_label_1
_geom_bond_atom_site_label_2
_geom_bond_site_symmetry_1
_geom_bond_site_symmetry_2
Br1 C3 1_555 1_555
N1 H1 1_555 1_555
N2 C10 1_555 1_555
O1 C10 1_555 1_555
O2 H2 1_555 1_555
C1 N1 1_555 1_555
C2 C1 1_555 1_555
H3 C2 1_555 1_555
C3 C2 1_555 1_555
C4 C3 1_555 1_555
H4 C4 1_555 1_555
C5 C4 1_555 1_555
H5 C5 1_555 1_555
C6 C1 1_555 1_555
C7 C6 1_555 1_555
C8 N1 1_555 1_555
H6 C8 1_555 1_555
C9 C7 1_555 1_555
C10 C9 1_555 1_555
C11 C9 1_555 1_555
C12 C11 1_555 1_555
H7 C12 1_555 1_555
C13 C12 1_555 1_555
H8 C13 1_555 1_555
C14 C13 1_555 1_555
H9 C14 1_555 1_555
C15 C14 1_555 1_555
H10 C15 1_555 1_555
C16 N2 1_555 1_555
C17 N2 1_555 1_555
H11 C17 1_555 1_555
H12 C17 1_555 1_555
C18 C17 1_555 1_555
C19 C18 1_555 1_555
H13 C19 1_555 1_555
C20 C19 1_555 1_555
H14 C20 1_555 1_555
C21 C20 1_555 1_555
H15 C21 1_555 1_555
C22 C21 1_555 1_555
H16 C22 1_555 1_555
C23 C18 1_555 1_555
H17 C23 1_555 1_555
C24 C9 1_555 1_555
H18 C24 1_555 1_555
H19 C24 1_555 1_555
C25 C24 1_555 1_555
C26 C25 1_555 1_555
H20 C26 1_555 1_555
C27 C26 1_555 1_555
H21 C27 1_555 1_555
H22 C27 1_555 1_555
H23 C27 1_555 1_555
C28 C25 1_555 1_555
C29 C28 1_555 1_555
C30 C29 1_555 1_555
H24 C30 1_555 1_555
C31 C30 1_555 1_555
H25 C31 1_555 1_555
C32 C31 1_555 1_555
H26 C32 1_555 1_555
C33 O2 1_555 1_555
C5 C6 1_555 1_555
C7 C8 1_555 1_555
C11 C16 1_555 1_555
C15 C16 1_555 1_555
C22 C23 1_555 1_555
C28 C33 1_555 1_555
C32 C33 1_555 1_555

#END
