
#######################################################################
#
#                 Cambridge Crystallographic Data Centre
#                                CCDC 
#
#######################################################################
#
# If this CIF has been generated from an entry in the Cambridge 
# Structural Database, then it will include bibliographic, chemical, 
# crystal, experimental, refinement or atomic coordinate data resulting 
# from the CCDC's data processing and validation procedures.
#
#######################################################################

data_SOJPOW01
_chemical_name_common            '(+-)-Mefloquinium chloride methanol solvate'
_chemical_formula_moiety         'C17 H17 F6 N2 O1 1+,Cl1 1-,0.5(C1 H4 O1)'
_chemical_name_systematic        
'(+-)-(R*,S*)-2-(Hydroxy(2-methyl-8-(trifluoromethyl)quinolin-4-yl)methyl)piperidinium chloride methanol solvate'
_chemical_properties_biological  
'Mefloquinium chloride is an anti-malarial agent'
_symmetry_cell_setting           tetragonal
_symmetry_space_group_name_H-M   'P 42/n'
_symmetry_Int_Tables_number      86
_space_group_name_Hall           '-P 4bc'
loop_
_symmetry_equiv_pos_site_id
_symmetry_equiv_pos_as_xyz
1 x,y,z
2 1/2-x,1/2-y,z
3 -y,1/2+x,1/2+z
4 1/2+y,-x,1/2+z
5 -x,-y,-z
6 1/2+x,1/2+y,-z
7 y,1/2-x,1/2-z
8 1/2-y,x,1/2-z
_cell_length_a                   24.298(6)
_cell_length_b                   24.298(6)
_cell_length_c                   6.3571(16)
_cell_angle_alpha                90
_cell_angle_beta                 90
_cell_angle_gamma                90
_cell_volume                     3753.19
_exptl_crystal_colour            colorless
_exptl_crystal_description       plate
_cell_formula_units_Z            8
_exptl_crystal_recrystallization_method acetonitrile/methanol
loop_
_atom_site_label
_atom_site_type_symbol
_atom_site_fract_x
_atom_site_fract_y
_atom_site_fract_z
O2 O 0.2426(16) 0.7091(13) 0.166(8)
H18 H 0.2675 0.7149 0.0768
C18 C 0.2500 0.7500 0.358(14)
O2A O 0.2574(16) 0.7909(13) 0.166(8)
H18A H 0.2325 0.7851 0.0768
Cl1 Cl 0.38342(14) 0.74166(12) 0.2014(5)
F1 F 0.5286(3) 0.5713(3) 1.2846(12)
F2 F 0.5583(4) 0.5158(3) 1.0635(12)
F3 F 0.6118(3) 0.5735(4) 1.2002(16)
F4 F 0.6909(2) 0.6070(3) 0.5948(15)
F5 F 0.6957(3) 0.6752(3) 0.8088(17)
F6 F 0.7199(3) 0.6859(3) 0.4853(17)
O1 O 0.3855(3) 0.6522(3) 0.8436(11)
H1 H 0.3852 0.6803 0.9207
N1 N 0.5910(4) 0.6237(4) 0.8375(19)
N2 N 0.3465(3) 0.6374(3) 0.4360(13)
H2 H 0.3241 0.6349 0.5521
H3 H 0.3466 0.6735 0.3927
C1 C 0.5491(5) 0.6066(4) 0.948(2)
C2 C 0.4942(4) 0.6187(4) 0.9002(17)
H4 H 0.4655 0.6045 0.9861
C3 C 0.4814(4) 0.6507(4) 0.7319(18)
C4 C 0.5257(4) 0.6722(4) 0.6096(19)
C5 C 0.5181(5) 0.7064(4) 0.431(2)
H5 H 0.4820 0.7160 0.3870
C6 C 0.5621(5) 0.7252(5) 0.324(2)
H6 H 0.5564 0.7485 0.2067
C7 C 0.6160(6) 0.7115(6) 0.381(3)
H7 H 0.6460 0.7257 0.3017
C8 C 0.6257(4) 0.6780(5) 0.548(3)
C9 C 0.5806(5) 0.6578(5) 0.671(2)
C10 C 0.5622(5) 0.5674(5) 1.125(2)
C11 C 0.6830(6) 0.6614(6) 0.611(3)
C12 C 0.4219(4) 0.6607(4) 0.6735(17)
H8 H 0.4178 0.6994 0.6228
C13 C 0.4040(4) 0.6216(4) 0.4984(16)
H9 H 0.4288 0.6271 0.3747
C14 C 0.4052(4) 0.5609(4) 0.559(2)
H10 H 0.3825 0.5552 0.6864
H11 H 0.4435 0.5500 0.5929
C15 C 0.3833(5) 0.5245(5) 0.380(2)
H12 H 0.4074 0.5282 0.2548
H13 H 0.3835 0.4854 0.4241
C16 C 0.3244(5) 0.5419(5) 0.322(2)
H14 H 0.3111 0.5198 0.2019
H15 H 0.2996 0.5351 0.4434
C17 C 0.3234(5) 0.6027(5) 0.2653(19)
H16 H 0.3449 0.6085 0.1350
H17 H 0.2849 0.6141 0.2373
H19? H 0.2774 0.7351 0.4556
H20? H 0.2147 0.7543 0.4311
H21? H 0.2624 0.7859 0.3061
loop_
_geom_bond_atom_site_label_1
_geom_bond_atom_site_label_2
_geom_bond_site_symmetry_1
_geom_bond_site_symmetry_2
F1 C10 1_555 1_555
F2 C10 1_555 1_555
F3 C10 1_555 1_555
F4 C11 1_555 1_555
F5 C11 1_555 1_555
F6 C11 1_555 1_555
O1 H1 1_555 1_555
N1 C1 1_555 1_555
N2 H2 1_555 1_555
H3 N2 1_555 1_555
C1 C2 1_555 1_555
C2 H4 1_555 1_555
C3 C2 1_555 1_555
C4 C3 1_555 1_555
C5 C4 1_555 1_555
H5 C5 1_555 1_555
C6 C5 1_555 1_555
H6 C6 1_555 1_555
C7 C6 1_555 1_555
H7 C7 1_555 1_555
C8 C7 1_555 1_555
C9 N1 1_555 1_555
C10 C1 1_555 1_555
C11 C8 1_555 1_555
C12 O1 1_555 1_555
H8 C12 1_555 1_555
C13 N2 1_555 1_555
H9 C13 1_555 1_555
C14 C13 1_555 1_555
H10 C14 1_555 1_555
H11 C14 1_555 1_555
C15 C14 1_555 1_555
H12 C15 1_555 1_555
H13 C15 1_555 1_555
C16 C15 1_555 1_555
H14 C16 1_555 1_555
H15 C16 1_555 1_555
C17 N2 1_555 1_555
H16 C17 1_555 1_555
H17 C17 1_555 1_555
O2 H18 1_555 1_555
C18 O2 1_555 1_555
O2A C18 1_555 1_555
H18A O2A 1_555 1_555
C3 C12 1_555 1_555
C4 C9 1_555 1_555
C8 C9 1_555 1_555
C12 C13 1_555 1_555
C16 C17 1_555 1_555

#END
