
#######################################################################
#
#                 Cambridge Crystallographic Data Centre
#                                CCDC 
#
#######################################################################
#
# If this CIF has been generated from an entry in the Cambridge 
# Structural Database, then it will include bibliographic, chemical, 
# crystal, experimental, refinement or atomic coordinate data resulting 
# from the CCDC's data processing and validation procedures.
#
#######################################################################

data_SOJRIT
_chemical_formula_moiety         'C47 H51 B2 N1'
_chemical_name_systematic        
Dimesityl-(2-(5-(dimesitylboryl)-2-pyridyl)phenyl)-boron
_symmetry_cell_setting           orthorhombic
_symmetry_space_group_name_H-M   'P c a 21'
_symmetry_Int_Tables_number      29
_space_group_name_Hall           'P 2c -2ac'
loop_
_symmetry_equiv_pos_site_id
_symmetry_equiv_pos_as_xyz
1 x,y,z
2 -x,-y,1/2+z
3 1/2-x,y,1/2+z
4 1/2+x,-y,z
_cell_length_a                   15.292(4)
_cell_length_b                   24.012(6)
_cell_length_c                   21.457(5)
_cell_angle_alpha                90
_cell_angle_beta                 90
_cell_angle_gamma                90
_cell_volume                     7878.83
_exptl_crystal_colour            yellow
_exptl_crystal_description       block
_cell_formula_units_Z            8
_chemical_properties_physical    'oxygen- and light-sensitive'
_exptl_crystal_recrystallization_method dichloromethane/hexane
_exptl_crystal_preparation       luminescent
loop_
_atom_site_label
_atom_site_type_symbol
_atom_site_fract_x
_atom_site_fract_y
_atom_site_fract_z
B1 B 0.3067(4) 0.3747(2) 0.4828(3)
B2 B 0.3386(4) 0.5712(2) 0.5805(3)
N1 N 0.3540(2) 0.43542(15) 0.49090(17)
C1 C 0.3293(3) 0.47603(18) 0.5296(2)
H1 H 0.2791 0.4703 0.5548
C2 C 0.3740(3) 0.52644(19) 0.5346(2)
C3 C 0.4481(3) 0.5319(2) 0.4964(2)
H2 H 0.4791 0.5662 0.4962
C4 C 0.4768(3) 0.4893(2) 0.4594(2)
H3 H 0.5291 0.4931 0.4359
C5 C 0.4281(3) 0.44018(19) 0.4569(2)
C6 C 0.4446(3) 0.38868(19) 0.4220(2)
C7 C 0.5131(4) 0.3795(2) 0.3817(2)
H4 H 0.5554 0.4077 0.3741
C8 C 0.5187(4) 0.3282(3) 0.3523(3)
H5 H 0.5657 0.3202 0.3247
C9 C 0.4539(4) 0.2884(3) 0.3639(3)
H6 H 0.4575 0.2531 0.3440
C10 C 0.3861(4) 0.2990(2) 0.4029(2)
H7 H 0.3417 0.2717 0.4082
C11 C 0.3801(3) 0.34948(19) 0.4356(2)
C12 C 0.2973(3) 0.35396(18) 0.5566(2)
C13 C 0.2249(3) 0.36993(19) 0.5927(2)
C14 C 0.2201(4) 0.35566(19) 0.6563(2)
H8 H 0.1698 0.3664 0.6793
C15 C 0.2851(4) 0.3270(2) 0.6862(3)
C16 C 0.3563(4) 0.3118(2) 0.6513(3)
H9 H 0.4021 0.2917 0.6710
C17 C 0.3644(3) 0.32453(19) 0.5880(2)
C18 C 0.1462(3) 0.4018(2) 0.5693(2)
H10 H 0.1270 0.4283 0.6012
H11 H 0.0986 0.3756 0.5602
H12 H 0.1618 0.4220 0.5312
C19 C 0.2766(5) 0.3112(3) 0.7550(3)
H13 H 0.2332 0.2815 0.7595
H14 H 0.2580 0.3439 0.7789
H15 H 0.3333 0.2982 0.7706
C20 C 0.4466(4) 0.3043(2) 0.5556(3)
H16 H 0.4866 0.2883 0.5864
H17 H 0.4751 0.3356 0.5346
H18 H 0.4311 0.2758 0.5247
C21 C 0.2157(3) 0.37468(19) 0.4417(2)
C22 C 0.1653(3) 0.3247(2) 0.4414(2)
C23 C 0.0902(3) 0.3200(2) 0.4055(2)
H19 H 0.0584 0.2860 0.4067
C24 C 0.0594(3) 0.3627(3) 0.3682(3)
C25 C 0.1084(3) 0.4114(2) 0.3675(2)
H20 H 0.0897 0.4412 0.3416
C26 C 0.1833(3) 0.41823(19) 0.4030(2)
C27 C 0.1892(4) 0.2739(2) 0.4801(2)
H21 H 0.1708 0.2401 0.4582
H22 H 0.1597 0.2760 0.5206
H23 H 0.2527 0.2730 0.4866
C28 C -0.0202(4) 0.3554(3) 0.3270(3)
H24 H -0.0567 0.3253 0.3435
H25 H -0.0014 0.3461 0.2846
H26 H -0.0538 0.3901 0.3262
C29 C 0.2267(3) 0.47528(19) 0.3979(2)
H27 H 0.1982 0.4969 0.3649
H28 H 0.2888 0.4706 0.3878
H29 H 0.2211 0.4950 0.4376
C30 C 0.3703(3) 0.63341(18) 0.5689(2)
C31 C 0.3520(4) 0.6607(2) 0.5115(2)
C32 C 0.3873(4) 0.7134(2) 0.5006(3)
H30 H 0.3745 0.7314 0.4623
C33 C 0.4403(3) 0.74063(19) 0.5433(3)
C34 C 0.4568(3) 0.7130(2) 0.5990(3)
H31 H 0.4933 0.7305 0.6290
C35 C 0.4220(3) 0.66093(19) 0.6125(2)
C36 C 0.2941(4) 0.6351(2) 0.4622(3)
H32 H 0.2420 0.6583 0.4566
H33 H 0.2766 0.5976 0.4753
H34 H 0.3263 0.6328 0.4228
C37 C 0.4482(3) 0.6330(2) 0.6736(2)
H35 H 0.3964 0.6165 0.6931
H36 H 0.4737 0.6608 0.7016
H37 H 0.4913 0.6038 0.6652
C38 C 0.4788(3) 0.7968(2) 0.5294(3)
H38 H 0.4973 0.7981 0.4857
H39 H 0.5295 0.8031 0.5565
H40 H 0.4348 0.8256 0.5370
C39 C 0.2765(3) 0.55024(18) 0.6342(2)
C40 C 0.3015(3) 0.50723(19) 0.6755(2)
C41 C 0.2434(4) 0.4868(2) 0.7193(2)
H41 H 0.2625 0.4583 0.7468
C42 C 0.1590(4) 0.5060(2) 0.7245(2)
C43 C 0.1332(3) 0.5480(2) 0.6836(3)
H42 H 0.0746 0.5612 0.6853
C44 C 0.1901(3) 0.5712(2) 0.6403(2)
C45 C 0.3912(3) 0.4803(2) 0.6735(2)
H43 H 0.4107 0.4722 0.7161
H44 H 0.4328 0.5057 0.6535
H45 H 0.3880 0.4455 0.6496
C46 C 0.1557(4) 0.6165(3) 0.5976(3)
H46 H 0.2010 0.6448 0.5915
H47 H 0.1040 0.6337 0.6165
H48 H 0.1398 0.6002 0.5573
C47 C 0.0960(4) 0.4817(3) 0.7715(3)
H49 H 0.0401 0.4737 0.7510
H50 H 0.0867 0.5084 0.8053
H51 H 0.1204 0.4472 0.7885
B3 B 0.4498(3) 0.0991(2) 0.2450(2)
B4 B 0.4051(3) -0.1082(2) 0.3148(3)
N2 N 0.4000(2) 0.03808(14) 0.24486(16)
C48 C 0.4242(3) -0.00769(18) 0.2766(2)
H52 H 0.4750 -0.0061 0.3020
C49 C 0.3774(3) -0.05727(19) 0.2737(2)
C50 C 0.3027(3) -0.05769(19) 0.2358(2)
H53 H 0.2711 -0.0914 0.2302
C51 C 0.2746(3) -0.00948(19) 0.2066(2)
H54 H 0.2221 -0.0092 0.1829
C52 C 0.3246(3) 0.03823(18) 0.2125(2)
C53 C 0.3079(3) 0.09403(18) 0.1868(2)
C54 C 0.2370(3) 0.1094(2) 0.1503(2)
H55 H 0.1925 0.0832 0.1405
C55 C 0.2325(4) 0.1638(2) 0.1283(3)
H56 H 0.1844 0.1756 0.1036
C56 C 0.2991(3) 0.2005(2) 0.1429(2)
H57 H 0.2969 0.2375 0.1272
C57 C 0.3682(3) 0.18471(19) 0.1795(2)
H58 H 0.4130 0.2110 0.1884
C58 C 0.3746(3) 0.13058(18) 0.2043(2)
C59 C 0.4635(3) 0.11010(17) 0.3205(2)
C60 C 0.5371(3) 0.08953(19) 0.3527(2)
C61 C 0.4109(3) 0.14274(19) 0.4223(2)
H59 H 0.3666 0.1608 0.4459
C62 C 0.4835(3) 0.1238(2) 0.4526(2)
C63 C 0.5464(3) 0.0972(2) 0.4172(2)
H60 H 0.5975 0.0837 0.4373
C64 C 0.3988(3) 0.13659(18) 0.3574(2)
C65 C 0.6132(3) 0.0597(2) 0.3223(2)
H61 H 0.5950 0.0450 0.2817
H62 H 0.6323 0.0289 0.3490
H63 H 0.6617 0.0859 0.3165
C66 C 0.4939(4) 0.1314(3) 0.5221(2)
H64 H 0.4372 0.1262 0.5426
H65 H 0.5156 0.1691 0.5307
H66 H 0.5357 0.1040 0.5381
C67 C 0.3153(3) 0.1590(2) 0.3314(2)
H67 H 0.2809 0.1758 0.3651
H68 H 0.2819 0.1286 0.3124
H69 H 0.3284 0.1873 0.2999
C68 C 0.5361(3) 0.10281(18) 0.2000(2)
C69 C 0.5880(3) 0.15197(19) 0.2041(2)
C70 C 0.6290(3) 0.0770(2) 0.1118(2)
H70 H 0.6425 0.0510 0.0799
C71 C 0.6789(3) 0.1250(2) 0.1160(2)
C72 C 0.6572(3) 0.1623(2) 0.1626(2)
H71 H 0.6899 0.1958 0.1666
C73 C 0.5603(3) 0.06499(18) 0.1518(2)
C74 C 0.5726(3) 0.19630(19) 0.2524(2)
H72 H 0.5920 0.2324 0.2361
H73 H 0.6057 0.1873 0.2902
H74 H 0.5101 0.1981 0.2623
C75 C 0.7527(4) 0.1360(3) 0.0715(3)
H75 H 0.7330 0.1290 0.0287
H76 H 0.8019 0.1114 0.0813
H77 H 0.7713 0.1749 0.0753
C76 C 0.5153(4) 0.0099(2) 0.1407(2)
H78 H 0.5416 -0.0086 0.1045
H79 H 0.4530 0.0162 0.1328
H80 H 0.5221 -0.0138 0.1776
C77 C 0.3671(3) -0.16731(19) 0.2984(2)
C78 C 0.3858(3) -0.1942(2) 0.2415(2)
C79 C 0.3503(3) -0.2464(2) 0.2289(3)
H81 H 0.3634 -0.2640 0.1904
C80 C 0.2964(3) -0.2734(2) 0.2712(3)
C81 C 0.2763(3) -0.2464(2) 0.3259(3)
H82 H 0.2374 -0.2637 0.3545
C82 C 0.3113(3) -0.19433(19) 0.3408(2)
C83 C 0.4449(4) -0.1681(2) 0.1930(2)
H83 H 0.4851 -0.1963 0.1767
H84 H 0.4785 -0.1378 0.2121
H85 H 0.4093 -0.1532 0.1589
C84 C 0.2850(3) -0.1673(2) 0.4014(2)
H86 H 0.2546 -0.1946 0.4276
H87 H 0.2459 -0.1359 0.3929
H88 H 0.3373 -0.1539 0.4231
C85 C 0.2584(4) -0.3304(2) 0.2575(4)
H89 H 0.2234 -0.3428 0.2932
H90 H 0.3061 -0.3569 0.2502
H91 H 0.2213 -0.3283 0.2204
C86 C 0.4692(3) -0.09703(19) 0.3708(2)
C87 C 0.4514(3) -0.0557(2) 0.4162(2)
C88 C 0.5132(4) -0.0432(2) 0.4617(2)
H92 H 0.5006 -0.0151 0.4915
C89 C 0.5924(4) -0.0706(2) 0.4647(3)
C90 C 0.6095(4) -0.1114(2) 0.4210(3)
H93 H 0.6641 -0.1301 0.4224
C91 C 0.5495(3) -0.1260(2) 0.3752(2)
C92 C 0.3665(3) -0.0232(2) 0.4185(2)
H94 H 0.3420 -0.0250 0.4606
H95 H 0.3248 -0.0394 0.3888
H96 H 0.3776 0.0157 0.4073
C93 C 0.5744(3) -0.1707(2) 0.3298(3)
H97 H 0.5245 -0.1957 0.3233
H98 H 0.6239 -0.1919 0.3463
H99 H 0.5909 -0.1536 0.2900
C94 C 0.6603(4) -0.0556(3) 0.5140(3)
H100 H 0.7188 -0.0651 0.4986
H101 H 0.6484 -0.0765 0.5523
H102 H 0.6574 -0.0156 0.5227
loop_
_geom_bond_atom_site_label_1
_geom_bond_atom_site_label_2
_geom_bond_site_symmetry_1
_geom_bond_site_symmetry_2
B1 N1 1_555 1_555
B2 C2 1_555 1_555
N1 C1 1_555 1_555
C1 H1 1_555 1_555
C2 C1 1_555 1_555
C3 C2 1_555 1_555
H2 C3 1_555 1_555
C4 C3 1_555 1_555
H3 C4 1_555 1_555
C5 N1 1_555 1_555
C6 C5 1_555 1_555
C7 C6 1_555 1_555
H4 C7 1_555 1_555
C8 C7 1_555 1_555
H5 C8 1_555 1_555
C9 C8 1_555 1_555
H6 C9 1_555 1_555
C10 C9 1_555 1_555
H7 C10 1_555 1_555
C11 B1 1_555 1_555
C12 B1 1_555 1_555
C13 C12 1_555 1_555
C14 C13 1_555 1_555
H8 C14 1_555 1_555
C15 C14 1_555 1_555
C16 C15 1_555 1_555
H9 C16 1_555 1_555
C17 C12 1_555 1_555
C18 C13 1_555 1_555
H10 C18 1_555 1_555
H11 C18 1_555 1_555
H12 C18 1_555 1_555
C19 C15 1_555 1_555
H13 C19 1_555 1_555
H14 C19 1_555 1_555
H15 C19 1_555 1_555
C20 C17 1_555 1_555
H16 C20 1_555 1_555
H17 C20 1_555 1_555
H18 C20 1_555 1_555
C21 B1 1_555 1_555
C22 C21 1_555 1_555
C23 C22 1_555 1_555
H19 C23 1_555 1_555
C24 C23 1_555 1_555
C25 C24 1_555 1_555
H20 C25 1_555 1_555
C26 C21 1_555 1_555
C27 C22 1_555 1_555
H21 C27 1_555 1_555
H22 C27 1_555 1_555
H23 C27 1_555 1_555
C28 C24 1_555 1_555
H24 C28 1_555 1_555
H25 C28 1_555 1_555
H26 C28 1_555 1_555
C29 C26 1_555 1_555
H27 C29 1_555 1_555
H28 C29 1_555 1_555
H29 C29 1_555 1_555
C30 B2 1_555 1_555
C31 C30 1_555 1_555
C32 C31 1_555 1_555
H30 C32 1_555 1_555
C33 C32 1_555 1_555
C34 C33 1_555 1_555
H31 C34 1_555 1_555
C35 C30 1_555 1_555
C36 C31 1_555 1_555
H32 C36 1_555 1_555
H33 C36 1_555 1_555
H34 C36 1_555 1_555
C37 C35 1_555 1_555
H35 C37 1_555 1_555
H36 C37 1_555 1_555
H37 C37 1_555 1_555
C38 C33 1_555 1_555
H38 C38 1_555 1_555
H39 C38 1_555 1_555
H40 C38 1_555 1_555
C39 B2 1_555 1_555
C40 C39 1_555 1_555
C41 C40 1_555 1_555
H41 C41 1_555 1_555
C42 C41 1_555 1_555
C43 C42 1_555 1_555
H42 C43 1_555 1_555
C44 C39 1_555 1_555
C45 C40 1_555 1_555
H43 C45 1_555 1_555
H44 C45 1_555 1_555
H45 C45 1_555 1_555
C46 C44 1_555 1_555
H46 C46 1_555 1_555
H47 C46 1_555 1_555
H48 C46 1_555 1_555
C47 C42 1_555 1_555
H49 C47 1_555 1_555
H50 C47 1_555 1_555
H51 C47 1_555 1_555
B3 N2 1_555 1_555
B4 C49 1_555 1_555
N2 C48 1_555 1_555
C48 H52 1_555 1_555
C49 C48 1_555 1_555
C50 C49 1_555 1_555
H53 C50 1_555 1_555
C51 C50 1_555 1_555
H54 C51 1_555 1_555
C52 N2 1_555 1_555
C53 C52 1_555 1_555
C54 C53 1_555 1_555
H55 C54 1_555 1_555
C55 C54 1_555 1_555
H56 C55 1_555 1_555
C56 C55 1_555 1_555
H57 C56 1_555 1_555
C57 C56 1_555 1_555
H58 C57 1_555 1_555
C58 B3 1_555 1_555
C59 B3 1_555 1_555
C60 C59 1_555 1_555
C61 H59 1_555 1_555
C62 C61 1_555 1_555
C63 C60 1_555 1_555
H60 C63 1_555 1_555
C64 C59 1_555 1_555
C65 C60 1_555 1_555
H61 C65 1_555 1_555
H62 C65 1_555 1_555
H63 C65 1_555 1_555
C66 C62 1_555 1_555
H64 C66 1_555 1_555
H65 C66 1_555 1_555
H66 C66 1_555 1_555
C67 C64 1_555 1_555
H67 C67 1_555 1_555
H68 C67 1_555 1_555
H69 C67 1_555 1_555
C68 B3 1_555 1_555
C69 C68 1_555 1_555
C70 H70 1_555 1_555
C71 C70 1_555 1_555
C72 C69 1_555 1_555
H71 C72 1_555 1_555
C73 C68 1_555 1_555
C74 C69 1_555 1_555
H72 C74 1_555 1_555
H73 C74 1_555 1_555
H74 C74 1_555 1_555
C75 C71 1_555 1_555
H75 C75 1_555 1_555
H76 C75 1_555 1_555
H77 C75 1_555 1_555
C76 C73 1_555 1_555
H78 C76 1_555 1_555
H79 C76 1_555 1_555
H80 C76 1_555 1_555
C77 B4 1_555 1_555
C78 C77 1_555 1_555
C79 C78 1_555 1_555
H81 C79 1_555 1_555
C80 C79 1_555 1_555
C81 C80 1_555 1_555
H82 C81 1_555 1_555
C82 C77 1_555 1_555
C83 C78 1_555 1_555
H83 C83 1_555 1_555
H84 C83 1_555 1_555
H85 C83 1_555 1_555
C84 C82 1_555 1_555
H86 C84 1_555 1_555
H87 C84 1_555 1_555
H88 C84 1_555 1_555
C85 C80 1_555 1_555
H89 C85 1_555 1_555
H90 C85 1_555 1_555
H91 C85 1_555 1_555
C86 B4 1_555 1_555
C87 C86 1_555 1_555
C88 C87 1_555 1_555
H92 C88 1_555 1_555
C89 C88 1_555 1_555
C90 C89 1_555 1_555
H93 C90 1_555 1_555
C91 C86 1_555 1_555
C92 C87 1_555 1_555
H94 C92 1_555 1_555
H95 C92 1_555 1_555
H96 C92 1_555 1_555
C93 C91 1_555 1_555
H97 C93 1_555 1_555
H98 C93 1_555 1_555
H99 C93 1_555 1_555
C94 C89 1_555 1_555
H100 C94 1_555 1_555
H101 C94 1_555 1_555
H102 C94 1_555 1_555
C4 C5 1_555 1_555
C6 C11 1_555 1_555
C10 C11 1_555 1_555
C16 C17 1_555 1_555
C25 C26 1_555 1_555
C34 C35 1_555 1_555
C43 C44 1_555 1_555
C51 C52 1_555 1_555
C53 C58 1_555 1_555
C57 C58 1_555 1_555
C61 C64 1_555 1_555
C62 C63 1_555 1_555
C70 C73 1_555 1_555
C71 C72 1_555 1_555
C81 C82 1_555 1_555
C90 C91 1_555 1_555

#END
