
#######################################################################
#
#                 Cambridge Crystallographic Data Centre
#                                CCDC 
#
#######################################################################
#
# If this CIF has been generated from an entry in the Cambridge 
# Structural Database, then it will include bibliographic, chemical, 
# crystal, experimental, refinement or atomic coordinate data resulting 
# from the CCDC's data processing and validation procedures.
#
#######################################################################

data_SOKCIG
_chemical_formula_moiety         'C34 H23 Cl2 F3 O3'
_chemical_name_systematic        
6,9-bis(4-Chlorophenyl)-10-(4-(trifluoromethyl)benzoyl)-6a,9,10,10a-tetrahydro-6H-benzo[c]chromene-8-carbaldehyde
_symmetry_cell_setting           rhombohedral
_symmetry_space_group_name_H-M   'R 3'
_symmetry_Int_Tables_number      146
_space_group_name_Hall           'R 3'
loop_
_symmetry_equiv_pos_site_id
_symmetry_equiv_pos_as_xyz
1 x,y,z
2 -y,x-y,z
3 -x+y,-x,z
4 2/3+x,1/3+y,1/3+z
5 2/3-y,1/3+x-y,1/3+z
6 2/3-x+y,1/3-x,1/3+z
7 1/3+x,2/3+y,2/3+z
8 1/3-y,2/3+x-y,2/3+z
9 1/3-x+y,2/3-x,2/3+z
_cell_length_a                   27.5799(11)
_cell_length_b                   27.5799(11)
_cell_length_c                   10.2741(8)
_cell_angle_alpha                90
_cell_angle_beta                 90
_cell_angle_gamma                120
_cell_volume                     6767.99
_exptl_crystal_colour            colorless
_exptl_crystal_description       Prism
_cell_formula_units_Z            9
loop_
_atom_site_label
_atom_site_type_symbol
_atom_site_fract_x
_atom_site_fract_y
_atom_site_fract_z
Cl1 Cl 0.73882(4) 1.13265(4) 0.54145(9)
Cl2 Cl 0.79473(4) 0.67559(4) 0.61098(9)
F1 F 0.36450(12) 0.60240(13) 1.2218(4)
F2 F 0.36472(10) 0.54623(11) 1.0811(3)
F3 F 0.41371(11) 0.56215(13) 1.2499(3)
O1 O 0.60456(11) 0.86091(11) 0.4860(3)
O2 O 0.77830(11) 0.86195(12) 1.0152(3)
O3 O 0.59336(10) 0.81921(9) 0.9363(2)
C1 C 0.64198(14) 0.96791(15) 0.5763(3)
H1 H 0.6037 0.9421 0.5941
C2 C 0.66001(14) 1.02403(14) 0.5724(3)
H2 H 0.6343 1.0371 0.5843
C3 C 0.71634(14) 1.06156(14) 0.5509(3)
C4 C 0.75428(15) 1.04341(14) 0.5339(3)
H3 H 0.7930 1.0696 0.5229
C5 C 0.73504(14) 0.98617(14) 0.5331(3)
H4 H 0.7605 0.9731 0.5176
C6 C 0.67882(14) 0.94799(14) 0.5547(3)
C7 C 0.65765(15) 0.88568(13) 0.5529(3)
H5 H 0.6843 0.8784 0.5020
C8 C 0.64953(13) 0.85955(13) 0.6879(3)
H6 H 0.6210 0.8655 0.7344
C9 C 0.70090(13) 0.88446(14) 0.7699(3)
H7 H 0.7256 0.9237 0.7646
C10 C 0.71436(14) 0.85502(14) 0.8503(3)
C11 C 0.68146(13) 0.79144(13) 0.8620(3)
H8 H 0.6773 0.7820 0.9569
C12 C 0.62185(13) 0.76686(14) 0.8042(3)
H9 H 0.6066 0.7260 0.7876
C13 C 0.62492(14) 0.79575(13) 0.6733(3)
H10 H 0.6514 0.7904 0.6167
C14 C 0.56990(14) 0.77198(14) 0.5983(3)
C15 C 0.52581(15) 0.71793(15) 0.6125(3)
H11 H 0.5295 0.6932 0.6707
C16 C 0.47626(16) 0.69892(16) 0.5437(4)
H12 H 0.4464 0.6616 0.5545
C17 C 0.47074(16) 0.73462(17) 0.4597(4)
H13 H 0.4365 0.7220 0.4142
C18 C 0.51411(17) 0.78855(16) 0.4403(4)
H14 H 0.5103 0.8128 0.3808
C19 C 0.56444(15) 0.80706(14) 0.5110(3)
C20 C 0.58412(14) 0.77324(13) 0.9033(3)
C21 C 0.53673(13) 0.72253(13) 0.9680(3)
C22 C 0.50361(15) 0.73269(14) 1.0528(4)
H15 H 0.5124 0.7701 1.0691
C23 C 0.45813(15) 0.68915(15) 1.1136(4)
H16 H 0.4352 0.6966 1.1693
C24 C 0.44578(14) 0.63406(15) 1.0936(3)
C25 C 0.47947(15) 0.62379(14) 1.0117(4)
H17 H 0.4718 0.5865 0.9989
C26 C 0.52431(15) 0.66753(14) 0.9482(3)
H18 H 0.5467 0.6600 0.8908
C27 C 0.39791(15) 0.58751(16) 1.1615(4)
C28 C 0.71205(13) 0.76403(13) 0.7998(3)
C29 C 0.69739(14) 0.70934(14) 0.8358(3)
H19 H 0.6696 0.6907 0.9007
C30 C 0.72228(14) 0.68225(14) 0.7794(4)
H20 H 0.7119 0.6452 0.8051
C31 C 0.76329(13) 0.70970(14) 0.6833(3)
C32 C 0.77906(14) 0.76376(15) 0.6482(3)
H21 H 0.8075 0.7827 0.5849
C33 C 0.75309(14) 0.79047(14) 0.7059(3)
H22 H 0.7637 0.8276 0.6803
C34 C 0.76391(14) 0.88457(15) 0.9327(3)
H23 H 0.7865 0.9239 0.9219
loop_
_geom_bond_atom_site_label_1
_geom_bond_atom_site_label_2
_geom_bond_site_symmetry_1
_geom_bond_site_symmetry_2
Cl1 C3 1_555 1_555
Cl2 C31 1_555 1_555
F1 C27 1_555 1_555
F2 C27 1_555 1_555
F3 C27 1_555 1_555
O1 C7 1_555 1_555
O2 C34 1_555 1_555
O3 C20 1_555 1_555
C1 H1 1_555 1_555
C2 C1 1_555 1_555
H2 C2 1_555 1_555
C3 C2 1_555 1_555
C4 C3 1_555 1_555
H3 C4 1_555 1_555
C5 C4 1_555 1_555
H4 C5 1_555 1_555
C6 C1 1_555 1_555
C7 C6 1_555 1_555
H5 C7 1_555 1_555
C8 C7 1_555 1_555
H6 C8 1_555 1_555
C9 C8 1_555 1_555
H7 C9 1_555 1_555
C10 C9 1_555 1_555
C11 C10 1_555 1_555
H8 C11 1_555 1_555
C12 C11 1_555 1_555
H9 C12 1_555 1_555
C13 C8 1_555 1_555
H10 C13 1_555 1_555
C14 C13 1_555 1_555
C15 C14 1_555 1_555
H11 C15 1_555 1_555
C16 C15 1_555 1_555
H12 C16 1_555 1_555
C17 C16 1_555 1_555
H13 C17 1_555 1_555
C18 C17 1_555 1_555
H14 C18 1_555 1_555
C19 O1 1_555 1_555
C20 C12 1_555 1_555
C21 C20 1_555 1_555
C22 C21 1_555 1_555
H15 C22 1_555 1_555
C23 C22 1_555 1_555
H16 C23 1_555 1_555
C24 C23 1_555 1_555
C25 C24 1_555 1_555
H17 C25 1_555 1_555
C26 C21 1_555 1_555
H18 C26 1_555 1_555
C27 C24 1_555 1_555
C28 C11 1_555 1_555
C29 C28 1_555 1_555
H19 C29 1_555 1_555
C30 C29 1_555 1_555
H20 C30 1_555 1_555
C31 C30 1_555 1_555
C32 C31 1_555 1_555
H21 C32 1_555 1_555
C33 C28 1_555 1_555
H22 C33 1_555 1_555
C34 C10 1_555 1_555
H23 C34 1_555 1_555
C5 C6 1_555 1_555
C12 C13 1_555 1_555
C14 C19 1_555 1_555
C18 C19 1_555 1_555
C25 C26 1_555 1_555
C32 C33 1_555 1_555

#END
