
#######################################################################
#
#                 Cambridge Crystallographic Data Centre
#                                CCDC 
#
#######################################################################
#
# If this CIF has been generated from an entry in the Cambridge 
# Structural Database, then it will include bibliographic, chemical, 
# crystal, experimental, refinement or atomic coordinate data resulting 
# from the CCDC's data processing and validation procedures.
#
#######################################################################

data_SOKRAM
_chemical_formula_moiety         'C19 H33 N4 O3 S1'
_chemical_name_systematic        
2,2,6,6-Tetramethyl-1-oxo-4-([5-(2-oxohexahydro-1H-thieno[3,4-d]imidazol-4-yl)pentanoyl]amino)piperidinium
_symmetry_cell_setting           tetragonal
_symmetry_space_group_name_H-M   'P 43 21 2'
_symmetry_Int_Tables_number      96
_space_group_name_Hall           'P 4nw 2abw'
loop_
_symmetry_equiv_pos_site_id
_symmetry_equiv_pos_as_xyz
1 x,y,z
2 1/2+x,1/2-y,1/4-z
3 -x,-y,1/2+z
4 1/2-x,1/2+y,3/4-z
5 y,x,-z
6 1/2+y,1/2-x,1/4+z
7 1/2-y,1/2+x,3/4+z
8 -y,-x,1/2-z
_cell_length_a                   15.7624(8)
_cell_length_b                   15.7624(8)
_cell_length_c                   17.2891(9)
_cell_angle_alpha                90
_cell_angle_beta                 90
_cell_angle_gamma                90
_cell_volume                     4295.53
_exptl_crystal_colour            orange
_exptl_crystal_description       block
_cell_formula_units_Z            8
loop_
_atom_site_label
_atom_site_type_symbol
_atom_site_fract_x
_atom_site_fract_y
_atom_site_fract_z
C1 C 0.25009(13) 0.27531(15) 0.11120(12)
C2 C 0.20798(13) 0.41660(13) 0.09569(12)
H1 H 0.1491 0.4365 0.0962
C3 C 0.24098(15) 0.40243(14) 0.18009(12)
H2 H 0.1971 0.4165 0.2181
C4 C 0.31952(15) 0.45643(15) 0.19204(13)
H3 H 0.3576 0.4297 0.2288
H4 H 0.3041 0.5121 0.2115
C5 C 0.26599(14) 0.48219(14) 0.05580(12)
H5 H 0.2465 0.5391 0.0701
C6 C 0.27208(14) 0.47746(14) -0.03237(12)
H6 H 0.3198 0.5117 -0.0492
H7 H 0.2836 0.4192 -0.0471
C7 C 0.19373(16) 0.50700(16) -0.07413(12)
H8 H 0.1906 0.5684 -0.0712
H9 H 0.1441 0.4842 -0.0482
C8 C 0.19170(15) 0.48006(16) -0.15949(13)
H10 H 0.1851 0.4189 -0.1619
H11 H 0.1422 0.5052 -0.1836
C9 C 0.26950(16) 0.50458(15) -0.20618(12)
H12 H 0.3202 0.4849 -0.1800
H13 H 0.2727 0.5659 -0.2105
C10 C 0.26472(15) 0.46544(16) -0.28639(13)
C11 C 0.25115(13) 0.49146(13) -0.42635(11)
H14 H 0.2826 0.4385 -0.4339
C12 C 0.28643(14) 0.55904(14) -0.47980(11)
H15 H 0.3454 0.5690 -0.4665
H16 H 0.2557 0.6115 -0.4710
C13 C 0.28122(13) 0.53702(13) -0.56521(12)
C14 C 0.14267(14) 0.45044(14) -0.53028(12)
C15 C 0.15822(13) 0.47749(15) -0.44650(12)
H17 H 0.1274 0.5296 -0.4368
H18 H 0.1353 0.4343 -0.4124
C16 C 0.16471(16) 0.35701(14) -0.54308(14)
H19 H 0.1606 0.3439 -0.5972
H20 H 0.1258 0.3221 -0.5146
H21 H 0.2215 0.3464 -0.5255
C17 C 0.04962(14) 0.46612(18) -0.55043(15)
H22 H 0.0383 0.4454 -0.6016
H23 H 0.0380 0.5259 -0.5483
H24 H 0.0141 0.4370 -0.5140
C18 C 0.29388(14) 0.61717(14) -0.61324(12)
H25 H 0.2952 0.6026 -0.6671
H26 H 0.3465 0.6436 -0.5990
H27 H 0.2479 0.6557 -0.6038
C19 C 0.34656(13) 0.46929(15) -0.58748(13)
H28 H 0.3421 0.4221 -0.5526
H29 H 0.4026 0.4930 -0.5844
H30 H 0.3359 0.4504 -0.6394
N1 N 0.19473(11) 0.50377(10) -0.58366(10)
N2 N 0.25949(13) 0.51873(13) -0.34626(11)
H31 H 0.2582(13) 0.5679(13) -0.3393(12)
N3 N 0.21321(12) 0.33223(12) 0.06325(12)
H32 H 0.2053(12) 0.3221(12) 0.0185(12)
N4 N 0.25994(13) 0.31172(12) 0.18122(11)
H33 H 0.2955(15) 0.2924(14) 0.2121(14)
O1 O 0.17712(10) 0.49708(10) -0.65626(8)
O2 O 0.26559(12) 0.38796(10) -0.29592(8)
O3 O 0.26931(9) 0.20166(9) 0.09325(9)
S1 S 0.36944(4) 0.46514(4) 0.09857(4)
loop_
_geom_bond_atom_site_label_1
_geom_bond_atom_site_label_2
_geom_bond_site_symmetry_1
_geom_bond_site_symmetry_2
C1 N3 1_555 1_555
C2 H1 1_555 1_555
C3 C2 1_555 1_555
H2 C3 1_555 1_555
C4 C3 1_555 1_555
H3 C4 1_555 1_555
H4 C4 1_555 1_555
C5 C2 1_555 1_555
H5 C5 1_555 1_555
C6 C5 1_555 1_555
H6 C6 1_555 1_555
H7 C6 1_555 1_555
C7 C6 1_555 1_555
H8 C7 1_555 1_555
H9 C7 1_555 1_555
C8 C7 1_555 1_555
H10 C8 1_555 1_555
H11 C8 1_555 1_555
C9 C8 1_555 1_555
H12 C9 1_555 1_555
H13 C9 1_555 1_555
C10 C9 1_555 1_555
C11 H14 1_555 1_555
C12 C11 1_555 1_555
H15 C12 1_555 1_555
H16 C12 1_555 1_555
C13 C12 1_555 1_555
C14 C15 1_555 1_555
C15 C11 1_555 1_555
H17 C15 1_555 1_555
H18 C15 1_555 1_555
C16 C14 1_555 1_555
H19 C16 1_555 1_555
H20 C16 1_555 1_555
H21 C16 1_555 1_555
C17 C14 1_555 1_555
H22 C17 1_555 1_555
H23 C17 1_555 1_555
H24 C17 1_555 1_555
C18 C13 1_555 1_555
H25 C18 1_555 1_555
H26 C18 1_555 1_555
H27 C18 1_555 1_555
C19 C13 1_555 1_555
H28 C19 1_555 1_555
H29 C19 1_555 1_555
H30 C19 1_555 1_555
N1 C13 1_555 1_555
N2 C10 1_555 1_555
H31 N2 1_555 1_555
N3 C2 1_555 1_555
H32 N3 1_555 1_555
N4 C1 1_555 1_555
H33 N4 1_555 1_555
O1 N1 1_555 1_555
O2 C10 1_555 1_555
O3 C1 1_555 1_555
S1 C4 1_555 1_555
C3 N4 1_555 1_555
C5 S1 1_555 1_555
C11 N2 1_555 1_555
C14 N1 1_555 1_555

#END
