
#######################################################################
#
#                 Cambridge Crystallographic Data Centre
#                                CCDC 
#
#######################################################################
#
# If this CIF has been generated from an entry in the Cambridge 
# Structural Database, then it will include bibliographic, chemical, 
# crystal, experimental, refinement or atomic coordinate data resulting 
# from the CCDC's data processing and validation procedures.
#
#######################################################################

data_SOLHIM
_chemical_formula_moiety         'C7 H11 N2 1+,C7 H5 O2 1-,H2 O1'
_chemical_name_systematic        
'4-(dimethylamino)pyridinium benzoate monohydrate'
_symmetry_cell_setting           monoclinic
_symmetry_space_group_name_H-M   'P 21/c'
_symmetry_Int_Tables_number      14
_space_group_name_Hall           '-P 2ybc'
loop_
_symmetry_equiv_pos_site_id
_symmetry_equiv_pos_as_xyz
1 x,y,z
2 -x,1/2+y,1/2-z
3 -x,-y,-z
4 x,1/2-y,1/2+z
_cell_length_a                   11.470(2)
_cell_length_b                   10.6498(19)
_cell_length_c                   13.027(2)
_cell_angle_alpha                90
_cell_angle_beta                 121.303(11)
_cell_angle_gamma                90
_cell_volume                     1359.65
_cell_formula_units_Z            4
loop_
_atom_site_label
_atom_site_type_symbol
_atom_site_fract_x
_atom_site_fract_y
_atom_site_fract_z
H1 H 0.020(3) 0.624(3) 0.294(2)
C1 C -0.2049(2) 0.52305(19) 0.35874(18)
H2 H -0.2754 0.4654 0.3344
N1 N -0.22940(17) 0.59444(16) 0.52282(15)
N2 N -0.03675(18) 0.61350(17) 0.33076(16)
C2 C -0.16989(19) 0.60346(18) 0.45742(17)
C3 C -0.0677(2) 0.69360(19) 0.48391(19)
H3 H -0.0438 0.7517 0.5450
C4 C -0.0043(2) 0.6956(2) 0.4206(2)
H4 H 0.0633 0.7551 0.4396
C5 C -0.1369(2) 0.5292(2) 0.29944(19)
H5 H -0.1599 0.4744 0.2361
C6 C -0.1834(2) 0.6712(2) 0.6297(2)
H6 H -0.0855 0.6709 0.6770
H7 H -0.2190 0.6376 0.6763
H8 H -0.2153 0.7557 0.6063
C7 C -0.3434(2) 0.5091(2) 0.4875(2)
H9 H -0.4146 0.5272 0.4065
H10 H -0.3776 0.5198 0.5403
H11 H -0.3131 0.4241 0.4923
H12 H 0.874(3) 0.018(3) 0.506(3)
H13 H 0.992(4) -0.008(3) 0.611(3)
O1 O 0.8985(2) 0.00225(16) 0.57847(18)
O2 O 0.14998(15) 0.68725(15) 0.28129(14)
O3 O 0.17145(15) 0.55754(15) 0.15836(14)
C8 C 0.4068(2) 0.7916(2) 0.3611(2)
H14 H 0.3689 0.8050 0.4083
C9 C 0.2114(2) 0.6470(2) 0.23198(18)
C10 C 0.3430(2) 0.71103(19) 0.26308(18)
C11 C 0.4020(2) 0.6920(2) 0.1941(2)
H15 H 0.3611 0.6373 0.1290
C12 C 0.5270(2) 0.8520(2) 0.3889(2)
H16 H 0.5695 0.9052 0.4551
C13 C 0.5839(2) 0.8337(2) 0.3189(3)
H17 H 0.6640 0.8749 0.3374
C14 C 0.5209(2) 0.7538(2) 0.2216(3)
H18 H 0.5585 0.7414 0.1741
loop_
_geom_bond_atom_site_label_1
_geom_bond_atom_site_label_2
_geom_bond_site_symmetry_1
_geom_bond_site_symmetry_2
H1 N2 1_555 1_555
C1 H2 1_555 1_555
N1 C2 1_555 1_555
N2 C4 1_555 1_555
C2 C1 1_555 1_555
C3 C2 1_555 1_555
H3 C3 1_555 1_555
C4 C3 1_555 1_555
H4 C4 1_555 1_555
C5 C1 1_555 1_555
H5 C5 1_555 1_555
C6 N1 1_555 1_555
H6 C6 1_555 1_555
H7 C6 1_555 1_555
H8 C6 1_555 1_555
C7 N1 1_555 1_555
H9 C7 1_555 1_555
H10 C7 1_555 1_555
H11 C7 1_555 1_555
H12 O1 1_555 1_555
H13 O1 1_555 1_555
O2 C9 1_555 1_555
O3 C9 1_555 1_555
C8 H14 1_555 1_555
C9 C10 1_555 1_555
C10 C8 1_555 1_555
C11 C10 1_555 1_555
H15 C11 1_555 1_555
C12 C8 1_555 1_555
H16 C12 1_555 1_555
C13 C12 1_555 1_555
H17 C13 1_555 1_555
C14 C11 1_555 1_555
H18 C14 1_555 1_555
N2 C5 1_555 1_555
C13 C14 1_555 1_555

#END
