
#######################################################################
#
#                 Cambridge Crystallographic Data Centre
#                                CCDC 
#
#######################################################################
#
# If this CIF has been generated from an entry in the Cambridge 
# Structural Database, then it will include bibliographic, chemical, 
# crystal, experimental, refinement or atomic coordinate data resulting 
# from the CCDC's data processing and validation procedures.
#
#######################################################################

data_SOLHEI
_chemical_formula_moiety         'C7 H11 N2 1+,C8 H7 O2 1-,2(H2 O1)'
_chemical_name_systematic        
'4-(dimethylamino)pyridinium 4-methylbenzoate dihydrate'
_symmetry_cell_setting           monoclinic
_symmetry_space_group_name_H-M   'P 21/c'
_symmetry_Int_Tables_number      14
_space_group_name_Hall           '-P 2ybc'
loop_
_symmetry_equiv_pos_site_id
_symmetry_equiv_pos_as_xyz
1 x,y,z
2 -x,1/2+y,1/2-z
3 -x,-y,-z
4 x,1/2-y,1/2+z
_cell_length_a                   11.0254(19)
_cell_length_b                   11.0167(19)
_cell_length_c                   16.124(2)
_cell_angle_alpha                90
_cell_angle_beta                 127.876(8)
_cell_angle_gamma                90
_cell_volume                     1545.91
_cell_formula_units_Z            4
loop_
_atom_site_label
_atom_site_type_symbol
_atom_site_fract_x
_atom_site_fract_y
_atom_site_fract_z
O1 O 0.6321(3) 0.1085(2) 0.25911(17)
O2 O 0.7535(3) 0.2533(2) 0.3795(2)
C1 C 0.7344(3) 0.1906(3) 0.3078(2)
C2 C 0.8360(3) 0.2140(3) 0.2760(2)
C3 C 0.9567(4) 0.2968(3) 0.3321(3)
H1 H 0.9759 0.3360 0.3902
C4 C 1.0485(4) 0.3216(3) 0.3025(3)
H2 H 1.1287 0.3769 0.3411
C5 C 1.0222(4) 0.2648(3) 0.2155(3)
C6 C 0.9034(4) 0.1806(3) 0.1610(3)
H3 H 0.8847 0.1406 0.1033
C7 C 0.8127(4) 0.1554(3) 0.1911(3)
H4 H 0.7347 0.0981 0.1538
C8 C 1.1180(4) 0.2926(4) 0.1798(3)
H5 H 1.1840 0.3605 0.2189
H6 H 1.0515 0.3120 0.1063
H7 H 1.1793 0.2231 0.1916
N1 N 0.4754(3) 0.1166(2) 0.3403(2)
N2 N 0.2844(3) 0.1033(2) 0.4946(2)
C9 C 0.5114(4) 0.2015(3) 0.4128(3)
H8 H 0.5820 0.2617 0.4290
C10 C 0.4476(4) 0.2011(3) 0.4624(3)
H9 H 0.4740 0.2616 0.5111
C11 C 0.3415(3) 0.1106(3) 0.4415(2)
C12 C 0.3010(3) 0.0262(3) 0.3616(2)
H10 H 0.2275 -0.0330 0.3416
C13 C 0.3690(3) 0.0313(3) 0.3144(2)
H11 H 0.3415 -0.0253 0.2627
C14 C 0.1624(4) 0.0175(3) 0.4641(3)
H12 H 0.0822 0.0227 0.3898
H13 H 0.1215 0.0368 0.5006
H14 H 0.2034 -0.0634 0.4820
C15 C 0.3319(4) 0.1847(3) 0.5809(3)
H15 H 0.4387 0.2044 0.6192
H16 H 0.3165 0.1456 0.6270
H17 H 0.2719 0.2577 0.5534
H18 H 0.521(5) 0.122(4) 0.309(3)
O3 O 0.8336(3) 0.4868(2) 0.4491(2)
H19 H 0.821(5) 0.408(4) 0.432(3)
H20 H 0.928(7) 0.502(6) 0.498(6)
O4 O 0.4333(3) 0.0117(2) 0.0556(2)
H21 H 0.503(5) 0.036(4) 0.115(4)
loop_
_geom_bond_atom_site_label_1
_geom_bond_atom_site_label_2
_geom_bond_site_symmetry_1
_geom_bond_site_symmetry_2
O1 C1 1_555 1_555
O2 C1 1_555 1_555
C1 C2 1_555 1_555
C2 C3 1_555 1_555
C3 H1 1_555 1_555
C4 C3 1_555 1_555
H2 C4 1_555 1_555
C5 C4 1_555 1_555
C6 C5 1_555 1_555
H3 C6 1_555 1_555
C7 C2 1_555 1_555
H4 C7 1_555 1_555
C8 C5 1_555 1_555
H5 C8 1_555 1_555
H6 C8 1_555 1_555
H7 C8 1_555 1_555
N1 C9 1_555 1_555
N2 C11 1_555 1_555
C9 H8 1_555 1_555
C10 C9 1_555 1_555
H9 C10 1_555 1_555
C11 C10 1_555 1_555
C12 C11 1_555 1_555
H10 C12 1_555 1_555
C13 N1 1_555 1_555
H11 C13 1_555 1_555
C14 N2 1_555 1_555
H12 C14 1_555 1_555
H13 C14 1_555 1_555
H14 C14 1_555 1_555
C15 N2 1_555 1_555
H15 C15 1_555 1_555
H16 C15 1_555 1_555
H17 C15 1_555 1_555
H18 N1 1_555 1_555
O3 H19 1_555 1_555
H20 O3 1_555 1_555
O4 H21 1_555 1_555
C6 C7 1_555 1_555
C12 C13 1_555 1_555

#END
