
#######################################################################
#
#                 Cambridge Crystallographic Data Centre
#                                CCDC 
#
#######################################################################
#
# If this CIF has been generated from an entry in the Cambridge 
# Structural Database, then it will include bibliographic, chemical, 
# crystal, experimental, refinement or atomic coordinate data resulting 
# from the CCDC's data processing and validation procedures.
#
#######################################################################

data_SOLHUY
_chemical_formula_moiety         'C8 H8 O3,C6 H4 N2'
_chemical_name_systematic        '4-methoxybenzoic acid isonicotinonitrile'
_symmetry_cell_setting           triclinic
_symmetry_space_group_name_H-M   'P -1'
_symmetry_Int_Tables_number      2
_space_group_name_Hall           '-P 1'
loop_
_symmetry_equiv_pos_site_id
_symmetry_equiv_pos_as_xyz
1 x,y,z
2 -x,-y,-z
_cell_length_a                   7.4624(16)
_cell_length_b                   7.7677(17)
_cell_length_c                   10.981(2)
_cell_angle_alpha                91.289(6)
_cell_angle_beta                 95.146(7)
_cell_angle_gamma                102.190(7)
_cell_volume                     619.1
_cell_formula_units_Z            2
loop_
_atom_site_label
_atom_site_type_symbol
_atom_site_fract_x
_atom_site_fract_y
_atom_site_fract_z
O1 O 0.27835(15) 0.41189(14) 1.03904(9)
C1 C 0.11473(18) 0.29183(18) 0.85051(12)
C2 C 0.11105(19) 0.12083(18) 0.88511(12)
H1 H 0.1666 0.1019 0.9614
C3 C 0.02581(19) -0.02298(18) 0.80788(13)
H2 H 0.0250 -0.1373 0.8316
C4 C -0.05835(18) 0.00727(18) 0.69443(12)
C5 C -0.05285(19) 0.17831(19) 0.65794(13)
H3 H -0.1073 0.1977 0.5814
C6 C 0.0332(2) 0.31864(18) 0.73534(13)
H4 H 0.0371 0.4329 0.7105
C7 C 0.2036(2) 0.44952(19) 0.93099(13)
C8 C -0.1502(2) -0.30039(19) 0.64025(16)
H5 H -0.0252 -0.3147 0.6508
H6 H -0.2168 -0.3781 0.5745
H7 H -0.2073 -0.3280 0.7144
O2 O 0.20710(19) 0.59947(14) 0.90013(10)
O3 O -0.15243(14) -0.12290(13) 0.61208(9)
H8 H 0.327(3) 0.522(3) 1.084(2)
C9 C 0.3895(2) -0.13485(19) 0.12121(13)
H9 H 0.3267 -0.1451 0.0434
C10 C 0.44972(19) 0.03160(19) 0.17632(13)
H10 H 0.4288 0.1311 0.1367
C11 C 0.54246(18) 0.04542(18) 0.29274(12)
C12 C 0.57293(19) -0.10574(19) 0.34919(13)
H11 H 0.6350 -0.0992 0.4270
C13 C 0.50816(19) -0.26614(19) 0.28607(13)
H12 H 0.5288 -0.3677 0.3230
C14 C 0.6059(2) 0.21525(19) 0.35643(13)
N1 N 0.6538(2) 0.34873(17) 0.40867(13)
N2 N 0.41686(16) -0.28190(16) 0.17401(11)
loop_
_geom_bond_atom_site_label_1
_geom_bond_atom_site_label_2
_geom_bond_site_symmetry_1
_geom_bond_site_symmetry_2
O1 C7 1_555 1_555
C1 C2 1_555 1_555
C2 H1 1_555 1_555
C3 C2 1_555 1_555
H2 C3 1_555 1_555
C4 C3 1_555 1_555
C5 C4 1_555 1_555
H3 C5 1_555 1_555
C6 C1 1_555 1_555
H4 C6 1_555 1_555
C7 C1 1_555 1_555
C8 H5 1_555 1_555
H6 C8 1_555 1_555
H7 C8 1_555 1_555
O2 C7 1_555 1_555
O3 C4 1_555 1_555
H8 O1 1_555 1_555
C9 H9 1_555 1_555
C10 C9 1_555 1_555
H10 C10 1_555 1_555
C11 C10 1_555 1_555
C12 C11 1_555 1_555
H11 C12 1_555 1_555
C13 C12 1_555 1_555
H12 C13 1_555 1_555
C14 C11 1_555 1_555
N1 C14 1_555 1_555
N2 C9 1_555 1_555
C5 C6 1_555 1_555
C8 O3 1_555 1_555
C13 N2 1_555 1_555

#END
