
#######################################################################
#
#                 Cambridge Crystallographic Data Centre
#                                CCDC 
#
#######################################################################
#
# If this CIF has been generated from an entry in the Cambridge 
# Structural Database, then it will include bibliographic, chemical, 
# crystal, experimental, refinement or atomic coordinate data resulting 
# from the CCDC's data processing and validation procedures.
#
#######################################################################

data_SOLJIO
_chemical_formula_moiety         '0.5(C10 H18 O4),C10 H14 N4'
_chemical_name_systematic        
"3,3',5,5'-tetramethyl-1H,1'H-4,4'-bipyrazole hemikis(decanedioic acid)"
_symmetry_cell_setting           orthorhombic
_symmetry_space_group_name_H-M   'P b c a'
_symmetry_Int_Tables_number      61
_space_group_name_Hall           '-P 2ac 2ab'
loop_
_symmetry_equiv_pos_site_id
_symmetry_equiv_pos_as_xyz
1 x,y,z
2 1/2-x,-y,1/2+z
3 1/2+x,1/2-y,-z
4 -x,1/2+y,1/2-z
5 -x,-y,-z
6 1/2+x,y,1/2-z
7 1/2-x,1/2+y,z
8 x,1/2-y,1/2+z
_cell_length_a                   7.5238(9)
_cell_length_b                   16.626(2)
_cell_length_c                   26.574(3)
_cell_angle_alpha                90
_cell_angle_beta                 90
_cell_angle_gamma                90
_cell_volume                     3324.16
_exptl_crystal_colour            colorless
_exptl_crystal_description       Block
_cell_formula_units_Z            8
loop_
_atom_site_label
_atom_site_type_symbol
_atom_site_fract_x
_atom_site_fract_y
_atom_site_fract_z
C1 C 0.0979(4) 0.0623(2) 0.20543(16)
H1 H 0.0097 0.0692 0.1797
H2 H 0.0785 0.1011 0.2317
H3 H 0.0892 0.0091 0.2191
C2 C 0.2771(4) 0.07419(19) 0.18357(12)
C3 C 0.3524(4) 0.14408(18) 0.16421(12)
C4 C 0.5207(4) 0.12230(19) 0.14890(13)
C5 C 0.6639(5) 0.1700(3) 0.12438(19)
H4 H 0.7284 0.1994 0.1495
H5 H 0.6122 0.2069 0.1008
H6 H 0.7435 0.1343 0.1070
C6 C 0.3792(5) 0.3041(3) 0.23537(16)
H7 H 0.4849 0.3334 0.2269
H8 H 0.4113 0.2537 0.2505
H9 H 0.3095 0.3349 0.2587
C7 C 0.2740(4) 0.28895(19) 0.18916(13)
C8 C 0.2657(4) 0.22301(18) 0.15827(12)
C9 C 0.1501(4) 0.24453(18) 0.11995(12)
C10 C 0.1002(5) 0.1985(2) 0.07446(15)
H10 H 0.0002 0.2238 0.0585
H11 H 0.0694 0.1445 0.0838
H12 H 0.1987 0.1974 0.0515
N1 N 0.5408(3) 0.04437(16) 0.15915(11)
H13 H 0.6359 0.0174 0.1530
N2 N 0.3927(3) 0.01313(15) 0.18045(10)
N3 N 0.1676(3) 0.34528(15) 0.16966(11)
H14 H 0.1511 0.3921 0.1826
N4 N 0.0902(3) 0.31906(16) 0.12730(11)
C11 C 0.6600(4) 0.4030(2) 0.08840(14)
C12 C 0.4943(4) 0.3895(2) 0.05901(14)
H15 H 0.4343 0.3429 0.0730
H16 H 0.5277 0.3762 0.0248
C13 C 0.3635(4) 0.4574(2) 0.05702(13)
H17 H 0.4253 0.5064 0.0477
H18 H 0.3132 0.4653 0.0903
C14 C 0.2143(4) 0.4424(2) 0.01991(13)
H19 H 0.2649 0.4374 -0.0135
H20 H 0.1582 0.3915 0.0281
C15 C 0.0730(4) 0.5072(2) 0.01886(13)
H21 H 0.0205 0.5115 0.0521
H22 H 0.1292 0.5583 0.0113
O1 O 0.7864(3) 0.35328(17) 0.07777(11)
H23 H 0.8737 0.3636 0.0950
O2 O 0.6727(3) 0.4558(2) 0.11920(12)
C11D C -0.6600(4) 0.5970(2) -0.08840(14)
C12D C -0.4943(4) 0.6105(2) -0.05901(14)
H15D H -0.4343 0.6571 -0.0730
H16D H -0.5277 0.6238 -0.0248
C13D C -0.3635(4) 0.5426(2) -0.05702(13)
H17D H -0.4253 0.4936 -0.0477
H18D H -0.3132 0.5347 -0.0903
C14D C -0.2143(4) 0.5576(2) -0.01991(13)
H19D H -0.2649 0.5626 0.0135
H20D H -0.1582 0.6085 -0.0281
C15D C -0.0730(4) 0.4928(2) -0.01886(13)
H21D H -0.0205 0.4885 -0.0521
H22D H -0.1292 0.4417 -0.0113
O1D O -0.7864(3) 0.64672(17) -0.07777(11)
H23D H -0.8737 0.6364 -0.0950
O2D O -0.6727(3) 0.5442(2) -0.11920(12)
loop_
_geom_bond_atom_site_label_1
_geom_bond_atom_site_label_2
_geom_bond_site_symmetry_1
_geom_bond_site_symmetry_2
C1 H1 1_555 1_555
H2 C1 1_555 1_555
H3 C1 1_555 1_555
C2 C1 1_555 1_555
C3 C2 1_555 1_555
C4 C3 1_555 1_555
C5 C4 1_555 1_555
H4 C5 1_555 1_555
H5 C5 1_555 1_555
H6 C5 1_555 1_555
C6 H7 1_555 1_555
H8 C6 1_555 1_555
H9 C6 1_555 1_555
C7 C6 1_555 1_555
C8 C3 1_555 1_555
C9 C8 1_555 1_555
C10 C9 1_555 1_555
H10 C10 1_555 1_555
H11 C10 1_555 1_555
H12 C10 1_555 1_555
N1 C4 1_555 1_555
H13 N1 1_555 1_555
N2 C2 1_555 1_555
N3 C7 1_555 1_555
H14 N3 1_555 1_555
N4 C9 1_555 1_555
C11 C12 1_555 1_555
C12 H15 1_555 1_555
H16 C12 1_555 1_555
C13 C12 1_555 1_555
H17 C13 1_555 1_555
H18 C13 1_555 1_555
C14 C13 1_555 1_555
H19 C14 1_555 1_555
H20 C14 1_555 1_555
C15 C14 1_555 1_555
H21 C15 1_555 1_555
H22 C15 1_555 1_555
O1 C11 1_555 1_555
H23 O1 1_555 1_555
O2 C11 1_555 1_555
C11D C12D 1_555 1_555
C12D H15D 1_555 1_555
H16D C12D 1_555 1_555
C13D C12D 1_555 1_555
H17D C13D 1_555 1_555
H18D C13D 1_555 1_555
C14D C13D 1_555 1_555
H19D C14D 1_555 1_555
H20D C14D 1_555 1_555
C15D C15 1_555 1_555
H21D C15D 1_555 1_555
H22D C15D 1_555 1_555
O1D C11D 1_555 1_555
H23D O1D 1_555 1_555
O2D C11D 1_555 1_555
C7 C8 1_555 1_555
N1 N2 1_555 1_555
N3 N4 1_555 1_555
C14D C15D 1_555 1_555

#END
