
#######################################################################
#
#                 Cambridge Crystallographic Data Centre
#                                CCDC 
#
#######################################################################
#
# If this CIF has been generated from an entry in the Cambridge 
# Structural Database, then it will include bibliographic, chemical, 
# crystal, experimental, refinement or atomic coordinate data resulting 
# from the CCDC's data processing and validation procedures.
#
#######################################################################

data_SOLLUA
_chemical_formula_moiety         'C47 H35 Li1 N7 1+,Br1 1-,2(C1 H2 Cl2)'
_chemical_name_systematic        
"(N,N'-bis(3,3'-Bi-isoquinoline-1,1'-dimethyl)-pyridine-2,6-bis(methylamine))-lithium bromide dichloromethane solvate"
_symmetry_cell_setting           monoclinic
_symmetry_space_group_name_H-M   'P 2/n'
_symmetry_Int_Tables_number      13
_space_group_name_Hall           '-P 2yac'
loop_
_symmetry_equiv_pos_site_id
_symmetry_equiv_pos_as_xyz
1 x,y,z
2 1/2-x,y,1/2-z
3 -x,-y,-z
4 1/2+x,-y,1/2+z
_cell_length_a                   15.632(5)
_cell_length_b                   9.504(4)
_cell_length_c                   14.829(7)
_cell_angle_alpha                90
_cell_angle_beta                 93.03(2)
_cell_angle_gamma                90
_cell_volume                     2200.01
_cell_formula_units_Z            2
loop_
_atom_site_label
_atom_site_type_symbol
_atom_site_fract_x
_atom_site_fract_y
_atom_site_fract_z
Br1 Br 0.7500 0.8487(2) 0.7500
Li1 Li 0.2500 0.2240(21) 0.7500
N1 N 0.2496(4) 0.3037(7) 0.9146(5)
C1 C 0.1639(6) 0.3434(10) 0.9389(8)
C2 C 0.0987(5) 0.2378(8) 0.9027(6)
N2 N 0.1186(4) 0.1763(7) 0.8275(5)
C3 C 0.0608(6) 0.0847(9) 0.7867(5)
C4 C -0.0142(5) 0.0500(8) 0.8215(5)
C5 C -0.1149(5) 0.0847(9) 0.9428(7)
C6 C -0.1359(6) 0.1469(11) 1.0210(7)
C7 C -0.0789(6) 0.2448(10) 1.0632(7)
C8 C -0.0027(6) 0.2781(9) 1.0270(6)
C9 C 0.0220(5) 0.2121(9) 0.9447(6)
C10 C -0.0349(5) 0.1135(8) 0.9040(6)
C11 C 0.2812(6) 0.1968(10) 0.9748(6)
C12 C 0.3426(5) 0.0929(10) 0.9277(7)
N3 N 0.1449(5) 0.1171(7) 0.6559(5)
C13 C 0.0867(5) 0.0319(9) 0.6962(6)
C14 C 0.0497(5) -0.0842(9) 0.6564(6)
C15 C 0.4638(6) -0.2417(11) 0.9784(8)
C16 C 0.4411(8) -0.2680(14) 1.0653(9)
C17 C 0.3887(8) -0.1769(14) 1.1108(8)
C18 C 0.3546(6) -0.0579(12) 1.0696(6)
C19 C 0.3748(6) -0.0267(11) 0.9782(7)
C20 C 0.0697(6) -0.1176(10) 0.5666(7)
C21 C 0.3064(6) 0.4235(10) 0.9060(6)
N4 N 0.2500 0.4417(11) 0.7500
C22 C 0.2766(5) 0.5123(10) 0.8246(7)
C23 C 0.2766(6) 0.6571(11) 0.8255(8)
C24 C 0.2500 0.7305(15) 0.7500
H1 H 0.163 0.345 1.012
H2 H 0.148 0.447 0.912
H3 H -0.057 -0.025 0.788
H4 H -0.159 0.011 0.910
H5 H -0.196 0.122 1.051
H6 H -0.097 0.295 1.125
H7 H 0.040 0.354 1.061
H8 H 0.313 0.242 1.027
H9 H 0.232 0.143 0.997
H10 H 0.006 -0.150 0.692
H11 H 0.506 -0.313 0.945
H12 H 0.466 -0.361 1.100
H13 H 0.373 -0.199 1.179
H14 H 0.313 0.011 1.105
H15 H 0.306 0.487 0.966
H16 H 0.371 0.386 0.897
H17 H 0.298 0.713 0.886
H18 H 0.250 0.843 0.750
N1A N 0.2504(4) 0.3037(7) 0.5854(5)
N2A N 0.3814(4) 0.1763(7) 0.6725(5)
N3A N 0.3551(5) 0.1171(7) 0.8441(5)
C12A C 0.1574(5) 0.0929(10) 0.5723(7)
C20A C 0.4303(6) -0.1176(10) 0.9334(7)
C15A C 0.0362(6) -0.2417(11) 0.5216(8)
C19A C 0.1252(6) -0.0267(11) 0.5218(7)
C22A C 0.2234(5) 0.5123(10) 0.6754(7)
C23A C 0.2234(6) 0.6571(11) 0.6745(8)
C1A C 0.3361(6) 0.3434(10) 0.5611(8)
C11A C 0.2188(6) 0.1968(10) 0.5252(6)
C21A C 0.1936(6) 0.4235(10) 0.5940(6)
C2A C 0.4013(5) 0.2378(8) 0.5973(6)
C3A C 0.4392(6) 0.0847(9) 0.7133(5)
C13A C 0.4133(5) 0.0319(9) 0.8038(6)
C14A C 0.4503(5) -0.0842(9) 0.8436(6)
C16A C 0.0589(8) -0.2680(14) 0.4347(9)
H11A H -0.006 -0.313 0.555
C18A C 0.1454(6) -0.0579(12) 0.4304(6)
H17A H 0.202 0.713 0.614
H1A H 0.337 0.345 0.488
H2A H 0.352 0.447 0.588
H8A H 0.187 0.242 0.473
H9A H 0.268 0.143 0.503
H15A H 0.194 0.487 0.534
H16A H 0.129 0.386 0.603
C9A C 0.4780(5) 0.2121(9) 0.5553(6)
C4A C 0.5142(5) 0.0500(8) 0.6785(5)
H10A H 0.494 -0.150 0.808
C17A C 0.1113(8) -0.1769(14) 0.3892(8)
H12A H 0.034 -0.361 0.400
H14A H 0.187 0.011 0.395
C8A C 0.5027(6) 0.2781(9) 0.4730(6)
C10A C 0.5349(5) 0.1135(8) 0.5960(6)
H3A H 0.557 -0.025 0.712
H13A H 0.127 -0.199 0.321
C7A C 0.5789(6) 0.2448(10) 0.4368(7)
H7A H 0.460 0.354 0.439
C5A C 0.6149(5) 0.0847(9) 0.5572(7)
C6A C 0.6359(6) 0.1469(11) 0.4790(7)
H6A H 0.597 0.295 0.375
H4A H 0.659 0.011 0.590
H5A H 0.696 0.122 0.449
Cl1 Cl 0.9893(3) 0.5312(5) 0.7472(3)
Cl2 Cl 0.8443(3) 0.4238(4) 0.8385(2)
C25 C 0.8757(9) 0.5353(14) 0.7530(9)
loop_
_geom_bond_atom_site_label_1
_geom_bond_atom_site_label_2
_geom_bond_site_symmetry_1
_geom_bond_site_symmetry_2
Li1 N1 1_555 1_555
N1 C1 1_555 1_555
C1 C2 1_555 1_555
C2 N2 1_555 1_555
N2 Li1 1_555 1_555
C3 N2 1_555 1_555
C4 C3 1_555 1_555
C5 C6 1_555 1_555
C6 C7 1_555 1_555
C7 C8 1_555 1_555
C8 C9 1_555 1_555
C9 C2 1_555 1_555
C10 C4 1_555 1_555
C11 N1 1_555 1_555
C12 C11 1_555 1_555
N3 Li1 1_555 1_555
C13 C3 1_555 1_555
C14 C13 1_555 1_555
C15 C16 1_555 1_555
C16 C17 1_555 1_555
C17 C18 1_555 1_555
C18 C19 1_555 1_555
C19 C12 1_555 1_555
C20 C14 1_555 1_555
C21 N1 1_555 1_555
N4 Li1 1_555 1_555
C22 C21 1_555 1_555
C23 C22 1_555 1_555
C24 C23 1_555 1_555
Cl1 C25 1_555 1_555
Cl2 C25 1_555 1_555
H1 C1 1_555 1_555
H2 C1 1_555 1_555
H3 C4 1_555 1_555
H4 C5 1_555 1_555
H5 C6 1_555 1_555
H6 C7 1_555 1_555
H7 C8 1_555 1_555
H8 C11 1_555 1_555
H9 C11 1_555 1_555
H10 C14 1_555 1_555
H11 C15 1_555 1_555
H12 C16 1_555 1_555
H13 C17 1_555 1_555
H14 C18 1_555 1_555
H15 C21 1_555 1_555
H16 C21 1_555 1_555
H17 C23 1_555 1_555
H18 C24 1_555 1_555
N1A Li1 1_555 1_555
N2A Li1 1_555 1_555
N3A Li1 1_555 1_555
C12A N3 1_555 1_555
C20A C15 1_555 1_555
C15A C20 1_555 1_555
C19A C20 1_555 1_555
C22A N4 1_555 1_555
C23A C24 1_555 1_555
C1A N1A 1_555 1_555
C11A N1A 1_555 1_555
C21A N1A 1_555 1_555
C2A N2A 1_555 1_555
C3A N2A 1_555 1_555
C13A N3A 1_555 1_555
C14A C20A 1_555 1_555
C16A C15A 1_555 1_555
H11A C15A 1_555 1_555
C18A C19A 1_555 1_555
H17A C23A 1_555 1_555
H1A C1A 1_555 1_555
H2A C1A 1_555 1_555
H8A C11A 1_555 1_555
H9A C11A 1_555 1_555
H15A C21A 1_555 1_555
H16A C21A 1_555 1_555
C9A C2A 1_555 1_555
C4A C3A 1_555 1_555
H10A C14A 1_555 1_555
C17A C16A 1_555 1_555
H12A C16A 1_555 1_555
H14A C18A 1_555 1_555
C8A C9A 1_555 1_555
C10A C9A 1_555 1_555
H3A C4A 1_555 1_555
H13A C17A 1_555 1_555
C7A C8A 1_555 1_555
H7A C8A 1_555 1_555
C5A C10A 1_555 1_555
C6A C7A 1_555 1_555
H6A C7A 1_555 1_555
H4A C5A 1_555 1_555
H5A C6A 1_555 1_555
C5 C10 1_555 1_555
C9 C10 1_555 1_555
C12 N3A 1_555 1_555
N3 C13 1_555 1_555
C19 C20A 1_555 1_555
N4 C22 1_555 1_555
C12A C11A 1_555 1_555
C12A C19A 1_555 1_555
C22A C21A 1_555 1_555
C22A C23A 1_555 1_555
C1A C2A 1_555 1_555
C3A C13A 1_555 1_555
C13A C14A 1_555 1_555
C18A C17A 1_555 1_555
C4A C10A 1_555 1_555
C5A C6A 1_555 1_555

#END
