
#######################################################################
#
#                 Cambridge Crystallographic Data Centre
#                                CCDC 
#
#######################################################################
#
# If this CIF has been generated from an entry in the Cambridge 
# Structural Database, then it will include bibliographic, chemical, 
# crystal, experimental, refinement or atomic coordinate data resulting 
# from the CCDC's data processing and validation procedures.
#
#######################################################################

data_SOLMAH
_chemical_formula_moiety         'C26 H24 Li1 N6 1+,Br1 1-'
_chemical_name_systematic        
"(N,N'-(2,2'-Bipyridine-6,6'-dimethyl)-N,N'-(pyridine-2,6-dimethyl)-pyridine-2,6-bis(methylamine))-lithium bromide"
_symmetry_cell_setting           monoclinic
_symmetry_space_group_name_H-M   'P 21/m'
_symmetry_Int_Tables_number      11
_space_group_name_Hall           '-P 2yb'
loop_
_symmetry_equiv_pos_site_id
_symmetry_equiv_pos_as_xyz
1 x,y,z
2 -x,1/2+y,-z
3 -x,-y,-z
4 x,1/2-y,z
_cell_length_a                   8.263(4)
_cell_length_b                   18.750(8)
_cell_length_c                   7.377(4)
_cell_angle_alpha                90
_cell_angle_beta                 94.03(2)
_cell_angle_gamma                90
_cell_volume                     1140.1
_cell_formula_units_Z            2
loop_
_atom_site_label
_atom_site_type_symbol
_atom_site_fract_x
_atom_site_fract_y
_atom_site_fract_z
Br1 Br 0.0000 0.0000 0.0000
Li1 Li -0.2545(8) 0.2500 0.5509(8)
N1 N -0.1845(3) 0.1278(1) 0.4820(3)
C1 C -0.2600(5) 0.0774(2) 0.6025(5)
N2 N -0.4187(3) 0.1801(1) 0.6856(3)
C2 C -0.4047(4) 0.1093(2) 0.6864(4)
C3 C -0.5138(6) 0.0657(2) 0.7711(5)
C4 C -0.6383(6) 0.0975(3) 0.8573(6)
C5 C -0.6507(4) 0.1697(3) 0.8593(5)
C6 C -0.5394(3) 0.2109(2) 0.7719(4)
C7 C -0.0095(4) 0.1203(2) 0.4864(5)
N3 N 0.0053(3) 0.2500 0.4899(4)
C8 C 0.0769(3) 0.1883(2) 0.4446(3)
C9 C 0.2236(4) 0.1872(2) 0.3642(4)
C10 C 0.2996(5) 0.2500 0.3277(6)
C11 C -0.2659(4) 0.1232(1) 0.2966(4)
N4 N -0.2770(3) 0.2500 0.2620(4)
C12 C -0.2310(3) 0.1884(1) 0.1883(3)
C13 C -0.1465(3) 0.1865(1) 0.0326(3)
C14 C -0.1056(5) 0.2500 -0.0472(5)
H1 H -0.285 0.029 0.539
H2 H -0.179 0.065 0.689
H3 H -0.505 0.015 0.760
H4 H -0.706 0.072 0.911
H5 H -0.734 0.197 0.910
H6 H 0.013 0.086 0.410
H7 H 0.030 0.098 0.629
H8 H 0.269 0.143 0.345
H9 H 0.409 0.250 0.285
H10 H -0.359 0.118 0.306
H11 H -0.233 0.082 0.247
H12 H -0.115 0.142 -0.012
H13 H -0.021 0.250 -0.151
N1C N -0.1845(3) 0.3722(1) 0.4820(3)
N2C N -0.4187(3) 0.3199(1) 0.6856(3)
C6C C -0.5394(3) 0.2891(2) 0.7719(4)
C8C C 0.0769(3) 0.3117(2) 0.4446(3)
C9C C 0.2236(4) 0.3128(2) 0.3642(4)
C12C C -0.2310(3) 0.3116(1) 0.1883(3)
C13C C -0.1465(3) 0.3135(1) 0.0326(3)
C1C C -0.2600(5) 0.4226(2) 0.6025(5)
C7C C -0.0095(4) 0.3797(2) 0.4864(5)
C11C C -0.2659(4) 0.3768(1) 0.2966(4)
C2C C -0.4047(4) 0.3907(2) 0.6864(4)
C5C C -0.6507(4) 0.3303(3) 0.8593(5)
H8C H 0.269 0.357 0.345
H12C H -0.115 0.358 -0.012
H1C H -0.285 0.471 0.539
H2C H -0.179 0.435 0.689
H6C H 0.013 0.414 0.410
H7C H 0.030 0.402 0.629
H10C H -0.359 0.382 0.306
H11C H -0.233 0.418 0.247
C3C C -0.5138(6) 0.4343(2) 0.7711(5)
C4C C -0.6383(6) 0.4025(3) 0.8573(6)
H5C H -0.734 0.303 0.910
H3C H -0.505 0.485 0.760
H4C H -0.706 0.428 0.911
loop_
_geom_bond_atom_site_label_1
_geom_bond_atom_site_label_2
_geom_bond_site_symmetry_1
_geom_bond_site_symmetry_2
Li1 N1 1_555 1_555
N1 C1 1_555 1_555
C1 C2 1_555 1_555
N2 Li1 1_555 1_555
C2 N2 1_555 1_555
C3 C2 1_555 1_555
C4 C3 1_555 1_555
C5 C4 1_555 1_555
C6 N2 1_555 1_555
C7 N1 1_555 1_555
N3 Li1 1_555 1_555
C8 C7 1_555 1_555
C9 C8 1_555 1_555
C10 C9 1_555 1_555
C11 N1 1_555 1_555
N4 Li1 1_555 1_555
C12 C11 1_555 1_555
C13 C12 1_555 1_555
C14 C13 1_555 1_555
H1 C1 1_555 1_555
H2 C1 1_555 1_555
H3 C3 1_555 1_555
H4 C4 1_555 1_555
H5 C5 1_555 1_555
H6 C7 1_555 1_555
H7 C7 1_555 1_555
H8 C9 1_555 1_555
H9 C10 1_555 1_555
H10 C11 1_555 1_555
H11 C11 1_555 1_555
H12 C13 1_555 1_555
H13 C14 1_555 1_555
N1C Li1 1_555 1_555
N2C Li1 1_555 1_555
C6C C6 1_555 1_555
C8C N3 1_555 1_555
C9C C10 1_555 1_555
C12C N4 1_555 1_555
C13C C14 1_555 1_555
C1C N1C 1_555 1_555
C7C N1C 1_555 1_555
C11C N1C 1_555 1_555
C2C N2C 1_555 1_555
C5C C6C 1_555 1_555
H8C C9C 1_555 1_555
H12C C13C 1_555 1_555
H1C C1C 1_555 1_555
H2C C1C 1_555 1_555
H6C C7C 1_555 1_555
H7C C7C 1_555 1_555
H10C C11C 1_555 1_555
H11C C11C 1_555 1_555
C3C C2C 1_555 1_555
C4C C5C 1_555 1_555
H5C C5C 1_555 1_555
H3C C3C 1_555 1_555
H4C C4C 1_555 1_555
C5 C6 1_555 1_555
N3 C8 1_555 1_555
N4 C12 1_555 1_555
N2C C6C 1_555 1_555
C8C C7C 1_555 1_555
C8C C9C 1_555 1_555
C12C C11C 1_555 1_555
C12C C13C 1_555 1_555
C1C C2C 1_555 1_555
C3C C4C 1_555 1_555

#END
