
#######################################################################
#
#                 Cambridge Crystallographic Data Centre
#                                CCDC 
#
#######################################################################
#
# If this CIF has been generated from an entry in the Cambridge 
# Structural Database, then it will include bibliographic, chemical, 
# crystal, experimental, refinement or atomic coordinate data resulting 
# from the CCDC's data processing and validation procedures.
#
#######################################################################

data_SOLPOZ
_chemical_formula_moiety         'C20 H25 N3 O3'
_chemical_name_systematic        
N-Cyclohexyl-3-(4-hydroxy-6-oxo-1,6-dihydropyrimidin-5-yl)-3-p-tolylpropanamide
_symmetry_cell_setting           monoclinic
_symmetry_space_group_name_H-M   'P 21/n'
_symmetry_Int_Tables_number      14
_space_group_name_Hall           '-P 2yn'
loop_
_symmetry_equiv_pos_site_id
_symmetry_equiv_pos_as_xyz
1 x,y,z
2 1/2-x,1/2+y,1/2-z
3 -x,-y,-z
4 1/2+x,1/2-y,1/2+z
_cell_length_a                   7.1563(12)
_cell_length_b                   19.637(2)
_cell_length_c                   13.2746(18)
_cell_angle_alpha                90
_cell_angle_beta                 101.740(2)
_cell_angle_gamma                90
_cell_volume                     1826.43
_exptl_crystal_colour            colorless
_exptl_crystal_description       block
_chemical_melting_point          '534-536 K'
_cell_formula_units_Z            4
_exptl_crystal_recrystallization_method ethanol
loop_
_atom_site_label
_atom_site_type_symbol
_atom_site_fract_x
_atom_site_fract_y
_atom_site_fract_z
N1 N 1.2782(3) 1.00038(10) 0.76292(14)
H1 H 1.3786 0.9909 0.7394
N2 N 1.1340(3) 0.99789(9) 0.90587(13)
N3 N 0.7956(3) 0.91122(9) 0.59665(13)
H2 H 0.8514 0.9251 0.5488
O1 O 0.8327(2) 1.04303(8) 0.89288(11)
H3 H 0.8598 1.0297 0.9526
O2 O 1.1335(2) 1.04358(9) 0.60752(11)
O3 O 0.5892(2) 0.93937(8) 0.69802(11)
C1 C 1.2753(3) 0.98462(12) 0.86043(17)
H4 H 1.3815 0.9626 0.8987
C2 C 0.9778(3) 1.02944(11) 0.84599(16)
C3 C 0.9650(3) 1.04690(10) 0.74467(15)
C4 C 1.1234(3) 1.03189(11) 0.69730(17)
C5 C 0.6857(3) 0.95565(11) 0.63376(16)
C6 C 0.6872(3) 1.02749(11) 0.59477(16)
H5 H 0.5572 1.0422 0.5679
H6 H 0.7563 1.0291 0.5391
C7 C 0.7820(3) 1.07626(11) 0.68124(15)
H7 H 0.6931 1.0795 0.7283
C8 C 0.8005(3) 1.14835(11) 0.64204(16)
C9 C 0.6815(3) 1.17248(12) 0.55327(17)
H8 H 0.6022 1.1421 0.5108
C10 C 0.6781(3) 1.24068(12) 0.52658(18)
H9 H 0.5952 1.2553 0.4672
C11 C 0.7955(4) 1.28759(12) 0.58638(19)
C12 C 0.9218(4) 1.26311(12) 0.67173(19)
H10 H 1.0068 1.2931 0.7115
C13 C 0.9251(3) 1.19530(12) 0.69940(17)
H11 H 1.0118 1.1806 0.7573
C14 C 0.7807(4) 1.36269(12) 0.5595(2)
H12 H 0.8643 1.3731 0.5135
H13 H 0.8168 1.3892 0.6212
H14 H 0.6517 1.3734 0.5269
C15 C 0.8280(3) 0.84081(11) 0.63122(17)
H15 H 0.7200 0.8266 0.6614
C16 C 1.0092(4) 0.83383(13) 0.71338(18)
H16 H 0.9999 0.8627 0.7714
H17 H 1.1174 0.8492 0.6857
C17 C 1.0429(4) 0.76056(13) 0.75025(19)
H18 H 1.1649 0.7576 0.7979
H19 H 0.9442 0.7473 0.7868
C18 C 1.0418(4) 0.71171(14) 0.6614(2)
H20 H 1.1538 0.7198 0.6324
H21 H 1.0483 0.6653 0.6869
C19 C 0.8642(4) 0.72005(12) 0.5780(2)
H22 H 0.7536 0.7057 0.6043
H23 H 0.8738 0.6910 0.5202
C20 C 0.8367(4) 0.79365(12) 0.54125(18)
H24 H 0.9418 0.8070 0.5095
H25 H 0.7195 0.7975 0.4900
loop_
_geom_bond_atom_site_label_1
_geom_bond_atom_site_label_2
_geom_bond_site_symmetry_1
_geom_bond_site_symmetry_2
N1 H1 1_555 1_555
N2 C1 1_555 1_555
N3 H2 1_555 1_555
O1 H3 1_555 1_555
O2 C4 1_555 1_555
O3 C5 1_555 1_555
C1 N1 1_555 1_555
H4 C1 1_555 1_555
C2 N2 1_555 1_555
C3 C2 1_555 1_555
C4 N1 1_555 1_555
C5 N3 1_555 1_555
C6 C5 1_555 1_555
H5 C6 1_555 1_555
H6 C6 1_555 1_555
C7 C3 1_555 1_555
H7 C7 1_555 1_555
C8 C7 1_555 1_555
C9 C8 1_555 1_555
H8 C9 1_555 1_555
C10 C9 1_555 1_555
H9 C10 1_555 1_555
C11 C10 1_555 1_555
C12 C11 1_555 1_555
H10 C12 1_555 1_555
C13 C8 1_555 1_555
H11 C13 1_555 1_555
C14 C11 1_555 1_555
H12 C14 1_555 1_555
H13 C14 1_555 1_555
H14 C14 1_555 1_555
C15 N3 1_555 1_555
H15 C15 1_555 1_555
C16 C15 1_555 1_555
H16 C16 1_555 1_555
H17 C16 1_555 1_555
C17 C16 1_555 1_555
H18 C17 1_555 1_555
H19 C17 1_555 1_555
C18 C17 1_555 1_555
H20 C18 1_555 1_555
H21 C18 1_555 1_555
C19 C18 1_555 1_555
H22 C19 1_555 1_555
H23 C19 1_555 1_555
C20 C15 1_555 1_555
H24 C20 1_555 1_555
H25 C20 1_555 1_555
O1 C2 1_555 1_555
C3 C4 1_555 1_555
C6 C7 1_555 1_555
C12 C13 1_555 1_555
C19 C20 1_555 1_555

#END
