
#######################################################################
#
#                 Cambridge Crystallographic Data Centre
#                                CCDC 
#
#######################################################################
#
# If this CIF has been generated from an entry in the Cambridge 
# Structural Database, then it will include bibliographic, chemical, 
# crystal, experimental, refinement or atomic coordinate data resulting 
# from the CCDC's data processing and validation procedures.
#
#######################################################################

data_SOLROB
_chemical_formula_moiety         'C20 H24 N2 O4'
_chemical_name_systematic        "Dibutyl 2,2'-bipyridine-4,4'-dicarboxylate"
_symmetry_cell_setting           monoclinic
_symmetry_space_group_name_H-M   'P 21/c'
_symmetry_Int_Tables_number      14
_space_group_name_Hall           '-P 2ybc'
loop_
_symmetry_equiv_pos_site_id
_symmetry_equiv_pos_as_xyz
1 x,y,z
2 -x,1/2+y,1/2-z
3 -x,-y,-z
4 x,1/2-y,1/2+z
_cell_length_a                   7.4183(9)
_cell_length_b                   8.2829(10)
_cell_length_c                   15.375(2)
_cell_angle_alpha                90
_cell_angle_beta                 93.2730(10)
_cell_angle_gamma                90
_cell_volume                     943.176
_exptl_crystal_colour            colorless
_exptl_crystal_description       block
_chemical_melting_point          '435 K'
_cell_formula_units_Z            2
_exptl_crystal_recrystallization_method dichloromethane
loop_
_atom_site_label
_atom_site_type_symbol
_atom_site_fract_x
_atom_site_fract_y
_atom_site_fract_z
N1 N 0.8610(2) 0.42720(18) -0.09153(9)
O1 O 0.38773(17) 0.20544(16) 0.09033(7)
O2 O 0.57083(19) 0.32666(19) 0.19126(8)
C1 C 0.5333(2) 0.2904(2) 0.11660(11)
C2 C 0.9120(2) 0.45867(19) -0.00815(10)
C3 C 0.8062(2) 0.4163(2) 0.06010(10)
H1 H 0.8437 0.4419 0.1172
C4 C 0.6451(2) 0.3358(2) 0.04254(10)
C5 C 0.5929(2) 0.3018(2) -0.04371(11)
H2 H 0.4857 0.2474 -0.0581
C6 C 0.7040(3) 0.3510(2) -0.10735(11)
H3 H 0.6674 0.3297 -0.1651
C7 C 0.2671(3) 0.1586(3) 0.15756(12)
H4 H 0.2245 0.2538 0.1869
H5 H 0.3307 0.0905 0.2005
C8 C 0.1112(2) 0.0691(2) 0.11506(11)
H6 H 0.1554 -0.0272 0.0873
H7 H 0.0530 0.1364 0.0701
C9 C -0.0258(3) 0.0211(3) 0.17920(13)
H8 H -0.0695 0.1177 0.2067
H9 H 0.0335 -0.0451 0.2244
C10 C -0.1854(3) -0.0711(3) 0.13862(14)
H10 H -0.2392 -0.0103 0.0907
H11 H -0.2729 -0.0876 0.1814
H12 H -0.1455 -0.1737 0.1180
N1B N 1.1390(2) 0.57280(18) 0.09153(9)
O1B O 1.61227(17) 0.79456(16) -0.09033(7)
O2B O 1.42917(19) 0.67334(19) -0.19126(8)
C1B C 1.4667(2) 0.7096(2) -0.11660(11)
C2B C 1.0880(2) 0.54133(19) 0.00815(10)
C3B C 1.1938(2) 0.5837(2) -0.06010(10)
H1B H 1.1563 0.5581 -0.1172
C4B C 1.3549(2) 0.6642(2) -0.04254(10)
C5B C 1.4071(2) 0.6982(2) 0.04371(11)
H2B H 1.5143 0.7526 0.0581
C6B C 1.2960(3) 0.6490(2) 0.10735(11)
H3B H 1.3326 0.6703 0.1651
C7B C 1.7329(3) 0.8414(3) -0.15756(12)
H4B H 1.7755 0.7462 -0.1869
H5B H 1.6693 0.9095 -0.2005
C8B C 1.8888(2) 0.9309(2) -0.11506(11)
H6B H 1.8446 1.0272 -0.0873
H7B H 1.9470 0.8636 -0.0701
C9B C 2.0258(3) 0.9789(3) -0.17920(13)
H8B H 2.0695 0.8823 -0.2067
H9B H 1.9665 1.0451 -0.2244
C10B C 2.1854(3) 1.0711(3) -0.13862(14)
H10B H 2.2392 1.0103 -0.0907
H11B H 2.2729 1.0876 -0.1814
H12B H 2.1455 1.1737 -0.1180
loop_
_geom_bond_atom_site_label_1
_geom_bond_atom_site_label_2
_geom_bond_site_symmetry_1
_geom_bond_site_symmetry_2
N1 C2 1_555 1_555
O1 C1 1_555 1_555
O2 C1 1_555 1_555
C1 C4 1_555 1_555
C2 C3 1_555 1_555
C3 H1 1_555 1_555
C4 C3 1_555 1_555
C5 C4 1_555 1_555
H2 C5 1_555 1_555
C6 N1 1_555 1_555
H3 C6 1_555 1_555
C7 O1 1_555 1_555
H4 C7 1_555 1_555
H5 C7 1_555 1_555
C8 C7 1_555 1_555
H6 C8 1_555 1_555
H7 C8 1_555 1_555
C9 C8 1_555 1_555
H8 C9 1_555 1_555
H9 C9 1_555 1_555
C10 C9 1_555 1_555
H10 C10 1_555 1_555
H11 C10 1_555 1_555
H12 C10 1_555 1_555
N1B C2B 1_555 1_555
O1B C1B 1_555 1_555
O2B C1B 1_555 1_555
C1B C4B 1_555 1_555
C2B C2 1_555 1_555
C3B C2B 1_555 1_555
H1B C3B 1_555 1_555
C4B C3B 1_555 1_555
C5B C4B 1_555 1_555
H2B C5B 1_555 1_555
C6B N1B 1_555 1_555
H3B C6B 1_555 1_555
C7B O1B 1_555 1_555
H4B C7B 1_555 1_555
H5B C7B 1_555 1_555
C8B C7B 1_555 1_555
H6B C8B 1_555 1_555
H7B C8B 1_555 1_555
C9B C8B 1_555 1_555
H8B C9B 1_555 1_555
H9B C9B 1_555 1_555
C10B C9B 1_555 1_555
H10B C10B 1_555 1_555
H11B C10B 1_555 1_555
H12B C10B 1_555 1_555
C5 C6 1_555 1_555
C5B C6B 1_555 1_555

#END
