
#######################################################################
#
#                 Cambridge Crystallographic Data Centre
#                                CCDC 
#
#######################################################################
#
# If this CIF has been generated from an entry in the Cambridge 
# Structural Database, then it will include bibliographic, chemical, 
# crystal, experimental, refinement or atomic coordinate data resulting 
# from the CCDC's data processing and validation procedures.
#
#######################################################################

data_SOLSUJ
_chemical_formula_moiety         'C29 H20 B1 F2 N3 O3'
_chemical_name_systematic        
(2-ethyl-6-(4-((1H-pyrrol-2-yl)(2H-pyrrol-2-ylidene)methyl)phenoxy)-1H-benzo[de]isoquinoline-1,3(2H)-dionato)(difluoro)borate
_symmetry_cell_setting           orthorhombic
_symmetry_space_group_name_H-M   'P b c a'
_symmetry_Int_Tables_number      61
_space_group_name_Hall           '-P 2ac 2ab'
loop_
_symmetry_equiv_pos_site_id
_symmetry_equiv_pos_as_xyz
1 x,y,z
2 1/2+x,1/2-y,-z
3 -x,1/2+y,1/2-z
4 1/2-x,-y,1/2+z
5 -x,-y,-z
6 1/2-x,1/2+y,z
7 x,1/2-y,1/2+z
8 1/2+x,y,1/2-z
_cell_length_a                   12.567(3)
_cell_length_b                   15.792(3)
_cell_length_c                   23.858(5)
_cell_angle_alpha                90
_cell_angle_beta                 90
_cell_angle_gamma                90
_cell_volume                     4734.81
_cell_formula_units_Z            8
loop_
_atom_site_label
_atom_site_type_symbol
_atom_site_fract_x
_atom_site_fract_y
_atom_site_fract_z
N1 N 0.05482(12) 0.19920(9) 0.56147(6)
C1 C 0.08463(13) -0.06769(10) 0.56942(6)
C2 C 0.07331(12) 0.02146(10) 0.56648(6)
O1 O 0.03954(11) -0.19648(8) 0.61178(6)
N2 N -0.24384(12) -0.57641(9) 0.74774(6)
C3 C 0.02722(14) -0.11059(10) 0.61204(7)
C4 C 0.00676(13) 0.06428(10) 0.60459(7)
O2 O 0.17721(12) 0.20294(9) 0.49193(6)
C5 C 0.12985(13) 0.06687(11) 0.52512(6)
O3 O -0.06779(12) 0.19506(8) 0.63091(6)
C6 C -0.00694(14) 0.15609(11) 0.60082(7)
C7 C 0.19397(14) 0.02498(12) 0.48796(7)
H1 H 0.2306 0.0552 0.4606
C8 C -0.18383(13) -0.43064(10) 0.74446(7)
C9 C -0.19066(13) -0.51104(10) 0.72065(7)
C10 C -0.03449(15) -0.06812(11) 0.64966(8)
H2 H -0.0693 -0.0975 0.6780
C11 C -0.12895(13) -0.36316(10) 0.71273(7)
C12 C 0.12338(14) 0.16042(11) 0.52387(7)
C13 C -0.22887(14) -0.41489(11) 0.79687(7)
N3 N -0.28311(12) -0.47863(10) 0.82528(6)
C14 C 0.15191(14) -0.10826(12) 0.53089(7)
H3 H 0.1605 -0.1667 0.5326
C15 C 0.20473(15) -0.06309(12) 0.49096(7)
H4 H 0.2483 -0.0911 0.4655
C16 C -0.02142(15) -0.24642(10) 0.64802(8)
F1 F -0.26514(15) -0.62843(8) 0.84094(5)
C17 C -0.16284(15) -0.34439(11) 0.65851(7)
H5 H -0.2222 -0.3717 0.6439
C18 C -0.04527(14) 0.01956(11) 0.64556(7)
H6 H -0.0884 0.0481 0.6710
C19 C -0.23367(16) -0.64566(12) 0.71614(9)
H7 H -0.2622 -0.6983 0.7250
C20 C 0.01140(15) -0.26105(12) 0.70198(8)
H8 H 0.0696 -0.2321 0.7165
C21 C 0.05134(17) 0.29301(12) 0.56238(9)
H9 H 0.1205 0.3150 0.5517
H10 H 0.0364 0.3120 0.6002
C22 C -0.23654(16) -0.34079(12) 0.82909(7)
H11 H -0.2079 -0.2882 0.8202
C23 C -0.04268(15) -0.31906(11) 0.73445(7)
H12 H -0.0212 -0.3287 0.7712
C24 C -0.32169(17) -0.44475(15) 0.87243(8)
H13 H -0.3615 -0.4740 0.8990
C25 C -0.14736(16) -0.54478(12) 0.67093(8)
H14 H -0.1072 -0.5154 0.6446
C26 C -0.10931(15) -0.28579(11) 0.62643(8)
H15 H -0.1327 -0.2731 0.5904
F2 F -0.40977(11) -0.58191(13) 0.79519(7)
C27 C -0.29427(17) -0.36035(15) 0.87622(8)
H16 H -0.3116 -0.3236 0.9053
C28 C -0.17499(17) -0.62847(12) 0.66847(9)
H17 H -0.1576 -0.6665 0.6402
C29 C -0.0314(2) 0.32771(15) 0.52356(10)
H18 H -0.0309 0.3884 0.5253
H19 H -0.1002 0.3071 0.5345
H20 H -0.0163 0.3098 0.4859
B1 B -0.3036(2) -0.56956(16) 0.80369(9)
loop_
_geom_bond_atom_site_label_1
_geom_bond_atom_site_label_2
_geom_bond_site_symmetry_1
_geom_bond_site_symmetry_2
N1 C6 1_555 1_555
C1 C2 1_555 1_555
C2 C4 1_555 1_555
O1 C3 1_555 1_555
N2 C9 1_555 1_555
C3 C1 1_555 1_555
C4 C6 1_555 1_555
O2 C12 1_555 1_555
C5 C2 1_555 1_555
O3 C6 1_555 1_555
C7 C5 1_555 1_555
H1 C7 1_555 1_555
C8 C9 1_555 1_555
C9 C25 1_555 1_555
C10 C3 1_555 1_555
H2 C10 1_555 1_555
C11 C8 1_555 1_555
C12 N1 1_555 1_555
C13 C8 1_555 1_555
N3 C13 1_555 1_555
C14 C1 1_555 1_555
H3 C14 1_555 1_555
C15 C7 1_555 1_555
H4 C15 1_555 1_555
C16 O1 1_555 1_555
F1 B1 1_555 1_555
C17 C11 1_555 1_555
H5 C17 1_555 1_555
C18 C4 1_555 1_555
H6 C18 1_555 1_555
C19 N2 1_555 1_555
H7 C19 1_555 1_555
C20 C16 1_555 1_555
H8 C20 1_555 1_555
C21 N1 1_555 1_555
H9 C21 1_555 1_555
H10 C21 1_555 1_555
C22 C13 1_555 1_555
H11 C22 1_555 1_555
C23 C11 1_555 1_555
H12 C23 1_555 1_555
C24 N3 1_555 1_555
H13 C24 1_555 1_555
C25 H14 1_555 1_555
C26 C16 1_555 1_555
H15 C26 1_555 1_555
F2 B1 1_555 1_555
C27 C22 1_555 1_555
H16 C27 1_555 1_555
C28 C19 1_555 1_555
H17 C28 1_555 1_555
C29 C21 1_555 1_555
H18 C29 1_555 1_555
H19 C29 1_555 1_555
H20 C29 1_555 1_555
B1 N2 1_555 1_555
C5 C12 1_555 1_555
C10 C18 1_555 1_555
N3 B1 1_555 1_555
C14 C15 1_555 1_555
C17 C26 1_555 1_555
C20 C23 1_555 1_555
C24 C27 1_555 1_555
C25 C28 1_555 1_555

#END
