
#######################################################################
#
#                 Cambridge Crystallographic Data Centre
#                                CCDC 
#
#######################################################################
#
# If this CIF has been generated from an entry in the Cambridge 
# Structural Database, then it will include bibliographic, chemical, 
# crystal, experimental, refinement or atomic coordinate data resulting 
# from the CCDC's data processing and validation procedures.
#
#######################################################################

data_SOLWEW01
_chemical_formula_moiety         'C11 H10 N4'
_chemical_name_systematic        N,N'-bis(2-Pyridyl)formamidine
_symmetry_cell_setting           monoclinic
_symmetry_space_group_name_H-M   'P 2/n'
_symmetry_Int_Tables_number      13
_space_group_name_Hall           '-P 2yac'
loop_
_symmetry_equiv_pos_site_id
_symmetry_equiv_pos_as_xyz
1 x,y,z
2 1/2-x,y,1/2-z
3 -x,-y,-z
4 1/2+x,-y,1/2+z
_cell_length_a                   10.9881(19)
_cell_length_b                   4.3351(7)
_cell_length_c                   20.561(4)
_cell_angle_alpha                90
_cell_angle_beta                 98.561(3)
_cell_angle_gamma                90
_cell_volume                     968.501
_exptl_crystal_colour            colorless
_exptl_crystal_description       block
_cell_formula_units_Z            4
_exptl_crystal_recrystallization_method acetone
loop_
_atom_site_label
_atom_site_type_symbol
_atom_site_fract_x
_atom_site_fract_y
_atom_site_fract_z
N1 N 0.21824(9) -0.0867(2) 0.39925(5)
N2 N 0.08838(9) 0.2169(2) 0.45294(5)
H1 H 0.0160(13) 0.287(3) 0.4526(6)
N3 N 0.16555(8) 0.5298(2) 0.54018(5)
N4 N 0.26050(9) 0.7000(2) 0.64219(5)
C1 C 0.23093(12) -0.2904(3) 0.35164(6)
H2 H 0.3146(13) -0.357(3) 0.3482(6)
C2 C 0.13487(12) -0.4103(3) 0.30884(6)
H3 H 0.1504(11) -0.559(3) 0.2748(6)
C3 C 0.01654(12) -0.3168(3) 0.31564(6)
H4 H -0.0545(13) -0.389(3) 0.2875(7)
C4 C 0.00016(11) -0.1087(3) 0.36371(6)
H5 H -0.0764(12) -0.036(3) 0.3689(6)
C5 C 0.10351(10) 0.0017(2) 0.40434(5)
C6 C 0.18197(11) 0.3301(2) 0.49616(6)
H6 H 0.2607(10) 0.243(2) 0.4911(5)
C7 C 0.27268(10) 0.6418(2) 0.57957(6)
C8 C 0.38148(11) 0.7037(3) 0.55424(6)
H7 H 0.3825(10) 0.676(3) 0.5082(6)
C9 C 0.48061(12) 0.8221(3) 0.59573(7)
H8 H 0.5544(12) 0.871(3) 0.5782(6)
C10 C 0.46936(12) 0.8790(3) 0.66039(7)
H9 H 0.5354(12) 0.957(3) 0.6906(6)
C11 C 0.35859(12) 0.8164(3) 0.68104(7)
H10 H 0.3469(12) 0.853(3) 0.7276(7)
loop_
_geom_bond_atom_site_label_1
_geom_bond_atom_site_label_2
_geom_bond_site_symmetry_1
_geom_bond_site_symmetry_2
N1 C1 1_555 1_555
N2 H1 1_555 1_555
N3 C6 1_555 1_555
N4 C7 1_555 1_555
C1 H2 1_555 1_555
C2 C1 1_555 1_555
H3 C2 1_555 1_555
C3 C2 1_555 1_555
H4 C3 1_555 1_555
C4 C3 1_555 1_555
H5 C4 1_555 1_555
C5 N1 1_555 1_555
C6 N2 1_555 1_555
H6 C6 1_555 1_555
C7 N3 1_555 1_555
C8 C7 1_555 1_555
H7 C8 1_555 1_555
C9 C8 1_555 1_555
H8 C9 1_555 1_555
C10 C9 1_555 1_555
H9 C10 1_555 1_555
C11 N4 1_555 1_555
H10 C11 1_555 1_555
N2 C5 1_555 1_555
C4 C5 1_555 1_555
C10 C11 1_555 1_555

#END
