
#######################################################################
#
#                 Cambridge Crystallographic Data Centre
#                                CCDC 
#
#######################################################################
#
# If this CIF has been generated from an entry in the Cambridge 
# Structural Database, then it will include bibliographic, chemical, 
# crystal, experimental, refinement or atomic coordinate data resulting 
# from the CCDC's data processing and validation procedures.
#
#######################################################################

data_SOLYUO
_chemical_formula_moiety         'C21 H24 Br2 N2 O3'
_chemical_name_systematic        
2-(6,8-Dibromo-3-(4-hydroxycyclohexyl)-1,2,3,4-tetrahydroquinazolin-2-yl)-6-methoxyphenol
_symmetry_cell_setting           triclinic
_symmetry_space_group_name_H-M   'P -1'
_symmetry_Int_Tables_number      2
_space_group_name_Hall           '-P 1'
loop_
_symmetry_equiv_pos_site_id
_symmetry_equiv_pos_as_xyz
1 x,y,z
2 -x,-y,-z
_cell_length_a                   8.695(2)
_cell_length_b                   11.124(3)
_cell_length_c                   12.090(2)
_cell_angle_alpha                73.870(3)
_cell_angle_beta                 78.226(3)
_cell_angle_gamma                67.031(2)
_cell_volume                     1028.22
_exptl_crystal_colour            colorless
_exptl_crystal_description       block
_cell_formula_units_Z            2
loop_
_atom_site_label
_atom_site_type_symbol
_atom_site_fract_x
_atom_site_fract_y
_atom_site_fract_z
Br1 Br 1.17738(5) 0.24247(4) 0.32321(4)
Br2 Br 1.28346(5) 0.54977(4) 0.58131(3)
O1 O 0.2331(3) 0.9422(3) 0.3052(2)
H1 H 0.1581 0.9883 0.2635
O2 O 0.9413(3) 0.8807(3) -0.1082(2)
H2 H 0.8961 0.8692 -0.0416
O3 O 1.1435(4) 0.9116(3) -0.2940(2)
N1 N 1.0518(4) 0.5182(3) 0.1542(2)
H3 H 1.0527 0.4432 0.1469
N2 N 0.9133(3) 0.7617(3) 0.1103(2)
C1 C 1.1053(4) 0.6460(3) 0.2638(3)
C2 C 1.1080(4) 0.5243(3) 0.2507(3)
C3 C 1.1674(4) 0.4110(3) 0.3381(3)
C4 C 1.2199(4) 0.4172(3) 0.4357(3)
H4 H 1.2586 0.3405 0.4931
C5 C 1.2143(4) 0.5386(4) 0.4468(3)
C6 C 1.1591(4) 0.6523(3) 0.3620(3)
H5 H 1.1576 0.7334 0.3702
C7 C 1.0414(4) 0.7698(3) 0.1692(3)
H6 H 0.9929 0.8481 0.2027
H7 H 1.1349 0.7799 0.1128
C8 C 0.7481(4) 0.7705(3) 0.1797(3)
H8 H 0.7560 0.6812 0.2263
C9 C 0.6954(4) 0.8659(4) 0.2601(3)
H9 H 0.6977 0.9525 0.2156
H10 H 0.7751 0.8324 0.3168
C10 C 0.5210(5) 0.8823(4) 0.3222(3)
H11 H 0.5213 0.7973 0.3722
H12 H 0.4908 0.9464 0.3705
C11 C 0.3920(4) 0.9293(3) 0.2392(3)
H13 H 0.3880 1.0175 0.1918
C12 C 0.4406(4) 0.8330(4) 0.1607(3)
H14 H 0.3600 0.8662 0.1045
H15 H 0.4380 0.7468 0.2062
C13 C 0.6155(4) 0.8160(4) 0.0976(3)
H16 H 0.6452 0.7509 0.0504
H17 H 0.6143 0.9006 0.0463
C14 C 0.9912(4) 0.6381(3) 0.0655(3)
H18 H 0.9030 0.6289 0.0329
C15 C 1.1251(4) 0.6565(4) -0.0355(3)
C16 C 1.0875(4) 0.7752(4) -0.1185(3)
C17 C 1.1986(5) 0.7917(4) -0.2178(3)
C18 C 1.3514(5) 0.6900(5) -0.2301(3)
H19 H 1.4274 0.7007 -0.2951
C19 C 1.3921(5) 0.5718(4) -0.1457(4)
H20 H 1.4954 0.5038 -0.1541
C20 C 1.2793(4) 0.5554(4) -0.0496(3)
H21 H 1.3068 0.4759 0.0063
C21 C 1.2282(7) 0.9219(5) -0.4076(3)
H22 H 1.3418 0.9132 -0.4048
H23 H 1.1715 1.0074 -0.4549
H24 H 1.2288 0.8521 -0.4400
loop_
_geom_bond_atom_site_label_1
_geom_bond_atom_site_label_2
_geom_bond_site_symmetry_1
_geom_bond_site_symmetry_2
Br1 C3 1_555 1_555
Br2 C5 1_555 1_555
O1 H1 1_555 1_555
O2 H2 1_555 1_555
O3 C17 1_555 1_555
N1 H3 1_555 1_555
N2 C7 1_555 1_555
C1 C2 1_555 1_555
C2 N1 1_555 1_555
C3 C2 1_555 1_555
C4 C3 1_555 1_555
H4 C4 1_555 1_555
C5 C4 1_555 1_555
C6 C1 1_555 1_555
H5 C6 1_555 1_555
C7 C1 1_555 1_555
H6 C7 1_555 1_555
H7 C7 1_555 1_555
C8 N2 1_555 1_555
H8 C8 1_555 1_555
C9 C8 1_555 1_555
H9 C9 1_555 1_555
H10 C9 1_555 1_555
C10 C9 1_555 1_555
H11 C10 1_555 1_555
H12 C10 1_555 1_555
C11 O1 1_555 1_555
H13 C11 1_555 1_555
C12 C11 1_555 1_555
H14 C12 1_555 1_555
H15 C12 1_555 1_555
C13 C8 1_555 1_555
H16 C13 1_555 1_555
H17 C13 1_555 1_555
C14 N1 1_555 1_555
H18 C14 1_555 1_555
C15 C14 1_555 1_555
C16 O2 1_555 1_555
C17 C16 1_555 1_555
C18 C17 1_555 1_555
H19 C18 1_555 1_555
C19 C18 1_555 1_555
H20 C19 1_555 1_555
C20 C15 1_555 1_555
H21 C20 1_555 1_555
C21 O3 1_555 1_555
H22 C21 1_555 1_555
H23 C21 1_555 1_555
H24 C21 1_555 1_555
N2 C14 1_555 1_555
C5 C6 1_555 1_555
C10 C11 1_555 1_555
C12 C13 1_555 1_555
C15 C16 1_555 1_555
C19 C20 1_555 1_555

#END
