
#######################################################################
#
#                 Cambridge Crystallographic Data Centre
#                                CCDC 
#
#######################################################################
#
# If this CIF has been generated from an entry in the Cambridge 
# Structural Database, then it will include bibliographic, chemical, 
# crystal, experimental, refinement or atomic coordinate data resulting 
# from the CCDC's data processing and validation procedures.
#
#######################################################################

data_SOLYAU
_chemical_formula_moiety         'C23 H20 N2'
_chemical_name_systematic        2-Methyl-3,5,6-triphenyl-2,3-dihydropyrazine
_symmetry_cell_setting           triclinic
_symmetry_space_group_name_H-M   'P -1'
_symmetry_Int_Tables_number      2
_space_group_name_Hall           '-P 1'
loop_
_symmetry_equiv_pos_site_id
_symmetry_equiv_pos_as_xyz
1 x,y,z
2 -x,-y,-z
_cell_length_a                   10.4406(10)
_cell_length_b                   10.5753(7)
_cell_length_c                   11.0810(13)
_cell_angle_alpha                93.439(8)
_cell_angle_beta                 114.161(10)
_cell_angle_gamma                118.343(9)
_cell_volume                     931.915
_exptl_crystal_colour            'pale yellow'
_exptl_crystal_description       prism
_chemical_melting_point          '460 K'
_cell_formula_units_Z            2
loop_
_atom_site_label
_atom_site_type_symbol
_atom_site_fract_x
_atom_site_fract_y
_atom_site_fract_z
N1 N 0.0780(2) 0.1850(2) -0.0471(2)
N2 N 0.39318(19) 0.25469(17) -0.01087(17)
C1 C 0.0900(3) 0.0714(2) -0.1158(3)
C2 C 0.2375(3) 0.1513(2) -0.1432(2)
C3 C 0.3812(2) 0.3247(2) 0.0777(2)
C4 C 0.2163(2) 0.3057(2) 0.0441(2)
C5 C -0.0774(3) -0.0383(3) -0.2471(3)
C6 C 0.2605(3) 0.0442(2) -0.2156(2)
C7 C 0.3089(3) -0.0438(3) -0.1466(3)
C8 C 0.3318(4) -0.1415(3) -0.2108(3)
C9 C 0.3090(4) -0.1517(3) -0.3418(3)
C10 C 0.2604(4) -0.0662(4) -0.4115(3)
C11 C 0.2364(3) 0.0324(3) -0.3491(3)
C12 C 0.5327(2) 0.4176(2) 0.2180(2)
C13 C 0.5222(3) 0.4188(3) 0.3387(3)
C14 C 0.6663(3) 0.4975(3) 0.4688(3)
C15 C 0.8218(3) 0.5780(3) 0.4792(3)
C16 C 0.8337(3) 0.5780(3) 0.3593(3)
C17 C 0.6909(2) 0.4972(2) 0.2294(2)
C18 C 0.2079(3) 0.4259(2) 0.1105(2)
C19 C 0.0694(3) 0.3844(3) 0.1264(3)
C20 C 0.0531(3) 0.4931(3) 0.1805(3)
C21 C 0.1712(4) 0.6439(3) 0.2153(3)
C22 C 0.3098(3) 0.6872(3) 0.1991(3)
C23 C 0.3283(3) 0.5782(3) 0.1468(3)
H1 H 0.11272 0.01451 -0.05249
H2 H 0.21696 0.21204 -0.20281
H3 H -0.16525 -0.07906 -0.22411
H4 H -0.07434 -0.11930 -0.28702
H5 H -0.09824 0.01403 -0.31308
H6 H 0.32603 -0.03712 -0.05663
H7 H 0.36313 -0.20078 -0.16377
H8 H 0.32629 -0.21646 -0.38372
H9 H 0.24329 -0.07406 -0.50159
H10 H 0.20407 0.09047 -0.39721
H11 H 0.41748 0.36626 0.33246
H12 H 0.65783 0.49590 0.54911
H13 H 0.91824 0.63205 0.56637
H14 H 0.93864 0.63279 0.36618
H15 H 0.70022 0.49594 0.14949
H16 H -0.01299 0.28242 0.10022
H17 H -0.03835 0.46414 0.19338
H18 H 0.15848 0.71699 0.24976
H19 H 0.39029 0.78941 0.22342
H20 H 0.42124 0.60729 0.13614
loop_
_geom_bond_atom_site_label_1
_geom_bond_atom_site_label_2
_geom_bond_site_symmetry_1
_geom_bond_site_symmetry_2
N1 C1 1_555 1_555
N2 C2 1_555 1_555
C1 C2 1_555 1_555
C2 C6 1_555 1_555
C3 N2 1_555 1_555
C4 N1 1_555 1_555
C5 C1 1_555 1_555
C6 C7 1_555 1_555
C7 C8 1_555 1_555
C8 C9 1_555 1_555
C9 C10 1_555 1_555
C10 C11 1_555 1_555
C11 C6 1_555 1_555
C12 C3 1_555 1_555
C13 C12 1_555 1_555
C14 C13 1_555 1_555
C15 C14 1_555 1_555
C16 C15 1_555 1_555
C17 C12 1_555 1_555
C18 C4 1_555 1_555
C19 C18 1_555 1_555
C20 C19 1_555 1_555
C21 C20 1_555 1_555
C22 C21 1_555 1_555
C23 C18 1_555 1_555
H1 C1 1_555 1_555
H2 C2 1_555 1_555
H3 C5 1_555 1_555
H4 C5 1_555 1_555
H5 C5 1_555 1_555
H6 C7 1_555 1_555
H7 C8 1_555 1_555
H8 C9 1_555 1_555
H9 C10 1_555 1_555
H10 C11 1_555 1_555
H11 C13 1_555 1_555
H12 C14 1_555 1_555
H13 C15 1_555 1_555
H14 C16 1_555 1_555
H15 C17 1_555 1_555
H16 C19 1_555 1_555
H17 C20 1_555 1_555
H18 C21 1_555 1_555
H19 C22 1_555 1_555
H20 C23 1_555 1_555
C3 C4 1_555 1_555
C16 C17 1_555 1_555
C22 C23 1_555 1_555

#END
