
#######################################################################
#
#                 Cambridge Crystallographic Data Centre
#                                CCDC 
#
#######################################################################
#
# If this CIF has been generated from an entry in the Cambridge 
# Structural Database, then it will include bibliographic, chemical, 
# crystal, experimental, refinement or atomic coordinate data resulting 
# from the CCDC's data processing and validation procedures.
#
#######################################################################

data_SOLYIC
_chemical_formula_moiety         'C1 H7 N4 1+,C4 H3 O4 1-'
_chemical_name_systematic        'Aminoguanidinium hydrogen fumarate'
_symmetry_cell_setting           monoclinic
_symmetry_space_group_name_H-M   'P 21/c'
_symmetry_Int_Tables_number      14
_space_group_name_Hall           '-P 2ybc'
loop_
_symmetry_equiv_pos_site_id
_symmetry_equiv_pos_as_xyz
1 x,y,z
2 -x,1/2+y,1/2-z
3 -x,-y,-z
4 x,1/2-y,1/2+z
_cell_length_a                   6.3869(3)
_cell_length_b                   19.8731(10)
_cell_length_c                   7.0482(4)
_cell_angle_alpha                90
_cell_angle_beta                 114.688(3)
_cell_angle_gamma                90
_cell_volume                     812.839
_exptl_crystal_colour            colorless
_exptl_crystal_description       Block
_cell_formula_units_Z            4
loop_
_atom_site_label
_atom_site_type_symbol
_atom_site_fract_x
_atom_site_fract_y
_atom_site_fract_z
H1 H 0.243(3) 0.4484(12) 0.254(3)
H2 H 0.573(3) 0.3932(11) 0.302(3)
H3 H 0.861(4) 0.3941(12) 0.204(3)
H4 H 0.521(3) 0.5783(9) 0.214(3)
H5 H 0.747(4) 0.5370(10) 0.245(3)
H6 H 0.221(3) 0.5225(10) 0.224(3)
C1 C 0.5133(2) 0.48405(6) 0.25398(18)
N1 N 0.6094(2) 0.54110(5) 0.23653(19)
N2 N 0.3028(2) 0.48299(6) 0.2428(2)
N3 N 0.6265(2) 0.42625(5) 0.2812(2)
N4 N 0.8519(2) 0.42556(6) 0.2974(2)
H7 H 0.935(4) 0.4125(10) 0.424(3)
C2 C 1.12336(19) 0.84396(5) 0.68336(19)
C3 C 0.9984(2) 0.78049(5) 0.68320(19)
H8 H 1.0738 0.7396 0.6953
C4 C 0.7863(2) 0.78034(6) 0.6666(2)
H9 H 0.7125 0.8212 0.6595
C5 C 0.6603(2) 0.71704(5) 0.65888(19)
O1 O 1.04931(17) 0.89803(5) 0.71551(19)
O2 O 1.30209(15) 0.83829(4) 0.64654(17)
O3 O 0.45191(15) 0.72255(4) 0.64769(17)
H10 H 0.4189 0.7625 0.6465
O4 O 0.74557(17) 0.66199(4) 0.66416(19)
loop_
_geom_bond_atom_site_label_1
_geom_bond_atom_site_label_2
_geom_bond_site_symmetry_1
_geom_bond_site_symmetry_2
H1 N2 1_555 1_555
H2 N3 1_555 1_555
H3 N4 1_555 1_555
H4 N1 1_555 1_555
H5 N1 1_555 1_555
H6 N2 1_555 1_555
C1 N1 1_555 1_555
N2 C1 1_555 1_555
N3 C1 1_555 1_555
N4 N3 1_555 1_555
H7 N4 1_555 1_555
C2 C3 1_555 1_555
C3 H8 1_555 1_555
C4 C3 1_555 1_555
H9 C4 1_555 1_555
C5 C4 1_555 1_555
O1 C2 1_555 1_555
O2 C2 1_555 1_555
O3 C5 1_555 1_555
H10 O3 1_555 1_555
O4 C5 1_555 1_555

#END
