
#######################################################################
#
#                 Cambridge Crystallographic Data Centre
#                                CCDC 
#
#######################################################################
#
# If this CIF has been generated from an entry in the Cambridge 
# Structural Database, then it will include bibliographic, chemical, 
# crystal, experimental, refinement or atomic coordinate data resulting 
# from the CCDC's data processing and validation procedures.
#
#######################################################################

data_SOMBUT
_chemical_formula_moiety         'C9 H7 Br1 O2'
_chemical_name_systematic        3-(5-bromo-2-hydroxyphenyl)acrylaldehyde
_symmetry_cell_setting           orthorhombic
_symmetry_space_group_name_H-M   'P n a 21'
_symmetry_Int_Tables_number      33
_space_group_name_Hall           'P 2c -2n'
loop_
_symmetry_equiv_pos_site_id
_symmetry_equiv_pos_as_xyz
1 x,y,z
2 -x,-y,1/2+z
3 1/2+x,1/2-y,z
4 1/2-x,1/2+y,1/2+z
_cell_length_a                   12.1230(11)
_cell_length_b                   15.0901(14)
_cell_length_c                   4.8763(4)
_cell_angle_alpha                90
_cell_angle_beta                 90
_cell_angle_gamma                90
_cell_volume                     892.057
_exptl_crystal_colour            'pale yellow'
_exptl_crystal_description       Block
_cell_formula_units_Z            4
loop_
_atom_site_label
_atom_site_type_symbol
_atom_site_fract_x
_atom_site_fract_y
_atom_site_fract_z
C1 C 0.5560(4) 0.3452(3) 0.1499(9)
O1 O 0.4596(3) 0.3084(2) 0.0686(7)
H1 H 0.4091 0.3236 0.1766
C2 C 0.6537(4) 0.3149(3) 0.0237(8)
C3 C 0.7531(3) 0.3521(3) 0.1065(9)
H2 H 0.8200 0.3336 0.0229
C4 C 0.7550(3) 0.4153(3) 0.3081(10)
Br1 Br 0.89425(3) 0.45978(3) 0.4305(2)
C5 C 0.6611(3) 0.4457(2) 0.4299(17)
H3 H 0.6645 0.4905 0.5663
C6 C 0.5603(4) 0.4099(3) 0.3509(8)
H4 H 0.4942 0.4299 0.4351
C7 C 0.6470(4) 0.2463(3) -0.1865(9)
H5 H 0.5764 0.2211 -0.2199
C8 C 0.7312(4) 0.2157(3) -0.3365(10)
H6 H 0.8032 0.2391 -0.3108
C9 C 0.7127(3) 0.1470(3) -0.5372(13)
H7 H 0.6403 0.1234 -0.5524
O2 O 0.7830(3) 0.1175(2) -0.6872(7)
loop_
_geom_bond_atom_site_label_1
_geom_bond_atom_site_label_2
_geom_bond_site_symmetry_1
_geom_bond_site_symmetry_2
C1 O1 1_555 1_555
O1 H1 1_555 1_555
C2 C1 1_555 1_555
C3 C2 1_555 1_555
H2 C3 1_555 1_555
C4 C3 1_555 1_555
Br1 C4 1_555 1_555
C5 C4 1_555 1_555
H3 C5 1_555 1_555
C6 C1 1_555 1_555
H4 C6 1_555 1_555
C7 C2 1_555 1_555
H5 C7 1_555 1_555
C8 C7 1_555 1_555
H6 C8 1_555 1_555
C9 C8 1_555 1_555
H7 C9 1_555 1_555
O2 C9 1_555 1_555
C5 C6 1_555 1_555

#END
