
#######################################################################
#
#                 Cambridge Crystallographic Data Centre
#                                CCDC 
#
#######################################################################
#
# If this CIF has been generated from an entry in the Cambridge 
# Structural Database, then it will include bibliographic, chemical, 
# crystal, experimental, refinement or atomic coordinate data resulting 
# from the CCDC's data processing and validation procedures.
#
#######################################################################

data_SOMFOR
_chemical_formula_moiety         'C19 H25 N6 1+,Cl1 1-'
_chemical_name_systematic        
'4-t-butyl-2-(4-t-butyl-6-(1H-tetrazol-5-yl)pyridin-2-yl)pyridinium chloride'
_symmetry_cell_setting           monoclinic
_symmetry_space_group_name_H-M   'P 21/n'
_symmetry_Int_Tables_number      14
_space_group_name_Hall           '-P 2yn'
loop_
_symmetry_equiv_pos_site_id
_symmetry_equiv_pos_as_xyz
1 x,y,z
2 1/2-x,1/2+y,1/2-z
3 -x,-y,-z
4 1/2+x,1/2-y,1/2+z
_cell_length_a                   11.069(2)
_cell_length_b                   14.409(3)
_cell_length_c                   13.018(3)
_cell_angle_alpha                90
_cell_angle_beta                 103.40(3)
_cell_angle_gamma                90
_cell_volume                     2019.76
_exptl_crystal_colour            colorless
_exptl_crystal_description       plate
_cell_formula_units_Z            4
loop_
_atom_site_label
_atom_site_type_symbol
_atom_site_fract_x
_atom_site_fract_y
_atom_site_fract_z
Cl1 Cl 0.22170(6) 0.42605(5) 0.74122(5)
C1 C 0.2301(2) 0.07518(19) 0.47980(18)
N1 N -0.18197(16) 0.21178(14) 0.42658(16)
N2 N -0.0332(2) -0.04348(16) 0.29713(17)
C2 C 0.25565(19) 0.15541(16) 0.53932(18)
N3 N 0.01236(16) 0.11125(13) 0.42963(15)
C3 C 0.0784(2) -0.02649(17) 0.35934(18)
C4 C -0.0813(2) 0.32239(17) 0.54896(19)
N4 N 0.15432(18) -0.09548(14) 0.35061(15)
C5 C -0.2990(2) 0.33217(19) 0.4765(2)
C6 C 0.1085(2) 0.05629(16) 0.42629(18)
N5 N -0.0282(2) -0.12476(16) 0.24703(17)
C7 C -0.07526(18) 0.24445(16) 0.49028(18)
C8 C 0.1553(2) 0.21261(17) 0.54453(19)
C9 C 0.03633(19) 0.18832(16) 0.48894(18)
C10 C 0.3872(2) 0.18265(17) 0.5987(2)
N6 N 0.0849(2) -0.15561(15) 0.27952(17)
C11 C -0.1941(2) 0.36873(16) 0.54479(18)
C12 C -0.3305(3) 0.4943(2) 0.5933(3)
C13 C -0.19928(19) 0.45370(17) 0.61255(19)
C14 C -0.1562(3) 0.4256(3) 0.7293(2)
C15 C -0.2908(2) 0.25466(18) 0.4181(2)
C16 C -0.1136(3) 0.5285(2) 0.5854(3)
C17 C 0.4153(3) 0.2801(2) 0.5641(3)
C18 C 0.3913(3) 0.1830(3) 0.7166(2)
C19 C 0.4846(3) 0.1151(3) 0.5758(3)
H1 H -0.184(2) 0.1614(18) 0.380(2)
H2 H -0.1034(18) -0.0109(15) 0.2866(16)
H3 H -0.0054(16) 0.3460(12) 0.5961(14)
H4 H -0.026(2) 0.5122(17) 0.6022(19)
H5 H 0.1643(14) 0.2673(13) 0.5873(14)
H6 H 0.498(2) 0.2985(18) 0.5949(19)
H7 H -0.3631(18) 0.2248(15) 0.3660(17)
H8 H 0.477(2) 0.2035(16) 0.7535(18)
H9 H -0.165(2) 0.4762(19) 0.778(2)
H10 H -0.120(2) 0.582(2) 0.629(2)
H11 H -0.3753(17) 0.3598(14) 0.4698(15)
H12 H 0.2923(18) 0.0331(14) 0.4714(16)
H13 H 0.468(2) 0.053(2) 0.607(2)
H14 H 0.569(2) 0.1339(17) 0.6212(19)
H15 H 0.337(2) 0.2353(18) 0.7275(19)
H16 H -0.069(2) 0.4020(18) 0.7454(18)
H17 H 0.357(2) 0.331(2) 0.585(2)
H18 H 0.486(2) 0.1144(18) 0.498(2)
H19 H -0.139(2) 0.5434(18) 0.513(2)
H20 H -0.367(2) 0.5110(18) 0.523(2)
H21 H -0.393(2) 0.448(2) 0.614(2)
H22 H 0.410(2) 0.2821(18) 0.485(2)
H23 H -0.3287(17) 0.5463(16) 0.6353(18)
H24 H -0.214(3) 0.371(2) 0.745(2)
H25 H 0.377(3) 0.122(3) 0.741(3)
loop_
_geom_bond_atom_site_label_1
_geom_bond_atom_site_label_2
_geom_bond_site_symmetry_1
_geom_bond_site_symmetry_2
C1 C2 1_555 1_555
N1 C7 1_555 1_555
N2 C3 1_555 1_555
C2 C8 1_555 1_555
N3 C6 1_555 1_555
C3 N4 1_555 1_555
C4 C7 1_555 1_555
N4 N6 1_555 1_555
C5 C11 1_555 1_555
C6 C1 1_555 1_555
N5 N2 1_555 1_555
C7 C9 1_555 1_555
C8 C9 1_555 1_555
C9 N3 1_555 1_555
C10 C2 1_555 1_555
N6 N5 1_555 1_555
C11 C4 1_555 1_555
C12 C13 1_555 1_555
C13 C11 1_555 1_555
C14 C13 1_555 1_555
C15 N1 1_555 1_555
C16 C13 1_555 1_555
C17 C10 1_555 1_555
C18 C10 1_555 1_555
C19 C10 1_555 1_555
H1 N1 1_555 1_555
H2 N2 1_555 1_555
H3 C4 1_555 1_555
H4 C16 1_555 1_555
H5 C8 1_555 1_555
H6 C17 1_555 1_555
H7 C15 1_555 1_555
H8 C18 1_555 1_555
H9 C14 1_555 1_555
H10 C16 1_555 1_555
H11 C5 1_555 1_555
H12 C1 1_555 1_555
H13 C19 1_555 1_555
H14 C19 1_555 1_555
H15 C18 1_555 1_555
H16 C14 1_555 1_555
H17 C17 1_555 1_555
H18 C19 1_555 1_555
H19 C16 1_555 1_555
H20 C12 1_555 1_555
H21 C12 1_555 1_555
H22 C17 1_555 1_555
H23 C12 1_555 1_555
H24 C14 1_555 1_555
H25 C18 1_555 1_555
C3 C6 1_555 1_555
C5 C15 1_555 1_555

#END
