
#######################################################################
#
#                 Cambridge Crystallographic Data Centre
#                                CCDC 
#
#######################################################################
#
# If this CIF has been generated from an entry in the Cambridge 
# Structural Database, then it will include bibliographic, chemical, 
# crystal, experimental, refinement or atomic coordinate data resulting 
# from the CCDC's data processing and validation procedures.
#
#######################################################################

data_SOMKIP
_chemical_name_common            2,2'-Sulfanediyldianiline
_chemical_formula_moiety         'C12 H12 N2 S1'
_chemical_name_systematic        "2,2'-Diamino diphenyl sulfide"
_symmetry_cell_setting           monoclinic
_symmetry_space_group_name_H-M   'P 21/c'
_symmetry_Int_Tables_number      14
_space_group_name_Hall           '-P 2ybc'
loop_
_symmetry_equiv_pos_site_id
_symmetry_equiv_pos_as_xyz
1 x,y,z
2 -x,1/2+y,1/2-z
3 -x,-y,-z
4 x,1/2-y,1/2+z
_cell_length_a                   9.945(5)
_cell_length_b                   7.063(3)
_cell_length_c                   17.770(6)
_cell_angle_alpha                90
_cell_angle_beta                 118.18(2)
_cell_angle_gamma                90
_cell_volume                     1100.24
_exptl_crystal_colour            colorless
_exptl_crystal_description       block
_chemical_melting_point          '358-360 K'
_cell_formula_units_Z            4
_exptl_crystal_recrystallization_method 'ethyl acetate/toluene'
loop_
_atom_site_label
_atom_site_type_symbol
_atom_site_fract_x
_atom_site_fract_y
_atom_site_fract_z
S1 S 0.15067(8) 0.78509(9) 0.65291(4)
N1 N 0.1853(2) 1.0979(3) 0.55268(15)
N2 N 0.4530(3) 0.6535(5) 0.79648(17)
C1 C 0.2205(2) 0.7579(3) 0.57795(13)
C2 C 0.2214(2) 0.9204(3) 0.53296(14)
C3 C 0.2714(3) 0.9036(4) 0.47252(16)
H1 H 0.2716 1.0098 0.4416
C4 C 0.3209(3) 0.7329(4) 0.45738(16)
H2 H 0.3534 0.7247 0.4163
C5 C 0.3224(3) 0.5741(4) 0.50269(15)
H3 H 0.3575 0.4592 0.4932
C6 C 0.2712(2) 0.5873(3) 0.56245(14)
H4 H 0.2708 0.4800 0.5927
C7 C 0.1904(2) 0.5644(3) 0.70560(13)
C8 C 0.3363(2) 0.5257(4) 0.77217(13)
C9 C 0.3577(3) 0.3525(4) 0.81389(15)
H5 H 0.4532 0.3224 0.8585
C10 C 0.2406(3) 0.2259(4) 0.79046(17)
H6 H 0.2582 0.1115 0.8195
C11 C 0.0972(3) 0.2641(4) 0.72466(17)
H7 H 0.0184 0.1769 0.7092
C12 C 0.0730(3) 0.4335(3) 0.68243(14)
H8 H -0.0230 0.4611 0.6378
H9 H 0.134(3) 1.103(4) 0.5794(14)
H10 H 0.156(3) 1.175(3) 0.5115(13)
H11 H 0.538(2) 0.624(3) 0.8339(13)
H12 H 0.443(3) 0.747(3) 0.7660(14)
loop_
_geom_bond_atom_site_label_1
_geom_bond_atom_site_label_2
_geom_bond_site_symmetry_1
_geom_bond_site_symmetry_2
S1 C1 1_555 1_555
N1 C2 1_555 1_555
N2 C8 1_555 1_555
C1 C2 1_555 1_555
C2 C3 1_555 1_555
C3 H1 1_555 1_555
C4 C3 1_555 1_555
H2 C4 1_555 1_555
C5 C4 1_555 1_555
H3 C5 1_555 1_555
C6 C1 1_555 1_555
H4 C6 1_555 1_555
C7 S1 1_555 1_555
C8 C7 1_555 1_555
C9 C8 1_555 1_555
H5 C9 1_555 1_555
C10 C9 1_555 1_555
H6 C10 1_555 1_555
C11 C10 1_555 1_555
H7 C11 1_555 1_555
C12 C7 1_555 1_555
H8 C12 1_555 1_555
H9 N1 1_555 1_555
H10 N1 1_555 1_555
H11 N2 1_555 1_555
H12 N2 1_555 1_555
C5 C6 1_555 1_555
C11 C12 1_555 1_555

#END
