
#######################################################################
#
#                 Cambridge Crystallographic Data Centre
#                                CCDC 
#
#######################################################################
#
# If this CIF has been generated from an entry in the Cambridge 
# Structural Database, then it will include bibliographic, chemical, 
# crystal, experimental, refinement or atomic coordinate data resulting 
# from the CCDC's data processing and validation procedures.
#
#######################################################################

data_SOMRIW
_chemical_formula_moiety         'C60 H62 B2 Si1'
_chemical_name_systematic        bis(4-(Dimesitylboryl)phenyl)(diphenyl)silane
_symmetry_cell_setting           triclinic
_symmetry_space_group_name_H-M   'P -1'
_symmetry_Int_Tables_number      2
_space_group_name_Hall           '-P 1'
loop_
_symmetry_equiv_pos_site_id
_symmetry_equiv_pos_as_xyz
1 x,y,z
2 -x,-y,-z
_cell_length_a                   13.0386(10)
_cell_length_b                   14.1669(11)
_cell_length_c                   14.6777(11)
_cell_angle_alpha                67.2660(10)
_cell_angle_beta                 87.4950(10)
_cell_angle_gamma                80.8880(10)
_cell_volume                     2468.57
_exptl_crystal_colour            colorless
_exptl_crystal_description       block
_cell_formula_units_Z            2
_exptl_crystal_recrystallization_method dichloromethane/n-hexane
loop_
_atom_site_label
_atom_site_type_symbol
_atom_site_fract_x
_atom_site_fract_y
_atom_site_fract_z
Si1 Si 0.95881(4) 0.26509(4) 0.21346(4)
C1 C 0.90387(14) 0.39553(16) 0.21345(15)
B1 B 1.44916(16) 0.21912(17) 0.20946(16)
B2 B 0.83434(17) 0.26405(17) -0.19467(17)
C2 C 0.85723(15) 0.47477(17) 0.12851(17)
H1 H 0.8506 0.4613 0.0706
C3 C 0.82035(17) 0.57288(19) 0.1271(2)
H2 H 0.7885 0.6255 0.0687
C4 C 0.82991(18) 0.5939(2) 0.2100(2)
H3 H 0.8049 0.6612 0.2087
C5 C 0.87560(18) 0.5180(2) 0.2945(2)
H4 H 0.8824 0.5327 0.3517
C6 C 0.91176(16) 0.41985(18) 0.29647(17)
H5 H 0.9427 0.3677 0.3556
C7 C 0.91065(14) 0.16098(16) 0.32237(14)
C8 C 0.82785(16) 0.18298(18) 0.37839(16)
H6 H 0.7956 0.2528 0.3612
C9 C 0.79137(17) 0.1057(2) 0.45836(17)
H7 H 0.7353 0.1230 0.4955
C10 C 0.83618(18) 0.0045(2) 0.48387(17)
H8 H 0.8115 -0.0485 0.5388
C11 C 0.91721(19) -0.02034(19) 0.42962(18)
H9 H 0.9482 -0.0905 0.4470
C12 C 0.95361(17) 0.05699(17) 0.34970(16)
H10 H 1.0092 0.0387 0.3127
C13 C 1.10502(14) 0.25210(15) 0.21377(14)
C14 C 1.15855(15) 0.32162(16) 0.23126(16)
H11 H 1.1203 0.3779 0.2441
C15 C 1.26596(15) 0.31058(16) 0.23039(16)
H12 H 1.2992 0.3586 0.2445
C16 C 1.32718(14) 0.23134(15) 0.20957(14)
C17 C 1.27357(15) 0.16288(16) 0.19037(16)
H13 H 1.3118 0.1081 0.1752
C18 C 1.16601(15) 0.17272(16) 0.19281(16)
H14 H 1.1328 0.1240 0.1799
C19 C 0.91958(14) 0.25895(16) 0.09513(14)
C20 C 0.97259(17) 0.30799(19) 0.00911(15)
H15 H 1.0289 0.3415 0.0128
C21 C 0.94523(16) 0.30905(19) -0.08134(16)
H16 H 0.9847 0.3411 -0.1377
C22 C 0.86077(14) 0.26393(16) -0.09163(14)
C23 C 0.80548(15) 0.21774(16) -0.00625(14)
H17 H 0.7462 0.1884 -0.0109
C24 C 0.83502(15) 0.21367(16) 0.08529(14)
H18 H 0.7971 0.1795 0.1421
C25 C 1.50220(13) 0.26918(15) 0.27077(14)
C26 C 1.56598(14) 0.34581(15) 0.22527(14)
C27 C 1.60861(14) 0.39146(16) 0.28064(16)
H19 H 1.6506 0.4435 0.2486
C28 C 1.59155(16) 0.36323(17) 0.38091(16)
C29 C 1.52947(16) 0.28739(17) 0.42545(16)
H20 H 1.5171 0.2668 0.4942
C30 C 1.48480(15) 0.24053(16) 0.37301(15)
C31 C 1.42188(18) 0.15570(19) 0.42995(17)
H21 H 1.4560 0.1129 0.4940
H22 H 1.4169 0.1125 0.3923
H23 H 1.3520 0.1868 0.4404
C32 C 1.6395(2) 0.4120(2) 0.4405(2)
H24 H 1.6921 0.4521 0.4011
H25 H 1.6722 0.3576 0.5008
H26 H 1.5853 0.4581 0.4582
C33 C 1.58654(16) 0.38316(17) 0.11595(15)
H27 H 1.6355 0.4330 0.0989
H28 H 1.5212 0.4166 0.0788
H29 H 1.6163 0.3241 0.0991
C34 C 1.51315(13) 0.15735(15) 0.15091(14)
C35 C 1.49437(14) 0.18300(16) 0.04949(14)
C36 C 1.54914(15) 0.12536(16) 0.00032(15)
H30 H 1.5354 0.1449 -0.0681
C37 C 1.62333(14) 0.04000(16) 0.04809(15)
C38 C 1.64246(15) 0.01485(16) 0.14737(15)
H31 H 1.6930 -0.0434 0.1815
C39 C 1.59059(14) 0.07155(15) 0.19906(14)
C40 C 1.6186(2) 0.03745(19) 0.30698(16)
H32 H 1.6768 -0.0198 0.3250
H33 H 1.5585 0.0144 0.3472
H34 H 1.6386 0.0956 0.3188
C41 C 1.68407(17) -0.02023(18) -0.00708(18)
H35 H 1.6999 -0.0934 0.0369
H36 H 1.7490 0.0073 -0.0300
H37 H 1.6428 -0.0137 -0.0640
C42 C 1.41791(18) 0.27696(19) -0.01071(16)
H38 H 1.3780 0.2595 -0.0555
H39 H 1.4558 0.3337 -0.0493
H40 H 1.3705 0.2985 0.0338
C43 C 0.92712(14) 0.26649(16) -0.26805(14)
C44 C 1.01460(16) 0.18743(18) -0.24179(16)
C45 C 1.09358(16) 0.19028(18) -0.30960(16)
H41 H 1.1518 0.1367 -0.2912
C46 C 1.09016(16) 0.26812(18) -0.40236(16)
C47 C 1.00535(15) 0.34614(17) -0.42726(15)
H42 H 1.0022 0.4010 -0.4905
C48 C 0.92444(15) 0.34659(16) -0.36223(14)
C49 C 1.02496(19) 0.0969(2) -0.14312(17)
H43 H 1.0648 0.0358 -0.1510
H44 H 0.9557 0.0821 -0.1188
H45 H 1.0611 0.1141 -0.0957
C50 C 1.17632(18) 0.2676(2) -0.47495(18)
H46 H 1.2175 0.1983 -0.4536
H47 H 1.2211 0.3179 -0.4775
H48 H 1.1460 0.2862 -0.5407
C51 C 0.83691(16) 0.43700(17) -0.39325(16)
H49 H 0.8438 0.4805 -0.4631
H50 H 0.8399 0.4780 -0.3531
H51 H 0.7702 0.4111 -0.3836
C52 C 0.72046(14) 0.26272(15) -0.22494(14)
C53 C 0.69852(15) 0.19021(15) -0.26305(14)
C54 C 0.59715(16) 0.19052(16) -0.28883(15)
H52 H 0.5833 0.1387 -0.3107
C55 C 0.51540(16) 0.26398(17) -0.28377(15)
C56 C 0.53773(15) 0.33757(16) -0.25091(14)
H53 H 0.4834 0.3904 -0.2498
C57 C 0.63688(15) 0.33722(16) -0.21927(14)
C58 C 0.65132(17) 0.42093(17) -0.18311(18)
H54 H 0.5999 0.4825 -0.2158
H55 H 0.7214 0.4387 -0.1987
H56 H 0.6420 0.3958 -0.1115
C59 C 0.40616(17) 0.2628(2) -0.31277(19)
H57 H 0.3627 0.2458 -0.2541
H58 H 0.4070 0.2107 -0.3415
H59 H 0.3779 0.3312 -0.3615
C60 C 0.78263(17) 0.11082(17) -0.27668(17)
H60 H 0.7511 0.0627 -0.2959
H61 H 0.8220 0.0723 -0.2145
H62 H 0.8295 0.1458 -0.3285
loop_
_geom_bond_atom_site_label_1
_geom_bond_atom_site_label_2
_geom_bond_site_symmetry_1
_geom_bond_site_symmetry_2
Si1 C1 1_555 1_555
C1 C2 1_555 1_555
B1 C16 1_555 1_555
B2 C22 1_555 1_555
C2 H1 1_555 1_555
C3 C2 1_555 1_555
H2 C3 1_555 1_555
C4 C3 1_555 1_555
H3 C4 1_555 1_555
C5 C4 1_555 1_555
H4 C5 1_555 1_555
C6 C1 1_555 1_555
H5 C6 1_555 1_555
C7 Si1 1_555 1_555
C8 C7 1_555 1_555
H6 C8 1_555 1_555
C9 C8 1_555 1_555
H7 C9 1_555 1_555
C10 C9 1_555 1_555
H8 C10 1_555 1_555
C11 C10 1_555 1_555
H9 C11 1_555 1_555
C12 C7 1_555 1_555
H10 C12 1_555 1_555
C13 Si1 1_555 1_555
C14 C13 1_555 1_555
H11 C14 1_555 1_555
C15 C14 1_555 1_555
H12 C15 1_555 1_555
C16 C15 1_555 1_555
C17 C16 1_555 1_555
H13 C17 1_555 1_555
C18 C13 1_555 1_555
H14 C18 1_555 1_555
C19 Si1 1_555 1_555
C20 C19 1_555 1_555
H15 C20 1_555 1_555
C21 C20 1_555 1_555
H16 C21 1_555 1_555
C22 C21 1_555 1_555
C23 C22 1_555 1_555
H17 C23 1_555 1_555
C24 C19 1_555 1_555
H18 C24 1_555 1_555
C25 B1 1_555 1_555
C26 C25 1_555 1_555
C27 C26 1_555 1_555
H19 C27 1_555 1_555
C28 C27 1_555 1_555
C29 C28 1_555 1_555
H20 C29 1_555 1_555
C30 C25 1_555 1_555
C31 C30 1_555 1_555
H21 C31 1_555 1_555
H22 C31 1_555 1_555
H23 C31 1_555 1_555
C32 C28 1_555 1_555
H24 C32 1_555 1_555
H25 C32 1_555 1_555
H26 C32 1_555 1_555
C33 C26 1_555 1_555
H27 C33 1_555 1_555
H28 C33 1_555 1_555
H29 C33 1_555 1_555
C34 B1 1_555 1_555
C35 C34 1_555 1_555
C36 C35 1_555 1_555
H30 C36 1_555 1_555
C37 C36 1_555 1_555
C38 C37 1_555 1_555
H31 C38 1_555 1_555
C39 C34 1_555 1_555
C40 C39 1_555 1_555
H32 C40 1_555 1_555
H33 C40 1_555 1_555
H34 C40 1_555 1_555
C41 C37 1_555 1_555
H35 C41 1_555 1_555
H36 C41 1_555 1_555
H37 C41 1_555 1_555
C42 C35 1_555 1_555
H38 C42 1_555 1_555
H39 C42 1_555 1_555
H40 C42 1_555 1_555
C43 B2 1_555 1_555
C44 C43 1_555 1_555
C45 C44 1_555 1_555
H41 C45 1_555 1_555
C46 C45 1_555 1_555
C47 C46 1_555 1_555
H42 C47 1_555 1_555
C48 C43 1_555 1_555
C49 C44 1_555 1_555
H43 C49 1_555 1_555
H44 C49 1_555 1_555
H45 C49 1_555 1_555
C50 C46 1_555 1_555
H46 C50 1_555 1_555
H47 C50 1_555 1_555
H48 C50 1_555 1_555
C51 C48 1_555 1_555
H49 C51 1_555 1_555
H50 C51 1_555 1_555
H51 C51 1_555 1_555
C52 B2 1_555 1_555
C53 C52 1_555 1_555
C54 C53 1_555 1_555
H52 C54 1_555 1_555
C55 C54 1_555 1_555
C56 C55 1_555 1_555
H53 C56 1_555 1_555
C57 C52 1_555 1_555
C58 C57 1_555 1_555
H54 C58 1_555 1_555
H55 C58 1_555 1_555
H56 C58 1_555 1_555
C59 C55 1_555 1_555
H57 C59 1_555 1_555
H58 C59 1_555 1_555
H59 C59 1_555 1_555
C60 C53 1_555 1_555
H60 C60 1_555 1_555
H61 C60 1_555 1_555
H62 C60 1_555 1_555
C5 C6 1_555 1_555
C11 C12 1_555 1_555
C17 C18 1_555 1_555
C23 C24 1_555 1_555
C29 C30 1_555 1_555
C38 C39 1_555 1_555
C47 C48 1_555 1_555
C56 C57 1_555 1_555

#END
