
#######################################################################
#
#                 Cambridge Crystallographic Data Centre
#                                CCDC 
#
#######################################################################
#
# If this CIF has been generated from an entry in the Cambridge 
# Structural Database, then it will include bibliographic, chemical, 
# crystal, experimental, refinement or atomic coordinate data resulting 
# from the CCDC's data processing and validation procedures.
#
#######################################################################

data_SOMRES
_chemical_formula_moiety         'C34 H31 B1'
_chemical_name_systematic        Dimesityl(1-pyrenyl)borane
_symmetry_cell_setting           triclinic
_symmetry_space_group_name_H-M   'P -1'
_symmetry_Int_Tables_number      2
_space_group_name_Hall           '-P 1'
loop_
_symmetry_equiv_pos_site_id
_symmetry_equiv_pos_as_xyz
1 x,y,z
2 -x,-y,-z
_cell_length_a                   8.5670(9)
_cell_length_b                   11.2119(12)
_cell_length_c                   13.7498(15)
_cell_angle_alpha                98.6420(10)
_cell_angle_beta                 103.9140(10)
_cell_angle_gamma                98.3170(10)
_cell_volume                     1244.7
_exptl_crystal_colour            light
_exptl_crystal_description       plate
_cell_formula_units_Z            2
_exptl_crystal_recrystallization_method dichloromethane/n-hexane
loop_
_atom_site_label
_atom_site_type_symbol
_atom_site_fract_x
_atom_site_fract_y
_atom_site_fract_z
B1 B 0.2806(3) 0.8180(2) 0.20125(18)
C1 C 0.4060(2) 0.79175(18) 0.29601(14)
C2 C 0.5035(2) 0.89354(19) 0.36829(15)
H1 H 0.4788 0.9710 0.3640
C3 C 0.6348(2) 0.8830(2) 0.44545(16)
H2 H 0.6988 0.9533 0.4899
C4 C 0.6728(2) 0.7681(2) 0.45767(15)
C5 C 0.8089(3) 0.7526(2) 0.53635(16)
H3 H 0.8769 0.8217 0.5804
C6 C 0.8400(3) 0.6415(2) 0.54779(16)
H4 H 0.9307 0.6353 0.5986
C7 C 0.7380(2) 0.5318(2) 0.48431(15)
C8 C 0.7655(3) 0.4147(2) 0.49629(17)
H5 H 0.8559 0.4065 0.5464
C9 C 0.6613(3) 0.3105(2) 0.43523(18)
H6 H 0.6819 0.2334 0.4450
C10 C 0.5270(3) 0.3200(2) 0.35989(16)
H7 H 0.4570 0.2493 0.3198
C11 C 0.4953(2) 0.43568(19) 0.34331(15)
C12 C 0.3612(3) 0.45052(19) 0.26405(15)
H8 H 0.2900 0.3811 0.2226
C13 C 0.3352(2) 0.56272(18) 0.24778(15)
H9 H 0.2479 0.5681 0.1943
C14 C 0.4375(2) 0.67381(17) 0.31011(14)
C15 C 0.5704(2) 0.66154(18) 0.39082(14)
C16 C 0.6006(2) 0.54267(19) 0.40584(14)
C17 C 0.1710(2) 0.91628(17) 0.21710(14)
C18 C 0.0615(2) 0.90114(17) 0.27825(14)
C19 C -0.0564(2) 0.97363(18) 0.27737(15)
H10 H -0.1296 0.9606 0.3166
C20 C -0.0688(2) 1.06507(18) 0.21987(16)
C21 C 0.0451(2) 1.08507(18) 0.16453(16)
H11 H 0.0425 1.1490 0.1285
C22 C 0.1628(2) 1.01252(17) 0.16132(15)
C23 C 0.0609(3) 0.8026(2) 0.34227(17)
H12 H -0.0429 0.7871 0.3575
H13 H 0.1464 0.8296 0.4048
H14 H 0.0789 0.7285 0.3052
C24 C -0.2008(3) 1.1405(2) 0.2187(2)
H15 H -0.2765 1.1063 0.2530
H16 H -0.2578 1.1400 0.1493
H17 H -0.1522 1.2235 0.2529
C25 C 0.2811(3) 1.0388(2) 0.09794(17)
H18 H 0.2862 1.1218 0.0871
H19 H 0.2442 0.9832 0.0332
H20 H 0.3878 1.0283 0.1332
C26 C 0.2637(2) 0.74390(17) 0.09080(14)
C27 C 0.1087(2) 0.68907(17) 0.02402(14)
C28 C 0.0974(2) 0.61569(18) -0.06920(15)
H21 H -0.0058 0.5785 -0.1112
C29 C 0.2338(3) 0.59585(18) -0.10191(16)
C30 C 0.3859(3) 0.65276(19) -0.03795(16)
H22 H 0.4791 0.6421 -0.0591
C31 C 0.4037(2) 0.72539(18) 0.05680(16)
C32 C -0.0502(2) 0.70337(19) 0.05002(16)
H23 H -0.1394 0.6479 0.0003
H24 H -0.0664 0.7863 0.0497
H25 H -0.0456 0.6850 0.1165
C33 C 0.5752(2) 0.7864(2) 0.11849(18)
H26 H 0.6468 0.7876 0.0745
H27 H 0.6127 0.7414 0.1708
H28 H 0.5750 0.8691 0.1493
C34 C 0.2165(3) 0.5188(2) -0.20492(18)
H29 H 0.2940 0.4647 -0.1985
H30 H 0.2369 0.5714 -0.2513
H31 H 0.1075 0.4712 -0.2307
loop_
_geom_bond_atom_site_label_1
_geom_bond_atom_site_label_2
_geom_bond_site_symmetry_1
_geom_bond_site_symmetry_2
B1 C1 1_555 1_555
C1 C2 1_555 1_555
C2 H1 1_555 1_555
C3 C2 1_555 1_555
H2 C3 1_555 1_555
C4 C3 1_555 1_555
C5 C4 1_555 1_555
H3 C5 1_555 1_555
C6 C5 1_555 1_555
H4 C6 1_555 1_555
C7 C6 1_555 1_555
C8 C7 1_555 1_555
H5 C8 1_555 1_555
C9 C8 1_555 1_555
H6 C9 1_555 1_555
C10 C9 1_555 1_555
H7 C10 1_555 1_555
C11 C10 1_555 1_555
C12 C11 1_555 1_555
H8 C12 1_555 1_555
C13 C12 1_555 1_555
H9 C13 1_555 1_555
C14 C1 1_555 1_555
C15 C4 1_555 1_555
C16 C7 1_555 1_555
C17 B1 1_555 1_555
C18 C17 1_555 1_555
C19 C18 1_555 1_555
H10 C19 1_555 1_555
C20 C19 1_555 1_555
C21 C20 1_555 1_555
H11 C21 1_555 1_555
C22 C17 1_555 1_555
C23 C18 1_555 1_555
H12 C23 1_555 1_555
H13 C23 1_555 1_555
H14 C23 1_555 1_555
C24 C20 1_555 1_555
H15 C24 1_555 1_555
H16 C24 1_555 1_555
H17 C24 1_555 1_555
C25 C22 1_555 1_555
H18 C25 1_555 1_555
H19 C25 1_555 1_555
H20 C25 1_555 1_555
C26 B1 1_555 1_555
C27 C26 1_555 1_555
C28 C27 1_555 1_555
H21 C28 1_555 1_555
C29 C28 1_555 1_555
C30 C29 1_555 1_555
H22 C30 1_555 1_555
C31 C26 1_555 1_555
C32 C27 1_555 1_555
H23 C32 1_555 1_555
H24 C32 1_555 1_555
H25 C32 1_555 1_555
C33 C31 1_555 1_555
H26 C33 1_555 1_555
H27 C33 1_555 1_555
H28 C33 1_555 1_555
C34 C29 1_555 1_555
H29 C34 1_555 1_555
H30 C34 1_555 1_555
H31 C34 1_555 1_555
C11 C16 1_555 1_555
C13 C14 1_555 1_555
C14 C15 1_555 1_555
C15 C16 1_555 1_555
C21 C22 1_555 1_555
C30 C31 1_555 1_555

#END
