
#######################################################################
#
#                 Cambridge Crystallographic Data Centre
#                                CCDC 
#
#######################################################################
#
# If this CIF has been generated from an entry in the Cambridge 
# Structural Database, then it will include bibliographic, chemical, 
# crystal, experimental, refinement or atomic coordinate data resulting 
# from the CCDC's data processing and validation procedures.
#
#######################################################################

data_SOMYAW
_chemical_name_common            'Alstoscholarisine C'
_chemical_formula_moiety         'C21 H26 N2 O3'
_chemical_name_systematic        
'methyl 5,10,19-trimethyl-4-oxa-10,12-diazapentacyclo[10.7.0.0^2,7^.0^6,11^.0^13,18^]nonadeca-1(19),13,15,17-tetraene-2-carboxylate'
_symmetry_cell_setting           monoclinic
_symmetry_space_group_name_H-M   'P 21'
_symmetry_Int_Tables_number      4
_space_group_name_Hall           'P 2yb'
loop_
_symmetry_equiv_pos_site_id
_symmetry_equiv_pos_as_xyz
1 x,y,z
2 -x,1/2+y,-z
_cell_length_a                   10.5788(10)
_cell_length_b                   7.7312(7)
_cell_length_c                   10.8099(10)
_cell_angle_alpha                90
_cell_angle_beta                 90.3850(10)
_cell_angle_gamma                90
_cell_volume                     884.087
_exptl_crystal_colour            colorless
_exptl_crystal_description       chunk
_cell_formula_units_Z            2
loop_
_atom_site_label
_atom_site_type_symbol
_atom_site_fract_x
_atom_site_fract_y
_atom_site_fract_z
O1 O 0.49655(7) 0.44572(10) 0.20126(7)
O2 O 0.57857(8) 0.26436(12) 0.06058(8)
O3 O 0.92996(7) 0.26882(10) 0.23138(7)
N1 N 0.80891(8) 0.50003(11) 0.40945(8)
C1 C 0.83757(10) 0.47676(15) 0.75227(9)
H1 H 0.8856 0.5159 0.8214
C2 C 0.69512(9) 0.35576(13) 0.55275(9)
C3 C 1.05054(10) 0.41700(16) 0.07122(10)
H2 H 1.1046 0.3143 0.0660
H3 H 1.1012 0.5208 0.0558
H4 H 0.9829 0.4090 0.0091
C4 C 0.99273(9) 0.42772(14) 0.20017(9)
H5 H 1.0644 0.4420 0.2601
C5 C 0.90692(9) 0.58637(13) 0.21487(9)
H6 H 0.9497 0.6862 0.1738
C6 C 0.88349(9) 0.63730(12) 0.34997(9)
H7 H 0.9668 0.6470 0.3936
C7 C 0.79770(9) 0.47074(13) 0.53547(9)
C8 C 0.87081(10) 0.53133(14) 0.63467(9)
H8 H 0.9404 0.6068 0.6220
C9 C 0.73464(11) 0.36497(16) 0.77198(10)
H9 H 0.7139 0.3313 0.8539
C10 C 0.37297(10) 0.41341(17) 0.14758(11)
H10 H 0.3699 0.4598 0.0632
H11 H 0.3082 0.4700 0.1978
H12 H 0.3571 0.2886 0.1454
C11 C 0.59152(9) 0.35890(13) 0.14876(9)
C12 C 0.71898(9) 0.39597(13) 0.20937(8)
C13 C 0.77715(9) 0.56280(13) 0.15216(9)
H13 H 0.7913 0.5411 0.0621
C14 C 0.70048(10) 0.73024(13) 0.16461(9)
H14 H 0.7387 0.8203 0.1116
H15 H 0.6134 0.7093 0.1341
C15 C 0.69442(10) 0.79748(14) 0.29701(9)
H16 H 0.6554 0.9138 0.2976
H17 H 0.6414 0.7194 0.3474
N2 N 0.82210(8) 0.80666(11) 0.35046(8)
C16 C 0.82324(10) 0.89330(14) 0.47048(10)
H18 H 0.7647 0.8345 0.5264
H19 H 0.7970 1.0140 0.4600
H20 H 0.9088 0.8896 0.5056
C17 C 0.71450(9) 0.40525(13) 0.34848(9)
C18 C 0.64366(9) 0.31442(13) 0.43295(9)
C19 C 0.53340(9) 0.19556(14) 0.41256(10)
H21 H 0.4546 0.2584 0.4279
H22 H 0.5397 0.0972 0.4694
H23 H 0.5338 0.1535 0.3271
C20 C 0.66319(10) 0.30340(14) 0.67344(9)
H24 H 0.5941 0.2274 0.6870
C21 C 0.81010(9) 0.24688(13) 0.17405(10)
H25 H 0.7733 0.1350 0.2001
H26 H 0.8204 0.2442 0.0831
loop_
_geom_bond_atom_site_label_1
_geom_bond_atom_site_label_2
_geom_bond_site_symmetry_1
_geom_bond_site_symmetry_2
O1 C10 1_555 1_555
O2 C11 1_555 1_555
O3 C4 1_555 1_555
N1 C6 1_555 1_555
C1 H1 1_555 1_555
C2 C7 1_555 1_555
C3 H2 1_555 1_555
H3 C3 1_555 1_555
H4 C3 1_555 1_555
C4 C3 1_555 1_555
H5 C4 1_555 1_555
C5 C4 1_555 1_555
H6 C5 1_555 1_555
C6 C5 1_555 1_555
H7 C6 1_555 1_555
C7 N1 1_555 1_555
C8 C1 1_555 1_555
H8 C8 1_555 1_555
C9 C1 1_555 1_555
H9 C9 1_555 1_555
C10 H10 1_555 1_555
H11 C10 1_555 1_555
H12 C10 1_555 1_555
C11 O1 1_555 1_555
C12 C11 1_555 1_555
C13 C5 1_555 1_555
H13 C13 1_555 1_555
C14 C13 1_555 1_555
H14 C14 1_555 1_555
H15 C14 1_555 1_555
C15 C14 1_555 1_555
H16 C15 1_555 1_555
H17 C15 1_555 1_555
N2 C6 1_555 1_555
C16 N2 1_555 1_555
H18 C16 1_555 1_555
H19 C16 1_555 1_555
H20 C16 1_555 1_555
C17 N1 1_555 1_555
C18 C2 1_555 1_555
C19 C18 1_555 1_555
H21 C19 1_555 1_555
H22 C19 1_555 1_555
H23 C19 1_555 1_555
C20 C2 1_555 1_555
H24 C20 1_555 1_555
C21 O3 1_555 1_555
H25 C21 1_555 1_555
H26 C21 1_555 1_555
C7 C8 1_555 1_555
C9 C20 1_555 1_555
C12 C13 1_555 1_555
C12 C17 1_555 1_555
C12 C21 1_555 1_555
C15 N2 1_555 1_555
C17 C18 1_555 1_555

#END
