
#######################################################################
#
#                 Cambridge Crystallographic Data Centre
#                                CCDC 
#
#######################################################################
#
# If this CIF has been generated from an entry in the Cambridge 
# Structural Database, then it will include bibliographic, chemical, 
# crystal, experimental, refinement or atomic coordinate data resulting 
# from the CCDC's data processing and validation procedures.
#
#######################################################################

data_SOMZAX
_chemical_formula_moiety         'C16 H22 Br1 N1 O2'
_chemical_name_systematic        
18-bromo-17-oxa-6-azapentacyclo[13.2.1.0^1,6^.0^2,10^.0^2,13^]octadecan-11-one
_symmetry_cell_setting           monoclinic
_symmetry_space_group_name_H-M   'I 2/c'
_symmetry_Int_Tables_number      15
_space_group_name_Hall           '-I 2yc'
loop_
_symmetry_equiv_pos_site_id
_symmetry_equiv_pos_as_xyz
1 x,y,z
2 -x,y,1/2-z
3 1/2+x,1/2+y,1/2+z
4 1/2-x,1/2+y,-z
5 -x,-y,-z
6 x,-y,1/2+z
7 1/2-x,1/2-y,1/2-z
8 1/2+x,1/2-y,z
_cell_length_a                   13.9003(12)
_cell_length_b                   10.0515(10)
_cell_length_c                   21.326(2)
_cell_angle_alpha                90
_cell_angle_beta                 93.419(8)
_cell_angle_gamma                90
_cell_volume                     2974.34
_cell_formula_units_Z            8
_exptl_crystal_recrystallization_method 'ethyl acetate'
loop_
_atom_site_label
_atom_site_type_symbol
_atom_site_fract_x
_atom_site_fract_y
_atom_site_fract_z
Br1 Br 0.39809(3) 0.41466(5) 0.42600(3)
O1 O 0.2009(2) 0.5335(3) 0.47863(13)
O2 O 0.1198(2) 0.8001(3) 0.23506(16)
N1 N 0.1729(2) 0.3823(3) 0.39885(17)
C1 C 0.3045(3) 0.5532(4) 0.3982(2)
H1 H 0.3101 0.5759 0.3529
C2 C 0.3193(3) 0.6746(5) 0.4396(2)
H2 H 0.3892 0.6958 0.4477
C3 C 0.2736(3) 0.6298(4) 0.4992(2)
H3 H 0.3224 0.5886 0.5289
H4 H 0.2440 0.7061 0.5202
C4 C 0.2014(3) 0.5167(4) 0.4115(2)
C5 C 0.1279(3) 0.6204(4) 0.3814(2)
C6 C 0.1571(3) 0.7654(4) 0.3992(2)
H5 H 0.1280 0.7898 0.4394
C7 C 0.2652(4) 0.7882(4) 0.4063(2)
H6 H 0.2780 0.8714 0.4302
H7 H 0.2901 0.8000 0.3641
C8 C 0.1123(4) 0.6190(4) 0.3084(2)
H8 H 0.0423 0.5969 0.3015
C9 C 0.1166(3) 0.7633(5) 0.2883(2)
C10 C 0.1104(4) 0.8504(5) 0.3455(2)
H9 H 0.0426 0.8715 0.3532
H10 H 0.1463 0.9345 0.3407
C11 C 0.1596(4) 0.5228(5) 0.2662(2)
H11 H 0.2298 0.5408 0.2692
H12 H 0.1359 0.5415 0.2224
C12 C 0.1448(4) 0.3766(5) 0.2788(2)
H13 H 0.0748 0.3600 0.2806
H14 H 0.1675 0.3253 0.2430
C13 C 0.1951(3) 0.3244(5) 0.3385(2)
H15 H 0.1817 0.2278 0.3406
H16 H 0.2653 0.3342 0.3344
C14 C 0.0771(3) 0.3509(5) 0.4201(2)
H17 H 0.0809 0.3497 0.4666
H18 H 0.0591 0.2603 0.4055
C15 C -0.0022(3) 0.4462(5) 0.3977(2)
H19 H -0.0607 0.4289 0.4207
H20 H -0.0185 0.4319 0.3524
C16 C 0.0301(3) 0.5895(5) 0.4086(2)
H21 H 0.0349 0.6075 0.4543
H22 H -0.0194 0.6499 0.3891
loop_
_geom_bond_atom_site_label_1
_geom_bond_atom_site_label_2
_geom_bond_site_symmetry_1
_geom_bond_site_symmetry_2
Br1 C1 1_555 1_555
O1 C3 1_555 1_555
O2 C9 1_555 1_555
N1 C4 1_555 1_555
C1 H1 1_555 1_555
C2 C1 1_555 1_555
H2 C2 1_555 1_555
C3 C2 1_555 1_555
H3 C3 1_555 1_555
H4 C3 1_555 1_555
C4 O1 1_555 1_555
C5 C4 1_555 1_555
C6 C5 1_555 1_555
H5 C6 1_555 1_555
C7 C2 1_555 1_555
H6 C7 1_555 1_555
H7 C7 1_555 1_555
C8 C5 1_555 1_555
H8 C8 1_555 1_555
C9 C8 1_555 1_555
C10 C6 1_555 1_555
H9 C10 1_555 1_555
H10 C10 1_555 1_555
C11 C8 1_555 1_555
H11 C11 1_555 1_555
H12 C11 1_555 1_555
C12 C11 1_555 1_555
H13 C12 1_555 1_555
H14 C12 1_555 1_555
C13 N1 1_555 1_555
H15 C13 1_555 1_555
H16 C13 1_555 1_555
C14 N1 1_555 1_555
H17 C14 1_555 1_555
H18 C14 1_555 1_555
C15 C14 1_555 1_555
H19 C15 1_555 1_555
H20 C15 1_555 1_555
C16 C5 1_555 1_555
H21 C16 1_555 1_555
H22 C16 1_555 1_555
C1 C4 1_555 1_555
C6 C7 1_555 1_555
C9 C10 1_555 1_555
C12 C13 1_555 1_555
C15 C16 1_555 1_555

#END
