
#######################################################################
#
#                 Cambridge Crystallographic Data Centre
#                                CCDC 
#
#######################################################################
#
# If this CIF has been generated from an entry in the Cambridge 
# Structural Database, then it will include bibliographic, chemical, 
# crystal, experimental, refinement or atomic coordinate data resulting 
# from the CCDC's data processing and validation procedures.
#
#######################################################################

data_SONHUY
_chemical_formula_moiety         'C15 H34 N5 1+,C24 H20 B1 1-'
_chemical_name_systematic        
'4,10,15-Trimethyl-1-azonia-4,7,10,15-tetra-azabicyclo(5.5.5)heptadecane tetraphenylborate'
_symmetry_cell_setting           monoclinic
_symmetry_space_group_name_H-M   'P 21/n'
_symmetry_Int_Tables_number      14
_space_group_name_Hall           '-P 2yn'
loop_
_symmetry_equiv_pos_site_id
_symmetry_equiv_pos_as_xyz
1 x,y,z
2 1/2-x,1/2+y,1/2-z
3 -x,-y,-z
4 1/2+x,1/2-y,1/2+z
_cell_length_a                   9.92(1)
_cell_length_b                   23.07(1)
_cell_length_c                   15.769(5)
_cell_angle_alpha                90
_cell_angle_beta                 96.31(5)
_cell_angle_gamma                90
_cell_volume                     3586.94
_exptl_crystal_colour            colorless
_cell_formula_units_Z            4
loop_
_atom_site_label
_atom_site_type_symbol
_atom_site_fract_x
_atom_site_fract_y
_atom_site_fract_z
N1 N 0.5470(13) 0.1521(8) 0.6609(10)
N2 N 0.8106(14) 0.1583(6) 0.7058(9)
N3 N 0.8918(17) 0.0976(9) 0.5741(9)
N4 N 0.6838(17) 0.0417(5) 0.6581(10)
N5 N 0.8352(18) 0.0709(7) 0.8288(8)
C1 C 0.6101(22) 0.2087(8) 0.6425(10)
C2 C 0.7584(20) 0.2020(7) 0.6416(11)
C3 C 0.9652(19) 0.1539(8) 0.7010(13)
C4 C 0.9842(20) 0.1380(10) 0.6118(14)
C5 C 0.8952(21) 0.0373(9) 0.6093(12)
C6 C 0.7556(24) 0.0128(9) 0.6028(15)
C7 C 0.5390(19) 0.0527(8) 0.6259(10)
C8 C 0.5228(19) 0.1115(8) 0.5934(10)
C9 C 0.7910(19) 0.1736(7) 0.7930(12)
C10 C 0.8494(18) 0.1300(9) 0.8570(11)
C11 C 0.7001(18) 0.0484(9) 0.8186(11)
C12 C 0.6927(19) 0.0090(7) 0.7429(14)
C13 C 0.4288(17) 0.1645(7) 0.6961(10)
C14 C 0.8881(15) 0.0987(7) 0.4870(10)
C15 C 0.9243(13) 0.0349(6) 0.8826(9)
H21 H 0.592(2) 0.239(1) 0.692(1)
H22 H 0.566(2) 0.225(1) 0.581(1)
H23 H 0.778(2) 0.187(1) 0.579(1)
H24 H 0.808(2) 0.243(1) 0.655(1)
H25 H 1.010(2) 0.121(1) 0.745(1)
H26 H 1.012(2) 0.195(1) 0.717(1)
H27 H 1.085(2) 0.120(1) 0.613(1)
H28 H 0.977(2) 0.177(1) 0.573(1)
H29 H 0.935(2) 0.039(1) 0.676(1)
H30 H 0.961(2) 0.011(1) 0.575(1)
H31 H 0.763(2) -0.033(1) 0.619(1)
H32 H 0.708(2) 0.017(1) 0.538(1)
H33 H 0.477(2) 0.047(1) 0.677(1)
H34 H 0.508(2) 0.023(1) 0.575(1)
H35 H 0.421(2) 0.117(1) 0.563(1)
H36 H 0.594(2) 0.119(1) 0.548(1)
H37 H 0.837(2) 0.215(1) 0.809(1)
H38 H 0.683(2) 0.176(1) 0.797(1)
H39 H 0.803(2) 0.135(1) 0.916(1)
H40 H 0.957(2) 0.139(1) 0.869(1)
H41 H 0.679(2) 0.025(1) 0.875(1)
H42 H 0.629(2) 0.084(1) 0.807(1)
H43 H 0.780(2) -0.019(1) 0.749(1)
H44 H 0.602(2) -0.017(1) 0.743(1)
H45 H 0.379(2) 0.125(1) 0.710(1)
H46 H 0.362(2) 0.190(1) 0.652(1)
H47 H 0.454(2) 0.188(1) 0.755(1)
H48 H 0.815(1) 0.067(1) 0.460(1)
H49 H 0.987(1) 0.088(1) 0.470(1)
H50 H 0.860(1) 0.141(1) 0.463(1)
H51 H 0.913(1) -0.010(1) 0.863(1)
H52 H 0.899(1) 0.039(1) 0.947(1)
H53 H 1.028(1) 0.048(1) 0.879(1)
B1 B -0.2516(13) 0.1329(6) 0.1752(9)
C16 C -0.0838(11) 0.1410(4) 0.1836(7)
C17 C -0.0120(12) 0.1308(5) 0.1133(7)
C18 C 0.1307(12) 0.1322(5) 0.1201(8)
C19 C 0.2040(13) 0.1425(4) 0.1974(8)
C20 C 0.1381(12) 0.1516(4) 0.2684(8)
C21 C -0.0038(11) 0.1499(4) 0.2625(8)
C22 C -0.3262(11) 0.1702(5) 0.0928(7)
C23 C -0.2654(12) 0.2126(5) 0.0477(7)
C24 C -0.3312(12) 0.2445(5) -0.0196(8)
C25 C -0.4659(13) 0.2339(5) -0.0410(8)
C26 C -0.5349(13) 0.1932(5) 0.0008(8)
C27 C -0.4648(12) 0.1611(5) 0.0677(7)
C28 C -0.2738(11) 0.0634(5) 0.1617(8)
C29 C -0.2324(11) 0.0242(5) 0.2284(8)
C30 C -0.2425(12) -0.0352(6) 0.2219(8)
C31 C -0.2977(12) -0.0593(5) 0.1462(8)
C32 C -0.3355(11) -0.0242(5) 0.0778(8)
C33 C -0.3250(11) 0.0366(5) 0.0845(8)
C34 C -0.3154(11) 0.1599(5) 0.2564(7)
C35 C -0.4139(12) 0.1284(5) 0.2966(7)
C36 C -0.4778(12) 0.1540(6) 0.3642(8)
C37 C -0.4448(12) 0.2088(5) 0.3900(7)
C38 C -0.3494(12) 0.2405(5) 0.3544(8)
C39 C -0.2863(11) 0.2158(5) 0.2875(7)
H1 H -0.068(1) 0.122(1) 0.052(1)
H2 H 0.182(1) 0.125(1) 0.064(1)
H3 H 0.313(1) 0.144(1) 0.202(1)
H4 H 0.196(1) 0.160(1) 0.329(1)
H5 H -0.054(1) 0.156(1) 0.319(1)
H6 H -0.159(1) 0.222(1) 0.065(1)
H7 H -0.279(1) 0.277(1) -0.053(1)
H8 H -0.519(1) 0.257(1) -0.094(1)
H9 H -0.642(1) 0.187(1) -0.016(1)
H10 H -0.518(1) 0.128(1) 0.100(1)
H11 H -0.192(1) 0.042(1) 0.289(1)
H12 H -0.207(1) -0.062(1) 0.276(1)
H13 H -0.310(1) -0.106(1) 0.140(1)
H14 H -0.374(1) -0.043(1) 0.017(1)
H15 H -0.359(1) 0.063(1) 0.030(1)
H16 H -0.442(1) 0.085(1) 0.275(1)
H17 H -0.551(1) 0.129(1) 0.395(1)
H18 H -0.497(1) 0.228(1) 0.440(1)
H19 H -0.321(1) 0.283(1) 0.378(1)
H20 H -0.213(1) 0.241(1) 0.258(1)
loop_
_geom_bond_atom_site_label_1
_geom_bond_atom_site_label_2
_geom_bond_site_symmetry_1
_geom_bond_site_symmetry_2
N1 C1 1_555 1_555
N2 C2 1_555 1_555
N3 C4 1_555 1_555
N4 C6 1_555 1_555
N5 C10 1_555 1_555
C1 C2 1_555 1_555
C2 H23 1_555 1_555
C3 N2 1_555 1_555
C4 C3 1_555 1_555
C5 N3 1_555 1_555
C6 C5 1_555 1_555
C7 N4 1_555 1_555
C8 N1 1_555 1_555
C9 N2 1_555 1_555
C10 C9 1_555 1_555
C11 N5 1_555 1_555
C12 N4 1_555 1_555
C13 N1 1_555 1_555
C14 N3 1_555 1_555
C15 N5 1_555 1_555
B1 C16 1_555 1_555
C16 C17 1_555 1_555
C17 C18 1_555 1_555
C18 C19 1_555 1_555
C19 C20 1_555 1_555
C20 C21 1_555 1_555
C21 C16 1_555 1_555
C22 B1 1_555 1_555
C23 C22 1_555 1_555
C24 C23 1_555 1_555
C25 C24 1_555 1_555
C26 C25 1_555 1_555
C27 C22 1_555 1_555
C28 B1 1_555 1_555
C29 C28 1_555 1_555
C30 C29 1_555 1_555
C31 C30 1_555 1_555
C32 C31 1_555 1_555
C33 C28 1_555 1_555
C34 B1 1_555 1_555
C35 C34 1_555 1_555
C36 C35 1_555 1_555
C37 C36 1_555 1_555
C38 C37 1_555 1_555
C39 C34 1_555 1_555
H1 C17 1_555 1_555
H2 C18 1_555 1_555
H3 C19 1_555 1_555
H4 C20 1_555 1_555
H5 C21 1_555 1_555
H6 C23 1_555 1_555
H7 C24 1_555 1_555
H8 C25 1_555 1_555
H9 C26 1_555 1_555
H10 C27 1_555 1_555
H11 C29 1_555 1_555
H12 C30 1_555 1_555
H13 C31 1_555 1_555
H14 C32 1_555 1_555
H15 C33 1_555 1_555
H16 C35 1_555 1_555
H17 C36 1_555 1_555
H18 C37 1_555 1_555
H19 C38 1_555 1_555
H20 C39 1_555 1_555
H21 C1 1_555 1_555
H22 C1 1_555 1_555
H24 C2 1_555 1_555
H25 C3 1_555 1_555
H26 C3 1_555 1_555
H27 C4 1_555 1_555
H28 C4 1_555 1_555
H29 C5 1_555 1_555
H30 C5 1_555 1_555
H31 C6 1_555 1_555
H32 C6 1_555 1_555
H33 C7 1_555 1_555
H34 C7 1_555 1_555
H35 C8 1_555 1_555
H36 C8 1_555 1_555
H37 C9 1_555 1_555
H38 C9 1_555 1_555
H39 C10 1_555 1_555
H40 C10 1_555 1_555
H41 C11 1_555 1_555
H42 C11 1_555 1_555
H43 C12 1_555 1_555
H44 C12 1_555 1_555
H45 C13 1_555 1_555
H46 C13 1_555 1_555
H47 C13 1_555 1_555
H48 C14 1_555 1_555
H49 C14 1_555 1_555
H50 C14 1_555 1_555
H51 C15 1_555 1_555
H52 C15 1_555 1_555
H53 C15 1_555 1_555
C7 C8 1_555 1_555
C11 C12 1_555 1_555
C26 C27 1_555 1_555
C32 C33 1_555 1_555
C38 C39 1_555 1_555

#END
