
#######################################################################
#
#                 Cambridge Crystallographic Data Centre
#                                CCDC 
#
#######################################################################
#
# If this CIF has been generated from an entry in the Cambridge 
# Structural Database, then it will include bibliographic, chemical, 
# crystal, experimental, refinement or atomic coordinate data resulting 
# from the CCDC's data processing and validation procedures.
#
#######################################################################

data_SONLIR
_chemical_formula_moiety         'C66 H16 O1 Si1'
_chemical_name_systematic        
1-(Isopropoxy(dimethyl)silylmethyl)-1,9-dihydro-C60(5,6)fullerene
_symmetry_cell_setting           tetragonal
_symmetry_space_group_name_H-M   'P 42/n'
_symmetry_Int_Tables_number      86
_space_group_name_Hall           '-P 4bc'
loop_
_symmetry_equiv_pos_site_id
_symmetry_equiv_pos_as_xyz
1 x,y,z
2 1/2-x,1/2-y,z
3 -y,1/2+x,1/2+z
4 1/2+y,-x,1/2+z
5 -x,-y,-z
6 1/2+x,1/2+y,-z
7 y,1/2-x,1/2-z
8 1/2-y,x,1/2-z
_cell_length_a                   22.7780(8)
_cell_length_b                   22.7780(8)
_cell_length_c                   13.8550(3)
_cell_angle_alpha                90
_cell_angle_beta                 90
_cell_angle_gamma                90
_cell_volume                     7188.49
_exptl_crystal_colour            orange
_exptl_crystal_description       prism
_cell_formula_units_Z            8
_exptl_crystal_recrystallization_method 'carbon disulfide'
loop_
_atom_site_label
_atom_site_type_symbol
_atom_site_fract_x
_atom_site_fract_y
_atom_site_fract_z
C1 C 0.78621(13) -0.07179(14) 0.8465(2)
C2 C 0.76978(14) -0.09922(13) 0.7492(2)
C3 C 0.71240(14) -0.08023(14) 0.7199(2)
C4 C 0.69541(13) -0.03077(15) 0.7824(2)
C5 C 0.74221(13) -0.02090(13) 0.8488(2)
C6 C 0.85255(13) -0.05143(14) 0.8503(2)
C7 C 0.80957(16) -0.11691(13) 0.6815(2)
C8 C 0.69520(16) -0.08113(15) 0.6241(3)
C9 C 0.66222(14) 0.01447(16) 0.7448(2)
C10 C 0.75656(14) 0.03588(13) 0.8730(2)
C11 C 0.88864(14) -0.06384(15) 0.7604(2)
C12 C 0.87050(16) -0.09826(14) 0.6867(3)
C13 C 0.79244(18) -0.11729(14) 0.5792(3)
C14 C 0.73643(17) -0.10041(14) 0.5524(2)
C15 C 0.66115(14) -0.03287(16) 0.5854(3)
C16 C 0.64502(13) 0.01397(17) 0.6429(3)
C17 C 0.67659(14) 0.07323(15) 0.7705(2)
C18 C 0.72311(14) 0.08419(14) 0.8327(2)
C19 C 0.81837(15) 0.05416(14) 0.8793(2)
C20 C 0.86270(14) 0.01478(15) 0.8611(2)
C21 C 0.92798(14) -0.01492(17) 0.7414(3)
C22 C 0.89087(16) -0.08774(15) 0.5888(3)
C23 C 0.84339(18) -0.09945(15) 0.5245(3)
C24 C 0.72828(17) -0.06398(16) 0.4672(2)
C25 C 0.68208(16) -0.02216(17) 0.4867(3)
C26 C 0.64875(14) 0.07293(18) 0.6074(3)
C27 C 0.66816(15) 0.11067(17) 0.6857(3)
C28 C 0.76277(17) 0.13244(14) 0.8141(2)
C29 C 0.82234(17) 0.11373(14) 0.8423(2)
C30 C 0.91127(13) 0.03327(15) 0.8023(2)
C31 C 0.94898(14) -0.00437(18) 0.6487(3)
C32 C 0.92948(15) -0.04246(17) 0.5710(3)
C33 C 0.83534(18) -0.06506(15) 0.4417(2)
C34 C 0.77595(18) -0.04669(16) 0.4129(2)
C35 C 0.68553(14) 0.03554(16) 0.4526(2)
C36 C 0.66850(14) 0.08346(16) 0.5151(3)
C37 C 0.70670(17) 0.15673(15) 0.6690(3)
C38 C 0.75475(18) 0.16823(14) 0.7337(3)
C39 C 0.86980(17) 0.13188(15) 0.7885(3)
C40 C 0.91528(15) 0.09110(16) 0.7694(3)
C41 C 0.95324(13) 0.05449(19) 0.6133(3)
C42 C 0.92171(15) -0.00512(18) 0.4857(3)
C43 C 0.87527(16) -0.01655(16) 0.4220(2)
C44 C 0.78024(16) 0.01355(16) 0.3763(2)
C45 C 0.73607(15) 0.05394(16) 0.3966(2)
C46 C 0.70942(15) 0.13267(16) 0.4960(2)
C47 C 0.72762(17) 0.16775(15) 0.5707(3)
C48 C 0.80562(18) 0.18655(13) 0.6787(3)
C49 C 0.86123(18) 0.16941(15) 0.7035(3)
C50 C 0.93683(15) 0.10196(17) 0.6708(3)
C51 C 0.93609(15) 0.05393(18) 0.5112(3)
C52 C 0.84140(16) 0.03178(15) 0.3822(2)
C53 C 0.75066(15) 0.11380(15) 0.4229(2)
C54 C 0.78793(17) 0.18623(13) 0.5763(3)
C55 C 0.90322(17) 0.14984(16) 0.6320(3)
C56 C 0.90379(14) 0.10052(16) 0.4733(2)
C57 C 0.85538(14) 0.08931(15) 0.4077(2)
C58 C 0.80949(15) 0.13085(14) 0.4282(2)
C59 C 0.82828(15) 0.16854(14) 0.5072(2)
C60 C 0.88714(16) 0.14991(15) 0.5356(3)
C61 C 0.77365(15) -0.11732(15) 0.9295(2)
C62 C 0.7329(3) -0.0366(2) 1.0995(3)
C63 C 0.7612(3) -0.1647(2) 1.1311(4)
C64 C 0.87679(18) -0.05654(18) 1.1634(3)
C65 C 0.9112(2) -0.1034(2) 1.2144(3)
H1 H 0.885 -0.134 1.2351
H2 H 0.9305 -0.0868 1.2696
H3 H 0.9399 -0.1195 1.1712
C66 C 0.9152(5) -0.0082(4) 1.1301(6)
H4 H 0.892 0.021 1.0979
H5 H 0.944 -0.0235 1.0861
H6 H 0.9346 0.0091 1.1846
O1 O 0.85054(12) -0.08153(12) 1.07449(18)
Si1 Si 0.78140(4) -0.09793(4) 1.06098(7)
H7 H 0.8722(16) -0.0763(16) 0.910(3)
H8 H 0.8001(19) -0.1562(19) 0.916(3)
H9 H 0.731(2) -0.1261(19) 0.917(3)
H10 H 0.753(2) 0.000(2) 1.073(4)
H11 H 0.686(3) -0.052(3) 1.093(5)
H12 H 0.734(3) -0.028(3) 1.181(5)
H13 H 0.795(3) -0.194(3) 1.114(4)
H14 H 0.698(9) -0.147(8) 1.144(12)
H15 H 0.773(2) -0.150(2) 1.198(4)
H16 H 0.833(3) -0.044(3) 1.198(4)
loop_
_geom_bond_atom_site_label_1
_geom_bond_atom_site_label_2
_geom_bond_site_symmetry_1
_geom_bond_site_symmetry_2
C1 C2 1_555 1_555
C2 C3 1_555 1_555
C3 C4 1_555 1_555
C4 C5 1_555 1_555
C5 C1 1_555 1_555
C6 C1 1_555 1_555
C7 C2 1_555 1_555
C8 C3 1_555 1_555
C9 C4 1_555 1_555
C10 C5 1_555 1_555
C11 C6 1_555 1_555
C12 C7 1_555 1_555
C13 C7 1_555 1_555
C14 C8 1_555 1_555
C15 C8 1_555 1_555
C16 C9 1_555 1_555
C17 C9 1_555 1_555
C18 C10 1_555 1_555
C19 C10 1_555 1_555
C20 C6 1_555 1_555
C21 C11 1_555 1_555
C22 C12 1_555 1_555
C23 C13 1_555 1_555
C24 C14 1_555 1_555
C25 C15 1_555 1_555
C26 C16 1_555 1_555
C27 C17 1_555 1_555
C28 C18 1_555 1_555
C29 C19 1_555 1_555
C30 C20 1_555 1_555
C31 C21 1_555 1_555
C32 C22 1_555 1_555
C33 C23 1_555 1_555
C34 C24 1_555 1_555
C35 C25 1_555 1_555
C36 C26 1_555 1_555
C37 C27 1_555 1_555
C38 C28 1_555 1_555
C39 C29 1_555 1_555
C40 C30 1_555 1_555
C41 C31 1_555 1_555
C42 C32 1_555 1_555
C43 C33 1_555 1_555
C44 C34 1_555 1_555
C45 C35 1_555 1_555
C46 C36 1_555 1_555
C47 C37 1_555 1_555
C48 C38 1_555 1_555
C49 C39 1_555 1_555
C50 C40 1_555 1_555
C51 C41 1_555 1_555
C52 C43 1_555 1_555
C53 C45 1_555 1_555
C54 C47 1_555 1_555
C55 C49 1_555 1_555
C56 C51 1_555 1_555
C57 C52 1_555 1_555
C58 C53 1_555 1_555
C59 C54 1_555 1_555
C60 C55 1_555 1_555
C61 C1 1_555 1_555
C62 Si1 1_555 1_555
C63 Si1 1_555 1_555
C64 C65 1_555 1_555
C65 H1 1_555 1_555
H2 C65 1_555 1_555
H3 C65 1_555 1_555
C66 C64 1_555 1_555
H4 C66 1_555 1_555
H5 C66 1_555 1_555
H6 C66 1_555 1_555
O1 C64 1_555 1_555
Si1 C61 1_555 1_555
H7 C6 1_555 1_555
H8 C61 1_555 1_555
H9 C61 1_555 1_555
H10 C62 1_555 1_555
H11 C62 1_555 1_555
H12 C62 1_555 1_555
H13 C63 1_555 1_555
H14 C63 1_555 1_555
H15 C63 1_555 1_555
H16 C64 1_555 1_555
C11 C12 1_555 1_555
C13 C14 1_555 1_555
C15 C16 1_555 1_555
C17 C18 1_555 1_555
C19 C20 1_555 1_555
C21 C30 1_555 1_555
C22 C23 1_555 1_555
C24 C25 1_555 1_555
C26 C27 1_555 1_555
C28 C29 1_555 1_555
C31 C32 1_555 1_555
C33 C34 1_555 1_555
C35 C36 1_555 1_555
C37 C38 1_555 1_555
C39 C40 1_555 1_555
C41 C50 1_555 1_555
C42 C43 1_555 1_555
C42 C51 1_555 1_555
C44 C45 1_555 1_555
C44 C52 1_555 1_555
C46 C47 1_555 1_555
C46 C53 1_555 1_555
C48 C49 1_555 1_555
C48 C54 1_555 1_555
C50 C55 1_555 1_555
C56 C57 1_555 1_555
C56 C60 1_555 1_555
C57 C58 1_555 1_555
C58 C59 1_555 1_555
C59 C60 1_555 1_555
O1 Si1 1_555 1_555

#END
