
#######################################################################
#
#                 Cambridge Crystallographic Data Centre
#                                CCDC 
#
#######################################################################
#
# If this CIF has been generated from an entry in the Cambridge 
# Structural Database, then it will include bibliographic, chemical, 
# crystal, experimental, refinement or atomic coordinate data resulting 
# from the CCDC's data processing and validation procedures.
#
#######################################################################

data_SONMEP
_chemical_formula_moiety         'C7 H9 N1 O3 S1'
_chemical_name_systematic        
3-hydroxy-5-methyldihydro-2H-thieno[2,3-c]pyrrole-4,6(3H,5H)-dione
_symmetry_cell_setting           monoclinic
_symmetry_space_group_name_H-M   'P 21/c'
_symmetry_Int_Tables_number      14
_space_group_name_Hall           '-P 2ybc'
loop_
_symmetry_equiv_pos_site_id
_symmetry_equiv_pos_as_xyz
1 x,y,z
2 -x,1/2+y,1/2-z
3 -x,-y,-z
4 x,1/2-y,1/2+z
_cell_length_a                   11.2301(9)
_cell_length_b                   4.8137(4)
_cell_length_c                   15.8196(17)
_cell_angle_alpha                90
_cell_angle_beta                 97.237(9)
_cell_angle_gamma                90
_cell_volume                     848.368
_exptl_crystal_colour            'light colorless'
_exptl_crystal_description       needle
_cell_formula_units_Z            4
loop_
_atom_site_label
_atom_site_type_symbol
_atom_site_fract_x
_atom_site_fract_y
_atom_site_fract_z
S1 S 0.30824(9) 0.0536(2) 0.95591(6)
O1 O 0.08788(19) -0.0669(4) 0.82007(15)
H1 H 0.0193 -0.1104 0.8274
O2 O 0.14127(18) 0.2717(5) 0.65769(13)
O3 O 0.45474(18) -0.1775(4) 0.80771(14)
N1 N 0.3040(2) 0.0231(5) 0.71664(15)
C1 C 0.1583(3) 0.1982(8) 0.9470(2)
H2 H 0.1066 0.0836 0.9773
H3 H 0.1601 0.3844 0.9705
C2 C 0.1132(3) 0.2037(6) 0.85252(19)
H4 H 0.0424 0.3235 0.8412
C3 C 0.2170(2) 0.3178(6) 0.80906(19)
H5 H 0.2173 0.5214 0.8100
C4 C 0.3355(2) 0.2021(6) 0.85528(19)
H6 H 0.3949 0.3515 0.8650
C5 C 0.3760(3) -0.0084(6) 0.7942(2)
C6 C 0.2133(2) 0.2123(6) 0.71997(19)
C7 C 0.3209(3) -0.1309(7) 0.6397(2)
H7 H 0.3559 -0.0111 0.6010
H8 H 0.2446 -0.1971 0.6130
H9 H 0.3732 -0.2859 0.6543
loop_
_geom_bond_atom_site_label_1
_geom_bond_atom_site_label_2
_geom_bond_site_symmetry_1
_geom_bond_site_symmetry_2
S1 C1 1_555 1_555
O1 H1 1_555 1_555
O2 C6 1_555 1_555
O3 C5 1_555 1_555
N1 C5 1_555 1_555
C1 H2 1_555 1_555
H3 C1 1_555 1_555
C2 O1 1_555 1_555
H4 C2 1_555 1_555
C3 C2 1_555 1_555
H5 C3 1_555 1_555
C4 S1 1_555 1_555
H6 C4 1_555 1_555
C5 C4 1_555 1_555
C6 N1 1_555 1_555
C7 N1 1_555 1_555
H7 C7 1_555 1_555
H8 C7 1_555 1_555
H9 C7 1_555 1_555
C1 C2 1_555 1_555
C3 C4 1_555 1_555
C3 C6 1_555 1_555

#END
