
#######################################################################
#
#                 Cambridge Crystallographic Data Centre
#                                CCDC 
#
#######################################################################
#
# If this CIF has been generated from an entry in the Cambridge 
# Structural Database, then it will include bibliographic, chemical, 
# crystal, experimental, refinement or atomic coordinate data resulting 
# from the CCDC's data processing and validation procedures.
#
#######################################################################

data_SOPCUV
_chemical_formula_moiety         'C16 H18 N2 O2 Se2'
_chemical_name_systematic        
8,17-Dimethoxy-2,11-diselena(3.3)(2,6)pyridinophane
_symmetry_cell_setting           monoclinic
_symmetry_space_group_name_H-M   'P 21/c'
_symmetry_Int_Tables_number      14
_space_group_name_Hall           '-P 2ybc'
loop_
_symmetry_equiv_pos_site_id
_symmetry_equiv_pos_as_xyz
1 x,y,z
2 -x,1/2+y,1/2-z
3 -x,-y,-z
4 x,1/2-y,1/2+z
_cell_length_a                   14.678(1)
_cell_length_b                   9.027(1)
_cell_length_c                   13.972(1)
_cell_angle_alpha                90
_cell_angle_beta                 118.23(1)
_cell_angle_gamma                90
_cell_volume                     1631.07
_exptl_crystal_colour            colorless
_chemical_melting_point          175-177deg.C
_cell_formula_units_Z            4
loop_
_atom_site_label
_atom_site_type_symbol
_atom_site_fract_x
_atom_site_fract_y
_atom_site_fract_z
C1 C 0.3780(3) 0.3719(4) 0.5455(3)
Se1 Se 0.3800(1) 0.1774(1) 0.4866(1)
C2 C 0.4238(3) 0.2317(5) 0.3788(4)
C3 C 0.3484(3) 0.3211(4) 0.2845(3)
C4 C 0.2497(3) 0.2679(5) 0.2146(3)
C5 C 0.1868(3) 0.3551(5) 0.1267(3)
O1 O 0.0888(3) 0.3186(3) 0.0497(3)
C6 C 0.0457(4) 0.1844(6) 0.0629(5)
C7 C 0.2213(4) 0.4920(5) 0.1126(4)
C8 C 0.3189(4) 0.5363(5) 0.1870(3)
N1 N 0.3830(3) 0.4528(4) 0.2712(3)
C9 C 0.3580(4) 0.6876(5) 0.1787(4)
Se2 Se 0.2768(1) 0.8503(1) 0.1904(1)
C10 C 0.3046(4) 0.8223(5) 0.3405(4)
C11 C 0.2619(3) 0.6847(4) 0.3638(3)
C12 C 0.1566(3) 0.6512(5) 0.3061(3)
C13 C 0.1233(3) 0.5226(4) 0.3333(3)
O2 O 0.0235(2) 0.4734(4) 0.2832(3)
C14 C -0.0449(4) 0.5412(7) 0.1834(4)
C15 C 0.1936(3) 0.4329(4) 0.4145(3)
C16 C 0.2969(3) 0.4733(4) 0.4647(3)
N2 N 0.3305(3) 0.5985(4) 0.4420(3)
H1 H 0.4446 0.4173 0.5707
H2 H 0.3658 0.3599 0.6068
H3 H 0.4384 0.1424 0.3513
H4 H 0.4871 0.2868 0.4149
H5 H 0.2257 0.1747 0.2272
H6 H -0.0231 0.1720 0.0040
H7 H 0.0879 0.1025 0.0638
H8 H 0.0434 0.1878 0.1304
H9 H 0.1775 0.5543 0.0526
H10 H 0.3587 0.6954 0.1105
H11 H 0.4279 0.6977 0.2356
H12 H 0.2769 0.9057 0.3608
H13 H 0.3782 0.8225 0.3861
H14 H 0.1091 0.7151 0.2497
H15 H -0.1121 0.4972 0.1567
H16 H -0.0494 0.6455 0.1935
H17 H -0.0200 0.5255 0.1318
H18 H 0.1715 0.3445 0.4358
loop_
_geom_bond_atom_site_label_1
_geom_bond_atom_site_label_2
_geom_bond_site_symmetry_1
_geom_bond_site_symmetry_2
C1 Se1 1_555 1_555
Se1 C2 1_555 1_555
C2 C3 1_555 1_555
C3 C4 1_555 1_555
C4 C5 1_555 1_555
C5 O1 1_555 1_555
O1 C6 1_555 1_555
C6 H6 1_555 1_555
C7 C5 1_555 1_555
C8 C7 1_555 1_555
N1 C3 1_555 1_555
C9 C8 1_555 1_555
Se2 C9 1_555 1_555
C10 Se2 1_555 1_555
C11 C10 1_555 1_555
C12 C11 1_555 1_555
C13 C12 1_555 1_555
O2 C13 1_555 1_555
C14 O2 1_555 1_555
C15 C13 1_555 1_555
C16 C1 1_555 1_555
N2 C11 1_555 1_555
H1 C1 1_555 1_555
H2 C1 1_555 1_555
H3 C2 1_555 1_555
H4 C2 1_555 1_555
H5 C4 1_555 1_555
H7 C6 1_555 1_555
H8 C6 1_555 1_555
H9 C7 1_555 1_555
H10 C9 1_555 1_555
H11 C9 1_555 1_555
H12 C10 1_555 1_555
H13 C10 1_555 1_555
H14 C12 1_555 1_555
H15 C14 1_555 1_555
H16 C14 1_555 1_555
H17 C14 1_555 1_555
H18 C15 1_555 1_555
C8 N1 1_555 1_555
C15 C16 1_555 1_555
C16 N2 1_555 1_555

#END
