
#######################################################################
#
#                 Cambridge Crystallographic Data Centre
#                                CCDC 
#
#######################################################################
#
# If this CIF has been generated from an entry in the Cambridge 
# Structural Database, then it will include bibliographic, chemical, 
# crystal, experimental, refinement or atomic coordinate data resulting 
# from the CCDC's data processing and validation procedures.
#
#######################################################################

data_SOPLUE
_chemical_formula_moiety         'C31 H29 N1 O7'
_chemical_name_systematic        
4-Acetoxy-1-acetyl-2,6-bis(o-acetoxyphenyl)-3-phenylpiperidin-3-ene
_symmetry_cell_setting           monoclinic
_symmetry_space_group_name_H-M   'P 21/n'
_symmetry_Int_Tables_number      14
_space_group_name_Hall           '-P 2yn'
loop_
_symmetry_equiv_pos_site_id
_symmetry_equiv_pos_as_xyz
1 x,y,z
2 1/2-x,1/2+y,1/2-z
3 -x,-y,-z
4 1/2+x,1/2-y,1/2+z
_cell_length_a                   9.446(2)
_cell_length_b                   23.947(8)
_cell_length_c                   12.092(3)
_cell_angle_alpha                90
_cell_angle_beta                 93.46(2)
_cell_angle_gamma                90
_cell_volume                     2730.27
_chemical_melting_point          202-203deg.C
_cell_formula_units_Z            4
loop_
_atom_site_label
_atom_site_type_symbol
_atom_site_fract_x
_atom_site_fract_y
_atom_site_fract_z
N1 N -0.1741(2) 0.07536(6) 0.5407(1)
C1 C -0.1384(2) 0.11143(7) 0.6378(1)
C2 C 0.0026(2) 0.14068(7) 0.6279(1)
C3 C 0.0333(2) 0.15722(7) 0.5283(1)
C4 C -0.0626(2) 0.14953(9) 0.4273(2)
C5 C -0.1606(2) 0.09755(8) 0.4280(1)
C6 C -0.1800(2) 0.01889(8) 0.5581(2)
O1 O -0.1538(2) -0.00177(6) 0.6500(1)
C7 C -0.2254(3) -0.01771(9) 0.4614(2)
C8 C -0.2566(2) 0.15269(8) 0.6610(1)
C9 C -0.3788(2) 0.13438(8) 0.7087(2)
C10 C -0.4887(2) 0.16979(9) 0.7301(2)
C11 C -0.4786(2) 0.22557(9) 0.7065(2)
C12 C -0.3583(2) 0.24536(9) 0.6602(2)
C13 C -0.2491(2) 0.20952(8) 0.6374(2)
O2 O -0.3961(2) 0.07730(6) 0.7293(1)
C14 C -0.3578(3) 0.0593(1) 0.8325(2)
O3 O -0.2975(3) 0.08826(9) 0.8987(2)
C15 C -0.3971(4) -0.0006(1) 0.8460(3)
C16 C 0.0890(2) 0.15064(8) 0.7325(1)
C17 C 0.1411(2) 0.10563(8) 0.7950(2)
C18 C 0.2212(2) 0.1142(1) 0.8930(2)
C19 C 0.2465(2) 0.1675(1) 0.9306(2)
C20 C 0.1927(3) 0.2122(1) 0.8713(2)
C21 C 0.1154(2) 0.20419(8) 0.7718(2)
O4 O 0.1624(1) 0.18424(5) 0.5089(1)
C22 C 0.1527(2) 0.24078(8) 0.4934(2)
O5 O 0.0447(1) 0.26522(6) 0.5040(1)
C23 C 0.2888(2) 0.2652(1) 0.4624(2)
C24 C -0.3018(2) 0.11055(7) 0.3661(2)
C25 C -0.3059(2) 0.12070(8) 0.2523(2)
C26 C -0.4289(2) 0.13506(9) 0.1918(2)
C27 C -0.5530(2) 0.1396(1) 0.2450(2)
C28 C -0.5537(2) 0.1287(1) 0.3577(2)
C29 C -0.4291(2) 0.11419(9) 0.4166(2)
O6 O -0.1792(1) 0.11845(6) 0.1975(1)
C30 C -0.1454(3) 0.0685(1) 0.1531(2)
O7 O -0.2168(2) 0.02841(7) 0.1602(2)
C31 C -0.0087(3) 0.0724(2) 0.0976(2)
H1 H -0.1310(20) 0.0851(8) 0.7010(10)
H2 H 0.0000(30) 0.1430(10) 0.3640(20)
H3 H -0.1230(20) 0.1820(10) 0.4190(20)
H4 H -0.1180(20) 0.0693(8) 0.3920(20)
H5 H -0.2370(30) -0.0540(10) 0.4980(20)
H6 H -0.1390(30) -0.0230(10) 0.4150(30)
H7 H -0.2970(30) -0.0020(10) 0.4150(20)
H8 H -0.3510(30) -0.0240(10) 0.8020(20)
H9 H -0.5140(40) 0.0030(20) 0.8480(30)
H10 H -0.3750(40) -0.0060(10) 0.9220(30)
H11 H 0.3690(30) 0.2430(10) 0.5000(20)
H12 H 0.2870(30) 0.3020(10) 0.4540(20)
H13 H 0.3120(30) 0.2520(20) 0.3880(30)
H14 H 0.0710(30) 0.0860(10) 0.1490(30)
H15 H 0.0190(40) 0.0410(20) 0.0820(30)
H16 H -0.0190(40) 0.0960(20) 0.0470(30)
loop_
_geom_bond_atom_site_label_1
_geom_bond_atom_site_label_2
_geom_bond_site_symmetry_1
_geom_bond_site_symmetry_2
N1 C1 1_555 1_555
C1 C2 1_555 1_555
C2 C3 1_555 1_555
C3 C4 1_555 1_555
C4 C5 1_555 1_555
C5 N1 1_555 1_555
C6 N1 1_555 1_555
O1 C6 1_555 1_555
C7 C6 1_555 1_555
C8 C1 1_555 1_555
C9 C8 1_555 1_555
C10 C9 1_555 1_555
C11 C10 1_555 1_555
C12 C11 1_555 1_555
C13 C8 1_555 1_555
O2 C9 1_555 1_555
C14 O2 1_555 1_555
O3 C14 1_555 1_555
C15 C14 1_555 1_555
C16 C2 1_555 1_555
C17 C16 1_555 1_555
C18 C17 1_555 1_555
C19 C18 1_555 1_555
C20 C19 1_555 1_555
C21 C16 1_555 1_555
O4 C3 1_555 1_555
C22 O4 1_555 1_555
O5 C22 1_555 1_555
C23 C22 1_555 1_555
C24 C5 1_555 1_555
C25 C24 1_555 1_555
C26 C25 1_555 1_555
C27 C26 1_555 1_555
C28 C27 1_555 1_555
C29 C24 1_555 1_555
O6 C25 1_555 1_555
C30 O6 1_555 1_555
O7 C30 1_555 1_555
C31 C30 1_555 1_555
H1 C1 1_555 1_555
H2 C4 1_555 1_555
H3 C4 1_555 1_555
H4 C5 1_555 1_555
H5 C7 1_555 1_555
H6 C7 1_555 1_555
H7 C7 1_555 1_555
H8 C15 1_555 1_555
H9 C15 1_555 1_555
H10 C15 1_555 1_555
H11 C23 1_555 1_555
H12 C23 1_555 1_555
H13 C23 1_555 1_555
H14 C31 1_555 1_555
H15 C31 1_555 1_555
H16 C31 1_555 1_555
C12 C13 1_555 1_555
C20 C21 1_555 1_555
C28 C29 1_555 1_555

#END
