
#######################################################################
#
#                 Cambridge Crystallographic Data Centre
#                                CCDC 
#
#######################################################################
#
# If this CIF has been generated from an entry in the Cambridge 
# Structural Database, then it will include bibliographic, chemical, 
# crystal, experimental, refinement or atomic coordinate data resulting 
# from the CCDC's data processing and validation procedures.
#
#######################################################################

data_SOPPIY
_chemical_formula_moiety         'C22 H19 N2 O3 1+,Cl1 O4 1-'
_chemical_name_systematic        
'9-Benzoyl-7-(2-hydroxybenzoyl)-3,4-dihydro-2H-pyrido[1,2-a]pyrimidin-1-ium perchlorate'
_symmetry_cell_setting           monoclinic
_symmetry_space_group_name_H-M   'P 21/c'
_symmetry_Int_Tables_number      14
_space_group_name_Hall           '-P 2ybc'
loop_
_symmetry_equiv_pos_site_id
_symmetry_equiv_pos_as_xyz
1 x,y,z
2 -x,1/2+y,1/2-z
3 -x,-y,-z
4 x,1/2-y,1/2+z
_cell_length_a                   6.6552(16)
_cell_length_b                   23.041(6)
_cell_length_c                   13.440(3)
_cell_angle_alpha                90
_cell_angle_beta                 103.712(4)
_cell_angle_gamma                90
_cell_volume                     2002.19
_exptl_crystal_colour            yellow
_exptl_crystal_description       prism
_cell_formula_units_Z            4
loop_
_atom_site_label
_atom_site_type_symbol
_atom_site_fract_x
_atom_site_fract_y
_atom_site_fract_z
C1 C -0.4599(12) -0.0634(4) 0.3499(11)
H1 H -0.5914 -0.0805 0.3463
O1 O -0.3331(7) 0.1089(3) 0.4386(5)
O2 O 0.4740(12) 0.1306(4) 0.1828(4)
N1 N 0.4420(10) 0.2140(2) 0.3245(4)
H2 H 0.4977 0.2050 0.2734
C2 C 0.3740(10) 0.2878(3) 0.4439(5)
H3 H 0.4425 0.3165 0.4958
H4 H 0.2615 0.3078 0.3943
C3 C -0.0750(8) -0.0145(3) 0.3622(4)
H5 H 0.0578 0.0021 0.3675
C4 C -0.1051(10) -0.0733(3) 0.3420(5)
H6 H 0.0068 -0.0969 0.3336
N2 N 0.2028(8) 0.1918(3) 0.4180(4)
C5 C -0.2978(11) -0.0974(4) 0.3340(7)
H7 H -0.3200 -0.1374 0.3177
C6 C -0.4313(10) -0.0065(5) 0.3702(10)
C7 C -0.2370(9) 0.0205(3) 0.3749(6)
C8 C -0.2103(9) 0.0818(3) 0.3982(5)
C9 C -0.0370(9) 0.1152(3) 0.3723(4)
C10 C 0.0435(10) 0.1039(3) 0.2857(4)
H8 H -0.0124 0.0730 0.2409
C11 C 0.2015(12) 0.1369(3) 0.2653(5)
C12 C 0.2871(14) 0.1219(4) 0.1765(5)
C13 C 0.1518(14) 0.0997(3) 0.0804(5)
C14 C 0.2435(15) 0.0662(3) 0.0165(5)
H9 H 0.3861 0.0566 0.0379
C15 C 0.1328(17) 0.0474(3) -0.0751(6)
H10 H 0.1971 0.0240 -0.1168
C16 C -0.0759(17) 0.0620(3) -0.1090(5)
H11 H -0.1523 0.0489 -0.1740
O3 O -0.5897(9) 0.0234(4) 0.3906(10)
H12 H -0.5538 0.0580 0.4038
C17 C -0.1722(14) 0.0957(3) -0.0480(5)
H13 H -0.3140 0.1059 -0.0708
C18 C -0.0573(13) 0.1141(3) 0.0469(5)
H14 H -0.1217 0.1369 0.0896
C19 C 0.2891(10) 0.1829(3) 0.3383(5)
C20 C 0.5281(12) 0.2636(3) 0.3893(6)
H15 H 0.5687 0.2943 0.3463
H16 H 0.6537 0.2511 0.4403
C21 C 0.2869(13) 0.2399(5) 0.4942(5)
H17 H 0.1742 0.2552 0.5235
H18 H 0.3958 0.2240 0.5509
C22 C 0.0435(9) 0.1603(3) 0.4338(5)
H19 H -0.0148 0.1700 0.4897
Cl1 Cl 0.8545(2) 0.27441(5) 0.19273(10)
O4 O 0.7219(14) 0.2213(3) 0.1879(7)
O5 O 0.9091(15) 0.2949(6) 0.2944(7)
O6 O 0.716(2) 0.3162(4) 0.1300(12)
O7 O 1.011(2) 0.2645(5) 0.1514(14)
O8? O 0.7279(19) 0.3216(5) 0.1926(11)
O9? O 0.8091(17) 0.2473(5) 0.0918(8)
O10? O 0.8612(16) 0.2312(4) 0.2688(9)
O11? O 1.0749(17) 0.2957(6) 0.2046(9)
loop_
_geom_bond_atom_site_label_1
_geom_bond_atom_site_label_2
_geom_bond_site_symmetry_1
_geom_bond_site_symmetry_2
C1 H1 1_555 1_555
O1 C8 1_555 1_555
O2 C12 1_555 1_555
N1 H2 1_555 1_555
C2 H3 1_555 1_555
H4 C2 1_555 1_555
C3 H5 1_555 1_555
C4 C3 1_555 1_555
H6 C4 1_555 1_555
N2 C19 1_555 1_555
C5 C1 1_555 1_555
H7 C5 1_555 1_555
C6 C1 1_555 1_555
C7 C3 1_555 1_555
C8 C7 1_555 1_555
C9 C8 1_555 1_555
C10 C9 1_555 1_555
H8 C10 1_555 1_555
C11 C10 1_555 1_555
C12 C11 1_555 1_555
C13 C12 1_555 1_555
C14 C13 1_555 1_555
H9 C14 1_555 1_555
C15 C14 1_555 1_555
H10 C15 1_555 1_555
C16 C15 1_555 1_555
H11 C16 1_555 1_555
O3 C6 1_555 1_555
H12 O3 1_555 1_555
C17 C16 1_555 1_555
H13 C17 1_555 1_555
C18 C13 1_555 1_555
H14 C18 1_555 1_555
C19 N1 1_555 1_555
C20 N1 1_555 1_555
H15 C20 1_555 1_555
H16 C20 1_555 1_555
C21 C2 1_555 1_555
H17 C21 1_555 1_555
H18 C21 1_555 1_555
C22 N2 1_555 1_555
H19 C22 1_555 1_555
Cl1 O4 1_555 1_555
O5 Cl1 1_555 1_555
O6 Cl1 1_555 1_555
O7 Cl1 1_555 1_555
C2 C20 1_555 1_555
C4 C5 1_555 1_555
N2 C21 1_555 1_555
C6 C7 1_555 1_555
C9 C22 1_555 1_555
C11 C19 1_555 1_555
C17 C18 1_555 1_555

#END
