
#######################################################################
#
#                 Cambridge Crystallographic Data Centre
#                                CCDC 
#
#######################################################################
#
# If this CIF has been generated from an entry in the Cambridge 
# Structural Database, then it will include bibliographic, chemical, 
# crystal, experimental, refinement or atomic coordinate data resulting 
# from the CCDC's data processing and validation procedures.
#
#######################################################################

data_SOPXEB
_chemical_name_common            
'6-(4-Chlorophenyl)-4-t-butyl-3,6-dihydro-2H-1,3-thiazin-2-iminium chloride'
_chemical_formula_moiety         'C14 H18 Cl1 N2 S1 1+,Cl1 1-'
_chemical_name_systematic        
'2-Amino-6-(4-chlorophenyl)-4-t-butyl-1,3-thiazine hydrochloride'
_symmetry_cell_setting           monoclinic
_symmetry_space_group_name_H-M   'P 21/c'
_symmetry_Int_Tables_number      14
_space_group_name_Hall           '-P 2ybc'
loop_
_symmetry_equiv_pos_site_id
_symmetry_equiv_pos_as_xyz
1 x,y,z
2 -x,1/2+y,1/2-z
3 -x,-y,-z
4 x,1/2-y,1/2+z
_cell_length_a                   16.3064(11)
_cell_length_b                   9.4471(6)
_cell_length_c                   11.2626(8)
_cell_angle_alpha                90
_cell_angle_beta                 108.400(1)
_cell_angle_gamma                90
_cell_volume                     1646.28
_exptl_crystal_colour            colorless
_exptl_crystal_description       block
_chemical_melting_point          '228-230 deg.C'
_cell_formula_units_Z            4
_exptl_crystal_recrystallization_method ethanol
loop_
_atom_site_label
_atom_site_type_symbol
_atom_site_fract_x
_atom_site_fract_y
_atom_site_fract_z
Cl1 Cl -0.08865(9) -0.30052(15) 0.42624(17)
S1 S 0.27905(5) -0.09915(9) 0.30818(8)
C1 C 0.37499(19) -0.0054(3) 0.3407(3)
C2 C 0.31557(19) 0.2012(3) 0.4167(3)
C3 C 0.2457(2) 0.1360(3) 0.4258(3)
H1 H 0.1965 0.1896 0.4262
C4 C 0.24433(19) -0.0221(3) 0.4352(3)
H2 H 0.2880 -0.0497 0.5165
C5 C 0.3306(2) 0.3599(3) 0.4181(3)
C6 C 0.2561(3) 0.4410(4) 0.4428(6)
H3 H 0.2021 0.4206 0.3759
H4 H 0.2679 0.5428 0.4448
H5 H 0.2507 0.4114 0.5233
C7 C 0.3420(3) 0.4088(5) 0.2962(5)
H6 H 0.3916 0.3600 0.2834
H7 H 0.3521 0.5112 0.2995
H8 H 0.2898 0.3867 0.2268
C8 C 0.4133(3) 0.3919(4) 0.5275(5)
H9 H 0.4073 0.3539 0.6053
H10 H 0.4221 0.4945 0.5355
H11 H 0.4630 0.3476 0.5111
C9 C 0.1596(2) -0.0894(3) 0.4304(3)
C10 C 0.1593(3) -0.2008(4) 0.5067(4)
H12 H 0.2126 -0.2342 0.5621
C11 C 0.0838(3) -0.2667(5) 0.5060(5)
H13 H 0.0852 -0.3451 0.5594
C12 C 0.0084(3) -0.2191(4) 0.4291(5)
C13 C 0.0052(3) -0.1073(6) 0.3507(5)
H14 H -0.0487 -0.0746 0.2964
C14 C 0.0816(2) -0.0422(5) 0.3514(4)
H15 H 0.0800 0.0353 0.2971
N1 N 0.38364(15) 0.1210(3) 0.3967(2)
H16 H 0.4359 0.1576 0.4233
N2 N 0.43878(17) -0.0573(3) 0.3082(3)
H17 H 0.4872 -0.0092 0.3231
H18 H 0.4335 -0.1405 0.2714
Cl2 Cl 0.57096(5) 0.19321(9) 0.37495(8)
loop_
_geom_bond_atom_site_label_1
_geom_bond_atom_site_label_2
_geom_bond_site_symmetry_1
_geom_bond_site_symmetry_2
Cl1 C12 1_555 1_555
S1 C1 1_555 1_555
C1 N1 1_555 1_555
C2 C3 1_555 1_555
C3 H1 1_555 1_555
C4 S1 1_555 1_555
H2 C4 1_555 1_555
C5 C2 1_555 1_555
C6 C5 1_555 1_555
H3 C6 1_555 1_555
H4 C6 1_555 1_555
H5 C6 1_555 1_555
C7 C5 1_555 1_555
H6 C7 1_555 1_555
H7 C7 1_555 1_555
H8 C7 1_555 1_555
C8 C5 1_555 1_555
H9 C8 1_555 1_555
H10 C8 1_555 1_555
H11 C8 1_555 1_555
C9 C4 1_555 1_555
C10 C9 1_555 1_555
H12 C10 1_555 1_555
C11 C10 1_555 1_555
H13 C11 1_555 1_555
C12 C11 1_555 1_555
C13 C12 1_555 1_555
H14 C13 1_555 1_555
C14 C9 1_555 1_555
H15 C14 1_555 1_555
N1 C2 1_555 1_555
H16 N1 1_555 1_555
N2 C1 1_555 1_555
H17 N2 1_555 1_555
H18 N2 1_555 1_555
C3 C4 1_555 1_555
C13 C14 1_555 1_555

#END
