
#######################################################################
#
#                 Cambridge Crystallographic Data Centre
#                                CCDC 
#
#######################################################################
#
# If this CIF has been generated from an entry in the Cambridge 
# Structural Database, then it will include bibliographic, chemical, 
# crystal, experimental, refinement or atomic coordinate data resulting 
# from the CCDC's data processing and validation procedures.
#
#######################################################################

data_SOPXEA01
_chemical_formula_moiety         'C55 H74 N2 O10 Si1'
_chemical_name_systematic        
't-Butyl (4-(27-((t-butyl(diphenyl)silyl)oxy)-12,31-dimethyl-21-methylene-15-oxo-4,10,14,29,30-pentaoxa-32-azapentacyclo-[23.3.1.1^2,5^.1^9,13^.1^19,23^]dotriaconta-2,5(32),6,16-tetraen-11-yl)-1-hydroxypent-3-en-2-yl)carbamate'
_symmetry_cell_setting           tetragonal
_symmetry_space_group_name_H-M   'I 4'
_symmetry_Int_Tables_number      79
_space_group_name_Hall           'I 4'
loop_
_symmetry_equiv_pos_site_id
_symmetry_equiv_pos_as_xyz
1 x,y,z
2 -x,-y,z
3 -y,x,z
4 y,-x,z
5 1/2+x,1/2+y,1/2+z
6 1/2-x,1/2-y,1/2+z
7 1/2-y,1/2+x,1/2+z
8 1/2+y,1/2-x,1/2+z
_cell_length_a                   21.3411(2)
_cell_length_b                   21.3411(2)
_cell_length_c                   27.0738(3)
_cell_angle_alpha                90
_cell_angle_beta                 90
_cell_angle_gamma                90
_cell_volume                     12330.6
_exptl_crystal_colour            colorless
_exptl_crystal_description       plate
_cell_formula_units_Z            8
loop_
_atom_site_label
_atom_site_type_symbol
_atom_site_fract_x
_atom_site_fract_y
_atom_site_fract_z
O1 O 0.26132(14) 0.17179(14) 0.65624(11)
C1 C 0.2801(2) 0.2128(3) 0.6221(2)
O2 O 0.2579(2) 0.2642(2) 0.61674(13)
C2 C 0.3311(2) 0.1871(2) 0.5910(2)
H1 H 0.3602(2) 0.1593(2) 0.6060(2)
C3 C 0.3384(2) 0.2000(2) 0.5451(2)
H2 H 0.3746(2) 0.1824(2) 0.5301(2)
C4 C 0.2980(2) 0.2389(2) 0.5116(2)
H3 H 0.3162(2) 0.2814(2) 0.5088(2)
H4 H 0.2558(2) 0.2431(2) 0.5264(2)
C5 C 0.2917(3) 0.2102(2) 0.4595(2)
H5 H 0.3353(3) 0.2050(2) 0.4466(2)
O3 O 0.26104(15) 0.25171(14) 0.42648(12)
C6 C 0.2620(3) 0.1456(2) 0.4584(2)
H6 H 0.2704(3) 0.1257(2) 0.4261(2)
H7 H 0.2811(3) 0.1192(2) 0.4844(2)
C7 C 0.1937(3) 0.1494(3) 0.4665(2)
C8 C 0.1624(4) 0.1202(3) 0.5003(3)
H8 H 0.1834(4) 0.0933(3) 0.5228(3)
H9 H 0.1183(4) 0.1256(3) 0.5027(3)
C9 C 0.1613(3) 0.1958(3) 0.4321(2)
H10 H 0.1618(3) 0.1792(3) 0.3979(2)
H11 H 0.1171(3) 0.2011(3) 0.4423(2)
C10 C 0.1943(2) 0.2583(2) 0.4335(2)
H12 H 0.1863(2) 0.2787(2) 0.4662(2)
C11 C 0.1740(2) 0.3025(2) 0.3923(2)
H13 H 0.1957(2) 0.3431(2) 0.3970(2)
H14 H 0.1883(2) 0.2849(2) 0.3604(2)
C12 C 0.1053(2) 0.3147(3) 0.3889(2)
H15 H 0.0838(2) 0.2762(3) 0.3764(2)
O4 O 0.08229(14) 0.32932(14) 0.43709(14)
C13 C 0.0901(2) 0.3699(3) 0.3545(2)
H16 H 0.1127(2) 0.4076(3) 0.3661(2)
H17 H 0.1052(2) 0.3601(3) 0.3208(2)
C14 C 0.0210(2) 0.3839(3) 0.3525(2)
H18 H 0.0134(2) 0.4233(3) 0.3336(2)
C15 C -0.0036(2) 0.3905(3) 0.4043(2)
H19 H -0.0499(2) 0.3930(3) 0.4033(2)
H20 H 0.0122(2) 0.4301(3) 0.4187(2)
C16 C 0.0154(2) 0.3367(3) 0.4372(2)
H21 H -0.0043(2) 0.2973(3) 0.4246(2)
C17 C -0.0016(2) 0.3450(3) 0.4910(3)
C18 C -0.0277(3) 0.3932(3) 0.5148(3)
H22 H -0.0401(3) 0.4316(3) 0.5000(3)
O5 O -0.0338(2) 0.3788(2) 0.5631(2)
C19 C -0.0108(2) 0.3217(4) 0.5675(3)
N1 N 0.0082(2) 0.2963(2) 0.5257(3)
C20 C -0.0079(3) 0.2928(3) 0.6163(3)
H23 H -0.0301(3) 0.3120(3) 0.6426(3)
C21 C 0.0234(3) 0.2421(3) 0.6252(3)
H24 H 0.0450(3) 0.2242(3) 0.5980(3)
C22 C 0.0298(2) 0.2079(3) 0.6743(2)
H25 H 0.0012(2) 0.2275(3) 0.6985(2)
H26 H 0.0162(2) 0.1639(3) 0.6697(2)
C23 C 0.0953(2) 0.2082(2) 0.6951(2)
H27 H 0.1049(2) 0.2511(2) 0.7078(2)
O6 O 0.09435(14) 0.16525(15) 0.73613(12)
C24 C 0.1476(2) 0.1883(2) 0.6592(2)
H28 H 0.1494(2) 0.2200(2) 0.6320(2)
C25 C 0.1342(3) 0.1246(2) 0.6359(2)
H29 H 0.1702(7) 0.1116(8) 0.6159(11)
H30 H 0.0970(10) 0.1276(5) 0.6149(11)
H31 H 0.1270(17) 0.0936(4) 0.6620(2)
C26 C 0.2081(2) 0.1913(2) 0.6869(2)
H32 H 0.2152(2) 0.2357(2) 0.6974(2)
C27 C 0.2091(2) 0.1501(2) 0.7326(2)
H33 H 0.2062(2) 0.1054(2) 0.7218(2)
C28 C 0.2691(2) 0.1582(3) 0.7618(2)
H34 H 0.2675(8) 0.1319(14) 0.7914(7)
H35 H 0.2736(9) 0.2022(4) 0.7715(12)
H36 H 0.3049(3) 0.1458(17) 0.7413(5)
C29 C 0.1516(2) 0.1650(2) 0.7649(2)
H37 H 0.1574(2) 0.2072(2) 0.7802(2)
C30 C 0.1424(2) 0.1172(2) 0.8055(2)
C31 C 0.1188(2) 0.0540(2) 0.7906(2)
H38 H 0.1160(14) 0.0270(5) 0.8198(3)
H39 H 0.1476(8) 0.0353(7) 0.7666(9)
H40 H 0.0772(7) 0.0583(3) 0.7756(11)
C32 C 0.1552(2) 0.1349(2) 0.8519(2)
H41 H 0.1699(2) 0.1766(2) 0.8563(2)
C33 C 0.1485(2) 0.0958(2) 0.8976(2)
H42 H 0.1540(2) 0.0507(2) 0.8886(2)
C34 C 0.0857(2) 0.1043(2) 0.9208(2)
H43 H 0.0518(2) 0.0948(2) 0.8970(2)
H44 H 0.0809(2) 0.0767(2) 0.9500(2)
O7 O 0.0840(2) 0.1716(2) 0.9356(2)
H45 H 0.0495(2) 0.1796(2) 0.9491(2)
N2 N 0.1972(2) 0.1135(2) 0.93266(15)
H46 H 0.2097(2) 0.1528(2) 0.93248(15)
C35 C 0.2247(3) 0.0746(3) 0.9653(2)
O8 O 0.2159(2) 0.0192(2) 0.9668(2)
O9 O 0.2649(2) 0.10627(15) 0.99449(13)
C36 C 0.3045(3) 0.0743(3) 1.0302(3)
C37 C 0.2635(4) 0.0402(5) 1.0694(4)
H47 H 0.2410(32) 0.0055(25) 1.0537(8)
H48 H 0.2332(28) 0.0698(11) 1.0834(23)
H49 H 0.2903(6) 0.0239(37) 1.0958(18)
C38 C 0.3412(3) 0.1283(3) 1.0533(2)
H50 H 0.3688(14) 0.1470(13) 1.0284(5)
H51 H 0.3664(15) 0.1125(5) 1.0809(10)
H52 H 0.3119(3) 0.1602(10) 1.0655(14)
C39 C 0.3478(4) 0.0296(3) 1.0039(3)
H53 H 0.3716(23) 0.0524(7) 0.9788(17)
H54 H 0.3231(4) -0.0035(18) 0.9881(21)
H55 H 0.3767(20) 0.0109(23) 1.0278(5)
O10 O -0.0103(2) 0.3320(2) 0.3289(2)
Si1 Si -0.06003(7) 0.33812(8) 0.28276(7)
C40 C -0.1221(3) 0.3947(3) 0.2994(2)
C41 C -0.1281(3) 0.4547(3) 0.2780(3)
H56 H -0.1003(3) 0.4668(3) 0.2523(3)
C42 C -0.1729(4) 0.4956(4) 0.2935(4)
H57 H -0.1765(4) 0.5352(4) 0.2778(4)
C43 C -0.2127(4) 0.4811(4) 0.3311(4)
H58 H -0.2421(4) 0.5112(4) 0.3425(4)
C44 C -0.2101(3) 0.4232(4) 0.3523(3)
H59 H -0.2388(3) 0.4121(4) 0.3777(3)
C45 C -0.1650(3) 0.3809(3) 0.3364(2)
H60 H -0.1635(3) 0.3407(3) 0.3514(2)
C46 C -0.0906(6) 0.2594(8) 0.2845(6)
C47 C -0.1388(9) 0.2430(7) 0.2512(8)
H61 H -0.1541(9) 0.2743(7) 0.2294(8)
C48 C -0.1651(7) 0.1835(8) 0.2488(8)
H62 H -0.1991(7) 0.1756(8) 0.2271(8)
C49 C -0.1414(8) 0.1350(8) 0.2787(7)
H63 H -0.1576(8) 0.0936(8) 0.2762(7)
C50 C -0.0937(8) 0.1493(7) 0.3117(6)
H64 H -0.0771(8) 0.1170(7) 0.3320(6)
C51 C -0.0700(7) 0.2087(8) 0.3158(6)
H65 H -0.0390(7) 0.2168(8) 0.3401(6)
C52 C -0.0100(7) 0.3490(7) 0.2252(5)
C53 C 0.0288(10) 0.4086(8) 0.2286(8)
H66 H 0.0572(43) 0.4059(25) 0.2569(28)
H67 H 0.0009(11) 0.4447(10) 0.2327(45)
H68 H 0.0533(43) 0.4137(31) 0.1982(21)
C54 C 0.0328(7) 0.2925(7) 0.2178(7)
H69 H 0.0577(47) 0.2856(40) 0.2477(21)
H70 H 0.0609(46) 0.3004(28) 0.1898(34)
H71 H 0.0074(8) 0.2553(15) 0.2110(50)
C55 C -0.0532(6) 0.3533(9) 0.1813(5)
H72 H -0.0675(50) 0.3966(15) 0.1773(30)
H73 H -0.0894(31) 0.3258(48) 0.1865(22)
H74 H -0.0307(19) 0.3401(60) 0.1515(9)
C56? C -0.0250(6) 0.3804(8) 0.2245(6)
C57? C -0.0592(5) 0.4106(7) 0.1869(4)
C58? C -0.0290(6) 0.4401(7) 0.1483(5)
C59? C 0.0356(6) 0.4428(8) 0.1466(5)
C60? C 0.0702(6) 0.4143(8) 0.1833(5)
C61? C 0.0402(8) 0.3845(12) 0.2219(8)
C62? C -0.0903(7) 0.2587(8) 0.2614(6)
C63? C -0.1422(9) 0.2593(14) 0.2225(8)
C64? C -0.1103(12) 0.2248(10) 0.3074(7)
C65? C -0.0313(7) 0.2276(8) 0.2384(8)
H75? H -0.1037(5) 0.4107(7) 0.1882(4)
H76? H -0.0529(6) 0.4587(7) 0.1225(5)
H77? H 0.0561(6) 0.4641(8) 0.1204(5)
H78? H 0.1147(6) 0.4151(8) 0.1820(5)
H79? H 0.0646(8) 0.3663(12) 0.2475(8)
H80? H -0.1787(36) 0.2818(78) 0.2354(29)
H81? H -0.1541(62) 0.2161(14) 0.2145(52)
H82? H -0.1270(33) 0.2803(84) 0.1926(28)
H83? H -0.1350(81) 0.2531(32) 0.3283(36)
H84? H -0.0731(12) 0.2108(85) 0.3256(40)
H85? H -0.1358(84) 0.1884(57) 0.2984(8)
H86? H -0.0426(17) 0.1864(34) 0.2250(54)
H87? H 0.0009(28) 0.2225(68) 0.2638(15)
H88? H -0.0151(45) 0.2542(38) 0.2118(39)
loop_
_geom_bond_atom_site_label_1
_geom_bond_atom_site_label_2
_geom_bond_site_symmetry_1
_geom_bond_site_symmetry_2
O1 C1 1_555 1_555
C1 O2 1_555 1_555
C2 C1 1_555 1_555
H1 C2 1_555 1_555
C3 C2 1_555 1_555
H2 C3 1_555 1_555
C4 C3 1_555 1_555
H3 C4 1_555 1_555
H4 C4 1_555 1_555
C5 C4 1_555 1_555
H5 C5 1_555 1_555
O3 C5 1_555 1_555
C6 C5 1_555 1_555
H6 C6 1_555 1_555
H7 C6 1_555 1_555
C7 C6 1_555 1_555
C8 C7 1_555 1_555
H8 C8 1_555 1_555
H9 C8 1_555 1_555
C9 C7 1_555 1_555
H10 C9 1_555 1_555
H11 C9 1_555 1_555
C10 O3 1_555 1_555
H12 C10 1_555 1_555
C11 C10 1_555 1_555
H13 C11 1_555 1_555
H14 C11 1_555 1_555
C12 C11 1_555 1_555
H15 C12 1_555 1_555
O4 C12 1_555 1_555
C13 C12 1_555 1_555
H16 C13 1_555 1_555
H17 C13 1_555 1_555
C14 C13 1_555 1_555
H18 C14 1_555 1_555
C15 C14 1_555 1_555
H19 C15 1_555 1_555
H20 C15 1_555 1_555
C16 O4 1_555 1_555
H21 C16 1_555 1_555
C17 C16 1_555 1_555
C18 C17 1_555 1_555
H22 C18 1_555 1_555
O5 C18 1_555 1_555
C19 O5 1_555 1_555
N1 C17 1_555 1_555
C20 C19 1_555 1_555
H23 C20 1_555 1_555
C21 C20 1_555 1_555
H24 C21 1_555 1_555
C22 C21 1_555 1_555
H25 C22 1_555 1_555
H26 C22 1_555 1_555
C23 C22 1_555 1_555
H27 C23 1_555 1_555
O6 C23 1_555 1_555
C24 C23 1_555 1_555
H28 C24 1_555 1_555
C25 C24 1_555 1_555
H29 C25 1_555 1_555
H30 C25 1_555 1_555
H31 C25 1_555 1_555
C26 O1 1_555 1_555
H32 C26 1_555 1_555
C27 C26 1_555 1_555
H33 C27 1_555 1_555
C28 C27 1_555 1_555
H34 C28 1_555 1_555
H35 C28 1_555 1_555
H36 C28 1_555 1_555
C29 O6 1_555 1_555
H37 C29 1_555 1_555
C30 C29 1_555 1_555
C31 C30 1_555 1_555
H38 C31 1_555 1_555
H39 C31 1_555 1_555
H40 C31 1_555 1_555
C32 C30 1_555 1_555
H41 C32 1_555 1_555
C33 C32 1_555 1_555
H42 C33 1_555 1_555
C34 C33 1_555 1_555
H43 C34 1_555 1_555
H44 C34 1_555 1_555
O7 C34 1_555 1_555
H45 O7 1_555 1_555
N2 C33 1_555 1_555
H46 N2 1_555 1_555
C35 N2 1_555 1_555
O8 C35 1_555 1_555
O9 C35 1_555 1_555
C36 O9 1_555 1_555
C37 C36 1_555 1_555
H47 C37 1_555 1_555
H48 C37 1_555 1_555
H49 C37 1_555 1_555
C38 C36 1_555 1_555
H50 C38 1_555 1_555
H51 C38 1_555 1_555
H52 C38 1_555 1_555
C39 C36 1_555 1_555
H53 C39 1_555 1_555
H54 C39 1_555 1_555
H55 C39 1_555 1_555
O10 C14 1_555 1_555
Si1 O10 1_555 1_555
C40 Si1 1_555 1_555
C41 C40 1_555 1_555
H56 C41 1_555 1_555
C42 C41 1_555 1_555
H57 C42 1_555 1_555
C43 C42 1_555 1_555
H58 C43 1_555 1_555
C44 C43 1_555 1_555
H59 C44 1_555 1_555
C45 C40 1_555 1_555
H60 C45 1_555 1_555
C46 Si1 1_555 1_555
C47 C46 1_555 1_555
H61 C47 1_555 1_555
C48 C47 1_555 1_555
H62 C48 1_555 1_555
C49 C48 1_555 1_555
H63 C49 1_555 1_555
C50 C49 1_555 1_555
H64 C50 1_555 1_555
C51 C46 1_555 1_555
H65 C51 1_555 1_555
C52 Si1 1_555 1_555
C53 C52 1_555 1_555
H66 C53 1_555 1_555
H67 C53 1_555 1_555
H68 C53 1_555 1_555
C54 C52 1_555 1_555
H69 C54 1_555 1_555
H70 C54 1_555 1_555
H71 C54 1_555 1_555
C55 C52 1_555 1_555
H72 C55 1_555 1_555
H73 C55 1_555 1_555
H74 C55 1_555 1_555
C9 C10 1_555 1_555
C15 C16 1_555 1_555
C19 N1 1_555 1_555
C24 C26 1_555 1_555
C27 C29 1_555 1_555
C44 C45 1_555 1_555
C50 C51 1_555 1_555

#END
