
#######################################################################
#
#                 Cambridge Crystallographic Data Centre
#                                CCDC 
#
#######################################################################
#
# If this CIF has been generated from an entry in the Cambridge 
# Structural Database, then it will include bibliographic, chemical, 
# crystal, experimental, refinement or atomic coordinate data resulting 
# from the CCDC's data processing and validation procedures.
#
#######################################################################

data_SOQBUV
_chemical_formula_moiety         'C36 H54 O5,0.3(H2 O1)'
_chemical_name_systematic        
'7\a-(Benzoyloxy)-3-dioxolane cholestan-24(R)-ol hydrate'
_symmetry_cell_setting           monoclinic
_symmetry_space_group_name_H-M   'P 21'
_symmetry_Int_Tables_number      4
_space_group_name_Hall           'P 2yb'
loop_
_symmetry_equiv_pos_site_id
_symmetry_equiv_pos_as_xyz
1 x,y,z
2 -x,1/2+y,-z
_cell_length_a                   11.3616(5)
_cell_length_b                   11.3587(4)
_cell_length_c                   12.8334(6)
_cell_angle_alpha                90
_cell_angle_beta                 91.418(3)
_cell_angle_gamma                90
_cell_volume                     1655.68
_chemical_melting_point          205-208deg.C
_cell_formula_units_Z            2
_exptl_crystal_recrystallization_method dichloromethane/hexane
loop_
_atom_site_label
_atom_site_type_symbol
_atom_site_fract_x
_atom_site_fract_y
_atom_site_fract_z
C1 C 0.5505(4) -0.0075(5) 0.6774(3)
C2 C 0.4664(5) 0.0157(6) 0.7538(4)
C3 C 0.4988(7) 0.0911(7) 0.8350(4)
C4 C 0.6101(8) 0.1378(6) 0.8446(5)
C5 C 0.6878(6) 0.1146(6) 0.7678(5)
C6 C 0.6586(5) 0.0430(5) 0.6850(4)
C7 C 0.5159(3) -0.0920(5) 0.5944(3)
O1 O 0.4294(3) -0.1543(5) 0.5946(2)
O2 O 0.5931(2) -0.0944(3) 0.5175(2)
O3 O 1.0288(2) -0.1538(4) 0.5380(3)
C8 C 1.1493(4) -0.1523(8) 0.5694(5)
C9 C 1.1948(6) -0.2675(6) 0.5299(7)
O4 O 1.1103(3) -0.3173(4) 0.4649(3)
C10 C 0.9274(3) -0.0851(5) 0.3246(4)
C11 C 1.0310(3) -0.1690(5) 0.3487(4)
C12 C 1.0176(4) -0.2326(5) 0.4515(4)
C13 C 0.8997(3) -0.2936(5) 0.4547(4)
C14 C 0.7983(3) -0.2093(4) 0.4320(3)
C15 C 0.6789(3) -0.2677(4) 0.4454(4)
C16 C 0.5787(3) -0.1793(5) 0.4329(3)
C17 C 0.5839(3) -0.1121(4) 0.3309(3)
C18 C 0.7059(3) -0.0563(4) 0.3147(3)
C19 C 0.8077(3) -0.1481(4) 0.3241(3)
C20 C 0.7061(3) 0.0195(4) 0.2149(3)
C21 C 0.6029(3) 0.1062(4) 0.2145(3)
C22 C 0.4834(3) 0.0462(4) 0.2155(3)
C23 C 0.4892(3) -0.0184(4) 0.3215(3)
C24 C 0.3610(3) -0.0559(4) 0.3386(3)
C25 C 0.2885(3) 0.0428(4) 0.2878(3)
C26 C 0.3742(3) 0.1264(4) 0.2330(3)
C27 C 0.4592(4) -0.0383(4) 0.1246(3)
C28 C 0.8012(4) -0.2363(5) 0.2328(4)
C29 C 0.3949(4) 0.27415 0.0824(4)
C30 C 0.3133(3) 0.1905(4) 0.1406(3)
C31 C 0.1967(14) 0.2472(23) 0.1734(20)
C32 C 0.1344(21) 0.3179(27) 0.0885(20)
C33 C 0.0156(14) 0.3680(16) 0.1235(12)
O5 O 0.0397(18) 0.4724(22) 0.1845(26)
C34 C -0.0845(15) 0.3927(22) 0.0476(18)
C35 C -0.1014(15) 0.3018(31) -0.0356(13)
C36 C -0.1983(21) 0.4340(33) 0.0897(24)
H1 H 0.3919(5) -0.0182(6) 0.7500(4)
H2 H 0.4434(7) 0.1104(7) 0.8843(4)
H3 H 0.6319(8) 0.1839(6) 0.9017(5)
H4 H 0.7624(6) 0.1481(6) 0.7718(5)
H5 H 0.7133(5) 0.0291(5) 0.6337(4)
H6 H 1.1582(4) -0.1472(8) 0.6446(5)
H7 H 1.1901(4) -0.0867(8) 0.5381(5)
H8 H 1.2667(6) -0.2549(6) 0.4922(7)
H9 H 1.2123(6) -0.3198(6) 0.5880(7)
H10 H 0.9273(3) -0.0230(5) 0.3765(4)
H11 H 0.9384(3) -0.0489(5) 0.2571(4)
H12 H 1.0361(3) -0.2265(5) 0.2931(4)
H13 H 1.1038(3) -0.1243(5) 0.3508(4)
H14 H 0.8903(3) -0.3284(5) 0.5231(4)
H15 H 0.8975(3) -0.3567(5) 0.4038(4)
H16 H 0.8043(3) -0.1468(4) 0.4846(3)
H17 H 0.6687(3) -0.3297(4) 0.3940(4)
H18 H 0.6763(3) -0.3032(4) 0.5140(4)
H19 H 0.5027(3) -0.2195(5) 0.4378(3)
H20 H 0.5698(3) -0.1687(4) 0.2743(3)
H21 H 0.7185(3) -0.0014(4) 0.3728(3)
H22 H 0.7791(3) 0.0635(4) 0.2137(3)
H23 H 0.7042(3) -0.0324(4) 0.1549(3)
H24 H 0.6118(3) 0.1666(4) 0.2575(3)
H25 H 0.6053(3) 0.1444(4) 0.1369(3)
H26 H 0.5083(3) 0.0412(4) 0.3744(3)
H27 H 0.3441(3) -0.1309(4) 0.3054(3)
H28 H 0.3452(3) -0.0621(4) 0.4123(3)
H29 H 0.2455(3) 0.0853(4) 0.3403(3)
H30 H 0.2322(3) 0.0103(4) 0.2375(3)
H31 H 0.3982(3) 0.1867(4) 0.2839(3)
H32 H 0.3839(4) -0.0751(4) 0.1328(3)
H33 H 0.5195(4) -0.0975(4) 0.1238(3)
H34 H 0.4590(4) 0.0048(4) 0.0602(3)
H35 H 0.7264(4) -0.2757(5) 0.2324(4)
H36 H 0.8632(4) -0.2932(5) 0.2409(4)
H37 H 0.8098(4) -0.1948(5) 0.1682(4)
H38 H 0.3518(4) 0.3110(5) 0.0261(4)
H39 H 0.4596(4) 0.2303(5) 0.0552(4)
H40 H 0.4245(4) 0.3333(5) 0.1296(4)
H41 H 0.2912(3) 0.1288(4) 0.0904(3)
H42 H 0.1441(14) 0.1855(23) 0.1961(20)
H43 H 0.2125(14) 0.2984(23) 0.2325(20)
H44 H 0.1210(21) 0.2680(27) 0.0280(20)
H45 H 0.1848(21) 0.3824(27) 0.0680(20)
H46 H -0.0150(14) 0.3102(16) 0.1726(12)
H47 H 0.0942(18) 0.4593(22) 0.2260(26)
H48 H -0.0567(15) 0.4614(22) 0.0090(18)
H49 H -0.0261(15) 0.2779(31) -0.0605(13)
H50 H -0.1477(15) 0.3344(31) -0.0922(13)
H51 H -0.1414(15) 0.2349(31) -0.0076(13)
H52 H -0.1833(21) 0.4921(33) 0.1428(24)
H53 H -0.2394(21) 0.3685(33) 0.1191(24)
H54 H -0.2456(21) 0.4680(33) 0.0345(24)
O6 O 0.0801(16) 0.5000(24) 0.3624(14)
C37? C 0.2146(15) 0.2675(24) 0.1870(19)
C38? C 0.1222(23) 0.3105(37) 0.1091(21)
C39? C 0.0088(16) 0.3522(15) 0.1593(14)
O7? O 0.0236(13) 0.4455(17) 0.2337(9)
C40? C -0.0653(18) 0.3907(20) 0.0665(14)
C41? C -0.1843(16) 0.4174(32) 0.1090(18)
C42? C -0.0231(20) 0.4983(24) 0.0054(20)
H55? H 0.1758(15) 0.2223(24) 0.2404(19)
H56? H 0.2507(15) 0.3354(24) 0.2207(19)
H57? H 0.1033(23) 0.2472(37) 0.0607(21)
H58? H 0.1547(23) 0.3749(37) 0.0694(21)
H59? H -0.0293(16) 0.2851(15) 0.1927(14)
H60? H 0.0641(13) 0.4222(17) 0.2833(9)
H61? H -0.0732(18) 0.3242(20) 0.0183(14)
H62? H -0.2363(16) 0.4428(32) 0.0533(18)
H63? H -0.1772(16) 0.4787(32) 0.1603(18)
H64? H -0.2156(16) 0.3478(32) 0.1406(18)
H65? H 0.0530(20) 0.4824(24) -0.0222(20)
H66? H -0.0180(20) 0.5653(24) 0.0510(20)
H67? H -0.0780(20) 0.5147(24) -0.0509(20)
loop_
_geom_bond_atom_site_label_1
_geom_bond_atom_site_label_2
_geom_bond_site_symmetry_1
_geom_bond_site_symmetry_2
C1 C2 1_555 1_555
C2 C3 1_555 1_555
C3 C4 1_555 1_555
C4 C5 1_555 1_555
C5 C6 1_555 1_555
C6 C1 1_555 1_555
C7 C1 1_555 1_555
O1 C7 1_555 1_555
O2 C7 1_555 1_555
O3 C8 1_555 1_555
C8 C9 1_555 1_555
C9 O4 1_555 1_555
O4 C12 1_555 1_555
C10 C11 1_555 1_555
C11 C12 1_555 1_555
C12 O3 1_555 1_555
C13 C12 1_555 1_555
C14 C13 1_555 1_555
C15 C14 1_555 1_555
C16 O2 1_555 1_555
C17 C16 1_555 1_555
C18 C17 1_555 1_555
C19 C10 1_555 1_555
C20 C18 1_555 1_555
C21 C20 1_555 1_555
C22 C21 1_555 1_555
C23 C17 1_555 1_555
C24 C23 1_555 1_555
C25 C24 1_555 1_555
C26 C22 1_555 1_555
C27 C22 1_555 1_555
C28 C19 1_555 1_555
C29 C30 1_555 1_555
C30 C26 1_555 1_555
C31 C30 1_555 1_555
C32 C31 1_555 1_555
C33 C32 1_555 1_555
O5 C33 1_555 1_555
C34 C33 1_555 1_555
C35 C34 1_555 1_555
C36 C34 1_555 1_555
H1 C2 1_555 1_555
H2 C3 1_555 1_555
H3 C4 1_555 1_555
H4 C5 1_555 1_555
H5 C6 1_555 1_555
H6 C8 1_555 1_555
H7 C8 1_555 1_555
H8 C9 1_555 1_555
H9 C9 1_555 1_555
H10 C10 1_555 1_555
H11 C10 1_555 1_555
H12 C11 1_555 1_555
H13 C11 1_555 1_555
H14 C13 1_555 1_555
H15 C13 1_555 1_555
H16 C14 1_555 1_555
H17 C15 1_555 1_555
H18 C15 1_555 1_555
H19 C16 1_555 1_555
H20 C17 1_555 1_555
H21 C18 1_555 1_555
H22 C20 1_555 1_555
H23 C20 1_555 1_555
H24 C21 1_555 1_555
H25 C21 1_555 1_555
H26 C23 1_555 1_555
H27 C24 1_555 1_555
H28 C24 1_555 1_555
H29 C25 1_555 1_555
H30 C25 1_555 1_555
H31 C26 1_555 1_555
H32 C27 1_555 1_555
H33 C27 1_555 1_555
H34 C27 1_555 1_555
H35 C28 1_555 1_555
H36 C28 1_555 1_555
H37 C28 1_555 1_555
H38 C29 1_555 1_555
H39 C29 1_555 1_555
H40 C29 1_555 1_555
H41 C30 1_555 1_555
H42 C31 1_555 1_555
H43 C31 1_555 1_555
H44 C32 1_555 1_555
H45 C32 1_555 1_555
H46 C33 1_555 1_555
H47 O5 1_555 1_555
H48 C34 1_555 1_555
H49 C35 1_555 1_555
H50 C35 1_555 1_555
H51 C35 1_555 1_555
H52 C36 1_555 1_555
H53 C36 1_555 1_555
H54 C36 1_555 1_555
C14 C19 1_555 1_555
C15 C16 1_555 1_555
C18 C19 1_555 1_555
C22 C23 1_555 1_555
C25 C26 1_555 1_555

#END
