
#######################################################################
#
#                 Cambridge Crystallographic Data Centre
#                                CCDC 
#
#######################################################################
#
# If this CIF has been generated from an entry in the Cambridge 
# Structural Database, then it will include bibliographic, chemical, 
# crystal, experimental, refinement or atomic coordinate data resulting 
# from the CCDC's data processing and validation procedures.
#
#######################################################################

data_SOQFAH
_chemical_formula_moiety         'C17 H14 I1 N1 O5'
_chemical_name_systematic        
'2-Iodo-1-(4-methoxyphenyl)-2-(4-nitrophenyl)vinyl acetate'
_symmetry_cell_setting           monoclinic
_symmetry_space_group_name_H-M   'P 21/c'
_symmetry_Int_Tables_number      14
_space_group_name_Hall           '-P 2ybc'
loop_
_symmetry_equiv_pos_site_id
_symmetry_equiv_pos_as_xyz
1 x,y,z
2 -x,1/2+y,1/2-z
3 -x,-y,-z
4 x,1/2-y,1/2+z
_cell_length_a                   10.7835(4)
_cell_length_b                   8.1115(3)
_cell_length_c                   19.3202(7)
_cell_angle_alpha                90
_cell_angle_beta                 90.523(4)
_cell_angle_gamma                90
_cell_volume                     1689.87
_exptl_crystal_colour            'light yellow'
_exptl_crystal_description       block
_cell_formula_units_Z            4
loop_
_atom_site_label
_atom_site_type_symbol
_atom_site_fract_x
_atom_site_fract_y
_atom_site_fract_z
I1 I 0.06161(2) 1.01753(3) 0.255600(11)
O1 O -0.4988(2) 1.2529(3) 0.31321(15)
O2 O -0.0720(2) 0.8299(3) 0.45037(11)
O3 O -0.1128(3) 0.5865(3) 0.40110(14)
O4 O 0.5720(3) 0.5841(5) 0.4268(2)
O5 O 0.5553(3) 0.7571(5) 0.50971(19)
N1 N 0.5146(3) 0.6870(5) 0.4582(2)
C1 C -0.2835(3) 0.9092(4) 0.3455(2)
H1 H -0.2816 0.7945 0.3449
C2 C -0.3932(3) 0.9905(4) 0.3285(2)
H2 H -0.4637 0.9308 0.3161
C3 C -0.3966(3) 1.1603(4) 0.32995(18)
C4 C -0.2919(3) 1.2478(4) 0.34820(19)
H3 H -0.2943 1.3624 0.3495
C5 C -0.1836(3) 1.1658(4) 0.36459(18)
H4 H -0.1134 1.2261 0.3767
C6 C -0.1773(3) 0.9954(4) 0.36344(18)
C7 C -0.0621(3) 0.9086(4) 0.38496(16)
C8 C 0.0469(3) 0.9058(4) 0.35362(16)
C9 C 0.1641(3) 0.8373(4) 0.38174(16)
C10 C 0.2350(3) 0.7238(4) 0.34517(18)
H5 H 0.2058 0.6839 0.3029
C11 C 0.3472(3) 0.6700(4) 0.3705(2)
H6 H 0.3928 0.5915 0.3467
C12 C 0.3909(3) 0.7347(4) 0.43217(19)
C13 C 0.3233(3) 0.8446(5) 0.47011(19)
H7 H 0.3536 0.8846 0.5121
C14 C 0.2091(3) 0.8951(5) 0.44483(18)
H8 H 0.1618 0.9688 0.4704
C15 C -0.6133(3) 1.1693(6) 0.3064(3)
H9 H -0.6112 1.0985 0.2666
H10 H -0.6790 1.2483 0.3009
H11 H -0.6276 1.1045 0.3471
C16 C -0.1082(3) 0.6687(4) 0.45140(17)
C17 C -0.1387(4) 0.6162(5) 0.5232(2)
H12 H -0.0727 0.6481 0.5541
H13 H -0.1486 0.4987 0.5245
H14 H -0.2144 0.6682 0.5372
loop_
_geom_bond_atom_site_label_1
_geom_bond_atom_site_label_2
_geom_bond_site_symmetry_1
_geom_bond_site_symmetry_2
I1 C8 1_555 1_555
O1 C3 1_555 1_555
O2 C7 1_555 1_555
O3 C16 1_555 1_555
O4 N1 1_555 1_555
O5 N1 1_555 1_555
N1 C12 1_555 1_555
C1 H1 1_555 1_555
C2 C1 1_555 1_555
H2 C2 1_555 1_555
C3 C2 1_555 1_555
C4 C3 1_555 1_555
H3 C4 1_555 1_555
C5 C4 1_555 1_555
H4 C5 1_555 1_555
C6 C1 1_555 1_555
C7 C6 1_555 1_555
C8 C7 1_555 1_555
C9 C8 1_555 1_555
C10 C9 1_555 1_555
H5 C10 1_555 1_555
C11 C10 1_555 1_555
H6 C11 1_555 1_555
C12 C11 1_555 1_555
C13 C12 1_555 1_555
H7 C13 1_555 1_555
C14 C9 1_555 1_555
H8 C14 1_555 1_555
C15 O1 1_555 1_555
H9 C15 1_555 1_555
H10 C15 1_555 1_555
H11 C15 1_555 1_555
C16 O2 1_555 1_555
C17 C16 1_555 1_555
H12 C17 1_555 1_555
H13 C17 1_555 1_555
H14 C17 1_555 1_555
C5 C6 1_555 1_555
C13 C14 1_555 1_555

#END
