
#######################################################################
#
#                 Cambridge Crystallographic Data Centre
#                                CCDC 
#
#######################################################################
#
# If this CIF has been generated from an entry in the Cambridge 
# Structural Database, then it will include bibliographic, chemical, 
# crystal, experimental, refinement or atomic coordinate data resulting 
# from the CCDC's data processing and validation procedures.
#
#######################################################################

data_SOQKAL
_chemical_compound_source        
'aerial parts of Kadsura philippinensis Elmer (Schisandraceae)'
_chemical_name_common            'Heteroclitin J'
_chemical_formula_moiety         'C31 H30 O11'
_chemical_name_systematic        
'8-Acetoxy-6-hydroxy-2,3-dimethoxy-6,7-dimethyl-1-oxo-5,6,7,8-tetrahydro-1H-10,12,13-trioxabenzo(1,8)cycloocta(1,2,3-cd)-as-indacen-5-yl benzoate'
_chemical_properties_biological  'low free radical-scavenging activity'
_symmetry_cell_setting           monoclinic
_symmetry_space_group_name_H-M   'P 21'
_symmetry_Int_Tables_number      4
_space_group_name_Hall           'P 2yb'
loop_
_symmetry_equiv_pos_site_id
_symmetry_equiv_pos_as_xyz
1 x,y,z
2 -x,1/2+y,-z
_cell_length_a                   11.985(2)
_cell_length_b                   9.1039(18)
_cell_length_c                   12.760(3)
_cell_angle_alpha                90
_cell_angle_beta                 94.21(3)
_cell_angle_gamma                90
_cell_volume                     1388.49
_exptl_crystal_colour            colorless
_exptl_crystal_description       prism
_cell_formula_units_Z            2
loop_
_atom_site_label
_atom_site_type_symbol
_atom_site_fract_x
_atom_site_fract_y
_atom_site_fract_z
O1 O 0.06622(19) 0.8254(3) 0.3613(2)
O2 O -0.04709(18) 0.5622(3) 0.33212(18)
O3 O 0.0601(2) 0.3561(3) 0.1992(2)
O4 O 0.43776(16) 0.7755(3) 0.18235(17)
O5 O 0.5573(3) 0.5901(4) 0.2168(4)
O6 O 0.2500(2) 0.6464(3) -0.03615(18)
H1 H 0.1865 0.6646 -0.0201
O7 O 0.10843(15) 0.8664(2) 0.09166(15)
O8 O -0.0104(2) 1.0517(3) 0.0513(3)
O9 O 0.3746(3) 1.3204(3) 0.3456(3)
O10 O 0.3981(3) 1.1538(3) 0.4830(2)
O11 O 0.32137(19) 0.8325(3) 0.44898(16)
C1 C 0.1108(2) 0.7267(4) 0.3157(2)
C2 C 0.0567(2) 0.5852(4) 0.2963(2)
C3 C 0.1011(3) 0.4891(4) 0.2290(3)
C4 C 0.1992(3) 0.5279(3) 0.1749(2)
H2 H 0.2211 0.4647 0.1230
C5 C 0.2596(2) 0.6477(3) 0.1950(2)
C6 C 0.3566(2) 0.6788(3) 0.1284(2)
H3 H 0.3944 0.5850 0.1182
C7 C 0.3266(2) 0.7449(4) 0.0168(2)
C8 C 0.2852(3) 0.9057(4) 0.0103(3)
H4 H 0.3525 0.9668 0.0201
C9 C 0.2033(2) 0.9661(4) 0.0871(2)
H5 H 0.1732 1.0577 0.0562
C10 C 0.2508(2) 1.0040(4) 0.1971(3)
C11 C 0.2876(3) 1.1492(4) 0.2146(3)
H6 H 0.2819 1.2181 0.1607
C12 C 0.3322(3) 1.1867(4) 0.3131(3)
C13 C 0.3447(3) 1.0877(4) 0.3957(3)
C14 C 0.3104(3) 0.9468(4) 0.3782(3)
C15 C 0.2624(2) 0.9052(3) 0.2801(2)
C16 C 0.2324(2) 0.7446(3) 0.2850(2)
C17 C 0.2331(4) 0.9407(6) -0.1018(3)
H7 H 0.1583 0.9026 -0.1097
H8 H 0.2774 0.8959 -0.1528
H9 H 0.2315 1.0451 -0.1122
C18 C 0.4337(3) 0.7334(6) -0.0425(3)
H10 H 0.4193 0.7709 -0.1125
H11 H 0.4563 0.6324 -0.0457
H12 H 0.4923 0.7896 -0.0063
C19 C 0.4106(4) 1.3028(5) 0.4528(4)
H13 H 0.3666 1.3654 0.4955
H14 H 0.4884 1.3317 0.4643
C20 C 0.3067(3) 0.6999(4) 0.3876(2)
H15 H 0.2694 0.6252 0.4264
H16 H 0.3785 0.6620 0.3696
C21 C -0.0512(4) 0.5545(6) 0.4444(3)
H17 H -0.0169 0.6406 0.4760
H18 H -0.0117 0.4687 0.4705
H19 H -0.1277 0.5490 0.4616
C22 C 0.0038(4) 0.2680(5) 0.2718(4)
H20 H -0.0709 0.3041 0.2763
H21 H 0.0436 0.2727 0.3398
H22 H 0.0010 0.1680 0.2479
C23 C 0.5365(3) 0.7187(5) 0.2196(3)
C24 C 0.6133(2) 0.8348(5) 0.2644(2)
C25 C 0.7207(3) 0.7951(6) 0.3020(3)
H23 H 0.7435 0.6977 0.2987
C26 C 0.7935(3) 0.9009(8) 0.3443(4)
H24 H 0.8659 0.8748 0.3685
C27 C 0.7591(4) 1.0446(7) 0.3508(3)
H25 H 0.8083 1.1151 0.3799
C28 C 0.6527(4) 1.0847(6) 0.3147(3)
H26 H 0.6297 1.1819 0.3196
C29 C 0.5802(3) 0.9798(5) 0.2710(3)
H27 H 0.5084 1.0070 0.2457
C30 C 0.0049(3) 0.9252(4) 0.0753(2)
C31 C -0.0843(3) 0.8169(5) 0.0895(3)
H28 H -0.1550 0.8665 0.0896
H29 H -0.0692 0.7667 0.1552
H30 H -0.0868 0.7471 0.0330
loop_
_geom_bond_atom_site_label_1
_geom_bond_atom_site_label_2
_geom_bond_site_symmetry_1
_geom_bond_site_symmetry_2
O1 C1 1_555 1_555
O2 C2 1_555 1_555
O3 C3 1_555 1_555
O4 C6 1_555 1_555
O5 C23 1_555 1_555
O6 H1 1_555 1_555
O7 C9 1_555 1_555
O8 C30 1_555 1_555
O9 C12 1_555 1_555
O10 C13 1_555 1_555
O11 C14 1_555 1_555
C1 C2 1_555 1_555
C2 C3 1_555 1_555
C3 C4 1_555 1_555
C4 H2 1_555 1_555
C5 C4 1_555 1_555
C6 C5 1_555 1_555
H3 C6 1_555 1_555
C7 O6 1_555 1_555
C8 C7 1_555 1_555
H4 C8 1_555 1_555
C9 C8 1_555 1_555
H5 C9 1_555 1_555
C10 C9 1_555 1_555
C11 C10 1_555 1_555
H6 C11 1_555 1_555
C12 C11 1_555 1_555
C13 C12 1_555 1_555
C14 C13 1_555 1_555
C15 C10 1_555 1_555
C16 C1 1_555 1_555
C17 C8 1_555 1_555
H7 C17 1_555 1_555
H8 C17 1_555 1_555
H9 C17 1_555 1_555
C18 C7 1_555 1_555
H10 C18 1_555 1_555
H11 C18 1_555 1_555
H12 C18 1_555 1_555
C19 O9 1_555 1_555
H13 C19 1_555 1_555
H14 C19 1_555 1_555
C20 O11 1_555 1_555
H15 C20 1_555 1_555
H16 C20 1_555 1_555
C21 O2 1_555 1_555
H17 C21 1_555 1_555
H18 C21 1_555 1_555
H19 C21 1_555 1_555
C22 O3 1_555 1_555
H20 C22 1_555 1_555
H21 C22 1_555 1_555
H22 C22 1_555 1_555
C23 O4 1_555 1_555
C24 C23 1_555 1_555
C25 C24 1_555 1_555
H23 C25 1_555 1_555
C26 C25 1_555 1_555
H24 C26 1_555 1_555
C27 C26 1_555 1_555
H25 C27 1_555 1_555
C28 C27 1_555 1_555
H26 C28 1_555 1_555
C29 C24 1_555 1_555
H27 C29 1_555 1_555
C30 O7 1_555 1_555
C31 C30 1_555 1_555
H28 C31 1_555 1_555
H29 C31 1_555 1_555
H30 C31 1_555 1_555
O10 C19 1_555 1_555
C5 C16 1_555 1_555
C6 C7 1_555 1_555
C14 C15 1_555 1_555
C15 C16 1_555 1_555
C16 C20 1_555 1_555
C28 C29 1_555 1_555

#END
