
#######################################################################
#
#                 Cambridge Crystallographic Data Centre
#                                CCDC 
#
#######################################################################
#
# If this CIF has been generated from an entry in the Cambridge 
# Structural Database, then it will include bibliographic, chemical, 
# crystal, experimental, refinement or atomic coordinate data resulting 
# from the CCDC's data processing and validation procedures.
#
#######################################################################

data_SOQPEU01
_chemical_formula_moiety         'C7 H17 N2 1+,Cl1 1-'
_chemical_name_systematic        '1,1,4-trimethylpiperazin-1-ium chloride'
_symmetry_cell_setting           orthorhombic
_symmetry_space_group_name_H-M   'P 21 21 21'
_symmetry_Int_Tables_number      19
_space_group_name_Hall           'P 2ac 2ab'
loop_
_symmetry_equiv_pos_site_id
_symmetry_equiv_pos_as_xyz
1 x,y,z
2 1/2-x,-y,1/2+z
3 -x,1/2+y,1/2-z
4 1/2+x,1/2-y,-z
_cell_length_a                   8.3293(6)
_cell_length_b                   10.3564(7)
_cell_length_c                   10.3564(7)
_cell_angle_alpha                90
_cell_angle_beta                 90
_cell_angle_gamma                90
_cell_volume                     893.359
_exptl_crystal_colour            colorless
_exptl_crystal_description       plate
_cell_formula_units_Z            4
loop_
_atom_site_label
_atom_site_type_symbol
_atom_site_fract_x
_atom_site_fract_y
_atom_site_fract_z
Cl1 Cl 0.22429(8) 0.76809(6) 0.28188(6)
N1 N 0.1782(3) 0.8580(2) 0.6632(2)
N2 N 0.2238(3) 0.6671(2) 0.8654(2)
C1 C 0.1649(3) 0.7139(3) 0.6403(3)
H1 H 0.0539 0.6875 0.6508
H2 H 0.1965 0.6947 0.5522
C2 C 0.2695(3) 0.6375(2) 0.7326(2)
H3 H 0.2564 0.5458 0.7165
H4 H 0.3814 0.6594 0.7189
C3 C 0.2470(3) 0.8051(2) 0.8915(2)
H5 H 0.3588 0.8277 0.8781
H6 H 0.2202 0.8234 0.9808
C4 C 0.1423(3) 0.8851(3) 0.8034(3)
H7 H 0.0304 0.8661 0.8208
H8 H 0.1600 0.9760 0.8210
C5 C 0.3404(3) 0.9076(3) 0.6259(3)
H9 H 0.3556 0.8969 0.5346
H10 H 0.4216 0.8601 0.6716
H11 H 0.3482 0.9975 0.6476
C6 C 0.0542(4) 0.9257(3) 0.5820(3)
H12 H 0.0765 0.9109 0.4923
H13 H 0.0575 1.0167 0.5994
H14 H -0.0504 0.8928 0.6026
C7 C 0.3189(4) 0.5908(3) 0.9561(3)
H15 H 0.3061 0.5007 0.9371
H16 H 0.2832 0.6077 1.0426
H17 H 0.4301 0.6140 0.9482
loop_
_geom_bond_atom_site_label_1
_geom_bond_atom_site_label_2
_geom_bond_site_symmetry_1
_geom_bond_site_symmetry_2
N1 C1 1_555 1_555
N2 C2 1_555 1_555
C1 H1 1_555 1_555
H2 C1 1_555 1_555
C2 C1 1_555 1_555
H3 C2 1_555 1_555
H4 C2 1_555 1_555
C3 N2 1_555 1_555
H5 C3 1_555 1_555
H6 C3 1_555 1_555
C4 N1 1_555 1_555
H7 C4 1_555 1_555
H8 C4 1_555 1_555
C5 N1 1_555 1_555
H9 C5 1_555 1_555
H10 C5 1_555 1_555
H11 C5 1_555 1_555
C6 N1 1_555 1_555
H12 C6 1_555 1_555
H13 C6 1_555 1_555
H14 C6 1_555 1_555
C7 N2 1_555 1_555
H15 C7 1_555 1_555
H16 C7 1_555 1_555
H17 C7 1_555 1_555
C3 C4 1_555 1_555

#END
