
#######################################################################
#
#                 Cambridge Crystallographic Data Centre
#                                CCDC 
#
#######################################################################
#
# If this CIF has been generated from an entry in the Cambridge 
# Structural Database, then it will include bibliographic, chemical, 
# crystal, experimental, refinement or atomic coordinate data resulting 
# from the CCDC's data processing and validation procedures.
#
#######################################################################

data_SOQPET
_chemical_compound_source        'Stem bark of Psorothamnus junceus'
_chemical_formula_moiety         'C20 H16 O5'
_chemical_name_systematic        'Psorothamnone A'
_chemical_properties_biological  
'modest inhibitory activity against protein kinase C'
_symmetry_cell_setting           triclinic
_symmetry_space_group_name_H-M   'P -1'
_symmetry_Int_Tables_number      2
_space_group_name_Hall           '-P 1'
loop_
_symmetry_equiv_pos_site_id
_symmetry_equiv_pos_as_xyz
1 x,y,z
2 -x,-y,-z
_cell_length_a                   7.2328(9)
_cell_length_b                   8.5999(9)
_cell_length_c                   13.2879(9)
_cell_angle_alpha                93.639(7)
_cell_angle_beta                 101.936(8)
_cell_angle_gamma                92.80(1)
_cell_volume                     805.397
_exptl_crystal_colour            orange
_exptl_crystal_description       needle
_chemical_melting_point          247-248deg.C(dec.)
_cell_formula_units_Z            2
loop_
_atom_site_label
_atom_site_type_symbol
_atom_site_fract_x
_atom_site_fract_y
_atom_site_fract_z
O1 O 0.2815(4) 0.4054(3) 0.6536(2)
O2 O 0.1806(4) 0.7075(3) 0.4863(2)
O3 O 0.4067(5) 0.1748(4) 0.3944(2)
O4 O 0.2219(6) 0.6407(4) 0.9737(2)
O5 O 0.0692(5) 0.9030(4) 0.6758(2)
C1 C 0.1829(6) 0.7388(5) 0.3134(3)
C2 C 0.2009(7) 0.6809(6) 0.2176(3)
C3 C 0.2389(6) 0.5262(6) 0.2011(3)
C4 C 0.2639(6) 0.4298(5) 0.2816(3)
C5 C 0.2774(5) 0.3877(5) 0.4692(3)
C6 C 0.2623(6) 0.5098(5) 0.8214(3)
C7 C 0.2297(7) 0.6473(6) 0.8829(3)
C8 C 0.2152(6) 0.8072(5) 0.8368(3)
C9 C 0.1514(6) 0.7999(5) 0.7210(3)
C10 C 0.2066(5) 0.6400(5) 0.3926(3)
C11 C 0.2510(5) 0.4838(5) 0.3811(3)
C12 C 0.3292(6) 0.2218(5) 0.4617(3)
C13 C 0.2823(7) 0.1152(5) 0.5378(4)
C14 C 0.2573(5) 0.4636(5) 0.5579(3)
C15 C 0.2505(6) 0.5271(5) 0.7221(3)
C16 C 0.3033(8) 0.3620(6) 0.8725(3)
C17 C 0.4211(8) 0.8804(6) 0.8599(4)
C18 C 0.0905(8) 0.9105(6) 0.8883(4)
C19 C 0.2043(5) 0.6617(5) 0.6672(3)
C20 C 0.2110(5) 0.6223(5) 0.5676(3)
H1 H 0.152(6) 0.849(5) 0.329(3)
H2 H 0.185(6) 0.752(5) 0.159(3)
H3 H 0.243(6) 0.479(5) 0.130(3)
H4 H 0.292(5) 0.316(4) 0.271(3)
H5 H 0.285(7) 0.005(6) 0.514(4)
H6 H 0.181(6) 0.131(5) 0.562(3)
H7 H 0.370(8) 0.145(7) 0.609(4)
H8 H 0.291(7) 0.272(6) 0.824(4)
H9 H 0.197(7) 0.328(6) 0.911(4)
H10 H 0.415(8) 0.373(7) 0.926(5)
H11 H 0.502(7) 0.817(6) 0.817(4)
H12 H 0.474(6) 0.888(5) 0.935(3)
H13 H 0.416(7) 0.994(6) 0.831(4)
H14 H 0.071(7) 1.017(6) 0.855(4)
H15 H 0.140(7) 0.933(6) 0.969(4)
H16 H -0.029(7) 0.856(6) 0.888(4)
loop_
_geom_bond_atom_site_label_1
_geom_bond_atom_site_label_2
_geom_bond_site_symmetry_1
_geom_bond_site_symmetry_2
O1 C14 1_555 1_555
O2 C10 1_555 1_555
O3 C12 1_555 1_555
O4 C7 1_555 1_555
O5 C9 1_555 1_555
C1 C2 1_555 1_555
C2 C3 1_555 1_555
C3 C4 1_555 1_555
C4 C11 1_555 1_555
C5 C11 1_555 1_555
C6 C7 1_555 1_555
C7 C8 1_555 1_555
C8 C9 1_555 1_555
C9 C19 1_555 1_555
C10 C1 1_555 1_555
C11 C10 1_555 1_555
C12 C5 1_555 1_555
C13 C12 1_555 1_555
C14 C5 1_555 1_555
C15 O1 1_555 1_555
C16 C6 1_555 1_555
C17 C8 1_555 1_555
C18 C8 1_555 1_555
C19 C15 1_555 1_555
C20 O2 1_555 1_555
H1 C1 1_555 1_555
H2 C2 1_555 1_555
H3 C3 1_555 1_555
H4 C4 1_555 1_555
H5 C13 1_555 1_555
H6 C13 1_555 1_555
H7 C13 1_555 1_555
H8 C16 1_555 1_555
H9 C16 1_555 1_555
H10 C16 1_555 1_555
H11 C17 1_555 1_555
H12 C17 1_555 1_555
H13 C17 1_555 1_555
H14 C18 1_555 1_555
H15 C18 1_555 1_555
H16 C18 1_555 1_555
C6 C15 1_555 1_555
C14 C20 1_555 1_555
C19 C20 1_555 1_555

#END
