
#######################################################################
#
#                 Cambridge Crystallographic Data Centre
#                                CCDC 
#
#######################################################################
#
# If this CIF has been generated from an entry in the Cambridge 
# Structural Database, then it will include bibliographic, chemical, 
# crystal, experimental, refinement or atomic coordinate data resulting 
# from the CCDC's data processing and validation procedures.
#
#######################################################################

data_SORBOL
_chemical_formula_moiety         'C6 H12 O6'
_chemical_name_systematic        \a-L-Sorbose
_symmetry_cell_setting           orthorhombic
_symmetry_space_group_name_H-M   'P 21 21 21'
_symmetry_Int_Tables_number      19
_space_group_name_Hall           'P 2ac 2ab'
loop_
_symmetry_equiv_pos_site_id
_symmetry_equiv_pos_as_xyz
1 x,y,z
2 1/2+x,1/2-y,-z
3 -x,1/2+y,1/2-z
4 1/2-x,-y,1/2+z
_cell_length_a                   6.535(4)
_cell_length_b                   18.069(7)
_cell_length_c                   6.305(4)
_cell_angle_alpha                90
_cell_angle_beta                 90
_cell_angle_gamma                90
_cell_volume                     744.5
_cell_formula_units_Z            4
loop_
_atom_site_label
_atom_site_type_symbol
_atom_site_fract_x
_atom_site_fract_y
_atom_site_fract_z
C1 C -0.46650 0.16290 -0.47980
C2 C -0.60620 0.12040 -0.62780
C3 C -0.66590 0.16620 -0.82180
C4 C -0.82390 0.12740 -0.95700
C5 C -1.00590 0.10490 -0.82290
C6 C -0.93670 0.06220 -0.62930
H1 H -0.37200 0.19400 -0.59200
H2 H -0.49000 0.01000 -0.58000
H3 H -0.52700 0.20800 -0.41100
H4 H -0.73200 0.21300 -0.76600
H5 H -0.47500 0.24000 -0.92000
H6 H -0.74000 0.08000 -1.02300
H7 H -0.89000 0.15200 -1.28200
H8 H -1.11200 0.15500 -0.78000
H9 H -1.29500 0.06400 -0.88200
H10 H -0.87000 0.01300 -0.71000
H11 H -1.04500 0.04000 -0.53000
O1 O -0.36790 0.12180 -0.3420
O2 O -0.51010 0.05530 -0.70270
O3 O -0.48890 0.18090 -0.94820
O4 O -0.88680 0.17610 -1.12290
O5 O -1.13670 0.05920 -0.94790
O6 O -0.78460 0.10220 -0.51020
loop_
_geom_bond_atom_site_label_1
_geom_bond_atom_site_label_2
_geom_bond_site_symmetry_1
_geom_bond_site_symmetry_2
C1 C2 1_555 1_555
C2 C3 1_555 1_555
C3 C4 1_555 1_555
C4 C5 1_555 1_555
C5 C6 1_555 1_555
C6 H10 1_555 1_555
H1 C1 1_555 1_555
H2 O2 1_555 1_555
H3 C1 1_555 1_555
H4 C3 1_555 1_555
H5 O3 1_555 1_555
H6 C4 1_555 1_555
H7 O4 1_555 1_555
H8 C5 1_555 1_555
H9 O5 1_555 1_555
H11 C6 1_555 1_555
O1 C1 1_555 1_555
O2 C2 1_555 1_555
O3 C3 1_555 1_555
O4 C4 1_555 1_555
O5 C5 1_555 1_555
O6 C2 1_555 1_555
C6 O6 1_555 1_555

#END
