
#######################################################################
#
#                 Cambridge Crystallographic Data Centre
#                                CCDC 
#
#######################################################################
#
# If this CIF has been generated from an entry in the Cambridge 
# Structural Database, then it will include bibliographic, chemical, 
# crystal, experimental, refinement or atomic coordinate data resulting 
# from the CCDC's data processing and validation procedures.
#
#######################################################################

data_SORDEJ
_chemical_formula_moiety         'C19 H13 N3 O2 S1'
_chemical_name_systematic        
3-Methyl-1-phenyl-4-(2-thienyl)-1,7-dihydro-5H-furo[3,4-b]pyrazolo[4,3-e]pyridin-5-one
_symmetry_cell_setting           monoclinic
_symmetry_space_group_name_H-M   'P 21/c'
_symmetry_Int_Tables_number      14
_space_group_name_Hall           '-P 2ybc'
loop_
_symmetry_equiv_pos_site_id
_symmetry_equiv_pos_as_xyz
1 x,y,z
2 -x,1/2+y,1/2-z
3 -x,-y,-z
4 x,1/2-y,1/2+z
_cell_length_a                   10.878(5)
_cell_length_b                   7.356(3)
_cell_length_c                   20.498(9)
_cell_angle_alpha                90
_cell_angle_beta                 97.448(9)
_cell_angle_gamma                90
_cell_volume                     1626.38
_cell_formula_units_Z            4
loop_
_atom_site_label
_atom_site_type_symbol
_atom_site_fract_x
_atom_site_fract_y
_atom_site_fract_z
N1 N 0.4509(3) 0.7104(5) 0.36495(14)
N2 N 0.5152(3) 0.4247(5) 0.41556(16)
N3 N 0.6255(3) 0.3275(4) 0.43160(16)
O1 O 0.5215(3) 1.1269(3) 0.28765(12)
O2 O 0.7255(3) 1.1287(4) 0.28307(13)
S1 S 0.95158(15) 0.8639(3) 0.38201(9)
C1 C 0.5364(4) 0.5833(6) 0.38503(18)
C2 C 0.7130(4) 0.4269(6) 0.4107(2)
C3 C 0.6640(3) 0.5892(6) 0.37974(19)
C4 C 0.7134(3) 0.7401(6) 0.35025(17)
C5 C 0.6261(3) 0.8732(6) 0.33046(18)
C6 C 0.6379(4) 1.0490(7) 0.2987(2)
C7 C 0.4294(3) 1.0068(5) 0.30879(18)
H1 H 0.3707 0.9680 0.2717
H2 H 0.3846 1.0660 0.3408
C8 C 0.5021(4) 0.8505(6) 0.33861(18)
C9 C 0.4027(4) 0.3433(6) 0.4294(2)
C10 C 0.2911(4) 0.4033(6) 0.3977(2)
H3 H 0.2873 0.4996 0.3681
C11 C 0.1848(4) 0.3163(7) 0.4111(3)
H4 H 0.1084 0.3544 0.3898
C12 C 0.1890(4) 0.1761(7) 0.4547(2)
H5 H 0.1161 0.1207 0.4635
C13 C 0.3003(5) 0.1173(6) 0.4854(2)
H6 H 0.3035 0.0202 0.5146
C14 C 0.4086(4) 0.2018(6) 0.47322(19)
H7 H 0.4848 0.1629 0.4945
C15 C 0.8438(3) 0.3588(5) 0.4232(2)
H8 H 0.8452 0.2438 0.4454
H9 H 0.8937 0.4446 0.4502
H10 H 0.8761 0.3445 0.3821
C16 C 0.8439(3) 0.7487(5) 0.33856(18)
C17 C 0.8923(3) 0.6559(5) 0.28323(15)
H11 H 0.8480 0.5902 0.2492
C18 C 1.0273(5) 0.6913(8) 0.2942(3)
H12 H 1.0816 0.6420 0.2675
C19 C 1.0639(5) 0.7935(7) 0.3428(3)
H13 H 1.1465 0.8251 0.3548
C20? C 0.95158(15) 0.8639(3) 0.38201(9)
H14? H 0.9500 0.9430 0.4173
S2? S 0.8923(3) 0.6559(5) 0.28323(15)
loop_
_geom_bond_atom_site_label_1
_geom_bond_atom_site_label_2
_geom_bond_site_symmetry_1
_geom_bond_site_symmetry_2
N1 C1 1_555 1_555
N2 N3 1_555 1_555
N3 C2 1_555 1_555
O1 C6 1_555 1_555
O2 C6 1_555 1_555
S1 C16 1_555 1_555
C1 N2 1_555 1_555
C2 C3 1_555 1_555
C3 C1 1_555 1_555
C4 C3 1_555 1_555
C5 C4 1_555 1_555
C6 C5 1_555 1_555
C7 O1 1_555 1_555
H1 C7 1_555 1_555
H2 C7 1_555 1_555
C8 N1 1_555 1_555
C9 N2 1_555 1_555
C10 C9 1_555 1_555
H3 C10 1_555 1_555
C11 C10 1_555 1_555
H4 C11 1_555 1_555
C12 C11 1_555 1_555
H5 C12 1_555 1_555
C13 C12 1_555 1_555
H6 C13 1_555 1_555
C14 C9 1_555 1_555
H7 C14 1_555 1_555
C15 C2 1_555 1_555
H8 C15 1_555 1_555
H9 C15 1_555 1_555
H10 C15 1_555 1_555
C16 C4 1_555 1_555
C17 C16 1_555 1_555
H11 C17 1_555 1_555
C18 C17 1_555 1_555
H12 C18 1_555 1_555
C19 S1 1_555 1_555
H13 C19 1_555 1_555
C5 C8 1_555 1_555
C7 C8 1_555 1_555
C13 C14 1_555 1_555
C18 C19 1_555 1_555

#END
