
#######################################################################
#
#                 Cambridge Crystallographic Data Centre
#                                CCDC 
#
#######################################################################
#
# If this CIF has been generated from an entry in the Cambridge 
# Structural Database, then it will include bibliographic, chemical, 
# crystal, experimental, refinement or atomic coordinate data resulting 
# from the CCDC's data processing and validation procedures.
#
#######################################################################

data_SORQIA
_chemical_formula_moiety         'C25 H23 Br1 O8'
_chemical_name_systematic        
'(S,Z)-Trimethyl 2-(4-bromophenyl)-4-(cinnamoyloxy)but-3-ene-1,1,4-tricarboxylate'
_symmetry_cell_setting           triclinic
_symmetry_space_group_name_H-M   'P 1'
_symmetry_Int_Tables_number      1
_space_group_name_Hall           'P 1'
loop_
_symmetry_equiv_pos_site_id
_symmetry_equiv_pos_as_xyz
1 x,y,z
_cell_length_a                   5.5763(13)
_cell_length_b                   11.084(2)
_cell_length_c                   11.168(3)
_cell_angle_alpha                62.723(3)
_cell_angle_beta                 76.854(4)
_cell_angle_gamma                85.144(4)
_cell_volume                     597.281
_exptl_crystal_colour            colorless
_exptl_crystal_description       prismatic
_chemical_melting_point          126-128deg.C
_cell_formula_units_Z            1
loop_
_atom_site_label
_atom_site_type_symbol
_atom_site_fract_x
_atom_site_fract_y
_atom_site_fract_z
Br1 Br 0.89021(13) 0.21427(9) 0.59433(9)
O1 O 1.2425(9) 0.8453(6) 0.4290(6)
O2 O 0.9639(9) 0.8991(6) 0.5723(5)
O3 O 0.9774(14) 1.1298(7) 0.2068(8)
O4 O 0.6277(11) 1.1053(6) 0.3578(6)
O5 O 0.6221(10) 0.8938(6) -0.1211(5)
O6 O 0.4099(8) 0.9928(5) 0.0041(5)
O7 O 0.9300(9) 0.7807(6) 0.0561(5)
O8 O 0.6591(17) 0.6028(7) 0.1452(8)
C1 C 0.8413(11) 0.9062(7) 0.3824(7)
H1 H 0.6838 0.8700 0.4472
C2 C 0.8959(11) 0.8415(6) 0.2821(7)
H2 H 1.0622 0.8714 0.2258
C3 C 0.7207(11) 0.8904(6) 0.1861(7)
H3 H 0.5933 0.9457 0.1995
C4 C 0.7373(12) 0.8592(7) 0.0834(7)
C5 C 0.5852(11) 0.9144(6) -0.0222(7)
C6 C 1.0402(11) 0.8779(6) 0.4610(6)
C7 C 0.8290(14) 1.0610(7) 0.3030(8)
C8 C 0.856(2) 0.6463(10) 0.0875(9)
C9 C 1.040(3) 0.5680(15) 0.0457(12)
H4 H 0.9920 0.4781 0.0786
C10 C 1.240(2) 0.5943(17) -0.0217(10)
H5 H 1.2866 0.6832 -0.0486
C11 C 1.4399(17) 0.5224(12) -0.0758(9)
C12 C 1.6387(16) 0.5894(9) -0.1646(9)
H6 H 1.6461 0.6827 -0.1954
C13 C 1.8365(15) 0.5305(9) -0.2150(9)
H7 H 1.9714 0.5846 -0.2773
C14 C 1.8389(18) 0.3985(10) -0.1766(10)
H8 H 1.9756 0.3594 -0.2093
C15 C 1.635(3) 0.3197(11) -0.0873(12)
H9 H 1.6301 0.2272 -0.0610
C16 C 1.4342(19) 0.3815(17) -0.0366(11)
H10 H 1.2959 0.3291 0.0235
C17 C 0.8951(11) 0.6876(6) 0.3624(6)
C18 C 1.1062(12) 0.6165(7) 0.3439(8)
H11 H 1.2501 0.6634 0.2848
C19 C 1.1030(15) 0.4777(8) 0.4124(9)
H12 H 1.2449 0.4310 0.3990
C20 C 0.8934(16) 0.4068(7) 0.5004(8)
C21 C 0.6833(15) 0.4740(8) 0.5192(8)
H13 H 0.5397 0.4261 0.5777
C22 C 0.6861(12) 0.6152(7) 0.4499(7)
H14 H 0.5433 0.6614 0.4633
C23 C 1.1446(15) 0.8842(9) 0.6522(9)
H15 H 1.2130 0.7953 0.6805
H16 H 1.0675 0.8958 0.7322
H17 H 1.2736 0.9515 0.5970
C24 C 0.597(3) 1.2512(10) 0.2944(12)
H18 H 0.7001 1.2919 0.3249
H19 H 0.4282 1.2712 0.3205
H20 H 0.6434 1.2871 0.1960
C25 C 0.2681(14) 1.0629(9) -0.1010(8)
H21 H 0.3678 1.1340 -0.1798
H22 H 0.1260 1.1012 -0.0653
H23 H 0.2162 0.9999 -0.1275
loop_
_geom_bond_atom_site_label_1
_geom_bond_atom_site_label_2
_geom_bond_site_symmetry_1
_geom_bond_site_symmetry_2
Br1 C20 1_555 1_555
O1 C6 1_555 1_555
O2 C6 1_555 1_555
O3 C7 1_555 1_555
O4 C7 1_555 1_555
O5 C5 1_555 1_555
O6 C5 1_555 1_555
O7 C4 1_555 1_555
O8 C8 1_555 1_555
C1 H1 1_555 1_555
C2 C1 1_555 1_555
H2 C2 1_555 1_555
C3 C2 1_555 1_555
H3 C3 1_555 1_555
C4 C3 1_555 1_555
C5 C4 1_555 1_555
C6 C1 1_555 1_555
C7 C1 1_555 1_555
C8 O7 1_555 1_555
C9 C8 1_555 1_555
H4 C9 1_555 1_555
C10 C9 1_555 1_555
H5 C10 1_555 1_555
C11 C10 1_555 1_555
C12 C11 1_555 1_555
H6 C12 1_555 1_555
C13 C12 1_555 1_555
H7 C13 1_555 1_555
C14 C13 1_555 1_555
H8 C14 1_555 1_555
C15 C14 1_555 1_555
H9 C15 1_555 1_555
C16 C11 1_555 1_555
H10 C16 1_555 1_555
C17 C2 1_555 1_555
C18 C17 1_555 1_555
H11 C18 1_555 1_555
C19 C18 1_555 1_555
H12 C19 1_555 1_555
C20 C19 1_555 1_555
C21 C20 1_555 1_555
H13 C21 1_555 1_555
C22 C17 1_555 1_555
H14 C22 1_555 1_555
C23 O2 1_555 1_555
H15 C23 1_555 1_555
H16 C23 1_555 1_555
H17 C23 1_555 1_555
C24 O4 1_555 1_555
H18 C24 1_555 1_555
H19 C24 1_555 1_555
H20 C24 1_555 1_555
C25 O6 1_555 1_555
H21 C25 1_555 1_555
H22 C25 1_555 1_555
H23 C25 1_555 1_555
C15 C16 1_555 1_555
C21 C22 1_555 1_555

#END
