
#######################################################################
#
#                 Cambridge Crystallographic Data Centre
#                                CCDC 
#
#######################################################################
#
# If this CIF has been generated from an entry in the Cambridge 
# Structural Database, then it will include bibliographic, chemical, 
# crystal, experimental, refinement or atomic coordinate data resulting 
# from the CCDC's data processing and validation procedures.
#
#######################################################################

data_SORTID
_chemical_compound_source        
'coculture of a mine drainage-derived Sphingomonas bacterial strain, KMK-001, and a mine drainage-derived Aspergillus fumigatus fungal strain, KMC-901'
_chemical_name_common            
11-(Hydroxymethyl)-15-methyl-6-nitro-12,13-dithia-9,15-diazatetracyclo[9.2.2.0$1,9!.0$3,8!]pentadeca-3,5,7-triene-10,14-dione
_chemical_formula_moiety         'C13 H11 N3 O5 S2'
_chemical_name_systematic        'Glionitrin A'
_chemical_properties_biological  
'potent submicromolar cytotoxic activity against human cancer cell lines'
_symmetry_cell_setting           monoclinic
_symmetry_space_group_name_H-M   'P 21'
_symmetry_Int_Tables_number      4
_space_group_name_Hall           'P 2yb'
loop_
_symmetry_equiv_pos_site_id
_symmetry_equiv_pos_as_xyz
1 x,y,z
2 -x,1/2+y,-z
_cell_length_a                   7.512(1)
_cell_length_b                   6.6024(8)
_cell_length_c                   15.970(3)
_cell_angle_alpha                90
_cell_angle_beta                 100.287(5)
_cell_angle_gamma                90
_cell_volume                     779.336
_exptl_crystal_colour            yellow
_exptl_crystal_description       platelet
_chemical_melting_point          '181-182 deg.C'
_cell_formula_units_Z            2
loop_
_atom_site_label
_atom_site_type_symbol
_atom_site_fract_x
_atom_site_fract_y
_atom_site_fract_z
S1 S 0.7946(3) 0.0999(4) 0.2297(2)
S2 S 0.5334(3) 0.0196(3) 0.1718(1)
O1 O 0.724(2) 0.250(1) 0.7050(5)
O2 O 0.461(2) 0.287(2) 0.6308(6)
O3 O 0.3127(8) 0.244(1) 0.3267(4)
O4 O 0.191(1) 0.141(1) 0.0699(5)
O5 O 0.771(1) 0.617(1) 0.1714(5)
N1 N 0.621(2) 0.285(1) 0.6361(6)
N2 N 0.6048(8) 0.329(1) 0.3249(4)
N3 N 0.505(1) 0.436(1) 0.1562(5)
C1 C 0.593(1) 0.303(1) 0.4823(5)
C2 C 0.676(1) 0.340(1) 0.4123(6)
C3 C 0.864(1) 0.397(1) 0.4226(6)
C4 C 0.748(1) 0.355(1) 0.2740(5)
C5 C 0.420(1) 0.263(1) 0.1902(5)
C6 C 0.436(1) 0.276(1) 0.2881(5)
C7 C 0.673(1) 0.486(1) 0.1948(6)
C8 C 0.218(1) 0.238(2) 0.1509(6)
C9 C 0.969(1) 0.418(1) 0.5004(7)
C10 C 0.910(1) 0.427(2) 0.3349(6)
C11 C 0.879(2) 0.377(1) 0.5747(7)
C12 C 0.710(2) 0.325(1) 0.5608(6)
C13 C 0.440(2) 0.523(2) 0.0710(7)
H1 H 0.4712 0.2684 0.4775
H2 H 1.0906 0.4543 0.5071
H3 H 0.9341 0.5682 0.3251
H4 H 1.0160 0.3478 0.3288
H5 H 0.9426 0.3903 0.6300
H6 H 0.4978 0.4559 0.0298
H7 H 0.4686 0.6651 0.0717
H8 H 0.3114 0.5058 0.0561
H9 H 0.1591 0.1597 0.1894
H10 H 0.1616 0.3710 0.1448
H11 H 0.1735 0.0776 0.0170
loop_
_geom_bond_atom_site_label_1
_geom_bond_atom_site_label_2
_geom_bond_site_symmetry_1
_geom_bond_site_symmetry_2
S1 S2 1_555 1_555
S2 C5 1_555 1_555
O1 N1 1_555 1_555
O2 N1 1_555 1_555
O3 C6 1_555 1_555
O4 C8 1_555 1_555
O5 C7 1_555 1_555
N1 C12 1_555 1_555
N2 C2 1_555 1_555
N3 C5 1_555 1_555
C1 C2 1_555 1_555
C2 C3 1_555 1_555
C3 C9 1_555 1_555
C4 S1 1_555 1_555
C5 C6 1_555 1_555
C6 N2 1_555 1_555
C7 N3 1_555 1_555
C8 C5 1_555 1_555
C9 C11 1_555 1_555
C10 C3 1_555 1_555
C11 C12 1_555 1_555
C12 C1 1_555 1_555
C13 N3 1_555 1_555
H1 C1 1_555 1_555
H2 C9 1_555 1_555
H3 C10 1_555 1_555
H4 C10 1_555 1_555
H5 C11 1_555 1_555
H6 C13 1_555 1_555
H7 C13 1_555 1_555
H8 C13 1_555 1_555
H9 C8 1_555 1_555
H10 C8 1_555 1_555
H11 O4 1_555 1_555
N2 C4 1_555 1_555
C4 C7 1_555 1_555
C4 C10 1_555 1_555

#END
