
#######################################################################
#
#                 Cambridge Crystallographic Data Centre
#                                CCDC 
#
#######################################################################
#
# If this CIF has been generated from an entry in the Cambridge 
# Structural Database, then it will include bibliographic, chemical, 
# crystal, experimental, refinement or atomic coordinate data resulting 
# from the CCDC's data processing and validation procedures.
#
#######################################################################

data_SORTUP
_chemical_compound_source        'pericarps of Illicium oligandrum'
_chemical_name_common            
"(8a-Hydroxy-7,8,10a-trimethyl-2,5-dioxodecahydrofuro[3',2':1,5]cyclopenta[1,2-d]oxepin-8-yl)methyl acetate"
_chemical_formula_moiety         'C17 H24 O7'
_chemical_name_systematic        'Oligandrumin A'
_symmetry_cell_setting           orthorhombic
_symmetry_space_group_name_H-M   'P 21 21 21'
_symmetry_Int_Tables_number      19
_space_group_name_Hall           'P 2ac 2ab'
loop_
_symmetry_equiv_pos_site_id
_symmetry_equiv_pos_as_xyz
1 x,y,z
2 1/2-x,-y,1/2+z
3 -x,1/2+y,1/2-z
4 1/2+x,1/2-y,-z
_cell_length_a                   6.9604(10)
_cell_length_b                   10.8145(15)
_cell_length_c                   21.741(3)
_cell_angle_alpha                90
_cell_angle_beta                 90
_cell_angle_gamma                90
_cell_volume                     1636.52
_exptl_crystal_colour            colorless
_exptl_crystal_description       prismatic
_chemical_melting_point          '242-243 deg.C'
_cell_formula_units_Z            4
loop_
_atom_site_label
_atom_site_type_symbol
_atom_site_fract_x
_atom_site_fract_y
_atom_site_fract_z
O1 O 0.5761(3) 0.81996(18) -0.04125(8)
O2 O 0.5724(3) 0.72947(16) 0.04863(7)
O3 O 0.3967(3) 1.30200(16) 0.14981(9)
O4 O 0.5951(3) 1.22211(14) 0.08048(7)
O5 O 0.6593(3) 1.03238(15) 0.17672(7)
O6 O 0.8658(3) 0.83102(16) 0.22484(7)
O7 O 0.9885(3) 0.6671(2) 0.27356(9)
C1 C 0.6313(4) 1.10477(19) 0.04862(9)
C2 C 0.8387(4) 1.0681(2) 0.05995(12)
H1 H 0.9022 1.1291 0.0856
H2 H 0.9077 1.0618 0.0213
C3 C 0.8334(3) 0.9427(2) 0.09243(11)
H3 H 0.9417 0.9339 0.1202
H4 H 0.8363 0.8757 0.0628
C4 C 0.6431(3) 0.94300(18) 0.12817(9)
C5 C 0.5877(4) 0.8132(2) 0.15638(10)
C6 C 0.4924(5) 0.7222(2) 0.11021(13)
C7 C 0.5182(4) 0.8211(2) 0.01081(11)
C8 C 0.3930(3) 0.92035(19) 0.03760(9)
H5 H 0.2866 0.8817 0.0591
H6 H 0.3399 0.9693 0.0043
C9 C 0.4990(3) 1.00721(19) 0.08250(9)
C10 C 0.3531(4) 1.0908(2) 0.11486(10)
H7 H 0.2351 1.0956 0.0912
H8 H 0.3234 1.0590 0.1555
C11 C 0.4457(4) 1.2155(2) 0.11942(10)
C12 C 0.5046(7) 0.5844(3) 0.12588(19)
H9 H 0.4232 0.5385 0.0985
H10 H 0.4633 0.5716 0.1675
H11 H 0.6349 0.5567 0.1214
C13 C 0.4397(4) 0.8309(3) 0.20832(12)
H12 H 0.4054 0.7517 0.2250
H13 H 0.3270 0.8705 0.1922
H14 H 0.4944 0.8814 0.2401
C14 C 0.7677(4) 0.7493(2) 0.18262(13)
H15 H 0.7306 0.6741 0.2039
H16 H 0.8535 0.7270 0.1493
C15 C 0.5860(4) 1.1302(2) -0.01864(10)
H17 H 0.4536 1.1540 -0.0226
H18 H 0.6091 1.0569 -0.0424
H19 H 0.6666 1.1959 -0.0334
C16 C 0.9694(4) 0.7775(3) 0.26928(10)
C17 C 1.0530(5) 0.8702(3) 0.31171(12)
H20 H 0.9617 0.8894 0.3434
H21 H 1.0838 0.9440 0.2892
H22 H 1.1677 0.8373 0.3300
H23 H 0.775(3) 1.023(3) 0.1896(14)
H24 H 0.359(4) 0.744(2) 0.1084(11)
loop_
_geom_bond_atom_site_label_1
_geom_bond_atom_site_label_2
_geom_bond_site_symmetry_1
_geom_bond_site_symmetry_2
O1 C7 1_555 1_555
O2 C6 1_555 1_555
O3 C11 1_555 1_555
O4 C1 1_555 1_555
O5 C4 1_555 1_555
O6 C14 1_555 1_555
O7 C16 1_555 1_555
C1 C2 1_555 1_555
C2 H1 1_555 1_555
H2 C2 1_555 1_555
C3 C2 1_555 1_555
H3 C3 1_555 1_555
H4 C3 1_555 1_555
C4 C3 1_555 1_555
C5 C4 1_555 1_555
C6 C5 1_555 1_555
C7 O2 1_555 1_555
C8 C7 1_555 1_555
H5 C8 1_555 1_555
H6 C8 1_555 1_555
C9 C1 1_555 1_555
C10 C9 1_555 1_555
H7 C10 1_555 1_555
H8 C10 1_555 1_555
C11 O4 1_555 1_555
C12 C6 1_555 1_555
H9 C12 1_555 1_555
H10 C12 1_555 1_555
H11 C12 1_555 1_555
C13 C5 1_555 1_555
H12 C13 1_555 1_555
H13 C13 1_555 1_555
H14 C13 1_555 1_555
C14 C5 1_555 1_555
H15 C14 1_555 1_555
H16 C14 1_555 1_555
C15 C1 1_555 1_555
H17 C15 1_555 1_555
H18 C15 1_555 1_555
H19 C15 1_555 1_555
C16 O6 1_555 1_555
C17 C16 1_555 1_555
H20 C17 1_555 1_555
H21 C17 1_555 1_555
H22 C17 1_555 1_555
H23 O5 1_555 1_555
H24 C6 1_555 1_555
C4 C9 1_555 1_555
C8 C9 1_555 1_555
C10 C11 1_555 1_555

#END
