
#######################################################################
#
#                 Cambridge Crystallographic Data Centre
#                                CCDC 
#
#######################################################################
#
# If this CIF has been generated from an entry in the Cambridge 
# Structural Database, then it will include bibliographic, chemical, 
# crystal, experimental, refinement or atomic coordinate data resulting 
# from the CCDC's data processing and validation procedures.
#
#######################################################################

data_SORTOJ
_chemical_compound_source        'pericarps of Illicium oligandrum'
_chemical_name_common            
"1-(8a-Hydroxy-8,10a-dimethyl-2,5-dioxodecahydrofuro[3',2':1,5]cyclopenta[1,2-d]oxepin-8-yl)ethyl acetate"
_chemical_formula_moiety         'C17 H24 O7'
_chemical_name_systematic        'Oligandrumin B'
_symmetry_cell_setting           orthorhombic
_symmetry_space_group_name_H-M   'P 21 21 21'
_symmetry_Int_Tables_number      19
_space_group_name_Hall           'P 2ac 2ab'
loop_
_symmetry_equiv_pos_site_id
_symmetry_equiv_pos_as_xyz
1 x,y,z
2 1/2-x,-y,1/2+z
3 -x,1/2+y,1/2-z
4 1/2+x,1/2-y,-z
_cell_length_a                   7.8151(13)
_cell_length_b                   11.987(2)
_cell_length_c                   18.045(3)
_cell_angle_alpha                90
_cell_angle_beta                 90
_cell_angle_gamma                90
_cell_volume                     1690.45
_exptl_crystal_colour            colorless
_exptl_crystal_description       prismatic
_chemical_melting_point          '302-304 deg.C'
_cell_formula_units_Z            4
loop_
_atom_site_label
_atom_site_type_symbol
_atom_site_fract_x
_atom_site_fract_y
_atom_site_fract_z
O1 O 0.7859(4) 0.42794(19) 0.04650(16)
O2 O 0.8495(3) 0.24958(16) 0.03332(10)
O3 O 0.92308(18) 0.24320(12) 0.19669(10)
H1 H 1.0225 0.2239 0.2037
O4 O 0.4357(2) 0.07988(14) 0.26342(10)
O5 O 0.2775(2) 0.1752(2) 0.18692(14)
O6 O 0.5795(2) 0.20250(14) 0.37856(9)
O7 O 0.3617(3) 0.32035(17) 0.35738(14)
C1 C 0.7958(3) 0.1406(2) 0.06158(13)
C2 C 0.9526(3) 0.0760(2) 0.08852(16)
H2 H 0.9684 0.0087 0.0594
H3 H 1.0548 0.1214 0.0845
C3 C 0.9164(3) 0.04726(18) 0.16880(15)
H4 H 1.0220 0.0383 0.1964
H5 H 0.8501 -0.0209 0.1726
C4 C 0.8146(2) 0.14707(16) 0.19723(11)
C5 C 0.7430(3) 0.13000(18) 0.27773(12)
C6 C 0.6639(3) 0.23826(17) 0.31034(12)
H6 H 0.5771 0.2664 0.2759
C7 C 0.4048(3) 0.1200(2) 0.19568(15)
C8 C 0.5255(3) 0.0921(2) 0.13430(14)
H7 H 0.4655 0.0985 0.0874
H8 H 0.5618 0.0151 0.1397
C9 C 0.6859(2) 0.16788(18) 0.13222(11)
C10 C 0.6382(3) 0.29021(19) 0.12093(12)
H9 H 0.5218 0.2969 0.1028
H10 H 0.6481 0.3312 0.1671
C11 C 0.7632(4) 0.3337(2) 0.06461(14)
C12 C 0.7837(4) 0.3331(2) 0.33064(15)
H11 H 0.7238 0.3862 0.3608
H12 H 0.8234 0.3689 0.2863
H13 H 0.8797 0.3040 0.3576
C13 C 0.8894(4) 0.0888(2) 0.32772(16)
H14 H 0.8582 0.0988 0.3787
H15 H 0.9912 0.1307 0.3173
H16 H 0.9101 0.0111 0.3183
C14 C 0.6050(3) 0.03872(19) 0.28025(15)
H17 H 0.6345 -0.0193 0.2450
H18 H 0.6041 0.0055 0.3293
C15 C 0.7079(4) 0.0832(3) -0.00230(15)
H19 H 0.6137 0.1280 -0.0190
H20 H 0.6662 0.0117 0.0136
H21 H 0.7878 0.0732 -0.0422
C16 C 0.4270(4) 0.2483(2) 0.39350(15)
C17 C 0.3502(5) 0.1972(3) 0.4611(2)
H22 H 0.2603 0.2443 0.4794
H23 H 0.4367 0.1891 0.4985
H24 H 0.3043 0.1252 0.4490
loop_
_geom_bond_atom_site_label_1
_geom_bond_atom_site_label_2
_geom_bond_site_symmetry_1
_geom_bond_site_symmetry_2
O1 C11 1_555 1_555
O2 C1 1_555 1_555
O3 H1 1_555 1_555
O4 C7 1_555 1_555
O5 C7 1_555 1_555
O6 C6 1_555 1_555
O7 C16 1_555 1_555
C1 C2 1_555 1_555
C2 H2 1_555 1_555
H3 C2 1_555 1_555
C3 C2 1_555 1_555
H4 C3 1_555 1_555
H5 C3 1_555 1_555
C4 O3 1_555 1_555
C5 C4 1_555 1_555
C6 C5 1_555 1_555
H6 C6 1_555 1_555
C7 C8 1_555 1_555
C8 H7 1_555 1_555
H8 C8 1_555 1_555
C9 C1 1_555 1_555
C10 C9 1_555 1_555
H9 C10 1_555 1_555
H10 C10 1_555 1_555
C11 O2 1_555 1_555
C12 C6 1_555 1_555
H11 C12 1_555 1_555
H12 C12 1_555 1_555
H13 C12 1_555 1_555
C13 C5 1_555 1_555
H14 C13 1_555 1_555
H15 C13 1_555 1_555
H16 C13 1_555 1_555
C14 O4 1_555 1_555
H17 C14 1_555 1_555
H18 C14 1_555 1_555
C15 C1 1_555 1_555
H19 C15 1_555 1_555
H20 C15 1_555 1_555
H21 C15 1_555 1_555
C16 O6 1_555 1_555
C17 C16 1_555 1_555
H22 C17 1_555 1_555
H23 C17 1_555 1_555
H24 C17 1_555 1_555
C3 C4 1_555 1_555
C4 C9 1_555 1_555
C5 C14 1_555 1_555
C8 C9 1_555 1_555
C10 C11 1_555 1_555

#END
