
#######################################################################
#
#                 Cambridge Crystallographic Data Centre
#                                CCDC 
#
#######################################################################
#
# If this CIF has been generated from an entry in the Cambridge 
# Structural Database, then it will include bibliographic, chemical, 
# crystal, experimental, refinement or atomic coordinate data resulting 
# from the CCDC's data processing and validation procedures.
#
#######################################################################

data_SORVIG
_chemical_formula_moiety         'C8 H2 Br4 O4,C8 Br4 O4 2-,2(C6 H5 N2 1+)'
_chemical_name_systematic        
'bis(4-cyanopyridinium) 2,3,5,6-tetrabromoterephthalic acid 2,3,5,6-tetrabromoterephthalate'
_symmetry_cell_setting           triclinic
_symmetry_space_group_name_H-M   'P -1'
_symmetry_Int_Tables_number      2
_space_group_name_Hall           '-P 1'
loop_
_symmetry_equiv_pos_site_id
_symmetry_equiv_pos_as_xyz
1 x,y,z
2 -x,-y,-z
_cell_length_a                   8.8990(5)
_cell_length_b                   9.0236(7)
_cell_length_c                   12.0472(8)
_cell_angle_alpha                105.180(7)
_cell_angle_beta                 109.306(6)
_cell_angle_gamma                96.573(6)
_cell_volume                     859.414
_exptl_crystal_colour            colorless
_exptl_crystal_description       block
_cell_formula_units_Z            1
loop_
_atom_site_label
_atom_site_type_symbol
_atom_site_fract_x
_atom_site_fract_y
_atom_site_fract_z
Br1 Br 0.83775(10) 0.78289(10) -0.07903(7)
Br2 Br 0.66426(10) 0.40755(11) -0.24702(7)
O1 O 1.2426(8) 0.9103(7) 0.1330(6)
O2 O 1.0780(7) 0.8676(7) 0.2322(5)
H1 H 1.1236 0.9577 0.2782
C1 C 0.8579(8) 0.4631(9) -0.1046(6)
C2 C 0.9283(9) 0.6194(9) -0.0331(6)
C3 C 1.0690(9) 0.6548(10) 0.0711(6)
C4 C 1.1439(10) 0.8269(10) 0.1499(7)
Br1A Br 1.16225(10) 0.21711(10) 0.07903(7)
Br2A Br 1.33574(10) 0.59245(11) 0.24702(7)
O1A O 0.7574(8) 0.0897(7) -0.1330(6)
O2A O 0.9220(7) 0.1324(7) -0.2322(5)
H1A H 0.8764 0.0423 -0.2782
C1A C 1.1421(8) 0.5369(9) 0.1046(6)
C2A C 1.0717(9) 0.3806(9) 0.0331(6)
C3A C 0.9310(9) 0.3452(10) -0.0711(6)
C4A C 0.8561(10) 0.1731(10) -0.1499(7)
Br3 Br 0.54928(10) 0.28414(10) 0.38520(8)
Br4 Br 0.80609(9) 0.04071(11) 0.41055(8)
O3 O 0.1442(6) 0.1503(7) 0.3717(5)
O4 O 0.3016(6) 0.3351(7) 0.5509(5)
C5 C 0.3920(8) 0.1019(8) 0.4888(6)
C6 C 0.6276(8) 0.0186(9) 0.4613(6)
C7 C 0.5214(8) 0.1180(8) 0.4485(6)
C8 C 0.2738(8) 0.2096(9) 0.4727(6)
Br3A Br 0.45072(10) -0.28414(10) 0.61480(8)
Br4A Br 0.19391(9) -0.04071(11) 0.58945(8)
O3A O 0.8558(6) -0.1503(7) 0.6283(5)
O4A O 0.6984(6) -0.3351(7) 0.4491(5)
C5A C 0.6080(8) -0.1019(8) 0.5112(6)
C6A C 0.3724(8) -0.0186(9) 0.5387(6)
C7A C 0.4786(8) -0.1180(8) 0.5515(6)
C8A C 0.7262(8) -0.2096(9) 0.5273(6)
N1 N 0.9632(8) 0.3347(9) 0.2972(6)
N2 N 0.6138(11) 0.7043(13) 0.1042(8)
C9 C 0.7821(10) 0.5235(12) 0.2011(8)
C10 C 1.0102(10) 0.4888(11) 0.3531(7)
H2 H 1.1045 0.5301 0.4244
C11 C 0.6850(12) 0.6207(13) 0.1455(9)
C12 C 0.9212(10) 0.5870(11) 0.3068(7)
H3 H 0.9538 0.6953 0.3460
C13 C 0.8279(11) 0.2743(12) 0.1955(8)
H4 H 0.7982 0.1657 0.1579
C14 C 0.7315(10) 0.3636(12) 0.1443(8)
H5 H 0.6360 0.3190 0.0743
H6 H 1.064(10) 0.272(11) 0.342(7)
loop_
_geom_bond_atom_site_label_1
_geom_bond_atom_site_label_2
_geom_bond_site_symmetry_1
_geom_bond_site_symmetry_2
Br1 C2 1_555 1_555
Br2 C1 1_555 1_555
O1 C4 1_555 1_555
O2 H1 1_555 1_555
C1 C2 1_555 1_555
C2 C3 1_555 1_555
C3 C4 1_555 1_555
C4 O2 1_555 1_555
Br3 C7 1_555 1_555
Br4 C6 1_555 1_555
O3 C8 1_555 1_555
O4 C8 1_555 1_555
C5 C7 1_555 1_555
C6 C7 1_555 1_555
C8 C5 1_555 1_555
N1 C10 1_555 1_555
N2 C11 1_555 1_555
C9 C11 1_555 1_555
C10 H2 1_555 1_555
C12 C9 1_555 1_555
H3 C12 1_555 1_555
C13 N1 1_555 1_555
H4 C13 1_555 1_555
C14 C9 1_555 1_555
H5 C14 1_555 1_555
H6 N1 1_555 1_555
Br1A C2A 1_555 1_555
Br2A C1A 1_555 1_555
O1A C4A 1_555 1_555
O2A H1A 1_555 1_555
C1A C3 1_555 1_555
C2A C1A 1_555 1_555
C3A C1 1_555 1_555
C4A O2A 1_555 1_555
Br3A C7A 1_555 1_555
Br4A C6A 1_555 1_555
O3A C8A 1_555 1_555
O4A C8A 1_555 1_555
C5A C6 1_555 1_555
C6A C5 1_555 1_555
C7A C5A 1_555 1_555
C8A C5A 1_555 1_555
C10 C12 1_555 1_555
C13 C14 1_555 1_555
C2A C3A 1_555 1_555
C3A C4A 1_555 1_555
C6A C7A 1_555 1_555

#END
