
#######################################################################
#
#                 Cambridge Crystallographic Data Centre
#                                CCDC 
#
#######################################################################
#
# If this CIF has been generated from an entry in the Cambridge 
# Structural Database, then it will include bibliographic, chemical, 
# crystal, experimental, refinement or atomic coordinate data resulting 
# from the CCDC's data processing and validation procedures.
#
#######################################################################

data_SORWED
_chemical_formula_moiety         '2(C12 H7 N3 O2),C8 H2 Br4 O4'
_chemical_name_systematic        
'2,3,5,6-tetrabromoterephthalic acid bis(5-nitro-1,10-phenanthroline)'
_symmetry_cell_setting           monoclinic
_symmetry_space_group_name_H-M   'P 21/c'
_symmetry_Int_Tables_number      14
_space_group_name_Hall           '-P 2ybc'
loop_
_symmetry_equiv_pos_site_id
_symmetry_equiv_pos_as_xyz
1 x,y,z
2 -x,1/2+y,1/2-z
3 -x,-y,-z
4 x,1/2-y,1/2+z
_cell_length_a                   17.4367(5)
_cell_length_b                   11.5949(2)
_cell_length_c                   18.1466(11)
_cell_angle_alpha                90
_cell_angle_beta                 121.166(3)
_cell_angle_gamma                90
_cell_volume                     3139.31
_exptl_crystal_colour            colorless
_exptl_crystal_description       block
_cell_formula_units_Z            4
loop_
_atom_site_label
_atom_site_type_symbol
_atom_site_fract_x
_atom_site_fract_y
_atom_site_fract_z
O1 O -0.4963(3) -0.0085(4) -0.3216(3)
O2 O -0.3953(4) -0.0543(6) -0.1933(4)
N1 N -0.4197(4) -0.0292(4) -0.2676(4)
N2 N -0.1028(2) -0.0351(3) -0.2035(2)
N3 N -0.1663(2) 0.0416(3) -0.3653(2)
C1 C -0.1290(5) -0.1149(4) -0.0968(3)
H1 H -0.1048 -0.1487 -0.0427
C2 C -0.2252(3) 0.0228(3) -0.3401(2)
C3 C -0.3464(3) 0.0858(4) -0.4791(3)
H2 H -0.4066 0.1031 -0.5167
C4 C -0.2550(3) -0.0483(3) -0.2284(3)
C5 C -0.3177(3) 0.0454(3) -0.3957(3)
C6 C -0.1927(3) -0.0213(3) -0.2541(3)
C7 C -0.0734(4) -0.0795(4) -0.1268(3)
H3 H -0.0119 -0.0880 -0.0903
C8 C -0.3774(3) 0.0256(4) -0.3671(3)
H4 H -0.4378 0.0436 -0.4029
C9 C -0.2869(4) 0.0992(4) -0.5043(3)
H5 H -0.3054 0.1221 -0.5602
C10 C -0.3491(3) -0.0185(4) -0.2894(3)
C11 C -0.1973(3) 0.0781(4) -0.4453(3)
H6 H -0.1563 0.0903 -0.4626
C12 C -0.2185(5) -0.0991(4) -0.1476(4)
H7 H -0.2562 -0.1224 -0.1282
O3 O 0.1314(3) -0.3267(4) -0.4203(2)
O4 O 0.0350(2) -0.2218(4) -0.4149(2)
N4 N 0.1111(2) -0.2593(3) -0.3831(2)
N5 N 0.4222(2) -0.1874(3) -0.1440(2)
N6 N 0.3578(2) -0.1161(3) -0.0444(2)
C13 C 0.3260(3) -0.0783(4) 0.0032(3)
H8 H 0.3666 -0.0542 0.0590
C14 C 0.2728(3) -0.2243(3) -0.2653(2)
C15 C 0.1783(3) -0.2218(3) -0.2954(2)
C16 C 0.2982(2) -0.1506(3) -0.1260(2)
C17 C 0.2055(3) -0.1484(3) -0.1596(2)
C18 C 0.1463(3) -0.1859(3) -0.2461(3)
H9 H 0.0848 -0.1855 -0.2686
C19 C 0.3322(2) -0.1888(3) -0.1803(2)
C20 C 0.1740(3) -0.1088(4) -0.1069(3)
H10 H 0.1129 -0.1074 -0.1270
C21 C 0.3112(3) -0.2564(4) -0.3145(3)
H11 H 0.2749 -0.2812 -0.3711
C22 C 0.4543(3) -0.2173(4) -0.1929(3)
H12 H 0.5161 -0.2160 -0.1687
C23 C 0.4016(3) -0.2507(4) -0.2782(3)
H13 H 0.4277 -0.2690 -0.3102
C24 C 0.2347(3) -0.0726(4) -0.0257(3)
H14 H 0.2156 -0.0443 0.0101
Br1 Br -0.35504(3) -0.41468(4) -0.21479(3)
Br2 Br -0.13173(3) -0.43950(4) -0.09839(3)
Br3 Br -0.10956(3) -0.27093(5) -0.37750(3)
Br4 Br -0.32985(3) -0.23810(4) -0.49146(3)
O5 O -0.01327(18) -0.4669(2) -0.2174(2)
H15 H 0.0412 -0.4665 -0.1963
O6 O 0.0107(2) -0.2985(3) -0.1490(3)
O7 O -0.4635(2) -0.2370(3) -0.3855(3)
O8 O -0.46328(18) -0.3976(2) -0.45281(19)
H16 H -0.5174 -0.3885 -0.4810
C25 C -0.1814(3) -0.3125(3) -0.3315(3)
C26 C -0.1390(3) -0.3562(3) -0.2484(3)
C27 C -0.2735(3) -0.2992(3) -0.3790(2)
C28 C -0.2835(3) -0.3718(3) -0.2608(3)
C29 C -0.1908(3) -0.3848(3) -0.2131(2)
C30 C -0.0379(3) -0.3709(4) -0.1982(3)
C31 C -0.3252(2) -0.3298(3) -0.3438(3)
C32 C -0.4265(3) -0.3154(3) -0.3975(3)
loop_
_geom_bond_atom_site_label_1
_geom_bond_atom_site_label_2
_geom_bond_site_symmetry_1
_geom_bond_site_symmetry_2
O1 N1 1_555 1_555
O2 N1 1_555 1_555
N1 C10 1_555 1_555
N2 C6 1_555 1_555
N3 C2 1_555 1_555
C1 H1 1_555 1_555
C2 C5 1_555 1_555
C3 H2 1_555 1_555
C4 C6 1_555 1_555
C5 C3 1_555 1_555
C6 C2 1_555 1_555
C7 N2 1_555 1_555
H3 C7 1_555 1_555
C8 C5 1_555 1_555
H4 C8 1_555 1_555
C9 C3 1_555 1_555
H5 C9 1_555 1_555
C10 C4 1_555 1_555
C11 N3 1_555 1_555
H6 C11 1_555 1_555
C12 C1 1_555 1_555
H7 C12 1_555 1_555
O3 N4 1_555 1_555
O4 N4 1_555 1_555
N4 C15 1_555 1_555
N5 C19 1_555 1_555
N6 C13 1_555 1_555
C13 H8 1_555 1_555
C14 C15 1_555 1_555
C15 C18 1_555 1_555
C16 N6 1_555 1_555
C17 C16 1_555 1_555
C18 C17 1_555 1_555
H9 C18 1_555 1_555
C19 C14 1_555 1_555
C20 C17 1_555 1_555
H10 C20 1_555 1_555
C21 C14 1_555 1_555
H11 C21 1_555 1_555
C22 N5 1_555 1_555
H12 C22 1_555 1_555
C23 C21 1_555 1_555
H13 C23 1_555 1_555
C24 C13 1_555 1_555
H14 C24 1_555 1_555
Br1 C28 1_555 1_555
Br2 C29 1_555 1_555
Br3 C25 1_555 1_555
Br4 C27 1_555 1_555
O5 H15 1_555 1_555
O6 C30 1_555 1_555
O7 C32 1_555 1_555
O8 H16 1_555 1_555
C25 C26 1_555 1_555
C26 C29 1_555 1_555
C27 C25 1_555 1_555
C28 C29 1_555 1_555
C30 O5 1_555 1_555
C31 C27 1_555 1_555
C32 O8 1_555 1_555
C1 C7 1_555 1_555
C4 C12 1_555 1_555
C8 C10 1_555 1_555
C9 C11 1_555 1_555
C16 C19 1_555 1_555
C20 C24 1_555 1_555
C22 C23 1_555 1_555
C26 C30 1_555 1_555
C28 C31 1_555 1_555
C31 C32 1_555 1_555

#END
