
#######################################################################
#
#                 Cambridge Crystallographic Data Centre
#                                CCDC 
#
#######################################################################
#
# If this CIF has been generated from an entry in the Cambridge 
# Structural Database, then it will include bibliographic, chemical, 
# crystal, experimental, refinement or atomic coordinate data resulting 
# from the CCDC's data processing and validation procedures.
#
#######################################################################

data_SORWIH
_chemical_formula_moiety         'C8 H2 Br4 O4,2(C4 H4 N2 O2),2(H2 O1)'
_chemical_name_systematic        
'bis(pyrimidinediium-4,6-diolate) 2,3,5,6-tetrabromoterephthalic acid dihydrate'
_symmetry_cell_setting           monoclinic
_symmetry_space_group_name_H-M   'P 21/n'
_symmetry_Int_Tables_number      14
_space_group_name_Hall           '-P 2yn'
loop_
_symmetry_equiv_pos_site_id
_symmetry_equiv_pos_as_xyz
1 x,y,z
2 1/2-x,1/2+y,1/2-z
3 -x,-y,-z
4 1/2+x,1/2-y,1/2+z
_cell_length_a                   7.8320(4)
_cell_length_b                   16.5732(7)
_cell_length_c                   8.9252(4)
_cell_angle_alpha                90
_cell_angle_beta                 100.132(4)
_cell_angle_gamma                90
_cell_volume                     1140.44
_exptl_crystal_colour            colorless
_exptl_crystal_description       block
_cell_formula_units_Z            2
loop_
_atom_site_label
_atom_site_type_symbol
_atom_site_fract_x
_atom_site_fract_y
_atom_site_fract_z
Br1 Br 0.33505(5) 0.18154(2) 0.48944(5)
Br2 Br 0.25015(5) 0.06171(2) 0.18757(4)
C1 C 0.3910(4) 0.0262(2) 0.3687(4)
O1 O 0.5194(3) -0.10843(17) 0.1496(3)
H1 H 0.4928 -0.1438 0.0855
C2 C 0.4307(4) 0.0772(2) 0.4936(4)
C3 C 0.4592(4) -0.0514(2) 0.3748(4)
O2 O 0.2775(3) -0.14716(18) 0.2289(3)
C4 C 0.4092(4) -0.1081(2) 0.2424(4)
Br1B Br 0.66495(5) -0.18154(2) 0.51056(5)
Br2B Br 0.74985(5) -0.06171(2) 0.81243(4)
C1B C 0.6090(4) -0.0262(2) 0.6313(4)
O1B O 0.4806(3) 0.10843(17) 0.8504(3)
H1B H 0.5072 0.1438 0.9145
C2B C 0.5693(4) -0.0772(2) 0.5064(4)
C3B C 0.5408(4) 0.0514(2) 0.6252(4)
O2B O 0.7225(3) 0.14716(18) 0.7711(3)
C4B C 0.5908(4) 0.1081(2) 0.7576(4)
O3 O 0.1058(3) 0.02635(15) -0.3260(3)
C5 C 0.3271(4) -0.1568(2) -0.1904(4)
N1 N 0.2717(3) -0.20109(17) -0.3235(3)
H2 H 0.3060 -0.2501 -0.3287
N2 N 0.1133(3) -0.09540(17) -0.4390(3)
H3 H 0.0450 -0.0773 -0.5179
C6 C 0.1608(4) -0.0436(2) -0.3138(4)
O4 O 0.4260(3) -0.19330(14) -0.0852(3)
C7 C 0.1682(4) -0.1694(2) -0.4408(4)
H4 H 0.1334 -0.2008 -0.5273
C8 C 0.2686(4) -0.0783(2) -0.1894(4)
H5 H 0.3024 -0.0473 -0.1024
O5 O 0.0956(3) 0.15207(16) -0.1257(3)
H6 H 0.1270 0.1148 -0.1804
H7 H -0.0136 0.1585 -0.1485
loop_
_geom_bond_atom_site_label_1
_geom_bond_atom_site_label_2
_geom_bond_site_symmetry_1
_geom_bond_site_symmetry_2
Br1 C2 1_555 1_555
Br2 C1 1_555 1_555
C1 C2 1_555 1_555
O1 H1 1_555 1_555
C2 C3B 1_555 1_555
C3 C1 1_555 1_555
O2 C4 1_555 1_555
C4 O1 1_555 1_555
O3 C6 1_555 1_555
C5 N1 1_555 1_555
N1 H2 1_555 1_555
N2 H3 1_555 1_555
C6 N2 1_555 1_555
O4 C5 1_555 1_555
C7 N1 1_555 1_555
H4 C7 1_555 1_555
C8 C5 1_555 1_555
H5 C8 1_555 1_555
O5 H6 1_555 1_555
H7 O5 1_555 1_555
Br1B C2B 1_555 1_555
Br2B C1B 1_555 1_555
C1B C2B 1_555 1_555
O1B H1B 1_555 1_555
C2B C3 1_555 1_555
C3B C1B 1_555 1_555
O2B C4B 1_555 1_555
C4B O1B 1_555 1_555
C3 C4 1_555 1_555
N2 C7 1_555 1_555
C6 C8 1_555 1_555
C3B C4B 1_555 1_555

#END
