
#######################################################################
#
#                 Cambridge Crystallographic Data Centre
#                                CCDC 
#
#######################################################################
#
# If this CIF has been generated from an entry in the Cambridge 
# Structural Database, then it will include bibliographic, chemical, 
# crystal, experimental, refinement or atomic coordinate data resulting 
# from the CCDC's data processing and validation procedures.
#
#######################################################################

data_SOSNAR
_chemical_formula_moiety         'C15 H20 F3 N1 O3 S1'
_chemical_name_systematic        
2-(methoxymethyl)-1-((4-methylphenyl)sulfonyl)-2-(trifluoromethyl)piperidine
_symmetry_cell_setting           monoclinic
_symmetry_space_group_name_H-M   'P 21/c'
_symmetry_Int_Tables_number      14
_space_group_name_Hall           '-P 2ybc'
loop_
_symmetry_equiv_pos_site_id
_symmetry_equiv_pos_as_xyz
1 x,y,z
2 -x,1/2+y,1/2-z
3 -x,-y,-z
4 x,1/2-y,1/2+z
_cell_length_a                   10.56310(10)
_cell_length_b                   8.46600(10)
_cell_length_c                   19.6307(3)
_cell_angle_alpha                90
_cell_angle_beta                 116.6630(10)
_cell_angle_gamma                90
_cell_volume                     1568.84
_exptl_crystal_colour            colorless
_exptl_crystal_description       block
_cell_formula_units_Z            4
loop_
_atom_site_label
_atom_site_type_symbol
_atom_site_fract_x
_atom_site_fract_y
_atom_site_fract_z
C1 C 0.89269(15) 0.60556(16) 0.69736(8)
C2 C 0.91501(13) 0.61548(15) 0.62529(7)
C3 C 0.99027(13) 0.46498(15) 0.61709(8)
H1 H 1.0315 0.4889 0.5818
H2 H 1.0698 0.4407 0.6675
C4 C 0.89913(14) 0.31734(15) 0.58835(8)
H3 H 0.9543 0.2320 0.5797
H4 H 0.8695 0.2804 0.6269
C5 C 0.76941(13) 0.35575(15) 0.51434(7)
H5 H 0.7991 0.3868 0.4750
H6 H 0.7083 0.2611 0.4959
C6 C 0.68720(12) 0.48928(14) 0.52711(7)
H7 H 0.6038 0.5149 0.4785
H8 H 0.6526 0.4553 0.5640
C7 C 1.01804(13) 0.75382(16) 0.63864(7)
H9 H 0.9801 0.8508 0.6510
H10 H 1.1108 0.7295 0.6821
C8 C 1.12680(14) 0.90951(16) 0.58330(8)
H11 H 1.2204 0.8862 0.6250
H12 H 1.0874 1.0031 0.5962
H13 H 1.1356 0.9296 0.5365
C9 C 0.61798(13) 0.80143(14) 0.43376(7)
C10 C 0.48209(14) 0.85880(16) 0.38941(8)
H14 H 0.4218 0.8850 0.4119
C11 C 0.43591(14) 0.87717(17) 0.31144(8)
H15 H 0.3435 0.9174 0.2809
C12 C 0.52173(14) 0.83803(16) 0.27719(7)
C13 C 0.65709(14) 0.77818(16) 0.32320(8)
H16 H 0.7164 0.7489 0.3005
C14 C 0.70632(13) 0.76076(15) 0.40118(8)
H17 H 0.7990 0.7216 0.4319
C15 C 0.47229(17) 0.86099(19) 0.19278(8)
H18 H 0.3694 0.8763 0.1674
H19 H 0.4966 0.7675 0.1716
H20 H 0.5188 0.9541 0.1845
F1 F 1.01606(10) 0.58629(11) 0.76035(4)
F2 F 0.83314(10) 0.73720(10) 0.70814(5)
F3 F 0.80918(10) 0.48497(10) 0.69649(5)
N1 N 0.77745(10) 0.63329(12) 0.55675(6)
O1 O 1.03521(9) 0.77827(11) 0.57199(5)
O2 O 0.77005(9) 0.93018(11) 0.56672(5)
O3 O 0.55958(9) 0.77626(11) 0.54809(5)
S1 S 0.68082(3) 0.79571(3) 0.533879(16)
loop_
_geom_bond_atom_site_label_1
_geom_bond_atom_site_label_2
_geom_bond_site_symmetry_1
_geom_bond_site_symmetry_2
C1 C2 1_555 1_555
C2 C3 1_555 1_555
C3 H1 1_555 1_555
H2 C3 1_555 1_555
C4 C3 1_555 1_555
H3 C4 1_555 1_555
H4 C4 1_555 1_555
C5 C4 1_555 1_555
H5 C5 1_555 1_555
H6 C5 1_555 1_555
C6 C5 1_555 1_555
H7 C6 1_555 1_555
H8 C6 1_555 1_555
C7 C2 1_555 1_555
H9 C7 1_555 1_555
H10 C7 1_555 1_555
C8 H11 1_555 1_555
H12 C8 1_555 1_555
H13 C8 1_555 1_555
C9 C10 1_555 1_555
C10 H14 1_555 1_555
C11 C10 1_555 1_555
H15 C11 1_555 1_555
C12 C11 1_555 1_555
C13 C12 1_555 1_555
H16 C13 1_555 1_555
C14 C9 1_555 1_555
H17 C14 1_555 1_555
C15 C12 1_555 1_555
H18 C15 1_555 1_555
H19 C15 1_555 1_555
H20 C15 1_555 1_555
F1 C1 1_555 1_555
F2 C1 1_555 1_555
F3 C1 1_555 1_555
N1 C2 1_555 1_555
O1 C7 1_555 1_555
O2 S1 1_555 1_555
O3 S1 1_555 1_555
S1 C9 1_555 1_555
C6 N1 1_555 1_555
C8 O1 1_555 1_555
C13 C14 1_555 1_555
N1 S1 1_555 1_555

#END
