
#######################################################################
#
#                 Cambridge Crystallographic Data Centre
#                                CCDC 
#
#######################################################################
#
# If this CIF has been generated from an entry in the Cambridge 
# Structural Database, then it will include bibliographic, chemical, 
# crystal, experimental, refinement or atomic coordinate data resulting 
# from the CCDC's data processing and validation procedures.
#
#######################################################################

data_SOSWUS
_chemical_formula_moiety         'C38 H27 F3 O2'
_chemical_name_systematic        
5-Benzyl-1,2,3,4-tetraphenyl-5-trifluoroacetoxycyclopenta-1,3-diene
_symmetry_cell_setting           orthorhombic
_symmetry_space_group_name_H-M   'P b c a'
_symmetry_Int_Tables_number      61
_space_group_name_Hall           '-P 2ac 2ab'
loop_
_symmetry_equiv_pos_site_id
_symmetry_equiv_pos_as_xyz
1 x,y,z
2 1/2-x,1/2+y,z
3 x,1/2-y,1/2+z
4 1/2-x,-y,1/2+z
5 -x,-y,-z
6 1/2+x,1/2-y,-z
7 -x,1/2+y,1/2-z
8 1/2+x,y,1/2-z
_cell_length_a                   11.643(5)
_cell_length_b                   16.857(7)
_cell_length_c                   29.665(10)
_cell_angle_alpha                90
_cell_angle_beta                 90
_cell_angle_gamma                90
_cell_volume                     5822.23
_exptl_crystal_colour            yellow
_chemical_melting_point          182-183deg.C
_cell_formula_units_Z            8
loop_
_atom_site_label
_atom_site_type_symbol
_atom_site_fract_x
_atom_site_fract_y
_atom_site_fract_z
O1 O 0.1406(1) 0.4674(1) 0.2861(1)
O2 O -0.0405(2) 0.4301(1) 0.2687(1)
F1 F 0.0122(2) 0.5402(1) 0.1988(1)
F2 F 0.0559(2) 0.4200(1) 0.1830(1)
F3 F 0.1870(1) 0.5012(1) 0.2037(1)
C1 C 0.0319(2) 0.4636(1) 0.3608(1)
C2 C -0.0130(2) 0.3988(1) 0.3812(1)
C3 C 0.0445(2) 0.3261(1) 0.3645(1)
C4 C 0.1227(2) 0.3453(1) 0.3325(1)
C5 C 0.1334(2) 0.4356(1) 0.3327(1)
C6 C 0.0029(2) 0.5481(1) 0.3682(1)
C7 C -0.0456(2) 0.5735(2) 0.4090(1)
C8 C -0.0794(2) 0.6516(2) 0.4152(1)
C9 C -0.0656(3) 0.7065(2) 0.3810(1)
C10 C -0.0143(3) 0.6836(2) 0.3414(1)
C11 C 0.0203(3) 0.6055(2) 0.3350(1)
C12 C -0.1117(2) 0.3933(1) 0.4126(1)
C13 C -0.0980(2) 0.3664(2) 0.4571(1)
C14 C -0.1935(3) 0.3568(2) 0.4846(1)
C15 C -0.3021(3) 0.3725(2) 0.4684(1)
C16 C -0.3165(2) 0.3991(2) 0.4248(1)
C17 C -0.2214(2) 0.4102(1) 0.3973(1)
C18 C 0.0186(2) 0.2459(1) 0.3823(1)
C19 C -0.0904(2) 0.2124(1) 0.3793(1)
C20 C -0.1090(3) 0.1353(2) 0.3944(1)
C21 C -0.0198(3) 0.0925(2) 0.4134(1)
C22 C 0.0877(3) 0.1257(2) 0.4172(1)
C23 C 0.1074(2) 0.2021(2) 0.4020(1)
C24 C 0.1836(2) 0.2926(1) 0.3003(1)
C25 C 0.2774(2) 0.3182(2) 0.2750(1)
C26 C 0.3301(3) 0.2693(2) 0.2434(1)
C27 C 0.2900(3) 0.1930(2) 0.2365(1)
C28 C 0.1971(3) 0.1667(2) 0.2610(1)
C29 C 0.1434(2) 0.2151(1) 0.2920(1)
C30 C 0.2463(2) 0.4657(2) 0.3539(1)
C31 C 0.2737(2) 0.4287(1) 0.3996(1)
C32 C 0.3457(2) 0.3633(2) 0.4025(1)
C33 C 0.3707(2) 0.3289(2) 0.4439(1)
C34 C 0.3237(2) 0.3597(2) 0.4832(1)
C35 C 0.2523(3) 0.4248(2) 0.4809(1)
C36 C 0.2269(2) 0.4591(2) 0.4394(1)
C37 C 0.0520(2) 0.4554(1) 0.2593(1)
C38 C 0.0791(2) 0.4796(2) 0.2105(1)
H1 H -0.0567 0.5354 0.4326
H2 H -0.1124 0.6674 0.4435
H3 H -0.0916 0.7601 0.3848
H4 H -0.0018 0.7217 0.3178
H5 H 0.0575 0.5906 0.3074
H6 H -0.0225 0.3548 0.4683
H7 H -0.1833 0.3389 0.5150
H8 H -0.3673 0.3649 0.4878
H9 H -0.3921 0.4096 0.4134
H10 H -0.2310 0.4300 0.3672
H11 H -0.1523 0.2433 0.3670
H12 H -0.1834 0.1114 0.3911
H13 H -0.0334 0.0395 0.4241
H14 H 0.1492 0.0957 0.4304
H15 H 0.1819 0.2260 0.4049
H16 H 0.3068 0.3707 0.2801
H17 H 0.3938 0.2888 0.2262
H18 H 0.3268 0.1589 0.2149
H19 H 0.1685 0.1139 0.2563
H20 H 0.0781 0.1963 0.3086
H21 H 0.2418 0.5222 0.3572
H22 H 0.3082 0.4540 0.3336
H23 H 0.3786 0.3419 0.3754
H24 H 0.4198 0.2832 0.4453
H25 H 0.3417 0.3360 0.5118
H26 H 0.2202 0.4467 0.5080
H27 H 0.1760 0.5039 0.4377
loop_
_geom_bond_atom_site_label_1
_geom_bond_atom_site_label_2
_geom_bond_site_symmetry_1
_geom_bond_site_symmetry_2
O1 C5 1_555 1_555
O2 C37 1_555 1_555
F1 C38 1_555 1_555
F2 C38 1_555 1_555
F3 C38 1_555 1_555
C1 C2 1_555 1_555
C2 C3 1_555 1_555
C3 C4 1_555 1_555
C4 C5 1_555 1_555
C5 C1 1_555 1_555
C6 C1 1_555 1_555
C7 C6 1_555 1_555
C8 C7 1_555 1_555
C9 C8 1_555 1_555
C10 C9 1_555 1_555
C11 C6 1_555 1_555
C12 C2 1_555 1_555
C13 C12 1_555 1_555
C14 C13 1_555 1_555
C15 C14 1_555 1_555
C16 C15 1_555 1_555
C17 C12 1_555 1_555
C18 C3 1_555 1_555
C19 C18 1_555 1_555
C20 C19 1_555 1_555
C21 C20 1_555 1_555
C22 C21 1_555 1_555
C23 C18 1_555 1_555
C24 C4 1_555 1_555
C25 C24 1_555 1_555
C26 C25 1_555 1_555
C27 C26 1_555 1_555
C28 C27 1_555 1_555
C29 C24 1_555 1_555
C30 C5 1_555 1_555
C31 C30 1_555 1_555
C32 C31 1_555 1_555
C33 C32 1_555 1_555
C34 C33 1_555 1_555
C35 C34 1_555 1_555
C36 C31 1_555 1_555
C37 O1 1_555 1_555
C38 C37 1_555 1_555
H1 C7 1_555 1_555
H2 C8 1_555 1_555
H3 C9 1_555 1_555
H4 C10 1_555 1_555
H5 C11 1_555 1_555
H6 C13 1_555 1_555
H7 C14 1_555 1_555
H8 C15 1_555 1_555
H9 C16 1_555 1_555
H10 C17 1_555 1_555
H11 C19 1_555 1_555
H12 C20 1_555 1_555
H13 C21 1_555 1_555
H14 C22 1_555 1_555
H15 C23 1_555 1_555
H16 C25 1_555 1_555
H17 C26 1_555 1_555
H18 C27 1_555 1_555
H19 C28 1_555 1_555
H20 C29 1_555 1_555
H21 C30 1_555 1_555
H22 C30 1_555 1_555
H23 C32 1_555 1_555
H24 C33 1_555 1_555
H25 C34 1_555 1_555
H26 C35 1_555 1_555
H27 C36 1_555 1_555
C10 C11 1_555 1_555
C16 C17 1_555 1_555
C22 C23 1_555 1_555
C28 C29 1_555 1_555
C35 C36 1_555 1_555

#END
