
#######################################################################
#
#                 Cambridge Crystallographic Data Centre
#                                CCDC 
#
#######################################################################
#
# If this CIF has been generated from an entry in the Cambridge 
# Structural Database, then it will include bibliographic, chemical, 
# crystal, experimental, refinement or atomic coordinate data resulting 
# from the CCDC's data processing and validation procedures.
#
#######################################################################

data_SOTFIS
_chemical_formula_moiety         'C24 H22 N1 O3 P1'
_chemical_name_systematic        
'8,9-Dimethyl-4,10-diphenyl-1-vinyl-4-aza-10-phosphatricyclo[5.2.1.0^2,6^]dec-8-ene-3,5-dione 10-oxide'
_symmetry_cell_setting           orthorhombic
_symmetry_space_group_name_H-M   'P 21 21 21'
_symmetry_Int_Tables_number      19
_space_group_name_Hall           'P 2ac 2ab'
loop_
_symmetry_equiv_pos_site_id
_symmetry_equiv_pos_as_xyz
1 x,y,z
2 1/2-x,-y,1/2+z
3 -x,1/2+y,1/2-z
4 1/2+x,1/2-y,-z
_cell_length_a                   7.8173(17)
_cell_length_b                   12.915(3)
_cell_length_c                   19.645(4)
_cell_angle_alpha                90
_cell_angle_beta                 90
_cell_angle_gamma                90
_cell_volume                     1983.37
_exptl_crystal_colour            colorless
_exptl_crystal_description       block
_cell_formula_units_Z            4
loop_
_atom_site_label
_atom_site_type_symbol
_atom_site_fract_x
_atom_site_fract_y
_atom_site_fract_z
C1 C 0.4522(8) 1.0021(5) -0.0713(3)
H1 H 0.4222 0.9405 -0.0949
C2 C 0.5839(8) 1.0644(6) -0.0946(4)
H2 H 0.6462 1.045 -0.1341
C3 C 0.6250(7) 1.1545(5) -0.0606(3)
H3 H 0.7148 1.1972 -0.0771
C4 C 0.5359(7) 1.1830(5) -0.0027(3)
H4 H 0.5641 1.2453 0.0204
C5 C 0.4047(8) 1.1201(5) 0.0217(3)
H5 H 0.3438 1.1385 0.0618
C6 C 0.3649(7) 1.0309(5) -0.0131(3)
C7 C 0.0615(7) 0.9727(5) -0.0130(3)
C8 C 0.2569(7) 0.8781(5) 0.0521(3)
C9 C 0.0889(6) 0.8232(5) 0.0615(3)
H6 H 0.0974 0.7499 0.0455
C10 C -0.0408(7) 0.8841(5) 0.0178(3)
H7 H -0.0908 0.8391 -0.0186
C11 C -0.1835(7) 0.9261(5) 0.0665(3)
H8 H -0.2886 0.9546 0.0444
C12 C -0.0968(7) 0.9948(5) 0.1196(3)
C13 C -0.1341(7) 1.1090(5) 0.1217(3)
H9 H -0.0682 1.1411 0.1585
H10 H -0.2565 1.1198 0.1298
H11 H -0.1019 1.1405 0.0782
C14 C 0.0141(7) 0.9401(5) 0.1580(3)
C15 C 0.1265(8) 0.9804(5) 0.2134(3)
H12 H 0.1122 1.0556 0.2171
H13 H 0.2461 0.9645 0.2027
H14 H 0.095 0.9477 0.2566
C16 C 0.0213(7) 0.8272(5) 0.1365(3)
C17 C 0.0914(8) 0.7512(5) 0.1866(3)
H15 H 0.0455 0.7541 0.2313
C18 C 0.2086(8) 0.6815(6) 0.1757(3)
H16 H 0.2589 0.6752 0.1319
H17 H 0.2437 0.6369 0.2115
C19 C -0.3294(6) 0.8202(5) 0.1956(3)
C20 C -0.3652(7) 0.7262(5) 0.2273(3)
H18 H -0.3337 0.6629 0.2061
C21 C -0.4480(8) 0.7254(5) 0.2904(3)
H19 H -0.4675 0.6616 0.3133
C22 C -0.5011(7) 0.8167(6) 0.3195(3)
H20 H -0.5614 0.8152 0.3615
C23 C -0.4680(8) 0.9103(6) 0.2886(3)
H21 H -0.5038 0.973 0.3094
C24 C -0.3824(8) 0.9125(5) 0.2270(3)
H22 H -0.3592 0.977 0.2057
N1 N 0.2288(6) 0.9652(4) 0.0112(2)
O1 O 0.0121(5) 1.0395(4) -0.0513(2)
O2 O 0.3958(5) 0.8546(3) 0.0745(2)
O3 O -0.2556(4) 0.7109(3) 0.08085(19)
P1 P -0.21104(19) 0.80821(14) 0.11714(8)
loop_
_geom_bond_atom_site_label_1
_geom_bond_atom_site_label_2
_geom_bond_site_symmetry_1
_geom_bond_site_symmetry_2
C1 H1 1_555 1_555
C2 C1 1_555 1_555
H2 C2 1_555 1_555
C3 C2 1_555 1_555
H3 C3 1_555 1_555
C4 C3 1_555 1_555
H4 C4 1_555 1_555
C5 C4 1_555 1_555
H5 C5 1_555 1_555
C6 C1 1_555 1_555
C7 C10 1_555 1_555
C8 C9 1_555 1_555
C9 H6 1_555 1_555
C10 C9 1_555 1_555
H7 C10 1_555 1_555
C11 C10 1_555 1_555
H8 C11 1_555 1_555
C12 C11 1_555 1_555
C13 C12 1_555 1_555
H9 C13 1_555 1_555
H10 C13 1_555 1_555
H11 C13 1_555 1_555
C14 C12 1_555 1_555
C15 C14 1_555 1_555
H12 C15 1_555 1_555
H13 C15 1_555 1_555
H14 C15 1_555 1_555
C16 C9 1_555 1_555
C17 C16 1_555 1_555
H15 C17 1_555 1_555
C18 C17 1_555 1_555
H16 C18 1_555 1_555
H17 C18 1_555 1_555
C19 C20 1_555 1_555
C20 H18 1_555 1_555
C21 C20 1_555 1_555
H19 C21 1_555 1_555
C22 C21 1_555 1_555
H20 C22 1_555 1_555
C23 C22 1_555 1_555
H21 C23 1_555 1_555
C24 C19 1_555 1_555
H22 C24 1_555 1_555
N1 C6 1_555 1_555
O1 C7 1_555 1_555
O2 C8 1_555 1_555
O3 P1 1_555 1_555
P1 C11 1_555 1_555
C5 C6 1_555 1_555
C7 N1 1_555 1_555
C8 N1 1_555 1_555
C14 C16 1_555 1_555
C16 P1 1_555 1_555
C19 P1 1_555 1_555
C23 C24 1_555 1_555

#END
