
#######################################################################
#
#                 Cambridge Crystallographic Data Centre
#                                CCDC 
#
#######################################################################
#
# If this CIF has been generated from an entry in the Cambridge 
# Structural Database, then it will include bibliographic, chemical, 
# crystal, experimental, refinement or atomic coordinate data resulting 
# from the CCDC's data processing and validation procedures.
#
#######################################################################

data_SOTFOX
_chemical_formula_moiety         'C52 H74 F2 N2 O2'
_chemical_name_systematic        
2,9-Difluoro-5,12-di(n-hexadecyl)-5,12-dihydroquino[2,3-b]acridine-7,14-dione
_symmetry_cell_setting           monoclinic
_symmetry_space_group_name_H-M   'P 21/c'
_symmetry_Int_Tables_number      14
_space_group_name_Hall           '-P 2ybc'
loop_
_symmetry_equiv_pos_site_id
_symmetry_equiv_pos_as_xyz
1 x,y,z
2 -x,1/2+y,1/2-z
3 -x,-y,-z
4 x,1/2-y,1/2+z
_cell_length_a                   16.163(3)
_cell_length_b                   10.169(2)
_cell_length_c                   15.187(3)
_cell_angle_alpha                90
_cell_angle_beta                 113.16(3)
_cell_angle_gamma                90
_cell_volume                     2294.99
_exptl_crystal_colour            red
_exptl_crystal_description       block
_cell_formula_units_Z            2
_exptl_crystal_recrystallization_method 'chloroform/petroleum ether'
_exptl_crystal_preparation       photoluminescent
loop_
_atom_site_label
_atom_site_type_symbol
_atom_site_fract_x
_atom_site_fract_y
_atom_site_fract_z
C1 C 0.1012(2) 1.2306(3) 0.3804(2)
C2 C 0.1420(3) 1.2803(4) 0.3208(3)
H1 H 0.1490 1.2261 0.2749
C3 C 0.1715(3) 1.4074(4) 0.3298(3)
H2 H 0.1994 1.4395 0.2911
C4 C 0.1593(3) 1.4878(4) 0.3971(3)
C5 C 0.1219(3) 1.4454(4) 0.4564(3)
H3 H 0.1153 1.5020 0.5014
C6 C 0.0927(3) 1.3148(3) 0.4499(2)
C7 C 0.0545(3) 1.2690(4) 0.5167(3)
C8 C 0.0270(2) 1.1301(3) 0.5070(2)
C9 C 0.0349(2) 1.0508(3) 0.4339(2)
C10 C 0.0083(2) 0.9207(3) 0.4302(2)
H4 H 0.0143 0.8655 0.3842
C11 C 0.0677(3) 1.0209(3) 0.2892(2)
H5 H 0.0592 1.0779 0.2351
H6 H 0.0167 0.9617 0.2706
C12 C 0.1525(3) 0.9405(4) 0.3107(3)
H7 H 0.1637 0.8871 0.3672
H8 H 0.2033 0.9993 0.3243
C13 C 0.1443(3) 0.8518(4) 0.2272(3)
H9 H 0.0982 0.7864 0.2192
H10 H 0.1247 0.9042 0.1692
C14 C 0.2311(3) 0.7817(4) 0.2390(3)
H11 H 0.2766 0.8470 0.2445
H12 H 0.2519 0.7316 0.2981
C15 C 0.2213(3) 0.6900(4) 0.1570(3)
H13 H 0.2024 0.7406 0.0982
H14 H 0.1744 0.6264 0.1501
C16 C 0.3073(3) 0.6170(4) 0.1704(3)
H15 H 0.3552 0.6806 0.1825
H16 H 0.3235 0.5614 0.2266
C17 C 0.3009(3) 0.5328(4) 0.0860(3)
H17 H 0.2840 0.5880 0.0295
H18 H 0.2538 0.4680 0.0745
C18 C 0.3879(3) 0.4622(4) 0.1002(3)
H19 H 0.4042 0.4065 0.1564
H20 H 0.4351 0.5273 0.1130
C19 C 0.3843(3) 0.3782(4) 0.0160(3)
H21 H 0.3374 0.3127 0.0031
H22 H 0.3684 0.4336 -0.0403
C20 C 0.4728(3) 0.3093(4) 0.0333(3)
H23 H 0.5196 0.3749 0.0459
H24 H 0.4888 0.2543 0.0898
C21 C 0.4690(3) 0.2249(4) -0.0504(3)
H25 H 0.4218 0.1600 -0.0629
H26 H 0.4525 0.2803 -0.1067
C22 C 0.5556(3) 0.1541(4) -0.0366(3)
H27 H 0.5718 0.0969 0.0187
H28 H 0.6033 0.2183 -0.0237
C23 C 0.5485(3) 0.0727(4) -0.1231(3)
H29 H 0.4995 0.0105 -0.1367
H30 H 0.5330 0.1307 -0.1780
C24 C 0.6328(3) -0.0025(4) -0.1123(3)
H31 H 0.6491 -0.0598 -0.0569
H32 H 0.6816 0.0595 -0.1003
C25 C 0.6228(3) -0.0848(4) -0.1991(3)
H33 H 0.6068 -0.0274 -0.2543
H34 H 0.5737 -0.1463 -0.2113
C26 C 0.7069(3) -0.1610(5) -0.1884(4)
H35 H 0.7557 -0.1008 -0.1774
H36 H 0.6960 -0.2100 -0.2459
H37 H 0.7221 -0.2204 -0.1352
F1 F 0.1879(2) 1.6152(2) 0.4038(2)
N1 N 0.0688(2) 1.1024(3) 0.3700(2)
O1 O 0.0471(2) 1.3402(3) 0.5785(2)
C1B C -0.1012(2) 0.7694(3) 0.6196(2)
C2B C -0.1420(3) 0.7197(4) 0.6792(3)
H1B H -0.1490 0.7739 0.7251
C3B C -0.1715(3) 0.5926(4) 0.6702(3)
H2B H -0.1994 0.5605 0.7089
C4B C -0.1593(3) 0.5122(4) 0.6029(3)
C5B C -0.1219(3) 0.5546(4) 0.5436(3)
H3B H -0.1153 0.4980 0.4986
C6B C -0.0927(3) 0.6852(3) 0.5501(2)
C7B C -0.0545(3) 0.7310(4) 0.4833(3)
C8B C -0.0270(2) 0.8699(3) 0.4930(2)
C9B C -0.0349(2) 0.9492(3) 0.5661(2)
C10B C -0.0083(2) 1.0793(3) 0.5698(2)
H4B H -0.0143 1.1345 0.6158
C11B C -0.0677(3) 0.9791(3) 0.7108(2)
H5B H -0.0592 0.9221 0.7649
H6B H -0.0167 1.0383 0.7294
C12B C -0.1525(3) 1.0595(4) 0.6893(3)
H7B H -0.1637 1.1129 0.6328
H8B H -0.2033 1.0007 0.6757
C13B C -0.1443(3) 1.1482(4) 0.7728(3)
H9B H -0.0982 1.2136 0.7808
H10B H -0.1247 1.0958 0.8308
C14B C -0.2311(3) 1.2183(4) 0.7610(3)
H11B H -0.2766 1.1530 0.7555
H12B H -0.2519 1.2684 0.7019
C15B C -0.2213(3) 1.3100(4) 0.8430(3)
H13B H -0.2024 1.2594 0.9018
H14B H -0.1744 1.3736 0.8499
C16B C -0.3073(3) 1.3830(4) 0.8296(3)
H15B H -0.3552 1.3194 0.8175
H16B H -0.3235 1.4386 0.7734
C17B C -0.3009(3) 1.4672(4) 0.9140(3)
H17B H -0.2840 1.4120 0.9705
H18B H -0.2538 1.5320 0.9255
C18B C -0.3879(3) 1.5378(4) 0.8998(3)
H19B H -0.4042 1.5935 0.8436
H20B H -0.4351 1.4727 0.8870
C19B C -0.3843(3) 1.6218(4) 0.9840(3)
H21B H -0.3374 1.6873 0.9969
H22B H -0.3684 1.5664 1.0403
C20B C -0.4728(3) 1.6907(4) 0.9667(3)
H23B H -0.5196 1.6251 0.9541
H24B H -0.4888 1.7457 0.9102
C21B C -0.4690(3) 1.7751(4) 1.0504(3)
H25B H -0.4218 1.8400 1.0629
H26B H -0.4525 1.7197 1.1067
C22B C -0.5556(3) 1.8459(4) 1.0366(3)
H27B H -0.5718 1.9031 0.9813
H28B H -0.6033 1.7817 1.0237
C23B C -0.5485(3) 1.9273(4) 1.1231(3)
H29B H -0.4995 1.9895 1.1367
H30B H -0.5330 1.8693 1.1780
C24B C -0.6328(3) 2.0025(4) 1.1123(3)
H31B H -0.6491 2.0598 1.0569
H32B H -0.6816 1.9405 1.1003
C25B C -0.6228(3) 2.0848(4) 1.1991(3)
H33B H -0.6068 2.0274 1.2543
H34B H -0.5737 2.1463 1.2113
C26B C -0.7069(3) 2.1610(5) 1.1884(4)
H35B H -0.7557 2.1008 1.1774
H36B H -0.6960 2.2100 1.2459
H37B H -0.7221 2.2204 1.1352
F1B F -0.1879(2) 0.3848(2) 0.5962(2)
N1B N -0.0688(2) 0.8976(3) 0.6300(2)
O1B O -0.0471(2) 0.6598(3) 0.4215(2)
loop_
_geom_bond_atom_site_label_1
_geom_bond_atom_site_label_2
_geom_bond_site_symmetry_1
_geom_bond_site_symmetry_2
C1 C2 1_555 1_555
C2 H1 1_555 1_555
C3 C2 1_555 1_555
H2 C3 1_555 1_555
C4 C3 1_555 1_555
C5 C4 1_555 1_555
H3 C5 1_555 1_555
C6 C1 1_555 1_555
C7 C6 1_555 1_555
C8 C7 1_555 1_555
C9 C8 1_555 1_555
C10 C9 1_555 1_555
H4 C10 1_555 1_555
C11 H5 1_555 1_555
H6 C11 1_555 1_555
C12 C11 1_555 1_555
H7 C12 1_555 1_555
H8 C12 1_555 1_555
C13 C12 1_555 1_555
H9 C13 1_555 1_555
H10 C13 1_555 1_555
C14 C13 1_555 1_555
H11 C14 1_555 1_555
H12 C14 1_555 1_555
C15 C14 1_555 1_555
H13 C15 1_555 1_555
H14 C15 1_555 1_555
C16 C15 1_555 1_555
H15 C16 1_555 1_555
H16 C16 1_555 1_555
C17 C16 1_555 1_555
H17 C17 1_555 1_555
H18 C17 1_555 1_555
C18 C17 1_555 1_555
H19 C18 1_555 1_555
H20 C18 1_555 1_555
C19 C18 1_555 1_555
H21 C19 1_555 1_555
H22 C19 1_555 1_555
C20 C19 1_555 1_555
H23 C20 1_555 1_555
H24 C20 1_555 1_555
C21 C20 1_555 1_555
H25 C21 1_555 1_555
H26 C21 1_555 1_555
C22 C21 1_555 1_555
H27 C22 1_555 1_555
H28 C22 1_555 1_555
C23 C22 1_555 1_555
H29 C23 1_555 1_555
H30 C23 1_555 1_555
C24 C23 1_555 1_555
H31 C24 1_555 1_555
H32 C24 1_555 1_555
C25 C24 1_555 1_555
H33 C25 1_555 1_555
H34 C25 1_555 1_555
C26 C25 1_555 1_555
H35 C26 1_555 1_555
H36 C26 1_555 1_555
H37 C26 1_555 1_555
F1 C4 1_555 1_555
N1 C1 1_555 1_555
O1 C7 1_555 1_555
C1B C2B 1_555 1_555
C2B H1B 1_555 1_555
C3B C2B 1_555 1_555
H2B C3B 1_555 1_555
C4B C3B 1_555 1_555
C5B C4B 1_555 1_555
H3B C5B 1_555 1_555
C6B C1B 1_555 1_555
C7B C6B 1_555 1_555
C8B C10 1_555 1_555
C9B C8B 1_555 1_555
C10B C8 1_555 1_555
H4B C10B 1_555 1_555
C11B H5B 1_555 1_555
H6B C11B 1_555 1_555
C12B C11B 1_555 1_555
H7B C12B 1_555 1_555
H8B C12B 1_555 1_555
C13B C12B 1_555 1_555
H9B C13B 1_555 1_555
H10B C13B 1_555 1_555
C14B C13B 1_555 1_555
H11B C14B 1_555 1_555
H12B C14B 1_555 1_555
C15B C14B 1_555 1_555
H13B C15B 1_555 1_555
H14B C15B 1_555 1_555
C16B C15B 1_555 1_555
H15B C16B 1_555 1_555
H16B C16B 1_555 1_555
C17B C16B 1_555 1_555
H17B C17B 1_555 1_555
H18B C17B 1_555 1_555
C18B C17B 1_555 1_555
H19B C18B 1_555 1_555
H20B C18B 1_555 1_555
C19B C18B 1_555 1_555
H21B C19B 1_555 1_555
H22B C19B 1_555 1_555
C20B C19B 1_555 1_555
H23B C20B 1_555 1_555
H24B C20B 1_555 1_555
C21B C20B 1_555 1_555
H25B C21B 1_555 1_555
H26B C21B 1_555 1_555
C22B C21B 1_555 1_555
H27B C22B 1_555 1_555
H28B C22B 1_555 1_555
C23B C22B 1_555 1_555
H29B C23B 1_555 1_555
H30B C23B 1_555 1_555
C24B C23B 1_555 1_555
H31B C24B 1_555 1_555
H32B C24B 1_555 1_555
C25B C24B 1_555 1_555
H33B C25B 1_555 1_555
H34B C25B 1_555 1_555
C26B C25B 1_555 1_555
H35B C26B 1_555 1_555
H36B C26B 1_555 1_555
H37B C26B 1_555 1_555
F1B C4B 1_555 1_555
N1B C1B 1_555 1_555
O1B C7B 1_555 1_555
C5 C6 1_555 1_555
C9 N1 1_555 1_555
C11 N1 1_555 1_555
C5B C6B 1_555 1_555
C7B C8B 1_555 1_555
C9B C10B 1_555 1_555
C9B N1B 1_555 1_555
C11B N1B 1_555 1_555

#END
