
#######################################################################
#
#                 Cambridge Crystallographic Data Centre
#                                CCDC 
#
#######################################################################
#
# If this CIF has been generated from an entry in the Cambridge 
# Structural Database, then it will include bibliographic, chemical, 
# crystal, experimental, refinement or atomic coordinate data resulting 
# from the CCDC's data processing and validation procedures.
#
#######################################################################

data_SOTFIR
_chemical_formula_moiety         'C40 H50 F2 N2 O2'
_chemical_name_systematic        
5,12-Di(n-decyl)-2,9-difluoro-5,12-dihydroquino[2,3-b]acridine-7,14-dione
_symmetry_cell_setting           monoclinic
_symmetry_space_group_name_H-M   'C 2/c'
_symmetry_Int_Tables_number      15
_space_group_name_Hall           '-C 2yn'
loop_
_symmetry_equiv_pos_site_id
_symmetry_equiv_pos_as_xyz
1 x,y,z
2 -x,y,1/2-z
3 1/2+x,1/2+y,z
4 1/2-x,1/2+y,1/2-z
5 -x,-y,-z
6 x,-y,1/2+z
7 1/2-x,1/2-y,-z
8 1/2+x,1/2-y,1/2+z
_cell_length_a                   22.992(5)
_cell_length_b                   9.991(2)
_cell_length_c                   15.192(3)
_cell_angle_alpha                90
_cell_angle_beta                 98.67(3)
_cell_angle_gamma                90
_cell_volume                     3449.92
_exptl_crystal_colour            red
_exptl_crystal_description       block
_cell_formula_units_Z            4
_exptl_crystal_recrystallization_method 'chloroform/petroleum ether'
_exptl_crystal_preparation       photoluminescent
loop_
_atom_site_label
_atom_site_type_symbol
_atom_site_fract_x
_atom_site_fract_y
_atom_site_fract_z
C1 C 0.18316(9) 0.0181(2) 0.14712(15)
C2 C 0.15643(10) -0.0330(3) 0.21815(17)
H1 H 0.1534 0.0211 0.2671
C3 C 0.13497(11) -0.1611(3) 0.21586(18)
H2 H 0.1174 -0.1936 0.2628
C4 C 0.13963(12) -0.2412(3) 0.14379(19)
C5 C 0.16466(11) -0.1984(3) 0.07368(17)
H3 H 0.1675 -0.2554 0.0261
C6 C 0.18627(10) -0.0667(2) 0.07379(16)
C7 C 0.21135(11) -0.0210(2) -0.00335(16)
C8 C 0.23110(9) 0.1185(2) 0.00005(15)
C9 C 0.22738(9) 0.1986(2) 0.07575(14)
C10 C 0.24637(10) 0.3302(2) 0.07317(15)
H4 H 0.2440 0.3857 0.1216
C11 C 0.20785(10) 0.2286(2) 0.23052(15)
H5 H 0.2412 0.2890 0.2345
H6 H 0.2140 0.1703 0.2822
C12 C 0.15235(11) 0.3100(3) 0.23291(16)
H7 H 0.1192 0.2497 0.2322
H8 H 0.1450 0.3654 0.1800
C13 C 0.15682(11) 0.3987(3) 0.31479(17)
H9 H 0.1857 0.4681 0.3103
H10 H 0.1708 0.3453 0.3670
C14 C 0.09899(11) 0.4644(3) 0.32747(19)
H11 H 0.0845 0.5161 0.2747
H12 H 0.0703 0.3951 0.3335
C15 C 0.10416(12) 0.5554(3) 0.40809(19)
H13 H 0.1337 0.6229 0.4027
H14 H 0.1178 0.5029 0.4609
C16 C 0.04724(12) 0.6252(3) 0.4209(2)
H15 H 0.0354 0.6846 0.3709
H16 H 0.0166 0.5585 0.4211
C17 C 0.05275(12) 0.7051(3) 0.5062(2)
H17 H 0.0839 0.7705 0.5060
H18 H 0.0644 0.6450 0.5559
C18 C -0.00305(12) 0.7778(3) 0.5213(2)
H19 H -0.0149 0.8377 0.4716
H20 H -0.0342 0.7125 0.5223
C19 C 0.00364(13) 0.8577(3) 0.6066(2)
H21 H 0.0150 0.7974 0.6564
H22 H 0.0353 0.9218 0.6061
C20 C -0.05116(14) 0.9318(3) 0.6215(3)
H23 H -0.0628 0.9918 0.5726
H24 H -0.0434 0.9819 0.6759
H25 H -0.0822 0.8688 0.6254
F1 F 0.11818(9) -0.36862(16) 0.14252(12)
N1 N 0.20591(8) 0.14641(19) 0.14951(12)
O1 O 0.21516(9) -0.09379(18) -0.06767(12)
C1F C 0.31684(9) 0.4819(2) -0.14712(15)
C2F C 0.34357(10) 0.5330(3) -0.21815(17)
H1F H 0.3466 0.4789 -0.2671
C3F C 0.36503(11) 0.6611(3) -0.21586(18)
H2F H 0.3826 0.6936 -0.2628
C4F C 0.36037(12) 0.7412(3) -0.14379(19)
C5F C 0.33534(11) 0.6984(3) -0.07368(17)
H3F H 0.3325 0.7554 -0.0261
C6F C 0.31373(10) 0.5667(2) -0.07379(16)
C7F C 0.28865(11) 0.5210(2) 0.00335(16)
C8F C 0.26890(9) 0.3815(2) -0.00005(15)
C9F C 0.27262(9) 0.3014(2) -0.07575(14)
C10F C 0.25363(10) 0.1698(2) -0.07317(15)
H4F H 0.2560 0.1143 -0.1216
C11F C 0.29215(10) 0.2714(2) -0.23052(15)
H5F H 0.2588 0.2110 -0.2345
H6F H 0.2860 0.3297 -0.2822
C12F C 0.34765(11) 0.1900(3) -0.23291(16)
H7F H 0.3808 0.2503 -0.2322
H8F H 0.3550 0.1346 -0.1800
C13F C 0.34318(11) 0.1013(3) -0.31479(17)
H9F H 0.3143 0.0319 -0.3103
H10F H 0.3292 0.1547 -0.3670
C14F C 0.40101(11) 0.0356(3) -0.32747(19)
H11F H 0.4155 -0.0161 -0.2747
H12F H 0.4297 0.1049 -0.3335
C15F C 0.39584(12) -0.0554(3) -0.40809(19)
H13F H 0.3663 -0.1229 -0.4027
H14F H 0.3822 -0.0029 -0.4609
C16F C 0.45276(12) -0.1252(3) -0.4209(2)
H15F H 0.4646 -0.1846 -0.3709
H16F H 0.4834 -0.0585 -0.4211
C17F C 0.44725(12) -0.2051(3) -0.5062(2)
H17F H 0.4161 -0.2705 -0.5060
H18F H 0.4356 -0.1450 -0.5559
C18F C 0.50305(12) -0.2778(3) -0.5213(2)
H19F H 0.5149 -0.3377 -0.4716
H20F H 0.5342 -0.2125 -0.5223
C19F C 0.49636(13) -0.3577(3) -0.6066(2)
H21F H 0.4850 -0.2974 -0.6564
H22F H 0.4647 -0.4218 -0.6061
C20F C 0.55116(14) -0.4318(3) -0.6215(3)
H23F H 0.5628 -0.4918 -0.5726
H24F H 0.5434 -0.4819 -0.6759
H25F H 0.5822 -0.3688 -0.6254
F1F F 0.38182(9) 0.86862(16) -0.14252(12)
N1F N 0.29409(8) 0.35359(19) -0.14951(12)
O1F O 0.28484(9) 0.59379(18) 0.06767(12)
loop_
_geom_bond_atom_site_label_1
_geom_bond_atom_site_label_2
_geom_bond_site_symmetry_1
_geom_bond_site_symmetry_2
C1 C2 1_555 1_555
C2 H1 1_555 1_555
C3 C2 1_555 1_555
H2 C3 1_555 1_555
C4 C3 1_555 1_555
C5 C4 1_555 1_555
H3 C5 1_555 1_555
C6 C1 1_555 1_555
C7 C6 1_555 1_555
C8 C7 1_555 1_555
C9 C8 1_555 1_555
C10 C9 1_555 1_555
H4 C10 1_555 1_555
C11 H5 1_555 1_555
H6 C11 1_555 1_555
C12 C11 1_555 1_555
H7 C12 1_555 1_555
H8 C12 1_555 1_555
C13 C12 1_555 1_555
H9 C13 1_555 1_555
H10 C13 1_555 1_555
C14 C13 1_555 1_555
H11 C14 1_555 1_555
H12 C14 1_555 1_555
C15 C14 1_555 1_555
H13 C15 1_555 1_555
H14 C15 1_555 1_555
C16 C15 1_555 1_555
H15 C16 1_555 1_555
H16 C16 1_555 1_555
C17 C16 1_555 1_555
H17 C17 1_555 1_555
H18 C17 1_555 1_555
C18 C17 1_555 1_555
H19 C18 1_555 1_555
H20 C18 1_555 1_555
C19 C18 1_555 1_555
H21 C19 1_555 1_555
H22 C19 1_555 1_555
C20 C19 1_555 1_555
H23 C20 1_555 1_555
H24 C20 1_555 1_555
H25 C20 1_555 1_555
F1 C4 1_555 1_555
N1 C1 1_555 1_555
O1 C7 1_555 1_555
C1F C2F 1_555 1_555
C2F H1F 1_555 1_555
C3F C2F 1_555 1_555
H2F C3F 1_555 1_555
C4F C3F 1_555 1_555
C5F C4F 1_555 1_555
H3F C5F 1_555 1_555
C6F C1F 1_555 1_555
C7F C6F 1_555 1_555
C8F C10 1_555 1_555
C9F C8F 1_555 1_555
C10F C8 1_555 1_555
H4F C10F 1_555 1_555
C11F H5F 1_555 1_555
H6F C11F 1_555 1_555
C12F C11F 1_555 1_555
H7F C12F 1_555 1_555
H8F C12F 1_555 1_555
C13F C12F 1_555 1_555
H9F C13F 1_555 1_555
H10F C13F 1_555 1_555
C14F C13F 1_555 1_555
H11F C14F 1_555 1_555
H12F C14F 1_555 1_555
C15F C14F 1_555 1_555
H13F C15F 1_555 1_555
H14F C15F 1_555 1_555
C16F C15F 1_555 1_555
H15F C16F 1_555 1_555
H16F C16F 1_555 1_555
C17F C16F 1_555 1_555
H17F C17F 1_555 1_555
H18F C17F 1_555 1_555
C18F C17F 1_555 1_555
H19F C18F 1_555 1_555
H20F C18F 1_555 1_555
C19F C18F 1_555 1_555
H21F C19F 1_555 1_555
H22F C19F 1_555 1_555
C20F C19F 1_555 1_555
H23F C20F 1_555 1_555
H24F C20F 1_555 1_555
H25F C20F 1_555 1_555
F1F C4F 1_555 1_555
N1F C1F 1_555 1_555
O1F C7F 1_555 1_555
C5 C6 1_555 1_555
C9 N1 1_555 1_555
C11 N1 1_555 1_555
C5F C6F 1_555 1_555
C7F C8F 1_555 1_555
C9F C10F 1_555 1_555
C9F N1F 1_555 1_555
C11F N1F 1_555 1_555

#END
