
#######################################################################
#
#                 Cambridge Crystallographic Data Centre
#                                CCDC 
#
#######################################################################
#
# If this CIF has been generated from an entry in the Cambridge 
# Structural Database, then it will include bibliographic, chemical, 
# crystal, experimental, refinement or atomic coordinate data resulting 
# from the CCDC's data processing and validation procedures.
#
#######################################################################

data_SOTFAJ
_chemical_formula_moiety         'C28 H26 F2 N2 O2'
_chemical_name_systematic        
5,12-Di(n-butyl)-2,9-difluoro-5,12-dihydroquino[2,3-b]acridine-7,14-dione
_symmetry_cell_setting           monoclinic
_symmetry_space_group_name_H-M   'P 21/n'
_symmetry_Int_Tables_number      14
_space_group_name_Hall           '-P 2yn'
loop_
_symmetry_equiv_pos_site_id
_symmetry_equiv_pos_as_xyz
1 x,y,z
2 1/2-x,1/2+y,1/2-z
3 -x,-y,-z
4 1/2+x,1/2-y,1/2+z
_cell_length_a                   5.0366(10)
_cell_length_b                   19.092(4)
_cell_length_c                   11.454(2)
_cell_angle_alpha                90
_cell_angle_beta                 99.39(3)
_cell_angle_gamma                90
_cell_volume                     1086.64
_exptl_crystal_colour            red
_exptl_crystal_description       block
_cell_formula_units_Z            2
_exptl_crystal_recrystallization_method 'chloroform/petroleum ether'
_exptl_crystal_preparation       photoluminescent
loop_
_atom_site_label
_atom_site_type_symbol
_atom_site_fract_x
_atom_site_fract_y
_atom_site_fract_z
C1 C 0.4956(3) 0.12630(8) 0.07961(14)
C2 C 0.3443(3) 0.16813(10) 0.14704(16)
H1 H 0.3723 0.1639 0.2290
C3 C 0.1566(4) 0.21483(10) 0.09245(17)
H2 H 0.0571 0.2420 0.1371
C4 C 0.1168(3) 0.22122(9) -0.02919(17)
C5 C 0.2674(3) 0.18553(9) -0.09722(15)
H3 H 0.2426 0.1926 -0.1786
C6 C 0.4618(3) 0.13758(9) -0.04320(15)
C7 C 0.6226(3) 0.09930(9) -0.11799(14)
C8 C 0.8152(3) 0.04879(9) -0.05525(14)
C9 C 0.9766(3) 0.01087(9) -0.12044(14)
H4 H 0.9581 0.0184 -0.2016
C10 C 0.8352(3) 0.03803(8) 0.06812(14)
C11 C 0.6708(3) 0.05705(9) 0.25862(14)
H5 H 0.7107 0.0075 0.2689
H6 H 0.4911 0.0646 0.2763
C12 C 0.8700(3) 0.09805(10) 0.34764(14)
H7 H 1.0514 0.0825 0.3431
H8 H 0.8578 0.1474 0.3275
C13 C 0.8156(3) 0.08832(10) 0.47322(14)
H9 H 0.8073 0.0386 0.4898
H10 H 0.6416 0.1085 0.4794
C14 C 1.0284(4) 0.12192(12) 0.56558(16)
H11 H 1.1969 0.0982 0.5669
H12 H 0.9745 0.1184 0.6420
H13 H 1.0481 0.1704 0.5462
F1 F -0.0776(2) 0.26625(6) -0.08173(11)
N1 N 0.6722(2) 0.07560(8) 0.13376(11)
O1 O 0.5976(2) 0.10875(7) -0.22541(11)
C1B C 1.5044(3) -0.12630(8) -0.07961(14)
C2B C 1.6557(3) -0.16813(10) -0.14704(16)
H1B H 1.6277 -0.1639 -0.2290
C3B C 1.8434(4) -0.21483(10) -0.09245(17)
H2B H 1.9429 -0.2420 -0.1371
C4B C 1.8832(3) -0.22122(9) 0.02919(17)
C5B C 1.7326(3) -0.18553(9) 0.09722(15)
H3B H 1.7574 -0.1926 0.1786
C6B C 1.5382(3) -0.13758(9) 0.04320(15)
C7B C 1.3774(3) -0.09930(9) 0.11799(14)
C8B C 1.1848(3) -0.04879(9) 0.05525(14)
C9B C 1.0234(3) -0.01087(9) 0.12044(14)
H4B H 1.0419 -0.0184 0.2016
C10B C 1.1648(3) -0.03803(8) -0.06812(14)
C11B C 1.3292(3) -0.05705(9) -0.25862(14)
H5B H 1.2893 -0.0075 -0.2689
H6B H 1.5089 -0.0646 -0.2763
C12B C 1.1300(3) -0.09805(10) -0.34764(14)
H7B H 0.9486 -0.0825 -0.3431
H8B H 1.1422 -0.1474 -0.3275
C13B C 1.1844(3) -0.08832(10) -0.47322(14)
H9B H 1.1927 -0.0386 -0.4898
H10B H 1.3584 -0.1085 -0.4794
C14B C 0.9716(4) -0.12192(12) -0.56558(16)
H11B H 0.8031 -0.0982 -0.5669
H12B H 1.0255 -0.1184 -0.6420
H13B H 0.9519 -0.1704 -0.5462
F1B F 2.0776(2) -0.26625(6) 0.08173(11)
N1B N 1.3278(2) -0.07560(8) -0.13376(11)
O1B O 1.4024(2) -0.10875(7) 0.22541(11)
loop_
_geom_bond_atom_site_label_1
_geom_bond_atom_site_label_2
_geom_bond_site_symmetry_1
_geom_bond_site_symmetry_2
C1 C2 1_555 1_555
C2 H1 1_555 1_555
C3 C2 1_555 1_555
H2 C3 1_555 1_555
C4 C3 1_555 1_555
C5 C4 1_555 1_555
H3 C5 1_555 1_555
C6 C1 1_555 1_555
C7 C6 1_555 1_555
C8 C7 1_555 1_555
C9 C8 1_555 1_555
H4 C9 1_555 1_555
C10 C8 1_555 1_555
C11 H5 1_555 1_555
H6 C11 1_555 1_555
C12 C11 1_555 1_555
H7 C12 1_555 1_555
H8 C12 1_555 1_555
C13 C12 1_555 1_555
H9 C13 1_555 1_555
H10 C13 1_555 1_555
C14 C13 1_555 1_555
H11 C14 1_555 1_555
H12 C14 1_555 1_555
H13 C14 1_555 1_555
F1 C4 1_555 1_555
N1 C1 1_555 1_555
O1 C7 1_555 1_555
C1B C2B 1_555 1_555
C2B H1B 1_555 1_555
C3B C2B 1_555 1_555
H2B C3B 1_555 1_555
C4B C3B 1_555 1_555
C5B C4B 1_555 1_555
H3B C5B 1_555 1_555
C6B C1B 1_555 1_555
C7B C6B 1_555 1_555
C8B C7B 1_555 1_555
C9B C10 1_555 1_555
H4B C9B 1_555 1_555
C10B C9 1_555 1_555
C11B H5B 1_555 1_555
H6B C11B 1_555 1_555
C12B C11B 1_555 1_555
H7B C12B 1_555 1_555
H8B C12B 1_555 1_555
C13B C12B 1_555 1_555
H9B C13B 1_555 1_555
H10B C13B 1_555 1_555
C14B C13B 1_555 1_555
H11B C14B 1_555 1_555
H12B C14B 1_555 1_555
H13B C14B 1_555 1_555
F1B C4B 1_555 1_555
N1B C1B 1_555 1_555
O1B C7B 1_555 1_555
C5 C6 1_555 1_555
C10 N1 1_555 1_555
C11 N1 1_555 1_555
C5B C6B 1_555 1_555
C8B C9B 1_555 1_555
C8B C10B 1_555 1_555
C10B N1B 1_555 1_555
C11B N1B 1_555 1_555

#END
