
#######################################################################
#
#                 Cambridge Crystallographic Data Centre
#                                CCDC 
#
#######################################################################
#
# If this CIF has been generated from an entry in the Cambridge 
# Structural Database, then it will include bibliographic, chemical, 
# crystal, experimental, refinement or atomic coordinate data resulting 
# from the CCDC's data processing and validation procedures.
#
#######################################################################

data_SOTFAI
_chemical_formula_moiety         'C24 H20 P1 1+,C21 H19 N4 O4 1-'
_chemical_name_systematic        
'Tetraphenylphosphonium 5-cyano-3-(3-(5-cyano-1-ethyl-4-methyl-2,6-dioxo-1,2,3,6-tetrahydropyridin-4-ylidene)prop-1-enyl)-1-ethyl-4-methyl-6-oxo-1,6-dihydropyridin-2-olate'
_symmetry_cell_setting           monoclinic
_symmetry_space_group_name_H-M   'P 2/c'
_symmetry_Int_Tables_number      13
_space_group_name_Hall           '-P 2yc'
loop_
_symmetry_equiv_pos_site_id
_symmetry_equiv_pos_as_xyz
1 x,y,z
2 -x,y,1/2-z
3 -x,-y,-z
4 x,-y,1/2+z
_cell_length_a                   12.634(6)
_cell_length_b                   11.802
_cell_length_c                   12.875(9)
_cell_angle_alpha                90
_cell_angle_beta                 95.69(3)
_cell_angle_gamma                90
_cell_volume                     1910.29
_exptl_crystal_colour            gold
_chemical_melting_point          254-255deg.C
_cell_formula_units_Z            2
loop_
_atom_site_label
_atom_site_type_symbol
_atom_site_fract_x
_atom_site_fract_y
_atom_site_fract_z
C1 C 0.0091(6) 0.3888(7) 0.1045(6)
C2 C 0.1192(5) 0.3626(5) 0.0838(5)
C3 C 0.1868(4) 0.1726(4) 0.1332(4)
C4 C 0.2000(3) 0.0565(4) 0.1018(3)
C5 C 0.2600(4) -0.0120(5) 0.1793(4)
C6 C 0.1558(3) 0.0129(4) 0.0062(3)
C7 C 0.1659(5) -0.1116(5) -0.0176(5)
C8 C 0.1007(3) 0.0866(4) -0.0690(3)
C9 C 0.0947(3) 0.2070(4) -0.0455(3)
C10 C 0.0506(3) 0.0430(4) -0.1649(3)
C11 C 0.0000 0.1027(6) -0.2500
N1 N 0.1343(3) 0.2428(3) 0.0575(3)
N2 N 0.3103(4) -0.0656(5) 0.2400(4)
O1 O 0.2182(3) 0.2099(3) 0.2223(3)
O2 O 0.0547(3) 0.2804(3) -0.1062(2)
H1 H -0.041(5) 0.376(7) 0.043(5)
H2 H 0.004(5) 0.476(6) 0.126(5)
H3 H -0.017(5) 0.336(6) 0.162(5)
H4 H 0.167(4) 0.379(5) 0.150(4)
H5 H 0.149(4) 0.417(4) 0.029(4)
H6 H 0.208(4) -0.123(5) -0.101(4)
H7 H 0.091(5) -0.154(5) -0.023(5)
H8 H 0.210(5) -0.149(6) 0.019(5)
H9 H 0.053(3) -0.053(4) -0.177(3)
H10 H 0.000 0.188(5) -0.250
C10A C -0.0506(3) 0.0430(4) -0.3351(3)
C8A C -0.1007(3) 0.0866(4) -0.4310(3)
H9A H -0.053(3) -0.053(4) -0.323(3)
C6A C -0.1558(3) 0.0129(4) -0.5062(3)
C9A C -0.0947(3) 0.2070(4) -0.4545(3)
C4A C -0.2000(3) 0.0565(4) -0.6018(3)
C7A C -0.1659(5) -0.1116(5) -0.4824(5)
N1A N -0.1343(3) 0.2428(3) -0.5575(3)
O2A O -0.0547(3) 0.2804(3) -0.3938(2)
C3A C -0.1868(4) 0.1726(4) -0.6332(4)
C5A C -0.2600(4) -0.0120(5) -0.6793(4)
H6A H -0.208(4) -0.123(5) -0.399(4)
H7A H -0.091(5) -0.154(5) -0.477(5)
H8A H -0.210(5) -0.149(6) -0.519(5)
C2A C -0.1192(5) 0.3626(5) -0.5838(5)
O1A O -0.2182(3) 0.2099(3) -0.7223(3)
N2A N -0.3103(4) -0.0656(5) -0.7400(4)
C1A C -0.0091(6) 0.3888(7) -0.6045(6)
H4A H -0.167(4) 0.379(5) -0.650(4)
H5A H -0.149(4) 0.417(4) -0.529(4)
H1A H 0.041(5) 0.376(7) -0.543(5)
H2A H -0.004(5) 0.476(6) -0.626(5)
H3A H 0.017(5) 0.336(6) -0.662(5)
C12 C 0.4898(3) 0.2984(4) 0.1337(4)
C13 C 0.5594(4) 0.2093(5) 0.1280(4)
C14 C 0.5539(5) 0.1414(5) 0.0377(5)
C15 C 0.4774(5) 0.1615(5) -0.0466(5)
C16 C 0.4081(5) 0.2487(6) -0.0396(4)
C17 C 0.4128(4) 0.3182(5) 0.0489(4)
C18 C 0.6117(4) 0.4798(4) 0.2536(4)
C19 C 0.6901(4) 0.4644(5) 0.1879(4)
C20 C 0.7750(4) 0.5403(5) 0.1972(5)
C21 C 0.7804(5) 0.6269(6) 0.2697(6)
C22 C 0.7009(6) 0.6408(6) 0.3345(6)
C23 C 0.6157(5) 0.5685(5) 0.3259(5)
P1 P 0.5000 0.3872(1) 0.2500
H11 H 0.611(4) 0.190(5) 0.187(4)
H12 H 0.609(4) 0.074(5) 0.028(4)
H13 H 0.487(4) 0.112(5) -0.121(5)
H14 H 0.343(5) 0.259(5) -0.099(5)
H15 H 0.359(4) 0.382(4) 0.053(4)
H16 H 0.691(3) 0.395(4) 0.136(3)
H17 H 0.830(4) 0.525(5) 0.145(4)
H18 H 0.850(4) 0.692(5) 0.269(4)
H19 H 0.691(5) 0.710(6) 0.390(5)
H20 H 0.558(5) 0.585(5) 0.377(4)
C12A C 0.5102(3) 0.2984(4) 0.3663(4)
C18A C 0.3883(4) 0.4798(4) 0.2464(4)
C13A C 0.4406(4) 0.2093(5) 0.3720(4)
C17A C 0.5872(4) 0.3182(5) 0.4511(4)
C19A C 0.3099(4) 0.4644(5) 0.3121(4)
C23A C 0.3843(5) 0.5685(5) 0.1741(5)
C14A C 0.4461(5) 0.1414(5) 0.4623(5)
H11A H 0.389(4) 0.190(5) 0.313(4)
C16A C 0.5919(5) 0.2487(6) 0.5396(4)
H15A H 0.641(4) 0.382(4) 0.447(4)
C20A C 0.2250(4) 0.5403(5) 0.3028(5)
H16A H 0.309(3) 0.395(4) 0.364(3)
C22A C 0.2991(6) 0.6408(6) 0.1655(6)
H20A H 0.442(5) 0.585(5) 0.123(4)
C15A C 0.5226(5) 0.1615(5) 0.5466(5)
H12A H 0.391(4) 0.074(5) 0.472(4)
H14A H 0.657(5) 0.259(5) 0.599(5)
C21A C 0.2196(5) 0.6269(6) 0.2303(6)
H17A H 0.170(4) 0.525(5) 0.355(4)
H19A H 0.309(5) 0.710(6) 0.110(5)
H13A H 0.513(4) 0.112(5) 0.621(5)
H18A H 0.150(4) 0.692(5) 0.231(4)
loop_
_geom_bond_atom_site_label_1
_geom_bond_atom_site_label_2
_geom_bond_site_symmetry_1
_geom_bond_site_symmetry_2
C1 C2 1_555 1_555
C2 N1 1_555 1_555
C3 C4 1_555 1_555
C4 C5 1_555 1_555
C5 N2 1_555 1_555
C6 C4 1_555 1_555
C7 C6 1_555 1_555
C8 C6 1_555 1_555
C9 C8 1_555 1_555
C10 C8 1_555 1_555
C11 C10 1_555 1_555
C12 C13 1_555 1_555
C13 C14 1_555 1_555
C14 C15 1_555 1_555
C15 C16 1_555 1_555
C16 C17 1_555 1_555
C17 C12 1_555 1_555
C18 C19 1_555 1_555
C19 C20 1_555 1_555
C20 C21 1_555 1_555
C21 C22 1_555 1_555
C22 C23 1_555 1_555
C23 C18 1_555 1_555
N1 C3 1_555 1_555
O1 C3 1_555 1_555
O2 C9 1_555 1_555
P1 C12 1_555 1_555
H1 C1 1_555 1_555
H2 C1 1_555 1_555
H3 C1 1_555 1_555
H4 C2 1_555 1_555
H5 C2 1_555 1_555
H6 C7 1_555 1_555
H7 C7 1_555 1_555
H8 C7 1_555 1_555
H9 C10 1_555 1_555
H10 C11 1_555 1_555
H11 C13 1_555 1_555
H12 C14 1_555 1_555
H13 C15 1_555 1_555
H14 C16 1_555 1_555
H15 C17 1_555 1_555
H16 C19 1_555 1_555
H17 C20 1_555 1_555
H18 C21 1_555 1_555
H19 C22 1_555 1_555
H20 C23 1_555 1_555
C10A C11 1_555 1_555
C8A C10A 1_555 1_555
H9A C10A 1_555 1_555
C6A C8A 1_555 1_555
C9A C8A 1_555 1_555
C4A C6A 1_555 1_555
C7A C6A 1_555 1_555
N1A C9A 1_555 1_555
O2A C9A 1_555 1_555
C3A C4A 1_555 1_555
C5A C4A 1_555 1_555
H6A C7A 1_555 1_555
H7A C7A 1_555 1_555
H8A C7A 1_555 1_555
C2A N1A 1_555 1_555
O1A C3A 1_555 1_555
N2A C5A 1_555 1_555
C1A C2A 1_555 1_555
H4A C2A 1_555 1_555
H5A C2A 1_555 1_555
H1A C1A 1_555 1_555
H2A C1A 1_555 1_555
H3A C1A 1_555 1_555
C12A P1 1_555 1_555
C18A P1 1_555 1_555
C13A C12A 1_555 1_555
C17A C12A 1_555 1_555
C19A C18A 1_555 1_555
C23A C18A 1_555 1_555
C14A C13A 1_555 1_555
H11A C13A 1_555 1_555
C16A C17A 1_555 1_555
H15A C17A 1_555 1_555
C20A C19A 1_555 1_555
H16A C19A 1_555 1_555
C22A C23A 1_555 1_555
H20A C23A 1_555 1_555
C15A C14A 1_555 1_555
H12A C14A 1_555 1_555
H14A C16A 1_555 1_555
C21A C20A 1_555 1_555
H17A C20A 1_555 1_555
H19A C22A 1_555 1_555
H13A C15A 1_555 1_555
H18A C21A 1_555 1_555
C9 N1 1_555 1_555
C18 P1 1_555 1_555
N1A C3A 1_555 1_555
C16A C15A 1_555 1_555
C22A C21A 1_555 1_555

#END
