
#######################################################################
#
#                 Cambridge Crystallographic Data Centre
#                                CCDC 
#
#######################################################################
#
# If this CIF has been generated from an entry in the Cambridge 
# Structural Database, then it will include bibliographic, chemical, 
# crystal, experimental, refinement or atomic coordinate data resulting 
# from the CCDC's data processing and validation procedures.
#
#######################################################################

data_SOTNUM
_chemical_formula_moiety         'C18 H15 F3 N2 O2 S1'
_chemical_name_systematic        
N-((6-methylquinolin-8-yl)methyl)-4-(trifluoromethyl)benzenesulfonamide
_symmetry_cell_setting           monoclinic
_symmetry_space_group_name_H-M   'P 21/n'
_symmetry_Int_Tables_number      14
_space_group_name_Hall           '-P 2yn'
loop_
_symmetry_equiv_pos_site_id
_symmetry_equiv_pos_as_xyz
1 x,y,z
2 1/2-x,1/2+y,1/2-z
3 -x,-y,-z
4 1/2+x,1/2-y,1/2+z
_cell_length_a                   12.393(3)
_cell_length_b                   10.745(2)
_cell_length_c                   13.090(3)
_cell_angle_alpha                90
_cell_angle_beta                 100.07(3)
_cell_angle_gamma                90
_cell_volume                     1716.25
_cell_formula_units_Z            4
loop_
_atom_site_label
_atom_site_type_symbol
_atom_site_fract_x
_atom_site_fract_y
_atom_site_fract_z
S1 S 0.41931(3) 0.52469(4) 0.13784(3)
O1 O 0.53111(9) 0.51004(11) 0.12508(10)
O2 O 0.38888(10) 0.49671(11) 0.23584(9)
N1 N 0.21471(12) 0.56269(16) -0.12237(12)
N2 N 0.34720(11) 0.43674(13) 0.05174(11)
C1 C 0.22994(13) 0.41339(15) 0.05476(14)
H1 H 0.2243 0.3747 0.1222
H2 H 0.2015 0.3527 -0.0003
C2 C 0.15788(13) 0.52745(15) 0.04064(14)
C3 C 0.15492(13) 0.60167(17) -0.05000(14)
C4 C 0.21504(17) 0.6346(2) -0.20387(16)
H3 H 0.2566 0.6083 -0.2544
C5 C 0.15782(18) 0.7474(2) -0.22059(18)
H4 H 0.1615 0.7959 -0.2805
C6 C 0.09692(16) 0.7862(2) -0.14957(18)
H5 H 0.0570 0.8620 -0.1601
C7 C 0.09311(14) 0.71369(17) -0.06009(15)
C8 C 0.03391(14) 0.74676(18) 0.01854(17)
H6 H -0.0072 0.8218 0.0118
C9 C 0.03406(14) 0.67423(18) 0.10381(16)
C10 C 0.09778(14) 0.56343(17) 0.11334(15)
H7 H 0.0985 0.5125 0.1728
C11 C -0.02813(16) 0.7086(2) 0.18888(19)
H8 H -0.0660 0.7880 0.1720
H9 H 0.0231 0.7165 0.2546
H10 H -0.0820 0.6436 0.1953
C12 C 0.38389(12) 0.68200(14) 0.10803(13)
C13 C 0.32015(13) 0.74617(16) 0.16794(13)
H11 H 0.2983 0.7075 0.2264
C14 C 0.28888(14) 0.86720(16) 0.14132(14)
H12 H 0.2447 0.9120 0.1811
C15 C 0.32202(14) 0.92286(15) 0.05660(14)
C16 C 0.38599(15) 0.85882(17) -0.00270(15)
H13 H 0.4084 0.8980 -0.0606
C17 C 0.41720(14) 0.73720(16) 0.02286(14)
H14 H 0.4608 0.6923 -0.0174
C18 C 0.28611(17) 1.05280(18) 0.02916(17)
F1 F 0.3522(4) 1.1122(5) -0.0230(5)
F2 F 0.1903(4) 1.0547(4) -0.0399(5)
F3 F 0.2674(8) 1.1204(4) 0.1060(4)
H15 H 0.3583(17) 0.453(2) -0.0124(10)
F4? F 0.3184(11) 1.1016(10) -0.0482(7)
F5? F 0.1833(6) 1.0677(9) 0.0204(14)
F6? F 0.3340(12) 1.1294(6) 0.1049(8)
loop_
_geom_bond_atom_site_label_1
_geom_bond_atom_site_label_2
_geom_bond_site_symmetry_1
_geom_bond_site_symmetry_2
S1 O1 1_555 1_555
O2 S1 1_555 1_555
N1 C3 1_555 1_555
N2 S1 1_555 1_555
C1 N2 1_555 1_555
H1 C1 1_555 1_555
H2 C1 1_555 1_555
C2 C1 1_555 1_555
C3 C2 1_555 1_555
C4 N1 1_555 1_555
H3 C4 1_555 1_555
C5 C4 1_555 1_555
H4 C5 1_555 1_555
C6 C5 1_555 1_555
H5 C6 1_555 1_555
C7 C3 1_555 1_555
C8 C7 1_555 1_555
H6 C8 1_555 1_555
C9 C8 1_555 1_555
C10 C2 1_555 1_555
H7 C10 1_555 1_555
C11 C9 1_555 1_555
H8 C11 1_555 1_555
H9 C11 1_555 1_555
H10 C11 1_555 1_555
C12 S1 1_555 1_555
C13 C12 1_555 1_555
H11 C13 1_555 1_555
C14 C13 1_555 1_555
H12 C14 1_555 1_555
C15 C14 1_555 1_555
C16 C15 1_555 1_555
H13 C16 1_555 1_555
C17 C12 1_555 1_555
H14 C17 1_555 1_555
C18 C15 1_555 1_555
F1 C18 1_555 1_555
F2 C18 1_555 1_555
F3 C18 1_555 1_555
H15 N2 1_555 1_555
C6 C7 1_555 1_555
C9 C10 1_555 1_555
C16 C17 1_555 1_555

#END
