
#######################################################################
#
#                 Cambridge Crystallographic Data Centre
#                                CCDC 
#
#######################################################################
#
# If this CIF has been generated from an entry in the Cambridge 
# Structural Database, then it will include bibliographic, chemical, 
# crystal, experimental, refinement or atomic coordinate data resulting 
# from the CCDC's data processing and validation procedures.
#
#######################################################################

data_SOTNIA
_chemical_formula_moiety         'C48 H28 N4'
_chemical_name_systematic        
9,16-diphenyl-11,14-bis(pyridin-2-yl)benzo[8,9]triphenyleno[2,3-g]phthalazine
_symmetry_cell_setting           monoclinic
_symmetry_space_group_name_H-M   'C 2/c'
_symmetry_Int_Tables_number      15
_space_group_name_Hall           '-C 2yn'
loop_
_symmetry_equiv_pos_site_id
_symmetry_equiv_pos_as_xyz
1 x,y,z
2 -x,y,1/2-z
3 1/2+x,1/2+y,z
4 1/2-x,1/2+y,1/2-z
5 -x,-y,-z
6 x,-y,1/2+z
7 1/2-x,1/2-y,-z
8 1/2+x,1/2-y,1/2+z
_cell_length_a                   26.9975(6)
_cell_length_b                   14.9487(3)
_cell_length_c                   16.8201(4)
_cell_angle_alpha                90
_cell_angle_beta                 99.470(2)
_cell_angle_gamma                90
_cell_volume                     6695.7
_exptl_crystal_colour            red
_exptl_crystal_description       block
_cell_formula_units_Z            8
loop_
_atom_site_label
_atom_site_type_symbol
_atom_site_fract_x
_atom_site_fract_y
_atom_site_fract_z
C1 C -0.04702(9) 0.74686(13) 0.15627(15)
H1 H -0.0417(9) 0.8115(17) 0.1612(14)
C2 C 0.15698(9) 0.62939(15) 0.10527(14)
H2 H 0.1710(9) 0.6878(17) 0.1019(15)
C3 C 0.10751(9) 0.61082(13) 0.07563(12)
H3 H 0.0830(8) 0.6594(14) 0.0546(12)
C4 C 0.04378(7) -0.07849(13) 0.08594(15)
H4 H 0.0404(9) -0.1414(17) 0.0873(15)
C5 C 0.18758(8) 0.56099(17) 0.14050(14)
H5 H 0.2228(10) 0.5705(17) 0.1613(16)
C6 C -0.07001(9) 0.70514(13) 0.21366(14)
H6 H -0.0821(8) 0.7390(14) 0.2566(14)
C7 C -0.18425(8) 0.08258(15) 0.05841(14)
H7 H -0.2147(9) 0.0701(16) 0.0163(15)
C8 C -0.20723(8) 0.63813(13) 0.03926(12)
H8 H -0.2027(8) 0.6894(15) 0.0053(13)
C9 C -0.24316(6) 0.24849(12) 0.25276(11)
H9 H -0.2488(7) 0.1936(14) 0.2834(12)
C10 C -0.30522(6) 0.53157(13) 0.13936(13)
H10 H -0.3314(8) 0.5794(14) 0.1280(12)
C11 C -0.25208(7) 0.62384(12) 0.06518(12)
H11 H -0.2811(8) 0.6632(15) 0.0528(14)
C12 C -0.16128(9) 0.01458(14) 0.10612(16)
H12 H -0.1750(9) -0.0507(16) 0.0987(14)
C13 C 0.02427(8) -0.02558(13) 0.14060(13)
H13 H 0.0055(9) -0.0515(16) 0.1819(15)
C14 C -0.11990(8) 0.03254(12) 0.16381(14)
H14 H -0.1025(9) -0.0196(15) 0.1937(14)
C15 C -0.03084(8) 0.69718(13) 0.09621(13)
H15 H -0.0128(8) 0.7269(14) 0.0574(13)
C16 C -0.28069(6) 0.31114(14) 0.23834(12)
H16 H -0.3134(8) 0.3023(14) 0.2559(12)
C17 C -0.16601(6) 0.16953(12) 0.06895(11)
H17 H -0.1835(7) 0.2178(12) 0.0342(11)
C18 C -0.31191(6) 0.45727(14) 0.18027(13)
H18 H -0.3430(8) 0.4444(14) 0.2006(13)
C19 C -0.16686(7) 0.58081(11) 0.06271(11)
H19 H -0.1345(7) 0.5953(13) 0.0426(12)
C20 C 0.06929(7) -0.03773(13) 0.03203(14)
H20 H 0.0835(9) -0.0727(16) -0.0094(15)
C21 C -0.07833(7) 0.61384(11) 0.20946(11)
H21 H -0.0959(7) 0.5829(12) 0.2489(12)
C22 C -0.27367(5) 0.38969(12) 0.19621(10)
C23 C -0.17113(5) 0.50610(10) 0.11055(9)
C24 C -0.25886(6) 0.54808(11) 0.11134(10)
C25 C 0.11659(6) 0.46468(11) 0.11445(9)
C26 C 0.09462(5) 0.37296(10) 0.11460(9)
C27 C -0.03875(6) 0.60589(11) 0.09155(10)
H22 H -0.0272(8) 0.5686(14) 0.0478(13)
C28 C 0.00942(5) 0.41972(10) 0.14103(9)
H23 H 0.0211(7) 0.4826(12) 0.1555(11)
C29 C 0.05546(5) 0.10185(10) 0.09337(9)
C30 C -0.10176(6) 0.11909(11) 0.17551(11)
H24 H -0.0742(7) 0.1319(13) 0.2161(12)
C31 C -0.21888(5) 0.48583(10) 0.12980(9)
C32 C -0.12488(5) 0.18881(9) 0.12865(9)
C33 C 0.04367(5) 0.35446(10) 0.12593(8)
C34 C 0.06506(5) 0.19958(10) 0.10230(9)
C35 C -0.06382(5) 0.56347(10) 0.14731(9)
C36 C -0.02195(5) 0.24149(10) 0.11933(10)
H25 H -0.0317(6) 0.1766(12) 0.1124(10)
C37 C -0.22734(5) 0.40331(10) 0.16858(9)
C38 C -0.19830(6) 0.26025(11) 0.22314(10)
H26 H -0.1715(7) 0.2145(12) 0.2360(11)
C39 C -0.12896(5) 0.44314(9) 0.13525(8)
C40 C -0.10804(5) 0.28380(9) 0.13939(8)
C41 C -0.07870(5) 0.46722(9) 0.14021(9)
C42 C -0.19012(5) 0.33565(9) 0.17874(8)
C43 C -0.05734(5) 0.30689(9) 0.13203(8)
C44 C -0.14171(5) 0.35156(9) 0.14970(8)
C45 C -0.04156(5) 0.39869(9) 0.14039(8)
C46 C 0.02782(5) 0.26385(9) 0.11622(8)
C47 C 0.16721(7) 0.47715(14) 0.14469(11)
H27 H 0.1868(8) 0.4250(15) 0.1661(14)
C48 C 0.07508(6) 0.05411(12) 0.03518(11)
H28 H 0.0931(8) 0.0857(14) -0.0045(13)
N1 N 0.12581(5) 0.31038(9) 0.09997(9)
N2 N 0.11121(5) 0.22197(9) 0.09537(9)
N3 N 0.08655(5) 0.52996(9) 0.07986(9)
N4 N 0.02955(5) 0.06295(9) 0.14537(9)
loop_
_geom_bond_atom_site_label_1
_geom_bond_atom_site_label_2
_geom_bond_site_symmetry_1
_geom_bond_site_symmetry_2
C1 H1 1_555 1_555
C2 H2 1_555 1_555
C3 C2 1_555 1_555
H3 C3 1_555 1_555
C4 H4 1_555 1_555
C5 C2 1_555 1_555
H5 C5 1_555 1_555
C6 C1 1_555 1_555
H6 C6 1_555 1_555
C7 H7 1_555 1_555
C8 H8 1_555 1_555
C9 H9 1_555 1_555
C10 H10 1_555 1_555
C11 C8 1_555 1_555
H11 C11 1_555 1_555
C12 C7 1_555 1_555
H12 C12 1_555 1_555
C13 C4 1_555 1_555
H13 C13 1_555 1_555
C14 C12 1_555 1_555
H14 C14 1_555 1_555
C15 C1 1_555 1_555
H15 C15 1_555 1_555
C16 C9 1_555 1_555
H16 C16 1_555 1_555
C17 C7 1_555 1_555
H17 C17 1_555 1_555
C18 C10 1_555 1_555
H18 C18 1_555 1_555
C19 C8 1_555 1_555
H19 C19 1_555 1_555
C20 C4 1_555 1_555
H20 C20 1_555 1_555
C21 C6 1_555 1_555
H21 C21 1_555 1_555
C22 C16 1_555 1_555
C23 C19 1_555 1_555
C24 C10 1_555 1_555
C25 C26 1_555 1_555
C26 C33 1_555 1_555
C27 C15 1_555 1_555
H22 C27 1_555 1_555
C28 H23 1_555 1_555
C29 C34 1_555 1_555
C30 C14 1_555 1_555
H24 C30 1_555 1_555
C31 C23 1_555 1_555
C32 C17 1_555 1_555
C33 C28 1_555 1_555
C34 C46 1_555 1_555
C35 C21 1_555 1_555
C36 H25 1_555 1_555
C37 C22 1_555 1_555
C38 C9 1_555 1_555
H26 C38 1_555 1_555
C39 C23 1_555 1_555
C40 C32 1_555 1_555
C41 C35 1_555 1_555
C42 C37 1_555 1_555
C43 C36 1_555 1_555
C44 C39 1_555 1_555
C45 C28 1_555 1_555
C46 C33 1_555 1_555
C47 C5 1_555 1_555
H27 C47 1_555 1_555
C48 C20 1_555 1_555
H28 C48 1_555 1_555
N1 C26 1_555 1_555
N2 C34 1_555 1_555
N3 C3 1_555 1_555
N4 C13 1_555 1_555
C11 C24 1_555 1_555
C18 C22 1_555 1_555
C24 C31 1_555 1_555
C25 C47 1_555 1_555
C25 N3 1_555 1_555
C27 C35 1_555 1_555
C29 C48 1_555 1_555
C29 N4 1_555 1_555
C30 C32 1_555 1_555
C31 C37 1_555 1_555
C36 C46 1_555 1_555
C38 C42 1_555 1_555
C39 C41 1_555 1_555
C40 C43 1_555 1_555
C40 C44 1_555 1_555
C41 C45 1_555 1_555
C42 C44 1_555 1_555
C43 C45 1_555 1_555
N1 N2 1_555 1_555

#END
