
#######################################################################
#
#                 Cambridge Crystallographic Data Centre
#                                CCDC 
#
#######################################################################
#
# If this CIF has been generated from an entry in the Cambridge 
# Structural Database, then it will include bibliographic, chemical, 
# crystal, experimental, refinement or atomic coordinate data resulting 
# from the CCDC's data processing and validation procedures.
#
#######################################################################

data_SOTRUP
_chemical_formula_moiety         'C42 H62 Li2 N4 O2 Si2'
_chemical_name_systematic        
"bis(\m~2~-N-Benzyl-N'-(trimethylsilyl)benzamidinato-N,N,N')-bis(diethyl ether)-di-lithium"
_symmetry_cell_setting           triclinic
_symmetry_space_group_name_H-M   'P -1'
_symmetry_Int_Tables_number      2
_space_group_name_Hall           '-P 1'
loop_
_symmetry_equiv_pos_site_id
_symmetry_equiv_pos_as_xyz
1 x,y,z
2 -x,-y,-z
_cell_length_a                   10.202(4)
_cell_length_b                   10.833(5)
_cell_length_c                   12.278(5)
_cell_angle_alpha                108.612(5)
_cell_angle_beta                 100.183(6)
_cell_angle_gamma                114.169(5)
_cell_volume                     1096.56
_exptl_crystal_colour            colorless
_exptl_crystal_description       block
_cell_formula_units_Z            1
loop_
_atom_site_label
_atom_site_type_symbol
_atom_site_fract_x
_atom_site_fract_y
_atom_site_fract_z
Si1 Si -0.10344(11) 0.22589(10) 0.16910(9)
N1 N -0.1025(3) 0.5461(3) 0.0820(2)
N2 N -0.0823(3) 0.3633(3) 0.1224(2)
C1 C -0.1404(4) 0.6669(4) 0.1119(3)
H1 H -0.2242 0.6412 0.1441
H2 H -0.1763 0.6757 0.0367
C2 C -0.0035(4) 0.8166(4) 0.2058(3)
C3 C -0.0144(5) 0.9044(4) 0.3107(3)
H3 H -0.1089 0.8712 0.3231
C4 C 0.1109(5) 1.0392(4) 0.3967(3)
H4 H 0.1011 1.0974 0.4668
C5 C 0.2502(5) 1.0894(4) 0.3810(4)
H5 H 0.3361 1.1805 0.4408
C6 C 0.2634(5) 1.0051(4) 0.2766(4)
H6 H 0.3578 1.0395 0.2642
C7 C 0.1368(4) 0.8696(4) 0.1904(3)
H7 H 0.1466 0.8124 0.1198
C8 C -0.1386(3) 0.4552(3) 0.1360(3)
C9 C -0.2409(4) 0.4534(3) 0.2107(3)
C10 C -0.1838(4) 0.5521(4) 0.3349(3)
H8 H -0.0794 0.6264 0.3731
C11 C -0.2794(5) 0.5414(4) 0.4023(3)
H9 H -0.2398 0.6076 0.4862
C12 C -0.4332(5) 0.4335(4) 0.3465(4)
H10 H -0.4982 0.4264 0.3925
C13 C -0.4916(5) 0.3365(4) 0.2238(4)
H11 H -0.5966 0.2639 0.1858
C14 C -0.3962(4) 0.3456(4) 0.1565(3)
H12 H -0.4366 0.2782 0.0728
C15 C -0.1081(6) 0.2680(5) 0.3275(4)
H13 H -0.0180 0.3634 0.3854
H14 H -0.1089 0.1890 0.3489
H15 H -0.2000 0.2736 0.3306
C16 C -0.2814(6) 0.0441(5) 0.0651(5)
H16 H -0.3705 0.0535 0.0723
H17 H -0.2816 -0.0338 0.0879
H18 H -0.2851 0.0179 -0.0191
C17 C 0.0623(5) 0.1973(5) 0.1599(4)
H19 H 0.0613 0.1690 0.0763
H20 H 0.0550 0.1182 0.1837
H21 H 0.1572 0.2899 0.2149
C18 C 0.3108(7) 0.6435(6) 0.3422(4)
H22 H 0.2324 0.5488 0.3365
H23 H 0.4112 0.6528 0.3740
C19 C 0.3055(9) 0.7645(9) 0.4285(6)
H24 H 0.3856 0.8594 0.4379
H25 H 0.3214 0.7605 0.5073
H26 H 0.2060 0.7558 0.3991
C20 C 0.4162(8) 0.7423(8) 0.2013(6)
H27 H 0.3776 0.7593 0.1317
H28 H 0.4750 0.8389 0.2748
C21 C 0.5056(10) 0.6817(9) 0.1782(7)
H29 H 0.5308 0.6520 0.2421
H30 H 0.5994 0.7551 0.1768
H31 H 0.4510 0.5941 0.0992
O1 O 0.2871(3) 0.6352(3) 0.2207(2)
Li1 Li 0.0887(6) 0.5082(6) 0.0898(5)
Si1A Si 0.10344(11) 0.77411(10) -0.16910(9)
N1A N 0.1025(3) 0.4539(3) -0.0820(2)
N2A N 0.0823(3) 0.6367(3) -0.1224(2)
C1A C 0.1404(4) 0.3331(4) -0.1119(3)
H1A H 0.2242 0.3588 -0.1441
H2A H 0.1763 0.3243 -0.0367
C2A C 0.0035(4) 0.1834(4) -0.2058(3)
C3A C 0.0144(5) 0.0956(4) -0.3107(3)
H3A H 0.1089 0.1288 -0.3231
C4A C -0.1109(5) -0.0392(4) -0.3967(3)
H4A H -0.1011 -0.0974 -0.4668
C5A C -0.2502(5) -0.0894(4) -0.3810(4)
H5A H -0.3361 -0.1805 -0.4408
C6A C -0.2634(5) -0.0051(4) -0.2766(4)
H6A H -0.3578 -0.0395 -0.2642
C7A C -0.1368(4) 0.1304(4) -0.1904(3)
H7A H -0.1466 0.1876 -0.1198
C8A C 0.1386(3) 0.5448(3) -0.1360(3)
C9A C 0.2409(4) 0.5466(3) -0.2107(3)
C10A C 0.1838(4) 0.4479(4) -0.3349(3)
H8A H 0.0794 0.3736 -0.3731
C11A C 0.2794(5) 0.4586(4) -0.4023(3)
H9A H 0.2398 0.3924 -0.4862
C12A C 0.4332(5) 0.5665(4) -0.3465(4)
H10A H 0.4982 0.5736 -0.3925
C13A C 0.4916(5) 0.6635(4) -0.2238(4)
H11A H 0.5966 0.7361 -0.1858
C14A C 0.3962(4) 0.6544(4) -0.1565(3)
H12A H 0.4366 0.7218 -0.0728
C15A C 0.1081(6) 0.7320(5) -0.3275(4)
H13A H 0.0180 0.6366 -0.3854
H14A H 0.1089 0.8110 -0.3489
H15A H 0.2000 0.7264 -0.3306
C16A C 0.2814(6) 0.9559(5) -0.0651(5)
H16A H 0.3705 0.9465 -0.0723
H17A H 0.2816 1.0338 -0.0879
H18A H 0.2851 0.9821 0.0191
C17A C -0.0623(5) 0.8027(5) -0.1599(4)
H19A H -0.0613 0.8310 -0.0763
H20A H -0.0550 0.8818 -0.1837
H21A H -0.1572 0.7101 -0.2149
C18A C -0.3108(7) 0.3565(6) -0.3422(4)
H22A H -0.2324 0.4512 -0.3365
H23A H -0.4112 0.3472 -0.3740
C19A C -0.3055(9) 0.2355(9) -0.4285(6)
H24A H -0.3856 0.1406 -0.4379
H25A H -0.3214 0.2395 -0.5073
H26A H -0.2060 0.2442 -0.3991
C20A C -0.4162(8) 0.2577(8) -0.2013(6)
H27A H -0.3776 0.2407 -0.1317
H28A H -0.4750 0.1611 -0.2748
C21A C -0.5056(10) 0.3183(9) -0.1782(7)
H29A H -0.5308 0.3480 -0.2421
H30A H -0.5994 0.2449 -0.1768
H31A H -0.4510 0.4059 -0.0992
O1A O -0.2871(3) 0.3648(3) -0.2207(2)
Li1A Li -0.0887(6) 0.4918(6) -0.0898(5)
loop_
_geom_bond_atom_site_label_1
_geom_bond_atom_site_label_2
_geom_bond_site_symmetry_1
_geom_bond_site_symmetry_2
Si1 N2 1_555 1_555
N1 C1 1_555 1_555
N2 C8 1_555 1_555
C1 H1 1_555 1_555
H2 C1 1_555 1_555
C2 C1 1_555 1_555
C3 C2 1_555 1_555
H3 C3 1_555 1_555
C4 C3 1_555 1_555
H4 C4 1_555 1_555
C5 C4 1_555 1_555
H5 C5 1_555 1_555
C6 C5 1_555 1_555
H6 C6 1_555 1_555
C7 C2 1_555 1_555
H7 C7 1_555 1_555
C8 N1 1_555 1_555
C9 C8 1_555 1_555
C10 C9 1_555 1_555
H8 C10 1_555 1_555
C11 C10 1_555 1_555
H9 C11 1_555 1_555
C12 C11 1_555 1_555
H10 C12 1_555 1_555
C13 C12 1_555 1_555
H11 C13 1_555 1_555
C14 C9 1_555 1_555
H12 C14 1_555 1_555
C15 Si1 1_555 1_555
H13 C15 1_555 1_555
H14 C15 1_555 1_555
H15 C15 1_555 1_555
C16 Si1 1_555 1_555
H16 C16 1_555 1_555
H17 C16 1_555 1_555
H18 C16 1_555 1_555
C17 Si1 1_555 1_555
H19 C17 1_555 1_555
H20 C17 1_555 1_555
H21 C17 1_555 1_555
C18 H22 1_555 1_555
H23 C18 1_555 1_555
C19 C18 1_555 1_555
H24 C19 1_555 1_555
H25 C19 1_555 1_555
H26 C19 1_555 1_555
C20 H27 1_555 1_555
H28 C20 1_555 1_555
C21 C20 1_555 1_555
H29 C21 1_555 1_555
H30 C21 1_555 1_555
H31 C21 1_555 1_555
O1 C18 1_555 1_555
Li1 N1 1_555 1_555
Si1A N2A 1_555 1_555
N1A Li1 1_555 1_555
N2A C8A 1_555 1_555
C1A N1A 1_555 1_555
H1A C1A 1_555 1_555
H2A C1A 1_555 1_555
C2A C1A 1_555 1_555
C3A C2A 1_555 1_555
H3A C3A 1_555 1_555
C4A C3A 1_555 1_555
H4A C4A 1_555 1_555
C5A C4A 1_555 1_555
H5A C5A 1_555 1_555
C6A C5A 1_555 1_555
H6A C6A 1_555 1_555
C7A C2A 1_555 1_555
H7A C7A 1_555 1_555
C8A N1A 1_555 1_555
C9A C8A 1_555 1_555
C10A C9A 1_555 1_555
H8A C10A 1_555 1_555
C11A C10A 1_555 1_555
H9A C11A 1_555 1_555
C12A C11A 1_555 1_555
H10A C12A 1_555 1_555
C13A C12A 1_555 1_555
H11A C13A 1_555 1_555
C14A C9A 1_555 1_555
H12A C14A 1_555 1_555
C15A Si1A 1_555 1_555
H13A C15A 1_555 1_555
H14A C15A 1_555 1_555
H15A C15A 1_555 1_555
C16A Si1A 1_555 1_555
H16A C16A 1_555 1_555
H17A C16A 1_555 1_555
H18A C16A 1_555 1_555
C17A Si1A 1_555 1_555
H19A C17A 1_555 1_555
H20A C17A 1_555 1_555
H21A C17A 1_555 1_555
C18A H22A 1_555 1_555
H23A C18A 1_555 1_555
C19A C18A 1_555 1_555
H24A C19A 1_555 1_555
H25A C19A 1_555 1_555
H26A C19A 1_555 1_555
C20A H27A 1_555 1_555
H28A C20A 1_555 1_555
C21A C20A 1_555 1_555
H29A C21A 1_555 1_555
H30A C21A 1_555 1_555
H31A C21A 1_555 1_555
O1A C18A 1_555 1_555
Li1A N1 1_555 1_555
N2 Li1 1_555 1_555
C6 C7 1_555 1_555
C13 C14 1_555 1_555
C20 O1 1_555 1_555
O1 Li1 1_555 1_555
N1A Li1A 1_555 1_555
N2A Li1A 1_555 1_555
C6A C7A 1_555 1_555
C13A C14A 1_555 1_555
C20A O1A 1_555 1_555
O1A Li1A 1_555 1_555

#END
