
#######################################################################
#
#                 Cambridge Crystallographic Data Centre
#                                CCDC 
#
#######################################################################
#
# If this CIF has been generated from an entry in the Cambridge 
# Structural Database, then it will include bibliographic, chemical, 
# crystal, experimental, refinement or atomic coordinate data resulting 
# from the CCDC's data processing and validation procedures.
#
#######################################################################

data_SOTXUW
_chemical_name_common            
'Ethyl (3R,4S,S!S$)-4,5-isopropylidenedioxy-3-(t-butylsulfinylamino)-2,2-difluoropentanoate monohydrate'
_chemical_formula_moiety         'C14 H25 F2 N1 O5 S1,H2 O1'
_chemical_name_systematic        
'Ethyl (3R,4S,S~S~)-3-((t-butylsulfinyl)amino)-3-(2,2-dimethyl-1,3-dioxolan-4-yl)-2,2-difluoropropanoate monohydrate'
_symmetry_cell_setting           monoclinic
_symmetry_space_group_name_H-M   'P 21'
_symmetry_Int_Tables_number      4
_space_group_name_Hall           'P 2yb'
loop_
_symmetry_equiv_pos_site_id
_symmetry_equiv_pos_as_xyz
1 x,y,z
2 -x,1/2+y,-z
_cell_length_a                   12.221(2)
_cell_length_b                   6.0654(11)
_cell_length_c                   13.752(2)
_cell_angle_alpha                90
_cell_angle_beta                 96.378(3)
_cell_angle_gamma                90
_cell_volume                     1013.06
_exptl_crystal_colour            colorless
_exptl_crystal_description       prism
_cell_formula_units_Z            2
loop_
_atom_site_label
_atom_site_type_symbol
_atom_site_fract_x
_atom_site_fract_y
_atom_site_fract_z
C1 C 0.3693(4) 0.3050(15) 0.0926(3)
H1 H 0.3382 0.4356 0.1178
H2 H 0.3522 0.1801 0.131
H3 H 0.3392 0.2833 0.0258
C2 C 0.4809(4) 0.3279(15) 0.0972(3)
H4 H 0.4977 0.4364 0.0492
H5 H 0.5126 0.1886 0.08
C3 C 0.5619(3) 0.6050(7) 0.2020(2)
C4 C 0.6185(2) 0.6432(6) 0.3063(2)
C5 C 0.7206(2) 0.5040(5) 0.33604(19)
H6 H 0.7009 0.348 0.3277
C6 C 0.8120(2) 0.5560(7) 0.2732(2)
H7 H 0.8316 0.7123 0.28
C7 C 0.9140(3) 0.4169(10) 0.2959(3)
H8 H 0.9766 0.5074 0.3201
H9 H 0.9029 0.3053 0.3444
C8 C 0.8535(3) 0.3708(10) 0.1355(3)
C9 C 0.9038(9) 0.491(2) 0.0594(7)
H10 H 0.9168 0.6409 0.0796
H11 H 0.8551 0.4879 -0.0004
H12 H 0.9724 0.4225 0.049
C10 C 0.7977(9) 0.1738(18) 0.0958(11)
H13 H 0.8508 0.0593 0.0899
H14 H 0.7598 0.206 0.0325
H15 H 0.7456 0.126 0.1388
C11 C 0.7270(2) 0.4944(6) 0.6281(2)
C12 C 0.6162(3) 0.6098(8) 0.6085(3)
H16 H 0.5949 0.6667 0.6687
H17 H 0.5618 0.5065 0.5809
H18 H 0.622 0.7289 0.5634
C13 C 0.7218(3) 0.3149(8) 0.7044(3)
H19 H 0.7938 0.2526 0.7204
H20 H 0.6717 0.2018 0.6789
H21 H 0.6967 0.3769 0.7622
C14 C 0.8201(3) 0.6525(7) 0.6571(3)
H22 H 0.8165 0.7733 0.6118
H23 H 0.8892 0.5772 0.6563
H24 H 0.8141 0.7075 0.7218
F1 F 0.54158(13) 0.5953(5) 0.36802(13)
F2 F 0.64166(17) 0.8576(4) 0.31848(17)
N1 N 0.75623(17) 0.5446(4) 0.43900(16)
H25 H 0.7803 0.6722 0.4585
S1 S 0.74951(4) 0.34288(11) 0.51672(4)
O1 O 0.5319(2) 0.3954(5) 0.19299(17)
O2 O 0.5472(3) 0.7456(6) 0.1431(2)
O3 O 0.77508(19) 0.5093(5) 0.17375(16)
O4 O 0.86101(17) 0.2415(4) 0.54069(17)
O5 O 0.9297(4) 0.3230(13) 0.2090(3)
O6 O 0.9200(2) 0.8742(5) 0.4435(2)
H26 H 0.897(4) 0.990(9) 0.478(4)
H27 H 0.979(4) 0.865(10) 0.455(3)
loop_
_geom_bond_atom_site_label_1
_geom_bond_atom_site_label_2
_geom_bond_site_symmetry_1
_geom_bond_site_symmetry_2
C1 H1 1_555 1_555
H2 C1 1_555 1_555
H3 C1 1_555 1_555
C2 C1 1_555 1_555
H4 C2 1_555 1_555
H5 C2 1_555 1_555
C3 C4 1_555 1_555
C4 C5 1_555 1_555
C5 H6 1_555 1_555
C6 C5 1_555 1_555
H7 C6 1_555 1_555
C7 C6 1_555 1_555
H8 C7 1_555 1_555
H9 C7 1_555 1_555
C8 C9 1_555 1_555
C9 H10 1_555 1_555
H11 C9 1_555 1_555
H12 C9 1_555 1_555
C10 C8 1_555 1_555
H13 C10 1_555 1_555
H14 C10 1_555 1_555
H15 C10 1_555 1_555
C11 C12 1_555 1_555
C12 H16 1_555 1_555
H17 C12 1_555 1_555
H18 C12 1_555 1_555
C13 C11 1_555 1_555
H19 C13 1_555 1_555
H20 C13 1_555 1_555
H21 C13 1_555 1_555
C14 C11 1_555 1_555
H22 C14 1_555 1_555
H23 C14 1_555 1_555
H24 C14 1_555 1_555
F1 C4 1_555 1_555
F2 C4 1_555 1_555
N1 C5 1_555 1_555
H25 N1 1_555 1_555
S1 C11 1_555 1_555
O1 C2 1_555 1_555
O2 C3 1_555 1_555
O3 C6 1_555 1_555
O4 S1 1_555 1_555
O5 C7 1_555 1_555
O6 H26 1_555 1_555
H27 O6 1_555 1_555
C3 O1 1_555 1_555
C8 O3 1_555 1_555
C8 O5 1_555 1_555
N1 S1 1_555 1_555

#END
