
#######################################################################
#
#                 Cambridge Crystallographic Data Centre
#                                CCDC 
#
#######################################################################
#
# If this CIF has been generated from an entry in the Cambridge 
# Structural Database, then it will include bibliographic, chemical, 
# crystal, experimental, refinement or atomic coordinate data resulting 
# from the CCDC's data processing and validation procedures.
#
#######################################################################

data_SOTYOR
_chemical_formula_moiety         'C24 H16 N2 O1'
_chemical_name_systematic        
3-Benzylidene-2-(quinolin-8-yl)isoindolin-1-one
_symmetry_cell_setting           orthorhombic
_symmetry_space_group_name_H-M   'P b c a'
_symmetry_Int_Tables_number      61
_space_group_name_Hall           '-P 2ac 2ab'
loop_
_symmetry_equiv_pos_site_id
_symmetry_equiv_pos_as_xyz
1 x,y,z
2 1/2-x,-y,1/2+z
3 1/2+x,1/2-y,-z
4 -x,1/2+y,1/2-z
5 -x,-y,-z
6 1/2+x,y,1/2-z
7 1/2-x,1/2+y,z
8 x,1/2-y,1/2+z
_cell_length_a                   14.7042(4)
_cell_length_b                   8.8119(3)
_cell_length_c                   27.6407(7)
_cell_angle_alpha                90
_cell_angle_beta                 90
_cell_angle_gamma                90
_cell_volume                     3581.46
_exptl_crystal_colour            colorless
_exptl_crystal_description       block
_cell_formula_units_Z            8
loop_
_atom_site_label
_atom_site_type_symbol
_atom_site_fract_x
_atom_site_fract_y
_atom_site_fract_z
O1 O 0.17692(9) 0.99976(15) 0.33449(4)
N1 N 0.09641(9) 0.81645(16) 0.37653(4)
N2 N -0.08719(10) 0.84358(17) 0.35237(5)
C1 C 0.14795(11) 0.9480(2) 0.37236(6)
C2 C 0.15685(12) 1.0084(2) 0.42174(6)
C3 C 0.10883(11) 0.9160(2) 0.45296(6)
C4 C 0.07100(12) 0.7878(2) 0.42533(6)
C5 C 0.10491(12) 0.9502(2) 0.50189(6)
H1 H 0.0733 0.8884 0.5234
C6 C 0.14944(14) 1.0791(3) 0.51774(7)
H2 H 0.1468 1.1048 0.5503
C7 C 0.19780(14) 1.1709(3) 0.48632(8)
H3 H 0.2276 1.2564 0.4980
C8 C 0.20201(13) 1.1364(2) 0.43778(7)
H4 H 0.2343 1.1975 0.4164
C9 C 0.06056(12) 0.74143(19) 0.33470(5)
C10 C 0.11738(13) 0.6627(2) 0.30487(6)
H5 H 0.1795 0.6610 0.3111
C11 C 0.08244(16) 0.5843(3) 0.26480(7)
H6 H 0.1217 0.5314 0.2445
C12 C -0.00801(16) 0.5849(2) 0.25531(7)
H7 H -0.0305 0.5293 0.2293
C13 C -0.06815(13) 0.6690(2) 0.28453(6)
C14 C -0.03388(12) 0.75179(19) 0.32453(6)
C15 C -0.16213(14) 0.6792(3) 0.27534(7)
H8 H -0.1878 0.6246 0.2500
C16 C -0.21484(14) 0.7682(3) 0.30339(7)
H9 H -0.2771 0.7751 0.2979
C17 C -0.17406(13) 0.8502(2) 0.34103(7)
H10 H -0.2110 0.9139 0.3593
C18 C 0.02662(12) 0.6695(2) 0.44382(6)
H11 H 0.0120 0.6779 0.4764
C19 C -0.00269(14) 0.5281(2) 0.42062(6)
C20 C 0.05502(15) 0.4446(2) 0.39116(7)
H12 H 0.1141 0.4786 0.3859
C21 C 0.02612(18) 0.3119(3) 0.36961(8)
H13 H 0.0653 0.2587 0.3493
C22 C -0.0599(2) 0.2580(3) 0.37788(9)
H14 H -0.0793 0.1690 0.3631
C23 C -0.11698(18) 0.3360(3) 0.40812(9)
H15 H -0.1749 0.2984 0.4143
C24 C -0.08935(15) 0.4699(2) 0.42948(7)
H16 H -0.1288 0.5217 0.4499
loop_
_geom_bond_atom_site_label_1
_geom_bond_atom_site_label_2
_geom_bond_site_symmetry_1
_geom_bond_site_symmetry_2
O1 C1 1_555 1_555
N1 C1 1_555 1_555
N2 C14 1_555 1_555
C1 C2 1_555 1_555
C2 C3 1_555 1_555
C3 C4 1_555 1_555
C4 N1 1_555 1_555
C5 C3 1_555 1_555
H1 C5 1_555 1_555
C6 C5 1_555 1_555
H2 C6 1_555 1_555
C7 C6 1_555 1_555
H3 C7 1_555 1_555
C8 C2 1_555 1_555
H4 C8 1_555 1_555
C9 N1 1_555 1_555
C10 C9 1_555 1_555
H5 C10 1_555 1_555
C11 C10 1_555 1_555
H6 C11 1_555 1_555
C12 C11 1_555 1_555
H7 C12 1_555 1_555
C13 C12 1_555 1_555
C14 C9 1_555 1_555
C15 C13 1_555 1_555
H8 C15 1_555 1_555
C16 C15 1_555 1_555
H9 C16 1_555 1_555
C17 N2 1_555 1_555
H10 C17 1_555 1_555
C18 C4 1_555 1_555
H11 C18 1_555 1_555
C19 C18 1_555 1_555
C20 C19 1_555 1_555
H12 C20 1_555 1_555
C21 C20 1_555 1_555
H13 C21 1_555 1_555
C22 C21 1_555 1_555
H14 C22 1_555 1_555
C23 C22 1_555 1_555
H15 C23 1_555 1_555
C24 C19 1_555 1_555
H16 C24 1_555 1_555
C7 C8 1_555 1_555
C13 C14 1_555 1_555
C16 C17 1_555 1_555
C23 C24 1_555 1_555

#END
