
#######################################################################
#
#                 Cambridge Crystallographic Data Centre
#                                CCDC 
#
#######################################################################
#
# If this CIF has been generated from an entry in the Cambridge 
# Structural Database, then it will include bibliographic, chemical, 
# crystal, experimental, refinement or atomic coordinate data resulting 
# from the CCDC's data processing and validation procedures.
#
#######################################################################

data_SOVCAH
_chemical_formula_moiety         'C23 H24 O6'
_chemical_name_systematic        
'Diethyl heptacyclo(10.2.2.1^5,8^.0^2,6^.0^2,11^.0^4,9^.0^7,11^)heptadec-15-ene-3,10-dione-13,14-dicarboxylate'
_symmetry_cell_setting           monoclinic
_symmetry_space_group_name_H-M   'P 21/c'
_symmetry_Int_Tables_number      14
_space_group_name_Hall           '-P 2ybc'
loop_
_symmetry_equiv_pos_site_id
_symmetry_equiv_pos_as_xyz
1 x,y,z
2 -x,1/2+y,1/2-z
3 -x,-y,-z
4 x,1/2-y,1/2+z
_cell_length_a                   17.022(1)
_cell_length_b                   6.587(1)
_cell_length_c                   18.258(2)
_cell_angle_alpha                90
_cell_angle_beta                 113.20(1)
_cell_angle_gamma                90
_cell_volume                     1881.62
_exptl_crystal_colour            colorless
_cell_formula_units_Z            4
loop_
_atom_site_label
_atom_site_type_symbol
_atom_site_fract_x
_atom_site_fract_y
_atom_site_fract_z
O1 O 0.3289(2) 0.1982(5) 0.7595(2)
O2 O 0.2202(2) 0.7346(4) 0.7442(2)
O3 O 0.1853(2) 0.6535(5) 0.9982(2)
O4 O 0.3264(2) 0.6097(4) 1.0396(1)
O5 O 0.3101(2) 0.1505(5) 1.0333(1)
O6 O 0.4245(1) 0.2341(4) 1.0084(1)
C1 C 0.2247(2) 0.1493(5) 0.8593(2)
C2 C 0.1918(2) 0.2190(5) 0.7727(2)
C3 C 0.2534(2) 0.2245(5) 0.7311(2)
C4 C 0.1964(2) 0.2671(6) 0.6444(2)
C5 C 0.1210(2) 0.1211(6) 0.6277(2)
C6 C 0.1074(2) 0.1371(5) 0.7073(2)
C7 C 0.0650(2) 0.3487(6) 0.7005(2)
C8 C 0.0598(2) 0.4288(6) 0.6186(2)
C9 C 0.1537(2) 0.4852(6) 0.6382(2)
C10 C 0.1814(2) 0.5778(5) 0.7205(2)
C11 C 0.1477(2) 0.4349(5) 0.7656(2)
C12 C 0.1479(2) 0.4957(5) 0.8481(2)
C13 C 0.2441(2) 0.5170(5) 0.9077(2)
C14 C 0.2904(2) 0.3123(5) 0.9088(2)
C15 C 0.1500(2) 0.1477(5) 0.8847(2)
C16 C 0.1109(2) 0.3231(5) 0.8769(2)
C17 C 0.0446(2) 0.2356(6) 0.5686(2)
C18 C 0.2462(2) 0.5980(5) 0.9862(2)
C19 C 0.3394(3) 0.6899(6) 1.1183(2)
C20 C 0.4293(3) 0.6461(9) 1.1728(2)
C21 C 0.3408(2) 0.2264(5) 0.9912(2)
C22 C 0.4801(2) 0.1439(7) 1.0839(2)
C23 C 0.5683(3) 0.2341(9) 1.1032(3)
H1 H 0.257(3) 0.016(8) 0.869(3)
H2 H 0.224(3) 0.259(8) 0.608(3)
H3 H 0.136(3) -0.031(8) 0.615(3)
H4 H 0.085(3) 0.005(8) 0.719(3)
H5 H 0.008(3) 0.360(7) 0.705(3)
H6 H 0.029(3) 0.551(8) 0.600(3)
H7 H 0.153(3) 0.570(8) 0.601(3)
H9 H 0.290(3) 0.518(8) 0.883(3)
H10 H 0.333(3) 0.335(8) 0.881(3)
H11 H 0.138(3) -0.001(8) 0.906(3)
H12 H 0.063(3) 0.354(8) 0.896(3)
H13 H -0.007(3) 0.169(8) 0.566(3)
H14 H 0.057(3) 0.260(8) 0.521(3)
H15 H 0.295(3) 0.617(8) 1.131(3)
H16 H 0.333(3) 0.836(8) 1.105(3)
H17 H 0.471(4) 0.687(10) 1.138(3)
H18 H 0.438(4) 0.724(10) 1.217(3)
H19 H 0.437(4) 0.500(10) 1.179(3)
H20 H 0.482(3) -0.012(9) 1.072(3)
H21 H 0.461(3) 0.188(9) 1.129(3)
H23 H 0.628(4) 0.165(10) 1.141(3)
H24 H 0.554(4) 0.391(10) 1.134(3)
H8? H 0.216(3) 0.522(8) 0.887(3)
H22? H 0.518(4) 0.194(10) 1.089(4)
loop_
_geom_bond_atom_site_label_1
_geom_bond_atom_site_label_2
_geom_bond_site_symmetry_1
_geom_bond_site_symmetry_2
O1 C3 1_555 1_555
O2 C10 1_555 1_555
O3 C18 1_555 1_555
O4 C18 1_555 1_555
O5 C21 1_555 1_555
O6 C21 1_555 1_555
C1 C2 1_555 1_555
C2 C3 1_555 1_555
C3 C4 1_555 1_555
C4 C5 1_555 1_555
C5 C6 1_555 1_555
C6 C2 1_555 1_555
C7 C6 1_555 1_555
C8 C7 1_555 1_555
C9 C4 1_555 1_555
C10 C9 1_555 1_555
C11 C2 1_555 1_555
C12 C11 1_555 1_555
C13 C12 1_555 1_555
C14 C1 1_555 1_555
C15 C1 1_555 1_555
C16 C12 1_555 1_555
C17 C5 1_555 1_555
C18 C13 1_555 1_555
C19 O4 1_555 1_555
C20 C19 1_555 1_555
C21 C14 1_555 1_555
C22 O6 1_555 1_555
C23 C22 1_555 1_555
H1 C1 1_555 1_555
H2 C4 1_555 1_555
H3 C5 1_555 1_555
H4 C6 1_555 1_555
H5 C7 1_555 1_555
H6 C8 1_555 1_555
H7 C9 1_555 1_555
H9 C13 1_555 1_555
H10 C14 1_555 1_555
H11 C15 1_555 1_555
H12 C16 1_555 1_555
H13 C17 1_555 1_555
H14 C17 1_555 1_555
H15 C19 1_555 1_555
H16 C19 1_555 1_555
H17 C20 1_555 1_555
H18 C20 1_555 1_555
H19 C20 1_555 1_555
H20 C22 1_555 1_555
H21 C22 1_555 1_555
H23 C23 1_555 1_555
H24 C23 1_555 1_555
C7 C11 1_555 1_555
C8 C9 1_555 1_555
C8 C17 1_555 1_555
C10 C11 1_555 1_555
C13 C14 1_555 1_555
C15 C16 1_555 1_555

#END
