
#######################################################################
#
#                 Cambridge Crystallographic Data Centre
#                                CCDC 
#
#######################################################################
#
# If this CIF has been generated from an entry in the Cambridge 
# Structural Database, then it will include bibliographic, chemical, 
# crystal, experimental, refinement or atomic coordinate data resulting 
# from the CCDC's data processing and validation procedures.
#
#######################################################################

data_SOVFOA02
_chemical_formula_moiety         'C5 H12 N1 O2 1+,C2 Cl1 F2 O2 1-'
_chemical_name_systematic        'Betainium chloro(difluoro)acetate'
_symmetry_cell_setting           monoclinic
_symmetry_space_group_name_H-M   'P 21/m'
_symmetry_Int_Tables_number      11
_space_group_name_Hall           '-P 2yb'
loop_
_symmetry_equiv_pos_site_id
_symmetry_equiv_pos_as_xyz
1 x,y,z
2 -x,1/2+y,-z
3 -x,-y,-z
4 x,1/2-y,z
_cell_length_a                   5.8745(3)
_cell_length_b                   7.5347(3)
_cell_length_c                   12.7728(6)
_cell_angle_alpha                90
_cell_angle_beta                 94.896(4)
_cell_angle_gamma                90
_cell_volume                     563.294
_exptl_crystal_colour            colorless
_exptl_crystal_description       plate
_cell_formula_units_Z            2
loop_
_atom_site_label
_atom_site_type_symbol
_atom_site_fract_x
_atom_site_fract_y
_atom_site_fract_z
Cl1 Cl 0.5053(4) 0.2500 0.59763(18)
C1 C 0.9110(10) 0.2500 0.7183(4)
C2 C 0.7976(14) 0.2500 0.6095(6)
O1 O 0.9483(8) 0.1080(7) 0.7559(4)
F1 F 0.8213(14) 0.0386(11) 0.5910(7)
O1C O 0.9483(8) 0.3920(7) 0.7559(4)
F1C F 0.8213(14) 0.4614(11) 0.5910(7)
O2 O 0.6575(7) 0.2500 0.9615(3)
N1 N 0.6622(7) 0.2500 1.1875(3)
C3 C 0.8752(9) 0.2500 1.1312(4)
H1 H 0.9665 0.1441 1.1535
O3 O 1.0382(7) 0.2500 0.9732(3)
C4 C 0.7370(11) 0.2500 1.3039(4)
C5 C 0.8382(10) 0.2500 1.0121(4)
C6 C 0.5222(7) 0.0869(6) 1.1624(3)
H2 H 0.4583 0.0916 1.0890
H3 H 0.3977 0.0809 1.2086
H4 H 0.6192 -0.0185 1.1731
H5 H 1.0204 0.2500 0.9003
H6 H 0.6007 0.2500 1.3383
H7 H 0.8253 0.1370 1.3132
H1C H 0.9665 0.3559 1.1535
C6C C 0.5222(7) 0.4131(6) 1.1624(3)
H2C H 0.4583 0.4084 1.0890
H3C H 0.3977 0.4191 1.2086
H4C H 0.6192 0.5185 1.1731
H7C H 0.8253 0.3630 1.3132
H8? H 0.9665 0.1441 1.1535
F2? F 0.8968(11) 0.2500 0.5342(4)
loop_
_geom_bond_atom_site_label_1
_geom_bond_atom_site_label_2
_geom_bond_site_symmetry_1
_geom_bond_site_symmetry_2
Cl1 C2 1_555 1_555
C1 C2 1_555 1_555
C2 F1 1_555 1_555
O1 C1 1_555 1_555
O2 C5 1_555 1_555
N1 C3 1_555 1_555
C3 H1 1_555 1_555
O3 C5 1_555 1_555
C4 N1 1_555 1_555
C5 C3 1_555 1_555
C6 N1 1_555 1_555
H2 C6 1_555 1_555
H3 C6 1_555 1_555
H4 C6 1_555 1_555
H5 O3 1_555 1_555
H6 C4 1_555 1_555
H7 C4 1_555 1_555
O1C C1 1_555 1_555
F1C C2 1_555 1_555
H1C C3 1_555 1_555
C6C N1 1_555 1_555
H2C C6C 1_555 1_555
H3C C6C 1_555 1_555
H4C C6C 1_555 1_555
H7C C4 1_555 1_555

#END
