
#######################################################################
#
#                 Cambridge Crystallographic Data Centre
#                                CCDC 
#
#######################################################################
#
# If this CIF has been generated from an entry in the Cambridge 
# Structural Database, then it will include bibliographic, chemical, 
# crystal, experimental, refinement or atomic coordinate data resulting 
# from the CCDC's data processing and validation procedures.
#
#######################################################################

data_SOVFOA01
_chemical_formula_moiety         'C5 H12 N1 O2 1+,C2 Cl1 F2 O2 1-'
_chemical_name_systematic        'Betainium chloro(difluoro)acetate'
_symmetry_cell_setting           monoclinic
_symmetry_space_group_name_H-M   'P 21/m'
_symmetry_Int_Tables_number      11
_space_group_name_Hall           '-P 2yb'
loop_
_symmetry_equiv_pos_site_id
_symmetry_equiv_pos_as_xyz
1 x,y,z
2 -x,1/2+y,-z
3 -x,-y,-z
4 x,1/2-y,z
_cell_length_a                   5.8521(3)
_cell_length_b                   7.5170(4)
_cell_length_c                   12.7370(6)
_cell_angle_alpha                90
_cell_angle_beta                 94.458(5)
_cell_angle_gamma                90
_cell_volume                     558.608
_exptl_crystal_colour            colorless
_exptl_crystal_description       plate
_cell_formula_units_Z            2
loop_
_atom_site_label
_atom_site_type_symbol
_atom_site_fract_x
_atom_site_fract_y
_atom_site_fract_z
Cl1 Cl 0.5061(3) 0.2500 0.09835(16)
C1 C 0.9147(9) 0.2500 0.2176(4)
C2 C 0.8004(13) 0.2500 0.1097(6)
O1 O 0.9534(8) 0.1080(7) 0.2549(4)
F1 F 0.8238(12) 0.0333(10) 0.0924(6)
O1C O 0.9534(8) 0.3920(7) 0.2549(4)
F1C F 0.8238(12) 0.4667(10) 0.0924(6)
O2 O 0.6589(6) 0.2500 0.4608(3)
N1 N 0.6588(7) 0.2500 0.6877(3)
C3 C 0.8752(9) 0.2500 0.6312(4)
H1 H 0.9664 0.1438 0.6536
O3 O 1.0413(7) 0.2500 0.4730(3)
C4 C 0.5190(7) 0.0864(6) 0.6621(3)
H2 H 0.3929 0.0800 0.7083
H3 H 0.6163 -0.0192 0.6728
H4 H 0.4566 0.0914 0.5885
C5 C 0.7314(10) 0.2500 0.8044(4)
C6 C 0.8393(9) 0.2500 0.5120(4)
H5 H 1.0103 0.2500 0.4010
H1C H 0.9664 0.3562 0.6536
C4C C 0.5190(7) 0.4136(6) 0.6621(3)
H2C H 0.3929 0.4200 0.7083
H3C H 0.6163 0.5192 0.6728
H4C H 0.4566 0.4086 0.5885
H6? H 0.9664 0.1438 0.6536
H7? H 0.8072 0.3629 0.8237
H8? H 0.5961 0.2357 0.8444
H9? H 0.8380 0.1515 0.8207
F2? F 0.8982(9) 0.2500 0.0320(3)
loop_
_geom_bond_atom_site_label_1
_geom_bond_atom_site_label_2
_geom_bond_site_symmetry_1
_geom_bond_site_symmetry_2
Cl1 C2 1_555 1_555
C1 C2 1_555 1_555
C2 F1 1_555 1_555
O1 C1 1_555 1_555
O2 C6 1_555 1_555
N1 C3 1_555 1_555
C3 H1 1_555 1_555
O3 C6 1_555 1_555
C4 N1 1_555 1_555
H2 C4 1_555 1_555
H3 C4 1_555 1_555
H4 C4 1_555 1_555
C5 N1 1_555 1_555
C6 C3 1_555 1_555
H5 O3 1_555 1_555
O1C C1 1_555 1_555
F1C C2 1_555 1_555
H1C C3 1_555 1_555
C4C N1 1_555 1_555
H2C C4C 1_555 1_555
H3C C4C 1_555 1_555
H4C C4C 1_555 1_555

#END
