
#######################################################################
#
#                 Cambridge Crystallographic Data Centre
#                                CCDC 
#
#######################################################################
#
# If this CIF has been generated from an entry in the Cambridge 
# Structural Database, then it will include bibliographic, chemical, 
# crystal, experimental, refinement or atomic coordinate data resulting 
# from the CCDC's data processing and validation procedures.
#
#######################################################################

data_SOVFOA03
_chemical_formula_moiety         'C5 H12 N1 O2 1+,C2 Cl1 F2 O2 1-'
_chemical_name_systematic        'Betainium chloro(difluoro)acetate'
_symmetry_cell_setting           monoclinic
_symmetry_space_group_name_H-M   'P 21/m'
_symmetry_Int_Tables_number      11
_space_group_name_Hall           '-P 2yb'
loop_
_symmetry_equiv_pos_site_id
_symmetry_equiv_pos_as_xyz
1 x,y,z
2 -x,1/2+y,-z
3 -x,-y,-z
4 x,1/2-y,z
_cell_length_a                   5.8905(3)
_cell_length_b                   7.5414(5)
_cell_length_c                   12.7949(7)
_cell_angle_alpha                90
_cell_angle_beta                 95.151(5)
_cell_angle_gamma                90
_cell_volume                     566.088
_exptl_crystal_colour            colorless
_exptl_crystal_description       plate
_cell_formula_units_Z            2
loop_
_atom_site_label
_atom_site_type_symbol
_atom_site_fract_x
_atom_site_fract_y
_atom_site_fract_z
Cl1 Cl 0.4941(4) 0.2500 0.90253(18)
C1 C 0.0903(9) 0.2500 0.7810(4)
O1 O 0.0540(8) 0.1083(7) 0.7436(4)
C2 C 0.2027(14) 0.2500 0.8902(6)
F1 F 0.1796(14) 0.0412(11) 0.9095(7)
O1C O 0.0540(8) 0.3917(7) 0.7436(4)
F1C F 0.1796(14) 0.4588(11) 0.9095(7)
O2 O 0.3431(6) 0.2500 0.5382(3)
N1 N 0.3361(7) 0.2500 0.3127(3)
C3 C 0.1248(8) 0.2500 0.3693(4)
H1 H 0.0335 0.1442 0.3471
C4 C 0.1620(9) 0.2500 0.4877(4)
O3 O -0.0369(7) 0.2500 0.5267(3)
C5 C 0.2609(10) 0.2500 0.1968(4)
H2 H 0.1685 0.3557 0.1793
H3 H 0.3952 0.2507 0.1568
C6 C 0.4751(7) 0.0869(6) 0.3377(3)
H4 H 0.6011 0.0820 0.2928
H5 H 0.3787 -0.0183 0.3254
H6 H 0.5364 0.0901 0.4115
H7 H -0.0364 0.2500 0.5982
H1C H 0.0335 0.3558 0.3471
H2C H 0.1685 0.1443 0.1793
C6C C 0.4751(7) 0.4131(6) 0.3377(3)
H4C H 0.6011 0.4180 0.2928
H5C H 0.3787 0.5183 0.3254
H6C H 0.5364 0.4099 0.4115
H8? H 0.0335 0.1442 0.3471
H9? H 0.1701 0.3565 0.1791
F2? F 0.1039(11) 0.2500 0.9648(4)
loop_
_geom_bond_atom_site_label_1
_geom_bond_atom_site_label_2
_geom_bond_site_symmetry_1
_geom_bond_site_symmetry_2
Cl1 C2 1_555 1_555
C1 O1 1_555 1_555
C2 C1 1_555 1_555
F1 C2 1_555 1_555
O2 C4 1_555 1_555
N1 C3 1_555 1_555
C3 H1 1_555 1_555
C4 C3 1_555 1_555
O3 C4 1_555 1_555
C5 N1 1_555 1_555
H2 C5 1_555 1_555
H3 C5 1_555 1_555
C6 N1 1_555 1_555
H4 C6 1_555 1_555
H5 C6 1_555 1_555
H6 C6 1_555 1_555
H7 O3 1_555 1_555
O1C C1 1_555 1_555
F1C C2 1_555 1_555
H1C C3 1_555 1_555
H2C C5 1_555 1_555
C6C N1 1_555 1_555
H4C C6C 1_555 1_555
H5C C6C 1_555 1_555
H6C C6C 1_555 1_555

#END
