
#######################################################################
#
#                 Cambridge Crystallographic Data Centre
#                                CCDC 
#
#######################################################################
#
# If this CIF has been generated from an entry in the Cambridge 
# Structural Database, then it will include bibliographic, chemical, 
# crystal, experimental, refinement or atomic coordinate data resulting 
# from the CCDC's data processing and validation procedures.
#
#######################################################################

data_SOVFEO10
_chemical_compound_source        'from Teucrium japonicum'
_chemical_formula_moiety         'C19 H20 O7'
_chemical_name_systematic        
(12S)-19-Nor-neo-cleroda-15\a-hydroxy-4,13-diene-16,15;18,6beta;20,12-triolide
_symmetry_cell_setting           orthorhombic
_symmetry_space_group_name_H-M   'P 21 21 21'
_symmetry_Int_Tables_number      19
_space_group_name_Hall           'P 2ac 2ab'
loop_
_symmetry_equiv_pos_site_id
_symmetry_equiv_pos_as_xyz
1 x,y,z
2 1/2+x,1/2-y,-z
3 -x,1/2+y,1/2-z
4 1/2-x,-y,1/2+z
_cell_length_a                   6.412(1)
_cell_length_b                   15.021(4)
_cell_length_c                   17.671(5)
_cell_angle_alpha                90
_cell_angle_beta                 90
_cell_angle_gamma                90
_cell_volume                     1701.98
_exptl_crystal_colour            'No color recorded in CSD entry'
_chemical_melting_point          '236-238 deg.C'
_cell_formula_units_Z            4
loop_
_atom_site_label
_atom_site_type_symbol
_atom_site_fract_x
_atom_site_fract_y
_atom_site_fract_z
C1 C 0.7504(7) 0.2166(2) 0.1821(2)
C2 C 0.7020(8) 0.3055(3) 0.2211(2)
C3 C 0.6073(9) 0.3701(3) 0.1623(3)
C4 C 0.4060(8) 0.3377(3) 0.1268(3)
C5 C 0.4146(7) 0.2397(3) 0.1129(2)
C6 C 0.5585(7) 0.1878(3) 0.1424(2)
C7 C 0.5243(7) 0.0935(3) 0.1208(2)
C8 C 0.7339(7) 0.0541(3) 0.0999(2)
C9 C 0.8769(7) 0.0565(3) 0.1715(2)
C10 C 0.8450(6) 0.1380(3) 0.2273(2)
C11 C 0.2856(8) 0.1842(3) 0.0633(2)
C12 C 1.0513(6) 0.1608(3) 0.2670(2)
C13 C 0.9843(7) 0.1892(3) 0.3473(2)
C14 C 0.6993(7) 0.1171(3) 0.2941(2)
C15 C 1.1312(7) 0.1625(3) 0.4091(2)
C16 C 1.1230(8) 0.0965(3) 0.4581(2)
C17 C 1.3028(8) 0.1034(3) 0.5129(2)
C18 C 1.3154(7) 0.2187(3) 0.4268(2)
C19 C 0.8684(9) -0.0325(3) 0.2131(3)
O1 O 0.1324(6) 0.2035(3) 0.0266(2)
O2 O 0.3666(5) 0.0992(2) 0.0621(2)
O3 O 0.5288(4) 0.0854(2) 0.2940(2)
O4 O 0.7895(4) 0.1426(2) 0.3599(1)
O5 O 1.2365(6) 0.1154(2) 0.5883(2)
O6 O 1.3762(5) 0.2845(2) 0.3947(2)
O7 O 1.4142(5) 0.1836(2) 0.4876(2)
H1 H 0.8659 0.2302 0.1495
H2 H 0.8268 0.3310 0.2419
H3 H 0.6026 0.2958 0.2609
H4 H 0.7073 0.3759 0.1222
H5 H 0.5849 0.4272 0.1854
H6 H 0.2935 0.3512 0.1607
H7 H 0.3838 0.3678 0.0795
H8 H 0.4756 0.0532 0.1591
H9 H 0.7169 -0.0063 0.0831
H10 H 0.7942 0.0889 0.0599
H11 H 1.0130 0.0655 0.1502
H12 H 1.1403 0.1095 0.2690
H13 H 1.1216 0.2082 0.2410
H14 H 0.9794 0.2530 0.3490
H15 H 1.0279 0.0478 0.4651
H16 H 1.3852 0.0500 0.5122
H17 H 0.9516 -0.0288 0.2581
H18 H 0.9259 -0.0766 0.1798
H19 H 0.7282 -0.0487 0.2263
loop_
_geom_bond_atom_site_label_1
_geom_bond_atom_site_label_2
_geom_bond_site_symmetry_1
_geom_bond_site_symmetry_2
C1 C2 1_555 1_555
C2 C3 1_555 1_555
C3 C4 1_555 1_555
C4 C5 1_555 1_555
C5 C6 1_555 1_555
C6 C1 1_555 1_555
C7 C6 1_555 1_555
C8 C7 1_555 1_555
C9 C8 1_555 1_555
C10 C1 1_555 1_555
C11 C5 1_555 1_555
C12 C10 1_555 1_555
C13 C12 1_555 1_555
C14 C10 1_555 1_555
C15 C13 1_555 1_555
C16 C15 1_555 1_555
C17 C16 1_555 1_555
C18 C15 1_555 1_555
C19 C9 1_555 1_555
O1 C11 1_555 1_555
O2 C7 1_555 1_555
O3 C14 1_555 1_555
O4 C13 1_555 1_555
O5 C17 1_555 1_555
O6 C18 1_555 1_555
O7 C17 1_555 1_555
H1 C1 1_555 1_555
H2 C2 1_555 1_555
H3 C2 1_555 1_555
H4 C3 1_555 1_555
H5 C3 1_555 1_555
H6 C4 1_555 1_555
H7 C4 1_555 1_555
H8 C7 1_555 1_555
H9 C8 1_555 1_555
H10 C8 1_555 1_555
H11 C9 1_555 1_555
H12 C12 1_555 1_555
H13 C12 1_555 1_555
H14 C13 1_555 1_555
H15 C16 1_555 1_555
H16 C17 1_555 1_555
H17 C19 1_555 1_555
H18 C19 1_555 1_555
H19 C19 1_555 1_555
C9 C10 1_555 1_555
C11 O2 1_555 1_555
C14 O4 1_555 1_555
C18 O7 1_555 1_555

#END
