
#######################################################################
#
#                 Cambridge Crystallographic Data Centre
#                                CCDC 
#
#######################################################################
#
# If this CIF has been generated from an entry in the Cambridge 
# Structural Database, then it will include bibliographic, chemical, 
# crystal, experimental, refinement or atomic coordinate data resulting 
# from the CCDC's data processing and validation procedures.
#
#######################################################################

data_SOVKOF
_chemical_formula_moiety         'C12 H12 O4'
_chemical_name_systematic        
'Ethyl (2-oxo-2,3-dihydro-1-benzofuran-3-yl)acetate'
_symmetry_cell_setting           monoclinic
_symmetry_space_group_name_H-M   'P 21/c'
_symmetry_Int_Tables_number      14
_space_group_name_Hall           '-P 2ybc'
loop_
_symmetry_equiv_pos_site_id
_symmetry_equiv_pos_as_xyz
1 x,y,z
2 -x,1/2+y,1/2-z
3 -x,-y,-z
4 x,1/2-y,1/2+z
_cell_length_a                   13.273(10)
_cell_length_b                   5.392(4)
_cell_length_c                   16.338(12)
_cell_angle_alpha                90
_cell_angle_beta                 112.857(10)
_cell_angle_gamma                90
_cell_volume                     1077.46
_cell_formula_units_Z            4
loop_
_atom_site_label
_atom_site_type_symbol
_atom_site_fract_x
_atom_site_fract_y
_atom_site_fract_z
C1 C 0.11864(9) 0.3380(2) 0.51942(8)
C2 C 0.12780(10) 0.3071(3) 0.60534(8)
H1 H 0.0969 0.1721 0.6224
C3 C 0.18601(11) 0.4890(3) 0.66565(9)
H2 H 0.1940 0.4762 0.7246
C4 C 0.23220(11) 0.6884(3) 0.63971(9)
H3 H 0.2720 0.8053 0.6817
C5 C 0.21987(10) 0.7163(2) 0.55151(8)
H4 H 0.2499 0.8519 0.5339
C6 C 0.16188(9) 0.5376(2) 0.49084(7)
C7 C 0.13019(10) 0.5097(2) 0.39245(8)
H5 H 0.0725 0.6310 0.3628
C8 C 0.07788(10) 0.2537(3) 0.37550(8)
C9 C 0.21856(11) 0.5421(3) 0.35584(8)
H6 H 0.1860 0.5224 0.2918
H7 H 0.2473 0.7094 0.3684
C10 C 0.31120(11) 0.3617(3) 0.39367(8)
C11 C 0.49231(13) 0.2753(4) 0.40417(13)
H8 H 0.5033 0.2115 0.4625
H9 H 0.5552 0.3764 0.4100
C12 C 0.48450(15) 0.0640(4) 0.34333(14)
H10 H 0.4276 -0.0468 0.3427
H11 H 0.5529 -0.0232 0.3636
H12 H 0.4679 0.1258 0.2844
O1 O 0.06549(7) 0.17099(16) 0.45065(6)
O2 O 0.04722(9) 0.1293(2) 0.30955(6)
O3 O 0.31180(8) 0.1812(2) 0.43698(7)
O4 O 0.39421(8) 0.4289(2) 0.37180(8)
loop_
_geom_bond_atom_site_label_1
_geom_bond_atom_site_label_2
_geom_bond_site_symmetry_1
_geom_bond_site_symmetry_2
C1 C2 1_555 1_555
C2 H1 1_555 1_555
C3 C2 1_555 1_555
H2 C3 1_555 1_555
C4 C3 1_555 1_555
H3 C4 1_555 1_555
C5 C4 1_555 1_555
H4 C5 1_555 1_555
C6 C1 1_555 1_555
C7 C6 1_555 1_555
H5 C7 1_555 1_555
C8 C7 1_555 1_555
C9 C7 1_555 1_555
H6 C9 1_555 1_555
H7 C9 1_555 1_555
C10 C9 1_555 1_555
C11 H8 1_555 1_555
H9 C11 1_555 1_555
C12 C11 1_555 1_555
H10 C12 1_555 1_555
H11 C12 1_555 1_555
H12 C12 1_555 1_555
O1 C1 1_555 1_555
O2 C8 1_555 1_555
O3 C10 1_555 1_555
O4 C10 1_555 1_555
C5 C6 1_555 1_555
C8 O1 1_555 1_555
C11 O4 1_555 1_555

#END
