
#######################################################################
#
#                 Cambridge Crystallographic Data Centre
#                                CCDC 
#
#######################################################################
#
# If this CIF has been generated from an entry in the Cambridge 
# Structural Database, then it will include bibliographic, chemical, 
# crystal, experimental, refinement or atomic coordinate data resulting 
# from the CCDC's data processing and validation procedures.
#
#######################################################################

data_SOVNIC
_chemical_formula_moiety         'C15 H13 N3 O1'
_chemical_name_systematic        4-(1-Benzyl-1H-1,2,3-triazol-5-yl)phenol
_symmetry_cell_setting           monoclinic
_symmetry_space_group_name_H-M   'P 21/c'
_symmetry_Int_Tables_number      14
_space_group_name_Hall           '-P 2ybc'
loop_
_symmetry_equiv_pos_site_id
_symmetry_equiv_pos_as_xyz
1 x,y,z
2 -x,1/2+y,1/2-z
3 -x,-y,-z
4 x,1/2-y,1/2+z
_cell_length_a                   26.329(7)
_cell_length_b                   10.877(3)
_cell_length_c                   18.902(5)
_cell_angle_alpha                90
_cell_angle_beta                 102.757(4)
_cell_angle_gamma                90
_cell_volume                     5279.54
_cell_formula_units_Z            16
loop_
_atom_site_label
_atom_site_type_symbol
_atom_site_fract_x
_atom_site_fract_y
_atom_site_fract_z
O1 O 0.5363(2) 0.5351(4) -0.2437(2)
H1 H 0.5357 0.5837 -0.2770
N1 N 0.52226(19) 0.8445(5) 0.1257(2)
N2 N 0.4785(2) 0.8882(4) 0.0840(2)
N3 N 0.47602(16) 0.8467(4) 0.0170(2)
C1 C 0.5351(2) 0.5985(5) -0.1816(3)
C2 C 0.52566(18) 0.7246(5) -0.1807(3)
H2 H 0.5219 0.7698 -0.2232
C3 C 0.52179(18) 0.7828(5) -0.1173(3)
H3 H 0.5167 0.8674 -0.1170
C4 C 0.52544(18) 0.7154(5) -0.0535(3)
C5 C 0.5368(2) 0.5906(6) -0.0546(3)
H4 H 0.5412 0.5451 -0.0120
C6 C 0.5414(2) 0.5339(5) -0.1173(3)
H5 H 0.5489 0.4503 -0.1168
C7 C 0.51852(19) 0.7754(5) 0.0138(3)
C8 C 0.5463(2) 0.7764(6) 0.0839(3)
H6 H 0.5776 0.7353 0.1004
C9 C 0.4270(2) 0.8625(5) -0.0372(3)
H7 H 0.4345 0.8693 -0.0851
H8 H 0.4103 0.9381 -0.0274
C10 C 0.39039(18) 0.7551(4) -0.0360(2)
C11 C 0.3799(2) 0.6724(5) -0.0911(3)
H9 H 0.3963 0.6802 -0.1297
C12 C 0.3452(3) 0.5768(6) -0.0909(3)
H10 H 0.3385 0.5208 -0.1291
C13 C 0.3209(2) 0.5650(5) -0.0351(4)
H11 H 0.2969 0.5022 -0.0354
C14 C 0.3318(3) 0.6446(6) 0.0212(3)
H12 H 0.3157 0.6358 0.0600
C15 C 0.3672(2) 0.7400(5) 0.0210(3)
H13 H 0.3750 0.7938 0.0601
O2 O 0.29968(17) 1.0749(3) -0.15002(16)
H14 H 0.3054 1.1350 -0.1733
N4 N 0.3289(2) 1.2621(4) 0.2545(2)
N5 N 0.35838(17) 1.1635(4) 0.2676(2)
N6 N 0.35978(14) 1.1148(3) 0.20237(18)
C16 C 0.30787(17) 1.1050(4) -0.0786(2)
C17 C 0.3004(2) 1.0141(4) -0.0311(2)
H15 H 0.2897 0.9362 -0.0485
C18 C 0.30868(18) 1.0386(4) 0.0421(2)
H16 H 0.3038 0.9763 0.0737
C19 C 0.32409(16) 1.1533(4) 0.0696(2)
C20 C 0.33082(19) 1.2448(4) 0.0218(3)
H17 H 0.3406 1.3231 0.0393
C21 C 0.3231(2) 1.2214(4) -0.0525(2)
H18 H 0.3282 1.2834 -0.0842
C22 C 0.33141(16) 1.1816(4) 0.1476(2)
C23 C 0.3119(2) 1.2762(5) 0.1819(3)
H19 H 0.2905 1.3392 0.1592
C24 C 0.39081(17) 1.0039(4) 0.2004(3)
H20 H 0.4224 1.0097 0.2381
H21 H 0.4010 1.0007 0.1541
C25 C 0.36326(17) 0.8854(4) 0.2105(2)
C26 C 0.3908(2) 0.7770(5) 0.2163(3)
H22 H 0.4257 0.7787 0.2137
C27 C 0.3680(3) 0.6657(5) 0.2261(3)
H23 H 0.3874 0.5936 0.2295
C28 C 0.3164(3) 0.6615(6) 0.2307(3)
H24 H 0.3011 0.5875 0.2392
C29 C 0.2883(2) 0.7677(6) 0.2225(3)
H25 H 0.2531 0.7650 0.2227
C30 C 0.31148(19) 0.8805(5) 0.2139(3)
H26 H 0.2920 0.9524 0.2104
O3 O -0.03637(18) 0.9634(4) -0.2675(2)
H27 H -0.0330 0.9151 -0.2995
N7 N -0.02250(19) 0.6565(5) 0.1105(2)
N8 N 0.02020(19) 0.6097(4) 0.0958(2)
N9 N 0.02286(16) 0.6516(4) 0.0291(2)
C31 C -0.03497(19) 0.9006(5) -0.2047(2)
C32 C -0.0403(2) 0.9676(5) -0.1445(3)
H28 H -0.0465 1.0518 -0.1481
C33 C -0.0362(2) 0.9077(5) -0.0783(3)
H29 H -0.0403 0.9524 -0.0381
C34 C -0.02638(17) 0.7861(5) -0.0715(2)
C35 C -0.02239(19) 0.7170(5) -0.1328(2)
H30 H -0.0170 0.6326 -0.1291
C36 C -0.02659(17) 0.7752(4) -0.1984(2)
H31 H -0.0238 0.7297 -0.2390
C37 C -0.01852(18) 0.7240(5) 0.0012(2)
C38 C -0.0472(2) 0.7257(6) 0.0538(3)
H32 H -0.0785 0.7674 0.0509
C39 C 0.0723(2) 0.6353(5) 0.0066(3)
H33 H 0.0655 0.6252 -0.0456
H34 H 0.0893 0.5612 0.0287
C40 C 0.10814(18) 0.7441(4) 0.0285(3)
C41 C 0.1271(2) 0.7715(5) 0.1011(3)
H35 H 0.1172 0.7230 0.1362
C42 C 0.1605(2) 0.8691(5) 0.1227(3)
H36 H 0.1724 0.8866 0.1717
C43 C 0.1759(3) 0.9393(6) 0.0718(4)
H37 H 0.1997 1.0026 0.0859
C44 C 0.1566(3) 0.9172(7) 0.0008(4)
H38 H 0.1666 0.9666 -0.0339
C45 C 0.1221(3) 0.8222(6) -0.0210(3)
H39 H 0.1080 0.8108 -0.0702
O4 O 0.19937(17) 1.0762(3) -0.53166(16)
H40 H 0.1865 1.1302 -0.5603
N10 N 0.1706(2) 1.2585(4) -0.1441(2)
N11 N 0.14180(18) 1.1577(4) -0.1483(2)
N12 N 0.14059(15) 1.1065(4) -0.21411(18)
C46 C 0.19127(18) 1.1033(4) -0.4646(2)
C47 C 0.17685(18) 1.2204(4) -0.4462(2)
H41 H 0.1732 1.2845 -0.4795
C48 C 0.16813(19) 1.2396(4) -0.3776(2)
H42 H 0.1573 1.3168 -0.3657
C49 C 0.17510(17) 1.1466(4) -0.3261(2)
C50 C 0.19021(18) 1.0310(4) -0.3451(2)
H43 H 0.1946 0.9675 -0.3114
C51 C 0.19869(19) 1.0094(4) -0.4134(2)
H44 H 0.2094 0.9321 -0.4253
C52 C 0.16851(18) 1.1745(4) -0.2525(2)
C53 C 0.1871(2) 1.2700(5) -0.2066(3)
H45 H 0.2080 1.3334 -0.2170
C54 C 0.11026(18) 0.9960(5) -0.2340(3)
H46 H 0.0997 0.9918 -0.2865
H47 H 0.0789 1.0012 -0.2152
C55 C 0.13876(18) 0.8794(4) -0.2065(2)
C56 C 0.1112(2) 0.7690(6) -0.2165(3)
H48 H 0.0764 0.7683 -0.2408
C57 C 0.1360(3) 0.6592(6) -0.1900(3)
H49 H 0.1172 0.5861 -0.1960
C58 C 0.1873(3) 0.6581(5) -0.1555(3)
H50 H 0.2036 0.5846 -0.1385
C59 C 0.2145(2) 0.7667(5) -0.1462(3)
H51 H 0.2495 0.7669 -0.1228
C60 C 0.18989(18) 0.8772(4) -0.1720(2)
H52 H 0.2088 0.9501 -0.1654
loop_
_geom_bond_atom_site_label_1
_geom_bond_atom_site_label_2
_geom_bond_site_symmetry_1
_geom_bond_site_symmetry_2
O1 H1 1_555 1_555
N1 N2 1_555 1_555
N2 N3 1_555 1_555
N3 C7 1_555 1_555
C1 O1 1_555 1_555
C2 C1 1_555 1_555
H2 C2 1_555 1_555
C3 C2 1_555 1_555
H3 C3 1_555 1_555
C4 C3 1_555 1_555
C5 C4 1_555 1_555
H4 C5 1_555 1_555
C6 C1 1_555 1_555
H5 C6 1_555 1_555
C7 C4 1_555 1_555
C8 N1 1_555 1_555
H6 C8 1_555 1_555
C9 N3 1_555 1_555
H7 C9 1_555 1_555
H8 C9 1_555 1_555
C10 C9 1_555 1_555
C11 C10 1_555 1_555
H9 C11 1_555 1_555
C12 C11 1_555 1_555
H10 C12 1_555 1_555
C13 C12 1_555 1_555
H11 C13 1_555 1_555
C14 C13 1_555 1_555
H12 C14 1_555 1_555
C15 C10 1_555 1_555
H13 C15 1_555 1_555
O2 H14 1_555 1_555
N4 N5 1_555 1_555
N5 N6 1_555 1_555
N6 C22 1_555 1_555
C16 O2 1_555 1_555
C17 C16 1_555 1_555
H15 C17 1_555 1_555
C18 C17 1_555 1_555
H16 C18 1_555 1_555
C19 C18 1_555 1_555
C20 C19 1_555 1_555
H17 C20 1_555 1_555
C21 C16 1_555 1_555
H18 C21 1_555 1_555
C22 C19 1_555 1_555
C23 N4 1_555 1_555
H19 C23 1_555 1_555
C24 N6 1_555 1_555
H20 C24 1_555 1_555
H21 C24 1_555 1_555
C25 C24 1_555 1_555
C26 C25 1_555 1_555
H22 C26 1_555 1_555
C27 C26 1_555 1_555
H23 C27 1_555 1_555
C28 C27 1_555 1_555
H24 C28 1_555 1_555
C29 C28 1_555 1_555
H25 C29 1_555 1_555
C30 C25 1_555 1_555
H26 C30 1_555 1_555
O3 H27 1_555 1_555
N7 N8 1_555 1_555
N8 N9 1_555 1_555
N9 C37 1_555 1_555
C31 O3 1_555 1_555
C32 C31 1_555 1_555
H28 C32 1_555 1_555
C33 C32 1_555 1_555
H29 C33 1_555 1_555
C34 C33 1_555 1_555
C35 C34 1_555 1_555
H30 C35 1_555 1_555
C36 C31 1_555 1_555
H31 C36 1_555 1_555
C37 C34 1_555 1_555
C38 N7 1_555 1_555
H32 C38 1_555 1_555
C39 N9 1_555 1_555
H33 C39 1_555 1_555
H34 C39 1_555 1_555
C40 C39 1_555 1_555
C41 C40 1_555 1_555
H35 C41 1_555 1_555
C42 C41 1_555 1_555
H36 C42 1_555 1_555
C43 C42 1_555 1_555
H37 C43 1_555 1_555
C44 C43 1_555 1_555
H38 C44 1_555 1_555
C45 C40 1_555 1_555
H39 C45 1_555 1_555
O4 H40 1_555 1_555
N10 N11 1_555 1_555
N11 N12 1_555 1_555
N12 C52 1_555 1_555
C46 O4 1_555 1_555
C47 C46 1_555 1_555
H41 C47 1_555 1_555
C48 C47 1_555 1_555
H42 C48 1_555 1_555
C49 C48 1_555 1_555
C50 C49 1_555 1_555
H43 C50 1_555 1_555
C51 C46 1_555 1_555
H44 C51 1_555 1_555
C52 C49 1_555 1_555
C53 N10 1_555 1_555
H45 C53 1_555 1_555
C54 N12 1_555 1_555
H46 C54 1_555 1_555
H47 C54 1_555 1_555
C55 C54 1_555 1_555
C56 C55 1_555 1_555
H48 C56 1_555 1_555
C57 C56 1_555 1_555
H49 C57 1_555 1_555
C58 C57 1_555 1_555
H50 C58 1_555 1_555
C59 C58 1_555 1_555
H51 C59 1_555 1_555
C60 C55 1_555 1_555
H52 C60 1_555 1_555
C5 C6 1_555 1_555
C7 C8 1_555 1_555
C14 C15 1_555 1_555
C20 C21 1_555 1_555
C22 C23 1_555 1_555
C29 C30 1_555 1_555
C35 C36 1_555 1_555
C37 C38 1_555 1_555
C44 C45 1_555 1_555
C50 C51 1_555 1_555
C52 C53 1_555 1_555
C59 C60 1_555 1_555

#END
