
#######################################################################
#
#                 Cambridge Crystallographic Data Centre
#                                CCDC 
#
#######################################################################
#
# If this CIF has been generated from an entry in the Cambridge 
# Structural Database, then it will include bibliographic, chemical, 
# crystal, experimental, refinement or atomic coordinate data resulting 
# from the CCDC's data processing and validation procedures.
#
#######################################################################

data_SOVNEY
_chemical_formula_moiety         'C22 H16 Cl1 N3 O1'
_chemical_name_systematic        
(1-Benzyl-5-(4-chlorophenyl)-1H-1,2,3-triazol-4-yl)(phenyl)methanone
_symmetry_cell_setting           monoclinic
_symmetry_space_group_name_H-M   'P 21'
_symmetry_Int_Tables_number      4
_space_group_name_Hall           'P 2yb'
loop_
_symmetry_equiv_pos_site_id
_symmetry_equiv_pos_as_xyz
1 x,y,z
2 -x,1/2+y,-z
_cell_length_a                   9.038(3)
_cell_length_b                   12.131(5)
_cell_length_c                   9.119(4)
_cell_angle_alpha                90
_cell_angle_beta                 113.364(6)
_cell_angle_gamma                90
_cell_volume                     917.827
_cell_formula_units_Z            2
loop_
_atom_site_label
_atom_site_type_symbol
_atom_site_fract_x
_atom_site_fract_y
_atom_site_fract_z
Cl1 Cl 0.6554(2) 0.42710(13) 0.8324(2)
O1 O 0.5522(6) 0.6297(3) 1.3840(6)
N1 N 0.8906(5) 0.8520(4) 1.3713(5)
N2 N 0.8836(5) 0.9195(4) 1.4882(6)
N3 N 0.7730(5) 0.8795(4) 1.5294(5)
C1 C 0.6973(6) 0.5279(4) 0.9812(6)
C2 C 0.8406(6) 0.5272(4) 1.1085(7)
H1 H 0.9177 0.4740 1.1172
C3 C 0.8705(6) 0.6069(4) 1.2257(6)
H2 H 0.9681 0.6066 1.3142
C4 C 0.7553(6) 0.6879(4) 1.2122(6)
C5 C 0.6121(6) 0.6868(5) 1.0789(6)
H3 H 0.5360 0.7415 1.0667
C6 C 0.5794(7) 0.6063(6) 0.9632(6)
H4 H 0.4811 0.6047 0.8756
C7 C 0.7800(5) 0.7701(4) 1.3351(6)
C8 C 0.7051(6) 0.7891(4) 1.4398(6)
C9 C 0.5753(6) 0.7196(4) 1.4487(6)
C10 C 0.4722(6) 0.7532(4) 1.5357(5)
C11 C 0.3568(6) 0.6769(4) 1.5379(6)
H5 H 0.3467 0.6098 1.4856
C12 C 0.2566(7) 0.7005(5) 1.6176(7)
H6 H 0.1808 0.6495 1.6201
C13 C 0.2729(7) 0.8011(5) 1.6925(8)
H7 H 0.2077 0.8174 1.7469
C14 C 0.3829(8) 0.8778(5) 1.6889(8)
H8 H 0.3907 0.9454 1.7395
C15 C 0.4814(7) 0.8549(4) 1.6108(7)
H9 H 0.5550 0.9075 1.6077
C16 C 1.0045(6) 0.8792(5) 1.2974(7)
H10 H 1.0108 0.8175 1.2325
H11 H 1.1109 0.8903 1.3809
C17 C 0.9563(6) 0.9802(5) 1.1956(7)
C18 C 0.8265(8) 0.9793(8) 1.0484(9)
H12 H 0.7670 0.9149 1.0137
C19 C 0.7853(11) 1.0687(11) 0.9559(12)
H13 H 0.6969 1.0670 0.8585
C20 C 0.8744(16) 1.1629(10) 1.0056(17)
H14 H 0.8442 1.2249 0.9404
C21 C 1.0061(15) 1.1696(6) 1.1474(14)
H15 H 1.0661 1.2341 1.1781
C22 C 1.0464(9) 1.0765(5) 1.2434(9)
H16 H 1.1347 1.0784 1.3409
loop_
_geom_bond_atom_site_label_1
_geom_bond_atom_site_label_2
_geom_bond_site_symmetry_1
_geom_bond_site_symmetry_2
Cl1 C1 1_555 1_555
O1 C9 1_555 1_555
N1 N2 1_555 1_555
N2 N3 1_555 1_555
N3 C8 1_555 1_555
C1 C2 1_555 1_555
C2 H1 1_555 1_555
C3 C2 1_555 1_555
H2 C3 1_555 1_555
C4 C3 1_555 1_555
C5 C4 1_555 1_555
H3 C5 1_555 1_555
C6 C1 1_555 1_555
H4 C6 1_555 1_555
C7 N1 1_555 1_555
C8 C7 1_555 1_555
C9 C8 1_555 1_555
C10 C9 1_555 1_555
C11 C10 1_555 1_555
H5 C11 1_555 1_555
C12 C11 1_555 1_555
H6 C12 1_555 1_555
C13 C12 1_555 1_555
H7 C13 1_555 1_555
C14 C13 1_555 1_555
H8 C14 1_555 1_555
C15 C10 1_555 1_555
H9 C15 1_555 1_555
C16 N1 1_555 1_555
H10 C16 1_555 1_555
H11 C16 1_555 1_555
C17 C16 1_555 1_555
C18 C17 1_555 1_555
H12 C18 1_555 1_555
C19 C18 1_555 1_555
H13 C19 1_555 1_555
C20 C19 1_555 1_555
H14 C20 1_555 1_555
C21 C20 1_555 1_555
H15 C21 1_555 1_555
C22 C17 1_555 1_555
H16 C22 1_555 1_555
C4 C7 1_555 1_555
C5 C6 1_555 1_555
C14 C15 1_555 1_555
C21 C22 1_555 1_555

#END
