
#######################################################################
#
#                 Cambridge Crystallographic Data Centre
#                                CCDC 
#
#######################################################################
#
# If this CIF has been generated from an entry in the Cambridge 
# Structural Database, then it will include bibliographic, chemical, 
# crystal, experimental, refinement or atomic coordinate data resulting 
# from the CCDC's data processing and validation procedures.
#
#######################################################################

data_SOWCEO
_chemical_compound_source        'Streptomyces sp'
_chemical_name_common            'Juanlimycin A'
_chemical_formula_moiety         'C46 H40 N4 O12,6(H2 O1)'
_chemical_name_systematic        
"2,2'-((4,6,16,18-tetrahydroxy-9,21-dimethyl-1,12,13,24-tetraoxo-1,2,7,12,13,14,19,24-octahydroindolo[3',4':11,12,13]cycloicosa[1,2,3-cd]indole-12a,24a(6H,18H)-diyl)diimino)dibenzoic acid unknown solvate hexahydrate"
_symmetry_cell_setting           hexagonal
_symmetry_space_group_name_H-M   'P 64'
_symmetry_Int_Tables_number      172
_space_group_name_Hall           'P 64'
loop_
_symmetry_equiv_pos_site_id
_symmetry_equiv_pos_as_xyz
1 x,y,z
2 -y,x-y,1/3+z
3 -x+y,-x,2/3+z
4 -x,-y,z
5 y,-x+y,1/3+z
6 x-y,x,2/3+z
_cell_length_a                   19.5118(4)
_cell_length_b                   19.5118(4)
_cell_length_c                   12.0531(3)
_cell_angle_alpha                90
_cell_angle_beta                 90
_cell_angle_gamma                120
_cell_volume                     3973.97
_exptl_crystal_colour            colorless
_exptl_crystal_description       prism
_chemical_melting_point          '519 K'
_cell_formula_units_Z            3
_chemical_properties_physical    Oxygen-sensitive
_exptl_crystal_recrystallization_method methanol
loop_
_atom_site_label
_atom_site_type_symbol
_atom_site_fract_x
_atom_site_fract_y
_atom_site_fract_z
N1 N 0.5782(3) 0.2917(3) 1.0707(4)
H1 H 0.6196 0.3022 1.1086
N2 N 0.4565(3) 0.2268(3) 0.8335(4)
H2 H 0.4522 0.2457 0.7712
O1 O 0.6288(3) 0.3050(3) 0.8921(4)
O2 O 0.3866(3) 0.2186(3) 1.3645(4)
H3 H 0.4243 0.2267 1.4038
O3 O 0.2427(3) 0.1400(3) 0.9996(5)
H4 H 0.2579 0.1077 1.0030
O4 O 0.5065(3) 0.6291(3) 0.7888(4)
O5 O 0.2797(3) 0.0691(3) 0.6207(5)
H5 H 0.2638 0.0894 0.5755
O6 O 0.3680(3) 0.1945(3) 0.6516(4)
C1 C 0.5762(4) 0.2943(4) 0.9553(6)
C2 C 0.4938(4) 0.2829(4) 0.9244(5)
C3 C 0.4516(3) 0.2606(3) 1.0354(5)
C4 C 0.5066(4) 0.2707(3) 1.1155(5)
C5 C 0.4886(4) 0.2591(3) 1.2272(5)
H6 H 0.5273 0.2687 1.2798
C6 C 0.4097(4) 0.2323(4) 1.2587(6)
C7 C 0.3537(4) 0.2199(4) 1.1789(6)
H7 H 0.3017 0.2018 1.2010
C8 C 0.3724(4) 0.2337(3) 1.0664(6)
C9 C 0.3101(3) 0.2187(3) 0.9795(6)
H8 H 0.3315 0.2213 0.9050
C10 C 0.2771(4) 0.2755(3) 0.9882(6)
H9 H 0.2269 0.2526 0.9494
H10 H 0.2674 0.2812 1.0656
C11 C 0.3309(3) 0.3544(4) 0.9416(6)
H11 H 0.3380 0.3561 0.8651
C12 C 0.3715(3) 0.4250(3) 0.9948(6)
C13 C 0.4143(3) 0.4951(3) 0.9252(5)
H12 H 0.4182 0.4874 0.8498
C14 C 0.4485(3) 0.5702(4) 0.9623(6)
H13 H 0.4467 0.5804 1.0373
C15 C 0.4892(4) 0.6363(4) 0.8826(6)
C16 C 0.3692(5) 0.4339(4) 1.1152(5)
H14 H 0.3312 0.4496 1.1330
H15 H 0.4206 0.4735 1.1409
H16 H 0.3545 0.3843 1.1507
C17 C 0.3420(4) 0.1249(4) 0.6729(6)
C18 C 0.3750(4) 0.0961(4) 0.7575(6)
C19 C 0.4274(4) 0.1462(3) 0.8384(6)
C20 C 0.4523(4) 0.1147(4) 0.9254(6)
H17 H 0.4867 0.1477 0.9799
C21 C 0.4248(6) 0.0341(5) 0.9278(7)
H18 H 0.4389 0.0121 0.9857
C22 C 0.3746(5) -0.0150(5) 0.8411(10)
H19 H 0.3580 -0.0687 0.8396
C23 C 0.3516(5) 0.0173(5) 0.7613(7)
H20 H 0.3181 -0.0155 0.7060
N1C N 0.4218(3) 0.7083(3) 1.0707(4)
H1C H 0.3804 0.6978 1.1086
N2C N 0.5435(3) 0.7732(3) 0.8335(4)
H2C H 0.5478 0.7543 0.7712
O1C O 0.3712(3) 0.6950(3) 0.8921(4)
O2C O 0.6134(3) 0.7814(3) 1.3645(4)
H3C H 0.5757 0.7733 1.4038
O3C O 0.7573(3) 0.8600(3) 0.9996(5)
H4C H 0.7421 0.8923 1.0030
O4C O 0.4935(3) 0.3709(3) 0.7888(4)
O5C O 0.7203(3) 0.9309(3) 0.6207(5)
H5C H 0.7362 0.9106 0.5755
O6C O 0.6320(3) 0.8055(3) 0.6516(4)
C1C C 0.4238(4) 0.7057(4) 0.9553(6)
C2C C 0.5062(4) 0.7171(4) 0.9244(5)
C3C C 0.5484(3) 0.7394(3) 1.0354(5)
C4C C 0.4934(4) 0.7293(3) 1.1155(5)
C5C C 0.5114(4) 0.7409(3) 1.2272(5)
H6C H 0.4727 0.7313 1.2798
C6C C 0.5903(4) 0.7677(4) 1.2587(6)
C7C C 0.6463(4) 0.7801(4) 1.1789(6)
H7C H 0.6983 0.7982 1.2010
C8C C 0.6276(4) 0.7663(3) 1.0664(6)
C9C C 0.6899(3) 0.7813(3) 0.9795(6)
H8C H 0.6685 0.7787 0.9050
C10C C 0.7229(4) 0.7245(3) 0.9882(6)
H9C H 0.7731 0.7474 0.9494
H10C H 0.7326 0.7188 1.0656
C11C C 0.6691(3) 0.6456(4) 0.9416(6)
H11C H 0.6620 0.6439 0.8651
C12C C 0.6285(3) 0.5750(3) 0.9948(6)
C13C C 0.5857(3) 0.5049(3) 0.9252(5)
H12C H 0.5818 0.5126 0.8498
C14C C 0.5515(3) 0.4298(4) 0.9623(6)
H13C H 0.5533 0.4196 1.0373
C15C C 0.5108(4) 0.3637(4) 0.8826(6)
C16C C 0.6308(5) 0.5661(4) 1.1152(5)
H14C H 0.6688 0.5504 1.1330
H15C H 0.5794 0.5265 1.1409
H16C H 0.6455 0.6157 1.1507
C17C C 0.6580(4) 0.8751(4) 0.6729(6)
C18C C 0.6250(4) 0.9039(4) 0.7575(6)
C19C C 0.5726(4) 0.8538(3) 0.8384(6)
C20C C 0.5477(4) 0.8853(4) 0.9254(6)
H17C H 0.5133 0.8523 0.9799
C21C C 0.5752(6) 0.9659(5) 0.9278(7)
H18C H 0.5611 0.9879 0.9857
C22C C 0.6254(5) 1.0150(5) 0.8411(10)
H19C H 0.6420 1.0687 0.8396
C23C C 0.6484(5) 0.9827(5) 0.7613(7)
H20C H 0.6819 1.0155 0.7060
O7 O 0.5080(3) 0.2714(4) 0.5116(5)
H21 H 0.5539 0.2990 0.5395
H22 H 0.4742 0.2534 0.5638
O8 O 0.2319(4) 0.1358(4) 0.4714(7)
H23 H 0.2500 0.1188 0.4208
H24 H 0.2457 0.1680 0.4173
O9 O 0.2382(4) 0.2366(6) 0.6852(9)
H25 H 0.2801 0.2354 0.7006
H26 H 0.2203 0.2119 0.6244
loop_
_geom_bond_atom_site_label_1
_geom_bond_atom_site_label_2
_geom_bond_site_symmetry_1
_geom_bond_site_symmetry_2
N1 H1 1_555 1_555
N2 H2 1_555 1_555
O1 C1 1_555 1_555
O2 H3 1_555 1_555
O3 H4 1_555 1_555
O4 C15 1_555 1_555
O5 H5 1_555 1_555
O6 C17 1_555 1_555
C1 N1 1_555 1_555
C2 N2 1_555 1_555
C3 C2 1_555 1_555
C4 N1 1_555 1_555
C5 C4 1_555 1_555
H6 C5 1_555 1_555
C6 O2 1_555 1_555
C7 C6 1_555 1_555
H7 C7 1_555 1_555
C8 C3 1_555 1_555
C9 O3 1_555 1_555
H8 C9 1_555 1_555
C10 C9 1_555 1_555
H9 C10 1_555 1_555
H10 C10 1_555 1_555
C11 C10 1_555 1_555
H11 C11 1_555 1_555
C12 C11 1_555 1_555
C13 C12 1_555 1_555
H12 C13 1_555 1_555
C14 C13 1_555 1_555
H13 C14 1_555 1_555
C15 C14 1_555 1_555
C16 C12 1_555 1_555
H14 C16 1_555 1_555
H15 C16 1_555 1_555
H16 C16 1_555 1_555
C17 O5 1_555 1_555
C18 C17 1_555 1_555
C19 N2 1_555 1_555
C20 C19 1_555 1_555
H17 C20 1_555 1_555
C21 C20 1_555 1_555
H18 C21 1_555 1_555
C22 C21 1_555 1_555
H19 C22 1_555 1_555
C23 C18 1_555 1_555
H20 C23 1_555 1_555
O7 H21 1_555 1_555
H22 O7 1_555 1_555
O8 H23 1_555 1_555
H24 O8 1_555 1_555
O9 H25 1_555 1_555
H26 O9 1_555 1_555
N1C H1C 1_555 1_555
N2C H2C 1_555 1_555
O1C C1C 1_555 1_555
O2C H3C 1_555 1_555
O3C H4C 1_555 1_555
O4C C15C 1_555 1_555
O5C H5C 1_555 1_555
O6C C17C 1_555 1_555
C1C N1C 1_555 1_555
C2C C15 1_555 1_555
C3C C2C 1_555 1_555
C4C N1C 1_555 1_555
C5C C4C 1_555 1_555
H6C C5C 1_555 1_555
C6C O2C 1_555 1_555
C7C C6C 1_555 1_555
H7C C7C 1_555 1_555
C8C C3C 1_555 1_555
C9C O3C 1_555 1_555
H8C C9C 1_555 1_555
C10C C9C 1_555 1_555
H9C C10C 1_555 1_555
H10C C10C 1_555 1_555
C11C C10C 1_555 1_555
H11C C11C 1_555 1_555
C12C C11C 1_555 1_555
C13C C12C 1_555 1_555
H12C C13C 1_555 1_555
C14C C13C 1_555 1_555
H13C C14C 1_555 1_555
C15C C2 1_555 1_555
C16C C12C 1_555 1_555
H14C C16C 1_555 1_555
H15C C16C 1_555 1_555
H16C C16C 1_555 1_555
C17C O5C 1_555 1_555
C18C C17C 1_555 1_555
C19C N2C 1_555 1_555
C20C C19C 1_555 1_555
H17C C20C 1_555 1_555
C21C C20C 1_555 1_555
H18C C21C 1_555 1_555
C22C C21C 1_555 1_555
H19C C22C 1_555 1_555
C23C C18C 1_555 1_555
H20C C23C 1_555 1_555
C1 C2 1_555 1_555
C3 C4 1_555 1_555
C5 C6 1_555 1_555
C7 C8 1_555 1_555
C8 C9 1_555 1_555
C18 C19 1_555 1_555
C22 C23 1_555 1_555
N2C C2C 1_555 1_555
C1C C2C 1_555 1_555
C3C C4C 1_555 1_555
C5C C6C 1_555 1_555
C7C C8C 1_555 1_555
C8C C9C 1_555 1_555
C14C C15C 1_555 1_555
C18C C19C 1_555 1_555
C22C C23C 1_555 1_555

#END
