
#######################################################################
#
#                 Cambridge Crystallographic Data Centre
#                                CCDC 
#
#######################################################################
#
# If this CIF has been generated from an entry in the Cambridge 
# Structural Database, then it will include bibliographic, chemical, 
# crystal, experimental, refinement or atomic coordinate data resulting 
# from the CCDC's data processing and validation procedures.
#
#######################################################################

data_SOWHIX
_chemical_formula_moiety         'C23 H28 F3 N1 O7'
_chemical_name_systematic        
'7-t-butyl 1-methyl 2-((3,3,3-trifluoro-2-methoxy-2-phenylpropanoyl)oxy)-7-azabicyclo[2.2.1]heptane-1,7-dicarboxylate'
_symmetry_cell_setting           orthorhombic
_symmetry_space_group_name_H-M   'P 21 21 21'
_symmetry_Int_Tables_number      19
_space_group_name_Hall           'P 2ac 2ab'
loop_
_symmetry_equiv_pos_site_id
_symmetry_equiv_pos_as_xyz
1 x,y,z
2 1/2-x,-y,1/2+z
3 -x,1/2+y,1/2-z
4 1/2+x,1/2-y,-z
_cell_length_a                   8.9709(8)
_cell_length_b                   14.6155(13)
_cell_length_c                   18.1662(17)
_cell_angle_alpha                90
_cell_angle_beta                 90
_cell_angle_gamma                90
_cell_volume                     2381.85
_exptl_crystal_colour            colorless
_exptl_crystal_description       prismatic
_cell_formula_units_Z            4
loop_
_atom_site_label
_atom_site_type_symbol
_atom_site_fract_x
_atom_site_fract_y
_atom_site_fract_z
C1 C 0.51061(15) 0.03257(9) 0.68319(7)
C2 C 0.37704(15) 0.09835(9) 0.69119(7)
H1 H 0.2932 0.0782 0.6587
C3 C 0.43974(16) 0.19065(9) 0.66424(8)
H2 H 0.3814 0.2148 0.6223
H3 H 0.4409 0.2366 0.7043
C4 C 0.59801(16) 0.16459(9) 0.64072(8)
H4 H 0.6436 0.2067 0.6036
C5 C 0.69375(18) 0.14853(11) 0.70976(8)
H5 H 0.6807 0.1986 0.7459
H6 H 0.8007 0.1432 0.6970
C6 C 0.63157(16) 0.05625(10) 0.74016(8)
H7 H 0.7100 0.0087 0.7419
H8 H 0.5884 0.0640 0.7899
C7 C 0.46042(15) -0.06621(10) 0.68052(8)
C8 C 0.30048(18) -0.16896(10) 0.62022(10)
H9 H 0.3779 -0.2163 0.6198
H10 H 0.2405 -0.1737 0.5753
H11 H 0.2363 -0.1774 0.6633
C9 C 0.19349(15) 0.12986(9) 0.78034(7)
C10 C 0.14748(14) 0.10978(9) 0.86069(7)
C11 C 0.01540(16) 0.17284(10) 0.88155(8)
C12 C 0.09649(15) 0.00999(9) 0.86570(7)
C13 C 0.0433(2) -0.03642(11) 0.80446(8)
H12 H 0.0382 -0.0061 0.7583
C14 C -0.0023(2) -0.12661(12) 0.81026(9)
H13 H -0.0379 -0.1580 0.7680
C15 C 0.0038(2) -0.17115(11) 0.87712(9)
H14 H -0.0264 -0.2333 0.8809
C16 C 0.05400(19) -0.12476(11) 0.93852(9)
H15 H 0.0567 -0.1551 0.9848
C17 C 0.10061(16) -0.03427(10) 0.93351(8)
H16 H 0.1350 -0.0029 0.9760
C18 C 0.33232(18) 0.21082(10) 0.91371(9)
H17 H 0.3530 0.2321 0.8636
H18 H 0.4258 0.2075 0.9415
H19 H 0.2642 0.2537 0.9380
C19 C 0.68697(15) 0.01936(9) 0.58232(7)
C20 C 0.90570(16) 0.03549(10) 0.50379(8)
C21 C 0.8595(2) -0.03783(13) 0.44931(9)
H20 H 0.8206 -0.0909 0.4761
H21 H 0.9462 -0.0563 0.4200
H22 H 0.7821 -0.0136 0.4167
C22 C 0.9668(2) 0.11779(12) 0.46306(11)
H23 H 0.8915 0.1406 0.4285
H24 H 1.0566 0.1000 0.4358
H25 H 0.9918 0.1660 0.4985
C23 C 1.01547(18) 0.00047(12) 0.56066(9)
H26 H 1.0355 0.0487 0.5968
H27 H 1.1087 -0.0169 0.5362
H28 H 0.9732 -0.0530 0.5857
N1 N 0.57149(12) 0.06935(7) 0.61354(6)
O1 O 0.48987(13) -0.12232(7) 0.72644(6)
O2 O 0.36910(11) -0.08025(7) 0.62346(6)
O3 O 0.33050(10) 0.09707(6) 0.76774(5)
O4 O 0.11493(11) 0.16483(7) 0.73494(5)
O5 O 0.26489(10) 0.12155(6) 0.91087(5)
O6 O 0.70076(12) -0.06215(7) 0.59050(6)
O7 O 0.77334(11) 0.07379(7) 0.54137(5)
F1 F 0.04209(10) 0.26128(6) 0.86659(5)
F2 F -0.11028(9) 0.15007(6) 0.84681(5)
F3 F -0.01175(10) 0.16734(6) 0.95383(4)
loop_
_geom_bond_atom_site_label_1
_geom_bond_atom_site_label_2
_geom_bond_site_symmetry_1
_geom_bond_site_symmetry_2
C1 C2 1_555 1_555
C2 H1 1_555 1_555
C3 C2 1_555 1_555
H2 C3 1_555 1_555
H3 C3 1_555 1_555
C4 C3 1_555 1_555
H4 C4 1_555 1_555
C5 C4 1_555 1_555
H5 C5 1_555 1_555
H6 C5 1_555 1_555
C6 C1 1_555 1_555
H7 C6 1_555 1_555
H8 C6 1_555 1_555
C7 C1 1_555 1_555
C8 H9 1_555 1_555
H10 C8 1_555 1_555
H11 C8 1_555 1_555
C9 C10 1_555 1_555
C10 C11 1_555 1_555
C11 F1 1_555 1_555
C12 C10 1_555 1_555
C13 C12 1_555 1_555
H12 C13 1_555 1_555
C14 C13 1_555 1_555
H13 C14 1_555 1_555
C15 C14 1_555 1_555
H14 C15 1_555 1_555
C16 C15 1_555 1_555
H15 C16 1_555 1_555
C17 C12 1_555 1_555
H16 C17 1_555 1_555
C18 H17 1_555 1_555
H18 C18 1_555 1_555
H19 C18 1_555 1_555
C19 N1 1_555 1_555
C20 C21 1_555 1_555
C21 H20 1_555 1_555
H21 C21 1_555 1_555
H22 C21 1_555 1_555
C22 C20 1_555 1_555
H23 C22 1_555 1_555
H24 C22 1_555 1_555
H25 C22 1_555 1_555
C23 C20 1_555 1_555
H26 C23 1_555 1_555
H27 C23 1_555 1_555
H28 C23 1_555 1_555
N1 C1 1_555 1_555
O1 C7 1_555 1_555
O2 C7 1_555 1_555
O3 C2 1_555 1_555
O4 C9 1_555 1_555
O5 C10 1_555 1_555
O6 C19 1_555 1_555
O7 C19 1_555 1_555
F2 C11 1_555 1_555
F3 C11 1_555 1_555
C4 N1 1_555 1_555
C5 C6 1_555 1_555
C8 O2 1_555 1_555
C9 O3 1_555 1_555
C16 C17 1_555 1_555
C18 O5 1_555 1_555
C20 O7 1_555 1_555

#END
