
#######################################################################
#
#                 Cambridge Crystallographic Data Centre
#                                CCDC 
#
#######################################################################
#
# If this CIF has been generated from an entry in the Cambridge 
# Structural Database, then it will include bibliographic, chemical, 
# crystal, experimental, refinement or atomic coordinate data resulting 
# from the CCDC's data processing and validation procedures.
#
#######################################################################

data_SOWHUJ
_chemical_formula_moiety         'C24 H38 N2 O7'
_chemical_name_systematic        
'(S)-methyl 7-((7-(t-butoxycarbonyl)-1-(methoxymethyl)-7-azabicyclo[2.2.1]hept-2-yl)carbonyl)-1-(methoxymethyl)-7-azabicyclo[2.2.1]heptane-2-carboxylate'
_symmetry_cell_setting           orthorhombic
_symmetry_space_group_name_H-M   'P 21 21 2'
_symmetry_Int_Tables_number      18
_space_group_name_Hall           'P 2 2ab'
loop_
_symmetry_equiv_pos_site_id
_symmetry_equiv_pos_as_xyz
1 x,y,z
2 -x,-y,z
3 1/2+x,1/2-y,-z
4 1/2-x,1/2+y,-z
_cell_length_a                   16.598(6)
_cell_length_b                   11.093(4)
_cell_length_c                   13.208(4)
_cell_angle_alpha                90
_cell_angle_beta                 90
_cell_angle_gamma                90
_cell_volume                     2431.88
_exptl_crystal_colour            colorless
_exptl_crystal_description       plate
_cell_formula_units_Z            4
loop_
_atom_site_label
_atom_site_type_symbol
_atom_site_fract_x
_atom_site_fract_y
_atom_site_fract_z
C1 C 0.36398(9) 0.37356(13) 0.27288(11)
C2 C 0.37210(9) 0.50319(13) 0.22715(11)
H1 H 0.4258 0.5107 0.1934
C3 C 0.37100(10) 0.58439(14) 0.32250(11)
H2 H 0.4203 0.6344 0.3267
H3 H 0.3232 0.6377 0.3229
C4 C 0.36752(10) 0.49308(14) 0.40883(12)
H4 H 0.3888 0.5237 0.4748
C5 C 0.28242(11) 0.43888(16) 0.41489(13)
H5 H 0.2407 0.5026 0.4131
H6 H 0.2755 0.3902 0.4771
C6 C 0.27869(10) 0.35855(15) 0.31859(13)
H7 H 0.2678 0.2734 0.3362
H8 H 0.2367 0.3873 0.2711
C7 C 0.44049(9) 0.29605(14) 0.42312(11)
C8 C 0.49237(11) 0.25149(14) 0.59284(11)
C9 C 0.56589(11) 0.18161(16) 0.55662(13)
H9 H 0.5497 0.1241 0.5041
H10 H 0.5897 0.1379 0.6137
H11 H 0.6056 0.2379 0.5287
C10 C 0.51536(11) 0.33557(16) 0.67863(12)
H12 H 0.5598 0.3877 0.6569
H13 H 0.5324 0.2880 0.7374
H14 H 0.4688 0.3853 0.6970
C11 C 0.42337(11) 0.16952(16) 0.62342(14)
H15 H 0.3769 0.2185 0.6435
H16 H 0.4401 0.1190 0.6805
H17 H 0.4085 0.1181 0.5661
C12 C 0.39005(9) 0.27349(13) 0.20351(11)
H18 H 0.3846 0.1949 0.2384
H19 H 0.3555 0.2723 0.1424
C13 C 0.50864(11) 0.18719(16) 0.13838(14)
H20 H 0.5015 0.1218 0.1875
H21 H 0.5663 0.2020 0.1281
H22 H 0.4839 0.1643 0.0738
C14 C 0.30614(9) 0.53279(13) 0.15041(11)
C15 C 0.26151(9) 0.50648(14) -0.03242(11)
C16 C 0.28060(9) 0.39342(14) -0.09895(11)
H23 H 0.2471 0.3242 -0.0749
C17 C 0.36980(10) 0.36738(14) -0.07471(12)
H24 H 0.3765 0.2866 -0.0440
H25 H 0.4036 0.3728 -0.1363
C18 C 0.39083(9) 0.46677(15) 0.00049(12)
H26 H 0.4386 0.4490 0.0441
C19 C 0.39521(10) 0.58777(16) -0.05578(13)
H27 H 0.4266 0.5803 -0.1192
H28 H 0.4198 0.6510 -0.0128
C20 C 0.30529(9) 0.61615(14) -0.07813(12)
H29 H 0.2882 0.6920 -0.0449
H30 H 0.2953 0.6225 -0.1518
C21 C 0.17267(9) 0.52395(16) -0.01215(12)
H31 H 0.1677 0.5859 0.0414
H32 H 0.1486 0.5584 -0.0743
C22 C 0.0774(5) 0.4381(7) 0.1005(5)
H33 H 0.1003 0.4955 0.1489
H34 H 0.0733 0.3585 0.1322
H35 H 0.0237 0.4654 0.0799
C23 C 0.26399(9) 0.41438(14) -0.21028(12)
C24 C 0.16009(11) 0.4340(2) -0.33176(13)
H36 H 0.1806 0.5120 -0.3550
H37 H 0.1012 0.4335 -0.3361
H38 H 0.1820 0.3697 -0.3745
N1 N 0.41427(8) 0.39101(11) 0.36513(9)
N2 N 0.31364(7) 0.47911(11) 0.05684(9)
O1 O 0.44589(7) 0.19241(10) 0.39521(8)
O2 O 0.46417(7) 0.33685(10) 0.51475(8)
O3 O 0.47177(6) 0.29242(9) 0.17521(8)
O4 O 0.24734(6) 0.59355(10) 0.17398(8)
O5 O 0.1272(5) 0.4308(7) 0.0154(6)
O6 O 0.31329(7) 0.43040(12) -0.27511(8)
O7 O 0.18447(7) 0.41432(12) -0.22776(8)
C25? C 0.1147(6) 0.4079(5) 0.1180(4)
H39? H 0.1026 0.4905 0.1396
H40? H 0.1465 0.3674 0.1704
H41? H 0.0642 0.3639 0.1074
O8? O 0.1504(4) 0.4103(5) 0.0444(5)
loop_
_geom_bond_atom_site_label_1
_geom_bond_atom_site_label_2
_geom_bond_site_symmetry_1
_geom_bond_site_symmetry_2
C1 C2 1_555 1_555
C2 H1 1_555 1_555
C3 C2 1_555 1_555
H2 C3 1_555 1_555
H3 C3 1_555 1_555
C4 C3 1_555 1_555
H4 C4 1_555 1_555
C5 C4 1_555 1_555
H5 C5 1_555 1_555
H6 C5 1_555 1_555
C6 C1 1_555 1_555
H7 C6 1_555 1_555
H8 C6 1_555 1_555
C7 N1 1_555 1_555
C8 C9 1_555 1_555
C9 H9 1_555 1_555
H10 C9 1_555 1_555
H11 C9 1_555 1_555
C10 C8 1_555 1_555
H12 C10 1_555 1_555
H13 C10 1_555 1_555
H14 C10 1_555 1_555
C11 C8 1_555 1_555
H15 C11 1_555 1_555
H16 C11 1_555 1_555
H17 C11 1_555 1_555
C12 C1 1_555 1_555
H18 C12 1_555 1_555
H19 C12 1_555 1_555
C13 H20 1_555 1_555
H21 C13 1_555 1_555
H22 C13 1_555 1_555
C14 C2 1_555 1_555
C15 C16 1_555 1_555
C16 H23 1_555 1_555
C17 C16 1_555 1_555
H24 C17 1_555 1_555
H25 C17 1_555 1_555
C18 C17 1_555 1_555
H26 C18 1_555 1_555
C19 C18 1_555 1_555
H27 C19 1_555 1_555
H28 C19 1_555 1_555
C20 C15 1_555 1_555
H29 C20 1_555 1_555
H30 C20 1_555 1_555
C21 C15 1_555 1_555
H31 C21 1_555 1_555
H32 C21 1_555 1_555
C22 H33 1_555 1_555
H34 C22 1_555 1_555
H35 C22 1_555 1_555
C23 C16 1_555 1_555
C24 H36 1_555 1_555
H37 C24 1_555 1_555
H38 C24 1_555 1_555
N1 C1 1_555 1_555
N2 C14 1_555 1_555
O1 C7 1_555 1_555
O2 C7 1_555 1_555
O3 C12 1_555 1_555
O4 C14 1_555 1_555
O5 C21 1_555 1_555
O6 C23 1_555 1_555
O7 C23 1_555 1_555
C4 N1 1_555 1_555
C5 C6 1_555 1_555
C8 O2 1_555 1_555
C13 O3 1_555 1_555
C15 N2 1_555 1_555
C18 N2 1_555 1_555
C19 C20 1_555 1_555
C22 O5 1_555 1_555
C24 O7 1_555 1_555

#END
