
#######################################################################
#
#                 Cambridge Crystallographic Data Centre
#                                CCDC 
#
#######################################################################
#
# If this CIF has been generated from an entry in the Cambridge 
# Structural Database, then it will include bibliographic, chemical, 
# crystal, experimental, refinement or atomic coordinate data resulting 
# from the CCDC's data processing and validation procedures.
#
#######################################################################

data_SOWJIZ
_chemical_formula_moiety         'C34 H44 Br1 N3 O8,2(H2 O1)'
_chemical_name_systematic        
'7-((7-((7-(4-bromobenzoyl)-1-(methoxymethyl)-7-azabicyclo[2.2.1]hept-2-yl)carbonyl)-1-(methoxymethyl)-7-azabicyclo[2.2.1]hept-2-yl)carbonyl)-1-(methoxymethyl)-7-azabicyclo[2.2.1]heptane-2-carboxylic acid dihydrate'
_symmetry_cell_setting           orthorhombic
_symmetry_space_group_name_H-M   'P 21 21 21'
_symmetry_Int_Tables_number      19
_space_group_name_Hall           'P 2ac 2ab'
loop_
_symmetry_equiv_pos_site_id
_symmetry_equiv_pos_as_xyz
1 x,y,z
2 1/2-x,-y,1/2+z
3 1/2+x,1/2-y,-z
4 -x,1/2+y,1/2-z
_cell_length_a                   10.0129(19)
_cell_length_b                   17.402(3)
_cell_length_c                   20.030(4)
_cell_angle_alpha                90
_cell_angle_beta                 90
_cell_angle_gamma                90
_cell_volume                     3490.12
_exptl_crystal_colour            colorless
_exptl_crystal_description       block
_cell_formula_units_Z            4
loop_
_atom_site_label
_atom_site_type_symbol
_atom_site_fract_x
_atom_site_fract_y
_atom_site_fract_z
C1 C 0.2349(2) 0.40230(12) 0.49940(11)
C2 C 0.2186(2) 0.45811(12) 0.43884(11)
H1 H 0.1467 0.4381 0.4089
C3 C 0.1697(2) 0.53304(12) 0.47200(11)
H2 H 0.2371 0.5744 0.4678
H3 H 0.0845 0.5507 0.4521
C4 C 0.1509(2) 0.50892(13) 0.54524(10)
H4 H 0.0843 0.5404 0.5705
C5 C 0.2881(2) 0.50277(15) 0.57865(11)
H5 H 0.2795 0.4962 0.6276
H6 H 0.3434 0.5487 0.5693
C6 C 0.3481(2) 0.42980(13) 0.54551(11)
H7 H 0.4295 0.4424 0.5196
H8 H 0.3703 0.3904 0.5794
C7 C 0.2442(2) 0.31840(13) 0.48047(11)
H9 H 0.3273 0.3092 0.4548
H10 H 0.2471 0.2864 0.5213
C8 C 0.1101(3) 0.21683(14) 0.44085(15)
H11 H 0.1918 0.1907 0.4264
H12 H 0.0372 0.2045 0.4100
H13 H 0.0864 0.1996 0.4859
C9 C 0.0461(2) 0.38236(12) 0.58196(10)
C10 C -0.0692(2) 0.41884(12) 0.61771(10)
C11 C -0.0996(2) 0.39121(12) 0.68153(10)
H14 H -0.0418 0.3550 0.7022
C12 C -0.2127(2) 0.41585(12) 0.71495(11)
H15 H -0.2325 0.3977 0.7586
C13 C -0.2958(2) 0.46735(12) 0.68327(12)
C14 C -0.2693(2) 0.49621(14) 0.62046(11)
H16 H -0.3282 0.5319 0.6000
C15 C -0.1548(2) 0.47183(12) 0.58806(11)
H17 H -0.1343 0.4915 0.5450
C16 C 0.3479(2) 0.46557(12) 0.39878(10)
C17 C 0.4825(2) 0.40271(12) 0.30462(10)
C18 C 0.4799(2) 0.31319(12) 0.29531(10)
H18 H 0.5273 0.2881 0.3335
C19 C 0.3278(2) 0.29439(12) 0.29913(11)
H19 H 0.2961 0.2701 0.2573
H20 H 0.3079 0.2599 0.3372
C20 C 0.2652(2) 0.37289(12) 0.30902(11)
H21 H 0.1735 0.3718 0.3288
C21 C 0.2773(2) 0.42029(13) 0.24433(11)
H22 H 0.2197 0.4665 0.2461
H23 H 0.2524 0.3892 0.2049
C22 C 0.4264(2) 0.44271(13) 0.24222(10)
H24 H 0.4699 0.4235 0.2011
H25 H 0.4380 0.4991 0.2449
C23 C 0.6163(2) 0.43344(13) 0.32738(11)
H26 H 0.6831 0.4270 0.2914
H27 H 0.6087 0.4889 0.3376
C24 C 0.7720(3) 0.42793(17) 0.41427(14)
H28 H 0.8437 0.4311 0.3810
H29 H 0.8022 0.3971 0.4523
H30 H 0.7489 0.4797 0.4296
C25 C 0.5418(2) 0.28676(12) 0.22959(11)
C26 C 0.7576(2) 0.23857(12) 0.17451(11)
C27 C 0.8801(2) 0.29211(13) 0.18692(11)
H31 H 0.8533 0.3452 0.1732
C28 C 0.8907(2) 0.29166(13) 0.26476(11)
H32 H 0.9719 0.2642 0.2798
H33 H 0.8921 0.3446 0.2828
C29 C 0.7640(2) 0.24897(13) 0.28616(10)
H34 H 0.7298 0.2630 0.3315
C30 C 0.7863(2) 0.16254(13) 0.27502(11)
H35 H 0.7134 0.1318 0.2951
H36 H 0.8728 0.1456 0.2940
C31 C 0.7860(2) 0.15585(13) 0.19770(11)
H37 H 0.8735 0.1377 0.1810
H38 H 0.7154 0.1202 0.1823
C32 C 0.7031(2) 0.24212(12) 0.10413(10)
H39 H 0.7652 0.2156 0.0733
H40 H 0.6159 0.2155 0.1022
C33 C 0.6078(2) 0.32397(15) 0.02566(11)
H41 H 0.6435 0.2892 -0.0084
H42 H 0.6090 0.3768 0.0087
H43 H 0.5158 0.3092 0.0364
C34 C 1.0042(2) 0.27193(13) 0.14838(11)
N1 N 0.11383(19) 0.42674(10) 0.53713(9)
N2 N 0.36776(17) 0.41097(9) 0.35158(8)
N3 N 0.67170(17) 0.26682(10) 0.23026(9)
O1 O 0.13191(17) 0.29787(8) 0.44127(8)
O2 O 0.06942(17) 0.31430(9) 0.59132(8)
O3 O 0.43189(16) 0.51440(9) 0.41282(8)
O4 O 0.65823(16) 0.39301(9) 0.38516(7)
O5 O 0.47436(15) 0.28563(10) 0.17812(7)
O6 O 0.68733(16) 0.31929(8) 0.08393(7)
O7 O 1.03351(18) 0.30328(10) 0.09609(8)
O8 O 1.07666(18) 0.21746(11) 0.17561(9)
H44 H 1.144(4) 0.210(2) 0.1565(19)
Br1 Br -0.45539(2) 0.49843(2) 0.72746(2)
O9 O 0.30410(18) 0.17807(12) 0.12749(10)
H45 H 0.327(3) 0.1603(19) 0.0907(17)
H46 H 0.361(4) 0.2139(19) 0.1392(16)
O10 O 0.40457(19) 0.11061(11) 0.01341(9)
H47 H 0.439(3) 0.1358(18) -0.0178(16)
H48 H 0.464(3) 0.0814(18) 0.0307(14)
loop_
_geom_bond_atom_site_label_1
_geom_bond_atom_site_label_2
_geom_bond_site_symmetry_1
_geom_bond_site_symmetry_2
C1 C2 1_555 1_555
C2 H1 1_555 1_555
C3 C2 1_555 1_555
H2 C3 1_555 1_555
H3 C3 1_555 1_555
C4 C3 1_555 1_555
H4 C4 1_555 1_555
C5 C4 1_555 1_555
H5 C5 1_555 1_555
H6 C5 1_555 1_555
C6 C1 1_555 1_555
H7 C6 1_555 1_555
H8 C6 1_555 1_555
C7 C1 1_555 1_555
H9 C7 1_555 1_555
H10 C7 1_555 1_555
C8 H11 1_555 1_555
H12 C8 1_555 1_555
H13 C8 1_555 1_555
C9 C10 1_555 1_555
C10 C11 1_555 1_555
C11 H14 1_555 1_555
C12 C11 1_555 1_555
H15 C12 1_555 1_555
C13 C12 1_555 1_555
C14 C13 1_555 1_555
H16 C14 1_555 1_555
C15 C10 1_555 1_555
H17 C15 1_555 1_555
C16 C2 1_555 1_555
C17 C18 1_555 1_555
C18 H18 1_555 1_555
C19 C18 1_555 1_555
H19 C19 1_555 1_555
H20 C19 1_555 1_555
C20 C19 1_555 1_555
H21 C20 1_555 1_555
C21 C20 1_555 1_555
H22 C21 1_555 1_555
H23 C21 1_555 1_555
C22 C17 1_555 1_555
H24 C22 1_555 1_555
H25 C22 1_555 1_555
C23 C17 1_555 1_555
H26 C23 1_555 1_555
H27 C23 1_555 1_555
C24 H28 1_555 1_555
H29 C24 1_555 1_555
H30 C24 1_555 1_555
C25 C18 1_555 1_555
C26 C27 1_555 1_555
C27 H31 1_555 1_555
C28 C27 1_555 1_555
H32 C28 1_555 1_555
H33 C28 1_555 1_555
C29 C28 1_555 1_555
H34 C29 1_555 1_555
C30 C29 1_555 1_555
H35 C30 1_555 1_555
H36 C30 1_555 1_555
C31 C26 1_555 1_555
H37 C31 1_555 1_555
H38 C31 1_555 1_555
C32 C26 1_555 1_555
H39 C32 1_555 1_555
H40 C32 1_555 1_555
C33 H41 1_555 1_555
H42 C33 1_555 1_555
H43 C33 1_555 1_555
C34 C27 1_555 1_555
N1 C1 1_555 1_555
N2 C16 1_555 1_555
N3 C25 1_555 1_555
O1 C7 1_555 1_555
O2 C9 1_555 1_555
O3 C16 1_555 1_555
O4 C23 1_555 1_555
O5 C25 1_555 1_555
O6 C32 1_555 1_555
O7 C34 1_555 1_555
O8 C34 1_555 1_555
H44 O8 1_555 1_555
Br1 C13 1_555 1_555
O9 H45 1_555 1_555
H46 O9 1_555 1_555
O10 H47 1_555 1_555
H48 O10 1_555 1_555
C4 N1 1_555 1_555
C5 C6 1_555 1_555
C8 O1 1_555 1_555
C9 N1 1_555 1_555
C14 C15 1_555 1_555
C17 N2 1_555 1_555
C20 N2 1_555 1_555
C21 C22 1_555 1_555
C24 O4 1_555 1_555
C26 N3 1_555 1_555
C29 N3 1_555 1_555
C30 C31 1_555 1_555
C33 O6 1_555 1_555

#END
