
#######################################################################
#
#                 Cambridge Crystallographic Data Centre
#                                CCDC 
#
#######################################################################
#
# If this CIF has been generated from an entry in the Cambridge 
# Structural Database, then it will include bibliographic, chemical, 
# crystal, experimental, refinement or atomic coordinate data resulting 
# from the CCDC's data processing and validation procedures.
#
#######################################################################

data_SOWLEW02
_chemical_name_common            '(2-Bromoethyl)trimethylammonium bromide'
_chemical_formula_moiety         'C5 H13 Br1 N1 1+,Br1 1-'
_chemical_name_systematic        
'2-bromo-N,N,N-trimethylethan-1-aminium bromide'
_symmetry_cell_setting           monoclinic
_symmetry_space_group_name_H-M   'P 21'
_symmetry_Int_Tables_number      4
_space_group_name_Hall           'P 2yb'
loop_
_symmetry_equiv_pos_site_id
_symmetry_equiv_pos_as_xyz
1 x,y,z
2 -x,1/2+y,-z
_cell_length_a                   7.2735(3)
_cell_length_b                   8.5710(3)
_cell_length_c                   7.4768(3)
_cell_angle_alpha                90
_cell_angle_beta                 108.893(4)
_cell_angle_gamma                90
_cell_volume                     441.001
_exptl_crystal_colour            colorless
_exptl_crystal_description       block
_cell_formula_units_Z            2
_exptl_crystal_recrystallization_method methanol
_exptl_crystal_preparation       'alpha phase'
loop_
_atom_site_label
_atom_site_type_symbol
_atom_site_fract_x
_atom_site_fract_y
_atom_site_fract_z
Br1 Br 0.52105(9) 0.69470(10) 0.04386(9)
N1 N 0.2189(7) 0.6180(6) 0.4295(7)
C1 C 0.2478(11) 0.7731(8) 0.5308(10)
H1 H 0.1610 0.7807 0.6036
H2 H 0.2213 0.8561 0.4398
H3 H 0.3796 0.7811 0.6134
C2 C 0.0105(8) 0.6027(11) 0.3055(9)
H4 H -0.0057 0.5074 0.2346
H5 H -0.0236 0.6895 0.2201
H6 H -0.0723 0.6012 0.3827
C3 C 0.2672(10) 0.4921(8) 0.5763(10)
H7 H 0.3994 0.5038 0.6567
H8 H 0.2510 0.3920 0.5155
H9 H 0.1820 0.4998 0.6508
C4 C 0.3526(7) 0.6021(8) 0.3139(8)
H10 H 0.3402 0.4975 0.2618
H11 H 0.4855 0.6148 0.3964
C5 C 0.3137(9) 0.7187(10) 0.1532(8)
H12 H 0.3129 0.8241 0.2003
H13 H 0.1886 0.6983 0.0588
Br2 Br 0.82974(8) 0.64789(7) 0.75468(8)
loop_
_geom_bond_atom_site_label_1
_geom_bond_atom_site_label_2
_geom_bond_site_symmetry_1
_geom_bond_site_symmetry_2
Br1 C5 1_555 1_555
N1 C1 1_555 1_555
C1 H1 1_555 1_555
H2 C1 1_555 1_555
H3 C1 1_555 1_555
C2 N1 1_555 1_555
H4 C2 1_555 1_555
H5 C2 1_555 1_555
H6 C2 1_555 1_555
C3 N1 1_555 1_555
H7 C3 1_555 1_555
H8 C3 1_555 1_555
H9 C3 1_555 1_555
C4 N1 1_555 1_555
H10 C4 1_555 1_555
H11 C4 1_555 1_555
C5 C4 1_555 1_555
H12 C5 1_555 1_555
H13 C5 1_555 1_555

#END
