
#######################################################################
#
#                 Cambridge Crystallographic Data Centre
#                                CCDC 
#
#######################################################################
#
# If this CIF has been generated from an entry in the Cambridge 
# Structural Database, then it will include bibliographic, chemical, 
# crystal, experimental, refinement or atomic coordinate data resulting 
# from the CCDC's data processing and validation procedures.
#
#######################################################################

data_SOWLOG
_chemical_formula_moiety         'C6 H17 N3 S1 2+,2(Br1 1-),4(C1 H4 N2 S1)'
_chemical_name_systematic        
'2-(Trimethylammonio)ethylisothiouronium dibromide tetrakis(thiourea)'
_symmetry_cell_setting           triclinic
_symmetry_space_group_name_H-M   'P -1'
_symmetry_Int_Tables_number      2
_space_group_name_Hall           '-P 1'
loop_
_symmetry_equiv_pos_site_id
_symmetry_equiv_pos_as_xyz
1 x,y,z
2 -x,-y,-z
_cell_length_a                   9.3087(19)
_cell_length_b                   9.5569(19)
_cell_length_c                   16.520(3)
_cell_angle_alpha                102.20(3)
_cell_angle_beta                 100.79(3)
_cell_angle_gamma                104.18(3)
_cell_volume                     1347.69
_exptl_crystal_colour            colorless
_exptl_crystal_description       block
_chemical_melting_point          '142 deg.C'
_cell_formula_units_Z            2
loop_
_atom_site_label
_atom_site_type_symbol
_atom_site_fract_x
_atom_site_fract_y
_atom_site_fract_z
Br1 Br 0.24184(2) 0.77633(2) 0.635517(11)
Br2 Br 0.47252(2) 0.04636(2) 0.880347(11)
C1 C 1.0704(2) 0.8322(2) 0.88569(11)
C2 C 0.8242(2) 0.6143(2) 0.76425(11)
H1 H 0.7232 0.5443 0.7530
H2 H 0.8153 0.6891 0.7336
C3 C 0.9304(2) 0.5312(2) 0.73181(11)
H3 H 1.0251 0.6040 0.7338
H4 H 0.9550 0.4715 0.7701
C4 C 0.8114(3) 0.5115(2) 0.58029(12)
H5 H 0.7711 0.4440 0.5239
H6 H 0.8955 0.5928 0.5801
H7 H 0.7327 0.5502 0.5975
C5 C 0.9934(2) 0.3752(2) 0.61534(14)
H8 H 0.9563 0.3100 0.5582
H9 H 1.0290 0.3215 0.6539
H10 H 1.0762 0.4595 0.6171
C6 C 0.7380(2) 0.2969(2) 0.63875(15)
H11 H 0.6987 0.2340 0.5811
H12 H 0.6578 0.3305 0.6577
H13 H 0.7754 0.2411 0.6755
N1 N 1.1699(2) 0.8731(2) 0.96006(11)
H14 H 1.2585 0.9356 0.9678
H15 H 1.1467 0.8376 1.0012
N2 N 1.10283(19) 0.88439(19) 0.82269(10)
H16 H 1.1909 0.9469 0.8294
H17 H 1.0362 0.8564 0.7742
N3 N 0.86577(16) 0.42942(16) 0.64173(9)
S1 S 0.89419(6) 0.70502(6) 0.87797(3)
C7 C 0.9232(2) 0.6667(2) 0.11073(11)
N4 N 0.82239(19) 0.5548(2) 0.04932(10)
H18 H 0.7270 0.5322 0.0491
H19 H 0.8522 0.5046 0.0095
N5 N 0.8720(2) 0.7411(2) 0.17082(12)
H20 H 0.7760 0.7160 0.1690
H21 H 0.9349 0.8145 0.2116
S2 S 1.11388(5) 0.71016(6) 0.11515(3)
C8 C 0.2958(2) 0.0972(2) 0.33683(11)
N6 N 0.3355(2) 0.0336(2) 0.26918(11)
H22 H 0.4294 0.0594 0.2667
H23 H 0.2674 -0.0337 0.2275
N7 N 0.4043(2) 0.1999(2) 0.39914(11)
H24 H 0.4972 0.2233 0.3947
H25 H 0.3821 0.2435 0.4442
S3 S 0.11014(5) 0.05107(5) 0.34354(3)
C9 C 0.3072(2) 0.1901(2) 0.61378(11)
N8 N 0.3593(2) 0.16920(19) 0.68906(10)
H26 H 0.3318 0.0815 0.6971
H27 H 0.4206 0.2433 0.7300
N9 N 0.2127(2) 0.0710(2) 0.55312(11)
H28 H 0.1881 -0.0148 0.5638
H29 H 0.1763 0.0798 0.5032
S4 S 0.35614(6) 0.36206(5) 0.59525(3)
C10 C 0.4787(2) 0.6084(2) 0.86340(12)
N10 N 0.5002(2) 0.7183(2) 0.93237(12)
H30 H 0.4825 0.8006 0.9273
H31 H 0.5317 0.7074 0.9824
N11 N 0.4302(2) 0.6298(2) 0.78797(12)
H32 H 0.4135 0.7133 0.7848
H33 H 0.4152 0.5602 0.7420
S5 S 0.51427(5) 0.44513(5) 0.87227(3)
loop_
_geom_bond_atom_site_label_1
_geom_bond_atom_site_label_2
_geom_bond_site_symmetry_1
_geom_bond_site_symmetry_2
C1 N1 1_555 1_555
C2 H1 1_555 1_555
H2 C2 1_555 1_555
C3 C2 1_555 1_555
H3 C3 1_555 1_555
H4 C3 1_555 1_555
C4 H5 1_555 1_555
H6 C4 1_555 1_555
H7 C4 1_555 1_555
C5 H8 1_555 1_555
H9 C5 1_555 1_555
H10 C5 1_555 1_555
C6 H11 1_555 1_555
H12 C6 1_555 1_555
H13 C6 1_555 1_555
C7 N4 1_555 1_555
C8 N6 1_555 1_555
C9 N8 1_555 1_555
C10 N10 1_555 1_555
N1 H14 1_555 1_555
H15 N1 1_555 1_555
N2 C1 1_555 1_555
H16 N2 1_555 1_555
H17 N2 1_555 1_555
N3 C3 1_555 1_555
N4 H18 1_555 1_555
H19 N4 1_555 1_555
N5 C7 1_555 1_555
H20 N5 1_555 1_555
H21 N5 1_555 1_555
N6 H22 1_555 1_555
H23 N6 1_555 1_555
N7 C8 1_555 1_555
H24 N7 1_555 1_555
H25 N7 1_555 1_555
N8 H26 1_555 1_555
H27 N8 1_555 1_555
N9 C9 1_555 1_555
H28 N9 1_555 1_555
H29 N9 1_555 1_555
N10 H30 1_555 1_555
H31 N10 1_555 1_555
N11 C10 1_555 1_555
H32 N11 1_555 1_555
H33 N11 1_555 1_555
S1 C1 1_555 1_555
S2 C7 1_555 1_555
S3 C8 1_555 1_555
S4 C9 1_555 1_555
S5 C10 1_555 1_555
C2 S1 1_555 1_555
C4 N3 1_555 1_555
C5 N3 1_555 1_555
C6 N3 1_555 1_555

#END
