
#######################################################################
#
#                 Cambridge Crystallographic Data Centre
#                                CCDC 
#
#######################################################################
#
# If this CIF has been generated from an entry in the Cambridge 
# Structural Database, then it will include bibliographic, chemical, 
# crystal, experimental, refinement or atomic coordinate data resulting 
# from the CCDC's data processing and validation procedures.
#
#######################################################################

data_SOWQAY
_chemical_formula_moiety         'C15 H16 N2 O1'
_chemical_name_systematic        3-t-Butylpyrimido[1,6-a]indol-1(2H)-one
_symmetry_cell_setting           monoclinic
_symmetry_space_group_name_H-M   'P 21/c'
_symmetry_Int_Tables_number      14
_space_group_name_Hall           '-P 2ybc'
loop_
_symmetry_equiv_pos_site_id
_symmetry_equiv_pos_as_xyz
1 x,y,z
2 -x,1/2+y,1/2-z
3 -x,-y,-z
4 x,1/2-y,1/2+z
_cell_length_a                   9.0763(5)
_cell_length_b                   12.2352(5)
_cell_length_c                   12.0706(7)
_cell_angle_alpha                90
_cell_angle_beta                 107.042(6)
_cell_angle_gamma                90
_cell_volume                     1281.59
_exptl_crystal_colour            colorless
_exptl_crystal_description       block
_cell_formula_units_Z            4
loop_
_atom_site_label
_atom_site_type_symbol
_atom_site_fract_x
_atom_site_fract_y
_atom_site_fract_z
O1 O 0.82774(11) 0.06687(9) 0.46999(9)
N1 N 0.70220(13) 0.05787(9) 0.60797(10)
N2 N 0.94043(14) -0.02219(10) 0.63900(10)
H1 H 1.0216 -0.0364 0.6156
C1 C 0.57195(15) 0.12111(11) 0.55531(12)
C2 C 0.52985(17) 0.17556(12) 0.45007(13)
H2 H 0.5915 0.1726 0.3987
C3 C 0.39408(18) 0.23440(13) 0.42327(13)
H3 H 0.3626 0.2738 0.3524
C4 C 0.30228(18) 0.23731(14) 0.49750(14)
H4 H 0.2087 0.2776 0.4758
C5 C 0.34465(18) 0.18287(13) 0.60180(13)
H5 H 0.2810 0.1853 0.6517
C6 C 0.48279(16) 0.12395(12) 0.63334(12)
C7 C 0.56191(17) 0.06203(13) 0.73383(13)
H6 H 0.5279 0.0503 0.8002
C8 C 0.69424(16) 0.02303(12) 0.71766(12)
C9 C 0.82430(16) 0.03545(11) 0.56573(12)
C10 C 0.94230(16) -0.06092(11) 0.74843(12)
C11 C 0.82089(16) -0.03957(12) 0.78661(12)
H7 H 0.8190 -0.0662 0.8601
C12 C 1.08663(17) -0.12393(12) 0.81223(13)
C13 C 1.1034(2) -0.22435(13) 0.74081(14)
H8 H 1.0183 -0.2751 0.7362
H9 H 1.2016 -0.2608 0.7781
H10 H 1.1011 -0.2013 0.6626
C14 C 1.07828(19) -0.16189(15) 0.93092(13)
H11 H 1.0658 -0.0983 0.9767
H12 H 1.1735 -0.2005 0.9712
H13 H 0.9902 -0.2112 0.9209
C15 C 1.22814(18) -0.04961(15) 0.82946(16)
H14 H 1.2374 -0.0276 0.7537
H15 H 1.3211 -0.0894 0.8724
H16 H 1.2161 0.0155 0.8733
loop_
_geom_bond_atom_site_label_1
_geom_bond_atom_site_label_2
_geom_bond_site_symmetry_1
_geom_bond_site_symmetry_2
O1 C9 1_555 1_555
N1 C1 1_555 1_555
N2 H1 1_555 1_555
C1 C2 1_555 1_555
C2 H2 1_555 1_555
C3 C2 1_555 1_555
H3 C3 1_555 1_555
C4 C3 1_555 1_555
H4 C4 1_555 1_555
C5 C4 1_555 1_555
H5 C5 1_555 1_555
C6 C1 1_555 1_555
C7 C6 1_555 1_555
H6 C7 1_555 1_555
C8 N1 1_555 1_555
C9 N1 1_555 1_555
C10 N2 1_555 1_555
C11 C8 1_555 1_555
H7 C11 1_555 1_555
C12 C10 1_555 1_555
C13 C12 1_555 1_555
H8 C13 1_555 1_555
H9 C13 1_555 1_555
H10 C13 1_555 1_555
C14 C12 1_555 1_555
H11 C14 1_555 1_555
H12 C14 1_555 1_555
H13 C14 1_555 1_555
C15 C12 1_555 1_555
H14 C15 1_555 1_555
H15 C15 1_555 1_555
H16 C15 1_555 1_555
N2 C9 1_555 1_555
C5 C6 1_555 1_555
C7 C8 1_555 1_555
C10 C11 1_555 1_555

#END
