
#######################################################################
#
#                 Cambridge Crystallographic Data Centre
#                                CCDC 
#
#######################################################################
#
# If this CIF has been generated from an entry in the Cambridge 
# Structural Database, then it will include bibliographic, chemical, 
# crystal, experimental, refinement or atomic coordinate data resulting 
# from the CCDC's data processing and validation procedures.
#
#######################################################################

data_SOWSOO
_chemical_formula_moiety         'C22 H15 I1 N2 O1'
_chemical_name_systematic        
2-(2-iodophenyl)-4,5-dimethylpyrrolo[2,3,4-kl]acridin-1(2H)-one
_symmetry_cell_setting           tetragonal
_symmetry_space_group_name_H-M   'I 41/a'
_symmetry_Int_Tables_number      88
_space_group_name_Hall           '-I 4ad'
loop_
_symmetry_equiv_pos_site_id
_symmetry_equiv_pos_as_xyz
1 x,y,z
2 3/4-y,1/4+x,1/4+z
3 1/2-x,-y,1/2+z
4 3/4+y,3/4-x,3/4+z
5 1/2+x,1/2+y,1/2+z
6 1/4-y,3/4+x,3/4+z
7 -x,1/2-y,z
8 1/4+y,1/4-x,1/4+z
9 -x,-y,-z
10 1/4+y,3/4-x,3/4-z
11 1/2+x,y,1/2-z
12 1/4-y,1/4+x,1/4-z
13 1/2-x,1/2-y,1/2-z
14 3/4+y,1/4-x,1/4-z
15 x,1/2+y,-z
16 3/4-y,3/4+x,3/4-z
_cell_length_a                   30.901(4)
_cell_length_b                   30.901(4)
_cell_length_c                   8.0232(11)
_cell_angle_alpha                90
_cell_angle_beta                 90
_cell_angle_gamma                90
_cell_volume                     7661.13
_exptl_crystal_colour            red
_exptl_crystal_description       block
_cell_formula_units_Z            16
loop_
_atom_site_label
_atom_site_type_symbol
_atom_site_fract_x
_atom_site_fract_y
_atom_site_fract_z
I1 I 0.41984(4) 0.64611(4) 0.88362(11)
O1 O 0.3845(3) 0.5619(3) 0.6347(14)
N1 N 0.4575(4) 0.5795(3) 0.6034(16)
N2 N 0.5025(4) 0.4529(3) 0.8477(15)
C1 C 0.4539(4) 0.6225(4) 0.5374(16)
C2 C 0.4384(4) 0.6560(4) 0.6369(15)
C3 C 0.4364(4) 0.6965(4) 0.5695(17)
H1 H 0.4231 0.7183 0.6306
C4 C 0.4531(5) 0.7066(4) 0.416(2)
H2 H 0.4547 0.7351 0.3793
C5 C 0.4674(4) 0.6730(5) 0.3165(17)
H3 H 0.4762 0.6787 0.2079
C6 C 0.4690(4) 0.6303(4) 0.3771(15)
H4 H 0.4798 0.6080 0.3117
C7 C 0.4958(4) 0.5575(4) 0.6309(15)
C8 C 0.5396(5) 0.5657(5) 0.5991(16)
H5 H 0.5478 0.5911 0.5454
C9 C 0.5716(4) 0.5351(4) 0.6489(17)
C10 C 0.5607(4) 0.4974(4) 0.7351(15)
C11 C 0.5163(4) 0.4879(4) 0.7689(18)
C12 C 0.4851(4) 0.5192(3) 0.7196(16)
C13 C 0.4426(4) 0.5135(4) 0.7337(15)
C14 C 0.4226(4) 0.5539(4) 0.6617(18)
C15 C 0.6171(6) 0.5453(5) 0.611(2)
H6 H 0.6350 0.5376 0.7040
H7 H 0.6199 0.5757 0.5886
H8 H 0.6261 0.5292 0.5144
C16 C 0.5943(5) 0.4651(5) 0.789(2)
H9 H 0.6052 0.4500 0.6928
H10 H 0.5816 0.4447 0.8645
H11 H 0.6177 0.4799 0.8432
C17 C 0.4588(6) 0.4488(5) 0.8730(16)
C18 C 0.4445(6) 0.4107(4) 0.961(2)
H12 H 0.4648 0.3905 0.9976
C19 C 0.4031(6) 0.4039(6) 0.991(2)
H13 H 0.3949 0.3800 1.0542
C20 C 0.3720(6) 0.4313(6) 0.932(2)
H14 H 0.3430 0.4246 0.9506
C21 C 0.3820(5) 0.4678(5) 0.849(2)
H15 H 0.3602 0.4862 0.8119
C22 C 0.4263(4) 0.4779(4) 0.8169(16)
loop_
_geom_bond_atom_site_label_1
_geom_bond_atom_site_label_2
_geom_bond_site_symmetry_1
_geom_bond_site_symmetry_2
I1 C2 1_555 1_555
O1 C14 1_555 1_555
N1 C1 1_555 1_555
N2 C11 1_555 1_555
C1 C2 1_555 1_555
C2 C3 1_555 1_555
C3 H1 1_555 1_555
C4 C3 1_555 1_555
H2 C4 1_555 1_555
C5 C4 1_555 1_555
H3 C5 1_555 1_555
C6 C1 1_555 1_555
H4 C6 1_555 1_555
C7 N1 1_555 1_555
C8 C7 1_555 1_555
H5 C8 1_555 1_555
C9 C8 1_555 1_555
C10 C9 1_555 1_555
C11 C10 1_555 1_555
C12 C7 1_555 1_555
C13 C12 1_555 1_555
C14 N1 1_555 1_555
C15 C9 1_555 1_555
H6 C15 1_555 1_555
H7 C15 1_555 1_555
H8 C15 1_555 1_555
C16 C10 1_555 1_555
H9 C16 1_555 1_555
H10 C16 1_555 1_555
H11 C16 1_555 1_555
C17 N2 1_555 1_555
C18 C17 1_555 1_555
H12 C18 1_555 1_555
C19 C18 1_555 1_555
H13 C19 1_555 1_555
C20 C19 1_555 1_555
H14 C20 1_555 1_555
C21 C20 1_555 1_555
H15 C21 1_555 1_555
C22 C13 1_555 1_555
C5 C6 1_555 1_555
C11 C12 1_555 1_555
C13 C14 1_555 1_555
C17 C22 1_555 1_555
C21 C22 1_555 1_555

#END
