
#######################################################################
#
#                 Cambridge Crystallographic Data Centre
#                                CCDC 
#
#######################################################################
#
# If this CIF has been generated from an entry in the Cambridge 
# Structural Database, then it will include bibliographic, chemical, 
# crystal, experimental, refinement or atomic coordinate data resulting 
# from the CCDC's data processing and validation procedures.
#
#######################################################################

data_SOWTUU
_chemical_formula_moiety         'C52 H54 Si2'
_chemical_name_systematic        
2,2'-(1,4-Phenylenebis(methylylidene(1-phenyl-2,1-pentanediylidene)))bis(1,1-dimethyl-4-phenyl-1,2-dihydrosilete)
_symmetry_cell_setting           monoclinic
_symmetry_space_group_name_H-M   'P 21/c'
_symmetry_Int_Tables_number      14
_space_group_name_Hall           '-P 2ybc'
loop_
_symmetry_equiv_pos_site_id
_symmetry_equiv_pos_as_xyz
1 x,y,z
2 -x,1/2+y,1/2-z
3 -x,-y,-z
4 x,1/2-y,1/2+z
_cell_length_a                   19.893(4)
_cell_length_b                   13.359(3)
_cell_length_c                   8.8375(18)
_cell_angle_alpha                90
_cell_angle_beta                 97.14(3)
_cell_angle_gamma                90
_cell_volume                     2330.36
_exptl_crystal_description       block
_cell_formula_units_Z            2
loop_
_atom_site_label
_atom_site_type_symbol
_atom_site_fract_x
_atom_site_fract_y
_atom_site_fract_z
Si1 Si 0.14749(3) 0.52771(6) 0.08903(8)
C1 C 0.29942(11) 0.52108(17) 0.0518(3)
C2 C 0.23147(12) 0.45007(18) 0.2524(3)
H1 H 0.2651 0.4194 0.3189
C3 C 0.16454(11) 0.45360(18) 0.2675(3)
C4 C 0.24094(11) 0.50312(18) 0.1130(3)
C5 C 0.29786(12) 0.57137(18) -0.0983(3)
C6 C 0.12810(13) 0.40609(19) 0.3828(3)
C7 C 0.34795(14) 0.6391(2) -0.1266(3)
H2 H 0.3848 0.6504 -0.0529
C8 C 0.24617(13) 0.5525(2) -0.2152(3)
H3 H 0.2134 0.5048 -0.2014
C9 C 0.16037(15) 0.3496(2) 0.5017(3)
H4 H 0.2073 0.3437 0.5130
C10 C 0.34304(18) 0.6897(2) -0.2649(4)
H5 H 0.3761 0.7363 -0.2815
C11 C 0.05864(14) 0.4140(2) 0.3740(3)
H6 H 0.0359 0.4528 0.2966
C12 C 0.2908(2) 0.6726(3) -0.3762(4)
H7 H 0.2880 0.7075 -0.4678
C13 C 0.0532(2) 0.3127(3) 0.5868(5)
H8 H 0.0280 0.2814 0.6549
C14 C 0.02176(18) 0.3678(3) 0.4731(4)
H9 H -0.0251 0.3744 0.4618
C15 C 0.24276(17) 0.6041(3) -0.3529(3)
H10 H 0.2073 0.5915 -0.4294
C16 C 0.09248(12) 0.4644(3) -0.0679(3)
H11 H 0.1113 0.4002 -0.0874
H12 H 0.0898 0.5047 -0.1584
H13 H 0.0479 0.4557 -0.0389
C17 C 0.1236(2) 0.3016(2) 0.6046(4)
H14 H 0.1454 0.2630 0.6835
C18 C 0.12137(15) 0.6594(2) 0.1078(4)
H15 H 0.0749 0.6617 0.1269
H16 H 0.1261 0.6948 0.0151
H17 H 0.1495 0.6902 0.1911
C19 C 0.41102(12) 0.4263(2) 0.0564(3)
H18 H 0.4489 0.4047 0.1288
H19 H 0.4291 0.4635 -0.0236
C20 C 0.44346(11) 0.51413(17) 0.3872(3)
C21 C 0.38213(10) 0.52934(18) 0.2772(3)
H20 H 0.3492 0.5697 0.3119
C22 C 0.36659(10) 0.49444(17) 0.1363(3)
C23 C 0.43635(11) 0.5056(2) 0.5409(3)
H21 H 0.3934 0.5101 0.5715
C24 C 0.49162(12) 0.4907(2) 0.6498(3)
H22 H 0.4846 0.4838 0.7514
C25 C 0.37346(17) 0.3333(3) -0.0139(4)
H23 H 0.3521 0.2985 0.0637
H24 H 0.3383 0.3540 -0.0937
C26 C 0.4215(3) 0.2644(3) -0.0790(6)
H25 H 0.4413 0.2981 -0.1587
H26 H 0.3976 0.2061 -0.1199
H27 H 0.4567 0.2447 -0.0003
Si1B Si 0.85251(3) 0.47229(6) 0.91097(8)
C1B C 0.70058(11) 0.47892(17) 0.9482(3)
C2B C 0.76853(12) 0.54993(18) 0.7476(3)
H1B H 0.7349 0.5806 0.6811
C3B C 0.83546(11) 0.54640(18) 0.7325(3)
C4B C 0.75906(11) 0.49688(18) 0.8870(3)
C5B C 0.70214(12) 0.42863(18) 1.0983(3)
C6B C 0.87190(13) 0.59391(19) 0.6172(3)
C7B C 0.65205(14) 0.3609(2) 1.1266(3)
H2B H 0.6152 0.3496 1.0529
C8B C 0.75383(13) 0.4475(2) 1.2152(3)
H3B H 0.7866 0.4952 1.2014
C9B C 0.83963(15) 0.6504(2) 0.4983(3)
H4B H 0.7927 0.6563 0.4870
C10B C 0.65696(18) 0.3103(2) 1.2649(4)
H5B H 0.6239 0.2637 1.2815
C11B C 0.94136(14) 0.5860(2) 0.6260(3)
H6B H 0.9641 0.5472 0.7034
C12B C 0.7092(2) 0.3274(3) 1.3762(4)
H7B H 0.7120 0.2925 1.4678
C13B C 0.9468(2) 0.6873(3) 0.4132(5)
H8B H 0.9720 0.7186 0.3451
C14B C 0.97824(18) 0.6322(3) 0.5269(4)
H9B H 1.0251 0.6256 0.5382
C15B C 0.75724(17) 0.3959(3) 1.3529(3)
H10B H 0.7927 0.4085 1.4294
C16B C 0.90752(12) 0.5356(3) 1.0679(3)
H11B H 0.8887 0.5998 1.0874
H12B H 0.9102 0.4953 1.1584
H13B H 0.9521 0.5443 1.0389
C17B C 0.8764(2) 0.6984(2) 0.3954(4)
H14B H 0.8546 0.7370 0.3165
C18B C 0.87863(15) 0.3406(2) 0.8922(4)
H15B H 0.9251 0.3383 0.8731
H16B H 0.8739 0.3052 0.9849
H17B H 0.8505 0.3098 0.8089
C19B C 0.58898(12) 0.5737(2) 0.9436(3)
H18B H 0.5511 0.5953 0.8712
H19B H 0.5709 0.5365 1.0236
C20B C 0.55654(11) 0.48587(17) 0.6128(3)
C21B C 0.61787(10) 0.47066(18) 0.7228(3)
H20B H 0.6508 0.4303 0.6881
C22B C 0.63341(10) 0.50556(17) 0.8637(3)
C23B C 0.56365(11) 0.4944(2) 0.4591(3)
H21B H 0.6066 0.4899 0.4285
C24B C 0.50838(12) 0.5093(2) 0.3502(3)
H22B H 0.5154 0.5162 0.2486
C25B C 0.62654(17) 0.6667(3) 1.0139(4)
H23B H 0.6479 0.7015 0.9363
H24B H 0.6617 0.6460 1.0937
C26B C 0.5785(3) 0.7356(3) 1.0790(6)
H25B H 0.5587 0.7019 1.1587
H26B H 0.6024 0.7939 1.1199
H27B H 0.5433 0.7553 1.0003
loop_
_geom_bond_atom_site_label_1
_geom_bond_atom_site_label_2
_geom_bond_site_symmetry_1
_geom_bond_site_symmetry_2
Si1 C3 1_555 1_555
C1 C4 1_555 1_555
C2 H1 1_555 1_555
C3 C2 1_555 1_555
C4 Si1 1_555 1_555
C5 C1 1_555 1_555
C6 C3 1_555 1_555
C7 C5 1_555 1_555
H2 C7 1_555 1_555
C8 C5 1_555 1_555
H3 C8 1_555 1_555
C9 C6 1_555 1_555
H4 C9 1_555 1_555
C10 C7 1_555 1_555
H5 C10 1_555 1_555
C11 C6 1_555 1_555
H6 C11 1_555 1_555
C12 C10 1_555 1_555
H7 C12 1_555 1_555
C13 H8 1_555 1_555
C14 C11 1_555 1_555
H9 C14 1_555 1_555
C15 C8 1_555 1_555
H10 C15 1_555 1_555
C16 Si1 1_555 1_555
H11 C16 1_555 1_555
H12 C16 1_555 1_555
H13 C16 1_555 1_555
C17 C9 1_555 1_555
H14 C17 1_555 1_555
C18 Si1 1_555 1_555
H15 C18 1_555 1_555
H16 C18 1_555 1_555
H17 C18 1_555 1_555
C19 H18 1_555 1_555
H19 C19 1_555 1_555
C20 C21 1_555 1_555
C21 H20 1_555 1_555
C22 C1 1_555 1_555
C23 C20 1_555 1_555
H21 C23 1_555 1_555
C24 C23 1_555 1_555
H22 C24 1_555 1_555
C25 C19 1_555 1_555
H23 C25 1_555 1_555
H24 C25 1_555 1_555
C26 C25 1_555 1_555
H25 C26 1_555 1_555
H26 C26 1_555 1_555
H27 C26 1_555 1_555
Si1B C3B 1_555 1_555
C1B C4B 1_555 1_555
C2B H1B 1_555 1_555
C3B C2B 1_555 1_555
C4B Si1B 1_555 1_555
C5B C1B 1_555 1_555
C6B C3B 1_555 1_555
C7B C5B 1_555 1_555
H2B C7B 1_555 1_555
C8B C5B 1_555 1_555
H3B C8B 1_555 1_555
C9B C6B 1_555 1_555
H4B C9B 1_555 1_555
C10B C7B 1_555 1_555
H5B C10B 1_555 1_555
C11B C6B 1_555 1_555
H6B C11B 1_555 1_555
C12B C10B 1_555 1_555
H7B C12B 1_555 1_555
C13B H8B 1_555 1_555
C14B C11B 1_555 1_555
H9B C14B 1_555 1_555
C15B C8B 1_555 1_555
H10B C15B 1_555 1_555
C16B Si1B 1_555 1_555
H11B C16B 1_555 1_555
H12B C16B 1_555 1_555
H13B C16B 1_555 1_555
C17B C9B 1_555 1_555
H14B C17B 1_555 1_555
C18B Si1B 1_555 1_555
H15B C18B 1_555 1_555
H16B C18B 1_555 1_555
H17B C18B 1_555 1_555
C19B H18B 1_555 1_555
H19B C19B 1_555 1_555
C20B C24 1_555 1_555
C21B C20B 1_555 1_555
H20B C21B 1_555 1_555
C22B C1B 1_555 1_555
C23B C20B 1_555 1_555
H21B C23B 1_555 1_555
C24B C20 1_555 1_555
H22B C24B 1_555 1_555
C25B C19B 1_555 1_555
H23B C25B 1_555 1_555
H24B C25B 1_555 1_555
C26B C25B 1_555 1_555
H25B C26B 1_555 1_555
H26B C26B 1_555 1_555
H27B C26B 1_555 1_555
C2 C4 1_555 1_555
C12 C15 1_555 1_555
C13 C14 1_555 1_555
C13 C17 1_555 1_555
C19 C22 1_555 1_555
C21 C22 1_555 1_555
C2B C4B 1_555 1_555
C12B C15B 1_555 1_555
C13B C14B 1_555 1_555
C13B C17B 1_555 1_555
C19B C22B 1_555 1_555
C21B C22B 1_555 1_555
C23B C24B 1_555 1_555

#END
