
#######################################################################
#
#                 Cambridge Crystallographic Data Centre
#                                CCDC 
#
#######################################################################
#
# If this CIF has been generated from an entry in the Cambridge 
# Structural Database, then it will include bibliographic, chemical, 
# crystal, experimental, refinement or atomic coordinate data resulting 
# from the CCDC's data processing and validation procedures.
#
#######################################################################

data_SOXGOC
_chemical_formula_moiety         'C20 H39 N2 1+,Br1 1-,H2 O1'
_chemical_name_systematic        
'1-Hexadecyl-3-methylimidazolium bromide monohydrate'
_symmetry_cell_setting           triclinic
_symmetry_space_group_name_H-M   'P -1'
_symmetry_Int_Tables_number      2
_space_group_name_Hall           '-P 1'
loop_
_symmetry_equiv_pos_site_id
_symmetry_equiv_pos_as_xyz
1 x,y,z
2 -x,-y,-z
_cell_length_a                   5.4989(5)
_cell_length_b                   7.8507(9)
_cell_length_c                   27.330(3)
_cell_angle_alpha                94.0800(10)
_cell_angle_beta                 91.4920(10)
_cell_angle_gamma                101.929(2)
_cell_volume                     1150.43
_exptl_crystal_colour            colorless
_exptl_crystal_description       block
_chemical_melting_point          '339.15 K'
_cell_formula_units_Z            2
_exptl_crystal_recrystallization_method 'ethyl acetate'
loop_
_atom_site_label
_atom_site_type_symbol
_atom_site_fract_x
_atom_site_fract_y
_atom_site_fract_z
Br1 Br 0.32508(9) 0.81313(7) 0.096948(19)
N1 N 1.3915(6) 0.5675(4) 0.88874(12)
N2 N 1.5673(6) 0.7181(4) 0.95356(12)
C1 C 1.5917(8) 0.6802(5) 0.90640(15)
H3 H 1.7283 0.7257 0.8885
C2 C 1.3422(8) 0.6274(6) 0.96668(16)
H4 H 1.2767 0.6312 0.9977
C3 C 1.2336(8) 0.5322(6) 0.92639(16)
H5 H 1.0793 0.4559 0.9243
C4 C 1.3519(8) 0.4847(6) 0.83835(15)
H6 H 1.3488 0.3610 0.8393
H7 H 1.4916 0.5341 0.8192
C5 C 1.1161(8) 0.5065(6) 0.81304(15)
H8 H 1.1131 0.6297 0.8136
H9 H 0.9746 0.4494 0.8305
C6 C 1.0949(8) 0.4291(6) 0.76032(15)
H10 H 1.2377 0.4870 0.7433
H11 H 1.1024 0.3067 0.7603
C7 C 0.8610(8) 0.4429(6) 0.73170(15)
H12 H 0.7178 0.3823 0.7481
H13 H 0.8511 0.5649 0.7322
C8 C 0.8469(8) 0.3686(6) 0.67886(15)
H14 H 0.8570 0.2466 0.6785
H15 H 0.9910 0.4289 0.6627
C9 C 0.6135(8) 0.3815(6) 0.64922(15)
H16 H 0.4691 0.3214 0.6654
H17 H 0.6036 0.5035 0.6494
C10 C 0.6022(8) 0.3061(6) 0.59670(16)
H18 H 0.6118 0.1841 0.5966
H19 H 0.7471 0.3659 0.5806
C11 C 0.3715(8) 0.3186(6) 0.56681(15)
H20 H 0.2265 0.2589 0.5829
H21 H 0.3619 0.4406 0.5669
C12 C 0.3604(8) 0.2429(6) 0.51412(16)
H22 H 0.3699 0.1209 0.5141
H23 H 0.5054 0.3026 0.4981
C13 C 0.1286(8) 0.2556(6) 0.48404(16)
H24 H -0.0166 0.1959 0.5000
H25 H 0.1191 0.3776 0.4840
C14 C 0.1186(8) 0.1793(6) 0.43125(16)
H26 H 0.1273 0.0572 0.4313
H27 H 0.2642 0.2386 0.4153
C15 C -0.1115(8) 0.1925(6) 0.40110(16)
H28 H -0.2571 0.1335 0.4171
H29 H -0.1200 0.3147 0.4010
C16 C -0.1225(8) 0.1161(6) 0.34835(16)
H30 H -0.1132 -0.0059 0.3484
H31 H 0.0227 0.1755 0.3323
C17 C -0.3534(8) 0.1286(6) 0.31826(16)
H32 H -0.4985 0.0690 0.3343
H33 H -0.3629 0.2506 0.3183
C18 C -0.3646(10) 0.0529(7) 0.26567(17)
H34 H -0.2186 0.1114 0.2497
H35 H -0.3577 -0.0696 0.2656
C19 C -0.5916(11) 0.0679(8) 0.2361(2)
H36 H -0.7376 0.0081 0.2511
H37 H -0.5849 0.0164 0.2034
H38 H -0.5978 0.1888 0.2349
C20 C 1.7530(9) 0.8399(6) 0.98616(18)
H39 H 1.9172 0.8351 0.9759
H40 H 1.7361 0.8074 1.0193
H41 H 1.7266 0.9565 0.9845
O1 O 0.9084(8) 0.0620(5) 0.1247(2)
H1 H 0.7635 0.0007 0.1179
H2 H 1.0139 -0.0004 0.1178
loop_
_geom_bond_atom_site_label_1
_geom_bond_atom_site_label_2
_geom_bond_site_symmetry_1
_geom_bond_site_symmetry_2
N1 C1 1_555 1_555
N2 C1 1_555 1_555
O1 H1 1_555 1_555
H2 O1 1_555 1_555
C1 H3 1_555 1_555
C2 N2 1_555 1_555
H4 C2 1_555 1_555
C3 N1 1_555 1_555
H5 C3 1_555 1_555
C4 N1 1_555 1_555
H6 C4 1_555 1_555
H7 C4 1_555 1_555
C5 C4 1_555 1_555
H8 C5 1_555 1_555
H9 C5 1_555 1_555
C6 C5 1_555 1_555
H10 C6 1_555 1_555
H11 C6 1_555 1_555
C7 C6 1_555 1_555
H12 C7 1_555 1_555
H13 C7 1_555 1_555
C8 C7 1_555 1_555
H14 C8 1_555 1_555
H15 C8 1_555 1_555
C9 C8 1_555 1_555
H16 C9 1_555 1_555
H17 C9 1_555 1_555
C10 C9 1_555 1_555
H18 C10 1_555 1_555
H19 C10 1_555 1_555
C11 C10 1_555 1_555
H20 C11 1_555 1_555
H21 C11 1_555 1_555
C12 C11 1_555 1_555
H22 C12 1_555 1_555
H23 C12 1_555 1_555
C13 C12 1_555 1_555
H24 C13 1_555 1_555
H25 C13 1_555 1_555
C14 C13 1_555 1_555
H26 C14 1_555 1_555
H27 C14 1_555 1_555
C15 C14 1_555 1_555
H28 C15 1_555 1_555
H29 C15 1_555 1_555
C16 C15 1_555 1_555
H30 C16 1_555 1_555
H31 C16 1_555 1_555
C17 C16 1_555 1_555
H32 C17 1_555 1_555
H33 C17 1_555 1_555
C18 C17 1_555 1_555
H34 C18 1_555 1_555
H35 C18 1_555 1_555
C19 C18 1_555 1_555
H36 C19 1_555 1_555
H37 C19 1_555 1_555
H38 C19 1_555 1_555
C20 N2 1_555 1_555
H39 C20 1_555 1_555
H40 C20 1_555 1_555
H41 C20 1_555 1_555
C2 C3 1_555 1_555

#END
