
#######################################################################
#
#                 Cambridge Crystallographic Data Centre
#                                CCDC 
#
#######################################################################
#
# If this CIF has been generated from an entry in the Cambridge 
# Structural Database, then it will include bibliographic, chemical, 
# crystal, experimental, refinement or atomic coordinate data resulting 
# from the CCDC's data processing and validation procedures.
#
#######################################################################

data_SOXHAP
_chemical_formula_moiety         'C16 H16 N2 O1'
_chemical_name_systematic        
(E)-3-[4-(Dimethylamino)phenyl]-1-(2-pyridyl)prop-2-en-1-one
_symmetry_cell_setting           monoclinic
_symmetry_space_group_name_H-M   'P 21/c'
_symmetry_Int_Tables_number      14
_space_group_name_Hall           '-P 2ybc'
loop_
_symmetry_equiv_pos_site_id
_symmetry_equiv_pos_as_xyz
1 x,y,z
2 -x,1/2+y,1/2-z
3 -x,-y,-z
4 x,1/2-y,1/2+z
_cell_length_a                   8.1553(4)
_cell_length_b                   17.4543(12)
_cell_length_c                   12.1087(5)
_cell_angle_alpha                90
_cell_angle_beta                 125.032(5)
_cell_angle_gamma                90
_cell_volume                     1411.35
_exptl_crystal_colour            red
_exptl_crystal_description       block
_cell_formula_units_Z            4
_exptl_crystal_recrystallization_method acetone/toluene
loop_
_atom_site_label
_atom_site_type_symbol
_atom_site_fract_x
_atom_site_fract_y
_atom_site_fract_z
O1 O 0.3917(2) 0.59831(8) -0.12014(13)
N1 N 0.1005(2) 0.75477(9) -0.13939(15)
N2 N 0.7635(3) 0.56873(11) 0.70210(17)
C1 C -0.0344(3) 0.80574(12) -0.2313(2)
H1 H -0.0832 0.8425 -0.2015
C2 C -0.1059(3) 0.80743(13) -0.3672(2)
H2 H -0.1993 0.8438 -0.4256
C3 C -0.0344(3) 0.75393(13) -0.41174(19)
H3 H -0.0778 0.7532 -0.5015
C4 C 0.1047(3) 0.70057(11) -0.32047(18)
H4 H 0.1552 0.6637 -0.3489
C5 C 0.1685(2) 0.70242(9) -0.18518(17)
C6 C 0.3188(3) 0.64457(10) -0.08317(17)
C7 C 0.3733(3) 0.64595(10) 0.05562(17)
H5 H 0.3199 0.6844 0.0793
C8 C 0.4975(3) 0.59389(9) 0.15074(17)
H6 H 0.5468 0.5563 0.1227
C9 C 0.5646(2) 0.58887(9) 0.29150(16)
C10 C 0.4985(3) 0.63890(10) 0.34847(18)
H7 H 0.4098 0.6779 0.2955
C11 C 0.5612(3) 0.63226(11) 0.48151(19)
H8 H 0.5121 0.6666 0.5146
C12 C 0.6978(3) 0.57483(11) 0.56871(18)
C13 C 0.7654(3) 0.52452(11) 0.51256(18)
H9 H 0.8554 0.4859 0.5656
C14 C 0.6996(3) 0.53165(10) 0.37868(18)
H10 H 0.7470 0.4970 0.3449
C15 C 0.9044(4) 0.50919(15) 0.7917(2)
H11 H 1.0236 0.5121 0.7937
H12 H 0.8437 0.4597 0.7591
H13 H 0.9381 0.5167 0.8811
C16 C 0.6813(4) 0.61785(15) 0.7560(2)
H14 H 0.5384 0.6120 0.7031
H15 H 0.7140 0.6703 0.7528
H16 H 0.7371 0.6037 0.8478
loop_
_geom_bond_atom_site_label_1
_geom_bond_atom_site_label_2
_geom_bond_site_symmetry_1
_geom_bond_site_symmetry_2
O1 C6 1_555 1_555
N1 C1 1_555 1_555
N2 C12 1_555 1_555
C1 H1 1_555 1_555
C2 C1 1_555 1_555
H2 C2 1_555 1_555
C3 C2 1_555 1_555
H3 C3 1_555 1_555
C4 C3 1_555 1_555
H4 C4 1_555 1_555
C5 N1 1_555 1_555
C6 C5 1_555 1_555
C7 C6 1_555 1_555
H5 C7 1_555 1_555
C8 C7 1_555 1_555
H6 C8 1_555 1_555
C9 C8 1_555 1_555
C10 C9 1_555 1_555
H7 C10 1_555 1_555
C11 C10 1_555 1_555
H8 C11 1_555 1_555
C12 C11 1_555 1_555
C13 C12 1_555 1_555
H9 C13 1_555 1_555
C14 C9 1_555 1_555
H10 C14 1_555 1_555
C15 N2 1_555 1_555
H11 C15 1_555 1_555
H12 C15 1_555 1_555
H13 C15 1_555 1_555
C16 N2 1_555 1_555
H14 C16 1_555 1_555
H15 C16 1_555 1_555
H16 C16 1_555 1_555
C4 C5 1_555 1_555
C13 C14 1_555 1_555

#END
