
#######################################################################
#
#                 Cambridge Crystallographic Data Centre
#                                CCDC 
#
#######################################################################
#
# If this CIF has been generated from an entry in the Cambridge 
# Structural Database, then it will include bibliographic, chemical, 
# crystal, experimental, refinement or atomic coordinate data resulting 
# from the CCDC's data processing and validation procedures.
#
#######################################################################

data_SOXNEA
_chemical_formula_moiety         'C8 H5 N3 O3'
_chemical_name_systematic        2-Diazo-1-(3-nitrophenyl)ethanone
_symmetry_cell_setting           monoclinic
_symmetry_space_group_name_H-M   'C 2/c'
_symmetry_Int_Tables_number      15
_space_group_name_Hall           '-C 2yn'
loop_
_symmetry_equiv_pos_site_id
_symmetry_equiv_pos_as_xyz
1 x,y,z
2 -x,y,1/2-z
3 1/2+x,1/2+y,z
4 1/2-x,1/2+y,1/2-z
5 -x,-y,-z
6 x,-y,1/2+z
7 1/2-x,1/2-y,-z
8 1/2+x,1/2-y,1/2+z
_cell_length_a                   13.209(4)
_cell_length_b                   12.046(3)
_cell_length_c                   10.889(3)
_cell_angle_alpha                90
_cell_angle_beta                 104.353(4)
_cell_angle_gamma                90
_cell_volume                     1678.53
_cell_formula_units_Z            8
loop_
_atom_site_label
_atom_site_type_symbol
_atom_site_fract_x
_atom_site_fract_y
_atom_site_fract_z
O1 O 0.13280(12) -0.00304(10) 0.69653(12)
C1 C 0.12194(12) 0.22194(12) 0.64375(15)
H1 H 0.1257 0.1994 0.7265
N1 N 0.14696(12) -0.15918(11) 0.53269(13)
C2 C 0.13147(13) 0.02468(12) 0.58774(14)
C3 C 0.11511(13) 0.18029(13) 0.42627(14)
H2 H 0.1144 0.1286 0.3626
C4 C 0.11610(12) 0.33279(12) 0.61250(15)
O2 O 0.12057(12) 0.38054(11) 0.82004(13)
C5 C 0.13897(14) -0.05511(12) 0.49367(16)
H3 H 0.1383 -0.0353 0.4109
C6 C 0.12217(12) 0.14428(12) 0.54962(13)
O3 O 0.11161(14) 0.51187(12) 0.68375(17)
N2 N 0.15308(15) -0.24479(12) 0.57155(19)
C7 C 0.11028(14) 0.37001(13) 0.49099(17)
H4 H 0.1072 0.4455 0.4725
C8 C 0.10911(14) 0.29193(14) 0.39770(16)
H5 H 0.1042 0.3149 0.3149
N3 N 0.11659(11) 0.41378(12) 0.71269(16)
loop_
_geom_bond_atom_site_label_1
_geom_bond_atom_site_label_2
_geom_bond_site_symmetry_1
_geom_bond_site_symmetry_2
O1 C2 1_555 1_555
C1 H1 1_555 1_555
N1 C5 1_555 1_555
C2 C5 1_555 1_555
C3 H2 1_555 1_555
C4 C1 1_555 1_555
O2 N3 1_555 1_555
C5 H3 1_555 1_555
C6 C1 1_555 1_555
O3 N3 1_555 1_555
N2 N1 1_555 1_555
C7 C4 1_555 1_555
H4 C7 1_555 1_555
C8 C3 1_555 1_555
H5 C8 1_555 1_555
N3 C4 1_555 1_555
C2 C6 1_555 1_555
C3 C6 1_555 1_555
C7 C8 1_555 1_555

#END
