
#######################################################################
#
#                 Cambridge Crystallographic Data Centre
#                                CCDC 
#
#######################################################################
#
# If this CIF has been generated from an entry in the Cambridge 
# Structural Database, then it will include bibliographic, chemical, 
# crystal, experimental, refinement or atomic coordinate data resulting 
# from the CCDC's data processing and validation procedures.
#
#######################################################################

data_SOXPEC01
_chemical_formula_moiety         'C17 H20 N4 O2,H2 O1'
_chemical_name_systematic        
"N'-(4-(diethylamino)-2-hydroxybenzylidene)isonicotinohydrazide monohydrate"
_symmetry_cell_setting           triclinic
_symmetry_space_group_name_H-M   'P -1'
_symmetry_Int_Tables_number      2
_space_group_name_Hall           '-P 1'
loop_
_symmetry_equiv_pos_site_id
_symmetry_equiv_pos_as_xyz
1 x,y,z
2 -x,-y,-z
_cell_length_a                   7.1776(19)
_cell_length_b                   9.8366(15)
_cell_length_c                   13.673(6)
_cell_angle_alpha                94.51(2)
_cell_angle_beta                 105.05(3)
_cell_angle_gamma                104.130(18)
_cell_volume                     893.583
_exptl_crystal_colour            'light yellow'
_exptl_crystal_description       block
_cell_formula_units_Z            2
loop_
_atom_site_label
_atom_site_type_symbol
_atom_site_fract_x
_atom_site_fract_y
_atom_site_fract_z
O1 O -0.1102(3) 0.53039(16) 0.87397(14)
O2 O -0.1051(3) 0.17258(16) 0.70433(15)
H1 H -0.0707 0.2533 0.7358
N1 N 0.2601(3) 1.0319(2) 1.0291(2)
N2 N 0.1991(3) 0.54941(19) 0.85614(15)
H2 H 0.3203 0.6017 0.8692
N3 N 0.1447(3) 0.41355(19) 0.80282(15)
N4 N 0.1620(4) -0.1819(2) 0.5858(2)
C1 C 0.2145(4) 0.8574(2) 0.8875(2)
H3 H 0.2271 0.8374 0.8223
C2 C 0.2701(4) 0.9952(3) 0.9363(2)
H4 H 0.3178 1.0671 0.9013
C3 C 0.1918(4) 0.9277(3) 1.0781(2)
H5 H 0.1865 0.9502 1.1445
C4 C 0.1283(4) 0.7860(2) 1.0330(2)
H6 H 0.0777 0.7156 1.0683
C5 C 0.1405(4) 0.7508(2) 0.9368(2)
C6 C 0.0632(5) 0.5997(2) 0.8875(2)
C7 C 0.2883(4) 0.3675(2) 0.78634(19)
H7 H 0.4191 0.4258 0.8104
C8 C 0.2520(4) 0.2290(2) 0.73197(18)
C9 C 0.0600(4) 0.1346(3) 0.69438(18)
C10 C 0.0299(4) 0.0008(2) 0.64581(18)
H8 H -0.0997 -0.0593 0.6219
C11 C 0.1894(5) -0.0471(3) 0.6315(2)
C12 C 0.3841(4) 0.0459(3) 0.6694(2)
H9 H 0.4942 0.0166 0.6622
C13 C 0.4100(4) 0.1795(3) 0.7168(2)
H10 H 0.5392 0.2403 0.7401
C14 C -0.0386(5) -0.2793(3) 0.5378(3)
H11 H -0.0345 -0.3405 0.4797
H12 H -0.1321 -0.2248 0.5126
C15 C -0.1106(5) -0.3672(3) 0.6101(3)
H13 H -0.2393 -0.4319 0.5752
H14 H -0.1226 -0.3073 0.6657
H15 H -0.0170 -0.4198 0.6364
C16 C 0.3170(18) -0.2256(12) 0.5558(10)
H16 H 0.4057 -0.1461 0.5382
H17 H 0.2597 -0.2994 0.4966
C17 C 0.4378(14) -0.2838(9) 0.6508(7)
H18 H 0.5459 -0.3123 0.6339
H19 H 0.3492 -0.3638 0.6664
H20 H 0.4912 -0.2104 0.7092
O3 O 0.6043(4) 0.6796(3) 0.9001(3)
H26 H 0.688(5) 0.643(3) 0.894(3)
H27 H 0.641(5) 0.763(4) 0.917(3)
C18? C 0.344(2) -0.2540(12) 0.6038(8)
H21? H 0.4486 -0.2097 0.6668
H22? H 0.2982 -0.3549 0.6051
C19? C 0.4108(14) -0.2275(10) 0.5177(7)
H23? H 0.2989 -0.2586 0.4569
H24? H 0.5081 -0.2781 0.5142
H25? H 0.4708 -0.1277 0.5229
loop_
_geom_bond_atom_site_label_1
_geom_bond_atom_site_label_2
_geom_bond_site_symmetry_1
_geom_bond_site_symmetry_2
O1 C6 1_555 1_555
O2 H1 1_555 1_555
N1 C2 1_555 1_555
N2 H2 1_555 1_555
N3 N2 1_555 1_555
N4 C11 1_555 1_555
C1 H3 1_555 1_555
C2 C1 1_555 1_555
H4 C2 1_555 1_555
C3 N1 1_555 1_555
H5 C3 1_555 1_555
C4 C3 1_555 1_555
H6 C4 1_555 1_555
C5 C1 1_555 1_555
C6 N2 1_555 1_555
C7 N3 1_555 1_555
H7 C7 1_555 1_555
C8 C7 1_555 1_555
C9 O2 1_555 1_555
C10 C9 1_555 1_555
H8 C10 1_555 1_555
C11 C10 1_555 1_555
C12 C11 1_555 1_555
H9 C12 1_555 1_555
C13 C8 1_555 1_555
H10 C13 1_555 1_555
C14 N4 1_555 1_555
H11 C14 1_555 1_555
H12 C14 1_555 1_555
C15 C14 1_555 1_555
H13 C15 1_555 1_555
H14 C15 1_555 1_555
H15 C15 1_555 1_555
C16 N4 1_555 1_555
H16 C16 1_555 1_555
H17 C16 1_555 1_555
C17 C16 1_555 1_555
H18 C17 1_555 1_555
H19 C17 1_555 1_555
H20 C17 1_555 1_555
O3 H26 1_555 1_555
H27 O3 1_555 1_555
C4 C5 1_555 1_555
C5 C6 1_555 1_555
C8 C9 1_555 1_555
C12 C13 1_555 1_555

#END
