
#######################################################################
#
#                 Cambridge Crystallographic Data Centre
#                                CCDC 
#
#######################################################################
#
# If this CIF has been generated from an entry in the Cambridge 
# Structural Database, then it will include bibliographic, chemical, 
# crystal, experimental, refinement or atomic coordinate data resulting 
# from the CCDC's data processing and validation procedures.
#
#######################################################################

data_SOYDIV
_chemical_formula_moiety         'C8 H4 N16 O18'
_chemical_name_systematic        
4,4'-Diazene-1,2-diylbis(N-nitro-N-(2,2,2-trinitroethyl)-1,2,5-oxadiazol-3-amine)
_symmetry_cell_setting           monoclinic
_symmetry_space_group_name_H-M   'P 21/n'
_symmetry_Int_Tables_number      14
_space_group_name_Hall           '-P 2yn'
loop_
_symmetry_equiv_pos_site_id
_symmetry_equiv_pos_as_xyz
1 x,y,z
2 1/2-x,1/2+y,1/2-z
3 -x,-y,-z
4 1/2+x,1/2-y,1/2+z
_cell_length_a                   7.6324(7)
_cell_length_b                   9.7348(10)
_cell_length_c                   14.8237(13)
_cell_angle_alpha                90
_cell_angle_beta                 98.562(3)
_cell_angle_gamma                90
_cell_volume                     1089.12
_cell_formula_units_Z            2
loop_
_atom_site_label
_atom_site_type_symbol
_atom_site_fract_x
_atom_site_fract_y
_atom_site_fract_z
C1 C 0.5328(3) 0.6758(2) 0.49412(15)
C2 C 0.4680(3) 0.7356(2) 0.40776(14)
C3 C 0.4216(3) 0.7149(2) 0.23860(14)
H1 H 0.4775 0.8069 0.2431
H2 H 0.3099 0.7213 0.1953
C4 C 0.5459(3) 0.6124(2) 0.20193(14)
N1 N 0.6163(3) 0.7704(2) 0.54613(13)
N2 N 0.5133(3) 0.8643(2) 0.40806(12)
N3 N 0.5293(2) 0.54325(19) 0.53022(12)
N4 N 0.3817(2) 0.67440(18) 0.32779(11)
N5 N 0.2095(2) 0.62181(19) 0.33304(13)
N6 N 0.4527(3) 0.4797(2) 0.16726(15)
N7 N 0.6213(3) 0.6764(2) 0.12227(14)
N8 N 0.7038(2) 0.5717(2) 0.27194(14)
O1 O 0.6091(2) 0.88683(17) 0.49388(11)
O2 O 0.1238(2) 0.58446(16) 0.26127(11)
O3 O 0.1682(2) 0.61749(17) 0.40860(11)
O4 O 0.3946(2) 0.41210(16) 0.22487(13)
O5 O 0.4416(3) 0.45418(19) 0.08740(13)
O6 O 0.5233(2) 0.75473(19) 0.07553(11)
O7 O 0.7699(3) 0.6448(2) 0.11251(13)
O8 O 0.7654(2) 0.66476(18) 0.32126(11)
O9 O 0.7544(2) 0.45403(17) 0.27183(13)
C1B C 0.4672(3) 0.3242(2) 0.50588(15)
C2B C 0.5320(3) 0.2644(2) 0.59224(14)
C3B C 0.5784(3) 0.2851(2) 0.76140(14)
H1B H 0.5225 0.1931 0.7569
H2B H 0.6901 0.2787 0.8047
C4B C 0.4541(3) 0.3876(2) 0.79807(14)
N1B N 0.3837(3) 0.2296(2) 0.45387(13)
N2B N 0.4867(3) 0.1357(2) 0.59194(12)
N3B N 0.4707(2) 0.45675(19) 0.46978(12)
N4B N 0.6183(2) 0.32560(18) 0.67221(11)
N5B N 0.7905(2) 0.37819(19) 0.66696(13)
N6B N 0.5473(3) 0.5203(2) 0.83274(15)
N7B N 0.3787(3) 0.3236(2) 0.87773(14)
N8B N 0.2962(2) 0.4283(2) 0.72806(14)
O1B O 0.3909(2) 0.11317(17) 0.50612(11)
O2B O 0.8762(2) 0.41554(16) 0.73873(11)
O3B O 0.8318(2) 0.38251(17) 0.59140(11)
O4B O 0.6054(2) 0.58790(16) 0.77513(13)
O5B O 0.5584(3) 0.54582(19) 0.91260(13)
O6B O 0.4767(2) 0.24527(19) 0.92447(11)
O7B O 0.2301(3) 0.3552(2) 0.88749(13)
O8B O 0.2346(2) 0.33524(18) 0.67874(11)
O9B O 0.2456(2) 0.54597(17) 0.72817(13)
loop_
_geom_bond_atom_site_label_1
_geom_bond_atom_site_label_2
_geom_bond_site_symmetry_1
_geom_bond_site_symmetry_2
C1 C2 1_555 1_555
C2 N2 1_555 1_555
C3 H1 1_555 1_555
H2 C3 1_555 1_555
C4 C3 1_555 1_555
N1 C1 1_555 1_555
N2 O1 1_555 1_555
N3 C1 1_555 1_555
N4 C2 1_555 1_555
N5 N4 1_555 1_555
N6 C4 1_555 1_555
N7 C4 1_555 1_555
N8 C4 1_555 1_555
O1 N1 1_555 1_555
O2 N5 1_555 1_555
O3 N5 1_555 1_555
O4 N6 1_555 1_555
O5 N6 1_555 1_555
O6 N7 1_555 1_555
O7 N7 1_555 1_555
O8 N8 1_555 1_555
O9 N8 1_555 1_555
C1B C2B 1_555 1_555
C2B N2B 1_555 1_555
C3B H1B 1_555 1_555
H2B C3B 1_555 1_555
C4B C3B 1_555 1_555
N1B C1B 1_555 1_555
N2B O1B 1_555 1_555
N3B N3 1_555 1_555
N4B C2B 1_555 1_555
N5B N4B 1_555 1_555
N6B C4B 1_555 1_555
N7B C4B 1_555 1_555
N8B C4B 1_555 1_555
O1B N1B 1_555 1_555
O2B N5B 1_555 1_555
O3B N5B 1_555 1_555
O4B N6B 1_555 1_555
O5B N6B 1_555 1_555
O6B N7B 1_555 1_555
O7B N7B 1_555 1_555
O8B N8B 1_555 1_555
O9B N8B 1_555 1_555
C3 N4 1_555 1_555
C1B N3B 1_555 1_555
C3B N4B 1_555 1_555

#END
