
#######################################################################
#
#                 Cambridge Crystallographic Data Centre
#                                CCDC 
#
#######################################################################
#
# If this CIF has been generated from an entry in the Cambridge 
# Structural Database, then it will include bibliographic, chemical, 
# crystal, experimental, refinement or atomic coordinate data resulting 
# from the CCDC's data processing and validation procedures.
#
#######################################################################

data_SOYGOD
_chemical_formula_moiety         'C28 H18 O4,2(C3 H7 N1 O1)'
_chemical_name_systematic        
"4,4'-(Anthracene-9,10-diyl)dibenzoic acid dimethylformamide solvate"
_symmetry_cell_setting           triclinic
_symmetry_space_group_name_H-M   'P -1'
_symmetry_Int_Tables_number      2
_space_group_name_Hall           '-P 1'
loop_
_symmetry_equiv_pos_site_id
_symmetry_equiv_pos_as_xyz
1 x,y,z
2 -x,-y,-z
_cell_length_a                   7.3692(15)
_cell_length_b                   8.9981(18)
_cell_length_c                   12.124(2)
_cell_angle_alpha                71.157(3)
_cell_angle_beta                 77.640(3)
_cell_angle_gamma                79.754(3)
_cell_volume                     738.049
_exptl_crystal_colour            colorless
_exptl_crystal_description       block
_cell_formula_units_Z            1
_exptl_crystal_recrystallization_method dimethylformamide
loop_
_atom_site_label
_atom_site_type_symbol
_atom_site_fract_x
_atom_site_fract_y
_atom_site_fract_z
C1 C 0.5707(5) 0.2790(4) 0.4860(3)
H1 H 0.4771 0.2595 0.4536
O1 O 0.5840(5) 0.2039(5) 0.5938(4)
N1 N 0.6843(3) 0.3826(3) 0.41928(19)
C2 C 0.6620(5) 0.4705(4) 0.2994(3)
H2 H 0.5498 0.4476 0.2831
H3 H 0.7677 0.4407 0.2459
H4 H 0.6535 0.5816 0.2895
C3 C 0.8377(4) 0.4104(5) 0.4627(3)
H5 H 0.8375 0.3450 0.5429
H6 H 0.8249 0.5196 0.4598
H7 H 0.9532 0.3852 0.4146
O2 O -0.1924(3) -0.0937(3) 0.42504(19)
O3 O -0.3377(3) -0.0181(3) 0.2730(2)
H8 H -0.4140 -0.0728 0.3213
C4 C -0.0616(3) 0.0915(3) 0.2520(2)
C5 C -0.0651(4) 0.1757(3) 0.1348(2)
H9 H -0.1589 0.1662 0.0978
C6 C 0.0713(4) 0.2746(3) 0.0719(2)
H10 H 0.0669 0.3313 -0.0068
C7 C 0.2133(3) 0.2901(3) 0.1243(2)
C8 C 0.2169(3) 0.2037(3) 0.2414(2)
H11 H 0.3117 0.2117 0.2783
C9 C 0.0805(3) 0.1053(3) 0.3045(2)
H12 H 0.0852 0.0480 0.3831
C10 C -0.2053(4) -0.0146(3) 0.3219(3)
C11 C 0.6573(4) 0.1754(3) -0.1369(2)
H13 H 0.6611 0.0821 -0.1552
C12 C 0.5159(4) 0.2148(3) -0.0568(2)
H14 H 0.4239 0.1477 -0.0204
C13 C 0.5040(3) 0.3575(3) -0.02629(19)
C14 C 0.3592(3) 0.3985(3) 0.05850(19)
C15 C 0.3533(3) 0.5398(3) 0.08512(19)
C16 C 0.2061(3) 0.5896(3) 0.1681(2)
H15 H 0.1110 0.5259 0.2059
C17 C 0.2008(4) 0.7263(3) 0.1932(2)
H16 H 0.1031 0.7554 0.2478
O2A O 1.1924(3) 1.0937(3) -0.42504(19)
O3A O 1.3377(3) 1.0181(3) -0.2730(2)
H8A H 1.4140 1.0728 -0.3213
C4A C 1.0616(3) 0.9085(3) -0.2520(2)
C5A C 1.0651(4) 0.8243(3) -0.1348(2)
H9A H 1.1589 0.8338 -0.0978
C6A C 0.9287(4) 0.7254(3) -0.0719(2)
H10A H 0.9331 0.6687 0.0068
C7A C 0.7867(3) 0.7099(3) -0.1243(2)
C8A C 0.7831(3) 0.7963(3) -0.2414(2)
H11A H 0.6883 0.7883 -0.2783
C9A C 0.9195(3) 0.8947(3) -0.3045(2)
H12A H 0.9148 0.9520 -0.3831
C10A C 1.2053(4) 1.0146(3) -0.3219(3)
C11A C 0.3427(4) 0.8246(3) 0.1369(2)
H13A H 0.3389 0.9179 0.1552
C12A C 0.4841(4) 0.7852(3) 0.0568(2)
H14A H 0.5761 0.8523 0.0204
C13A C 0.4960(3) 0.6425(3) 0.02629(19)
C14A C 0.6408(3) 0.6015(3) -0.05850(19)
C15A C 0.6467(3) 0.4602(3) -0.08512(19)
C16A C 0.7939(3) 0.4104(3) -0.1681(2)
H15A H 0.8890 0.4741 -0.2059
C17A C 0.7992(4) 0.2737(3) -0.1932(2)
H16A H 0.8969 0.2446 -0.2478
C18? C 0.5707(5) 0.2790(4) 0.4860(3)
H17? H 0.5944 0.2141 0.5598
O4? O 0.4309(7) 0.2700(6) 0.4479(4)
loop_
_geom_bond_atom_site_label_1
_geom_bond_atom_site_label_2
_geom_bond_site_symmetry_1
_geom_bond_site_symmetry_2
C1 H1 1_555 1_555
O1 C1 1_555 1_555
N1 C1 1_555 1_555
C2 N1 1_555 1_555
H2 C2 1_555 1_555
H3 C2 1_555 1_555
H4 C2 1_555 1_555
C3 N1 1_555 1_555
H5 C3 1_555 1_555
H6 C3 1_555 1_555
H7 C3 1_555 1_555
O2 C10 1_555 1_555
O3 H8 1_555 1_555
C4 C5 1_555 1_555
C5 H9 1_555 1_555
C6 C5 1_555 1_555
H10 C6 1_555 1_555
C7 C6 1_555 1_555
C8 C7 1_555 1_555
H11 C8 1_555 1_555
C9 C4 1_555 1_555
H12 C9 1_555 1_555
C10 O3 1_555 1_555
C11 H13 1_555 1_555
C12 C11 1_555 1_555
H14 C12 1_555 1_555
C13 C12 1_555 1_555
C14 C7 1_555 1_555
C15 C14 1_555 1_555
C16 C15 1_555 1_555
H15 C16 1_555 1_555
C17 C16 1_555 1_555
H16 C17 1_555 1_555
O2A C10A 1_555 1_555
O3A H8A 1_555 1_555
C4A C5A 1_555 1_555
C5A H9A 1_555 1_555
C6A C5A 1_555 1_555
H10A C6A 1_555 1_555
C7A C6A 1_555 1_555
C8A C7A 1_555 1_555
H11A C8A 1_555 1_555
C9A C4A 1_555 1_555
H12A C9A 1_555 1_555
C10A O3A 1_555 1_555
C11A C17 1_555 1_555
H13A C11A 1_555 1_555
C12A C11A 1_555 1_555
H14A C12A 1_555 1_555
C13A C15 1_555 1_555
C14A C7A 1_555 1_555
C15A C13 1_555 1_555
C16A C15A 1_555 1_555
H15A C16A 1_555 1_555
C17A C11 1_555 1_555
H16A C17A 1_555 1_555
C4 C10 1_555 1_555
C8 C9 1_555 1_555
C13 C14 1_555 1_555
C4A C10A 1_555 1_555
C8A C9A 1_555 1_555
C12A C13A 1_555 1_555
C13A C14A 1_555 1_555
C14A C15A 1_555 1_555
C16A C17A 1_555 1_555

#END
