
#######################################################################
#
#                 Cambridge Crystallographic Data Centre
#                                CCDC 
#
#######################################################################
#
# If this CIF has been generated from an entry in the Cambridge 
# Structural Database, then it will include bibliographic, chemical, 
# crystal, experimental, refinement or atomic coordinate data resulting 
# from the CCDC's data processing and validation procedures.
#
#######################################################################

data_SOYHAQ
_chemical_formula_moiety         'C23 H19 N1 O3'
_chemical_name_systematic        
3-(((2-Hydroxyethyl)imino)methyl)-1,1'-binaphthalene-2,2'-diol
_symmetry_cell_setting           orthorhombic
_symmetry_space_group_name_H-M   'P b c a'
_symmetry_Int_Tables_number      61
_space_group_name_Hall           '-P 2ac 2ab'
loop_
_symmetry_equiv_pos_site_id
_symmetry_equiv_pos_as_xyz
1 x,y,z
2 1/2-x,-y,1/2+z
3 -x,1/2+y,1/2-z
4 1/2+x,1/2-y,-z
5 -x,-y,-z
6 1/2+x,y,1/2-z
7 x,1/2-y,1/2+z
8 1/2-x,1/2+y,z
_cell_length_a                   12.6184(3)
_cell_length_b                   9.7774(2)
_cell_length_c                   29.7991(6)
_cell_angle_alpha                90
_cell_angle_beta                 90
_cell_angle_gamma                90
_cell_volume                     3676.47
_exptl_crystal_colour            red
_exptl_crystal_description       block
_cell_formula_units_Z            8
_exptl_crystal_recrystallization_method ethanol/dichloromethane
loop_
_atom_site_label
_atom_site_type_symbol
_atom_site_fract_x
_atom_site_fract_y
_atom_site_fract_z
O1 O 0.50545(11) 0.24608(12) 0.43973(4)
H1 H 0.5349(18) 0.278(2) 0.4675(8)
O2 O 0.31307(9) -0.02597(13) 0.38718(4)
H2 H 0.2483 -0.0321 0.3860
O3 O 0.60553(9) 0.53599(13) 0.59680(4)
H3 H 0.5790 0.6125 0.5963
N1 N 0.60154(12) 0.25597(15) 0.51551(4)
C1 C 0.54441(13) 0.11749(16) 0.43397(5)
C2 C 0.52157(13) 0.04833(17) 0.39500(5)
C3 C 0.56310(13) -0.08531(17) 0.38917(5)
C4 C 0.54263(15) -0.16310(18) 0.35028(6)
H4 H 0.5016 -0.1255 0.3275
C5 C 0.58156(16) -0.2919(2) 0.34540(7)
H5 H 0.5678 -0.3406 0.3192
C6 C 0.64219(16) -0.3519(2) 0.37943(7)
H6 H 0.6673 -0.4407 0.3761
C7 C 0.66425(15) -0.28066(19) 0.41715(7)
H7 H 0.7059 -0.3207 0.4393
C8 C 0.62541(13) -0.14683(17) 0.42360(6)
C9 C 0.64473(13) -0.07085(18) 0.46275(6)
H8 H 0.6848 -0.1104 0.4855
C10 C 0.60711(12) 0.05847(17) 0.46872(5)
C11 C 0.62936(13) 0.13284(19) 0.51008(5)
H9 H 0.6693(11) 0.0826(15) 0.5322(5)
C12 C 0.62678(15) 0.32605(17) 0.55768(5)
H10 H 0.7029 0.3270 0.5623
H11 H 0.5943 0.2783 0.5827
C13 C 0.58577(14) 0.46884(18) 0.55525(6)
H12 H 0.6207 0.5177 0.5311
H13 H 0.5102 0.4677 0.5492
C14 C 0.45087(14) 0.11281(17) 0.36073(5)
C15 C 0.34642(14) 0.07470(18) 0.35878(5)
C16 C 0.27531(15) 0.1368(2) 0.32883(6)
H14 H 0.2046 0.1099 0.3283
C17 C 0.31035(17) 0.2365(2) 0.30064(6)
H15 H 0.2626 0.2782 0.2812
C18 C 0.41683(16) 0.27781(19) 0.30024(6)
C19 C 0.45588(19) 0.3789(2) 0.27067(6)
H16 H 0.4092 0.4217 0.2510
C20 C 0.5592(2) 0.4152(2) 0.27016(6)
H17 H 0.5832 0.4811 0.2501
C21 C 0.62985(19) 0.3531(2) 0.29999(6)
H18 H 0.7009 0.3783 0.2997
C22 C 0.59561(16) 0.25552(19) 0.32973(6)
H19 H 0.6437 0.2160 0.3495
C23 C 0.48854(15) 0.21437(18) 0.33073(5)
loop_
_geom_bond_atom_site_label_1
_geom_bond_atom_site_label_2
_geom_bond_site_symmetry_1
_geom_bond_site_symmetry_2
O1 H1 1_555 1_555
O2 H2 1_555 1_555
O3 H3 1_555 1_555
N1 C11 1_555 1_555
C1 O1 1_555 1_555
C2 C1 1_555 1_555
C3 C2 1_555 1_555
C4 C3 1_555 1_555
H4 C4 1_555 1_555
C5 C4 1_555 1_555
H5 C5 1_555 1_555
C6 C5 1_555 1_555
H6 C6 1_555 1_555
C7 C6 1_555 1_555
H7 C7 1_555 1_555
C8 C3 1_555 1_555
C9 C8 1_555 1_555
H8 C9 1_555 1_555
C10 C1 1_555 1_555
C11 C10 1_555 1_555
H9 C11 1_555 1_555
C12 N1 1_555 1_555
H10 C12 1_555 1_555
H11 C12 1_555 1_555
C13 O3 1_555 1_555
H12 C13 1_555 1_555
H13 C13 1_555 1_555
C14 C2 1_555 1_555
C15 O2 1_555 1_555
C16 C15 1_555 1_555
H14 C16 1_555 1_555
C17 C16 1_555 1_555
H15 C17 1_555 1_555
C18 C17 1_555 1_555
C19 C18 1_555 1_555
H16 C19 1_555 1_555
C20 C19 1_555 1_555
H17 C20 1_555 1_555
C21 C20 1_555 1_555
H18 C21 1_555 1_555
C22 C21 1_555 1_555
H19 C22 1_555 1_555
C23 C14 1_555 1_555
C7 C8 1_555 1_555
C9 C10 1_555 1_555
C12 C13 1_555 1_555
C14 C15 1_555 1_555
C18 C23 1_555 1_555
C22 C23 1_555 1_555

#END
