
#######################################################################
#
#                 Cambridge Crystallographic Data Centre
#                                CCDC 
#
#######################################################################
#
# If this CIF has been generated from an entry in the Cambridge 
# Structural Database, then it will include bibliographic, chemical, 
# crystal, experimental, refinement or atomic coordinate data resulting 
# from the CCDC's data processing and validation procedures.
#
#######################################################################

data_SOYJUN
_chemical_formula_moiety         'C21 H18 Br1 Cl1 O5'
_chemical_name_systematic        
'ethyl 5-(4-bromophenyl)-9-chloro-4-hydroxy-4a,10b-dihydro-4H,5H-pyrano[3,4-c]chromene-2-carboxylate'
_symmetry_cell_setting           orthorhombic
_symmetry_space_group_name_H-M   'P 21 21 21'
_symmetry_Int_Tables_number      19
_space_group_name_Hall           'P 2ac 2ab'
loop_
_symmetry_equiv_pos_site_id
_symmetry_equiv_pos_as_xyz
1 x,y,z
2 1/2-x,-y,1/2+z
3 1/2+x,1/2-y,-z
4 -x,1/2+y,1/2-z
_cell_length_a                   8.2432(6)
_cell_length_b                   8.6470(6)
_cell_length_c                   28.4472(16)
_cell_angle_alpha                90
_cell_angle_beta                 90
_cell_angle_gamma                90
_cell_volume                     2027.69
_exptl_crystal_colour            colorless
_exptl_crystal_description       block
_cell_formula_units_Z            4
loop_
_atom_site_label
_atom_site_type_symbol
_atom_site_fract_x
_atom_site_fract_y
_atom_site_fract_z
Br1 Br 0.56158(14) 0.93988(13) 0.06101(3)
Cl1 Cl 0.3923(4) 0.8765(4) 0.50006(9)
O1 O 0.8904(4) 0.5880(4) 0.28814(12)
O2 O 0.9759(4) 0.8422(5) 0.27636(13)
H1 H 1.0163 0.8638 0.2508
O3 O 0.9556(6) 0.3102(5) 0.32260(17)
O4 O 0.4707(5) 0.9707(5) 0.29727(15)
C1 C 0.5819(9) 0.9481(9) 0.1276(2)
C2 C 0.4862(8) 0.8492(8) 0.1540(3)
H2 H 0.4151 0.7802 0.1397
C3 C 0.5001(8) 0.8566(7) 0.2019(2)
H3 H 0.4348 0.7929 0.2202
C4 C 0.6062(6) 0.9541(6) 0.2239(2)
C5 C 0.6991(6) 1.0496(8) 0.1966(2)
H4 H 0.7732 1.1159 0.2108
C6 C 0.6844(8) 1.0489(9) 0.1485(2)
H5 H 0.7447 1.1175 0.1304
C7 C 0.6286(6) 0.9494(7) 0.27615(19)
H6 H 0.6998 1.0346 0.2857
C8 C 0.6984(6) 0.7966(6) 0.29460(18)
H7 H 0.6143 0.7172 0.2916
C9 C 0.8464(6) 0.7406(6) 0.26966(18)
H8 H 0.8233 0.7320 0.2360
C10 C 0.8705(6) 0.5680(7) 0.33544(19)
C11 C 0.8043(6) 0.6679(7) 0.36473(19)
H9 H 0.8004 0.6457 0.3967
C12 C 0.7351(6) 0.8175(6) 0.34675(18)
H10 H 0.8185 0.8977 0.3499
C13 C 0.9242(8) 0.4123(8) 0.3490(2)
C14 C 0.5829(7) 0.8738(6) 0.3711(2)
C15 C 0.5612(10) 0.8552(7) 0.4194(2)
H11 H 0.6436 0.8139 0.4379
C16 C 0.4144(12) 0.8993(9) 0.4395(3)
C17 C 0.2938(11) 0.9567(11) 0.4133(3)
H12 H 0.1961 0.9820 0.4277
C18 C 0.3098(9) 0.9797(9) 0.3650(3)
H13 H 0.2253 1.0193 0.3470
C19 C 0.4614(8) 0.9398(7) 0.3446(2)
O5 O 0.9602(10) 0.4153(8) 0.3998(3)
C20 C 0.9638(17) 0.2411(11) 0.4063(6)
H14 H 0.9683 0.1980 0.3749
H15 H 1.0678 0.2185 0.4207
C21 C 0.851(2) 0.152(2) 0.4305(6)
H16 H 0.8069 0.2112 0.4560
H17 H 0.9038 0.0614 0.4428
H18 H 0.7659 0.1218 0.4095
O6? O 0.8998(10) 0.3757(9) 0.3921(3)
C22? C 1.0141(15) 0.2798(17) 0.4215(5)
H19? H 1.0726 0.2050 0.4026
H20? H 1.0906 0.3437 0.4386
C23? C 0.900(2) 0.207(2) 0.4521(6)
H21? H 0.8658 0.2794 0.4756
H22? H 0.9505 0.1197 0.4670
H23? H 0.8081 0.1730 0.4343
loop_
_geom_bond_atom_site_label_1
_geom_bond_atom_site_label_2
_geom_bond_site_symmetry_1
_geom_bond_site_symmetry_2
Br1 C1 1_555 1_555
Cl1 C16 1_555 1_555
O1 C9 1_555 1_555
O2 H1 1_555 1_555
O3 C13 1_555 1_555
O4 C7 1_555 1_555
C1 C2 1_555 1_555
C2 H2 1_555 1_555
C3 C2 1_555 1_555
H3 C3 1_555 1_555
C4 C3 1_555 1_555
C5 C4 1_555 1_555
H4 C5 1_555 1_555
C6 C1 1_555 1_555
H5 C6 1_555 1_555
C7 C4 1_555 1_555
H6 C7 1_555 1_555
C8 C7 1_555 1_555
H7 C8 1_555 1_555
C9 O2 1_555 1_555
H8 C9 1_555 1_555
C10 O1 1_555 1_555
C11 C10 1_555 1_555
H9 C11 1_555 1_555
C12 C8 1_555 1_555
H10 C12 1_555 1_555
C13 C10 1_555 1_555
C14 C12 1_555 1_555
C15 C14 1_555 1_555
H11 C15 1_555 1_555
C16 C15 1_555 1_555
C17 C16 1_555 1_555
H12 C17 1_555 1_555
C18 C17 1_555 1_555
H13 C18 1_555 1_555
C19 O4 1_555 1_555
O5 C13 1_555 1_555
C20 O5 1_555 1_555
H14 C20 1_555 1_555
H15 C20 1_555 1_555
C21 C20 1_555 1_555
H16 C21 1_555 1_555
H17 C21 1_555 1_555
H18 C21 1_555 1_555
C5 C6 1_555 1_555
C8 C9 1_555 1_555
C11 C12 1_555 1_555
C14 C19 1_555 1_555
C18 C19 1_555 1_555

#END
