
#######################################################################
#
#                 Cambridge Crystallographic Data Centre
#                                CCDC 
#
#######################################################################
#
# If this CIF has been generated from an entry in the Cambridge 
# Structural Database, then it will include bibliographic, chemical, 
# crystal, experimental, refinement or atomic coordinate data resulting 
# from the CCDC's data processing and validation procedures.
#
#######################################################################

data_SOYKAU
_chemical_formula_moiety         'C32 H23 Cl1 N2 O5'
_chemical_name_systematic        
'ethyl (2-chloro-6,9-bis(4-cyanophenyl)-8-formyl-6a,9,10,10a-tetrahydro-6H-benzo[c]chromen-10-yl)(oxo)acetate'
_symmetry_cell_setting           orthorhombic
_symmetry_space_group_name_H-M   'P 21 21 21'
_symmetry_Int_Tables_number      19
_space_group_name_Hall           'P 2ac 2ab'
loop_
_symmetry_equiv_pos_site_id
_symmetry_equiv_pos_as_xyz
1 x,y,z
2 1/2-x,-y,1/2+z
3 1/2+x,1/2-y,-z
4 -x,1/2+y,1/2-z
_cell_length_a                   10.4536(3)
_cell_length_b                   11.9049(3)
_cell_length_c                   22.4319(6)
_cell_angle_alpha                90
_cell_angle_beta                 90
_cell_angle_gamma                90
_cell_volume                     2791.63
_exptl_crystal_colour            colorless
_exptl_crystal_description       block
_cell_formula_units_Z            4
loop_
_atom_site_label
_atom_site_type_symbol
_atom_site_fract_x
_atom_site_fract_y
_atom_site_fract_z
Cl1 Cl 0.92491(10) 0.55924(9) 0.03613(4)
O1 O 1.2285(2) 0.36888(18) 0.23197(10)
O2 O 0.6982(3) 0.2875(3) 0.43367(13)
O3 O 0.7845(3) 0.13388(18) 0.24717(12)
O4 O 0.8218(3) 0.2258(3) 0.11838(13)
O5 O 0.9962(3) 0.1497(3) 0.16026(18)
N1 N 1.5525(4) 0.0428(4) 0.4752(2)
N2 N 0.4477(3) 0.8378(3) 0.3442(2)
C1 C 1.0131(3) 0.5005(3) 0.09466(15)
C2 C 1.1443(3) 0.4893(3) 0.08875(15)
H1 H 1.1853 0.5106 0.0537
C3 C 1.2136(3) 0.4456(3) 0.13619(15)
H2 H 1.3020 0.4385 0.1333
C4 C 1.1514(3) 0.4124(2) 0.18802(14)
C5 C 1.0188(3) 0.4216(2) 0.19329(13)
C6 C 0.9508(3) 0.4678(2) 0.14549(14)
H3 H 0.8626 0.4764 0.1483
C7 C 1.1754(3) 0.3646(2) 0.29120(13)
H4 H 1.1695 0.4410 0.3072
C8 C 1.2660(3) 0.2970(2) 0.32898(13)
C9 C 1.3050(3) 0.1899(2) 0.31153(15)
H5 H 1.2797 0.1618 0.2747
C10 C 1.3806(3) 0.1254(3) 0.34821(17)
H6 H 1.4055 0.0539 0.3361
C11 C 1.4203(3) 0.1666(3) 0.40348(16)
C12 C 1.3852(4) 0.2745(3) 0.42072(16)
H7 H 1.4136 0.3038 0.4568
C13 C 1.3077(3) 0.3379(3) 0.38371(15)
H8 H 1.2829 0.4095 0.3957
C14 C 1.4950(4) 0.0976(3) 0.44317(19)
C15 C 0.9545(3) 0.3888(2) 0.25111(13)
H9 H 0.9436 0.4583 0.2739
C16 C 1.0417(3) 0.3130(2) 0.28843(13)
H10 H 1.0483 0.2403 0.2681
C17 C 0.9812(3) 0.2935(2) 0.34812(14)
H11 H 1.0334 0.2733 0.3799
C18 C 0.8560(3) 0.3039(2) 0.35757(14)
C19 C 0.7583(3) 0.3326(2) 0.31018(14)
H12 H 0.6938 0.2729 0.3103
C20 C 0.8209(3) 0.3336(2) 0.24751(13)
H13 H 0.7673 0.3789 0.2209
C21 C 0.8089(4) 0.2830(3) 0.41838(16)
H14 H 0.8691 0.2649 0.4473
C22 C 0.6891(3) 0.4431(2) 0.32188(13)
C23 C 0.7463(3) 0.5309(2) 0.35217(15)
H15 H 0.8275 0.5215 0.3683
C24 C 0.6837(3) 0.6326(3) 0.35863(16)
H16 H 0.7234 0.6919 0.3784
C25 C 0.5612(3) 0.6460(3) 0.33551(16)
C26 C 0.5023(3) 0.5576(3) 0.30614(17)
H17 H 0.4201 0.5663 0.2910
C27 C 0.5655(3) 0.4571(3) 0.29931(16)
H18 H 0.5257 0.3980 0.2795
C28 C 0.4972(3) 0.7538(3) 0.34094(19)
C29 C 0.8277(3) 0.2145(2) 0.22253(15)
C30 C 0.8937(4) 0.1941(3) 0.16263(18)
C31 C 0.8488(11) 0.2138(10) 0.0565(6)
H19 H 0.8768 0.1376 0.0485
H20 H 0.9175 0.2645 0.0454
C32 C 0.7333(15) 0.2393(14) 0.0203(8)
H21 H 0.6628 0.1948 0.0343
H22 H 0.7498 0.2220 -0.0208
H23 H 0.7125 0.3175 0.0241
C33? C 0.8993(11) 0.1958(10) 0.0611(6)
H24? H 0.9813 0.2338 0.0603
H25? H 0.9127 0.1154 0.0577
C34? C 0.8123(16) 0.2383(13) 0.0138(8)
H26? H 0.7388 0.1903 0.0110
H27? H 0.8566 0.2390 -0.0237
H28? H 0.7854 0.3132 0.0236
loop_
_geom_bond_atom_site_label_1
_geom_bond_atom_site_label_2
_geom_bond_site_symmetry_1
_geom_bond_site_symmetry_2
Cl1 C1 1_555 1_555
O1 C4 1_555 1_555
O2 C21 1_555 1_555
O3 C29 1_555 1_555
O4 C30 1_555 1_555
O5 C30 1_555 1_555
N1 C14 1_555 1_555
N2 C28 1_555 1_555
C1 C2 1_555 1_555
C2 H1 1_555 1_555
C3 C2 1_555 1_555
H2 C3 1_555 1_555
C4 C3 1_555 1_555
C5 C4 1_555 1_555
C6 C1 1_555 1_555
H3 C6 1_555 1_555
C7 O1 1_555 1_555
H4 C7 1_555 1_555
C8 C7 1_555 1_555
C9 C8 1_555 1_555
H5 C9 1_555 1_555
C10 C9 1_555 1_555
H6 C10 1_555 1_555
C11 C10 1_555 1_555
C12 C11 1_555 1_555
H7 C12 1_555 1_555
C13 C8 1_555 1_555
H8 C13 1_555 1_555
C14 C11 1_555 1_555
C15 C5 1_555 1_555
H9 C15 1_555 1_555
C16 C7 1_555 1_555
H10 C16 1_555 1_555
C17 C16 1_555 1_555
H11 C17 1_555 1_555
C18 C17 1_555 1_555
C19 C18 1_555 1_555
H12 C19 1_555 1_555
C20 C15 1_555 1_555
H13 C20 1_555 1_555
C21 C18 1_555 1_555
H14 C21 1_555 1_555
C22 C19 1_555 1_555
C23 C22 1_555 1_555
H15 C23 1_555 1_555
C24 C23 1_555 1_555
H16 C24 1_555 1_555
C25 C24 1_555 1_555
C26 C25 1_555 1_555
H17 C26 1_555 1_555
C27 C22 1_555 1_555
H18 C27 1_555 1_555
C28 C25 1_555 1_555
C29 C20 1_555 1_555
C30 C29 1_555 1_555
C31 O4 1_555 1_555
H19 C31 1_555 1_555
H20 C31 1_555 1_555
C32 C31 1_555 1_555
H21 C32 1_555 1_555
H22 C32 1_555 1_555
H23 C32 1_555 1_555
C5 C6 1_555 1_555
C12 C13 1_555 1_555
C15 C16 1_555 1_555
C19 C20 1_555 1_555
C26 C27 1_555 1_555

#END
