
#######################################################################
#
#                 Cambridge Crystallographic Data Centre
#                                CCDC 
#
#######################################################################
#
# If this CIF has been generated from an entry in the Cambridge 
# Structural Database, then it will include bibliographic, chemical, 
# crystal, experimental, refinement or atomic coordinate data resulting 
# from the CCDC's data processing and validation procedures.
#
#######################################################################

data_SOYLID
_chemical_formula_moiety         'C19 H16 Br1 N1 O1'
_chemical_name_systematic        
1-(3-bromophenyl)-3-phenyl-3-(1H-pyrrol-2-yl)propan-1-one
_symmetry_cell_setting           monoclinic
_symmetry_space_group_name_H-M   'P 21'
_symmetry_Int_Tables_number      4
_space_group_name_Hall           'P 2yb'
loop_
_symmetry_equiv_pos_site_id
_symmetry_equiv_pos_as_xyz
1 x,y,z
2 -x,1/2+y,-z
_cell_length_a                   5.5979(9)
_cell_length_b                   16.6330(16)
_cell_length_c                   8.6913(7)
_cell_angle_alpha                90
_cell_angle_beta                 101.740(11)
_cell_angle_gamma                90
_cell_volume                     792.317
_cell_formula_units_Z            2
loop_
_atom_site_label
_atom_site_type_symbol
_atom_site_fract_x
_atom_site_fract_y
_atom_site_fract_z
Br1 Br 0.47199(6) 0.58846(2) 1.09994(3)
O1 O 0.3928(4) 0.41222(16) 0.5683(3)
N1 N 1.0123(5) 0.27923(16) 0.5296(3)
H1 H 1.1232 0.3146 0.5262
C1 C 0.5473(5) 0.52075(16) 0.8137(3)
H2 H 0.4183 0.4870 0.8227
C2 C 0.6263(5) 0.5793(2) 0.9250(3)
C3 C 0.8119(6) 0.63089(19) 0.9143(4)
H3 H 0.8600 0.6701 0.9905
C4 C 0.9274(6) 0.62400(19) 0.7884(4)
H4 H 1.0541 0.6586 0.7793
C5 C 0.8527(5) 0.56507(16) 0.6760(4)
H5 H 0.9305 0.5605 0.5915
C6 C 0.6649(5) 0.51318(14) 0.6876(3)
C7 C 0.5789(5) 0.44940(16) 0.5675(3)
C8 C 0.7310(5) 0.43528(17) 0.4444(3)
H6 H 0.9020 0.4364 0.4954
H7 H 0.7030 0.4793 0.3697
C9 C 0.6787(5) 0.35583(17) 0.3536(3)
H8 H 0.5010 0.3500 0.3245
C10 C 0.7750(5) 0.35635(17) 0.2015(3)
C11 C 0.9773(7) 0.4007(2) 0.1839(4)
H9 H 1.0561 0.4330 0.2661
C12 C 1.0645(9) 0.3975(3) 0.0447(5)
H10 H 1.2019 0.4269 0.0352
C13 C 0.9478(9) 0.3509(2) -0.0786(4)
H11 H 1.0047 0.3491 -0.1719
C14 C 0.7475(9) 0.3072(2) -0.0627(4)
H12 H 0.6680 0.2755 -0.1458
C15 C 0.6617(7) 0.3095(2) 0.0759(4)
H13 H 0.5257 0.2792 0.0848
C16 C 0.7739(5) 0.28536(17) 0.4542(3)
C17 C 0.6601(7) 0.2166(2) 0.4883(5)
H14 H 0.4968 0.2036 0.4522
C18 C 0.8345(10) 0.1693(2) 0.5878(5)
H15 H 0.8070 0.1196 0.6299
C19 C 1.0481(8) 0.2089(2) 0.6110(4)
H16 H 1.1949 0.1913 0.6720
loop_
_geom_bond_atom_site_label_1
_geom_bond_atom_site_label_2
_geom_bond_site_symmetry_1
_geom_bond_site_symmetry_2
Br1 C2 1_555 1_555
O1 C7 1_555 1_555
N1 H1 1_555 1_555
C1 H2 1_555 1_555
C2 C1 1_555 1_555
C3 C2 1_555 1_555
H3 C3 1_555 1_555
C4 C3 1_555 1_555
H4 C4 1_555 1_555
C5 C4 1_555 1_555
H5 C5 1_555 1_555
C6 C1 1_555 1_555
C7 C6 1_555 1_555
C8 C7 1_555 1_555
H6 C8 1_555 1_555
H7 C8 1_555 1_555
C9 C8 1_555 1_555
H8 C9 1_555 1_555
C10 C9 1_555 1_555
C11 C10 1_555 1_555
H9 C11 1_555 1_555
C12 C11 1_555 1_555
H10 C12 1_555 1_555
C13 C12 1_555 1_555
H11 C13 1_555 1_555
C14 C13 1_555 1_555
H12 C14 1_555 1_555
C15 C10 1_555 1_555
H13 C15 1_555 1_555
C16 N1 1_555 1_555
C17 C16 1_555 1_555
H14 C17 1_555 1_555
C18 C17 1_555 1_555
H15 C18 1_555 1_555
C19 N1 1_555 1_555
H16 C19 1_555 1_555
C5 C6 1_555 1_555
C9 C16 1_555 1_555
C14 C15 1_555 1_555
C18 C19 1_555 1_555

#END
