
#######################################################################
#
#                 Cambridge Crystallographic Data Centre
#                                CCDC 
#
#######################################################################
#
# If this CIF has been generated from an entry in the Cambridge 
# Structural Database, then it will include bibliographic, chemical, 
# crystal, experimental, refinement or atomic coordinate data resulting 
# from the CCDC's data processing and validation procedures.
#
#######################################################################

data_SOYLUO
_chemical_formula_moiety         'C29 H44 O7'
_chemical_name_systematic        
'(3S,5R,8R,9S,10R,13S,14S,16S)-Methyl 3\b-methoxycarbonyloxy-4,4-dimethyl-17-oxo-16\a-(3-oxobutyl)androstane-16\b-carboxylate'
_symmetry_cell_setting           orthorhombic
_symmetry_space_group_name_H-M   'P 21 21 21'
_symmetry_Int_Tables_number      19
_space_group_name_Hall           'P 2ac 2ab'
loop_
_symmetry_equiv_pos_site_id
_symmetry_equiv_pos_as_xyz
1 x,y,z
2 1/2-x,-y,1/2+z
3 -x,1/2+y,1/2-z
4 1/2+x,1/2-y,-z
_cell_length_a                   8.464(3)
_cell_length_b                   9.901(3)
_cell_length_c                   32.917(10)
_cell_angle_alpha                90
_cell_angle_beta                 90
_cell_angle_gamma                90
_cell_volume                     2758.51
_exptl_crystal_colour            colorless
_exptl_crystal_description       block
_cell_formula_units_Z            4
_exptl_crystal_recrystallization_method ether
loop_
_atom_site_label
_atom_site_type_symbol
_atom_site_fract_x
_atom_site_fract_y
_atom_site_fract_z
O1 O 0.5861(3) 0.3685(3) 1.23879(6)
O2 O 0.1349(4) 0.0393(3) 1.19374(10)
O3 O 0.2929(4) 0.5217(4) 1.26075(8)
O4 O 0.1781(3) 0.6056(3) 1.20619(7)
O5 O 1.0487(2) 0.4975(3) 0.93458(5)
O6 O 1.2733(3) 0.3782(3) 0.94059(8)
O7 O 1.2090(3) 0.4978(3) 0.88526(6)
C1 C 1.0195(3) 0.4992(3) 1.04937(8)
H1 H 1.0288 0.4028 1.0539
H2 H 1.0827 0.5448 1.0698
C2 C 1.0844(4) 0.5335(4) 1.00704(8)
H3 H 1.0776 0.6301 1.0025
H4 H 1.1946 0.5073 1.0053
C3 C 0.9909(3) 0.4604(3) 0.97519(8)
H5 H 1.0042 0.3629 0.9790
C4 C 0.8136(3) 0.4937(3) 0.97479(8)
C5 C 0.7499(3) 0.4752(3) 1.01902(7)
H6 H 0.7562 0.3779 1.0241
C6 C 0.5740(3) 0.5094(4) 1.02278(8)
H7 H 0.5599 0.6062 1.0203
H8 H 0.5164 0.4664 1.0008
C7 C 0.5068(3) 0.4624(3) 1.06332(7)
H9 H 0.5052 0.3644 1.0638
H10 H 0.3987 0.4939 1.0658
C8 C 0.6018(3) 0.5136(3) 1.09946(7)
H11 H 0.5902 0.6119 1.1012
C9 C 0.7770(3) 0.4795(3) 1.09437(8)
H12 H 0.7816 0.3813 1.0908
C10 C 0.8464(3) 0.5411(3) 1.05431(8)
C11 C 0.8755(3) 0.5099(4) 1.13285(8)
H13 H 0.9816 0.4748 1.1291
H14 H 0.8834 0.6070 1.1363
C12 C 0.8048(4) 0.4484(4) 1.17139(8)
H15 H 0.8089 0.3507 1.1697
H16 H 0.8660 0.4765 1.1948
C13 C 0.6353(4) 0.4937(3) 1.17633(8)
C14 C 0.5419(3) 0.4510(3) 1.13849(7)
H17 H 0.5571 0.3534 1.1357
C15 C 0.3684(4) 0.4715(4) 1.15094(8)
H18 H 0.2988 0.4163 1.1344
H19 H 0.3377 0.5654 1.1481
C16 C 0.3623(4) 0.4270(4) 1.19609(9)
C17 C 0.5380(4) 0.4230(4) 1.20881(9)
C18 C 0.6250(5) 0.6466(3) 1.18571(10)
H20 H 0.6699 0.6968 1.1636
H21 H 0.6824 0.6658 1.2102
H22 H 0.5164 0.6719 1.1892
C19 C 0.8356(4) 0.6959(3) 1.05608(10)
H23 H 0.8889 0.7340 1.0330
H24 H 0.8846 0.7277 1.0806
H25 H 0.7267 0.7228 1.0557
C20 C 0.7842(4) 0.6354(3) 0.95734(9)
H26 H 0.6739 0.6568 0.9593
H27 H 0.8160 0.6375 0.9294
H28 H 0.8444 0.7005 0.9724
C21 C 0.7327(4) 0.3888(4) 0.94739(9)
H29 H 0.7846 0.3866 0.9215
H30 H 0.6238 0.4130 0.9437
H31 H 0.7392 0.3014 0.9599
C22 C 0.2843(4) 0.2896(4) 1.20214(10)
H32 H 0.2835 0.2693 1.2310
H33 H 0.1752 0.2959 1.1933
C23 C 0.3614(4) 0.1732(4) 1.18004(10)
H34 H 0.3779 0.1991 1.1519
H35 H 0.4643 0.1568 1.1920
C24 C 0.2683(5) 0.0443(4) 1.18101(10)
C25 C 0.3495(5) -0.0768(4) 1.16541(10)
H36 H 0.2729 -0.1452 1.1592
H37 H 0.4214 -0.1101 1.1856
H38 H 0.4072 -0.0539 1.1413
C26 C 0.2757(4) 0.5230(4) 1.22479(11)
C27 C 0.0879(4) 0.6956(4) 1.23203(11)
H39 H 0.1585 0.7561 1.2458
H40 H 0.0303 0.6436 1.2517
H41 H 0.0153 0.7467 1.2157
C28 C 1.3557(5) 0.4633(5) 0.86532(11)
H42 H 1.3801 0.3701 0.8704
H43 H 1.4391 0.5192 0.8757
H44 H 1.3453 0.4775 0.8366
C29 C 1.1861(4) 0.4489(4) 0.92210(10)
loop_
_geom_bond_atom_site_label_1
_geom_bond_atom_site_label_2
_geom_bond_site_symmetry_1
_geom_bond_site_symmetry_2
O1 C17 1_555 1_555
O2 C24 1_555 1_555
O3 C26 1_555 1_555
O4 C26 1_555 1_555
O5 C3 1_555 1_555
O6 C29 1_555 1_555
O7 C28 1_555 1_555
C1 H1 1_555 1_555
H2 C1 1_555 1_555
C2 C1 1_555 1_555
H3 C2 1_555 1_555
H4 C2 1_555 1_555
C3 C2 1_555 1_555
H5 C3 1_555 1_555
C4 C3 1_555 1_555
C5 C4 1_555 1_555
H6 C5 1_555 1_555
C6 C5 1_555 1_555
H7 C6 1_555 1_555
H8 C6 1_555 1_555
C7 C6 1_555 1_555
H9 C7 1_555 1_555
H10 C7 1_555 1_555
C8 C7 1_555 1_555
H11 C8 1_555 1_555
C9 C8 1_555 1_555
H12 C9 1_555 1_555
C10 C1 1_555 1_555
C11 C9 1_555 1_555
H13 C11 1_555 1_555
H14 C11 1_555 1_555
C12 C11 1_555 1_555
H15 C12 1_555 1_555
H16 C12 1_555 1_555
C13 C12 1_555 1_555
C14 C8 1_555 1_555
H17 C14 1_555 1_555
C15 C14 1_555 1_555
H18 C15 1_555 1_555
H19 C15 1_555 1_555
C16 C15 1_555 1_555
C17 C13 1_555 1_555
C18 C13 1_555 1_555
H20 C18 1_555 1_555
H21 C18 1_555 1_555
H22 C18 1_555 1_555
C19 C10 1_555 1_555
H23 C19 1_555 1_555
H24 C19 1_555 1_555
H25 C19 1_555 1_555
C20 C4 1_555 1_555
H26 C20 1_555 1_555
H27 C20 1_555 1_555
H28 C20 1_555 1_555
C21 C4 1_555 1_555
H29 C21 1_555 1_555
H30 C21 1_555 1_555
H31 C21 1_555 1_555
C22 C16 1_555 1_555
H32 C22 1_555 1_555
H33 C22 1_555 1_555
C23 C22 1_555 1_555
H34 C23 1_555 1_555
H35 C23 1_555 1_555
C24 C23 1_555 1_555
C25 C24 1_555 1_555
H36 C25 1_555 1_555
H37 C25 1_555 1_555
H38 C25 1_555 1_555
C26 C16 1_555 1_555
C27 O4 1_555 1_555
H39 C27 1_555 1_555
H40 C27 1_555 1_555
H41 C27 1_555 1_555
C28 H42 1_555 1_555
H43 C28 1_555 1_555
H44 C28 1_555 1_555
C29 O5 1_555 1_555
O7 C29 1_555 1_555
C5 C10 1_555 1_555
C9 C10 1_555 1_555
C13 C14 1_555 1_555
C16 C17 1_555 1_555

#END
