
#######################################################################
#
#                 Cambridge Crystallographic Data Centre
#                                CCDC 
#
#######################################################################
#
# If this CIF has been generated from an entry in the Cambridge 
# Structural Database, then it will include bibliographic, chemical, 
# crystal, experimental, refinement or atomic coordinate data resulting 
# from the CCDC's data processing and validation procedures.
#
#######################################################################

data_SOYLAV
_chemical_formula_moiety         'C42 H48 Cl4 N2 Si2'
_chemical_name_systematic        
8,9,10,11-tetrachloro-6,13-bis((triisopropylsilyl)ethynyl)anthra[2,3-g]quinoxaline
_symmetry_cell_setting           triclinic
_symmetry_space_group_name_H-M   'P -1'
_symmetry_Int_Tables_number      2
_space_group_name_Hall           '-P 1'
loop_
_symmetry_equiv_pos_site_id
_symmetry_equiv_pos_as_xyz
1 x,y,z
2 -x,-y,-z
_cell_length_a                   7.925(3)
_cell_length_b                   15.284(6)
_cell_length_c                   17.503(6)
_cell_angle_alpha                99.800(17)
_cell_angle_beta                 90.499(17)
_cell_angle_gamma                90.132(15)
_cell_volume                     2089.03
_exptl_crystal_colour            blue
_exptl_crystal_description       block
_cell_formula_units_Z            2
loop_
_atom_site_label
_atom_site_type_symbol
_atom_site_fract_x
_atom_site_fract_y
_atom_site_fract_z
C1 C 0.2257(11) 0.4380(5) 1.0728(5)
C2 C 0.1395(11) 0.3611(5) 1.0405(6)
C3 C 0.0927(10) 0.3473(5) 0.9627(6)
C4 C 0.1321(11) 0.4104(5) 0.9171(5)
C5 C 0.2182(8) 0.4874(5) 0.9493(4)
C6 C 0.2650(8) 0.5012(5) 1.0272(4)
C7 C 0.3546(7) 0.6346(4) 0.9490(4)
C8 C 0.3988(9) 0.6973(5) 0.9037(4)
C9 C 0.4862(7) 0.7736(4) 0.9366(4)
C10 C 0.5295(7) 0.7872(4) 1.0148(4)
C11 C 0.4853(9) 0.7245(5) 1.0602(4)
C12 C 0.3979(7) 0.6482(5) 1.0273(4)
C13 C 0.6332(9) 0.9049(5) 0.9320(5)
N1 N 0.6822(11) 0.9621(5) 0.8823(5)
C14 C 0.7732(11) 1.0387(5) 0.9110(6)
H1 H 0.8060 1.0769 0.8777
C15 C 0.8151(10) 1.0582(5) 0.9893(6)
H2 H 0.8760 1.1094 1.0085
N2 N 0.7661(11) 1.0010(5) 1.0390(6)
C16 C 0.6751(9) 0.9244(5) 1.0103(5)
Cl1 Cl 0.0779(8) 0.3979(4) 0.8214(3)
Cl2 Cl 0.2773(8) 0.4448(4) 1.1709(3)
Si1 Si 0.2071(8) 0.7182(4) 0.6647(3)
Cl3 Cl -0.0115(8) 0.2536(4) 0.9174(4)
Si2 Si 0.5417(9) 0.7865(4) 1.3174(3)
Cl4 Cl 0.0767(8) 0.2789(4) 1.0928(4)
C17 C 0.262(2) 0.5525(16) 0.9086(10)
H3 H 0.2360 0.5464 0.8560
C18 C 0.342(3) 0.6963(12) 0.8212(16)
C19 C 0.351(2) 0.5759(15) 1.0635(10)
H4 H 0.3795 0.5789 1.1155
C20 C 0.509(3) 0.7417(12) 1.1470(16)
C21 C 0.378(4) 0.7131(19) 0.5955(15)
H5 H 0.3338 0.7294 0.5474
C22 C 0.524(3) 0.7560(14) 1.2120(13)
C23 C 0.395(4) 0.883(2) 1.3417(18)
H6 H 0.2917 0.8505 1.3245
C24 C 0.125(4) 0.8367(17) 0.6814(16)
H7 H 0.2265 0.8729 0.6948
C25 C 0.288(3) 0.6919(13) 0.7551(15)
C26 C 0.384(6) 0.945(3) 1.287(2)
H8 H 0.3726 1.0045 1.3142
H9 H 0.2876 0.9301 1.2532
H10 H 0.4844 0.9408 1.2558
C27 C 0.536(2) 0.8382(14) 0.8929(12)
H11 H 0.5058 0.8354 0.8411
C28 C 0.622(3) 0.8611(14) 1.0509(12)
H12 H 0.6479 0.8671 1.1035
C29 C 0.058(5) 0.868(2) 0.6121(17)
H13 H -0.0092 0.8219 0.5821
H14 H 0.1496 0.8831 0.5814
H15 H -0.0111 0.9195 0.6278
C30 C 0.020(5) 0.8570(19) 0.7514(16)
H16 H -0.0335 0.9135 0.7526
H17 H 0.0900 0.8590 0.7967
H18 H -0.0645 0.8118 0.7504
C31 C 0.522(4) 0.782(3) 0.629(2)
H19 H 0.5909 0.7576 0.6657
H20 H 0.4718 0.8363 0.6547
H21 H 0.5916 0.7947 0.5875
C32 C 0.345(4) 0.910(2) 1.4234(17)
H22 H 0.4379 0.9387 1.4531
H23 H 0.3116 0.8584 1.4441
H24 H 0.2514 0.9505 1.4261
C33 C 0.460(4) 0.619(2) 0.5759(19)
H25 H 0.5683 0.6245 0.5525
H26 H 0.3886 0.5810 0.5405
H27 H 0.4748 0.5951 0.6226
C34 C -0.013(4) 0.6274(19) 0.5434(16)
H28 H 0.0514 0.5832 0.5105
H29 H 0.0034 0.6841 0.5278
H30 H -0.1305 0.6117 0.5390
C35 C 0.041(4) 0.632(3) 0.621(2)
H31 H -0.0545 0.6689 0.6415
C36 C 0.002(6) 0.560(3) 0.667(2)
H32 H -0.1132 0.5418 0.6586
H33 H 0.0201 0.5830 0.7213
H34 H 0.0752 0.5106 0.6515
C37 C 0.762(4) 0.815(2) 1.3390(15)
H35 H 0.8208 0.7584 1.3241
C38 C 0.848(4) 0.874(3) 1.2958(18)
H36 H 0.7780 0.9244 1.2932
H37 H 0.8690 0.8429 1.2442
H38 H 0.9525 0.8927 1.3210
C39 C 0.803(5) 0.841(2) 1.4286(16)
H39 H 0.8791 0.7986 1.4442
H40 H 0.7008 0.8425 1.4575
H41 H 0.8553 0.8991 1.4385
C40 C 0.476(6) 0.692(2) 1.3597(16)
H42 H 0.4863 0.7096 1.4160
C41 C 0.318(6) 0.661(2) 1.345(2)
H43 H 0.3003 0.6448 1.2905
H44 H 0.2388 0.7065 1.3659
H45 H 0.3009 0.6101 1.3698
C42 C 0.579(6) 0.609(2) 1.3383(18)
H46 H 0.5671 0.5725 1.3772
H47 H 0.6959 0.6253 1.3348
H48 H 0.5413 0.5773 1.2891
loop_
_geom_bond_atom_site_label_1
_geom_bond_atom_site_label_2
_geom_bond_site_symmetry_1
_geom_bond_site_symmetry_2
C1 C2 1_555 1_555
C2 C3 1_555 1_555
C3 C4 1_555 1_555
C4 C5 1_555 1_555
C5 C6 1_555 1_555
C6 C1 1_555 1_555
C7 C8 1_555 1_555
C8 C9 1_555 1_555
C9 C10 1_555 1_555
C10 C11 1_555 1_555
C11 C12 1_555 1_555
C12 C7 1_555 1_555
C13 N1 1_555 1_555
N1 C14 1_555 1_555
C14 H1 1_555 1_555
C15 C14 1_555 1_555
H2 C15 1_555 1_555
N2 C15 1_555 1_555
C16 C13 1_555 1_555
Cl1 C4 1_555 1_555
Cl2 C1 1_555 1_555
Si1 C21 1_555 1_555
Cl3 C3 1_555 1_555
Si2 C22 1_555 1_555
Cl4 C2 1_555 1_555
C17 C5 1_555 1_555
H3 C17 1_555 1_555
C18 C8 1_555 1_555
C19 C6 1_555 1_555
H4 C19 1_555 1_555
C20 C11 1_555 1_555
C21 H5 1_555 1_555
C22 C20 1_555 1_555
C23 Si2 1_555 1_555
H6 C23 1_555 1_555
C24 Si1 1_555 1_555
H7 C24 1_555 1_555
C25 Si1 1_555 1_555
C26 C23 1_555 1_555
H8 C26 1_555 1_555
H9 C26 1_555 1_555
H10 C26 1_555 1_555
C27 C9 1_555 1_555
H11 C27 1_555 1_555
C28 C10 1_555 1_555
H12 C28 1_555 1_555
C29 C24 1_555 1_555
H13 C29 1_555 1_555
H14 C29 1_555 1_555
H15 C29 1_555 1_555
C30 C24 1_555 1_555
H16 C30 1_555 1_555
H17 C30 1_555 1_555
H18 C30 1_555 1_555
C31 C21 1_555 1_555
H19 C31 1_555 1_555
H20 C31 1_555 1_555
H21 C31 1_555 1_555
C32 C23 1_555 1_555
H22 C32 1_555 1_555
H23 C32 1_555 1_555
H24 C32 1_555 1_555
C33 C21 1_555 1_555
H25 C33 1_555 1_555
H26 C33 1_555 1_555
H27 C33 1_555 1_555
C34 H28 1_555 1_555
H29 C34 1_555 1_555
H30 C34 1_555 1_555
C35 Si1 1_555 1_555
H31 C35 1_555 1_555
C36 C35 1_555 1_555
H32 C36 1_555 1_555
H33 C36 1_555 1_555
H34 C36 1_555 1_555
C37 Si2 1_555 1_555
H35 C37 1_555 1_555
C38 C37 1_555 1_555
H36 C38 1_555 1_555
H37 C38 1_555 1_555
H38 C38 1_555 1_555
C39 C37 1_555 1_555
H39 C39 1_555 1_555
H40 C39 1_555 1_555
H41 C39 1_555 1_555
C40 Si2 1_555 1_555
H42 C40 1_555 1_555
C41 C40 1_555 1_555
H43 C41 1_555 1_555
H44 C41 1_555 1_555
H45 C41 1_555 1_555
C42 C40 1_555 1_555
H46 C42 1_555 1_555
H47 C42 1_555 1_555
H48 C42 1_555 1_555
C7 C17 1_555 1_555
C12 C19 1_555 1_555
C13 C27 1_555 1_555
N2 C16 1_555 1_555
C16 C28 1_555 1_555
C18 C25 1_555 1_555
C34 C35 1_555 1_555

#END
