
#######################################################################
#
#                 Cambridge Crystallographic Data Centre
#                                CCDC 
#
#######################################################################
#
# If this CIF has been generated from an entry in the Cambridge 
# Structural Database, then it will include bibliographic, chemical, 
# crystal, experimental, refinement or atomic coordinate data resulting 
# from the CCDC's data processing and validation procedures.
#
#######################################################################

data_SOYMUP
_chemical_name_common            
N-(2-(2-(4-Methoxyphenyl)vinyl)phenyl)acetamide
_chemical_formula_moiety         'C17 H17 N1 O2'
_chemical_name_systematic        
N'-(2-(2-(4-Methoxyphenyl)ethenyl)phenyl)acetamide
_symmetry_cell_setting           monoclinic
_symmetry_space_group_name_H-M   'P 21'
_symmetry_Int_Tables_number      4
_space_group_name_Hall           'P 2yb'
loop_
_symmetry_equiv_pos_site_id
_symmetry_equiv_pos_as_xyz
1 x,y,z
2 -x,1/2+y,-z
_cell_length_a                   5.4225(1)
_cell_length_b                   9.4222(2)
_cell_length_c                   13.5653(3)
_cell_angle_alpha                90
_cell_angle_beta                 98.402(1)
_cell_angle_gamma                90
_cell_volume                     685.638
_exptl_crystal_colour            colorless
_exptl_crystal_description       block
_cell_formula_units_Z            2
_exptl_crystal_recrystallization_method 'ethyl acetate'
loop_
_atom_site_label
_atom_site_type_symbol
_atom_site_fract_x
_atom_site_fract_y
_atom_site_fract_z
O1 O 0.5611(2) -0.00004(14) 0.48762(9)
O2 O 0.0298(2) 0.84291(14) 0.93515(9)
N1 N 0.6516(3) 0.22034(16) 0.55197(10)
H1 H 0.597(4) 0.3083(13) 0.5476(17)
C1 C 0.8511(3) 0.18307(17) 0.62796(11)
C2 C 1.0223(3) 0.07880(19) 0.60968(12)
H2 H 0.9996 0.0294 0.5480
C3 C 1.2247(3) 0.0471(2) 0.68092(13)
H3 H 1.3400 -0.0242 0.6683
C4 C 1.2586(3) 0.12030(19) 0.77122(13)
H4 H 1.3989 0.1001 0.8198
C5 C 1.0881(3) 0.22226(19) 0.79020(12)
H5 H 1.1130 0.2709 0.8522
C6 C 0.8790(3) 0.25582(17) 0.72004(12)
C7 C 0.5199(3) 0.12874(19) 0.48755(12)
C8 C 0.3184(3) 0.1947(2) 0.41365(12)
H6 H 0.1965 0.1219 0.3881
H7 H 0.3925 0.2354 0.3583
H8 H 0.2351 0.2697 0.4465
C9 C 0.6925(3) 0.36010(18) 0.74194(12)
H9 H 0.5492 0.3725 0.6934
C10 C 0.7082(3) 0.43902(18) 0.82474(12)
H10 H 0.8543 0.4281 0.8721
C11 C 0.5219(3) 0.54060(17) 0.84945(12)
C12 C 0.3218(3) 0.58920(19) 0.78032(12)
H11 H 0.2993 0.5521 0.7145
C13 C 0.1558(3) 0.6903(2) 0.80590(12)
H12 H 0.0238 0.7230 0.7574
C14 C 0.1830(3) 0.74359(17) 0.90263(13)
C15 C 0.3793(3) 0.6960(2) 0.97288(12)
H13 H 0.3988 0.7316 1.0391
C16 C 0.5455(3) 0.59685(19) 0.94598(12)
H14 H 0.6794 0.5661 0.9943
C17 C -0.1752(3) 0.8937(2) 0.86533(13)
H15 H -0.2719 0.9622 0.8983
H16 H -0.2822 0.8138 0.8405
H17 H -0.1116 0.9399 0.8094
loop_
_geom_bond_atom_site_label_1
_geom_bond_atom_site_label_2
_geom_bond_site_symmetry_1
_geom_bond_site_symmetry_2
O1 C7 1_555 1_555
O2 C14 1_555 1_555
N1 H1 1_555 1_555
C1 N1 1_555 1_555
C2 C1 1_555 1_555
H2 C2 1_555 1_555
C3 C2 1_555 1_555
H3 C3 1_555 1_555
C4 C3 1_555 1_555
H4 C4 1_555 1_555
C5 C4 1_555 1_555
H5 C5 1_555 1_555
C6 C1 1_555 1_555
C7 N1 1_555 1_555
C8 C7 1_555 1_555
H6 C8 1_555 1_555
H7 C8 1_555 1_555
H8 C8 1_555 1_555
C9 C6 1_555 1_555
H9 C9 1_555 1_555
C10 C9 1_555 1_555
H10 C10 1_555 1_555
C11 C10 1_555 1_555
C12 C11 1_555 1_555
H11 C12 1_555 1_555
C13 C12 1_555 1_555
H12 C13 1_555 1_555
C14 C13 1_555 1_555
C15 C14 1_555 1_555
H13 C15 1_555 1_555
C16 C11 1_555 1_555
H14 C16 1_555 1_555
C17 O2 1_555 1_555
H15 C17 1_555 1_555
H16 C17 1_555 1_555
H17 C17 1_555 1_555
C5 C6 1_555 1_555
C15 C16 1_555 1_555

#END
