
#######################################################################
#
#                 Cambridge Crystallographic Data Centre
#                                CCDC 
#
#######################################################################
#
# If this CIF has been generated from an entry in the Cambridge 
# Structural Database, then it will include bibliographic, chemical, 
# crystal, experimental, refinement or atomic coordinate data resulting 
# from the CCDC's data processing and validation procedures.
#
#######################################################################

data_SOYMAV
_chemical_formula_moiety         'C21 H23 N1 O2'
_chemical_name_systematic        
'Ethyl 2-benzyl-1-propyl-1H-indole-3-carboxylate'
_symmetry_cell_setting           orthorhombic
_symmetry_space_group_name_H-M   'P n a 21'
_symmetry_Int_Tables_number      33
_space_group_name_Hall           'P 2c -2n'
loop_
_symmetry_equiv_pos_site_id
_symmetry_equiv_pos_as_xyz
1 x,y,z
2 -x,-y,1/2+z
3 1/2+x,1/2-y,z
4 1/2-x,1/2+y,1/2+z
_cell_length_a                   16.231(3)
_cell_length_b                   19.479(4)
_cell_length_c                   5.5226(11)
_cell_angle_alpha                90
_cell_angle_beta                 90
_cell_angle_gamma                90
_cell_volume                     1746.05
_exptl_crystal_colour            colorless
_exptl_crystal_description       needle
_cell_formula_units_Z            4
_exptl_crystal_recrystallization_method 'ethyl acetate/petroleum ether'
loop_
_atom_site_label
_atom_site_type_symbol
_atom_site_fract_x
_atom_site_fract_y
_atom_site_fract_z
O1 O 0.38761(9) 0.34048(8) 0.2851(4)
O2 O 0.45086(8) 0.40505(7) 0.0042(3)
N1 N 0.62712(10) 0.24714(8) 0.3130(4)
C1 C 0.66004(12) 0.28279(10) 0.1183(4)
C2 C 0.73763(13) 0.27623(11) 0.0133(5)
H1 H 0.7768 0.2440 0.0718
C3 C 0.75495(13) 0.31898(11) -0.1805(5)
H2 H 0.8075 0.3164 -0.2557
C4 C 0.69695(14) 0.36590(11) -0.2680(5)
H3 H 0.7107 0.3941 -0.4023
C5 C 0.62019(13) 0.37209(10) -0.1635(5)
H4 H 0.5813 0.4042 -0.2245
C6 C 0.60052(12) 0.33007(10) 0.0348(4)
C7 C 0.52909(13) 0.32030(9) 0.1883(4)
C8 C 0.54835(12) 0.26987(10) 0.3565(5)
C9 C 0.67057(12) 0.19227(10) 0.4394(5)
H5 H 0.6472 0.1873 0.6041
H6 H 0.7293 0.2052 0.4568
C10 C 0.66510(12) 0.12335(10) 0.3092(5)
H7 H 0.6066 0.1103 0.2890
H8 H 0.6901 0.1273 0.1464
C11 C 0.70976(14) 0.06838(11) 0.4534(5)
H9 H 0.7673 0.0821 0.4774
H10 H 0.7079 0.0248 0.3647
H11 H 0.6830 0.0627 0.6112
C12 C 0.49933(13) 0.24338(10) 0.5656(4)
H12 H 0.4530 0.2753 0.5963
H13 H 0.5348 0.2433 0.7115
C13 C 0.46466(12) 0.17145(10) 0.5295(4)
C14 C 0.47834(13) 0.12068(10) 0.7011(4)
H14 H 0.5121 0.1302 0.8376
C15 C 0.44300(14) 0.05585(11) 0.6750(5)
H15 H 0.4527 0.0214 0.7933
C16 C 0.39379(13) 0.04180(11) 0.4763(5)
H16 H 0.3692 -0.0022 0.4589
C17 C 0.38041(13) 0.09212(10) 0.3027(5)
H17 H 0.3470 0.0825 0.1656
C18 C 0.41579(12) 0.15656(10) 0.3295(4)
H18 H 0.4065 0.1908 0.2100
C19 C 0.44951(13) 0.35436(10) 0.1705(4)
C20 C 0.37460(14) 0.44182(11) -0.0340(6)
H19 H 0.3565 0.4641 0.1180
H20 H 0.3308 0.4099 -0.0879
C21 C 0.39091(15) 0.49475(12) -0.2251(5)
H21 H 0.4351 0.5254 -0.1710
H22 H 0.3407 0.5215 -0.2539
H23 H 0.4076 0.4719 -0.3755
loop_
_geom_bond_atom_site_label_1
_geom_bond_atom_site_label_2
_geom_bond_site_symmetry_1
_geom_bond_site_symmetry_2
O1 C19 1_555 1_555
O2 C19 1_555 1_555
N1 C1 1_555 1_555
C1 C2 1_555 1_555
C2 H1 1_555 1_555
C3 C2 1_555 1_555
H2 C3 1_555 1_555
C4 C3 1_555 1_555
H3 C4 1_555 1_555
C5 C4 1_555 1_555
H4 C5 1_555 1_555
C6 C1 1_555 1_555
C7 C6 1_555 1_555
C8 N1 1_555 1_555
C9 N1 1_555 1_555
H5 C9 1_555 1_555
H6 C9 1_555 1_555
C10 C9 1_555 1_555
H7 C10 1_555 1_555
H8 C10 1_555 1_555
C11 C10 1_555 1_555
H9 C11 1_555 1_555
H10 C11 1_555 1_555
H11 C11 1_555 1_555
C12 C8 1_555 1_555
H12 C12 1_555 1_555
H13 C12 1_555 1_555
C13 C12 1_555 1_555
C14 C13 1_555 1_555
H14 C14 1_555 1_555
C15 C14 1_555 1_555
H15 C15 1_555 1_555
C16 C15 1_555 1_555
H16 C16 1_555 1_555
C17 C16 1_555 1_555
H17 C17 1_555 1_555
C18 C13 1_555 1_555
H18 C18 1_555 1_555
C19 C7 1_555 1_555
C20 O2 1_555 1_555
H19 C20 1_555 1_555
H20 C20 1_555 1_555
C21 C20 1_555 1_555
H21 C21 1_555 1_555
H22 C21 1_555 1_555
H23 C21 1_555 1_555
C5 C6 1_555 1_555
C7 C8 1_555 1_555
C17 C18 1_555 1_555

#END
