
#######################################################################
#
#                 Cambridge Crystallographic Data Centre
#                                CCDC 
#
#######################################################################
#
# If this CIF has been generated from an entry in the Cambridge 
# Structural Database, then it will include bibliographic, chemical, 
# crystal, experimental, refinement or atomic coordinate data resulting 
# from the CCDC's data processing and validation procedures.
#
#######################################################################

data_SOYNIE
_chemical_formula_moiety         'C15 H14 N2 O4'
_chemical_name_systematic        
2-(4-((2,2-Dimethyl-4,6-dioxo-1,3-dioxan-5-ylidene)methylamino)phenyl)acetonitrile
_symmetry_cell_setting           triclinic
_symmetry_space_group_name_H-M   'P -1'
_symmetry_Int_Tables_number      2
_space_group_name_Hall           '-P 1'
loop_
_symmetry_equiv_pos_site_id
_symmetry_equiv_pos_as_xyz
1 x,y,z
2 -x,-y,-z
_cell_length_a                   5.204(3)
_cell_length_b                   11.239(3)
_cell_length_c                   12.209(4)
_cell_angle_alpha                85.51(3)
_cell_angle_beta                 82.30(3)
_cell_angle_gamma                84.54(2)
_cell_volume                     702.871
_exptl_crystal_colour            colorless
_exptl_crystal_description       block
_cell_formula_units_Z            2
loop_
_atom_site_label
_atom_site_type_symbol
_atom_site_fract_x
_atom_site_fract_y
_atom_site_fract_z
O1 O 0.5677(3) 0.03464(12) 0.29695(11)
O2 O 0.8342(3) 0.19500(12) 0.26775(11)
O3 O 0.2465(3) 0.02806(12) 0.43304(11)
O4 O 0.7647(3) 0.35124(12) 0.36881(12)
N1 N 0.1001(3) 0.22676(14) 0.54592(13)
H1 H 0.074(5) 0.145(2) 0.5335(18)
N2 N -0.9365(5) 0.3352(2) 0.9847(2)
C1 C 0.9231(5) 0.0301(2) 0.1573(2)
H2 H 1.0196 0.0754 0.0984
H3 H 0.8480 -0.0329 0.1271
H4 H 1.0377 -0.0040 0.2090
C2 C 0.5317(5) 0.1765(2) 0.13934(18)
H5 H 0.3912 0.2203 0.1823
H6 H 0.4629 0.1198 0.0986
H7 H 0.6268 0.2311 0.0886
C3 C 0.7107(4) 0.11099(19) 0.21537(16)
C4 C 0.4120(4) 0.08606(17) 0.38115(16)
C5 C 0.4624(4) 0.20480(16) 0.40360(15)
C6 C 0.6901(4) 0.25836(17) 0.34787(15)
C7 C 0.3046(4) 0.26618(16) 0.48329(15)
H8 H 0.3459 0.3428 0.4941
C8 C -0.0785(4) 0.29056(16) 0.62235(15)
C9 C -0.2817(4) 0.23184(17) 0.67757(17)
H9 H -0.2971 0.1528 0.6638
C10 C -0.4632(4) 0.28879(18) 0.75328(16)
H10 H -0.5997 0.2476 0.7901
C11 C -0.4454(4) 0.40591(18) 0.77514(16)
C12 C -0.2402(4) 0.46434(17) 0.71855(16)
H11 H -0.2253 0.5435 0.7321
C13 C -0.0575(4) 0.40860(17) 0.64268(16)
H12 H 0.0786 0.4497 0.6055
C14 C -0.6446(4) 0.47201(19) 0.85500(16)
H13 H -0.5548 0.5184 0.8994
H14 H -0.7541 0.5278 0.8130
C15 C -0.8082(5) 0.3952(2) 0.92822(19)
loop_
_geom_bond_atom_site_label_1
_geom_bond_atom_site_label_2
_geom_bond_site_symmetry_1
_geom_bond_site_symmetry_2
O1 C3 1_555 1_555
O2 C3 1_555 1_555
O3 C4 1_555 1_555
O4 C6 1_555 1_555
N1 H1 1_555 1_555
N2 C15 1_555 1_555
C1 H2 1_555 1_555
H3 C1 1_555 1_555
H4 C1 1_555 1_555
C2 H5 1_555 1_555
H6 C2 1_555 1_555
H7 C2 1_555 1_555
C3 C1 1_555 1_555
C4 O1 1_555 1_555
C5 C4 1_555 1_555
C6 O2 1_555 1_555
C7 N1 1_555 1_555
H8 C7 1_555 1_555
C8 N1 1_555 1_555
C9 C8 1_555 1_555
H9 C9 1_555 1_555
C10 C9 1_555 1_555
H10 C10 1_555 1_555
C11 C10 1_555 1_555
C12 C11 1_555 1_555
H11 C12 1_555 1_555
C13 C8 1_555 1_555
H12 C13 1_555 1_555
C14 C11 1_555 1_555
H13 C14 1_555 1_555
H14 C14 1_555 1_555
C15 C14 1_555 1_555
C2 C3 1_555 1_555
C5 C6 1_555 1_555
C5 C7 1_555 1_555
C12 C13 1_555 1_555

#END
