
#######################################################################
#
#                 Cambridge Crystallographic Data Centre
#                                CCDC 
#
#######################################################################
#
# If this CIF has been generated from an entry in the Cambridge 
# Structural Database, then it will include bibliographic, chemical, 
# crystal, experimental, refinement or atomic coordinate data resulting 
# from the CCDC's data processing and validation procedures.
#
#######################################################################

data_SOYNOK
_chemical_formula_moiety         'C15 H15 N1 O5'
_chemical_name_systematic        
5-(((4-Acetylphenyl)amino)methylene)-2,2-dimethyl-1,3-dioxane-4,6-dione
_symmetry_cell_setting           triclinic
_symmetry_space_group_name_H-M   'P -1'
_symmetry_Int_Tables_number      2
_space_group_name_Hall           '-P 1'
loop_
_symmetry_equiv_pos_site_id
_symmetry_equiv_pos_as_xyz
1 x,y,z
2 -x,-y,-z
_cell_length_a                   7.102(3)
_cell_length_b                   7.356(4)
_cell_length_c                   13.856(4)
_cell_angle_alpha                82.79(4)
_cell_angle_beta                 83.19(4)
_cell_angle_gamma                86.03(4)
_cell_volume                     711.993
_exptl_crystal_colour            colorless
_exptl_crystal_description       block
_cell_formula_units_Z            2
loop_
_atom_site_label
_atom_site_type_symbol
_atom_site_fract_x
_atom_site_fract_y
_atom_site_fract_z
O1 O 0.4606(3) 0.5224(2) 0.87501(13)
O2 O 0.4847(3) 0.3153(3) 0.75537(13)
O3 O 0.5363(3) 0.8104(3) 0.83800(15)
O4 O 0.5696(3) 0.4044(3) 0.60005(14)
O5 O 0.9300(3) 1.4570(3) 0.25900(17)
N1 N 0.6950(3) 0.7445(3) 0.54722(17)
H1 H 0.674(4) 0.644(5) 0.528(2)
C1 C 0.3511(5) 0.2250(4) 0.9154(2)
H2 H 0.3605 0.2286 0.9836
H3 H 0.3674 0.1003 0.9010
H4 H 0.2284 0.2754 0.8999
C2 C 0.6988(5) 0.2750(5) 0.8795(2)
H5 H 0.7894 0.3472 0.8371
H6 H 0.7236 0.1478 0.8706
H7 H 0.7094 0.2910 0.9463
C3 C 0.5022(4) 0.3356(4) 0.8554(2)
C4 C 0.5331(4) 0.6609(4) 0.8097(2)
C5 C 0.5861(4) 0.6195(3) 0.71100(18)
C6 C 0.5512(4) 0.4421(4) 0.6835(2)
C7 C 0.6522(4) 0.7568(3) 0.64119(19)
H8 H 0.6681 0.8692 0.6625
C8 C 0.7584(4) 0.8835(4) 0.47359(19)
C9 C 0.8222(4) 0.8338(4) 0.3821(2)
H9 H 0.8262 0.7113 0.3711
C10 C 0.8804(4) 0.9674(4) 0.3063(2)
H10 H 0.9233 0.9337 0.2447
C11 C 0.8752(4) 1.1500(4) 0.3217(2)
C12 C 0.8132(4) 1.1971(4) 0.4143(2)
H11 H 0.8113 1.3192 0.4256
C13 C 0.7541(4) 1.0661(4) 0.4903(2)
H12 H 0.7118 1.0998 0.5521
C14 C 0.9294(4) 1.2990(4) 0.2415(2)
C15 C 0.9783(5) 1.2522(5) 0.1391(2)
H13 H 1.0042 1.3622 0.0958
H14 H 0.8735 1.1954 0.1195
H15 H 1.0885 1.1690 0.1365
loop_
_geom_bond_atom_site_label_1
_geom_bond_atom_site_label_2
_geom_bond_site_symmetry_1
_geom_bond_site_symmetry_2
O1 C3 1_555 1_555
O2 C3 1_555 1_555
O3 C4 1_555 1_555
O4 C6 1_555 1_555
O5 C14 1_555 1_555
N1 H1 1_555 1_555
C1 H2 1_555 1_555
H3 C1 1_555 1_555
H4 C1 1_555 1_555
C2 H5 1_555 1_555
H6 C2 1_555 1_555
H7 C2 1_555 1_555
C3 C1 1_555 1_555
C4 O1 1_555 1_555
C5 C4 1_555 1_555
C6 O2 1_555 1_555
C7 N1 1_555 1_555
H8 C7 1_555 1_555
C8 N1 1_555 1_555
C9 C8 1_555 1_555
H9 C9 1_555 1_555
C10 C9 1_555 1_555
H10 C10 1_555 1_555
C11 C10 1_555 1_555
C12 C11 1_555 1_555
H11 C12 1_555 1_555
C13 C8 1_555 1_555
H12 C13 1_555 1_555
C14 C11 1_555 1_555
C15 C14 1_555 1_555
H13 C15 1_555 1_555
H14 C15 1_555 1_555
H15 C15 1_555 1_555
C2 C3 1_555 1_555
C5 C6 1_555 1_555
C5 C7 1_555 1_555
C12 C13 1_555 1_555

#END
