
#######################################################################
#
#                 Cambridge Crystallographic Data Centre
#                                CCDC 
#
#######################################################################
#
# If this CIF has been generated from an entry in the Cambridge 
# Structural Database, then it will include bibliographic, chemical, 
# crystal, experimental, refinement or atomic coordinate data resulting 
# from the CCDC's data processing and validation procedures.
#
#######################################################################

data_SOYPON
_chemical_formula_moiety         'C20 H20 Cl1 N3 O1,C1 H2 Cl2'
_chemical_name_systematic        
'2-((2-(5-Chloro-1H-indol-3-yl)cyclohexyl)carbamoyl)pyridinium dichloromethane solvate'
_symmetry_cell_setting           orthorhombic
_symmetry_space_group_name_H-M   'P 21 21 21'
_symmetry_Int_Tables_number      19
_space_group_name_Hall           'P 2ac 2ab'
loop_
_symmetry_equiv_pos_site_id
_symmetry_equiv_pos_as_xyz
1 x,y,z
2 1/2-x,-y,1/2+z
3 -x,1/2+y,1/2-z
4 1/2+x,1/2-y,-z
_cell_length_a                   8.2063(3)
_cell_length_b                   12.3662(5)
_cell_length_c                   21.0737(8)
_cell_angle_alpha                90
_cell_angle_beta                 90
_cell_angle_gamma                90
_cell_volume                     2138.57
_exptl_crystal_colour            colorless
_exptl_crystal_description       block
_cell_formula_units_Z            4
loop_
_atom_site_label
_atom_site_type_symbol
_atom_site_fract_x
_atom_site_fract_y
_atom_site_fract_z
Cl1 Cl 0.12383(15) 0.41336(11) 0.07449(6)
O1 O 0.2118(4) -0.1803(3) -0.23323(13)
N1 N -0.0616(5) 0.2115(3) -0.16493(15)
H1 H -0.1133 0.2333 -0.1981
N2 N 0.2914(4) -0.0523(2) -0.16424(13)
H2 H 0.3517 0.0036 -0.1583
N3 N 0.4997(5) 0.0297(3) -0.25237(17)
C1 C -0.0257(5) 0.2731(3) -0.11291(17)
C2 C -0.0597(5) 0.3820(3) -0.1003(2)
H3 H -0.1144 0.4249 -0.1297
C3 C -0.0092(5) 0.4234(3) -0.0428(2)
H4 H -0.0290 0.4956 -0.0331
C4 C 0.0715(5) 0.3577(3) 0.0008(2)
C5 C 0.1096(5) 0.2514(3) -0.01110(18)
H5 H 0.1662 0.2100 0.0184
C6 C 0.0600(4) 0.2075(3) -0.06958(18)
C7 C 0.0742(4) 0.1024(3) -0.09797(16)
C8 C -0.0021(5) 0.1104(3) -0.15559(18)
H6 H -0.0119 0.0539 -0.1845
C9 C 0.1475(4) 0.0048(3) -0.06692(16)
H7 H 0.2515 0.0268 -0.0480
C10 C 0.0380(6) -0.0357(3) -0.01322(18)
H8 H -0.0676 -0.0551 -0.0306
H9 H 0.0215 0.0224 0.0171
C11 C 0.1099(6) -0.1336(3) 0.02121(18)
H10 H 0.2101 -0.1128 0.0424
H11 H 0.0338 -0.1588 0.0532
C12 C 0.1447(7) -0.2245(4) -0.0257(2)
H12 H 0.1962 -0.2844 -0.0037
H13 H 0.0430 -0.2503 -0.0437
C13 C 0.2553(5) -0.1854(3) -0.07860(18)
H14 H 0.2721 -0.2436 -0.1088
H15 H 0.3604 -0.1659 -0.0610
C14 C 0.1826(5) -0.0874(3) -0.11311(16)
H16 H 0.0790 -0.1097 -0.1322
C15 C 0.3004(5) -0.1039(3) -0.21952(17)
C16 C 0.4298(5) -0.0653(3) -0.26462(17)
C17 C 0.4746(5) -0.1287(4) -0.31558(19)
H17 H 0.4216 -0.1937 -0.3236
C18 C 0.5991(6) -0.0939(4) -0.3544(2)
H18 H 0.6341 -0.1363 -0.3883
C19 C 0.6709(6) 0.0046(5) -0.3422(2)
H19 H 0.7532 0.0310 -0.3683
C20 C 0.6189(6) 0.0623(4) -0.2913(3)
H20 H 0.6689 0.1283 -0.2830
Cl2 Cl 0.9046(2) -0.36252(11) -0.17696(6)
Cl3 Cl 0.7119(2) -0.16952(14) -0.15570(7)
C21 C 0.7958(8) -0.2567(4) -0.2109(2)
H21 H 0.8679 -0.2160 -0.2385
H22 H 0.7091 -0.2864 -0.2369
H23? H 0.4694 0.0685 -0.2206
loop_
_geom_bond_atom_site_label_1
_geom_bond_atom_site_label_2
_geom_bond_site_symmetry_1
_geom_bond_site_symmetry_2
Cl1 C4 1_555 1_555
O1 C15 1_555 1_555
N1 H1 1_555 1_555
N2 H2 1_555 1_555
N3 C16 1_555 1_555
C1 N1 1_555 1_555
C2 C1 1_555 1_555
H3 C2 1_555 1_555
C3 C2 1_555 1_555
H4 C3 1_555 1_555
C4 C3 1_555 1_555
C5 C4 1_555 1_555
H5 C5 1_555 1_555
C6 C1 1_555 1_555
C7 C6 1_555 1_555
C8 N1 1_555 1_555
H6 C8 1_555 1_555
C9 C7 1_555 1_555
H7 C9 1_555 1_555
C10 C9 1_555 1_555
H8 C10 1_555 1_555
H9 C10 1_555 1_555
C11 C10 1_555 1_555
H10 C11 1_555 1_555
H11 C11 1_555 1_555
C12 C11 1_555 1_555
H12 C12 1_555 1_555
H13 C12 1_555 1_555
C13 C12 1_555 1_555
H14 C13 1_555 1_555
H15 C13 1_555 1_555
C14 N2 1_555 1_555
H16 C14 1_555 1_555
C15 N2 1_555 1_555
C16 C15 1_555 1_555
C17 C16 1_555 1_555
H17 C17 1_555 1_555
C18 C17 1_555 1_555
H18 C18 1_555 1_555
C19 C18 1_555 1_555
H19 C19 1_555 1_555
C20 N3 1_555 1_555
H20 C20 1_555 1_555
Cl2 C21 1_555 1_555
Cl3 C21 1_555 1_555
C21 H21 1_555 1_555
H22 C21 1_555 1_555
C5 C6 1_555 1_555
C7 C8 1_555 1_555
C9 C14 1_555 1_555
C13 C14 1_555 1_555
C19 C20 1_555 1_555

#END
