
#######################################################################
#
#                 Cambridge Crystallographic Data Centre
#                                CCDC 
#
#######################################################################
#
# If this CIF has been generated from an entry in the Cambridge 
# Structural Database, then it will include bibliographic, chemical, 
# crystal, experimental, refinement or atomic coordinate data resulting 
# from the CCDC's data processing and validation procedures.
#
#######################################################################

data_SOYQAZ
_chemical_name_common            
(E)-N'-(2-Cyanophenyl)-N,N-dimethylformamidine
_chemical_formula_moiety         'C10 H11 N3'
_chemical_name_systematic        
2-((E)-(Dimethylamino)methyleneamino)benzonitrile
_symmetry_cell_setting           monoclinic
_symmetry_space_group_name_H-M   'P 21/n'
_symmetry_Int_Tables_number      14
_space_group_name_Hall           '-P 2yn'
loop_
_symmetry_equiv_pos_site_id
_symmetry_equiv_pos_as_xyz
1 x,y,z
2 1/2-x,1/2+y,1/2-z
3 -x,-y,-z
4 1/2+x,1/2-y,1/2+z
_cell_length_a                   7.7468(15)
_cell_length_b                   11.212(2)
_cell_length_c                   11.042(2)
_cell_angle_alpha                90
_cell_angle_beta                 109.67(3)
_cell_angle_gamma                90
_cell_volume                     903.111
_exptl_crystal_colour            colorless
_exptl_crystal_description       cube
_chemical_melting_point          '338-339 K'
_cell_formula_units_Z            4
_exptl_crystal_recrystallization_method 'ethyl acetate/petroleum ether'
loop_
_atom_site_label
_atom_site_type_symbol
_atom_site_fract_x
_atom_site_fract_y
_atom_site_fract_z
N1 N -0.14481(15) 0.99786(9) 0.10732(10)
N2 N 0.07129(13) 0.79099(9) 0.36257(9)
N3 N 0.06421(14) 0.76114(9) 0.56842(9)
C1 C -0.06597(16) 0.90883(10) 0.12357(11)
C2 C 0.02451(15) 0.79498(10) 0.13459(11)
C3 C 0.04571(16) 0.74551(11) 0.02435(11)
H1 H 0.0069 0.7875 -0.0527
C4 C 0.12454(16) 0.63393(11) 0.02985(12)
H2 H 0.1380 0.6005 -0.0435
C5 C 0.18342(16) 0.57226(11) 0.14586(11)
H3 H 0.2354 0.4970 0.1496
C6 C 0.16547(15) 0.62165(10) 0.25572(11)
H4 H 0.2079 0.5795 0.3326
C7 C 0.08444(16) 0.73434(11) 0.25378(11)
C8 C 0.04348(16) 0.72373(11) 0.45021(11)
H5 H 0.0071 0.6452 0.4290
C9 C 0.02345(19) 0.68383(12) 0.66108(13)
H6 H -0.0296 0.6108 0.6197
H7 H -0.0615 0.7231 0.6941
H8 H 0.1345 0.6666 0.7305
C10 C 0.13692(18) 0.87915(11) 0.61196(12)
H9 H 0.2098 0.9060 0.5621
H10 H 0.2115 0.8756 0.7011
H11 H 0.0374 0.9337 0.6014
loop_
_geom_bond_atom_site_label_1
_geom_bond_atom_site_label_2
_geom_bond_site_symmetry_1
_geom_bond_site_symmetry_2
N1 C1 1_555 1_555
N2 C7 1_555 1_555
N3 C8 1_555 1_555
C1 C2 1_555 1_555
C2 C3 1_555 1_555
C3 H1 1_555 1_555
C4 C3 1_555 1_555
H2 C4 1_555 1_555
C5 C4 1_555 1_555
H3 C5 1_555 1_555
C6 C5 1_555 1_555
H4 C6 1_555 1_555
C7 C2 1_555 1_555
C8 N2 1_555 1_555
H5 C8 1_555 1_555
C9 N3 1_555 1_555
H6 C9 1_555 1_555
H7 C9 1_555 1_555
H8 C9 1_555 1_555
C10 N3 1_555 1_555
H9 C10 1_555 1_555
H10 C10 1_555 1_555
H11 C10 1_555 1_555
C6 C7 1_555 1_555

#END
