
#######################################################################
#
#                 Cambridge Crystallographic Data Centre
#                                CCDC 
#
#######################################################################
#
# If this CIF has been generated from an entry in the Cambridge 
# Structural Database, then it will include bibliographic, chemical, 
# crystal, experimental, refinement or atomic coordinate data resulting 
# from the CCDC's data processing and validation procedures.
#
#######################################################################

data_SOYQII
_chemical_formula_moiety         'C20 H18 Cl1 N3 O4'
_chemical_name_systematic        
'Methyl (4-(((1-(4-chlorophenyl)-1H-pyrazol-3-yl)oxy)methyl)phenyl)(methoxyimino)acetate'
_symmetry_cell_setting           triclinic
_symmetry_space_group_name_H-M   'P -1'
_symmetry_Int_Tables_number      2
_space_group_name_Hall           '-P 1'
loop_
_symmetry_equiv_pos_site_id
_symmetry_equiv_pos_as_xyz
1 x,y,z
2 -x,-y,-z
_cell_length_a                   8.8610(18)
_cell_length_b                   9.2940(19)
_cell_length_c                   13.582(3)
_cell_angle_alpha                100.18(3)
_cell_angle_beta                 104.92(3)
_cell_angle_gamma                106.40(3)
_cell_volume                     998.606
_exptl_crystal_colour            colorless
_exptl_crystal_description       block
_cell_formula_units_Z            2
loop_
_atom_site_label
_atom_site_type_symbol
_atom_site_fract_x
_atom_site_fract_y
_atom_site_fract_z
Cl1 Cl 0.71674(12) 1.09113(12) 1.09568(7)
O1 O 0.6663(3) -0.4318(2) 0.28936(18)
N1 N 0.7781(3) 0.6235(3) 0.68515(19)
C1 C 0.7821(5) -0.5165(4) 0.2973(3)
H1 H 0.7376 -0.6098 0.3169
H2 H 0.8866 -0.4524 0.3500
H3 H 0.7984 -0.5432 0.2302
O2 O 0.8415(3) -0.2446(3) 0.2500(2)
N2 N 0.8512(3) 0.7829(3) 0.72521(18)
C2 C 0.7117(4) -0.3004(3) 0.2628(2)
O3 O 0.4424(3) -0.4044(2) 0.10084(17)
C3 C 0.2872(5) -0.4622(4) 0.0185(3)
H4 H 0.2828 -0.5512 -0.0319
H5 H 0.2748 -0.3826 -0.0161
H6 H 0.1989 -0.4919 0.0476
O4 O 0.8054(3) 0.4469(2) 0.55105(17)
N3 N 0.4476(3) -0.2749(3) 0.1739(2)
C4 C 0.5800(4) -0.2254(3) 0.2537(2)
C5 C 0.6090(3) -0.0852(3) 0.3358(2)
C6 C 0.5270(4) 0.0190(3) 0.3137(2)
H7 H 0.4558 0.0012 0.2458
C7 C 0.5504(4) 0.1476(3) 0.3912(3)
H8 H 0.4931 0.2148 0.3754
C8 C 0.6578(4) 0.1786(3) 0.4925(2)
C9 C 0.7400(4) 0.0766(4) 0.5145(2)
H9 H 0.8127 0.0958 0.5822
C10 C 0.7158(4) -0.0540(3) 0.4370(2)
H10 H 0.7721 -0.1218 0.4533
C11 C 0.6888(4) 0.3252(3) 0.5738(3)
H11 H 0.5861 0.3461 0.5685
H12 H 0.7350 0.3165 0.6446
C12 C 0.8445(3) 0.5927(3) 0.6110(2)
C13 C 0.9563(4) 0.7237(3) 0.6015(2)
H13 H 1.0165 0.7286 0.5546
C14 C 0.9581(4) 0.8418(3) 0.6753(2)
H14 H 1.0220 0.9461 0.6897
C15 C 0.8155(3) 0.8579(3) 0.8120(2)
C16 C 0.7067(4) 0.7724(3) 0.8536(2)
H15 H 0.6548 0.6657 0.8234
C17 C 0.6736(4) 0.8435(4) 0.9398(2)
H16 H 0.5990 0.7854 0.9673
C18 C 0.7524(4) 1.0017(4) 0.9846(2)
C19 C 0.8587(4) 1.0878(4) 0.9419(2)
H17 H 0.9083 1.1948 0.9713
C20 C 0.8930(4) 1.0176(3) 0.8560(2)
H18 H 0.9665 1.0761 0.8281
loop_
_geom_bond_atom_site_label_1
_geom_bond_atom_site_label_2
_geom_bond_site_symmetry_1
_geom_bond_site_symmetry_2
Cl1 C18 1_555 1_555
O1 C1 1_555 1_555
N1 N2 1_555 1_555
C1 H1 1_555 1_555
H2 C1 1_555 1_555
H3 C1 1_555 1_555
O2 C2 1_555 1_555
N2 C14 1_555 1_555
C2 O1 1_555 1_555
O3 C3 1_555 1_555
C3 H4 1_555 1_555
H5 C3 1_555 1_555
H6 C3 1_555 1_555
O4 C11 1_555 1_555
N3 O3 1_555 1_555
C4 C2 1_555 1_555
C5 C4 1_555 1_555
C6 C5 1_555 1_555
H7 C6 1_555 1_555
C7 C6 1_555 1_555
H8 C7 1_555 1_555
C8 C7 1_555 1_555
C9 C8 1_555 1_555
H9 C9 1_555 1_555
C10 C5 1_555 1_555
H10 C10 1_555 1_555
C11 C8 1_555 1_555
H11 C11 1_555 1_555
H12 C11 1_555 1_555
C12 N1 1_555 1_555
C13 C12 1_555 1_555
H13 C13 1_555 1_555
C14 C13 1_555 1_555
H14 C14 1_555 1_555
C15 N2 1_555 1_555
C16 C15 1_555 1_555
H15 C16 1_555 1_555
C17 C16 1_555 1_555
H16 C17 1_555 1_555
C18 C17 1_555 1_555
C19 C18 1_555 1_555
H17 C19 1_555 1_555
C20 C15 1_555 1_555
H18 C20 1_555 1_555
O4 C12 1_555 1_555
N3 C4 1_555 1_555
C9 C10 1_555 1_555
C19 C20 1_555 1_555

#END
