
#######################################################################
#
#                 Cambridge Crystallographic Data Centre
#                                CCDC 
#
#######################################################################
#
# If this CIF has been generated from an entry in the Cambridge 
# Structural Database, then it will include bibliographic, chemical, 
# crystal, experimental, refinement or atomic coordinate data resulting 
# from the CCDC's data processing and validation procedures.
#
#######################################################################

data_SOYROP
_chemical_formula_moiety         'C22 H20 Cl1 N1 O5'
_chemical_name_systematic        
'Methyl (R,Z)-2-acetoxy-4-(4-chlorophenyl)-4-((S)-1-methyl-2-oxo-2,3-dihydro-1H-indol-3-yl)but-2-enoate'
_symmetry_cell_setting           orthorhombic
_symmetry_space_group_name_H-M   'P 21 21 21'
_symmetry_Int_Tables_number      19
_space_group_name_Hall           'P 2ac 2ab'
loop_
_symmetry_equiv_pos_site_id
_symmetry_equiv_pos_as_xyz
1 x,y,z
2 1/2+x,1/2-y,-z
3 -x,1/2+y,1/2-z
4 1/2-x,-y,1/2+z
_cell_length_a                   9.5392(12)
_cell_length_b                   14.1342(18)
_cell_length_c                   15.2072(19)
_cell_angle_alpha                90
_cell_angle_beta                 90
_cell_angle_gamma                90
_cell_volume                     2050.37
_exptl_crystal_colour            yellow
_exptl_crystal_description       prism
_chemical_melting_point          '140.0-141.5 deg.C'
_cell_formula_units_Z            4
loop_
_atom_site_label
_atom_site_type_symbol
_atom_site_fract_x
_atom_site_fract_y
_atom_site_fract_z
Cl1 Cl 0.59560(4) 0.21612(3) -0.18732(2)
O1 O 0.67545(9) 0.34080(6) 0.30170(5)
O2 O 0.31821(10) 0.31328(7) 0.36857(6)
O3 O 0.51308(10) 0.24284(6) 0.42055(6)
O4 O 0.66628(10) 0.42925(7) 0.42486(6)
O5 O 0.57528(12) 0.60716(7) 0.27029(7)
N1 N 0.33685(13) 0.60519(8) 0.24529(6)
C1 C 0.57888(13) 0.27835(9) -0.08882(7)
C2 C 0.48008(14) 0.24874(9) -0.02771(8)
H1 H 0.4218 0.1958 -0.0395
C3 C 0.46790(13) 0.29816(9) 0.05143(8)
H2 H 0.4003 0.2788 0.0936
C4 C 0.55395(12) 0.37570(8) 0.06922(7)
C5 C 0.54493(13) 0.43243(8) 0.15424(7)
H3 H 0.6429 0.4435 0.1752
C6 C 0.46776(13) 0.38221(8) 0.22631(7)
H4 H 0.3688 0.3771 0.2215
C7 C 0.52926(12) 0.34433(8) 0.29665(7)
C8 C 0.73396(12) 0.38610(9) 0.37235(8)
C9 C 0.88974(14) 0.37268(12) 0.37232(10)
H5 H 0.9287 0.3959 0.4279
H6 H 0.9309 0.4081 0.3233
H7 H 0.9115 0.3053 0.3657
C10 C 0.45488(12) 0.29465(8) 0.36928(7)
C11 C 0.23852(15) 0.26545(13) 0.43627(10)
H8 H 0.2520 0.1970 0.4309
H9 H 0.1388 0.2805 0.4295
H10 H 0.2708 0.2865 0.4942
C12 C 0.47668(14) 0.53103(8) 0.13833(8)
H11 H 0.5327 0.5669 0.0939
C13 C 0.32446(15) 0.53040(8) 0.11172(8)
C14 C 0.25737(16) 0.49752(9) 0.03712(9)
H12 H 0.3093 0.4677 -0.0084
C15 C 0.11250(17) 0.50870(10) 0.02955(10)
H13 H 0.0654 0.4863 -0.0214
C16 C 0.03696(17) 0.55238(11) 0.09606(11)
H14 H -0.0616 0.5594 0.0899
C17 C 0.10283(17) 0.58630(10) 0.17205(10)
H15 H 0.0510 0.6160 0.2177
C18 C 0.24656(15) 0.57486(9) 0.17791(8)
C19 C 0.28999(17) 0.65190(10) 0.32491(8)
H16 H 0.3692 0.6590 0.3654
H17 H 0.2167 0.6138 0.3529
H18 H 0.2524 0.7145 0.3102
C20 C 0.47388(15) 0.58600(9) 0.22558(8)
C21 C 0.65186(13) 0.40327(9) 0.00599(8)
H19 H 0.7110 0.4559 0.0175
C22 C 0.66473(14) 0.35556(9) -0.07338(8)
H20 H 0.7310 0.3755 -0.1162
loop_
_geom_bond_atom_site_label_1
_geom_bond_atom_site_label_2
_geom_bond_site_symmetry_1
_geom_bond_site_symmetry_2
Cl1 C1 1_555 1_555
O1 C7 1_555 1_555
O2 C10 1_555 1_555
O3 C10 1_555 1_555
O4 C8 1_555 1_555
O5 C20 1_555 1_555
N1 C18 1_555 1_555
C1 C2 1_555 1_555
C2 H1 1_555 1_555
C3 C2 1_555 1_555
H2 C3 1_555 1_555
C4 C3 1_555 1_555
C5 C4 1_555 1_555
H3 C5 1_555 1_555
C6 C5 1_555 1_555
H4 C6 1_555 1_555
C7 C6 1_555 1_555
C8 O1 1_555 1_555
C9 C8 1_555 1_555
H5 C9 1_555 1_555
H6 C9 1_555 1_555
H7 C9 1_555 1_555
C10 C7 1_555 1_555
C11 O2 1_555 1_555
H8 C11 1_555 1_555
H9 C11 1_555 1_555
H10 C11 1_555 1_555
C12 C5 1_555 1_555
H11 C12 1_555 1_555
C13 C12 1_555 1_555
C14 C13 1_555 1_555
H12 C14 1_555 1_555
C15 C14 1_555 1_555
H13 C15 1_555 1_555
C16 C15 1_555 1_555
H14 C16 1_555 1_555
C17 C16 1_555 1_555
H15 C17 1_555 1_555
C18 C13 1_555 1_555
C19 N1 1_555 1_555
H16 C19 1_555 1_555
H17 C19 1_555 1_555
H18 C19 1_555 1_555
C20 N1 1_555 1_555
C21 C4 1_555 1_555
H19 C21 1_555 1_555
C22 C1 1_555 1_555
H20 C22 1_555 1_555
C12 C20 1_555 1_555
C17 C18 1_555 1_555
C21 C22 1_555 1_555

#END
