
#######################################################################
#
#                 Cambridge Crystallographic Data Centre
#                                CCDC 
#
#######################################################################
#
# If this CIF has been generated from an entry in the Cambridge 
# Structural Database, then it will include bibliographic, chemical, 
# crystal, experimental, refinement or atomic coordinate data resulting 
# from the CCDC's data processing and validation procedures.
#
#######################################################################

data_SOYRUU
_chemical_formula_moiety         'C14 H12 N2 O4'
_chemical_name_systematic        'Methyl 4-anilino-3-nitrobenzoate'
_symmetry_cell_setting           monoclinic
_symmetry_space_group_name_H-M   'P 21/c'
_symmetry_Int_Tables_number      14
_space_group_name_Hall           '-P 2ybc'
loop_
_symmetry_equiv_pos_site_id
_symmetry_equiv_pos_as_xyz
1 x,y,z
2 -x,1/2+y,1/2-z
3 -x,-y,-z
4 x,1/2-y,1/2+z
_cell_length_a                   11.641(2)
_cell_length_b                   16.349(3)
_cell_length_c                   7.2490(14)
_cell_angle_alpha                90
_cell_angle_beta                 107.50(3)
_cell_angle_gamma                90
_cell_volume                     1315.77
_exptl_crystal_colour            colorless
_exptl_crystal_description       block
_cell_formula_units_Z            4
_exptl_crystal_recrystallization_method ethanol
loop_
_atom_site_label
_atom_site_type_symbol
_atom_site_fract_x
_atom_site_fract_y
_atom_site_fract_z
O1 O 0.0837(2) 0.05896(17) 0.1085(4)
O2 O 0.2328(2) 0.11328(16) 0.2971(4)
O3 O 0.1608(3) 0.48217(18) 0.1788(5)
O4 O 0.2843(2) 0.39247(16) 0.3690(4)
N1 N -0.1155(2) 0.14101(18) -0.0669(4)
H1 H -0.0836 0.0932 -0.0446
N2 N 0.1335(3) 0.11733(17) 0.1801(5)
C1 C -0.4811(4) 0.1408(3) -0.3820(7)
H2 H -0.5621 0.1397 -0.4538
C2 C -0.4423(4) 0.1887(3) -0.2185(7)
H3 H -0.4973 0.2200 -0.1789
C3 C -0.3218(3) 0.1902(3) -0.1139(6)
H4 H -0.2959 0.2222 -0.0031
C4 C -0.2393(3) 0.1441(2) -0.1731(5)
C5 C -0.2794(3) 0.0959(2) -0.3384(5)
H5 H -0.2254 0.0647 -0.3808
C6 C -0.3991(4) 0.0951(3) -0.4367(6)
H6 H -0.4259 0.0621 -0.5457
C7 C -0.0420(3) 0.2050(2) 0.0031(5)
C8 C -0.0795(3) 0.2868(2) -0.0439(5)
H7 H -0.1567 0.2963 -0.1260
C9 C -0.0075(3) 0.3514(2) 0.0258(5)
H8 H -0.0363 0.4039 -0.0101
C10 C 0.1095(3) 0.3414(2) 0.1510(5)
C11 C 0.1507(3) 0.2631(2) 0.1962(5)
H9 H 0.2284 0.2549 0.2777
C12 C 0.0786(3) 0.1958(2) 0.1226(5)
C13 C 0.1830(4) 0.4131(2) 0.2287(6)
C14 C 0.3604(4) 0.4579(3) 0.4546(7)
H10 H 0.4293 0.4372 0.5528
H11 H 0.3174 0.4954 0.5116
H12 H 0.3865 0.4858 0.3576
loop_
_geom_bond_atom_site_label_1
_geom_bond_atom_site_label_2
_geom_bond_site_symmetry_1
_geom_bond_site_symmetry_2
O1 N2 1_555 1_555
O2 N2 1_555 1_555
O3 C13 1_555 1_555
O4 C13 1_555 1_555
N1 H1 1_555 1_555
N2 C12 1_555 1_555
C1 H2 1_555 1_555
C2 C1 1_555 1_555
H3 C2 1_555 1_555
C3 C2 1_555 1_555
H4 C3 1_555 1_555
C4 N1 1_555 1_555
C5 C4 1_555 1_555
H5 C5 1_555 1_555
C6 C1 1_555 1_555
H6 C6 1_555 1_555
C7 N1 1_555 1_555
C8 C7 1_555 1_555
H7 C8 1_555 1_555
C9 C8 1_555 1_555
H8 C9 1_555 1_555
C10 C9 1_555 1_555
C11 C10 1_555 1_555
H9 C11 1_555 1_555
C12 C7 1_555 1_555
C13 C10 1_555 1_555
C14 O4 1_555 1_555
H10 C14 1_555 1_555
H11 C14 1_555 1_555
H12 C14 1_555 1_555
C3 C4 1_555 1_555
C5 C6 1_555 1_555
C11 C12 1_555 1_555

#END
