
#######################################################################
#
#                 Cambridge Crystallographic Data Centre
#                                CCDC 
#
#######################################################################
#
# If this CIF has been generated from an entry in the Cambridge 
# Structural Database, then it will include bibliographic, chemical, 
# crystal, experimental, refinement or atomic coordinate data resulting 
# from the CCDC's data processing and validation procedures.
#
#######################################################################

data_SOYROO
_chemical_formula_moiety         'C36 H48 O9,0.86(C3 H6 O1)'
_chemical_name_systematic        
'4,5,7-Trimethoxy-2-methyl-3-(2,4,5-trimethoxyphenyl)-1-(3-(2,4,5-trimethoxyphenyl)pentan-2-yl)indan acetone solvate'
_symmetry_cell_setting           triclinic
_symmetry_space_group_name_H-M   'P -1'
_symmetry_Int_Tables_number      2
_space_group_name_Hall           '-P 1'
loop_
_symmetry_equiv_pos_site_id
_symmetry_equiv_pos_as_xyz
1 x,y,z
2 -x,-y,-z
_cell_length_a                   8.9234(10)
_cell_length_b                   13.2672(14)
_cell_length_c                   16.3992(18)
_cell_angle_alpha                87.757(2)
_cell_angle_beta                 80.09000(10)
_cell_angle_gamma                76.02201(10)
_cell_volume                     1855.87
_exptl_crystal_colour            colorless
_exptl_crystal_description       plate
_chemical_melting_point          '408 K'
_cell_formula_units_Z            2
loop_
_atom_site_label
_atom_site_type_symbol
_atom_site_fract_x
_atom_site_fract_y
_atom_site_fract_z
O1 O 1.1931(2) 0.14498(15) 0.22957(13)
O2 O 0.9453(3) 0.25903(16) -0.01442(11)
O3 O 1.1952(3) 0.16737(17) 0.39503(14)
O4 O 0.7166(3) -0.01714(17) 0.20417(13)
O5 O 0.7116(3) -0.03625(16) 0.04828(13)
O6 O 0.0148(3) 0.66946(18) 0.36065(14)
O7 O 0.5805(3) 0.66492(16) 0.15812(14)
O8 O 0.7466(3) 0.46292(17) 0.40510(13)
O9 O 0.1064(3) 0.84904(18) 0.33474(16)
C1 C 0.8901(3) 0.2026(2) 0.12217(16)
C2 C 0.8868(3) 0.1895(2) 0.03872(17)
C3 C 0.8520(3) 0.4007(2) 0.13985(17)
H1 H 0.7865 0.4008 0.0976
C4 C 0.8538(3) 0.3652(2) 0.28242(17)
C5 C 1.0852(3) 0.2234(2) 0.27625(18)
C6 C 0.3909(3) 0.5759(2) 0.22003(17)
C7 C 0.7756(3) 0.0537(2) 0.15255(18)
C8 C 0.9700(3) 0.2873(2) 0.23899(17)
C9 C 0.4851(3) 0.4764(2) 0.17502(17)
H2 H 0.5580 0.4977 0.1297
C10 C 0.7474(3) 0.4266(2) 0.22550(16)
H3 H 0.7293 0.5009 0.2368
C11 C 0.4390(4) 0.6688(2) 0.20851(19)
C12 C 0.5879(3) 0.3984(2) 0.22794(17)
H4 H 0.6112 0.3307 0.2006
C13 C 0.8590(4) 0.3818(2) 0.36492(18)
C14 C 0.7717(3) 0.0435(2) 0.06860(18)
C15 C 0.9742(4) 0.3178(2) 0.40316(19)
H5 H 0.9774 0.3290 0.4584
C16 C 0.1547(4) 0.6702(2) 0.30812(18)
C17 C 0.2479(3) 0.5802(2) 0.27077(17)
H6 H 0.2134 0.5193 0.2800
C18 C 0.9554(3) 0.2895(2) 0.14877(16)
H7 H 1.0592 0.2851 0.1156
C19 C 1.0842(4) 0.2374(2) 0.36009(19)
C20 C 0.9528(4) 0.4779(2) 0.1168(2)
H8 H 1.0092 0.4823 0.1609
H9 H 0.8873 0.5449 0.1080
H10 H 1.0257 0.4553 0.0671
C21 C 0.8280(4) 0.1111(2) 0.01227(18)
H11 H 0.8265 0.1040 -0.0438
C22 C 0.3788(4) 0.4259(3) 0.1338(2)
H12 H 0.3224 0.3889 0.1757
H13 H 0.3021 0.4804 0.1122
C23 C 0.2052(4) 0.7620(2) 0.2949(2)
C24 C 0.9350(5) 0.2536(3) -0.09955(19)
H14 H 0.8274 0.2628 -0.1055
H15 H 0.9942 0.1871 -0.1214
H16 H 0.9766 0.3074 -0.1293
C25 C 0.5048(4) 0.3847(3) 0.31565(19)
H17 H 0.5683 0.3284 0.3421
H18 H 0.4057 0.3694 0.3133
H19 H 0.4880 0.4475 0.3466
C26 C 0.3467(4) 0.7606(2) 0.2450(2)
H20 H 0.3805 0.8218 0.2357
C27 C 0.7102(4) -0.0519(3) -0.0364(2)
H21 H 0.6718 -0.1123 -0.0424
H22 H 0.8147 -0.0616 -0.0669
H23 H 0.6433 0.0077 -0.0574
C28 C 0.6242(5) 0.7593(3) 0.1351(3)
H24 H 0.6383 0.7922 0.1833
H25 H 0.5435 0.8044 0.1100
H26 H 0.7205 0.7450 0.0963
C29 C 0.7729(6) 0.4980(3) 0.4807(2)
H27 H 0.6969 0.5615 0.4973
H28 H 0.8762 0.5100 0.4735
H29 H 0.7633 0.4463 0.5227
C30 C 0.4646(5) 0.3512(3) 0.0641(2)
H30 H 0.3901 0.3262 0.0397
H31 H 0.5346 0.2937 0.0857
H32 H 0.5235 0.3864 0.0229
C31 C 1.3527(4) 0.1453(3) 0.2235(3)
H33 H 1.4164 0.0842 0.1943
H34 H 1.3781 0.1457 0.2780
H35 H 1.3722 0.2060 0.1941
C32 C 0.7076(5) -0.0056(3) 0.2900(2)
H36 H 0.6516 -0.0532 0.3191
H37 H 0.6535 0.0642 0.3062
H38 H 0.8114 -0.0201 0.3032
C33 C 0.1433(6) 0.9472(3) 0.3104(3)
H39 H 0.0658 1.0025 0.3402
H40 H 0.1442 0.9571 0.2521
H41 H 0.2446 0.9473 0.3229
C34 C 1.2133(6) 0.1858(3) 0.4760(2)
H42 H 1.2986 0.1333 0.4912
H43 H 1.1187 0.1839 0.5134
H44 H 1.2352 0.2528 0.4788
C35 C -0.1154(5) 0.6869(4) 0.3199(3)
H45 H -0.2094 0.6948 0.3601
H46 H -0.1055 0.6290 0.2844
H47 H -0.1202 0.7490 0.2873
C36 C 0.8340(3) 0.1327(2) 0.17745(18)
H48 H 0.8360 0.1394 0.2335
C37 C 0.5792(18) 0.2552(10) 0.5382(9)
H49 H 0.5361 0.2849 0.4905
H50 H 0.6648 0.2845 0.5447
H51 H 0.4998 0.2700 0.5866
C38 C 0.7892(15) 0.1035(12) 0.4803(9)
H52 H 0.7878 0.1183 0.4226
H53 H 0.8182 0.0297 0.4881
H54 H 0.8637 0.1347 0.4989
O10 O 0.5576(11) 0.0861(8) 0.5564(6)
C39 C 0.6341(13) 0.1455(9) 0.5276(8)
C40? C 0.5899(15) 0.1928(9) 0.5469(7)
C41? C 0.5848(16) 0.3015(8) 0.5510(8)
C42? C 0.7096(19) 0.1325(13) 0.4835(10)
H55? H 0.5885 0.3306 0.4963
H56? H 0.6729 0.3104 0.5738
H57? H 0.4896 0.3363 0.5855
H58? H 0.7284 0.1757 0.4364
H59? H 0.6744 0.0747 0.4671
H60? H 0.8048 0.1074 0.5055
O11? O 0.5069(10) 0.1506(7) 0.5948(5)
loop_
_geom_bond_atom_site_label_1
_geom_bond_atom_site_label_2
_geom_bond_site_symmetry_1
_geom_bond_site_symmetry_2
O1 C5 1_555 1_555
O2 C2 1_555 1_555
O3 C19 1_555 1_555
O4 C7 1_555 1_555
O5 C14 1_555 1_555
O6 C16 1_555 1_555
O7 C11 1_555 1_555
O8 C13 1_555 1_555
O9 C23 1_555 1_555
C1 C2 1_555 1_555
C2 C21 1_555 1_555
C3 H1 1_555 1_555
C4 C8 1_555 1_555
C5 C8 1_555 1_555
C6 C9 1_555 1_555
C7 C14 1_555 1_555
C8 C18 1_555 1_555
C9 H2 1_555 1_555
C10 C3 1_555 1_555
H3 C10 1_555 1_555
C11 C6 1_555 1_555
C12 C9 1_555 1_555
H4 C12 1_555 1_555
C13 C4 1_555 1_555
C14 C21 1_555 1_555
C15 C13 1_555 1_555
H5 C15 1_555 1_555
C16 C17 1_555 1_555
C17 C6 1_555 1_555
H6 C17 1_555 1_555
C18 C1 1_555 1_555
H7 C18 1_555 1_555
C19 C5 1_555 1_555
C20 C3 1_555 1_555
H8 C20 1_555 1_555
H9 C20 1_555 1_555
H10 C20 1_555 1_555
C21 H11 1_555 1_555
C22 C9 1_555 1_555
H12 C22 1_555 1_555
H13 C22 1_555 1_555
C23 C16 1_555 1_555
C24 O2 1_555 1_555
H14 C24 1_555 1_555
H15 C24 1_555 1_555
H16 C24 1_555 1_555
C25 C12 1_555 1_555
H17 C25 1_555 1_555
H18 C25 1_555 1_555
H19 C25 1_555 1_555
C26 C11 1_555 1_555
H20 C26 1_555 1_555
C27 O5 1_555 1_555
H21 C27 1_555 1_555
H22 C27 1_555 1_555
H23 C27 1_555 1_555
C28 O7 1_555 1_555
H24 C28 1_555 1_555
H25 C28 1_555 1_555
H26 C28 1_555 1_555
C29 O8 1_555 1_555
H27 C29 1_555 1_555
H28 C29 1_555 1_555
H29 C29 1_555 1_555
C30 C22 1_555 1_555
H30 C30 1_555 1_555
H31 C30 1_555 1_555
H32 C30 1_555 1_555
C31 O1 1_555 1_555
H33 C31 1_555 1_555
H34 C31 1_555 1_555
H35 C31 1_555 1_555
C32 O4 1_555 1_555
H36 C32 1_555 1_555
H37 C32 1_555 1_555
H38 C32 1_555 1_555
C33 O9 1_555 1_555
H39 C33 1_555 1_555
H40 C33 1_555 1_555
H41 C33 1_555 1_555
C34 O3 1_555 1_555
H42 C34 1_555 1_555
H43 C34 1_555 1_555
H44 C34 1_555 1_555
C35 O6 1_555 1_555
H45 C35 1_555 1_555
H46 C35 1_555 1_555
H47 C35 1_555 1_555
C36 C1 1_555 1_555
H48 C36 1_555 1_555
C37 H49 1_555 1_555
H50 C37 1_555 1_555
H51 C37 1_555 1_555
C38 H52 1_555 1_555
H53 C38 1_555 1_555
H54 C38 1_555 1_555
O10 C39 1_555 1_555
C39 C37 1_555 1_555
C3 C18 1_555 1_555
C4 C10 1_555 1_555
C7 C36 1_555 1_555
C10 C12 1_555 1_555
C15 C19 1_555 1_555
C23 C26 1_555 1_555
C38 C39 1_555 1_555

#END
