
#######################################################################
#
#                 Cambridge Crystallographic Data Centre
#                                CCDC 
#
#######################################################################
#
# If this CIF has been generated from an entry in the Cambridge 
# Structural Database, then it will include bibliographic, chemical, 
# crystal, experimental, refinement or atomic coordinate data resulting 
# from the CCDC's data processing and validation procedures.
#
#######################################################################

data_SOYSEF
_chemical_formula_moiety         'C22 H25 N1 O3'
_chemical_name_systematic        
2,4-bis(2-methoxyphenyl)-3-azabicyclo[3.3.1]nonan-9-one
_symmetry_cell_setting           monoclinic
_symmetry_space_group_name_H-M   'P 21/n'
_symmetry_Int_Tables_number      14
_space_group_name_Hall           '-P 2yn'
loop_
_symmetry_equiv_pos_site_id
_symmetry_equiv_pos_as_xyz
1 x,y,z
2 1/2-x,1/2+y,1/2-z
3 -x,-y,-z
4 1/2+x,1/2-y,1/2+z
_cell_length_a                   7.8616(2)
_cell_length_b                   20.8443(6)
_cell_length_c                   11.4984(3)
_cell_angle_alpha                90
_cell_angle_beta                 95.8670(10)
_cell_angle_gamma                90
_cell_volume                     1874.37
_exptl_crystal_colour            colorless
_exptl_crystal_description       block
_cell_formula_units_Z            4
_exptl_crystal_recrystallization_method ethanol
loop_
_atom_site_label
_atom_site_type_symbol
_atom_site_fract_x
_atom_site_fract_y
_atom_site_fract_z
C1 C 0.72892(16) 0.98913(6) 0.17176(12)
H1 H 0.7974 0.9851 0.1055
C2 C 0.85201(18) 1.00058(7) 0.28460(14)
H2 H 0.9208 1.0389 0.2735
C3 C 0.7636(2) 1.00894(8) 0.39684(15)
H3 H 0.8479 1.0232 0.4589
H4 H 0.6781 1.0424 0.3840
C4 C 0.6779(2) 0.94870(9) 0.43724(15)
H5 H 0.5702 0.9424 0.3894
H6 H 0.6529 0.9545 0.5175
C5 C 0.7881(2) 0.88909(8) 0.42979(15)
H7 H 0.7179 0.8515 0.4390
H8 H 0.8775 0.8896 0.4945
C6 C 0.87146(18) 0.88257(7) 0.31544(14)
H9 H 0.9521 0.8466 0.3229
C7 C 0.74651(17) 0.87292(6) 0.20328(13)
H10 H 0.8145 0.8689 0.1368
C8 C 0.96882(18) 0.94334(7) 0.29817(14)
C9 C 0.60420(16) 1.04380(6) 0.14722(12)
C10 C 0.43367(18) 1.03906(7) 0.16792(13)
H11 H 0.3947 1.0014 0.1994
C11 C 0.32021(19) 1.08937(8) 0.14269(15)
H12 H 0.2061 1.0851 0.1560
C12 C 0.37750(19) 1.14550(7) 0.09793(14)
H13 H 0.3019 1.1794 0.0818
C13 C 0.54701(18) 1.15209(7) 0.07648(13)
H14 H 0.5850 1.1903 0.0462
C14 C 0.65935(17) 1.10152(6) 0.10043(12)
C15 C 0.63790(17) 0.81319(6) 0.20774(13)
C16 C 0.69939(18) 0.75399(6) 0.17200(13)
C17 C 0.5962(2) 0.69992(7) 0.16825(15)
H15 H 0.6372 0.6609 0.1436
C18 C 0.4323(2) 0.70404(8) 0.20125(16)
H16 H 0.3631 0.6677 0.1982
C19 C 0.3707(2) 0.76145(8) 0.23863(15)
H17 H 0.2610 0.7639 0.2618
C20 C 0.47349(18) 0.81559(7) 0.24150(14)
H18 H 0.4314 0.8543 0.2666
C21 C 0.8836(2) 1.15648(10) 0.01693(18)
H19 H 0.8196 1.1579 -0.0587
H20 H 1.0030 1.1519 0.0079
H21 H 0.8656 1.1955 0.0583
C22 C 0.9277(2) 0.69656(8) 0.09613(18)
H22 H 0.9330 0.6641 0.1556
H23 H 1.0402 0.7041 0.0736
H24 H 0.8538 0.6825 0.0293
N1 N 0.63559(14) 0.92907(5) 0.18328(11)
O1 O 1.12212(14) 0.94572(6) 0.29471(13)
O2 O 0.82804(12) 1.10343(5) 0.08112(10)
O3 O 0.86248(14) 0.75428(5) 0.14027(11)
H25 H 0.567(2) 0.9222(7) 0.1162(15)
loop_
_geom_bond_atom_site_label_1
_geom_bond_atom_site_label_2
_geom_bond_site_symmetry_1
_geom_bond_site_symmetry_2
C1 H1 1_555 1_555
C2 C1 1_555 1_555
H2 C2 1_555 1_555
C3 C2 1_555 1_555
H3 C3 1_555 1_555
H4 C3 1_555 1_555
C4 C3 1_555 1_555
H5 C4 1_555 1_555
H6 C4 1_555 1_555
C5 C4 1_555 1_555
H7 C5 1_555 1_555
H8 C5 1_555 1_555
C6 C5 1_555 1_555
H9 C6 1_555 1_555
C7 C6 1_555 1_555
H10 C7 1_555 1_555
C8 C2 1_555 1_555
C9 C1 1_555 1_555
C10 C9 1_555 1_555
H11 C10 1_555 1_555
C11 C10 1_555 1_555
H12 C11 1_555 1_555
C12 C11 1_555 1_555
H13 C12 1_555 1_555
C13 C12 1_555 1_555
H14 C13 1_555 1_555
C14 C9 1_555 1_555
C15 C7 1_555 1_555
C16 C15 1_555 1_555
C17 C16 1_555 1_555
H15 C17 1_555 1_555
C18 C17 1_555 1_555
H16 C18 1_555 1_555
C19 C18 1_555 1_555
H17 C19 1_555 1_555
C20 C15 1_555 1_555
H18 C20 1_555 1_555
C21 H19 1_555 1_555
H20 C21 1_555 1_555
H21 C21 1_555 1_555
C22 H22 1_555 1_555
H23 C22 1_555 1_555
H24 C22 1_555 1_555
N1 C1 1_555 1_555
O1 C8 1_555 1_555
O2 C14 1_555 1_555
O3 C16 1_555 1_555
H25 N1 1_555 1_555
C6 C8 1_555 1_555
C7 N1 1_555 1_555
C13 C14 1_555 1_555
C19 C20 1_555 1_555
C21 O2 1_555 1_555
C22 O3 1_555 1_555

#END
