
#######################################################################
#
#                 Cambridge Crystallographic Data Centre
#                                CCDC 
#
#######################################################################
#
# If this CIF has been generated from an entry in the Cambridge 
# Structural Database, then it will include bibliographic, chemical, 
# crystal, experimental, refinement or atomic coordinate data resulting 
# from the CCDC's data processing and validation procedures.
#
#######################################################################

data_SOYSUV
_chemical_formula_moiety         'C16 H16 N2 O3'
_chemical_name_systematic        
4-Methoxy-N'-(2-methoxybenzylidene)benzohydrazide
_symmetry_cell_setting           monoclinic
_symmetry_space_group_name_H-M   'P 21/c'
_symmetry_Int_Tables_number      14
_space_group_name_Hall           '-P 2ybc'
loop_
_symmetry_equiv_pos_site_id
_symmetry_equiv_pos_as_xyz
1 x,y,z
2 -x,1/2+y,1/2-z
3 -x,-y,-z
4 x,1/2-y,1/2+z
_cell_length_a                   12.7050(10)
_cell_length_b                   16.053(2)
_cell_length_c                   7.7180(10)
_cell_angle_alpha                90
_cell_angle_beta                 107.233(2)
_cell_angle_gamma                90
_cell_volume                     1503.45
_exptl_crystal_colour            colorless
_exptl_crystal_description       block
_cell_formula_units_Z            4
loop_
_atom_site_label
_atom_site_type_symbol
_atom_site_fract_x
_atom_site_fract_y
_atom_site_fract_z
N1 N 0.11626(13) 0.25479(11) 0.8800(2)
N2 N 0.20751(14) 0.23123(11) 0.8290(2)
O1 O -0.00123(13) 0.47737(10) 0.7280(2)
O2 O 0.27806(12) 0.16021(9) 1.0915(2)
O3 O 0.62405(13) 0.06696(12) 0.6746(2)
C1 C -0.03802(17) 0.34548(14) 0.8236(3)
C2 C -0.07099(18) 0.42835(15) 0.7881(3)
C3 C -0.1678(2) 0.45577(18) 0.8150(3)
H1 H -0.1900 0.5108 0.7906
C4 C -0.2316(2) 0.4011(2) 0.8783(3)
H2 H -0.2970 0.4199 0.8958
C5 C -0.2007(2) 0.3201(2) 0.9158(4)
H3 H -0.2440 0.2838 0.9593
C6 C -0.10359(18) 0.29291(16) 0.8878(3)
H4 H -0.0821 0.2378 0.9130
C7 C 0.06430(17) 0.31710(14) 0.7935(3)
H5 H 0.0918 0.3448 0.7103
C8 C 0.28308(17) 0.18075(13) 0.9401(3)
C9 C 0.37276(17) 0.15184(13) 0.8685(3)
C10 C 0.47380(19) 0.13301(16) 0.9881(3)
H6 H 0.4844 0.1393 1.1119
C11 C 0.5597(2) 0.10505(18) 0.9289(4)
H7 H 0.6276 0.0932 1.0121
C12 C 0.54480(19) 0.09484(15) 0.7470(3)
C13 C 0.44375(19) 0.11214(15) 0.6249(3)
H8 H 0.4330 0.1045 0.5014
C14 C 0.35890(17) 0.14068(13) 0.6849(3)
H9 H 0.2912 0.1527 0.6013
C15 C 0.7272(2) 0.04266(18) 0.7970(4)
H10 H 0.7609 0.0897 0.8689
H11 H 0.7745 0.0226 0.7295
H12 H 0.7157 -0.0007 0.8750
C16 C -0.0288(2) 0.56282(15) 0.6910(4)
H13 H -0.0998 0.5670 0.6022
H14 H 0.0255 0.5890 0.6454
H15 H -0.0309 0.5902 0.8006
H16 H 0.2197(19) 0.2603(13) 0.737(2)
loop_
_geom_bond_atom_site_label_1
_geom_bond_atom_site_label_2
_geom_bond_site_symmetry_1
_geom_bond_site_symmetry_2
N1 N2 1_555 1_555
N2 C8 1_555 1_555
O1 C2 1_555 1_555
O2 C8 1_555 1_555
O3 C12 1_555 1_555
C1 C2 1_555 1_555
C2 C3 1_555 1_555
C3 H1 1_555 1_555
C4 C3 1_555 1_555
H2 C4 1_555 1_555
C5 C4 1_555 1_555
H3 C5 1_555 1_555
C6 C1 1_555 1_555
H4 C6 1_555 1_555
C7 N1 1_555 1_555
H5 C7 1_555 1_555
C8 C9 1_555 1_555
C9 C10 1_555 1_555
C10 H6 1_555 1_555
C11 C10 1_555 1_555
H7 C11 1_555 1_555
C12 C11 1_555 1_555
C13 C12 1_555 1_555
H8 C13 1_555 1_555
C14 C9 1_555 1_555
H9 C14 1_555 1_555
C15 O3 1_555 1_555
H10 C15 1_555 1_555
H11 C15 1_555 1_555
H12 C15 1_555 1_555
C16 O1 1_555 1_555
H13 C16 1_555 1_555
H14 C16 1_555 1_555
H15 C16 1_555 1_555
H16 N2 1_555 1_555
C1 C7 1_555 1_555
C5 C6 1_555 1_555
C13 C14 1_555 1_555

#END
