
#######################################################################
#
#                 Cambridge Crystallographic Data Centre
#                                CCDC 
#
#######################################################################
#
# If this CIF has been generated from an entry in the Cambridge 
# Structural Database, then it will include bibliographic, chemical, 
# crystal, experimental, refinement or atomic coordinate data resulting 
# from the CCDC's data processing and validation procedures.
#
#######################################################################

data_SOYSOQ
_chemical_formula_moiety         'C19 H11 B1 Br3 F2 N3'
_chemical_name_systematic        
2,3,8-Tribromo-5,5-difluoro-10-phenyl-7-(1H-pyrrol-2-yl)-5H-6\l^5^,5\l^5^-dipyrrolo[1,2-c:2',1'-f][1,3,2]diazaborinine
_symmetry_cell_setting           triclinic
_symmetry_space_group_name_H-M   'P -1'
_symmetry_Int_Tables_number      2
_space_group_name_Hall           '-P 1'
loop_
_symmetry_equiv_pos_site_id
_symmetry_equiv_pos_as_xyz
1 x,y,z
2 -x,-y,-z
_cell_length_a                   9.6197(12)
_cell_length_b                   10.2281(13)
_cell_length_c                   10.5606(13)
_cell_angle_alpha                70.2760(10)
_cell_angle_beta                 82.192(2)
_cell_angle_gamma                85.744(2)
_cell_volume                     968.591
_cell_formula_units_Z            2
loop_
_atom_site_label
_atom_site_type_symbol
_atom_site_fract_x
_atom_site_fract_y
_atom_site_fract_z
B1 B 0.3457(7) 0.9510(7) -0.1367(6)
Br1 Br 0.17438(8) 1.23846(7) -0.29523(7)
Br2 Br -0.05063(6) 1.32701(6) -0.03601(7)
Br3 Br 0.68930(7) 0.50687(6) 0.11381(8)
C1 C 0.1651(6) 1.1452(6) -0.1115(5)
C2 C 0.0749(6) 1.1753(6) -0.0098(6)
C3 C 0.0992(6) 1.0746(6) 0.1124(6)
H1 H 0.0536 1.0677 0.1979
C4 C 0.2067(5) 0.9851(5) 0.0813(5)
C5 C 0.2717(5) 0.8664(5) 0.1664(6)
C6 C 0.3752(6) 0.7924(6) 0.1106(6)
C7 C 0.4634(6) 0.6816(6) 0.1781(6)
H2 H 0.4608 0.6382 0.2712
C8 C 0.5539(6) 0.6503(6) 0.0790(6)
C9 C 0.5210(5) 0.7401(6) -0.0514(6)
C10 C 0.5868(6) 0.7374(6) -0.1813(7)
C11 C 0.7161(8) 0.6856(7) -0.2143(8)
H3 H 0.7827 0.6444 -0.1555
C12 C 0.7300(8) 0.7061(9) -0.3551(9)
H4 H 0.8079 0.6816 -0.4059
C13 C 0.6088(8) 0.7683(8) -0.4021(8)
H5 H 0.5890 0.7935 -0.4912
C14 C 0.2306(6) 0.8222(6) 0.3143(6)
C15 C 0.2266(7) 0.9194(7) 0.3816(6)
H6 H 0.2533 1.0101 0.3342
C16 C 0.1822(8) 0.8792(9) 0.5208(7)
H7 H 0.1798 0.9435 0.5658
C17 C 0.1428(9) 0.7482(9) 0.5900(7)
H8 H 0.1124 0.7228 0.6822
C18 C 0.1474(8) 0.6515(8) 0.5251(8)
H9 H 0.1211 0.5609 0.5742
C19 C 0.1911(7) 0.6878(7) 0.3863(7)
H10 H 0.1935 0.6221 0.3428
F1 F 0.4478(3) 1.0363(3) -0.2210(3)
F2 F 0.2683(3) 0.9014(4) -0.2116(3)
N1 N 0.2453(4) 1.0300(4) -0.0574(5)
N2 N 0.4134(5) 0.8271(5) -0.0290(5)
N3 N 0.5212(6) 0.7874(6) -0.2969(5)
H11 H 0.4381 0.8247 -0.3019
loop_
_geom_bond_atom_site_label_1
_geom_bond_atom_site_label_2
_geom_bond_site_symmetry_1
_geom_bond_site_symmetry_2
B1 F1 1_555 1_555
Br1 C1 1_555 1_555
Br2 C2 1_555 1_555
Br3 C8 1_555 1_555
C1 C2 1_555 1_555
C2 C3 1_555 1_555
C3 H1 1_555 1_555
C4 C3 1_555 1_555
C5 C4 1_555 1_555
C6 C5 1_555 1_555
C7 C6 1_555 1_555
H2 C7 1_555 1_555
C8 C7 1_555 1_555
C9 C8 1_555 1_555
C10 C9 1_555 1_555
C11 C10 1_555 1_555
H3 C11 1_555 1_555
C12 C11 1_555 1_555
H4 C12 1_555 1_555
C13 C12 1_555 1_555
H5 C13 1_555 1_555
C14 C5 1_555 1_555
C15 C14 1_555 1_555
H6 C15 1_555 1_555
C16 C15 1_555 1_555
H7 C16 1_555 1_555
C17 C16 1_555 1_555
H8 C17 1_555 1_555
C18 C17 1_555 1_555
H9 C18 1_555 1_555
C19 C14 1_555 1_555
H10 C19 1_555 1_555
F2 B1 1_555 1_555
N1 B1 1_555 1_555
N2 B1 1_555 1_555
N3 C10 1_555 1_555
H11 N3 1_555 1_555
C1 N1 1_555 1_555
C4 N1 1_555 1_555
C6 N2 1_555 1_555
C9 N2 1_555 1_555
C13 N3 1_555 1_555
C18 C19 1_555 1_555

#END
