
#######################################################################
#
#                 Cambridge Crystallographic Data Centre
#                                CCDC 
#
#######################################################################
#
# If this CIF has been generated from an entry in the Cambridge 
# Structural Database, then it will include bibliographic, chemical, 
# crystal, experimental, refinement or atomic coordinate data resulting 
# from the CCDC's data processing and validation procedures.
#
#######################################################################

data_SOYSIK
_chemical_formula_moiety         'C31 H30 F3 N5 O2 S1'
_chemical_name_systematic        
3',6'-bis(Diethylamino)-2-(5-(trifluoromethyl)-1,3,4-thiadiazol-2-yl)spiro[isoindole-1,9'-xanthen]-3(2H)-one
_symmetry_cell_setting           monoclinic
_symmetry_space_group_name_H-M   'P 21/c'
_symmetry_Int_Tables_number      14
_space_group_name_Hall           '-P 2ybc'
loop_
_symmetry_equiv_pos_site_id
_symmetry_equiv_pos_as_xyz
1 x,y,z
2 -x,1/2+y,1/2-z
3 -x,-y,-z
4 x,1/2-y,1/2+z
_cell_length_a                   17.568(3)
_cell_length_b                   8.7283(13)
_cell_length_c                   22.482(3)
_cell_angle_alpha                90
_cell_angle_beta                 108.695(3)
_cell_angle_gamma                90
_cell_volume                     3265.47
_cell_formula_units_Z            4
loop_
_atom_site_label
_atom_site_type_symbol
_atom_site_fract_x
_atom_site_fract_y
_atom_site_fract_z
S1 S 0.1108(1) 0.1955(2) 0.1336(1)
O1 O 0.3469(2) 0.2853(4) 0.0047(2)
N1 N 0.1626(2) 0.4000(4) 0.0634(2)
O2 O 0.0543(2) 0.4766(4) 0.0925(2)
C1 C 0.2710(3) 0.2783(5) -0.0376(2)
C2 C 0.1732(2) 0.2600(5) 0.0927(2)
C3 C 0.2654(3) 0.1826(5) -0.0879(2)
F1 F 0.2049(3) -0.2116(4) 0.1882(2)
N2 N 0.2301(2) 0.0336(5) 0.1264(2)
C4 C 0.2162(3) 0.4594(5) 0.0266(2)
C5 C 0.1134(3) 0.6387(5) 0.0305(2)
C6 C 0.1901(3) 0.1647(5) -0.1345(2)
C7 C 0.1029(3) 0.5027(5) 0.0652(2)
N3 N 0.1805(3) 0.0644(5) -0.1849(2)
C8 C 0.3021(3) 0.4690(5) 0.0674(2)
C9 C 0.2073(3) 0.3610(5) -0.0301(2)
C10 C 0.1769(3) 0.6181(5) 0.0090(2)
C11 C 0.3625(3) 0.3825(5) 0.0559(2)
C12 C 0.1323(3) 0.3424(6) -0.0775(2)
N4 N 0.2314(2) 0.1667(5) 0.0922(2)
F2 F 0.0847(2) -0.1456(5) 0.1692(2)
C13 C 0.1716(3) 0.0362(6) 0.1489(2)
C14 C 0.1222(3) 0.2462(6) -0.1291(2)
C15 C 0.0671(3) 0.7740(6) 0.0206(2)
F3 F 0.1732(3) -0.0526(5) 0.2473(2)
C16 C 0.3257(3) 0.5661(6) 0.1207(2)
C17 C 0.4422(3) 0.3883(6) 0.0937(2)
C18 C 0.4059(3) 0.5711(6) 0.1614(2)
C19 C 0.2006(3) 0.7310(6) -0.0245(3)
N5 N 0.5426(3) 0.4842(6) 0.1862(2)
C20 C 0.4646(3) 0.4807(6) 0.1473(3)
C21 C 0.1596(3) -0.0931(7) 0.1884(3)
C22 C 0.1023(4) 0.0386(7) -0.2338(3)
C23 C 0.0918(4) 0.8891(6) -0.0116(3)
C24 C 0.2494(4) -0.0320(7) -0.1874(3)
C25 C 0.1585(4) 0.8699(7) -0.0342(3)
C26 C 0.6068(3) 0.3847(8) 0.1757(3)
C27 C 0.3014(5) 0.0542(11) -0.2194(4)
C28 C 0.6444(4) 0.4585(10) 0.1305(4)
C29 C 0.5717(4) 0.6023(9) 0.2396(4)
C30 C 0.0528(4) -0.0822(9) -0.2144(4)
C31 C 0.5620(4) 0.5412(11) 0.2969(4)
loop_
_geom_bond_atom_site_label_1
_geom_bond_atom_site_label_2
_geom_bond_site_symmetry_1
_geom_bond_site_symmetry_2
S1 C2 1_555 1_555
O1 C1 1_555 1_555
N1 C2 1_555 1_555
O2 C7 1_555 1_555
C1 C3 1_555 1_555
C2 N4 1_555 1_555
C3 C6 1_555 1_555
F1 C21 1_555 1_555
N2 N4 1_555 1_555
C4 N1 1_555 1_555
C5 C7 1_555 1_555
C6 N3 1_555 1_555
C7 N1 1_555 1_555
N3 C22 1_555 1_555
C8 C4 1_555 1_555
C9 C1 1_555 1_555
C10 C4 1_555 1_555
C11 O1 1_555 1_555
C12 C9 1_555 1_555
F2 C21 1_555 1_555
C13 S1 1_555 1_555
C14 C6 1_555 1_555
C15 C5 1_555 1_555
F3 C21 1_555 1_555
C16 C8 1_555 1_555
C17 C11 1_555 1_555
C18 C16 1_555 1_555
C19 C10 1_555 1_555
N5 C20 1_555 1_555
C20 C17 1_555 1_555
C21 C13 1_555 1_555
C22 C30 1_555 1_555
C23 C15 1_555 1_555
C24 N3 1_555 1_555
C25 C19 1_555 1_555
C26 N5 1_555 1_555
C27 C24 1_555 1_555
C28 C26 1_555 1_555
C29 N5 1_555 1_555
C31 C29 1_555 1_555
N2 C13 1_555 1_555
C4 C9 1_555 1_555
C5 C10 1_555 1_555
C8 C11 1_555 1_555
C12 C14 1_555 1_555
C18 C20 1_555 1_555
C23 C25 1_555 1_555

#END
