
#######################################################################
#
#                 Cambridge Crystallographic Data Centre
#                                CCDC 
#
#######################################################################
#
# If this CIF has been generated from an entry in the Cambridge 
# Structural Database, then it will include bibliographic, chemical, 
# crystal, experimental, refinement or atomic coordinate data resulting 
# from the CCDC's data processing and validation procedures.
#
#######################################################################

data_SOYVOS
_chemical_name_common            
3-(10-Chloro-9-anthryl)-5-[3-(prop-2-ynyloxy)phenoxymethyl]isoxazole
_chemical_formula_moiety         'C27 H18 Cl1 N1 O3'
_chemical_name_systematic        
3-(10-Chloro-9-anthryl)-5-((3-(2-propyn-1-yloxy)phenoxy)methyl)-1,2-oxazole
_symmetry_cell_setting           triclinic
_symmetry_space_group_name_H-M   'P -1'
_symmetry_Int_Tables_number      2
_space_group_name_Hall           '-P 1'
loop_
_symmetry_equiv_pos_site_id
_symmetry_equiv_pos_as_xyz
1 x,y,z
2 -x,-y,-z
_cell_length_a                   8.4816(3)
_cell_length_b                   8.6450(3)
_cell_length_c                   16.8606(6)
_cell_angle_alpha                100.3640(10)
_cell_angle_beta                 103.5960(10)
_cell_angle_gamma                94.9650(10)
_cell_volume                     1171.25
_exptl_crystal_colour            colorless
_exptl_crystal_description       block
_cell_formula_units_Z            2
_exptl_crystal_recrystallization_method methanol/DMF
loop_
_atom_site_label
_atom_site_type_symbol
_atom_site_fract_x
_atom_site_fract_y
_atom_site_fract_z
C1 C 0.2863(2) 0.3620(2) 0.91382(11)
C2 C 0.1335(3) 0.4195(2) 0.91474(14)
H1 H 0.0916 0.4184 0.9609
C3 C 0.0490(3) 0.4751(3) 0.85017(16)
H2 H -0.0495 0.5128 0.8526
C4 C 0.1087(3) 0.4767(3) 0.77859(15)
H3 H 0.0487 0.5145 0.7341
C5 C 0.2529(2) 0.4234(2) 0.77469(12)
H4 H 0.2899 0.4244 0.7270
C6 C 0.3493(2) 0.36581(19) 0.84180(10)
C7 C 0.4989(2) 0.30988(19) 0.83910(10)
C8 C 0.5881(2) 0.2499(2) 0.90563(10)
C9 C 0.7423(2) 0.1965(2) 0.90562(12)
H5 H 0.7856 0.2003 0.8601
C10 C 0.8275(3) 0.1400(3) 0.97066(14)
H6 H 0.9282 0.1063 0.9693
C11 C 0.7643(3) 0.1322(3) 1.04012(13)
H7 H 0.8229 0.0920 1.0840
C12 C 0.6195(3) 0.1825(3) 1.04358(11)
H8 H 0.5801 0.1767 1.0901
C13 C 0.5254(2) 0.2444(2) 0.97749(10)
C14 C 0.3769(2) 0.3003(2) 0.97840(11)
C15 C 0.56449(19) 0.3098(2) 0.76469(10)
C16 C 0.5831(2) 0.1769(2) 0.70657(11)
H9 H 0.5563 0.0702 0.7063
C17 C 0.6479(2) 0.2387(2) 0.65203(10)
C18 C 0.7037(2) 0.1683(3) 0.57805(11)
H10 H 0.8181 0.2071 0.5854
H11 H 0.6918 0.0536 0.5705
C19 C 0.6541(2) 0.1848(2) 0.43448(11)
C20 C 0.7742(2) 0.0930(2) 0.42197(11)
H12 H 0.8285 0.0457 0.4640
C21 C 0.8133(2) 0.0720(2) 0.34504(11)
C22 C 0.7331(2) 0.1422(2) 0.28241(12)
H13 H 0.7601 0.1289 0.2315
C23 C 0.6120(2) 0.2329(2) 0.29685(12)
H14 H 0.5571 0.2799 0.2549
C24 C 0.5710(2) 0.2549(2) 0.37219(12)
H15 H 0.4891 0.3156 0.3810
C25 C 0.9797(3) -0.0505(2) 0.26169(12)
H16 H 0.8811 -0.0784 0.2163
H17 H 1.0408 -0.1403 0.2597
C26 C 1.0785(2) 0.0859(2) 0.24940(12)
C27 C 1.1606(3) 0.1948(3) 0.24028(15)
H18 H 1.2255 0.2809 0.2331
Cl1 Cl 0.29951(8) 0.29325(7) 1.06495(3)
N1 N 0.6140(2) 0.44298(18) 0.74604(9)
O1 O 0.66859(17) 0.39855(16) 0.67356(8)
O2 O 0.60568(17) 0.2133(2) 0.50758(8)
O3 O 0.93481(17) -0.02142(17) 0.33887(8)
loop_
_geom_bond_atom_site_label_1
_geom_bond_atom_site_label_2
_geom_bond_site_symmetry_1
_geom_bond_site_symmetry_2
C1 C2 1_555 1_555
C2 H1 1_555 1_555
C3 C2 1_555 1_555
H2 C3 1_555 1_555
C4 C3 1_555 1_555
H3 C4 1_555 1_555
C5 C4 1_555 1_555
H4 C5 1_555 1_555
C6 C1 1_555 1_555
C7 C6 1_555 1_555
C8 C7 1_555 1_555
C9 C8 1_555 1_555
H5 C9 1_555 1_555
C10 C9 1_555 1_555
H6 C10 1_555 1_555
C11 C10 1_555 1_555
H7 C11 1_555 1_555
C12 C11 1_555 1_555
H8 C12 1_555 1_555
C13 C8 1_555 1_555
C14 C1 1_555 1_555
C15 C7 1_555 1_555
C16 C15 1_555 1_555
H9 C16 1_555 1_555
C17 C16 1_555 1_555
C18 C17 1_555 1_555
H10 C18 1_555 1_555
H11 C18 1_555 1_555
C19 C20 1_555 1_555
C20 H12 1_555 1_555
C21 C20 1_555 1_555
C22 C21 1_555 1_555
H13 C22 1_555 1_555
C23 C22 1_555 1_555
H14 C23 1_555 1_555
C24 C19 1_555 1_555
H15 C24 1_555 1_555
C25 H16 1_555 1_555
H17 C25 1_555 1_555
C26 C25 1_555 1_555
C27 C26 1_555 1_555
H18 C27 1_555 1_555
Cl1 C14 1_555 1_555
N1 C15 1_555 1_555
O1 C17 1_555 1_555
O2 C18 1_555 1_555
O3 C21 1_555 1_555
C5 C6 1_555 1_555
C12 C13 1_555 1_555
C13 C14 1_555 1_555
C19 O2 1_555 1_555
C23 C24 1_555 1_555
C25 O3 1_555 1_555
N1 O1 1_555 1_555

#END
