
#######################################################################
#
#                 Cambridge Crystallographic Data Centre
#                                CCDC 
#
#######################################################################
#
# If this CIF has been generated from an entry in the Cambridge 
# Structural Database, then it will include bibliographic, chemical, 
# crystal, experimental, refinement or atomic coordinate data resulting 
# from the CCDC's data processing and validation procedures.
#
#######################################################################

data_SOYYOW
_chemical_formula_moiety         'C26 H19 N1 O2 S1'
_chemical_name_systematic        
5-Benzyl-2-(1-naphthyl)-5-(phenylsulfanyl)-1,3-oxazol-4(5H)-one
_symmetry_cell_setting           monoclinic
_symmetry_space_group_name_H-M   'P 21'
_symmetry_Int_Tables_number      4
_space_group_name_Hall           'P 2yb'
loop_
_symmetry_equiv_pos_site_id
_symmetry_equiv_pos_as_xyz
1 x,y,z
2 -x,1/2+y,-z
_cell_length_a                   11.0848(7)
_cell_length_b                   8.7520(6)
_cell_length_c                   11.1739(6)
_cell_angle_alpha                90
_cell_angle_beta                 106.686(6)
_cell_angle_gamma                90
_cell_volume                     1038.38
_cell_formula_units_Z            2
loop_
_atom_site_label
_atom_site_type_symbol
_atom_site_fract_x
_atom_site_fract_y
_atom_site_fract_z
S1 S 0.19725(5) 0.56927(7) 0.34142(5)
O1 O 0.27517(13) 0.33567(19) 0.49994(13)
O2 O 0.50756(14) 0.5755(2) 0.45191(15)
N1 N 0.45791(16) 0.4451(2) 0.61233(16)
C1 C 0.4934(3) 0.1194(4) 1.0335(3)
H1 H 0.4703 0.0796 1.1009
C2 C 0.6167(3) 0.1283(5) 1.0396(3)
H2 H 0.6777 0.0950 1.1107
C3 C 0.6524(3) 0.1883(5) 0.9382(3)
H3 H 0.7373 0.1926 0.9424
C4 C 0.5646(2) 0.2405(4) 0.8332(2)
H4 H 0.5904 0.2801 0.7673
C5 C 0.4353(2) 0.2346(3) 0.82478(19)
C6 C 0.3987(3) 0.1695(3) 0.9262(2)
C7 C 0.2703(3) 0.1553(4) 0.9188(3)
H5 H 0.2472 0.1133 0.9855
C8 C 0.1797(3) 0.2020(4) 0.8157(3)
H6 H 0.0952 0.1914 0.8120
C9 C 0.2129(2) 0.2659(3) 0.7150(2)
H7 H 0.1498 0.2971 0.6447
C10 C 0.3372(2) 0.2837(3) 0.71786(19)
C11 C 0.36304(18) 0.3581(2) 0.61054(18)
C12 C 0.43862(19) 0.4950(3) 0.4896(2)
C13 C 0.31500(18) 0.4248(3) 0.40915(18)
C14 C 0.33727(19) 0.3230(3) 0.30650(19)
H8 H 0.3601 0.3871 0.2456
H9 H 0.4080 0.2561 0.3431
C15 C 0.2251(2) 0.2264(3) 0.23983(18)
C16 C 0.2168(2) 0.0777(4) 0.2740(2)
H10 H 0.2818 0.0354 0.3374
C17 C 0.1132(3) -0.0110(4) 0.2157(3)
H11 H 0.1086 -0.1118 0.2405
C18 C 0.0169(3) 0.0499(4) 0.1210(2)
H12 H -0.0533 -0.0090 0.0823
C19 C 0.0253(2) 0.1970(4) 0.0843(2)
H13 H -0.0390 0.2383 0.0196
C20 C 0.1283(2) 0.2847(3) 0.1427(2)
H14 H 0.1332 0.3848 0.1165
C21 C 0.1854(2) 0.6691(3) 0.4763(2)
C22 C 0.2710(3) 0.7811(3) 0.5301(3)
H15 H 0.3375 0.8035 0.4978
C23 C 0.2572(3) 0.8606(4) 0.6332(4)
H16 H 0.3157 0.9346 0.6718
C24 C 0.1564(4) 0.8289(4) 0.6775(3)
H17 H 0.1469 0.8821 0.7463
C25 C 0.0701(3) 0.7208(4) 0.6222(3)
H18 H 0.0013 0.7024 0.6521
C26 C 0.0846(2) 0.6382(3) 0.5219(3)
H19 H 0.0269 0.5625 0.4854
loop_
_geom_bond_atom_site_label_1
_geom_bond_atom_site_label_2
_geom_bond_site_symmetry_1
_geom_bond_site_symmetry_2
S1 C13 1_555 1_555
O1 C11 1_555 1_555
O2 C12 1_555 1_555
N1 C11 1_555 1_555
C1 H1 1_555 1_555
C2 C1 1_555 1_555
H2 C2 1_555 1_555
C3 C2 1_555 1_555
H3 C3 1_555 1_555
C4 C3 1_555 1_555
H4 C4 1_555 1_555
C5 C4 1_555 1_555
C6 C1 1_555 1_555
C7 C6 1_555 1_555
H5 C7 1_555 1_555
C8 C7 1_555 1_555
H6 C8 1_555 1_555
C9 C8 1_555 1_555
H7 C9 1_555 1_555
C10 C5 1_555 1_555
C11 C10 1_555 1_555
C12 N1 1_555 1_555
C13 O1 1_555 1_555
C14 C13 1_555 1_555
H8 C14 1_555 1_555
H9 C14 1_555 1_555
C15 C14 1_555 1_555
C16 C15 1_555 1_555
H10 C16 1_555 1_555
C17 C16 1_555 1_555
H11 C17 1_555 1_555
C18 C17 1_555 1_555
H12 C18 1_555 1_555
C19 C18 1_555 1_555
H13 C19 1_555 1_555
C20 C15 1_555 1_555
H14 C20 1_555 1_555
C21 S1 1_555 1_555
C22 C21 1_555 1_555
H15 C22 1_555 1_555
C23 C22 1_555 1_555
H16 C23 1_555 1_555
C24 C23 1_555 1_555
H17 C24 1_555 1_555
C25 C24 1_555 1_555
H18 C25 1_555 1_555
C26 C21 1_555 1_555
H19 C26 1_555 1_555
C5 C6 1_555 1_555
C9 C10 1_555 1_555
C12 C13 1_555 1_555
C19 C20 1_555 1_555
C25 C26 1_555 1_555

#END
