
#######################################################################
#
#                 Cambridge Crystallographic Data Centre
#                                CCDC 
#
#######################################################################
#
# If this CIF has been generated from an entry in the Cambridge 
# Structural Database, then it will include bibliographic, chemical, 
# crystal, experimental, refinement or atomic coordinate data resulting 
# from the CCDC's data processing and validation procedures.
#
#######################################################################

data_SOYYIQ
_chemical_formula_moiety         'C18 H10 N2 O3'
_chemical_name_systematic        3-Benzoyl-1H-benzo[f]indazole-4,9-dione
_symmetry_cell_setting           monoclinic
_symmetry_space_group_name_H-M   'P 21'
_symmetry_Int_Tables_number      4
_space_group_name_Hall           'P 2yb'
loop_
_symmetry_equiv_pos_site_id
_symmetry_equiv_pos_as_xyz
1 x,y,z
2 -x,1/2+y,-z
_cell_length_a                   7.3341(8)
_cell_length_b                   7.8432(8)
_cell_length_c                   11.8604(12)
_cell_angle_alpha                90
_cell_angle_beta                 105.716(2)
_cell_angle_gamma                90
_cell_volume                     656.739
_exptl_crystal_description       plate
_cell_formula_units_Z            2
loop_
_atom_site_label
_atom_site_type_symbol
_atom_site_fract_x
_atom_site_fract_y
_atom_site_fract_z
C1 C 0.65510(15) 0.68352(14) -0.23825(9)
C2 C 0.70805(16) 0.52256(14) -0.18897(10)
H1 H 0.7317 0.5064 -0.1069
C3 C 0.72594(17) 0.38611(15) -0.26050(10)
H2 H 0.7606 0.2767 -0.2272
C4 C 0.69326(18) 0.40958(15) -0.38016(11)
H3 H 0.7040 0.3158 -0.4287
C5 C 0.64457(19) 0.57055(16) -0.42983(10)
H4 H 0.6245 0.5867 -0.5117
C6 C 0.62573(16) 0.70670(15) -0.35908(10)
H5 H 0.5928 0.8162 -0.3927
C7 C 0.62985(15) 0.83455(14) -0.16836(9)
C8 C 0.66063(15) 0.82133(14) -0.03872(10)
C9 C 0.74043(15) 0.94086(13) 0.05047(9)
C10 C 0.71038(15) 0.87021(14) 0.15083(9)
C11 C 0.76596(15) 0.94654(15) 0.26819(9)
C12 C 0.83154(16) 1.12642(14) 0.26861(10)
C13 C 0.85891(15) 1.20360(14) 0.16717(9)
C14 C 0.83171(15) 1.10811(14) 0.05438(10)
C15 C 0.91822(16) 1.37355(15) 0.17219(10)
H6 H 0.9380 1.4265 0.1044
C16 C 0.94837(17) 1.46546(15) 0.27606(11)
H7 H 0.9880 1.5810 0.2787
C17 C 0.92074(17) 1.38898(16) 0.37581(11)
H8 H 0.9407 1.4525 0.4463
C18 C 0.86380(17) 1.21937(16) 0.37241(10)
H9 H 0.8468 1.1667 0.4410
N1 N 0.58677(13) 0.68898(13) 0.00510(8)
N2 N 0.61877(14) 0.72100(13) 0.12024(9)
H10 H 0.568(2) 0.647(2) 0.1573(14)
O1 O 0.58022(13) 0.97270(11) -0.21577(7)
O2 O 0.75715(13) 0.86900(12) 0.35574(7)
O3 O 0.88391(13) 1.16746(12) -0.02700(8)
loop_
_geom_bond_atom_site_label_1
_geom_bond_atom_site_label_2
_geom_bond_site_symmetry_1
_geom_bond_site_symmetry_2
C1 C2 1_555 1_555
C2 H1 1_555 1_555
C3 C2 1_555 1_555
H2 C3 1_555 1_555
C4 C3 1_555 1_555
H3 C4 1_555 1_555
C5 C4 1_555 1_555
H4 C5 1_555 1_555
C6 C1 1_555 1_555
H5 C6 1_555 1_555
C7 C1 1_555 1_555
C8 C7 1_555 1_555
C9 C8 1_555 1_555
C10 C9 1_555 1_555
C11 C10 1_555 1_555
C12 C11 1_555 1_555
C13 C12 1_555 1_555
C14 C9 1_555 1_555
C15 C13 1_555 1_555
H6 C15 1_555 1_555
C16 C15 1_555 1_555
H7 C16 1_555 1_555
C17 C16 1_555 1_555
H8 C17 1_555 1_555
C18 C12 1_555 1_555
H9 C18 1_555 1_555
N1 C8 1_555 1_555
N2 C10 1_555 1_555
H10 N2 1_555 1_555
O1 C7 1_555 1_555
O2 C11 1_555 1_555
O3 C14 1_555 1_555
C5 C6 1_555 1_555
C13 C14 1_555 1_555
C17 C18 1_555 1_555
N1 N2 1_555 1_555

#END
