
#######################################################################
#
#                 Cambridge Crystallographic Data Centre
#                                CCDC 
#
#######################################################################
#
# If this CIF has been generated from an entry in the Cambridge 
# Structural Database, then it will include bibliographic, chemical, 
# crystal, experimental, refinement or atomic coordinate data resulting 
# from the CCDC's data processing and validation procedures.
#
#######################################################################

data_SOYZUB
_chemical_formula_moiety         'C33 H39 N11 Na1 1+,Cl1 O4 1-,C2 H3 N1'
_chemical_name_systematic        
'(1,4,12,15,18,26,31,39,42,43,44-Undeca-azapentacyclo (13.13.13.1^6,10^.1^20,24^.1^33,37^)tetratetraconta-4,6(42),7,9,11,18,20(43),21,23,25,31,33(44),34,36,38-pentadecaene)-sodium perchlorate acetonitrile solvate'
_symmetry_cell_setting           monoclinic
_symmetry_space_group_name_H-M   'P 21/a'
_symmetry_Int_Tables_number      14
_space_group_name_Hall           '-P 2yab'
loop_
_symmetry_equiv_pos_site_id
_symmetry_equiv_pos_as_xyz
1 x,y,z
2 1/2-x,1/2+y,-z
3 -x,-y,-z
4 1/2+x,1/2-y,z
_cell_length_a                   12.993(7)
_cell_length_b                   24.260(9)
_cell_length_c                   13.730(5)
_cell_angle_alpha                90
_cell_angle_beta                 115.43(3)
_cell_angle_gamma                90
_cell_volume                     3908.51
_exptl_crystal_colour            colorless
_cell_formula_units_Z            4
loop_
_atom_site_label
_atom_site_type_symbol
_atom_site_fract_x
_atom_site_fract_y
_atom_site_fract_z
Na1 Na 0.5291(3) 0.1506(2) 0.2784(3)
N1 N 0.5316(7) 0.1404(3) 0.0530(6)
N2 N 0.5044(7) 0.1659(3) 0.7012(6)
C1 C 0.6027(9) 0.1858(4) 0.0479(8)
C2 C 0.6956(9) 0.2009(4) 0.1600(7)
N3 N 0.6380(7) 0.2166(3) 0.2279(6)
C3 C 0.6249(9) 0.2667(4) 0.2402(8)
C4 C 0.5636(9) 0.2873(4) 0.2995(8)
C5 C 0.5538(10) 0.3432(5) 0.3112(8)
C6 C 0.4967(10) 0.3626(6) 0.3675(9)
C7 C 0.4488(9) 0.3260(5) 0.4114(8)
C8 C 0.4589(8) 0.2699(4) 0.3956(7)
N4 N 0.5153(7) 0.2506(3) 0.3417(5)
C9 C 0.4082(8) 0.2286(4) 0.4394(7)
N5 N 0.3694(7) 0.2416(3) 0.5065(6)
C10 C 0.3231(9) 0.1980(4) 0.5496(8)
C11 C 0.3922(9) 0.1923(4) 0.6693(8)
C12 C 0.4130(9) 0.1446(4) -0.0252(8)
C13 C 0.3453(9) 0.1799(5) 0.0174(8)
N6 N 0.3496(7) 0.1533(3) 0.1167(6)
C14 C 0.2693(9) 0.1225(4) 0.1085(8)
C15 C 0.2715(9) 0.0902(4) 0.1993(8)
C16 C 0.1806(9) 0.0547(4) 0.1806(8)
C17 C 0.1814(9) 0.0253(4) 0.2641(8)
C18 C 0.2688(9) 0.0308(4) 0.3652(8)
C19 C 0.3563(8) 0.0670(4) 0.3775(7)
N7 N 0.3600(7) 0.0955(3) 0.2968(6)
C20 C 0.4524(8) 0.0739(4) 0.4836(7)
N8 N 0.4457(7) 0.0577(3) 0.5687(7)
C21 C 0.5428(9) 0.0683(4) 0.6740(7)
C22 C 0.5082(10) 0.1090(4) 0.7372(8)
C23 C 0.5829(9) 0.0865(4) 0.0571(8)
C24 C 0.5546(9) 0.0461(4) 0.1272(7)
N9 N 0.6029(7) 0.0669(3) 0.2387(6)
C25 C 0.6900(9) 0.0443(4) 0.3057(8)
C26 C 0.7516(9) 0.0656(4) 0.4175(8)
C27 C 0.8563(9) 0.0434(5) 0.4823(9)
C28 C 0.9155(10) 0.0641(4) 0.5841(9)
C29 C 0.8688(9) 0.1056(4) 0.6213(8)
C30 C 0.7625(8) 0.1263(4) 0.5501(7)
N10 N 0.7059(7) 0.1071(3) 0.4491(6)
C31 C 0.7060(8) 0.1690(4) 0.5803(8)
N11 N 0.7282(7) 0.1797(3) 0.6792(7)
C32 C 0.6667(9) 0.2232(4) 0.7037(8)
C33 C 0.6023(9) 0.1996(4) 0.7631(8)
H1 H 0.6386 0.1752 0.0025
H2 H 0.5554 0.2175 0.0177
H3 H 0.7401 0.2312 0.1542
H4 H 0.7443 0.1697 0.1910
H5 H 0.6572 0.2929 0.2089
H6 H 0.5873 0.3687 0.2796
H7 H 0.4904 0.4015 0.3762
H8 H 0.4091 0.3386 0.4522
H9 H 0.4042 0.1909 0.4168
H10 H 0.2459 0.2070 0.5350
H11 H 0.3246 0.1638 0.5152
H12 H 0.3493 0.1706 0.6973
H13 H 0.4044 0.2285 0.7006
H14 H 0.4096 0.1608 -0.0904
H15 H 0.3804 0.1083 -0.0404
H16 H 0.2677 0.1825 -0.0358
H17 H 0.3780 0.2161 0.0341
H18 H 0.2038 0.1199 0.0402
H19 H 0.1190 0.0512 0.1099
H20 H 0.1201 0.0002 0.2527
H21 H 0.2694 0.0103 0.4254
H22 H 0.5214 0.0909 0.4889
H23 H 0.5656 0.0344 0.7136
H24 H 0.6054 0.0830 0.6626
H25 H 0.5620 0.1068 0.8116
H26 H 0.4339 0.0991 0.7304
H27 H 0.5548 0.0720 -0.0148
H28 H 0.6641 0.0907 0.0863
H29 H 0.5868 0.0106 0.1256
H30 H 0.4734 0.0427 0.1004
H31 H 0.7186 0.0122 0.2848
H32 H 0.8873 0.0139 0.4566
H33 H 0.9897 0.0497 0.6296
H34 H 0.9079 0.1196 0.6934
H35 H 0.6493 0.1907 0.5245
H36 H 0.7197 0.2505 0.7480
H37 H 0.6139 0.2400 0.6378
H38 H 0.5767 0.2299 0.7918
H39 H 0.6546 0.1775 0.8212
Cl1 Cl 0.1525(3) 0.0200(2) 0.8672(3)
O1 O 0.2515(8) 0.0109(4) 0.9629(7)
O2 O 0.1175(8) -0.0262(4) 0.8025(8)
O3 O 0.0668(8) 0.0421(5) 0.8880(8)
O4 O 0.1849(11) 0.0582(5) 0.8075(9)
C34 C 0.3636(12) 0.4049(8) 0.9305(12)
C35 C 0.4168(20) 0.3567(10) 0.9684(17)
N12 N 0.4625(23) 0.3182(8) 0.9895(23)
H40 H 0.3302 0.4178 0.9764
H41 H 0.3049 0.3997 0.8588
H42 H 0.4176 0.4315 0.9292
loop_
_geom_bond_atom_site_label_1
_geom_bond_atom_site_label_2
_geom_bond_site_symmetry_1
_geom_bond_site_symmetry_2
Na1 N3 1_555 1_555
N1 C1 1_555 1_555
N2 C11 1_555 1_555
C1 C2 1_555 1_555
C2 N3 1_555 1_555
N3 C3 1_555 1_555
C3 C4 1_555 1_555
C4 C5 1_555 1_555
C5 C6 1_555 1_555
C6 C7 1_555 1_555
C7 C8 1_555 1_555
C8 N4 1_555 1_555
N4 Na1 1_555 1_555
C9 C8 1_555 1_555
N5 C9 1_555 1_555
C10 N5 1_555 1_555
C11 C10 1_555 1_555
C12 N1 1_555 1_555
C13 C12 1_555 1_555
N6 Na1 1_555 1_555
C14 N6 1_555 1_555
C15 C14 1_555 1_555
C16 C15 1_555 1_555
C17 C16 1_555 1_555
C18 C17 1_555 1_555
C19 C18 1_555 1_555
N7 Na1 1_555 1_555
C20 C19 1_555 1_555
N8 C20 1_555 1_555
C21 N8 1_555 1_555
C22 N2 1_555 1_555
C23 N1 1_555 1_555
C24 C23 1_555 1_555
N9 Na1 1_555 1_555
C25 N9 1_555 1_555
C26 C25 1_555 1_555
C27 C26 1_555 1_555
C28 C27 1_555 1_555
C29 C28 1_555 1_555
C30 C29 1_555 1_555
N10 Na1 1_555 1_555
C31 C30 1_555 1_555
N11 C31 1_555 1_555
C32 N11 1_555 1_555
C33 N2 1_555 1_555
H1 C1 1_555 1_555
H2 C1 1_555 1_555
H3 C2 1_555 1_555
H4 C2 1_555 1_555
H5 C3 1_555 1_555
H6 C5 1_555 1_555
H7 C6 1_555 1_555
H8 C7 1_555 1_555
H9 C9 1_555 1_555
H10 C10 1_555 1_555
H11 C10 1_555 1_555
H12 C11 1_555 1_555
H13 C11 1_555 1_555
H14 C12 1_555 1_555
H15 C12 1_555 1_555
H16 C13 1_555 1_555
H17 C13 1_555 1_555
H18 C14 1_555 1_555
H19 C16 1_555 1_555
H20 C17 1_555 1_555
H21 C18 1_555 1_555
H22 C20 1_555 1_555
H23 C21 1_555 1_555
H24 C21 1_555 1_555
H25 C22 1_555 1_555
H26 C22 1_555 1_555
H27 C23 1_555 1_555
H28 C23 1_555 1_555
H29 C24 1_555 1_555
H30 C24 1_555 1_555
H31 C25 1_555 1_555
H32 C27 1_555 1_555
H33 C28 1_555 1_555
H34 C29 1_555 1_555
H35 C31 1_555 1_555
H36 C32 1_555 1_555
H37 C32 1_555 1_555
H38 C33 1_555 1_555
H39 C33 1_555 1_555
Cl1 O1 1_555 1_555
O2 Cl1 1_555 1_555
O3 Cl1 1_555 1_555
O4 Cl1 1_555 1_555
C34 C35 1_555 1_555
C35 N12 1_555 1_555
H40 C34 1_555 1_555
H41 C34 1_555 1_555
H42 C34 1_555 1_555
C4 N4 1_555 1_555
C13 N6 1_555 1_555
C15 N7 1_555 1_555
C19 N7 1_555 1_555
C21 C22 1_555 1_555
C24 N9 1_555 1_555
C26 N10 1_555 1_555
C30 N10 1_555 1_555
C32 C33 1_555 1_555

#END
