
#######################################################################
#
#                 Cambridge Crystallographic Data Centre
#                                CCDC 
#
#######################################################################
#
# If this CIF has been generated from an entry in the Cambridge 
# Structural Database, then it will include bibliographic, chemical, 
# crystal, experimental, refinement or atomic coordinate data resulting 
# from the CCDC's data processing and validation procedures.
#
#######################################################################

data_SOZFAQ
_chemical_formula_moiety         'C21 H26 N2 S3'
_chemical_name_systematic        
4-(1,3-benzothiazol-2-yl)-N,N-bis(2-(ethylsulfanyl)ethyl)aniline
_symmetry_cell_setting           triclinic
_symmetry_space_group_name_H-M   'P -1'
_symmetry_Int_Tables_number      2
_space_group_name_Hall           '-P 1'
loop_
_symmetry_equiv_pos_site_id
_symmetry_equiv_pos_as_xyz
1 x,y,z
2 -x,-y,-z
_cell_length_a                   9.828(2)
_cell_length_b                   10.064(2)
_cell_length_c                   11.058(2)
_cell_angle_alpha                94.363(3)
_cell_angle_beta                 98.458(2)
_cell_angle_gamma                93.880(3)
_cell_volume                     1075.25
_exptl_crystal_colour            colorless
_exptl_crystal_description       block
_cell_formula_units_Z            2
loop_
_atom_site_label
_atom_site_type_symbol
_atom_site_fract_x
_atom_site_fract_y
_atom_site_fract_z
S1 S 0.70397(10) 0.82483(9) 0.16518(7)
N1 N 0.5902(2) 0.8671(3) 0.3593(2)
C1 C 0.6934(3) 0.6538(3) 0.3517(3)
C2 C 0.5707(3) 0.9775(3) 0.2932(3)
C3 C 0.7686(3) 0.4127(3) 0.4523(3)
N2 N 0.8026(4) 0.2962(3) 0.4997(3)
C4 C 0.6269(3) 0.9732(3) 0.1842(3)
C5 C 0.8021(4) 0.4477(3) 0.3383(3)
H1 H 0.8508 0.3903 0.2943
C6 C 0.6566(3) 0.7798(3) 0.3043(3)
C7 C 0.6594(3) 0.6201(3) 0.4636(3)
H2 H 0.6098 0.6779 0.5063
C8 C 0.6174(4) 1.0784(4) 0.1097(3)
H3 H 0.6536 1.0749 0.0365
C9 C 0.6963(3) 0.5052(3) 0.5130(3)
H4 H 0.6727 0.4879 0.5890
C10 C 0.7652(4) 0.5624(3) 0.2916(3)
H5 H 0.7890 0.5808 0.2159
C11 C 0.5044(4) 1.0880(4) 0.3283(3)
H6 H 0.4654 1.0914 0.4001
C12 C 0.4973(4) 1.1925(4) 0.2549(4)
H7 H 0.4541 1.2676 0.2781
C13 C 0.5532(4) 1.1877(4) 0.1474(3)
H8 H 0.5473 1.2598 0.0996
C14 C 0.8554(6) 0.1899(6) 0.4245(5)
H9 H 0.8165 0.1921 0.3388
H10 H 0.8287 0.1031 0.4502
C15 C 1.0089(8) 0.2109(6) 0.4394(6)
H11 H 1.0474 0.2079 0.5250
H12 H 1.0351 0.2985 0.4150
C16 C 1.1215(17) 0.111(2) 0.1127(10)
H13 H 1.1894 0.1744 0.0917
H14 H 1.0493 0.0899 0.0441
H15 H 1.1641 0.0305 0.1334
C17 C 1.067(3) 0.164(2) 0.212(2)
H16 H 0.9698 0.1720 0.1843
H17 H 1.1102 0.2535 0.2333
C18 C 0.7735(14) 0.4124(12) 0.9352(10)
H18 H 0.7773 0.4007 1.0219
H19 H 0.8516 0.4738 0.9275
S2 S 0.7982(4) 0.2593(3) 0.86193(18)
C19 C 0.8607(7) 0.3067(8) 0.7201(7)
H20 H 0.8736 0.4033 0.7215
H21 H 0.9485 0.2703 0.7138
C20 C 0.7561(7) 0.2525(5) 0.6135(6)
H22 H 0.6672 0.2856 0.6220
H23 H 0.7465 0.1557 0.6099
C21 C 0.6555(11) 0.4743(12) 0.8985(10)
H24 H 0.6276 0.4547 0.8117
H25 H 0.6734 0.5692 0.9171
H26 H 0.5833 0.4422 0.9412
S3 S 1.07947(16) 0.08194(15) 0.34556(12)
C22? C 0.912(2) 0.1297(19) 0.3803(18)
H27? H 0.8580 0.1618 0.3095
H28? H 0.8604 0.0556 0.4080
C23? C 0.955(2) 0.241(2) 0.482(2)
H29? H 1.0159 0.3103 0.4581
H30? H 0.9988 0.2071 0.5569
C24? C 1.0872(19) 0.219(2) 0.152(2)
H31? H 1.0352 0.2934 0.1695
H32? H 1.0907 0.2078 0.0656
H33? H 1.1792 0.2347 0.1963
C25? C 1.0233(17) 0.102(2) 0.1883(18)
H34? H 1.0446 0.0251 0.1383
H35? H 0.9240 0.1066 0.1747
C26? C 0.769(3) 0.487(3) 0.895(4)
H36? H 0.7965 0.5176 0.9812
H37? H 0.7470 0.5600 0.8448
C27? C 0.847(3) 0.304(2) 0.635(2)
H38? H 0.9276 0.2532 0.6516
H39? H 0.8762 0.3966 0.6643
C28? C 0.748(2) 0.257(2) 0.7048(18)
H40? H 0.7416 0.1617 0.7119
H41? H 0.6579 0.2916 0.6864
S4? S 0.8766(11) 0.363(2) 0.8316(16)
C29? C 0.669(2) 0.366(3) 0.870(2)
H42? H 0.7123 0.2936 0.8338
H43? H 0.5896 0.3853 0.8142
H44? H 0.6409 0.3418 0.9453
loop_
_geom_bond_atom_site_label_1
_geom_bond_atom_site_label_2
_geom_bond_site_symmetry_1
_geom_bond_site_symmetry_2
S1 C4 1_555 1_555
N1 C2 1_555 1_555
C1 C6 1_555 1_555
C2 C4 1_555 1_555
C3 N2 1_555 1_555
N2 C14 1_555 1_555
C4 C8 1_555 1_555
C5 C3 1_555 1_555
H1 C5 1_555 1_555
C6 S1 1_555 1_555
C7 C1 1_555 1_555
H2 C7 1_555 1_555
C8 H3 1_555 1_555
C9 C3 1_555 1_555
H4 C9 1_555 1_555
C10 C1 1_555 1_555
H5 C10 1_555 1_555
C11 C2 1_555 1_555
H6 C11 1_555 1_555
C12 C11 1_555 1_555
H7 C12 1_555 1_555
C13 C8 1_555 1_555
H8 C13 1_555 1_555
C14 H9 1_555 1_555
H10 C14 1_555 1_555
C15 C14 1_555 1_555
H11 C15 1_555 1_555
H12 C15 1_555 1_555
C16 H13 1_555 1_555
H14 C16 1_555 1_555
H15 C16 1_555 1_555
C17 C16 1_555 1_555
H16 C17 1_555 1_555
H17 C17 1_555 1_555
C18 H18 1_555 1_555
H19 C18 1_555 1_555
S2 C18 1_555 1_555
C19 S2 1_555 1_555
H20 C19 1_555 1_555
H21 C19 1_555 1_555
C20 N2 1_555 1_555
H22 C20 1_555 1_555
H23 C20 1_555 1_555
C21 C18 1_555 1_555
H24 C21 1_555 1_555
H25 C21 1_555 1_555
H26 C21 1_555 1_555
S3 C15 1_555 1_555
N1 C6 1_555 1_555
C5 C10 1_555 1_555
C7 C9 1_555 1_555
C12 C13 1_555 1_555
C17 S3 1_555 1_555
C19 C20 1_555 1_555

#END
