
#######################################################################
#
#                 Cambridge Crystallographic Data Centre
#                                CCDC 
#
#######################################################################
#
# If this CIF has been generated from an entry in the Cambridge 
# Structural Database, then it will include bibliographic, chemical, 
# crystal, experimental, refinement or atomic coordinate data resulting 
# from the CCDC's data processing and validation procedures.
#
#######################################################################

data_SOZMIF
_chemical_formula_moiety         'C20 H22 O2'
_chemical_name_systematic        
3,3'-Ethane-1,2-diylbis(3-methyl-2,3-dihydro-1-benzofuran)
_symmetry_cell_setting           orthorhombic
_symmetry_space_group_name_H-M   'P b c a'
_symmetry_Int_Tables_number      61
_space_group_name_Hall           '-P 2ac 2ab'
loop_
_symmetry_equiv_pos_site_id
_symmetry_equiv_pos_as_xyz
1 x,y,z
2 1/2-x,-y,1/2+z
3 1/2+x,1/2-y,-z
4 -x,1/2+y,1/2-z
5 -x,-y,-z
6 1/2+x,y,1/2-z
7 1/2-x,1/2+y,z
8 x,1/2-y,1/2+z
_cell_length_a                   9.2190(4)
_cell_length_b                   11.9871(6)
_cell_length_c                   14.7156(6)
_cell_angle_alpha                90
_cell_angle_beta                 90
_cell_angle_gamma                90
_cell_volume                     1626.21
_exptl_crystal_colour            white
_cell_formula_units_Z            4
_exptl_crystal_recrystallization_method 'ethyl acetate'
loop_
_atom_site_label
_atom_site_type_symbol
_atom_site_fract_x
_atom_site_fract_y
_atom_site_fract_z
O1 O 0.87600(15) 0.78223(11) 0.56704(10)
C1 C 0.73332(17) 0.62849(15) 0.58588(12)
C2 C 0.82770(18) 0.59971(14) 0.50539(11)
C3 C 0.77041(18) 0.73221(15) 0.61843(12)
C4 C 0.62597(19) 0.56824(17) 0.62948(14)
H1 H 0.5985 0.4966 0.6079
C5 C 0.9464(2) 0.51799(18) 0.53647(13)
C6 C 0.5999(2) 0.7173(2) 0.73679(14)
H2 H 0.5534 0.7470 0.7891
C7 C 0.7065(2) 0.77876(19) 0.69440(14)
H3 H 0.7349 0.8500 0.7165
C8 C 0.5591(2) 0.6139(2) 0.70513(14)
H4 H 0.4846 0.5736 0.7353
C9 C 0.8890(3) 0.71624(17) 0.48425(16)
H5 H 0.9920 0.7107 0.4656
H6 H 0.8336 0.7514 0.4343
C10 C 0.7412(2) 0.5539(2) 0.42491(14)
H7 H 0.7036 0.4798 0.4401
H8 H 0.8044 0.5485 0.3716
H9 H 0.6601 0.6041 0.4115
H10 H 0.997(2) 0.5555(18) 0.5850(15)
H11 H 0.895(3) 0.453(2) 0.5612(16)
O1D O 1.12400(15) 0.21777(11) 0.43296(10)
C1D C 1.26668(17) 0.37151(15) 0.41412(12)
C2D C 1.17230(18) 0.40029(14) 0.49461(11)
C3D C 1.22959(18) 0.26779(15) 0.38157(12)
C4D C 1.37403(19) 0.43176(17) 0.37052(14)
H1D H 1.4015 0.5034 0.3921
C5D C 1.0536(2) 0.48201(18) 0.46353(13)
C6D C 1.4001(2) 0.2827(2) 0.26321(14)
H2D H 1.4466 0.2530 0.2109
C7D C 1.2935(2) 0.22124(19) 0.30560(14)
H3D H 1.2651 0.1500 0.2835
C8D C 1.4409(2) 0.3861(2) 0.29487(14)
H4D H 1.5154 0.4264 0.2647
C9D C 1.1110(3) 0.28376(17) 0.51575(16)
H5D H 1.0080 0.2893 0.5344
H6D H 1.1664 0.2486 0.5657
C10D C 1.2588(2) 0.4461(2) 0.57509(14)
H7D H 1.2964 0.5202 0.5599
H8D H 1.1956 0.4515 0.6284
H9D H 1.3399 0.3959 0.5885
H10D H 1.003(2) 0.4445(18) 0.4150(15)
H11D H 1.105(3) 0.547(2) 0.4388(16)
loop_
_geom_bond_atom_site_label_1
_geom_bond_atom_site_label_2
_geom_bond_site_symmetry_1
_geom_bond_site_symmetry_2
O1 C3 1_555 1_555
C1 C2 1_555 1_555
C2 C5 1_555 1_555
C3 C1 1_555 1_555
C4 C1 1_555 1_555
H1 C4 1_555 1_555
C5 H10 1_555 1_555
C6 H2 1_555 1_555
C7 C3 1_555 1_555
H3 C7 1_555 1_555
C8 C4 1_555 1_555
H4 C8 1_555 1_555
C9 O1 1_555 1_555
H5 C9 1_555 1_555
H6 C9 1_555 1_555
C10 C2 1_555 1_555
H7 C10 1_555 1_555
H8 C10 1_555 1_555
H9 C10 1_555 1_555
H11 C5 1_555 1_555
O1D C3D 1_555 1_555
C1D C2D 1_555 1_555
C2D C5D 1_555 1_555
C3D C1D 1_555 1_555
C4D C1D 1_555 1_555
H1D C4D 1_555 1_555
C5D C5 1_555 1_555
C6D H2D 1_555 1_555
C7D C3D 1_555 1_555
H3D C7D 1_555 1_555
C8D C4D 1_555 1_555
H4D C8D 1_555 1_555
C9D O1D 1_555 1_555
H5D C9D 1_555 1_555
H6D C9D 1_555 1_555
C10D C2D 1_555 1_555
H7D C10D 1_555 1_555
H8D C10D 1_555 1_555
H9D C10D 1_555 1_555
H10D C5D 1_555 1_555
H11D C5D 1_555 1_555
C2 C9 1_555 1_555
C6 C7 1_555 1_555
C6 C8 1_555 1_555
C2D C9D 1_555 1_555
C6D C7D 1_555 1_555
C6D C8D 1_555 1_555

#END
