
#######################################################################
#
#                 Cambridge Crystallographic Data Centre
#                                CCDC 
#
#######################################################################
#
# If this CIF has been generated from an entry in the Cambridge 
# Structural Database, then it will include bibliographic, chemical, 
# crystal, experimental, refinement or atomic coordinate data resulting 
# from the CCDC's data processing and validation procedures.
#
#######################################################################

data_SOZNEC
_chemical_formula_moiety         'C22 H26 O2'
_chemical_name_systematic        
3,3'-Ethane-1,2-diylbis(3,5-dimethyl-2,3-dihydro-1-benzofuran)
_symmetry_cell_setting           orthorhombic
_symmetry_space_group_name_H-M   'P b c a'
_symmetry_Int_Tables_number      61
_space_group_name_Hall           '-P 2ac 2ab'
loop_
_symmetry_equiv_pos_site_id
_symmetry_equiv_pos_as_xyz
1 x,y,z
2 1/2-x,-y,1/2+z
3 1/2+x,1/2-y,-z
4 -x,1/2+y,1/2-z
5 -x,-y,-z
6 1/2+x,y,1/2-z
7 1/2-x,1/2+y,z
8 x,1/2-y,1/2+z
_cell_length_a                   10.0889(16)
_cell_length_b                   11.883(2)
_cell_length_c                   15.369(3)
_cell_angle_alpha                90
_cell_angle_beta                 90
_cell_angle_gamma                90
_cell_volume                     1842.53
_exptl_crystal_colour            colorless
_cell_formula_units_Z            4
_exptl_crystal_recrystallization_method 'ethyl acetate'
loop_
_atom_site_label
_atom_site_type_symbol
_atom_site_fract_x
_atom_site_fract_y
_atom_site_fract_z
O1 O 0.40948(18) 0.30182(14) 0.59276(13)
C1 C 0.2714(2) 0.14898(18) 0.58476(13)
C2 C 0.0781(2) 0.1281(2) 0.67466(15)
C3 C 0.3760(2) 0.12612(19) 0.51679(15)
C4 C 0.2963(2) 0.25054(19) 0.62399(15)
C5 C 0.1620(2) 0.08712(18) 0.61005(15)
H1 H 0.1444 0.0181 0.5839
C6 C 0.1068(3) 0.2314(2) 0.71199(16)
H2 H 0.0509 0.2593 0.7550
C7 C 0.2157(3) 0.2943(2) 0.68743(16)
H3 H 0.2338 0.3636 0.7129
C8 C 0.4390(2) 0.0111(2) 0.52854(16)
H4 H 0.3729 -0.0460 0.5160
H5 H 0.4645 0.0026 0.5890
C9 C -0.0423(3) 0.0624(3) 0.7013(2)
H6 H -0.0955 0.0467 0.6509
H7 H -0.0931 0.1055 0.7423
H8 H -0.0152 -0.0071 0.7277
C10 C 0.4768(3) 0.2197(2) 0.5421(2)
H9 H 0.5492 0.1876 0.5753
H10 H 0.5130 0.2542 0.4901
C11 C 0.3207(3) 0.1441(3) 0.42665(17)
H11 H 0.2557 0.0873 0.4144
H12 H 0.3911 0.1395 0.3848
H13 H 0.2801 0.2171 0.4234
O1D O 0.59052(18) -0.30182(14) 0.40724(13)
C1D C 0.7286(2) -0.14898(18) 0.41524(13)
C2D C 0.9219(2) -0.1281(2) 0.32534(15)
C3D C 0.6240(2) -0.12612(19) 0.48321(15)
C4D C 0.7037(2) -0.25054(19) 0.37601(15)
C5D C 0.8380(2) -0.08712(18) 0.38995(15)
H1D H 0.8556 -0.0181 0.4161
C6D C 0.8932(3) -0.2314(2) 0.28801(16)
H2D H 0.9491 -0.2593 0.2450
C7D C 0.7843(3) -0.2943(2) 0.31257(16)
H3D H 0.7662 -0.3636 0.2871
C8D C 0.5610(2) -0.0111(2) 0.47146(16)
H4D H 0.6271 0.0460 0.4840
H5D H 0.5355 -0.0026 0.4110
C9D C 1.0423(3) -0.0624(3) 0.2987(2)
H6D H 1.0955 -0.0467 0.3491
H7D H 1.0931 -0.1055 0.2577
H8D H 1.0152 0.0071 0.2723
C10D C 0.5232(3) -0.2197(2) 0.4579(2)
H9D H 0.4508 -0.1876 0.4247
H10D H 0.4870 -0.2542 0.5099
C11D C 0.6793(3) -0.1441(3) 0.57335(17)
H11D H 0.7443 -0.0873 0.5856
H12D H 0.6089 -0.1395 0.6152
H13D H 0.7199 -0.2171 0.5766
loop_
_geom_bond_atom_site_label_1
_geom_bond_atom_site_label_2
_geom_bond_site_symmetry_1
_geom_bond_site_symmetry_2
O1 C4 1_555 1_555
C1 C3 1_555 1_555
C2 C5 1_555 1_555
C3 C8 1_555 1_555
C4 C1 1_555 1_555
C5 C1 1_555 1_555
H1 C5 1_555 1_555
C6 C2 1_555 1_555
H2 C6 1_555 1_555
C7 C4 1_555 1_555
H3 C7 1_555 1_555
C8 H4 1_555 1_555
H5 C8 1_555 1_555
C9 C2 1_555 1_555
H6 C9 1_555 1_555
H7 C9 1_555 1_555
H8 C9 1_555 1_555
C10 O1 1_555 1_555
H9 C10 1_555 1_555
H10 C10 1_555 1_555
C11 C3 1_555 1_555
H11 C11 1_555 1_555
H12 C11 1_555 1_555
H13 C11 1_555 1_555
O1D C4D 1_555 1_555
C1D C3D 1_555 1_555
C2D C5D 1_555 1_555
C3D C8D 1_555 1_555
C4D C1D 1_555 1_555
C5D C1D 1_555 1_555
H1D C5D 1_555 1_555
C6D C2D 1_555 1_555
H2D C6D 1_555 1_555
C7D C4D 1_555 1_555
H3D C7D 1_555 1_555
C8D C8 1_555 1_555
H4D C8D 1_555 1_555
H5D C8D 1_555 1_555
C9D C2D 1_555 1_555
H6D C9D 1_555 1_555
H7D C9D 1_555 1_555
H8D C9D 1_555 1_555
C10D O1D 1_555 1_555
H9D C10D 1_555 1_555
H10D C10D 1_555 1_555
C11D C3D 1_555 1_555
H11D C11D 1_555 1_555
H12D C11D 1_555 1_555
H13D C11D 1_555 1_555
C3 C10 1_555 1_555
C6 C7 1_555 1_555
C3D C10D 1_555 1_555
C6D C7D 1_555 1_555

#END
