
#######################################################################
#
#                 Cambridge Crystallographic Data Centre
#                                CCDC 
#
#######################################################################
#
# If this CIF has been generated from an entry in the Cambridge 
# Structural Database, then it will include bibliographic, chemical, 
# crystal, experimental, refinement or atomic coordinate data resulting 
# from the CCDC's data processing and validation procedures.
#
#######################################################################

data_SOZPAA
_chemical_formula_moiety         'C14 H22 O3'
_chemical_name_systematic        
"1,3,3-Trimethylspiro[bicyclo[2.2.2]octane-2,2'-oxiran]-6-yl acetate"
_symmetry_cell_setting           orthorhombic
_symmetry_space_group_name_H-M   'P 21 21 21'
_symmetry_Int_Tables_number      19
_space_group_name_Hall           'P 2ac 2ab'
loop_
_symmetry_equiv_pos_site_id
_symmetry_equiv_pos_as_xyz
1 x,y,z
2 1/2-x,-y,1/2+z
3 -x,1/2+y,1/2-z
4 1/2+x,1/2-y,-z
_cell_length_a                   6.9913(2)
_cell_length_b                   13.2262(3)
_cell_length_c                   13.8803(4)
_cell_angle_alpha                90
_cell_angle_beta                 90
_cell_angle_gamma                90
_cell_volume                     1283.49
_exptl_crystal_colour            colorless
_exptl_crystal_description       parallelepiped
_chemical_melting_point          '355 K'
_cell_formula_units_Z            4
_chemical_properties_physical    Heat-sensitive
loop_
_atom_site_label
_atom_site_type_symbol
_atom_site_fract_x
_atom_site_fract_y
_atom_site_fract_z
O1 O 0.19949(19) 0.75611(8) 0.22069(9)
O2 O 0.02777(18) 0.59504(8) 0.11172(8)
O3 O -0.13489(19) 0.47092(9) 0.03675(10)
C1 C 0.3546(3) 0.75317(12) 0.28880(14)
H1 H 0.3440 0.7957 0.3473
H2 H 0.4860 0.7453 0.2633
C2 C 0.2228(3) 0.66692(11) 0.27923(12)
C3 C 0.0663(3) 0.64725(12) 0.35567(12)
C4 C 0.0278(3) 0.53178(13) 0.35614(12)
H3 H -0.0706 0.5157 0.4061
C5 C -0.0426(2) 0.49587(12) 0.25777(13)
H4 H -0.1662 0.5287 0.2424
H5 H -0.0630 0.4218 0.2591
C6 C 0.1059(2) 0.52256(12) 0.18004(12)
H6 H 0.1440 0.4597 0.1449
C7 C 0.2841(2) 0.57153(11) 0.22439(12)
C8 C 0.3619(3) 0.49708(12) 0.30017(12)
H7 H 0.4764 0.5267 0.3312
H8 H 0.4013 0.4337 0.2678
C9 C 0.2118(3) 0.47274(14) 0.37775(13)
H9 H 0.1846 0.3993 0.3780
H10 H 0.2612 0.4918 0.4421
C10 C 0.1309(3) 0.68021(16) 0.45670(14)
H11 H 0.1561 0.7531 0.4568
H12 H 0.2480 0.6438 0.4743
H13 H 0.0301 0.6647 0.5034
C11 C -0.1169(3) 0.70463(13) 0.33056(15)
H14 H -0.0907 0.7774 0.3300
H15 H -0.2153 0.6898 0.3788
H16 H -0.1620 0.6834 0.2668
C12 C -0.0920(3) 0.55911(13) 0.04412(13)
C13 C -0.1611(3) 0.64288(14) -0.01924(14)
H17 H -0.2487 0.6155 -0.0678
H18 H -0.0517 0.6747 -0.0513
H19 H -0.2283 0.6933 0.0199
C14 C 0.4329(3) 0.59147(14) 0.14661(13)
H20 H 0.5460 0.6229 0.1756
H21 H 0.3790 0.6369 0.0979
H22 H 0.4693 0.5274 0.1162
loop_
_geom_bond_atom_site_label_1
_geom_bond_atom_site_label_2
_geom_bond_site_symmetry_1
_geom_bond_site_symmetry_2
O1 C1 1_555 1_555
O2 C6 1_555 1_555
O3 C12 1_555 1_555
C1 H1 1_555 1_555
H2 C1 1_555 1_555
C2 O1 1_555 1_555
C3 C2 1_555 1_555
C4 C3 1_555 1_555
H3 C4 1_555 1_555
C5 C4 1_555 1_555
H4 C5 1_555 1_555
H5 C5 1_555 1_555
C6 C5 1_555 1_555
H6 C6 1_555 1_555
C7 C2 1_555 1_555
C8 C7 1_555 1_555
H7 C8 1_555 1_555
H8 C8 1_555 1_555
C9 C4 1_555 1_555
H9 C9 1_555 1_555
H10 C9 1_555 1_555
C10 C3 1_555 1_555
H11 C10 1_555 1_555
H12 C10 1_555 1_555
H13 C10 1_555 1_555
C11 C3 1_555 1_555
H14 C11 1_555 1_555
H15 C11 1_555 1_555
H16 C11 1_555 1_555
C12 O2 1_555 1_555
C13 C12 1_555 1_555
H17 C13 1_555 1_555
H18 C13 1_555 1_555
H19 C13 1_555 1_555
C14 C7 1_555 1_555
H20 C14 1_555 1_555
H21 C14 1_555 1_555
H22 C14 1_555 1_555
C1 C2 1_555 1_555
C6 C7 1_555 1_555
C8 C9 1_555 1_555

#END
