
#######################################################################
#
#                 Cambridge Crystallographic Data Centre
#                                CCDC 
#
#######################################################################
#
# If this CIF has been generated from an entry in the Cambridge 
# Structural Database, then it will include bibliographic, chemical, 
# crystal, experimental, refinement or atomic coordinate data resulting 
# from the CCDC's data processing and validation procedures.
#
#######################################################################

data_SOZQEF
_chemical_formula_moiety         'C21 H18 Cl1 N3 O2 S2'
_chemical_name_systematic        
2-((4-chloro-5-(4-methylphenyl)-1-phenyl-1H-pyrazol-3-yl)oxy)-1-(2-thioxo-1,3-thiazolidin-3-yl)ethanone
_symmetry_cell_setting           triclinic
_symmetry_space_group_name_H-M   'P -1'
_symmetry_Int_Tables_number      2
_space_group_name_Hall           '-P 1'
loop_
_symmetry_equiv_pos_site_id
_symmetry_equiv_pos_as_xyz
1 x,y,z
2 -x,-y,-z
_cell_length_a                   6.1110(12)
_cell_length_b                   8.0920(16)
_cell_length_c                   20.818(4)
_cell_angle_alpha                91.60(3)
_cell_angle_beta                 90.19(3)
_cell_angle_gamma                97.40(3)
_cell_volume                     1020.46
_exptl_crystal_colour            yellow
_exptl_crystal_description       needle
_cell_formula_units_Z            2
loop_
_atom_site_label
_atom_site_type_symbol
_atom_site_fract_x
_atom_site_fract_y
_atom_site_fract_z
S1 S 1.1232(5) 0.2858(3) -0.06333(10)
O1 O 0.6470(8) 0.0936(6) 0.1056(2)
N1 N 0.8873(9) 0.2200(6) 0.0360(2)
C1 C 0.855(2) 0.1942(10) -0.0797(3)
H1 H 0.7712 0.2738 -0.0992
H2 H 0.8562 0.0994 -0.1093
S2 S 1.2977(4) 0.3864(3) 0.06244(12)
O2 O 0.8021(6) 0.2557(4) 0.21163(16)
N2 N 1.0136(7) 0.0338(5) 0.22348(18)
C2 C 1.0938(12) 0.2985(8) 0.0179(3)
Cl1 Cl 0.5954(2) 0.17671(19) 0.34836(7)
N3 N 1.0301(6) -0.0746(5) 0.27204(18)
C3 C 0.7490(13) 0.1367(9) -0.0151(3)
H3 H 0.6006 0.1666 -0.0121
H4 H 0.7413 0.0167 -0.0121
C4 C 0.8085(11) 0.1933(7) 0.0992(3)
C5 C 0.9193(10) 0.2929(7) 0.1544(2)
H5 H 1.0693 0.2674 0.1590
H6 H 0.9255 0.4109 0.1463
C6 C 0.8652(8) 0.1286(6) 0.2448(2)
C7 C 0.8946(8) -0.0460(6) 0.3230(2)
C8 C 0.7871(8) 0.0850(6) 0.3050(2)
C9 C 1.1731(8) -0.1992(6) 0.2632(2)
C10 C 1.3690(8) -0.1559(7) 0.2316(2)
H7 H 1.4080 -0.0476 0.2180
C11 C 1.5070(9) -0.2768(8) 0.2204(3)
H8 H 1.6387 -0.2495 0.1986
C12 C 1.4513(10) -0.4359(8) 0.2410(3)
H9 H 1.5462 -0.5155 0.2338
C13 C 1.2546(10) -0.4778(7) 0.2725(3)
H10 H 1.2166 -0.5857 0.2867
C14 C 1.1127(8) -0.3579(6) 0.2829(2)
H11 H 0.9781 -0.3859 0.3032
C15 C 0.8883(8) -0.1328(6) 0.3839(2)
C16 C 1.0749(8) -0.1300(6) 0.4219(2)
H12 H 1.2095 -0.0782 0.4072
C17 C 1.0650(9) -0.2025(6) 0.4810(2)
H13 H 1.1928 -0.1978 0.5057
C18 C 0.8687(9) -0.2824(6) 0.5044(2)
C19 C 0.6823(9) -0.2856(7) 0.4662(3)
H14 H 0.5480 -0.3380 0.4808
C20 C 0.6915(9) -0.2125(7) 0.4067(3)
H15 H 0.5640 -0.2171 0.3818
C21 C 0.8560(10) -0.3572(7) 0.5697(3)
H16 H 1.0000 -0.3427 0.5892
H17 H 0.8029 -0.4739 0.5656
H18 H 0.7568 -0.3026 0.5961
loop_
_geom_bond_atom_site_label_1
_geom_bond_atom_site_label_2
_geom_bond_site_symmetry_1
_geom_bond_site_symmetry_2
S1 C1 1_555 1_555
O1 C4 1_555 1_555
N1 C2 1_555 1_555
C1 H1 1_555 1_555
H2 C1 1_555 1_555
S2 C2 1_555 1_555
O2 C5 1_555 1_555
N2 N3 1_555 1_555
C2 S1 1_555 1_555
Cl1 C8 1_555 1_555
N3 C7 1_555 1_555
C3 N1 1_555 1_555
H3 C3 1_555 1_555
H4 C3 1_555 1_555
C4 N1 1_555 1_555
C5 C4 1_555 1_555
H5 C5 1_555 1_555
H6 C5 1_555 1_555
C6 O2 1_555 1_555
C7 C8 1_555 1_555
C8 C6 1_555 1_555
C9 N3 1_555 1_555
C10 C9 1_555 1_555
H7 C10 1_555 1_555
C11 C10 1_555 1_555
H8 C11 1_555 1_555
C12 C11 1_555 1_555
H9 C12 1_555 1_555
C13 C12 1_555 1_555
H10 C13 1_555 1_555
C14 C9 1_555 1_555
H11 C14 1_555 1_555
C15 C7 1_555 1_555
C16 C15 1_555 1_555
H12 C16 1_555 1_555
C17 C16 1_555 1_555
H13 C17 1_555 1_555
C18 C17 1_555 1_555
C19 C18 1_555 1_555
H14 C19 1_555 1_555
C20 C15 1_555 1_555
H15 C20 1_555 1_555
C21 C18 1_555 1_555
H16 C21 1_555 1_555
H17 C21 1_555 1_555
H18 C21 1_555 1_555
C1 C3 1_555 1_555
N2 C6 1_555 1_555
C13 C14 1_555 1_555
C19 C20 1_555 1_555

#END
