
#######################################################################
#
#                 Cambridge Crystallographic Data Centre
#                                CCDC 
#
#######################################################################
#
# If this CIF has been generated from an entry in the Cambridge 
# Structural Database, then it will include bibliographic, chemical, 
# crystal, experimental, refinement or atomic coordinate data resulting 
# from the CCDC's data processing and validation procedures.
#
#######################################################################

data_STREPB10
_chemical_formula_moiety         'C52 H59 B1 Br1 N1 O17,C1 H2 Cl2'
_chemical_name_systematic        
'Streptovaricin C triacetate p-bromobenzeneboronate methylene dichloride solvate'
_symmetry_cell_setting           orthorhombic
_symmetry_space_group_name_H-M   'P 21 21 21'
_symmetry_Int_Tables_number      19
_space_group_name_Hall           'P 2ac 2ab'
loop_
_symmetry_equiv_pos_site_id
_symmetry_equiv_pos_as_xyz
1 x,y,z
2 1/2+x,1/2-y,-z
3 -x,1/2+y,1/2-z
4 1/2-x,-y,1/2+z
_cell_length_a                   22.487(8)
_cell_length_b                   12.678(5)
_cell_length_c                   19.723(6)
_cell_angle_alpha                90
_cell_angle_beta                 90
_cell_angle_gamma                90
_cell_volume                     5622.83
_chemical_melting_point          275-8deg.C
_cell_formula_units_Z            4
loop_
_atom_site_label
_atom_site_type_symbol
_atom_site_fract_x
_atom_site_fract_y
_atom_site_fract_z
Br1 Br 0.08210 0.23320 -0.46230
B1 B -0.16280 0.02500 -0.39360
C1 C -0.50580 -0.43600 -0.33700
C2 C -0.39460 -0.07600 -0.52050
C3 C -0.32600 -0.09600 -0.50440
C4 C -0.30800 -0.04500 -0.43530
C5 C -0.24310 -0.07700 -0.41890
C6 C -0.22820 -0.08400 -0.34120
C7 C -0.21400 -0.19700 -0.32410
C8 C -0.18320 -0.23400 -0.26940
C9 C -0.17540 -0.35000 -0.26340
C10 C -0.21630 -0.42400 -0.28270
C11 C -0.18980 -0.52900 -0.30500
C12 C -0.55930 -0.41300 -0.37580
C13 C -0.21490 -0.59100 -0.35100
C14 C -0.27500 -0.55900 -0.37800
C15 C -0.30650 -0.47400 -0.34330
C16 C -0.27860 -0.41000 -0.29170
C17 C -0.31590 -0.34800 -0.25150
C18 C -0.37800 -0.33200 -0.26130
C19 C -0.40050 -0.38800 -0.31860
C20 C -0.36650 -0.46000 -0.35350
C21 C -0.55090 -0.36600 -0.43830
C22 C -0.61700 -0.45800 -0.35080
C23 C -0.51870 -0.33500 -0.63790
C24 C -0.59650 -0.04900 -0.52490
C25 C -0.60000 0.02400 -0.46090
C26 C -0.47300 0.01300 -0.64220
C27 C -0.34730 -0.22400 -0.66660
C28 C -0.59840 -0.34300 -0.48330
C29 C -0.29560 -0.19000 -0.71400
C30 C -0.43140 -0.10800 -0.45800
C31 C -0.47510 -0.04700 -0.35740
C32 C -0.27600 -0.25800 -0.53190
C33 C -0.27700 -0.37700 -0.52100
C34 C -0.31480 0.08100 -0.44600
C35 C -0.59130 -0.29400 -0.54500
C36 C -0.10340 0.08800 -0.40660
C37 C -0.06450 0.12000 -0.35940
C38 C -0.01060 0.17000 -0.37620
C39 C 0.00400 0.17600 -0.44200
C40 C -0.03140 0.14700 -0.49780
C41 C -0.08750 0.10100 -0.47620
C42 C -0.53050 -0.27200 -0.57690
C43 C -0.27670 -0.04300 -0.29170
C44 C -0.15080 -0.16200 -0.21860
C45 C -0.11500 -0.48000 -0.22520
C46 C -0.18480 -0.68700 -0.38100
C47 C -0.27760 -0.34500 -0.13780
C48 C -0.26060 -0.27000 -0.08140
C49 C -0.52840 -0.15200 -0.59470
C50 C -0.41160 -0.26400 -0.21580
C52 C -0.46970 -0.11400 -0.62660
C53 C -0.41030 -0.14300 -0.58240
N1 N -0.46040 -0.36500 -0.33760
O1 O -0.50270 -0.51000 -0.29490
O2 O -0.53860 -0.09100 -0.53180
O3 O -0.63520 -0.06500 -0.56250
O4 O -0.36230 -0.12900 -0.63160
O5 O -0.36680 -0.30400 -0.66010
O6 O -0.44130 -0.19800 -0.44370
O7 O -0.44660 -0.02200 -0.42410
O8 O -0.31960 -0.21000 -0.49460
O9 O -0.24210 -0.21100 -0.56420
O10 O -0.20060 0.00000 -0.44610
O11 O -0.17610 -0.01800 -0.33410
O12 O -0.11960 -0.37600 -0.24730
O13 O -0.13080 -0.54300 -0.28410
O14 O -0.29680 -0.61000 -0.42390
O15 O -0.29070 -0.29400 -0.19540
O16 O -0.28210 -0.44000 -0.13760
O17 O -0.39410 -0.51100 -0.40630
Cl1 Cl -0.39220 0.22400 -0.31340
Cl2 Cl -0.35950 0.34500 -0.20100
C51 C -0.41730 0.30900 -0.25650
loop_
_geom_bond_atom_site_label_1
_geom_bond_atom_site_label_2
_geom_bond_site_symmetry_1
_geom_bond_site_symmetry_2
Br1 C39 1_555 1_555
B1 C36 1_555 1_555
Cl1 C51 1_555 1_555
Cl2 C51 1_555 1_555
C1 C12 1_555 1_555
C2 C3 1_555 1_555
C3 C4 1_555 1_555
C4 C5 1_555 1_555
C5 C6 1_555 1_555
C6 C7 1_555 1_555
C7 C8 1_555 1_555
C8 C9 1_555 1_555
C9 C10 1_555 1_555
C10 C11 1_555 1_555
C11 C13 1_555 1_555
C12 C21 1_555 1_555
C13 C14 1_555 1_555
C14 C15 1_555 1_555
C15 C16 1_555 1_555
C16 C10 1_555 1_555
C17 C16 1_555 1_555
C18 C17 1_555 1_555
C19 C18 1_555 1_555
C20 C15 1_555 1_555
C21 C28 1_555 1_555
C22 C12 1_555 1_555
C23 C42 1_555 1_555
C24 C25 1_555 1_555
C26 C52 1_555 1_555
C27 C29 1_555 1_555
C28 C35 1_555 1_555
C30 C2 1_555 1_555
C31 O7 1_555 1_555
C32 C33 1_555 1_555
C34 C4 1_555 1_555
C35 C42 1_555 1_555
C36 C37 1_555 1_555
C37 C38 1_555 1_555
C38 C39 1_555 1_555
C39 C40 1_555 1_555
C40 C41 1_555 1_555
C41 C36 1_555 1_555
C42 C49 1_555 1_555
C43 C6 1_555 1_555
C44 C8 1_555 1_555
C45 O12 1_555 1_555
C46 C13 1_555 1_555
C47 C48 1_555 1_555
C49 C52 1_555 1_555
C50 C18 1_555 1_555
C52 C53 1_555 1_555
C53 C2 1_555 1_555
N1 C1 1_555 1_555
O1 C1 1_555 1_555
O2 C24 1_555 1_555
O3 C24 1_555 1_555
O4 C27 1_555 1_555
O5 C27 1_555 1_555
O6 C30 1_555 1_555
O7 C30 1_555 1_555
O8 C3 1_555 1_555
O9 C32 1_555 1_555
O10 B1 1_555 1_555
O11 B1 1_555 1_555
O12 C9 1_555 1_555
O13 C11 1_555 1_555
O14 C14 1_555 1_555
O15 C17 1_555 1_555
O16 C47 1_555 1_555
O17 C20 1_555 1_555
C5 O10 1_555 1_555
C6 O11 1_555 1_555
C19 C20 1_555 1_555
C19 N1 1_555 1_555
C32 O8 1_555 1_555
C45 O13 1_555 1_555
C47 O15 1_555 1_555
C49 O2 1_555 1_555
C53 O4 1_555 1_555

#END
