
#######################################################################
#
#                 Cambridge Crystallographic Data Centre
#                                CCDC 
#
#######################################################################
#
# If this CIF has been generated from an entry in the Cambridge 
# Structural Database, then it will include bibliographic, chemical, 
# crystal, experimental, refinement or atomic coordinate data resulting 
# from the CCDC's data processing and validation procedures.
#
#######################################################################

data_SUBKEH
_chemical_formula_moiety         'C68 H92 N2 O4'
_chemical_name_systematic        
'diethyl 2,5-bis(9-hexadecyl-9H-carbazol-3-yl)terephthalate'
_symmetry_cell_setting           triclinic
_symmetry_space_group_name_H-M   'P 1'
_symmetry_Int_Tables_number      1
_space_group_name_Hall           'P 1'
loop_
_symmetry_equiv_pos_site_id
_symmetry_equiv_pos_as_xyz
1 x,y,z
_cell_length_a                   8.2621(17)
_cell_length_b                   8.9309(18)
_cell_length_c                   21.084(4)
_cell_angle_alpha                81.69(3)
_cell_angle_beta                 85.17(3)
_cell_angle_gamma                82.15(3)
_cell_volume                     1521.68
_exptl_crystal_colour            colorless
_exptl_crystal_description       rod-like
_cell_formula_units_Z            1
loop_
_atom_site_label
_atom_site_type_symbol
_atom_site_fract_x
_atom_site_fract_y
_atom_site_fract_z
C1 C 0.2438(17) -1.2116(15) -0.1641(6)
H1 H 0.1370 -1.2290 -0.1452
H2 H 0.3011 -1.3051 -0.1763
H3 H 0.2330 -1.1363 -0.2014
C2 C 0.3346(14) -1.1578(12) -0.1180(5)
H4 H 0.4476 -1.1582 -0.1347
H5 H 0.3333 -1.2291 -0.0787
C3 C 0.2731(12) -1.0050(9) -0.1023(4)
H6 H 0.1595 -1.0044 -0.0862
H7 H 0.2756 -0.9337 -0.1416
C4 C 0.3666(9) -0.9473(9) -0.0529(4)
H8 H 0.3628 -1.0182 -0.0135
H9 H 0.4804 -0.9496 -0.0687
C5 C 0.3086(11) -0.7960(10) -0.0375(4)
H10 H 0.1951 -0.7938 -0.0212
H11 H 0.3117 -0.7250 -0.0769
C6 C 0.4035(9) -0.7402(8) 0.0111(3)
H12 H 0.5174 -0.7455 -0.0049
H13 H 0.3985 -0.8107 0.0506
C7 C 0.3481(12) -0.5792(9) 0.0275(4)
H14 H 0.3534 -0.5087 -0.0119
H15 H 0.2341 -0.5739 0.0434
C8 C 0.4406(10) -0.5255(8) 0.0750(3)
H16 H 0.5540 -0.5281 0.0586
H17 H 0.4377 -0.5974 0.1141
C9 C 0.3814(11) -0.3654(8) 0.0925(4)
H18 H 0.3775 -0.2929 0.0535
H19 H 0.2711 -0.3636 0.1124
C10 C 0.4920(9) -0.3159(8) 0.1381(3)
H20 H 0.5049 -0.3928 0.1755
H21 H 0.5993 -0.3063 0.1167
C11 C 0.4179(10) -0.1635(8) 0.1594(3)
H22 H 0.3091 -0.1725 0.1796
H23 H 0.4080 -0.0862 0.1221
C12 C 0.5265(8) -0.1141(7) 0.2076(3)
H24 H 0.5384 -0.1934 0.2441
H25 H 0.6346 -0.1042 0.1869
C13 C 0.4580(10) 0.0327(8) 0.2309(3)
H26 H 0.3446 0.0288 0.2465
H27 H 0.4615 0.1155 0.1958
C14 C 0.5588(7) 0.0632(6) 0.2863(3)
H28 H 0.5683 -0.0264 0.3184
H29 H 0.6683 0.0805 0.2691
C15 C 0.4784(10) 0.2023(9) 0.3183(3)
H30 H 0.3621 0.1962 0.3267
H31 H 0.5253 0.2002 0.3591
C16 C 0.5021(8) 0.3457(7) 0.2779(3)
H32 H 0.4638 0.3452 0.2357
H33 H 0.6177 0.3573 0.2728
C17 C 0.2516(8) 0.5463(7) 0.2914(3)
C18 C 0.1406(10) 0.5090(8) 0.2501(3)
H34 H 0.1679 0.4250 0.2281
C19 C -0.0038(10) 0.5959(8) 0.2432(4)
H35 H -0.0782 0.5704 0.2170
C20 C -0.0453(9) 0.7286(8) 0.2758(4)
H36 H -0.1452 0.7891 0.2698
C21 C 0.0581(8) 0.7652(8) 0.3143(3)
H37 H 0.0294 0.8500 0.3357
C22 C 0.2110(7) 0.6760(6) 0.3230(3)
C23 C 0.3452(7) 0.6811(6) 0.3600(3)
C24 C 0.3793(7) 0.7852(6) 0.4017(3)
H38 H 0.3022 0.8665 0.4109
C25 C 0.5293(7) 0.7606(7) 0.4274(3)
C26 C 0.6433(8) 0.6329(7) 0.4177(3)
H39 H 0.7401 0.6163 0.4387
C27 C 0.6148(8) 0.5338(7) 0.3785(4)
H40 H 0.6931 0.4521 0.3707
C28 C 0.4630(8) 0.5566(6) 0.3493(3)
C29 C 0.5713(7) 0.8778(6) 0.4669(3)
C30 C 0.7180(7) 0.9431(6) 0.4480(3)
H41 H 0.7886 0.9022 0.4164
C31 C 0.7614(7) 1.0634(6) 0.4739(3)
C32 C 0.6621(7) 1.1207(6) 0.5253(3)
C33 C 0.5197(8) 1.0587(7) 0.5439(3)
H42 H 0.4517 1.0975 0.5767
C34 C 0.4718(7) 0.9402(6) 0.5162(3)
C35 C 0.3195(7) 0.8773(7) 0.5470(3)
C36 C 0.9150(7) 1.1212(7) 0.4443(3)
C37 C 1.0547(8) 1.3396(7) 0.4171(3)
H43 H 1.0246 1.4481 0.4047
H44 H 1.0943 1.2946 0.3786
C38 C 1.1877(10) 1.3165(9) 0.4619(4)
H45 H 1.1464 1.3529 0.5015
H46 H 1.2756 1.3717 0.4430
H47 H 1.2273 1.2098 0.4701
C39 C 0.1791(9) 0.6594(8) 0.5732(4)
H48 H 0.1359 0.7015 0.6120
H49 H 0.2099 0.5506 0.5845
C40 C 0.0494(8) 0.6859(9) 0.5255(4)
H50 H 0.0108 0.7929 0.5177
H51 H -0.0401 0.6307 0.5424
H52 H 0.0947 0.6511 0.4860
C41 C 0.7076(7) 1.2344(6) 0.5610(3)
C42 C 0.8542(7) 1.2153(6) 0.5922(3)
H53 H 0.9313 1.1314 0.5864
C43 C 0.8861(7) 1.3142(6) 0.6300(3)
C44 C 0.7678(8) 1.4381(7) 0.6419(3)
C45 C 0.6250(9) 1.4659(8) 0.6130(4)
H54 H 0.5498 1.5511 0.6188
C46 C 0.5959(7) 1.3602(7) 0.5737(3)
H55 H 0.4961 1.3747 0.5549
C47 C 1.0234(7) 1.3228(6) 0.6683(3)
C48 C 1.1691(8) 1.2341(8) 0.6774(3)
H56 H 1.1972 1.1467 0.6576
C49 C 1.2765(8) 1.2790(9) 0.7179(4)
H57 H 1.3786 1.2221 0.7233
C50 C 1.2356(10) 1.3996(11) 0.7483(4)
H58 H 1.3092 1.4232 0.7752
C51 C 1.0848(9) 1.4941(8) 0.7414(3)
H59 H 1.0567 1.5790 0.7628
C52 C 0.9829(8) 1.4519(7) 0.7011(3)
C53 C 0.7391(9) 1.6516(6) 0.7118(3)
H60 H 0.7797 1.6563 0.7532
H61 H 0.6251 1.6347 0.7193
C54 C 0.7462(9) 1.8023(6) 0.6721(3)
H62 H 0.6913 1.8059 0.6329
H63 H 0.8593 1.8180 0.6605
C55 C 0.6597(10) 1.9313(7) 0.7116(4)
H64 H 0.6220 2.0204 0.6820
H65 H 0.5646 1.8958 0.7363
C56 C 0.7693(9) 1.9756(7) 0.7558(3)
H66 H 0.8726 1.9927 0.7323
H67 H 0.7915 1.8911 0.7896
C57 C 0.7016(10) 2.1203(8) 0.7873(4)
H68 H 0.6837 2.2054 0.7533
H69 H 0.5957 2.1047 0.8089
C58 C 0.8041(9) 2.1639(8) 0.8336(4)
H70 H 0.9144 2.1664 0.8140
H71 H 0.8093 2.0857 0.8706
C59 C 0.7455(9) 2.3166(8) 0.8564(3)
H72 H 0.7367 2.3928 0.8187
H73 H 0.6357 2.3118 0.8763
C60 C 0.8425(10) 2.3736(8) 0.9022(4)
H74 H 0.9550 2.3708 0.8846
H75 H 0.8421 2.3040 0.9421
C61 C 0.7841(10) 2.5314(8) 0.9173(4)
H76 H 0.6710 2.5353 0.9344
H77 H 0.7870 2.6019 0.8778
C62 C 0.8861(11) 2.5846(9) 0.9661(4)
H78 H 0.8810 2.5160 1.0061
H79 H 0.9996 2.5791 0.9496
C63 C 0.8272(10) 2.7432(8) 0.9789(4)
H80 H 0.7123 2.7499 0.9935
H81 H 0.8372 2.8125 0.9393
C64 C 0.9217(9) 2.7924(9) 1.0288(4)
H82 H 1.0363 2.7878 1.0137
H83 H 0.9140 2.7214 1.0680
C65 C 0.8587(11) 2.9572(8) 1.0440(4)
H84 H 0.8650 3.0281 1.0047
H85 H 0.7446 2.9615 1.0597
C66 C 0.9550(11) 3.0064(9) 1.0932(4)
H86 H 1.0678 3.0084 1.0764
H87 H 0.9541 2.9325 1.1317
C67 C 0.8845(14) 3.1655(10) 1.1106(5)
H88 H 0.7715 3.1636 1.1270
H89 H 0.8860 3.2394 1.0720
C68 C 0.9850(13) 3.2179(16) 1.1627(7)
H90 H 0.9720 3.1528 1.2028
H91 H 0.9449 3.3214 1.1686
H92 H 1.0989 3.2110 1.1484
N1 N 0.4099(7) 0.4752(6) 0.3079(3)
N2 N 0.8301(7) 1.5196(5) 0.6857(3)
O1 O 0.2048(6) 0.9564(5) 0.5710(2)
O2 O 0.3237(5) 0.7306(5) 0.5466(2)
O3 O 1.0237(6) 1.0467(6) 0.4186(3)
O4 O 0.9112(5) 1.2720(4) 0.4457(2)
loop_
_geom_bond_atom_site_label_1
_geom_bond_atom_site_label_2
_geom_bond_site_symmetry_1
_geom_bond_site_symmetry_2
C1 H1 1_555 1_555
H2 C1 1_555 1_555
H3 C1 1_555 1_555
C2 C1 1_555 1_555
H4 C2 1_555 1_555
H5 C2 1_555 1_555
C3 C2 1_555 1_555
H6 C3 1_555 1_555
H7 C3 1_555 1_555
C4 C3 1_555 1_555
H8 C4 1_555 1_555
H9 C4 1_555 1_555
C5 C4 1_555 1_555
H10 C5 1_555 1_555
H11 C5 1_555 1_555
C6 C5 1_555 1_555
H12 C6 1_555 1_555
H13 C6 1_555 1_555
C7 C6 1_555 1_555
H14 C7 1_555 1_555
H15 C7 1_555 1_555
C8 C7 1_555 1_555
H16 C8 1_555 1_555
H17 C8 1_555 1_555
C9 C8 1_555 1_555
H18 C9 1_555 1_555
H19 C9 1_555 1_555
C10 C9 1_555 1_555
H20 C10 1_555 1_555
H21 C10 1_555 1_555
C11 C10 1_555 1_555
H22 C11 1_555 1_555
H23 C11 1_555 1_555
C12 C11 1_555 1_555
H24 C12 1_555 1_555
H25 C12 1_555 1_555
C13 C12 1_555 1_555
H26 C13 1_555 1_555
H27 C13 1_555 1_555
C14 C13 1_555 1_555
H28 C14 1_555 1_555
H29 C14 1_555 1_555
C15 C14 1_555 1_555
H30 C15 1_555 1_555
H31 C15 1_555 1_555
C16 C15 1_555 1_555
H32 C16 1_555 1_555
H33 C16 1_555 1_555
C17 C18 1_555 1_555
C18 H34 1_555 1_555
C19 C18 1_555 1_555
H35 C19 1_555 1_555
C20 C19 1_555 1_555
H36 C20 1_555 1_555
C21 C20 1_555 1_555
H37 C21 1_555 1_555
C22 C17 1_555 1_555
C23 C22 1_555 1_555
C24 C23 1_555 1_555
H38 C24 1_555 1_555
C25 C24 1_555 1_555
C26 C25 1_555 1_555
H39 C26 1_555 1_555
C27 C26 1_555 1_555
H40 C27 1_555 1_555
C28 C23 1_555 1_555
C29 C25 1_555 1_555
C30 C29 1_555 1_555
H41 C30 1_555 1_555
C31 C30 1_555 1_555
C32 C31 1_555 1_555
C33 C32 1_555 1_555
H42 C33 1_555 1_555
C34 C29 1_555 1_555
C35 C34 1_555 1_555
C36 C31 1_555 1_555
C37 H43 1_555 1_555
H44 C37 1_555 1_555
C38 C37 1_555 1_555
H45 C38 1_555 1_555
H46 C38 1_555 1_555
H47 C38 1_555 1_555
C39 H48 1_555 1_555
H49 C39 1_555 1_555
C40 C39 1_555 1_555
H50 C40 1_555 1_555
H51 C40 1_555 1_555
H52 C40 1_555 1_555
C41 C32 1_555 1_555
C42 C41 1_555 1_555
H53 C42 1_555 1_555
C43 C42 1_555 1_555
C44 C43 1_555 1_555
C45 C44 1_555 1_555
H54 C45 1_555 1_555
C46 C41 1_555 1_555
H55 C46 1_555 1_555
C47 C43 1_555 1_555
C48 C47 1_555 1_555
H56 C48 1_555 1_555
C49 C48 1_555 1_555
H57 C49 1_555 1_555
C50 C49 1_555 1_555
H58 C50 1_555 1_555
C51 C50 1_555 1_555
H59 C51 1_555 1_555
C52 C47 1_555 1_555
C53 H60 1_555 1_555
H61 C53 1_555 1_555
C54 C53 1_555 1_555
H62 C54 1_555 1_555
H63 C54 1_555 1_555
C55 C54 1_555 1_555
H64 C55 1_555 1_555
H65 C55 1_555 1_555
C56 C55 1_555 1_555
H66 C56 1_555 1_555
H67 C56 1_555 1_555
C57 C56 1_555 1_555
H68 C57 1_555 1_555
H69 C57 1_555 1_555
C58 C57 1_555 1_555
H70 C58 1_555 1_555
H71 C58 1_555 1_555
C59 C58 1_555 1_555
H72 C59 1_555 1_555
H73 C59 1_555 1_555
C60 C59 1_555 1_555
H74 C60 1_555 1_555
H75 C60 1_555 1_555
C61 C60 1_555 1_555
H76 C61 1_555 1_555
H77 C61 1_555 1_555
C62 C61 1_555 1_555
H78 C62 1_555 1_555
H79 C62 1_555 1_555
C63 C62 1_555 1_555
H80 C63 1_555 1_555
H81 C63 1_555 1_555
C64 C63 1_555 1_555
H82 C64 1_555 1_555
H83 C64 1_555 1_555
C65 C64 1_555 1_555
H84 C65 1_555 1_555
H85 C65 1_555 1_555
C66 C65 1_555 1_555
H86 C66 1_555 1_555
H87 C66 1_555 1_555
C67 C66 1_555 1_555
H88 C67 1_555 1_555
H89 C67 1_555 1_555
C68 C67 1_555 1_555
H90 C68 1_555 1_555
H91 C68 1_555 1_555
H92 C68 1_555 1_555
N1 C16 1_555 1_555
N2 C44 1_555 1_555
O1 C35 1_555 1_555
O2 C35 1_555 1_555
O3 C36 1_555 1_555
O4 C36 1_555 1_555
C17 N1 1_555 1_555
C21 C22 1_555 1_555
C27 C28 1_555 1_555
C28 N1 1_555 1_555
C33 C34 1_555 1_555
C37 O4 1_555 1_555
C39 O2 1_555 1_555
C45 C46 1_555 1_555
C51 C52 1_555 1_555
C52 N2 1_555 1_555
C53 N2 1_555 1_555

#END
