
#######################################################################
#
#                 Cambridge Crystallographic Data Centre
#                                CCDC 
#
#######################################################################
#
# If this CIF has been generated from an entry in the Cambridge 
# Structural Database, then it will include bibliographic, chemical, 
# crystal, experimental, refinement or atomic coordinate data resulting 
# from the CCDC's data processing and validation procedures.
#
#######################################################################

data_SUBLUY
_chemical_formula_moiety         'C16 H17 O3 P1'
_chemical_name_systematic        1-(diphenylphosphoryl)-3-hydroxybutan-2-one
_symmetry_cell_setting           monoclinic
_symmetry_space_group_name_H-M   'P 21'
_symmetry_Int_Tables_number      4
_space_group_name_Hall           'P 2yb'
loop_
_symmetry_equiv_pos_site_id
_symmetry_equiv_pos_as_xyz
1 x,y,z
2 -x,1/2+y,-z
_cell_length_a                   5.826(4)
_cell_length_b                   17.749(10)
_cell_length_c                   14.404(9)
_cell_angle_alpha                90
_cell_angle_beta                 93.154(9)
_cell_angle_gamma                90
_cell_volume                     1487.2
_exptl_crystal_colour            colorless
_exptl_crystal_description       prism
_cell_formula_units_Z            4
loop_
_atom_site_label
_atom_site_type_symbol
_atom_site_fract_x
_atom_site_fract_y
_atom_site_fract_z
P1 P 0.6280(5) 0.61376(15) 0.53129(17)
O1 O 0.4003(13) 0.6398(5) 0.5628(6)
O2 O 0.8347(18) 0.7584(5) 0.6169(7)
O3 O 1.2437(16) 0.6448(5) 0.7399(5)
C1 C 0.8742(18) 0.6245(6) 0.6131(7)
H1 H 0.8536 0.5907 0.6658
H2 H 1.0116 0.6077 0.5827
C2 C 0.917(2) 0.7014(7) 0.6498(7)
C3 C 1.085(3) 0.7042(8) 0.7377(9)
H3 H 0.9906 0.6972 0.7921
C4 C 1.199(4) 0.7784(10) 0.7495(13)
H4 H 1.2986 0.7781 0.8057
H5 H 1.0828 0.8173 0.7543
H6 H 1.2889 0.7886 0.6963
C5 C 0.6235(19) 0.5139(7) 0.5119(7)
C6 C 0.446(2) 0.4707(8) 0.5432(9)
H7 H 0.3265 0.4944 0.5732
C7 C 0.441(3) 0.3937(8) 0.5315(9)
H8 H 0.3163 0.3657 0.5520
C8 C 0.618(3) 0.3578(8) 0.4897(9)
H9 H 0.6150 0.3053 0.4814
C9 C 0.801(2) 0.3999(7) 0.4601(8)
H10 H 0.9261 0.3758 0.4343
C10 C 0.798(2) 0.4771(7) 0.4687(8)
H11 H 0.9179 0.5055 0.4448
C11 C 0.703(2) 0.6552(7) 0.4224(7)
C12 C 0.537(3) 0.6501(9) 0.3498(9)
H12 H 0.3989 0.6246 0.3587
C13 C 0.575(3) 0.6824(10) 0.2632(9)
H13 H 0.4605 0.6810 0.2146
C14 C 0.789(3) 0.7174(9) 0.2510(9)
H14 H 0.8218 0.7380 0.1931
C15 C 0.948(3) 0.7210(9) 0.3230(10)
H15 H 1.0888 0.7451 0.3146
C16 C 0.908(2) 0.6904(8) 0.4087(8)
H16 H 1.0209 0.6936 0.4576
H17 H 1.380(16) 0.640(8) 0.707(8)
P2 P 0.3497(4) 0.55105(15) 0.98618(17)
O4 O 0.5615(12) 0.5183(5) 0.9501(5)
O5 O 0.1250(17) 0.4073(5) 0.9288(7)
O6 O -0.2635(15) 0.5083(5) 0.7801(5)
H18 H -0.3408 0.5175 0.8254
C17 C 0.0984(19) 0.5395(6) 0.9118(7)
H19 H -0.0319 0.5616 0.9422
H20 H 0.1183 0.5679 0.8545
C18 C 0.040(2) 0.4597(6) 0.8863(8)
C19 C -0.112(2) 0.4457(7) 0.8017(7)
H21 H -0.2060 0.4002 0.8119
C20 C 0.028(3) 0.4329(9) 0.7194(9)
H22 H 0.0447 0.3792 0.7093
H23 H 0.1785 0.4555 0.7307
H24 H -0.0485 0.4556 0.6649
C21 C 0.3717(19) 0.6516(6) 0.9997(7)
C22 C 0.558(3) 0.6866(8) 0.9712(11)
H25 H 0.6712 0.6577 0.9436
C23 C 0.593(3) 0.7650(9) 0.9804(13)
H26 H 0.7282 0.7875 0.9609
C24 C 0.430(3) 0.8067(8) 1.0175(9)
H27 H 0.4521 0.8588 1.0252
C25 C 0.232(3) 0.7741(9) 1.0444(12)
H28 H 0.1139 0.8033 1.0682
C26 C 0.210(3) 0.6944(8) 1.0350(11)
H29 H 0.0759 0.6711 1.0545
C27 C 0.299(2) 0.5155(6) 1.1007(7)
C28 C 0.466(2) 0.4738(7) 1.1460(8)
H30 H 0.6057 0.4642 1.1185
C29 C 0.427(3) 0.4460(9) 1.2333(10)
H31 H 0.5396 0.4153 1.2631
C30 C 0.239(3) 0.4605(8) 1.2766(9)
H32 H 0.2237 0.4435 1.3377
C31 C 0.066(3) 0.5010(11) 1.2311(10)
H33 H -0.0716 0.5104 1.2603
C32 C 0.094(2) 0.5276(9) 1.1431(9)
H34 H -0.0254 0.5542 1.1114
loop_
_geom_bond_atom_site_label_1
_geom_bond_atom_site_label_2
_geom_bond_site_symmetry_1
_geom_bond_site_symmetry_2
P1 O1 1_555 1_555
O2 C2 1_555 1_555
O3 C3 1_555 1_555
C1 P1 1_555 1_555
H1 C1 1_555 1_555
H2 C1 1_555 1_555
C2 C1 1_555 1_555
C3 C2 1_555 1_555
H3 C3 1_555 1_555
C4 C3 1_555 1_555
H4 C4 1_555 1_555
H5 C4 1_555 1_555
H6 C4 1_555 1_555
C5 P1 1_555 1_555
C6 C5 1_555 1_555
H7 C6 1_555 1_555
C7 C6 1_555 1_555
H8 C7 1_555 1_555
C8 C7 1_555 1_555
H9 C8 1_555 1_555
C9 C8 1_555 1_555
H10 C9 1_555 1_555
C10 C5 1_555 1_555
H11 C10 1_555 1_555
C11 P1 1_555 1_555
C12 C11 1_555 1_555
H12 C12 1_555 1_555
C13 C12 1_555 1_555
H13 C13 1_555 1_555
C14 C13 1_555 1_555
H14 C14 1_555 1_555
C15 C14 1_555 1_555
H15 C15 1_555 1_555
C16 C11 1_555 1_555
H16 C16 1_555 1_555
H17 O3 1_555 1_555
P2 O4 1_555 1_555
O5 C18 1_555 1_555
O6 H18 1_555 1_555
C17 P2 1_555 1_555
H19 C17 1_555 1_555
H20 C17 1_555 1_555
C18 C17 1_555 1_555
C19 O6 1_555 1_555
H21 C19 1_555 1_555
C20 C19 1_555 1_555
H22 C20 1_555 1_555
H23 C20 1_555 1_555
H24 C20 1_555 1_555
C21 P2 1_555 1_555
C22 C21 1_555 1_555
H25 C22 1_555 1_555
C23 C22 1_555 1_555
H26 C23 1_555 1_555
C24 C23 1_555 1_555
H27 C24 1_555 1_555
C25 C24 1_555 1_555
H28 C25 1_555 1_555
C26 C21 1_555 1_555
H29 C26 1_555 1_555
C27 P2 1_555 1_555
C28 C27 1_555 1_555
H30 C28 1_555 1_555
C29 C28 1_555 1_555
H31 C29 1_555 1_555
C30 C29 1_555 1_555
H32 C30 1_555 1_555
C31 C30 1_555 1_555
H33 C31 1_555 1_555
C32 C27 1_555 1_555
H34 C32 1_555 1_555
C9 C10 1_555 1_555
C15 C16 1_555 1_555
C18 C19 1_555 1_555
C25 C26 1_555 1_555
C31 C32 1_555 1_555

#END
