
#######################################################################
#
#                 Cambridge Crystallographic Data Centre
#                                CCDC 
#
#######################################################################
#
# If this CIF has been generated from an entry in the Cambridge 
# Structural Database, then it will include bibliographic, chemical, 
# crystal, experimental, refinement or atomic coordinate data resulting 
# from the CCDC's data processing and validation procedures.
#
#######################################################################

data_SUBROW
_chemical_formula_moiety         'C18 H18 Cl1 N1 O2,0.5(C1 H2 Cl2)'
_chemical_name_systematic        
cis-7-Chloro-3-methyl-4-(4-methoxyphenyl)-1,3,4,5-tetrahydro-2H-1-benzazepin-2-one
_symmetry_cell_setting           monoclinic
_symmetry_space_group_name_H-M   'C 2/c'
_symmetry_Int_Tables_number      15
_space_group_name_Hall           '-C 2yn'
loop_
_symmetry_equiv_pos_site_id
_symmetry_equiv_pos_as_xyz
1 x,y,z
2 1/2+x,1/2+y,z
3 -x,y,1/2-z
4 1/2-x,1/2+y,1/2-z
5 -x,-y,-z
6 1/2-x,1/2-y,-z
7 x,-y,1/2+z
8 1/2+x,1/2-y,1/2+z
_cell_length_a                   18.750(4)
_cell_length_b                   7.518(1)
_cell_length_c                   25.473(5)
_cell_angle_alpha                90
_cell_angle_beta                 97.95(1)
_cell_angle_gamma                90
_cell_volume                     3556.23
_cell_formula_units_Z            8
_chemical_properties_physical    Air-sensitive
loop_
_atom_site_label
_atom_site_type_symbol
_atom_site_fract_x
_atom_site_fract_y
_atom_site_fract_z
Cl1 Cl 0.4398(3) 0.327(1) 0.2740(2)
C1 C 0.5000 0.194(3) 0.2500
Cl1B Cl 0.5602(3) 0.327(1) 0.2260(2)
N1 N 0.3130(3) 1.0632(9) 0.5120(2)
C2 C 0.3371(4) 1.140(1) 0.4697(3)
O1 O 0.3078(3) 1.2704(7) 0.4482(2)
C3 C 0.4050(4) 1.060(1) 0.4530(3)
C4 C 0.3914(4) 0.878(1) 0.4233(3)
C5 C 0.3388(5) 0.760(1) 0.4488(3)
C6 C 0.3720(5) 0.598(1) 0.5353(3)
C7 C 0.3778(5) 0.595(1) 0.5904(3)
C8 C 0.3643(5) 0.741(1) 0.6190(3)
C9 C 0.3462(4) 0.895(1) 0.5925(3)
C10 C 0.3382(4) 0.902(1) 0.5379(3)
C11 C 0.3510(4) 0.752(1) 0.5082(3)
Cl2 Cl 0.3987(2) 0.3892(4) 0.6219(1)
C12 C 0.3665(4) 0.895(1) 0.3641(3)
C13 C 0.4075(5) 0.822(1) 0.3275(3)
C14 C 0.3842(5) 0.826(1) 0.2738(3)
C15 C 0.3196(5) 0.906(1) 0.2549(3)
C16 C 0.2788(5) 0.981(1) 0.2902(3)
C17 C 0.3030(4) 0.975(1) 0.3441(3)
O2 O 0.3006(3) 0.9040(9) 0.2013(2)
C18 C 0.2301(5) 0.957(1) 0.1806(4)
C19 C 0.4451(5) 1.195(1) 0.4228(4)
H1 H 0.2735 1.1206 0.5245
H2 H 0.4377 1.0283 0.4850
H3 H 0.4394 0.8337 0.4214
H4 H 0.3393 0.6428 0.4351
H5 H 0.2901 0.8063 0.4395
H6 H 0.3827 0.4877 0.5160
H7 H 0.3707 0.7329 0.6562
H8 H 0.3354 1.0078 0.6135
H9 H 0.4529 0.7734 0.3355
H10 H 0.4112 0.7704 0.2494
H11 H 0.2335 1.0338 0.2755
H12 H 0.2712 1.0347 0.3677
H13 H 0.2236 0.9532 0.1430
H14 H 0.1957 0.8855 0.1940
H15 H 0.2225 1.0800 0.1909
H16 H 0.4536 1.3019 0.4424
H17 H 0.4901 1.1490 0.4150
H18 H 0.4160 1.2221 0.3895
loop_
_geom_bond_atom_site_label_1
_geom_bond_atom_site_label_2
_geom_bond_site_symmetry_1
_geom_bond_site_symmetry_2
Cl1 C1 1_555 1_555
C1 Cl1B 1_555 1_555
N1 C2 1_555 1_555
C2 O1 1_555 1_555
C3 C2 1_555 1_555
C4 C3 1_555 1_555
C5 C4 1_555 1_555
C6 C7 1_555 1_555
C7 C8 1_555 1_555
C8 C9 1_555 1_555
C9 C10 1_555 1_555
C10 N1 1_555 1_555
C11 C5 1_555 1_555
Cl2 C7 1_555 1_555
C12 C4 1_555 1_555
C13 C12 1_555 1_555
C14 C13 1_555 1_555
C15 C14 1_555 1_555
C16 C15 1_555 1_555
C17 C12 1_555 1_555
O2 C15 1_555 1_555
C18 O2 1_555 1_555
C19 C3 1_555 1_555
H1 N1 1_555 1_555
H2 C3 1_555 1_555
H3 C4 1_555 1_555
H4 C5 1_555 1_555
H5 C5 1_555 1_555
H6 C6 1_555 1_555
H7 C8 1_555 1_555
H8 C9 1_555 1_555
H9 C13 1_555 1_555
H10 C14 1_555 1_555
H11 C16 1_555 1_555
H12 C17 1_555 1_555
H13 C18 1_555 1_555
H14 C18 1_555 1_555
H15 C18 1_555 1_555
H16 C19 1_555 1_555
H17 C19 1_555 1_555
H18 C19 1_555 1_555
C6 C11 1_555 1_555
C10 C11 1_555 1_555
C16 C17 1_555 1_555

#END
