
#######################################################################
#
#                 Cambridge Crystallographic Data Centre
#                                CCDC 
#
#######################################################################
#
# If this CIF has been generated from an entry in the Cambridge 
# Structural Database, then it will include bibliographic, chemical, 
# crystal, experimental, refinement or atomic coordinate data resulting 
# from the CCDC's data processing and validation procedures.
#
#######################################################################

data_SUBSIR
_chemical_formula_moiety         'C24 H29 F3 N2 O2'
_chemical_name_systematic        
(3R,4S)-1-(2-(Dimethylamino)ethyl)-1,3,4,5-tetrahydro-4-(4-methoxyphenyl)-3-ethyl-6-(trifluoromethyl)-2H-1-benzazepin-2-one
_chemical_properties_biological  'antihypertensive activity'
_symmetry_cell_setting           orthorhombic
_symmetry_space_group_name_H-M   'P 21 21 21'
_symmetry_Int_Tables_number      19
_space_group_name_Hall           'P 2ac 2ab'
loop_
_symmetry_equiv_pos_site_id
_symmetry_equiv_pos_as_xyz
1 x,y,z
2 1/2+x,1/2-y,-z
3 -x,1/2+y,1/2-z
4 1/2-x,-y,1/2+z
_cell_length_a                   10.244(2)
_cell_length_b                   12.837(2)
_cell_length_c                   17.527(1)
_cell_angle_alpha                90
_cell_angle_beta                 90
_cell_angle_gamma                90
_cell_volume                     2304.84
_cell_formula_units_Z            4
loop_
_atom_site_label
_atom_site_type_symbol
_atom_site_fract_x
_atom_site_fract_y
_atom_site_fract_z
N1 N 0.6369(3) 0.5834(3) 0.4678(2)
C1 C 0.6343(4) 0.5566(3) 0.3924(2)
O1 O 0.5353(3) 0.5225(3) 0.3620(2)
C2 C 0.7589(4) 0.5732(3) 0.3465(2)
C3 C 0.8603(4) 0.4869(3) 0.3647(2)
C4 C 0.8655(4) 0.4621(3) 0.4504(2)
C5 C 0.9786(4) 0.5944(3) 0.5402(2)
C6 C 0.9725(5) 0.6833(4) 0.5825(3)
C7 C 0.8582(5) 0.7396(4) 0.5876(3)
C8 C 0.7495(5) 0.7064(3) 0.5514(3)
C9 C 0.7533(4) 0.6169(3) 0.5060(2)
C10 C 0.8685(4) 0.5588(3) 0.5001(2)
C11 C 0.8454(4) 0.3862(3) 0.3203(2)
C12 C 0.7468(4) 0.3158(4) 0.3348(2)
C13 C 0.7404(4) 0.2197(4) 0.2993(2)
C14 C 0.8336(4) 0.1944(4) 0.2458(2)
C15 C 0.9306(4) 0.2642(4) 0.2271(3)
C16 C 0.9364(4) 0.3590(4) 0.2653(2)
O2 O 0.8386(3) 0.1016(3) 0.2063(2)
C17 C 0.7463(6) 0.0246(4) 0.2250(3)
C18 C 0.7329(5) 0.5866(4) 0.2624(3)
C19 C 0.6587(6) 0.6849(5) 0.2428(3)
C20 C 0.5220(4) 0.5616(4) 0.5160(3)
C21 C 0.5399(4) 0.4658(4) 0.5646(2)
N2 N 0.5595(4) 0.3719(3) 0.5216(2)
C22 C 0.6148(5) 0.2905(4) 0.5674(3)
C23 C 0.4399(5) 0.3365(4) 0.4855(3)
C24 C 1.1036(4) 0.5356(4) 0.5370(3)
F1 F 1.0933(3) 0.4407(2) 0.5682(2)
F2 F 1.2006(3) 0.5837(3) 0.5737(2)
F3 F 1.1480(3) 0.5195(2) 0.4657(2)
H1 H 0.7922 0.6391 0.3623
H2 H 0.9398 0.5195 0.3459
H3 H 0.9416 0.4194 0.4620
H4 H 0.7904 0.4197 0.4645
H5 H 0.8551 0.8066 0.6161
H6 H 1.0485 0.7055 0.6097
H7 H 0.6672 0.7436 0.5589
H8 H 0.6789 0.3343 0.3714
H9 H 0.6707 0.1702 0.3102
H10 H 0.9986 0.2433 0.1897
H11 H 1.0068 0.4084 0.2536
H12 H 0.7586 -0.0397 0.1964
H13 H 0.7508 0.0029 0.2791
H14 H 0.6573 0.0456 0.2169
H15 H 0.8161 0.5875 0.2363
H16 H 0.6851 0.5278 0.2445
H17 H 0.7063 0.7465 0.2595
H18 H 0.5755 0.6868 0.2678
H19 H 0.6446 0.6923 0.1891
H20 H 0.5062 0.6219 0.5486
H21 H 0.4463 0.5532 0.4848
H22 H 0.4643 0.4577 0.5972
H23 H 0.6137 0.4772 0.5978
H24 H 0.6266 0.2264 0.5368
H25 H 0.6973 0.3073 0.5878
H26 H 0.5576 0.2703 0.6089
H27 H 0.4064 0.3858 0.4488
H28 H 0.4562 0.2720 0.4548
H29 H 0.3723 0.3192 0.5199
loop_
_geom_bond_atom_site_label_1
_geom_bond_atom_site_label_2
_geom_bond_site_symmetry_1
_geom_bond_site_symmetry_2
N1 C1 1_555 1_555
C1 O1 1_555 1_555
C2 C1 1_555 1_555
C3 C2 1_555 1_555
C4 C3 1_555 1_555
C5 C6 1_555 1_555
C6 C7 1_555 1_555
C7 C8 1_555 1_555
C8 C9 1_555 1_555
C9 N1 1_555 1_555
C10 C4 1_555 1_555
C11 C3 1_555 1_555
C12 C11 1_555 1_555
C13 C12 1_555 1_555
C14 C13 1_555 1_555
C15 C14 1_555 1_555
C16 C11 1_555 1_555
O2 C14 1_555 1_555
C17 O2 1_555 1_555
C18 C2 1_555 1_555
C19 C18 1_555 1_555
C20 N1 1_555 1_555
C21 C20 1_555 1_555
N2 C21 1_555 1_555
C22 N2 1_555 1_555
C23 N2 1_555 1_555
C24 C5 1_555 1_555
F1 C24 1_555 1_555
F2 C24 1_555 1_555
F3 C24 1_555 1_555
H1 C2 1_555 1_555
H2 C3 1_555 1_555
H3 C4 1_555 1_555
H4 C4 1_555 1_555
H5 C7 1_555 1_555
H6 C6 1_555 1_555
H7 C8 1_555 1_555
H8 C12 1_555 1_555
H9 C13 1_555 1_555
H10 C15 1_555 1_555
H11 C16 1_555 1_555
H12 C17 1_555 1_555
H13 C17 1_555 1_555
H14 C17 1_555 1_555
H15 C18 1_555 1_555
H16 C18 1_555 1_555
H17 C19 1_555 1_555
H18 C19 1_555 1_555
H19 C19 1_555 1_555
H20 C20 1_555 1_555
H21 C20 1_555 1_555
H22 C21 1_555 1_555
H23 C21 1_555 1_555
H24 C22 1_555 1_555
H25 C22 1_555 1_555
H26 C22 1_555 1_555
H27 C23 1_555 1_555
H28 C23 1_555 1_555
H29 C23 1_555 1_555
C5 C10 1_555 1_555
C9 C10 1_555 1_555
C15 C16 1_555 1_555

#END
