
#######################################################################
#
#                 Cambridge Crystallographic Data Centre
#                                CCDC 
#
#######################################################################
#
# If this CIF has been generated from an entry in the Cambridge 
# Structural Database, then it will include bibliographic, chemical, 
# crystal, experimental, refinement or atomic coordinate data resulting 
# from the CCDC's data processing and validation procedures.
#
#######################################################################

data_SUBTEO10
_chemical_formula_moiety         'C20 H26 Cl1 N2 O2 1+,Cl1 1-'
_chemical_name_systematic        
'(5aS,9aS)-N-((3S)-1-Azabicyclo(2.2.2)octan-3-yl)-2-chloro-5a,6,7,8,9,9a-hexahydro-4-dibenzofurancarboxamide hydrochloride'
_chemical_properties_biological  
'agent shown to be a potent 5-HT3 antagonist and inhibitor of cytotoxic drug induced emesis'
_symmetry_cell_setting           orthorhombic
_symmetry_space_group_name_H-M   'P 21 21 21'
_symmetry_Int_Tables_number      19
_space_group_name_Hall           'P 2ac 2ab'
loop_
_symmetry_equiv_pos_site_id
_symmetry_equiv_pos_as_xyz
1 x,y,z
2 1/2+x,1/2-y,-z
3 -x,1/2+y,1/2-z
4 1/2-x,-y,1/2+z
_cell_length_a                   7.4530(4)
_cell_length_b                   9.5633(5)
_cell_length_c                   27.831(3)
_cell_angle_alpha                90
_cell_angle_beta                 90
_cell_angle_gamma                90
_cell_volume                     1983.66
_exptl_crystal_colour            Colorless
_cell_formula_units_Z            4
loop_
_atom_site_label
_atom_site_type_symbol
_atom_site_fract_x
_atom_site_fract_y
_atom_site_fract_z
Cl1 Cl 0.6679(1) 0.5401(1) 0.21041(3)
Cl2 Cl -0.3714(1) -0.2485(1) 0.38019(4)
O1 O 0.2078(3) 0.1511(2) 0.40830(7)
O2 O -0.2407(3) 0.3109(3) 0.3509(1)
N1 N 0.3440(4) 0.5113(3) 0.2753(1)
N2 N 0.0409(4) 0.2832(3) 0.3223(1)
C1 C -0.0830(4) 0.1039(3) 0.3721(1)
C2 C -0.2198(5) 0.0048(3) 0.3675(1)
C3 C -0.2031(4) -0.1248(3) 0.3888(1)
C4 C -0.0546(5) -0.1609(3) 0.4162(1)
C5 C 0.0797(4) -0.0639(3) 0.4214(1)
C6 C 0.0644(4) 0.0664(3) 0.3990(1)
C7 C 0.2480(5) -0.0613(4) 0.4516(1)
C8 C 0.2024(6) -0.0294(5) 0.5039(1)
C9 C 0.3599(7) 0.0346(5) 0.5309(2)
C10 C 0.4217(6) 0.1669(4) 0.5066(1)
C11 C 0.4841(5) 0.1378(5) 0.4560(1)
C12 C 0.3506(4) 0.0569(4) 0.4258(1)
C13 C -0.1028(4) 0.2435(3) 0.3477(1)
C14 C 0.1930(5) 0.4209(4) 0.2598(1)
C15 C 0.0469(4) 0.4195(3) 0.2985(1)
C16 C 0.0884(5) 0.5388(4) 0.3340(1)
C17 C 0.1102(6) 0.6718(4) 0.3040(2)
C18 C 0.2870(5) 0.6613(4) 0.2763(1)
C19 C 0.4052(5) 0.4670(4) 0.3244(1)
C20 C 0.2592(7) 0.5070(4) 0.3608(1)
H1 H 0.438(5) 0.505(3) 0.263(1)
H2 H 0.128(5) 0.219(4) 0.318(1)
H3 H -0.320(5) 0.028(4) 0.350(1)
H4 H -0.040(5) -0.254(3) 0.432(1)
H5 H 0.313(5) -0.148(4) 0.452(1)
H6 H 0.181(7) -0.111(5) 0.516(2)
H7 H 0.109(8) 0.044(5) 0.501(2)
H8 H 0.334(5) 0.047(4) 0.567(1)
H9 H 0.464(7) -0.034(5) 0.532(2)
H10 H 0.327(5) 0.232(4) 0.505(1)
H11 H 0.521(6) 0.212(4) 0.524(1)
H12 H 0.583(6) 0.071(4) 0.462(1)
H13 H 0.516(5) 0.228(4) 0.436(1)
H14 H 0.410(5) 0.015(3) 0.396(3)
H15 H 0.152(6) 0.469(4) 0.233(2)
H16 H 0.237(4) 0.332(3) 0.256(1)
H17 H -0.073(4) 0.435(3) 0.284(1)
H18 H -0.009(5) 0.545(4) 0.355(1)
H19 H 0.010(5) 0.678(4) 0.280(1)
H20 H 0.118(6) 0.753(4) 0.324(2)
H21 H 0.272(5) 0.696(4) 0.242(1)
H22 H 0.386(5) 0.709(4) 0.292(1)
H23 H 0.425(5) 0.363(4) 0.324(1)
H24 H 0.526(5) 0.507(4) 0.332(1)
H25 H 0.243(7) 0.423(5) 0.378(2)
H26 H 0.302(5) 0.586(4) 0.376(1)
loop_
_geom_bond_atom_site_label_1
_geom_bond_atom_site_label_2
_geom_bond_site_symmetry_1
_geom_bond_site_symmetry_2
Cl2 C3 1_555 1_555
O1 C6 1_555 1_555
O2 C13 1_555 1_555
N1 C14 1_555 1_555
N2 C13 1_555 1_555
C1 C2 1_555 1_555
C2 C3 1_555 1_555
C3 C4 1_555 1_555
C4 C5 1_555 1_555
C5 C6 1_555 1_555
C6 C1 1_555 1_555
C7 C5 1_555 1_555
C8 C7 1_555 1_555
C9 C8 1_555 1_555
C10 C9 1_555 1_555
C11 C10 1_555 1_555
C12 O1 1_555 1_555
C13 C1 1_555 1_555
C14 C15 1_555 1_555
C15 N2 1_555 1_555
C16 C15 1_555 1_555
C17 C16 1_555 1_555
C18 N1 1_555 1_555
C19 N1 1_555 1_555
C20 C16 1_555 1_555
H1 N1 1_555 1_555
H2 N2 1_555 1_555
H3 C2 1_555 1_555
H4 C4 1_555 1_555
H5 C7 1_555 1_555
H6 C8 1_555 1_555
H7 C8 1_555 1_555
H8 C9 1_555 1_555
H9 C9 1_555 1_555
H10 C10 1_555 1_555
H11 C10 1_555 1_555
H12 C11 1_555 1_555
H13 C11 1_555 1_555
H14 C12 1_555 1_555
H15 C14 1_555 1_555
H16 C14 1_555 1_555
H17 C15 1_555 1_555
H18 C16 1_555 1_555
H19 C17 1_555 1_555
H20 C17 1_555 1_555
H21 C18 1_555 1_555
H22 C18 1_555 1_555
H23 C19 1_555 1_555
H24 C19 1_555 1_555
H25 C20 1_555 1_555
H26 C20 1_555 1_555
C7 C12 1_555 1_555
C11 C12 1_555 1_555
C17 C18 1_555 1_555
C19 C20 1_555 1_555

#END
