
#######################################################################
#
#                 Cambridge Crystallographic Data Centre
#                                CCDC 
#
#######################################################################
#
# If this CIF has been generated from an entry in the Cambridge 
# Structural Database, then it will include bibliographic, chemical, 
# crystal, experimental, refinement or atomic coordinate data resulting 
# from the CCDC's data processing and validation procedures.
#
#######################################################################

data_SUBWER
_chemical_formula_moiety         'C18 H21 N1 O6'
_chemical_name_systematic        
8-Acetoxy-2-methoxy-5-methoxycarbonyl-7-methyl-5,9-methano-5,6,7,8,9,10-hexahydrocyclo-octa(b)pyridin-11-one
_symmetry_cell_setting           monoclinic
_symmetry_space_group_name_H-M   'P 21/c'
_symmetry_Int_Tables_number      14
_space_group_name_Hall           '-P 2ybc'
loop_
_symmetry_equiv_pos_site_id
_symmetry_equiv_pos_as_xyz
1 x,y,z
2 -x,1/2+y,1/2-z
3 -x,-y,-z
4 x,1/2-y,1/2+z
_cell_length_a                   14.115(1)
_cell_length_b                   11.419(1)
_cell_length_c                   10.999(1)
_cell_angle_alpha                90
_cell_angle_beta                 100.250(9)
_cell_angle_gamma                90
_cell_volume                     1744.52
_exptl_crystal_colour            colorless
_cell_formula_units_Z            4
loop_
_atom_site_label
_atom_site_type_symbol
_atom_site_fract_x
_atom_site_fract_y
_atom_site_fract_z
O1 O 0.4364(3) 1.2176(4) 0.3601(4)
O2 O 0.9241(3) 1.1191(5) 0.2535(4)
O3 O 0.8499(3) 0.8967(4) 0.0774(4)
O4 O 0.8178(4) 0.7075(5) 0.0520(7)
O5 O 0.8316(4) 1.3240(5) 0.0317(4)
O6 O 0.8343(3) 1.3529(4) 0.2326(4)
N1 N 0.5735(3) 1.1127(5) 0.3400(5)
C1 C 0.6800(4) 1.1909(6) 0.2111(6)
C2 C 0.6193(5) 1.2871(7) 0.1854(6)
C3 C 0.5383(5) 1.2982(7) 0.2364(6)
C4 C 0.5192(5) 1.2072(6) 0.3137(6)
C5 C 0.6545(5) 1.1059(6) 0.2900(6)
C6 C 0.7137(5) 0.9989(6) 0.3252(6)
C7 C 0.7978(5) 0.9785(6) 0.2528(6)
C8 C 0.8401(4) 1.0939(6) 0.2255(6)
C9 C 0.7663(5) 1.1751(6) 0.1487(6)
C10 C 0.7349(5) 1.1127(7) 0.0219(6)
C11 C 0.6933(5) 0.9908(7) 0.0397(6)
C12 C 0.7631(5) 0.9166(6) 0.1303(6)
C13 C 0.8690(6) 0.7880(8) 0.0444(7)
C14 C 0.9611(5) 0.7815(8) -0.0040(8)
C15 C 0.6625(6) 0.9296(7) -0.0865(7)
C16 C 0.8133(5) 1.2903(6) 0.1283(6)
C17 C 0.8869(6) 1.4619(7) 0.2259(9)
C18 C 0.4069(5) 1.1199(7) 0.4247(6)
H1 H 0.6352 1.3467 0.1318
H2 H 0.4966 1.3640 0.2196
H3 H 0.6725 0.9328 0.3122
H4 H 0.7409 1.0048 0.4106
H5 H 0.8448 0.9311 0.3029
H6 H 0.7899 1.1048 -0.0168
H7 H 0.6879 1.1589 -0.0284
H8 H 0.6372 1.0001 0.0748
H9 H 0.7294 0.8473 0.1449
H10 H 1.0018 0.7256 0.0427
H11 H 0.9474 0.7587 -0.0880
H12 H 0.9909 0.8561 0.0035
H13 H 0.6243 0.8628 -0.0760
H14 H 0.6268 0.9820 -0.1430
H15 H 0.7185 0.9046 -0.1167
H16 H 0.8978 1.4982 0.3044
H17 H 0.9472 1.4443 0.2022
H18 H 0.8508 1.5117 0.1665
H19 H 0.4526 1.1072 0.4980
H20 H 0.3457 1.1356 0.4453
H21 H 0.4032 1.0524 0.3737
loop_
_geom_bond_atom_site_label_1
_geom_bond_atom_site_label_2
_geom_bond_site_symmetry_1
_geom_bond_site_symmetry_2
O1 C4 1_555 1_555
O2 C8 1_555 1_555
O3 C12 1_555 1_555
O4 C13 1_555 1_555
O5 C16 1_555 1_555
O6 C16 1_555 1_555
N1 C4 1_555 1_555
C1 C2 1_555 1_555
C2 C3 1_555 1_555
C3 C4 1_555 1_555
C5 N1 1_555 1_555
C6 C5 1_555 1_555
C7 C6 1_555 1_555
C8 C7 1_555 1_555
C9 C1 1_555 1_555
C10 C9 1_555 1_555
C11 C10 1_555 1_555
C12 C7 1_555 1_555
C13 O3 1_555 1_555
C14 C13 1_555 1_555
C15 C11 1_555 1_555
C16 C9 1_555 1_555
C17 O6 1_555 1_555
C18 O1 1_555 1_555
H1 C2 1_555 1_555
H2 C3 1_555 1_555
H3 C6 1_555 1_555
H4 C6 1_555 1_555
H5 C7 1_555 1_555
H6 C10 1_555 1_555
H7 C10 1_555 1_555
H8 C11 1_555 1_555
H9 C12 1_555 1_555
H10 C14 1_555 1_555
H11 C14 1_555 1_555
H12 C14 1_555 1_555
H13 C15 1_555 1_555
H14 C15 1_555 1_555
H15 C15 1_555 1_555
H16 C17 1_555 1_555
H17 C17 1_555 1_555
H18 C17 1_555 1_555
H19 C18 1_555 1_555
H20 C18 1_555 1_555
H21 C18 1_555 1_555
C1 C5 1_555 1_555
C8 C9 1_555 1_555
C11 C12 1_555 1_555

#END
