
#######################################################################
#
#                 Cambridge Crystallographic Data Centre
#                                CCDC 
#
#######################################################################
#
# If this CIF has been generated from an entry in the Cambridge 
# Structural Database, then it will include bibliographic, chemical, 
# crystal, experimental, refinement or atomic coordinate data resulting 
# from the CCDC's data processing and validation procedures.
#
#######################################################################

data_SUCXOF
_chemical_formula_moiety         'C20 H14 O1'
_chemical_name_systematic        2,5-Diphenyl-1-benzofuran
_symmetry_cell_setting           monoclinic
_symmetry_space_group_name_H-M   'P 21'
_symmetry_Int_Tables_number      4
_space_group_name_Hall           'P 2yb'
loop_
_symmetry_equiv_pos_site_id
_symmetry_equiv_pos_as_xyz
1 x,y,z
2 -x,1/2+y,-z
_cell_length_a                   7.7959(7)
_cell_length_b                   5.7955(6)
_cell_length_c                   15.5047(13)
_cell_angle_alpha                90
_cell_angle_beta                 90.576(9)
_cell_angle_gamma                90
_cell_volume                     700.485
_cell_formula_units_Z            2
loop_
_atom_site_label
_atom_site_type_symbol
_atom_site_fract_x
_atom_site_fract_y
_atom_site_fract_z
O1 O 0.2516(13) 0.5438(18) 0.8711(4)
C1 C 0.4399(7) 0.4737(10) 1.2736(3)
H1 H 0.4829 0.6041 1.2464
C2 C 0.4786(7) 0.4394(11) 1.3585(3)
H2 H 0.5455 0.5460 1.3884
C3 C 0.4170(7) 0.2426(12) 1.4004(3)
H3 H 0.4427 0.2158 1.4582
C4 C 0.3190(8) 0.0922(11) 1.3547(4)
H4 H 0.2767 -0.0383 1.3821
C5 C 0.2799(7) 0.1266(11) 1.2685(4)
H5 H 0.2138 0.0190 1.2386
C6 C 0.3398(5) 0.3232(10) 1.2265(3)
C7 C 0.2998(6) 0.3649(12) 1.1350(3)
C8 C 0.2179(6) 0.2206(11) 1.0790(3)
H6 H 0.1727 0.0796 1.0962
C9 C 0.2062(5) 0.2987(8) 0.9939(3)
C10 C 0.2704(12) 0.5019(16) 0.9587(6)
C11 C 0.3442(11) 0.6643(16) 1.0126(6)
H7 H 0.3816 0.8084 0.9942
C12 C 0.357(3) 0.583(3) 1.1027(12)
H8 H 0.4072 0.6830 1.1424
C13 C 0.1481(6) 0.2121(11) 0.9151(3)
H9 H 0.0938 0.0699 0.9097
C14 C 0.1774(6) 0.3528(12) 0.8467(3)
C15 C 0.1429(5) 0.3158(10) 0.7553(3)
C16 C 0.0515(6) 0.1208(11) 0.7277(3)
H10 H 0.0107 0.0173 0.7685
C17 C 0.0211(7) 0.0795(11) 0.6422(4)
H11 H -0.0410 -0.0506 0.6257
C18 C 0.0809(7) 0.2273(11) 0.5804(3)
H12 H 0.0596 0.1988 0.5223
C19 C 0.1735(7) 0.4192(11) 0.6059(3)
H13 H 0.2148 0.5222 0.5650
C20 C 0.2035(7) 0.4560(9) 0.6918(3)
H14 H 0.2688 0.5835 0.7078
O2? O 0.3435(17) 0.557(2) 1.0966(6)
C21? C 0.2862(14) 0.5103(19) 1.0113(6)
C22? C 0.3147(12) 0.6579(19) 0.9517(7)
H15? H 0.3695 0.7978 0.9619
C23? C 0.255(4) 0.589(4) 0.8676(11)
H16? H 0.2634 0.6953 0.8229
loop_
_geom_bond_atom_site_label_1
_geom_bond_atom_site_label_2
_geom_bond_site_symmetry_1
_geom_bond_site_symmetry_2
O1 C10 1_555 1_555
C1 H1 1_555 1_555
C2 C1 1_555 1_555
H2 C2 1_555 1_555
C3 C2 1_555 1_555
H3 C3 1_555 1_555
C4 C3 1_555 1_555
H4 C4 1_555 1_555
C5 C4 1_555 1_555
H5 C5 1_555 1_555
C6 C1 1_555 1_555
C7 C6 1_555 1_555
C8 C7 1_555 1_555
H6 C8 1_555 1_555
C9 C8 1_555 1_555
C10 C9 1_555 1_555
C11 C10 1_555 1_555
H7 C11 1_555 1_555
C12 C7 1_555 1_555
H8 C12 1_555 1_555
C13 C9 1_555 1_555
H9 C13 1_555 1_555
C14 O1 1_555 1_555
C15 C14 1_555 1_555
C16 C15 1_555 1_555
H10 C16 1_555 1_555
C17 C16 1_555 1_555
H11 C17 1_555 1_555
C18 C17 1_555 1_555
H12 C18 1_555 1_555
C19 C18 1_555 1_555
H13 C19 1_555 1_555
C20 C15 1_555 1_555
H14 C20 1_555 1_555
C5 C6 1_555 1_555
C11 C12 1_555 1_555
C13 C14 1_555 1_555
C19 C20 1_555 1_555

#END
