
#######################################################################
#
#                 Cambridge Crystallographic Data Centre
#                                CCDC 
#
#######################################################################
#
# If this CIF has been generated from an entry in the Cambridge 
# Structural Database, then it will include bibliographic, chemical, 
# crystal, experimental, refinement or atomic coordinate data resulting 
# from the CCDC's data processing and validation procedures.
#
#######################################################################

data_SUDGUT
_chemical_formula_moiety         'C26 H18 Br2'
_chemical_name_systematic        
trans-1,2-bis(4-Bromophenyl)-1,2-diphenylethene
_symmetry_cell_setting           monoclinic
_symmetry_space_group_name_H-M   'P 21/n'
_symmetry_Int_Tables_number      14
_space_group_name_Hall           '-P 2yn'
loop_
_symmetry_equiv_pos_site_id
_symmetry_equiv_pos_as_xyz
1 x,y,z
2 1/2+x,1/2-y,1/2+z
3 -x,-y,-z
4 1/2-x,1/2+y,1/2-z
_cell_length_a                   10.692(1)
_cell_length_b                   9.191(1)
_cell_length_c                   22.641(1)
_cell_angle_alpha                90
_cell_angle_beta                 102.47(1)
_cell_angle_gamma                90
_cell_volume                     2172.45
_exptl_crystal_colour            colorless
_exptl_crystal_description       plate
_chemical_melting_point          488K
_cell_formula_units_Z            4
_exptl_crystal_recrystallization_method ethanol/toluene
loop_
_atom_site_label
_atom_site_type_symbol
_atom_site_fract_x
_atom_site_fract_y
_atom_site_fract_z
Br1 Br 0.47397(7) 0.32347(9) 0.08245(3)
Br2 Br 1.45379(7) 0.22097(10) 0.54359(3)
C1 C 0.9009(6) 0.3400(6) 0.3151(2)
C2 C 1.0282(5) 0.3532(6) 0.3172(2)
C3 C 0.8004(5) 0.3438(6) 0.2577(3)
C4 C 0.8189(6) 0.2770(6) 0.2053(3)
H1 H 0.8974(6) 0.2335(6) 0.2050(3)
C5 C 0.7225(6) 0.2737(7) 0.1529(3)
H2 H 0.7365(6) 0.2290(7) 0.1181(3)
C6 C 0.6062(6) 0.3369(7) 0.1535(3)
C7 C 0.5848(6) 0.4045(7) 0.2043(3)
H3 H 0.5066(6) 0.4490(7) 0.2040(3)
C8 C 0.6816(6) 0.4058(6) 0.2561(3)
H4 H 0.6662(6) 0.4496(6) 0.2909(3)
C9 C 0.8469(5) 0.3240(7) 0.3709(3)
C10 C 0.7640(6) 0.2127(7) 0.3770(3)
H5 H 0.7432(6) 0.1430(7) 0.3467(3)
C11 C 0.7117(6) 0.2038(8) 0.4278(3)
H6 H 0.6568(6) 0.1277(8) 0.4320(3)
C12 C 0.7414(7) 0.3089(11) 0.4721(3)
H7 H 0.7054(7) 0.3038(11) 0.5059(3)
C13 C 0.8229(6) 0.4206(9) 0.4671(3)
H8 H 0.8422(6) 0.4913(9) 0.4972(3)
C14 C 0.8765(5) 0.4273(7) 0.4169(3)
H9 H 0.9335(5) 0.5019(7) 0.4137(3)
C15 C 1.1303(5) 0.3238(6) 0.3729(2)
C16 C 1.1177(5) 0.2125(6) 0.4132(3)
H10 H 1.0432(5) 0.1569(6) 0.4061(3)
C17 C 1.2135(6) 0.1826(7) 0.4634(3)
H11 H 1.2028(6) 0.1084(7) 0.4898(3)
C18 C 1.3242(5) 0.2628(7) 0.4738(3)
C19 C 1.3411(6) 0.3721(7) 0.4350(3)
H12 H 1.4164(6) 0.4261(7) 0.4422(3)
C20 C 1.2445(5) 0.4014(7) 0.3849(3)
H13 H 1.2565(5) 0.4750(7) 0.3584(3)
C21 C 1.0759(5) 0.3989(7) 0.2630(3)
C22 C 1.1604(6) 0.3122(8) 0.2407(3)
H14 H 1.1882(6) 0.2252(8) 0.2603(3)
C23 C 1.2048(6) 0.3512(10) 0.1899(3)
H15 H 1.2625(6) 0.2916(10) 0.1759(3)
C24 C 1.1638(8) 0.4778(13) 0.1602(4)
H16 H 1.1905(8) 0.5025(13) 0.1250(4)
C25 C 1.0834(8) 0.5675(10) 0.1823(4)
H17 H 1.0585(8) 0.6556(10) 0.1630(4)
C26 C 1.0385(6) 0.5293(7) 0.2333(3)
H18 H 0.9830(6) 0.5913(7) 0.2476(3)
loop_
_geom_bond_atom_site_label_1
_geom_bond_atom_site_label_2
_geom_bond_site_symmetry_1
_geom_bond_site_symmetry_2
Br1 C6 1_555 1_555
Br2 C18 1_555 1_555
C1 C2 1_555 1_555
C2 C15 1_555 1_555
C3 C1 1_555 1_555
C4 C3 1_555 1_555
H1 C4 1_555 1_555
C5 C4 1_555 1_555
H2 C5 1_555 1_555
C6 C5 1_555 1_555
C7 C6 1_555 1_555
H3 C7 1_555 1_555
C8 C3 1_555 1_555
H4 C8 1_555 1_555
C9 C1 1_555 1_555
C10 C9 1_555 1_555
H5 C10 1_555 1_555
C11 C10 1_555 1_555
H6 C11 1_555 1_555
C12 C11 1_555 1_555
H7 C12 1_555 1_555
C13 C12 1_555 1_555
H8 C13 1_555 1_555
C14 C9 1_555 1_555
H9 C14 1_555 1_555
C15 C16 1_555 1_555
C16 H10 1_555 1_555
C17 C16 1_555 1_555
H11 C17 1_555 1_555
C18 C17 1_555 1_555
C19 C18 1_555 1_555
H12 C19 1_555 1_555
C20 C15 1_555 1_555
H13 C20 1_555 1_555
C21 C2 1_555 1_555
C22 C21 1_555 1_555
H14 C22 1_555 1_555
C23 C22 1_555 1_555
H15 C23 1_555 1_555
C24 C23 1_555 1_555
H16 C24 1_555 1_555
C25 C24 1_555 1_555
H17 C25 1_555 1_555
C26 C21 1_555 1_555
H18 C26 1_555 1_555
C7 C8 1_555 1_555
C13 C14 1_555 1_555
C19 C20 1_555 1_555
C25 C26 1_555 1_555

#END
