
#######################################################################
#
#                 Cambridge Crystallographic Data Centre
#                                CCDC 
#
#######################################################################
#
# If this CIF has been generated from an entry in the Cambridge 
# Structural Database, then it will include bibliographic, chemical, 
# crystal, experimental, refinement or atomic coordinate data resulting 
# from the CCDC's data processing and validation procedures.
#
#######################################################################

data_SUFDOO
_chemical_formula_moiety         'C32 H32 N2'
_chemical_name_systematic        
(2E,3E)-N^2^,N^3^-bis(3-Ethyl-[1,1'-biphenyl]-4-yl)butane-2,3-di-imine
_symmetry_cell_setting           triclinic
_symmetry_space_group_name_H-M   'P -1'
_symmetry_Int_Tables_number      2
_space_group_name_Hall           '-P 1'
loop_
_symmetry_equiv_pos_site_id
_symmetry_equiv_pos_as_xyz
1 x,y,z
2 -x,-y,-z
_cell_length_a                   9.622(4)
_cell_length_b                   9.707(5)
_cell_length_c                   14.666(7)
_cell_angle_alpha                77.288(5)
_cell_angle_beta                 86.934(4)
_cell_angle_gamma                74.736(4)
_cell_volume                     1289.09
_exptl_crystal_colour            yellow
_exptl_crystal_description       block
_cell_formula_units_Z            2
loop_
_atom_site_label
_atom_site_type_symbol
_atom_site_fract_x
_atom_site_fract_y
_atom_site_fract_z
C1 C 0.2795(3) 0.7460(4) 0.3800(2)
C2 C 0.2487(3) 0.7538(4) 0.4796(2)
C3 C 0.8794(4) 0.7005(4) -0.4998(2)
H1 H 0.9548 0.6738 -0.4571
C4 C 0.7383(3) 0.7411(4) -0.4689(2)
C5 C 0.7041(4) 0.7451(4) -0.3690(2)
N1 N 0.3646(4) 0.7226(4) 0.0967(2)
C6 C 0.4010(4) 0.6174(4) 0.2631(2)
H2 H 0.4631 0.5342 0.2484
N2 N 0.6087(4) 0.7552(4) -0.08534(19)
C7 C 0.9095(4) 0.6991(4) -0.5925(2)
H3 H 1.0046 0.6703 -0.6114
C8 C 0.6287(4) 0.7801(4) -0.5354(2)
H4 H 0.5332 0.8061 -0.5166
C9 C 0.6588(4) 0.7807(4) -0.6286(2)
H5 H 0.5841 0.8086 -0.6719
C10 C 0.5806(4) 0.8396(4) -0.3438(2)
H6 H 0.5183 0.9033 -0.3901
C11 C 0.2624(4) 0.6280(4) 0.5489(2)
H7 H 0.2903 0.5372 0.5328
C12 C 0.3721(4) 0.6228(4) 0.3557(2)
H8 H 0.4149 0.5432 0.4023
C13 C 0.6367(4) 0.7479(4) -0.1810(2)
C14 C 0.2056(4) 0.8868(4) 0.5063(2)
H9 H 0.1960 0.9726 0.4611
C15 C 0.2352(4) 0.6355(5) 0.6412(2)
H10 H 0.2464 0.5499 0.6869
C16 C 0.3390(4) 0.7335(5) 0.1921(2)
C17 C 0.4766(4) 0.7491(4) 0.0550(2)
C18 C 0.4957(4) 0.7297(4) -0.0440(2)
C19 C 0.5486(4) 0.8406(5) -0.2514(2)
H11 H 0.4653 0.9056 -0.2363
C20 C 0.1765(4) 0.8947(5) 0.5984(3)
H12 H 0.1466 0.9853 0.6147
C21 C 0.2159(4) 0.8603(4) 0.3076(2)
H13 H 0.1526 0.9429 0.3223
C22 C 0.7939(4) 0.6534(4) -0.2969(2)
H14 H 0.8780 0.5898 -0.3121
C23 C 0.2429(4) 0.8566(5) 0.2135(2)
C24 C 0.7635(4) 0.6525(5) -0.2029(2)
C25 C 0.7997(4) 0.7401(4) -0.6574(2)
H15 H 0.8204 0.7404 -0.7201
C26 C 0.3837(5) 0.6771(5) -0.0834(3)
H16 H 0.2988 0.7562 -0.0990
H17 H 0.3602 0.5992 -0.0379
H18 H 0.4203 0.6424 -0.1387
C27 C 0.1917(4) 0.7683(5) 0.6659(3)
H19 H 0.1726 0.7731 0.7281
C28 C 0.5890(5) 0.7985(6) 0.0961(3)
H20 H 0.5484 0.8434 0.1470
H21 H 0.6226 0.8680 0.0490
H22 H 0.6682 0.7159 0.1186
C29 C 0.8580(5) 0.5493(6) -0.1247(3)
H23 H 0.8701 0.6061 -0.0804
H24 H 0.8051 0.4804 -0.0930
C30 C 0.1671(5) 0.9816(6) 0.1373(3)
H25 H 0.1878 1.0705 0.1459
H26 H 0.2072 0.9637 0.0776
C31 C 0.9944(7) 0.4688(9) -0.1444(4)
H27 H 0.9911 0.4376 -0.2018
H28 H 1.0250 0.3847 -0.0945
H29 H 1.0611 0.5284 -0.1504
C32 C 0.0125(7) 1.0059(9) 0.1331(5)
H30 H -0.0101 0.9417 0.0981
H31 H -0.0302 1.1055 0.1030
H32 H -0.0248 0.9865 0.1953
loop_
_geom_bond_atom_site_label_1
_geom_bond_atom_site_label_2
_geom_bond_site_symmetry_1
_geom_bond_site_symmetry_2
C1 C2 1_555 1_555
C2 C11 1_555 1_555
C3 H1 1_555 1_555
C4 C3 1_555 1_555
C5 C4 1_555 1_555
N1 C16 1_555 1_555
C6 H2 1_555 1_555
N2 C13 1_555 1_555
C7 C3 1_555 1_555
H3 C7 1_555 1_555
C8 C4 1_555 1_555
H4 C8 1_555 1_555
C9 C8 1_555 1_555
H5 C9 1_555 1_555
C10 C5 1_555 1_555
H6 C10 1_555 1_555
C11 H7 1_555 1_555
C12 C1 1_555 1_555
H8 C12 1_555 1_555
C13 C19 1_555 1_555
C14 C2 1_555 1_555
H9 C14 1_555 1_555
C15 C11 1_555 1_555
H10 C15 1_555 1_555
C16 C6 1_555 1_555
C17 N1 1_555 1_555
C18 N2 1_555 1_555
C19 C10 1_555 1_555
H11 C19 1_555 1_555
C20 C14 1_555 1_555
H12 C20 1_555 1_555
C21 C1 1_555 1_555
H13 C21 1_555 1_555
C22 C5 1_555 1_555
H14 C22 1_555 1_555
C23 C16 1_555 1_555
C24 C13 1_555 1_555
C25 C7 1_555 1_555
H15 C25 1_555 1_555
C26 C18 1_555 1_555
H16 C26 1_555 1_555
H17 C26 1_555 1_555
H18 C26 1_555 1_555
C27 C15 1_555 1_555
H19 C27 1_555 1_555
C28 C17 1_555 1_555
H20 C28 1_555 1_555
H21 C28 1_555 1_555
H22 C28 1_555 1_555
C29 C24 1_555 1_555
H23 C29 1_555 1_555
H24 C29 1_555 1_555
C30 C23 1_555 1_555
H25 C30 1_555 1_555
H26 C30 1_555 1_555
C31 C29 1_555 1_555
H27 C31 1_555 1_555
H28 C31 1_555 1_555
H29 C31 1_555 1_555
C32 C30 1_555 1_555
H30 C32 1_555 1_555
H31 C32 1_555 1_555
H32 C32 1_555 1_555
C6 C12 1_555 1_555
C9 C25 1_555 1_555
C17 C18 1_555 1_555
C20 C27 1_555 1_555
C21 C23 1_555 1_555
C22 C24 1_555 1_555

#END
