
#######################################################################
#
#                 Cambridge Crystallographic Data Centre
#                                CCDC 
#
#######################################################################
#
# If this CIF has been generated from an entry in the Cambridge 
# Structural Database, then it will include bibliographic, chemical, 
# crystal, experimental, refinement or atomic coordinate data resulting 
# from the CCDC's data processing and validation procedures.
#
#######################################################################

data_SUFKUB
_chemical_formula_moiety         'C15 H11 N3'
_chemical_name_systematic        
2-(4-Methylphenyl)pyrazolo[1,5-a]pyridine-5-carbonitrile
_symmetry_cell_setting           monoclinic
_symmetry_space_group_name_H-M   'P 21/n'
_symmetry_Int_Tables_number      14
_space_group_name_Hall           '-P 2yn'
loop_
_symmetry_equiv_pos_site_id
_symmetry_equiv_pos_as_xyz
1 x,y,z
2 1/2-x,1/2+y,1/2-z
3 -x,-y,-z
4 1/2+x,1/2-y,1/2+z
_cell_length_a                   6.0038(5)
_cell_length_b                   7.3421(6)
_cell_length_c                   27.006(2)
_cell_angle_alpha                90
_cell_angle_beta                 92.9145(15)
_cell_angle_gamma                90
_cell_volume                     1188.9
_cell_formula_units_Z            4
loop_
_atom_site_label
_atom_site_type_symbol
_atom_site_fract_x
_atom_site_fract_y
_atom_site_fract_z
N1 N 0.0461(2) 0.10858(17) 0.32865(5)
N2 N -0.0912(2) 0.08706(18) 0.28794(5)
C1 C 0.0243(3) 0.1558(2) 0.25061(6)
C2 C 0.2471(3) 0.1907(2) 0.31806(6)
C3 C 0.2324(3) 0.2217(2) 0.26760(6)
H1 H 0.3397 0.2756 0.2487
C4 C -0.0736(3) 0.1481(2) 0.19971(6)
C5 C 0.4054(3) 0.2169(2) 0.35775(6)
H2 H 0.5415 0.2719 0.3523
C6 C 0.3578(3) 0.1612(2) 0.40420(6)
C7 C -0.2851(3) 0.0741(2) 0.18950(7)
H3 H -0.3671 0.0313 0.2154
C8 C 0.0435(3) 0.2090(2) 0.15960(6)
H4 H 0.1847 0.2593 0.1654
C9 C -0.0024(3) 0.0544(2) 0.37522(6)
H5 H -0.1391 0.0005 0.3807
C10 C -0.3737(3) 0.0639(2) 0.14145(7)
H6 H -0.5154 0.0148 0.1356
N3 N 0.6505(3) 0.1826(3) 0.47746(7)
C11 C -0.2571(3) 0.1247(2) 0.10159(7)
C12 C 0.1484(3) 0.0795(3) 0.41303(7)
H7 H 0.1162 0.0435 0.4449
C13 C -0.0451(3) 0.1964(2) 0.11167(7)
H8 H 0.0381 0.2364 0.0856
C14 C 0.5205(3) 0.1772(3) 0.44477(7)
C15 C -0.3577(4) 0.1164(3) 0.04957(8)
H9 H -0.4785 0.0306 0.0481
H10 H -0.2462 0.0785 0.0275
H11 H -0.4126 0.2346 0.0399
loop_
_geom_bond_atom_site_label_1
_geom_bond_atom_site_label_2
_geom_bond_site_symmetry_1
_geom_bond_site_symmetry_2
N1 N2 1_555 1_555
N2 C1 1_555 1_555
C1 C3 1_555 1_555
C2 N1 1_555 1_555
C3 C2 1_555 1_555
H1 C3 1_555 1_555
C4 C1 1_555 1_555
C5 C2 1_555 1_555
H2 C5 1_555 1_555
C6 C5 1_555 1_555
C7 C4 1_555 1_555
H3 C7 1_555 1_555
C8 C4 1_555 1_555
H4 C8 1_555 1_555
C9 N1 1_555 1_555
H5 C9 1_555 1_555
C10 C7 1_555 1_555
H6 C10 1_555 1_555
N3 C14 1_555 1_555
C11 C10 1_555 1_555
C12 C6 1_555 1_555
H7 C12 1_555 1_555
C13 C8 1_555 1_555
H8 C13 1_555 1_555
C14 C6 1_555 1_555
C15 C11 1_555 1_555
H9 C15 1_555 1_555
H10 C15 1_555 1_555
H11 C15 1_555 1_555
C9 C12 1_555 1_555
C11 C13 1_555 1_555

#END
