
#######################################################################
#
#                 Cambridge Crystallographic Data Centre
#                                CCDC 
#
#######################################################################
#
# If this CIF has been generated from an entry in the Cambridge 
# Structural Database, then it will include bibliographic, chemical, 
# crystal, experimental, refinement or atomic coordinate data resulting 
# from the CCDC's data processing and validation procedures.
#
#######################################################################

data_SUFLAG03
_chemical_formula_moiety         'C22 H12 O2 S1'
_chemical_name_systematic        2-(Thioxanthen-9-ylidene)indane-1,3-dione
_symmetry_cell_setting           monoclinic
_symmetry_space_group_name_H-M   'P 21/n'
_symmetry_Int_Tables_number      14
_space_group_name_Hall           '-P 2yn'
loop_
_symmetry_equiv_pos_site_id
_symmetry_equiv_pos_as_xyz
1 x,y,z
2 1/2-x,1/2+y,1/2-z
3 -x,-y,-z
4 1/2+x,1/2-y,1/2+z
_cell_length_a                   9.4963(5)
_cell_length_b                   8.0181(4)
_cell_length_c                   21.3804(9)
_cell_angle_alpha                90
_cell_angle_beta                 94.107(3)
_cell_angle_gamma                90
_cell_volume                     1623.77
_exptl_crystal_colour            orange
_exptl_crystal_description       prism
_cell_formula_units_Z            4
loop_
_atom_site_label
_atom_site_type_symbol
_atom_site_fract_x
_atom_site_fract_y
_atom_site_fract_z
S1 S 0.74007(13) 0.71947(14) 0.22950(5)
O1 O 1.1811(3) 0.7013(3) 0.12706(12)
O2 O 0.8081(3) 0.8573(4) -0.02053(12)
C1 C 0.7435(4) 0.9087(5) 0.12159(16)
C2 C 0.8962(4) 0.8710(4) 0.12388(16)
C3 C 0.9674(4) 0.8205(4) 0.07351(15)
C4 C 0.9061(4) 0.8159(5) 0.23817(17)
C5 C 1.1083(4) 0.7332(4) 0.07986(18)
C6 C 1.0266(4) 0.7148(4) -0.02593(16)
C7 C 0.6748(4) 1.0129(5) 0.07695(17)
H1 H 0.7271 1.0660 0.0477
C8 C 0.9682(4) 0.8839(4) 0.18672(16)
C9 C 1.0940(4) 0.9718(5) 0.19713(18)
H2 H 1.1332 1.0236 0.1635
C10 C 0.6638(4) 0.8375(5) 0.16741(17)
C11 C 1.1374(4) 0.6739(4) 0.01650(17)
C12 C 1.0278(5) 0.6715(5) -0.08856(17)
H3 H 0.9533 0.6994 -0.1173
C13 C 0.9162(4) 0.8049(5) 0.00628(17)
C14 C 1.2532(4) 0.5859(5) -0.0016(2)
H4 H 1.3273 0.5573 0.0272
C15 C 0.5150(5) 0.8586(6) 0.1627(2)
H5 H 0.4597 0.8046 0.1906
C16 C 0.5318(5) 1.0389(6) 0.0752(2)
H6 H 0.4886 1.1111 0.0457
C17 C 1.1449(5) 0.5845(5) -0.1069(2)
H7 H 1.1494 0.5545 -0.1488
C18 C 1.1029(6) 0.9085(7) 0.3056(2)
H8 H 1.1493 0.9141 0.3454
C19 C 1.2544(5) 0.5422(5) -0.0639(2)
H9 H 1.3308 0.4829 -0.0773
C20 C 1.1615(5) 0.9839(6) 0.2557(2)
H10 H 1.2460 1.0424 0.2618
C21 C 0.9763(6) 0.8250(6) 0.2971(2)
H11 H 0.9377 0.7745 0.3311
C22 C 0.4536(5) 0.9593(7) 0.1166(3)
H12 H 0.3561 0.9732 0.1137
loop_
_geom_bond_atom_site_label_1
_geom_bond_atom_site_label_2
_geom_bond_site_symmetry_1
_geom_bond_site_symmetry_2
S1 C4 1_555 1_555
O1 C5 1_555 1_555
O2 C13 1_555 1_555
C1 C2 1_555 1_555
C2 C3 1_555 1_555
C3 C5 1_555 1_555
C4 C8 1_555 1_555
C5 C11 1_555 1_555
C6 C11 1_555 1_555
C7 C1 1_555 1_555
H1 C7 1_555 1_555
C8 C2 1_555 1_555
C9 C8 1_555 1_555
H2 C9 1_555 1_555
C10 S1 1_555 1_555
C11 C14 1_555 1_555
C12 C6 1_555 1_555
H3 C12 1_555 1_555
C13 C3 1_555 1_555
C14 H4 1_555 1_555
C15 C10 1_555 1_555
H5 C15 1_555 1_555
C16 C7 1_555 1_555
H6 C16 1_555 1_555
C17 C12 1_555 1_555
H7 C17 1_555 1_555
C18 H8 1_555 1_555
C19 C14 1_555 1_555
H9 C19 1_555 1_555
C20 C9 1_555 1_555
H10 C20 1_555 1_555
C21 C4 1_555 1_555
H11 C21 1_555 1_555
C22 C15 1_555 1_555
H12 C22 1_555 1_555
C1 C10 1_555 1_555
C6 C13 1_555 1_555
C16 C22 1_555 1_555
C17 C19 1_555 1_555
C18 C20 1_555 1_555
C18 C21 1_555 1_555

#END
