
#######################################################################
#
#                 Cambridge Crystallographic Data Centre
#                                CCDC 
#
#######################################################################
#
# If this CIF has been generated from an entry in the Cambridge 
# Structural Database, then it will include bibliographic, chemical, 
# crystal, experimental, refinement or atomic coordinate data resulting 
# from the CCDC's data processing and validation procedures.
#
#######################################################################

data_SUFLAG02
_chemical_formula_moiety         'C22 H12 O2 S1'
_chemical_name_systematic        2-(Thioxanthen-9-ylidene)indane-1,3-dione
_symmetry_cell_setting           monoclinic
_symmetry_space_group_name_H-M   'P 21/n'
_symmetry_Int_Tables_number      14
_space_group_name_Hall           '-P 2yn'
loop_
_symmetry_equiv_pos_site_id
_symmetry_equiv_pos_as_xyz
1 x,y,z
2 1/2-x,1/2+y,1/2-z
3 -x,-y,-z
4 1/2+x,1/2-y,1/2+z
_cell_length_a                   9.4963(5)
_cell_length_b                   8.0181(4)
_cell_length_c                   21.3804(9)
_cell_angle_alpha                90
_cell_angle_beta                 94.107(3)
_cell_angle_gamma                90
_cell_volume                     1623.77
_exptl_crystal_colour            orange
_exptl_crystal_description       prism
_cell_formula_units_Z            4
loop_
_atom_site_label
_atom_site_type_symbol
_atom_site_fract_x
_atom_site_fract_y
_atom_site_fract_z
S1 S 0.74008(14) 0.71955(14) 0.22960(5)
O1 O 1.1810(3) 0.7008(4) 0.12721(12)
O2 O 0.8083(3) 0.8570(4) -0.02051(12)
C1 C 0.7431(4) 0.9085(5) 0.12126(16)
C2 C 0.8958(4) 0.8704(4) 0.12389(16)
C3 C 0.9674(4) 0.8214(4) 0.07371(15)
C4 C 0.9060(4) 0.8162(5) 0.23799(18)
C5 C 1.1077(4) 0.7324(5) 0.08005(18)
C6 C 1.0270(4) 0.7146(4) -0.02579(17)
C7 C 0.6751(4) 1.0132(5) 0.07688(17)
H1 H 0.7277 1.0666 0.0478
C8 C 0.9679(4) 0.8837(4) 0.18670(16)
C9 C 1.0941(4) 0.9720(5) 0.19686(18)
H2 H 1.1333 1.0228 0.1631
C10 C 0.6631(4) 0.8371(5) 0.16700(17)
C11 C 1.1373(4) 0.6736(4) 0.01662(17)
C12 C 1.0276(5) 0.6711(5) -0.08840(18)
H3 H 0.9530 0.6988 -0.1170
C13 C 0.9161(4) 0.8047(5) 0.00620(17)
C14 C 1.2536(4) 0.5854(5) -0.0018(2)
H4 H 1.3278 0.5560 0.0268
C15 C 0.5152(5) 0.8593(6) 0.1629(2)
H5 H 0.4602 0.8065 0.1912
C16 C 0.5321(5) 1.0394(6) 0.0751(2)
H6 H 0.4889 1.1116 0.0456
C17 C 1.1443(6) 0.5844(5) -0.1067(2)
H7 H 1.1481 0.5532 -0.1485
C18 C 1.1035(7) 0.9077(7) 0.3054(2)
H8 H 1.1510 0.9116 0.3450
C19 C 1.2542(5) 0.5438(5) -0.0642(2)
H9 H 1.3313 0.4865 -0.0780
C20 C 1.1612(5) 0.9853(6) 0.2554(2)
H10 H 1.2446 1.0459 0.2615
C21 C 0.9768(6) 0.8248(6) 0.2972(2)
H11 H 0.9383 0.7743 0.3312
C22 C 0.4537(5) 0.9593(7) 0.1168(2)
H12 H 0.3562 0.9728 0.1139
loop_
_geom_bond_atom_site_label_1
_geom_bond_atom_site_label_2
_geom_bond_site_symmetry_1
_geom_bond_site_symmetry_2
S1 C4 1_555 1_555
O1 C5 1_555 1_555
O2 C13 1_555 1_555
C1 C2 1_555 1_555
C2 C3 1_555 1_555
C3 C5 1_555 1_555
C4 C8 1_555 1_555
C5 C11 1_555 1_555
C6 C11 1_555 1_555
C7 C1 1_555 1_555
H1 C7 1_555 1_555
C8 C2 1_555 1_555
C9 C8 1_555 1_555
H2 C9 1_555 1_555
C10 S1 1_555 1_555
C11 C14 1_555 1_555
C12 C6 1_555 1_555
H3 C12 1_555 1_555
C13 C3 1_555 1_555
C14 H4 1_555 1_555
C15 C10 1_555 1_555
H5 C15 1_555 1_555
C16 C7 1_555 1_555
H6 C16 1_555 1_555
C17 C12 1_555 1_555
H7 C17 1_555 1_555
C18 H8 1_555 1_555
C19 C14 1_555 1_555
H9 C19 1_555 1_555
C20 C9 1_555 1_555
H10 C20 1_555 1_555
C21 C4 1_555 1_555
H11 C21 1_555 1_555
C22 C15 1_555 1_555
H12 C22 1_555 1_555
C1 C10 1_555 1_555
C6 C13 1_555 1_555
C16 C22 1_555 1_555
C17 C19 1_555 1_555
C18 C20 1_555 1_555
C18 C21 1_555 1_555

#END
