
#######################################################################
#
#                 Cambridge Crystallographic Data Centre
#                                CCDC 
#
#######################################################################
#
# If this CIF has been generated from an entry in the Cambridge 
# Structural Database, then it will include bibliographic, chemical, 
# crystal, experimental, refinement or atomic coordinate data resulting 
# from the CCDC's data processing and validation procedures.
#
#######################################################################

data_SUFLAG01
_chemical_formula_moiety         'C22 H12 O2 S1'
_chemical_name_systematic        2-(Thioxanthen-9-ylidene)indane-1,3-dione
_symmetry_cell_setting           monoclinic
_symmetry_space_group_name_H-M   'P 21/n'
_symmetry_Int_Tables_number      14
_space_group_name_Hall           '-P 2yn'
loop_
_symmetry_equiv_pos_site_id
_symmetry_equiv_pos_as_xyz
1 x,y,z
2 1/2-x,1/2+y,1/2-z
3 -x,-y,-z
4 1/2+x,1/2-y,1/2+z
_cell_length_a                   9.3541(14)
_cell_length_b                   7.8376(12)
_cell_length_c                   21.571(3)
_cell_angle_alpha                90
_cell_angle_beta                 93.994(2)
_cell_angle_gamma                90
_cell_volume                     1577.61
_exptl_crystal_colour            orange
_exptl_crystal_description       plate
_cell_formula_units_Z            4
loop_
_atom_site_label
_atom_site_type_symbol
_atom_site_fract_x
_atom_site_fract_y
_atom_site_fract_z
S1 S 0.72866(6) 0.71743(7) 0.22809(3)
O1 O 1.18016(15) 0.6898(2) 0.12870(7)
O2 O 0.81030(16) 0.8632(2) -0.02034(7)
C1 C 0.7385(2) 0.9117(3) 0.12045(9)
C2 C 0.8935(2) 0.8715(3) 0.12356(10)
C3 C 0.9679(2) 0.8206(3) 0.07440(10)
C4 C 0.8995(2) 0.8120(3) 0.23734(10)
C5 C 1.1094(2) 0.7269(3) 0.08157(10)
C6 C 1.0324(2) 0.7152(3) -0.02454(10)
C7 C 0.6716(2) 1.0197(3) 0.07599(9)
H1 H 0.7276 1.0762 0.0472
C8 C 0.9645(2) 0.8818(3) 0.18680(10)
C9 C 1.0941(2) 0.9688(3) 0.19806(10)
H2 H 1.1371 1.0221 0.1644
C10 C 0.6544(2) 0.8392(3) 0.16522(10)
C11 C 1.1423(2) 0.6695(3) 0.01852(10)
C12 C 1.0358(2) 0.6728(3) -0.08684(10)
H3 H 0.9598 0.7036 -0.1162
C13 C 0.9187(2) 0.8083(3) 0.00685(10)
C14 C 1.2606(2) 0.5790(3) 0.00099(11)
H4 H 1.3358 0.5471 0.0306
C15 C 0.5054(2) 0.8598(3) 0.16022(11)
H5 H 0.4480 0.8038 0.1886
C16 C 0.5256(2) 1.0459(3) 0.07318(10)
H6 H 0.4820 1.1219 0.0432
C17 C 1.1547(2) 0.5836(3) -0.10474(11)
H7 H 1.1607 0.5540 -0.1472
C18 C 1.0981(3) 0.8986(3) 0.30607(11)
H8 H 1.1455 0.9006 0.3465
C19 C 1.2652(2) 0.5370(3) -0.06116(11)
H9 H 1.3450 0.4754 -0.0744
C20 C 1.1607(2) 0.9787(3) 0.25679(11)
H10 H 1.2482 1.0393 0.2638
C21 C 0.9685(3) 0.8171(3) 0.29644(11)
H11 H 0.9261 0.7640 0.3302
C22 C 0.4425(2) 0.9612(3) 0.11415(11)
H12 H 0.3412 0.9735 0.1103
loop_
_geom_bond_atom_site_label_1
_geom_bond_atom_site_label_2
_geom_bond_site_symmetry_1
_geom_bond_site_symmetry_2
S1 C4 1_555 1_555
O1 C5 1_555 1_555
O2 C13 1_555 1_555
C1 C2 1_555 1_555
C2 C3 1_555 1_555
C3 C5 1_555 1_555
C4 C8 1_555 1_555
C5 C11 1_555 1_555
C6 C11 1_555 1_555
C7 C1 1_555 1_555
H1 C7 1_555 1_555
C8 C2 1_555 1_555
C9 C8 1_555 1_555
H2 C9 1_555 1_555
C10 S1 1_555 1_555
C11 C14 1_555 1_555
C12 C6 1_555 1_555
H3 C12 1_555 1_555
C13 C3 1_555 1_555
C14 H4 1_555 1_555
C15 C10 1_555 1_555
H5 C15 1_555 1_555
C16 C7 1_555 1_555
H6 C16 1_555 1_555
C17 C12 1_555 1_555
H7 C17 1_555 1_555
C18 H8 1_555 1_555
C19 C14 1_555 1_555
H9 C19 1_555 1_555
C20 C9 1_555 1_555
H10 C20 1_555 1_555
C21 C4 1_555 1_555
H11 C21 1_555 1_555
C22 C15 1_555 1_555
H12 C22 1_555 1_555
C1 C10 1_555 1_555
C6 C13 1_555 1_555
C16 C22 1_555 1_555
C17 C19 1_555 1_555
C18 C20 1_555 1_555
C18 C21 1_555 1_555

#END
