
#######################################################################
#
#                 Cambridge Crystallographic Data Centre
#                                CCDC 
#
#######################################################################
#
# If this CIF has been generated from an entry in the Cambridge 
# Structural Database, then it will include bibliographic, chemical, 
# crystal, experimental, refinement or atomic coordinate data resulting 
# from the CCDC's data processing and validation procedures.
#
#######################################################################

data_SUFLAG06
_chemical_formula_moiety         'C22 H12 O2 S1'
_chemical_name_systematic        2-(Thioxanthen-9-ylidene)indane-1,3-dione
_symmetry_cell_setting           monoclinic
_symmetry_space_group_name_H-M   'P 21/n'
_symmetry_Int_Tables_number      14
_space_group_name_Hall           '-P 2yn'
loop_
_symmetry_equiv_pos_site_id
_symmetry_equiv_pos_as_xyz
1 x,y,z
2 1/2-x,1/2+y,1/2-z
3 -x,-y,-z
4 1/2+x,1/2-y,1/2+z
_cell_length_a                   9.6444(13)
_cell_length_b                   8.2160(10)
_cell_length_c                   21.172(3)
_cell_angle_alpha                90
_cell_angle_beta                 94.206(10)
_cell_angle_gamma                90
_cell_volume                     1673.12
_exptl_crystal_colour            red
_exptl_crystal_description       prism
_cell_formula_units_Z            4
loop_
_atom_site_label
_atom_site_type_symbol
_atom_site_fract_x
_atom_site_fract_y
_atom_site_fract_z
S1 S 0.75285(19) 0.72105(17) 0.23148(7)
O1 O 1.1814(3) 0.7133(4) 0.12495(16)
O2 O 0.8045(4) 0.8502(5) -0.02015(15)
C1 C 0.7471(5) 0.9034(6) 0.1226(2)
C2 C 0.8996(5) 0.8706(4) 0.1241(2)
C3 C 0.9661(4) 0.8223(5) 0.07293(19)
C4 C 0.9154(5) 0.8184(6) 0.2393(3)
C5 C 1.1047(5) 0.7412(5) 0.0777(2)
C6 C 1.0202(6) 0.7142(5) -0.0276(2)
C7 C 0.6789(6) 1.0054(7) 0.0784(2)
H1 H 0.7287 1.0578 0.0484
C8 C 0.9724(5) 0.8849(5) 0.1871(2)
C9 C 1.0945(6) 0.9740(6) 0.1962(3)
H2 H 1.1302 1.0255 0.1618
C10 C 0.6734(6) 0.8361(6) 0.1691(2)
C11 C 1.1301(5) 0.6793(5) 0.0144(2)
C12 C 1.0173(6) 0.6683(6) -0.0906(2)
H3 H 0.9414 0.6917 -0.1188
C13 C 0.9126(6) 0.8026(6) 0.0055(2)
C14 C 1.2453(5) 0.5945(5) -0.0051(3)
H4 H 1.3214 0.5704 0.0229
C15 C 0.5261(8) 0.8540(8) 0.1666(3)
H5 H 0.4737 0.8005 0.1954
C16 C 0.5393(7) 1.0291(8) 0.0787(3)
H6 H 0.4948 1.0996 0.0494
C17 C 1.1318(8) 0.5865(7) -0.1098(3)
H7 H 1.1345 0.5570 -0.1521
C18 C 1.1076(10) 0.9147(11) 0.3057(4)
H8 H 1.1544 0.9222 0.3456
C19 C 1.2402(7) 0.5484(7) -0.0682(3)
H9 H 1.3138 0.4891 -0.0825
C20 C 1.1635(7) 0.9876(8) 0.2551(4)
H10 H 1.2465 1.0452 0.2605
C21 C 0.9862(9) 0.8322(8) 0.2990(3)
H11 H 0.9498 0.7847 0.3341
C22 C 0.4646(8) 0.9515(10) 0.1210(4)
H12 H 0.3686 0.9652 0.1188
loop_
_geom_bond_atom_site_label_1
_geom_bond_atom_site_label_2
_geom_bond_site_symmetry_1
_geom_bond_site_symmetry_2
S1 C4 1_555 1_555
O1 C5 1_555 1_555
O2 C13 1_555 1_555
C1 C2 1_555 1_555
C2 C3 1_555 1_555
C3 C5 1_555 1_555
C4 C8 1_555 1_555
C5 C11 1_555 1_555
C6 C11 1_555 1_555
C7 C1 1_555 1_555
H1 C7 1_555 1_555
C8 C2 1_555 1_555
C9 C8 1_555 1_555
H2 C9 1_555 1_555
C10 S1 1_555 1_555
C11 C14 1_555 1_555
C12 C6 1_555 1_555
H3 C12 1_555 1_555
C13 C3 1_555 1_555
C14 H4 1_555 1_555
C15 C10 1_555 1_555
H5 C15 1_555 1_555
C16 C7 1_555 1_555
H6 C16 1_555 1_555
C17 C12 1_555 1_555
H7 C17 1_555 1_555
C18 H8 1_555 1_555
C19 C14 1_555 1_555
H9 C19 1_555 1_555
C20 C9 1_555 1_555
H10 C20 1_555 1_555
C21 C4 1_555 1_555
H11 C21 1_555 1_555
C22 C15 1_555 1_555
H12 C22 1_555 1_555
C1 C10 1_555 1_555
C6 C13 1_555 1_555
C16 C22 1_555 1_555
C17 C19 1_555 1_555
C18 C20 1_555 1_555
C18 C21 1_555 1_555

#END
