
#######################################################################
#
#                 Cambridge Crystallographic Data Centre
#                                CCDC 
#
#######################################################################
#
# If this CIF has been generated from an entry in the Cambridge 
# Structural Database, then it will include bibliographic, chemical, 
# crystal, experimental, refinement or atomic coordinate data resulting 
# from the CCDC's data processing and validation procedures.
#
#######################################################################

data_SUFNEM
_chemical_formula_moiety         'C11 H20 N6 O3,C1 N1 S1 1-,K1 1+,H2 O1'
_chemical_name_systematic        
"Potassium 5,5'-carbonyl-bis(1,3-dimethyl-3,4,5,6-tetrahydro-1,3,5-triazin-2(1H)-one) thiocyanate monohydrate"
_symmetry_cell_setting           monoclinic
_symmetry_space_group_name_H-M   'P 21/c'
_symmetry_Int_Tables_number      14
_space_group_name_Hall           '-P 2ybc'
loop_
_symmetry_equiv_pos_site_id
_symmetry_equiv_pos_as_xyz
1 x,y,z
2 -x,1/2+y,1/2-z
3 -x,-y,-z
4 x,1/2-y,1/2+z
_cell_length_a                   11.745(2)
_cell_length_b                   23.357(7)
_cell_length_c                   7.010(2)
_cell_angle_alpha                90
_cell_angle_beta                 98.85(2)
_cell_angle_gamma                90
_cell_volume                     1900.14
_exptl_crystal_colour            white
_cell_formula_units_Z            4
loop_
_atom_site_label
_atom_site_type_symbol
_atom_site_fract_x
_atom_site_fract_y
_atom_site_fract_z
K1 K 0.4538(1) 0.1989(1) -0.0478(2)
S1 S 0.6694(2) 0.1705(1) 0.7094(3)
N1 N 0.5366(6) 0.1754(3) 0.3534(10)
C1 C 0.5894(5) 0.1729(3) 0.4997(10)
O1 O 0.2925(3) 0.2496(2) 0.1511(6)
H1 H 0.245(5) 0.263(3) 0.042(9)
H2 H 0.238(6) 0.233(3) 0.215(10)
O2 O 0.0520(2) 0.5208(2) 0.2656(6)
O3 O -0.1356(3) 0.6953(2) 0.1310(5)
O4 O 0.3840(3) 0.4089(2) 0.4125(6)
N2 N 0.1451(3) 0.5969(2) 0.1516(6)
N3 N -0.0365(3) 0.6296(2) -0.0156(6)
N4 N 0.0522(2) 0.6788(6) 0.2519(6)
N5 N 0.2157(3) 0.5562(2) 0.4472(6)
N6 N 0.2720(4) 0.4635(2) 0.5774(6)
N7 N 0.3697(3) 0.5042(6) 0.3497(6)
C2 C 0.1308(4) 0.5549(2) 0.2874(7)
C3 C 0.0668(4) 0.5954(2) -0.0297(7)
C4 C 0.1634(4) 0.6557(2) 0.2207(8)
C5 C -0.0446(4) 0.6693(2) 0.1216(7)
C6 C 0.2069(5) 0.5158(2) 0.6022(8)
C7 C 0.3367(4) 0.5602(2) 0.4150(8)
C8 C 0.3448(4) 0.4562(2) 0.4446(7)
C9 C -0.1326(5) 0.6209(3) -0.1733(9)
C10 C 0.0519(5) 0.7214(3) 0.4032(9)
C11 C 0.2495(6) 0.4156(3) 0.6994(9)
C12 C 0.4312(5) 0.5011(3) 0.1861(8)
loop_
_geom_bond_atom_site_label_1
_geom_bond_atom_site_label_2
_geom_bond_site_symmetry_1
_geom_bond_site_symmetry_2
S1 C1 1_555 1_555
N1 C1 1_555 1_555
O1 H1 1_555 1_555
H2 O1 1_555 1_555
O2 C2 1_555 1_555
O3 C5 1_555 1_555
O4 C8 1_555 1_555
N2 C2 1_555 1_555
N3 C3 1_555 1_555
N4 C4 1_555 1_555
N5 C2 1_555 1_555
N6 C6 1_555 1_555
N7 C7 1_555 1_555
C3 N2 1_555 1_555
C4 N2 1_555 1_555
C5 N3 1_555 1_555
C6 N5 1_555 1_555
C7 N5 1_555 1_555
C8 N6 1_555 1_555
C9 N3 1_555 1_555
C10 N4 1_555 1_555
C11 N6 1_555 1_555
C12 N7 1_555 1_555
N4 C5 1_555 1_555
N7 C8 1_555 1_555

#END
