
#######################################################################
#
#                 Cambridge Crystallographic Data Centre
#                                CCDC 
#
#######################################################################
#
# If this CIF has been generated from an entry in the Cambridge 
# Structural Database, then it will include bibliographic, chemical, 
# crystal, experimental, refinement or atomic coordinate data resulting 
# from the CCDC's data processing and validation procedures.
#
#######################################################################

data_SUFZUQ
_chemical_formula_moiety         'C20 H21 F1 O2 S2'
_chemical_name_systematic        
2-(bis(methylsulfanyl)methylene)-4-(4-fluorophenyl)-1-(3-methoxyphenyl)butan-1-one
_symmetry_cell_setting           monoclinic
_symmetry_space_group_name_H-M   'P 21/c'
_symmetry_Int_Tables_number      14
_space_group_name_Hall           '-P 2ybc'
loop_
_symmetry_equiv_pos_site_id
_symmetry_equiv_pos_as_xyz
1 x,y,z
2 -x,1/2+y,1/2-z
3 -x,-y,-z
4 x,1/2-y,1/2+z
_cell_length_a                   10.5963(5)
_cell_length_b                   16.7072(9)
_cell_length_c                   10.9555(6)
_cell_angle_alpha                90
_cell_angle_beta                 95.184(5)
_cell_angle_gamma                90
_cell_volume                     1931.57
_exptl_crystal_description       prismatic
_cell_formula_units_Z            4
loop_
_atom_site_label
_atom_site_type_symbol
_atom_site_fract_x
_atom_site_fract_y
_atom_site_fract_z
S1 S 0.81240(5) 0.11181(3) 0.22877(5)
S2 S 1.04833(5) 0.10615(4) 0.40812(5)
F1 F 1.48987(17) 0.46561(13) 0.6892(2)
O1 O 0.87286(15) 0.31860(10) 0.12791(14)
O2 O 0.40331(15) 0.37225(11) 0.15751(18)
C1 C 0.93857(17) 0.16226(12) 0.31128(17)
C2 C 0.94980(17) 0.24148(12) 0.29833(17)
C3 C 1.06314(18) 0.28923(13) 0.34835(19)
H1 H 1.0813 0.3299 0.2892
H2 H 1.1361 0.2541 0.3600
C4 C 1.0425(2) 0.32942(15) 0.4698(2)
H3 H 0.9782 0.3705 0.4557
H4 H 1.0114 0.2900 0.5248
C5 C 1.16150(19) 0.36658(13) 0.52978(19)
C6 C 1.1957(2) 0.44399(14) 0.5044(2)
H5 H 1.1431 0.4742 0.4497
C7 C 1.3050(2) 0.47754(15) 0.5578(3)
H6 H 1.3267 0.5299 0.5402
C8 C 1.3807(2) 0.43262(17) 0.6367(3)
C9 C 1.3530(3) 0.35613(18) 0.6648(2)
H7 H 1.4069 0.3267 0.7195
C10 C 1.2428(2) 0.32295(14) 0.6104(2)
H8 H 1.2227 0.2703 0.6281
C11 C 0.84857(19) 0.28827(12) 0.22389(18)
C12 C 0.72183(18) 0.30181(11) 0.27105(18)
C13 C 0.70185(19) 0.28791(12) 0.39249(19)
H9 H 0.7662 0.2668 0.4464
C14 C 0.5847(2) 0.30587(14) 0.4327(2)
H10 H 0.5717 0.2990 0.5149
C15 C 0.4875(2) 0.33375(13) 0.3522(2)
H11 H 0.4086 0.3442 0.3796
C16 C 0.5070(2) 0.34628(13) 0.2307(2)
C17 C 0.62491(19) 0.33199(12) 0.1901(2)
H12 H 0.6392 0.3425 0.1091
C18 C 0.4166(3) 0.3847(2) 0.0326(3)
H13 H 0.4832 0.4227 0.0239
H14 H 0.3385 0.4050 -0.0069
H15 H 0.4372 0.3350 -0.0047
C19 C 0.7487(3) 0.0540(2) 0.3478(3)
H16 H 0.8164 0.0377 0.4067
H17 H 0.7065 0.0075 0.3125
H18 H 0.6894 0.0860 0.3876
C20 C 1.0817(3) 0.02111(16) 0.3158(2)
H19 H 1.0048 -0.0081 0.2943
H20 H 1.1418 -0.0131 0.3611
H21 H 1.1162 0.0390 0.2425
loop_
_geom_bond_atom_site_label_1
_geom_bond_atom_site_label_2
_geom_bond_site_symmetry_1
_geom_bond_site_symmetry_2
S1 C1 1_555 1_555
S2 C1 1_555 1_555
F1 C8 1_555 1_555
O1 C11 1_555 1_555
O2 C16 1_555 1_555
C1 C2 1_555 1_555
C2 C3 1_555 1_555
C3 H1 1_555 1_555
H2 C3 1_555 1_555
C4 C3 1_555 1_555
H3 C4 1_555 1_555
H4 C4 1_555 1_555
C5 C4 1_555 1_555
C6 C5 1_555 1_555
H5 C6 1_555 1_555
C7 C6 1_555 1_555
H6 C7 1_555 1_555
C8 C7 1_555 1_555
C9 C8 1_555 1_555
H7 C9 1_555 1_555
C10 C5 1_555 1_555
H8 C10 1_555 1_555
C11 C2 1_555 1_555
C12 C11 1_555 1_555
C13 C12 1_555 1_555
H9 C13 1_555 1_555
C14 C13 1_555 1_555
H10 C14 1_555 1_555
C15 C14 1_555 1_555
H11 C15 1_555 1_555
C16 C15 1_555 1_555
C17 C12 1_555 1_555
H12 C17 1_555 1_555
C18 O2 1_555 1_555
H13 C18 1_555 1_555
H14 C18 1_555 1_555
H15 C18 1_555 1_555
C19 S1 1_555 1_555
H16 C19 1_555 1_555
H17 C19 1_555 1_555
H18 C19 1_555 1_555
C20 S2 1_555 1_555
H19 C20 1_555 1_555
H20 C20 1_555 1_555
H21 C20 1_555 1_555
C9 C10 1_555 1_555
C16 C17 1_555 1_555

#END
