
#######################################################################
#
#                 Cambridge Crystallographic Data Centre
#                                CCDC 
#
#######################################################################
#
# If this CIF has been generated from an entry in the Cambridge 
# Structural Database, then it will include bibliographic, chemical, 
# crystal, experimental, refinement or atomic coordinate data resulting 
# from the CCDC's data processing and validation procedures.
#
#######################################################################

data_SUFZOK
_chemical_formula_moiety         'C25 H23 Br1 O1 S2 Se1'
_chemical_name_systematic        
2-(bis(methylsulfanyl)methylene)-1-(4-bromophenyl)-3-phenyl-4-(phenylselanyl)butan-1-one
_symmetry_cell_setting           monoclinic
_symmetry_space_group_name_H-M   'P 21/c'
_symmetry_Int_Tables_number      14
_space_group_name_Hall           '-P 2ybc'
loop_
_symmetry_equiv_pos_site_id
_symmetry_equiv_pos_as_xyz
1 x,y,z
2 -x,1/2+y,1/2-z
3 -x,-y,-z
4 x,1/2-y,1/2+z
_cell_length_a                   9.5704(13)
_cell_length_b                   11.7332(16)
_cell_length_c                   21.056(3)
_cell_angle_alpha                90
_cell_angle_beta                 97.692(3)
_cell_angle_gamma                90
_cell_volume                     2343.13
_exptl_crystal_colour            colorless
_exptl_crystal_description       prismatic
_cell_formula_units_Z            4
loop_
_atom_site_label
_atom_site_type_symbol
_atom_site_fract_x
_atom_site_fract_y
_atom_site_fract_z
Br1 Br 1.24194(4) 1.04507(3) 0.465619(18)
Se1 Se 0.45445(3) 0.41356(3) 0.283798(17)
S1 S 0.95611(9) 0.39560(8) 0.41196(4)
S2 S 1.11884(9) 0.55107(8) 0.33311(4)
O1 O 0.8094(2) 0.7109(2) 0.25643(11)
C1 C 0.9602(3) 0.5145(3) 0.36102(14)
C2 C 0.8457(3) 0.5772(3) 0.34132(14)
C3 C 0.8640(3) 0.6908(3) 0.31123(15)
C4 C 0.9474(3) 0.7805(3) 0.34987(16)
C5 C 0.9984(4) 0.8731(3) 0.31928(16)
H1 H 0.9736 0.8820 0.2743
C6 C 1.0849(4) 0.9528(3) 0.35327(17)
H2 H 1.1212 1.0153 0.3319
C7 C 1.1174(3) 0.9401(3) 0.41848(16)
C8 C 1.0637(4) 0.8517(3) 0.45027(16)
H3 H 1.0851 0.8454 0.4955
C9 C 0.9786(4) 0.7721(3) 0.41630(16)
H4 H 0.9409 0.7110 0.4382
C10 C 0.6964(3) 0.5380(3) 0.34664(14)
H5 H 0.7046 0.4637 0.3701
C11 C 0.6151(3) 0.5142(3) 0.27994(15)
H6 H 0.6797 0.4788 0.2526
H7 H 0.5815 0.5872 0.2599
C12 C 0.6218(3) 0.6200(3) 0.38686(15)
C13 C 0.5618(4) 0.7209(3) 0.36246(16)
H8 H 0.5652 0.7404 0.3189
C14 C 0.4974(4) 0.7931(3) 0.40096(18)
H9 H 0.4563 0.8619 0.3836
C15 C 0.4915(4) 0.7673(3) 0.46380(17)
H10 H 0.4464 0.8177 0.4899
C16 C 0.5515(4) 0.6678(3) 0.48898(17)
H11 H 0.5483 0.6495 0.5327
C17 C 0.6162(3) 0.5947(3) 0.45082(15)
H12 H 0.6575 0.5262 0.4685
C18 C 0.5555(3) 0.2787(3) 0.31360(15)
C19 C 0.4985(4) 0.2094(3) 0.35677(16)
H13 H 0.4129 0.2308 0.3717
C20 C 0.5646(4) 0.1099(3) 0.37830(17)
H14 H 0.5247 0.0634 0.4081
C21 C 0.6893(4) 0.0771(3) 0.35663(17)
H15 H 0.7354 0.0086 0.3715
C22 C 0.7454(4) 0.1456(3) 0.31310(17)
H16 H 0.8308 0.1239 0.2981
C23 C 0.6787(4) 0.2453(3) 0.29113(17)
H17 H 0.7175 0.2909 0.2606
C24 C 1.0622(5) 0.2921(4) 0.3772(2)
H18 H 1.0211 0.2770 0.3329
H19 H 1.0651 0.2212 0.4020
H20 H 1.1581 0.3217 0.3779
C25 C 1.2420(4) 0.5572(4) 0.40507(18)
H21 H 1.2169 0.6203 0.4319
H22 H 1.3372 0.5695 0.3941
H23 H 1.2394 0.4853 0.4286
loop_
_geom_bond_atom_site_label_1
_geom_bond_atom_site_label_2
_geom_bond_site_symmetry_1
_geom_bond_site_symmetry_2
Br1 C7 1_555 1_555
Se1 C11 1_555 1_555
S1 C1 1_555 1_555
S2 C1 1_555 1_555
O1 C3 1_555 1_555
C1 C2 1_555 1_555
C2 C3 1_555 1_555
C3 C4 1_555 1_555
C4 C5 1_555 1_555
C5 H1 1_555 1_555
C6 C5 1_555 1_555
H2 C6 1_555 1_555
C7 C6 1_555 1_555
C8 C7 1_555 1_555
H3 C8 1_555 1_555
C9 C4 1_555 1_555
H4 C9 1_555 1_555
C10 C2 1_555 1_555
H5 C10 1_555 1_555
C11 C10 1_555 1_555
H6 C11 1_555 1_555
H7 C11 1_555 1_555
C12 C10 1_555 1_555
C13 C12 1_555 1_555
H8 C13 1_555 1_555
C14 C13 1_555 1_555
H9 C14 1_555 1_555
C15 C14 1_555 1_555
H10 C15 1_555 1_555
C16 C15 1_555 1_555
H11 C16 1_555 1_555
C17 C12 1_555 1_555
H12 C17 1_555 1_555
C18 Se1 1_555 1_555
C19 C18 1_555 1_555
H13 C19 1_555 1_555
C20 C19 1_555 1_555
H14 C20 1_555 1_555
C21 C20 1_555 1_555
H15 C21 1_555 1_555
C22 C21 1_555 1_555
H16 C22 1_555 1_555
C23 C18 1_555 1_555
H17 C23 1_555 1_555
C24 S1 1_555 1_555
H18 C24 1_555 1_555
H19 C24 1_555 1_555
H20 C24 1_555 1_555
C25 S2 1_555 1_555
H21 C25 1_555 1_555
H22 C25 1_555 1_555
H23 C25 1_555 1_555
C8 C9 1_555 1_555
C16 C17 1_555 1_555
C22 C23 1_555 1_555

#END
