
#######################################################################
#
#                 Cambridge Crystallographic Data Centre
#                                CCDC 
#
#######################################################################
#
# If this CIF has been generated from an entry in the Cambridge 
# Structural Database, then it will include bibliographic, chemical, 
# crystal, experimental, refinement or atomic coordinate data resulting 
# from the CCDC's data processing and validation procedures.
#
#######################################################################

data_SUFZIC01
_chemical_formula_moiety         'C14 H19 N1 O7'
_chemical_name_systematic        
15-Nitro-2,3,5,6,8,9,11,12-octahydro-1,4,7,10,13-benzopentaoxacyclopentadecane
_symmetry_cell_setting           orthorhombic
_symmetry_space_group_name_H-M   'P c a 21'
_symmetry_Int_Tables_number      29
_space_group_name_Hall           'P 2c -2ac'
loop_
_symmetry_equiv_pos_site_id
_symmetry_equiv_pos_as_xyz
1 x,y,z
2 -x,-y,1/2+z
3 1/2+x,-y,z
4 1/2-x,y,1/2+z
_cell_length_a                   15.0965(9)
_cell_length_b                   4.8500(3)
_cell_length_c                   19.7472(11)
_cell_angle_alpha                90
_cell_angle_beta                 90
_cell_angle_gamma                90
_cell_volume                     1445.85
_exptl_crystal_colour            colorless
_exptl_crystal_description       block
_cell_formula_units_Z            4
loop_
_atom_site_label
_atom_site_type_symbol
_atom_site_fract_x
_atom_site_fract_y
_atom_site_fract_z
O1 O 0.16517(8) 0.4152(2) 0.06595(6)
O2 O 0.12099(8) 0.5742(2) -0.06554(7)
O3 O -0.01726(9) 0.1313(3) -0.10158(7)
O4 O -0.11471(8) -0.0213(3) 0.06182(7)
O5 O 0.05016(7) 0.1349(2) 0.12934(6)
O6 O 0.29599(8) 1.0636(3) 0.23798(7)
O7 O 0.22870(9) 0.9610(3) 0.33174(6)
N1 N 0.24271(9) 0.9262(3) 0.27097(8)
C1 C 0.22227(11) 0.5834(4) 0.02519(9)
C2 C 0.15926(10) 0.4743(3) 0.13277(8)
C3 C 0.20791(10) 0.6734(3) 0.16648(9)
C4 C 0.19270(10) 0.7097(3) 0.23563(9)
C5 C 0.13267(11) 0.5551(3) 0.27202(9)
C6 C 0.08374(10) 0.3537(4) 0.23768(9)
C7 C 0.09568(10) 0.3153(3) 0.16836(9)
C8 C -0.02056(11) -0.0183(4) 0.16032(9)
C9 C -0.06299(11) -0.1909(4) 0.10578(10)
C10 C -0.09612(12) -0.0445(4) -0.00893(9)
C11 C -0.01514(12) 0.1195(4) -0.02950(9)
C12 C 0.06579(12) 0.1808(4) -0.13252(9)
C13 C 0.09524(14) 0.4790(4) -0.13124(9)
C14 C 0.20796(11) 0.4917(4) -0.04673(9)
H1 H 0.2839(15) 0.565(5) 0.0372(12)
H2 H 0.2054(12) 0.773(4) 0.0299(9)
H3 H 0.2490(13) 0.777(4) 0.1429(10)
H4 H 0.1310(15) 0.598(4) 0.3197(12)
H5 H 0.0476(15) 0.245(5) 0.2633(11)
H6 H -0.0614(14) 0.105(5) 0.1782(11)
H7 H 0.0055(14) -0.148(5) 0.1939(12)
H8 H -0.0172(13) -0.288(4) 0.0815(11)
H9 H -0.1008(15) -0.335(5) 0.1278(13)
H10 H -0.1494(14) 0.048(4) -0.0318(12)
H11 H -0.0890(13) -0.235(5) -0.0222(11)
H12 H -0.0178(13) 0.305(4) -0.0100(10)
H13 H 0.0457(16) 0.028(4) -0.0165(12)
H14 H 0.0592(14) 0.118(5) -0.1809(12)
H15 H 0.1134(14) 0.062(4) -0.1135(12)
H16 H 0.1448(16) 0.496(5) -0.1618(13)
H17 H 0.0465(13) 0.597(4) -0.1443(10)
H18 H 0.2523(15) 0.581(5) -0.0741(12)
H19 H 0.2143(13) 0.296(5) -0.0505(10)
loop_
_geom_bond_atom_site_label_1
_geom_bond_atom_site_label_2
_geom_bond_site_symmetry_1
_geom_bond_site_symmetry_2
O1 C1 1_555 1_555
O2 C13 1_555 1_555
O3 C11 1_555 1_555
O4 C9 1_555 1_555
O5 C7 1_555 1_555
O6 N1 1_555 1_555
O7 N1 1_555 1_555
N1 C4 1_555 1_555
C1 C14 1_555 1_555
C2 O1 1_555 1_555
C3 C2 1_555 1_555
C4 C3 1_555 1_555
C5 C4 1_555 1_555
C6 C5 1_555 1_555
C7 C2 1_555 1_555
C8 O5 1_555 1_555
C9 C8 1_555 1_555
C10 O4 1_555 1_555
C11 C10 1_555 1_555
C12 O3 1_555 1_555
C13 C12 1_555 1_555
C14 O2 1_555 1_555
H1 C1 1_555 1_555
H2 C1 1_555 1_555
H3 C3 1_555 1_555
H4 C5 1_555 1_555
H5 C6 1_555 1_555
H6 C8 1_555 1_555
H7 C8 1_555 1_555
H8 C9 1_555 1_555
H9 C9 1_555 1_555
H10 C10 1_555 1_555
H11 C10 1_555 1_555
H12 C11 1_555 1_555
H13 C11 1_555 1_555
H14 C12 1_555 1_555
H15 C12 1_555 1_555
H16 C13 1_555 1_555
H17 C13 1_555 1_555
H18 C14 1_555 1_555
H19 C14 1_555 1_555
C6 C7 1_555 1_555

#END
