
#######################################################################
#
#                 Cambridge Crystallographic Data Centre
#                                CCDC 
#
#######################################################################
#
# If this CIF has been generated from an entry in the Cambridge 
# Structural Database, then it will include bibliographic, chemical, 
# crystal, experimental, refinement or atomic coordinate data resulting 
# from the CCDC's data processing and validation procedures.
#
#######################################################################

data_SUGFUX
_chemical_formula_moiety         'C22 H25 O5 P1'
_chemical_name_systematic        
'butyl 6-ethoxy-6,9,10,11-tetrahydrobenzo[e]indeno[5,4-c][1,2]oxaphosphinine-8-carboxylate 6-oxide'
_symmetry_cell_setting           triclinic
_symmetry_space_group_name_H-M   'P -1'
_symmetry_Int_Tables_number      2
_space_group_name_Hall           '-P 1'
loop_
_symmetry_equiv_pos_site_id
_symmetry_equiv_pos_as_xyz
1 x,y,z
2 -x,-y,-z
_cell_length_a                   7.8931(2)
_cell_length_b                   9.4542(2)
_cell_length_c                   14.3399(4)
_cell_angle_alpha                89.1605(15)
_cell_angle_beta                 82.9814(16)
_cell_angle_gamma                69.4905(14)
_cell_volume                     994.29
_exptl_crystal_colour            colorless
_exptl_crystal_description       plate
_cell_formula_units_Z            2
loop_
_atom_site_label
_atom_site_type_symbol
_atom_site_fract_x
_atom_site_fract_y
_atom_site_fract_z
P1 P 0.02011(10) 0.56500(7) 0.32238(5)
O1 O 0.1252(3) 0.41456(19) 0.37287(12)
O2 O 0.0348(3) 0.6967(2) 0.36731(13)
O3 O -0.1770(3) 0.5636(2) 0.31976(13)
O4 O 0.1765(4) 0.8669(2) 0.04054(14)
O5 O 0.2535(3) 0.7248(2) -0.09027(12)
C1 C 0.1388(4) 0.2755(3) 0.33341(18)
C2 C 0.1301(4) 0.1678(3) 0.3974(2)
H1 H 0.1124 0.1906 0.4616
C3 C 0.1478(5) 0.0270(3) 0.3661(2)
H2 H 0.1428 -0.0468 0.4088
C4 C 0.1731(4) -0.0054(3) 0.2712(2)
H3 H 0.186 -0.1014 0.2497
C5 C 0.1792(4) 0.1035(3) 0.20814(19)
H4 H 0.1943 0.0793 0.1443
C6 C 0.1639(3) 0.2492(3) 0.23537(17)
C7 C 0.1723(3) 0.3695(3) 0.16855(17)
C8 C 0.1150(3) 0.5205(3) 0.20391(17)
C9 C 0.1274(4) 0.6363(3) 0.14758(17)
H5 H 0.0902 0.7335 0.1737
C10 C 0.1942(4) 0.6123(3) 0.05252(17)
C11 C 0.2472(3) 0.4654(3) 0.01449(17)
C12 C 0.2351(3) 0.3458(3) 0.07108(17)
C13 C 0.2952(4) 0.2023(3) 0.01134(18)
H6 H 0.1937 0.1683 0.0074
H7 H 0.3911 0.1228 0.0375
C14 C 0.3653(5) 0.2436(3) -0.0857(2)
H8 H 0.4962 0.1929 -0.0985
H9 H 0.3086 0.212 -0.1339
C15 C 0.3185(4) 0.4130(3) -0.08644(18)
H10 H 0.4257 0.4382 -0.1075
H11 H 0.2262 0.4591 -0.1275
C16 C -0.3184(6) 0.6136(5) 0.3977(3)
H12 H -0.2846 0.5476 0.45
H13 H -0.3318 0.7149 0.4177
C17 C -0.4874(6) 0.6131(5) 0.3729(3)
H14 H -0.5287 0.6879 0.3267
H15 H -0.5763 0.6359 0.4278
H16 H -0.4713 0.5153 0.3474
C18 C 0.2059(4) 0.7476(3) 0.00183(18)
C19 C 0.2672(5) 0.8543(3) -0.14290(19)
H17 H 0.3584 0.8879 -0.1206
H18 H 0.1511 0.9372 -0.1346
C20 C 0.3201(4) 0.8063(3) -0.24475(19)
H19 H 0.2301 0.7696 -0.2655
H20 H 0.4366 0.7238 -0.2521
C21 C 0.3339(4) 0.9338(3) -0.3052(2)
H21 H 0.43 0.9656 -0.2873
H22 H 0.2202 1.019 -0.2942
C22 C 0.3735(6) 0.8903(4) -0.4084(2)
H23 H 0.4905 0.8114 -0.4206
H24 H 0.3739 0.9766 -0.4444
H25 H 0.2813 0.855 -0.426
loop_
_geom_bond_atom_site_label_1
_geom_bond_atom_site_label_2
_geom_bond_site_symmetry_1
_geom_bond_site_symmetry_2
P1 O1 1_555 1_555
O1 C1 1_555 1_555
O2 P1 1_555 1_555
O3 P1 1_555 1_555
O4 C18 1_555 1_555
O5 C18 1_555 1_555
C1 C2 1_555 1_555
C2 H1 1_555 1_555
C3 C2 1_555 1_555
H2 C3 1_555 1_555
C4 C3 1_555 1_555
H3 C4 1_555 1_555
C5 C4 1_555 1_555
H4 C5 1_555 1_555
C6 C1 1_555 1_555
C7 C6 1_555 1_555
C8 P1 1_555 1_555
C9 C8 1_555 1_555
H5 C9 1_555 1_555
C10 C9 1_555 1_555
C11 C10 1_555 1_555
C12 C7 1_555 1_555
C13 C12 1_555 1_555
H6 C13 1_555 1_555
H7 C13 1_555 1_555
C14 C13 1_555 1_555
H8 C14 1_555 1_555
H9 C14 1_555 1_555
C15 C11 1_555 1_555
H10 C15 1_555 1_555
H11 C15 1_555 1_555
C16 O3 1_555 1_555
H12 C16 1_555 1_555
H13 C16 1_555 1_555
C17 C16 1_555 1_555
H14 C17 1_555 1_555
H15 C17 1_555 1_555
H16 C17 1_555 1_555
C18 C10 1_555 1_555
C19 O5 1_555 1_555
H17 C19 1_555 1_555
H18 C19 1_555 1_555
C20 C19 1_555 1_555
H19 C20 1_555 1_555
H20 C20 1_555 1_555
C21 C20 1_555 1_555
H21 C21 1_555 1_555
H22 C21 1_555 1_555
C22 C21 1_555 1_555
H23 C22 1_555 1_555
H24 C22 1_555 1_555
H25 C22 1_555 1_555
C5 C6 1_555 1_555
C7 C8 1_555 1_555
C11 C12 1_555 1_555
C14 C15 1_555 1_555

#END
