
#######################################################################
#
#                 Cambridge Crystallographic Data Centre
#                                CCDC 
#
#######################################################################
#
# If this CIF has been generated from an entry in the Cambridge 
# Structural Database, then it will include bibliographic, chemical, 
# crystal, experimental, refinement or atomic coordinate data resulting 
# from the CCDC's data processing and validation procedures.
#
#######################################################################

data_SUGGOS
_chemical_formula_moiety         'C19 H16 B1 F2 N3'
_chemical_name_systematic        
5,5-Difluoro-3-methyl-7-(5-methyl-1H-pyrrol-2-yl)-5H-6\l^5^,5\l^5^-pyrrolo[1',2':3,4][1,3,2]diazaborinino[6,1-a]isoindole
_symmetry_cell_setting           triclinic
_symmetry_space_group_name_H-M   'P -1'
_symmetry_Int_Tables_number      2
_space_group_name_Hall           '-P 1'
loop_
_symmetry_equiv_pos_site_id
_symmetry_equiv_pos_as_xyz
1 x,y,z
2 -x,-y,-z
_cell_length_a                   8.5259(13)
_cell_length_b                   9.9712(16)
_cell_length_c                   10.9526(17)
_cell_angle_alpha                115.832(2)
_cell_angle_beta                 93.243(2)
_cell_angle_gamma                103.522(2)
_cell_volume                     801.377
_exptl_crystal_colour            red
_exptl_crystal_description       block
_cell_formula_units_Z            2
_chemical_properties_physical    'Light-sensitive, Photo-sensitive'
_exptl_crystal_preparation       Luminescent
loop_
_atom_site_label
_atom_site_type_symbol
_atom_site_fract_x
_atom_site_fract_y
_atom_site_fract_z
B1 B 0.49375(18) 0.22716(18) 0.76607(16)
C1 C 0.66079(16) 0.39431(16) 0.66037(14)
C2 C 0.65156(17) 0.39479(17) 0.52802(14)
C3 C 0.7376(2) 0.4988(2) 0.48491(17)
H1 H 0.8227 0.5855 0.5452
C4 C 0.6937(2) 0.4702(2) 0.35132(18)
H2 H 0.7501 0.5383 0.3210
C5 C 0.5661(2) 0.3407(2) 0.26048(17)
H3 H 0.5405 0.3228 0.1700
C6 C 0.4775(2) 0.2390(2) 0.30174(16)
H4 H 0.3919 0.1532 0.2408
C7 C 0.51956(18) 0.26781(18) 0.43784(14)
C8 C 0.44623(17) 0.19310(17) 0.51509(14)
C9 C 0.31358(18) 0.06822(17) 0.47767(15)
H5 H 0.2572 0.0171 0.3871
C10 C 0.25825(18) 0.01336(16) 0.57009(15)
C11 C 0.1242(2) -0.10723(18) 0.55433(19)
H6 H 0.0474 -0.1745 0.4743
C12 C 0.1271(2) -0.10800(19) 0.68019(19)
H7 H 0.0515 -0.1761 0.7002
C13 C 0.26191(19) 0.01004(17) 0.77156(16)
C14 C 0.3156(2) 0.0574(2) 0.91952(18)
H8 H 0.4304 0.0670 0.9365
H9 H 0.2543 -0.0198 0.9423
H10 H 0.2967 0.1556 0.9754
C15 C 0.92087(16) 0.64279(16) 0.99667(15)
C16 C 1.02593(18) 0.66683(18) 0.91235(17)
H11 H 1.1340 0.7294 0.9410
C17 C 0.94209(18) 0.58120(19) 0.77706(17)
H12 H 0.9838 0.5775 0.6994
C18 C 0.78484(16) 0.50185(16) 0.77784(14)
C19 C 0.94856(19) 0.70786(18) 1.14884(16)
H13 H 0.9350 0.8104 1.1894
H14 H 1.0578 0.7131 1.1815
H15 H 0.8708 0.6422 1.1742
F1 F 0.45994(11) 0.35193(10) 0.87467(9)
F2 F 0.62635(10) 0.19585(11) 0.81592(9)
N1 N 0.53686(13) 0.27560(13) 0.65068(11)
N2 N 0.34225(14) 0.08487(13) 0.70451(12)
N3 N 0.77691(13) 0.54189(13) 0.91419(11)
H16 H 0.6924 0.5077 0.9430
loop_
_geom_bond_atom_site_label_1
_geom_bond_atom_site_label_2
_geom_bond_site_symmetry_1
_geom_bond_site_symmetry_2
B1 F1 1_555 1_555
C1 C2 1_555 1_555
C2 C3 1_555 1_555
C3 H1 1_555 1_555
C4 C3 1_555 1_555
H2 C4 1_555 1_555
C5 C4 1_555 1_555
H3 C5 1_555 1_555
C6 C5 1_555 1_555
H4 C6 1_555 1_555
C7 C2 1_555 1_555
C8 C7 1_555 1_555
C9 C8 1_555 1_555
H5 C9 1_555 1_555
C10 C9 1_555 1_555
C11 C10 1_555 1_555
H6 C11 1_555 1_555
C12 C11 1_555 1_555
H7 C12 1_555 1_555
C13 C12 1_555 1_555
C14 C13 1_555 1_555
H8 C14 1_555 1_555
H9 C14 1_555 1_555
H10 C14 1_555 1_555
C15 C16 1_555 1_555
C16 H11 1_555 1_555
C17 C16 1_555 1_555
H12 C17 1_555 1_555
C18 C1 1_555 1_555
C19 C15 1_555 1_555
H13 C19 1_555 1_555
H14 C19 1_555 1_555
H15 C19 1_555 1_555
F2 B1 1_555 1_555
N1 B1 1_555 1_555
N2 B1 1_555 1_555
N3 C15 1_555 1_555
H16 N3 1_555 1_555
C1 N1 1_555 1_555
C6 C7 1_555 1_555
C8 N1 1_555 1_555
C10 N2 1_555 1_555
C13 N2 1_555 1_555
C17 C18 1_555 1_555
C18 N3 1_555 1_555

#END
