
#######################################################################
#
#                 Cambridge Crystallographic Data Centre
#                                CCDC 
#
#######################################################################
#
# If this CIF has been generated from an entry in the Cambridge 
# Structural Database, then it will include bibliographic, chemical, 
# crystal, experimental, refinement or atomic coordinate data resulting 
# from the CCDC's data processing and validation procedures.
#
#######################################################################

data_SUGGAE
_chemical_formula_moiety         'C28 H24 I3 N3'
_chemical_name_systematic        
1,2,3-tris(4-iodophenyl)-5-(3,3-diethyltriaz-1-en-1-yl)benzene
_symmetry_cell_setting           monoclinic
_symmetry_space_group_name_H-M   'C 2/c'
_symmetry_Int_Tables_number      15
_space_group_name_Hall           '-C 2yn'
loop_
_symmetry_equiv_pos_site_id
_symmetry_equiv_pos_as_xyz
1 x,y,z
2 -x,y,1/2-z
3 1/2+x,1/2+y,z
4 1/2-x,1/2+y,1/2-z
5 -x,-y,-z
6 x,-y,1/2+z
7 1/2-x,1/2-y,-z
8 1/2+x,1/2-y,1/2+z
_cell_length_a                   28.5414(12)
_cell_length_b                   6.3924(3)
_cell_length_c                   31.3881(14)
_cell_angle_alpha                90
_cell_angle_beta                 109.225(2)
_cell_angle_gamma                90
_cell_volume                     5407.34
_exptl_crystal_colour            colorless
_cell_formula_units_Z            8
loop_
_atom_site_label
_atom_site_type_symbol
_atom_site_fract_x
_atom_site_fract_y
_atom_site_fract_z
I1 I 0.77786(7) 0.1477(4) 0.71049(7)
I2 I 0.599540(13) 0.91100(6) 0.813875(12)
I3 I 0.630580(13) -0.57576(5) 0.497411(12)
N1 N 0.38538(16) 0.1198(7) 0.57618(14)
N2 N 0.36138(15) 0.2211(7) 0.59684(14)
N3 N 0.31236(14) 0.1975(7) 0.58069(14)
C1 C 0.43752(18) 0.1516(8) 0.59426(16)
C2 C 0.46599(18) 0.0259(8) 0.57617(16)
H1 H 0.4480 -0.0779 0.5495
C3 C 0.51736(17) 0.0329(8) 0.59219(16)
C4 C 0.54195(18) 0.1709(8) 0.62790(15)
C5 C 0.51293(17) 0.2993(7) 0.64561(15)
C6 C 0.46121(18) 0.2923(8) 0.62859(16)
H2 H 0.4399 0.3937 0.6417
C7 C 0.59740(18) 0.1745(8) 0.64709(16)
C8 C 0.62328(19) -0.0071(9) 0.66529(17)
H3 H 0.6037 -0.1476 0.6658
C9 C 0.67507(19) -0.0033(11) 0.68293(18)
H4 H 0.6949 -0.1400 0.6975
C10 C 0.6999(2) 0.1764(12) 0.6813(2)
C11 C 0.6753(2) 0.3592(10) 0.6631(2)
H5 H 0.6953 0.4974 0.6619
C12 C 0.6236(2) 0.3574(9) 0.64640(19)
H6 H 0.6041 0.4965 0.6330
C13 C 0.53566(17) 0.4452(8) 0.68434(16)
C14 C 0.57063(19) 0.3734(8) 0.72435(17)
H7 H 0.5830 0.2162 0.7266
C15 C 0.58938(19) 0.5063(9) 0.76127(17)
H8 H 0.6159 0.4511 0.7915
C16 C 0.57282(17) 0.7123(8) 0.75801(16)
C17 C 0.53824(17) 0.7877(8) 0.71849(16)
H9 H 0.5263 0.9455 0.7162
C18 C 0.51961(17) 0.6523(8) 0.68196(16)
H10 H 0.4928 0.7077 0.6519
C19 C 0.54451(18) -0.1074(8) 0.57033(16)
C20 C 0.52957(18) -0.3158(8) 0.56131(16)
H11 H 0.4996 -0.3730 0.5708
C21 C 0.55359(19) -0.4500(8) 0.54002(17)
H12 H 0.5420 -0.6076 0.5334
C22 C 0.59271(19) -0.3744(8) 0.52773(17)
C23 C 0.60784(19) -0.1669(9) 0.53548(17)
H13 H 0.6371 -0.1095 0.5250
C24 C 0.58405(19) -0.0360(8) 0.55719(17)
H14 H 0.5961 0.1211 0.5639
C25 C 0.28927(19) 0.0437(9) 0.54522(17)
H15 H 0.3079 0.0473 0.5204
H16 H 0.2510 0.0862 0.5286
C26 C 0.2916(2) -0.1749(10) 0.5637(2)
H17 H 0.2717 -0.2803 0.5370
H18 H 0.2749 -0.1773 0.5900
H19 H 0.3298 -0.2240 0.5775
C27 C 0.2885(3) 0.2624(16) 0.6136(3)
H20 H 0.3079 0.3965 0.6321
H21 H 0.2916 0.1371 0.6375
C28 C 0.2338(4) 0.3179(17) 0.5915(3)
H22 H 0.2303 0.4411 0.5671
H23 H 0.2187 0.3702 0.6170
H24 H 0.2137 0.1815 0.5747
I4? I 0.77767(10) 0.2160(5) 0.70010(10)
C29? C 0.2804(5) 0.325(2) 0.5972(5)
H25? H 0.2555 0.4114 0.5694
H26? H 0.3028 0.4368 0.6211
C30? C 0.2507(5) 0.201(2) 0.6194(5)
H27? H 0.2252 0.1009 0.5948
H28? H 0.2300 0.3062 0.6335
H29? H 0.2752 0.1066 0.6460
loop_
_geom_bond_atom_site_label_1
_geom_bond_atom_site_label_2
_geom_bond_site_symmetry_1
_geom_bond_site_symmetry_2
I1 C10 1_555 1_555
I2 C16 1_555 1_555
I3 C22 1_555 1_555
N1 N2 1_555 1_555
N2 N3 1_555 1_555
N3 C25 1_555 1_555
C1 N1 1_555 1_555
C2 C1 1_555 1_555
H1 C2 1_555 1_555
C3 C2 1_555 1_555
C4 C3 1_555 1_555
C5 C4 1_555 1_555
C6 C1 1_555 1_555
H2 C6 1_555 1_555
C7 C4 1_555 1_555
C8 C7 1_555 1_555
H3 C8 1_555 1_555
C9 C8 1_555 1_555
H4 C9 1_555 1_555
C10 C9 1_555 1_555
C11 C10 1_555 1_555
H5 C11 1_555 1_555
C12 C7 1_555 1_555
H6 C12 1_555 1_555
C13 C5 1_555 1_555
C14 C13 1_555 1_555
H7 C14 1_555 1_555
C15 C14 1_555 1_555
H8 C15 1_555 1_555
C16 C15 1_555 1_555
C17 C16 1_555 1_555
H9 C17 1_555 1_555
C18 C13 1_555 1_555
H10 C18 1_555 1_555
C19 C3 1_555 1_555
C20 C19 1_555 1_555
H11 C20 1_555 1_555
C21 C20 1_555 1_555
H12 C21 1_555 1_555
C22 C21 1_555 1_555
C23 C22 1_555 1_555
H13 C23 1_555 1_555
C24 C19 1_555 1_555
H14 C24 1_555 1_555
C25 H15 1_555 1_555
H16 C25 1_555 1_555
C26 C25 1_555 1_555
H17 C26 1_555 1_555
H18 C26 1_555 1_555
H19 C26 1_555 1_555
C27 N3 1_555 1_555
H20 C27 1_555 1_555
H21 C27 1_555 1_555
C28 C27 1_555 1_555
H22 C28 1_555 1_555
H23 C28 1_555 1_555
H24 C28 1_555 1_555
C5 C6 1_555 1_555
C11 C12 1_555 1_555
C17 C18 1_555 1_555
C23 C24 1_555 1_555

#END
