
#######################################################################
#
#                 Cambridge Crystallographic Data Centre
#                                CCDC 
#
#######################################################################
#
# If this CIF has been generated from an entry in the Cambridge 
# Structural Database, then it will include bibliographic, chemical, 
# crystal, experimental, refinement or atomic coordinate data resulting 
# from the CCDC's data processing and validation procedures.
#
#######################################################################

data_SUGPUH
_chemical_formula_moiety         'C22 H18 F1 N3 O2 S1'
_chemical_name_systematic        
N-(4-Fluorophenyl)-1-((4-methylphenyl)sulfonyl)-3-phenyl-1H-pyrazol-5-amine
_symmetry_cell_setting           monoclinic
_symmetry_space_group_name_H-M   'P 21/c'
_symmetry_Int_Tables_number      14
_space_group_name_Hall           '-P 2ybc'
loop_
_symmetry_equiv_pos_site_id
_symmetry_equiv_pos_as_xyz
1 x,y,z
2 -x,1/2+y,1/2-z
3 -x,-y,-z
4 x,1/2-y,1/2+z
_cell_length_a                   15.7629(8)
_cell_length_b                   11.6907(5)
_cell_length_c                   10.7408(7)
_cell_angle_alpha                90
_cell_angle_beta                 100.958(5)
_cell_angle_gamma                90
_cell_volume                     1943.22
_exptl_crystal_colour            green
_exptl_crystal_description       parallelepiped
_cell_formula_units_Z            4
loop_
_atom_site_label
_atom_site_type_symbol
_atom_site_fract_x
_atom_site_fract_y
_atom_site_fract_z
S1 S 0.16433(3) 0.37329(4) 0.46589(5)
F1 F 0.28520(12) 0.66434(13) -0.20807(15)
O1 O 0.17364(10) 0.31972(12) 0.58660(16)
O2 O 0.12717(10) 0.31254(12) 0.35393(16)
N1 N 0.26491(11) 0.40639(14) 0.44762(18)
N2 N 0.31700(11) 0.45169(15) 0.55802(18)
N3 N 0.24092(13) 0.43173(17) 0.22166(19)
H1 H 0.2176(18) 0.368(2) 0.208(3)
C1 C 0.11396(13) 0.50662(16) 0.4684(2)
C2 C 0.12615(15) 0.56710(19) 0.5805(2)
H2 H 0.1566 0.5352 0.6551
C3 C 0.09207(16) 0.6765(2) 0.5797(3)
H3 H 0.1004 0.7180 0.6549
C4 C 0.04623(15) 0.72517(17) 0.4707(3)
C5 C 0.03312(16) 0.6612(2) 0.3610(3)
H4 H 0.0006 0.6918 0.2872
C6 C 0.06746(15) 0.55241(19) 0.3585(2)
H5 H 0.0592 0.5108 0.2834
C7 C 0.01187(19) 0.84584(19) 0.4706(3)
H6 H 0.0269 0.8774 0.5544
H7 H -0.0498 0.8449 0.4445
H8 H 0.0368 0.8918 0.4128
C8 C 0.36822(13) 0.52457(17) 0.5148(2)
C9 C 0.35022(14) 0.53351(18) 0.3809(2)
H9 H 0.3781 0.5803 0.3313
C10 C 0.28399(14) 0.46002(17) 0.3395(2)
C11 C 0.43584(14) 0.58570(18) 0.6037(2)
C12 C 0.45831(16) 0.5532(2) 0.7293(2)
H10 H 0.4312 0.4907 0.7586
C13 C 0.52089(18) 0.6129(2) 0.8119(3)
H11 H 0.5356 0.5901 0.8962
C14 C 0.56120(17) 0.7050(2) 0.7706(3)
H12 H 0.6025 0.7456 0.8268
C15 C 0.54037(19) 0.7370(2) 0.6462(3)
H13 H 0.5683 0.7991 0.6177
C16 C 0.47815(16) 0.6782(2) 0.5621(3)
H14 H 0.4646 0.7007 0.4776
C17 C 0.25331(14) 0.49162(18) 0.1115(2)
C18 C 0.25883(15) 0.43303(18) 0.0019(2)
H15 H 0.2557 0.3536 0.0015
C19 C 0.26888(17) 0.4896(2) -0.1069(2)
H16 H 0.2717 0.4497 -0.1809
C20 C 0.27465(16) 0.6068(2) -0.1025(2)
C21 C 0.26870(17) 0.66740(19) 0.0042(3)
H17 H 0.2721 0.7468 0.0042
C22 C 0.25767(17) 0.60993(18) 0.1113(2)
H18 H 0.2531 0.6506 0.1842
loop_
_geom_bond_atom_site_label_1
_geom_bond_atom_site_label_2
_geom_bond_site_symmetry_1
_geom_bond_site_symmetry_2
S1 O1 1_555 1_555
F1 C20 1_555 1_555
O2 S1 1_555 1_555
N1 S1 1_555 1_555
N2 N1 1_555 1_555
N3 H1 1_555 1_555
C1 S1 1_555 1_555
C2 C1 1_555 1_555
H2 C2 1_555 1_555
C3 C2 1_555 1_555
H3 C3 1_555 1_555
C4 C3 1_555 1_555
C5 C4 1_555 1_555
H4 C5 1_555 1_555
C6 C1 1_555 1_555
H5 C6 1_555 1_555
C7 C4 1_555 1_555
H6 C7 1_555 1_555
H7 C7 1_555 1_555
H8 C7 1_555 1_555
C8 N2 1_555 1_555
C9 C8 1_555 1_555
H9 C9 1_555 1_555
C10 N1 1_555 1_555
C11 C8 1_555 1_555
C12 C11 1_555 1_555
H10 C12 1_555 1_555
C13 C12 1_555 1_555
H11 C13 1_555 1_555
C14 C13 1_555 1_555
H12 C14 1_555 1_555
C15 C14 1_555 1_555
H13 C15 1_555 1_555
C16 C11 1_555 1_555
H14 C16 1_555 1_555
C17 N3 1_555 1_555
C18 C17 1_555 1_555
H15 C18 1_555 1_555
C19 C18 1_555 1_555
H16 C19 1_555 1_555
C20 C19 1_555 1_555
C21 C20 1_555 1_555
H17 C21 1_555 1_555
C22 C17 1_555 1_555
H18 C22 1_555 1_555
N3 C10 1_555 1_555
C5 C6 1_555 1_555
C9 C10 1_555 1_555
C15 C16 1_555 1_555
C21 C22 1_555 1_555

#END
