
#######################################################################
#
#                 Cambridge Crystallographic Data Centre
#                                CCDC 
#
#######################################################################
#
# If this CIF has been generated from an entry in the Cambridge 
# Structural Database, then it will include bibliographic, chemical, 
# crystal, experimental, refinement or atomic coordinate data resulting 
# from the CCDC's data processing and validation procedures.
#
#######################################################################

data_SUGXOH
_chemical_compound_source        'Gibberella fujikuroi'
_chemical_formula_moiety         'C19 H22 O6'
_chemical_name_systematic        
'ent-2\a,3\a-Epoxy-1\b,10\b-dihydroxy-20-norgibberell-16-ene-7,19-dioic acid 19,10-lactone unknown solvate'
_symmetry_cell_setting           hexagonal
_symmetry_space_group_name_H-M   'P 65'
_symmetry_Int_Tables_number      170
_space_group_name_Hall           'P 65'
loop_
_symmetry_equiv_pos_site_id
_symmetry_equiv_pos_as_xyz
1 x,y,z
2 -y,x-y,2/3+z
3 -x+y,-x,1/3+z
4 -x,-y,1/2+z
5 y,-x+y,1/6+z
6 x-y,x,5/6+z
_cell_length_a                   15.253(2)
_cell_length_b                   15.253(2)
_cell_length_c                   14.137(3)
_cell_angle_alpha                90
_cell_angle_beta                 90
_cell_angle_gamma                120
_cell_volume                     2848.38
_exptl_crystal_colour            colorless
_chemical_melting_point          159-161deg.C
_cell_formula_units_Z            6
loop_
_atom_site_label
_atom_site_type_symbol
_atom_site_fract_x
_atom_site_fract_y
_atom_site_fract_z
O1 O 0.3808(4) 0.2928(4) 0.0000
O2 O 0.3012(4) 0.2986(5) 0.2459(6)
O3 O 0.5770(4) 0.5782(4) 0.3558(6)
O4 O 0.7368(4) 0.6179(4) 0.3536(6)
O5 O 0.5369(5) 0.2013(4) 0.2364(6)
O6 O 0.5326(4) 0.3040(4) 0.1287(5)
C1 C 0.3926(6) 0.3347(6) 0.0926(7)
C2 C 0.3246(6) 0.2582(7) 0.1614(7)
C3 C 0.3578(7) 0.2485(7) 0.2559(7)
C4 C 0.4706(6) 0.3119(5) 0.2782(7)
C5 C 0.5111(6) 0.4154(6) 0.2309(7)
C6 C 0.6261(6) 0.4940(6) 0.2430(6)
C7 C 0.6517(6) 0.5671(6) 0.3240(7)
C8 C 0.6627(6) 0.5494(6) 0.1467(6)
C9 C 0.5852(6) 0.4770(6) 0.0715(7)
C10 C 0.5024(6) 0.3831(5) 0.1267(6)
C11 C 0.6377(7) 0.4533(6) -0.0106(7)
C12 C 0.7196(6) 0.5502(6) -0.0534(7)
C13 C 0.7798(6) 0.6309(6) 0.0241(7)
C14 C 0.7696(6) 0.5767(6) 0.1185(6)
C15 C 0.6672(6) 0.6521(6) 0.1372(7)
C16 C 0.7304(6) 0.6950(6) 0.0462(7)
C17 C 0.7416(7) 0.7730(7) -0.0038(7)
C18 C 0.4945(7) 0.3115(7) 0.3842(6)
C19 C 0.5184(7) 0.2646(6) 0.2168(7)
H1 H 0.3750 0.3869 0.0896
H2 H 0.2688 0.1989 0.1341
H3 H 0.3238 0.1830 0.2854
H4 H 0.4702 0.4454 0.2446
H5 H 0.6602 0.4564 0.2538
H6 H 0.5524 0.5114 0.0454
H7 H 0.6648 0.4126 0.0128
H8 H 0.5887 0.4155 -0.0586
H9 H 0.6910 0.5776 -0.0966
H10 H 0.7643 0.5351 -0.0886
H11 H 0.8494 0.6733 0.0063
H12 H 0.7757 0.5175 0.1100
H13 H 0.8182 0.6204 0.1644
H14 H 0.7001 0.6949 0.1907
H15 H 0.6009 0.6438 0.1300
H16 H 0.7856 0.7955 -0.0579
H17 H 0.7064 0.8079 0.0143
H18 H 0.4641 0.3428 0.4202
H19 H 0.4677 0.2428 0.4048
H20 H 0.5665 0.3482 0.3936
H21 H 0.3903 0.2455 -0.0003
H22 H 0.6004 0.6393 0.3991
C20? C -0.0057(70) 0.8751(63) 0.1684(84)
C21? C 0.0531(45) 0.9961(60) 0.1975(50)
C22? C -0.0501(57) 0.8805(44) 0.2527(69)
loop_
_geom_bond_atom_site_label_1
_geom_bond_atom_site_label_2
_geom_bond_site_symmetry_1
_geom_bond_site_symmetry_2
O1 C1 1_555 1_555
O2 C2 1_555 1_555
O3 C7 1_555 1_555
O4 C7 1_555 1_555
O5 C19 1_555 1_555
O6 C10 1_555 1_555
C1 C2 1_555 1_555
C2 C3 1_555 1_555
C3 O2 1_555 1_555
C4 C3 1_555 1_555
C5 C4 1_555 1_555
C6 C5 1_555 1_555
C7 C6 1_555 1_555
C8 C6 1_555 1_555
C9 C8 1_555 1_555
C10 C1 1_555 1_555
C11 C9 1_555 1_555
C12 C11 1_555 1_555
C13 C12 1_555 1_555
C14 C8 1_555 1_555
C15 C8 1_555 1_555
C16 C13 1_555 1_555
C17 C16 1_555 1_555
C18 C4 1_555 1_555
C19 O6 1_555 1_555
H1 C1 1_555 1_555
H2 C2 1_555 1_555
H3 C3 1_555 1_555
H4 C5 1_555 1_555
H5 C6 1_555 1_555
H6 C9 1_555 1_555
H7 C11 1_555 1_555
H8 C11 1_555 1_555
H9 C12 1_555 1_555
H10 C12 1_555 1_555
H11 C13 1_555 1_555
H12 C14 1_555 1_555
H13 C14 1_555 1_555
H14 C15 1_555 1_555
H15 C15 1_555 1_555
H16 C17 1_555 1_555
H17 C17 1_555 1_555
H18 C18 1_555 1_555
H19 C18 1_555 1_555
H20 C18 1_555 1_555
H21 O1 1_555 1_555
H22 O3 1_555 1_555
C4 C19 1_555 1_555
C5 C10 1_555 1_555
C9 C10 1_555 1_555
C13 C14 1_555 1_555
C15 C16 1_555 1_555

#END
