
#######################################################################
#
#                 Cambridge Crystallographic Data Centre
#                                CCDC 
#
#######################################################################
#
# If this CIF has been generated from an entry in the Cambridge 
# Structural Database, then it will include bibliographic, chemical, 
# crystal, experimental, refinement or atomic coordinate data resulting 
# from the CCDC's data processing and validation procedures.
#
#######################################################################

data_SUHQOD
_chemical_formula_moiety         'C21 H31 N1 O6 S1'
_chemical_name_systematic        
'Dimethyl (1R,2R)-(2-((E)-(((R)-t-butylsulfinyl)imino)-(methoxy)methyl)-1-phenylbutyl)malonate'
_symmetry_cell_setting           orthorhombic
_symmetry_space_group_name_H-M   'P 21 21 21'
_symmetry_Int_Tables_number      19
_space_group_name_Hall           'P 2ac 2ab'
loop_
_symmetry_equiv_pos_site_id
_symmetry_equiv_pos_as_xyz
1 x,y,z
2 1/2-x,-y,1/2+z
3 1/2+x,1/2-y,-z
4 -x,1/2+y,1/2-z
_cell_length_a                   8.7841(5)
_cell_length_b                   9.9078(5)
_cell_length_c                   27.3053(14)
_cell_angle_alpha                90
_cell_angle_beta                 90
_cell_angle_gamma                90
_cell_volume                     2376.41
_cell_formula_units_Z            4
loop_
_atom_site_label
_atom_site_type_symbol
_atom_site_fract_x
_atom_site_fract_y
_atom_site_fract_z
C1 C -0.6970(6) -0.5710(5) -0.08491(15)
C2 C -0.7228(7) -0.7075(5) -0.08032(18)
H1 H -0.6587 -0.7671 -0.0967
C3 C -0.8386(8) -0.7589(7) -0.0527(2)
H2 H -0.8506 -0.8518 -0.0497
C4 C -0.9377(8) -0.6721(9) -0.0293(2)
H3 H -1.0190 -0.7064 -0.0114
C5 C -0.9168(7) -0.5376(8) -0.0325(2)
H4 H -0.9827 -0.4795 -0.0162
C6 C -0.7948(6) -0.4838(6) -0.06060(17)
H5 H -0.7807 -0.3910 -0.0627
C7 C -0.5622(5) -0.5246(4) -0.11525(15)
H6 H -0.4946 -0.6030 -0.1177
C8 C -0.4664(5) -0.4121(4) -0.09013(15)
H7 H -0.5290 -0.3307 -0.0868
C9 C -0.6041(5) -0.4870(4) -0.16882(15)
H8 H -0.5082 -0.4764 -0.1868
C10 C -0.6898(6) -0.6041(5) -0.19258(15)
C11 C -0.6636(7) -0.8291(5) -0.2203(2)
H9 H -0.6969 -0.8089 -0.2530
H10 H -0.7489 -0.8580 -0.2011
H11 H -0.5887 -0.8996 -0.2213
C12 C -0.4142(6) -0.4581(5) -0.03921(16)
H12 H -0.5029 -0.4838 -0.0202
H13 H -0.3505 -0.5375 -0.0428
C13 C -0.3262(7) -0.3509(6) -0.01128(19)
H14 H -0.2354 -0.3282 -0.0290
H15 H -0.2992 -0.3850 0.0205
H16 H -0.3883 -0.2719 -0.0076
C14 C -0.6951(6) -0.3592(5) -0.17679(19)
C15 C -0.7698(8) -0.2035(6) -0.2376(2)
H17 H -0.7376 -0.1749 -0.2696
H18 H -0.7482 -0.1336 -0.2143
H19 H -0.8773 -0.2211 -0.2380
C16 C -0.3292(5) -0.3801(5) -0.12132(15)
C17 C -0.1061(6) -0.4804(6) -0.15621(19)
H20 H -0.1254 -0.4488 -0.1889
H21 H -0.0576 -0.5672 -0.1576
H22 H -0.0408 -0.4177 -0.1396
C18 C -0.2223(6) -0.0120(5) -0.12674(18)
C19 C -0.1243(9) -0.0528(7) -0.0839(2)
H23 H -0.1881 -0.0774 -0.0568
H24 H -0.0604 0.0215 -0.0746
H25 H -0.0621 -0.1284 -0.0930
C20 C -0.1361(8) -0.0143(6) -0.1741(2)
H26 H -0.0839 -0.0989 -0.1774
H27 H -0.0634 0.0580 -0.1745
H28 H -0.2058 -0.0034 -0.2009
C21 C -0.2946(9) 0.1264(6) -0.1185(3)
H29 H -0.3600 0.1478 -0.1456
H30 H -0.2161 0.1934 -0.1159
H31 H -0.3531 0.1249 -0.0888
N1 N -0.2811(5) -0.2690(4) -0.13920(14)
O1 O -0.4646(5) -0.0984(4) -0.17620(18)
O2 O -0.2491(4) -0.4919(3) -0.12984(12)
O3 O -0.6889(4) -0.3254(3) -0.22405(12)
O4 O -0.7620(4) -0.2965(4) -0.14613(13)
O5 O -0.8219(4) -0.6024(4) -0.20334(12)
O6 O -0.5971(4) -0.7088(3) -0.19847(11)
S1 S -0.38483(17) -0.12674(14) -0.12933(6)
loop_
_geom_bond_atom_site_label_1
_geom_bond_atom_site_label_2
_geom_bond_site_symmetry_1
_geom_bond_site_symmetry_2
C1 C2 1_555 1_555
C2 H1 1_555 1_555
C3 C2 1_555 1_555
H2 C3 1_555 1_555
C4 C3 1_555 1_555
H3 C4 1_555 1_555
C5 C4 1_555 1_555
H4 C5 1_555 1_555
C6 C1 1_555 1_555
H5 C6 1_555 1_555
C7 C1 1_555 1_555
H6 C7 1_555 1_555
C8 C7 1_555 1_555
H7 C8 1_555 1_555
C9 C7 1_555 1_555
H8 C9 1_555 1_555
C10 C9 1_555 1_555
C11 H9 1_555 1_555
H10 C11 1_555 1_555
H11 C11 1_555 1_555
C12 C8 1_555 1_555
H12 C12 1_555 1_555
H13 C12 1_555 1_555
C13 C12 1_555 1_555
H14 C13 1_555 1_555
H15 C13 1_555 1_555
H16 C13 1_555 1_555
C14 C9 1_555 1_555
C15 H17 1_555 1_555
H18 C15 1_555 1_555
H19 C15 1_555 1_555
C16 C8 1_555 1_555
C17 H20 1_555 1_555
H21 C17 1_555 1_555
H22 C17 1_555 1_555
C18 C19 1_555 1_555
C19 H23 1_555 1_555
H24 C19 1_555 1_555
H25 C19 1_555 1_555
C20 C18 1_555 1_555
H26 C20 1_555 1_555
H27 C20 1_555 1_555
H28 C20 1_555 1_555
C21 C18 1_555 1_555
H29 C21 1_555 1_555
H30 C21 1_555 1_555
H31 C21 1_555 1_555
N1 C16 1_555 1_555
O1 S1 1_555 1_555
O2 C16 1_555 1_555
O3 C14 1_555 1_555
O4 C14 1_555 1_555
O5 C10 1_555 1_555
O6 C10 1_555 1_555
S1 C18 1_555 1_555
C5 C6 1_555 1_555
C11 O6 1_555 1_555
C15 O3 1_555 1_555
C17 O2 1_555 1_555
N1 S1 1_555 1_555

#END
