
#######################################################################
#
#                 Cambridge Crystallographic Data Centre
#                                CCDC 
#
#######################################################################
#
# If this CIF has been generated from an entry in the Cambridge 
# Structural Database, then it will include bibliographic, chemical, 
# crystal, experimental, refinement or atomic coordinate data resulting 
# from the CCDC's data processing and validation procedures.
#
#######################################################################

data_SUHRAQ
_chemical_formula_moiety         'C19 H16 O2'
_chemical_name_systematic        
6-Methyl-3-(2-(3-methylphenyl)vinyl)-2H-chromen-2-one
_symmetry_cell_setting           monoclinic
_symmetry_space_group_name_H-M   'P 21/c'
_symmetry_Int_Tables_number      14
_space_group_name_Hall           '-P 2ybc'
loop_
_symmetry_equiv_pos_site_id
_symmetry_equiv_pos_as_xyz
1 x,y,z
2 -x,1/2+y,1/2-z
3 -x,-y,-z
4 x,1/2-y,1/2+z
_cell_length_a                   14.518(10)
_cell_length_b                   6.084(4)
_cell_length_c                   20.729(10)
_cell_angle_alpha                90
_cell_angle_beta                 128.85(3)
_cell_angle_gamma                90
_cell_volume                     1425.92
_exptl_crystal_colour            colorless
_exptl_crystal_description       block
_cell_formula_units_Z            4
loop_
_atom_site_label
_atom_site_type_symbol
_atom_site_fract_x
_atom_site_fract_y
_atom_site_fract_z
O1 O 0.15745(12) 0.8261(2) 0.07745(8)
O2 O 0.28084(17) 0.9436(3) 0.20535(10)
C1 C 0.27395(15) 0.4285(3) 0.11973(10)
H1 H 0.31245(15) 0.2939(3) 0.13328(10)
C2 C 0.13270(16) 0.3233(3) -0.03046(11)
H2 H 0.17034(16) 0.1886(3) -0.01919(11)
C3 C 0.17534(15) 0.4723(3) 0.03495(11)
C4 C 0.58209(16) 0.7138(3) 0.48491(11)
H3 H 0.54687(16) 0.8517(3) 0.47153(11)
C5 C 0.11778(16) 0.6727(3) 0.01642(11)
C6 C 0.31317(16) 0.5770(3) 0.18107(11)
C7 C 0.41072(16) 0.5219(3) 0.26712(11)
H4 H 0.44519(16) 0.3849(3) 0.27580(11)
C8 C 0.45701(16) 0.6423(3) 0.33507(11)
H5 H 0.42763(16) 0.7841(3) 0.32724(11)
C9 C 0.54980(16) 0.5724(3) 0.42091(11)
C10 C 0.60590(17) 0.3671(3) 0.44242(12)
H6 H 0.58713(17) 0.2696(3) 0.40116(12)
C11 C 0.01915(18) 0.7256(3) -0.06325(12)
H7 H -0.01979(18) 0.8587(3) -0.07430(12)
C12 C 0.25389(18) 0.7924(3) 0.15917(12)
C13 C 0.66518(16) 0.6568(3) 0.56832(11)
C14 C 0.03606(17) 0.3737(3) -0.11095(11)
C15 C 0.71730(17) 0.4502(3) 0.58689(12)
H8 H 0.77192(17) 0.4068(3) 0.64192(12)
C16 C 0.68906(18) 0.3091(3) 0.52485(13)
H9 H 0.72638(18) 0.1732(3) 0.53855(13)
C17 C -0.01998(18) 0.5776(4) -0.12560(12)
H10 H -0.08572(18) 0.6132(4) -0.17934(12)
C18 C 0.6975(2) 0.8136(4) 0.63580(13)
H11 H 0.6530(2) 0.9470(4) 0.61148(13)
H12 H 0.6796(2) 0.7478(4) 0.66888(13)
H13 H 0.7805(2) 0.8461(4) 0.67008(13)
C19 C -0.0094(2) 0.2162(4) -0.18103(13)
H14 H -0.0766(2) 0.2796(4) -0.23192(13)
H15 H 0.0517(2) 0.1873(4) -0.18521(13)
H16 H -0.0324(2) 0.0812(4) -0.17071(13)
loop_
_geom_bond_atom_site_label_1
_geom_bond_atom_site_label_2
_geom_bond_site_symmetry_1
_geom_bond_site_symmetry_2
O1 C5 1_555 1_555
O2 C12 1_555 1_555
C1 H1 1_555 1_555
C2 H2 1_555 1_555
C3 C1 1_555 1_555
C4 H3 1_555 1_555
C5 C3 1_555 1_555
C6 C1 1_555 1_555
C7 C6 1_555 1_555
H4 C7 1_555 1_555
C8 C7 1_555 1_555
H5 C8 1_555 1_555
C9 C4 1_555 1_555
C10 C9 1_555 1_555
H6 C10 1_555 1_555
C11 C5 1_555 1_555
H7 C11 1_555 1_555
C12 O1 1_555 1_555
C13 C4 1_555 1_555
C14 C2 1_555 1_555
C15 C13 1_555 1_555
H8 C15 1_555 1_555
C16 C10 1_555 1_555
H9 C16 1_555 1_555
C17 C11 1_555 1_555
H10 C17 1_555 1_555
C18 C13 1_555 1_555
H11 C18 1_555 1_555
H12 C18 1_555 1_555
H13 C18 1_555 1_555
C19 C14 1_555 1_555
H14 C19 1_555 1_555
H15 C19 1_555 1_555
H16 C19 1_555 1_555
C2 C3 1_555 1_555
C6 C12 1_555 1_555
C8 C9 1_555 1_555
C14 C17 1_555 1_555
C15 C16 1_555 1_555

#END
