
#######################################################################
#
#                 Cambridge Crystallographic Data Centre
#                                CCDC 
#
#######################################################################
#
# If this CIF has been generated from an entry in the Cambridge 
# Structural Database, then it will include bibliographic, chemical, 
# crystal, experimental, refinement or atomic coordinate data resulting 
# from the CCDC's data processing and validation procedures.
#
#######################################################################

data_SUHTIA
_chemical_formula_moiety         'C32 H27 Cl1 N4'
_chemical_name_systematic        
1-(4-Chlorophenyl)-4,4,9-trimethyl-2,7-diphenyl-3,4,5,7-tetrahydro-2H-pyrazolo[3,4-b]pyrrolo[4,3,2-de]quinoline
_symmetry_cell_setting           triclinic
_symmetry_space_group_name_H-M   'P -1'
_symmetry_Int_Tables_number      2
_space_group_name_Hall           '-P 1'
loop_
_symmetry_equiv_pos_site_id
_symmetry_equiv_pos_as_xyz
1 x,y,z
2 -x,-y,-z
_cell_length_a                   10.2520(8)
_cell_length_b                   10.6251(9)
_cell_length_c                   13.0929(11)
_cell_angle_alpha                90.3130(10)
_cell_angle_beta                 111.307(2)
_cell_angle_gamma                107.904(2)
_cell_volume                     1253.27
_cell_formula_units_Z            2
loop_
_atom_site_label
_atom_site_type_symbol
_atom_site_fract_x
_atom_site_fract_y
_atom_site_fract_z
Cl1 Cl 0.05083(16) -0.11788(13) 0.87093(12)
N1 N 0.1507(4) 0.7507(3) 0.6332(3)
N2 N -0.1039(4) 0.6037(3) 0.5808(3)
N3 N -0.1800(4) 0.4714(3) 0.5819(3)
N4 N 0.4516(4) 0.5080(3) 0.7998(3)
C1 C 0.0470(5) 0.6294(4) 0.6293(3)
C2 C 0.0667(4) 0.5098(4) 0.6623(3)
C3 C 0.2192(5) 0.5130(4) 0.7155(3)
C4 C 0.3221(5) 0.6359(4) 0.7160(4)
C5 C 0.2866(5) 0.7492(4) 0.6750(3)
C6 C 0.4187(4) 0.8692(4) 0.6827(4)
H1 H 0.3932 0.9495 0.6850
H2 H 0.4394 0.8623 0.6166
C7 C 0.5604(5) 0.8821(4) 0.7854(4)
C8 C 0.6002(5) 0.7513(4) 0.7875(4)
H3 H 0.6396 0.7454 0.7313
H4 H 0.6758 0.7527 0.8589
C9 C 0.4651(5) 0.6333(4) 0.7667(4)
C10 C -0.0760(4) 0.4155(4) 0.6297(3)
C11 C -0.1245(5) 0.2707(4) 0.6381(4)
H5 H -0.2285 0.2313 0.5937
H6 H -0.1071 0.2578 0.7138
H7 H -0.0694 0.2291 0.6121
C12 C -0.1909(5) 0.6898(4) 0.5436(4)
C13 C -0.1243(5) 0.8268(5) 0.5549(4)
H8 H -0.0215 0.8655 0.5828
C14 C -0.2152(6) 0.9043(5) 0.5235(4)
H9 H -0.1718 0.9963 0.5306
C15 C -0.3673(6) 0.8501(5) 0.4820(4)
H10 H -0.4258 0.9048 0.4643
C16 C -0.4312(5) 0.7145(5) 0.4674(4)
H11 H -0.5340 0.6759 0.4381
C17 C -0.3416(5) 0.6337(5) 0.4966(4)
H12 H -0.3850 0.5413 0.4838
C18 C 0.2993(5) 0.4330(4) 0.7702(3)
C19 C 0.2460(5) 0.2985(4) 0.7994(4)
C20 C 0.1698(5) 0.2755(4) 0.8703(4)
H13 H 0.1585 0.3471 0.9033
C21 C 0.1113(5) 0.1492(5) 0.8922(4)
H14 H 0.0613 0.1358 0.9401
C22 C 0.1261(5) 0.0430(4) 0.8440(4)
C23 C 0.2043(5) 0.0617(4) 0.7763(4)
H15 H 0.2177 -0.0106 0.7463
C24 C 0.2628(5) 0.1883(4) 0.7531(4)
H16 H 0.3140 0.2006 0.7060
C25 C 0.5756(5) 0.4623(4) 0.8519(4)
C26 C 0.6794(5) 0.4801(4) 0.8062(4)
H17 H 0.6666 0.5183 0.7410
C27 C 0.8029(5) 0.4423(5) 0.8552(5)
H18 H 0.8763 0.4599 0.8264
C28 C 0.8157(6) 0.3774(5) 0.9488(5)
H19 H 0.8954 0.3468 0.9805
C29 C 0.7116(5) 0.3588(5) 0.9938(4)
H20 H 0.7225 0.3183 1.0578
C30 C 0.5895(5) 0.3997(4) 0.9450(4)
H21 H 0.5175 0.3849 0.9751
C31 C 0.6892(5) 0.9978(4) 0.7792(4)
H22 H 0.6685 1.0797 0.7819
H23 H 0.7010 0.9825 0.7112
H24 H 0.7789 1.0037 0.8405
C32 C 0.5363(5) 0.9117(5) 0.8896(4)
H25 H 0.5170 0.9947 0.8887
H26 H 0.6235 0.9179 0.9533
H27 H 0.4531 0.8412 0.8925
loop_
_geom_bond_atom_site_label_1
_geom_bond_atom_site_label_2
_geom_bond_site_symmetry_1
_geom_bond_site_symmetry_2
Cl1 C22 1_555 1_555
N1 C1 1_555 1_555
N2 N3 1_555 1_555
N3 C10 1_555 1_555
N4 C9 1_555 1_555
C1 N2 1_555 1_555
C2 C1 1_555 1_555
C3 C2 1_555 1_555
C4 C3 1_555 1_555
C5 N1 1_555 1_555
C6 C5 1_555 1_555
H1 C6 1_555 1_555
H2 C6 1_555 1_555
C7 C6 1_555 1_555
C8 C7 1_555 1_555
H3 C8 1_555 1_555
H4 C8 1_555 1_555
C9 C4 1_555 1_555
C10 C2 1_555 1_555
C11 C10 1_555 1_555
H5 C11 1_555 1_555
H6 C11 1_555 1_555
H7 C11 1_555 1_555
C12 N2 1_555 1_555
C13 C12 1_555 1_555
H8 C13 1_555 1_555
C14 C13 1_555 1_555
H9 C14 1_555 1_555
C15 C14 1_555 1_555
H10 C15 1_555 1_555
C16 C15 1_555 1_555
H11 C16 1_555 1_555
C17 C12 1_555 1_555
H12 C17 1_555 1_555
C18 N4 1_555 1_555
C19 C18 1_555 1_555
C20 C19 1_555 1_555
H13 C20 1_555 1_555
C21 C20 1_555 1_555
H14 C21 1_555 1_555
C22 C21 1_555 1_555
C23 C22 1_555 1_555
H15 C23 1_555 1_555
C24 C19 1_555 1_555
H16 C24 1_555 1_555
C25 N4 1_555 1_555
C26 C25 1_555 1_555
H17 C26 1_555 1_555
C27 C26 1_555 1_555
H18 C27 1_555 1_555
C28 C27 1_555 1_555
H19 C28 1_555 1_555
C29 C28 1_555 1_555
H20 C29 1_555 1_555
C30 C25 1_555 1_555
H21 C30 1_555 1_555
C31 C7 1_555 1_555
H22 C31 1_555 1_555
H23 C31 1_555 1_555
H24 C31 1_555 1_555
C32 C7 1_555 1_555
H25 C32 1_555 1_555
H26 C32 1_555 1_555
H27 C32 1_555 1_555
C3 C18 1_555 1_555
C4 C5 1_555 1_555
C8 C9 1_555 1_555
C16 C17 1_555 1_555
C23 C24 1_555 1_555
C29 C30 1_555 1_555

#END
