
#######################################################################
#
#                 Cambridge Crystallographic Data Centre
#                                CCDC 
#
#######################################################################
#
# If this CIF has been generated from an entry in the Cambridge 
# Structural Database, then it will include bibliographic, chemical, 
# crystal, experimental, refinement or atomic coordinate data resulting 
# from the CCDC's data processing and validation procedures.
#
#######################################################################

data_SUHWIC
_chemical_name_common            
3,5-Dinitrobenzyloxo(5,10,15-tripentylsubporphyrinate)boron(iii)
_chemical_formula_moiety         'C37 H44 B1 N5 O5'
_chemical_name_systematic        
9c-((3,5-Dinitrobenzyl)oxy)-3,6,9-tripentyl-9cH-8b\l^5^,9b,9d-triaza-9\L^5^-boratricyclopenta[cd,gh,kl]phenalene
_symmetry_cell_setting           orthorhombic
_symmetry_space_group_name_H-M   'P c c n'
_symmetry_Int_Tables_number      56
_space_group_name_Hall           '-P 2ab 2ac'
loop_
_symmetry_equiv_pos_site_id
_symmetry_equiv_pos_as_xyz
1 x,y,z
2 1/2-x,1/2-y,z
3 1/2+x,-y,1/2-z
4 -x,1/2+y,1/2-z
5 -x,-y,-z
6 1/2+x,1/2+y,-z
7 1/2-x,y,1/2+z
8 x,1/2-y,1/2+z
_cell_length_a                   17.802
_cell_length_b                   43.970
_cell_length_c                   8.703
_cell_angle_alpha                90
_cell_angle_beta                 90
_cell_angle_gamma                90
_cell_volume                     6812.31
_exptl_crystal_colour            orange
_exptl_crystal_description       prism
_cell_formula_units_Z            8
loop_
_atom_site_label
_atom_site_type_symbol
_atom_site_fract_x
_atom_site_fract_y
_atom_site_fract_z
O1 O 0.62117(13) 0.12980(5) 0.7713(3)
N1 N 0.62787(15) 0.10477(6) 0.5280(4)
O2 O 0.36852(16) 0.09616(7) 1.3782(4)
O3 O 0.64978(17) 0.03776(6) 1.0925(3)
O4 O 0.55822(17) 0.02413(6) 1.2395(4)
N2 N 0.51421(16) 0.09985(6) 0.6668(4)
N3 N 0.54395(16) 0.14649(6) 0.5474(3)
C1 C 0.7442(2) 0.18906(8) 0.3429(4)
H1 H 0.7119 0.2048 0.3903
H2 H 0.7706 0.1783 0.4269
C2 C 0.54950(19) 0.11998(8) 1.0056(4)
N4 N 0.5902(2) 0.04272(7) 1.1570(4)
C3 C 0.5871(2) 0.05550(8) 0.6097(4)
C4 C 0.5812(2) 0.14284(8) 0.8943(4)
H3 H 0.5394 0.1552 0.8522
H4 H 0.6151 0.1568 0.9508
C5 C 0.4865(2) 0.12709(8) 1.0897(4)
H5 H 0.4618 0.1460 1.0743
N5 N 0.39026(19) 0.11398(9) 1.2788(4)
C6 C 0.6675(2) 0.11899(8) 0.4155(4)
C7 C 0.5549(2) 0.07242(8) 1.1362(4)
O5 O 0.35608(16) 0.13702(8) 1.2428(4)
C8 C 0.8023(2) 0.20467(8) 0.2418(4)
H6 H 0.8310 0.1890 0.1848
H7 H 0.7762 0.2176 0.1656
C9 C 0.5804(2) 0.16094(8) 0.4309(4)
C10 C 0.7137(2) 0.09559(8) 0.3486(5)
H8 H 0.7502 0.0983 0.2702
C11 C 0.4705(2) 0.15595(8) 0.5606(4)
C12 C 0.6939(2) 0.16618(8) 0.2577(4)
H9 H 0.6604 0.1772 0.1858
H10 H 0.7254 0.1521 0.1972
C13 C 0.5222(2) 0.06901(8) 0.6699(4)
C14 C 0.4412(2) 0.10870(9) 0.6889(4)
C15 C 0.6382(2) 0.07423(8) 0.5281(4)
C16 C 0.5985(2) 0.02170(8) 0.6163(5)
H11 H 0.6109 0.0141 0.5123
H12 H 0.5512 0.0118 0.6496
C17 C 0.4927(2) 0.07913(9) 1.2239(4)
H13 H 0.4739 0.0654 1.2992
C18 C 0.5840(2) 0.09224(8) 1.0292(4)
H14 H 0.6275 0.0869 0.9721
C19 C 0.5293(2) 0.18334(8) 0.3761(5)
H15 H 0.5393 0.1979 0.2983
C20 C 0.6476(2) 0.14853(8) 0.3706(4)
C21 C 0.6955(2) 0.06874(9) 0.4183(5)
H16 H 0.7177 0.0495 0.3967
C22 C 0.8564(2) 0.22413(9) 0.3338(5)
H17 H 0.8285 0.2413 0.3802
H18 H 0.8776 0.2118 0.4186
C23 C 0.4593(2) 0.10670(9) 1.1966(5)
C24 C 0.4185(2) 0.13807(9) 0.6430(5)
C25 C 0.6614(2) -0.02009(8) 0.7700(5)
H19 H 0.6658 -0.0323 0.6748
H20 H 0.6126 -0.0251 0.8181
C26 C 0.4017(2) 0.08135(9) 0.7265(5)
H21 H 0.3502 0.0801 0.7544
C27 C 0.4496(2) 0.05743(9) 0.7157(5)
H22 H 0.4376 0.0367 0.7349
C28 C 0.3226(2) 0.16157(10) 0.8235(5)
H23 H 0.2679 0.1653 0.8329
H24 H 0.3367 0.1464 0.9026
C29 C 0.6615(2) 0.01314(8) 0.7275(5)
H25 H 0.7104 0.0183 0.6799
H26 H 0.6564 0.0254 0.8222
C30 C 0.4628(2) 0.18025(8) 0.4550(5)
H27 H 0.4191 0.1924 0.4410
B1 B 0.5777(2) 0.12097(9) 0.6365(5)
C31 C 0.3384(2) 0.14806(10) 0.6650(5)
H28 H 0.3050 0.1304 0.6489
H29 H 0.3260 0.1634 0.5858
C32 C 0.9200(3) 0.23659(10) 0.2378(6)
H30 H 0.9455 0.2198 0.1851
H31 H 0.9559 0.2472 0.3044
H32 H 0.8999 0.2508 0.1616
C33 C 0.7175(2) -0.06200(9) 0.9291(5)
H33 H 0.6690 -0.0652 0.9798
H34 H 0.7582 -0.0668 1.0011
H35 H 0.7213 -0.0753 0.8391
C34 C 0.7239(2) -0.02922(9) 0.8789(5)
H36 H 0.7730 -0.0261 0.8275
H37 H 0.7225 -0.0159 0.9706
C35 C 0.3632(2) 0.19058(10) 0.8561(5)
H38 H 0.3522 0.2052 0.7726
H39 H 0.4179 0.1865 0.8546
C36 C 0.3431(3) 0.20526(11) 1.0089(7)
H40 H 0.2889 0.2102 1.0085
H41 H 0.3518 0.1903 1.0920
C37 C 0.3858(4) 0.23310(14) 1.0442(8)
H42 H 0.4397 0.2285 1.0440
H43 H 0.3711 0.2407 1.1457
H44 H 0.3751 0.2486 0.9664
loop_
_geom_bond_atom_site_label_1
_geom_bond_atom_site_label_2
_geom_bond_site_symmetry_1
_geom_bond_site_symmetry_2
O1 C4 1_555 1_555
N1 C6 1_555 1_555
O2 N5 1_555 1_555
O3 N4 1_555 1_555
O4 N4 1_555 1_555
N2 C13 1_555 1_555
N3 C9 1_555 1_555
C1 H1 1_555 1_555
H2 C1 1_555 1_555
C2 C4 1_555 1_555
N4 C7 1_555 1_555
C3 C13 1_555 1_555
C4 H3 1_555 1_555
H4 C4 1_555 1_555
C5 C2 1_555 1_555
H5 C5 1_555 1_555
N5 O5 1_555 1_555
C6 C10 1_555 1_555
C7 C17 1_555 1_555
C8 C1 1_555 1_555
H6 C8 1_555 1_555
H7 C8 1_555 1_555
C9 C19 1_555 1_555
C10 H8 1_555 1_555
C11 N3 1_555 1_555
C12 C1 1_555 1_555
H9 C12 1_555 1_555
H10 C12 1_555 1_555
C13 C27 1_555 1_555
C14 N2 1_555 1_555
C15 N1 1_555 1_555
C16 C3 1_555 1_555
H11 C16 1_555 1_555
H12 C16 1_555 1_555
C17 H13 1_555 1_555
C18 C2 1_555 1_555
H14 C18 1_555 1_555
C19 H15 1_555 1_555
C20 C6 1_555 1_555
C21 C10 1_555 1_555
H16 C21 1_555 1_555
C22 C8 1_555 1_555
H17 C22 1_555 1_555
H18 C22 1_555 1_555
C23 C5 1_555 1_555
C24 C11 1_555 1_555
C25 H19 1_555 1_555
H20 C25 1_555 1_555
C26 C14 1_555 1_555
H21 C26 1_555 1_555
C27 C26 1_555 1_555
H22 C27 1_555 1_555
C28 H23 1_555 1_555
H24 C28 1_555 1_555
C29 C16 1_555 1_555
H25 C29 1_555 1_555
H26 C29 1_555 1_555
C30 C11 1_555 1_555
H27 C30 1_555 1_555
B1 O1 1_555 1_555
C31 C24 1_555 1_555
H28 C31 1_555 1_555
H29 C31 1_555 1_555
C32 C22 1_555 1_555
H30 C32 1_555 1_555
H31 C32 1_555 1_555
H32 C32 1_555 1_555
C33 H33 1_555 1_555
H34 C33 1_555 1_555
H35 C33 1_555 1_555
C34 C25 1_555 1_555
H36 C34 1_555 1_555
H37 C34 1_555 1_555
C35 C28 1_555 1_555
H38 C35 1_555 1_555
H39 C35 1_555 1_555
C36 C35 1_555 1_555
H40 C36 1_555 1_555
H41 C36 1_555 1_555
C37 C36 1_555 1_555
H42 C37 1_555 1_555
H43 C37 1_555 1_555
H44 C37 1_555 1_555
N1 B1 1_555 1_555
N2 B1 1_555 1_555
N3 B1 1_555 1_555
C3 C15 1_555 1_555
N5 C23 1_555 1_555
C7 C18 1_555 1_555
C9 C20 1_555 1_555
C12 C20 1_555 1_555
C14 C24 1_555 1_555
C15 C21 1_555 1_555
C17 C23 1_555 1_555
C19 C30 1_555 1_555
C25 C29 1_555 1_555
C28 C31 1_555 1_555
C33 C34 1_555 1_555

#END
