
#######################################################################
#
#                 Cambridge Crystallographic Data Centre
#                                CCDC 
#
#######################################################################
#
# If this CIF has been generated from an entry in the Cambridge 
# Structural Database, then it will include bibliographic, chemical, 
# crystal, experimental, refinement or atomic coordinate data resulting 
# from the CCDC's data processing and validation procedures.
#
#######################################################################

data_SUHWID
_chemical_formula_moiety         'C21 H17 N1 O2 S1'
_chemical_name_systematic        
N-(9H-Fluoren-9-ylidenemethyl)-4-methylbenzenesulfonamide
_symmetry_cell_setting           orthorhombic
_symmetry_space_group_name_H-M   'P 21 21 21'
_symmetry_Int_Tables_number      19
_space_group_name_Hall           'P 2ac 2ab'
loop_
_symmetry_equiv_pos_site_id
_symmetry_equiv_pos_as_xyz
1 x,y,z
2 1/2-x,-y,1/2+z
3 -x,1/2+y,1/2-z
4 1/2+x,1/2-y,-z
_cell_length_a                   8.4181(4)
_cell_length_b                   10.6238(5)
_cell_length_c                   19.2166(9)
_cell_angle_alpha                90
_cell_angle_beta                 90
_cell_angle_gamma                90
_cell_volume                     1718.58
_exptl_crystal_colour            colorless
_exptl_crystal_description       block
_chemical_melting_point          '154-158 deg.C'
_cell_formula_units_Z            4
loop_
_atom_site_label
_atom_site_type_symbol
_atom_site_fract_x
_atom_site_fract_y
_atom_site_fract_z
C1 C 0.3306(4) 0.9680(3) 0.18223(16)
C2 C 0.4577(4) 1.0095(3) 0.14268(18)
H1 H 0.4773 0.9742 0.0992
C3 C 0.5548(5) 1.1029(4) 0.16780(19)
H2 H 0.6403 1.1299 0.141
C4 C 0.5281(4) 1.1584(3) 0.23253(18)
H3 H 0.5949 1.2217 0.2486
C5 C 0.4012(4) 1.1183(3) 0.27279(17)
H4 H 0.3815 1.155 0.3159
C6 C 0.3043(4) 1.0235(3) 0.24818(15)
C7 C 0.1628(4) 0.9656(3) 0.27926(15)
C8 C 0.0862(4) 0.9884(3) 0.34215(16)
H5 H 0.1268 1.0467 0.3736
C9 C -0.0522(4) 0.9224(3) 0.35694(17)
H6 H -0.1045 0.9362 0.3989
C10 C -0.1133(4) 0.8357(3) 0.30972(18)
H7 H -0.2074 0.7937 0.32
C11 C -0.0360(4) 0.8111(3) 0.24750(17)
H8 H -0.0766 0.7522 0.2165
C12 C 0.1028(4) 0.8757(3) 0.23221(15)
C13 C 0.2072(4) 0.8721(3) 0.17037(15)
C14 C 0.1774(4) 0.7950(3) 0.11631(15)
H9 H 0.0928 0.7395 0.1215
C15 C 0.3618(3) 0.5702(3) -0.00148(17)
C16 C 0.4148(4) 0.5153(3) -0.06285(16)
H10 H 0.3737 0.5406 -0.1055
C17 C 0.5295(4) 0.4224(3) -0.05943(18)
H11 H 0.565 0.3849 -0.1003
C18 C 0.5928(4) 0.3842(3) 0.0037(2)
C19 C 0.5349(4) 0.4384(3) 0.06431(19)
H12 H 0.5743 0.4117 0.107
C20 C 0.4197(4) 0.5312(3) 0.06248(17)
H13 H 0.3819 0.5668 0.1035
C21 C 0.7220(5) 0.2862(3) 0.0065(2)
H14 H 0.7857 0.2991 0.0474
H15 H 0.7876 0.293 -0.0341
H16 H 0.675 0.2039 0.0082
N1 N 0.2590(3) 0.7895(2) 0.05386(12)
H17 H 0.3354 0.8418 0.0471
O1 O 0.0647(2) 0.63668(19) 0.00993(11)
O2 O 0.2367(3) 0.75041(19) -0.07304(10)
S1 S 0.21722(9) 0.68866(7) -0.00754(4)
loop_
_geom_bond_atom_site_label_1
_geom_bond_atom_site_label_2
_geom_bond_site_symmetry_1
_geom_bond_site_symmetry_2
C1 C2 1_555 1_555
C2 H1 1_555 1_555
C3 C2 1_555 1_555
H2 C3 1_555 1_555
C4 C3 1_555 1_555
H3 C4 1_555 1_555
C5 C4 1_555 1_555
H4 C5 1_555 1_555
C6 C1 1_555 1_555
C7 C6 1_555 1_555
C8 C7 1_555 1_555
H5 C8 1_555 1_555
C9 C8 1_555 1_555
H6 C9 1_555 1_555
C10 C9 1_555 1_555
H7 C10 1_555 1_555
C11 C10 1_555 1_555
H8 C11 1_555 1_555
C12 C7 1_555 1_555
C13 C1 1_555 1_555
C14 C13 1_555 1_555
H9 C14 1_555 1_555
C15 C16 1_555 1_555
C16 H10 1_555 1_555
C17 C16 1_555 1_555
H11 C17 1_555 1_555
C18 C17 1_555 1_555
C19 C18 1_555 1_555
H12 C19 1_555 1_555
C20 C15 1_555 1_555
H13 C20 1_555 1_555
C21 C18 1_555 1_555
H14 C21 1_555 1_555
H15 C21 1_555 1_555
H16 C21 1_555 1_555
N1 C14 1_555 1_555
H17 N1 1_555 1_555
O1 S1 1_555 1_555
O2 S1 1_555 1_555
S1 C15 1_555 1_555
C5 C6 1_555 1_555
C11 C12 1_555 1_555
C12 C13 1_555 1_555
C19 C20 1_555 1_555
N1 S1 1_555 1_555

#END
