
#######################################################################
#
#                 Cambridge Crystallographic Data Centre
#                                CCDC 
#
#######################################################################
#
# If this CIF has been generated from an entry in the Cambridge 
# Structural Database, then it will include bibliographic, chemical, 
# crystal, experimental, refinement or atomic coordinate data resulting 
# from the CCDC's data processing and validation procedures.
#
#######################################################################

data_SUHXUQ
_chemical_formula_moiety         'C30 H20 O2'
_chemical_name_systematic        
2-(2-Benzoyl-1H-inden-1-ylidene)-1,2-diphenylethanone
_symmetry_cell_setting           monoclinic
_symmetry_space_group_name_H-M   'P 2/c'
_symmetry_Int_Tables_number      13
_space_group_name_Hall           '-P 2yc'
loop_
_symmetry_equiv_pos_site_id
_symmetry_equiv_pos_as_xyz
1 x,y,z
2 -x,y,1/2-z
3 -x,-y,-z
4 x,-y,1/2+z
_cell_length_a                   16.5879(18)
_cell_length_b                   9.0390(10)
_cell_length_c                   16.4332(17)
_cell_angle_alpha                90
_cell_angle_beta                 117.757(5)
_cell_angle_gamma                90
_cell_volume                     2180.44
_exptl_crystal_colour            colorless
_exptl_crystal_description       block
_cell_formula_units_Z            4
loop_
_atom_site_label
_atom_site_type_symbol
_atom_site_fract_x
_atom_site_fract_y
_atom_site_fract_z
C1 C 0.12266(9) 0.54012(16) 0.32770(9)
H1 H 0.0788 0.4730 0.3245
C2 C 0.15894(9) 0.54394(15) 0.26954(9)
C3 C 0.22841(9) 0.66309(14) 0.29874(9)
C4 C 0.27517(11) 0.84801(16) 0.43787(10)
H2 H 0.3179 0.9010 0.4281
C5 C 0.26088(12) 0.87894(17) 0.51309(11)
H3 H 0.2942 0.9541 0.5533
C6 C 0.19858(12) 0.80101(18) 0.52943(11)
H4 H 0.1902 0.8247 0.5800
C7 C 0.14832(11) 0.68774(18) 0.47124(10)
H5 H 0.1065 0.6344 0.4823
C8 C 0.16204(9) 0.65587(15) 0.39599(9)
C9 C 0.22436(9) 0.73643(14) 0.37769(9)
C10 C 0.11885(10) 0.47039(17) 0.17879(9)
C11 C 0.08087(9) 0.31851(16) 0.16843(9)
C12 C 0.12004(10) 0.21412(18) 0.23779(11)
H6 H 0.1680 0.2411 0.2942
C13 C 0.08822(13) 0.0702(2) 0.22352(14)
H7 H 0.1150 0.0005 0.2702
C14 C 0.01693(13) 0.0301(2) 0.14036(14)
H8 H -0.0038 -0.0671 0.1304
C15 C -0.02368(12) 0.1340(2) 0.07189(12)
H9 H -0.0730 0.1072 0.0163
C16 C 0.00813(10) 0.27674(18) 0.08509(10)
H10 H -0.0191 0.3458 0.0381
C17 C 0.29086(9) 0.68134(14) 0.26831(9)
C18 C 0.35091(9) 0.81282(15) 0.29152(10)
C19 C 0.44370(13) 0.7994(2) 0.34073(19)
H11 H 0.4701 0.7062 0.3570
C20 C 0.49776(16) 0.9237(3) 0.3661(3)
H12 H 0.5604 0.9135 0.4019
C21 C 0.46149(18) 1.0610(3) 0.3398(2)
H13 H 0.4991 1.1438 0.3565
C22 C 0.36979(15) 1.07606(19) 0.28897(15)
H14 H 0.3443 1.1695 0.2705
C23 C 0.31469(11) 0.95300(16) 0.26491(11)
H15 H 0.2520 0.9643 0.2301
C24 C 0.31100(10) 0.55638(15) 0.21992(10)
C25 C 0.32207(10) 0.58320(16) 0.13656(10)
C26 C 0.37401(12) 0.48533(19) 0.11542(12)
H16 H 0.4034 0.4067 0.1545
C27 C 0.38191(15) 0.5051(3) 0.03594(15)
H17 H 0.4173 0.4402 0.0221
C28 C 0.33772(17) 0.6201(3) -0.02258(14)
H18 H 0.3430 0.6328 -0.0761
C29 C 0.28576(16) 0.7163(2) -0.00208(12)
H19 H 0.2556 0.7937 -0.0420
C30 C 0.27789(13) 0.69910(18) 0.07727(11)
H20 H 0.2430 0.7652 0.0910
O1 O 0.11404(9) 0.53730(14) 0.11202(7)
O2 O 0.32310(11) 0.43372(12) 0.25362(10)
loop_
_geom_bond_atom_site_label_1
_geom_bond_atom_site_label_2
_geom_bond_site_symmetry_1
_geom_bond_site_symmetry_2
C1 H1 1_555 1_555
C2 C1 1_555 1_555
C3 C2 1_555 1_555
C4 H2 1_555 1_555
C5 C4 1_555 1_555
H3 C5 1_555 1_555
C6 C5 1_555 1_555
H4 C6 1_555 1_555
C7 C6 1_555 1_555
H5 C7 1_555 1_555
C8 C1 1_555 1_555
C9 C3 1_555 1_555
C10 C2 1_555 1_555
C11 C10 1_555 1_555
C12 C11 1_555 1_555
H6 C12 1_555 1_555
C13 C12 1_555 1_555
H7 C13 1_555 1_555
C14 C13 1_555 1_555
H8 C14 1_555 1_555
C15 C14 1_555 1_555
H9 C15 1_555 1_555
C16 C11 1_555 1_555
H10 C16 1_555 1_555
C17 C3 1_555 1_555
C18 C17 1_555 1_555
C19 C18 1_555 1_555
H11 C19 1_555 1_555
C20 C19 1_555 1_555
H12 C20 1_555 1_555
C21 C20 1_555 1_555
H13 C21 1_555 1_555
C22 C21 1_555 1_555
H14 C22 1_555 1_555
C23 C18 1_555 1_555
H15 C23 1_555 1_555
C24 C17 1_555 1_555
C25 C24 1_555 1_555
C26 C25 1_555 1_555
H16 C26 1_555 1_555
C27 C26 1_555 1_555
H17 C27 1_555 1_555
C28 C27 1_555 1_555
H18 C28 1_555 1_555
C29 C28 1_555 1_555
H19 C29 1_555 1_555
C30 C25 1_555 1_555
H20 C30 1_555 1_555
O1 C10 1_555 1_555
O2 C24 1_555 1_555
C4 C9 1_555 1_555
C7 C8 1_555 1_555
C8 C9 1_555 1_555
C15 C16 1_555 1_555
C22 C23 1_555 1_555
C29 C30 1_555 1_555

#END
