
#######################################################################
#
#                 Cambridge Crystallographic Data Centre
#                                CCDC 
#
#######################################################################
#
# If this CIF has been generated from an entry in the Cambridge 
# Structural Database, then it will include bibliographic, chemical, 
# crystal, experimental, refinement or atomic coordinate data resulting 
# from the CCDC's data processing and validation procedures.
#
#######################################################################

data_SUHXID
_chemical_formula_moiety         'C18 H20 O1'
_chemical_name_systematic        
13-Phenyl-11-oxatricyclo[7.2.2.0^2,7^]trideca-7,12-diene
_symmetry_cell_setting           monoclinic
_symmetry_space_group_name_H-M   'P 21/c'
_symmetry_Int_Tables_number      14
_space_group_name_Hall           '-P 2ybc'
loop_
_symmetry_equiv_pos_site_id
_symmetry_equiv_pos_as_xyz
1 x,y,z
2 -x,1/2+y,1/2-z
3 -x,-y,-z
4 x,1/2-y,1/2+z
_cell_length_a                   12.7217(12)
_cell_length_b                   6.2454(6)
_cell_length_c                   18.3145(16)
_cell_angle_alpha                90
_cell_angle_beta                 107.402(5)
_cell_angle_gamma                90
_cell_volume                     1388.52
_exptl_crystal_colour            'pale yellow'
_exptl_crystal_description       prism
_cell_formula_units_Z            4
loop_
_atom_site_label
_atom_site_type_symbol
_atom_site_fract_x
_atom_site_fract_y
_atom_site_fract_z
O1 O 0.33032(10) 0.52413(18) 0.98683(7)
C1 C 0.36400(14) 0.8988(3) 1.02750(10)
H1 H 0.4245 0.9999 1.0482
C2 C 0.30700(14) 0.8564(3) 1.08805(9)
C3 C 0.33049(13) 0.9905(3) 1.15752(9)
C4 C 0.19338(16) 0.9029(3) 0.91259(10)
C5 C 0.37100(14) 1.1977(3) 1.15783(10)
H2 H 0.3842 1.2509 1.1140
C6 C 0.23842(15) 0.6907(3) 1.07172(9)
H3 H 0.1995 0.6497 1.1051
C7 C 0.31144(15) 0.9171(3) 1.22425(10)
H4 H 0.2845 0.7793 1.2258
C8 C 0.15140(15) 0.6865(3) 0.92789(9)
H5 H 0.1492 0.5962 0.8837
C9 C 0.22499(15) 0.5710(3) 0.99849(10)
H6 H 0.1898 0.4338 1.0026
C10 C 0.28469(15) 0.9948(3) 0.95615(10)
H7 H 0.3015 1.1301 0.9416
C11 C 0.39195(16) 1.3260(3) 1.22208(11)
H8 H 0.4197 1.4634 1.2212
C12 C 0.41160(15) 0.6883(3) 1.01030(11)
H9 H 0.4458 0.7112 0.9702
H10 H 0.4684 0.6410 1.0557
C13 C 0.03241(16) 0.7059(3) 0.93035(11)
H11 H 0.0044 0.5643 0.9359
H12 H 0.0314 0.7896 0.9748
C14 C 0.37213(18) 1.2519(4) 1.28699(11)
H13 H 0.3856 1.3391 1.3300
C15 C 0.11954(17) 1.0135(3) 0.84290(10)
H14 H 0.1204 0.9347 0.7974
H15 H 0.1475 1.1563 0.8393
C16 C 0.33211(17) 1.0472(4) 1.28843(10)
H16 H 0.3189 0.9961 1.3326
C17 C 0.00089(19) 1.0291(4) 0.84619(13)
H17 H -0.0016 1.1241 0.8875
H18 H -0.0456 1.0894 0.7987
C18 C -0.04280(19) 0.8113(4) 0.85869(12)
H19 H -0.0479 0.7210 0.8147
H20 H -0.1161 0.8266 0.8638
loop_
_geom_bond_atom_site_label_1
_geom_bond_atom_site_label_2
_geom_bond_site_symmetry_1
_geom_bond_site_symmetry_2
O1 C9 1_555 1_555
C1 H1 1_555 1_555
C2 C1 1_555 1_555
C3 C2 1_555 1_555
C4 C8 1_555 1_555
C5 C3 1_555 1_555
H2 C5 1_555 1_555
C6 C2 1_555 1_555
H3 C6 1_555 1_555
C7 C3 1_555 1_555
H4 C7 1_555 1_555
C8 H5 1_555 1_555
C9 C6 1_555 1_555
H6 C9 1_555 1_555
C10 C1 1_555 1_555
H7 C10 1_555 1_555
C11 C5 1_555 1_555
H8 C11 1_555 1_555
C12 O1 1_555 1_555
H9 C12 1_555 1_555
H10 C12 1_555 1_555
C13 C8 1_555 1_555
H11 C13 1_555 1_555
H12 C13 1_555 1_555
C14 C11 1_555 1_555
H13 C14 1_555 1_555
C15 C4 1_555 1_555
H14 C15 1_555 1_555
H15 C15 1_555 1_555
C16 C7 1_555 1_555
H16 C16 1_555 1_555
C17 C15 1_555 1_555
H17 C17 1_555 1_555
H18 C17 1_555 1_555
C18 C13 1_555 1_555
H19 C18 1_555 1_555
H20 C18 1_555 1_555
C1 C12 1_555 1_555
C4 C10 1_555 1_555
C8 C9 1_555 1_555
C14 C16 1_555 1_555
C17 C18 1_555 1_555

#END
