
#######################################################################
#
#                 Cambridge Crystallographic Data Centre
#                                CCDC 
#
#######################################################################
#
# If this CIF has been generated from an entry in the Cambridge 
# Structural Database, then it will include bibliographic, chemical, 
# crystal, experimental, refinement or atomic coordinate data resulting 
# from the CCDC's data processing and validation procedures.
#
#######################################################################

data_SUHYEB
_chemical_formula_moiety         'C30 H32 O1'
_chemical_name_systematic        
1-(2,2-Diphenylvinyl)-6-methoxy-4a-methyl-1,2,3,4,4a,9,10,10a-octahydrophenanthrene
_symmetry_cell_setting           triclinic
_symmetry_space_group_name_H-M   'P -1'
_symmetry_Int_Tables_number      2
_space_group_name_Hall           '-P 1'
loop_
_symmetry_equiv_pos_site_id
_symmetry_equiv_pos_as_xyz
1 x,y,z
2 -x,-y,-z
_cell_length_a                   9.0305(18)
_cell_length_b                   10.168(2)
_cell_length_c                   13.691(3)
_cell_angle_alpha                110.45(3)
_cell_angle_beta                 97.33(3)
_cell_angle_gamma                97.85(3)
_cell_volume                     1145.87
_cell_formula_units_Z            2
loop_
_atom_site_label
_atom_site_type_symbol
_atom_site_fract_x
_atom_site_fract_y
_atom_site_fract_z
O1 O 0.76964(11) 0.94117(10) 1.28168(7)
C1 C 0.62768(16) 0.93038(14) 1.22493(10)
C2 C 0.54354(17) 1.02869(14) 1.27536(11)
H1 H 0.5822 1.0952 1.3458
C3 C 0.40358(17) 1.02934(14) 1.22281(10)
H2 H 0.3467 1.0975 1.2578
C4 C 0.34220(16) 0.93244(14) 1.11909(10)
C5 C 0.19110(17) 0.94565(15) 1.06551(11)
H3 H 0.2068 1.0294 1.0443
H4 H 0.1216 0.9634 1.1171
C6 C 0.11560(16) 0.81313(15) 0.96765(10)
H5 H 0.0325 0.8362 0.9257
H6 H 0.0710 0.7360 0.9898
C7 C 0.23366(15) 0.76255(14) 0.89980(10)
H7 H 0.2859 0.8480 0.8887
C8 C 0.16093(15) 0.65022(14) 0.78861(10)
H8 H 0.1052 0.5634 0.7963
C9 C 0.28343(16) 0.60730(15) 0.72192(10)
H9 H 0.2357 0.5259 0.6551
H10 H 0.3250 0.6885 0.7030
C10 C 0.41388(16) 0.56493(15) 0.77904(10)
H11 H 0.4954 0.5516 0.7365
H12 H 0.3767 0.4726 0.7853
C11 C 0.47960(15) 0.67859(15) 0.89011(10)
H13 H 0.5276 0.7676 0.8831
H14 H 0.5597 0.6445 0.9259
C12 C 0.35813(15) 0.71218(13) 0.95931(10)
C13 C 0.42487(15) 0.83072(13) 1.06912(10)
C14 C 0.56839(15) 0.83007(14) 1.12300(10)
H15 H 0.6251 0.7607 1.0896
C15 C 0.85899(18) 0.84018(17) 1.23499(13)
H16 H 0.8069 0.7440 1.2248
H17 H 0.9583 0.8632 1.2817
H18 H 0.8735 0.8437 1.1661
C16 C 0.29278(16) 0.57744(14) 0.97969(10)
H19 H 0.3747 0.5489 1.0171
H20 H 0.2478 0.4993 0.9118
H21 H 0.2144 0.5987 1.0231
C17 C 0.05085(16) 0.70884(14) 0.73050(10)
H22 H 0.0812 0.8056 0.7378
C18 C -0.08504(15) 0.63940(13) 0.66966(9)
C19 C -0.17458(15) 0.70072(13) 0.60262(9)
C20 C -0.33117(15) 0.65060(14) 0.56604(10)
H23 H -0.3822 0.5785 0.5858
C21 C -0.41315(16) 0.70510(14) 0.50099(11)
H24 H -0.5198 0.6708 0.4777
C22 C -0.34098(16) 0.80841(14) 0.47006(11)
H25 H -0.3970 0.8442 0.4247
C23 C -0.18596(16) 0.85934(14) 0.50585(11)
H26 H -0.1354 0.9306 0.4850
C24 C -0.10415(15) 0.80706(14) 0.57185(10)
H27 H 0.0018 0.8442 0.5966
C25 C -0.14940(14) 0.49100(13) 0.66060(10)
C26 C -0.14778(15) 0.37466(13) 0.56930(10)
H28 H -0.1080 0.3903 0.5124
C27 C -0.20374(15) 0.23567(14) 0.56040(10)
H29 H -0.2004 0.1571 0.4982
C28 C -0.26420(16) 0.21170(15) 0.64199(11)
H30 H -0.3026 0.1168 0.6358
C29 C -0.26843(16) 0.32594(15) 0.73218(11)
H31 H -0.3108 0.3097 0.7880
C30 C -0.21092(16) 0.46502(15) 0.74205(10)
H32 H -0.2136 0.5430 0.8048
loop_
_geom_bond_atom_site_label_1
_geom_bond_atom_site_label_2
_geom_bond_site_symmetry_1
_geom_bond_site_symmetry_2
O1 C1 1_555 1_555
C1 C2 1_555 1_555
C2 H1 1_555 1_555
C3 C2 1_555 1_555
H2 C3 1_555 1_555
C4 C3 1_555 1_555
C5 C4 1_555 1_555
H3 C5 1_555 1_555
H4 C5 1_555 1_555
C6 C5 1_555 1_555
H5 C6 1_555 1_555
H6 C6 1_555 1_555
C7 C6 1_555 1_555
H7 C7 1_555 1_555
C8 C7 1_555 1_555
H8 C8 1_555 1_555
C9 C8 1_555 1_555
H9 C9 1_555 1_555
H10 C9 1_555 1_555
C10 C9 1_555 1_555
H11 C10 1_555 1_555
H12 C10 1_555 1_555
C11 C10 1_555 1_555
H13 C11 1_555 1_555
H14 C11 1_555 1_555
C12 C7 1_555 1_555
C13 C4 1_555 1_555
C14 C1 1_555 1_555
H15 C14 1_555 1_555
C15 O1 1_555 1_555
H16 C15 1_555 1_555
H17 C15 1_555 1_555
H18 C15 1_555 1_555
C16 C12 1_555 1_555
H19 C16 1_555 1_555
H20 C16 1_555 1_555
H21 C16 1_555 1_555
C17 C8 1_555 1_555
H22 C17 1_555 1_555
C18 C17 1_555 1_555
C19 C18 1_555 1_555
C20 C19 1_555 1_555
H23 C20 1_555 1_555
C21 C20 1_555 1_555
H24 C21 1_555 1_555
C22 C21 1_555 1_555
H25 C22 1_555 1_555
C23 C22 1_555 1_555
H26 C23 1_555 1_555
C24 C19 1_555 1_555
H27 C24 1_555 1_555
C25 C18 1_555 1_555
C26 C25 1_555 1_555
H28 C26 1_555 1_555
C27 C26 1_555 1_555
H29 C27 1_555 1_555
C28 C27 1_555 1_555
H30 C28 1_555 1_555
C29 C28 1_555 1_555
H31 C29 1_555 1_555
C30 C25 1_555 1_555
H32 C30 1_555 1_555
C11 C12 1_555 1_555
C12 C13 1_555 1_555
C13 C14 1_555 1_555
C23 C24 1_555 1_555
C29 C30 1_555 1_555

#END
