
#######################################################################
#
#                 Cambridge Crystallographic Data Centre
#                                CCDC 
#
#######################################################################
#
# If this CIF has been generated from an entry in the Cambridge 
# Structural Database, then it will include bibliographic, chemical, 
# crystal, experimental, refinement or atomic coordinate data resulting 
# from the CCDC's data processing and validation procedures.
#
#######################################################################

data_SUHZUS
_chemical_formula_moiety         'C20 H15 N1 O2 S1'
_chemical_name_systematic        
2-Methoxy-3-phenyl-4-(2-thienyl)isoquinolin-1(2H)-one
_symmetry_cell_setting           monoclinic
_symmetry_space_group_name_H-M   'P 21/n'
_symmetry_Int_Tables_number      14
_space_group_name_Hall           '-P 2yn'
loop_
_symmetry_equiv_pos_site_id
_symmetry_equiv_pos_as_xyz
1 x,y,z
2 1/2-x,1/2+y,1/2-z
3 -x,-y,-z
4 1/2+x,1/2-y,1/2+z
_cell_length_a                   11.395(2)
_cell_length_b                   8.4405(17)
_cell_length_c                   16.714(3)
_cell_angle_alpha                90
_cell_angle_beta                 91.37(3)
_cell_angle_gamma                90
_cell_volume                     1607.08
_exptl_crystal_colour            colorless
_exptl_crystal_description       Prism
_cell_formula_units_Z            4
loop_
_atom_site_label
_atom_site_type_symbol
_atom_site_fract_x
_atom_site_fract_y
_atom_site_fract_z
O1 O 0.12750(9) -0.30754(11) 0.14805(6)
O2 O -0.03428(11) -0.23850(15) 0.25298(8)
N1 N 0.09643(10) -0.15093(14) 0.16261(7)
C1 C 0.14447(11) -0.03697(17) 0.11292(8)
C2 C 0.10982(11) 0.11631(17) 0.11971(8)
C3 C 0.02468(11) 0.15861(18) 0.17933(8)
C4 C -0.00996(13) 0.31631(19) 0.19292(10)
H1 H 0.0213 0.3973 0.1623
C5 C -0.08923(14) 0.3521(2) 0.25073(10)
H2 H -0.1106 0.4571 0.2591
C6 C -0.13775(15) 0.2337(2) 0.29665(11)
H3 H -0.1917 0.2590 0.3355
C7 C -0.10609(14) 0.0784(2) 0.28478(10)
H4 H -0.1390 -0.0011 0.3155
C8 C -0.02469(12) 0.03945(19) 0.22670(8)
C9 C 0.00760(13) -0.1269(2) 0.21692(9)
C10 C 0.20379(16) -0.3654(2) 0.21094(11)
H5 H 0.2641 -0.2886 0.2223
H6 H 0.2391 -0.4630 0.1945
H7 H 0.1593 -0.3832 0.2582
C11 C 0.23166(12) -0.09167(17) 0.05415(8)
C12 C 0.20038(13) -0.09740(19) -0.02670(9)
H8 H 0.1242 -0.0717 -0.0433
C13 C 0.28110(15) -0.1407(2) -0.08223(10)
H9 H 0.2591 -0.1455 -0.1361
C14 C 0.39368(15) -0.1768(2) -0.05876(11)
H10 H 0.4482 -0.2053 -0.0967
C15 C 0.42618(14) -0.1709(2) 0.02074(11)
H11 H 0.5029 -0.1954 0.0365
C16 C 0.34629(12) -0.1291(2) 0.07728(10)
H12 H 0.3689 -0.1258 0.1311
C17 C 0.1624(13) 0.244(4) 0.0714(17)
C18 C 0.2720(6) 0.3036(13) 0.0788(7)
H13 H 0.3257 0.2714 0.1183
C19 C 0.2984(11) 0.4256(18) 0.0176(7)
H14 H 0.3689 0.4795 0.0119
C20 C 0.2012(9) 0.4422(19) -0.0273(9)
H15 H 0.1965 0.5174 -0.0679
S1 S 0.0866(2) 0.3218(3) -0.00814(11)
C21? C 0.1591(15) 0.234(4) 0.0640(19)
C22? C 0.0998(10) 0.3196(15) 0.0093(6)
H16? H 0.0192 0.3100 0.0009
C23? C 0.1723(11) 0.432(2) -0.0373(10)
H17? H 0.1495 0.4903 -0.0821
C24? C 0.2771(13) 0.429(2) -0.0004(8)
H18? H 0.3373 0.4954 -0.0167
S2? S 0.29800(13) 0.3023(3) 0.07708(17)
loop_
_geom_bond_atom_site_label_1
_geom_bond_atom_site_label_2
_geom_bond_site_symmetry_1
_geom_bond_site_symmetry_2
O1 N1 1_555 1_555
O2 C9 1_555 1_555
N1 C1 1_555 1_555
C1 C2 1_555 1_555
C2 C3 1_555 1_555
C3 C4 1_555 1_555
C4 H1 1_555 1_555
C5 C4 1_555 1_555
H2 C5 1_555 1_555
C6 C5 1_555 1_555
H3 C6 1_555 1_555
C7 C6 1_555 1_555
H4 C7 1_555 1_555
C8 C3 1_555 1_555
C9 N1 1_555 1_555
C10 O1 1_555 1_555
H5 C10 1_555 1_555
H6 C10 1_555 1_555
H7 C10 1_555 1_555
C11 C1 1_555 1_555
C12 C11 1_555 1_555
H8 C12 1_555 1_555
C13 C12 1_555 1_555
H9 C13 1_555 1_555
C14 C13 1_555 1_555
H10 C14 1_555 1_555
C15 C14 1_555 1_555
H11 C15 1_555 1_555
C16 C11 1_555 1_555
H12 C16 1_555 1_555
C17 C2 1_555 1_555
C18 C17 1_555 1_555
H13 C18 1_555 1_555
C19 C18 1_555 1_555
H14 C19 1_555 1_555
C20 C19 1_555 1_555
H15 C20 1_555 1_555
S1 C17 1_555 1_555
C7 C8 1_555 1_555
C8 C9 1_555 1_555
C15 C16 1_555 1_555
C20 S1 1_555 1_555

#END
