
#######################################################################
#
#                 Cambridge Crystallographic Data Centre
#                                CCDC 
#
#######################################################################
#
# If this CIF has been generated from an entry in the Cambridge 
# Structural Database, then it will include bibliographic, chemical, 
# crystal, experimental, refinement or atomic coordinate data resulting 
# from the CCDC's data processing and validation procedures.
#
#######################################################################

data_SUJFEJ
_chemical_name_common            
"4,4',4'',4'''-(1,4,7,10-Tetraazacyclododecane-1,4,7,10-tetrayltetrakis(ethane-2,1-diyloxy))tetraphenol dihydrate"
_chemical_formula_moiety         'C40 H52 N4 O8,2(H2 O1)'
_chemical_name_systematic        
'1,4,7,10-tetrakis(2-(4-Hydroxyphenoxy)ethyl)-1,4,7,10-tetra-azacyclododecane dihydrate'
_symmetry_cell_setting           monoclinic
_symmetry_space_group_name_H-M   'P 21/c'
_symmetry_Int_Tables_number      14
_space_group_name_Hall           '-P 2ybc'
loop_
_symmetry_equiv_pos_site_id
_symmetry_equiv_pos_as_xyz
1 x,y,z
2 -x,1/2+y,1/2-z
3 -x,-y,-z
4 x,1/2-y,1/2+z
_cell_length_a                   13.9192(9)
_cell_length_b                   13.2871(6)
_cell_length_c                   22.1894(15)
_cell_angle_alpha                90
_cell_angle_beta                 91.4600(10)
_cell_angle_gamma                90
_cell_volume                     4102.5
_cell_formula_units_Z            4
_exptl_crystal_recrystallization_method ethanol
loop_
_atom_site_label
_atom_site_type_symbol
_atom_site_fract_x
_atom_site_fract_y
_atom_site_fract_z
C1 C 0.10281(17) 0.37814(17) 0.31293(11)
H1 H 0.1037 0.4511 0.3125
H2 H 0.0375 0.3555 0.3048
C2 C 0.17079(18) 0.33578(18) 0.26575(11)
H3 H 0.1440 0.3532 0.2264
H4 H 0.2313 0.3716 0.2703
C3 C 0.27413(18) 0.20157(19) 0.22842(11)
H5 H 0.2780 0.2424 0.1923
H6 H 0.2672 0.1316 0.2166
C4 C 0.36254(18) 0.21552(18) 0.26796(10)
H7 H 0.4190 0.2010 0.2448
H8 H 0.3664 0.2852 0.2809
C5 C 0.43587(17) 0.17994(17) 0.36979(10)
H9 H 0.4436 0.1243 0.3978
H10 H 0.4975 0.1921 0.3517
C6 C 0.40580(17) 0.27300(19) 0.40384(12)
H11 H 0.4524 0.2880 0.4358
H12 H 0.4019 0.3303 0.3768
C7 C 0.27527(17) 0.35378(17) 0.44550(10)
H13 H 0.3298 0.3956 0.4571
H14 H 0.2357 0.3468 0.4806
C8 C 0.21468(18) 0.41061(17) 0.39477(11)
H15 H 0.1855 0.4707 0.4110
H16 H 0.2555 0.4299 0.3619
C9 C 0.05499(17) 0.34059(18) 0.41550(11)
H17 H 0.0177 0.4014 0.4087
H18 H 0.0785 0.3407 0.4570
C10 C -0.00877(18) 0.24831(18) 0.40426(11)
H19 H -0.0599 0.2467 0.4331
H20 H -0.0376 0.2513 0.3640
C11 C 0.00811(17) 0.06764(18) 0.41516(10)
C12 C -0.08835(19) 0.05622(19) 0.40040(11)
H21 H -0.1252 0.1124 0.3904
C13 C -0.13098(18) -0.03895(18) 0.40040(11)
H22 H -0.1960 -0.0463 0.3906
C14 C -0.07544(18) -0.12232(19) 0.41511(10)
C15 C 0.02116(17) -0.11214(17) 0.42980(10)
H23 H 0.0580 -0.1685 0.4395
C16 C 0.0632(2) -0.01612(18) 0.42991(11)
H24 H 0.1281 -0.0087 0.4399
C17 C 0.10123(18) 0.17956(18) 0.24329(11)
H25 H 0.0959 0.1845 0.1997
H26 H 0.0461 0.2134 0.2598
C18 C 0.09836(19) 0.06832(18) 0.26124(11)
H27 H 0.1181 0.0619 0.3033
H28 H 0.0328 0.0441 0.2570
C19 C 0.16160(17) -0.09050(19) 0.23940(11)
C20 C 0.11383(17) -0.14009(19) 0.28476(11)
H29 H 0.0745 -0.1044 0.3104
C21 C 0.12514(18) -0.24382(18) 0.29173(11)
H30 H 0.0928 -0.2775 0.3218
C22 C 0.1848(2) -0.2968(2) 0.25361(13)
C23 C 0.23170(18) -0.24654(18) 0.20901(11)
H31 H 0.2713 -0.2821 0.1834
C24 C 0.22095(18) -0.14427(18) 0.20157(11)
H32 H 0.2534 -0.1112 0.1713
C25 C 0.38069(18) 0.04328(18) 0.30126(11)
H33 H 0.4496 0.0325 0.3014
H34 H 0.3570 0.0352 0.2601
C26 C 0.33545(19) -0.0390(2) 0.33983(12)
H35 H 0.2677 -0.0252 0.3449
H36 H 0.3415 -0.1040 0.3203
C27 C 0.34135(18) -0.10964(17) 0.43644(11)
C28 C 0.28832(18) -0.1943(2) 0.41856(12)
H37 H 0.2706 -0.2028 0.3782
C29 C 0.26179(18) -0.26609(19) 0.46060(11)
H38 H 0.2276 -0.3228 0.4481
C30 C 0.28623(18) -0.25318(19) 0.52099(11)
C31 C 0.33957(17) -0.16911(16) 0.53885(11)
H39 H 0.3575 -0.1611 0.5792
C32 C 0.36627(17) -0.09712(18) 0.49719(11)
H40 H 0.4007 -0.0406 0.5098
C33 C 0.31665(18) 0.18154(18) 0.48092(10)
H41 H 0.3380 0.1173 0.4654
H42 H 0.2515 0.1719 0.4943
C34 C 0.37815(19) 0.2046(2) 0.53593(11)
H43 H 0.3762 0.1491 0.5643
H44 H 0.4443 0.2151 0.5248
C35 C 0.40895(17) 0.34798(19) 0.59236(11)
C36 C 0.49363(17) 0.31383(18) 0.61976(11)
H45 H 0.5112 0.2467 0.6158
C37 C 0.55191(18) 0.37855(18) 0.65279(11)
H46 H 0.6090 0.3554 0.6705
C38 C 0.52481(18) 0.47876(18) 0.65946(11)
C39 C 0.43972(18) 0.51314(19) 0.63194(11)
H47 H 0.4220 0.5805 0.6344
C40 C 0.38364(16) 0.44631(16) 0.60158(10)
H48 H 0.3246 0.4683 0.5861
N1 N 0.13948(14) 0.33876(14) 0.37330(8)
N2 N 0.19203(14) 0.23353(15) 0.26478(9)
N3 N 0.36230(14) 0.15107(14) 0.32046(9)
N4 N 0.31161(14) 0.25288(15) 0.42918(9)
O1 O 0.04987(12) 0.15957(12) 0.41048(7)
O2 O -0.11587(12) -0.21398(12) 0.41472(7)
H49 H -0.1825 -0.2085 0.4030
O3 O 0.15640(12) 0.00976(12) 0.22714(7)
O4 O 0.19360(12) -0.39814(12) 0.26018(7)
H50 H 0.2358 -0.4233 0.2301
O5 O 0.38389(12) -0.03986(13) 0.39603(8)
O6 O 0.25775(12) -0.31923(13) 0.56193(7)
H51 H 0.2202 -0.3706 0.5421
O7 O 0.34214(12) 0.29001(12) 0.56138(7)
O8 O 0.58490(13) 0.54244(13) 0.68950(8)
H52 H 0.5518 0.5732 0.7222
O9 O 0.8590(3) 0.6136(3) 0.41125(16)
H53 H 0.8611 0.6498 0.4429
H54 H 0.8939 0.5618 0.4167
O10 O 0.5644(3) 0.4688(3) 0.52340(17)
H55 H 0.5178 0.5097 0.5191
H56 H 0.5489 0.4123 0.5081
O11 O 0.8574(3) 0.4677(3) 0.47610(16)
H57 H 0.8713 0.5049 0.4463
H58 H 0.9083 0.4433 0.4918
O12 O 0.6744(4) 0.0092(3) 0.31973(16)
H59 H 0.6337 0.0487 0.3351
H60 H 0.6452 -0.0351 0.2986
O13 O 0.5641(3) 0.8992(3) 0.30410(19)
H61 H 0.5230 0.8536 0.3112
H62 H 0.6109 0.8950 0.3293
loop_
_geom_bond_atom_site_label_1
_geom_bond_atom_site_label_2
_geom_bond_site_symmetry_1
_geom_bond_site_symmetry_2
C1 H1 1_555 1_555
H2 C1 1_555 1_555
C2 C1 1_555 1_555
H3 C2 1_555 1_555
H4 C2 1_555 1_555
C3 H5 1_555 1_555
H6 C3 1_555 1_555
C4 C3 1_555 1_555
H7 C4 1_555 1_555
H8 C4 1_555 1_555
C5 H9 1_555 1_555
H10 C5 1_555 1_555
C6 C5 1_555 1_555
H11 C6 1_555 1_555
H12 C6 1_555 1_555
C7 H13 1_555 1_555
H14 C7 1_555 1_555
C8 C7 1_555 1_555
H15 C8 1_555 1_555
H16 C8 1_555 1_555
C9 H17 1_555 1_555
H18 C9 1_555 1_555
C10 C9 1_555 1_555
H19 C10 1_555 1_555
H20 C10 1_555 1_555
C11 C12 1_555 1_555
C12 H21 1_555 1_555
C13 C12 1_555 1_555
H22 C13 1_555 1_555
C14 C13 1_555 1_555
C15 C14 1_555 1_555
H23 C15 1_555 1_555
C16 C11 1_555 1_555
H24 C16 1_555 1_555
C17 H25 1_555 1_555
H26 C17 1_555 1_555
C18 C17 1_555 1_555
H27 C18 1_555 1_555
H28 C18 1_555 1_555
C19 C20 1_555 1_555
C20 H29 1_555 1_555
C21 C20 1_555 1_555
H30 C21 1_555 1_555
C22 C21 1_555 1_555
C23 C22 1_555 1_555
H31 C23 1_555 1_555
C24 C19 1_555 1_555
H32 C24 1_555 1_555
C25 H33 1_555 1_555
H34 C25 1_555 1_555
C26 C25 1_555 1_555
H35 C26 1_555 1_555
H36 C26 1_555 1_555
C27 C28 1_555 1_555
C28 H37 1_555 1_555
C29 C28 1_555 1_555
H38 C29 1_555 1_555
C30 C29 1_555 1_555
C31 C30 1_555 1_555
H39 C31 1_555 1_555
C32 C27 1_555 1_555
H40 C32 1_555 1_555
C33 H41 1_555 1_555
H42 C33 1_555 1_555
C34 C33 1_555 1_555
H43 C34 1_555 1_555
H44 C34 1_555 1_555
C35 C36 1_555 1_555
C36 H45 1_555 1_555
C37 C36 1_555 1_555
H46 C37 1_555 1_555
C38 C37 1_555 1_555
C39 C38 1_555 1_555
H47 C39 1_555 1_555
C40 C35 1_555 1_555
H48 C40 1_555 1_555
N1 C1 1_555 1_555
N2 C2 1_555 1_555
N3 C4 1_555 1_555
N4 C6 1_555 1_555
O1 C10 1_555 1_555
O2 C14 1_555 1_555
H49 O2 1_555 1_555
O3 C18 1_555 1_555
O4 C22 1_555 1_555
H50 O4 1_555 1_555
O5 C26 1_555 1_555
O6 C30 1_555 1_555
H51 O6 1_555 1_555
O7 C34 1_555 1_555
O8 C38 1_555 1_555
H52 O8 1_555 1_555
O9 H53 1_555 1_555
H54 O9 1_555 1_555
O10 H55 1_555 1_555
H56 O10 1_555 1_555
O11 H57 1_555 1_555
H58 O11 1_555 1_555
O12 H59 1_555 1_555
H60 O12 1_555 1_555
O13 H61 1_555 1_555
H62 O13 1_555 1_555
C3 N2 1_555 1_555
C5 N3 1_555 1_555
C7 N4 1_555 1_555
C8 N1 1_555 1_555
C9 N1 1_555 1_555
C11 O1 1_555 1_555
C15 C16 1_555 1_555
C17 N2 1_555 1_555
C19 O3 1_555 1_555
C23 C24 1_555 1_555
C25 N3 1_555 1_555
C27 O5 1_555 1_555
C31 C32 1_555 1_555
C33 N4 1_555 1_555
C35 O7 1_555 1_555
C39 C40 1_555 1_555

#END
