
#######################################################################
#
#                 Cambridge Crystallographic Data Centre
#                                CCDC 
#
#######################################################################
#
# If this CIF has been generated from an entry in the Cambridge 
# Structural Database, then it will include bibliographic, chemical, 
# crystal, experimental, refinement or atomic coordinate data resulting 
# from the CCDC's data processing and validation procedures.
#
#######################################################################

data_SUJFEK
_chemical_formula_moiety         'C19 H25 N3 O4'
_chemical_name_systematic        
't-Butyl 2-ethyl-5-hydroxy-7-oxo-6-phenyl-4a,5,6,7-tetrahydroimidazo[1,5-b]pyridazine-1(2H)-carboxylate'
_symmetry_cell_setting           orthorhombic
_symmetry_space_group_name_H-M   'P 21 21 21'
_symmetry_Int_Tables_number      19
_space_group_name_Hall           'P 2ac 2ab'
loop_
_symmetry_equiv_pos_site_id
_symmetry_equiv_pos_as_xyz
1 x,y,z
2 1/2-x,-y,1/2+z
3 -x,1/2+y,1/2-z
4 1/2+x,1/2-y,-z
_cell_length_a                   6.9301(5)
_cell_length_b                   15.6506(12)
_cell_length_c                   22.8010(18)
_cell_angle_alpha                90
_cell_angle_beta                 90
_cell_angle_gamma                90
_cell_volume                     2473
_exptl_crystal_colour            yellow
_exptl_crystal_description       parallelepiped
_cell_formula_units_Z            4
_exptl_crystal_recrystallization_method chloroform
loop_
_atom_site_label
_atom_site_type_symbol
_atom_site_fract_x
_atom_site_fract_y
_atom_site_fract_z
O1 O 0.70027(15) 0.70580(8) 0.36191(5)
O2 O 0.33156(17) 0.79634(7) 0.49806(5)
H1 H 0.3329 0.8487 0.4991
O3 O 0.6832(2) 0.54269(7) 0.48431(5)
O4 O 0.5972(2) 0.43381(7) 0.42454(6)
C1 C 0.7173(3) 0.88776(16) 0.40083(12)
H2 H 0.8036 0.8445 0.4105
C2 C 0.7772(5) 0.96975(18) 0.39498(15)
H3 H 0.9050 0.9815 0.4044
C3 C 0.6678(5) 1.03580(15) 0.37666(12)
H4 H 0.7186 1.0896 0.3688
C4 C 0.4654(5) 1.01602(14) 0.37022(11)
H5 H 0.3784 1.0596 0.3618
C5 C 0.4001(4) 0.93449(13) 0.37633(9)
H6 H 0.2705 0.9225 0.3698
C6 C 0.5217(3) 0.87039(10) 0.39189(7)
N1 N 0.44934(18) 0.78623(8) 0.40116(6)
C7 C 0.2894(2) 0.76974(10) 0.44234(7)
H7 H 0.1714 0.7977 0.4284
C8 C 0.26675(19) 0.67194(10) 0.43892(7)
H8 H 0.2369 0.6492 0.4779
N2 N 0.46585(16) 0.64776(8) 0.42224(6)
C9 C 0.55473(19) 0.71259(9) 0.39144(6)
N3 N 0.49160(18) 0.56317(8) 0.40426(6)
C10 C 0.3716(2) 0.53333(11) 0.35526(8)
H9 H 0.3515 0.4718 0.3606
C11 C 0.1766(2) 0.57573(14) 0.35866(9)
H10 H 0.0821 0.5572 0.3326
C12 C 0.1299(2) 0.63649(12) 0.39537(9)
H11 H 0.0052 0.6584 0.3941
C13 C 0.5998(2) 0.51546(9) 0.44171(8)
C14 C 0.7194(3) 0.36931(11) 0.45380(10)
C15 C 0.6477(5) 0.35790(16) 0.51635(11)
H12 H 0.7056 0.4004 0.5411
H13 H 0.6825 0.3021 0.5302
H14 H 0.5099 0.3640 0.5173
C16 C 0.6731(5) 0.28893(14) 0.41908(13)
H15 H 0.7434 0.2415 0.4352
H16 H 0.7096 0.2970 0.3788
H17 H 0.5372 0.2775 0.4213
C17 C 0.9288(4) 0.39359(16) 0.45125(17)
H18 H 0.9618 0.4099 0.4119
H19 H 1.0064 0.3457 0.4629
H20 H 0.9522 0.4407 0.4773
C18 C 0.4689(3) 0.54568(14) 0.29580(8)
H21 H 0.3834 0.5235 0.2657
H22 H 0.4831 0.6065 0.2889
C19 C 0.6592(4) 0.50517(19) 0.28847(11)
H23 H 0.7402 0.5198 0.3211
H24 H 0.7174 0.5250 0.2528
H25 H 0.6439 0.4443 0.2867
loop_
_geom_bond_atom_site_label_1
_geom_bond_atom_site_label_2
_geom_bond_site_symmetry_1
_geom_bond_site_symmetry_2
O1 C9 1_555 1_555
O2 H1 1_555 1_555
O3 C13 1_555 1_555
O4 C13 1_555 1_555
C1 H2 1_555 1_555
C2 C1 1_555 1_555
H3 C2 1_555 1_555
C3 C2 1_555 1_555
H4 C3 1_555 1_555
C4 C3 1_555 1_555
H5 C4 1_555 1_555
C5 C4 1_555 1_555
H6 C5 1_555 1_555
C6 C1 1_555 1_555
N1 C6 1_555 1_555
C7 O2 1_555 1_555
H7 C7 1_555 1_555
C8 C7 1_555 1_555
H8 C8 1_555 1_555
N2 C8 1_555 1_555
C9 N1 1_555 1_555
N3 N2 1_555 1_555
C10 N3 1_555 1_555
H9 C10 1_555 1_555
C11 C10 1_555 1_555
H10 C11 1_555 1_555
C12 C8 1_555 1_555
H11 C12 1_555 1_555
C13 N3 1_555 1_555
C14 O4 1_555 1_555
C15 C14 1_555 1_555
H12 C15 1_555 1_555
H13 C15 1_555 1_555
H14 C15 1_555 1_555
C16 C14 1_555 1_555
H15 C16 1_555 1_555
H16 C16 1_555 1_555
H17 C16 1_555 1_555
C17 C14 1_555 1_555
H18 C17 1_555 1_555
H19 C17 1_555 1_555
H20 C17 1_555 1_555
C18 C10 1_555 1_555
H21 C18 1_555 1_555
H22 C18 1_555 1_555
C19 C18 1_555 1_555
H23 C19 1_555 1_555
H24 C19 1_555 1_555
H25 C19 1_555 1_555
C5 C6 1_555 1_555
N1 C7 1_555 1_555
N2 C9 1_555 1_555
C11 C12 1_555 1_555

#END
