
#######################################################################
#
#                 Cambridge Crystallographic Data Centre
#                                CCDC 
#
#######################################################################
#
# If this CIF has been generated from an entry in the Cambridge 
# Structural Database, then it will include bibliographic, chemical, 
# crystal, experimental, refinement or atomic coordinate data resulting 
# from the CCDC's data processing and validation procedures.
#
#######################################################################

data_SUJGAH
_chemical_formula_moiety         'C16 H11 N3'
_chemical_name_systematic        4-(5-Phenyl-1H-pyrazol-1-yl)benzonitrile
_symmetry_cell_setting           triclinic
_symmetry_space_group_name_H-M   'P -1'
_symmetry_Int_Tables_number      2
_space_group_name_Hall           '-P 1'
loop_
_symmetry_equiv_pos_site_id
_symmetry_equiv_pos_as_xyz
1 x,y,z
2 -x,-y,-z
_cell_length_a                   6.9756(14)
_cell_length_b                   9.910(2)
_cell_length_c                   10.420(2)
_cell_angle_alpha                113.94(3)
_cell_angle_beta                 92.53(3)
_cell_angle_gamma                92.22(3)
_cell_volume                     656.439
_cell_formula_units_Z            2
loop_
_atom_site_label
_atom_site_type_symbol
_atom_site_fract_x
_atom_site_fract_y
_atom_site_fract_z
N1 N 0.3651(2) 0.19956(15) 0.72863(14)
N2 N 0.2362(2) 0.27369(18) 0.68171(17)
N3 N 0.2167(3) -0.5445(2) 0.4092(2)
C1 C 0.3077(3) 0.4123(2) 0.7365(2)
H1 H 0.2498 0.4891 0.7234
C2 C 0.4797(3) 0.4300(2) 0.81631(19)
H2 H 0.5557 0.5171 0.8634
C3 C 0.5142(3) 0.29250(17) 0.81133(16)
C4 C 0.6654(2) 0.25369(17) 0.89218(17)
C5 C 0.8538(3) 0.3039(2) 0.8951(2)
H3 H 0.8856 0.3538 0.8395
C6 C 0.9953(3) 0.2810(3) 0.9795(3)
H4 H 1.1215 0.3153 0.9803
C7 C 0.9502(4) 0.2072(3) 1.0630(3)
H5 H 1.0457 0.1918 1.1199
C8 C 0.7621(4) 0.1565(2) 1.0613(2)
H6 H 0.7308 0.1068 1.1172
C9 C 0.6203(3) 0.1795(2) 0.9764(2)
H7 H 0.4940 0.1453 0.9756
C10 C 0.3376(2) 0.04279(18) 0.67191(16)
C11 C 0.1510(3) -0.0209(2) 0.6373(2)
H8 H 0.0470 0.0387 0.6580
C12 C 0.1208(3) -0.1721(2) 0.5723(2)
H9 H -0.0039 -0.2148 0.5479
C13 C 0.2755(3) -0.26130(19) 0.54314(18)
C14 C 0.4614(3) -0.1972(2) 0.58168(19)
H10 H 0.5651 -0.2570 0.5650
C15 C 0.4930(3) -0.04572(19) 0.64438(18)
H11 H 0.6177 -0.0030 0.6681
C16 C 0.2436(3) -0.4199(2) 0.4691(2)
loop_
_geom_bond_atom_site_label_1
_geom_bond_atom_site_label_2
_geom_bond_site_symmetry_1
_geom_bond_site_symmetry_2
N1 N2 1_555 1_555
N2 C1 1_555 1_555
N3 C16 1_555 1_555
C1 H1 1_555 1_555
C2 C1 1_555 1_555
H2 C2 1_555 1_555
C3 N1 1_555 1_555
C4 C3 1_555 1_555
C5 C4 1_555 1_555
H3 C5 1_555 1_555
C6 C5 1_555 1_555
H4 C6 1_555 1_555
C7 C6 1_555 1_555
H5 C7 1_555 1_555
C8 C7 1_555 1_555
H6 C8 1_555 1_555
C9 C4 1_555 1_555
H7 C9 1_555 1_555
C10 N1 1_555 1_555
C11 C10 1_555 1_555
H8 C11 1_555 1_555
C12 C11 1_555 1_555
H9 C12 1_555 1_555
C13 C12 1_555 1_555
C14 C13 1_555 1_555
H10 C14 1_555 1_555
C15 C10 1_555 1_555
H11 C15 1_555 1_555
C16 C13 1_555 1_555
C2 C3 1_555 1_555
C8 C9 1_555 1_555
C14 C15 1_555 1_555

#END
