
#######################################################################
#
#                 Cambridge Crystallographic Data Centre
#                                CCDC 
#
#######################################################################
#
# If this CIF has been generated from an entry in the Cambridge 
# Structural Database, then it will include bibliographic, chemical, 
# crystal, experimental, refinement or atomic coordinate data resulting 
# from the CCDC's data processing and validation procedures.
#
#######################################################################

data_SUJGEL
_chemical_formula_moiety         'C22 H17 Cl1 N2'
_chemical_name_systematic        
1-(4-Chlorophenyl)-5-(4-methylphenyl)-3-phenyl-1H-pyrazole
_symmetry_cell_setting           monoclinic
_symmetry_space_group_name_H-M   'P 21/c'
_symmetry_Int_Tables_number      14
_space_group_name_Hall           '-P 2ybc'
loop_
_symmetry_equiv_pos_site_id
_symmetry_equiv_pos_as_xyz
1 x,y,z
2 -x,1/2+y,1/2-z
3 -x,-y,-z
4 x,1/2-y,1/2+z
_cell_length_a                   11.469(2)
_cell_length_b                   17.517(4)
_cell_length_c                   9.5531(19)
_cell_angle_alpha                90
_cell_angle_beta                 107.85(3)
_cell_angle_gamma                90
_cell_volume                     1826.85
_cell_formula_units_Z            4
loop_
_atom_site_label
_atom_site_type_symbol
_atom_site_fract_x
_atom_site_fract_y
_atom_site_fract_z
Cl1 Cl 0.28506(12) 1.07096(7) 0.65141(13)
N1 N -0.0047(3) 0.86227(16) 0.1897(3)
N2 N -0.1044(3) 0.89098(17) 0.0831(3)
C1 C 0.1007(4) 0.8909(2) 0.4479(4)
H1 H 0.0774 0.8434 0.4741
C2 C 0.1681(4) 0.9395(2) 0.5543(4)
H2 H 0.1908 0.9250 0.6526
C3 C 0.2021(3) 1.0094(2) 0.5162(4)
C4 C 0.1688(4) 1.0317(2) 0.3715(4)
H3 H 0.1918 1.0794 0.3462
C5 C 0.1010(3) 0.9828(2) 0.2637(4)
H4 H 0.0783 0.9976 0.1655
C6 C 0.0671(3) 0.91220(19) 0.3013(4)
C7 C 0.0028(3) 0.7848(2) 0.1803(4)
C8 C -0.0956(3) 0.7635(2) 0.0648(4)
H5 H -0.1162 0.7141 0.0306
C9 C -0.1590(3) 0.8300(2) 0.0080(4)
C10 C -0.2692(3) 0.8388(2) -0.1199(4)
C11 C -0.2990(4) 0.7843(2) -0.2307(4)
H6 H -0.2507 0.7409 -0.2224
C12 C -0.3994(4) 0.7941(3) -0.3529(5)
H7 H -0.4177 0.7578 -0.4275
C13 C -0.4725(4) 0.8570(3) -0.3649(6)
H8 H -0.5413 0.8630 -0.4466
C14 C -0.4441(4) 0.9110(3) -0.2562(6)
H9 H -0.4930 0.9542 -0.2650
C15 C -0.3435(4) 0.9018(3) -0.1339(5)
H10 H -0.3257 0.9386 -0.0600
C16 C 0.1042(3) 0.73843(19) 0.2717(3)
C17 C 0.2250(3) 0.7562(2) 0.2853(4)
H11 H 0.2422 0.7982 0.2355
C18 C 0.3199(3) 0.7125(2) 0.3715(4)
H12 H 0.4002 0.7253 0.3787
C19 C 0.2973(4) 0.6499(2) 0.4473(4)
C20 C 0.1779(4) 0.6308(2) 0.4302(4)
H13 H 0.1611 0.5879 0.4781
C21 C 0.0820(4) 0.6738(2) 0.3433(4)
H14 H 0.0018 0.6592 0.3327
C22 C 0.4004(4) 0.6030(2) 0.5469(5)
H15 H 0.3763 0.5841 0.6283
H16 H 0.4721 0.6342 0.5829
H17 H 0.4181 0.5608 0.4926
loop_
_geom_bond_atom_site_label_1
_geom_bond_atom_site_label_2
_geom_bond_site_symmetry_1
_geom_bond_site_symmetry_2
Cl1 C3 1_555 1_555
N1 N2 1_555 1_555
N2 C9 1_555 1_555
C1 H1 1_555 1_555
C2 C1 1_555 1_555
H2 C2 1_555 1_555
C3 C2 1_555 1_555
C4 C3 1_555 1_555
H3 C4 1_555 1_555
C5 C4 1_555 1_555
H4 C5 1_555 1_555
C6 N1 1_555 1_555
C7 N1 1_555 1_555
C8 C7 1_555 1_555
H5 C8 1_555 1_555
C9 C8 1_555 1_555
C10 C9 1_555 1_555
C11 C10 1_555 1_555
H6 C11 1_555 1_555
C12 C11 1_555 1_555
H7 C12 1_555 1_555
C13 C12 1_555 1_555
H8 C13 1_555 1_555
C14 C13 1_555 1_555
H9 C14 1_555 1_555
C15 C10 1_555 1_555
H10 C15 1_555 1_555
C16 C7 1_555 1_555
C17 C16 1_555 1_555
H11 C17 1_555 1_555
C18 C17 1_555 1_555
H12 C18 1_555 1_555
C19 C18 1_555 1_555
C20 C19 1_555 1_555
H13 C20 1_555 1_555
C21 C16 1_555 1_555
H14 C21 1_555 1_555
C22 C19 1_555 1_555
H15 C22 1_555 1_555
H16 C22 1_555 1_555
H17 C22 1_555 1_555
C1 C6 1_555 1_555
C5 C6 1_555 1_555
C14 C15 1_555 1_555
C20 C21 1_555 1_555

#END
