
#######################################################################
#
#                 Cambridge Crystallographic Data Centre
#                                CCDC 
#
#######################################################################
#
# If this CIF has been generated from an entry in the Cambridge 
# Structural Database, then it will include bibliographic, chemical, 
# crystal, experimental, refinement or atomic coordinate data resulting 
# from the CCDC's data processing and validation procedures.
#
#######################################################################

data_SUJGIP
_chemical_formula_moiety         'C18 H20 O3'
_chemical_name_systematic        
(3aR,3bS,9bS)-6-Methoxy-9b-methyl-3a,3b,4,5,9b,10-hexahydrophenanthro[1,2-c]furan-1(3H)-one
_symmetry_cell_setting           monoclinic
_symmetry_space_group_name_H-M   'P 21/c'
_symmetry_Int_Tables_number      14
_space_group_name_Hall           '-P 2ybc'
loop_
_symmetry_equiv_pos_site_id
_symmetry_equiv_pos_as_xyz
1 x,y,z
2 -x,1/2+y,1/2-z
3 -x,-y,-z
4 x,1/2-y,1/2+z
_cell_length_a                   12.0634(7)
_cell_length_b                   10.2760(6)
_cell_length_c                   12.8460(8)
_cell_angle_alpha                90
_cell_angle_beta                 114.159(2)
_cell_angle_gamma                90
_cell_volume                     1452.96
_chemical_melting_point          '222-224 deg.C'
_cell_formula_units_Z            4
loop_
_atom_site_label
_atom_site_type_symbol
_atom_site_fract_x
_atom_site_fract_y
_atom_site_fract_z
O1 O 1.21567(12) 0.34468(14) 0.99117(14)
O2 O 0.42841(15) -0.06102(19) 0.81847(17)
O3 O 0.48708(12) 0.14380(17) 0.87125(14)
C1 C 1.34150(19) 0.3604(2) 1.0192(2)
H1 H 1.3529 0.3848 0.9521
H2 H 1.3829 0.2799 1.0484
H3 H 1.3738 0.4270 1.0760
C2 C 1.15499(16) 0.24443(17) 0.92035(15)
C3 C 1.03452(15) 0.22713(15) 0.90788(13)
C4 C 0.96679(14) 0.12488(15) 0.84054(12)
C5 C 0.83618(14) 0.10039(15) 0.82665(12)
C6 C 0.82112(14) 0.15728(16) 0.93173(13)
H4 H 0.8829 0.1140 0.9981
C7 C 0.69935(16) 0.12513(18) 0.93655(15)
H5 H 0.7176 0.1040 1.0163
C8 C 0.63644(16) 0.00955(19) 0.86827(15)
C9 C 0.50847(18) 0.0189(2) 0.84981(17)
C10 C 0.59641(17) 0.2228(2) 0.8992(2)
H6 H 0.6064 0.2835 0.9602
H7 H 0.5927 0.2712 0.8331
C11 C 1.20606(16) 0.16526(18) 0.86472(15)
H8 H 1.2858 0.1778 0.8737
C12 C 1.13609(17) 0.06741(19) 0.79567(16)
H9 H 1.1687 0.0148 0.7563
C13 C 1.01909(17) 0.04603(18) 0.78376(14)
H10 H 0.9741 -0.0215 0.7375
C14 C 0.98636(16) 0.31996(17) 0.97055(15)
H11 H 0.9979 0.4083 0.9502
H12 H 1.0341 0.3100 1.0519
C15 C 0.85358(16) 0.30137(17) 0.94644(16)
H13 H 0.8035 0.3481 0.8776
H14 H 0.8376 0.3364 1.0091
C16 C 0.80917(16) -0.04753(16) 0.82367(15)
H15 H 0.8159 -0.0863 0.7576
H16 H 0.8689 -0.0885 0.8914
C17 C 0.68462(17) -0.07192(18) 0.81822(16)
H17 H 0.6409 -0.1444 0.7796
C18 C 0.75061(16) 0.16243(19) 0.71303(14)
H18 H 0.7612 0.1201 0.6511
H19 H 0.7693 0.2533 0.7134
H20 H 0.6680 0.1526 0.7038
loop_
_geom_bond_atom_site_label_1
_geom_bond_atom_site_label_2
_geom_bond_site_symmetry_1
_geom_bond_site_symmetry_2
O1 C1 1_555 1_555
O2 C9 1_555 1_555
O3 C9 1_555 1_555
C1 H1 1_555 1_555
H2 C1 1_555 1_555
H3 C1 1_555 1_555
C2 O1 1_555 1_555
C3 C2 1_555 1_555
C4 C3 1_555 1_555
C5 C4 1_555 1_555
C6 C5 1_555 1_555
H4 C6 1_555 1_555
C7 C6 1_555 1_555
H5 C7 1_555 1_555
C8 C7 1_555 1_555
C9 C8 1_555 1_555
C10 O3 1_555 1_555
H6 C10 1_555 1_555
H7 C10 1_555 1_555
C11 C2 1_555 1_555
H8 C11 1_555 1_555
C12 C11 1_555 1_555
H9 C12 1_555 1_555
C13 C4 1_555 1_555
H10 C13 1_555 1_555
C14 C3 1_555 1_555
H11 C14 1_555 1_555
H12 C14 1_555 1_555
C15 C6 1_555 1_555
H13 C15 1_555 1_555
H14 C15 1_555 1_555
C16 C5 1_555 1_555
H15 C16 1_555 1_555
H16 C16 1_555 1_555
C17 C8 1_555 1_555
H17 C17 1_555 1_555
C18 C5 1_555 1_555
H18 C18 1_555 1_555
H19 C18 1_555 1_555
H20 C18 1_555 1_555
C7 C10 1_555 1_555
C12 C13 1_555 1_555
C14 C15 1_555 1_555
C16 C17 1_555 1_555

#END
