
#######################################################################
#
#                 Cambridge Crystallographic Data Centre
#                                CCDC 
#
#######################################################################
#
# If this CIF has been generated from an entry in the Cambridge 
# Structural Database, then it will include bibliographic, chemical, 
# crystal, experimental, refinement or atomic coordinate data resulting 
# from the CCDC's data processing and validation procedures.
#
#######################################################################

data_SUJGOV
_chemical_formula_moiety         'C18 H20 O5'
_chemical_name_systematic        
(3aS,3bS,9bS,11aS)-11a-Hydroxy-6-methoxy-9b-methyl-3a,4,5,9b,10,11a-hexahydrophenanthro[1,2-c]furan-1,11(3H,3bH)-dione
_symmetry_cell_setting           orthorhombic
_symmetry_space_group_name_H-M   'P c c n'
_symmetry_Int_Tables_number      56
_space_group_name_Hall           '-P 2ab 2ac'
loop_
_symmetry_equiv_pos_site_id
_symmetry_equiv_pos_as_xyz
1 x,y,z
2 1/2+x,-y,1/2-z
3 -x,1/2+y,1/2-z
4 1/2-x,1/2-y,z
5 -x,-y,-z
6 1/2-x,y,1/2+z
7 x,1/2-y,1/2+z
8 1/2+x,1/2+y,-z
_cell_length_a                   24.8158(8)
_cell_length_b                   8.4490(3)
_cell_length_c                   14.6172(6)
_cell_angle_alpha                90
_cell_angle_beta                 90
_cell_angle_gamma                90
_cell_volume                     3064.77
_chemical_melting_point          '187-190 deg.C'
_cell_formula_units_Z            8
loop_
_atom_site_label
_atom_site_type_symbol
_atom_site_fract_x
_atom_site_fract_y
_atom_site_fract_z
O1 O 0.79321(4) 0.53377(15) 0.78977(8)
O2 O 0.44686(4) 0.11906(14) 0.56587(8)
O3 O 0.46539(4) 0.30265(15) 0.66911(8)
O4 O 0.55864(4) 0.02228(12) 0.60179(8)
H1 H 0.5532(7) -0.023(2) 0.5479(13)
O5 O 0.53472(4) 0.29890(15) 0.45388(8)
C1 C 0.84372(7) 0.6107(2) 0.80009(13)
H2 H 0.8713 0.5489 0.7710
H3 H 0.8519 0.6216 0.8640
H4 H 0.8421 0.7135 0.7723
C2 C 0.77187(6) 0.52367(18) 0.70298(11)
C3 C 0.71825(6) 0.47243(17) 0.69887(10)
C4 C 0.69384(6) 0.45816(17) 0.61347(10)
C5 C 0.63347(5) 0.41691(16) 0.60539(9)
C6 C 0.62218(5) 0.30747(17) 0.52233(10)
H5 H 0.6329 0.3604 0.4663
H6 H 0.6431 0.2111 0.5280
C7 C 0.56357(6) 0.26754(17) 0.51801(11)
C8 C 0.54102(6) 0.18169(17) 0.60278(10)
C9 C 0.47988(6) 0.19490(19) 0.60754(11)
C10 C 0.51275(6) 0.3734(2) 0.71232(12)
H7 H 0.5075 0.3838 0.7778
H8 H 0.5201 0.4772 0.6868
C11 C 0.55867(5) 0.25977(19) 0.69171(10)
H9 H 0.5574 0.1775 0.7389
C12 C 0.60310(6) 0.57397(18) 0.58995(11)
H10 H 0.6048 0.6368 0.6446
H11 H 0.5661 0.5520 0.5753
H12 H 0.6195 0.6308 0.5404
C13 C 0.80070(6) 0.56055(18) 0.62543(12)
H13 H 0.8361 0.5958 0.6295
C14 C 0.77602(7) 0.5441(2) 0.54169(12)
H14 H 0.7951 0.5677 0.4886
C15 C 0.72366(6) 0.49336(18) 0.53557(11)
H15 H 0.7078 0.4823 0.4783
C16 C 0.69027(6) 0.4335(2) 0.78786(10)
H16 H 0.6975 0.5173 0.8315
H17 H 0.7054 0.3364 0.8122
C17 C 0.62972(6) 0.41382(19) 0.77871(10)
H18 H 0.6126 0.5170 0.7773
H19 H 0.6159 0.3563 0.8311
C18 C 0.61647(5) 0.32423(18) 0.69152(9)
H20 H 0.6397 0.2304 0.6926
loop_
_geom_bond_atom_site_label_1
_geom_bond_atom_site_label_2
_geom_bond_site_symmetry_1
_geom_bond_site_symmetry_2
O1 C1 1_555 1_555
O2 C9 1_555 1_555
O3 C9 1_555 1_555
O4 H1 1_555 1_555
O5 C7 1_555 1_555
C1 H2 1_555 1_555
H3 C1 1_555 1_555
H4 C1 1_555 1_555
C2 O1 1_555 1_555
C3 C2 1_555 1_555
C4 C3 1_555 1_555
C5 C4 1_555 1_555
C6 C5 1_555 1_555
H5 C6 1_555 1_555
H6 C6 1_555 1_555
C7 C6 1_555 1_555
C8 O4 1_555 1_555
C9 C8 1_555 1_555
C10 O3 1_555 1_555
H7 C10 1_555 1_555
H8 C10 1_555 1_555
C11 C8 1_555 1_555
H9 C11 1_555 1_555
C12 C5 1_555 1_555
H10 C12 1_555 1_555
H11 C12 1_555 1_555
H12 C12 1_555 1_555
C13 C2 1_555 1_555
H13 C13 1_555 1_555
C14 C13 1_555 1_555
H14 C14 1_555 1_555
C15 C4 1_555 1_555
H15 C15 1_555 1_555
C16 C3 1_555 1_555
H16 C16 1_555 1_555
H17 C16 1_555 1_555
C17 C16 1_555 1_555
H18 C17 1_555 1_555
H19 C17 1_555 1_555
C18 C5 1_555 1_555
H20 C18 1_555 1_555
C7 C8 1_555 1_555
C10 C11 1_555 1_555
C11 C18 1_555 1_555
C14 C15 1_555 1_555
C17 C18 1_555 1_555

#END
