
#######################################################################
#
#                 Cambridge Crystallographic Data Centre
#                                CCDC 
#
#######################################################################
#
# If this CIF has been generated from an entry in the Cambridge 
# Structural Database, then it will include bibliographic, chemical, 
# crystal, experimental, refinement or atomic coordinate data resulting 
# from the CCDC's data processing and validation procedures.
#
#######################################################################

data_SUJHIQ
_chemical_formula_moiety         'C31 H29 B1 F2 N2 O4 S3'
_chemical_name_systematic        
'difluoro(methyl 3-(2-((3-(3-methoxy-3-oxopropyl)-4-methyl-5-(2-thienyl)-2H-pyrrol-2-ylidene)(2-thienyl)methyl)-4-methyl-5-(2-thienyl)-1H-pyrrol-3-yl)propanoatato)borate'
_symmetry_cell_setting           monoclinic
_symmetry_space_group_name_H-M   'P 21/n'
_symmetry_Int_Tables_number      14
_space_group_name_Hall           '-P 2yn'
loop_
_symmetry_equiv_pos_site_id
_symmetry_equiv_pos_as_xyz
1 x,y,z
2 1/2-x,1/2+y,1/2-z
3 -x,-y,-z
4 1/2+x,1/2-y,1/2+z
_cell_length_a                   10.8120(8)
_cell_length_b                   6.0826(5)
_cell_length_c                   43.264(3)
_cell_angle_alpha                90
_cell_angle_beta                 91.017(4)
_cell_angle_gamma                90
_cell_volume                     2844.81
_exptl_crystal_colour            'dark blue'
_exptl_crystal_description       lath
_cell_formula_units_Z            4
loop_
_atom_site_label
_atom_site_type_symbol
_atom_site_fract_x
_atom_site_fract_y
_atom_site_fract_z
F1 F 0.45853(17) 0.7911(4) 0.70078(4)
F2 F 0.38291(17) 1.0386(3) 0.66551(4)
O1 O 0.1075(2) -0.2694(4) 0.57451(5)
O2 O 0.0722(3) 0.0600(4) 0.55373(6)
O3 O 0.7812(2) 0.0728(4) 0.54398(5)
O4 O 0.7825(2) 0.4093(4) 0.52293(5)
N1 N 0.3204(2) 0.6598(5) 0.66007(6)
N2 N 0.5352(3) 0.7808(5) 0.64918(6)
C1 C 0.2106(3) 0.6195(6) 0.67412(7)
C2 C 0.1401(3) 0.4679(6) 0.65557(7)
C3 C 0.2084(3) 0.4205(6) 0.62999(7)
C4 C 0.3217(3) 0.5388(6) 0.63276(7)
C5 C 0.4232(3) 0.5459(6) 0.61365(7)
C6 C 0.5331(3) 0.6617(6) 0.62196(7)
C7 C 0.6492(3) 0.6773(6) 0.60782(7)
C8 C 0.7240(3) 0.8045(6) 0.62745(8)
C9 C 0.6511(3) 0.8681(6) 0.65241(8)
C10 C 0.0124(3) 0.3859(7) 0.66217(8)
H1 H 0.0176 0.2655 0.6772
H2 H -0.0267 0.3328 0.6430
H3 H -0.0370 0.5059 0.6707
C11 C 0.1583(3) 0.2913(6) 0.60279(8)
H4 H 0.2022 0.3408 0.5842
H5 H 0.0701 0.3309 0.5998
C12 C 0.1670(3) 0.0416(6) 0.60420(7)
H6 H 0.2545 -0.0046 0.6063
H7 H 0.1216 -0.0145 0.6222
C13 C 0.1107(3) -0.0490(6) 0.57469(8)
C14 C 0.0538(4) -0.3670(6) 0.54661(8)
H8 H -0.0334 -0.3245 0.5446
H9 H 0.0602 -0.5275 0.5479
H10 H 0.0987 -0.3146 0.5285
C15 C 0.6904(3) 0.5965(6) 0.57707(7)
H11 H 0.7454 0.7084 0.5680
H12 H 0.6169 0.5824 0.5632
C16 C 0.7587(3) 0.3758(6) 0.57778(8)
H13 H 0.8402 0.3940 0.5882
H14 H 0.7104 0.2674 0.5896
C17 C 0.7764(3) 0.2928(6) 0.54546(8)
C18 C 0.8037(3) -0.0142(6) 0.51342(7)
H15 H 0.7426 0.0461 0.4987
H16 H 0.7967 -0.1748 0.5138
H17 H 0.8870 0.0273 0.5070
C19 C 0.8553(3) 0.8703(7) 0.62227(8)
H18 H 0.8617 0.9409 0.6020
H19 H 0.9083 0.7396 0.6230
H20 H 0.8820 0.9737 0.6384
C20 C 0.1696(3) 0.7227(6) 0.70218(7)
S1 S 0.0804(2) 0.5812(4) 0.72798(5)
C21 C 0.1859(16) 0.9259(19) 0.7127(3)
H21 H 0.2328 1.0341 0.7022
C22 C 0.1225(4) 0.9674(8) 0.74286(9)
H22 H 0.1199 1.1020 0.7540
C23 C 0.0706(4) 0.7759(9) 0.75091(9)
H23 H 0.0293 0.7602 0.7700
C24 C 0.4229(3) 0.4190(5) 0.58428(7)
S2 S 0.37941(16) 0.5465(2) 0.54989(3)
C25 C 0.464(2) 0.213(2) 0.5797(3)
H24 H 0.4929 0.1176 0.5957
C26 C 0.4581(3) 0.1524(7) 0.54601(8)
H25 H 0.4815 0.0146 0.5376
C27 C 0.4146(4) 0.3235(7) 0.52971(9)
H26 H 0.4044 0.3178 0.5079
C28 C 0.6884(3) 1.0225(6) 0.67695(7)
S3 S 0.80471(14) 0.9588(3) 0.70261(4)
C29 C 0.639(2) 1.239(2) 0.6825(4)
H27 H 0.5706 1.3040 0.6719
C30 C 0.7135(4) 1.3419(7) 0.70742(8)
H28 H 0.7034 1.4899 0.7139
C31 C 0.7974(4) 1.2028(7) 0.71996(8)
H29 H 0.8483 1.2408 0.7373
B1 B 0.4257(3) 0.8254(7) 0.67037(9)
S4? S 0.1894(5) 0.9874(6) 0.71246(11)
C32? C 0.1025(17) 0.619(3) 0.7234(4)
H30? H 0.0775 0.4700 0.7220
S5? S 0.4720(12) 0.1562(13) 0.58146(19)
C33? C 0.392(2) 0.488(3) 0.5556(3)
H31? H 0.3583 0.6296 0.5517
S6? S 0.6417(19) 1.2805(19) 0.6780(4)
C34? C 0.778(3) 0.986(4) 0.7033(7)
H32? H 0.8153 0.8502 0.7087
loop_
_geom_bond_atom_site_label_1
_geom_bond_atom_site_label_2
_geom_bond_site_symmetry_1
_geom_bond_site_symmetry_2
F1 B1 1_555 1_555
F2 B1 1_555 1_555
O1 C13 1_555 1_555
O2 C13 1_555 1_555
O3 C17 1_555 1_555
O4 C17 1_555 1_555
N1 C1 1_555 1_555
N2 C6 1_555 1_555
C1 C2 1_555 1_555
C2 C3 1_555 1_555
C3 C4 1_555 1_555
C4 N1 1_555 1_555
C5 C4 1_555 1_555
C6 C5 1_555 1_555
C7 C6 1_555 1_555
C8 C7 1_555 1_555
C9 N2 1_555 1_555
C10 C2 1_555 1_555
H1 C10 1_555 1_555
H2 C10 1_555 1_555
H3 C10 1_555 1_555
C11 C3 1_555 1_555
H4 C11 1_555 1_555
H5 C11 1_555 1_555
C12 C11 1_555 1_555
H6 C12 1_555 1_555
H7 C12 1_555 1_555
C13 C12 1_555 1_555
C14 O1 1_555 1_555
H8 C14 1_555 1_555
H9 C14 1_555 1_555
H10 C14 1_555 1_555
C15 C7 1_555 1_555
H11 C15 1_555 1_555
H12 C15 1_555 1_555
C16 C15 1_555 1_555
H13 C16 1_555 1_555
H14 C16 1_555 1_555
C17 C16 1_555 1_555
C18 O3 1_555 1_555
H15 C18 1_555 1_555
H16 C18 1_555 1_555
H17 C18 1_555 1_555
C19 C8 1_555 1_555
H18 C19 1_555 1_555
H19 C19 1_555 1_555
H20 C19 1_555 1_555
C20 C1 1_555 1_555
S1 C20 1_555 1_555
C21 C20 1_555 1_555
H21 C21 1_555 1_555
C22 C21 1_555 1_555
H22 C22 1_555 1_555
C23 S1 1_555 1_555
H23 C23 1_555 1_555
C24 C5 1_555 1_555
S2 C24 1_555 1_555
C25 C24 1_555 1_555
H24 C25 1_555 1_555
C26 C25 1_555 1_555
H25 C26 1_555 1_555
C27 S2 1_555 1_555
H26 C27 1_555 1_555
C28 C9 1_555 1_555
S3 C28 1_555 1_555
C29 C28 1_555 1_555
H27 C29 1_555 1_555
C30 C29 1_555 1_555
H28 C30 1_555 1_555
C31 S3 1_555 1_555
H29 C31 1_555 1_555
B1 N1 1_555 1_555
N2 B1 1_555 1_555
C8 C9 1_555 1_555
C22 C23 1_555 1_555
C26 C27 1_555 1_555
C30 C31 1_555 1_555

#END
