
#######################################################################
#
#                 Cambridge Crystallographic Data Centre
#                                CCDC 
#
#######################################################################
#
# If this CIF has been generated from an entry in the Cambridge 
# Structural Database, then it will include bibliographic, chemical, 
# crystal, experimental, refinement or atomic coordinate data resulting 
# from the CCDC's data processing and validation procedures.
#
#######################################################################

data_SUJHAI
_chemical_formula_moiety         'C19 H20 B1 Cl3 F2 N2 O4'
_chemical_name_systematic        
'difluoro(methyl 3-(5-chloro-2-(chloro(5-chloro-3-(3-methoxy-3-oxopropyl)-4-methyl-2H-pyrrol-2-ylidene)methyl)-4-methyl-1H-pyrrol-3-yl)propanoatato)borate'
_symmetry_cell_setting           monoclinic
_symmetry_space_group_name_H-M   'P 21/n'
_symmetry_Int_Tables_number      14
_space_group_name_Hall           '-P 2yn'
loop_
_symmetry_equiv_pos_site_id
_symmetry_equiv_pos_as_xyz
1 x,y,z
2 1/2-x,1/2+y,1/2-z
3 -x,-y,-z
4 1/2+x,1/2-y,1/2+z
_cell_length_a                   11.5880(15)
_cell_length_b                   11.3730(16)
_cell_length_c                   16.839(3)
_cell_angle_alpha                90
_cell_angle_beta                 110.105(6)
_cell_angle_gamma                90
_cell_volume                     2083.99
_exptl_crystal_colour            red
_cell_formula_units_Z            4
loop_
_atom_site_label
_atom_site_type_symbol
_atom_site_fract_x
_atom_site_fract_y
_atom_site_fract_z
Cl1 Cl 0.45636(5) 0.52140(5) 0.29482(3)
Cl2 Cl 0.70509(3) 0.73051(3) 0.67354(2)
Cl3 Cl 0.23220(4) 0.95052(4) 0.37943(3)
F1 F 0.29675(8) 0.67414(8) 0.37811(6)
F2 F 0.41765(8) 0.79014(8) 0.33006(5)
O1 O 0.99640(10) 0.78826(10) 0.52977(8)
O2 O 0.92776(11) 0.62388(10) 0.45511(7)
O3 O 0.31119(10) 0.76800(9) 0.75968(7)
O4 O 0.32281(12) 0.96382(10) 0.75042(8)
N1 N 0.51681(10) 0.64626(10) 0.43563(7)
N2 N 0.41970(10) 0.82078(10) 0.47257(7)
C1 C 0.54747(13) 0.55912(13) 0.39319(9)
C2 C 0.66032(13) 0.50798(12) 0.43899(9)
C3 C 0.70316(12) 0.56816(12) 0.51564(8)
C4 C 0.61145(12) 0.65319(12) 0.51417(8)
C5 C 0.59833(11) 0.73319(12) 0.57338(8)
C6 C 0.50286(12) 0.81523(12) 0.55531(8)
C7 C 0.47332(12) 0.90593(12) 0.60372(9)
C8 C 0.37239(13) 0.96647(13) 0.54842(9)
C9 C 0.34472(12) 0.91102(13) 0.47014(9)
C10 C 0.72060(15) 0.41007(14) 0.40883(11)
H1 H 0.8088 0.4261 0.4248
H2 H 0.6841 0.4037 0.3472
H3 H 0.7085 0.3361 0.4348
C11 C 0.82540(13) 0.54471(13) 0.58249(9)
H4 H 0.8602 0.4722 0.5672
H5 H 0.8121 0.5295 0.6366
C12 C 0.92008(13) 0.64338(14) 0.59643(9)
H6 H 0.8906 0.7127 0.6195
H7 H 0.9980 0.6173 0.6396
C13 C 0.94597(12) 0.68033(13) 0.51858(10)
C14 C 1.03161(17) 0.83148(16) 0.46069(12)
H8 H 1.0951 0.7803 0.4532
H9 H 1.0639 0.9116 0.4733
H10 H 0.9597 0.8319 0.4086
C15 C 0.53257(13) 0.93247(13) 0.69615(9)
H11 H 0.5092 1.0128 0.7075
H12 H 0.6230 0.9306 0.7112
C16 C 0.49494(13) 0.84454(12) 0.75223(9)
H13 H 0.4981 0.7638 0.7311
H14 H 0.5545 0.8491 0.8107
C17 C 0.36780(14) 0.86832(12) 0.75338(9)
C18 C 0.19053(15) 0.78131(16) 0.76572(11)
H15 H 0.1972 0.8242 0.8176
H16 H 0.1549 0.7035 0.7671
H17 H 0.1376 0.8252 0.7166
C19 C 0.30604(14) 1.06988(14) 0.56617(10)
H18 H 0.2451 1.0978 0.5133
H19 H 0.3649 1.1329 0.5914
H20 H 0.2644 1.0469 0.6056
B1 B 0.40790(14) 0.73249(14) 0.39989(9)
H21? H 0.4979 0.5348 0.3380
H22? H 0.2798 0.9348 0.4206
loop_
_geom_bond_atom_site_label_1
_geom_bond_atom_site_label_2
_geom_bond_site_symmetry_1
_geom_bond_site_symmetry_2
Cl1 C1 1_555 1_555
Cl2 C5 1_555 1_555
Cl3 C9 1_555 1_555
F1 B1 1_555 1_555
F2 B1 1_555 1_555
O1 C13 1_555 1_555
O2 C13 1_555 1_555
O3 C17 1_555 1_555
O4 C17 1_555 1_555
N1 C1 1_555 1_555
N2 C6 1_555 1_555
C1 C2 1_555 1_555
C2 C3 1_555 1_555
C3 C4 1_555 1_555
C4 N1 1_555 1_555
C5 C4 1_555 1_555
C6 C5 1_555 1_555
C7 C6 1_555 1_555
C8 C7 1_555 1_555
C9 N2 1_555 1_555
C10 C2 1_555 1_555
H1 C10 1_555 1_555
H2 C10 1_555 1_555
H3 C10 1_555 1_555
C11 C3 1_555 1_555
H4 C11 1_555 1_555
H5 C11 1_555 1_555
C12 C11 1_555 1_555
H6 C12 1_555 1_555
H7 C12 1_555 1_555
C13 C12 1_555 1_555
C14 O1 1_555 1_555
H8 C14 1_555 1_555
H9 C14 1_555 1_555
H10 C14 1_555 1_555
C15 C7 1_555 1_555
H11 C15 1_555 1_555
H12 C15 1_555 1_555
C16 C15 1_555 1_555
H13 C16 1_555 1_555
H14 C16 1_555 1_555
C17 C16 1_555 1_555
C18 O3 1_555 1_555
H15 C18 1_555 1_555
H16 C18 1_555 1_555
H17 C18 1_555 1_555
C19 C8 1_555 1_555
H18 C19 1_555 1_555
H19 C19 1_555 1_555
H20 C19 1_555 1_555
B1 N1 1_555 1_555
N2 B1 1_555 1_555
C8 C9 1_555 1_555

#END
