
#######################################################################
#
#                 Cambridge Crystallographic Data Centre
#                                CCDC 
#
#######################################################################
#
# If this CIF has been generated from an entry in the Cambridge 
# Structural Database, then it will include bibliographic, chemical, 
# crystal, experimental, refinement or atomic coordinate data resulting 
# from the CCDC's data processing and validation procedures.
#
#######################################################################

data_SUJJIS
_chemical_formula_moiety         'C33 H41 B1 F2 N2 O4 S1 Si2'
_chemical_name_systematic        
'difluoro(methyl 3-(2-((3-(3-methoxy-3-oxopropyl)-4-methyl-5-((trimethylsilyl)ethynyl)-2H-pyrrol-2-ylidene)(2-thienyl)methyl)-4-methyl-5-((trimethylsilyl)ethynyl)-1H-pyrrol-3-yl)propanoatato)borate'
_symmetry_cell_setting           triclinic
_symmetry_space_group_name_H-M   'P -1'
_symmetry_Int_Tables_number      2
_space_group_name_Hall           '-P 1'
loop_
_symmetry_equiv_pos_site_id
_symmetry_equiv_pos_as_xyz
1 x,y,z
2 -x,-y,-z
_cell_length_a                   10.3477(3)
_cell_length_b                   11.8529(4)
_cell_length_c                   15.2611(4)
_cell_angle_alpha                89.110(3)
_cell_angle_beta                 71.030(3)
_cell_angle_gamma                81.804(2)
_cell_volume                     1751.09
_exptl_crystal_colour            'dark blue'
_exptl_crystal_description       lath
_cell_formula_units_Z            2
loop_
_atom_site_label
_atom_site_type_symbol
_atom_site_fract_x
_atom_site_fract_y
_atom_site_fract_z
S1 S -0.04261(6) 0.49353(6) 0.62314(4)
Si1 Si 0.70814(8) 0.85566(7) 0.18449(5)
Si2 Si 0.68356(9) 0.30695(7) 0.05009(5)
F1 F 0.58064(13) 0.49641(12) 0.31679(9)
F2 F 0.38772(14) 0.56402(12) 0.28237(9)
O1 O -0.18064(19) 0.8122(2) 0.79448(13)
O2 O -0.0067(2) 0.7903(2) 0.85253(13)
O3 O -0.16800(19) 0.20755(16) 0.66571(13)
O4 O -0.0349(2) 0.04004(18) 0.63049(17)
N1 N 0.39261(19) 0.60386(17) 0.43578(13)
N2 N 0.37670(19) 0.40986(17) 0.38836(13)
C1 C 0.4295(2) 0.7088(2) 0.43543(16)
C2 C 0.3601(2) 0.7657(2) 0.52217(17)
C3 C 0.2773(2) 0.6928(2) 0.57746(16)
C4 C 0.2968(2) 0.5903(2) 0.52222(16)
C5 C 0.2391(2) 0.4893(2) 0.54117(15)
C6 C 0.2827(2) 0.3973(2) 0.47548(16)
C7 C 0.2513(2) 0.2832(2) 0.47964(16)
C8 C 0.3266(2) 0.2292(2) 0.39466(17)
C9 C 0.4021(2) 0.3098(2) 0.33993(16)
C10 C 0.5230(3) 0.7534(2) 0.35644(17)
C11 C 0.5994(3) 0.7964(2) 0.29195(18)
C12 C 0.5899(4) 0.9438(3) 0.1324(2)
H1 H 0.5223 0.8981 0.1246
H2 H 0.6435 0.9695 0.0719
H3 H 0.5415 1.0102 0.1734
C13 C 0.8244(5) 0.9415(5) 0.2138(3)
H4 H 0.7696 1.0063 0.2546
H5 H 0.8855 0.9697 0.1569
H6 H 0.8801 0.8942 0.2455
C14 C 0.8056(3) 0.7372(3) 0.1035(2)
H7 H 0.8685 0.6903 0.1302
H8 H 0.8592 0.7675 0.0449
H9 H 0.7414 0.6906 0.0921
C15 C 0.3754(3) 0.8834(2) 0.54717(18)
H10 H 0.2875 0.9337 0.5583
H11 H 0.4471 0.9121 0.4962
H12 H 0.4017 0.8814 0.6034
C16 C 0.1913(2) 0.7223(2) 0.67667(16)
H13 H 0.2317 0.7802 0.7013
H14 H 0.1942 0.6533 0.7138
C17 C 0.0413(2) 0.7681(2) 0.68785(17)
H15 H 0.0380 0.8398 0.6539
H16 H 0.0026 0.7122 0.6597
C18 C -0.0462(3) 0.7908(2) 0.78702(18)
C19 C -0.2753(3) 0.8367(4) 0.8866(2)
H17 H -0.2684 0.7705 0.9249
H18 H -0.3697 0.8536 0.8844
H19 H -0.2526 0.9027 0.9134
C20 C 0.1239(2) 0.47980(19) 0.62817(16)
C21 C 0.1249(2) 0.4614(2) 0.71733(16)
H20 H 0.2060 0.4492 0.7346
C22 C -0.0120(3) 0.4631(2) 0.78040(18)
H21 H -0.0318 0.4542 0.8452
C23 C -0.1108(3) 0.4785(2) 0.73930(18)
H22 H -0.2066 0.4806 0.7715
C24 C 0.1582(2) 0.2243(2) 0.55786(16)
H23 H 0.1282 0.2734 0.6149
H24 H 0.2102 0.1521 0.5696
C25 C 0.0300(2) 0.1984(2) 0.53583(17)
H25 H -0.0239 0.2705 0.5259
H26 H 0.0594 0.1504 0.4782
C26 C -0.0582(3) 0.1374(2) 0.61437(18)
C27 C -0.2567(3) 0.1606(3) 0.7468(2)
H27 H -0.2956 0.0979 0.7281
H28 H -0.3318 0.2201 0.7805
H29 H -0.2033 0.1318 0.7870
C28 C 0.3314(3) 0.1092(2) 0.36410(18)
H30 H 0.3131 0.0607 0.4181
H31 H 0.4231 0.0820 0.3200
H32 H 0.2613 0.1062 0.3342
C29 C 0.4932(3) 0.2943(2) 0.24655(18)
C30 C 0.5708(3) 0.2842(2) 0.16868(18)
C31 C 0.7679(5) 0.4304(4) 0.0628(3)
H33 H 0.6978 0.4920 0.0984
H34 H 0.8161 0.4571 0.0013
H35 H 0.8344 0.4074 0.0954
C32 C 0.8134(3) 0.1809(3) 0.0013(2)
H36 H 0.8696 0.1622 0.0417
H37 H 0.8731 0.1976 -0.0606
H38 H 0.7666 0.1161 -0.0033
C33 C 0.5692(4) 0.3379(3) -0.0218(2)
H39 H 0.5317 0.2688 -0.0297
H40 H 0.6224 0.3631 -0.0827
H41 H 0.4931 0.3982 0.0089
B1 B 0.4384(3) 0.5195(2) 0.35134(18)
loop_
_geom_bond_atom_site_label_1
_geom_bond_atom_site_label_2
_geom_bond_site_symmetry_1
_geom_bond_site_symmetry_2
S1 C20 1_555 1_555
Si1 C11 1_555 1_555
Si2 C30 1_555 1_555
F1 B1 1_555 1_555
F2 B1 1_555 1_555
O1 C18 1_555 1_555
O2 C18 1_555 1_555
O3 C26 1_555 1_555
O4 C26 1_555 1_555
N1 C1 1_555 1_555
N2 C6 1_555 1_555
C1 C2 1_555 1_555
C2 C3 1_555 1_555
C3 C4 1_555 1_555
C4 N1 1_555 1_555
C5 C4 1_555 1_555
C6 C5 1_555 1_555
C7 C6 1_555 1_555
C8 C7 1_555 1_555
C9 N2 1_555 1_555
C10 C1 1_555 1_555
C11 C10 1_555 1_555
C12 Si1 1_555 1_555
H1 C12 1_555 1_555
H2 C12 1_555 1_555
H3 C12 1_555 1_555
C13 Si1 1_555 1_555
H4 C13 1_555 1_555
H5 C13 1_555 1_555
H6 C13 1_555 1_555
C14 Si1 1_555 1_555
H7 C14 1_555 1_555
H8 C14 1_555 1_555
H9 C14 1_555 1_555
C15 C2 1_555 1_555
H10 C15 1_555 1_555
H11 C15 1_555 1_555
H12 C15 1_555 1_555
C16 C3 1_555 1_555
H13 C16 1_555 1_555
H14 C16 1_555 1_555
C17 C16 1_555 1_555
H15 C17 1_555 1_555
H16 C17 1_555 1_555
C18 C17 1_555 1_555
C19 O1 1_555 1_555
H17 C19 1_555 1_555
H18 C19 1_555 1_555
H19 C19 1_555 1_555
C20 C5 1_555 1_555
C21 C20 1_555 1_555
H20 C21 1_555 1_555
C22 C21 1_555 1_555
H21 C22 1_555 1_555
C23 S1 1_555 1_555
H22 C23 1_555 1_555
C24 C7 1_555 1_555
H23 C24 1_555 1_555
H24 C24 1_555 1_555
C25 C24 1_555 1_555
H25 C25 1_555 1_555
H26 C25 1_555 1_555
C26 C25 1_555 1_555
C27 O3 1_555 1_555
H27 C27 1_555 1_555
H28 C27 1_555 1_555
H29 C27 1_555 1_555
C28 C8 1_555 1_555
H30 C28 1_555 1_555
H31 C28 1_555 1_555
H32 C28 1_555 1_555
C29 C9 1_555 1_555
C30 C29 1_555 1_555
C31 Si2 1_555 1_555
H33 C31 1_555 1_555
H34 C31 1_555 1_555
H35 C31 1_555 1_555
C32 Si2 1_555 1_555
H36 C32 1_555 1_555
H37 C32 1_555 1_555
H38 C32 1_555 1_555
C33 Si2 1_555 1_555
H39 C33 1_555 1_555
H40 C33 1_555 1_555
H41 C33 1_555 1_555
B1 N1 1_555 1_555
N2 B1 1_555 1_555
C8 C9 1_555 1_555
C22 C23 1_555 1_555

#END
