
#######################################################################
#
#                 Cambridge Crystallographic Data Centre
#                                CCDC 
#
#######################################################################
#
# If this CIF has been generated from an entry in the Cambridge 
# Structural Database, then it will include bibliographic, chemical, 
# crystal, experimental, refinement or atomic coordinate data resulting 
# from the CCDC's data processing and validation procedures.
#
#######################################################################

data_SUJJEO
_chemical_formula_moiety         'C24 H29 B1 Cl2 F2 N2 O4 Si1'
_chemical_name_systematic        
'difluoro(methyl 3-(5-chloro-2-(1-(5-chloro-3-(3-methoxy-3-oxopropyl)-4-methyl-2H-pyrrol-2-ylidene)-3-(trimethylsilyl)prop-2-yn-1-yl)-4-methyl-1H-pyrrol-3-yl)propanoatato)borate'
_symmetry_cell_setting           monoclinic
_symmetry_space_group_name_H-M   'P 21/c'
_symmetry_Int_Tables_number      14
_space_group_name_Hall           '-P 2ybc'
loop_
_symmetry_equiv_pos_site_id
_symmetry_equiv_pos_as_xyz
1 x,y,z
2 -x,1/2+y,1/2-z
3 -x,-y,-z
4 x,1/2-y,1/2+z
_cell_length_a                   12.2118(6)
_cell_length_b                   11.8622(5)
_cell_length_c                   19.9913(10)
_cell_angle_alpha                90
_cell_angle_beta                 106.216(2)
_cell_angle_gamma                90
_cell_volume                     2780.7
_exptl_crystal_colour            'dark red'
_exptl_crystal_description       plate
_cell_formula_units_Z            4
loop_
_atom_site_label
_atom_site_type_symbol
_atom_site_fract_x
_atom_site_fract_y
_atom_site_fract_z
Si1 Si 0.71715(7) 0.04365(5) 0.32546(4)
Cl1 Cl 0.94081(5) 0.73927(5) 0.50865(3)
Cl2 Cl 0.95482(6) 0.71648(5) 0.20999(3)
F1 F 1.01760(13) 0.68891(12) 0.37332(7)
F2 F 0.82970(13) 0.73400(11) 0.33729(7)
O1 O 0.45899(17) 0.23740(17) 0.44301(12)
O2 O 0.61871(17) 0.14787(15) 0.50122(10)
O3 O 0.47231(16) 0.23898(16) 0.12687(11)
O4 O 0.62071(15) 0.13811(14) 0.11563(9)
N1 N 0.88460(16) 0.57543(15) 0.41354(9)
N2 N 0.89088(17) 0.56574(15) 0.29065(10)
C1 C 0.8898(2) 0.60951(18) 0.47832(11)
C2 C 0.8463(2) 0.52962(19) 0.51559(12)
C3 C 0.8142(2) 0.43784(19) 0.47098(12)
C4 C 0.8378(2) 0.46693(18) 0.40713(12)
C5 C 0.82179(19) 0.40780(18) 0.34413(12)
C6 C 0.8470(2) 0.45609(18) 0.28622(12)
C7 C 0.8367(2) 0.41388(19) 0.21806(12)
C8 C 0.8769(2) 0.4973(2) 0.18198(12)
C9 C 0.9071(2) 0.58787(19) 0.22833(12)
C10 C 0.8359(2) 0.5447(2) 0.58807(12)
H1 H 0.9111 0.5619 0.6198
H2 H 0.8065 0.4751 0.6031
H3 H 0.7834 0.6069 0.5887
C11 C 0.7585(2) 0.33276(19) 0.48765(12)
H4 H 0.7756 0.3249 0.5388
H5 H 0.7907 0.2664 0.4698
C12 C 0.6295(2) 0.3352(2) 0.45559(13)
H6 H 0.5976 0.4007 0.4744
H7 H 0.6129 0.3455 0.4046
C13 C 0.5714(2) 0.2295(2) 0.46980(13)
C14 C 0.3927(3) 0.1406(3) 0.4532(2)
H8 H 0.4188 0.0732 0.4337
H9 H 0.3119 0.1536 0.4297
H10 H 0.4029 0.1294 0.5032
C15 C 0.7796(2) 0.30818(19) 0.18461(12)
H11 H 0.8044 0.2435 0.2165
H12 H 0.8011 0.2928 0.1412
C16 C 0.6510(2) 0.3232(2) 0.16811(12)
H13 H 0.6315 0.3403 0.2119
H14 H 0.6281 0.3889 0.1368
C17 C 0.5832(2) 0.2223(2) 0.13440(12)
C18 C 0.3975(3) 0.1485(3) 0.09434(18)
H15 H 0.3989 0.1407 0.0458
H16 H 0.3196 0.1654 0.0958
H17 H 0.4231 0.0780 0.1194
C19 C 0.8865(2) 0.4920(2) 0.10900(12)
H18 H 0.9111 0.5654 0.0960
H19 H 0.8121 0.4726 0.0771
H20 H 0.9425 0.4344 0.1061
C20 C 0.7829(2) 0.2932(2) 0.33968(11)
C21 C 0.7541(2) 0.1956(2) 0.33473(12)
C22 C 0.5603(3) 0.0344(3) 0.29456(18)
H21 H 0.5273 0.0660 0.3299
H22 H 0.5375 -0.0447 0.2863
H23 H 0.5328 0.0770 0.2511
C23 C 0.7726(3) -0.0205(2) 0.41265(15)
H24 H 0.7362 0.0151 0.4452
H25 H 0.8553 -0.0093 0.4292
H26 H 0.7557 -0.1014 0.4098
C24 C 0.7844(3) -0.0160(2) 0.26085(14)
H27 H 0.7659 -0.0963 0.2543
H28 H 0.8674 -0.0067 0.2777
H29 H 0.7556 0.0236 0.2164
B1 B 0.9085(2) 0.6478(2) 0.35387(13)
loop_
_geom_bond_atom_site_label_1
_geom_bond_atom_site_label_2
_geom_bond_site_symmetry_1
_geom_bond_site_symmetry_2
Si1 C21 1_555 1_555
Cl1 C1 1_555 1_555
Cl2 C9 1_555 1_555
F1 B1 1_555 1_555
F2 B1 1_555 1_555
O1 C13 1_555 1_555
O2 C13 1_555 1_555
O3 C17 1_555 1_555
O4 C17 1_555 1_555
N1 C1 1_555 1_555
N2 C6 1_555 1_555
C1 C2 1_555 1_555
C2 C3 1_555 1_555
C3 C4 1_555 1_555
C4 N1 1_555 1_555
C5 C4 1_555 1_555
C6 C5 1_555 1_555
C7 C6 1_555 1_555
C8 C7 1_555 1_555
C9 N2 1_555 1_555
C10 C2 1_555 1_555
H1 C10 1_555 1_555
H2 C10 1_555 1_555
H3 C10 1_555 1_555
C11 C3 1_555 1_555
H4 C11 1_555 1_555
H5 C11 1_555 1_555
C12 C11 1_555 1_555
H6 C12 1_555 1_555
H7 C12 1_555 1_555
C13 C12 1_555 1_555
C14 O1 1_555 1_555
H8 C14 1_555 1_555
H9 C14 1_555 1_555
H10 C14 1_555 1_555
C15 C7 1_555 1_555
H11 C15 1_555 1_555
H12 C15 1_555 1_555
C16 C15 1_555 1_555
H13 C16 1_555 1_555
H14 C16 1_555 1_555
C17 C16 1_555 1_555
C18 O3 1_555 1_555
H15 C18 1_555 1_555
H16 C18 1_555 1_555
H17 C18 1_555 1_555
C19 C8 1_555 1_555
H18 C19 1_555 1_555
H19 C19 1_555 1_555
H20 C19 1_555 1_555
C20 C5 1_555 1_555
C21 C20 1_555 1_555
C22 Si1 1_555 1_555
H21 C22 1_555 1_555
H22 C22 1_555 1_555
H23 C22 1_555 1_555
C23 Si1 1_555 1_555
H24 C23 1_555 1_555
H25 C23 1_555 1_555
H26 C23 1_555 1_555
C24 Si1 1_555 1_555
H27 C24 1_555 1_555
H28 C24 1_555 1_555
H29 C24 1_555 1_555
B1 N1 1_555 1_555
N2 B1 1_555 1_555
C8 C9 1_555 1_555

#END
