
#######################################################################
#
#                 Cambridge Crystallographic Data Centre
#                                CCDC 
#
#######################################################################
#
# If this CIF has been generated from an entry in the Cambridge 
# Structural Database, then it will include bibliographic, chemical, 
# crystal, experimental, refinement or atomic coordinate data resulting 
# from the CCDC's data processing and validation procedures.
#
#######################################################################

data_SUJKIT
_chemical_formula_moiety         'C29 H38 B1 Cl1 F2 N2 O4 Si2'
_chemical_name_systematic        
'difluoro(methyl 3-(2-(1-(5-chloro-3-(3-methoxy-3-oxopropyl)-4-methyl-2H-pyrrol-2-ylidene)-3-(trimethylsilyl)prop-2-yn-1-yl)-4-methyl-5-((trimethylsilyl)ethynyl)-1H-pyrrol-3-yl)propanoatato)borate'
_symmetry_cell_setting           monoclinic
_symmetry_space_group_name_H-M   'P 21/c'
_symmetry_Int_Tables_number      14
_space_group_name_Hall           '-P 2ybc'
loop_
_symmetry_equiv_pos_site_id
_symmetry_equiv_pos_as_xyz
1 x,y,z
2 -x,1/2+y,1/2-z
3 -x,-y,-z
4 x,1/2-y,1/2+z
_cell_length_a                   12.9614(8)
_cell_length_b                   11.0262(6)
_cell_length_c                   23.1458(14)
_cell_angle_alpha                90
_cell_angle_beta                 104.620(3)
_cell_angle_gamma                90
_cell_volume                     3200.78
_exptl_crystal_colour            'dark purple'
_exptl_crystal_description       plate
_cell_formula_units_Z            4
loop_
_atom_site_label
_atom_site_type_symbol
_atom_site_fract_x
_atom_site_fract_y
_atom_site_fract_z
Si1 Si 0.60191(6) 0.37551(7) 0.34646(3)
Si2 Si 0.91263(6) -0.25252(6) 0.76772(3)
Cl1 Cl 0.34956(6) 0.02182(6) 0.63793(3)
F1 F 0.56683(12) -0.09371(12) 0.62774(6)
F2 F 0.60777(12) 0.08306(13) 0.67785(6)
O1 O 0.38936(16) 0.56883(18) 0.40169(9)
O2 O 0.22320(17) 0.5109(3) 0.38950(11)
O3 O 0.96921(14) 0.31052(17) 0.44099(9)
O4 O 0.88666(15) 0.48342(16) 0.45342(9)
N1 N 0.49105(16) 0.09093(18) 0.57886(9)
N2 N 0.68259(16) 0.04468(17) 0.59411(8)
C1 C 0.3894(2) 0.0959(2) 0.58292(12)
C2 C 0.3248(2) 0.1667(2) 0.53802(12)
C3 C 0.38961(19) 0.2083(2) 0.50339(11)
C4 C 0.49425(19) 0.1616(2) 0.52902(10)
C5 C 0.59074(19) 0.1750(2) 0.51320(10)
C6 C 0.68454(19) 0.1159(2) 0.54542(10)
C7 C 0.78892(19) 0.1121(2) 0.53606(10)
C8 C 0.84872(19) 0.0365(2) 0.57998(11)
C9 C 0.7816(2) -0.0033(2) 0.61495(11)
C10 C 0.2084(2) 0.1917(3) 0.53037(14)
H1 H 0.1997 0.2691 0.5494
H2 H 0.1768 0.1265 0.5490
H3 H 0.1726 0.1957 0.4877
C11 C 0.3525(2) 0.2893(2) 0.45050(11)
H4 H 0.2789 0.2669 0.4290
H5 H 0.3988 0.2779 0.4228
C12 C 0.3552(2) 0.4229(2) 0.46938(12)
H6 H 0.3109 0.4339 0.4981
H7 H 0.4294 0.4462 0.4895
C13 C 0.3142(2) 0.5035(2) 0.41623(12)
C14 C 0.3540(3) 0.6462(3) 0.35002(14)
H8 H 0.3292 0.5960 0.3143
H9 H 0.4133 0.6973 0.3455
H10 H 0.2954 0.6977 0.3553
C15 C 0.59586(19) 0.2482(2) 0.46285(11)
C16 C 0.6012(2) 0.3053(2) 0.41954(12)
C17 C 0.7072(3) 0.2995(3) 0.31833(14)
H11 H 0.7760 0.3084 0.3476
H12 H 0.7111 0.3367 0.2805
H13 H 0.6901 0.2131 0.3120
C18 C 0.6305(3) 0.5397(3) 0.35884(15)
H14 H 0.5817 0.5746 0.3805
H15 H 0.6206 0.5806 0.3202
H16 H 0.7042 0.5505 0.3823
C19 C 0.4680(2) 0.3471(3) 0.29644(13)
H17 H 0.4563 0.2595 0.2914
H18 H 0.4634 0.3844 0.2575
H19 H 0.4135 0.3823 0.3140
C20 C 0.83233(19) 0.1758(2) 0.49048(11)
H20 H 0.7781 0.1757 0.4517
H21 H 0.8959 0.1319 0.4851
C21 C 0.8632(2) 0.3075(2) 0.50931(11)
H22 H 0.7997 0.3498 0.5157
H23 H 0.9178 0.3064 0.5479
C22 C 0.90578(19) 0.3785(2) 0.46532(12)
C23 C 1.0193(3) 0.3730(3) 0.40077(17)
H24 H 0.9644 0.4070 0.3676
H25 H 1.0635 0.3159 0.3851
H26 H 1.0641 0.4386 0.4221
C24 C 0.9633(2) 0.0006(2) 0.58942(13)
H27 H 0.9697 -0.0590 0.5591
H28 H 0.9891 -0.0351 0.6292
H29 H 1.0060 0.0724 0.5861
C25 C 0.8126(2) -0.0831(2) 0.66528(11)
C26 C 0.8516(2) -0.1499(2) 0.70533(12)
C27 C 0.8557(4) -0.4041(3) 0.75021(18)
H30 H 0.7820 -0.4046 0.7539
H31 H 0.8980 -0.4631 0.7781
H32 H 0.8567 -0.4257 0.7093
C28 C 1.0574(3) -0.2512(5) 0.7775(2)
H33 H 1.0913 -0.3040 0.8110
H34 H 1.0842 -0.1682 0.7858
H35 H 1.0742 -0.2806 0.7410
C29 C 0.8780(5) -0.1962(4) 0.83510(17)
H36 H 0.8003 -0.1911 0.8278
H37 H 0.9092 -0.1156 0.8451
H38 H 0.9061 -0.2519 0.8683
B1 B 0.5875(2) 0.0272(2) 0.62274(12)
loop_
_geom_bond_atom_site_label_1
_geom_bond_atom_site_label_2
_geom_bond_site_symmetry_1
_geom_bond_site_symmetry_2
Si1 C16 1_555 1_555
Si2 C26 1_555 1_555
Cl1 C1 1_555 1_555
F1 B1 1_555 1_555
F2 B1 1_555 1_555
O1 C13 1_555 1_555
O2 C13 1_555 1_555
O3 C22 1_555 1_555
O4 C22 1_555 1_555
N1 C1 1_555 1_555
N2 C6 1_555 1_555
C1 C2 1_555 1_555
C2 C3 1_555 1_555
C3 C4 1_555 1_555
C4 N1 1_555 1_555
C5 C4 1_555 1_555
C6 C5 1_555 1_555
C7 C6 1_555 1_555
C8 C7 1_555 1_555
C9 N2 1_555 1_555
C10 C2 1_555 1_555
H1 C10 1_555 1_555
H2 C10 1_555 1_555
H3 C10 1_555 1_555
C11 C3 1_555 1_555
H4 C11 1_555 1_555
H5 C11 1_555 1_555
C12 C11 1_555 1_555
H6 C12 1_555 1_555
H7 C12 1_555 1_555
C13 C12 1_555 1_555
C14 O1 1_555 1_555
H8 C14 1_555 1_555
H9 C14 1_555 1_555
H10 C14 1_555 1_555
C15 C5 1_555 1_555
C16 C15 1_555 1_555
C17 Si1 1_555 1_555
H11 C17 1_555 1_555
H12 C17 1_555 1_555
H13 C17 1_555 1_555
C18 Si1 1_555 1_555
H14 C18 1_555 1_555
H15 C18 1_555 1_555
H16 C18 1_555 1_555
C19 Si1 1_555 1_555
H17 C19 1_555 1_555
H18 C19 1_555 1_555
H19 C19 1_555 1_555
C20 C7 1_555 1_555
H20 C20 1_555 1_555
H21 C20 1_555 1_555
C21 C20 1_555 1_555
H22 C21 1_555 1_555
H23 C21 1_555 1_555
C22 C21 1_555 1_555
C23 O3 1_555 1_555
H24 C23 1_555 1_555
H25 C23 1_555 1_555
H26 C23 1_555 1_555
C24 C8 1_555 1_555
H27 C24 1_555 1_555
H28 C24 1_555 1_555
H29 C24 1_555 1_555
C25 C9 1_555 1_555
C26 C25 1_555 1_555
C27 Si2 1_555 1_555
H30 C27 1_555 1_555
H31 C27 1_555 1_555
H32 C27 1_555 1_555
C28 Si2 1_555 1_555
H33 C28 1_555 1_555
H34 C28 1_555 1_555
H35 C28 1_555 1_555
C29 Si2 1_555 1_555
H36 C29 1_555 1_555
H37 C29 1_555 1_555
H38 C29 1_555 1_555
B1 N1 1_555 1_555
N2 B1 1_555 1_555
C8 C9 1_555 1_555

#END
