
#######################################################################
#
#                 Cambridge Crystallographic Data Centre
#                                CCDC 
#
#######################################################################
#
# If this CIF has been generated from an entry in the Cambridge 
# Structural Database, then it will include bibliographic, chemical, 
# crystal, experimental, refinement or atomic coordinate data resulting 
# from the CCDC's data processing and validation procedures.
#
#######################################################################

data_SUJKEP
_chemical_formula_moiety         'C36 H39 B1 F2 N2 O4 Si1'
_chemical_name_systematic        
'difluoro(methyl 3-(2-(1-(3-(3-methoxy-3-oxopropyl)-4-methyl-5-phenyl-2H-pyrrol-2-ylidene)-3-(trimethylsilyl)prop-2-yn-1-yl)-4-methyl-5-phenyl-1H-pyrrol-3-yl)propanoatato)borate'
_symmetry_cell_setting           triclinic
_symmetry_space_group_name_H-M   'P -1'
_symmetry_Int_Tables_number      2
_space_group_name_Hall           '-P 1'
loop_
_symmetry_equiv_pos_site_id
_symmetry_equiv_pos_as_xyz
1 x,y,z
2 -x,-y,-z
_cell_length_a                   12.1354(5)
_cell_length_b                   13.2882(6)
_cell_length_c                   21.2741(10)
_cell_angle_alpha                76.767(3)
_cell_angle_beta                 88.504(2)
_cell_angle_gamma                78.660(3)
_cell_volume                     3273.68
_exptl_crystal_colour            red
_cell_formula_units_Z            4
loop_
_atom_site_label
_atom_site_type_symbol
_atom_site_fract_x
_atom_site_fract_y
_atom_site_fract_z
Si1 Si 0.58382(6) 0.59757(6) 0.74450(3)
F1 F 1.05198(11) 0.20423(11) 0.54892(6)
F2 F 1.09346(10) 0.35552(11) 0.56677(6)
O1 O 0.88904(14) 0.44356(13) 0.91812(8)
O2 O 0.77890(14) 0.32489(13) 0.92488(8)
O3 O 0.54192(19) 0.82756(16) 0.51704(13)
O4 O 0.44791(18) 0.70049(17) 0.55153(12)
N1 N 0.99466(14) 0.25291(14) 0.64917(8)
N2 N 0.90054(15) 0.35335(15) 0.54497(9)
C1 C 1.05716(18) 0.17321(17) 0.69337(11)
C2 C 1.01094(19) 0.17100(17) 0.75530(10)
C3 C 0.91829(18) 0.25280(17) 0.74853(11)
C4 C 0.90743(17) 0.30346(17) 0.68178(10)
C5 C 0.82235(17) 0.38252(17) 0.64648(11)
C6 C 0.81667(18) 0.40501(18) 0.57866(11)
C7 C 0.73119(19) 0.46712(17) 0.53351(11)
C8 C 0.7642(2) 0.44995(19) 0.47354(11)
C9 C 0.86966(19) 0.38026(18) 0.48160(11)
C10 C 1.15839(19) 0.10175(18) 0.67778(11)
C11 C 1.2471(2) 0.1393(2) 0.64410(12)
H1 H 1.2428 0.2130 0.6288
C12 C 1.3413(2) 0.0692(2) 0.63300(13)
H2 H 1.4017 0.0951 0.6098
C13 C 1.3491(2) -0.0376(2) 0.65499(15)
H3 H 1.4147 -0.0851 0.6473
C14 C 1.2612(2) -0.0756(2) 0.68825(16)
H4 H 1.2663 -0.1494 0.7034
C15 C 1.1658(2) -0.0067(2) 0.69967(13)
H5 H 1.1053 -0.0332 0.7224
C16 C 1.0567(2) 0.09714(19) 0.81711(11)
H6 H 1.0648 0.1376 0.8493
H7 H 1.1302 0.0561 0.8096
H8 H 1.0049 0.0493 0.8330
C17 C 0.84987(18) 0.27950(17) 0.80448(10)
H9 H 0.8499 0.2144 0.8382
H10 H 0.7712 0.3101 0.7898
C18 C 0.89755(18) 0.35819(18) 0.83305(10)
H11 H 0.9798 0.3338 0.8393
H12 H 0.8840 0.4275 0.8019
C19 C 0.84651(18) 0.37144(17) 0.89637(10)
C20 C 0.8476(2) 0.4628(2) 0.97904(12)
H13 H 0.7656 0.4852 0.9762
H14 H 0.8810 0.5184 0.9897
H15 H 0.8679 0.3980 1.0128
C21 C 0.74036(19) 0.44287(18) 0.68034(11)
C22 C 0.6762(2) 0.50048(19) 0.70697(11)
C23 C 0.6251(3) 0.5675(3) 0.83101(14)
H16 H 0.6196 0.4946 0.8511
H17 H 0.5749 0.6155 0.8528
H18 H 0.7027 0.5764 0.8349
C24 C 0.4355(2) 0.5911(2) 0.73132(14)
H19 H 0.4178 0.6103 0.6849
H20 H 0.3861 0.6403 0.7527
H21 H 0.4239 0.5193 0.7494
C25 C 0.6094(2) 0.7306(2) 0.70555(14)
H22 H 0.6886 0.7328 0.7117
H23 H 0.5617 0.7833 0.7251
H24 H 0.5915 0.7460 0.6593
C26 C 0.6255(2) 0.54045(18) 0.54399(12)
H25 H 0.5984 0.5157 0.5881
H26 H 0.5668 0.5395 0.5128
C27 C 0.6439(2) 0.65270(19) 0.53576(12)
H27 H 0.6943 0.6550 0.5710
H28 H 0.6820 0.6730 0.4944
C28 C 0.5367(3) 0.7316(2) 0.53629(12)
C29 C 0.4374(5) 0.9088(4) 0.5080(3)
H29 H 0.3907 0.8989 0.4739
H30 H 0.4564 0.9790 0.4956
H31 H 0.3961 0.9023 0.5484
C30 C 0.7018(2) 0.4988(2) 0.41051(12)
H32 H 0.6213 0.5004 0.4168
H33 H 0.7292 0.4571 0.3788
H34 H 0.7143 0.5709 0.3948
C31 C 0.9381(2) 0.34332(18) 0.42966(11)
C32 C 1.0551(2) 0.2823(2) 0.32629(13)
H35 H 1.0977 0.2591 0.2924
C33 C 1.0344(3) 0.3757(3) 0.4129(2)
H36 H 1.0627 0.4183 0.4364
C34 C 1.0928(4) 0.3461(4) 0.3605(2)
H37 H 1.1604 0.3706 0.3480
C35 C 0.9494(5) 0.2565(4) 0.3418(2)
H38 H 0.9188 0.2171 0.3170
C36 C 0.8885(4) 0.2876(4) 0.39298(19)
H39 H 0.8161 0.2717 0.4027
B1 B 1.0157(2) 0.2900(2) 0.57565(12)
Si2 Si 0.54834(5) 0.69711(5) 0.03045(3)
F3 F 0.24013(10) 1.13586(10) 0.22425(6)
F4 F 0.09204(10) 1.05379(10) 0.24722(6)
O5 O 0.75580(15) 0.63890(15) 0.26447(10)
O6 O 0.78979(15) 0.72138(18) 0.16467(9)
O7 O 0.46286(14) 0.95881(15) -0.12313(9)
O8 O 0.30248(15) 0.90659(19) -0.12626(10)
N3 N 0.27733(13) 0.94629(13) 0.24529(8)
N4 N 0.17909(13) 1.05545(13) 0.14415(8)
C42 C 0.30510(17) 0.90491(17) 0.30815(10)
C43 C 0.39252(19) 0.81545(18) 0.31368(11)
C44 C 0.42138(17) 0.80463(17) 0.25188(10)
C45 C 0.34686(16) 0.88618(16) 0.20856(10)
C46 C 0.32941(16) 0.90650(16) 0.14138(10)
C47 C 0.24175(16) 0.98696(16) 0.11005(10)
C48 C 0.19621(16) 1.01210(16) 0.04598(10)
C49 C 0.10639(17) 1.09665(17) 0.04273(10)
C50 C 0.09848(16) 1.12215(16) 0.10349(10)
C51 C 0.25278(18) 0.94943(17) 0.36200(10)
C52 C 0.2688(7) 1.0429(5) 0.3717(3)
H47 H 0.3104 1.0840 0.3412
C53 C 0.2260(8) 1.0801(5) 0.4249(3)
H48 H 0.2401 1.1451 0.4309
C54 C 0.1425(5) 0.9279(5) 0.4599(3)
H49 H 0.0978 0.8896 0.4899
C55 C 0.1875(5) 0.8901(5) 0.4068(3)
H50 H 0.1746 0.8247 0.4007
C56 C 0.1651(2) 1.0252(2) 0.46802(13)
H51 H 0.1327 1.0532 0.5030
C57 C 0.4444(2) 0.7462(2) 0.37622(11)
H52 H 0.4261 0.6760 0.3820
H53 H 0.4146 0.7773 0.4122
H54 H 0.5262 0.7401 0.3751
C58 C 0.52026(17) 0.72768(17) 0.23648(11)
H55 H 0.4998 0.6974 0.2010
H56 H 0.5423 0.6693 0.2749
C59 C 0.61957(18) 0.78371(18) 0.21615(11)
H57 H 0.6005 0.8337 0.1739
H58 H 0.6288 0.8255 0.2480
C60 C 0.73003(19) 0.71217(19) 0.21061(12)
C61 C 0.8647(2) 0.5701(2) 0.26834(17)
H59 H 0.8763 0.5423 0.2293
H60 H 0.8685 0.5115 0.3063
H61 H 0.9234 0.6098 0.2721
C62 C 0.40118(17) 0.84279(17) 0.10455(10)
C63 C 0.46286(17) 0.79037(17) 0.07399(10)
C64 C 0.6177(2) 0.5804(2) 0.09247(13)
H62 H 0.6735 0.6008 0.1170
H63 H 0.6550 0.5251 0.0712
H64 H 0.5611 0.5537 0.1219
C65 C 0.6563(2) 0.7594(2) -0.01769(14)
H65 H 0.6205 0.8276 -0.0448
H66 H 0.6936 0.7135 -0.0452
H67 H 0.7119 0.7702 0.0114
C66 C 0.4503(2) 0.6596(2) -0.02123(12)
H68 H 0.3899 0.6338 0.0052
H69 H 0.4911 0.6039 -0.0411
H70 H 0.4181 0.7212 -0.0551
C67 C 0.23272(17) 0.95983(17) -0.00871(10)
H71 H 0.1673 0.9692 -0.0378
H72 H 0.2586 0.8833 0.0089
C68 C 0.32756(18) 1.00401(17) -0.04802(10)
H73 H 0.3025 1.0807 -0.0654
H74 H 0.3939 0.9934 -0.0194
C69 C 0.35997(18) 0.95086(17) -0.10272(10)
C70 C 0.4974(2) 0.9127(2) -0.17800(15)
H75 H 0.4824 0.8410 -0.1694
H76 H 0.5779 0.9103 -0.1848
H77 H 0.4550 0.9556 -0.2167
C71 C 0.03339(19) 1.15415(19) -0.01524(11)
H78 H 0.0780 1.1925 -0.0478
H79 H -0.0288 1.2042 -0.0025
H80 H 0.0033 1.1034 -0.0333
C72 C 0.01645(17) 1.20777(16) 0.12359(10)
C73 C -0.09686(18) 1.20274(18) 0.12546(11)
H81 H -0.1214 1.1461 0.1133
C74 C -0.17439(19) 1.28106(19) 0.14516(11)
H82 H -0.2517 1.2769 0.1475
C75 C -0.13945(19) 1.36445(18) 0.16121(11)
H83 H -0.1925 1.4175 0.1749
C76 C -0.0271(2) 1.37099(19) 0.15742(12)
H84 H -0.0034 1.4295 0.1676
C77 C 0.05113(19) 1.29252(18) 0.13881(11)
H85 H 0.1284 1.2970 0.1365
B2 B 0.1940(2) 1.05165(19) 0.21705(12)
C37? C 0.3497(5) 0.7743(5) 0.5418(3)
H40? H 0.3660 0.8434 0.5210
H41? H 0.3143 0.7776 0.5834
H42? H 0.2985 0.7545 0.5139
C38? C 1.0139(8) 0.4010(8) 0.3932(5)
H43? H 1.0260 0.4626 0.4052
C39? C 1.0708(8) 0.3725(8) 0.3413(6)
H44? H 1.1192 0.4142 0.3169
C40? C 1.0024(9) 0.2094(9) 0.3647(5)
H45? H 1.0039 0.1421 0.3561
C41? C 0.9465(8) 0.2401(7) 0.4171(5)
H46? H 0.9121 0.1904 0.4462
C78? C 0.3166(6) 1.0061(7) 0.3923(4)
H86? H 0.3883 1.0173 0.3769
C79? C 0.2705(6) 1.0442(7) 0.4450(4)
H87? H 0.3104 1.0832 0.4654
C80? C 0.1078(8) 0.9785(10) 0.4343(5)
H88? H 0.0330 0.9726 0.4463
C81? C 0.1522(8) 0.9383(10) 0.3826(5)
H89? H 0.1094 0.9021 0.3619
loop_
_geom_bond_atom_site_label_1
_geom_bond_atom_site_label_2
_geom_bond_site_symmetry_1
_geom_bond_site_symmetry_2
Si1 C22 1_555 1_555
F1 B1 1_555 1_555
F2 B1 1_555 1_555
O1 C19 1_555 1_555
O2 C19 1_555 1_555
O3 C28 1_555 1_555
O4 C28 1_555 1_555
N1 C1 1_555 1_555
N2 C6 1_555 1_555
C1 C2 1_555 1_555
C2 C3 1_555 1_555
C3 C4 1_555 1_555
C4 N1 1_555 1_555
C5 C4 1_555 1_555
C6 C5 1_555 1_555
C7 C6 1_555 1_555
C8 C7 1_555 1_555
C9 N2 1_555 1_555
C10 C1 1_555 1_555
C11 C10 1_555 1_555
H1 C11 1_555 1_555
C12 C11 1_555 1_555
H2 C12 1_555 1_555
C13 C12 1_555 1_555
H3 C13 1_555 1_555
C14 C13 1_555 1_555
H4 C14 1_555 1_555
C15 C10 1_555 1_555
H5 C15 1_555 1_555
C16 C2 1_555 1_555
H6 C16 1_555 1_555
H7 C16 1_555 1_555
H8 C16 1_555 1_555
C17 C3 1_555 1_555
H9 C17 1_555 1_555
H10 C17 1_555 1_555
C18 C17 1_555 1_555
H11 C18 1_555 1_555
H12 C18 1_555 1_555
C19 C18 1_555 1_555
C20 O1 1_555 1_555
H13 C20 1_555 1_555
H14 C20 1_555 1_555
H15 C20 1_555 1_555
C21 C5 1_555 1_555
C22 C21 1_555 1_555
C23 Si1 1_555 1_555
H16 C23 1_555 1_555
H17 C23 1_555 1_555
H18 C23 1_555 1_555
C24 Si1 1_555 1_555
H19 C24 1_555 1_555
H20 C24 1_555 1_555
H21 C24 1_555 1_555
C25 Si1 1_555 1_555
H22 C25 1_555 1_555
H23 C25 1_555 1_555
H24 C25 1_555 1_555
C26 C7 1_555 1_555
H25 C26 1_555 1_555
H26 C26 1_555 1_555
C27 C26 1_555 1_555
H27 C27 1_555 1_555
H28 C27 1_555 1_555
C28 C27 1_555 1_555
C29 O3 1_555 1_555
H29 C29 1_555 1_555
H30 C29 1_555 1_555
H31 C29 1_555 1_555
C30 C8 1_555 1_555
H32 C30 1_555 1_555
H33 C30 1_555 1_555
H34 C30 1_555 1_555
C31 C9 1_555 1_555
C32 H35 1_555 1_555
C33 C31 1_555 1_555
H36 C33 1_555 1_555
C34 C32 1_555 1_555
H37 C34 1_555 1_555
C35 C32 1_555 1_555
H38 C35 1_555 1_555
C36 C31 1_555 1_555
H39 C36 1_555 1_555
B1 N1 1_555 1_555
Si2 C63 1_555 1_555
F3 B2 1_555 1_555
F4 B2 1_555 1_555
O5 C60 1_555 1_555
O6 C60 1_555 1_555
O7 C69 1_555 1_555
O8 C69 1_555 1_555
N3 C42 1_555 1_555
N4 C47 1_555 1_555
C42 C43 1_555 1_555
C43 C44 1_555 1_555
C44 C45 1_555 1_555
C45 N3 1_555 1_555
C46 C45 1_555 1_555
C47 C46 1_555 1_555
C48 C47 1_555 1_555
C49 C48 1_555 1_555
C50 N4 1_555 1_555
C51 C42 1_555 1_555
C52 C51 1_555 1_555
H47 C52 1_555 1_555
C53 C52 1_555 1_555
H48 C53 1_555 1_555
C54 H49 1_555 1_555
C55 C51 1_555 1_555
H50 C55 1_555 1_555
C56 C53 1_555 1_555
H51 C56 1_555 1_555
C57 C43 1_555 1_555
H52 C57 1_555 1_555
H53 C57 1_555 1_555
H54 C57 1_555 1_555
C58 C44 1_555 1_555
H55 C58 1_555 1_555
H56 C58 1_555 1_555
C59 C58 1_555 1_555
H57 C59 1_555 1_555
H58 C59 1_555 1_555
C60 C59 1_555 1_555
C61 O5 1_555 1_555
H59 C61 1_555 1_555
H60 C61 1_555 1_555
H61 C61 1_555 1_555
C62 C46 1_555 1_555
C63 C62 1_555 1_555
C64 Si2 1_555 1_555
H62 C64 1_555 1_555
H63 C64 1_555 1_555
H64 C64 1_555 1_555
C65 Si2 1_555 1_555
H65 C65 1_555 1_555
H66 C65 1_555 1_555
H67 C65 1_555 1_555
C66 Si2 1_555 1_555
H68 C66 1_555 1_555
H69 C66 1_555 1_555
H70 C66 1_555 1_555
C67 C48 1_555 1_555
H71 C67 1_555 1_555
H72 C67 1_555 1_555
C68 C67 1_555 1_555
H73 C68 1_555 1_555
H74 C68 1_555 1_555
C69 C68 1_555 1_555
C70 O7 1_555 1_555
H75 C70 1_555 1_555
H76 C70 1_555 1_555
H77 C70 1_555 1_555
C71 C49 1_555 1_555
H78 C71 1_555 1_555
H79 C71 1_555 1_555
H80 C71 1_555 1_555
C72 C50 1_555 1_555
C73 C72 1_555 1_555
H81 C73 1_555 1_555
C74 C73 1_555 1_555
H82 C74 1_555 1_555
C75 C74 1_555 1_555
H83 C75 1_555 1_555
C76 C75 1_555 1_555
H84 C76 1_555 1_555
C77 C72 1_555 1_555
H85 C77 1_555 1_555
B2 N3 1_555 1_555
N2 B1 1_555 1_555
C8 C9 1_555 1_555
C14 C15 1_555 1_555
C33 C34 1_555 1_555
C35 C36 1_555 1_555
N4 B2 1_555 1_555
C49 C50 1_555 1_555
C54 C55 1_555 1_555
C54 C56 1_555 1_555
C76 C77 1_555 1_555

#END
