
#######################################################################
#
#                 Cambridge Crystallographic Data Centre
#                                CCDC 
#
#######################################################################
#
# If this CIF has been generated from an entry in the Cambridge 
# Structural Database, then it will include bibliographic, chemical, 
# crystal, experimental, refinement or atomic coordinate data resulting 
# from the CCDC's data processing and validation procedures.
#
#######################################################################

data_SUJKEN
_chemical_formula_moiety         'C12 H14 N1 O6 P1'
_chemical_name_systematic        
'N-(p-Methoxyphenyl)-1-oxo-1-phospha-2,6,7-trioxabicyclo(2.2.2) octane-4-carboxamide'
_symmetry_cell_setting           monoclinic
_symmetry_space_group_name_H-M   'P 21/n'
_symmetry_Int_Tables_number      14
_space_group_name_Hall           '-P 2yn'
loop_
_symmetry_equiv_pos_site_id
_symmetry_equiv_pos_as_xyz
1 x,y,z
2 1/2-x,1/2+y,1/2-z
3 -x,-y,-z
4 1/2+x,1/2-y,1/2+z
_cell_length_a                   10.145(3)
_cell_length_b                   12.246(4)
_cell_length_c                   11.609(3)
_cell_angle_alpha                90
_cell_angle_beta                 115.88(3)
_cell_angle_gamma                90
_cell_volume                     1297.61
_cell_formula_units_Z            4
loop_
_atom_site_label
_atom_site_type_symbol
_atom_site_fract_x
_atom_site_fract_y
_atom_site_fract_z
P1 P 0.8306(1) 0.0978(1) 0.7674(1)
O1 O 0.7318(3) 0.0061(3) 0.7427(4)
O2 O 0.9879(3) 0.0656(3) 0.7878(4)
O3 O 0.8531(3) 0.1655(3) 0.8896(3)
O4 O 0.7816(3) 0.1851(3) 0.6570(3)
O5 O 1.2504(3) 0.3336(3) 0.8760(3)
O6 O 1.3840(3) 0.8472(3) 0.9668(3)
N1 N 1.0700(3) 0.4584(3) 0.8378(4)
C1 C 1.0922(4) 0.1563(4) 0.8250(5)
C2 C 0.9428(4) 0.2647(4) 0.9103(4)
C3 C 0.8856(5) 0.2737(4) 0.6762(4)
C4 C 1.0095(4) 0.2642(3) 0.8132(4)
C5 C 1.1225(4) 0.3560(4) 0.8453(4)
C6 C 1.1539(4) 0.5558(4) 0.8692(4)
C7 C 1.3022(4) 0.5590(4) 0.9603(4)
C8 C 1.3739(5) 0.6591(4) 0.9902(4)
C9 C 1.3028(4) 0.7535(4) 0.9308(4)
C10 C 1.1556(4) 0.7508(4) 0.8396(4)
C11 C 1.0857(4) 0.6513(4) 0.8093(4)
C12 C 1.3065(5) 0.9489(4) 0.9271(5)
loop_
_geom_bond_atom_site_label_1
_geom_bond_atom_site_label_2
_geom_bond_site_symmetry_1
_geom_bond_site_symmetry_2
P1 O1 1_555 1_555
O2 P1 1_555 1_555
O3 P1 1_555 1_555
O4 P1 1_555 1_555
O5 C5 1_555 1_555
O6 C9 1_555 1_555
N1 C5 1_555 1_555
C1 O2 1_555 1_555
C2 O3 1_555 1_555
C3 O4 1_555 1_555
C4 C1 1_555 1_555
C5 C4 1_555 1_555
C6 N1 1_555 1_555
C7 C6 1_555 1_555
C8 C7 1_555 1_555
C9 C8 1_555 1_555
C10 C9 1_555 1_555
C11 C6 1_555 1_555
C12 O6 1_555 1_555
C2 C4 1_555 1_555
C3 C4 1_555 1_555
C10 C11 1_555 1_555

#END
