
#######################################################################
#
#                 Cambridge Crystallographic Data Centre
#                                CCDC 
#
#######################################################################
#
# If this CIF has been generated from an entry in the Cambridge 
# Structural Database, then it will include bibliographic, chemical, 
# crystal, experimental, refinement or atomic coordinate data resulting 
# from the CCDC's data processing and validation procedures.
#
#######################################################################

data_SUJKOX
_chemical_formula_moiety         'C11 H10 N1 O8 P1'
_chemical_name_systematic        
'o-Nitrophenyl 1-oxo-1-phospha-2,6,7-trioxabicyclo(2.2.2)octane-4-carboxylate'
_symmetry_cell_setting           orthorhombic
_symmetry_space_group_name_H-M   'P 21 21 21'
_symmetry_Int_Tables_number      19
_space_group_name_Hall           'P 2ac 2ab'
loop_
_symmetry_equiv_pos_site_id
_symmetry_equiv_pos_as_xyz
1 x,y,z
2 1/2+x,1/2-y,-z
3 -x,1/2+y,1/2-z
4 1/2-x,-y,1/2+z
_cell_length_a                   6.055(4)
_cell_length_b                   11.173(2)
_cell_length_c                   18.579(3)
_cell_angle_alpha                90
_cell_angle_beta                 90
_cell_angle_gamma                90
_cell_volume                     1256.92
_cell_formula_units_Z            4
loop_
_atom_site_label
_atom_site_type_symbol
_atom_site_fract_x
_atom_site_fract_y
_atom_site_fract_z
P1 P 0.2831(4) 0.1715(2) 0.7568(1)
O1 O 0.219(1) 0.0726(5) 0.7111(3)
O2 O 0.208(1) 0.1578(5) 0.8370(3)
O3 O 0.537(1) 0.1931(5) 0.7620(3)
O4 O 0.191(1) 0.2951(5) 0.7347(3)
O5 O 0.349(1) 0.5395(5) 0.8974(3)
O6 O 0.6337(9) 0.4268(5) 0.9324(3)
O7 O 0.332(1) 0.3668(6) 1.0299(3)
O8 O 0.258(1) 0.4843(7) 1.1162(3)
N1 N 0.373(1) 0.4556(6) 1.0655(3)
C1 C 0.279(2) 0.2542(7) 0.8844(4)
C2 C 0.612(1) 0.2904(8) 0.8083(5)
C3 C 0.254(2) 0.3963(7) 0.7809(4)
C4 C 0.404(1) 0.3480(6) 0.8407(3)
C5 C 0.453(1) 0.4512(6) 0.8917(4)
C6 C 0.686(2) 0.5098(7) 0.9855(4)
C7 C 0.875(2) 0.5769(8) 0.9729(4)
C8 C 0.944(2) 0.6597(9) 1.0257(5)
C9 C 0.827(2) 0.6719(8) 1.0890(4)
C10 C 0.635(2) 0.6069(7) 1.1010(4)
C11 C 0.569(1) 0.5254(7) 1.0487(4)
loop_
_geom_bond_atom_site_label_1
_geom_bond_atom_site_label_2
_geom_bond_site_symmetry_1
_geom_bond_site_symmetry_2
P1 O1 1_555 1_555
O2 P1 1_555 1_555
O3 P1 1_555 1_555
O4 P1 1_555 1_555
O5 C5 1_555 1_555
O6 C5 1_555 1_555
O7 N1 1_555 1_555
O8 N1 1_555 1_555
N1 C11 1_555 1_555
C1 O2 1_555 1_555
C2 O3 1_555 1_555
C3 O4 1_555 1_555
C4 C1 1_555 1_555
C5 C4 1_555 1_555
C6 O6 1_555 1_555
C7 C6 1_555 1_555
C8 C7 1_555 1_555
C9 C8 1_555 1_555
C10 C9 1_555 1_555
C11 C6 1_555 1_555
C2 C4 1_555 1_555
C3 C4 1_555 1_555
C10 C11 1_555 1_555

#END
