
#######################################################################
#
#                 Cambridge Crystallographic Data Centre
#                                CCDC 
#
#######################################################################
#
# If this CIF has been generated from an entry in the Cambridge 
# Structural Database, then it will include bibliographic, chemical, 
# crystal, experimental, refinement or atomic coordinate data resulting 
# from the CCDC's data processing and validation procedures.
#
#######################################################################

data_SUJLUG
_chemical_formula_moiety         'C19 H15 F3 O3 S1'
_chemical_name_systematic        
5-methyl-3-((4-methylphenyl)sulfonyl)-2-(4-(trifluoromethyl)phenyl)furan
_symmetry_cell_setting           triclinic
_symmetry_space_group_name_H-M   'P -1'
_symmetry_Int_Tables_number      2
_space_group_name_Hall           '-P 1'
loop_
_symmetry_equiv_pos_site_id
_symmetry_equiv_pos_as_xyz
1 x,y,z
2 -x,-y,-z
_cell_length_a                   8.2912(11)
_cell_length_b                   9.4894(13)
_cell_length_c                   11.4694(15)
_cell_angle_alpha                106.832(3)
_cell_angle_beta                 93.747(3)
_cell_angle_gamma                102.781(3)
_cell_volume                     834.2
_exptl_crystal_colour            colorless
_cell_formula_units_Z            2
loop_
_atom_site_label
_atom_site_type_symbol
_atom_site_fract_x
_atom_site_fract_y
_atom_site_fract_z
S1 S 0.46026(4) 0.21711(4) 0.25856(4)
F1 F 0.28619(13) 0.27377(11) 0.90339(9)
F2 F 0.22242(12) 0.03617(11) 0.88939(9)
F3 F 0.03201(12) 0.14032(14) 0.84539(10)
O1 O 0.51447(13) 0.21687(13) 0.14154(11)
O2 O 0.27235(13) -0.19529(12) 0.27655(10)
O3 O 0.57797(13) 0.29761(13) 0.36865(11)
C1 C 0.19285(19) 0.13765(19) 0.83453(16)
C2 C 0.22337(18) 0.09478(18) 0.70320(15)
C3 C 0.33476(18) 0.19629(18) 0.66173(15)
H1 H 0.3889 0.2947 0.7160
C4 C 0.36661(18) 0.15325(18) 0.54054(15)
H2 H 0.4443 0.2219 0.5127
C5 C 0.28557(18) 0.01041(18) 0.45972(15)
C6 C 0.31903(17) -0.04088(17) 0.33202(15)
C7 C 0.38570(17) 0.02567(17) 0.24819(15)
C8 C 0.28388(18) 0.29392(17) 0.27167(15)
C9 C 0.28109(19) 0.41303(18) 0.37486(16)
H3 H 0.3683 0.4472 0.4422
C10 C 0.14905(19) 0.48197(18) 0.37870(16)
H4 H 0.1468 0.5639 0.4492
C11 C 0.02018(18) 0.43272(18) 0.28082(15)
C12 C -0.11439(19) 0.51687(19) 0.28093(17)
H5 H -0.1375 0.5569 0.3653
H6 H -0.2163 0.4471 0.2296
H7 H -0.0768 0.6012 0.2480
C13 C 0.31095(18) -0.22590(18) 0.15815(15)
C14 C 0.2742(2) -0.38859(19) 0.08292(17)
H8 H 0.1530 -0.4310 0.0641
H9 H 0.3232 -0.4450 0.1289
H10 H 0.3222 -0.3971 0.0061
C15 C 0.37910(18) -0.09418(18) 0.13652(15)
H11 H 0.4154 -0.0832 0.0621
C16 C 0.1414(2) -0.04813(19) 0.62329(16)
H12 H 0.0652 -0.1171 0.6518
C17 C 0.1710(2) -0.08957(19) 0.50265(16)
H13 H 0.1133 -0.1867 0.4479
C18 C 0.15351(19) 0.23877(18) 0.17434(15)
H14 H 0.1547 0.1549 0.1051
C19 C 0.02213(19) 0.30777(18) 0.17986(16)
H15 H -0.0678 0.2698 0.1143
loop_
_geom_bond_atom_site_label_1
_geom_bond_atom_site_label_2
_geom_bond_site_symmetry_1
_geom_bond_site_symmetry_2
S1 O1 1_555 1_555
F1 C1 1_555 1_555
F2 C1 1_555 1_555
F3 C1 1_555 1_555
O2 C6 1_555 1_555
O3 S1 1_555 1_555
C1 C2 1_555 1_555
C2 C3 1_555 1_555
C3 H1 1_555 1_555
C4 C3 1_555 1_555
H2 C4 1_555 1_555
C5 C4 1_555 1_555
C6 C5 1_555 1_555
C7 S1 1_555 1_555
C8 S1 1_555 1_555
C9 C8 1_555 1_555
H3 C9 1_555 1_555
C10 C9 1_555 1_555
H4 C10 1_555 1_555
C11 C10 1_555 1_555
C12 C11 1_555 1_555
H5 C12 1_555 1_555
H6 C12 1_555 1_555
H7 C12 1_555 1_555
C13 O2 1_555 1_555
C14 C13 1_555 1_555
H8 C14 1_555 1_555
H9 C14 1_555 1_555
H10 C14 1_555 1_555
C15 C7 1_555 1_555
H11 C15 1_555 1_555
C16 C2 1_555 1_555
H12 C16 1_555 1_555
C17 C5 1_555 1_555
H13 C17 1_555 1_555
C18 C8 1_555 1_555
H14 C18 1_555 1_555
C19 C11 1_555 1_555
H15 C19 1_555 1_555
C6 C7 1_555 1_555
C13 C15 1_555 1_555
C16 C17 1_555 1_555
C18 C19 1_555 1_555

#END
