
#######################################################################
#
#                 Cambridge Crystallographic Data Centre
#                                CCDC 
#
#######################################################################
#
# If this CIF has been generated from an entry in the Cambridge 
# Structural Database, then it will include bibliographic, chemical, 
# crystal, experimental, refinement or atomic coordinate data resulting 
# from the CCDC's data processing and validation procedures.
#
#######################################################################

data_SUJLOA
_chemical_formula_moiety         'C19 H18 O3'
_chemical_name_systematic        2,3-bis(4-methoxyphenyl)-5-methylfuran
_symmetry_cell_setting           orthorhombic
_symmetry_space_group_name_H-M   'P b c n'
_symmetry_Int_Tables_number      60
_space_group_name_Hall           '-P 2n 2ab'
loop_
_symmetry_equiv_pos_site_id
_symmetry_equiv_pos_as_xyz
1 x,y,z
2 1/2+x,1/2-y,-z
3 -x,y,1/2-z
4 1/2-x,1/2-y,1/2+z
5 -x,-y,-z
6 1/2-x,1/2+y,z
7 x,-y,1/2+z
8 1/2+x,1/2+y,1/2-z
_cell_length_a                   7.867(2)
_cell_length_b                   9.448(3)
_cell_length_c                   21.293(6)
_cell_angle_alpha                90
_cell_angle_beta                 90
_cell_angle_gamma                90
_cell_volume                     1582.65
_exptl_crystal_colour            colorless
_cell_formula_units_Z            4
loop_
_atom_site_label
_atom_site_type_symbol
_atom_site_fract_x
_atom_site_fract_y
_atom_site_fract_z
O1 O 0.0166(2) 0.83375(15) 0.46400(6)
C1 C 0.1123(3) 0.8206(2) 0.52072(8)
H1 H 0.0797 0.7353 0.5421
H2 H 0.0902 0.9006 0.5473
H3 H 0.2313 0.8169 0.5109
C2 C 0.0268(3) 0.7258(2) 0.42112(7)
C3 C -0.0748(3) 0.7400(2) 0.36853(7)
H4 H -0.1423 0.8201 0.3639
C4 C -0.0772(3) 0.6369(2) 0.32293(8)
H5 H -0.1464 0.6484 0.2879
C5 C 0.0225(3) 0.51529(19) 0.32834(7)
C6 C 0.0145(3) 0.40100(19) 0.28126(8)
C7 C 0.1246(3) 0.5036(2) 0.38115(7)
H6 H 0.1930 0.4239 0.3857
C8 C 0.1280(3) 0.6071(2) 0.42765(8)
H7 H 0.1975 0.5965 0.4627
O2 O 0.0223(2) 0.26101(18) 0.30122(6)
C9 C 0.0000 0.1755(3) 0.2500
C10 C 0.0000 0.0206(4) 0.2500
O1B O -0.0166(2) 0.83375(15) 0.03600(6)
C1B C -0.1123(3) 0.8206(2) -0.02072(8)
H1B H -0.0797 0.7353 -0.0421
H2B H -0.0902 0.9006 -0.0473
H3B H -0.2313 0.8169 -0.0109
C2B C -0.0268(3) 0.7258(2) 0.07888(7)
C3B C 0.0748(3) 0.7400(2) 0.13147(7)
H4B H 0.1423 0.8201 0.1361
C4B C 0.0772(3) 0.6369(2) 0.17707(8)
H5B H 0.1464 0.6484 0.2121
C5B C -0.0225(3) 0.51529(19) 0.17166(7)
C6B C -0.0145(3) 0.40100(19) 0.21874(8)
C7B C -0.1246(3) 0.5036(2) 0.11885(7)
H6B H -0.1930 0.4239 0.1143
C8B C -0.1280(3) 0.6071(2) 0.07235(8)
H7B H -0.1975 0.5965 0.0373
O2B O -0.0223(2) 0.26101(18) 0.19878(6)
H8? H -0.0859 -0.0132 0.2783
H9? H 0.1092 -0.0132 0.2633
H10? H -0.0233 -0.0132 0.2084
H11? H 0.0396 0.2307 0.3423
C11? C 0.0223(2) 0.26101(18) 0.30122(6)
loop_
_geom_bond_atom_site_label_1
_geom_bond_atom_site_label_2
_geom_bond_site_symmetry_1
_geom_bond_site_symmetry_2
O1 C1 1_555 1_555
C1 H1 1_555 1_555
H2 C1 1_555 1_555
H3 C1 1_555 1_555
C2 O1 1_555 1_555
C3 C2 1_555 1_555
H4 C3 1_555 1_555
C4 C3 1_555 1_555
H5 C4 1_555 1_555
C5 C4 1_555 1_555
C6 C5 1_555 1_555
C7 C5 1_555 1_555
H6 C7 1_555 1_555
C8 C2 1_555 1_555
H7 C8 1_555 1_555
O2 C6 1_555 1_555
C9 O2 1_555 1_555
C10 C9 1_555 1_555
O1B C1B 1_555 1_555
C1B H1B 1_555 1_555
H2B C1B 1_555 1_555
H3B C1B 1_555 1_555
C2B O1B 1_555 1_555
C3B C2B 1_555 1_555
H4B C3B 1_555 1_555
C4B C3B 1_555 1_555
H5B C4B 1_555 1_555
C5B C4B 1_555 1_555
C6B C6 1_555 1_555
C7B C5B 1_555 1_555
H6B C7B 1_555 1_555
C8B C2B 1_555 1_555
H7B C8B 1_555 1_555
O2B C9 1_555 1_555
C7 C8 1_555 1_555
C5B C6B 1_555 1_555
C6B O2B 1_555 1_555
C7B C8B 1_555 1_555

#END
