
#######################################################################
#
#                 Cambridge Crystallographic Data Centre
#                                CCDC 
#
#######################################################################
#
# If this CIF has been generated from an entry in the Cambridge 
# Structural Database, then it will include bibliographic, chemical, 
# crystal, experimental, refinement or atomic coordinate data resulting 
# from the CCDC's data processing and validation procedures.
#
#######################################################################

data_SUJMIU
_chemical_formula_moiety         'C22 H31 N2 1+,2(H2 O1),I1 1-'
_chemical_name_systematic        
'4-(2-(4-(Di-n-butylamino)phenyl)vinyl)-1-methylpyridinium iodide dihydrate'
_symmetry_cell_setting           triclinic
_symmetry_space_group_name_H-M   'P -1'
_symmetry_Int_Tables_number      2
_space_group_name_Hall           '-P 1'
loop_
_symmetry_equiv_pos_site_id
_symmetry_equiv_pos_as_xyz
1 x,y,z
2 -x,-y,-z
_cell_length_a                   8.5069(10)
_cell_length_b                   9.9764(14)
_cell_length_c                   15.946(2)
_cell_angle_alpha                87.271(9)
_cell_angle_beta                 79.544(9)
_cell_angle_gamma                65.359(10)
_cell_volume                     1209.05
_exptl_crystal_colour            red
_exptl_crystal_description       prism
_cell_formula_units_Z            2
_exptl_crystal_preparation       dye
loop_
_atom_site_label
_atom_site_type_symbol
_atom_site_fract_x
_atom_site_fract_y
_atom_site_fract_z
I1 I 0.53036(5) 0.60538(3) 0.33792(3)
N1 N -0.2014(5) 0.1009(4) 0.4301(2)
N2 N 1.0163(7) 0.1154(6) 0.1161(4)
C1 C -0.3671(6) 0.0877(6) 0.4656(3)
H1 H -0.4562 0.1829 0.4859
H2 H -0.3488 0.0211 0.5120
H3 H -0.4040 0.0505 0.4220
C2 C -0.1923(6) 0.2304(5) 0.4308(3)
H4 H -0.2921 0.3134 0.4531
C3 C -0.0395(6) 0.2447(5) 0.3997(3)
H5 H -0.0367 0.3366 0.4016
C4 C 0.1117(5) 0.1231(5) 0.3652(3)
C5 C 0.0965(6) -0.0115(5) 0.3648(3)
H6 H 0.1937 -0.0961 0.3421
C6 C -0.0575(6) -0.0202(5) 0.3970(3)
H7 H -0.0644 -0.1107 0.3964
C7 C 0.2679(6) 0.1446(5) 0.3299(3)
H8 H 0.2623 0.2392 0.3344
C8 C 0.4204(6) 0.0397(5) 0.2913(3)
H9 H 0.4281 -0.0560 0.2905
C9 C 0.5758(6) 0.0619(5) 0.2502(3)
C10 C 0.5815(6) 0.1999(5) 0.2440(3)
H10 H 0.4846 0.2821 0.2697
C11 C 0.7259(7) 0.2176(6) 0.2010(3)
H11 H 0.7242 0.3115 0.1975
C12 C 0.8765(7) 0.0972(6) 0.1621(3)
C13 C 0.8699(8) -0.0407(7) 0.1723(4)
H12 H 0.9683 -0.1243 0.1495
C14 C 0.7255(7) -0.0568(6) 0.2140(3)
H13 H 0.7275 -0.1508 0.2184
C15 C 1.0051(11) 0.2662(10) 0.0908(5)
H14 H 1.0808 0.2591 0.0363
H15 H 0.8854 0.3308 0.0850
C16 C 1.0592(10) 0.3267(10) 0.1557(5)
H16 H 1.1803 0.2635 0.1596
H17 H 0.9869 0.3286 0.2106
C17 C 1.0419(12) 0.4862(9) 0.1346(6)
H18 H 1.1044 0.4862 0.0773
H19 H 0.9190 0.5517 0.1365
C18 C 1.1131(17) 0.5404(12) 0.1951(9)
H20 H 1.1009 0.6385 0.1809
H21 H 1.2351 0.4766 0.1926
H22 H 1.0500 0.5419 0.2517
C19 C 1.1763(15) -0.0199(14) 0.0551(6)
H23 H 1.1366 -0.0901 0.0368
H24 H 1.2296 0.0166 0.0057
C20 C 1.2856(16) -0.0777(15) 0.1119(7)
H25 H 1.2400 -0.1265 0.1576
H26 H 1.3156 -0.0053 0.1353
C21 C 1.454(2) -0.1981(16) 0.0420(11)
H27 H 1.4248 -0.1808 -0.0148
H28 H 1.5576 -0.1800 0.0414
C22 C 1.491(3) -0.3376(19) 0.0603(13)
H29 H 1.5889 -0.4008 0.0196
H30 H 1.3904 -0.3576 0.0581
H31 H 1.5190 -0.3554 0.1165
O1 O 0.8304(7) 0.6843(6) 0.4373(4)
H32 H 0.771(6) 0.677(6) 0.404(2)
H33 H 0.820(7) 0.642(6) 0.4820(18)
O2 O 0.8083(7) 0.5167(5) 0.5815(4)
H34 H 0.720(3) 0.501(5) 0.589(4)
H35 H 0.897(3) 0.439(3) 0.572(4)
loop_
_geom_bond_atom_site_label_1
_geom_bond_atom_site_label_2
_geom_bond_site_symmetry_1
_geom_bond_site_symmetry_2
N1 C1 1_555 1_555
N2 C12 1_555 1_555
C1 H1 1_555 1_555
H2 C1 1_555 1_555
H3 C1 1_555 1_555
C2 N1 1_555 1_555
H4 C2 1_555 1_555
C3 C2 1_555 1_555
H5 C3 1_555 1_555
C4 C3 1_555 1_555
C5 C4 1_555 1_555
H6 C5 1_555 1_555
C6 N1 1_555 1_555
H7 C6 1_555 1_555
C7 C4 1_555 1_555
H8 C7 1_555 1_555
C8 C7 1_555 1_555
H9 C8 1_555 1_555
C9 C8 1_555 1_555
C10 C9 1_555 1_555
H10 C10 1_555 1_555
C11 C10 1_555 1_555
H11 C11 1_555 1_555
C12 C11 1_555 1_555
C13 C12 1_555 1_555
H12 C13 1_555 1_555
C14 C9 1_555 1_555
H13 C14 1_555 1_555
C15 N2 1_555 1_555
H14 C15 1_555 1_555
H15 C15 1_555 1_555
C16 C15 1_555 1_555
H16 C16 1_555 1_555
H17 C16 1_555 1_555
C17 C16 1_555 1_555
H18 C17 1_555 1_555
H19 C17 1_555 1_555
C18 C17 1_555 1_555
H20 C18 1_555 1_555
H21 C18 1_555 1_555
H22 C18 1_555 1_555
C19 N2 1_555 1_555
H23 C19 1_555 1_555
H24 C19 1_555 1_555
C20 C19 1_555 1_555
H25 C20 1_555 1_555
H26 C20 1_555 1_555
C21 C20 1_555 1_555
H27 C21 1_555 1_555
H28 C21 1_555 1_555
C22 C21 1_555 1_555
H29 C22 1_555 1_555
H30 C22 1_555 1_555
H31 C22 1_555 1_555
O1 H32 1_555 1_555
O2 H34 1_555 1_555
H33 O1 1_555 1_555
H35 O2 1_555 1_555
C5 C6 1_555 1_555
C13 C14 1_555 1_555

#END
