
#######################################################################
#
#                 Cambridge Crystallographic Data Centre
#                                CCDC 
#
#######################################################################
#
# If this CIF has been generated from an entry in the Cambridge 
# Structural Database, then it will include bibliographic, chemical, 
# crystal, experimental, refinement or atomic coordinate data resulting 
# from the CCDC's data processing and validation procedures.
#
#######################################################################

data_SUJMOB
_chemical_formula_moiety         'C18 H10 Cl1 N3 O3 S1,H2 O1'
_chemical_name_systematic        
'6-(4-chlorophenyl)-9-nitropyrido[2,3-b][1,5]benzothiazepin-5(6H)-one monohydrate'
_symmetry_cell_setting           monoclinic
_symmetry_space_group_name_H-M   'P 21/c'
_symmetry_Int_Tables_number      14
_space_group_name_Hall           '-P 2ybc'
loop_
_symmetry_equiv_pos_site_id
_symmetry_equiv_pos_as_xyz
1 x,y,z
2 -x,1/2+y,1/2-z
3 -x,-y,-z
4 x,1/2-y,1/2+z
_cell_length_a                   8.784(3)
_cell_length_b                   16.217(5)
_cell_length_c                   14.313(4)
_cell_angle_alpha                90
_cell_angle_beta                 123.483(14)
_cell_angle_gamma                90
_cell_volume                     1700.53
_cell_formula_units_Z            4
loop_
_atom_site_label
_atom_site_type_symbol
_atom_site_fract_x
_atom_site_fract_y
_atom_site_fract_z
Cl1 Cl 0.96911(9) 0.16782(5) 0.72933(7)
S1 S -0.16060(10) 0.08862(4) 0.45182(6)
O1 O 0.1794(2) 0.28492(13) 0.59598(16)
O2 O -0.1517(3) -0.02171(15) 0.03731(19)
O3 O -0.3379(3) -0.05980(15) 0.0805(2)
N1 N 0.1619(3) 0.18694(13) 0.47790(18)
N2 N -0.2094(3) -0.01873(14) 0.0971(2)
N3 N -0.4222(3) 0.20298(15) 0.3648(2)
C1 C 0.7326(3) 0.17333(15) 0.6546(2)
C2 C 0.6325(4) 0.10278(16) 0.6333(3)
H1 H 0.6904 0.0519 0.6572
C3 C 0.4443(4) 0.10813(16) 0.5758(3)
H2 H 0.3755 0.0606 0.5617
C4 C 0.3583(3) 0.18352(15) 0.5394(2)
C5 C 0.4605(3) 0.25424(15) 0.5598(2)
H3 H 0.4030 0.3050 0.5336
C6 C 0.6485(3) 0.24884(16) 0.6193(2)
H4 H 0.7182 0.2963 0.6354
C7 C 0.0841(3) 0.24271(15) 0.5144(2)
C8 C -0.1184(3) 0.25492(15) 0.4467(2)
C9 C -0.2433(3) 0.19188(15) 0.4179(2)
C10 C -0.4828(4) 0.28047(18) 0.3395(2)
H5 H -0.6077 0.2896 0.3020
C11 C -0.3703(4) 0.34753(18) 0.3658(2)
H6 H -0.4184 0.4005 0.3469
C12 C -0.1853(4) 0.33481(16) 0.4206(2)
H7 H -0.1063 0.3792 0.4399
C13 C -0.0842(3) 0.08687(14) 0.3605(2)
C14 C 0.0641(3) 0.13568(14) 0.3815(2)
C15 C 0.1212(3) 0.13074(15) 0.3089(2)
H8 H 0.2209 0.1618 0.3234
C16 C 0.0336(3) 0.08084(16) 0.2158(2)
H9 H 0.0730 0.0781 0.1674
C17 C -0.1148(3) 0.03470(15) 0.1956(2)
C18 C -0.1751(3) 0.03716(15) 0.2659(2)
H10 H -0.2753 0.0060 0.2504
O4 O 0.4065(3) 0.05307(15) 0.2107(2)
H11 H 0.3169 0.0544 0.1442
H12 H 0.4803 0.0912 0.2237
loop_
_geom_bond_atom_site_label_1
_geom_bond_atom_site_label_2
_geom_bond_site_symmetry_1
_geom_bond_site_symmetry_2
Cl1 C1 1_555 1_555
S1 C9 1_555 1_555
O1 C7 1_555 1_555
O2 N2 1_555 1_555
O3 N2 1_555 1_555
N1 C4 1_555 1_555
N2 C17 1_555 1_555
N3 C9 1_555 1_555
C1 C2 1_555 1_555
C2 H1 1_555 1_555
C3 C2 1_555 1_555
H2 C3 1_555 1_555
C4 C3 1_555 1_555
C5 C4 1_555 1_555
H3 C5 1_555 1_555
C6 C1 1_555 1_555
H4 C6 1_555 1_555
C7 N1 1_555 1_555
C8 C7 1_555 1_555
C9 C8 1_555 1_555
C10 N3 1_555 1_555
H5 C10 1_555 1_555
C11 C10 1_555 1_555
H6 C11 1_555 1_555
C12 C8 1_555 1_555
H7 C12 1_555 1_555
C13 S1 1_555 1_555
C14 N1 1_555 1_555
C15 C14 1_555 1_555
H8 C15 1_555 1_555
C16 C15 1_555 1_555
H9 C16 1_555 1_555
C17 C16 1_555 1_555
C18 C13 1_555 1_555
H10 C18 1_555 1_555
O4 H11 1_555 1_555
H12 O4 1_555 1_555
C5 C6 1_555 1_555
C11 C12 1_555 1_555
C13 C14 1_555 1_555
C17 C18 1_555 1_555

#END
