
#######################################################################
#
#                 Cambridge Crystallographic Data Centre
#                                CCDC 
#
#######################################################################
#
# If this CIF has been generated from an entry in the Cambridge 
# Structural Database, then it will include bibliographic, chemical, 
# crystal, experimental, refinement or atomic coordinate data resulting 
# from the CCDC's data processing and validation procedures.
#
#######################################################################

data_SUKBEG
_chemical_formula_moiety         'C24 H24 Br1 N1 O2'
_chemical_name_systematic        
4-(2-bromophenyl)-3,4,7,8-tetrahydro-7,7-dimethyl-1-p-tolylquinoline-2,5(1H,6H)-dione
_symmetry_cell_setting           monoclinic
_symmetry_space_group_name_H-M   'C 2/c'
_symmetry_Int_Tables_number      15
_space_group_name_Hall           '-C 2yn'
loop_
_symmetry_equiv_pos_site_id
_symmetry_equiv_pos_as_xyz
1 x,y,z
2 -x,y,1/2-z
3 1/2+x,1/2+y,z
4 1/2-x,1/2+y,1/2-z
5 -x,-y,-z
6 x,-y,1/2+z
7 1/2-x,1/2-y,-z
8 1/2+x,1/2-y,1/2+z
_cell_length_a                   27.565(14)
_cell_length_b                   10.079(5)
_cell_length_c                   15.917(8)
_cell_angle_alpha                90
_cell_angle_beta                 111.059(9)
_cell_angle_gamma                90
_cell_volume                     4126.83
_exptl_crystal_colour            'pale yellow'
_exptl_crystal_description       block
_chemical_melting_point          '507-510 K'
_cell_formula_units_Z            8
_exptl_crystal_recrystallization_method dimethylformamide/water
loop_
_atom_site_label
_atom_site_type_symbol
_atom_site_fract_x
_atom_site_fract_y
_atom_site_fract_z
Br1 Br 0.41187(2) 0.54965(4) 1.19748(3)
O1 O 0.45447(11) 0.8998(3) 1.04856(18)
O2 O 0.24739(11) 0.5928(3) 0.88077(18)
N1 N 0.29965(10) 0.7287(3) 0.83809(17)
C1 C 0.34295(12) 0.8139(3) 0.8623(2)
C2 C 0.37898(12) 0.8092(3) 0.9452(2)
C3 C 0.37580(12) 0.7105(3) 1.0136(2)
H1 H 0.3920 0.7511 1.0731
C4 C 0.31839(13) 0.6897(4) 0.9983(2)
H2 H 0.3152 0.6156 1.0349
H3 H 0.3054 0.7681 1.0186
C5 C 0.28547(14) 0.6634(3) 0.9030(2)
C6 C 0.26747(12) 0.7079(3) 0.7449(2)
C7 C 0.28148(14) 0.6159(3) 0.6949(2)
H4 H 0.3117 0.5666 0.7208
C8 C 0.25071(16) 0.5962(4) 0.6059(3)
H5 H 0.2603 0.5316 0.5731
C9 C 0.20649(14) 0.6683(4) 0.5641(2)
C10 C 0.19358(15) 0.7605(4) 0.6156(3)
H6 H 0.1637 0.8112 0.5896
C11 C 0.22357(14) 0.7808(4) 0.7053(2)
H7 H 0.2137 0.8442 0.7385
C12 C 0.17363(17) 0.6460(5) 0.4670(3)
H8 H 0.1939 0.6020 0.4374
H9 H 0.1617 0.7298 0.4384
H10 H 0.1443 0.5919 0.4632
C13 C 0.34509(13) 0.9101(3) 0.7915(2)
H11 H 0.3211 0.9823 0.7877
H12 H 0.3335 0.8653 0.7337
C14 C 0.39902(13) 0.9675(3) 0.8096(2)
C15 C 0.42191(14) 1.0105(3) 0.9073(2)
H13 H 0.4575 1.0388 0.9204
H14 H 0.4025 1.0864 0.9158
C16 C 0.42145(13) 0.9044(3) 0.9732(2)
C17 C 0.43439(15) 0.8641(4) 0.7908(3)
H15 H 0.4677 0.9031 0.8000
H16 H 0.4190 0.8341 0.7297
H17 H 0.4387 0.7902 0.8309
C18 C 0.39478(16) 1.0867(4) 0.7484(3)
H18 H 0.3749 1.1553 0.7628
H19 H 0.3779 1.0605 0.6867
H20 H 0.4289 1.1195 0.7571
C19 C 0.40405(12) 0.5809(3) 1.0141(2)
C20 C 0.41372(13) 0.5351(3) 0.9390(2)
H21 H 0.4020 0.5848 0.8862
C21 C 0.44009(14) 0.4190(3) 0.9405(2)
H22 H 0.4461 0.3918 0.8893
C22 C 0.45765(14) 0.3430(3) 1.0168(2)
H23 H 0.4756 0.2646 1.0173
C23 C 0.44878(14) 0.3828(3) 1.0922(2)
H24 H 0.4605 0.3318 1.1444
C24 C 0.42207(14) 0.5003(4) 1.0897(2)
loop_
_geom_bond_atom_site_label_1
_geom_bond_atom_site_label_2
_geom_bond_site_symmetry_1
_geom_bond_site_symmetry_2
Br1 C24 1_555 1_555
O1 C16 1_555 1_555
O2 C5 1_555 1_555
N1 C1 1_555 1_555
C1 C2 1_555 1_555
C2 C3 1_555 1_555
C3 H1 1_555 1_555
C4 C3 1_555 1_555
H2 C4 1_555 1_555
H3 C4 1_555 1_555
C5 N1 1_555 1_555
C6 N1 1_555 1_555
C7 C6 1_555 1_555
H4 C7 1_555 1_555
C8 C7 1_555 1_555
H5 C8 1_555 1_555
C9 C8 1_555 1_555
C10 C9 1_555 1_555
H6 C10 1_555 1_555
C11 C6 1_555 1_555
H7 C11 1_555 1_555
C12 C9 1_555 1_555
H8 C12 1_555 1_555
H9 C12 1_555 1_555
H10 C12 1_555 1_555
C13 C1 1_555 1_555
H11 C13 1_555 1_555
H12 C13 1_555 1_555
C14 C13 1_555 1_555
C15 C14 1_555 1_555
H13 C15 1_555 1_555
H14 C15 1_555 1_555
C16 C2 1_555 1_555
C17 C14 1_555 1_555
H15 C17 1_555 1_555
H16 C17 1_555 1_555
H17 C17 1_555 1_555
C18 C14 1_555 1_555
H18 C18 1_555 1_555
H19 C18 1_555 1_555
H20 C18 1_555 1_555
C19 C3 1_555 1_555
C20 C19 1_555 1_555
H21 C20 1_555 1_555
C21 C20 1_555 1_555
H22 C21 1_555 1_555
C22 C21 1_555 1_555
H23 C22 1_555 1_555
C23 C22 1_555 1_555
H24 C23 1_555 1_555
C24 C19 1_555 1_555
C4 C5 1_555 1_555
C10 C11 1_555 1_555
C15 C16 1_555 1_555
C23 C24 1_555 1_555

#END
