
#######################################################################
#
#                 Cambridge Crystallographic Data Centre
#                                CCDC 
#
#######################################################################
#
# If this CIF has been generated from an entry in the Cambridge 
# Structural Database, then it will include bibliographic, chemical, 
# crystal, experimental, refinement or atomic coordinate data resulting 
# from the CCDC's data processing and validation procedures.
#
#######################################################################

data_SUKBAC
_chemical_formula_moiety         'C26 H30 O8'
_chemical_name_systematic        
'(Z)-Diethyl 2-(3,5-dimethoxyphenyl)-4-(4-methoxybenzylidene)tetrahydrofuran-3,3-dicarboxylate'
_symmetry_cell_setting           triclinic
_symmetry_space_group_name_H-M   'P -1'
_symmetry_Int_Tables_number      2
_space_group_name_Hall           '-P 1'
loop_
_symmetry_equiv_pos_site_id
_symmetry_equiv_pos_as_xyz
1 x,y,z
2 -x,-y,-z
_cell_length_a                   8.140(3)
_cell_length_b                   11.966(4)
_cell_length_c                   13.771(5)
_cell_angle_alpha                67.366(4)
_cell_angle_beta                 85.165(5)
_cell_angle_gamma                75.806(4)
_cell_volume                     1200.16
_exptl_crystal_colour            colorless
_exptl_crystal_description       cubic
_chemical_melting_point          '88-90 deg.C'
_cell_formula_units_Z            2
_exptl_crystal_recrystallization_method dichloromethane
loop_
_atom_site_label
_atom_site_type_symbol
_atom_site_fract_x
_atom_site_fract_y
_atom_site_fract_z
O1 O 0.1475(2) 0.49398(14) 0.38329(13)
O2 O -0.3106(2) 1.00101(16) 0.19447(16)
O3 O 0.2483(2) 0.89312(17) 0.10095(17)
O4 O 0.1641(2) 0.48695(16) 0.14398(14)
O5 O -0.08843(19) 0.61965(14) 0.10069(12)
O6 O -0.3504(2) 0.55104(16) 0.30418(15)
O7 O -0.26842(19) 0.43063(15) 0.21059(13)
O8 O 0.3900(2) -0.25126(15) 0.52321(16)
C1 C -0.0170(3) 0.5578(2) 0.33853(17)
H1 H -0.0994 0.5529 0.3953
C2 C -0.0519(3) 0.48094(19) 0.27649(16)
C3 C 0.0435(3) 0.34986(19) 0.34378(16)
C4 C 0.1576(3) 0.3643(2) 0.4160(2)
H2 H 0.1209 0.3310 0.4882
H3 H 0.2732 0.3203 0.4113
C5 C -0.0178(3) 0.6930(2) 0.27525(17)
C6 C -0.1660(3) 0.7816(2) 0.26930(18)
H4 H -0.2604 0.7588 0.3073
C7 C -0.1724(3) 0.9049(2) 0.20602(19)
C8 C -0.0323(3) 0.9377(2) 0.1501(2)
H5 H -0.0377 1.0202 0.1065
C9 C 0.1162(3) 0.8493(2) 0.15792(19)
C10 C 0.1253(3) 0.7261(2) 0.22178(19)
H6 H 0.2260 0.6664 0.2286
C11 C -0.4584(4) 0.9748(3) 0.2512(3)
H7 H -0.5045 0.9239 0.2264
H8 H -0.5405 1.0513 0.2411
H9 H -0.4306 0.9314 0.3247
C12 C 0.3940(4) 0.8078(3) 0.0904(3)
H10 H 0.4439 0.7562 0.1585
H11 H 0.4739 0.8519 0.0468
H12 H 0.3641 0.7567 0.0586
C13 C 0.0233(3) 0.5259(2) 0.16643(17)
C14 C -0.0314(4) 0.6826(2) -0.00510(19)
H13 H 0.0093 0.6238 -0.0394
H14 H 0.0598 0.7206 -0.0027
C15 C -0.1790(4) 0.7785(3) -0.0627(2)
H15 H -0.2676 0.7395 -0.0654
H16 H -0.1465 0.8235 -0.1330
H17 H -0.2191 0.8351 -0.0273
C16 C -0.2414(3) 0.4934(2) 0.26676(18)
C17 C -0.4415(3) 0.4276(3) 0.1974(3)
H18 H -0.5030 0.5083 0.1500
H19 H -0.4985 0.4067 0.2646
C18 C -0.4352(5) 0.3340(5) 0.1539(6)
H20 H -0.4013 0.3640 0.0817
H21 H -0.5452 0.3167 0.1581
H22 H -0.3547 0.2592 0.1932
C19 C 0.0282(3) 0.2459(2) 0.33536(17)
H23 H -0.0531 0.2570 0.2868
C20 C 0.1187(3) 0.11705(19) 0.39014(17)
C21 C 0.0963(3) 0.0284(2) 0.35382(18)
H24 H 0.0198 0.0532 0.2988
C22 C 0.1821(3) -0.0944(2) 0.39545(19)
H25 H 0.1648 -0.1506 0.3681
C23 C 0.2935(3) -0.1333(2) 0.47778(19)
C24 C 0.3128(3) -0.0491(2) 0.5188(2)
H26 H 0.3847 -0.0754 0.5764
C25 C 0.2272(3) 0.0734(2) 0.4760(2)
H27 H 0.2424 0.1285 0.5052
C26 C 0.3935(5) -0.3350(2) 0.4736(3)
H28 H 0.2850 -0.3551 0.4800
H29 H 0.4788 -0.4096 0.5064
H30 H 0.4192 -0.2974 0.4005
loop_
_geom_bond_atom_site_label_1
_geom_bond_atom_site_label_2
_geom_bond_site_symmetry_1
_geom_bond_site_symmetry_2
O1 C1 1_555 1_555
O2 C7 1_555 1_555
O3 C9 1_555 1_555
O4 C13 1_555 1_555
O5 C13 1_555 1_555
O6 C16 1_555 1_555
O7 C16 1_555 1_555
O8 C23 1_555 1_555
C1 H1 1_555 1_555
C2 C1 1_555 1_555
C3 C2 1_555 1_555
C4 O1 1_555 1_555
H2 C4 1_555 1_555
H3 C4 1_555 1_555
C5 C1 1_555 1_555
C6 C5 1_555 1_555
H4 C6 1_555 1_555
C7 C6 1_555 1_555
C8 C7 1_555 1_555
H5 C8 1_555 1_555
C9 C8 1_555 1_555
C10 C5 1_555 1_555
H6 C10 1_555 1_555
C11 O2 1_555 1_555
H7 C11 1_555 1_555
H8 C11 1_555 1_555
H9 C11 1_555 1_555
C12 O3 1_555 1_555
H10 C12 1_555 1_555
H11 C12 1_555 1_555
H12 C12 1_555 1_555
C13 C2 1_555 1_555
C14 O5 1_555 1_555
H13 C14 1_555 1_555
H14 C14 1_555 1_555
C15 C14 1_555 1_555
H15 C15 1_555 1_555
H16 C15 1_555 1_555
H17 C15 1_555 1_555
C16 C2 1_555 1_555
C17 O7 1_555 1_555
H18 C17 1_555 1_555
H19 C17 1_555 1_555
C18 C17 1_555 1_555
H20 C18 1_555 1_555
H21 C18 1_555 1_555
H22 C18 1_555 1_555
C19 C3 1_555 1_555
H23 C19 1_555 1_555
C20 C19 1_555 1_555
C21 C20 1_555 1_555
H24 C21 1_555 1_555
C22 C21 1_555 1_555
H25 C22 1_555 1_555
C23 C22 1_555 1_555
C24 C23 1_555 1_555
H26 C24 1_555 1_555
C25 C20 1_555 1_555
H27 C25 1_555 1_555
C26 O8 1_555 1_555
H28 C26 1_555 1_555
H29 C26 1_555 1_555
H30 C26 1_555 1_555
C3 C4 1_555 1_555
C9 C10 1_555 1_555
C24 C25 1_555 1_555

#END
