
#######################################################################
#
#                 Cambridge Crystallographic Data Centre
#                                CCDC 
#
#######################################################################
#
# If this CIF has been generated from an entry in the Cambridge 
# Structural Database, then it will include bibliographic, chemical, 
# crystal, experimental, refinement or atomic coordinate data resulting 
# from the CCDC's data processing and validation procedures.
#
#######################################################################

data_SUKDAF
_chemical_formula_moiety         'C25 H19 N1 O3'
_chemical_name_systematic        
'methyl 4-phenyl-4-(2-phenyl-4H-3,1-benzoxazin-4-ylidene)but-2-enoate'
_symmetry_cell_setting           orthorhombic
_symmetry_space_group_name_H-M   'P 21 21 21'
_symmetry_Int_Tables_number      19
_space_group_name_Hall           'P 2ac 2ab'
loop_
_symmetry_equiv_pos_site_id
_symmetry_equiv_pos_as_xyz
1 x,y,z
2 1/2-x,-y,1/2+z
3 1/2+x,1/2-y,-z
4 -x,1/2+y,1/2-z
_cell_length_a                   4.11501(15)
_cell_length_b                   10.0552(3)
_cell_length_c                   45.8911(16)
_cell_angle_alpha                90
_cell_angle_beta                 90
_cell_angle_gamma                90
_cell_volume                     1898.85
_exptl_crystal_colour            yellow
_exptl_crystal_description       needle
_cell_formula_units_Z            4
loop_
_atom_site_label
_atom_site_type_symbol
_atom_site_fract_x
_atom_site_fract_y
_atom_site_fract_z
O1 O 0.0238(4) 0.40764(13) 0.10269(3)
O2 O -0.0861(5) 0.14306(16) 0.23038(3)
O3 O -0.3858(4) -0.03548(14) 0.21872(3)
N1 N 0.3204(4) 0.60348(15) 0.11045(4)
C1 C 0.2140(5) 0.51110(17) 0.09404(4)
C2 C 0.2895(5) 0.50669(18) 0.06254(4)
C3 C 0.4717(6) 0.6097(2) 0.05055(5)
H1 H 0.5407 0.6793 0.0624
C4 C 0.5510(7) 0.6096(3) 0.02138(5)
H2 H 0.6715 0.6792 0.0136
C5 C 0.4506(6) 0.5052(3) 0.00371(5)
H3 H 0.5057 0.5045 -0.0159
C6 C 0.2692(6) 0.4026(3) 0.01531(5)
H4 H 0.2007 0.3333 0.0034
C7 C 0.1882(5) 0.4024(2) 0.04474(4)
H5 H 0.0669 0.3328 0.0525
C8 C 0.2081(5) 0.60527(18) 0.13922(4)
C9 C 0.2743(6) 0.7178(2) 0.15605(5)
H6 H 0.4013 0.7860 0.1484
C10 C 0.1525(6) 0.7282(2) 0.18387(5)
H7 H 0.2000 0.8026 0.1951
C11 C -0.0411(6) 0.6279(2) 0.19519(5)
H8 H -0.1274 0.6365 0.2138
C12 C -0.1070(6) 0.5145(2) 0.17891(4)
H9 H -0.2394 0.4483 0.1866
C13 C 0.0247(5) 0.49989(17) 0.15109(4)
C14 C -0.0202(5) 0.38291(17) 0.13236(4)
C15 C -0.1019(5) 0.25541(18) 0.13952(4)
C16 C -0.1682(5) 0.15329(17) 0.11665(4)
C17 C -0.3557(5) 0.18280(19) 0.09218(4)
H10 H -0.4452 0.2672 0.0902
C18 C -0.4109(6) 0.0879(2) 0.07073(4)
H11 H -0.5338 0.1097 0.0544
C19 C -0.2838(7) -0.0386(2) 0.07358(4)
H12 H -0.3202 -0.1020 0.0592
C20 C -0.1027(7) -0.07043(19) 0.09791(5)
H13 H -0.0197 -0.1559 0.1000
C21 C -0.0435(6) 0.02433(18) 0.11923(4)
H14 H 0.0806 0.0019 0.1354
C22 C -0.1059(5) 0.21563(18) 0.17010(4)
H15 H 0.0113 0.2683 0.1830
C23 C -0.2619(5) 0.1107(2) 0.18137(4)
H16 H -0.3915 0.0579 0.1695
C24 C -0.2293(5) 0.07836(19) 0.21266(4)
C25 C -0.3723(7) -0.0789(2) 0.24854(5)
H17 H -0.5115 -0.1546 0.2511
H18 H -0.4433 -0.0082 0.2611
H19 H -0.1530 -0.1029 0.2534
loop_
_geom_bond_atom_site_label_1
_geom_bond_atom_site_label_2
_geom_bond_site_symmetry_1
_geom_bond_site_symmetry_2
O1 C1 1_555 1_555
O2 C24 1_555 1_555
O3 C24 1_555 1_555
N1 C1 1_555 1_555
C1 C2 1_555 1_555
C2 C3 1_555 1_555
C3 H1 1_555 1_555
C4 C3 1_555 1_555
H2 C4 1_555 1_555
C5 C4 1_555 1_555
H3 C5 1_555 1_555
C6 C5 1_555 1_555
H4 C6 1_555 1_555
C7 C2 1_555 1_555
H5 C7 1_555 1_555
C8 N1 1_555 1_555
C9 C8 1_555 1_555
H6 C9 1_555 1_555
C10 C9 1_555 1_555
H7 C10 1_555 1_555
C11 C10 1_555 1_555
H8 C11 1_555 1_555
C12 C11 1_555 1_555
H9 C12 1_555 1_555
C13 C8 1_555 1_555
C14 O1 1_555 1_555
C15 C14 1_555 1_555
C16 C15 1_555 1_555
C17 C16 1_555 1_555
H10 C17 1_555 1_555
C18 C17 1_555 1_555
H11 C18 1_555 1_555
C19 C18 1_555 1_555
H12 C19 1_555 1_555
C20 C19 1_555 1_555
H13 C20 1_555 1_555
C21 C16 1_555 1_555
H14 C21 1_555 1_555
C22 C15 1_555 1_555
H15 C22 1_555 1_555
C23 C22 1_555 1_555
H16 C23 1_555 1_555
C24 C23 1_555 1_555
C25 O3 1_555 1_555
H17 C25 1_555 1_555
H18 C25 1_555 1_555
H19 C25 1_555 1_555
C6 C7 1_555 1_555
C12 C13 1_555 1_555
C13 C14 1_555 1_555
C20 C21 1_555 1_555

#END
