
#######################################################################
#
#                 Cambridge Crystallographic Data Centre
#                                CCDC 
#
#######################################################################
#
# If this CIF has been generated from an entry in the Cambridge 
# Structural Database, then it will include bibliographic, chemical, 
# crystal, experimental, refinement or atomic coordinate data resulting 
# from the CCDC's data processing and validation procedures.
#
#######################################################################

data_SUKFIP
_chemical_compound_source        'Trichilia americana'
_chemical_name_common            'Americanolide A monohydrate'
_chemical_formula_moiety         'C31 H38 O13,H2 O1'
_chemical_name_systematic        
'Methyl 1,6,11-trihydroxy-17-(5-methoxy-2-oxo-2,5-dihydrofuran-3-yl)-4,8-dimethyl-3,7-dioxo-12-(propionyloxy)-14,15-epoxyandrost-5-ene-4-carboxylate monohydrate'
_chemical_properties_biological  'cytotoxic activity'
_symmetry_cell_setting           orthorhombic
_symmetry_space_group_name_H-M   'P 21 21 21'
_symmetry_Int_Tables_number      19
_space_group_name_Hall           'P 2ac 2ab'
loop_
_symmetry_equiv_pos_site_id
_symmetry_equiv_pos_as_xyz
1 x,y,z
2 1/2+x,1/2-y,-z
3 -x,1/2+y,1/2-z
4 1/2-x,-y,1/2+z
_cell_length_a                   13.5659(9)
_cell_length_b                   15.0473(9)
_cell_length_c                   29.761(2)
_cell_angle_alpha                90
_cell_angle_beta                 90
_cell_angle_gamma                90
_cell_volume                     6075.12
_exptl_crystal_colour            colorless
_exptl_crystal_description       plate
_cell_formula_units_Z            8
_chemical_properties_physical    'Hygroscopic, Heat-sensitive'
_exptl_crystal_recrystallization_method '95% aqueous alcohol'
_exptl_crystal_preparation       'Magnetic properties'
loop_
_atom_site_label
_atom_site_type_symbol
_atom_site_fract_x
_atom_site_fract_y
_atom_site_fract_z
O1 O 0.9575(5) 0.3124(5) 0.1467(2)
H1 H 0.9507 0.3616 0.1575
H2 H 0.9725 0.2752 0.1649
O2 O 0.1802(5) 0.1186(5) 0.3698(2)
O3 O 0.0261(5) 0.1135(5) 0.39478(19)
C1 C 0.0799(8) -0.0649(7) 0.1484(3)
H3 H 0.0819 -0.1270 0.1583
H4 H 0.0365 -0.0596 0.1223
H5 H 0.0547 -0.0276 0.1729
O4 O 0.0962(5) 0.2986(4) 0.3477(2)
O5 O 0.0074(5) 0.1913(5) 0.2089(2)
H6 H -0.0177 0.2253 0.1896
O6 O 0.0641(5) -0.0267(5) 0.3154(2)
H7 H 0.0856 -0.0103 0.3405
O7 O 0.1643(5) -0.1229(4) 0.25500(18)
O8 O 0.3575(5) -0.0537(5) 0.1621(2)
O9 O 0.1016(5) 0.0866(4) 0.1009(2)
O10 O 0.1707(6) 0.1905(4) 0.0557(2)
O11 O 0.3196(4) 0.1503(4) 0.16264(19)
H8 H 0.3401 0.1688 0.1377
C2 C 0.2101(9) 0.0902(8) 0.4147(3)
H9 H 0.1944 0.1370 0.4365
H10 H 0.2813 0.0788 0.4150
H11 H 0.1748 0.0356 0.4228
C3 C 0.0802(7) 0.1244(6) 0.3648(3)
C4 C 0.0544(6) 0.1539(6) 0.3172(3)
C5 C 0.1144(7) 0.1063(7) 0.2810(3)
C6 C 0.1655(7) 0.1575(6) 0.2443(3)
C7 C 0.1828(7) 0.0929(6) 0.2040(3)
H12 H 0.1144 0.0723 0.1971
C8 C 0.2356(6) 0.0034(6) 0.2184(3)
C9 C 0.2535(7) -0.0454(6) 0.1750(3)
C10 C 0.3019(8) -0.1338(7) 0.1709(3)
H13 H 0.3159 -0.1698 0.1984
C11 C 0.2731(9) -0.1774(7) 0.1297(3)
H14 H 0.2222 -0.2231 0.1355
H15 H 0.3305 -0.2059 0.1151
C12 C 0.2321(9) -0.1027(8) 0.1007(3)
H16 H 0.2901 -0.0730 0.0865
C13 C 0.1551(10) -0.0798(9) 0.0224(3)
O12 O 0.0910(7) -0.1171(6) -0.0076(2)
C14 C 0.0738(7) 0.2566(6) 0.3147(3)
C15 C 0.0625(7) 0.2923(7) 0.2680(3)
H17 H 0.1011 0.3481 0.2661
H18 H -0.0076 0.3084 0.2638
C16 C 0.0928(8) 0.2337(7) 0.2286(3)
H19 H 0.1261 0.2710 0.2053
C17 C 0.1136(6) 0.0149(6) 0.2829(3)
C18 C 0.1690(8) -0.0385(7) 0.2511(3)
C19 C 0.3355(7) 0.0145(7) 0.2440(3)
H20 H 0.3239 0.0451 0.2726
H21 H 0.3812 0.0496 0.2256
H22 H 0.3641 -0.0442 0.2498
O13 O 0.1898(6) -0.0099(5) 0.0125(3)
C20 C 0.1970(7) 0.0645(6) 0.1208(3)
H23 H 0.2501 0.0703 0.0977
C21 C 0.1003(8) 0.1493(7) 0.0684(3)
C22 C -0.0076(9) 0.1631(8) 0.0525(4)
H24 H -0.0437 0.1968 0.0759
H25 H -0.0071 0.1995 0.0248
C23 C -0.0612(10) 0.0795(9) 0.0434(4)
H26 H -0.0282 0.0472 0.0191
H27 H -0.1291 0.0932 0.0345
H28 H -0.0619 0.0428 0.0706
C24 C 0.2158(5) 0.1308(7) 0.1595(3)
H29 H 0.1789 0.1870 0.1534
C25 C 0.2581(7) 0.2062(7) 0.2619(3)
H30 H 0.2384 0.2624 0.2760
H31 H 0.3029 0.2184 0.2369
H32 H 0.2916 0.1688 0.2842
C26 C -0.0568(7) 0.1429(7) 0.3103(3)
H33 H -0.0746 0.0801 0.3135
H34 H -0.0748 0.1637 0.2802
H35 H -0.0922 0.1780 0.3329
C27 C 0.1872(8) -0.0334(7) 0.1353(3)
C28 C 0.072(2) -0.2024(17) 0.0128(7)
H36 H 0.1130 -0.2459 -0.0046
C29 C -0.0746(9) -0.1770(8) 0.0290(3)
H37 H -0.0425 -0.1240 0.0413
H38 H -0.1040 -0.2114 0.0535
H39 H -0.1263 -0.1591 0.0078
O14 O -0.0095(13) -0.2257(16) 0.0082(5)
C30 C 0.1668(11) -0.1299(8) 0.0639(4)
C31 C 0.1131(17) -0.2033(11) 0.0589(4)
H40 H 0.1028 -0.2481 0.0809
O15 O 0.0593(5) 0.4301(5) 0.0981(2)
H41 H 0.0644 0.4155 0.0718
H42 H 0.0361 0.4797 0.1003
O16 O 0.4364(5) 0.5677(4) 0.18254(19)
O17 O 0.5698(6) -0.2075(5) 0.1373(2)
O18 O 0.2912(5) 0.5500(5) 0.2159(2)
O19 O 0.2801(6) 0.5654(5) 0.1070(2)
O20 O 0.3394(5) 0.2684(4) 0.09103(19)
H43 H 0.3101 0.2418 0.0701
O21 O 0.6543(5) 0.3007(4) 0.0485(2)
H44 H 0.6743 0.2759 0.0249
O22 O 0.5380(5) 0.0886(5) 0.06340(18)
O23 O 0.5753(5) 0.1145(5) -0.0086(2)
O24 O 0.7862(4) 0.2292(4) 0.13177(19)
O25 O 0.6829(5) -0.1583(4) 0.0834(2)
O26 O 0.5951(5) 0.2877(4) 0.22778(18)
O27 O 0.4323(5) 0.3796(4) 0.23138(17)
H45 H 0.4723 0.3639 0.2514
C32 C 0.4539(9) 0.6429(8) 0.2110(3)
H46 H 0.4079 0.6907 0.2032
H47 H 0.5217 0.6637 0.2069
H48 H 0.4439 0.6256 0.2425
C33 C 0.3471(7) 0.5280(7) 0.1890(3)
C34 C 0.3362(7) 0.4511(6) 0.1558(3)
C35 C 0.4285(7) 0.3940(7) 0.1521(3)
C36 C 0.4692(7) 0.3728(6) 0.1053(3)
C37 C 0.5386(7) 0.2902(6) 0.1098(3)
H49 H 0.4936 0.2432 0.1218
C38 C 0.5777(7) 0.2496(6) 0.0677(3)
H50 H 0.5225 0.2473 0.0454
C39 C 0.6126(7) 0.1532(7) 0.0759(3)
H51 H 0.6722 0.1425 0.0569
C40 C 0.6406(7) 0.1305(6) 0.1263(3)
C41 C 0.7322(6) 0.0674(6) 0.1296(3)
H52 H 0.7795 0.0833 0.1051
C42 C 0.7063(7) -0.0335(6) 0.1254(3)
C43 C 0.6828(9) -0.0940(8) 0.1538(4)
H53 H 0.6762 -0.0849 0.1853
C44 C 0.6674(9) -0.1811(7) 0.1302(3)
H54 H 0.7152 -0.2272 0.1407
C45 C 0.5502(12) -0.2887(9) 0.1141(4)
H55 H 0.5697 -0.2827 0.0826
H56 H 0.4796 -0.3021 0.1158
H57 H 0.5877 -0.3370 0.1281
C46 C 0.3059(7) 0.4845(6) 0.1102(3)
C47 C 0.3026(8) 0.4260(7) 0.0714(3)
H58 H 0.3144 0.4614 0.0439
H59 H 0.2361 0.3995 0.0692
C48 C 0.3813(8) 0.3496(7) 0.0743(3)
H60 H 0.4073 0.3383 0.0434
C49 C 0.5287(8) 0.0760(7) 0.0187(3)
C50 C 0.4432(12) 0.0106(10) 0.0097(4)
H61 H 0.3810 0.0385 0.0200
H62 H 0.4378 0.0014 -0.0231
C51 C 0.6821(7) 0.2170(6) 0.1463(3)
C52 C 0.7644(7) 0.1927(6) 0.1753(3)
H63 H 0.7786 0.2276 0.2032
C53 C 0.7782(7) 0.0931(6) 0.1747(3)
H64 H 0.7433 0.0644 0.2001
H65 H 0.8489 0.0769 0.1759
C54 C 0.7058(8) -0.0672(6) 0.0807(3)
O28 O 0.7190(6) -0.0364(4) 0.0437(2)
C55 C 0.6166(7) 0.2987(6) 0.1466(3)
C56 C 0.5641(6) 0.3117(6) 0.1913(3)
C57 C 0.4713(6) 0.3618(6) 0.1901(3)
C58 C 0.6839(7) 0.3841(7) 0.1450(3)
H66 H 0.7099 0.3919 0.1146
H67 H 0.7388 0.3772 0.1662
H68 H 0.6449 0.4364 0.1534
C59 C 0.5559(7) 0.0979(7) 0.1552(3)
H69 H 0.5808 0.0815 0.1850
H70 H 0.5253 0.0460 0.1411
H71 H 0.5068 0.1453 0.1583
C60 C 0.5188(7) 0.4576(6) 0.0845(3)
H72 H 0.4692 0.4924 0.0682
H73 H 0.5710 0.4395 0.0636
H74 H 0.5473 0.4940 0.1085
C61 C 0.2456(7) 0.3918(8) 0.1729(3)
H75 H 0.1868 0.4291 0.1758
H76 H 0.2618 0.3658 0.2022
H77 H 0.2329 0.3441 0.1513
C62 C 0.4523(14) -0.0766(10) 0.0315(6)
H78 H 0.5126 -0.1060 0.0210
H79 H 0.3951 -0.1133 0.0238
H80 H 0.4554 -0.0688 0.0641
loop_
_geom_bond_atom_site_label_1
_geom_bond_atom_site_label_2
_geom_bond_site_symmetry_1
_geom_bond_site_symmetry_2
O1 H1 1_555 1_555
H2 O1 1_555 1_555
O2 C2 1_555 1_555
O3 C3 1_555 1_555
C1 H3 1_555 1_555
H4 C1 1_555 1_555
H5 C1 1_555 1_555
O4 C14 1_555 1_555
O5 H6 1_555 1_555
O6 H7 1_555 1_555
O7 C18 1_555 1_555
O8 C9 1_555 1_555
O9 C20 1_555 1_555
O10 C21 1_555 1_555
O11 H8 1_555 1_555
C2 H9 1_555 1_555
H10 C2 1_555 1_555
H11 C2 1_555 1_555
C3 O2 1_555 1_555
C4 C3 1_555 1_555
C5 C4 1_555 1_555
C6 C5 1_555 1_555
C7 C6 1_555 1_555
H12 C7 1_555 1_555
C8 C7 1_555 1_555
C9 C8 1_555 1_555
C10 O8 1_555 1_555
H13 C10 1_555 1_555
C11 C10 1_555 1_555
H14 C11 1_555 1_555
H15 C11 1_555 1_555
C12 C11 1_555 1_555
H16 C12 1_555 1_555
C13 O12 1_555 1_555
O12 C28 1_555 1_555
C14 C4 1_555 1_555
C15 C14 1_555 1_555
H17 C15 1_555 1_555
H18 C15 1_555 1_555
C16 O5 1_555 1_555
H19 C16 1_555 1_555
C17 O6 1_555 1_555
C18 C8 1_555 1_555
C19 C8 1_555 1_555
H20 C19 1_555 1_555
H21 C19 1_555 1_555
H22 C19 1_555 1_555
O13 C13 1_555 1_555
C20 H23 1_555 1_555
C21 O9 1_555 1_555
C22 C21 1_555 1_555
H24 C22 1_555 1_555
H25 C22 1_555 1_555
C23 C22 1_555 1_555
H26 C23 1_555 1_555
H27 C23 1_555 1_555
H28 C23 1_555 1_555
C24 O11 1_555 1_555
H29 C24 1_555 1_555
C25 C6 1_555 1_555
H30 C25 1_555 1_555
H31 C25 1_555 1_555
H32 C25 1_555 1_555
C26 C4 1_555 1_555
H33 C26 1_555 1_555
H34 C26 1_555 1_555
H35 C26 1_555 1_555
C27 C1 1_555 1_555
C28 H36 1_555 1_555
C29 H37 1_555 1_555
H38 C29 1_555 1_555
H39 C29 1_555 1_555
O14 C28 1_555 1_555
C30 C12 1_555 1_555
C31 C28 1_555 1_555
H40 C31 1_555 1_555
O15 H41 1_555 1_555
H42 O15 1_555 1_555
O16 C32 1_555 1_555
O17 C44 1_555 1_555
O18 C33 1_555 1_555
O19 C46 1_555 1_555
O20 H43 1_555 1_555
O21 H44 1_555 1_555
O22 C39 1_555 1_555
O23 C49 1_555 1_555
O24 C51 1_555 1_555
O25 C44 1_555 1_555
O26 C56 1_555 1_555
O27 H45 1_555 1_555
C32 H46 1_555 1_555
H47 C32 1_555 1_555
H48 C32 1_555 1_555
C33 O16 1_555 1_555
C34 C33 1_555 1_555
C35 C34 1_555 1_555
C36 C35 1_555 1_555
C37 C36 1_555 1_555
H49 C37 1_555 1_555
C38 O21 1_555 1_555
H50 C38 1_555 1_555
C39 C38 1_555 1_555
H51 C39 1_555 1_555
C40 C39 1_555 1_555
C41 C40 1_555 1_555
H52 C41 1_555 1_555
C42 C41 1_555 1_555
C43 C42 1_555 1_555
H53 C43 1_555 1_555
C44 C43 1_555 1_555
H54 C44 1_555 1_555
C45 O17 1_555 1_555
H55 C45 1_555 1_555
H56 C45 1_555 1_555
H57 C45 1_555 1_555
C46 C34 1_555 1_555
C47 C46 1_555 1_555
H58 C47 1_555 1_555
H59 C47 1_555 1_555
C48 O20 1_555 1_555
H60 C48 1_555 1_555
C49 O22 1_555 1_555
C50 C49 1_555 1_555
H61 C50 1_555 1_555
H62 C50 1_555 1_555
C51 C40 1_555 1_555
C52 O24 1_555 1_555
H63 C52 1_555 1_555
C53 C41 1_555 1_555
H64 C53 1_555 1_555
H65 C53 1_555 1_555
C54 O25 1_555 1_555
O28 C54 1_555 1_555
C55 C37 1_555 1_555
C56 C55 1_555 1_555
C57 O27 1_555 1_555
C58 C55 1_555 1_555
H66 C58 1_555 1_555
H67 C58 1_555 1_555
H68 C58 1_555 1_555
C59 C40 1_555 1_555
H69 C59 1_555 1_555
H70 C59 1_555 1_555
H71 C59 1_555 1_555
C60 C36 1_555 1_555
H72 C60 1_555 1_555
H73 C60 1_555 1_555
H74 C60 1_555 1_555
C61 C34 1_555 1_555
H75 C61 1_555 1_555
H76 C61 1_555 1_555
H77 C61 1_555 1_555
C62 C50 1_555 1_555
H78 C62 1_555 1_555
H79 C62 1_555 1_555
H80 C62 1_555 1_555
C5 C17 1_555 1_555
C6 C16 1_555 1_555
C7 C24 1_555 1_555
C9 C10 1_555 1_555
C9 C27 1_555 1_555
C12 C27 1_555 1_555
C13 C30 1_555 1_555
C15 C16 1_555 1_555
C17 C18 1_555 1_555
C20 C24 1_555 1_555
C20 C27 1_555 1_555
C29 O14 1_555 1_555
C30 C31 1_555 1_555
C35 C57 1_555 1_555
C36 C48 1_555 1_555
C37 C38 1_555 1_555
C42 C54 1_555 1_555
C47 C48 1_555 1_555
C51 C52 1_555 1_555
C51 C55 1_555 1_555
C52 C53 1_555 1_555
C56 C57 1_555 1_555

#END
