
#######################################################################
#
#                 Cambridge Crystallographic Data Centre
#                                CCDC 
#
#######################################################################
#
# If this CIF has been generated from an entry in the Cambridge 
# Structural Database, then it will include bibliographic, chemical, 
# crystal, experimental, refinement or atomic coordinate data resulting 
# from the CCDC's data processing and validation procedures.
#
#######################################################################

data_SUKHOV
_chemical_formula_moiety         'C9 H9 N3 O3 S1'
_chemical_name_systematic        
'2,10-Dihydro-10-hydroxy-3H-imidazo(1,2-b)(1,2,4)benzothiadiazine 5,5-dioxide'
_chemical_properties_biological  'antitumour activity'
_symmetry_cell_setting           orthorhombic
_symmetry_space_group_name_H-M   'P b c a'
_symmetry_Int_Tables_number      61
_space_group_name_Hall           '-P 2ac 2ab'
loop_
_symmetry_equiv_pos_site_id
_symmetry_equiv_pos_as_xyz
1 x,y,z
2 1/2-x,-y,1/2+z
3 1/2+x,1/2-y,-z
4 -x,1/2+y,1/2-z
5 -x,-y,-z
6 1/2+x,y,1/2-z
7 1/2-x,1/2+y,z
8 x,1/2-y,1/2+z
_cell_length_a                   39.286(7)
_cell_length_b                   11.2159(7)
_cell_length_c                   9.1284(22)
_cell_angle_alpha                90
_cell_angle_beta                 90
_cell_angle_gamma                90
_cell_volume                     4022.23
_chemical_melting_point          195deg.C
_cell_formula_units_Z            16
loop_
_atom_site_label
_atom_site_type_symbol
_atom_site_fract_x
_atom_site_fract_y
_atom_site_fract_z
S1 S 0.67106(4) 0.39555(8) 0.09315(12)
O1 O 0.68148(10) 0.32617(24) 0.2165(3)
O2 O 0.66164(10) 0.33402(25) -0.0370(3)
O3 O 0.68242(9) 0.70488(22) 0.3621(3)
N1 N 0.67697(11) 0.6244(3) 0.2482(4)
N2 N 0.61996(11) 0.5977(3) 0.3278(3)
N3 N 0.63907(10) 0.4841(3) 0.1397(3)
C1 C 0.70199(13) 0.5028(3) 0.0588(4)
C2 C 0.72727(13) 0.4813(4) -0.0407(5)
C3 C 0.75499(15) 0.5563(4) -0.0526(5)
C4 C 0.75626(16) 0.6568(4) 0.0392(6)
C5 C 0.73111(14) 0.6799(4) 0.1390(5)
C6 C 0.70298(14) 0.6043(3) 0.1514(5)
C7 C 0.64555(13) 0.5736(3) 0.2459(4)
C8 C 0.59091(14) 0.5258(4) 0.2764(5)
C9 C 0.60662(14) 0.4288(4) 0.1809(5)
H1 H 0.7315(10) 0.741(4) 0.214(4)
H2 H 0.6113(13) 0.356(4) 0.236(5)
H3 H 0.5940(12) 0.393(4) 0.095(4)
H4 H 0.5787(12) 0.495(4) 0.361(4)
H5 H 0.7245(11) 0.415(4) -0.119(4)
H6 H 0.5748(13) 0.570(5) 0.211(5)
H7 H 0.6731(12) 0.776(4) 0.335(5)
H8 H 0.7774(11) 0.721(4) 0.022(5)
H9 H 0.7692(14) 0.558(5) -0.153(6)
S2 S 0.56909(4) 1.06668(10) 0.22852(14)
O4 O 0.55595(11) 1.10298(33) 0.0908(4)
O5 O 0.57404(11) 1.15726(26) 0.3369(4)
O6 O 0.61227(9) 0.78306(22) 0.4935(3)
N4 N 0.59759(12) 0.8609(3) 0.3937(4)
N5 N 0.65119(11) 0.8995(3) 0.2878(4)
N6 N 0.60511(11) 0.9949(3) 0.1957(4)
C10 C 0.54583(13) 0.9503(4) 0.3032(5)
C11 C 0.51049(15) 0.9486(5) 0.2895(6)
C12 C 0.49115(17) 0.8640(6) 0.3610(7)
C13 C 0.50735(16) 0.7822(5) 0.4497(6)
C14 C 0.54225(14) 0.7790(4) 0.4628(5)
C15 C 0.56231(15) 0.8631(4) 0.3890(5)
C16 C 0.61934(14) 0.9148(3) 0.2985(4)
C17 C 0.66351(14) 0.9765(4) 0.1686(5)
C18 C 0.63385(15) 1.0615(4) 0.1355(5)
H10 H 0.5570(12) 0.720(4) 0.523(5)
H11 H 0.5015(12) 1.019(4) 0.229(4)
H12 H 0.6192(12) 0.699(4) 0.416(5)
H13 H 0.6690(11) 0.922(4) 0.078(4)
H14 H 0.6392(11) 1.141(4) 0.192(4)
H15 H 0.6311(10) 1.082(3) 0.037(4)
H16 H 0.4934(13) 0.729(4) 0.503(6)
H17 H 0.4633(14) 0.866(5) 0.345(6)
H18 H 0.6862(11) 1.017(4) 0.209(5)
loop_
_geom_bond_atom_site_label_1
_geom_bond_atom_site_label_2
_geom_bond_site_symmetry_1
_geom_bond_site_symmetry_2
S1 O1 1_555 1_555
O2 S1 1_555 1_555
O3 N1 1_555 1_555
N1 C6 1_555 1_555
N2 C7 1_555 1_555
N3 S1 1_555 1_555
C1 S1 1_555 1_555
C2 C1 1_555 1_555
C3 C2 1_555 1_555
C4 C3 1_555 1_555
C5 C4 1_555 1_555
C6 C1 1_555 1_555
C7 N1 1_555 1_555
C8 N2 1_555 1_555
C9 N3 1_555 1_555
H1 C5 1_555 1_555
H2 C9 1_555 1_555
H3 C9 1_555 1_555
H4 C8 1_555 1_555
H5 C2 1_555 1_555
H6 C8 1_555 1_555
H7 O3 1_555 1_555
H8 C4 1_555 1_555
H9 C3 1_555 1_555
S2 O4 1_555 1_555
O5 S2 1_555 1_555
O6 N4 1_555 1_555
N4 C15 1_555 1_555
N5 C16 1_555 1_555
N6 S2 1_555 1_555
C10 S2 1_555 1_555
C11 C10 1_555 1_555
C12 C11 1_555 1_555
C13 C12 1_555 1_555
C14 C13 1_555 1_555
C15 C10 1_555 1_555
C16 N4 1_555 1_555
C17 N5 1_555 1_555
C18 N6 1_555 1_555
H10 C14 1_555 1_555
H11 C11 1_555 1_555
H12 O6 1_555 1_555
H13 C17 1_555 1_555
H14 C18 1_555 1_555
H15 C18 1_555 1_555
H16 C13 1_555 1_555
H17 C12 1_555 1_555
H18 C17 1_555 1_555
N3 C7 1_555 1_555
C5 C6 1_555 1_555
C8 C9 1_555 1_555
N6 C16 1_555 1_555
C14 C15 1_555 1_555
C17 C18 1_555 1_555

#END
