
#######################################################################
#
#                 Cambridge Crystallographic Data Centre
#                                CCDC 
#
#######################################################################
#
# If this CIF has been generated from an entry in the Cambridge 
# Structural Database, then it will include bibliographic, chemical, 
# crystal, experimental, refinement or atomic coordinate data resulting 
# from the CCDC's data processing and validation procedures.
#
#######################################################################

data_SUKKIU
_chemical_formula_moiety         'C17 H21 N3 O5'
_chemical_name_systematic        
3,5-dinitro-N-(1,7,7-trimethylbicyclo[2.2.1]hept-2-yl)benzamide
_symmetry_cell_setting           orthorhombic
_symmetry_space_group_name_H-M   'P 21 21 21'
_symmetry_Int_Tables_number      19
_space_group_name_Hall           'P 2ac 2ab'
loop_
_symmetry_equiv_pos_site_id
_symmetry_equiv_pos_as_xyz
1 x,y,z
2 1/2+x,1/2-y,-z
3 -x,1/2+y,1/2-z
4 1/2-x,-y,1/2+z
_cell_length_a                   7.5155(4)
_cell_length_b                   20.2500(11)
_cell_length_c                   22.8861(13)
_cell_angle_alpha                90
_cell_angle_beta                 90
_cell_angle_gamma                90
_cell_volume                     3483.01
_cell_formula_units_Z            8
loop_
_atom_site_label
_atom_site_type_symbol
_atom_site_fract_x
_atom_site_fract_y
_atom_site_fract_z
O1 O -0.5300(3) -0.84170(8) -0.23851(7)
N1 N -0.4003(3) -0.74529(10) -0.21123(8)
C1 C -0.4923(3) -0.78332(12) -0.24760(10)
O2 O -0.4175(4) -0.61691(15) -0.46515(11)
C2 C -0.5486(3) -0.75102(11) -0.30398(9)
C3 C -0.4353(3) -0.70940(11) -0.33432(10)
H1 H -0.3264(3) -0.69724(11) -0.31833(10)
C4 C -0.3353(3) -0.76844(12) -0.15436(9)
H2 H -0.4155(3) -0.80306(12) -0.14019(9)
N2 N -0.3620(4) -0.64349(13) -0.42109(11)
O3 O -0.2121(4) -0.63696(12) -0.40223(10)
C5 C -0.1409(3) -0.79560(11) -0.15300(10)
C6 C -0.7120(3) -0.76722(12) -0.32747(11)
H3 H -0.7903(3) -0.79449(12) -0.30726(11)
C7 C -0.4859(4) -0.68609(12) -0.38869(11)
O4 O -0.9593(4) -0.74637(16) -0.45757(12)
C8 C -0.6466(4) -0.70210(13) -0.41356(11)
H4 H -0.6789(4) -0.68653(13) -0.45029(11)
C9 C -0.1330(4) -0.83502(13) -0.09614(11)
H5 H -0.2342(4) -0.86451(13) -0.09287(11)
H6 H -0.0244(4) -0.86080(13) -0.09399(11)
C10 C -0.0875(4) -0.83474(15) -0.20638(12)
H7 H -0.1637(18) -0.8726(6) -0.2102(5)
H8 H -0.099(3) -0.8075(3) -0.24051(16)
H9 H 0.0336(9) -0.8490(8) -0.2024(4)
C11 C -0.0288(3) -0.73409(12) -0.13672(11)
C12 C -0.7570(3) -0.74206(14) -0.38172(12)
N3 N -0.9315(4) -0.75963(15) -0.40671(14)
C13 C -0.3307(4) -0.71239(14) -0.10890(11)
H10 H -0.3486(4) -0.66974(14) -0.12727(11)
H11 H -0.4209(4) -0.71881(14) -0.07913(11)
C14 C -0.0221(4) -0.67990(14) -0.18334(14)
H12 H 0.033(3) -0.6970(3) -0.2181(3)
H13 H -0.1409(5) -0.6655(7) -0.1922(7)
H14 H 0.046(2) -0.6432(4) -0.1690(4)
O5 O -1.0394(4) -0.78655(16) -0.37445(15)
C15 C -0.1374(4) -0.78225(16) -0.04812(12)
H15 H -0.2422(4) -0.78694(16) -0.02373(12)
H16 H -0.0320(4) -0.78450(16) -0.02375(12)
C16 C -0.1428(4) -0.71793(14) -0.08290(11)
H17 H -0.1038(4) -0.67891(14) -0.06106(11)
C17 C 0.1666(4) -0.75082(17) -0.12147(15)
H18 H 0.1693(4) -0.7807(9) -0.0889(6)
H19 H 0.2228(9) -0.7711(10) -0.1546(4)
H20 H 0.2290(8) -0.7110(2) -0.1115(9)
H21 H -0.400(3) -0.7009(13) -0.2158(11)
N4 N -0.3213(3) -0.42399(11) -0.43014(9)
O6 O -0.4176(3) -0.59726(9) -0.22507(8)
O7 O -0.4716(3) -0.40340(13) -0.42801(9)
O8 O -0.2207(3) -0.41309(12) -0.47083(8)
N5 N -0.5308(3) -0.49425(10) -0.21492(8)
H22 H -0.5306(3) -0.45412(10) -0.22723(8)
N6 N 0.1531(3) -0.55376(14) -0.33939(12)
O9 O 0.1924(3) -0.59505(15) -0.30300(12)
C18 C -0.4253(3) -0.53876(12) -0.24016(10)
C19 C -0.2550(3) -0.46369(12) -0.38094(10)
O10 O 0.2539(3) -0.53447(13) -0.37694(11)
C20 C -0.3670(3) -0.47554(11) -0.33417(10)
H23 H -0.4796(3) -0.45653(11) -0.33268(10)
C21 C -0.5670(3) -0.50566(12) -0.10365(10)
C22 C -0.0286(3) -0.52634(12) -0.33790(11)
C23 C -0.3081(3) -0.51630(11) -0.28960(10)
C24 C -0.1372(3) -0.54222(12) -0.29191(11)
H24 H -0.0968(3) -0.57013(12) -0.26249(11)
C25 C -0.0843(3) -0.48802(12) -0.38379(10)
H25 H -0.0102(3) -0.47892(12) -0.41533(10)
C26 C -0.6472(3) -0.51310(12) -0.16639(10)
H26 H -0.6785(3) -0.55969(12) -0.17174(10)
C27 C -0.6445(4) -0.43922(13) -0.08230(11)
C28 C -0.5702(5) -0.37943(13) -0.11392(16)
H27 H -0.4460(9) -0.3749(7) -0.1050(8)
H28 H -0.585(3) -0.3850(5) -0.15529(17)
H29 H -0.633(2) -0.3405(2) -0.1015(8)
C29 C -0.6781(4) -0.55506(14) -0.06730(13)
H30 H -0.6820(4) -0.59806(14) -0.08593(13)
H31 H -0.6302(4) -0.55986(14) -0.02818(13)
C30 C -0.8225(4) -0.47357(16) -0.16368(12)
H32 H -0.8155(4) -0.43362(16) -0.18696(12)
H33 H -0.9225(4) -0.49990(16) -0.17693(12)
C31 C -0.8375(4) -0.45762(15) -0.09836(12)
H34 H -0.9255(4) -0.42356(15) -0.08892(12)
C32 C -0.3679(4) -0.51380(15) -0.09936(13)
H35 H -0.3361(4) -0.5582(3) -0.1097(8)
H36 H -0.3107(4) -0.4835(7) -0.1256(6)
H37 H -0.3302(5) -0.5049(9) -0.0601(2)
C33 C -0.8642(4) -0.52285(16) -0.06598(14)
H38 H -0.9512(4) -0.55033(16) -0.08572(14)
H39 H -0.9032(4) -0.51526(16) -0.02613(14)
C34 C -0.6179(5) -0.42707(19) -0.01627(13)
H40 H -0.683(3) -0.4595(8) 0.00553(13)
H41 H -0.4937(7) -0.4304(12) -0.0069(2)
H42 H -0.660(3) -0.3837(5) -0.0064(2)
loop_
_geom_bond_atom_site_label_1
_geom_bond_atom_site_label_2
_geom_bond_site_symmetry_1
_geom_bond_site_symmetry_2
O1 C1 1_555 1_555
N1 C1 1_555 1_555
C1 C2 1_555 1_555
O2 N2 1_555 1_555
C2 C3 1_555 1_555
C3 H1 1_555 1_555
C4 N1 1_555 1_555
H2 C4 1_555 1_555
N2 O3 1_555 1_555
C5 C4 1_555 1_555
C6 C2 1_555 1_555
H3 C6 1_555 1_555
C7 C3 1_555 1_555
O4 N3 1_555 1_555
C8 C7 1_555 1_555
H4 C8 1_555 1_555
C9 C5 1_555 1_555
H5 C9 1_555 1_555
H6 C9 1_555 1_555
C10 C5 1_555 1_555
H7 C10 1_555 1_555
H8 C10 1_555 1_555
H9 C10 1_555 1_555
C11 C5 1_555 1_555
C12 C6 1_555 1_555
N3 C12 1_555 1_555
C13 C4 1_555 1_555
H10 C13 1_555 1_555
H11 C13 1_555 1_555
C14 C11 1_555 1_555
H12 C14 1_555 1_555
H13 C14 1_555 1_555
H14 C14 1_555 1_555
O5 N3 1_555 1_555
C15 C9 1_555 1_555
H15 C15 1_555 1_555
H16 C15 1_555 1_555
C16 C11 1_555 1_555
H17 C16 1_555 1_555
C17 C11 1_555 1_555
H18 C17 1_555 1_555
H19 C17 1_555 1_555
H20 C17 1_555 1_555
H21 N1 1_555 1_555
N4 O7 1_555 1_555
O6 C18 1_555 1_555
O8 N4 1_555 1_555
N5 H22 1_555 1_555
N6 O9 1_555 1_555
C18 N5 1_555 1_555
C19 N4 1_555 1_555
O10 N6 1_555 1_555
C20 C19 1_555 1_555
H23 C20 1_555 1_555
C21 C26 1_555 1_555
C22 N6 1_555 1_555
C23 C18 1_555 1_555
C24 C22 1_555 1_555
H24 C24 1_555 1_555
C25 C19 1_555 1_555
H25 C25 1_555 1_555
C26 N5 1_555 1_555
H26 C26 1_555 1_555
C27 C21 1_555 1_555
C28 C27 1_555 1_555
H27 C28 1_555 1_555
H28 C28 1_555 1_555
H29 C28 1_555 1_555
C29 C21 1_555 1_555
H30 C29 1_555 1_555
H31 C29 1_555 1_555
C30 C26 1_555 1_555
H32 C30 1_555 1_555
H33 C30 1_555 1_555
C31 C27 1_555 1_555
H34 C31 1_555 1_555
C32 C21 1_555 1_555
H35 C32 1_555 1_555
H36 C32 1_555 1_555
H37 C32 1_555 1_555
C33 C29 1_555 1_555
H38 C33 1_555 1_555
H39 C33 1_555 1_555
C34 C27 1_555 1_555
H40 C34 1_555 1_555
H41 C34 1_555 1_555
H42 C34 1_555 1_555
N2 C7 1_555 1_555
C8 C12 1_555 1_555
C13 C16 1_555 1_555
C15 C16 1_555 1_555
C20 C23 1_555 1_555
C22 C25 1_555 1_555
C23 C24 1_555 1_555
C30 C31 1_555 1_555
C31 C33 1_555 1_555

#END
