
#######################################################################
#
#                 Cambridge Crystallographic Data Centre
#                                CCDC 
#
#######################################################################
#
# If this CIF has been generated from an entry in the Cambridge 
# Structural Database, then it will include bibliographic, chemical, 
# crystal, experimental, refinement or atomic coordinate data resulting 
# from the CCDC's data processing and validation procedures.
#
#######################################################################

data_SUKTIC
_chemical_formula_moiety         'C18 H13 F3 N2 O3'
_chemical_name_systematic        
(R)-3'-Hydroxy-1-methyl-5'-(trifluoromethoxy)-1',3'-dihydro-1H,2'H-3,3'-biindol-2'-one
_symmetry_cell_setting           monoclinic
_symmetry_space_group_name_H-M   'P 21/c'
_symmetry_Int_Tables_number      14
_space_group_name_Hall           '-P 2ybc'
loop_
_symmetry_equiv_pos_site_id
_symmetry_equiv_pos_as_xyz
1 x,y,z
2 -x,1/2+y,1/2-z
3 -x,-y,-z
4 x,1/2-y,1/2+z
_cell_length_a                   6.563(3)
_cell_length_b                   25.825(11)
_cell_length_c                   18.331(8)
_cell_angle_alpha                90
_cell_angle_beta                 90.101(6)
_cell_angle_gamma                90
_cell_volume                     3106.91
_exptl_crystal_colour            colorless
_exptl_crystal_description       rod
_cell_formula_units_Z            8
_exptl_crystal_recrystallization_method deuterochloroform
loop_
_atom_site_label
_atom_site_type_symbol
_atom_site_fract_x
_atom_site_fract_y
_atom_site_fract_z
C1 C 0.9077(2) 0.38905(6) 0.14125(8)
C2 C 0.8096(2) 0.40115(6) 0.21347(9)
O1 O 1.09799(18) 0.41534(4) 0.13612(7)
H1 H 1.129(4) 0.4166(9) 0.0917(14)
C3 C 0.7536(2) 0.41322(6) 0.08701(9)
C4 C 0.6211(3) 0.42432(6) 0.20108(9)
N1 N 0.5920(2) 0.43102(5) 0.12529(8)
H2 H 0.495(4) 0.4468(9) 0.1058(13)
O2 O 0.78321(18) 0.41660(4) 0.02142(6)
C5 C 0.4912(3) 0.43622(6) 0.25774(10)
H3 H 0.357(3) 0.4498(8) 0.2497(11)
C6 C 0.5579(3) 0.42568(6) 0.32870(10)
H4 H 0.473(3) 0.4321(8) 0.3700(12)
C7 C 0.7467(3) 0.40369(6) 0.34006(9)
O3 O 0.79740(19) 0.39284(5) 0.41366(6)
C8 C 0.8757(3) 0.38998(6) 0.28324(9)
H5 H 1.005(3) 0.3738(7) 0.2905(10)
C9 C 0.9791(3) 0.40727(7) 0.43891(10)
F1 F 1.03827(19) 0.45375(4) 0.41761(7)
C10 C 0.9255(2) 0.33137(6) 0.13033(8)
C11 C 1.0812(3) 0.29918(6) 0.16263(9)
F2 F 0.97438(19) 0.40594(5) 0.51104(6)
C12 C 0.7843(3) 0.29884(6) 0.09996(9)
H6 H 0.659(3) 0.3081(7) 0.0735(10)
C13 C 1.0206(3) 0.24730(7) 0.14954(9)
F3 F 1.12777(19) 0.37484(5) 0.41818(6)
N2 N 0.8393(2) 0.24806(5) 0.11175(8)
C14 C 1.1386(3) 0.20518(7) 0.17165(11)
H7 H 1.095(3) 0.1686(9) 0.1617(12)
C15 C 1.3169(3) 0.21583(8) 0.20847(11)
H8 H 1.401(4) 0.1894(9) 0.2244(13)
C16 C 1.3797(3) 0.26680(8) 0.22215(11)
H9 H 1.509(4) 0.2739(9) 0.2464(12)
C17 C 1.2644(3) 0.30855(7) 0.19945(9)
H10 H 1.304(3) 0.3432(8) 0.2074(11)
C18 C 0.7307(4) 0.20268(8) 0.08561(13)
H11 H 0.803(4) 0.1891(10) 0.0415(16)
H12 H 0.586(4) 0.2112(10) 0.0761(14)
H13 H 0.730(4) 0.1765(11) 0.1239(16)
C19 C 0.6079(2) 0.57130(6) 0.10275(8)
C20 C 0.6944(2) 0.56386(6) 0.17840(8)
O4 O 0.42151(17) 0.54381(4) 0.09578(6)
H14 H 0.368(4) 0.5545(9) 0.0560(14)
C21 C 0.7749(2) 0.54539(6) 0.05529(8)
C22 C 0.8866(2) 0.54136(6) 0.17310(8)
N3 N 0.9296(2) 0.53049(5) 0.09921(7)
H15 H 1.040(3) 0.5141(8) 0.0838(11)
O5 O 0.76396(18) 0.53884(4) -0.01092(6)
C23 C 1.0093(3) 0.53353(6) 0.23374(9)
H16 H 1.143(3) 0.5209(7) 0.2280(10)
C24 C 0.9318(3) 0.54854(6) 0.30158(9)
H17 H 1.018(3) 0.5448(7) 0.3459(11)
C25 C 0.7405(3) 0.57013(6) 0.30608(8)
O6 O 0.6734(2) 0.59023(4) 0.37414(6)
C26 C 0.6173(2) 0.57834(6) 0.24531(9)
H18 H 0.485(3) 0.5948(7) 0.2499(10)
C27 C 0.5659(3) 0.55902(7) 0.41740(9)
F4 F 0.39551(17) 0.54120(5) 0.38637(6)
C28 C 0.5905(2) 0.62790(6) 0.08377(8)
C29 C 0.4337(2) 0.66277(6) 0.10856(8)
F5 F 0.66956(18) 0.51745(4) 0.43921(6)
C30 C 0.7332(3) 0.65737(6) 0.04883(9)
H19 H 0.863(3) 0.6467(7) 0.0265(10)
C31 C 0.4945(3) 0.71300(6) 0.08591(9)
F6 F 0.51545(19) 0.58574(5) 0.47620(6)
N4 N 0.6767(2) 0.70856(5) 0.04974(8)
C32 C 0.3795(3) 0.75724(7) 0.10148(10)
H20 H 0.426(3) 0.7934(8) 0.0848(11)
C33 C 0.2016(3) 0.75042(7) 0.13988(11)
H21 H 0.120(4) 0.7787(9) 0.1510(13)
C34 C 0.1359(3) 0.70088(8) 0.16147(10)
H22 H 0.009(3) 0.6963(8) 0.1865(12)
C35 C 0.2503(3) 0.65726(7) 0.14624(9)
H23 H 0.200(3) 0.6243(8) 0.1597(11)
C36 C 0.7932(3) 0.75123(7) 0.01938(12)
H24 H 0.727(4) 0.7656(9) -0.0227(13)
H25 H 0.926(4) 0.7381(9) 0.0064(13)
H26 H 0.805(3) 0.7786(9) 0.0561(13)
loop_
_geom_bond_atom_site_label_1
_geom_bond_atom_site_label_2
_geom_bond_site_symmetry_1
_geom_bond_site_symmetry_2
C1 C2 1_555 1_555
C2 C4 1_555 1_555
O1 C1 1_555 1_555
H1 O1 1_555 1_555
C3 C1 1_555 1_555
C4 N1 1_555 1_555
N1 C3 1_555 1_555
H2 N1 1_555 1_555
O2 C3 1_555 1_555
C5 C4 1_555 1_555
H3 C5 1_555 1_555
C6 C5 1_555 1_555
H4 C6 1_555 1_555
C7 C6 1_555 1_555
O3 C7 1_555 1_555
C8 C2 1_555 1_555
H5 C8 1_555 1_555
C9 O3 1_555 1_555
F1 C9 1_555 1_555
C10 C1 1_555 1_555
C11 C10 1_555 1_555
F2 C9 1_555 1_555
C12 C10 1_555 1_555
H6 C12 1_555 1_555
C13 C11 1_555 1_555
F3 C9 1_555 1_555
N2 C12 1_555 1_555
C14 C13 1_555 1_555
H7 C14 1_555 1_555
C15 C14 1_555 1_555
H8 C15 1_555 1_555
C16 C15 1_555 1_555
H9 C16 1_555 1_555
C17 C11 1_555 1_555
H10 C17 1_555 1_555
C18 N2 1_555 1_555
H11 C18 1_555 1_555
H12 C18 1_555 1_555
H13 C18 1_555 1_555
C19 C20 1_555 1_555
C20 C22 1_555 1_555
O4 C19 1_555 1_555
H14 O4 1_555 1_555
C21 C19 1_555 1_555
C22 N3 1_555 1_555
N3 C21 1_555 1_555
H15 N3 1_555 1_555
O5 C21 1_555 1_555
C23 C22 1_555 1_555
H16 C23 1_555 1_555
C24 C23 1_555 1_555
H17 C24 1_555 1_555
C25 C24 1_555 1_555
O6 C25 1_555 1_555
C26 C20 1_555 1_555
H18 C26 1_555 1_555
C27 O6 1_555 1_555
F4 C27 1_555 1_555
C28 C19 1_555 1_555
C29 C28 1_555 1_555
F5 C27 1_555 1_555
C30 C28 1_555 1_555
H19 C30 1_555 1_555
C31 C29 1_555 1_555
F6 C27 1_555 1_555
N4 C30 1_555 1_555
C32 C31 1_555 1_555
H20 C32 1_555 1_555
C33 C32 1_555 1_555
H21 C33 1_555 1_555
C34 C33 1_555 1_555
H22 C34 1_555 1_555
C35 C29 1_555 1_555
H23 C35 1_555 1_555
C36 N4 1_555 1_555
H24 C36 1_555 1_555
H25 C36 1_555 1_555
H26 C36 1_555 1_555
C7 C8 1_555 1_555
C13 N2 1_555 1_555
C16 C17 1_555 1_555
C25 C26 1_555 1_555
C31 N4 1_555 1_555
C34 C35 1_555 1_555

#END
