
#######################################################################
#
#                 Cambridge Crystallographic Data Centre
#                                CCDC 
#
#######################################################################
#
# If this CIF has been generated from an entry in the Cambridge 
# Structural Database, then it will include bibliographic, chemical, 
# crystal, experimental, refinement or atomic coordinate data resulting 
# from the CCDC's data processing and validation procedures.
#
#######################################################################

data_SUKXEC
_chemical_formula_moiety         'C24 H26 Br1 N1 O7'
_chemical_name_systematic        
'Diethyl 2-(2-bromophenyl)-6-hydroxy-3-nitro-4-phenylcyclohexane-1,1-dicarboxylate'
_symmetry_cell_setting           orthorhombic
_symmetry_space_group_name_H-M   'P 21 21 21'
_symmetry_Int_Tables_number      19
_space_group_name_Hall           'P 2ac 2ab'
loop_
_symmetry_equiv_pos_site_id
_symmetry_equiv_pos_as_xyz
1 x,y,z
2 1/2-x,-y,1/2+z
3 -x,1/2+y,1/2-z
4 1/2+x,1/2-y,-z
_cell_length_a                   7.9898(7)
_cell_length_b                   10.2842(10)
_cell_length_c                   29.440(3)
_cell_angle_alpha                90
_cell_angle_beta                 90
_cell_angle_gamma                90
_cell_volume                     2419.05
_exptl_crystal_colour            colorless
_exptl_crystal_description       block
_cell_formula_units_Z            4
loop_
_atom_site_label
_atom_site_type_symbol
_atom_site_fract_x
_atom_site_fract_y
_atom_site_fract_z
Br1 Br 0.96407(4) 0.55702(4) 0.061372(12)
O1 O 0.2834(3) 0.5392(2) 0.14431(8)
O2 O 0.7757(3) 0.3112(2) 0.15302(8)
C1 C 0.6327(4) 0.6120(2) 0.11848(8)
H1 H 0.7530 0.6232 0.1236
O3 O 0.6358(3) 0.3366(2) 0.08828(7)
C2 C 0.5798(3) 0.4885(3) 0.14659(9)
C3 C 0.6758(4) 0.3686(3) 0.12983(11)
O4 O 0.5814(3) 0.4113(2) 0.22552(6)
H2 H 0.6118 0.3416 0.2148
C4 C 0.6102(4) 0.6018(2) 0.06752(9)
O5 O 0.7318(3) 0.8595(2) 0.09455(7)
C5 C 0.4538(4) 0.6183(3) 0.04770(9)
H3 H 0.3621 0.6352 0.0662
C6 C 0.5485(4) 0.7329(2) 0.13821(8)
H4 H 0.4271 0.7210 0.1361
C7 C 0.7434(4) 0.5811(3) 0.03858(9)
C8 C 0.4305(5) 0.6103(3) 0.00130(11)
H5 H 0.3240 0.6190 -0.0110
O6 O 0.3650(3) 0.3331(2) 0.14849(9)
O7 O 0.4882(3) 0.9370(2) 0.10902(8)
C9 C 0.6325(4) 0.5138(3) 0.19656(9)
H6 H 0.7547 0.5202 0.1978
C10 C 0.3920(4) 0.4597(3) 0.14547(9)
C11 C 0.5588(4) 0.6381(3) 0.21584(9)
H7 H 0.6028 0.6505 0.2462
H8 H 0.4387 0.6270 0.2185
C12 C 0.5926(4) 0.7616(3) 0.18840(8)
H9 H 0.5108 0.8260 0.1989
N1 N 0.5945(4) 0.8515(2) 0.11120(8)
C13 C 0.7643(4) 0.8223(3) 0.19591(9)
C14 C 0.7219(5) 0.5743(3) -0.00821(10)
H10 H 0.8132 0.5597 -0.0271
C15 C 0.1920(5) 0.2879(4) 0.14898(16)
H11 H 0.1614 0.2606 0.1794
H12 H 0.1178 0.3580 0.1400
C16 C 0.9151(4) 0.7591(4) 0.19416(12)
H13 H 0.9171 0.6704 0.1880
C17 C 0.7162(5) 0.2226(3) 0.06882(12)
H14 H 0.6990 0.1477 0.0883
H15 H 0.8356 0.2373 0.0658
C18 C 0.5646(6) 0.5895(3) -0.02622(11)
H16 H 0.5496 0.5856 -0.0575
C19 C 0.9184(6) 1.0198(4) 0.21169(15)
H17 H 0.9182 1.1088 0.2173
C20 C 0.7681(5) 0.9549(4) 0.20472(11)
H18 H 0.6682 1.0012 0.2060
C21 C 1.0666(6) 0.9536(5) 0.21030(13)
H19 H 1.1672 0.9966 0.2155
C22 C 1.0648(5) 0.8240(4) 0.20128(14)
H20 H 1.1652 0.7784 0.1999
C23 C 0.6403(7) 0.1999(4) 0.02389(15)
H21 H 0.5212 0.1915 0.0271
H22 H 0.6851 0.1215 0.0110
H23 H 0.6651 0.2718 0.0042
C24 C 0.1755(5) 0.1810(5) 0.11807(16)
H24 H 0.1987 0.2101 0.0877
H25 H 0.0635 0.1474 0.1195
H26 H 0.2532 0.1138 0.1263
loop_
_geom_bond_atom_site_label_1
_geom_bond_atom_site_label_2
_geom_bond_site_symmetry_1
_geom_bond_site_symmetry_2
Br1 C7 1_555 1_555
O1 C10 1_555 1_555
O2 C3 1_555 1_555
C1 H1 1_555 1_555
O3 C3 1_555 1_555
C2 C1 1_555 1_555
C3 C2 1_555 1_555
O4 H2 1_555 1_555
C4 C1 1_555 1_555
O5 N1 1_555 1_555
C5 C4 1_555 1_555
H3 C5 1_555 1_555
C6 C1 1_555 1_555
H4 C6 1_555 1_555
C7 C4 1_555 1_555
C8 C5 1_555 1_555
H5 C8 1_555 1_555
O6 C10 1_555 1_555
O7 N1 1_555 1_555
C9 C2 1_555 1_555
H6 C9 1_555 1_555
C10 C2 1_555 1_555
C11 C9 1_555 1_555
H7 C11 1_555 1_555
H8 C11 1_555 1_555
C12 C6 1_555 1_555
H9 C12 1_555 1_555
N1 C6 1_555 1_555
C13 C12 1_555 1_555
C14 C7 1_555 1_555
H10 C14 1_555 1_555
C15 O6 1_555 1_555
H11 C15 1_555 1_555
H12 C15 1_555 1_555
C16 C13 1_555 1_555
H13 C16 1_555 1_555
C17 O3 1_555 1_555
H14 C17 1_555 1_555
H15 C17 1_555 1_555
C18 C8 1_555 1_555
H16 C18 1_555 1_555
C19 H17 1_555 1_555
C20 C13 1_555 1_555
H18 C20 1_555 1_555
C21 C19 1_555 1_555
H19 C21 1_555 1_555
C22 C16 1_555 1_555
H20 C22 1_555 1_555
C23 C17 1_555 1_555
H21 C23 1_555 1_555
H22 C23 1_555 1_555
H23 C23 1_555 1_555
C24 C15 1_555 1_555
H24 C24 1_555 1_555
H25 C24 1_555 1_555
H26 C24 1_555 1_555
O4 C9 1_555 1_555
C11 C12 1_555 1_555
C14 C18 1_555 1_555
C19 C20 1_555 1_555
C21 C22 1_555 1_555

#END
