
#######################################################################
#
#                 Cambridge Crystallographic Data Centre
#                                CCDC 
#
#######################################################################
#
# If this CIF has been generated from an entry in the Cambridge 
# Structural Database, then it will include bibliographic, chemical, 
# crystal, experimental, refinement or atomic coordinate data resulting 
# from the CCDC's data processing and validation procedures.
#
#######################################################################

data_SUKZII
_chemical_formula_moiety         'C21 H19 N1 O6'
_chemical_name_systematic        
'Ethyl 1-benzoyl-4,4a,9b,9c-tetrahydro-1H-2,3,5-trioxa-2a-azapentaleno[1,6-ab]naphthalene-4-carboxylate'
_symmetry_cell_setting           triclinic
_symmetry_space_group_name_H-M   'P -1'
_symmetry_Int_Tables_number      2
_space_group_name_Hall           '-P 1'
loop_
_symmetry_equiv_pos_site_id
_symmetry_equiv_pos_as_xyz
1 x,y,z
2 -x,-y,-z
_cell_length_a                   8.3918(9)
_cell_length_b                   9.6816(11)
_cell_length_c                   12.4857(14)
_cell_angle_alpha                69.825(2)
_cell_angle_beta                 77.267(2)
_cell_angle_gamma                86.311(2)
_cell_volume                     928.681
_exptl_crystal_description       block
_cell_formula_units_Z            2
loop_
_atom_site_label
_atom_site_type_symbol
_atom_site_fract_x
_atom_site_fract_y
_atom_site_fract_z
O1 O 0.64041(19) 0.89327(15) 0.07922(12)
C1 C 0.7408(2) 0.92483(16) 0.23156(14)
H1 H 0.8533 0.8943 0.2367
C2 C 0.7213(2) 0.97081(18) 0.10611(15)
C3 C 0.8006(2) 1.10848(18) 0.01876(15)
C4 C 0.7615(3) 1.1589(2) -0.09041(17)
H2 H 0.6881 1.1060 -0.1079
C5 C 0.9116(2) 1.1877(2) 0.04209(19)
H3 H 0.9395 1.1546 0.1148
C6 C 0.9398(3) 1.3656(3) -0.1483(2)
H4 H 0.9855 1.4530 -0.2040
C7 C 0.9810(3) 1.3153(3) -0.0416(2)
H5 H 1.0564 1.3677 -0.0255
C8 C 0.8316(3) 1.2880(3) -0.1734(2)
H6 H 0.8049 1.3219 -0.2465
O2 O 0.70100(15) 1.05133(11) 0.26976(10)
N1 N 0.67333(17) 1.00103(14) 0.39189(12)
O3 O 0.84138(14) 0.98775(12) 0.41571(10)
C9 C 0.62072(19) 0.80780(16) 0.32062(14)
H7 H 0.5131 0.8263 0.3003
C10 C 0.61495(19) 0.84338(16) 0.43208(14)
H8 H 0.5024 0.8340 0.4774
O4 O 0.84165(14) 0.66530(12) 0.45610(11)
C11 C 0.77148(19) 0.58309(16) 0.40739(14)
C12 C 0.66552(18) 0.64988(16) 0.33506(14)
C13 C 0.7281(2) 0.75228(16) 0.50946(15)
H9 H 0.6660 0.6916 0.5859
C14 C 0.7580(2) 0.35911(18) 0.37157(16)
H10 H 0.7886 0.2618 0.3835
C15 C 0.6063(2) 0.56831(18) 0.28013(16)
H11 H 0.5338 0.6105 0.2316
C16 C 0.8164(2) 0.43762(17) 0.42828(16)
H12 H 0.8847 0.3938 0.4797
C17 C 0.6546(2) 0.42387(19) 0.29723(17)
H13 H 0.6169 0.3706 0.2582
C18 C 0.8314(2) 0.86813(17) 0.52074(14)
H14 H 0.9415 0.8292 0.5248
C19 C 0.7652(2) 0.91239(18) 0.62768(15)
O5 O 0.74662(16) 1.03556(13) 0.62771(12)
O6 O 0.73444(19) 0.79276(14) 0.72218(11)
C20 C 0.6762(3) 0.8143(2) 0.83427(18)
H15 H 0.5917 0.8881 0.8284
H16 H 0.7654 0.8471 0.8580
C21 C 0.6102(4) 0.6716(3) 0.9204(2)
H17 H 0.5188 0.6426 0.8980
H18 H 0.5754 0.6811 0.9961
H19 H 0.6935 0.5984 0.9230
loop_
_geom_bond_atom_site_label_1
_geom_bond_atom_site_label_2
_geom_bond_site_symmetry_1
_geom_bond_site_symmetry_2
O1 C2 1_555 1_555
C1 H1 1_555 1_555
C2 C1 1_555 1_555
C3 C2 1_555 1_555
C4 C3 1_555 1_555
H2 C4 1_555 1_555
C5 C3 1_555 1_555
H3 C5 1_555 1_555
C6 H4 1_555 1_555
C7 C5 1_555 1_555
H5 C7 1_555 1_555
C8 C4 1_555 1_555
H6 C8 1_555 1_555
O2 C1 1_555 1_555
N1 O2 1_555 1_555
O3 N1 1_555 1_555
C9 C1 1_555 1_555
H7 C9 1_555 1_555
C10 N1 1_555 1_555
H8 C10 1_555 1_555
O4 C11 1_555 1_555
C11 C12 1_555 1_555
C12 C9 1_555 1_555
C13 C10 1_555 1_555
H9 C13 1_555 1_555
C14 H10 1_555 1_555
C15 C12 1_555 1_555
H11 C15 1_555 1_555
C16 C11 1_555 1_555
H12 C16 1_555 1_555
C17 C14 1_555 1_555
H13 C17 1_555 1_555
C18 O3 1_555 1_555
H14 C18 1_555 1_555
C19 C18 1_555 1_555
O5 C19 1_555 1_555
O6 C19 1_555 1_555
C20 O6 1_555 1_555
H15 C20 1_555 1_555
H16 C20 1_555 1_555
C21 C20 1_555 1_555
H17 C21 1_555 1_555
H18 C21 1_555 1_555
H19 C21 1_555 1_555
C6 C7 1_555 1_555
C6 C8 1_555 1_555
C9 C10 1_555 1_555
O4 C13 1_555 1_555
C13 C18 1_555 1_555
C14 C16 1_555 1_555
C15 C17 1_555 1_555

#END
