
#######################################################################
#
#                 Cambridge Crystallographic Data Centre
#                                CCDC 
#
#######################################################################
#
# If this CIF has been generated from an entry in the Cambridge 
# Structural Database, then it will include bibliographic, chemical, 
# crystal, experimental, refinement or atomic coordinate data resulting 
# from the CCDC's data processing and validation procedures.
#
#######################################################################

data_SULAMD10
_chemical_name_common            Sulfanilamide
_chemical_formula_moiety         'C6 H8 N2 O2 S1'
_chemical_name_systematic        4-Aminobenzenesulfonamide
_chemical_properties_biological  'antibacterial activity'
_symmetry_cell_setting           monoclinic
_symmetry_space_group_name_H-M   'P 21/c'
_symmetry_Int_Tables_number      14
_space_group_name_Hall           '-P 2ybc'
loop_
_symmetry_equiv_pos_site_id
_symmetry_equiv_pos_as_xyz
1 x,y,z
2 -x,1/2+y,1/2-z
3 -x,-y,-z
4 x,1/2-y,1/2+z
_cell_length_a                   7.824(2)
_cell_length_b                   12.991(3)
_cell_length_c                   7.620(2)
_cell_angle_alpha                90
_cell_angle_beta                 104.97(3)
_cell_angle_gamma                90
_cell_volume                     748.223
_exptl_crystal_colour            colorless
_exptl_crystal_description       block
_cell_formula_units_Z            4
loop_
_atom_site_label
_atom_site_type_symbol
_atom_site_fract_x
_atom_site_fract_y
_atom_site_fract_z
S1 S 0.60449(5) 0.83868(3) 0.04022(5)
O1 O 0.59752(16) 0.72874(9) 0.01663(16)
O2 O 0.56360(15) 0.90303(10) -0.11979(15)
N1 N 1.31603(19) 0.95149(15) 0.4885(2)
N2 N 0.45935(18) 0.86704(13) 0.1505(2)
C1 C 1.1497(2) 0.92395(13) 0.3874(2)
C2 C 1.0840(2) 0.82483(14) 0.3931(3)
C3 C 0.9189(2) 0.79857(14) 0.2863(3)
C4 C 0.8164(2) 0.87088(12) 0.1706(2)
C5 C 0.8802(2) 0.97015(14) 0.1652(2)
C6 C 1.0456(2) 0.99593(14) 0.2731(3)
H1 H 1.340(3) 1.015(2) 0.503(3)
H2 H 1.366(3) 0.915(2) 0.582(4)
H3 H 0.453(3) 0.9331(18) 0.160(3)
H4 H 0.477(3) 0.8352(16) 0.258(4)
H5 H 1.154(3) 0.7733(19) 0.464(3)
H6 H 0.869(3) 0.7308(18) 0.293(3)
H7 H 0.811(3) 1.0238(16) 0.091(3)
H8 H 1.089(3) 1.0632(17) 0.266(3)
loop_
_geom_bond_atom_site_label_1
_geom_bond_atom_site_label_2
_geom_bond_site_symmetry_1
_geom_bond_site_symmetry_2
S1 O1 1_555 1_555
O2 S1 1_555 1_555
N1 C1 1_555 1_555
N2 S1 1_555 1_555
C1 C2 1_555 1_555
C2 C3 1_555 1_555
C3 C4 1_555 1_555
C4 S1 1_555 1_555
C5 C4 1_555 1_555
C6 C1 1_555 1_555
H1 N1 1_555 1_555
H2 N1 1_555 1_555
H3 N2 1_555 1_555
H4 N2 1_555 1_555
H5 C2 1_555 1_555
H6 C3 1_555 1_555
H7 C5 1_555 1_555
H8 C6 1_555 1_555
C5 C6 1_555 1_555

#END
