
#######################################################################
#
#                 Cambridge Crystallographic Data Centre
#                                CCDC 
#
#######################################################################
#
# If this CIF has been generated from an entry in the Cambridge 
# Structural Database, then it will include bibliographic, chemical, 
# crystal, experimental, refinement or atomic coordinate data resulting 
# from the CCDC's data processing and validation procedures.
#
#######################################################################

data_SULCEJ
_chemical_formula_moiety         'C24 H15 F1'
_chemical_name_systematic        5-(4-Fluorophenyl)chrysene
_symmetry_cell_setting           orthorhombic
_symmetry_space_group_name_H-M   'P 21 21 21'
_symmetry_Int_Tables_number      19
_space_group_name_Hall           'P 2ac 2ab'
loop_
_symmetry_equiv_pos_site_id
_symmetry_equiv_pos_as_xyz
1 x,y,z
2 1/2-x,-y,1/2+z
3 1/2+x,1/2-y,-z
4 -x,1/2+y,1/2-z
_cell_length_a                   5.7890(4)
_cell_length_b                   11.4354(9)
_cell_length_c                   23.674(3)
_cell_angle_alpha                90
_cell_angle_beta                 90
_cell_angle_gamma                90
_cell_volume                     1567.21
_chemical_melting_point          '198-200 deg.C'
_cell_formula_units_Z            4
loop_
_atom_site_label
_atom_site_type_symbol
_atom_site_fract_x
_atom_site_fract_y
_atom_site_fract_z
C1 C 0.9424(3) 0.08648(15) 0.22099(7)
F1 F 1.04604(18) -0.16124(10) 0.52146(4)
C2 C 1.2871(3) 0.20183(14) 0.24630(7)
C3 C 1.0779(3) 0.09084(15) 0.31873(7)
C4 C 0.8021(3) 0.07312(16) 0.12506(7)
H1 H 0.6912 0.0462 0.0985
C5 C 1.0539(3) -0.09661(15) 0.47300(7)
C6 C 1.2513(3) -0.10236(15) 0.44067(7)
H2 H 1.3790 -0.1490 0.4519
C7 C 1.1288(3) 0.15731(16) 0.20382(7)
C8 C 1.1492(3) 0.18271(16) 0.14535(7)
H3 H 1.2748 0.2289 0.1323
C9 C 0.7806(3) 0.04570(16) 0.18095(7)
H4 H 0.6549 -0.0015 0.1931
C10 C 1.6321(3) 0.31427(15) 0.26880(7)
H5 H 1.7659 0.3549 0.2564
C11 C 1.7371(3) 0.35356(16) 0.36759(8)
H6 H 1.8718 0.3933 0.3551
C12 C 1.2572(3) -0.03783(15) 0.39125(7)
H7 H 1.3919 -0.0399 0.3684
C13 C 0.9280(3) 0.05214(16) 0.27839(7)
H8 H 0.8085 -0.0002 0.2893
C14 C 1.2534(3) 0.17569(14) 0.30392(6)
C15 C 1.3962(3) 0.23454(15) 0.34607(7)
C16 C 0.9896(3) 0.14140(17) 0.10734(7)
H9 H 1.0066 0.1594 0.0684
C17 C 1.5927(3) 0.29923(14) 0.32777(7)
C18 C 1.3449(3) 0.23758(15) 0.40457(7)
H10 H 1.2094 0.1997 0.4179
C19 C 0.8734(3) 0.03239(16) 0.40835(7)
H11 H 0.7437 0.0778 0.3972
C20 C 1.4820(3) 0.27153(15) 0.23027(7)
H12 H 1.5064 0.2882 0.1914
C21 C 1.0697(3) 0.03008(15) 0.37438(7)
C22 C 0.8653(3) -0.03095(16) 0.45833(7)
H13 H 0.7322 -0.0288 0.4818
C23 C 1.4862(3) 0.29401(15) 0.44248(7)
H14 H 1.4471 0.2948 0.4814
C24 C 1.6873(3) 0.35030(18) 0.42412(7)
H15 H 1.7883 0.3859 0.4506
loop_
_geom_bond_atom_site_label_1
_geom_bond_atom_site_label_2
_geom_bond_site_symmetry_1
_geom_bond_site_symmetry_2
C1 C7 1_555 1_555
F1 C5 1_555 1_555
C2 C7 1_555 1_555
C3 C13 1_555 1_555
C4 H1 1_555 1_555
C5 C6 1_555 1_555
C6 H2 1_555 1_555
C7 C8 1_555 1_555
C8 H3 1_555 1_555
C9 C1 1_555 1_555
H4 C9 1_555 1_555
C10 H5 1_555 1_555
C11 H6 1_555 1_555
C12 C6 1_555 1_555
H7 C12 1_555 1_555
C13 C1 1_555 1_555
H8 C13 1_555 1_555
C14 C2 1_555 1_555
C15 C14 1_555 1_555
C16 C4 1_555 1_555
H9 C16 1_555 1_555
C17 C10 1_555 1_555
C18 C15 1_555 1_555
H10 C18 1_555 1_555
C19 H11 1_555 1_555
C20 C2 1_555 1_555
H12 C20 1_555 1_555
C21 C3 1_555 1_555
C22 C5 1_555 1_555
H13 C22 1_555 1_555
C23 C18 1_555 1_555
H14 C23 1_555 1_555
C24 C11 1_555 1_555
H15 C24 1_555 1_555
C3 C14 1_555 1_555
C4 C9 1_555 1_555
C8 C16 1_555 1_555
C10 C20 1_555 1_555
C11 C17 1_555 1_555
C12 C21 1_555 1_555
C15 C17 1_555 1_555
C19 C21 1_555 1_555
C19 C22 1_555 1_555
C23 C24 1_555 1_555

#END
