
#######################################################################
#
#                 Cambridge Crystallographic Data Centre
#                                CCDC 
#
#######################################################################
#
# If this CIF has been generated from an entry in the Cambridge 
# Structural Database, then it will include bibliographic, chemical, 
# crystal, experimental, refinement or atomic coordinate data resulting 
# from the CCDC's data processing and validation procedures.
#
#######################################################################

data_SULGIR
_chemical_formula_moiety         'C27 H28 N2 O2'
_chemical_name_systematic        
'Isopropyl 3-methyl-2-(13-methyl-1,9-diazatetracyclo[7.7.1.0^2,7^.0^10,15^]heptadeca-2,4,6,10,12,14-hexaen-5-yl)benzoate'
_symmetry_cell_setting           monoclinic
_symmetry_space_group_name_H-M   'C c'
_symmetry_Int_Tables_number      9
_space_group_name_Hall           'C -2yc'
loop_
_symmetry_equiv_pos_site_id
_symmetry_equiv_pos_as_xyz
1 x,y,z
2 x,-y,1/2+z
3 1/2+x,1/2+y,z
4 1/2+x,1/2-y,1/2+z
_cell_length_a                   8.2724(8)
_cell_length_b                   30.084(3)
_cell_length_c                   8.9736(9)
_cell_angle_alpha                90
_cell_angle_beta                 103.993(3)
_cell_angle_gamma                90
_cell_volume                     2166.96
_exptl_crystal_colour            colorless
_exptl_crystal_description       block
_cell_formula_units_Z            4
loop_
_atom_site_label
_atom_site_type_symbol
_atom_site_fract_x
_atom_site_fract_y
_atom_site_fract_z
C1 C 0.3291(2) 0.05138(6) 0.1989(2)
H1 H 0.3112 0.0378 0.2941
H2 H 0.2249 0.0479 0.1178
C2 C 0.5004(2) 0.10271(5) 0.36635(19)
H3 H 0.4563 0.0959 0.4570
H4 H 0.5421 0.1337 0.3765
C3 C 0.6434(2) 0.07137(5) 0.3633(2)
C4 C 0.7997(2) 0.07821(6) 0.4635(2)
H5 H 0.8139 0.1021 0.5348
C5 C 0.9357(3) 0.05073(6) 0.4613(2)
C6 C 0.9104(3) 0.01553(6) 0.3570(3)
H6 H 1.0006 -0.0038 0.3542
C7 C 0.7565(3) 0.00816(6) 0.2572(2)
H7 H 0.7425 -0.0160 0.1873
C8 C 0.6212(2) 0.03620(5) 0.2586(2)
C9 C 1.1053(3) 0.06059(8) 0.5648(3)
H8 H 1.1712 0.0332 0.5830
H9 H 1.0919 0.0724 0.6630
H10 H 1.1626 0.0826 0.5155
C10 C 0.4623(2) 0.04295(5) -0.0045(2)
H11 H 0.3668 0.0292 -0.0782
H12 H 0.5657 0.0328 -0.0313
C11 C 0.4496(2) 0.09331(5) -0.02004(19)
C12 C 0.4858(2) 0.11448(5) -0.14663(18)
H13 H 0.5117 0.0971 -0.2261
C13 C 0.48459(19) 0.16064(5) -0.15876(17)
C14 C 0.4435(2) 0.18577(5) -0.04170(17)
H14 H 0.4419 0.2173 -0.0483
C15 C 0.4052(2) 0.16526(5) 0.08306(18)
H15 H 0.3771 0.1828 0.1612
C16 C 0.4076(2) 0.11882(5) 0.09524(18)
C17 C 0.5286(2) 0.18338(5) -0.29135(17)
C18 C 0.4013(2) 0.20310(5) -0.40612(19)
C19 C 0.4437(3) 0.22391(5) -0.5303(2)
H16 H 0.3585 0.2374 -0.6071
C20 C 0.6065(3) 0.22542(6) -0.5445(2)
H17 H 0.6323 0.2401 -0.6296
C21 C 0.7315(2) 0.20544(6) -0.4345(2)
H18 H 0.8429 0.2057 -0.4451
C22 C 0.6934(2) 0.18486(5) -0.30738(18)
C23 C 0.2227(3) 0.20177(8) -0.3962(2)
H19 H 0.1521 0.2154 -0.4885
H20 H 0.2109 0.2183 -0.3053
H21 H 0.1887 0.1708 -0.3884
C24 C 0.8383(2) 0.16473(6) -0.19335(19)
C25 C 0.9580(2) 0.14884(6) 0.0701(2)
H22 H 1.0684 0.1517 0.0442
C26 C 0.9602(4) 0.17355(8) 0.2169(3)
H23 H 0.9886 0.2048 0.2054
H24 H 1.0435 0.1602 0.3016
H25 H 0.8501 0.1717 0.2390
C27 C 0.9147(3) 0.10065(6) 0.0796(3)
H26 H 0.9126 0.0861 -0.0186
H27 H 0.8049 0.0981 0.1021
H28 H 0.9985 0.0863 0.1615
N1 N 0.36453(17) 0.09879(4) 0.22563(16)
N2 N 0.4637(2) 0.02778(5) 0.15260(19)
O1 O 0.82813(15) 0.17051(4) -0.04869(13)
O2 O 0.95286(19) 0.14680(6) -0.23095(17)
loop_
_geom_bond_atom_site_label_1
_geom_bond_atom_site_label_2
_geom_bond_site_symmetry_1
_geom_bond_site_symmetry_2
C1 H1 1_555 1_555
H2 C1 1_555 1_555
C2 H3 1_555 1_555
H4 C2 1_555 1_555
C3 C2 1_555 1_555
C4 C3 1_555 1_555
H5 C4 1_555 1_555
C5 C4 1_555 1_555
C6 C5 1_555 1_555
H6 C6 1_555 1_555
C7 C6 1_555 1_555
H7 C7 1_555 1_555
C8 C3 1_555 1_555
C9 C5 1_555 1_555
H8 C9 1_555 1_555
H9 C9 1_555 1_555
H10 C9 1_555 1_555
C10 H11 1_555 1_555
H12 C10 1_555 1_555
C11 C10 1_555 1_555
C12 C11 1_555 1_555
H13 C12 1_555 1_555
C13 C12 1_555 1_555
C14 C13 1_555 1_555
H14 C14 1_555 1_555
C15 C14 1_555 1_555
H15 C15 1_555 1_555
C16 C11 1_555 1_555
C17 C13 1_555 1_555
C18 C17 1_555 1_555
C19 C18 1_555 1_555
H16 C19 1_555 1_555
C20 C19 1_555 1_555
H17 C20 1_555 1_555
C21 C20 1_555 1_555
H18 C21 1_555 1_555
C22 C17 1_555 1_555
C23 C18 1_555 1_555
H19 C23 1_555 1_555
H20 C23 1_555 1_555
H21 C23 1_555 1_555
C24 C22 1_555 1_555
C25 H22 1_555 1_555
C26 C25 1_555 1_555
H23 C26 1_555 1_555
H24 C26 1_555 1_555
H25 C26 1_555 1_555
C27 C25 1_555 1_555
H26 C27 1_555 1_555
H27 C27 1_555 1_555
H28 C27 1_555 1_555
N1 C1 1_555 1_555
N2 C1 1_555 1_555
O1 C24 1_555 1_555
O2 C24 1_555 1_555
C2 N1 1_555 1_555
C7 C8 1_555 1_555
C8 N2 1_555 1_555
C10 N2 1_555 1_555
C15 C16 1_555 1_555
C16 N1 1_555 1_555
C21 C22 1_555 1_555
C25 O1 1_555 1_555

#END
