
#######################################################################
#
#                 Cambridge Crystallographic Data Centre
#                                CCDC 
#
#######################################################################
#
# If this CIF has been generated from an entry in the Cambridge 
# Structural Database, then it will include bibliographic, chemical, 
# crystal, experimental, refinement or atomic coordinate data resulting 
# from the CCDC's data processing and validation procedures.
#
#######################################################################

data_SULGAJ
_chemical_formula_moiety         'C26 H24 F2 N2 O2'
_chemical_name_systematic        
'2,2-Difluoroethyl 3-methyl-2-(13-methyl-1,9-diazatetracyclo[7.7.1.0^2,7^.0^10,15^]heptadeca-2,4,6,10,12,14-hexaen-5-yl)benzoate'
_symmetry_cell_setting           monoclinic
_symmetry_space_group_name_H-M   'P 21/c'
_symmetry_Int_Tables_number      14
_space_group_name_Hall           '-P 2ybc'
loop_
_symmetry_equiv_pos_site_id
_symmetry_equiv_pos_as_xyz
1 x,y,z
2 -x,1/2+y,1/2-z
3 -x,-y,-z
4 x,1/2-y,1/2+z
_cell_length_a                   8.5817(5)
_cell_length_b                   16.8385(10)
_cell_length_c                   15.0058(9)
_cell_angle_alpha                90
_cell_angle_beta                 98.353(2)
_cell_angle_gamma                90
_cell_volume                     2145.38
_exptl_crystal_colour            colorless
_exptl_crystal_description       block
_cell_formula_units_Z            4
loop_
_atom_site_label
_atom_site_type_symbol
_atom_site_fract_x
_atom_site_fract_y
_atom_site_fract_z
C1 C 0.20614(15) 0.32217(8) 0.18802(9)
H1 H 0.1386 0.3456 0.2293
H2 H 0.1984 0.3563 0.1339
C2 C 0.37176(16) 0.28270(8) 0.32064(9)
H3 H 0.3278 0.3197 0.3619
H4 H 0.4822 0.2713 0.3466
C3 C 0.27816(15) 0.20608(8) 0.31439(9)
C4 C 0.29517(17) 0.15229(9) 0.38576(9)
H5 H 0.3664 0.1644 0.4386
C5 C 0.21126(19) 0.08148(9) 0.38213(10)
C6 C 0.10611(19) 0.06590(9) 0.30404(11)
H6 H 0.0469 0.0180 0.2999
C7 C 0.08632(17) 0.11856(9) 0.23271(10)
H7 H 0.0135 0.1067 0.1805
C8 C 0.17241(15) 0.18909(8) 0.23672(9)
C9 C 0.2352(3) 0.02291(11) 0.45855(13)
H8 H 0.1365 0.0164 0.4834
H9 H 0.3173 0.0426 0.5057
H10 H 0.2676 -0.0284 0.4364
C10 C 0.23056(15) 0.21690(8) 0.08668(9)
H11 H 0.1861 0.2454 0.0310
H12 H 0.2124 0.1594 0.0762
C11 C 0.40650(15) 0.23244(7) 0.10610(8)
C12 C 0.46890(15) 0.28162(7) 0.17747(9)
C13 C 0.63156(15) 0.29284(8) 0.19552(9)
H13 H 0.6745 0.3253 0.2448
C14 C 0.73112(15) 0.25725(8) 0.14261(9)
H14 H 0.8416 0.2652 0.1559
C15 C 0.66946(15) 0.20959(7) 0.06959(8)
C16 C 0.50796(15) 0.19767(7) 0.05307(8)
H15 H 0.4653 0.1648 0.0041
C17 C 0.77181(14) 0.17236(8) 0.00843(8)
C18 C 0.85253(15) 0.22146(8) -0.04574(9)
C19 C 0.93821(16) 0.18697(9) -0.10770(9)
H16 H 0.9934 0.2203 -0.1436
C20 C 0.94506(16) 0.10552(9) -0.11838(9)
H17 H 1.0044 0.0833 -0.1610
C21 C 0.86502(16) 0.05675(8) -0.06662(9)
H18 H 0.8674 0.0008 -0.0746
C22 C 0.78060(15) 0.08924(8) -0.00263(8)
C23 C 0.70299(15) 0.02984(8) 0.05040(9)
C24 C 0.84599(18) 0.31081(9) -0.03965(11)
H19 H 0.8870 0.3343 -0.0913
H20 H 0.9101 0.3285 0.0162
H21 H 0.7366 0.3277 -0.0399
N1 N 0.14800(13) 0.24285(7) 0.16143(7)
N2 N 0.36927(13) 0.32124(6) 0.23256(7)
O1 O 0.68155(11) 0.05560(5) 0.13226(6)
O2 O 0.66756(14) -0.03610(6) 0.02370(7)
C25 C 0.5837(7) 0.0072(3) 0.1807(4)
H22 H 0.6211 -0.0484 0.1837
H23 H 0.4732 0.0082 0.1504
C26 C 0.5951(4) 0.0418(2) 0.27336(19)
H24 H 0.5658 0.0993 0.2706
F1 F 0.7425(2) 0.03164(13) 0.31776(10)
F2 F 0.4943(3) -0.00078(18) 0.3175(2)
loop_
_geom_bond_atom_site_label_1
_geom_bond_atom_site_label_2
_geom_bond_site_symmetry_1
_geom_bond_site_symmetry_2
C1 H1 1_555 1_555
H2 C1 1_555 1_555
C2 H3 1_555 1_555
H4 C2 1_555 1_555
C3 C2 1_555 1_555
C4 C3 1_555 1_555
H5 C4 1_555 1_555
C5 C4 1_555 1_555
C6 C5 1_555 1_555
H6 C6 1_555 1_555
C7 C6 1_555 1_555
H7 C7 1_555 1_555
C8 C3 1_555 1_555
C9 C5 1_555 1_555
H8 C9 1_555 1_555
H9 C9 1_555 1_555
H10 C9 1_555 1_555
C10 H11 1_555 1_555
H12 C10 1_555 1_555
C11 C10 1_555 1_555
C12 C11 1_555 1_555
C13 C12 1_555 1_555
H13 C13 1_555 1_555
C14 C13 1_555 1_555
H14 C14 1_555 1_555
C15 C14 1_555 1_555
C16 C11 1_555 1_555
H15 C16 1_555 1_555
C17 C15 1_555 1_555
C18 C17 1_555 1_555
C19 C18 1_555 1_555
H16 C19 1_555 1_555
C20 C19 1_555 1_555
H17 C20 1_555 1_555
C21 C20 1_555 1_555
H18 C21 1_555 1_555
C22 C17 1_555 1_555
C23 C22 1_555 1_555
C24 C18 1_555 1_555
H19 C24 1_555 1_555
H20 C24 1_555 1_555
H21 C24 1_555 1_555
N1 C1 1_555 1_555
N2 C1 1_555 1_555
O1 C23 1_555 1_555
O2 C23 1_555 1_555
C25 O1 1_555 1_555
H22 C25 1_555 1_555
H23 C25 1_555 1_555
C26 C25 1_555 1_555
H24 C26 1_555 1_555
F1 C26 1_555 1_555
F2 C26 1_555 1_555
C2 N2 1_555 1_555
C7 C8 1_555 1_555
C8 N1 1_555 1_555
C10 N1 1_555 1_555
C12 N2 1_555 1_555
C15 C16 1_555 1_555
C21 C22 1_555 1_555

#END
