
#######################################################################
#
#                 Cambridge Crystallographic Data Centre
#                                CCDC 
#
#######################################################################
#
# If this CIF has been generated from an entry in the Cambridge 
# Structural Database, then it will include bibliographic, chemical, 
# crystal, experimental, refinement or atomic coordinate data resulting 
# from the CCDC's data processing and validation procedures.
#
#######################################################################

data_SULHEO
_chemical_formula_moiety         'C27 H22 F6 N2 O2'
_chemical_name_systematic        
'1,1,1,3,3,3-Hexafluoropropan-2-yl 3-methyl-2-(13-methyl-1,9-diazatetracyclo[7.7.1.0^2,7^.0^10,15^]heptadeca-2,4,6,10,12,14-hexaen-5-yl)benzoate'
_symmetry_cell_setting           monoclinic
_symmetry_space_group_name_H-M   'P 21/c'
_symmetry_Int_Tables_number      14
_space_group_name_Hall           '-P 2ybc'
loop_
_symmetry_equiv_pos_site_id
_symmetry_equiv_pos_as_xyz
1 x,y,z
2 -x,1/2+y,1/2-z
3 -x,-y,-z
4 x,1/2-y,1/2+z
_cell_length_a                   8.7419(5)
_cell_length_b                   14.4943(8)
_cell_length_c                   18.8475(11)
_cell_angle_alpha                90
_cell_angle_beta                 99.519(2)
_cell_angle_gamma                90
_cell_volume                     2355.24
_exptl_crystal_colour            colorless
_exptl_crystal_description       block
_cell_formula_units_Z            4
loop_
_atom_site_label
_atom_site_type_symbol
_atom_site_fract_x
_atom_site_fract_y
_atom_site_fract_z
C1 C -0.18900(13) 0.98589(8) 0.32600(6)
H1 H -0.2579 1.0135 0.2845
H2 H -0.2447 0.9866 0.3676
C2 C -0.07898(13) 0.84585(8) 0.37608(6)
H3 H -0.0336 0.7862 0.3645
H4 H -0.1577 0.8329 0.4070
C3 C 0.04754(13) 0.90593(8) 0.41699(6)
C4 C 0.15386(14) 0.86852(8) 0.47262(6)
H5 H 0.1425 0.8059 0.4858
C5 C 0.27582(14) 0.91957(9) 0.50944(6)
C6 C 0.28948(14) 1.01161(8) 0.48935(6)
H6 H 0.3728 1.0479 0.5133
C7 C 0.18322(14) 1.05065(8) 0.43497(6)
H7 H 0.1938 1.1135 0.4224
C8 C 0.06120(13) 0.99865(8) 0.39853(6)
C9 C 0.38923(15) 0.87526(9) 0.56853(7)
H8 H 0.4471 0.8269 0.5481
H9 H 0.3327 0.8480 0.6041
H10 H 0.4616 0.9220 0.5918
C10 C 0.01455(14) 1.05374(8) 0.27554(6)
H11 H 0.1217 1.0779 0.2870
H12 H -0.0488 1.0999 0.2450
C11 C 0.01581(13) 0.96447(8) 0.23380(6)
C12 C 0.09694(13) 0.95835(8) 0.17616(6)
H13 H 0.1502 1.0112 0.1630
C13 C 0.10204(13) 0.87726(8) 0.13743(6)
C14 C 0.02677(13) 0.79903(8) 0.15819(6)
H14 H 0.0314 0.7424 0.1333
C15 C -0.05437(13) 0.80438(8) 0.21508(6)
H15 H -0.1053 0.7510 0.2289
C16 C -0.06278(13) 0.88674(8) 0.25249(6)
C17 C 0.18267(14) 0.87706(8) 0.07344(6)
C18 C 0.09416(15) 0.87745(8) 0.00398(7)
C19 C 0.16993(17) 0.88637(9) -0.05520(7)
H16 H 0.1104 0.8860 -0.1022
C20 C 0.32939(18) 0.89579(9) -0.04742(7)
H17 H 0.3780 0.9025 -0.0886
C21 C 0.41752(16) 0.89536(9) 0.02062(7)
H18 H 0.5270 0.9020 0.0264
C22 C 0.34459(15) 0.88511(8) 0.08078(7)
C23 C 0.44963(14) 0.88276(8) 0.15150(7)
C24 C -0.08030(16) 0.86962(9) -0.00680(7)
H19 H -0.1231 0.8804 -0.0575
H20 H -0.1218 0.9157 0.0230
H21 H -0.1093 0.8077 0.0071
C25 C 0.50365(13) 0.80383(8) 0.26326(6)
H22 H 0.6019 0.8393 0.2637
C26 C 0.41965(15) 0.84046(10) 0.32193(7)
C27 C 0.54024(15) 0.70149(9) 0.27021(7)
N1 N -0.15503(11) 0.88995(7) 0.30888(5)
N2 N -0.04828(11) 1.04166(7) 0.34287(5)
O1 O 0.40577(9) 0.81594(6) 0.19578(4)
O2 O 0.56264(11) 0.92959(7) 0.16810(5)
F1 F 0.39391(10) 0.93060(6) 0.31224(5)
F2 F 0.28383(9) 0.79992(6) 0.32257(4)
F3 F 0.50589(10) 0.82913(7) 0.38673(4)
F4 F 0.41527(10) 0.64880(6) 0.26868(4)
F5 F 0.63638(11) 0.68331(6) 0.33129(5)
F6 F 0.61091(9) 0.67436(6) 0.21608(4)
loop_
_geom_bond_atom_site_label_1
_geom_bond_atom_site_label_2
_geom_bond_site_symmetry_1
_geom_bond_site_symmetry_2
C1 H1 1_555 1_555
H2 C1 1_555 1_555
C2 H3 1_555 1_555
H4 C2 1_555 1_555
C3 C2 1_555 1_555
C4 C3 1_555 1_555
H5 C4 1_555 1_555
C5 C4 1_555 1_555
C6 C5 1_555 1_555
H6 C6 1_555 1_555
C7 C6 1_555 1_555
H7 C7 1_555 1_555
C8 C3 1_555 1_555
C9 C5 1_555 1_555
H8 C9 1_555 1_555
H9 C9 1_555 1_555
H10 C9 1_555 1_555
C10 H11 1_555 1_555
H12 C10 1_555 1_555
C11 C10 1_555 1_555
C12 C11 1_555 1_555
H13 C12 1_555 1_555
C13 C12 1_555 1_555
C14 C13 1_555 1_555
H14 C14 1_555 1_555
C15 C14 1_555 1_555
H15 C15 1_555 1_555
C16 C11 1_555 1_555
C17 C13 1_555 1_555
C18 C17 1_555 1_555
C19 C18 1_555 1_555
H16 C19 1_555 1_555
C20 C19 1_555 1_555
H17 C20 1_555 1_555
C21 C20 1_555 1_555
H18 C21 1_555 1_555
C22 C17 1_555 1_555
C23 C22 1_555 1_555
C24 C18 1_555 1_555
H19 C24 1_555 1_555
H20 C24 1_555 1_555
H21 C24 1_555 1_555
C25 H22 1_555 1_555
C26 C25 1_555 1_555
C27 C25 1_555 1_555
N1 C1 1_555 1_555
N2 C1 1_555 1_555
O1 C23 1_555 1_555
O2 C23 1_555 1_555
F1 C26 1_555 1_555
F2 C26 1_555 1_555
F3 C26 1_555 1_555
F4 C27 1_555 1_555
F5 C27 1_555 1_555
F6 C27 1_555 1_555
C2 N1 1_555 1_555
C7 C8 1_555 1_555
C8 N2 1_555 1_555
C10 N2 1_555 1_555
C15 C16 1_555 1_555
C16 N1 1_555 1_555
C21 C22 1_555 1_555
C25 O1 1_555 1_555

#END
