
#######################################################################
#
#                 Cambridge Crystallographic Data Centre
#                                CCDC 
#
#######################################################################
#
# If this CIF has been generated from an entry in the Cambridge 
# Structural Database, then it will include bibliographic, chemical, 
# crystal, experimental, refinement or atomic coordinate data resulting 
# from the CCDC's data processing and validation procedures.
#
#######################################################################

data_SULHUD
_chemical_name_common            
2-((4R)-4-Decarboxydehydroabietyl)-5-p-tolyl-[1,3,4]-oxadiazole
_chemical_formula_moiety         'C28 H34 N2 O1'
_chemical_name_systematic        
2-((1R)-7-Isopropyl-1,4a-dimethyl-1,2,3,4,4a,9,10,10a-octahydrophenanthren-1-yl)-5-(4-methylphenyl)-1,3,4-oxadiazole
_symmetry_cell_setting           orthorhombic
_symmetry_space_group_name_H-M   'P 21 21 21'
_symmetry_Int_Tables_number      19
_space_group_name_Hall           'P 2ac 2ab'
loop_
_symmetry_equiv_pos_site_id
_symmetry_equiv_pos_as_xyz
1 x,y,z
2 1/2-x,-y,1/2+z
3 -x,1/2+y,1/2-z
4 1/2+x,1/2-y,-z
_cell_length_a                   6.1351(5)
_cell_length_b                   14.8495(19)
_cell_length_c                   25.905(2)
_cell_angle_alpha                90
_cell_angle_beta                 90
_cell_angle_gamma                90
_cell_volume                     2360.03
_exptl_crystal_colour            colorless
_exptl_crystal_description       stick
_chemical_melting_point          '63-66 deg.C'
_cell_formula_units_Z            4
_exptl_crystal_recrystallization_method dimethylsulfoxide
loop_
_atom_site_label
_atom_site_type_symbol
_atom_site_fract_x
_atom_site_fract_y
_atom_site_fract_z
N1 N 0.1375(6) 0.1059(3) 0.15211(12)
N2 N 0.1461(6) 0.1229(3) 0.09860(12)
O1 O 0.4712(4) 0.08475(17) 0.12588(9)
C1 C 0.3435(7) 0.1106(3) 0.08511(14)
C2 C 0.3301(7) 0.0836(3) 0.16633(13)
C3 C 0.4076(6) 0.0540(3) 0.21877(14)
C4 C 0.3280(8) -0.0434(3) 0.22555(13)
H1 H 0.1767 -0.0471 0.2149
H2 H 0.4121 -0.0824 0.2031
C5 C 0.3479(8) -0.0772(3) 0.28065(13)
H3 H 0.5004 -0.0789 0.2905
H4 H 0.2909 -0.1380 0.2828
C6 C 0.2233(7) -0.0167(2) 0.31778(13)
H5 H 0.2404 -0.0397 0.3526
H6 H 0.0694 -0.0188 0.3093
C7 C 0.3007(6) 0.0814(2) 0.31618(12)
C8 C 0.1495(6) 0.1420(2) 0.34793(12)
C9 C 0.0688(7) 0.1126(3) 0.39530(13)
H7 H 0.1021 0.0545 0.4062
C10 C -0.0581(7) 0.1659(3) 0.42669(14)
H8 H -0.1112 0.1427 0.4576
C11 C -0.1073(7) 0.2526(3) 0.41315(14)
C12 C -0.0269(7) 0.2839(3) 0.36637(15)
H9 H -0.0576 0.3428 0.3565
C13 C 0.0986(7) 0.2301(2) 0.33345(14)
C14 C 0.1734(8) 0.2685(3) 0.28234(15)
H10 H 0.0487 0.2729 0.2595
H11 H 0.2277 0.3291 0.2881
C15 C 0.3491(7) 0.2141(3) 0.25576(15)
H12 H 0.4886 0.2250 0.2722
H13 H 0.3603 0.2322 0.2199
C16 C 0.2928(6) 0.1142(2) 0.25899(12)
H14 H 0.1381 0.1112 0.2497
C17 C 0.6597(7) 0.0586(4) 0.22010(16)
H15 H 0.7181 0.0253 0.1915
H16 H 0.7116 0.0330 0.2518
H17 H 0.7057 0.1202 0.2178
C18 C 0.5269(7) 0.0885(3) 0.34198(14)
H18 H 0.5822 0.1485 0.3379
H19 H 0.6251 0.0466 0.3260
H20 H 0.5141 0.0747 0.3781
C19 C -0.2442(8) 0.3131(3) 0.44800(17)
H21 H -0.2828 0.2767 0.4782
C20 C -0.1178(10) 0.3924(3) 0.46790(19)
H22 H -0.0711 0.4289 0.4394
H23 H 0.0073 0.3715 0.4867
H24 H -0.2088 0.4274 0.4904
C21 C -0.4555(9) 0.3394(4) 0.42283(17)
H25 H -0.5360 0.3782 0.4456
H26 H -0.5396 0.2864 0.4157
H27 H -0.4259 0.3706 0.3911
C22 C 0.4427(7) 0.1197(3) 0.03434(14)
C23 C 0.6510(7) 0.0867(3) 0.02438(15)
H28 H 0.7308 0.0589 0.0504
C24 C 0.7374(8) 0.0956(3) -0.02442(16)
H29 H 0.8755 0.0724 -0.0308
C25 C 0.6276(8) 0.1376(3) -0.06414(15)
C26 C 0.4211(8) 0.1706(3) -0.05334(14)
H30 H 0.3431 0.1996 -0.0792
C27 C 0.3285(7) 0.1612(2) -0.00499(13)
H31 H 0.1887 0.1830 0.0011
C28 C 0.7275(9) 0.1492(3) -0.11621(15)
H32 H 0.7702 0.0914 -0.1295
H33 H 0.8533 0.1873 -0.1136
H34 H 0.6233 0.1761 -0.1391
loop_
_geom_bond_atom_site_label_1
_geom_bond_atom_site_label_2
_geom_bond_site_symmetry_1
_geom_bond_site_symmetry_2
N1 N2 1_555 1_555
N2 C1 1_555 1_555
O1 C1 1_555 1_555
C1 C22 1_555 1_555
C2 N1 1_555 1_555
C3 C2 1_555 1_555
C4 C3 1_555 1_555
H1 C4 1_555 1_555
H2 C4 1_555 1_555
C5 C4 1_555 1_555
H3 C5 1_555 1_555
H4 C5 1_555 1_555
C6 C5 1_555 1_555
H5 C6 1_555 1_555
H6 C6 1_555 1_555
C7 C6 1_555 1_555
C8 C7 1_555 1_555
C9 C8 1_555 1_555
H7 C9 1_555 1_555
C10 C9 1_555 1_555
H8 C10 1_555 1_555
C11 C10 1_555 1_555
C12 C11 1_555 1_555
H9 C12 1_555 1_555
C13 C8 1_555 1_555
C14 C13 1_555 1_555
H10 C14 1_555 1_555
H11 C14 1_555 1_555
C15 C14 1_555 1_555
H12 C15 1_555 1_555
H13 C15 1_555 1_555
C16 C3 1_555 1_555
H14 C16 1_555 1_555
C17 C3 1_555 1_555
H15 C17 1_555 1_555
H16 C17 1_555 1_555
H17 C17 1_555 1_555
C18 C7 1_555 1_555
H18 C18 1_555 1_555
H19 C18 1_555 1_555
H20 C18 1_555 1_555
C19 C11 1_555 1_555
H21 C19 1_555 1_555
C20 C19 1_555 1_555
H22 C20 1_555 1_555
H23 C20 1_555 1_555
H24 C20 1_555 1_555
C21 C19 1_555 1_555
H25 C21 1_555 1_555
H26 C21 1_555 1_555
H27 C21 1_555 1_555
C22 C23 1_555 1_555
C23 H28 1_555 1_555
C24 C23 1_555 1_555
H29 C24 1_555 1_555
C25 C24 1_555 1_555
C26 C25 1_555 1_555
H30 C26 1_555 1_555
C27 C22 1_555 1_555
H31 C27 1_555 1_555
C28 C25 1_555 1_555
H32 C28 1_555 1_555
H33 C28 1_555 1_555
H34 C28 1_555 1_555
O1 C2 1_555 1_555
C7 C16 1_555 1_555
C12 C13 1_555 1_555
C15 C16 1_555 1_555
C26 C27 1_555 1_555

#END
