
#######################################################################
#
#                 Cambridge Crystallographic Data Centre
#                                CCDC 
#
#######################################################################
#
# If this CIF has been generated from an entry in the Cambridge 
# Structural Database, then it will include bibliographic, chemical, 
# crystal, experimental, refinement or atomic coordinate data resulting 
# from the CCDC's data processing and validation procedures.
#
#######################################################################

data_SULJOA
_chemical_formula_moiety         'C102 H120 O26,C12 H14 N2 2+,2(F6 P1 1-)'
_chemical_name_systematic        
"[2]-(Paraquat)-(4,4':35,35'-bis(1,4,7,10,13-pentaoxatridecane-1,13-diyl)bis(9,14,19,24,26,29,31,33-octamethoxypillar[5]arene))-pseudorotaxane bis(hexafluorophosphate) unknown solvate"
_symmetry_cell_setting           monoclinic
_symmetry_space_group_name_H-M   'P 21/c'
_symmetry_Int_Tables_number      14
_space_group_name_Hall           '-P 2ybc'
loop_
_symmetry_equiv_pos_site_id
_symmetry_equiv_pos_as_xyz
1 x,y,z
2 -x,1/2+y,1/2-z
3 -x,-y,-z
4 x,1/2-y,1/2+z
_cell_length_a                   12.6946(8)
_cell_length_b                   30.8143(19)
_cell_length_c                   18.2906(11)
_cell_angle_alpha                90
_cell_angle_beta                 93.275(2)
_cell_angle_gamma                90
_cell_volume                     7143.14
_exptl_crystal_colour            colorless
_exptl_crystal_description       block
_cell_formula_units_Z            2
loop_
_atom_site_label
_atom_site_type_symbol
_atom_site_fract_x
_atom_site_fract_y
_atom_site_fract_z
N1 N 1.0401(4) 0.90080(17) 0.5905(3)
C1 C 1.0563(6) 0.8606(2) 0.6285(5)
H1 H 1.1205 0.8467 0.6126
H2 H 0.9957 0.8415 0.6176
H3 H 1.0637 0.8660 0.6813
C2 C 1.1097(4) 0.9134(2) 0.5420(4)
H4 H 1.1685 0.8956 0.5324
C3 C 1.0947(4) 0.9515(2) 0.5073(4)
H5 H 1.1447 0.9604 0.4736
C4 C 1.0092(4) 0.97880(18) 0.5184(3)
C5 C 0.9398(4) 0.9641(2) 0.5690(3)
H6 H 0.8799 0.9812 0.5790
C6 C 0.9563(4) 0.9250(2) 0.6053(3)
H7 H 0.9087 0.9154 0.6402
N1B N 0.9599(4) 1.09920(17) 0.4095(3)
C1B C 0.9437(6) 1.1394(2) 0.3715(5)
H1B H 0.8795 1.1533 0.3874
H2B H 1.0043 1.1585 0.3824
H3B H 0.9363 1.1340 0.3187
C2B C 0.8903(4) 1.0866(2) 0.4580(4)
H4B H 0.8315 1.1044 0.4676
C3B C 0.9053(4) 1.0485(2) 0.4927(4)
H5B H 0.8553 1.0396 0.5264
C4B C 0.9908(4) 1.02120(18) 0.4816(3)
C5B C 1.0602(4) 1.0359(2) 0.4310(3)
H6B H 1.1201 1.0188 0.4210
C6B C 1.0437(4) 1.0750(2) 0.3947(3)
H7B H 1.0913 1.0846 0.3598
P1 P 0.29167(11) 0.98285(5) 0.30931(9)
F1 F 0.1744(3) 0.9928(2) 0.3042(2)
F2 F 0.4109(4) 0.9686(3) 0.3151(4)
F3 F 0.2809(5) 0.9654(4) 0.3809(4)
F4 F 0.3000(6) 1.0033(3) 0.2348(6)
F5 F 0.3237(14) 1.0214(4) 0.3346(10)
F6 F 0.2819(9) 0.9478(4) 0.2589(7)
O1 O 0.3684(3) 0.87359(11) 0.0345(2)
O2 O 0.7920(2) 0.88536(10) -0.01427(18)
O3 O 0.3632(3) 0.80240(11) 0.28391(18)
O4 O 0.6337(3) 0.73803(12) 0.08486(18)
O5 O 0.5753(2) 0.88349(11) 0.47171(18)
O6 O 0.7400(3) 0.73588(10) 0.34963(18)
O7 O 1.0057(3) 0.98146(13) 0.1558(2)
O8 O 0.5764(2) 1.00029(12) 0.10376(18)
O9 O 0.7221(3) 1.01860(10) 0.35802(18)
O10 O 0.6410(3) 1.10050(11) 0.38337(19)
O11 O 0.9698(2) 0.87189(10) 0.39660(17)
O12 O 1.1631(3) 0.82685(12) 0.4361(2)
O13 O 1.2685(6) 0.82038(15) 0.5738(4)
C7 C 0.6852(3) 0.88106(14) -0.0031(2)
C8 C 0.6358(4) 0.84103(14) 0.0057(2)
H8 H 0.6756 0.8150 0.0029
C9 C 0.5305(4) 0.83896(14) 0.0186(2)
C10 C 0.4735(4) 0.87768(14) 0.0216(3)
C11 C 0.5224(4) 0.91673(14) 0.0116(3)
H9 H 0.4819 0.9426 0.0123
C12 C 0.6295(3) 0.91944(14) 0.0006(2)
C13 C 0.5664(4) 0.75161(14) 0.1356(3)
C14 C 0.5704(4) 0.73943(14) 0.2082(3)
H10 H 0.6217 0.7186 0.2244
C15 C 0.5043(4) 0.75575(14) 0.2587(2)
C16 C 0.4283(3) 0.78519(14) 0.2328(2)
C17 C 0.4198(3) 0.79699(14) 0.1601(3)
H11 H 0.3662 0.8169 0.1440
C18 C 0.4878(4) 0.78054(13) 0.1095(2)
C19 C 0.7008(3) 0.77352(14) 0.3806(2)
C20 C 0.5932(3) 0.77751(15) 0.3778(2)
C21 C 0.5498(4) 0.81468(15) 0.4078(2)
H12 H 0.4754 0.8182 0.4058
C22 C 0.6131(3) 0.84644(15) 0.4404(2)
C23 C 0.7243(3) 0.84176(14) 0.4436(2)
C24 C 0.7655(3) 0.80457(14) 0.4128(2)
H13 H 0.8398 0.8006 0.4141
C25 C 0.6834(3) 0.99598(14) 0.1187(2)
C26 C 0.7404(3) 0.97903(13) 0.0620(2)
C27 C 0.8484(3) 0.97503(14) 0.0738(3)
H14 H 0.8885 0.9642 0.0355
C28 C 0.8999(3) 0.98626(14) 0.1396(3)
C29 C 0.8429(3) 1.00249(13) 0.1965(2)
C30 C 0.7336(3) 1.00730(15) 0.1839(2)
H15 H 0.6935 1.0187 0.2217
C31 C 0.9097(3) 0.90835(14) 0.3843(2)
C32 C 0.9331(3) 0.94132(14) 0.3358(2)
H16 H 0.9936 0.9386 0.3079
C33 C 0.8703(3) 0.97823(13) 0.3270(2)
C34 C 0.7823(3) 0.98136(14) 0.3697(2)
C35 C 0.7588(3) 0.94931(13) 0.4186(2)
H17 H 0.6994 0.9526 0.4475
C36 C 0.8210(3) 0.91225(14) 0.4264(2)
C37 C 0.3162(5) 0.91144(19) 0.0589(6)
H18 H 0.2421 0.9046 0.0661
H19 H 0.3201 0.9344 0.0222
H20 H 0.3506 0.9213 0.1053
C38 C 0.8524(4) 0.84638(19) -0.0135(4)
H21 H 0.9261 0.8533 -0.0221
H22 H 0.8240 0.8269 -0.0522
H23 H 0.8488 0.8321 0.0342
C39 C 0.3290(4) 0.84603(18) 0.2721(3)
H24 H 0.2839 0.8547 0.3113
H25 H 0.2890 0.8481 0.2248
H26 H 0.3905 0.8652 0.2722
C40 C 0.7184(5) 0.7109(2) 0.1120(3)
H27 H 0.7619 0.7028 0.0716
H28 H 0.6896 0.6847 0.1336
H29 H 0.7616 0.7266 0.1493
C41 C 0.8485(4) 0.73562(17) 0.3326(3)
H30 H 0.8658 0.7075 0.3112
H31 H 0.8930 0.7404 0.3774
H32 H 0.8610 0.7588 0.2974
C42 C 0.4800(5) 0.9008(2) 0.4393(4)
H33 H 0.4607 0.9269 0.4659
H34 H 0.4237 0.8791 0.4417
H35 H 0.4900 0.9081 0.3880
C43 C 0.5165(4) 1.0128(3) 0.1637(3)
H36 H 0.4418 1.0149 0.1474
H37 H 0.5413 1.0410 0.1824
H38 H 0.5251 0.9910 0.2027
C44 C 1.0662(4) 0.9604(2) 0.1043(4)
H39 H 1.1402 0.9593 0.1228
H40 H 1.0610 0.9765 0.0580
H41 H 1.0397 0.9309 0.0962
C45 C 0.6823(3) 0.96342(14) -0.0084(2)
H42 H 0.6279 0.9851 -0.0240
H43 H 0.7329 0.9613 -0.0475
C46 C 0.8937(4) 1.01227(15) 0.2715(3)
H44 H 0.9711 1.0144 0.2680
H45 H 0.8681 1.0407 0.2883
C47 C 0.7938(4) 0.87628(15) 0.4790(2)
H46 H 0.8600 0.8627 0.4991
H47 H 0.7577 0.8891 0.5204
C48 C 0.5196(4) 0.74492(15) 0.3385(3)
H48 H 0.5497 0.7154 0.3441
H49 H 0.4505 0.7452 0.3610
C49 C 0.4796(4) 0.79519(14) 0.0301(2)
H50 H 0.5138 0.7733 -0.0002
H51 H 0.4042 0.7968 0.0132
C50 C 0.6314(4) 1.02437(17) 0.3999(3)
H52 H 0.6532 1.0281 0.4524
H53 H 0.5848 0.9987 0.3948
C51 C 0.5742(4) 1.06415(16) 0.3715(3)
H54 H 0.5552 1.0609 0.3185
H55 H 0.5084 1.0682 0.3973
C52 C 0.5865(4) 1.13948(18) 0.3643(3)
H56 H 0.5320 1.1453 0.3997
H57 H 0.5511 1.1367 0.3149
C53 C 0.6646(6) 1.17635(19) 0.3653(4)
H58 H 0.7075 1.1734 0.3221
H59 H 0.6247 1.2039 0.3596
C54 C 1.0520(4) 0.86266(16) 0.3481(3)
H60 H 1.1055 0.8861 0.3507
H61 H 1.0223 0.8606 0.2970
C55 C 1.1009(4) 0.82092(16) 0.3712(3)
H62 H 1.0452 0.7992 0.3792
H63 H 1.1451 0.8099 0.3324
C56 C 1.2245(4) 0.78915(18) 0.4554(3)
H64 H 1.2577 0.7776 0.4117
H65 H 1.1787 0.7663 0.4746
C57 C 1.3086(6) 0.8019(4) 0.5132(4)
H66 H 1.3497 0.7758 0.5285
H67 H 1.3576 0.8227 0.4917
O1B O 1.6316(3) 1.12641(11) 0.9655(2)
O2B O 1.2080(2) 1.11464(10) 1.01427(18)
O3B O 1.6368(3) 1.19760(11) 0.71609(18)
O4B O 1.3663(3) 1.26197(12) 0.91514(18)
O5B O 1.4247(2) 1.11651(11) 0.52829(18)
O6B O 1.2600(3) 1.26412(10) 0.65037(18)
O7B O 0.9943(3) 1.01854(13) 0.8442(2)
O8B O 1.4236(2) 0.99971(12) 0.89624(18)
O9B O 1.2779(3) 0.98140(10) 0.64198(18)
O10B O 1.3590(3) 0.89950(11) 0.61663(19)
O11B O 1.0302(2) 1.12811(10) 0.60340(17)
O12B O 0.8369(3) 1.17315(12) 0.5639(2)
O13B O 0.7315(6) 1.17962(15) 0.4262(4)
C7B C 1.3148(3) 1.11894(14) 1.0031(2)
C8B C 1.3642(4) 1.15897(14) 0.9943(2)
H8B H 1.3244 1.1850 0.9971
C9B C 1.4695(4) 1.16104(14) 0.9814(2)
C10B C 1.5265(4) 1.12232(14) 0.9784(3)
C11B C 1.4776(4) 1.08327(14) 0.9884(3)
H9B H 1.5181 1.0574 0.9877
C12B C 1.3705(3) 1.08056(14) 0.9994(2)
C13B C 1.4336(4) 1.24839(14) 0.8644(3)
C14B C 1.4296(4) 1.26057(14) 0.7918(3)
H10B H 1.3783 1.2814 0.7756
C15B C 1.4957(4) 1.24425(14) 0.7413(2)
C16B C 1.5717(3) 1.21481(14) 0.7672(2)
C17B C 1.5802(3) 1.20301(14) 0.8399(3)
H11B H 1.6338 1.1831 0.8560
C18B C 1.5122(4) 1.21946(13) 0.8905(2)
C19B C 1.2992(3) 1.22648(14) 0.6194(2)
C20B C 1.4068(3) 1.22249(15) 0.6222(2)
C21B C 1.4502(4) 1.18532(15) 0.5922(2)
H12B H 1.5246 1.1818 0.5942
C22B C 1.3869(3) 1.15356(15) 0.5596(2)
C23B C 1.2757(3) 1.15824(14) 0.5564(2)
C24B C 1.2345(3) 1.19543(14) 0.5872(2)
H13B H 1.1602 1.1994 0.5859
C25B C 1.3166(3) 1.00402(14) 0.8813(2)
C26B C 1.2596(3) 1.02097(13) 0.9380(2)
C27B C 1.1516(3) 1.02497(14) 0.9262(3)
H14B H 1.1115 1.0358 0.9645
C28B C 1.1001(3) 1.01374(14) 0.8604(3)
C29B C 1.1571(3) 0.99751(13) 0.8035(2)
C30B C 1.2664(3) 0.99270(15) 0.8161(2)
H15B H 1.3065 0.9813 0.7783
C31B C 1.0903(3) 1.09165(14) 0.6157(2)
C32B C 1.0669(3) 1.05868(14) 0.6642(2)
H16B H 1.0064 1.0614 0.6921
C33B C 1.1297(3) 1.02177(13) 0.6730(2)
C34B C 1.2177(3) 1.01864(14) 0.6303(2)
C35B C 1.2412(3) 1.05069(13) 0.5814(2)
H17B H 1.3006 1.0474 0.5525
C36B C 1.1790(3) 1.08775(14) 0.5736(2)
C37B C 1.6838(5) 1.08856(19) 0.9411(6)
H18B H 1.7579 1.0954 0.9339
H19B H 1.6799 1.0656 0.9778
H20B H 1.6494 1.0787 0.8947
C38B C 1.1476(4) 1.15362(19) 1.0135(4)
H21B H 1.0739 1.1467 1.0221
H22B H 1.1760 1.1731 1.0522
H23B H 1.1512 1.1679 0.9658
C39B C 1.6710(4) 1.15397(18) 0.7279(3)
H24B H 1.7161 1.1453 0.6887
H25B H 1.7110 1.1519 0.7752
H26B H 1.6095 1.1348 0.7278
C40B C 1.2816(5) 1.2891(2) 0.8880(3)
H27B H 1.2381 1.2972 0.9284
H28B H 1.3104 1.3153 0.8664
H29B H 1.2384 1.2734 0.8507
C41B C 1.1515(4) 1.26438(17) 0.6674(3)
H30B H 1.1342 1.2925 0.6888
H31B H 1.1070 1.2596 0.6226
H32B H 1.1390 1.2412 0.7026
C42B C 1.5200(5) 1.0992(2) 0.5607(4)
H33B H 1.5393 1.0731 0.5341
H34B H 1.5763 1.1209 0.5583
H35B H 1.5100 1.0919 0.6120
C43B C 1.4835(4) 0.9872(3) 0.8363(3)
H36B H 1.5582 0.9851 0.8526
H37B H 1.4587 0.9590 0.8176
H38B H 1.4749 1.0090 0.7973
C44B C 0.9338(4) 1.0396(2) 0.8957(4)
H39B H 0.8598 1.0407 0.8772
H40B H 0.9390 1.0235 0.9420
H41B H 0.9603 1.0691 0.9038
C45B C 1.3177(3) 1.03658(14) 1.0084(2)
H42B H 1.3721 1.0149 1.0240
H43B H 1.2671 1.0387 1.0475
C46B C 1.1063(4) 0.98773(15) 0.7285(3)
H44B H 1.0289 0.9856 0.7320
H45B H 1.1319 0.9593 0.7117
C47B C 1.2062(4) 1.12372(15) 0.5210(2)
H46B H 1.1400 1.1373 0.5009
H47B H 1.2423 1.1109 0.4796
C48B C 1.4804(4) 1.25508(15) 0.6615(3)
H48B H 1.4503 1.2846 0.6559
H49B H 1.5495 1.2548 0.6390
C49B C 1.5204(4) 1.20481(14) 0.9699(2)
H50B H 1.4862 1.2267 1.0002
H51B H 1.5958 1.2032 0.9868
C50B C 1.3686(4) 0.97563(17) 0.6001(3)
H52B H 1.3468 0.9719 0.5476
H53B H 1.4152 1.0013 0.6052
C51B C 1.4258(4) 0.93585(16) 0.6285(3)
H54B H 1.4448 0.9391 0.6815
H55B H 1.4916 0.9318 0.6027
C52B C 1.4135(4) 0.86052(18) 0.6357(3)
H56B H 1.4680 0.8547 0.6003
H57B H 1.4489 0.8633 0.6851
C53B C 1.3354(6) 0.82365(19) 0.6347(4)
H58B H 1.2925 0.8266 0.6779
H59B H 1.3753 0.7961 0.6404
C54B C 0.9480(4) 1.13734(16) 0.6519(3)
H60B H 0.8945 1.1139 0.6493
H61B H 0.9777 1.1394 0.7030
C55B C 0.8991(4) 1.17908(16) 0.6288(3)
H62B H 0.9548 1.2008 0.6208
H63B H 0.8549 1.1901 0.6676
C56B C 0.7755(4) 1.21085(18) 0.5446(3)
H64B H 0.7423 1.2224 0.5883
H65B H 0.8213 1.2337 0.5254
C57B C 0.6914(6) 1.1981(4) 0.4868(4)
H66B H 0.6503 1.2242 0.4715
H67B H 0.6424 1.1773 0.5083
loop_
_geom_bond_atom_site_label_1
_geom_bond_atom_site_label_2
_geom_bond_site_symmetry_1
_geom_bond_site_symmetry_2
N1 C1 1_555 1_555
C1 H1 1_555 1_555
H2 C1 1_555 1_555
H3 C1 1_555 1_555
C2 N1 1_555 1_555
H4 C2 1_555 1_555
C3 C2 1_555 1_555
H5 C3 1_555 1_555
C4 C3 1_555 1_555
C5 C4 1_555 1_555
H6 C5 1_555 1_555
C6 N1 1_555 1_555
H7 C6 1_555 1_555
P1 F1 1_555 1_555
F2 P1 1_555 1_555
F3 P1 1_555 1_555
F4 P1 1_555 1_555
F5 P1 1_555 1_555
F6 P1 1_555 1_555
O1 C10 1_555 1_555
O2 C7 1_555 1_555
O3 C16 1_555 1_555
O4 C13 1_555 1_555
O5 C22 1_555 1_555
O6 C19 1_555 1_555
O7 C28 1_555 1_555
O8 C25 1_555 1_555
O9 C34 1_555 1_555
O10 C51 1_555 1_555
O11 C31 1_555 1_555
O12 C55 1_555 1_555
O13 C57 1_555 1_555
C7 C8 1_555 1_555
C8 H8 1_555 1_555
C9 C8 1_555 1_555
C10 C9 1_555 1_555
C11 C10 1_555 1_555
H9 C11 1_555 1_555
C12 C7 1_555 1_555
C13 C14 1_555 1_555
C14 H10 1_555 1_555
C15 C14 1_555 1_555
C16 C15 1_555 1_555
C17 C16 1_555 1_555
H11 C17 1_555 1_555
C18 C13 1_555 1_555
C19 C20 1_555 1_555
C20 C21 1_555 1_555
C21 H12 1_555 1_555
C22 C21 1_555 1_555
C23 C22 1_555 1_555
C24 C19 1_555 1_555
H13 C24 1_555 1_555
C25 C26 1_555 1_555
C26 C27 1_555 1_555
C27 H14 1_555 1_555
C28 C27 1_555 1_555
C29 C28 1_555 1_555
C30 C25 1_555 1_555
H15 C30 1_555 1_555
C31 C32 1_555 1_555
C32 H16 1_555 1_555
C33 C32 1_555 1_555
C34 C33 1_555 1_555
C35 C34 1_555 1_555
H17 C35 1_555 1_555
C36 C31 1_555 1_555
C37 O1 1_555 1_555
H18 C37 1_555 1_555
H19 C37 1_555 1_555
H20 C37 1_555 1_555
C38 O2 1_555 1_555
H21 C38 1_555 1_555
H22 C38 1_555 1_555
H23 C38 1_555 1_555
C39 O3 1_555 1_555
H24 C39 1_555 1_555
H25 C39 1_555 1_555
H26 C39 1_555 1_555
C40 O4 1_555 1_555
H27 C40 1_555 1_555
H28 C40 1_555 1_555
H29 C40 1_555 1_555
C41 O6 1_555 1_555
H30 C41 1_555 1_555
H31 C41 1_555 1_555
H32 C41 1_555 1_555
C42 O5 1_555 1_555
H33 C42 1_555 1_555
H34 C42 1_555 1_555
H35 C42 1_555 1_555
C43 O8 1_555 1_555
H36 C43 1_555 1_555
H37 C43 1_555 1_555
H38 C43 1_555 1_555
C44 O7 1_555 1_555
H39 C44 1_555 1_555
H40 C44 1_555 1_555
H41 C44 1_555 1_555
C45 C12 1_555 1_555
H42 C45 1_555 1_555
H43 C45 1_555 1_555
C46 C29 1_555 1_555
H44 C46 1_555 1_555
H45 C46 1_555 1_555
C47 C23 1_555 1_555
H46 C47 1_555 1_555
H47 C47 1_555 1_555
C48 C15 1_555 1_555
H48 C48 1_555 1_555
H49 C48 1_555 1_555
C49 C9 1_555 1_555
H50 C49 1_555 1_555
H51 C49 1_555 1_555
C50 O9 1_555 1_555
H52 C50 1_555 1_555
H53 C50 1_555 1_555
C51 C50 1_555 1_555
H54 C51 1_555 1_555
H55 C51 1_555 1_555
C52 O10 1_555 1_555
H56 C52 1_555 1_555
H57 C52 1_555 1_555
C53 C52 1_555 1_555
H58 C53 1_555 1_555
H59 C53 1_555 1_555
C54 O11 1_555 1_555
H60 C54 1_555 1_555
H61 C54 1_555 1_555
C55 C54 1_555 1_555
H62 C55 1_555 1_555
H63 C55 1_555 1_555
C56 O12 1_555 1_555
H64 C56 1_555 1_555
H65 C56 1_555 1_555
C57 C56 1_555 1_555
H66 C57 1_555 1_555
H67 C57 1_555 1_555
N1B C1B 1_555 1_555
C1B H1B 1_555 1_555
H2B C1B 1_555 1_555
H3B C1B 1_555 1_555
C2B N1B 1_555 1_555
H4B C2B 1_555 1_555
C3B C2B 1_555 1_555
H5B C3B 1_555 1_555
C4B C4 1_555 1_555
C5B C4B 1_555 1_555
H6B C5B 1_555 1_555
C6B N1B 1_555 1_555
H7B C6B 1_555 1_555
O1B C10B 1_555 1_555
O2B C7B 1_555 1_555
O3B C16B 1_555 1_555
O4B C13B 1_555 1_555
O5B C22B 1_555 1_555
O6B C19B 1_555 1_555
O7B C28B 1_555 1_555
O8B C25B 1_555 1_555
O9B C34B 1_555 1_555
O10B C51B 1_555 1_555
O11B C31B 1_555 1_555
O12B C55B 1_555 1_555
O13B C53 1_555 1_555
C7B C8B 1_555 1_555
C8B H8B 1_555 1_555
C9B C8B 1_555 1_555
C10B C9B 1_555 1_555
C11B C10B 1_555 1_555
H9B C11B 1_555 1_555
C12B C7B 1_555 1_555
C13B C14B 1_555 1_555
C14B H10B 1_555 1_555
C15B C14B 1_555 1_555
C16B C15B 1_555 1_555
C17B C16B 1_555 1_555
H11B C17B 1_555 1_555
C18B C13B 1_555 1_555
C19B C20B 1_555 1_555
C20B C21B 1_555 1_555
C21B H12B 1_555 1_555
C22B C21B 1_555 1_555
C23B C22B 1_555 1_555
C24B C19B 1_555 1_555
H13B C24B 1_555 1_555
C25B C26B 1_555 1_555
C26B C27B 1_555 1_555
C27B H14B 1_555 1_555
C28B C27B 1_555 1_555
C29B C28B 1_555 1_555
C30B C25B 1_555 1_555
H15B C30B 1_555 1_555
C31B C32B 1_555 1_555
C32B H16B 1_555 1_555
C33B C32B 1_555 1_555
C34B C33B 1_555 1_555
C35B C34B 1_555 1_555
H17B C35B 1_555 1_555
C36B C31B 1_555 1_555
C37B O1B 1_555 1_555
H18B C37B 1_555 1_555
H19B C37B 1_555 1_555
H20B C37B 1_555 1_555
C38B O2B 1_555 1_555
H21B C38B 1_555 1_555
H22B C38B 1_555 1_555
H23B C38B 1_555 1_555
C39B O3B 1_555 1_555
H24B C39B 1_555 1_555
H25B C39B 1_555 1_555
H26B C39B 1_555 1_555
C40B O4B 1_555 1_555
H27B C40B 1_555 1_555
H28B C40B 1_555 1_555
H29B C40B 1_555 1_555
C41B O6B 1_555 1_555
H30B C41B 1_555 1_555
H31B C41B 1_555 1_555
H32B C41B 1_555 1_555
C42B O5B 1_555 1_555
H33B C42B 1_555 1_555
H34B C42B 1_555 1_555
H35B C42B 1_555 1_555
C43B O8B 1_555 1_555
H36B C43B 1_555 1_555
H37B C43B 1_555 1_555
H38B C43B 1_555 1_555
C44B O7B 1_555 1_555
H39B C44B 1_555 1_555
H40B C44B 1_555 1_555
H41B C44B 1_555 1_555
C45B C12B 1_555 1_555
H42B C45B 1_555 1_555
H43B C45B 1_555 1_555
C46B C29B 1_555 1_555
H44B C46B 1_555 1_555
H45B C46B 1_555 1_555
C47B C23B 1_555 1_555
H46B C47B 1_555 1_555
H47B C47B 1_555 1_555
C48B C15B 1_555 1_555
H48B C48B 1_555 1_555
H49B C48B 1_555 1_555
C49B C9B 1_555 1_555
H50B C49B 1_555 1_555
H51B C49B 1_555 1_555
C50B O9B 1_555 1_555
H52B C50B 1_555 1_555
H53B C50B 1_555 1_555
C51B C50B 1_555 1_555
H54B C51B 1_555 1_555
H55B C51B 1_555 1_555
C52B O10B 1_555 1_555
H56B C52B 1_555 1_555
H57B C52B 1_555 1_555
C53B O13 1_555 1_555
H58B C53B 1_555 1_555
H59B C53B 1_555 1_555
C54B O11B 1_555 1_555
H60B C54B 1_555 1_555
H61B C54B 1_555 1_555
C55B C54B 1_555 1_555
H62B C55B 1_555 1_555
H63B C55B 1_555 1_555
C56B O12B 1_555 1_555
H64B C56B 1_555 1_555
H65B C56B 1_555 1_555
C57B O13B 1_555 1_555
H66B C57B 1_555 1_555
H67B C57B 1_555 1_555
C5 C6 1_555 1_555
C11 C12 1_555 1_555
C17 C18 1_555 1_555
C18 C49 1_555 1_555
C20 C48 1_555 1_555
C23 C24 1_555 1_555
C26 C45 1_555 1_555
C29 C30 1_555 1_555
C33 C46 1_555 1_555
C35 C36 1_555 1_555
C36 C47 1_555 1_555
C3B C4B 1_555 1_555
C5B C6B 1_555 1_555
C11B C12B 1_555 1_555
C17B C18B 1_555 1_555
C18B C49B 1_555 1_555
C20B C48B 1_555 1_555
C23B C24B 1_555 1_555
C26B C45B 1_555 1_555
C29B C30B 1_555 1_555
C33B C46B 1_555 1_555
C35B C36B 1_555 1_555
C36B C47B 1_555 1_555
C52B C53B 1_555 1_555
C56B C57B 1_555 1_555

#END
