
#######################################################################
#
#                 Cambridge Crystallographic Data Centre
#                                CCDC 
#
#######################################################################
#
# If this CIF has been generated from an entry in the Cambridge 
# Structural Database, then it will include bibliographic, chemical, 
# crystal, experimental, refinement or atomic coordinate data resulting 
# from the CCDC's data processing and validation procedures.
#
#######################################################################

data_SULJEQ
_chemical_formula_moiety         'C102 H120 O26'
_chemical_name_systematic        
"4,4':35,35'-bis(1,4,7,10,13-Pentaoxatridecane-1,13-diyl)bis(9,14,19,24,26,29,31,33-octamethoxypillar[5]arene) unknown solvate"
_symmetry_cell_setting           monoclinic
_symmetry_space_group_name_H-M   'P 21/n'
_symmetry_Int_Tables_number      14
_space_group_name_Hall           '-P 2yn'
loop_
_symmetry_equiv_pos_site_id
_symmetry_equiv_pos_as_xyz
1 x,y,z
2 1/2-x,1/2+y,1/2-z
3 -x,-y,-z
4 1/2+x,1/2-y,1/2+z
_cell_length_a                   12.3918(4)
_cell_length_b                   12.0736(4)
_cell_length_c                   34.0914(11)
_cell_angle_alpha                90
_cell_angle_beta                 94.2900(10)
_cell_angle_gamma                90
_cell_volume                     5086.25
_exptl_crystal_colour            colorless
_exptl_crystal_description       block
_cell_formula_units_Z            2
loop_
_atom_site_label
_atom_site_type_symbol
_atom_site_fract_x
_atom_site_fract_y
_atom_site_fract_z
O1 O 0.6028(2) 2.3217(3) -0.14560(9)
O2 O 0.8104(3) 2.3541(3) 0.00247(9)
O3 O 0.7636(3) 2.4728(4) -0.25421(9)
O4 O 0.8482(3) 2.6458(3) -0.10496(10)
O5 O 1.1151(3) 2.2156(3) -0.26192(9)
O6 O 1.1487(3) 2.6258(2) -0.19080(9)
O7 O 1.1353(3) 1.9175(2) -0.16087(8)
O8 O 1.3477(2) 2.3142(2) -0.13462(8)
O9 O 1.1742(2) 2.1287(2) -0.02209(7)
O10 O 1.3563(3) 2.2708(3) -0.00320(9)
O11 O 0.7809(2) 1.9804(3) -0.08787(8)
O12 O 0.5898(4) 1.9369(6) -0.12880(17)
O13 O 0.4952(4) 1.7910(6) -0.07032(17)
C1 C 0.8791(3) 2.0945(3) -0.04202(10)
C2 C 0.8802(3) 2.0187(3) -0.07243(11)
C3 C 0.9784(3) 1.9820(3) -0.08511(11)
H1 H 0.9782 1.9315 -0.1057
C4 C 1.0754(3) 2.0188(3) -0.06778(10)
C5 C 1.0744(3) 2.0945(3) -0.03748(10)
C6 C 0.9768(3) 2.1316(3) -0.02524(10)
H2 H 0.9773 2.1833 -0.0050
C7 C 1.1807(3) 1.9773(3) -0.08253(10)
H3 H 1.1716 1.9011 -0.0911
H4 H 1.2369 1.9790 -0.0611
C8 C 1.2158(3) 2.0472(3) -0.11646(10)
C9 C 1.1921(3) 2.0157(3) -0.15509(11)
C10 C 1.2228(3) 2.0808(3) -0.18551(11)
H5 H 1.2079 2.0571 -0.2113
C11 C 1.2752(3) 2.1808(3) -0.17844(11)
C12 C 1.2977(3) 2.2139(3) -0.13997(11)
C13 C 1.2705(3) 2.1462(3) -0.10925(10)
H6 H 1.2892 2.1677 -0.0834
C14 C 1.3003(3) 2.2557(3) -0.21252(11)
H7 H 1.3692 2.2923 -0.2062
H8 H 1.3071 2.2109 -0.2358
C15 C 1.2140(3) 2.3421(4) -0.22128(11)
C16 C 1.2240(3) 2.4462(4) -0.20334(11)
H9 H 1.2859 2.4632 -0.1874
C17 C 1.1431(4) 2.5237(3) -0.20913(11)
C18 C 1.0507(4) 2.5032(4) -0.23312(11)
C19 C 1.0419(3) 2.4003(4) -0.25113(11)
H10 H 0.9810 2.3850 -0.2679
C20 C 1.1209(4) 2.3192(4) -0.24502(12)
C21 C 0.9619(4) 2.5861(4) -0.23936(12)
H11 H 0.9267 2.5765 -0.2655
H12 H 0.9927 2.6600 -0.2379
C22 C 0.8781(4) 2.5758(4) -0.20934(12)
C23 C 0.8985(4) 2.6185(3) -0.17172(13)
H13 H 0.9622 2.6577 -0.1658
C24 C 0.8270(4) 2.6046(4) -0.14273(13)
C25 C 0.7301(4) 2.5511(3) -0.15100(13)
C26 C 0.7084(4) 2.5104(4) -0.18907(14)
H14 H 0.6423 2.4762 -0.1957
C27 C 0.7822(4) 2.5195(4) -0.21694(12)
C28 C 0.6515(3) 2.5335(4) -0.11966(13)
H15 H 0.5791 2.5254 -0.1322
H16 H 0.6521 2.5983 -0.1029
C29 C 0.6789(3) 2.4317(4) -0.09445(12)
C30 C 0.7292(3) 2.4407(4) -0.05759(12)
H17 H 0.7444 2.5106 -0.0471
C31 C 0.7583(3) 2.3473(4) -0.03529(11)
C32 C 0.7377(3) 2.2419(3) -0.04966(11)
C33 C 0.6832(3) 2.2328(4) -0.08705(12)
H18 H 0.6657 2.1630 -0.0972
C34 C 0.6549(3) 2.3255(4) -0.10907(12)
C35 C 0.7746(3) 1.9266(4) -0.12469(12)
H19 H 0.8267 1.8666 -0.1242
H20 H 0.7920 1.9786 -0.1450
C36 C 0.6645(5) 1.8822(6) -0.13382(19)
H21 H 0.6591 1.8603 -0.1613
H22 H 0.6583 1.8152 -0.1185
C37 C 0.4806(4) 1.8939(6) -0.1285(2)
H23 H 0.4316 1.9494 -0.1402
H24 H 0.4752 1.8295 -0.1455
C38 C 0.4430(6) 1.8633(11) -0.0920(3)
H25 H 0.4387 1.9303 -0.0765
H26 H 0.3696 1.8362 -0.0971
C39 C 0.4684(6) 1.7638(10) -0.0326(3)
H27 H 0.4496 1.8324 -0.0199
H28 H 0.4031 1.7195 -0.0354
C40 C 0.5839(4) 2.2166(5) -0.16248(14)
H29 H 0.5475 2.2248 -0.1882
H30 H 0.5396 2.1739 -0.1462
H31 H 0.6517 2.1794 -0.1646
C41 C 0.8175(6) 2.4568(5) 0.02064(17)
H32 H 0.8549 2.4494 0.0462
H33 H 0.7460 2.4852 0.0233
H34 H 0.8565 2.5069 0.0050
C42 C 0.7061(6) 2.3727(7) -0.25751(18)
H35 H 0.6985 2.3502 -0.2846
H36 H 0.6358 2.3827 -0.2480
H37 H 0.7447 2.3167 -0.2422
C43 C 0.9567(5) 2.6544(5) -0.09033(17)
H38 H 0.9601 2.6830 -0.0640
H39 H 0.9943 2.7036 -0.1067
H40 H 0.9899 2.5826 -0.0902
C44 C 1.0109(4) 2.1748(4) -0.27483(15)
H41 H 1.0178 2.1024 -0.2861
H42 H 0.9776 2.2240 -0.2943
H43 H 0.9669 2.1704 -0.2529
C45 C 1.2310(5) 2.6454(4) -0.16090(15)
H44 H 1.2243 2.7195 -0.1511
H45 H 1.3003 2.6367 -0.1713
H46 H 1.2244 2.5935 -0.1399
C46 C 1.0865(5) 1.8955(4) -0.19797(15)
H47 H 1.0504 1.8252 -0.1977
H48 H 1.1405 1.8937 -0.2167
H49 H 1.0347 1.9525 -0.2051
C47 C 1.3695(4) 2.3541(4) -0.09605(14)
H50 H 1.4043 2.4250 -0.0969
H51 H 1.4162 2.3030 -0.0814
H52 H 1.3030 2.3614 -0.0836
C48 C 1.1798(3) 2.2083(3) 0.00801(12)
H53 H 1.1344 2.1862 0.0286
H54 H 1.1541 2.2792 -0.0023
C49 C 1.2951(3) 2.2185(4) 0.02439(12)
H55 H 1.2984 2.2614 0.0485
H56 H 1.3246 2.1455 0.0304
C50 C 1.4628(6) 2.2889(9) 0.0078(2)
H57 H 1.4976 2.2892 -0.0168
H58 H 1.4653 2.3650 0.0170
C51 C 0.7746(3) 2.1382(3) -0.02789(11)
H59 H 0.7190 2.0818 -0.0317
H60 H 0.7848 2.1541 0.0000
O1B O 1.3972(2) 1.6783(3) 0.14560(9)
O2B O 1.1896(3) 1.6459(3) -0.00247(9)
O3B O 1.2364(3) 1.5272(4) 0.25421(9)
O4B O 1.1518(3) 1.3542(3) 0.10496(10)
O5B O 0.8849(3) 1.7844(3) 0.26192(9)
O6B O 0.8513(3) 1.3742(2) 0.19080(9)
O7B O 0.8647(3) 2.0825(2) 0.16087(8)
O8B O 0.6523(2) 1.6858(2) 0.13462(8)
O9B O 0.8258(2) 1.8713(2) 0.02209(7)
O10B O 0.6437(3) 1.7292(3) 0.00320(9)
O11B O 1.2191(2) 2.0196(3) 0.08787(8)
O12B O 1.4102(4) 2.0631(6) 0.12880(17)
O13B O 1.5048(4) 2.2090(6) 0.07032(17)
C1B C 1.1209(3) 1.9055(3) 0.04202(10)
C2B C 1.1198(3) 1.9813(3) 0.07243(11)
C3B C 1.0216(3) 2.0180(3) 0.08511(11)
H1B H 1.0218 2.0685 0.1057
C4B C 0.9246(3) 1.9812(3) 0.06778(10)
C5B C 0.9256(3) 1.9055(3) 0.03748(10)
C6B C 1.0232(3) 1.8684(3) 0.02524(10)
H2B H 1.0227 1.8167 0.0050
C7B C 0.8193(3) 2.0227(3) 0.08253(10)
H3B H 0.8284 2.0989 0.0911
H4B H 0.7631 2.0210 0.0611
C8B C 0.7842(3) 1.9528(3) 0.11646(10)
C9B C 0.8079(3) 1.9843(3) 0.15509(11)
C10B C 0.7772(3) 1.9192(3) 0.18551(11)
H5B H 0.7921 1.9429 0.2113
C11B C 0.7248(3) 1.8192(3) 0.17844(11)
C12B C 0.7023(3) 1.7861(3) 0.13997(11)
C13B C 0.7295(3) 1.8538(3) 0.10925(10)
H6B H 0.7108 1.8323 0.0834
C14B C 0.6997(3) 1.7443(3) 0.21252(11)
H7B H 0.6308 1.7077 0.2062
H8B H 0.6929 1.7891 0.2358
C15B C 0.7860(3) 1.6579(4) 0.22128(11)
C16B C 0.7760(3) 1.5538(4) 0.20334(11)
H9B H 0.7141 1.5368 0.1874
C17B C 0.8569(4) 1.4763(3) 0.20913(11)
C18B C 0.9493(4) 1.4968(4) 0.23312(11)
C19B C 0.9581(3) 1.5997(4) 0.25113(11)
H10B H 1.0190 1.6150 0.2679
C20B C 0.8791(4) 1.6808(4) 0.24502(12)
C21B C 1.0381(4) 1.4139(4) 0.23936(12)
H11B H 1.0733 1.4235 0.2655
H12B H 1.0073 1.3400 0.2379
C22B C 1.1219(4) 1.4242(4) 0.20934(12)
C23B C 1.1015(4) 1.3815(3) 0.17172(13)
H13B H 1.0378 1.3423 0.1658
C24B C 1.1730(4) 1.3954(4) 0.14273(13)
C25B C 1.2699(4) 1.4489(3) 0.15100(13)
C26B C 1.2916(4) 1.4896(4) 0.18907(14)
H14B H 1.3577 1.5238 0.1957
C27B C 1.2178(4) 1.4805(4) 0.21694(12)
C28B C 1.3485(3) 1.4665(4) 0.11966(13)
H15B H 1.4209 1.4746 0.1322
H16B H 1.3479 1.4017 0.1029
C29B C 1.3211(3) 1.5683(4) 0.09445(12)
C30B C 1.2708(3) 1.5593(4) 0.05759(12)
H17B H 1.2556 1.4894 0.0471
C31B C 1.2417(3) 1.6527(4) 0.03529(11)
C32B C 1.2623(3) 1.7581(3) 0.04966(11)
C33B C 1.3168(3) 1.7672(4) 0.08705(12)
H18B H 1.3343 1.8370 0.0972
C34B C 1.3451(3) 1.6745(4) 0.10907(12)
C35B C 1.2254(3) 2.0734(4) 0.12469(12)
H19B H 1.1733 2.1334 0.1242
H20B H 1.2080 2.0214 0.1450
C36B C 1.3355(5) 2.1178(6) 0.13382(19)
H21B H 1.3409 2.1397 0.1613
H22B H 1.3417 2.1848 0.1185
C37B C 1.5194(4) 2.1061(6) 0.1285(2)
H23B H 1.5684 2.0506 0.1402
H24B H 1.5248 2.1705 0.1455
C38B C 1.5570(6) 2.1367(11) 0.0920(3)
H25B H 1.5613 2.0697 0.0765
H26B H 1.6304 2.1638 0.0971
C39B C 1.5316(6) 2.2362(10) 0.0326(3)
H27B H 1.5504 2.1676 0.0199
H28B H 1.5969 2.2805 0.0354
C40B C 1.4161(4) 1.7834(5) 0.16248(14)
H29B H 1.4525 1.7752 0.1882
H30B H 1.4604 1.8261 0.1462
H31B H 1.3483 1.8206 0.1646
C41B C 1.1825(6) 1.5432(5) -0.02064(17)
H32B H 1.1451 1.5506 -0.0462
H33B H 1.2540 1.5148 -0.0233
H34B H 1.1435 1.4931 -0.0050
C42B C 1.2939(6) 1.6273(7) 0.25751(18)
H35B H 1.3015 1.6498 0.2846
H36B H 1.3642 1.6173 0.2480
H37B H 1.2553 1.6833 0.2422
C43B C 1.0433(5) 1.3456(5) 0.09033(17)
H38B H 1.0399 1.3170 0.0640
H39B H 1.0057 1.2964 0.1067
H40B H 1.0101 1.4174 0.0902
C44B C 0.9891(4) 1.8252(4) 0.27483(15)
H41B H 0.9822 1.8976 0.2861
H42B H 1.0224 1.7760 0.2943
H43B H 1.0331 1.8296 0.2529
C45B C 0.7690(5) 1.3546(4) 0.16090(15)
H44B H 0.7757 1.2805 0.1511
H45B H 0.6997 1.3633 0.1713
H46B H 0.7756 1.4065 0.1399
C46B C 0.9135(5) 2.1045(4) 0.19797(15)
H47B H 0.9496 2.1748 0.1977
H48B H 0.8595 2.1063 0.2167
H49B H 0.9653 2.0475 0.2051
C47B C 0.6305(4) 1.6459(4) 0.09605(14)
H50B H 0.5957 1.5750 0.0969
H51B H 0.5838 1.6970 0.0814
H52B H 0.6970 1.6386 0.0836
C48B C 0.8202(3) 1.7917(3) -0.00801(12)
H53B H 0.8656 1.8138 -0.0286
H54B H 0.8459 1.7208 0.0023
C49B C 0.7049(3) 1.7815(4) -0.02439(12)
H55B H 0.7016 1.7386 -0.0485
H56B H 0.6754 1.8545 -0.0304
C50B C 0.5372(6) 1.7111(9) -0.0078(2)
H57B H 0.5024 1.7108 0.0168
H58B H 0.5347 1.6350 -0.0170
C51B C 1.2254(3) 1.8618(3) 0.02789(11)
H59B H 1.2810 1.9182 0.0317
H60B H 1.2152 1.8459 0.0000
loop_
_geom_bond_atom_site_label_1
_geom_bond_atom_site_label_2
_geom_bond_site_symmetry_1
_geom_bond_site_symmetry_2
O1 C34 1_555 1_555
O2 C31 1_555 1_555
O3 C27 1_555 1_555
O4 C24 1_555 1_555
O5 C20 1_555 1_555
O6 C17 1_555 1_555
O7 C9 1_555 1_555
O8 C12 1_555 1_555
O9 C5 1_555 1_555
O10 C49 1_555 1_555
O11 C2 1_555 1_555
O12 C36 1_555 1_555
O13 C38 1_555 1_555
C1 C2 1_555 1_555
C2 C3 1_555 1_555
C3 H1 1_555 1_555
C4 C3 1_555 1_555
C5 C4 1_555 1_555
C6 C1 1_555 1_555
H2 C6 1_555 1_555
C7 C4 1_555 1_555
H3 C7 1_555 1_555
H4 C7 1_555 1_555
C8 C7 1_555 1_555
C9 C8 1_555 1_555
C10 C9 1_555 1_555
H5 C10 1_555 1_555
C11 C10 1_555 1_555
C12 C11 1_555 1_555
C13 C8 1_555 1_555
H6 C13 1_555 1_555
C14 C11 1_555 1_555
H7 C14 1_555 1_555
H8 C14 1_555 1_555
C15 C14 1_555 1_555
C16 C15 1_555 1_555
H9 C16 1_555 1_555
C17 C16 1_555 1_555
C18 C17 1_555 1_555
C19 C18 1_555 1_555
H10 C19 1_555 1_555
C20 C15 1_555 1_555
C21 C18 1_555 1_555
H11 C21 1_555 1_555
H12 C21 1_555 1_555
C22 C21 1_555 1_555
C23 C22 1_555 1_555
H13 C23 1_555 1_555
C24 C23 1_555 1_555
C25 C24 1_555 1_555
C26 C25 1_555 1_555
H14 C26 1_555 1_555
C27 C22 1_555 1_555
C28 C25 1_555 1_555
H15 C28 1_555 1_555
H16 C28 1_555 1_555
C29 C28 1_555 1_555
C30 C29 1_555 1_555
H17 C30 1_555 1_555
C31 C30 1_555 1_555
C32 C31 1_555 1_555
C33 C32 1_555 1_555
H18 C33 1_555 1_555
C34 C29 1_555 1_555
C35 O11 1_555 1_555
H19 C35 1_555 1_555
H20 C35 1_555 1_555
C36 C35 1_555 1_555
H21 C36 1_555 1_555
H22 C36 1_555 1_555
C37 O12 1_555 1_555
H23 C37 1_555 1_555
H24 C37 1_555 1_555
C38 C37 1_555 1_555
H25 C38 1_555 1_555
H26 C38 1_555 1_555
C39 O13 1_555 1_555
H27 C39 1_555 1_555
H28 C39 1_555 1_555
C40 O1 1_555 1_555
H29 C40 1_555 1_555
H30 C40 1_555 1_555
H31 C40 1_555 1_555
C41 O2 1_555 1_555
H32 C41 1_555 1_555
H33 C41 1_555 1_555
H34 C41 1_555 1_555
C42 O3 1_555 1_555
H35 C42 1_555 1_555
H36 C42 1_555 1_555
H37 C42 1_555 1_555
C43 O4 1_555 1_555
H38 C43 1_555 1_555
H39 C43 1_555 1_555
H40 C43 1_555 1_555
C44 O5 1_555 1_555
H41 C44 1_555 1_555
H42 C44 1_555 1_555
H43 C44 1_555 1_555
C45 O6 1_555 1_555
H44 C45 1_555 1_555
H45 C45 1_555 1_555
H46 C45 1_555 1_555
C46 O7 1_555 1_555
H47 C46 1_555 1_555
H48 C46 1_555 1_555
H49 C46 1_555 1_555
C47 O8 1_555 1_555
H50 C47 1_555 1_555
H51 C47 1_555 1_555
H52 C47 1_555 1_555
C48 O9 1_555 1_555
H53 C48 1_555 1_555
H54 C48 1_555 1_555
C49 C48 1_555 1_555
H55 C49 1_555 1_555
H56 C49 1_555 1_555
C50 O10 1_555 1_555
H57 C50 1_555 1_555
H58 C50 1_555 1_555
C51 C1 1_555 1_555
H59 C51 1_555 1_555
H60 C51 1_555 1_555
O1B C34B 1_555 1_555
O2B C31B 1_555 1_555
O3B C27B 1_555 1_555
O4B C24B 1_555 1_555
O5B C20B 1_555 1_555
O6B C17B 1_555 1_555
O7B C9B 1_555 1_555
O8B C12B 1_555 1_555
O9B C5B 1_555 1_555
O10B C49B 1_555 1_555
O11B C2B 1_555 1_555
O12B C36B 1_555 1_555
O13B C38B 1_555 1_555
C1B C2B 1_555 1_555
C2B C3B 1_555 1_555
C3B H1B 1_555 1_555
C4B C3B 1_555 1_555
C5B C4B 1_555 1_555
C6B C1B 1_555 1_555
H2B C6B 1_555 1_555
C7B C4B 1_555 1_555
H3B C7B 1_555 1_555
H4B C7B 1_555 1_555
C8B C7B 1_555 1_555
C9B C8B 1_555 1_555
C10B C9B 1_555 1_555
H5B C10B 1_555 1_555
C11B C10B 1_555 1_555
C12B C11B 1_555 1_555
C13B C8B 1_555 1_555
H6B C13B 1_555 1_555
C14B C11B 1_555 1_555
H7B C14B 1_555 1_555
H8B C14B 1_555 1_555
C15B C14B 1_555 1_555
C16B C15B 1_555 1_555
H9B C16B 1_555 1_555
C17B C16B 1_555 1_555
C18B C17B 1_555 1_555
C19B C18B 1_555 1_555
H10B C19B 1_555 1_555
C20B C15B 1_555 1_555
C21B C18B 1_555 1_555
H11B C21B 1_555 1_555
H12B C21B 1_555 1_555
C22B C21B 1_555 1_555
C23B C22B 1_555 1_555
H13B C23B 1_555 1_555
C24B C23B 1_555 1_555
C25B C24B 1_555 1_555
C26B C25B 1_555 1_555
H14B C26B 1_555 1_555
C27B C22B 1_555 1_555
C28B C25B 1_555 1_555
H15B C28B 1_555 1_555
H16B C28B 1_555 1_555
C29B C28B 1_555 1_555
C30B C29B 1_555 1_555
H17B C30B 1_555 1_555
C31B C30B 1_555 1_555
C32B C31B 1_555 1_555
C33B C32B 1_555 1_555
H18B C33B 1_555 1_555
C34B C29B 1_555 1_555
C35B O11B 1_555 1_555
H19B C35B 1_555 1_555
H20B C35B 1_555 1_555
C36B C35B 1_555 1_555
H21B C36B 1_555 1_555
H22B C36B 1_555 1_555
C37B O12B 1_555 1_555
H23B C37B 1_555 1_555
H24B C37B 1_555 1_555
C38B C37B 1_555 1_555
H25B C38B 1_555 1_555
H26B C38B 1_555 1_555
C39B C50 1_555 1_555
H27B C39B 1_555 1_555
H28B C39B 1_555 1_555
C40B O1B 1_555 1_555
H29B C40B 1_555 1_555
H30B C40B 1_555 1_555
H31B C40B 1_555 1_555
C41B O2B 1_555 1_555
H32B C41B 1_555 1_555
H33B C41B 1_555 1_555
H34B C41B 1_555 1_555
C42B O3B 1_555 1_555
H35B C42B 1_555 1_555
H36B C42B 1_555 1_555
H37B C42B 1_555 1_555
C43B O4B 1_555 1_555
H38B C43B 1_555 1_555
H39B C43B 1_555 1_555
H40B C43B 1_555 1_555
C44B O5B 1_555 1_555
H41B C44B 1_555 1_555
H42B C44B 1_555 1_555
H43B C44B 1_555 1_555
C45B O6B 1_555 1_555
H44B C45B 1_555 1_555
H45B C45B 1_555 1_555
H46B C45B 1_555 1_555
C46B O7B 1_555 1_555
H47B C46B 1_555 1_555
H48B C46B 1_555 1_555
H49B C46B 1_555 1_555
C47B O8B 1_555 1_555
H50B C47B 1_555 1_555
H51B C47B 1_555 1_555
H52B C47B 1_555 1_555
C48B O9B 1_555 1_555
H53B C48B 1_555 1_555
H54B C48B 1_555 1_555
C49B C48B 1_555 1_555
H55B C49B 1_555 1_555
H56B C49B 1_555 1_555
C50B C39 1_555 1_555
H57B C50B 1_555 1_555
H58B C50B 1_555 1_555
C51B C1B 1_555 1_555
H59B C51B 1_555 1_555
H60B C51B 1_555 1_555
C5 C6 1_555 1_555
C12 C13 1_555 1_555
C19 C20 1_555 1_555
C26 C27 1_555 1_555
C32 C51 1_555 1_555
C33 C34 1_555 1_555
O10B C50B 1_555 1_555
O13B C39B 1_555 1_555
C5B C6B 1_555 1_555
C12B C13B 1_555 1_555
C19B C20B 1_555 1_555
C26B C27B 1_555 1_555
C32B C51B 1_555 1_555
C33B C34B 1_555 1_555

#END
