
#######################################################################
#
#                 Cambridge Crystallographic Data Centre
#                                CCDC 
#
#######################################################################
#
# If this CIF has been generated from an entry in the Cambridge 
# Structural Database, then it will include bibliographic, chemical, 
# crystal, experimental, refinement or atomic coordinate data resulting 
# from the CCDC's data processing and validation procedures.
#
#######################################################################

data_SULLUG
_chemical_formula_moiety         'C68 H52 N4 O10,2(C1 D2 Cl2)'
_chemical_name_systematic        
"\a,\b:\g,\f-(2,2'-(Ethane-1,2-bis((oxy-m-phenyl) dioxolane))-4,5:4',5'-tetrakis(methyleneoxy-m-phenyl))porphyrin dideutero-dichloromethane solvate"
_symmetry_cell_setting           tetragonal
_symmetry_space_group_name_H-M   'I 41'
_symmetry_Int_Tables_number      80
_space_group_name_Hall           'I 4bw'
loop_
_symmetry_equiv_pos_site_id
_symmetry_equiv_pos_as_xyz
1 x,y,z
2 1/2+x,1/2+y,1/2+z
3 -y,1/2+x,1/4+z
4 1/2-y,x,3/4+z
5 -x,-y,z
6 1/2-x,1/2-y,1/2+z
7 y,1/2-x,1/4+z
8 1/2+y,-x,3/4+z
_cell_length_a                   18.925(5)
_cell_length_b                   18.925(5)
_cell_length_c                   16.974(10)
_cell_angle_alpha                90
_cell_angle_beta                 90
_cell_angle_gamma                90
_cell_volume                     6079.33
_cell_formula_units_Z            4
loop_
_atom_site_label
_atom_site_type_symbol
_atom_site_fract_x
_atom_site_fract_y
_atom_site_fract_z
C1 C 0.15698(18) -0.98773(17) 0.00051(25)
C2 C 0.22007(19) -1.02810(18) -0.02407(25)
C3 C 0.20004(18) -1.09646(18) -0.02409(24)
C4 C 0.12704(17) -1.09826(17) 0.00092(24)
C5 C 0.08755(18) -1.16070(17) 0.01305(24)
C6 C 0.01475(18) -1.16187(18) 0.02718(24)
C7 C -0.02751(18) -1.22136(17) 0.04718(25)
C8 C -0.09645(19) -1.20049(18) 0.04728(24)
C9 C -0.09870(19) -1.12663(18) 0.02708(24)
C10 C 0.15878(17) -0.91381(17) 0.01170(25)
C11 C 0.12655(19) -1.22921(18) 0.01259(25)
C12 C 0.10694(20) -1.28719(18) -0.03377(26)
C13 C 0.14569(25) -1.35037(20) -0.02969(29)
C14 C 0.20459(24) -1.35549(21) 0.01881(31)
C15 C 0.22562(22) -1.29787(21) 0.06270(29)
C16 C 0.18687(21) -1.23600(20) 0.06012(27)
C17 C 0.01259(22) -1.33831(18) -0.10863(27)
C18 C -0.04030(20) -1.31824(17) -0.17109(26)
C19 C 0.22643(17) -0.87466(17) 0.00254(26)
C20 C 0.23079(17) -0.81834(17) -0.05116(26)
C21 C 0.29028(20) -0.77677(19) -0.05668(27)
C22 C 0.34991(20) -0.79476(21) -0.01231(29)
C23 C 0.34871(20) -0.85278(20) 0.03722(28)
C24 C 0.28742(20) -0.89184(19) 0.04539(26)
C25 C -0.15269(20) -1.25717(18) -0.12619(25)
C26 C -0.07976(19) -1.24776(18) -0.16097(25)
C27 C -0.05402(19) -1.27096(18) -0.29075(26)
C28 C -0.01868(17) -1.23919(19) -0.36161(25)
C29 C -0.02967(18) -1.16919(19) -0.38024(26)
C30 C -0.00012(19) -1.13994(19) -0.44865(26)
C31 C 0.04159(21) -1.18209(21) -0.49817(28)
C32 C 0.05216(24) -1.25282(24) -0.47736(31)
C33 C 0.02200(22) -1.28127(21) -0.41058(29)
C34 C 0.01275(19) -1.03772(20) -0.52984(26)
N1 N 0.10207(15) -1.03107(14) 0.01391(22)
N2 N -0.02995(14) -1.10555(14) 0.01949(21)
O1 O 0.05277(13) -1.27748(12) -0.08684(20)
O2 O 0.17455(13) -0.81201(12) -0.10177(20)
O3 O -0.00495(13) -1.30966(13) -0.24517(20)
O4 O -0.08254(15) -1.21915(13) -0.23972(21)
O5 O -0.01539(14) -1.07063(14) -0.46134(21)
H1 H 0.055 -1.018 0.029
H2 H -0.015 -1.058 0.012
H3 H 0.265 -1.010 -0.037
H4 H 0.229 -1.136 -0.037
H5 H -0.011 -1.268 0.059
H6 H -0.136 -1.230 0.059
H7 H 0.131 -1.390 -0.060
H8 H 0.229 -1.399 0.024
H9 H 0.269 -1.300 0.094
H10 H 0.202 -1.197 0.092
H11 H 0.291 -0.737 -0.090
H12 H 0.392 -0.766 -0.016
H13 H 0.391 -0.866 0.066
H14 H 0.286 -0.932 0.081
H15 H -0.010 -1.357 -0.064
H16 H 0.045 -1.373 -0.129
H17 H -0.184 -1.277 -0.164
H18 H -0.150 -1.289 -0.081
H19 H -0.074 -1.355 -0.176
H20 H -0.053 -1.217 -0.128
H21 H -0.091 -1.302 -0.308
H22 H -0.059 -1.140 -0.346
H23 H 0.063 -1.163 -0.545
H24 H 0.082 -1.281 -0.510
H25 H 0.029 -1.330 -0.398
H26 H 0.064 -1.040 -0.528
H27 H -0.002 -1.063 -0.576
C10D C -0.15878(17) -1.08619(17) 0.01170(25)
C9D C 0.09870(19) -0.87337(18) 0.02708(24)
O2D O -0.17455(13) -1.18799(12) -0.10177(20)
C25D C 0.15269(20) -0.74283(18) -0.12619(25)
C34D C -0.01275(19) -0.96228(20) -0.52984(26)
C1D C -0.15698(18) -1.01227(17) 0.00051(25)
C19D C -0.22643(17) -1.12534(17) 0.00254(26)
C8D C 0.09645(19) -0.79951(18) 0.04728(24)
N2D N 0.02995(14) -0.89445(14) 0.01949(21)
C20D C -0.23079(17) -1.18166(17) -0.05116(26)
C26D C 0.07976(19) -0.75224(18) -0.16097(25)
H17D H 0.184 -0.723 -0.164
H18D H 0.150 -0.711 -0.081
O5D O 0.01539(14) -0.92937(14) -0.46134(21)
H26D H -0.064 -0.960 -0.528
H27D H 0.002 -0.937 -0.576
C2D C -0.22007(19) -0.97190(18) -0.02407(25)
N1D N -0.10207(15) -0.96893(14) 0.01391(22)
C24D C -0.28742(20) -1.10816(19) 0.04539(26)
C7D C 0.02751(18) -0.77864(17) 0.04718(25)
H6D H 0.136 -0.770 0.059
C6D C -0.01475(18) -0.83813(18) 0.02718(24)
H2D H 0.015 -0.942 0.012
C21D C -0.29028(20) -1.22323(19) -0.05668(27)
C18D C 0.04030(20) -0.68176(17) -0.17109(26)
O4D O 0.08254(15) -0.78085(13) -0.23972(21)
H20D H 0.053 -0.783 -0.128
C30D C 0.00012(19) -0.86006(19) -0.44865(26)
C3D C -0.20004(18) -0.90354(18) -0.02409(24)
H3D H -0.265 -0.990 -0.037
C4D C -0.12704(17) -0.90174(17) 0.00092(24)
H1D H -0.055 -0.982 0.029
C23D C -0.34871(20) -1.14722(20) 0.03722(28)
H14D H -0.286 -1.068 0.081
H5D H 0.011 -0.732 0.059
C5D C -0.08755(18) -0.83930(17) 0.01305(24)
C22D C -0.34991(20) -1.20524(21) -0.01231(29)
H11D H -0.291 -1.263 -0.090
C17D C -0.01259(22) -0.66169(18) -0.10863(27)
O3D O 0.00495(13) -0.69034(13) -0.24517(20)
H19D H 0.074 -0.645 -0.176
C27D C 0.05402(19) -0.72904(18) -0.29075(26)
C29D C 0.02967(18) -0.83081(19) -0.38024(26)
C31D C -0.04159(21) -0.81791(21) -0.49817(28)
H4D H -0.229 -0.864 -0.037
H13D H -0.391 -1.134 0.066
C11D C -0.12655(19) -0.77079(18) 0.01259(25)
H12D H -0.392 -1.234 -0.016
O1D O -0.05277(13) -0.72252(12) -0.08684(20)
H15D H 0.010 -0.643 -0.064
H16D H -0.045 -0.627 -0.129
C28D C 0.01868(17) -0.76081(19) -0.36161(25)
H21D H 0.091 -0.698 -0.308
H22D H 0.059 -0.860 -0.346
C32D C -0.05216(24) -0.74718(24) -0.47736(31)
H23D H -0.063 -0.837 -0.545
C12D C -0.10694(20) -0.71281(18) -0.03377(26)
C16D C -0.18687(21) -0.76400(20) 0.06012(27)
C33D C -0.02200(22) -0.71873(21) -0.41058(29)
H24D H -0.082 -0.719 -0.510
C13D C -0.14569(25) -0.64963(20) -0.02969(29)
C15D C -0.22562(22) -0.70213(21) 0.06270(29)
H10D H -0.202 -0.803 0.092
H25D H -0.029 -0.670 -0.398
C14D C -0.20459(24) -0.64451(21) 0.01881(31)
H7D H -0.131 -0.610 -0.060
H9D H -0.269 -0.700 0.094
H8D H -0.229 -0.601 0.024
Cl2 Cl 0.43158(10) -0.03561(10) -0.00883(16)
C36 C 0.50000 0.00000 -0.06660(65)
D1 D 0.480 0.038 -0.101
Cl2D Cl 0.56842(10) 0.03561(10) -0.00883(16)
D1D D 0.520 -0.038 -0.101
Cl1? Cl 0.05517(10) -0.55324(12) 0.06695
C35? C 0.96976(65) 0.47454(67) 0.07486(83)
H28? H 0.954 0.458 0.126
H29? H 0.943 0.448 0.035
loop_
_geom_bond_atom_site_label_1
_geom_bond_atom_site_label_2
_geom_bond_site_symmetry_1
_geom_bond_site_symmetry_2
Cl2 C36 1_555 1_555
C1 C2 1_555 1_555
C2 C3 1_555 1_555
C3 C4 1_555 1_555
C4 C5 1_555 1_555
C5 C6 1_555 1_555
C6 C7 1_555 1_555
C7 C8 1_555 1_555
C8 C9 1_555 1_555
C9 N2 1_555 1_555
C10 C1 1_555 1_555
C11 C5 1_555 1_555
C12 C11 1_555 1_555
C13 C12 1_555 1_555
C14 C13 1_555 1_555
C15 C14 1_555 1_555
C16 C11 1_555 1_555
C17 C18 1_555 1_555
C18 C26 1_555 1_555
C19 C10 1_555 1_555
C20 C19 1_555 1_555
C21 C20 1_555 1_555
C22 C21 1_555 1_555
C23 C22 1_555 1_555
C24 C19 1_555 1_555
C25 C26 1_555 1_555
C26 O4 1_555 1_555
C27 C28 1_555 1_555
C28 C29 1_555 1_555
C29 C30 1_555 1_555
C30 C31 1_555 1_555
C31 C32 1_555 1_555
C32 C33 1_555 1_555
C33 C28 1_555 1_555
C34 O5 1_555 1_555
N1 C1 1_555 1_555
N2 C6 1_555 1_555
O1 C12 1_555 1_555
O2 C20 1_555 1_555
O3 C18 1_555 1_555
O4 C27 1_555 1_555
O5 C30 1_555 1_555
C36 D1 1_555 1_555
H1 N1 1_555 1_555
H2 N2 1_555 1_555
H3 C2 1_555 1_555
H4 C3 1_555 1_555
H5 C7 1_555 1_555
H6 C8 1_555 1_555
H7 C13 1_555 1_555
H8 C14 1_555 1_555
H9 C15 1_555 1_555
H10 C16 1_555 1_555
H11 C21 1_555 1_555
H12 C22 1_555 1_555
H13 C23 1_555 1_555
H14 C24 1_555 1_555
H15 C17 1_555 1_555
H16 C17 1_555 1_555
H17 C25 1_555 1_555
H18 C25 1_555 1_555
H19 C18 1_555 1_555
H20 C26 1_555 1_555
H21 C27 1_555 1_555
H22 C29 1_555 1_555
H23 C31 1_555 1_555
H24 C32 1_555 1_555
H25 C33 1_555 1_555
H26 C34 1_555 1_555
H27 C34 1_555 1_555
Cl2D C36 1_555 1_555
D1D C36 1_555 1_555
C10D C9 1_555 1_555
C9D C10 1_555 1_555
O2D C25 1_555 1_555
C25D O2 1_555 1_555
C34D C34 1_555 1_555
C1D C10D 1_555 1_555
C19D C10D 1_555 1_555
C8D C9D 1_555 1_555
N2D C9D 1_555 1_555
C20D O2D 1_555 1_555
C26D C25D 1_555 1_555
H17D C25D 1_555 1_555
H18D C25D 1_555 1_555
O5D C34D 1_555 1_555
H26D C34D 1_555 1_555
H27D C34D 1_555 1_555
C2D C1D 1_555 1_555
N1D C1D 1_555 1_555
C24D C19D 1_555 1_555
C7D C8D 1_555 1_555
H6D C8D 1_555 1_555
C6D N2D 1_555 1_555
H2D N2D 1_555 1_555
C21D C20D 1_555 1_555
C18D C26D 1_555 1_555
O4D C26D 1_555 1_555
H20D C26D 1_555 1_555
C30D O5D 1_555 1_555
C3D C2D 1_555 1_555
H3D C2D 1_555 1_555
C4D N1D 1_555 1_555
H1D N1D 1_555 1_555
C23D C24D 1_555 1_555
H14D C24D 1_555 1_555
H5D C7D 1_555 1_555
C5D C6D 1_555 1_555
C22D C21D 1_555 1_555
H11D C21D 1_555 1_555
C17D C18D 1_555 1_555
O3D C18D 1_555 1_555
H19D C18D 1_555 1_555
C27D O4D 1_555 1_555
C29D C30D 1_555 1_555
C31D C30D 1_555 1_555
H4D C3D 1_555 1_555
H13D C23D 1_555 1_555
C11D C5D 1_555 1_555
H12D C22D 1_555 1_555
O1D C17D 1_555 1_555
H15D C17D 1_555 1_555
H16D C17D 1_555 1_555
C28D C27D 1_555 1_555
H21D C27D 1_555 1_555
H22D C29D 1_555 1_555
C32D C31D 1_555 1_555
H23D C31D 1_555 1_555
C12D C11D 1_555 1_555
C16D C11D 1_555 1_555
C33D C28D 1_555 1_555
H24D C32D 1_555 1_555
C13D C12D 1_555 1_555
C15D C16D 1_555 1_555
H10D C16D 1_555 1_555
H25D C33D 1_555 1_555
C14D C13D 1_555 1_555
H7D C13D 1_555 1_555
H9D C15D 1_555 1_555
H8D C14D 1_555 1_555
C4 N1 1_555 1_555
C15 C16 1_555 1_555
C17 O1 1_555 1_555
C23 C24 1_555 1_555
C27 O3 1_555 1_555
C19D C20D 1_555 1_555
C7D C6D 1_555 1_555
C3D C4D 1_555 1_555
C4D C5D 1_555 1_555
C23D C22D 1_555 1_555
O3D C27D 1_555 1_555
C29D C28D 1_555 1_555
O1D C12D 1_555 1_555
C32D C33D 1_555 1_555
C15D C14D 1_555 1_555

#END
