
#######################################################################
#
#                 Cambridge Crystallographic Data Centre
#                                CCDC 
#
#######################################################################
#
# If this CIF has been generated from an entry in the Cambridge 
# Structural Database, then it will include bibliographic, chemical, 
# crystal, experimental, refinement or atomic coordinate data resulting 
# from the CCDC's data processing and validation procedures.
#
#######################################################################

data_SULMIX
_chemical_formula_moiety         'C19 H16 N2 O1 S1'
_chemical_name_systematic        
(R)-1-Methyl-3-(phenylsulfanyl)-3-(1H-pyrrol-1-yl)-1,3-dihydro-2H-indol-2-one
_symmetry_cell_setting           monoclinic
_symmetry_space_group_name_H-M   'P 21'
_symmetry_Int_Tables_number      4
_space_group_name_Hall           'P 2yb'
loop_
_symmetry_equiv_pos_site_id
_symmetry_equiv_pos_as_xyz
1 x,y,z
2 -x,1/2+y,-z
_cell_length_a                   8.9434(3)
_cell_length_b                   14.4008(4)
_cell_length_c                   12.7837(4)
_cell_angle_alpha                90
_cell_angle_beta                 93.624(2)
_cell_angle_gamma                90
_cell_volume                     1643.15
_exptl_crystal_description       block
_chemical_melting_point          '100.9-102.3 deg.C'
_cell_formula_units_Z            4
loop_
_atom_site_label
_atom_site_type_symbol
_atom_site_fract_x
_atom_site_fract_y
_atom_site_fract_z
S1 S 0.95834(8) 0.82660(5) 0.94816(5)
O1 O 0.6273(3) 0.89740(16) 0.90021(16)
N1 N 0.5968(2) 0.74022(17) 0.92133(17)
C1 C 0.7724(3) 0.70852(17) 1.05518(19)
N2 N 0.7864(2) 0.87405(14) 1.11108(16)
C2 C 1.1057(3) 0.77945(17) 1.0311(2)
C3 C 0.7007(3) 0.8620(2) 1.1958(2)
H1 H 0.6547 0.8071 1.2146
C4 C 0.6593(3) 0.67144(19) 0.9883(2)
C5 C 0.6621(3) 0.8236(2) 0.94072(18)
C6 C 0.8449(4) 0.6544(2) 1.1315(2)
H2 H 0.9191 0.6795 1.1773
C7 C 1.1850(3) 0.8342(2) 1.1039(2)
H3 H 1.1596 0.8964 1.1113
C8 C 1.1474(3) 0.6881(2) 1.0208(2)
H4 H 1.0957 0.6508 0.9715
C9 C 1.3414(4) 0.7055(3) 1.1550(3)
H5 H 1.4201 0.6807 1.1971
C10 C 0.7924(3) 0.80879(16) 1.02515(19)
C11 C 0.7785(4) 1.0085(2) 1.1933(3)
H6 H 0.7943 1.0703 1.2120
C12 C 0.8323(4) 0.96487(19) 1.1093(2)
H7 H 0.8901 0.9918 1.0595
C13 C 1.2647(4) 0.6512(2) 1.0824(3)
H8 H 1.2916 0.5893 1.0746
C14 C 1.3016(4) 0.7969(3) 1.1655(3)
H9 H 1.3540 0.8340 1.2148
C15 C 0.4726(4) 0.7264(3) 0.8433(3)
H10 H 0.5029 0.6848 0.7900
H11 H 0.4444 0.7850 0.8122
H12 H 0.3888 0.7005 0.8765
C16 C 0.6176(4) 0.5788(2) 0.9948(3)
H13 H 0.5422 0.5537 0.9499
C17 C 0.6952(4) 0.9440(3) 1.2467(2)
H14 H 0.6448 0.9554 1.3069
C18 C 0.6934(5) 0.5252(2) 1.0712(3)
H15 H 0.6684 0.4628 1.0771
C19 C 0.8046(4) 0.5616(2) 1.1385(3)
H16 H 0.8529 0.5239 1.1890
S2 S 0.54023(8) 0.75604(6) 0.44314(5)
O2 O 0.8524(3) 0.67293(16) 0.39371(17)
N3 N 0.7231(2) 0.68347(15) 0.60376(17)
N4 N 0.9072(2) 0.82523(18) 0.43416(15)
C20 C 0.7171(3) 0.75746(19) 0.52662(18)
C21 C 0.4021(3) 0.78555(19) 0.5311(2)
C22 C 0.7554(3) 0.85193(17) 0.56887(19)
C23 C 0.8631(3) 0.8905(2) 0.5079(2)
C24 C 0.9175(4) 0.9788(2) 0.5249(3)
H17 H 0.9874 1.0045 0.4825
C25 C 0.8030(3) 0.6862(2) 0.6986(2)
H18 H 0.8505 0.7381 0.7286
C26 C 1.0266(3) 0.8394(3) 0.3634(2)
H19 H 0.9973 0.8867 0.3133
H20 H 1.0448 0.7825 0.3272
H21 H 1.1163 0.8583 0.4029
C27 C 0.7054(3) 0.9012(2) 0.6526(2)
H22 H 0.6360 0.8755 0.6955
C28 C 0.3774(3) 0.8773(2) 0.5565(3)
H23 H 0.4367 0.9236 0.5299
C29 C 0.1971(4) 0.7426(3) 0.6328(3)
H24 H 0.1348 0.6972 0.6581
C30 C 0.2656(4) 0.9008(3) 0.6210(3)
H25 H 0.2513 0.9626 0.6390
C31 C 0.7615(5) 0.9900(2) 0.6711(3)
H26 H 0.7293 1.0244 0.7270
C32 C 0.8340(3) 0.7440(2) 0.44270(19)
C33 C 0.8639(4) 1.0276(2) 0.6076(3)
H27 H 0.8982 1.0877 0.6208
C34 C 0.6720(4) 0.5951(2) 0.5871(3)
H28 H 0.6160 0.5743 0.5279
C35 C 0.7167(5) 0.5431(2) 0.6713(4)
H29 H 0.6954 0.4806 0.6810
C36 C 0.3115(3) 0.7173(2) 0.5689(3)
H30 H 0.3264 0.6554 0.5520
C37 C 0.1762(4) 0.8338(4) 0.6584(3)
H31 H 0.1004 0.8499 0.7015
C38 C 0.8009(4) 0.6001(3) 0.7412(3)
H32 H 0.8470 0.5822 0.8053
loop_
_geom_bond_atom_site_label_1
_geom_bond_atom_site_label_2
_geom_bond_site_symmetry_1
_geom_bond_site_symmetry_2
S1 C2 1_555 1_555
O1 C5 1_555 1_555
N1 C4 1_555 1_555
C1 C4 1_555 1_555
N2 C3 1_555 1_555
C2 C7 1_555 1_555
C3 H1 1_555 1_555
C4 C16 1_555 1_555
C5 N1 1_555 1_555
C6 C1 1_555 1_555
H2 C6 1_555 1_555
C7 H3 1_555 1_555
C8 C2 1_555 1_555
H4 C8 1_555 1_555
C9 H5 1_555 1_555
C10 S1 1_555 1_555
C11 H6 1_555 1_555
C12 N2 1_555 1_555
H7 C12 1_555 1_555
C13 C8 1_555 1_555
H8 C13 1_555 1_555
C14 C7 1_555 1_555
H9 C14 1_555 1_555
C15 N1 1_555 1_555
H10 C15 1_555 1_555
H11 C15 1_555 1_555
H12 C15 1_555 1_555
C16 H13 1_555 1_555
C17 C3 1_555 1_555
H14 C17 1_555 1_555
C18 C16 1_555 1_555
H15 C18 1_555 1_555
C19 C6 1_555 1_555
H16 C19 1_555 1_555
S2 C20 1_555 1_555
O2 C32 1_555 1_555
N3 C20 1_555 1_555
N4 C23 1_555 1_555
C20 C22 1_555 1_555
C21 S2 1_555 1_555
C22 C23 1_555 1_555
C23 C24 1_555 1_555
C24 H17 1_555 1_555
C25 N3 1_555 1_555
H18 C25 1_555 1_555
C26 N4 1_555 1_555
H19 C26 1_555 1_555
H20 C26 1_555 1_555
H21 C26 1_555 1_555
C27 C22 1_555 1_555
H22 C27 1_555 1_555
C28 C21 1_555 1_555
H23 C28 1_555 1_555
C29 H24 1_555 1_555
C30 C28 1_555 1_555
H25 C30 1_555 1_555
C31 C27 1_555 1_555
H26 C31 1_555 1_555
C32 N4 1_555 1_555
C33 C24 1_555 1_555
H27 C33 1_555 1_555
C34 N3 1_555 1_555
H28 C34 1_555 1_555
C35 C34 1_555 1_555
H29 C35 1_555 1_555
C36 C21 1_555 1_555
H30 C36 1_555 1_555
C37 C29 1_555 1_555
H31 C37 1_555 1_555
C38 C25 1_555 1_555
H32 C38 1_555 1_555
C1 C10 1_555 1_555
N2 C10 1_555 1_555
C5 C10 1_555 1_555
C9 C13 1_555 1_555
C9 C14 1_555 1_555
C11 C12 1_555 1_555
C11 C17 1_555 1_555
C18 C19 1_555 1_555
C20 C32 1_555 1_555
C29 C36 1_555 1_555
C30 C37 1_555 1_555
C31 C33 1_555 1_555
C35 C38 1_555 1_555

#END
