
#######################################################################
#
#                 Cambridge Crystallographic Data Centre
#                                CCDC 
#
#######################################################################
#
# If this CIF has been generated from an entry in the Cambridge 
# Structural Database, then it will include bibliographic, chemical, 
# crystal, experimental, refinement or atomic coordinate data resulting 
# from the CCDC's data processing and validation procedures.
#
#######################################################################

data_SULPEW
_chemical_formula_moiety         'C28 H20 N2'
_chemical_name_systematic        
3-Methyl-5,6-diphenylnaphtho[1',2':4,5]imidazo[1,2-a]pyridine
_symmetry_cell_setting           monoclinic
_symmetry_space_group_name_H-M   'P 21/c'
_symmetry_Int_Tables_number      14
_space_group_name_Hall           '-P 2ybc'
loop_
_symmetry_equiv_pos_site_id
_symmetry_equiv_pos_as_xyz
1 x,y,z
2 -x,1/2+y,1/2-z
3 -x,-y,-z
4 x,1/2-y,1/2+z
_cell_length_a                   10.5565(16)
_cell_length_b                   9.6319(15)
_cell_length_c                   20.534(3)
_cell_angle_alpha                90
_cell_angle_beta                 100.558(3)
_cell_angle_gamma                90
_cell_volume                     2052.53
_exptl_crystal_colour            yellow
_exptl_crystal_description       block
_cell_formula_units_Z            4
loop_
_atom_site_label
_atom_site_type_symbol
_atom_site_fract_x
_atom_site_fract_y
_atom_site_fract_z
C1 C 0.4218(2) 0.6618(3) 0.17602(12)
H1 H 0.4355 0.6202 0.2176
C2 C 0.4680(2) 0.7950(3) 0.17029(12)
H2 H 0.5123 0.8411 0.2073
C3 C 0.4471(2) 0.8597(3) 0.10782(13)
C4 C 0.3844(2) 0.7873(3) 0.05443(11)
H3 H 0.3720 0.8296 0.0130
C5 C 0.3374(2) 0.6505(3) 0.05919(11)
C6 C 0.3560(2) 0.5880(3) 0.12238(11)
C7 C 0.3087(2) 0.4521(3) 0.12610(10)
C8 C 0.2496(2) 0.3811(3) 0.06975(11)
C9 C 0.2313(2) 0.4404(3) 0.00514(10)
C10 C 0.2741(2) 0.5744(3) 0.00097(10)
C11 C 0.2606(3) 0.2540(3) 0.16162(12)
C12 C 0.2428(3) 0.1325(3) 0.19587(14)
H4 H 0.2698 0.1292 0.2416
C13 C 0.1867(3) 0.0195(3) 0.16361(16)
H5 H 0.1768 -0.0609 0.1872
C14 C 0.1439(3) 0.0227(3) 0.09532(14)
H6 H 0.1038 -0.0549 0.0738
C15 C 0.1602(2) 0.1392(3) 0.05955(13)
H7 H 0.1323 0.1410 0.0139
C16 C 0.4954(3) 1.0027(3) 0.10174(15)
H8 H 0.5858 0.9997 0.1003
H9 H 0.4821 1.0568 0.1392
H10 H 0.4497 1.0444 0.0618
C17 C 0.2611(2) 0.6421(2) -0.06516(10)
C18 C 0.1634(3) 0.7346(3) -0.08726(12)
H11 H 0.1034 0.7549 -0.0606
C19 C 0.1530(3) 0.7975(3) -0.14826(14)
H12 H 0.0864 0.8599 -0.1625
C20 C 0.2401(3) 0.7685(3) -0.18769(13)
H13 H 0.2331 0.8109 -0.2289
C21 C 0.3374(3) 0.6777(3) -0.16683(12)
H14 H 0.3966 0.6579 -0.1939
C22 C 0.3488(2) 0.6148(3) -0.10579(11)
H15 H 0.4163 0.5533 -0.0918
C23 C 0.1700(2) 0.3642(2) -0.05574(10)
C24 C 0.2407(2) 0.2729(3) -0.08689(12)
H16 H 0.3259 0.2541 -0.0680
C25 C 0.1867(3) 0.2094(3) -0.14548(13)
H17 H 0.2358 0.1491 -0.1660
C26 C 0.0619(3) 0.2345(3) -0.17343(13)
H18 H 0.0256 0.1918 -0.2131
C27 C -0.0098(3) 0.3233(3) -0.14278(14)
H19 H -0.0953 0.3404 -0.1617
C28 C 0.0434(2) 0.3870(3) -0.08451(12)
H20 H -0.0068 0.4465 -0.0641
N1 N 0.21779(19) 0.2524(2) 0.09189(10)
N2 N 0.3147(2) 0.3723(2) 0.18270(9)
loop_
_geom_bond_atom_site_label_1
_geom_bond_atom_site_label_2
_geom_bond_site_symmetry_1
_geom_bond_site_symmetry_2
C1 H1 1_555 1_555
C2 C1 1_555 1_555
H2 C2 1_555 1_555
C3 C2 1_555 1_555
C4 C3 1_555 1_555
H3 C4 1_555 1_555
C5 C4 1_555 1_555
C6 C1 1_555 1_555
C7 C6 1_555 1_555
C8 C7 1_555 1_555
C9 C8 1_555 1_555
C10 C5 1_555 1_555
C11 C12 1_555 1_555
C12 H4 1_555 1_555
C13 C12 1_555 1_555
H5 C13 1_555 1_555
C14 C13 1_555 1_555
H6 C14 1_555 1_555
C15 C14 1_555 1_555
H7 C15 1_555 1_555
C16 C3 1_555 1_555
H8 C16 1_555 1_555
H9 C16 1_555 1_555
H10 C16 1_555 1_555
C17 C10 1_555 1_555
C18 C17 1_555 1_555
H11 C18 1_555 1_555
C19 C18 1_555 1_555
H12 C19 1_555 1_555
C20 C19 1_555 1_555
H13 C20 1_555 1_555
C21 C20 1_555 1_555
H14 C21 1_555 1_555
C22 C17 1_555 1_555
H15 C22 1_555 1_555
C23 C9 1_555 1_555
C24 C23 1_555 1_555
H16 C24 1_555 1_555
C25 C24 1_555 1_555
H17 C25 1_555 1_555
C26 C25 1_555 1_555
H18 C26 1_555 1_555
C27 C26 1_555 1_555
H19 C27 1_555 1_555
C28 C23 1_555 1_555
H20 C28 1_555 1_555
N1 C8 1_555 1_555
N2 C7 1_555 1_555
C5 C6 1_555 1_555
C9 C10 1_555 1_555
C11 N1 1_555 1_555
C11 N2 1_555 1_555
C15 N1 1_555 1_555
C21 C22 1_555 1_555
C27 C28 1_555 1_555

#END
