
#######################################################################
#
#                 Cambridge Crystallographic Data Centre
#                                CCDC 
#
#######################################################################
#
# If this CIF has been generated from an entry in the Cambridge 
# Structural Database, then it will include bibliographic, chemical, 
# crystal, experimental, refinement or atomic coordinate data resulting 
# from the CCDC's data processing and validation procedures.
#
#######################################################################

data_SULQUM
_chemical_formula_moiety         'C26 H26 O2 S2'
_chemical_name_systematic        
1,4-Dimethoxy-2,5-bis(2-(4-(methylsulfanyl)phenyl)vinyl)benzene
_symmetry_cell_setting           monoclinic
_symmetry_space_group_name_H-M   'P 21/c'
_symmetry_Int_Tables_number      14
_space_group_name_Hall           '-P 2ybc'
loop_
_symmetry_equiv_pos_site_id
_symmetry_equiv_pos_as_xyz
1 x,y,z
2 -x,1/2+y,1/2-z
3 -x,-y,-z
4 x,1/2-y,1/2+z
_cell_length_a                   8.1520(7)
_cell_length_b                   5.4181(4)
_cell_length_c                   26.137(2)
_cell_angle_alpha                90
_cell_angle_beta                 97.374(4)
_cell_angle_gamma                90
_cell_volume                     1144.88
_cell_formula_units_Z            2
loop_
_atom_site_label
_atom_site_type_symbol
_atom_site_fract_x
_atom_site_fract_y
_atom_site_fract_z
S1 S 0.41296(10) 0.89978(12) 0.36718(2)
C1 C 0.3182(3) 0.8771(4) 0.30253(7)
C2 C 0.1836(3) 0.8718(4) 0.19816(7)
C3 C 0.3577(3) 1.0606(4) 0.26922(8)
H1 H 0.4305 1.1857 0.2815
C4 C 0.2904(3) 1.0594(4) 0.21812(8)
H2 H 0.3165 1.1859 0.1965
C5 C 0.1456(3) 0.6903(4) 0.23214(8)
H3 H 0.0741 0.5636 0.2199
C6 C 0.2107(3) 0.6920(4) 0.28356(8)
H4 H 0.1821 0.5684 0.3055
C7 C 0.0616(3) 1.0122(5) 0.05307(8)
C8 C 0.1301(3) 1.0257(5) 0.10767(8)
H5 H 0.1925 1.1648 0.1180
C9 C 0.1124(3) 0.8607(5) 0.14370(8)
H6 H 0.0482 0.7230 0.1335
C10 C -0.0581(3) 0.8399(5) 0.03446(8)
H7 H -0.0984 0.7316 0.0575
O1 O 0.2359(2) 1.3416(4) 0.03744(6)
C11 C 0.1189(3) 1.1745(5) 0.01750(8)
C12 C 0.2874(3) 1.5228(6) 0.00507(10)
H8 H 0.3466 1.4469 -0.0202
H9 H 0.3584 1.6379 0.0251
H10 H 0.1926 1.6083 -0.0120
C13 C 0.3928(4) 0.5987(5) 0.39265(10)
H11 H 0.2779 0.5632 0.3938
H12 H 0.4516 0.5903 0.4269
H13 H 0.4379 0.4800 0.3710
S1B S -0.41296(10) 1.10022(12) -0.36718(2)
C1B C -0.3182(3) 1.1229(4) -0.30253(7)
C2B C -0.1836(3) 1.1282(4) -0.19816(7)
C3B C -0.3577(3) 0.9394(4) -0.26922(8)
H1B H -0.4305 0.8143 -0.2815
C4B C -0.2904(3) 0.9406(4) -0.21812(8)
H2B H -0.3165 0.8141 -0.1965
C5B C -0.1456(3) 1.3097(4) -0.23214(8)
H3B H -0.0741 1.4364 -0.2199
C6B C -0.2107(3) 1.3080(4) -0.28356(8)
H4B H -0.1821 1.4316 -0.3055
C7B C -0.0616(3) 0.9878(5) -0.05307(8)
C8B C -0.1301(3) 0.9743(5) -0.10767(8)
H5B H -0.1925 0.8352 -0.1180
C9B C -0.1124(3) 1.1393(5) -0.14370(8)
H6B H -0.0482 1.2770 -0.1335
C10B C 0.0581(3) 1.1601(5) -0.03446(8)
H7B H 0.0984 1.2684 -0.0575
O1B O -0.2359(2) 0.6584(4) -0.03744(6)
C11B C -0.1189(3) 0.8255(5) -0.01750(8)
C12B C -0.2874(3) 0.4772(6) -0.00507(10)
H8B H -0.3466 0.5531 0.0202
H9B H -0.3584 0.3621 -0.0251
H10B H -0.1926 0.3917 0.0120
C13B C -0.3928(4) 1.4013(5) -0.39265(10)
H11B H -0.2779 1.4368 -0.3938
H12B H -0.4516 1.4097 -0.4269
H13B H -0.4379 1.5200 -0.3710
loop_
_geom_bond_atom_site_label_1
_geom_bond_atom_site_label_2
_geom_bond_site_symmetry_1
_geom_bond_site_symmetry_2
S1 C1 1_555 1_555
C1 C3 1_555 1_555
C2 C4 1_555 1_555
C3 H1 1_555 1_555
C4 C3 1_555 1_555
H2 C4 1_555 1_555
C5 C2 1_555 1_555
H3 C5 1_555 1_555
C6 C1 1_555 1_555
H4 C6 1_555 1_555
C7 C8 1_555 1_555
C8 H5 1_555 1_555
C9 C2 1_555 1_555
H6 C9 1_555 1_555
C10 C7 1_555 1_555
H7 C10 1_555 1_555
O1 C11 1_555 1_555
C11 C7 1_555 1_555
C12 O1 1_555 1_555
H8 C12 1_555 1_555
H9 C12 1_555 1_555
H10 C12 1_555 1_555
C13 S1 1_555 1_555
H11 C13 1_555 1_555
H12 C13 1_555 1_555
H13 C13 1_555 1_555
S1B C1B 1_555 1_555
C1B C3B 1_555 1_555
C2B C4B 1_555 1_555
C3B H1B 1_555 1_555
C4B C3B 1_555 1_555
H2B C4B 1_555 1_555
C5B C2B 1_555 1_555
H3B C5B 1_555 1_555
C6B C1B 1_555 1_555
H4B C6B 1_555 1_555
C7B C8B 1_555 1_555
C8B H5B 1_555 1_555
C9B C2B 1_555 1_555
H6B C9B 1_555 1_555
C10B C11 1_555 1_555
H7B C10B 1_555 1_555
O1B C11B 1_555 1_555
C11B C10 1_555 1_555
C12B O1B 1_555 1_555
H8B C12B 1_555 1_555
H9B C12B 1_555 1_555
H10B C12B 1_555 1_555
C13B S1B 1_555 1_555
H11B C13B 1_555 1_555
H12B C13B 1_555 1_555
H13B C13B 1_555 1_555
C5 C6 1_555 1_555
C8 C9 1_555 1_555
C5B C6B 1_555 1_555
C7B C10B 1_555 1_555
C7B C11B 1_555 1_555
C8B C9B 1_555 1_555

#END
