
#######################################################################
#
#                 Cambridge Crystallographic Data Centre
#                                CCDC 
#
#######################################################################
#
# If this CIF has been generated from an entry in the Cambridge 
# Structural Database, then it will include bibliographic, chemical, 
# crystal, experimental, refinement or atomic coordinate data resulting 
# from the CCDC's data processing and validation procedures.
#
#######################################################################

data_SULRIC
_chemical_formula_moiety         'C22 H21 N1 O4'
_chemical_name_systematic        
"diethyl 2,2'-(5H-dibenzo[c,e]azepine-5,7(6H)-diylidene)diacetate"
_symmetry_cell_setting           monoclinic
_symmetry_space_group_name_H-M   'C 2/c'
_symmetry_Int_Tables_number      15
_space_group_name_Hall           '-C 2yn'
loop_
_symmetry_equiv_pos_site_id
_symmetry_equiv_pos_as_xyz
1 x,y,z
2 -x,y,1/2-z
3 1/2+x,1/2+y,z
4 1/2-x,1/2+y,1/2-z
5 -x,-y,-z
6 x,-y,1/2+z
7 1/2-x,1/2-y,-z
8 1/2+x,1/2-y,1/2+z
_cell_length_a                   14.4913(4)
_cell_length_b                   8.9886(2)
_cell_length_c                   15.3931(4)
_cell_angle_alpha                90
_cell_angle_beta                 107.5360(12)
_cell_angle_gamma                90
_cell_volume                     1911.87
_exptl_crystal_colour            colorless
_exptl_crystal_description       block
_cell_formula_units_Z            4
loop_
_atom_site_label
_atom_site_type_symbol
_atom_site_fract_x
_atom_site_fract_y
_atom_site_fract_z
C1 C 0.05346(10) 0.38728(14) 0.26801(9)
C2 C 0.10381(13) 0.51679(17) 0.25922(11)
H1 H 0.0695 0.5988 0.2293
C3 C 0.20314(14) 0.5251(2) 0.29405(12)
H2 H 0.235 0.6122 0.2874
C4 C 0.25523(13) 0.4053(2) 0.33857(12)
H3 H 0.3223 0.4107 0.3617
C5 C 0.20732(11) 0.27663(18) 0.34867(11)
H4 H 0.2427 0.196 0.3792
C6 C 0.10663(10) 0.26526(14) 0.31384(9)
C7 C 0.06284(10) 0.11967(14) 0.32577(9)
C8 C 0.09409(11) 0.04588(15) 0.40568(10)
H5 H 0.1394 0.0928 0.4538
C9 C 0.06179(11) -0.10214(16) 0.42170(11)
C10 C 0.07707(15) -0.2885(2) 0.53565(16)
H6 H 0.0128 -0.3163 0.4979
H7 H 0.0764 -0.2857 0.5985
C11 C 0.1461(2) -0.3997(3) 0.5265(2)
H8 H 0.1448 -0.4061 0.4639
H9 H 0.1293 -0.4946 0.5461
H10 H 0.2099 -0.3722 0.5634
N1 N 0.000 0.05396(19) 0.250
H11 H 0.000 -0.042(4) 0.250
O1 O 0.00712(10) -0.18057(13) 0.36579(9)
O2 O 0.10027(9) -0.14220(13) 0.50928(8)
C1A C -0.05346(10) 0.38728(14) 0.23199(9)
C2A C -0.10381(13) 0.51679(17) 0.24078(11)
H1A H -0.0695 0.5988 0.2707
C3A C -0.20314(14) 0.5251(2) 0.20595(12)
H2A H -0.235 0.6122 0.2126
C4A C -0.25523(13) 0.4053(2) 0.16143(12)
H3A H -0.3223 0.4107 0.1383
C5A C -0.20732(11) 0.27663(18) 0.15133(11)
H4A H -0.2427 0.196 0.1208
C6A C -0.10663(10) 0.26526(14) 0.18616(9)
C7A C -0.06284(10) 0.11967(14) 0.17423(9)
C8A C -0.09409(11) 0.04588(15) 0.09432(10)
H5A H -0.1394 0.0928 0.0462
C9A C -0.06179(11) -0.10214(16) 0.07830(11)
C10A C -0.07707(15) -0.2885(2) -0.03565(16)
H6A H -0.0128 -0.3163 0.0021
H7A H -0.0764 -0.2857 -0.0985
C11A C -0.1461(2) -0.3997(3) -0.0265(2)
H8A H -0.1448 -0.4061 0.0361
H9A H -0.1293 -0.4946 -0.0461
H10A H -0.2099 -0.3722 -0.0634
O1A O -0.00712(10) -0.18057(13) 0.13421(9)
O2A O -0.10027(9) -0.14220(13) -0.00928(8)
loop_
_geom_bond_atom_site_label_1
_geom_bond_atom_site_label_2
_geom_bond_site_symmetry_1
_geom_bond_site_symmetry_2
C1 C2 1_555 1_555
C2 H1 1_555 1_555
C3 C2 1_555 1_555
H2 C3 1_555 1_555
C4 C3 1_555 1_555
H3 C4 1_555 1_555
C5 C4 1_555 1_555
H4 C5 1_555 1_555
C6 C1 1_555 1_555
C7 C6 1_555 1_555
C8 C7 1_555 1_555
H5 C8 1_555 1_555
C9 C8 1_555 1_555
C10 H6 1_555 1_555
H7 C10 1_555 1_555
C11 C10 1_555 1_555
H8 C11 1_555 1_555
H9 C11 1_555 1_555
H10 C11 1_555 1_555
N1 C7 1_555 1_555
H11 N1 1_555 1_555
O1 C9 1_555 1_555
O2 C9 1_555 1_555
C1A C1 1_555 1_555
C2A C1A 1_555 1_555
H1A C2A 1_555 1_555
C3A C2A 1_555 1_555
H2A C3A 1_555 1_555
C4A C3A 1_555 1_555
H3A C4A 1_555 1_555
C5A C4A 1_555 1_555
H4A C5A 1_555 1_555
C6A C1A 1_555 1_555
C7A N1 1_555 1_555
C8A C7A 1_555 1_555
H5A C8A 1_555 1_555
C9A C8A 1_555 1_555
C10A H6A 1_555 1_555
H7A C10A 1_555 1_555
C11A C10A 1_555 1_555
H8A C11A 1_555 1_555
H9A C11A 1_555 1_555
H10A C11A 1_555 1_555
O1A C9A 1_555 1_555
O2A C9A 1_555 1_555
C5 C6 1_555 1_555
C10 O2 1_555 1_555
C5A C6A 1_555 1_555
C6A C7A 1_555 1_555
C10A O2A 1_555 1_555

#END
