
#######################################################################
#
#                 Cambridge Crystallographic Data Centre
#                                CCDC 
#
#######################################################################
#
# If this CIF has been generated from an entry in the Cambridge 
# Structural Database, then it will include bibliographic, chemical, 
# crystal, experimental, refinement or atomic coordinate data resulting 
# from the CCDC's data processing and validation procedures.
#
#######################################################################

data_SULWON
_chemical_formula_moiety         'C31 H23 Cl1 O3 S1'
_chemical_name_systematic        
5-(4-chlorophenyl)-7-methyl-11-((4-methylphenyl)sulfonyl)-11H-benzo[b]fluoren-10-ol
_symmetry_cell_setting           triclinic
_symmetry_space_group_name_H-M   'P -1'
_symmetry_Int_Tables_number      2
_space_group_name_Hall           '-P 1'
loop_
_symmetry_equiv_pos_site_id
_symmetry_equiv_pos_as_xyz
1 x,y,z
2 -x,-y,-z
_cell_length_a                   9.0302(11)
_cell_length_b                   10.7298(11)
_cell_length_c                   13.2534(13)
_cell_angle_alpha                93.470(8)
_cell_angle_beta                 92.319(9)
_cell_angle_gamma                93.973(9)
_cell_volume                     1277.43
_exptl_crystal_colour            red
_exptl_crystal_description       block
_cell_formula_units_Z            2
loop_
_atom_site_label
_atom_site_type_symbol
_atom_site_fract_x
_atom_site_fract_y
_atom_site_fract_z
Cl1 Cl 0.06077(19) 0.72045(15) -0.00647(12)
O1 O 0.6822(3) 0.2744(2) 0.4979(2)
H1 H 0.6397 0.2083 0.5123
O2 O 0.5869(3) 0.0330(2) 0.3927(2)
O3 O 0.3326(3) -0.0684(2) 0.3703(2)
S1 S 0.43297(13) 0.03902(9) 0.35903(8)
C1 C 0.3630(4) 0.1733(3) 0.4255(3)
H2 H 0.3619 0.1630 0.4984
C2 C 0.2099(5) 0.1933(3) 0.3825(3)
C3 C 0.0811(5) 0.1190(4) 0.3918(3)
H3 H 0.0811 0.0472 0.4278
C4 C -0.0481(6) 0.1545(4) 0.3460(4)
H4 H -0.1366 0.1059 0.3511
C5 C -0.0476(5) 0.2619(4) 0.2926(4)
H5 H -0.1356 0.2851 0.2628
C6 C 0.0828(5) 0.3343(4) 0.2835(3)
H6 H 0.0825 0.4054 0.2467
C7 C 0.2143(5) 0.3015(3) 0.3291(3)
C8 C 0.3640(4) 0.3624(3) 0.3398(3)
C9 C 0.4514(4) 0.2925(3) 0.4032(3)
C10 C 0.5904(5) 0.3351(3) 0.4359(3)
C11 C 0.6521(4) 0.4523(3) 0.4055(3)
C12 C 0.7932(5) 0.5015(3) 0.4409(3)
H7 H 0.8489 0.4571 0.4850
C13 C 0.8501(5) 0.6141(3) 0.4115(3)
H8 H 0.9441 0.6453 0.4362
C14 C 0.7705(5) 0.6831(3) 0.3455(3)
C15 C 0.6314(5) 0.6366(3) 0.3104(3)
H9 H 0.5778 0.6826 0.2664
C16 C 0.5664(4) 0.5202(3) 0.3393(3)
C17 C 0.4210(5) 0.4736(3) 0.3039(3)
C18 C 0.3363(4) 0.5389(3) 0.2274(3)
C19 C 0.3228(6) 0.4906(4) 0.1278(3)
H10 H 0.3710 0.4195 0.1089
C20 C 0.2382(6) 0.5469(4) 0.0557(4)
H11 H 0.2300 0.5137 -0.0109
C21 C 0.1677(6) 0.6506(5) 0.0833(4)
C22 C 0.1798(5) 0.7017(4) 0.1801(4)
H12 H 0.1317 0.7732 0.1980
C23 C 0.2643(5) 0.6459(4) 0.2512(3)
H13 H 0.2733 0.6813 0.3171
C24 C 0.8353(5) 0.8088(3) 0.3157(3)
H14 H 0.8648 0.8014 0.2469
H15 H 0.9203 0.8357 0.3594
H16 H 0.7619 0.8691 0.3219
C25 C 0.4273(5) 0.0758(3) 0.2318(3)
C26 C 0.2983(5) 0.0501(4) 0.1727(3)
H17 H 0.2155 0.0090 0.1986
C27 C 0.2940(6) 0.0865(4) 0.0740(4)
H18 H 0.2076 0.0689 0.0336
C28 C 0.4141(7) 0.1477(4) 0.0352(4)
C29 C 0.5418(6) 0.1710(4) 0.0955(4)
H19 H 0.6252 0.2107 0.0692
C30 C 0.5487(6) 0.1366(4) 0.1938(3)
H20 H 0.6352 0.1547 0.2341
C31 C 0.4059(7) 0.1909(5) -0.0713(4)
H21 H 0.3227 0.1471 -0.1085
H22 H 0.4958 0.1738 -0.1041
H23 H 0.3941 0.2792 -0.0689
loop_
_geom_bond_atom_site_label_1
_geom_bond_atom_site_label_2
_geom_bond_site_symmetry_1
_geom_bond_site_symmetry_2
Cl1 C21 1_555 1_555
O1 H1 1_555 1_555
O2 S1 1_555 1_555
O3 S1 1_555 1_555
S1 C1 1_555 1_555
C1 H2 1_555 1_555
C2 C1 1_555 1_555
C3 C2 1_555 1_555
H3 C3 1_555 1_555
C4 C3 1_555 1_555
H4 C4 1_555 1_555
C5 C4 1_555 1_555
H5 C5 1_555 1_555
C6 C5 1_555 1_555
H6 C6 1_555 1_555
C7 C2 1_555 1_555
C8 C7 1_555 1_555
C9 C1 1_555 1_555
C10 O1 1_555 1_555
C11 C10 1_555 1_555
C12 C11 1_555 1_555
H7 C12 1_555 1_555
C13 C12 1_555 1_555
H8 C13 1_555 1_555
C14 C13 1_555 1_555
C15 C14 1_555 1_555
H9 C15 1_555 1_555
C16 C11 1_555 1_555
C17 C8 1_555 1_555
C18 C17 1_555 1_555
C19 C18 1_555 1_555
H10 C19 1_555 1_555
C20 C19 1_555 1_555
H11 C20 1_555 1_555
C21 C20 1_555 1_555
C22 C21 1_555 1_555
H12 C22 1_555 1_555
C23 C18 1_555 1_555
H13 C23 1_555 1_555
C24 C14 1_555 1_555
H14 C24 1_555 1_555
H15 C24 1_555 1_555
H16 C24 1_555 1_555
C25 S1 1_555 1_555
C26 C25 1_555 1_555
H17 C26 1_555 1_555
C27 C26 1_555 1_555
H18 C27 1_555 1_555
C28 C27 1_555 1_555
C29 C28 1_555 1_555
H19 C29 1_555 1_555
C30 C25 1_555 1_555
H20 C30 1_555 1_555
C31 C28 1_555 1_555
H21 C31 1_555 1_555
H22 C31 1_555 1_555
H23 C31 1_555 1_555
C6 C7 1_555 1_555
C8 C9 1_555 1_555
C9 C10 1_555 1_555
C15 C16 1_555 1_555
C16 C17 1_555 1_555
C22 C23 1_555 1_555
C29 C30 1_555 1_555

#END
