
#######################################################################
#
#                 Cambridge Crystallographic Data Centre
#                                CCDC 
#
#######################################################################
#
# If this CIF has been generated from an entry in the Cambridge 
# Structural Database, then it will include bibliographic, chemical, 
# crystal, experimental, refinement or atomic coordinate data resulting 
# from the CCDC's data processing and validation procedures.
#
#######################################################################

data_SUMFEN
_chemical_formula_moiety         'C26 H21 N1 O3 S1'
_chemical_name_systematic        
N-(2'-benzoylbiphenyl-2-yl)-4-methylbenzenesulfonamide
_symmetry_cell_setting           monoclinic
_symmetry_space_group_name_H-M   'P 21/n'
_symmetry_Int_Tables_number      14
_space_group_name_Hall           '-P 2yn'
loop_
_symmetry_equiv_pos_site_id
_symmetry_equiv_pos_as_xyz
1 x,y,z
2 1/2-x,1/2+y,1/2-z
3 -x,-y,-z
4 1/2+x,1/2-y,1/2+z
_cell_length_a                   10.3326(7)
_cell_length_b                   19.2076(9)
_cell_length_c                   11.4445(7)
_cell_angle_alpha                90
_cell_angle_beta                 105.976(6)
_cell_angle_gamma                90
_cell_volume                     2183.6
_exptl_crystal_colour            'light colorless'
_exptl_crystal_description       plate
_cell_formula_units_Z            4
loop_
_atom_site_label
_atom_site_type_symbol
_atom_site_fract_x
_atom_site_fract_y
_atom_site_fract_z
S1 S 0.31565(5) 0.55407(2) 0.53521(4)
O1 O 0.38649(16) 0.55437(7) 0.44376(13)
O2 O 0.17365(15) 0.56699(7) 0.50134(14)
O3 O 0.41359(17) 0.31718(8) 0.62176(14)
N1 N 0.34183(17) 0.47650(8) 0.59497(14)
H1 H 0.4271 0.4689 0.6181
C1 C 0.3170(3) 0.65295(13) 0.7071(2)
H2 H 0.2243 0.6465 0.6883
C2 C 0.3804(3) 0.70099(13) 0.7947(2)
H3 H 0.3290 0.7269 0.8342
C3 C 0.5180(3) 0.71140(11) 0.8247(2)
C4 C 0.5923(3) 0.67155(13) 0.7651(2)
H4 H 0.6852 0.6770 0.7850
C5 C 0.5306(2) 0.62399(12) 0.6768(2)
H5 H 0.5814 0.5982 0.6367
C6 C 0.3932(2) 0.61493(10) 0.64865(19)
C7 C 0.5875(3) 0.76470(13) 0.9185(2)
H6 H 0.5581 0.8106 0.8898
H7 H 0.6832 0.7612 0.9319
H8 H 0.5654 0.7561 0.9934
C8 C 0.2831(2) 0.45073(9) 0.68561(17)
C9 C 0.1447(2) 0.44980(10) 0.66626(19)
H9 H 0.0895 0.4700 0.5964
C10 C 0.0881(2) 0.41943(11) 0.7489(2)
H10 H -0.0049 0.4196 0.7351
C11 C 0.1693(2) 0.38852(11) 0.8529(2)
H11 H 0.1313 0.3674 0.9088
C12 C 0.3071(2) 0.38953(11) 0.8724(2)
H12 H 0.3615 0.3690 0.9424
C13 C 0.3668(2) 0.42015(9) 0.79075(18)
C14 C 0.5168(2) 0.41922(9) 0.81606(17)
C15 C 0.5922(2) 0.47498(11) 0.8765(2)
H13 H 0.5482 0.5133 0.8973
C16 C 0.7308(2) 0.47449(12) 0.9060(2)
H14 H 0.7793 0.5126 0.9454
C17 C 0.7975(2) 0.41782(13) 0.8774(2)
H15 H 0.8911 0.4174 0.8983
C18 C 0.7255(2) 0.36159(12) 0.81775(19)
H16 H 0.7709 0.3232 0.7989
C19 C 0.5855(2) 0.36195(10) 0.78561(17)
C20 C 0.5054(2) 0.30355(10) 0.71038(18)
C21 C 0.5422(2) 0.23020(10) 0.74559(18)
C22 C 0.6207(2) 0.21140(11) 0.86139(19)
H17 H 0.6554 0.2458 0.9187
C23 C 0.6471(2) 0.14246(11) 0.8912(2)
H18 H 0.6996 0.1305 0.9685
C24 C 0.5965(3) 0.09127(12) 0.8078(2)
H19 H 0.6152 0.0448 0.8283
C25 C 0.5179(3) 0.10865(12) 0.6935(2)
H20 H 0.4831 0.0738 0.6372
C26 C 0.4906(2) 0.17743(11) 0.6621(2)
H21 H 0.4374 0.1887 0.5848
loop_
_geom_bond_atom_site_label_1
_geom_bond_atom_site_label_2
_geom_bond_site_symmetry_1
_geom_bond_site_symmetry_2
S1 O1 1_555 1_555
O2 S1 1_555 1_555
O3 C20 1_555 1_555
N1 S1 1_555 1_555
H1 N1 1_555 1_555
C1 H2 1_555 1_555
C2 C1 1_555 1_555
H3 C2 1_555 1_555
C3 C2 1_555 1_555
C4 C3 1_555 1_555
H4 C4 1_555 1_555
C5 C4 1_555 1_555
H5 C5 1_555 1_555
C6 S1 1_555 1_555
C7 C3 1_555 1_555
H6 C7 1_555 1_555
H7 C7 1_555 1_555
H8 C7 1_555 1_555
C8 N1 1_555 1_555
C9 C8 1_555 1_555
H9 C9 1_555 1_555
C10 C9 1_555 1_555
H10 C10 1_555 1_555
C11 C10 1_555 1_555
H11 C11 1_555 1_555
C12 C11 1_555 1_555
H12 C12 1_555 1_555
C13 C8 1_555 1_555
C14 C13 1_555 1_555
C15 C14 1_555 1_555
H13 C15 1_555 1_555
C16 C15 1_555 1_555
H14 C16 1_555 1_555
C17 C16 1_555 1_555
H15 C17 1_555 1_555
C18 C17 1_555 1_555
H16 C18 1_555 1_555
C19 C14 1_555 1_555
C20 C19 1_555 1_555
C21 C20 1_555 1_555
C22 C21 1_555 1_555
H17 C22 1_555 1_555
C23 C22 1_555 1_555
H18 C23 1_555 1_555
C24 C23 1_555 1_555
H19 C24 1_555 1_555
C25 C24 1_555 1_555
H20 C25 1_555 1_555
C26 C21 1_555 1_555
H21 C26 1_555 1_555
C1 C6 1_555 1_555
C5 C6 1_555 1_555
C12 C13 1_555 1_555
C18 C19 1_555 1_555
C25 C26 1_555 1_555

#END
