
#######################################################################
#
#                 Cambridge Crystallographic Data Centre
#                                CCDC 
#
#######################################################################
#
# If this CIF has been generated from an entry in the Cambridge 
# Structural Database, then it will include bibliographic, chemical, 
# crystal, experimental, refinement or atomic coordinate data resulting 
# from the CCDC's data processing and validation procedures.
#
#######################################################################

data_SUMJIU
_chemical_name_common            
'2,5-Dimethyl-1,4-bis(1-oxyl-3-oxide-4,4,5,5-tetramethylimidazolin-2-yl)benzene biradical'
_chemical_formula_moiety         'C22 H32 N4 O4'
_chemical_name_systematic        
'2,5-Dimethyl-1,4-bis(nitronyl nitroxide)benzene biradical'
_symmetry_cell_setting           monoclinic
_symmetry_space_group_name_H-M   'P 21/c'
_symmetry_Int_Tables_number      14
_space_group_name_Hall           '-P 2ybc'
loop_
_symmetry_equiv_pos_site_id
_symmetry_equiv_pos_as_xyz
1 x,y,z
2 -x,1/2+y,1/2-z
3 -x,-y,-z
4 x,1/2-y,1/2+z
_cell_length_a                   6.137(4)
_cell_length_b                   17.662(11)
_cell_length_c                   11.809(6)
_cell_angle_alpha                90
_cell_angle_beta                 117.66(3)
_cell_angle_gamma                90
_cell_volume                     1133.72
_exptl_crystal_colour            purple
_exptl_crystal_description       block
_cell_formula_units_Z            2
loop_
_atom_site_label
_atom_site_type_symbol
_atom_site_fract_x
_atom_site_fract_y
_atom_site_fract_z
O1 O -0.5847(5) -0.00140(13) 0.3147(2)
O2 O -0.4910(5) -0.20999(13) 0.1103(2)
N1 N -0.5255(5) -0.16911(14) 0.1890(2)
N2 N -0.5649(5) -0.06970(14) 0.2876(2)
C1 C -0.9348(7) -0.0957(2) -0.0771(3)
H1 H -1.0424 -0.0883 -0.1666
H2 H -1.0175 -0.0808 -0.0288
H3 H -0.8897 -0.1482 -0.0613
C2 C -0.7069(6) -0.04834(17) -0.0373(3)
C3 C -0.5212(6) -0.04518(16) 0.0901(3)
C4 C -0.3221(6) 0.00269(17) 0.1254(3)
H4 H -0.2037 0.0045 0.2107
C5 C -0.5374(5) -0.09332(16) 0.1874(3)
C6 C -0.5500(6) -0.13331(16) 0.3755(3)
C7 C -0.3010(6) -0.12613(18) 0.4929(3)
H5 H -0.2854 -0.0766 0.5292
H6 H -0.1730 -0.1337 0.4689
H7 H -0.2871 -0.1636 0.5548
C8 C -0.7514(7) -0.1239(2) 0.4150(4)
H8 H -0.9092 -0.1252 0.3405
H9 H -0.7311 -0.0763 0.4580
H10 H -0.7412 -0.1643 0.4716
C9 C -0.5795(6) -0.20358(16) 0.2901(3)
C10 C -0.8409(7) -0.2333(2) 0.2179(4)
H11 H -0.8518 -0.2681 0.1529
H12 H -0.9517 -0.1918 0.1788
H13 H -0.8845 -0.2589 0.2762
C11 C -0.4016(8) -0.2681(2) 0.3536(4)
H14 H -0.2359 -0.2499 0.3863
H15 H -0.4302 -0.3074 0.2922
H16 H -0.4260 -0.2878 0.4227
O1B O -0.4153(5) 0.00140(13) -0.3147(2)
O2B O -0.5090(5) 0.20999(13) -0.1103(2)
N1B N -0.4745(5) 0.16911(14) -0.1890(2)
N2B N -0.4351(5) 0.06970(14) -0.2876(2)
C1B C -0.0652(7) 0.0957(2) 0.0771(3)
H1B H 0.0424 0.0883 0.1666
H2B H 0.0175 0.0808 0.0288
H3B H -0.1103 0.1482 0.0613
C2B C -0.2931(6) 0.04834(17) 0.0373(3)
C3B C -0.4788(6) 0.04518(16) -0.0901(3)
C4B C -0.6779(6) -0.00269(17) -0.1254(3)
H4B H -0.7963 -0.0045 -0.2107
C5B C -0.4626(5) 0.09332(16) -0.1874(3)
C6B C -0.4500(6) 0.13331(16) -0.3755(3)
C7B C -0.6990(6) 0.12613(18) -0.4929(3)
H5B H -0.7146 0.0766 -0.5292
H6B H -0.8270 0.1337 -0.4689
H7B H -0.7129 0.1636 -0.5548
C8B C -0.2486(7) 0.1239(2) -0.4150(4)
H8B H -0.0908 0.1252 -0.3405
H9B H -0.2689 0.0763 -0.4580
H10B H -0.2588 0.1643 -0.4716
C9B C -0.4205(6) 0.20358(16) -0.2901(3)
C10B C -0.1591(7) 0.2333(2) -0.2179(4)
H11B H -0.1482 0.2681 -0.1529
H12B H -0.0483 0.1918 -0.1788
H13B H -0.1155 0.2589 -0.2762
C11B C -0.5984(8) 0.2681(2) -0.3536(4)
H14B H -0.7641 0.2499 -0.3863
H15B H -0.5698 0.3074 -0.2922
H16B H -0.5740 0.2878 -0.4227
loop_
_geom_bond_atom_site_label_1
_geom_bond_atom_site_label_2
_geom_bond_site_symmetry_1
_geom_bond_site_symmetry_2
O1 N2 1_555 1_555
O2 N1 1_555 1_555
N1 C5 1_555 1_555
N2 C5 1_555 1_555
C1 H1 1_555 1_555
H2 C1 1_555 1_555
H3 C1 1_555 1_555
C2 C1 1_555 1_555
C3 C2 1_555 1_555
C4 C3 1_555 1_555
H4 C4 1_555 1_555
C5 C3 1_555 1_555
C6 N2 1_555 1_555
C7 C6 1_555 1_555
H5 C7 1_555 1_555
H6 C7 1_555 1_555
H7 C7 1_555 1_555
C8 C6 1_555 1_555
H8 C8 1_555 1_555
H9 C8 1_555 1_555
H10 C8 1_555 1_555
C9 N1 1_555 1_555
C10 C9 1_555 1_555
H11 C10 1_555 1_555
H12 C10 1_555 1_555
H13 C10 1_555 1_555
C11 C9 1_555 1_555
H14 C11 1_555 1_555
H15 C11 1_555 1_555
H16 C11 1_555 1_555
O1B N2B 1_555 1_555
O2B N1B 1_555 1_555
N1B C5B 1_555 1_555
N2B C5B 1_555 1_555
C1B H1B 1_555 1_555
H2B C1B 1_555 1_555
H3B C1B 1_555 1_555
C2B C4 1_555 1_555
C3B C2B 1_555 1_555
C4B C2 1_555 1_555
H4B C4B 1_555 1_555
C5B C3B 1_555 1_555
C6B N2B 1_555 1_555
C7B C6B 1_555 1_555
H5B C7B 1_555 1_555
H6B C7B 1_555 1_555
H7B C7B 1_555 1_555
C8B C6B 1_555 1_555
H8B C8B 1_555 1_555
H9B C8B 1_555 1_555
H10B C8B 1_555 1_555
C9B N1B 1_555 1_555
C10B C9B 1_555 1_555
H11B C10B 1_555 1_555
H12B C10B 1_555 1_555
H13B C10B 1_555 1_555
C11B C9B 1_555 1_555
H14B C11B 1_555 1_555
H15B C11B 1_555 1_555
H16B C11B 1_555 1_555
C6 C9 1_555 1_555
C1B C2B 1_555 1_555
C3B C4B 1_555 1_555
C6B C9B 1_555 1_555

#END
