
#######################################################################
#
#                 Cambridge Crystallographic Data Centre
#                                CCDC 
#
#######################################################################
#
# If this CIF has been generated from an entry in the Cambridge 
# Structural Database, then it will include bibliographic, chemical, 
# crystal, experimental, refinement or atomic coordinate data resulting 
# from the CCDC's data processing and validation procedures.
#
#######################################################################

data_SUMMEU
_chemical_formula_moiety         'C14 H10 O3 S2,C1 H1 Cl3'
_chemical_name_systematic        
'3-(1,3-Dithiolan-2-ylidene)-7-methylnaphthalene-1,2,4(3H)-trione chloroform'
_symmetry_cell_setting           triclinic
_symmetry_space_group_name_H-M   'P -1'
_symmetry_Int_Tables_number      2
_space_group_name_Hall           '-P 1'
loop_
_symmetry_equiv_pos_site_id
_symmetry_equiv_pos_as_xyz
1 x,y,z
2 -x,-y,-z
_cell_length_a                   5.6891(5)
_cell_length_b                   10.2427(9)
_cell_length_c                   15.0808(13)
_cell_angle_alpha                107.9550(10)
_cell_angle_beta                 91.440(2)
_cell_angle_gamma                94.341(2)
_cell_volume                     832.5
_exptl_crystal_colour            yellow
_exptl_crystal_description       bulk
_cell_formula_units_Z            2
loop_
_atom_site_label
_atom_site_type_symbol
_atom_site_fract_x
_atom_site_fract_y
_atom_site_fract_z
S1 S 0.12157(18) 0.36298(10) 0.01149(7)
S2 S 0.31844(18) 0.11531(10) 0.02514(7)
O1 O -0.2162(5) 0.4265(3) 0.13000(18)
O2 O -0.0752(5) 0.0816(3) 0.3272(2)
O3 O 0.1601(5) 0.0549(3) 0.1724(2)
C1 C -0.0157(6) 0.2395(3) 0.1414(2)
C2 C -0.3379(6) 0.3397(3) 0.2506(2)
C3 C -0.1224(6) 0.1530(4) 0.2797(3)
C4 C -0.1885(6) 0.3410(3) 0.1705(2)
C5 C -0.5136(6) 0.4297(4) 0.2741(3)
H1 H -0.5364 0.4902 0.2403
C6 C -0.3063(6) 0.2498(4) 0.3022(2)
C7 C -0.6228(6) 0.3429(4) 0.4014(3)
C8 C 0.0193(6) 0.1431(3) 0.1926(3)
C9 C -0.4492(6) 0.2520(4) 0.3769(3)
H2 H -0.4272 0.1913 0.4107
C10 C 0.1253(6) 0.2398(3) 0.0673(2)
C11 C -0.6550(7) 0.4297(4) 0.3474(3)
H3 H -0.7744 0.4890 0.3611
C12 C -0.7741(7) 0.3450(5) 0.4820(3)
H4 H -0.8869 0.4119 0.4877
H5 H -0.6763 0.3690 0.5385
H6 H -0.8557 0.2556 0.4714
C13 C 0.3806(8) 0.3151(5) -0.0551(3)
H7 H 0.3697 0.3386 -0.1126
H8 H 0.5219 0.3642 -0.0193
C14 C 0.3913(9) 0.1657(4) -0.0760(3)
H9 H 0.5487 0.1415 -0.0939
H10 H 0.2810 0.1170 -0.1279
Cl1 Cl -0.44257(18) 0.82886(14) 0.31286(9)
Cl2 Cl -0.9023(2) 0.69958(13) 0.24144(11)
Cl3 Cl -0.8316(3) 0.87973(18) 0.43116(9)
C15 C -0.7444(7) 0.8476(4) 0.3167(3)
H11 H -0.7761 0.9265 0.2959
loop_
_geom_bond_atom_site_label_1
_geom_bond_atom_site_label_2
_geom_bond_site_symmetry_1
_geom_bond_site_symmetry_2
S1 C10 1_555 1_555
S2 C10 1_555 1_555
O1 C4 1_555 1_555
O2 C3 1_555 1_555
O3 C8 1_555 1_555
C1 C4 1_555 1_555
C2 C4 1_555 1_555
C3 C6 1_555 1_555
C5 C2 1_555 1_555
H1 C5 1_555 1_555
C6 C2 1_555 1_555
C7 C9 1_555 1_555
C8 C1 1_555 1_555
C9 C6 1_555 1_555
H2 C9 1_555 1_555
C10 C1 1_555 1_555
C11 C5 1_555 1_555
H3 C11 1_555 1_555
C12 C7 1_555 1_555
H4 C12 1_555 1_555
H5 C12 1_555 1_555
H6 C12 1_555 1_555
C13 S1 1_555 1_555
H7 C13 1_555 1_555
H8 C13 1_555 1_555
C14 S2 1_555 1_555
H9 C14 1_555 1_555
H10 C14 1_555 1_555
Cl1 C15 1_555 1_555
Cl2 C15 1_555 1_555
Cl3 C15 1_555 1_555
C15 H11 1_555 1_555
C3 C8 1_555 1_555
C7 C11 1_555 1_555
C13 C14 1_555 1_555

#END
