
#######################################################################
#
#                 Cambridge Crystallographic Data Centre
#                                CCDC 
#
#######################################################################
#
# If this CIF has been generated from an entry in the Cambridge 
# Structural Database, then it will include bibliographic, chemical, 
# crystal, experimental, refinement or atomic coordinate data resulting 
# from the CCDC's data processing and validation procedures.
#
#######################################################################

data_SUMMIY
_chemical_formula_moiety         'C34 H27 N3 O2'
_chemical_name_systematic        
6-Benzoyl-3,3,9-trimethyl-2,7-diphenyl-3,9-dihydropyrazolo[3,4-b]pyrrolo[3,2,1-ij]quinolin-5(4H)-one
_symmetry_cell_setting           monoclinic
_symmetry_space_group_name_H-M   'C c'
_symmetry_Int_Tables_number      9
_space_group_name_Hall           'C -2yc'
loop_
_symmetry_equiv_pos_site_id
_symmetry_equiv_pos_as_xyz
1 x,y,z
2 x,-y,1/2+z
3 1/2+x,1/2+y,z
4 1/2+x,1/2-y,1/2+z
_cell_length_a                   17.2205(17)
_cell_length_b                   14.5659(13)
_cell_length_c                   12.0921(11)
_cell_angle_alpha                90
_cell_angle_beta                 116.552(2)
_cell_angle_gamma                90
_cell_volume                     2713.18
_exptl_crystal_colour            colorless
_exptl_crystal_description       block
_cell_formula_units_Z            4
loop_
_atom_site_label
_atom_site_type_symbol
_atom_site_fract_x
_atom_site_fract_y
_atom_site_fract_z
N1 N 0.3833(4) 0.1943(4) 0.9081(5)
N2 N 0.4276(4) 0.0739(4) 0.8100(5)
N3 N 0.4028(4) 0.0432(5) 0.6916(5)
O1 O 0.1469(4) 0.3888(4) 0.6547(5)
O2 O 0.2341(5) 0.3307(4) 0.4873(6)
C1 C 0.4351(5) 0.1932(5) 1.0332(6)
H1 H 0.4803 0.1524 1.0750
C2 C 0.4098(5) 0.2608(5) 1.0856(6)
C3 C 0.3379(5) 0.3070(5) 0.9916(6)
C4 C 0.3234(5) 0.2650(5) 0.8846(6)
C5 C 0.2634(5) 0.2855(5) 0.7609(7)
C6 C 0.2626(5) 0.2415(5) 0.6604(7)
C7 C 0.3232(5) 0.1675(5) 0.6870(6)
C8 C 0.3798(5) 0.1468(5) 0.8087(6)
C9 C 0.3416(5) 0.0988(5) 0.6201(6)
C10 C 0.4548(5) 0.2808(5) 1.2215(6)
C11 C 0.5075(6) 0.3537(7) 1.2677(7)
H2 H 0.5135 0.3946 1.2130
C12 C 0.5534(6) 0.3704(7) 1.3943(8)
H3 H 0.5892 0.4215 1.4241
C13 C 0.5440(7) 0.3107(7) 1.4711(8)
H4 H 0.5696 0.3228 1.5555
C14 C 0.4978(7) 0.2326(8) 1.4277(8)
H5 H 0.4968 0.1891 1.4833
C15 C 0.4524(6) 0.2164(7) 1.3032(7)
H6 H 0.4204 0.1627 1.2744
C16 C 0.2005(6) 0.3592(6) 0.7515(8)
C17 C 0.2011(7) 0.3841(8) 0.8716(8)
H7 H 0.1744 0.4441 0.8607
H8 H 0.1628 0.3412 0.8844
C18 C 0.2818(6) 0.3873(6) 0.9872(7)
C19 C 0.3301(8) 0.4749(7) 0.9809(11)
H9 H 0.3839 0.4798 1.0547
H10 H 0.2948 0.5277 0.9738
H11 H 0.3415 0.4717 0.9102
C20 C 0.2626(9) 0.3945(10) 1.0943(11)
H12 H 0.2546 0.3342 1.1194
H13 H 0.2107 0.4299 1.0716
H14 H 0.3102 0.4241 1.1615
C21 C 0.2065(5) 0.2711(6) 0.5314(7)
C22 C 0.1241(5) 0.2248(6) 0.4541(6)
C23 C 0.0922(5) 0.1589(5) 0.5045(7)
H15 H 0.1211 0.1459 0.5885
C24 C 0.0186(6) 0.1129(6) 0.4313(9)
H16 H -0.0011 0.0671 0.4662
C25 C -0.0266(7) 0.1310(8) 0.3113(9)
H17 H -0.0775 0.0991 0.2637
C26 C 0.0021(7) 0.1958(9) 0.2595(9)
H18 H -0.0299 0.2093 0.1760
C27 C 0.0805(6) 0.2441(6) 0.3299(8)
H19 H 0.1016 0.2872 0.2933
C28 C 0.2977(5) 0.0786(6) 0.4838(7)
C29 C 0.2911(6) 0.1434(6) 0.3990(7)
H20 H 0.3139 0.2020 0.4235
C30 C 0.2486(6) 0.1190(7) 0.2723(8)
H21 H 0.2440 0.1623 0.2132
C31 C 0.2147(6) 0.0350(7) 0.2351(8)
H22 H 0.1860 0.0208 0.1514
C32 C 0.2231(6) -0.0292(7) 0.3223(8)
H23 H 0.2002 -0.0876 0.2973
C33 C 0.2652(5) -0.0085(6) 0.4473(7)
H24 H 0.2715 -0.0530 0.5059
C34 C 0.4945(6) 0.0259(6) 0.9120(8)
H25 H 0.5442 0.0650 0.9517
H26 H 0.5107 -0.0284 0.8822
H27 H 0.4733 0.0089 0.9703
loop_
_geom_bond_atom_site_label_1
_geom_bond_atom_site_label_2
_geom_bond_site_symmetry_1
_geom_bond_site_symmetry_2
N1 C1 1_555 1_555
N2 N3 1_555 1_555
N3 C9 1_555 1_555
O1 C16 1_555 1_555
O2 C21 1_555 1_555
C1 H1 1_555 1_555
C2 C1 1_555 1_555
C3 C2 1_555 1_555
C4 N1 1_555 1_555
C5 C4 1_555 1_555
C6 C5 1_555 1_555
C7 C6 1_555 1_555
C8 N1 1_555 1_555
C9 C7 1_555 1_555
C10 C2 1_555 1_555
C11 C10 1_555 1_555
H2 C11 1_555 1_555
C12 C11 1_555 1_555
H3 C12 1_555 1_555
C13 C12 1_555 1_555
H4 C13 1_555 1_555
C14 C13 1_555 1_555
H5 C14 1_555 1_555
C15 C10 1_555 1_555
H6 C15 1_555 1_555
C16 C5 1_555 1_555
C17 C16 1_555 1_555
H7 C17 1_555 1_555
H8 C17 1_555 1_555
C18 C3 1_555 1_555
C19 C18 1_555 1_555
H9 C19 1_555 1_555
H10 C19 1_555 1_555
H11 C19 1_555 1_555
C20 C18 1_555 1_555
H12 C20 1_555 1_555
H13 C20 1_555 1_555
H14 C20 1_555 1_555
C21 C6 1_555 1_555
C22 C21 1_555 1_555
C23 C22 1_555 1_555
H15 C23 1_555 1_555
C24 C23 1_555 1_555
H16 C24 1_555 1_555
C25 C24 1_555 1_555
H17 C25 1_555 1_555
C26 C25 1_555 1_555
H18 C26 1_555 1_555
C27 C22 1_555 1_555
H19 C27 1_555 1_555
C28 C9 1_555 1_555
C29 C28 1_555 1_555
H20 C29 1_555 1_555
C30 C29 1_555 1_555
H21 C30 1_555 1_555
C31 C30 1_555 1_555
H22 C31 1_555 1_555
C32 C31 1_555 1_555
H23 C32 1_555 1_555
C33 C28 1_555 1_555
H24 C33 1_555 1_555
C34 N2 1_555 1_555
H25 C34 1_555 1_555
H26 C34 1_555 1_555
H27 C34 1_555 1_555
N2 C8 1_555 1_555
C3 C4 1_555 1_555
C7 C8 1_555 1_555
C14 C15 1_555 1_555
C17 C18 1_555 1_555
C26 C27 1_555 1_555
C32 C33 1_555 1_555

#END
