
#######################################################################
#
#                 Cambridge Crystallographic Data Centre
#                                CCDC 
#
#######################################################################
#
# If this CIF has been generated from an entry in the Cambridge 
# Structural Database, then it will include bibliographic, chemical, 
# crystal, experimental, refinement or atomic coordinate data resulting 
# from the CCDC's data processing and validation procedures.
#
#######################################################################

data_SUMYUW
_chemical_formula_moiety         'C4 H11 N2 O1 1+,C4 H9 N2 1+,2(H4 B5 O10 1-)'
_chemical_name_systematic        
"(N-(3-Ammoniopropyl)acetamide) (2-methyl-4,5-dihydro-1H-imidazol-3-ium) bis(1,1'-spiro-bis(3,5-dihydroxy-2,4,6-trioxa-1,3,5-triboracyclohexane))"
_symmetry_cell_setting           monoclinic
_symmetry_space_group_name_H-M   'P 21/c'
_symmetry_Int_Tables_number      14
_space_group_name_Hall           '-P 2ybc'
loop_
_symmetry_equiv_pos_site_id
_symmetry_equiv_pos_as_xyz
1 x,y,z
2 -x,1/2+y,1/2-z
3 -x,-y,-z
4 x,1/2-y,1/2+z
_cell_length_a                   18.6975(5)
_cell_length_b                   15.3413(8)
_cell_length_c                   9.6691(3)
_cell_angle_alpha                90
_cell_angle_beta                 90.462(3)
_cell_angle_gamma                90
_cell_volume                     2773.43
_exptl_crystal_colour            colorless
_exptl_crystal_description       block
_cell_formula_units_Z            4
loop_
_atom_site_label
_atom_site_type_symbol
_atom_site_fract_x
_atom_site_fract_y
_atom_site_fract_z
C1 C 0.38746(18) 0.6802(2) 0.0488(3)
H1 H 0.3439 0.7118 0.0268
H2 H 0.4280 0.7195 0.0419
C2 C 0.39251(14) 0.5317(2) 0.0269(3)
C3 C 0.38380(14) 0.6384(2) 0.1908(3)
H3 H 0.4244 0.6550 0.2480
H4 H 0.3400 0.6540 0.2377
C4 C 0.3961(3) 0.4443(3) -0.0349(4)
H5 H 0.4008 0.4495 -0.1333
H6 H 0.3532 0.4128 -0.0140
H7 H 0.4367 0.4137 0.0024
N1 N 0.38551(12) 0.54683(16) 0.1579(2)
H8 H 0.3822 0.5063 0.2190
N2 N 0.3960(2) 0.6046(2) -0.0396(2)
H9 H 0.4027 0.6080 -0.1274
O1 O 0.78787(12) 0.50828(18) 0.0826(2)
C5 C 0.87891(15) 0.64440(19) 0.0177(3)
H10 H 0.8294 0.6608 0.0316
H11 H 0.8986 0.6834 -0.0513
C6 C 0.83176(14) 0.4954(2) -0.0081(2)
C7 C 0.91937(13) 0.65696(19) 0.1515(2)
H12 H 0.9675 0.6346 0.1405
H13 H 0.9230 0.7189 0.1704
N3 N 0.88659(10) 0.61409(14) 0.27033(18)
H14 H 0.8412 0.6308 0.2770
H15 H 0.9102 0.6288 0.3471
H16 H 0.8885 0.5566 0.2591
N4 N 0.88113(11) 0.55553(16) -0.0356(2)
H17 H 0.9163 0.5411 -0.0877
C8 C 0.8352(2) 0.4138(3) -0.0894(4)
H18 H 0.8511 0.3670 -0.0308
H19 H 0.8682 0.4210 -0.1641
H20 H 0.7886 0.4004 -0.1261
B1 B 0.77555(10) 0.60140(17) -0.3895(2)
B2 B 0.64644(9) 0.63697(15) -0.40293(19)
B3 B 0.51866(10) 0.59567(16) -0.3930(2)
B4 B 0.73381(10) 0.72407(16) -0.2658(2)
B5 B 0.55896(11) 0.68031(17) -0.5831(2)
O2 O 0.70782(6) 0.57774(9) -0.42289(13)
O3 O 0.79022(6) 0.67459(11) -0.31265(14)
O4 O 0.66611(6) 0.70691(10) -0.30614(13)
O5 O 0.83222(6) 0.55266(11) -0.43168(16)
H21 H 0.8177 0.5108 -0.4765
O6 O 0.75041(7) 0.79175(12) -0.17962(15)
H22 H 0.7152 0.8048 -0.1341
O7 O 0.62745(6) 0.67406(10) -0.53721(12)
O8 O 0.58678(6) 0.58767(10) -0.34570(12)
O9 O 0.50361(6) 0.64355(10) -0.51054(13)
O10 O 0.46587(7) 0.55554(12) -0.32396(15)
H23 H 0.4272 0.5685 -0.3588
O11 O 0.54260(8) 0.72209(13) -0.70209(16)
H24 H 0.5789 0.7437 -0.7344
B6 B 1.13843(9) 0.62754(15) -0.3607(2)
B7 B 1.01213(10) 0.57947(15) -0.3657(2)
B8 B 1.05050(10) 0.68468(16) -0.5317(2)
B9 B 1.26861(10) 0.59638(17) -0.3555(2)
B10 B 1.22348(10) 0.70766(16) -0.2103(2)
O12 O 1.07990(6) 0.57015(9) -0.31817(13)
O13 O 1.11812(6) 0.67655(10) -0.48538(12)
O14 O 1.15525(6) 0.68827(10) -0.24938(12)
O15 O 1.28084(6) 0.66476(10) -0.26793(14)
O16 O 0.99524(6) 0.63785(10) -0.47098(13)
O17 O 0.95987(7) 0.52937(11) -0.31063(15)
O18 O 1.03238(7) 0.73719(13) -0.63835(15)
H25 H 1.0686 0.7591 -0.6706
O19 O 1.20093(6) 0.57361(9) -0.39539(13)
O20 O 1.32650(6) 0.55176(11) -0.40106(17)
H26 H 1.3134 0.5124 -0.4527
O21 O 1.23842(7) 0.76984(11) -0.11572(15)
H27 H 1.2014 0.7850 -0.0777
H28 H 0.9157(15) 0.5385(19) -0.358(3)
loop_
_geom_bond_atom_site_label_1
_geom_bond_atom_site_label_2
_geom_bond_site_symmetry_1
_geom_bond_site_symmetry_2
C1 H1 1_555 1_555
H2 C1 1_555 1_555
C2 C4 1_555 1_555
C3 C1 1_555 1_555
H3 C3 1_555 1_555
H4 C3 1_555 1_555
C4 H5 1_555 1_555
H6 C4 1_555 1_555
H7 C4 1_555 1_555
N1 C2 1_555 1_555
H8 N1 1_555 1_555
N2 C1 1_555 1_555
H9 N2 1_555 1_555
O1 C6 1_555 1_555
C5 H10 1_555 1_555
H11 C5 1_555 1_555
C6 N4 1_555 1_555
C7 C5 1_555 1_555
H12 C7 1_555 1_555
H13 C7 1_555 1_555
N3 C7 1_555 1_555
H14 N3 1_555 1_555
H15 N3 1_555 1_555
H16 N3 1_555 1_555
N4 C5 1_555 1_555
H17 N4 1_555 1_555
C8 C6 1_555 1_555
H18 C8 1_555 1_555
H19 C8 1_555 1_555
H20 C8 1_555 1_555
B1 O2 1_555 1_555
B2 O2 1_555 1_555
B3 O8 1_555 1_555
B4 O3 1_555 1_555
B5 O7 1_555 1_555
O3 B1 1_555 1_555
O4 B2 1_555 1_555
O5 B1 1_555 1_555
H21 O5 1_555 1_555
O6 B4 1_555 1_555
H22 O6 1_555 1_555
O7 B2 1_555 1_555
O8 B2 1_555 1_555
O9 B3 1_555 1_555
O10 B3 1_555 1_555
H23 O10 1_555 1_555
O11 B5 1_555 1_555
H24 O11 1_555 1_555
B6 O12 1_555 1_555
B7 O12 1_555 1_555
B8 O13 1_555 1_555
B9 O15 1_555 1_555
B10 O14 1_555 1_555
O13 B6 1_555 1_555
O14 B6 1_555 1_555
O15 B10 1_555 1_555
O16 B7 1_555 1_555
O17 B7 1_555 1_555
O18 B8 1_555 1_555
H25 O18 1_555 1_555
O19 B6 1_555 1_555
O20 B9 1_555 1_555
H26 O20 1_555 1_555
O21 B10 1_555 1_555
H27 O21 1_555 1_555
H28 O17 1_555 1_555
C2 N2 1_555 1_555
C3 N1 1_555 1_555
B4 O4 1_555 1_555
B5 O9 1_555 1_555
B8 O16 1_555 1_555
B9 O19 1_555 1_555

#END
