
#######################################################################
#
#                 Cambridge Crystallographic Data Centre
#                                CCDC 
#
#######################################################################
#
# If this CIF has been generated from an entry in the Cambridge 
# Structural Database, then it will include bibliographic, chemical, 
# crystal, experimental, refinement or atomic coordinate data resulting 
# from the CCDC's data processing and validation procedures.
#
#######################################################################

data_SUNDUC
_chemical_name_common            'dimethylammonium ethyl xanthate'
_chemical_formula_moiety         'C3 H5 O1 S2 1-,C2 H8 N1 1+'
_chemical_name_systematic        'dimethylammonium O-ethyl carbonodithioate'
_symmetry_cell_setting           monoclinic
_symmetry_space_group_name_H-M   'P 21/c'
_symmetry_Int_Tables_number      14
_space_group_name_Hall           '-P 2ybc'
loop_
_symmetry_equiv_pos_site_id
_symmetry_equiv_pos_as_xyz
1 x,y,z
2 -x,1/2+y,1/2-z
3 -x,-y,-z
4 x,1/2-y,1/2+z
_cell_length_a                   7.2440(2)
_cell_length_b                   13.1883(3)
_cell_length_c                   9.4863(2)
_cell_angle_alpha                90
_cell_angle_beta                 93.796(2)
_cell_angle_gamma                90
_cell_volume                     904.295
_exptl_crystal_colour            yellow
_exptl_crystal_description       needles
_cell_formula_units_Z            4
_chemical_properties_physical    Moisture-sensitive
_exptl_crystal_recrystallization_method Methanol
loop_
_atom_site_label
_atom_site_type_symbol
_atom_site_fract_x
_atom_site_fract_y
_atom_site_fract_z
S1 S 0.97451(7) 0.66106(4) 0.24439(5)
S2 S 0.67644(7) 0.50363(4) 0.22570(5)
O1 O 0.64303(19) 0.69572(10) 0.14622(14)
C1 C 0.4533(3) 0.67047(15) 0.0984(2)
H1 H 0.3805 0.6542 0.1802
H2 H 0.4514 0.6108 0.0350
C2 C 0.7544(3) 0.62213(14) 0.20261(19)
C3 C 0.3725(3) 0.76141(19) 0.0207(3)
H3 H 0.3723 0.8194 0.0852
H4 H 0.2454 0.7463 -0.0149
H5 H 0.4473 0.7776 -0.0587
N1 N 1.0888(2) 0.40201(12) 0.28185(17)
H6 H 1.0611 0.3346 0.2942
H7 H 0.9792 0.4375 0.2771
C4 C 1.2053(3) 0.43758(17) 0.4066(2)
H8 H 1.3228 0.4004 0.4125
H9 H 1.1406 0.4255 0.4925
H10 H 1.2297 0.5103 0.3972
C5 C 1.1761(3) 0.41377(18) 0.1460(2)
H11 H 1.2008 0.4857 0.1296
H12 H 1.0926 0.3875 0.0691
H13 H 1.2926 0.3758 0.1496
loop_
_geom_bond_atom_site_label_1
_geom_bond_atom_site_label_2
_geom_bond_site_symmetry_1
_geom_bond_site_symmetry_2
S1 C2 1_555 1_555
S2 C2 1_555 1_555
O1 C1 1_555 1_555
C1 H1 1_555 1_555
H2 C1 1_555 1_555
C2 O1 1_555 1_555
C3 C1 1_555 1_555
H3 C3 1_555 1_555
H4 C3 1_555 1_555
H5 C3 1_555 1_555
N1 H6 1_555 1_555
H7 N1 1_555 1_555
C4 N1 1_555 1_555
H8 C4 1_555 1_555
H9 C4 1_555 1_555
H10 C4 1_555 1_555
C5 N1 1_555 1_555
H11 C5 1_555 1_555
H12 C5 1_555 1_555
H13 C5 1_555 1_555

#END
