
#######################################################################
#
#                 Cambridge Crystallographic Data Centre
#                                CCDC 
#
#######################################################################
#
# If this CIF has been generated from an entry in the Cambridge 
# Structural Database, then it will include bibliographic, chemical, 
# crystal, experimental, refinement or atomic coordinate data resulting 
# from the CCDC's data processing and validation procedures.
#
#######################################################################

data_SUNFIS
_chemical_name_common            'tetraethylammonium ethyl xanthate'
_chemical_formula_moiety         'C8 H20 N1 1+,C3 H5 O1 S2 1-'
_chemical_name_systematic        'tetraethylammonium O-ethyl carbonodithioate'
_symmetry_cell_setting           monoclinic
_symmetry_space_group_name_H-M   'P 21/m'
_symmetry_Int_Tables_number      11
_space_group_name_Hall           '-P 2yb'
loop_
_symmetry_equiv_pos_site_id
_symmetry_equiv_pos_as_xyz
1 x,y,z
2 -x,1/2+y,-z
3 -x,-y,-z
4 x,1/2-y,z
_cell_length_a                   7.2350(14)
_cell_length_b                   12.946(3)
_cell_length_c                   15.524(3)
_cell_angle_alpha                90
_cell_angle_beta                 100.15(3)
_cell_angle_gamma                90
_cell_volume                     1431.29
_exptl_crystal_colour            yellow
_exptl_crystal_description       needles
_cell_formula_units_Z            4
_exptl_crystal_recrystallization_method Methanol
loop_
_atom_site_label
_atom_site_type_symbol
_atom_site_fract_x
_atom_site_fract_y
_atom_site_fract_z
S1 S 0.80217(7) 0.2500 0.08049(4)
S2 S 0.63928(7) 0.2500 0.24611(3)
O1 O 0.4412(2) 0.2500 0.09280(9)
C1 C 0.6227(3) 0.2500 0.13557(14)
C2 C 0.4026(3) 0.2500 -0.00160(13)
H1 H 0.4573 0.1879 -0.0246
C3 C 0.1920(3) 0.2500 -0.02856(14)
H1C H 0.4573 0.3121 -0.0246
S3 S 0.08454(7) 0.2500 0.59720(4)
S4 S 0.37759(8) 0.2500 0.76120(3)
O2 O 0.4544(2) 0.2500 0.60695(9)
C4 C 0.3071(3) 0.2500 0.65129(14)
C5 C 0.4168(3) 0.2500 0.51259(13)
H2 H 0.3437 0.3121 0.4904
C6 C 0.6038(3) 0.2500 0.48273(15)
H2C H 0.3437 0.1879 0.4904
C7 C 0.2280(2) 0.44009(12) 0.17792(10)
H3 H 0.3371 0.3969 0.2031
H4 H 0.1304 0.3935 0.1464
N1 N 0.15131(17) 0.49117(9) 0.25250(8)
C8 C 0.0861(2) 0.40421(12) 0.30500(10)
H5 H 0.1932 0.3570 0.3241
H6 H -0.0121 0.3645 0.2663
C9 C 0.0082(2) 0.43817(15) 0.38505(12)
H7 H -0.0284 0.3772 0.4156
H8 H -0.1019 0.4823 0.3669
H9 H 0.1045 0.4769 0.4244
C10 C 0.2996(2) 0.55723(11) 0.30843(10)
H10 H 0.3454 0.6092 0.2704
H11 H 0.2400 0.5950 0.3518
C11 C -0.1735(2) 0.51498(12) 0.15839(11)
H12 H -0.2236 0.4587 0.1896
H13 H -0.1317 0.4875 0.1062
H14 H -0.2718 0.5667 0.1408
C12 C -0.0090(2) 0.56461(11) 0.21783(10)
H15 H -0.0549 0.5961 0.2682
H16 H 0.0406 0.6210 0.1853
C13 C 0.2883(3) 0.51392(15) 0.11251(12)
H17 H 0.3483 0.4751 0.0707
H18 H 0.3777 0.5641 0.1434
H19 H 0.1781 0.5504 0.0810
C14 C 0.4668(2) 0.49774(12) 0.35691(12)
H20 H 0.5202 0.4549 0.3154
H21 H 0.4261 0.4535 0.4012
H22 H 0.5620 0.5464 0.3854
H23? H 0.4573 0.1879 -0.0246
H24? H 0.3437 0.3121 0.4904
H25? H 0.5843 0.2583 0.4190
H26? H 0.6683 0.1845 0.4991
H27? H 0.6805 0.3073 0.5106
H28? H 0.1592 0.2395 -0.0919
H29? H 0.1416 0.3164 -0.0130
H30? H 0.1384 0.1941 0.0018
loop_
_geom_bond_atom_site_label_1
_geom_bond_atom_site_label_2
_geom_bond_site_symmetry_1
_geom_bond_site_symmetry_2
S1 C1 1_555 1_555
S2 C1 1_555 1_555
O1 C1 1_555 1_555
C2 O1 1_555 1_555
H1 C2 1_555 1_555
C3 C2 1_555 1_555
S3 C4 1_555 1_555
S4 C4 1_555 1_555
O2 C4 1_555 1_555
C5 O2 1_555 1_555
H2 C5 1_555 1_555
C6 C5 1_555 1_555
C7 H3 1_555 1_555
H4 C7 1_555 1_555
N1 C7 1_555 1_555
C8 N1 1_555 1_555
H5 C8 1_555 1_555
H6 C8 1_555 1_555
C9 C8 1_555 1_555
H7 C9 1_555 1_555
H8 C9 1_555 1_555
H9 C9 1_555 1_555
C10 N1 1_555 1_555
H10 C10 1_555 1_555
H11 C10 1_555 1_555
C11 H12 1_555 1_555
H13 C11 1_555 1_555
H14 C11 1_555 1_555
C12 N1 1_555 1_555
H15 C12 1_555 1_555
H16 C12 1_555 1_555
C13 C7 1_555 1_555
H17 C13 1_555 1_555
H18 C13 1_555 1_555
H19 C13 1_555 1_555
C14 C10 1_555 1_555
H20 C14 1_555 1_555
H21 C14 1_555 1_555
H22 C14 1_555 1_555
H1C C2 1_555 1_555
H2C C5 1_555 1_555
C11 C12 1_555 1_555

#END
