
#######################################################################
#
#                 Cambridge Crystallographic Data Centre
#                                CCDC 
#
#######################################################################
#
# If this CIF has been generated from an entry in the Cambridge 
# Structural Database, then it will include bibliographic, chemical, 
# crystal, experimental, refinement or atomic coordinate data resulting 
# from the CCDC's data processing and validation procedures.
#
#######################################################################

data_SUNFOY
_chemical_name_common            'tetrapropylammonium ethyl xanthate'
_chemical_formula_moiety         'C12 H28 N1 1+,C3 H5 O1 S2 1-'
_chemical_name_systematic        'tetrapropylammonium O-ethyl carbonodithioate'
_symmetry_cell_setting           monoclinic
_symmetry_space_group_name_H-M   'P 21'
_symmetry_Int_Tables_number      4
_space_group_name_Hall           'P 2yb'
loop_
_symmetry_equiv_pos_site_id
_symmetry_equiv_pos_as_xyz
1 x,y,z
2 -x,1/2+y,-z
_cell_length_a                   9.6050(19)
_cell_length_b                   15.326(3)
_cell_length_c                   12.537(3)
_cell_angle_alpha                90
_cell_angle_beta                 92.96(3)
_cell_angle_gamma                90
_cell_volume                     1843.06
_exptl_crystal_colour            yellow
_exptl_crystal_description       needles
_cell_formula_units_Z            4
_exptl_crystal_recrystallization_method Methanol
loop_
_atom_site_label
_atom_site_type_symbol
_atom_site_fract_x
_atom_site_fract_y
_atom_site_fract_z
S1 S 0.68649(13) 0.25469(8) 0.37536(10)
S2 S 0.37605(14) 0.24187(9) 0.33710(11)
O1 O 0.5695(4) 0.1970(3) 0.2032(3)
C1 C 0.5417(5) 0.2316(3) 0.3020(4)
C2 C 0.4570(7) 0.1676(5) 0.1301(5)
H1 H 0.4081 0.2183 0.0967
H2 H 0.3888 0.1331 0.1690
C3 C 0.5196(7) 0.1128(6) 0.0466(6)
H3 H 0.5942 0.1454 0.0142
H4 H 0.4476 0.0976 -0.0085
H5 H 0.5579 0.0593 0.0793
S3 S 0.17689(14) 0.10022(9) 0.88295(10)
S4 S -0.13153(15) 0.11208(10) 0.83078(13)
O2 O 0.0715(4) 0.1591(3) 0.7068(3)
C4 C 0.0339(6) 0.1253(3) 0.8027(4)
C5 C -0.0364(6) 0.1832(4) 0.6289(5)
H6 H -0.0947 0.2304 0.6569
H7 H -0.0969 0.1324 0.6108
C6 C 0.0364(8) 0.2142(6) 0.5308(6)
H8 H 0.0937 0.2655 0.5494
H9 H -0.0335 0.2297 0.4743
H10 H 0.0960 0.1675 0.5055
N1 N -0.0332(4) 0.3195(3) 0.0853(3)
C7 C 0.0602(6) 0.0893(3) 0.1956(4)
H11 H 0.0883 0.0627 0.1290
H12 H 0.0121 0.0459 0.2376
H13 H 0.1431 0.1104 0.2367
C8 C 0.0654(5) 0.3794(3) 0.0294(4)
H14 H 0.1526 0.3845 0.0747
H15 H 0.0228 0.4381 0.0243
C9 C -0.0381(5) 0.1662(4) 0.1697(5)
H16 H -0.1196 0.1464 0.1245
H17 H -0.0720 0.1914 0.2363
C10 C -0.0243(6) 0.4286(4) 0.3644(4)
H18 H -0.0589 0.4857 0.3398
H19 H 0.0475 0.4367 0.4220
H20 H -0.1014 0.3944 0.3910
C11 C -0.0758(5) 0.3647(3) 0.1861(3)
H21 H -0.1174 0.4218 0.1658
H22 H -0.1496 0.3294 0.2176
C12 C -0.1620(5) 0.3004(3) 0.0158(4)
H23 H -0.2272 0.2666 0.0584
H24 H -0.1352 0.2628 -0.0439
C13 C 0.0383(5) 0.3802(4) 0.2715(4)
H25 H 0.1138 0.4154 0.2422
H26 H 0.0781 0.3238 0.2966
C14 C -0.2393(5) 0.3796(4) -0.0309(4)
H27 H -0.2710 0.4170 0.0274
H28 H -0.1764 0.4144 -0.0743
C15 C 0.0436(5) 0.2338(3) 0.1109(4)
H29 H 0.0719 0.2078 0.0430
H30 H 0.1298 0.2473 0.1544
C16 C -0.3641(5) 0.3484(4) -0.1002(4)
H31 H -0.3316 0.3139 -0.1599
H32 H -0.4169 0.3989 -0.1280
H33 H -0.4241 0.3122 -0.0573
C17 C 0.1033(6) 0.3511(3) -0.0828(4)
H34 H 0.0212 0.3574 -0.1332
H35 H 0.1321 0.2891 -0.0819
C18 C 0.2234(5) 0.4087(4) -0.1189(4)
H36 H 0.1982 0.4703 -0.1119
H37 H 0.2406 0.3959 -0.1937
H38 H 0.3079 0.3965 -0.0742
N2 N 0.5030(4) 0.5289(3) 0.4276(3)
C19 C 0.4342(5) 0.4893(3) 0.3274(4)
H39 H 0.3603 0.5297 0.2999
H40 H 0.3881 0.4343 0.3474
C20 C 0.6040(5) 0.4629(3) 0.4783(4)
H41 H 0.6792 0.4526 0.4287
H42 H 0.5538 0.4070 0.4860
C21 C 0.5975(6) 0.7586(3) 0.3239(5)
H43 H 0.6332 0.7813 0.3931
H44 H 0.5469 0.8048 0.2842
H45 H 0.6755 0.7385 0.2829
C22 C 0.5842(5) 0.6118(3) 0.4012(4)
H46 H 0.6242 0.6370 0.4687
H47 H 0.6628 0.5952 0.3574
C23 C 0.4989(6) 0.6822(4) 0.3417(5)
H48 H 0.4206 0.7013 0.3845
H49 H 0.4602 0.6595 0.2725
C24 C 0.3911(5) 0.5539(3) 0.5031(4)
H50 H 0.4347 0.5889 0.5622
H51 H 0.3219 0.5916 0.4641
C25 C 0.3152(6) 0.4780(4) 0.5502(4)
H52 H 0.3804 0.4440 0.5978
H53 H 0.2786 0.4390 0.4924
C26 C 0.4394(6) 0.4351(4) 0.1430(4)
H54 H 0.3976 0.3794 0.1625
H55 H 0.4972 0.4263 0.0817
H56 H 0.3655 0.4772 0.1241
C27 C 0.5294(5) 0.4696(3) 0.2371(4)
H57 H 0.5786 0.5233 0.2163
H58 H 0.6000 0.4255 0.2604
C28 C 0.1959(6) 0.5121(4) 0.6131(4)
H59 H 0.2332 0.5481 0.6726
H60 H 0.1438 0.4629 0.6411
H61 H 0.1336 0.5475 0.5662
C29 C 0.7651(5) 0.4137(3) 0.6285(4)
H62 H 0.7114 0.3594 0.6291
H63 H 0.8012 0.4272 0.7012
H64 H 0.8431 0.4070 0.5818
C30 C 0.6712(6) 0.4878(4) 0.5873(4)
H65 H 0.7267 0.5418 0.5807
H66 H 0.5979 0.4990 0.6382
loop_
_geom_bond_atom_site_label_1
_geom_bond_atom_site_label_2
_geom_bond_site_symmetry_1
_geom_bond_site_symmetry_2
S1 C1 1_555 1_555
S2 C1 1_555 1_555
O1 C1 1_555 1_555
C2 O1 1_555 1_555
H1 C2 1_555 1_555
H2 C2 1_555 1_555
C3 C2 1_555 1_555
H3 C3 1_555 1_555
H4 C3 1_555 1_555
H5 C3 1_555 1_555
S3 C4 1_555 1_555
S4 C4 1_555 1_555
O2 C4 1_555 1_555
C5 O2 1_555 1_555
H6 C5 1_555 1_555
H7 C5 1_555 1_555
C6 C5 1_555 1_555
H8 C6 1_555 1_555
H9 C6 1_555 1_555
H10 C6 1_555 1_555
N1 C8 1_555 1_555
C7 H11 1_555 1_555
H12 C7 1_555 1_555
H13 C7 1_555 1_555
C8 H14 1_555 1_555
H15 C8 1_555 1_555
C9 C7 1_555 1_555
H16 C9 1_555 1_555
H17 C9 1_555 1_555
C10 H18 1_555 1_555
H19 C10 1_555 1_555
H20 C10 1_555 1_555
C11 N1 1_555 1_555
H21 C11 1_555 1_555
H22 C11 1_555 1_555
C12 N1 1_555 1_555
H23 C12 1_555 1_555
H24 C12 1_555 1_555
C13 C10 1_555 1_555
H25 C13 1_555 1_555
H26 C13 1_555 1_555
C14 C12 1_555 1_555
H27 C14 1_555 1_555
H28 C14 1_555 1_555
C15 N1 1_555 1_555
H29 C15 1_555 1_555
H30 C15 1_555 1_555
C16 C14 1_555 1_555
H31 C16 1_555 1_555
H32 C16 1_555 1_555
H33 C16 1_555 1_555
C17 C8 1_555 1_555
H34 C17 1_555 1_555
H35 C17 1_555 1_555
C18 C17 1_555 1_555
H36 C18 1_555 1_555
H37 C18 1_555 1_555
H38 C18 1_555 1_555
N2 C19 1_555 1_555
C19 H39 1_555 1_555
H40 C19 1_555 1_555
C20 N2 1_555 1_555
H41 C20 1_555 1_555
H42 C20 1_555 1_555
C21 H43 1_555 1_555
H44 C21 1_555 1_555
H45 C21 1_555 1_555
C22 N2 1_555 1_555
H46 C22 1_555 1_555
H47 C22 1_555 1_555
C23 C21 1_555 1_555
H48 C23 1_555 1_555
H49 C23 1_555 1_555
C24 N2 1_555 1_555
H50 C24 1_555 1_555
H51 C24 1_555 1_555
C25 C24 1_555 1_555
H52 C25 1_555 1_555
H53 C25 1_555 1_555
C26 H54 1_555 1_555
H55 C26 1_555 1_555
H56 C26 1_555 1_555
C27 C19 1_555 1_555
H57 C27 1_555 1_555
H58 C27 1_555 1_555
C28 C25 1_555 1_555
H59 C28 1_555 1_555
H60 C28 1_555 1_555
H61 C28 1_555 1_555
C29 H62 1_555 1_555
H63 C29 1_555 1_555
H64 C29 1_555 1_555
C30 C20 1_555 1_555
H65 C30 1_555 1_555
H66 C30 1_555 1_555
C9 C15 1_555 1_555
C11 C13 1_555 1_555
C22 C23 1_555 1_555
C26 C27 1_555 1_555
C29 C30 1_555 1_555

#END
