
#######################################################################
#
#                 Cambridge Crystallographic Data Centre
#                                CCDC 
#
#######################################################################
#
# If this CIF has been generated from an entry in the Cambridge 
# Structural Database, then it will include bibliographic, chemical, 
# crystal, experimental, refinement or atomic coordinate data resulting 
# from the CCDC's data processing and validation procedures.
#
#######################################################################

data_SUNGIR
_chemical_formula_moiety         'C18 H32 N4 2+,2(B1 F4 1-)'
_chemical_name_systematic        
'4,9-Di-t-butyl-4,9-diazonia-5,10-diaza-tetracyclo(6.2.2.2^3,6^.0^2,7^)dodeca-4,9-diene bis(tetrafluoroborate)'
_symmetry_cell_setting           monoclinic
_symmetry_space_group_name_H-M   'P 21/c'
_symmetry_Int_Tables_number      14
_space_group_name_Hall           '-P 2ybc'
loop_
_symmetry_equiv_pos_site_id
_symmetry_equiv_pos_as_xyz
1 x,y,z
2 -x,1/2+y,1/2-z
3 -x,-y,-z
4 x,1/2-y,1/2+z
_cell_length_a                   15.408(5)
_cell_length_b                   10.637(3)
_cell_length_c                   13.809(6)
_cell_angle_alpha                90
_cell_angle_beta                 93.26(3)
_cell_angle_gamma                90
_cell_volume                     2259.56
_exptl_crystal_colour            colorless
_cell_formula_units_Z            4
loop_
_atom_site_label
_atom_site_type_symbol
_atom_site_fract_x
_atom_site_fract_y
_atom_site_fract_z
C1 C 0.2831(2) -0.1072(4) 0.1589(3)
H1 H 0.3121(2) -0.1806(4) 0.1924(3)
C2 C 0.2096(3) -0.1608(4) 0.0909(3)
H2 H 0.2333(3) -0.2141(4) 0.0390(3)
C3 C 0.1422(3) -0.0656(4) 0.0480(3)
H3 H 0.1715(3) -0.0011(4) 0.0098(3)
H4 H 0.0988(3) -0.1094(4) 0.0044(3)
C4 C 0.0969(3) -0.0031(4) 0.1315(3)
H5 H 0.1006(3) 0.0895(4) 0.1258(3)
H6 H 0.0347(3) -0.0272(4) 0.1289(3)
C5 C 0.1416(3) -0.0461(4) 0.2272(3)
H7 H 0.1138(3) -0.0057(4) 0.2830(3)
C6 C 0.2413(2) -0.0294(4) 0.2376(3)
H8 H 0.2612(2) -0.0668(4) 0.3015(3)
C7 C 0.2797(2) 0.1053(4) 0.2349(3)
H9 H 0.2557(2) 0.1603(4) 0.2856(3)
C8 C 0.2744(3) 0.1697(4) 0.1346(3)
H10 H 0.2130(3) 0.1751(4) 0.1097(3)
H11 H 0.2981(3) 0.2560(4) 0.1403(3)
C9 C 0.3270(3) 0.0927(4) 0.0641(3)
H12 H 0.2908(3) 0.0737(4) 0.0044(3)
H13 H 0.3785(3) 0.1410(4) 0.0459(3)
C10 C 0.3555(3) -0.0291(4) 0.1151(3)
H14 H 0.3889(3) -0.0825(4) 0.0707(3)
N1 N 0.1601(2) -0.2381(3) 0.1594(2)
C11 C 0.1483(3) -0.3799(4) 0.1456(3)
C12 C 0.0963(3) -0.4301(5) 0.2268(4)
H15 H 0.0387(3) -0.3907(5) 0.2237(4)
H16 H 0.1266(3) -0.4107(5) 0.2893(4)
H17 H 0.0899(3) -0.5213(5) 0.2200(4)
C13 C 0.0989(3) -0.3952(5) 0.0466(4)
H18 H 0.1342(3) -0.3619(5) -0.0043(4)
H19 H 0.0438(3) -0.3490(5) 0.0465(4)
H20 H 0.0870(3) -0.4845(5) 0.0345(4)
C14 C 0.2383(3) -0.4376(4) 0.1467(4)
H21 H 0.2699(3) -0.4029(4) 0.0932(4)
H22 H 0.2332(3) -0.5290(4) 0.1392(4)
H23 H 0.2699(3) -0.4183(4) 0.2085(4)
N2 N 0.1279(2) -0.1843(3) 0.2289(2)
N3 N 0.3742(2) 0.0814(3) 0.2551(2)
C15 C 0.4254(3) 0.1406(4) 0.3417(3)
C16 C 0.3796(3) 0.1027(4) 0.4329(3)
H24 H 0.3201(3) 0.1356(4) 0.4290(3)
H25 H 0.4114(3) 0.1374(4) 0.4903(3)
H26 H 0.3781(3) 0.0108(4) 0.4378(3)
C17 C 0.5176(3) 0.0921(5) 0.3442(3)
H27 H 0.5448(3) 0.1180(5) 0.2849(3)
H28 H 0.5172(3) 0.0001(5) 0.3483(3)
H29 H 0.5505(3) 0.1268(5) 0.4008(3)
C18 C 0.4213(3) 0.2832(4) 0.3250(3)
H30 H 0.3606(3) 0.3112(4) 0.3238(3)
H31 H 0.4457(3) 0.3033(4) 0.2628(3)
H32 H 0.4549(3) 0.3262(4) 0.3775(3)
N4 N 0.4130(2) 0.0142(3) 0.1979(2)
B1 B 0.1272(2) 0.2609(4) 0.3823(3)
F1 F 0.1504(2) 0.1440(2) 0.4196(2)
F2 F 0.20086(14) 0.3350(2) 0.3780(2)
F3 F 0.0685(2) 0.3184(2) 0.4394(2)
F4 F 0.0913(2) 0.2440(3) 0.2891(2)
B2 B 0.6145(3) 0.2246(4) 0.1004(3)
F5 F 0.5990(6) 0.2957(8) 0.1816(5)
F6 F 0.5370(4) 0.1945(11) 0.0504(5)
F7 F 0.6595(6) 0.1165(8) 0.1278(7)
F8 F 0.6662(5) 0.2959(7) 0.0417(6)
B3? B 0.6145(3) 0.2246(4) 0.1004(3)
F9? F 0.5495(8) 0.1434(15) 0.0667(10)
F10? F 0.6790(9) 0.1588(17) 0.1522(8)
F11? F 0.5794(7) 0.3148(8) 0.1603(8)
F12? F 0.6490(10) 0.2861(11) 0.0227(8)
B4? B 0.6300(4) 0.2182(6) 0.1046(4)
F13? F 0.5863(9) 0.2955(13) 0.1663(9)
F14? F 0.5907(12) 0.1015(11) 0.0992(11)
F15? F 0.7163(6) 0.2068(19) 0.1382(9)
F16? F 0.6273(13) 0.2724(12) 0.0123(6)
B5? B 0.6300(4) 0.2182(6) 0.1046(4)
F17? F 0.6223(15) 0.0894(6) 0.1201(10)
F18? F 0.5969(13) 0.2470(16) 0.0118(6)
F19? F 0.7163(6) 0.2525(20) 0.1158(14)
F20? F 0.5818(9) 0.2806(13) 0.1720(9)
loop_
_geom_bond_atom_site_label_1
_geom_bond_atom_site_label_2
_geom_bond_site_symmetry_1
_geom_bond_site_symmetry_2
C1 H1 1_555 1_555
C2 C1 1_555 1_555
H2 C2 1_555 1_555
C3 C2 1_555 1_555
H3 C3 1_555 1_555
H4 C3 1_555 1_555
C4 C3 1_555 1_555
H5 C4 1_555 1_555
H6 C4 1_555 1_555
C5 C4 1_555 1_555
H7 C5 1_555 1_555
C6 C1 1_555 1_555
H8 C6 1_555 1_555
C7 C6 1_555 1_555
H9 C7 1_555 1_555
C8 C7 1_555 1_555
H10 C8 1_555 1_555
H11 C8 1_555 1_555
C9 C8 1_555 1_555
H12 C9 1_555 1_555
H13 C9 1_555 1_555
C10 C1 1_555 1_555
H14 C10 1_555 1_555
N1 C2 1_555 1_555
C11 N1 1_555 1_555
C12 C11 1_555 1_555
H15 C12 1_555 1_555
H16 C12 1_555 1_555
H17 C12 1_555 1_555
C13 C11 1_555 1_555
H18 C13 1_555 1_555
H19 C13 1_555 1_555
H20 C13 1_555 1_555
C14 C11 1_555 1_555
H21 C14 1_555 1_555
H22 C14 1_555 1_555
H23 C14 1_555 1_555
N2 C5 1_555 1_555
N3 C7 1_555 1_555
C15 N3 1_555 1_555
C16 C15 1_555 1_555
H24 C16 1_555 1_555
H25 C16 1_555 1_555
H26 C16 1_555 1_555
C17 C15 1_555 1_555
H27 C17 1_555 1_555
H28 C17 1_555 1_555
H29 C17 1_555 1_555
C18 C15 1_555 1_555
H30 C18 1_555 1_555
H31 C18 1_555 1_555
H32 C18 1_555 1_555
N4 C10 1_555 1_555
B1 F1 1_555 1_555
F2 B1 1_555 1_555
F3 B1 1_555 1_555
F4 B1 1_555 1_555
B2 F5 1_555 1_555
F6 B2 1_555 1_555
F7 B2 1_555 1_555
F8 B2 1_555 1_555
C5 C6 1_555 1_555
C9 C10 1_555 1_555
N1 N2 1_555 1_555
N3 N4 1_555 1_555

#END
