
#######################################################################
#
#                 Cambridge Crystallographic Data Centre
#                                CCDC 
#
#######################################################################
#
# If this CIF has been generated from an entry in the Cambridge 
# Structural Database, then it will include bibliographic, chemical, 
# crystal, experimental, refinement or atomic coordinate data resulting 
# from the CCDC's data processing and validation procedures.
#
#######################################################################

data_SUNJOA
_chemical_formula_moiety         'C22 H24 N1 O2 1+,Br1 1-'
_chemical_name_systematic        
'(E)-8-Benzylidene-5-(3-hydroxyphenyl)-2-methyl-2-azabicyclo(3.3.1)nonan-7-one hydrobromide'
_symmetry_cell_setting           orthorhombic
_symmetry_space_group_name_H-M   'P n a 21'
_symmetry_Int_Tables_number      33
_space_group_name_Hall           'P 2c -2n'
loop_
_symmetry_equiv_pos_site_id
_symmetry_equiv_pos_as_xyz
1 x,y,z
2 1/2-x,1/2+y,1/2+z
3 1/2+x,1/2-y,z
4 -x,-y,1/2+z
_cell_length_a                   13.216(7)
_cell_length_b                   19.279(9)
_cell_length_c                   7.717(5)
_cell_angle_alpha                90
_cell_angle_beta                 90
_cell_angle_gamma                90
_cell_volume                     1966.22
_exptl_crystal_colour            colorless
_chemical_melting_point          205-207deg.C
_cell_formula_units_Z            4
loop_
_atom_site_label
_atom_site_type_symbol
_atom_site_fract_x
_atom_site_fract_y
_atom_site_fract_z
Br1 Br 0.80094(8) 0.72060(5) 0.1903(2)
C1 C 0.8910(7) 1.2491(5) 0.1377(15)
H1 H 0.8478(7) 1.2869(5) 0.1798(15)
N1 N 0.8893(6) 1.2493(4) -0.0589(13)
H2 H 0.8234(6) 1.2446(4) -0.0911(13)
C2 C 0.9451(8) 1.1898(5) -0.1374(15)
H3 H 1.0170(8) 1.1955(5) -0.1163(15)
H4 H 0.9344(8) 1.1898(5) -0.2617(15)
C3 C 0.9105(7) 1.1207(5) -0.0629(14)
H5 H 0.9545(7) 1.0842(5) -0.1053(14)
H6 H 0.8425(7) 1.1109(5) -0.1034(14)
C4 C 0.9113(7) 1.1201(5) 0.1371(12)
C5 C 1.0204(5) 1.1290(4) 0.2052(21)
H7 H 1.0209(5) 1.1155(4) 0.3263(21)
H8 H 1.0632(5) 1.0964(4) 0.1436(21)
C6 C 1.0686(7) 1.1993(4) 0.1920(23)
C7 C 0.9977(7) 1.2600(4) 0.2072(22)
C8 C 0.8479(5) 1.1809(4) 0.2005(24)
H9 H 0.7791(5) 1.1760(4) 0.1587(24)
H10 H 0.8461(5) 1.1808(4) 0.3262(24)
C9 C 1.0305(7) 1.3192(5) 0.2728(13)
H11 H 1.0971(7) 1.3186(5) 0.3115(13)
C10 C 0.9779(7) 1.3858(5) 0.2940(14)
C11 C 1.0250(8) 1.4462(5) 0.2343(15)
H12 H 1.0907(8) 1.4438(5) 0.1916(15)
C12 C 0.9747(11) 1.5105(6) 0.2375(17)
H13 H 1.0067(11) 1.5497(6) 0.1933(17)
C13 C 0.8802(10) 1.5160(7) 0.3044(17)
H14 H 0.8475(10) 1.5586(7) 0.3088(17)
C14 C 0.8339(8) 1.4575(7) 0.3651(17)
H15 H 0.7688(8) 1.4611(7) 0.4101(17)
C15 C 0.8799(8) 1.3933(6) 0.3621(16)
H16 H 0.8459(8) 1.3548(6) 0.4053(16)
C16 C 0.8726(6) 1.0498(5) 0.2041(25)
C17 C 0.9029(7) 0.9894(5) 0.1241(14)
H17 H 0.9481(7) 0.9916(5) 0.0319(14)
C18 C 0.8668(7) 0.9253(5) 0.1792(22)
C19 C 0.8065(8) 0.9194(6) 0.3229(15)
H18 H 0.7858(8) 0.8764(6) 0.3645(15)
C20 C 0.7780(8) 0.9801(6) 0.4023(17)
H19 H 0.7365(8) 0.9779(6) 0.4995(17)
C21 C 0.8087(8) 1.0443(6) 0.3432(16)
H20 H 0.7858(8) 1.0842(6) 0.3984(16)
O1 O 1.1596(4) 1.2072(3) 0.1837(17)
O2 O 0.9004(7) 0.8688(4) 0.0930(11)
H21 H 0.8789(7) 0.8336(4) 0.1402(11)
C22 C 0.9255(8) 1.3170(5) -0.1334(16)
H22 H 0.8885(8) 1.3545(5) -0.0817(16)
H23 H 0.9148(8) 1.3171(5) -0.2564(16)
H24 H 0.9963(8) 1.3225(5) -0.1095(16)
loop_
_geom_bond_atom_site_label_1
_geom_bond_atom_site_label_2
_geom_bond_site_symmetry_1
_geom_bond_site_symmetry_2
C1 H1 1_555 1_555
N1 C1 1_555 1_555
H2 N1 1_555 1_555
C2 N1 1_555 1_555
H3 C2 1_555 1_555
H4 C2 1_555 1_555
C3 C2 1_555 1_555
H5 C3 1_555 1_555
H6 C3 1_555 1_555
C4 C3 1_555 1_555
C5 C4 1_555 1_555
H7 C5 1_555 1_555
H8 C5 1_555 1_555
C6 C5 1_555 1_555
C7 C1 1_555 1_555
C8 C1 1_555 1_555
H9 C8 1_555 1_555
H10 C8 1_555 1_555
C9 C7 1_555 1_555
H11 C9 1_555 1_555
C10 C9 1_555 1_555
C11 C10 1_555 1_555
H12 C11 1_555 1_555
C12 C11 1_555 1_555
H13 C12 1_555 1_555
C13 C12 1_555 1_555
H14 C13 1_555 1_555
C14 C13 1_555 1_555
H15 C14 1_555 1_555
C15 C10 1_555 1_555
H16 C15 1_555 1_555
C16 C4 1_555 1_555
C17 C16 1_555 1_555
H17 C17 1_555 1_555
C18 C17 1_555 1_555
C19 C18 1_555 1_555
H18 C19 1_555 1_555
C20 C19 1_555 1_555
H19 C20 1_555 1_555
C21 C16 1_555 1_555
H20 C21 1_555 1_555
O1 C6 1_555 1_555
O2 C18 1_555 1_555
H21 O2 1_555 1_555
C22 N1 1_555 1_555
H22 C22 1_555 1_555
H23 C22 1_555 1_555
H24 C22 1_555 1_555
C4 C8 1_555 1_555
C6 C7 1_555 1_555
C14 C15 1_555 1_555
C20 C21 1_555 1_555

#END
