
#######################################################################
#
#                 Cambridge Crystallographic Data Centre
#                                CCDC 
#
#######################################################################
#
# If this CIF has been generated from an entry in the Cambridge 
# Structural Database, then it will include bibliographic, chemical, 
# crystal, experimental, refinement or atomic coordinate data resulting 
# from the CCDC's data processing and validation procedures.
#
#######################################################################

data_SUNREY
_chemical_formula_moiety         'C22 H24 N2'
_chemical_name_systematic        
2-(1-Phenylethyl)pyrrolidino(3,4-d)piperidino(1,2-a)indole
_symmetry_cell_setting           orthorhombic
_symmetry_space_group_name_H-M   'P 21 21 21'
_symmetry_Int_Tables_number      19
_space_group_name_Hall           'P 2ac 2ab'
loop_
_symmetry_equiv_pos_site_id
_symmetry_equiv_pos_as_xyz
1 x,y,z
2 1/2+x,1/2-y,-z
3 -x,1/2+y,1/2-z
4 1/2-x,-y,1/2+z
_cell_length_a                   6.6600(10)
_cell_length_b                   13.780(3)
_cell_length_c                   18.675(2)
_cell_angle_alpha                90
_cell_angle_beta                 90
_cell_angle_gamma                90
_cell_volume                     1713.89
_cell_formula_units_Z            4
loop_
_atom_site_label
_atom_site_type_symbol
_atom_site_fract_x
_atom_site_fract_y
_atom_site_fract_z
N1 N 0.1228(3) 0.63550(14) 0.24987(10)
C1 C 0.0135(4) 0.5699(2) 0.29907(12)
H1 H -0.0039(4) 0.5049(2) 0.27739(12)
H2 H -0.1203(4) 0.5967(2) 0.31109(12)
C2 C 0.1478(4) 0.5645(2) 0.36620(12)
H3 H 0.2181(4) 0.5003(2) 0.36592(12)
C3 C 0.0498(4) 0.5773(2) 0.43862(11)
H4 H -0.0476(4) 0.6315(2) 0.43664(11)
H5 H -0.0239(4) 0.5175(2) 0.45178(11)
N2 N 0.2039(3) 0.59799(14) 0.49252(10)
C4 C 0.1666(4) 0.6096(2) 0.56477(12)
C5 C -0.0078(4) 0.5900(2) 0.60356(12)
H6 H -0.1240(4) 0.5641(2) 0.58104(12)
C6 C -0.0044(5) 0.6097(2) 0.67622(13)
H7 H -0.1206(5) 0.5973(2) 0.70429(13)
C7 C 0.1677(5) 0.6476(2) 0.70898(12)
H8 H 0.1658(5) 0.6602(2) 0.75899(12)
C8 C 0.3392(4) 0.6670(2) 0.67071(13)
H9 H 0.4543(4) 0.6930(2) 0.69382(13)
C9 C 0.3417(4) 0.6477(2) 0.59691(12)
C10 C 0.4839(4) 0.6605(2) 0.54089(12)
H10 H 0.6160(4) 0.6857(2) 0.54601(12)
C11 C 0.3977(4) 0.6303(2) 0.47860(13)
C12 C 0.4790(4) 0.6311(2) 0.40382(12)
H11 H 0.5497(4) 0.5694(2) 0.39366(12)
H12 H 0.5753(4) 0.6852(2) 0.39784(12)
C13 C 0.3041(4) 0.6435(2) 0.35338(12)
H13 H 0.2399(4) 0.7075(2) 0.36398(12)
C14 C 0.3334(4) 0.6365(2) 0.27302(12)
H14 H 0.4066(4) 0.6934(2) 0.25382(12)
H15 H 0.4044(4) 0.5763(2) 0.25924(12)
C15 C 0.0939(4) 0.6182(2) 0.17321(12)
H16 H 0.1483(4) 0.5527(2) 0.16073(12)
C16 C -0.1293(5) 0.6217(2) 0.15434(14)
H17 H -0.2012(5) 0.5717(2) 0.18148(14)
H18 H -0.1464(5) 0.6099(2) 0.10295(14)
H19 H -0.1835(5) 0.6858(2) 0.16651(14)
C17 C 0.2088(4) 0.6949(2) 0.13193(12)
C18 C 0.1822(4) 0.7928(2) 0.14810(13)
H20 H 0.0871(4) 0.8113(2) 0.18348(13)
C19 C 0.2925(5) 0.8629(2) 0.11323(13)
H21 H 0.2743(5) 0.9293(2) 0.12540(13)
C20 C 0.4291(5) 0.8379(2) 0.06083(14)
H22 H 0.5049(5) 0.8866(2) 0.03699(14)
C21 C 0.4543(4) 0.7414(2) 0.04348(14)
H23 H 0.5463(4) 0.7235(2) 0.00693(14)
C22 C 0.3455(4) 0.6703(2) 0.07933(12)
H24 H 0.3654(4) 0.6040(2) 0.06749(12)
loop_
_geom_bond_atom_site_label_1
_geom_bond_atom_site_label_2
_geom_bond_site_symmetry_1
_geom_bond_site_symmetry_2
N1 C1 1_555 1_555
C1 H1 1_555 1_555
H2 C1 1_555 1_555
C2 C1 1_555 1_555
H3 C2 1_555 1_555
C3 C2 1_555 1_555
H4 C3 1_555 1_555
H5 C3 1_555 1_555
N2 C3 1_555 1_555
C4 N2 1_555 1_555
C5 C4 1_555 1_555
H6 C5 1_555 1_555
C6 C5 1_555 1_555
H7 C6 1_555 1_555
C7 C6 1_555 1_555
H8 C7 1_555 1_555
C8 C7 1_555 1_555
H9 C8 1_555 1_555
C9 C4 1_555 1_555
C10 C9 1_555 1_555
H10 C10 1_555 1_555
C11 N2 1_555 1_555
C12 C11 1_555 1_555
H11 C12 1_555 1_555
H12 C12 1_555 1_555
C13 C2 1_555 1_555
H13 C13 1_555 1_555
C14 N1 1_555 1_555
H14 C14 1_555 1_555
H15 C14 1_555 1_555
C15 N1 1_555 1_555
H16 C15 1_555 1_555
C16 C15 1_555 1_555
H17 C16 1_555 1_555
H18 C16 1_555 1_555
H19 C16 1_555 1_555
C17 C15 1_555 1_555
C18 C17 1_555 1_555
H20 C18 1_555 1_555
C19 C18 1_555 1_555
H21 C19 1_555 1_555
C20 C19 1_555 1_555
H22 C20 1_555 1_555
C21 C20 1_555 1_555
H23 C21 1_555 1_555
C22 C17 1_555 1_555
H24 C22 1_555 1_555
C8 C9 1_555 1_555
C10 C11 1_555 1_555
C12 C13 1_555 1_555
C13 C14 1_555 1_555
C21 C22 1_555 1_555

#END
