
#######################################################################
#
#                 Cambridge Crystallographic Data Centre
#                                CCDC 
#
#######################################################################
#
# If this CIF has been generated from an entry in the Cambridge 
# Structural Database, then it will include bibliographic, chemical, 
# crystal, experimental, refinement or atomic coordinate data resulting 
# from the CCDC's data processing and validation procedures.
#
#######################################################################

data_SUNSUQ
_chemical_name_common            1-Bromo-4-phenyl-3-isoquinolinamine
_chemical_formula_moiety         'C15 H11 Br1 N2'
_chemical_name_systematic        1-Bromo-4-phenylisoquinolin-3-amine
_symmetry_cell_setting           triclinic
_symmetry_space_group_name_H-M   'P -1'
_symmetry_Int_Tables_number      2
_space_group_name_Hall           '-P 1'
loop_
_symmetry_equiv_pos_site_id
_symmetry_equiv_pos_as_xyz
1 x,y,z
2 -x,-y,-z
_cell_length_a                   5.8588(3)
_cell_length_b                   10.2832(4)
_cell_length_c                   11.0885(5)
_cell_angle_alpha                114.0905(16)
_cell_angle_beta                 99.572(2)
_cell_angle_gamma                92.5391(18)
_cell_volume                     596.687
_exptl_crystal_colour            'pale yellow'
_exptl_crystal_description       prism
_cell_formula_units_Z            2
_exptl_crystal_recrystallization_method ethanol
_exptl_crystal_preparation       fluorescent
loop_
_atom_site_label
_atom_site_type_symbol
_atom_site_fract_x
_atom_site_fract_y
_atom_site_fract_z
Br1 Br 0.77128(2) 0.147001(12) 0.862885(12)
N1 N 0.76011(18) 0.41948(11) 1.04806(10)
N2 N 0.68271(20) 0.64504(12) 1.18079(12)
C1 C 0.8900(2) 0.31580(12) 1.02511(12)
C2 C 0.82707(20) 0.54098(12) 1.16567(12)
C3 C 1.02372(20) 0.55514(12) 1.26212(12)
C4 C 1.16618(20) 0.44247(12) 1.23232(12)
C5 C 1.3741(2) 0.44703(13) 1.32203(12)
C6 C 1.5114(2) 0.33797(14) 1.28768(13)
C7 C 1.4473(2) 0.21608(14) 1.16320(13)
C8 C 1.2450(2) 0.20439(13) 1.07592(13)
C9 C 1.1016(2) 0.31693(13) 1.10803(12)
C10 C 1.07693(20) 0.68414(12) 1.39433(12)
C11 C 0.9226(2) 0.70978(14) 1.48320(13)
C12 C 0.9677(2) 0.82858(14) 1.60711(13)
C13 C 1.1683(2) 0.92457(13) 1.64460(13)
C14 C 1.3237(2) 0.89950(13) 1.55852(13)
C15 C 1.2800(2) 0.78092(13) 1.43447(13)
H1 H 0.566(3) 0.629(2) 1.1124(20)
H2 H 0.731(3) 0.729(2) 1.2432(19)
H3 H 1.408(3) 0.5252(17) 1.4055(16)
H4 H 1.653(3) 0.3457(19) 1.3524(18)
H5 H 1.550(3) 0.1365(19) 1.1440(17)
H6 H 1.200(3) 0.116(2) 0.9954(18)
H7 H 0.780(3) 0.6373(19) 1.4573(17)
H8 H 0.864(3) 0.831(2) 1.6556(19)
H9 H 1.198(3) 1.0027(19) 1.7235(18)
H10 H 1.466(3) 0.968(2) 1.5851(19)
H11 H 1.393(3) 0.7603(19) 1.3742(17)
loop_
_geom_bond_atom_site_label_1
_geom_bond_atom_site_label_2
_geom_bond_site_symmetry_1
_geom_bond_site_symmetry_2
Br1 C1 1_555 1_555
N1 C1 1_555 1_555
N2 C2 1_555 1_555
C1 C9 1_555 1_555
C2 N1 1_555 1_555
C3 C2 1_555 1_555
C4 C3 1_555 1_555
C5 C4 1_555 1_555
C6 C5 1_555 1_555
C7 C6 1_555 1_555
C8 C7 1_555 1_555
C9 C4 1_555 1_555
C10 C3 1_555 1_555
C11 C10 1_555 1_555
C12 C11 1_555 1_555
C13 C12 1_555 1_555
C14 C13 1_555 1_555
C15 C10 1_555 1_555
H1 N2 1_555 1_555
H2 N2 1_555 1_555
H3 C5 1_555 1_555
H4 C6 1_555 1_555
H5 C7 1_555 1_555
H6 C8 1_555 1_555
H7 C11 1_555 1_555
H8 C12 1_555 1_555
H9 C13 1_555 1_555
H10 C14 1_555 1_555
H11 C15 1_555 1_555
C8 C9 1_555 1_555
C14 C15 1_555 1_555

#END
