
#######################################################################
#
#                 Cambridge Crystallographic Data Centre
#                                CCDC 
#
#######################################################################
#
# If this CIF has been generated from an entry in the Cambridge 
# Structural Database, then it will include bibliographic, chemical, 
# crystal, experimental, refinement or atomic coordinate data resulting 
# from the CCDC's data processing and validation procedures.
#
#######################################################################

data_SUNSAW
_chemical_formula_moiety         'C30 H23 N2 O1 P1,C6 H6'
_chemical_name_systematic        
"N-Methyl-P,P-diphenyl-N'-(1-pyrenylmethylene)phosphinic hydrazide benzene solvate"
_symmetry_cell_setting           triclinic
_symmetry_space_group_name_H-M   'P -1'
_symmetry_Int_Tables_number      2
_space_group_name_Hall           '-P 1'
loop_
_symmetry_equiv_pos_site_id
_symmetry_equiv_pos_as_xyz
1 x,y,z
2 -x,-y,-z
_cell_length_a                   8.4772(11)
_cell_length_b                   10.2534(13)
_cell_length_c                   17.442(2)
_cell_angle_alpha                77.418(2)
_cell_angle_beta                 88.766(2)
_cell_angle_gamma                65.632(2)
_cell_volume                     1343.85
_chemical_melting_point          '180 deg.C'
_cell_formula_units_Z            2
_exptl_crystal_recrystallization_method benzene
_exptl_crystal_preparation       fluorescent
loop_
_atom_site_label
_atom_site_type_symbol
_atom_site_fract_x
_atom_site_fract_y
_atom_site_fract_z
C1 C -0.2418(4) 0.5191(3) 0.04626(15)
H1 H -0.3224 0.6021 0.0645
H2 H -0.3044 0.4753 0.0236
H3 H -0.1757 0.5508 0.0072
C2 C 0.0033(3) 0.5676(3) 0.12622(15)
H4 H -0.0836 0.6426 0.0905
C3 C -0.2372(3) 0.1960(3) 0.10628(14)
C4 C -0.2138(3) 0.0780(3) 0.07353(15)
H5 H -0.1062 0.0248 0.0566
C5 C -0.3506(4) 0.0389(3) 0.06588(15)
H6 H -0.3338 -0.0408 0.0444
C6 C -0.5114(3) 0.1185(3) 0.09025(15)
H7 H -0.6030 0.0929 0.0846
C7 C -0.5361(3) 0.2371(3) 0.12330(15)
H8 H -0.6442 0.2900 0.1400
C8 C -0.4014(3) 0.2767(3) 0.13144(15)
H9 H -0.4186 0.3560 0.1534
C9 C 0.0295(3) 0.1517(3) 0.22315(14)
C10 C -0.0732(3) 0.2029(3) 0.28263(16)
H10 H -0.1817 0.2816 0.2700
C11 C -0.0132(4) 0.1359(3) 0.36135(16)
H11 H -0.0815 0.1701 0.4013
C12 C 0.1475(4) 0.0187(3) 0.37985(16)
H12 H 0.1873 -0.0260 0.4323
C13 C 0.2498(4) -0.0324(3) 0.32079(17)
H13 H 0.3583 -0.1111 0.3337
C14 C 0.1917(3) 0.0328(3) 0.24263(15)
H14 H 0.2605 -0.0024 0.2031
C15 C 0.1403(3) 0.5968(3) 0.15883(15)
C16 C 0.1777(4) 0.7074(3) 0.11070(15)
H15 H 0.1106 0.7601 0.0636
C17 C 0.3108(4) 0.7406(3) 0.13094(16)
H16 H 0.3333 0.8133 0.0968
C18 C 0.5528(4) 0.6975(3) 0.22464(17)
H17 H 0.5811 0.7659 0.1899
C19 C 0.6449(4) 0.6293(3) 0.29525(18)
H18 H 0.7351 0.6516 0.3084
C20 C 0.6954(3) 0.4562(3) 0.42418(17)
H19 H 0.7828 0.4806 0.4387
C21 C 0.6548(4) 0.3526(3) 0.47650(17)
H20 H 0.7155 0.3086 0.5258
C22 C 0.5252(4) 0.3144(3) 0.45601(17)
H21 H 0.5007 0.2444 0.4914
C23 C 0.2932(4) 0.3460(3) 0.35959(15)
H22 H 0.2668 0.2763 0.3943
C24 C 0.2005(3) 0.4125(3) 0.28875(16)
H23 H 0.1125 0.3873 0.2759
C25 C 0.4124(4) 0.6665(3) 0.20217(16)
C26 C 0.6049(3) 0.5237(3) 0.34966(17)
C27 C 0.4307(3) 0.3802(3) 0.38251(15)
C28 C 0.2364(3) 0.5216(3) 0.23302(15)
C29 C 0.3720(3) 0.5577(3) 0.25408(15)
C30 C 0.4695(3) 0.4873(3) 0.32889(15)
N1 N -0.1240(3) 0.4105(2) 0.11275(12)
N2 N 0.0013(3) 0.4396(2) 0.14627(13)
P1 P -0.04682(8) 0.22740(7) 0.12081(4)
O1 O 0.0854(2) 0.1648(2) 0.06656(10)
C31 C 0.9189(4) 0.8237(3) 0.30241(17)
H24 H 0.9847 0.7998 0.2601
C32 C 0.7602(4) 0.9428(3) 0.29018(17)
H25 H 0.7182 0.9984 0.2393
C33 C 0.6624(4) 0.9809(3) 0.35274(18)
H26 H 0.5550 1.0615 0.3440
C34 C 0.7251(4) 0.8985(3) 0.42850(18)
H27 H 0.6614 0.9246 0.4711
C35 C 0.8832(4) 0.7772(3) 0.44040(18)
H28 H 0.9244 0.7203 0.4911
C36 C 0.9802(4) 0.7396(3) 0.37801(18)
H29 H 1.0866 0.6580 0.3866
loop_
_geom_bond_atom_site_label_1
_geom_bond_atom_site_label_2
_geom_bond_site_symmetry_1
_geom_bond_site_symmetry_2
C1 H1 1_555 1_555
H2 C1 1_555 1_555
H3 C1 1_555 1_555
C2 H4 1_555 1_555
C3 C4 1_555 1_555
C4 H5 1_555 1_555
C5 C4 1_555 1_555
H6 C5 1_555 1_555
C6 C5 1_555 1_555
H7 C6 1_555 1_555
C7 C6 1_555 1_555
H8 C7 1_555 1_555
C8 C3 1_555 1_555
H9 C8 1_555 1_555
C9 C10 1_555 1_555
C10 H10 1_555 1_555
C11 C10 1_555 1_555
H11 C11 1_555 1_555
C12 C11 1_555 1_555
H12 C12 1_555 1_555
C13 C12 1_555 1_555
H13 C13 1_555 1_555
C14 C9 1_555 1_555
H14 C14 1_555 1_555
C15 C2 1_555 1_555
C16 C15 1_555 1_555
H15 C16 1_555 1_555
C17 C16 1_555 1_555
H16 C17 1_555 1_555
C18 H17 1_555 1_555
C19 C18 1_555 1_555
H18 C19 1_555 1_555
C20 H19 1_555 1_555
C21 C20 1_555 1_555
H20 C21 1_555 1_555
C22 C21 1_555 1_555
H21 C22 1_555 1_555
C23 H22 1_555 1_555
C24 C23 1_555 1_555
H23 C24 1_555 1_555
C25 C17 1_555 1_555
C26 C19 1_555 1_555
C27 C22 1_555 1_555
C28 C15 1_555 1_555
C29 C25 1_555 1_555
C30 C26 1_555 1_555
C31 H24 1_555 1_555
C32 C31 1_555 1_555
H25 C32 1_555 1_555
C33 C32 1_555 1_555
H26 C33 1_555 1_555
C34 C33 1_555 1_555
H27 C34 1_555 1_555
C35 C34 1_555 1_555
H28 C35 1_555 1_555
C36 C31 1_555 1_555
H29 C36 1_555 1_555
N1 C1 1_555 1_555
N2 C2 1_555 1_555
P1 C3 1_555 1_555
O1 P1 1_555 1_555
C7 C8 1_555 1_555
C9 P1 1_555 1_555
C13 C14 1_555 1_555
C18 C25 1_555 1_555
C20 C26 1_555 1_555
C23 C27 1_555 1_555
C24 C28 1_555 1_555
C27 C30 1_555 1_555
C28 C29 1_555 1_555
C29 C30 1_555 1_555
C35 C36 1_555 1_555
N1 N2 1_555 1_555
N1 P1 1_555 1_555

#END
