
#######################################################################
#
#                 Cambridge Crystallographic Data Centre
#                                CCDC 
#
#######################################################################
#
# If this CIF has been generated from an entry in the Cambridge 
# Structural Database, then it will include bibliographic, chemical, 
# crystal, experimental, refinement or atomic coordinate data resulting 
# from the CCDC's data processing and validation procedures.
#
#######################################################################

data_SUNYIL
_chemical_formula_moiety         'C22 H21 N3 O4'
_chemical_name_systematic        
10-hydroxy-7,7-dimethyl-2-(4-methylphenyl)-5,12b-dihydro-1H,7H-chromeno[4,3-c][1,2,4]triazolo[1,2-a]pyridazine-1,3(2H)-dione
_symmetry_cell_setting           monoclinic
_symmetry_space_group_name_H-M   'C 2/c'
_symmetry_Int_Tables_number      15
_space_group_name_Hall           '-C 2yn'
loop_
_symmetry_equiv_pos_site_id
_symmetry_equiv_pos_as_xyz
1 x,y,z
2 -x,y,1/2-z
3 1/2+x,1/2+y,z
4 1/2-x,1/2+y,1/2-z
5 -x,-y,-z
6 x,-y,1/2+z
7 1/2-x,1/2-y,-z
8 1/2+x,1/2-y,1/2+z
_cell_length_a                   17.160(3)
_cell_length_b                   8.2410(16)
_cell_length_c                   28.640(6)
_cell_angle_alpha                90
_cell_angle_beta                 105.34(3)
_cell_angle_gamma                90
_cell_volume                     3905.85
_exptl_crystal_description       block
_cell_formula_units_Z            8
loop_
_atom_site_label
_atom_site_type_symbol
_atom_site_fract_x
_atom_site_fract_y
_atom_site_fract_z
C1 C 0.1853(2) 0.9549(5) 0.00257(12)
H1 H 0.2000 1.0621 -0.0073
H2 H 0.1263 0.9460 -0.0050
H3 H 0.2064 0.8706 -0.0149
C2 C 0.22083(18) 0.9335(3) 0.05608(11)
C3 C 0.17390(18) 0.8829(4) 0.08572(11)
H4 H 0.1182 0.8610 0.0719
C4 C 0.20615(17) 0.8631(3) 0.13549(11)
H5 H 0.1729 0.8288 0.1554
C5 C 0.28706(17) 0.8941(3) 0.15535(10)
C6 C 0.33456(19) 0.9434(4) 0.12642(11)
H6 H 0.3904 0.9645 0.1401
C7 C 0.3014(2) 0.9624(4) 0.07742(11)
H7 H 0.3352 0.9964 0.0578
C8 C 0.37386(17) 0.7430(3) 0.22411(10)
C9 C 0.30895(17) 0.9640(3) 0.24352(10)
C10 C 0.41845(18) 0.6281(3) 0.30571(10)
H8 H 0.4685 0.5741 0.3029
H9 H 0.3738 0.5484 0.2968
C11 C 0.42866(17) 0.6824(4) 0.35613(11)
H10 H 0.4511 0.6069 0.3812
C12 C 0.40920(17) 0.8269(3) 0.36929(10)
C13 C 0.37704(17) 0.9588(3) 0.33261(9)
H11 H 0.3282 1.0073 0.3399
C14 C 0.44240(16) 1.0864(3) 0.34137(10)
C15 C 0.46937(16) 1.1669(3) 0.30644(10)
H12 H 0.4462 1.1416 0.2733
C16 C 0.52954(17) 1.2839(3) 0.31849(10)
H13 H 0.5485 1.3348 0.2938
C17 C 0.56178(17) 1.3262(3) 0.36641(10)
C18 C 0.53648(17) 1.2451(3) 0.40233(10)
H14 H 0.5587 1.2724 0.4354
C19 C 0.47864(17) 1.1243(3) 0.38965(10)
C20 C 0.42359(19) 0.8835(3) 0.42081(11)
C21 C 0.3454(2) 0.8915(5) 0.43572(13)
H15 H 0.3563 0.9321 0.4690
H16 H 0.3216 0.7828 0.4339
H17 H 0.3076 0.9647 0.4139
C22 C 0.4860(2) 0.7830(4) 0.45611(12)
H18 H 0.5357 0.7787 0.4455
H19 H 0.4652 0.6727 0.4574
H20 H 0.4975 0.8323 0.4884
N1 N 0.32265(14) 0.8704(3) 0.20601(8)
N2 N 0.40050(14) 0.7665(3) 0.27252(8)
N3 N 0.35319(14) 0.8908(3) 0.28462(8)
O1 O 0.39230(13) 0.6296(2) 0.20145(8)
O2 O 0.26831(12) 1.0860(2) 0.24068(7)
O3 O 0.61791(14) 1.4459(3) 0.38104(7)
H21 H 0.6256 1.4932 0.3567
O4 O 0.45465(14) 1.0513(2) 0.42634(7)
loop_
_geom_bond_atom_site_label_1
_geom_bond_atom_site_label_2
_geom_bond_site_symmetry_1
_geom_bond_site_symmetry_2
C1 H1 1_555 1_555
H2 C1 1_555 1_555
H3 C1 1_555 1_555
C2 C1 1_555 1_555
C3 C2 1_555 1_555
H4 C3 1_555 1_555
C4 C3 1_555 1_555
H5 C4 1_555 1_555
C5 C4 1_555 1_555
C6 C5 1_555 1_555
H6 C6 1_555 1_555
C7 C2 1_555 1_555
H7 C7 1_555 1_555
C8 N1 1_555 1_555
C9 N1 1_555 1_555
C10 H8 1_555 1_555
H9 C10 1_555 1_555
C11 C10 1_555 1_555
H10 C11 1_555 1_555
C12 C11 1_555 1_555
C13 C12 1_555 1_555
H11 C13 1_555 1_555
C14 C13 1_555 1_555
C15 C14 1_555 1_555
H12 C15 1_555 1_555
C16 C15 1_555 1_555
H13 C16 1_555 1_555
C17 C16 1_555 1_555
C18 C17 1_555 1_555
H14 C18 1_555 1_555
C19 C14 1_555 1_555
C20 C12 1_555 1_555
C21 C20 1_555 1_555
H15 C21 1_555 1_555
H16 C21 1_555 1_555
H17 C21 1_555 1_555
C22 C20 1_555 1_555
H18 C22 1_555 1_555
H19 C22 1_555 1_555
H20 C22 1_555 1_555
N1 C5 1_555 1_555
N2 C8 1_555 1_555
N3 C9 1_555 1_555
O1 C8 1_555 1_555
O2 C9 1_555 1_555
O3 C17 1_555 1_555
H21 O3 1_555 1_555
O4 C19 1_555 1_555
C6 C7 1_555 1_555
C10 N2 1_555 1_555
C13 N3 1_555 1_555
C18 C19 1_555 1_555
C20 O4 1_555 1_555
N2 N3 1_555 1_555

#END
