
#######################################################################
#
#                 Cambridge Crystallographic Data Centre
#                                CCDC 
#
#######################################################################
#
# If this CIF has been generated from an entry in the Cambridge 
# Structural Database, then it will include bibliographic, chemical, 
# crystal, experimental, refinement or atomic coordinate data resulting 
# from the CCDC's data processing and validation procedures.
#
#######################################################################

data_SUNYOR
_chemical_formula_moiety         'C18 H27 F2 N1 O5'
_chemical_name_systematic        
1-(6-(2,5-difluorophenoxy)hexyl)-2-(hydroxymethyl)piperidine-3,4,5-triol
_symmetry_cell_setting           monoclinic
_symmetry_space_group_name_H-M   'C 2'
_symmetry_Int_Tables_number      5
_space_group_name_Hall           'C 2y'
loop_
_symmetry_equiv_pos_site_id
_symmetry_equiv_pos_as_xyz
1 x,y,z
2 -x,y,-z
3 1/2+x,1/2+y,z
4 1/2-x,1/2+y,-z
_cell_length_a                   13.6384(5)
_cell_length_b                   7.1514(3)
_cell_length_c                   19.5985(8)
_cell_angle_alpha                90
_cell_angle_beta                 101.0480(10)
_cell_angle_gamma                90
_cell_volume                     1876.09
_exptl_crystal_colour            colorless
_exptl_crystal_description       block
_cell_formula_units_Z            4
loop_
_atom_site_label
_atom_site_type_symbol
_atom_site_fract_x
_atom_site_fract_y
_atom_site_fract_z
F1 F 0.40989(8) 1.66926(14) 0.56464(5)
F2 F 0.39614(9) 1.03178(16) 0.71190(5)
O1 O 0.55240(6) 0.41684(14) 0.10284(5)
H1 H 0.5672(14) 0.351(2) 0.0713(8)
O2 O 0.39294(7) 0.21676(13) 0.01908(5)
H2 H 0.4272(12) 0.128(2) 0.0384(9)
O3 O 0.19270(6) 0.30801(14) 0.04042(5)
H3 H 0.1794(13) 0.284(3) -0.0019(5)
O4 O 0.51264(7) 0.90634(14) 0.07588(5)
H4 H 0.5649(10) 0.886(3) 0.0600(9)
O5 O 0.36606(8) 1.35242(16) 0.49503(5)
N1 N 0.33831(7) 0.72540(15) 0.10830(5)
C1 C 0.43998(9) 0.64836(18) 0.13187(6)
H5 H 0.4431 0.5913 0.1760
C2 C 0.45617(9) 0.49806(18) 0.07978(6)
H6 H 0.4550 0.5558 0.0360
C3 C 0.37571(9) 0.34648(17) 0.07098(6)
H7 H 0.3787 0.2827 0.1138
C4 C 0.27401(9) 0.43827(17) 0.04968(6)
H8 H 0.2723 0.5042 0.0074
C5 C 0.26253(9) 0.57782(17) 0.10650(6)
H9 H 0.1948 0.6333 0.0966
H10 H 0.2718 0.5137 0.1521
C6 C 0.52038(9) 0.79989(19) 0.13860(6)
H11 H 0.5137 0.8847 0.1774
H12 H 0.5872 0.7407 0.1498
C7 C 0.31649(9) 0.89067(17) 0.14823(6)
H13 H 0.2477 0.9328 0.1288
H14 H 0.3624 0.9926 0.1407
C8 C 0.32548(10) 0.86357(19) 0.22682(7)
H15 H 0.2713 0.7802 0.2356
H16 H 0.3901 0.8028 0.2460
C9 C 0.31901(10) 1.0502(2) 0.26364(7)
H17 H 0.3686 1.1381 0.2508
H18 H 0.2517 1.1047 0.2478
C10 C 0.33858(10) 1.0277(2) 0.34257(7)
H19 H 0.4047 0.9683 0.3579
H20 H 0.2875 0.9430 0.3553
C11 C 0.33645(11) 1.2134(2) 0.38132(7)
H21 H 0.3899 1.2967 0.3713
H22 H 0.2715 1.2763 0.3654
C12 C 0.35171(11) 1.1764(2) 0.45883(7)
H23 H 0.2926 1.1114 0.4700
H24 H 0.4109 1.0955 0.4735
C13 C 0.38462(10) 1.3427(2) 0.56555(7)
C14 C 0.40752(11) 1.5107(2) 0.60168(8)
C15 C 0.42614(11) 1.5191(2) 0.67340(8)
H25 H 0.4413 1.6356 0.6963
C16 C 0.42275(11) 1.3573(2) 0.71203(8)
H26 H 0.4354 1.3602 0.7614
C17 C 0.40043(11) 1.1928(2) 0.67604(8)
C18 C 0.38130(11) 1.1802(2) 0.60383(8)
H27 H 0.3663 1.0632 0.5813
loop_
_geom_bond_atom_site_label_1
_geom_bond_atom_site_label_2
_geom_bond_site_symmetry_1
_geom_bond_site_symmetry_2
F1 C14 1_555 1_555
F2 C17 1_555 1_555
O1 H1 1_555 1_555
O2 H2 1_555 1_555
O3 H3 1_555 1_555
O4 H4 1_555 1_555
O5 C12 1_555 1_555
N1 C1 1_555 1_555
C1 H5 1_555 1_555
C2 O1 1_555 1_555
H6 C2 1_555 1_555
C3 O2 1_555 1_555
H7 C3 1_555 1_555
C4 O3 1_555 1_555
H8 C4 1_555 1_555
C5 N1 1_555 1_555
H9 C5 1_555 1_555
H10 C5 1_555 1_555
C6 O4 1_555 1_555
H11 C6 1_555 1_555
H12 C6 1_555 1_555
C7 N1 1_555 1_555
H13 C7 1_555 1_555
H14 C7 1_555 1_555
C8 C7 1_555 1_555
H15 C8 1_555 1_555
H16 C8 1_555 1_555
C9 C8 1_555 1_555
H17 C9 1_555 1_555
H18 C9 1_555 1_555
C10 C9 1_555 1_555
H19 C10 1_555 1_555
H20 C10 1_555 1_555
C11 C10 1_555 1_555
H21 C11 1_555 1_555
H22 C11 1_555 1_555
C12 C11 1_555 1_555
H23 C12 1_555 1_555
H24 C12 1_555 1_555
C13 O5 1_555 1_555
C14 C13 1_555 1_555
C15 C14 1_555 1_555
H25 C15 1_555 1_555
C16 C15 1_555 1_555
H26 C16 1_555 1_555
C17 C16 1_555 1_555
C18 C13 1_555 1_555
H27 C18 1_555 1_555
C1 C2 1_555 1_555
C1 C6 1_555 1_555
C2 C3 1_555 1_555
C3 C4 1_555 1_555
C4 C5 1_555 1_555
C17 C18 1_555 1_555

#END
