
#######################################################################
#
#                 Cambridge Crystallographic Data Centre
#                                CCDC 
#
#######################################################################
#
# If this CIF has been generated from an entry in the Cambridge 
# Structural Database, then it will include bibliographic, chemical, 
# crystal, experimental, refinement or atomic coordinate data resulting 
# from the CCDC's data processing and validation procedures.
#
#######################################################################

data_SUNZOS
_chemical_formula_moiety         'C27 H26 O1'
_chemical_name_systematic        
2,5,6-triphenyl-2,3,3a,4,7,7a-hexahydro-1H-inden-2-ol
_symmetry_cell_setting           monoclinic
_symmetry_space_group_name_H-M   'C 2/c'
_symmetry_Int_Tables_number      15
_space_group_name_Hall           '-C 2yn'
loop_
_symmetry_equiv_pos_site_id
_symmetry_equiv_pos_as_xyz
1 x,y,z
2 -x,y,1/2-z
3 1/2+x,1/2+y,z
4 1/2-x,1/2+y,1/2-z
5 -x,-y,-z
6 x,-y,1/2+z
7 1/2-x,1/2-y,-z
8 1/2+x,1/2-y,1/2+z
_cell_length_a                   21.199(5)
_cell_length_b                   10.4200(17)
_cell_length_c                   38.634(6)
_cell_angle_alpha                90
_cell_angle_beta                 95.578(6)
_cell_angle_gamma                90
_cell_volume                     8493.59
_exptl_crystal_colour            colorless
_cell_formula_units_Z            16
loop_
_atom_site_label
_atom_site_type_symbol
_atom_site_fract_x
_atom_site_fract_y
_atom_site_fract_z
O1 O 0.27576(9) 0.8760(2) 0.98977(5)
H1 H 0.2587 0.8173 0.9995
C1 C 0.41807(16) 0.9963(3) 0.92188(8)
H2 H 0.4127 1.0881 0.9185
H3 H 0.4589 0.9817 0.9349
C2 C 0.41625(16) 0.9304(4) 0.88687(9)
C3 C 0.41264(15) 0.8036(4) 0.88615(9)
C4 C 0.41348(17) 0.7372(4) 0.92110(8)
H4 H 0.4550 0.7465 0.9338
H5 H 0.4051 0.6464 0.9177
C5 C 0.36302(17) 0.7963(4) 0.94210(9)
C6 C 0.36531(15) 0.9445(3) 0.94253(9)
H6 H 0.3246 0.9768 0.9318
C7 C 0.37167(15) 0.9824(3) 0.98057(8)
H7 H 0.3492 1.0618 0.9839
H8 H 0.4159 0.9937 0.9891
C8 C 0.34253(13) 0.8721(3) 0.99922(8)
C9 C 0.36874(15) 0.7567(3) 0.98068(8)
H9 H 0.3440 0.6802 0.9840
H10 H 0.4126 0.7405 0.9892
C10 C 0.42171(18) 1.0151(4) 0.85612(9)
C11 C 0.46781(19) 0.9922(4) 0.83346(9)
H11 H 0.4937 0.9202 0.8364
C12 C 0.4749(2) 1.0774(5) 0.80650(11)
H12 H 0.5063 1.0626 0.7918
C13 C 0.4368(3) 1.1824(5) 0.80116(11)
H13 H 0.4424 1.2386 0.7830
C14 C 0.3902(3) 1.2048(5) 0.82263(12)
H14 H 0.3636 1.2755 0.8190
C15 C 0.3831(2) 1.1201(5) 0.85009(12)
C16 C 0.40557(16) 0.7237(4) 0.85436(9)
C17 C 0.44675(18) 0.6245(4) 0.84949(10)
H15 H 0.4798 0.6078 0.8666
C18 C 0.4403(2) 0.5495(5) 0.82006(12)
H16 H 0.4694 0.4845 0.8172
C19 C 0.3920(3) 0.5701(5) 0.79534(12)
H17 H 0.3871 0.5183 0.7757
C20 C 0.3502(2) 0.6674(5) 0.79937(11)
H18 H 0.3172 0.6821 0.7822
C21 C 0.35637(19) 0.7449(4) 0.82872(10)
H19 H 0.3275 0.8108 0.8312
C22 C 0.35640(15) 0.8714(4) 1.03864(8)
C23 C 0.30809(17) 0.8741(4) 1.06047(9)
H20 H 0.2662 0.8767 1.0508
C24 C 0.32067(19) 0.8732(4) 1.09618(10)
H21 H 0.2873 0.8757 1.1101
C25 C 0.3815(2) 0.8688(4) 1.11120(10)
H22 H 0.3899 0.8677 1.1353
C26 C 0.43009(18) 0.8658(4) 1.09012(10)
H23 H 0.4718 0.8631 1.1001
C27 C 0.41774(17) 0.8667(4) 1.05428(10)
H24 H 0.3230(16) 0.770(4) 0.9316(8)
H25 H 0.3504(18) 1.131(4) 0.8649(10)
H26 H 0.4545(14) 0.866(3) 1.0396(7)
O2 O 0.27282(9) 0.3720(2) 0.01520(5)
H27 H 0.2600 0.3094 0.0037
C28 C 0.38751(17) 0.2403(4) 0.10999(8)
H28 H 0.3823 0.1480 0.1115
H29 H 0.4308 0.2575 0.1052
C29 C 0.37562(17) 0.3008(4) 0.14414(9)
C30 C 0.37052(17) 0.4293(4) 0.14430(9)
C31 C 0.38115(18) 0.4995(4) 0.11094(8)
H30 H 0.4255 0.4941 0.1069
H31 H 0.3704 0.5894 0.1132
C32 C 0.34031(17) 0.4408(4) 0.08010(9)
C33 C 0.34212(16) 0.2924(3) 0.08040(8)
H32 H 0.2995 0.2605 0.0833
C34 C 0.35914(16) 0.2538(3) 0.04397(8)
H33 H 0.4041 0.2362 0.0444
H34 H 0.3357 0.1780 0.0358
C35 C 0.34073(14) 0.3687(4) 0.02058(8)
C36 C 0.35994(15) 0.4789(3) 0.04499(8)
H35 H 0.4054 0.4927 0.0463
H36 H 0.3387 0.5574 0.0369
C37 C 0.37091(18) 0.2189(4) 0.17465(9)
C38 C 0.40986(19) 0.2346(4) 0.20542(9)
H37 H 0.4392 0.3012 0.2073
C39 C 0.4058(2) 0.1536(5) 0.23300(11)
H38 H 0.4331 0.1649 0.2531
C40 C 0.3627(3) 0.0574(5) 0.23150(13)
H39 H 0.3598 0.0045 0.2507
C41 C 0.3237(2) 0.0382(5) 0.20182(13)
H40 H 0.2943 -0.0283 0.2006
C42 C 0.3279(2) 0.1173(5) 0.17361(11)
H41 H 0.3014 0.1026 0.1534
C43 C 0.35372(19) 0.5094(4) 0.17363(9)
C44 C 0.3868(2) 0.6181(5) 0.18381(11)
C45 C 0.3703(3) 0.6946(5) 0.21013(12)
H42 H 0.3943 0.7671 0.2165
C46 C 0.3188(3) 0.6653(6) 0.22725(13)
H43 H 0.3073 0.7184 0.2449
C47 C 0.2841(2) 0.5570(6) 0.21821(13)
H44 H 0.2492 0.5360 0.2300
C48 C 0.3014(2) 0.4775(5) 0.19110(11)
H45 H 0.2779 0.4042 0.1849
C49 C 0.36964(14) 0.3708(3) -0.01362(8)
C50 C 0.33283(17) 0.3724(4) -0.04512(9)
H46 H 0.2889 0.3722 -0.0454
C51 C 0.3599(2) 0.3745(4) -0.07630(10)
H47 H 0.3340 0.3778 -0.0971
C52 C 0.4245(2) 0.3718(4) -0.07676(13)
C53 C 0.4616(2) 0.3704(4) -0.04601(12)
H48 H 0.5054 0.3702 -0.0461
C54 C 0.43529(16) 0.3690(4) -0.01452(10)
H49 H 0.4616 0.3670 0.0062
H50 H 0.2967(14) 0.468(3) 0.0808(7)
H51 H 0.4255(18) 0.634(4) 0.1735(9)
H52 H 0.4404(18) 0.380(4) -0.0992(10)
loop_
_geom_bond_atom_site_label_1
_geom_bond_atom_site_label_2
_geom_bond_site_symmetry_1
_geom_bond_site_symmetry_2
O1 H1 1_555 1_555
C1 H2 1_555 1_555
H3 C1 1_555 1_555
C2 C1 1_555 1_555
C3 C2 1_555 1_555
C4 C3 1_555 1_555
H4 C4 1_555 1_555
H5 C4 1_555 1_555
C5 C4 1_555 1_555
C6 C1 1_555 1_555
H6 C6 1_555 1_555
C7 C6 1_555 1_555
H7 C7 1_555 1_555
H8 C7 1_555 1_555
C8 O1 1_555 1_555
C9 C5 1_555 1_555
H9 C9 1_555 1_555
H10 C9 1_555 1_555
C10 C2 1_555 1_555
C11 C10 1_555 1_555
H11 C11 1_555 1_555
C12 C11 1_555 1_555
H12 C12 1_555 1_555
C13 C12 1_555 1_555
H13 C13 1_555 1_555
C14 C13 1_555 1_555
H14 C14 1_555 1_555
C15 C10 1_555 1_555
C16 C3 1_555 1_555
C17 C16 1_555 1_555
H15 C17 1_555 1_555
C18 C17 1_555 1_555
H16 C18 1_555 1_555
C19 C18 1_555 1_555
H17 C19 1_555 1_555
C20 C19 1_555 1_555
H18 C20 1_555 1_555
C21 C16 1_555 1_555
H19 C21 1_555 1_555
C22 C8 1_555 1_555
C23 C22 1_555 1_555
H20 C23 1_555 1_555
C24 C23 1_555 1_555
H21 C24 1_555 1_555
C25 C24 1_555 1_555
H22 C25 1_555 1_555
C26 C25 1_555 1_555
H23 C26 1_555 1_555
C27 C22 1_555 1_555
H24 C5 1_555 1_555
H25 C15 1_555 1_555
H26 C27 1_555 1_555
O2 H27 1_555 1_555
C28 H28 1_555 1_555
H29 C28 1_555 1_555
C29 C28 1_555 1_555
C30 C29 1_555 1_555
C31 C30 1_555 1_555
H30 C31 1_555 1_555
H31 C31 1_555 1_555
C32 C31 1_555 1_555
C33 C28 1_555 1_555
H32 C33 1_555 1_555
C34 C33 1_555 1_555
H33 C34 1_555 1_555
H34 C34 1_555 1_555
C35 O2 1_555 1_555
C36 C32 1_555 1_555
H35 C36 1_555 1_555
H36 C36 1_555 1_555
C37 C29 1_555 1_555
C38 C37 1_555 1_555
H37 C38 1_555 1_555
C39 C38 1_555 1_555
H38 C39 1_555 1_555
C40 C39 1_555 1_555
H39 C40 1_555 1_555
C41 C40 1_555 1_555
H40 C41 1_555 1_555
C42 C37 1_555 1_555
H41 C42 1_555 1_555
C43 C30 1_555 1_555
C44 C43 1_555 1_555
C45 C44 1_555 1_555
H42 C45 1_555 1_555
C46 C45 1_555 1_555
H43 C46 1_555 1_555
C47 C46 1_555 1_555
H44 C47 1_555 1_555
C48 C43 1_555 1_555
H45 C48 1_555 1_555
C49 C35 1_555 1_555
C50 C49 1_555 1_555
H46 C50 1_555 1_555
C51 C50 1_555 1_555
H47 C51 1_555 1_555
C52 C51 1_555 1_555
C53 C52 1_555 1_555
H48 C53 1_555 1_555
C54 C49 1_555 1_555
H49 C54 1_555 1_555
H50 C32 1_555 1_555
H51 C44 1_555 1_555
H52 C52 1_555 1_555
C5 C6 1_555 1_555
C7 C8 1_555 1_555
C8 C9 1_555 1_555
C14 C15 1_555 1_555
C20 C21 1_555 1_555
C26 C27 1_555 1_555
C32 C33 1_555 1_555
C34 C35 1_555 1_555
C35 C36 1_555 1_555
C41 C42 1_555 1_555
C47 C48 1_555 1_555
C53 C54 1_555 1_555

#END
