
#######################################################################
#
#                 Cambridge Crystallographic Data Centre
#                                CCDC 
#
#######################################################################
#
# If this CIF has been generated from an entry in the Cambridge 
# Structural Database, then it will include bibliographic, chemical, 
# crystal, experimental, refinement or atomic coordinate data resulting 
# from the CCDC's data processing and validation procedures.
#
#######################################################################

data_SUPBEK
_chemical_name_common            Cabergoline
_chemical_formula_moiety         'C26 H37 N5 O2'
_chemical_name_systematic        
N-(3-Dimethylaminopropyl)-N-(ethylaminocarbonyl)-6-(2-propenyl)ergoline-8\b-carboxamide
_chemical_properties_biological  
'agonistic activity on the D2 dopamine receptor'
_symmetry_cell_setting           monoclinic
_symmetry_space_group_name_H-M   'P 21'
_symmetry_Int_Tables_number      4
_space_group_name_Hall           'P 2yb'
loop_
_symmetry_equiv_pos_site_id
_symmetry_equiv_pos_as_xyz
1 x,y,z
2 -x,1/2+y,-z
_cell_length_a                   9.046(4)
_cell_length_b                   12.250(5)
_cell_length_c                   11.781(8)
_cell_angle_alpha                90
_cell_angle_beta                 93.91(5)
_cell_angle_gamma                90
_cell_volume                     1302.46
_cell_formula_units_Z            2
loop_
_atom_site_label
_atom_site_type_symbol
_atom_site_fract_x
_atom_site_fract_y
_atom_site_fract_z
N1 N -0.1324(7) 0.6269(6) 1.0593(5)
H1 H -0.1720(7) 0.6746(6) 1.1013(5)
C1 C -0.0030(8) 0.5720(7) 1.0855(6)
H2 H 0.0556(8) 0.5801(7) 1.1530(6)
C2 C 0.0276(8) 0.5044(6) 1.0001(6)
C3 C 0.1506(9) 0.4255(7) 0.9797(7)
H3 H 0.1328(9) 0.3570(7) 1.0177(7)
H4 H 0.2440(9) 0.4549(7) 1.0115(7)
C4 C 0.1602(8) 0.4049(7) 0.8503(6)
H5 H 0.1960(8) 0.4718(7) 0.8157(6)
N2 N 0.2630(6) 0.3155(5) 0.8271(5)
C5 C 0.2777(9) 0.3053(7) 0.7033(7)
H6 H 0.3548(9) 0.2528(7) 0.6898(7)
H7 H 0.3068(9) 0.3752(7) 0.6732(7)
C6 C 0.1375(9) 0.2699(7) 0.6435(7)
H8 H 0.1083(9) 0.1999(7) 0.6756(7)
C7 C 0.0162(9) 0.3555(7) 0.6646(7)
H9 H 0.0390(9) 0.4234(7) 0.6272(7)
H10 H -0.0788(9) 0.3297(7) 0.6320(7)
C8 C 0.0067(8) 0.3757(7) 0.7906(6)
H11 H -0.0270(8) 0.3079(7) 0.8246(6)
C9 C -0.1066(8) 0.4633(6) 0.8115(6)
C10 C -0.2310(9) 0.4890(8) 0.7412(7)
H12 H -0.2489(9) 0.4544(8) 0.6713(7)
C11 C -0.3319(10) 0.5701(8) 0.7786(7)
H13 H -0.4135(10) 0.5898(8) 0.7307(7)
C12 C -0.3103(9) 0.6202(7) 0.8859(7)
H14 H -0.3777(9) 0.6711(7) 0.9098(7)
C13 C -0.1882(8) 0.5924(6) 0.9538(6)
C14 C -0.0878(8) 0.5150(6) 0.9138(6)
C15 C 0.4081(9) 0.3294(7) 0.8865(7)
H15 H 0.3970(9) 0.3445(7) 0.9663(7)
H16 H 0.4587(9) 0.3908(7) 0.8545(7)
C16 C 0.5000(12) 0.2246(9) 0.8746(8)
H17 H 0.4520(12) 0.1576(9) 0.8777(8)
C17 C 0.6377(14) 0.2249(13) 0.8608(10)
H18 H 0.6883(14) 0.2908(13) 0.8574(10)
H19 H 0.6881(14) 0.1593(13) 0.8541(10)
C18 C 0.1482(10) 0.2557(8) 0.5156(8)
O1 O 0.2552(7) 0.2913(6) 0.4733(5)
N3 N 0.0301(8) 0.2136(6) 0.4540(6)
C19 C -0.0804(10) 0.1494(8) 0.4935(8)
O2 O -0.0550(8) 0.0971(6) 0.5829(6)
N4 N -0.2085(8) 0.1477(6) 0.4363(6)
H20 H -0.2230(8) 0.1875(6) 0.3765(6)
C20 C -0.3255(10) 0.0799(9) 0.4720(8)
H21 H -0.3839(10) 0.0533(9) 0.4056(8)
H22 H -0.2833(10) 0.0173(9) 0.5129(8)
C21 C -0.4214(11) 0.1397(12) 0.5453(11)
H23 H -0.4270(35) 0.0459(19) 0.5815(44)
H24 H -0.4695(15) 0.1841(34) 0.4925(28)
H25 H -0.3649(24) 0.1652(41) 0.6127(13)
C22 C 0.0353(9) 0.2312(8) 0.3285(7)
H26 H 0.1336(14) 0.2123(15) 0.3066(18)
H27 H -0.0345(25) 0.1819(31) 0.2891(17)
C23 C 0.0010(11) 0.3440(8) 0.2901(8)
H28 H 0.0110(11) 0.3474(8) 0.2087(8)
H29 H 0.0751(11) 0.3923(8) 0.3261(8)
C24 C -0.1468(10) 0.3867(9) 0.3129(9)
H30 H -0.1499(10) 0.3967(9) 0.3943(9)
H31 H -0.1580(10) 0.4582(9) 0.2778(9)
N5 N -0.2745(10) 0.3195(8) 0.2729(8)
C25 C -0.2802(18) 0.3124(14) 0.1525(13)
H32 H -0.2041(97) 0.2638(83) 0.1303(14)
H33 H -0.265(14) 0.3835(23) 0.1211(14)
H34 H -0.3753(57) 0.2850(98) 0.1247(15)
C26 C -0.4108(16) 0.3616(14) 0.3011(12)
H35 H -0.4061(47) 0.3789(96) 0.3808(26)
H36 H -0.4870(28) 0.3083(40) 0.2845(98)
H37 H -0.4329(66) 0.4265(57) 0.2576(79)
loop_
_geom_bond_atom_site_label_1
_geom_bond_atom_site_label_2
_geom_bond_site_symmetry_1
_geom_bond_site_symmetry_2
N1 H1 1_555 1_555
C1 N1 1_555 1_555
H2 C1 1_555 1_555
C2 C1 1_555 1_555
C3 C2 1_555 1_555
H3 C3 1_555 1_555
H4 C3 1_555 1_555
C4 C3 1_555 1_555
H5 C4 1_555 1_555
N2 C4 1_555 1_555
C5 N2 1_555 1_555
H6 C5 1_555 1_555
H7 C5 1_555 1_555
C6 C5 1_555 1_555
H8 C6 1_555 1_555
C7 C6 1_555 1_555
H9 C7 1_555 1_555
H10 C7 1_555 1_555
C8 C4 1_555 1_555
H11 C8 1_555 1_555
C9 C8 1_555 1_555
C10 C9 1_555 1_555
H12 C10 1_555 1_555
C11 C10 1_555 1_555
H13 C11 1_555 1_555
C12 C11 1_555 1_555
H14 C12 1_555 1_555
C13 N1 1_555 1_555
C14 C2 1_555 1_555
C15 N2 1_555 1_555
H15 C15 1_555 1_555
H16 C15 1_555 1_555
C16 C15 1_555 1_555
H17 C16 1_555 1_555
C17 C16 1_555 1_555
H18 C17 1_555 1_555
H19 C17 1_555 1_555
C18 C6 1_555 1_555
O1 C18 1_555 1_555
N3 C18 1_555 1_555
C19 N3 1_555 1_555
O2 C19 1_555 1_555
N4 C19 1_555 1_555
H20 N4 1_555 1_555
C20 N4 1_555 1_555
H21 C20 1_555 1_555
H22 C20 1_555 1_555
C21 C20 1_555 1_555
H23 C21 1_555 1_555
H24 C21 1_555 1_555
H25 C21 1_555 1_555
C22 N3 1_555 1_555
H26 C22 1_555 1_555
H27 C22 1_555 1_555
C23 C22 1_555 1_555
H28 C23 1_555 1_555
H29 C23 1_555 1_555
C24 C23 1_555 1_555
H30 C24 1_555 1_555
H31 C24 1_555 1_555
N5 C24 1_555 1_555
C25 N5 1_555 1_555
H32 C25 1_555 1_555
H33 C25 1_555 1_555
H34 C25 1_555 1_555
C26 N5 1_555 1_555
H35 C26 1_555 1_555
H36 C26 1_555 1_555
H37 C26 1_555 1_555
C7 C8 1_555 1_555
C9 C14 1_555 1_555
C12 C13 1_555 1_555
C13 C14 1_555 1_555

#END
