
#######################################################################
#
#                 Cambridge Crystallographic Data Centre
#                                CCDC 
#
#######################################################################
#
# If this CIF has been generated from an entry in the Cambridge 
# Structural Database, then it will include bibliographic, chemical, 
# crystal, experimental, refinement or atomic coordinate data resulting 
# from the CCDC's data processing and validation procedures.
#
#######################################################################

data_SUPDAK
_chemical_formula_moiety         'C31 H29 Br1 N2 O2 S1'
_chemical_name_systematic        
8-benzyl-5-bromo-3a-methyl-1-((4-methylphenyl)sulfonyl)-3-phenyl-1,2,3,3a,8,8a-hexahydropyrrolo[2,3-b]indole
_symmetry_cell_setting           orthorhombic
_symmetry_space_group_name_H-M   'P 21 21 21'
_symmetry_Int_Tables_number      19
_space_group_name_Hall           'P 2ac 2ab'
loop_
_symmetry_equiv_pos_site_id
_symmetry_equiv_pos_as_xyz
1 x,y,z
2 1/2-x,-y,1/2+z
3 -x,1/2+y,1/2-z
4 1/2+x,1/2-y,-z
_cell_length_a                   8.4158(14)
_cell_length_b                   15.141(2)
_cell_length_c                   21.410(3)
_cell_angle_alpha                90
_cell_angle_beta                 90
_cell_angle_gamma                90
_cell_volume                     2728.14
_exptl_crystal_colour            colorless
_exptl_crystal_description       block
_cell_formula_units_Z            4
loop_
_atom_site_label
_atom_site_type_symbol
_atom_site_fract_x
_atom_site_fract_y
_atom_site_fract_z
Br1 Br 0.27868(7) 0.61749(3) 0.14975(3)
C1 C 0.7903(5) 1.1701(2) 0.11946(19)
C2 C 0.7583(5) 1.2106(3) 0.06245(19)
H1 H 0.8043 1.1897 0.0258
C3 C 0.6586(6) 1.2817(3) 0.0611(2)
H2 H 0.6359 1.3080 0.0229
C4 C 0.5894(5) 1.3161(3) 0.1151(2)
C5 C 0.6193(6) 1.2721(3) 0.1704(2)
H3 H 0.5695 1.2910 0.2068
C6 C 0.7210(6) 1.2008(3) 0.17305(19)
H4 H 0.7423 1.1737 0.2111
C7 C 0.4960(7) 1.3990(3) 0.1135(3)
H5 H 0.5638 1.4479 0.1236
H6 H 0.4113 1.3956 0.1434
H7 H 0.4524 1.4072 0.0725
C8 C 0.7557(5) 0.9639(3) 0.06228(17)
H8 H 0.7843 0.9049 0.0486
H9 H 0.7758 1.0051 0.0285
C9 C 0.5832(4) 0.9675(2) 0.08247(17)
H10 H 0.5545 1.0302 0.0838
C10 C 0.5859(4) 0.9352(2) 0.15207(17)
C11 C 0.7625(5) 0.9521(2) 0.17245(16)
H11 H 0.7679 0.9922 0.2083
C12 C 0.4639(5) 0.9239(2) 0.04071(17)
C13 C 0.3075(5) 0.9521(3) 0.0401(2)
H12 H 0.2782 1.0008 0.0639
C14 C 0.1958(6) 0.9098(4) 0.0051(2)
H13 H 0.0911 0.9293 0.0063
C15 C 0.2345(7) 0.8386(3) -0.0322(2)
H14 H 0.1575 0.8096 -0.0556
C16 C 0.3928(7) 0.8115(3) -0.0335(2)
H15 H 0.4233 0.7649 -0.0592
C17 C 0.5017(5) 0.8527(3) 0.00232(19)
H16 H 0.6062 0.8328 0.0013
C18 C 0.5702(5) 0.8361(2) 0.15915(17)
C19 C 0.4408(5) 0.7832(2) 0.14998(18)
H17 H 0.3453 0.8064 0.1355
C20 C 0.4561(5) 0.6925(3) 0.16314(17)
C21 C 0.5946(6) 0.6597(3) 0.18641(19)
H18 H 0.6005 0.5998 0.1957
C22 C 0.7250(6) 0.7111(2) 0.19663(17)
H19 H 0.8185 0.6871 0.2123
C23 C 0.7135(5) 0.8017(2) 0.18263(16)
C24 C 0.9790(5) 0.8578(3) 0.2176(2)
H20 H 1.0526 0.8975 0.1969
H21 H 1.0179 0.7981 0.2115
C25 C 0.9798(5) 0.8777(3) 0.28618(19)
C26 C 1.0474(7) 0.9552(3) 0.3086(3)
H22 H 1.0924 0.9957 0.2811
C27 C 1.0471(9) 0.9718(4) 0.3736(4)
H23 H 1.0908 1.0240 0.3888
C28 C 0.9841(8) 0.9130(5) 0.4139(3)
H24 H 0.9851 0.9240 0.4566
C29 C 0.9203(8) 0.8388(4) 0.3917(2)
H25 H 0.8771 0.7984 0.4196
C30 C 0.9165(6) 0.8202(3) 0.3287(2)
H26 H 0.8702 0.7679 0.3149
C31 C 0.4657(6) 0.9826(3) 0.19216(19)
H27 H 0.3608 0.9720 0.1762
H28 H 0.4871 1.0449 0.1916
H29 H 0.4725 0.9611 0.2343
N1 N 0.8451(4) 0.9888(2) 0.11866(16)
N2 N 0.8264(4) 0.8655(2) 0.18791(16)
O1 O 1.0251(4) 1.0924(2) 0.06645(17)
O2 O 1.0075(4) 1.0886(2) 0.18176(16)
S1 S 0.93285(12) 1.08510(7) 0.12190(5)
loop_
_geom_bond_atom_site_label_1
_geom_bond_atom_site_label_2
_geom_bond_site_symmetry_1
_geom_bond_site_symmetry_2
Br1 C20 1_555 1_555
C1 C2 1_555 1_555
C2 H1 1_555 1_555
C3 C2 1_555 1_555
H2 C3 1_555 1_555
C4 C3 1_555 1_555
C5 C4 1_555 1_555
H3 C5 1_555 1_555
C6 C1 1_555 1_555
H4 C6 1_555 1_555
C7 C4 1_555 1_555
H5 C7 1_555 1_555
H6 C7 1_555 1_555
H7 C7 1_555 1_555
C8 H8 1_555 1_555
H9 C8 1_555 1_555
C9 C8 1_555 1_555
H10 C9 1_555 1_555
C10 C9 1_555 1_555
C11 C10 1_555 1_555
H11 C11 1_555 1_555
C12 C9 1_555 1_555
C13 C12 1_555 1_555
H12 C13 1_555 1_555
C14 C13 1_555 1_555
H13 C14 1_555 1_555
C15 C14 1_555 1_555
H14 C15 1_555 1_555
C16 C15 1_555 1_555
H15 C16 1_555 1_555
C17 C12 1_555 1_555
H16 C17 1_555 1_555
C18 C10 1_555 1_555
C19 C18 1_555 1_555
H17 C19 1_555 1_555
C20 C19 1_555 1_555
C21 C20 1_555 1_555
H18 C21 1_555 1_555
C22 C21 1_555 1_555
H19 C22 1_555 1_555
C23 C18 1_555 1_555
C24 H20 1_555 1_555
H21 C24 1_555 1_555
C25 C24 1_555 1_555
C26 C25 1_555 1_555
H22 C26 1_555 1_555
C27 C26 1_555 1_555
H23 C27 1_555 1_555
C28 C27 1_555 1_555
H24 C28 1_555 1_555
C29 C28 1_555 1_555
H25 C29 1_555 1_555
C30 C25 1_555 1_555
H26 C30 1_555 1_555
C31 C10 1_555 1_555
H27 C31 1_555 1_555
H28 C31 1_555 1_555
H29 C31 1_555 1_555
N1 C8 1_555 1_555
N2 C11 1_555 1_555
O1 S1 1_555 1_555
O2 S1 1_555 1_555
S1 C1 1_555 1_555
C5 C6 1_555 1_555
C11 N1 1_555 1_555
C16 C17 1_555 1_555
C22 C23 1_555 1_555
C23 N2 1_555 1_555
C24 N2 1_555 1_555
C29 C30 1_555 1_555
N1 S1 1_555 1_555

#END
