
#######################################################################
#
#                 Cambridge Crystallographic Data Centre
#                                CCDC 
#
#######################################################################
#
# If this CIF has been generated from an entry in the Cambridge 
# Structural Database, then it will include bibliographic, chemical, 
# crystal, experimental, refinement or atomic coordinate data resulting 
# from the CCDC's data processing and validation procedures.
#
#######################################################################

data_SUPMIB
_chemical_formula_moiety         'C28 H26 N2 O5 S1'
_chemical_name_systematic        
"ethyl 1-methyl-1'-((4-methylphenyl)sulfonyl)-2-oxo-5'-phenyl-1,1',2,3'-tetrahydrospiro[indole-3,2'-pyrrole]-4'-carboxylate"
_symmetry_cell_setting           orthorhombic
_symmetry_space_group_name_H-M   'P 21 21 21'
_symmetry_Int_Tables_number      19
_space_group_name_Hall           'P 2ac 2ab'
loop_
_symmetry_equiv_pos_site_id
_symmetry_equiv_pos_as_xyz
1 x,y,z
2 1/2-x,-y,1/2+z
3 1/2+x,1/2-y,-z
4 -x,1/2+y,1/2-z
_cell_length_a                   8.6152(6)
_cell_length_b                   9.5235(5)
_cell_length_c                   32.448(2)
_cell_angle_alpha                90
_cell_angle_beta                 90
_cell_angle_gamma                90
_cell_volume                     2662.26
_exptl_crystal_colour            colorless
_exptl_crystal_description       block
_cell_formula_units_Z            4
loop_
_atom_site_label
_atom_site_type_symbol
_atom_site_fract_x
_atom_site_fract_y
_atom_site_fract_z
S1 S 0.30610(15) 0.95305(12) 0.33393(3)
O1 O 0.3326(4) 0.8730(4) 0.29721(9)
N1 N 0.2945(5) 0.8321(3) 0.37061(10)
O2 O 0.2194(8) 0.8272(4) 0.49845(11)
O3 O 0.1758(4) 1.0455(4) 0.33587(11)
O4 O 0.5331(5) 0.6235(4) 0.34555(12)
C1 C 0.2698(5) 0.8556(4) 0.41294(13)
O5 O 0.2080(8) 0.5975(4) 0.49102(12)
N2 N 0.3373(6) 0.5536(4) 0.30195(13)
C2 C 0.2410(6) 0.7359(5) 0.43249(14)
C3 C 0.1251(6) 0.6598(5) 0.33185(16)
C4 C 0.2885(7) 1.0001(4) 0.43013(14)
C5 C 0.1771(7) 0.5807(5) 0.29823(16)
C6 C 0.2619(6) 0.6829(4) 0.35989(14)
C7 C 0.6013(7) 1.2703(5) 0.3521(2)
H1 H 0.5955 1.3674 0.3545
C8 C 0.3979(7) 0.6186(5) 0.33591(17)
C9 C 0.4748(6) 1.0502(5) 0.34458(14)
C10 C 0.7508(7) 1.0611(5) 0.3486(2)
H2 H 0.8465 1.0159 0.3486
C11 C 0.7457(7) 1.2065(5) 0.35221(19)
C12 C 0.2461(7) 0.6132(5) 0.40314(14)
H3 H 0.1518 0.5580 0.4049
H4 H 0.3344 0.5531 0.4089
C13 C 0.4661(7) 1.1941(5) 0.34844(19)
H5 H 0.3703 1.2391 0.3486
C14 C 0.0773(9) 0.5416(8) 0.2676(2)
H6 H 0.1111 0.4865 0.2457
C15 C 0.6173(6) 0.9825(5) 0.34522(17)
H7 H 0.6226 0.8851 0.3434
C16 C 0.1644(9) 1.0924(6) 0.4321(2)
H8 H 0.0673 1.0657 0.4223
C17 C -0.0275(7) 0.7002(6) 0.33385(19)
H9 H -0.0636 0.7520 0.3562
C18 C 0.1862(13) 1.2251(7) 0.4488(2)
H10 H 0.1033 1.2874 0.4504
C19 C 0.4511(13) 1.1752(8) 0.4612(2)
H11 H 0.5473 1.2034 0.4712
C20 C 0.2216(8) 0.7115(5) 0.47662(16)
C21 C 0.4310(8) 1.0440(6) 0.44460(17)
H12 H 0.5154 0.9832 0.4431
C22 C -0.0751(9) 0.5861(9) 0.2699(3)
H13 H -0.1435 0.5628 0.2488
C23 C 0.2112(15) 0.8136(7) 0.54345(19)
H14 H 0.1077 0.7848 0.5517
H15 H 0.2844 0.7432 0.5529
C24 C 0.2475(14) 0.9455(11) 0.5611(3)
H16 H 0.2408 0.9391 0.5906
H17 H 0.1753 1.0148 0.5513
H18 H 0.3509 0.9721 0.5534
C25 C -0.1272(8) 0.6629(8) 0.3022(2)
H19 H -0.2306 0.6907 0.3032
C26 C 0.3261(16) 1.2635(8) 0.4626(2)
H20 H 0.3388 1.3531 0.4735
C27 C 0.4323(9) 0.4938(8) 0.2696(2)
H21 H 0.3667 0.4539 0.2488
H22 H 0.4976 0.4218 0.2810
H23 H 0.4958 0.5659 0.2577
C28 C 0.8922(9) 1.2911(7) 0.3547(3)
H24 H 0.9801 1.2291 0.3546
H25 H 0.8922 1.3449 0.3798
H26 H 0.8981 1.3534 0.3315
loop_
_geom_bond_atom_site_label_1
_geom_bond_atom_site_label_2
_geom_bond_site_symmetry_1
_geom_bond_site_symmetry_2
S1 O1 1_555 1_555
N1 S1 1_555 1_555
O2 C20 1_555 1_555
O3 S1 1_555 1_555
O4 C8 1_555 1_555
C1 N1 1_555 1_555
O5 C20 1_555 1_555
N2 C5 1_555 1_555
C2 C1 1_555 1_555
C3 C5 1_555 1_555
C4 C1 1_555 1_555
C5 C14 1_555 1_555
C6 N1 1_555 1_555
C7 H1 1_555 1_555
C8 N2 1_555 1_555
C9 S1 1_555 1_555
C10 H2 1_555 1_555
C11 C7 1_555 1_555
C12 C2 1_555 1_555
H3 C12 1_555 1_555
H4 C12 1_555 1_555
C13 C7 1_555 1_555
H5 C13 1_555 1_555
C14 H6 1_555 1_555
C15 C9 1_555 1_555
H7 C15 1_555 1_555
C16 C4 1_555 1_555
H8 C16 1_555 1_555
C17 C3 1_555 1_555
H9 C17 1_555 1_555
C18 C16 1_555 1_555
H10 C18 1_555 1_555
C19 H11 1_555 1_555
C20 C2 1_555 1_555
C21 C4 1_555 1_555
H12 C21 1_555 1_555
C22 C14 1_555 1_555
H13 C22 1_555 1_555
C23 O2 1_555 1_555
H14 C23 1_555 1_555
H15 C23 1_555 1_555
C24 C23 1_555 1_555
H16 C24 1_555 1_555
H17 C24 1_555 1_555
H18 C24 1_555 1_555
C25 C17 1_555 1_555
H19 C25 1_555 1_555
C26 C18 1_555 1_555
H20 C26 1_555 1_555
C27 N2 1_555 1_555
H21 C27 1_555 1_555
H22 C27 1_555 1_555
H23 C27 1_555 1_555
C28 C11 1_555 1_555
H24 C28 1_555 1_555
H25 C28 1_555 1_555
H26 C28 1_555 1_555
C3 C6 1_555 1_555
C6 C8 1_555 1_555
C6 C12 1_555 1_555
C9 C13 1_555 1_555
C10 C11 1_555 1_555
C10 C15 1_555 1_555
C19 C21 1_555 1_555
C19 C26 1_555 1_555
C22 C25 1_555 1_555

#END
