
#######################################################################
#
#                 Cambridge Crystallographic Data Centre
#                                CCDC 
#
#######################################################################
#
# If this CIF has been generated from an entry in the Cambridge 
# Structural Database, then it will include bibliographic, chemical, 
# crystal, experimental, refinement or atomic coordinate data resulting 
# from the CCDC's data processing and validation procedures.
#
#######################################################################

data_SUPREC
_chemical_name_common            'Propindilactone G'
_chemical_formula_moiety         'C29 H38 O8'
_chemical_name_systematic        
12a-hydroxy-10-(1-hydroxy-1-(4-methyl-5-oxo-2,5-dihydrofuran-2-yl)propan-2-yl)-5,5,10a-trimethyl-3,3a,5a,6,7,7a,10,10a,11,12,12a,13-dodecahydro-2H-furo[3,2-b]indeno[4',5':5,6]cyclohepta[1,2-c]furan-2,9(5H)-dione
_symmetry_cell_setting           monoclinic
_symmetry_space_group_name_H-M   'P 21/c'
_symmetry_Int_Tables_number      14
_space_group_name_Hall           '-P 2ybc'
loop_
_symmetry_equiv_pos_site_id
_symmetry_equiv_pos_as_xyz
1 x,y,z
2 -x,1/2+y,1/2-z
3 -x,-y,-z
4 x,1/2-y,1/2+z
_cell_length_a                   6.3154(10)
_cell_length_b                   11.6172(16)
_cell_length_c                   35.175(4)
_cell_angle_alpha                90
_cell_angle_beta                 90.05
_cell_angle_gamma                90
_cell_volume                     2580.69
_exptl_crystal_colour            colorless
_cell_formula_units_Z            4
_exptl_crystal_recrystallization_method dichloromethane/hexane
loop_
_atom_site_label
_atom_site_type_symbol
_atom_site_fract_x
_atom_site_fract_y
_atom_site_fract_z
C1 C 0.7567(4) 0.6548(2) 0.91959(7)
H1 H 0.6039 0.6325 0.9203
C2 C 0.9031(5) 0.5533(2) 0.92322(8)
H2 H 0.9342 0.5359 0.9502
H3 H 0.8428 0.4841 0.9109
C3 C 1.0934(5) 0.5936(2) 0.90319(8)
C4 C 0.8201(4) 0.7125(2) 0.88225(7)
C5 C 0.6941(4) 0.6641(2) 0.84877(7)
H4 H 0.5432 0.6826 0.8534
H5 H 0.7069 0.5792 0.8498
C6 C 0.7451(4) 0.7008(2) 0.80781(7)
C7 C 0.6403(5) 0.6134(2) 0.78093(7)
H6 H 0.6999 0.5361 0.7860
H7 H 0.4867 0.6104 0.7864
C8 C 0.6714(5) 0.6421(2) 0.73905(7)
H8 H 0.5995 0.5832 0.7233
H9 H 0.8244 0.6399 0.7330
C9 C 0.5821(4) 0.7624(2) 0.72906(7)
C10 C 0.6409(4) 0.8134(2) 0.68984(7)
H10 H 0.5144 0.8607 0.6828
C11 C 0.8102(4) 0.9025(2) 0.69842(7)
C12 C 0.8166(4) 0.9188(2) 0.73945(7)
H11 H 0.8986 0.9757 0.7521
C13 C 0.6916(4) 0.8431(2) 0.75672(7)
C14 C 0.6638(4) 0.8236(2) 0.79851(7)
H12 H 0.5079 0.8235 0.8035
C15 C 0.7589(5) 0.9188(2) 0.82321(7)
H13 H 0.9151 0.9116 0.8226
H14 H 0.7219 0.9942 0.8119
C16 C 0.6873(5) 0.9183(2) 0.86434(7)
H15 H 0.5382 0.8922 0.8653
H16 H 0.6916 0.9983 0.8741
C17 C 0.8187(4) 0.8422(2) 0.89083(7)
H17 H 0.9686 0.8689 0.8885
C18 C 0.7616(5) 0.8500(2) 0.93352(7)
C19 C 0.8991(6) 0.9329(3) 0.95565(8)
H18 H 1.0482 0.9115 0.9526
H19 H 0.8610 0.9297 0.9826
H20 H 0.8772 1.0112 0.9461
C20 C 0.5283(5) 0.8742(3) 0.94034(9)
H21 H 0.4969 0.8662 0.9675
H22 H 0.4425 0.8193 0.9258
H23 H 0.4950 0.9527 0.9321
C21 C 0.3410(4) 0.7620(2) 0.73290(8)
H24 H 0.2874 0.8407 0.7304
H25 H 0.3018 0.7313 0.7579
H26 H 0.2794 0.7136 0.7129
C22 C 0.6722(4) 0.7342(2) 0.65531(7)
H27 H 0.5584 0.6744 0.6561
C23 C 0.8838(5) 0.6716(3) 0.65445(8)
H28 H 0.8893 0.6155 0.6752
H29 H 0.9990 0.7274 0.6575
H30 H 0.8994 0.6316 0.6301
C24 C 0.6452(4) 0.8020(2) 0.61776(7)
H31 H 0.7827 0.8405 0.6117
C25 C 0.5850(4) 0.7251(2) 0.58420(7)
H32 H 0.6800 0.6563 0.5830
C26 C 0.2487(5) 0.7402(2) 0.56094(8)
C27 C 0.3877(5) 0.7984(2) 0.53411(8)
C28 C 0.5845(5) 0.7869(3) 0.54720(7)
H33 H 0.7076 0.8145 0.5346
C29 C 0.3024(5) 0.8553(3) 0.49913(8)
H34 H 0.4203 0.8792 0.4828
H35 H 0.2191 0.9230 0.5064
H36 H 0.2121 0.8011 0.4853
O1 O 0.8114(3) 0.73631(15) 0.94832(5)
O2 O 1.0445(3) 0.67865(15) 0.87873(5)
O3 O 1.2747(3) 0.56169(17) 0.90674(6)
O4 O 0.9671(3) 0.70230(16) 0.80137(5)
H37 H 1.0217 0.6425 0.8106
O5 O 0.9130(3) 0.95584(17) 0.67491(5)
O6 O 0.4862(3) 0.88812(15) 0.62067(5)
H38 H 0.5356 0.9516 0.6134
O7 O 0.3671(3) 0.68990(15) 0.58878(5)
O8 O 0.0585(3) 0.73144(19) 0.56037(6)
loop_
_geom_bond_atom_site_label_1
_geom_bond_atom_site_label_2
_geom_bond_site_symmetry_1
_geom_bond_site_symmetry_2
C1 H1 1_555 1_555
C2 C1 1_555 1_555
H2 C2 1_555 1_555
H3 C2 1_555 1_555
C3 C2 1_555 1_555
C4 C1 1_555 1_555
C5 C4 1_555 1_555
H4 C5 1_555 1_555
H5 C5 1_555 1_555
C6 C5 1_555 1_555
C7 C6 1_555 1_555
H6 C7 1_555 1_555
H7 C7 1_555 1_555
C8 C7 1_555 1_555
H8 C8 1_555 1_555
H9 C8 1_555 1_555
C9 C8 1_555 1_555
C10 C9 1_555 1_555
H10 C10 1_555 1_555
C11 C10 1_555 1_555
C12 C11 1_555 1_555
H11 C12 1_555 1_555
C13 C9 1_555 1_555
C14 C6 1_555 1_555
H12 C14 1_555 1_555
C15 C14 1_555 1_555
H13 C15 1_555 1_555
H14 C15 1_555 1_555
C16 C15 1_555 1_555
H15 C16 1_555 1_555
H16 C16 1_555 1_555
C17 C4 1_555 1_555
H17 C17 1_555 1_555
C18 C17 1_555 1_555
C19 C18 1_555 1_555
H18 C19 1_555 1_555
H19 C19 1_555 1_555
H20 C19 1_555 1_555
C20 C18 1_555 1_555
H21 C20 1_555 1_555
H22 C20 1_555 1_555
H23 C20 1_555 1_555
C21 C9 1_555 1_555
H24 C21 1_555 1_555
H25 C21 1_555 1_555
H26 C21 1_555 1_555
C22 C10 1_555 1_555
H27 C22 1_555 1_555
C23 C22 1_555 1_555
H28 C23 1_555 1_555
H29 C23 1_555 1_555
H30 C23 1_555 1_555
C24 C22 1_555 1_555
H31 C24 1_555 1_555
C25 C24 1_555 1_555
H32 C25 1_555 1_555
C26 C27 1_555 1_555
C27 C28 1_555 1_555
C28 C25 1_555 1_555
H33 C28 1_555 1_555
C29 C27 1_555 1_555
H34 C29 1_555 1_555
H35 C29 1_555 1_555
H36 C29 1_555 1_555
O1 C1 1_555 1_555
O2 C3 1_555 1_555
O3 C3 1_555 1_555
O4 C6 1_555 1_555
H37 O4 1_555 1_555
O5 C11 1_555 1_555
O6 C24 1_555 1_555
H38 O6 1_555 1_555
O7 C25 1_555 1_555
O8 C26 1_555 1_555
C4 O2 1_555 1_555
C12 C13 1_555 1_555
C13 C14 1_555 1_555
C16 C17 1_555 1_555
C18 O1 1_555 1_555
C26 O7 1_555 1_555

#END
