
#######################################################################
#
#                 Cambridge Crystallographic Data Centre
#                                CCDC 
#
#######################################################################
#
# If this CIF has been generated from an entry in the Cambridge 
# Structural Database, then it will include bibliographic, chemical, 
# crystal, experimental, refinement or atomic coordinate data resulting 
# from the CCDC's data processing and validation procedures.
#
#######################################################################

data_SUPSUT
_chemical_name_common            
'C-ethyl-5,11,17,23-tetrakis((propylammonio)methyl)calix(4)resorcinarene bis(1,1,2,2,3,3,4,4-octafluoro-1,4-diiodobutane) tetrabromide 1,4-dioxane solvate'
_chemical_formula_moiety         
'C52 H80 N4 O8 4+,2(C4 F8 I2),3(C4 H8 O2),4(Br1 1-)'
_chemical_name_systematic        
'4,6,10,12,16,18,22,24-octahydroxy-2,8,14,20-tetraethyl-5,11,17,23-tetrakis((propylammonio)methyl)calix(4)arene bis(1,1,2,2,3,3,4,4-octafluoro-1,4-diiodobutane) tetrabromide 1,4-dioxane solvate'
_symmetry_cell_setting           tetragonal
_symmetry_space_group_name_H-M   'P 4/n c c'
_symmetry_Int_Tables_number      130
_space_group_name_Hall           '-P 4a 2ac'
loop_
_symmetry_equiv_pos_site_id
_symmetry_equiv_pos_as_xyz
1 x,y,z
2 1/2-y,x,z
3 1/2-x,1/2-y,z
4 y,1/2-x,z
5 1/2+x,-y,1/2-z
6 -x,1/2+y,1/2-z
7 1/2+y,1/2+x,1/2-z
8 -y,-x,1/2-z
9 -x,-y,-z
10 1/2+y,-x,-z
11 1/2+x,1/2+y,-z
12 -y,1/2+x,-z
13 1/2-x,y,1/2+z
14 x,1/2-y,1/2+z
15 1/2-y,1/2-x,1/2+z
16 y,x,1/2+z
_cell_length_a                   17.5404(7)
_cell_length_b                   17.5404(7)
_cell_length_c                   29.3347(8)
_cell_angle_alpha                90
_cell_angle_beta                 90
_cell_angle_gamma                90
_cell_volume                     9025.28
_exptl_crystal_colour            colorless
_exptl_crystal_description       block
_cell_formula_units_Z            4
loop_
_atom_site_label
_atom_site_type_symbol
_atom_site_fract_x
_atom_site_fract_y
_atom_site_fract_z
C1 C 0.2338(9) 0.4355(8) 0.6383(3)
C2 C 0.2525(9) 0.4788(8) 0.5992(4)
C3 C 0.3215(9) 0.4784(8) 0.5789(4)
C4 C 0.3802(9) 0.4356(8) 0.5976(4)
C5 C 0.3678(8) 0.3906(8) 0.6370(3)
C6 C 0.2942(8) 0.3919(8) 0.6551(3)
H1 H 0.2845 0.3607 0.6809
C7 C 0.3420(9) 0.5227(9) 0.5356(4)
H2 H 0.3030 0.5625 0.5299
H3 H 0.3918 0.5483 0.5398
C8 C 0.3699(10) 0.5110(10) 0.4530(4)
H4 H 0.3417 0.5598 0.4507
H5 H 0.4250 0.5231 0.4549
C9 C 0.3553(9) 0.4648(10) 0.4113(4)
H6 H 0.3000 0.4540 0.4091
H7 H 0.3822 0.4155 0.4141
C10 C 0.3810(11) 0.5040(11) 0.3683(4)
H8 H 0.3848 0.4665 0.3436
H9 H 0.4309 0.5276 0.3733
H10 H 0.3439 0.5433 0.3599
C11 C 0.1548(8) 0.4338(8) 0.6578(3)
H11 H 0.1291 0.4821 0.6482
C12 C 0.1547(9) 0.4329(9) 0.7111(4)
H12 H 0.1025 0.4218 0.7219
H13 H 0.1885 0.3914 0.7218
C13 C 0.1809(15) 0.5067(14) 0.7316(6)
H14 H 0.2353 0.5139 0.7253
H15 H 0.1726 0.5056 0.7646
H16 H 0.1519 0.5490 0.7182
N1 N 0.3459(7) 0.4701(7) 0.4958(3)
H17 H 0.2953 0.4465 0.4909
H18 H 0.3828 0.4288 0.5024
O1 O 0.1932(6) 0.5237(6) 0.5833(3)
H19 H 0.1958 0.5269 0.5547
O2 O 0.4490(6) 0.4380(5) 0.5763(3)
H20 H 0.4696 0.3948 0.5776
C1A C 0.0645(8) 0.2338(9) 0.6383(3)
C2A C 0.0212(8) 0.2525(9) 0.5992(4)
C3A C 0.0216(8) 0.3215(9) 0.5789(4)
C4A C 0.0644(8) 0.3802(9) 0.5976(4)
C5A C 0.1094(8) 0.3678(8) 0.6370(3)
C6A C 0.1081(8) 0.2942(8) 0.6551(3)
H1A H 0.1393 0.2845 0.6809
C7A C -0.0227(9) 0.3420(9) 0.5356(4)
H2A H -0.0625 0.3030 0.5299
H3A H -0.0483 0.3918 0.5398
C8A C -0.0110(10) 0.3699(10) 0.4530(4)
H4A H -0.0598 0.3417 0.4507
H5A H -0.0231 0.4250 0.4549
C9A C 0.0352(10) 0.3553(9) 0.4113(4)
H6A H 0.0460 0.3000 0.4091
H7A H 0.0845 0.3822 0.4141
C10A C -0.0040(11) 0.3810(11) 0.3683(4)
H8A H 0.0335 0.3848 0.3436
H9A H -0.0276 0.4309 0.3733
H10A H -0.0433 0.3439 0.3599
C11A C 0.0662(8) 0.1548(8) 0.6578(3)
H11A H 0.0179 0.1291 0.6482
C12A C 0.0671(9) 0.1547(9) 0.7111(4)
H12A H 0.0782 0.1025 0.7219
H13A H 0.1086 0.1885 0.7218
C13A C -0.0067(14) 0.1809(15) 0.7316(6)
H14A H -0.0139 0.2353 0.7253
H15A H -0.0056 0.1726 0.7646
H16A H -0.0490 0.1519 0.7182
N1A N 0.0299(7) 0.3459(7) 0.4958(3)
H17A H 0.0535 0.2953 0.4909
H18A H 0.0712 0.3828 0.5024
O1A O -0.0237(6) 0.1932(6) 0.5833(3)
H19A H -0.0269 0.1958 0.5547
O2A O 0.0620(5) 0.4490(6) 0.5763(3)
H20A H 0.1052 0.4696 0.5776
C1C C 0.4355(8) 0.2662(9) 0.6383(3)
C2C C 0.4788(8) 0.2475(9) 0.5992(4)
C3C C 0.4784(8) 0.1785(9) 0.5789(4)
C4C C 0.4356(8) 0.1198(9) 0.5976(4)
C5C C 0.3906(8) 0.1322(8) 0.6370(3)
C6C C 0.3919(8) 0.2058(8) 0.6551(3)
H1C H 0.3607 0.2155 0.6809
C7C C 0.5227(9) 0.1580(9) 0.5356(4)
H2C H 0.5625 0.1970 0.5299
H3C H 0.5483 0.1082 0.5398
C8C C 0.5110(10) 0.1301(10) 0.4530(4)
H4C H 0.5598 0.1583 0.4507
H5C H 0.5231 0.0750 0.4549
C9C C 0.4648(10) 0.1447(9) 0.4113(4)
H6C H 0.4540 0.2000 0.4091
H7C H 0.4155 0.1178 0.4141
C10C C 0.5040(11) 0.1190(11) 0.3683(4)
H8C H 0.4665 0.1152 0.3436
H9C H 0.5276 0.0691 0.3733
H10C H 0.5433 0.1561 0.3599
C11C C 0.4338(8) 0.3452(8) 0.6578(3)
H11C H 0.4821 0.3709 0.6482
C12C C 0.4329(9) 0.3453(9) 0.7111(4)
H12C H 0.4218 0.3975 0.7219
H13C H 0.3914 0.3115 0.7218
C13C C 0.5067(14) 0.3191(15) 0.7316(6)
H14C H 0.5139 0.2647 0.7253
H15C H 0.5056 0.3274 0.7646
H16C H 0.5490 0.3481 0.7182
N1C N 0.4701(7) 0.1541(7) 0.4958(3)
H17C H 0.4465 0.2047 0.4909
H18C H 0.4288 0.1172 0.5024
O1C O 0.5237(6) 0.3068(6) 0.5833(3)
H19C H 0.5269 0.3042 0.5547
O2C O 0.4380(5) 0.0510(6) 0.5763(3)
H20C H 0.3948 0.0304 0.5776
C1B C 0.2662(9) 0.0645(8) 0.6383(3)
C2B C 0.2475(9) 0.0212(8) 0.5992(4)
C3B C 0.1785(9) 0.0216(8) 0.5789(4)
C4B C 0.1198(9) 0.0644(8) 0.5976(4)
C5B C 0.1322(8) 0.1094(8) 0.6370(3)
C6B C 0.2058(8) 0.1081(8) 0.6551(3)
H1B H 0.2155 0.1393 0.6809
C7B C 0.1580(9) -0.0227(9) 0.5356(4)
H2B H 0.1970 -0.0625 0.5299
H3B H 0.1082 -0.0483 0.5398
C8B C 0.1301(10) -0.0110(10) 0.4530(4)
H4B H 0.1583 -0.0598 0.4507
H5B H 0.0750 -0.0231 0.4549
C9B C 0.1447(9) 0.0352(10) 0.4113(4)
H6B H 0.2000 0.0460 0.4091
H7B H 0.1178 0.0845 0.4141
C10B C 0.1190(11) -0.0040(11) 0.3683(4)
H8B H 0.1152 0.0335 0.3436
H9B H 0.0691 -0.0276 0.3733
H10B H 0.1561 -0.0433 0.3599
C11B C 0.3452(8) 0.0662(8) 0.6578(3)
H11B H 0.3709 0.0179 0.6482
C12B C 0.3453(9) 0.0671(9) 0.7111(4)
H12B H 0.3975 0.0782 0.7219
H13B H 0.3115 0.1086 0.7218
C13B C 0.3191(15) -0.0067(14) 0.7316(6)
H14B H 0.2647 -0.0139 0.7253
H15B H 0.3274 -0.0056 0.7646
H16B H 0.3481 -0.0490 0.7182
N1B N 0.1541(7) 0.0299(7) 0.4958(3)
H17B H 0.2047 0.0535 0.4909
H18B H 0.1172 0.0712 0.5024
O1B O 0.3068(6) -0.0237(6) 0.5833(3)
H19B H 0.3042 -0.0269 0.5547
O2B O 0.0510(6) 0.0620(5) 0.5763(3)
H20B H 0.0304 0.1052 0.5776
C14 C 0.1680(19) 0.6286(19) 0.3123(13)
C15 C 0.112(2) 0.6014(19) 0.2757(16)
F1 F 0.1546(16) 0.7071(16) 0.3157(8)
F2 F 0.0456(17) 0.6208(17) 0.2988(9)
F3 F 0.2261(16) 0.6092(16) 0.2813(9)
F4 F 0.1190(17) 0.5258(19) 0.2800(9)
I1 I 0.1660(2) 0.5759(3) 0.37462(11)
C14F C 0.1286(19) 0.6680(19) 0.1877(13)
C15F C 0.1014(19) 0.612(2) 0.2243(16)
F1F F 0.2071(16) 0.6546(16) 0.1843(8)
F2F F 0.1208(17) 0.5456(17) 0.2012(9)
F3F F 0.1092(16) 0.7261(16) 0.2187(9)
F4F F 0.0258(19) 0.6190(17) 0.2200(9)
I1F I 0.0759(3) 0.6660(2) 0.12538(11)
C16 C 0.264(3) 0.2888(14) 0.4652(6)
C17 C 0.266(2) 0.2885(14) 0.5454(5)
O3 O 0.2344(15) 0.3262(11) 0.5057(6)
C16B C 0.236(3) 0.2112(14) 0.4652(6)
C17B C 0.234(2) 0.2115(14) 0.5454(5)
O3B O 0.2656(15) 0.1738(11) 0.5057(6)
C16A C 0.2112(14) 0.264(3) 0.4652(6)
C17A C 0.2115(14) 0.266(2) 0.5454(5)
O3A O 0.1738(11) 0.2344(15) 0.5057(6)
C16C C 0.2888(14) 0.236(3) 0.4652(6)
C17C C 0.2885(14) 0.234(2) 0.5454(5)
O3C O 0.3262(11) 0.2656(15) 0.5057(6)
Br1 Br 0.16402(10) 0.49395(11) 0.47670(4)
H21? H 0.1698 0.3816 0.7219
H22? H 0.1929 0.4699 0.7224
C18? C 0.084(3) 0.451(3) 0.7288(14)
H23? H 0.0840 0.5040 0.7398
H24? H 0.0716 0.4169 0.7542
H25? H 0.0447 0.4458 0.7050
C19? C 0.2067(6) 0.747(3) 0.5055(18)
C20? C 0.220(2) 0.719(2) 0.5783(13)
O4? O 0.2120(14) 0.6807(13) 0.5346(8)
C21? C 0.119(2) 0.532(3) 0.2987(7)
C22? C 0.138(2) 0.608(3) 0.275(2)
F5? F 0.1670(18) 0.480(2) 0.2770(11)
F6? F 0.0409(18) 0.517(2) 0.2909(11)
F7? F 0.094(2) 0.666(2) 0.2980(12)
F8? F 0.204(2) 0.651(2) 0.2870(13)
I2? I 0.1398(2) 0.5338(2) 0.36851(11)
C23? C 0.201(5) 0.190(5) 0.330(3)
C24? C 0.177(2) 0.250(8) 0.295(2)
C25? C 0.303(7) 0.297(6) 0.297(2)
C26? C 0.332(4) 0.236(5) 0.330(3)
O5? O 0.2500 0.2500 0.2708(7)
O6? O 0.276(4) 0.275(4) 0.3576(11)
loop_
_geom_bond_atom_site_label_1
_geom_bond_atom_site_label_2
_geom_bond_site_symmetry_1
_geom_bond_site_symmetry_2
C1 C2 1_555 1_555
C2 C3 1_555 1_555
C3 C4 1_555 1_555
C4 C5 1_555 1_555
C5 C6 1_555 1_555
C6 C1 1_555 1_555
H1 C6 1_555 1_555
C7 C3 1_555 1_555
H2 C7 1_555 1_555
H3 C7 1_555 1_555
C8 H4 1_555 1_555
H5 C8 1_555 1_555
C9 C8 1_555 1_555
H6 C9 1_555 1_555
H7 C9 1_555 1_555
C10 C9 1_555 1_555
H8 C10 1_555 1_555
H9 C10 1_555 1_555
H10 C10 1_555 1_555
C11 C1 1_555 1_555
H11 C11 1_555 1_555
C12 C11 1_555 1_555
H12 C12 1_555 1_555
H13 C12 1_555 1_555
C13 C12 1_555 1_555
H14 C13 1_555 1_555
H15 C13 1_555 1_555
H16 C13 1_555 1_555
N1 C7 1_555 1_555
H17 N1 1_555 1_555
H18 N1 1_555 1_555
O1 C2 1_555 1_555
H19 O1 1_555 1_555
O2 C4 1_555 1_555
H20 O2 1_555 1_555
C14 C15 1_555 1_555
C15 F2 1_555 1_555
F1 C14 1_555 1_555
F3 C14 1_555 1_555
F4 C15 1_555 1_555
I1 C14 1_555 1_555
C16 O3 1_555 1_555
C17 O3 1_555 1_555
C1A C2A 1_555 1_555
C2A C3A 1_555 1_555
C3A C4A 1_555 1_555
C4A C5A 1_555 1_555
C5A C11 1_555 1_555
C6A C1A 1_555 1_555
H1A C6A 1_555 1_555
C7A C3A 1_555 1_555
H2A C7A 1_555 1_555
H3A C7A 1_555 1_555
C8A H4A 1_555 1_555
H5A C8A 1_555 1_555
C9A C8A 1_555 1_555
H6A C9A 1_555 1_555
H7A C9A 1_555 1_555
C10A C9A 1_555 1_555
H8A C10A 1_555 1_555
H9A C10A 1_555 1_555
H10A C10A 1_555 1_555
C11A C1A 1_555 1_555
H11A C11A 1_555 1_555
C12A C11A 1_555 1_555
H12A C12A 1_555 1_555
H13A C12A 1_555 1_555
C13A C12A 1_555 1_555
H14A C13A 1_555 1_555
H15A C13A 1_555 1_555
H16A C13A 1_555 1_555
N1A C7A 1_555 1_555
H17A N1A 1_555 1_555
H18A N1A 1_555 1_555
O1A C2A 1_555 1_555
H19A O1A 1_555 1_555
O2A C4A 1_555 1_555
H20A O2A 1_555 1_555
C1C C2C 1_555 1_555
C2C C3C 1_555 1_555
C3C C4C 1_555 1_555
C4C C5C 1_555 1_555
C5C C6C 1_555 1_555
C6C C1C 1_555 1_555
H1C C6C 1_555 1_555
C7C C3C 1_555 1_555
H2C C7C 1_555 1_555
H3C C7C 1_555 1_555
C8C H4C 1_555 1_555
H5C C8C 1_555 1_555
C9C C8C 1_555 1_555
H6C C9C 1_555 1_555
H7C C9C 1_555 1_555
C10C C9C 1_555 1_555
H8C C10C 1_555 1_555
H9C C10C 1_555 1_555
H10C C10C 1_555 1_555
C11C C5 1_555 1_555
H11C C11C 1_555 1_555
C12C C11C 1_555 1_555
H12C C12C 1_555 1_555
H13C C12C 1_555 1_555
C13C C12C 1_555 1_555
H14C C13C 1_555 1_555
H15C C13C 1_555 1_555
H16C C13C 1_555 1_555
N1C C7C 1_555 1_555
H17C N1C 1_555 1_555
H18C N1C 1_555 1_555
O1C C2C 1_555 1_555
H19C O1C 1_555 1_555
O2C C4C 1_555 1_555
H20C O2C 1_555 1_555
C1B C2B 1_555 1_555
C2B C3B 1_555 1_555
C3B C4B 1_555 1_555
C4B C5B 1_555 1_555
C5B C11A 1_555 1_555
C6B C1B 1_555 1_555
H1B C6B 1_555 1_555
C7B C3B 1_555 1_555
H2B C7B 1_555 1_555
H3B C7B 1_555 1_555
C8B H4B 1_555 1_555
H5B C8B 1_555 1_555
C9B C8B 1_555 1_555
H6B C9B 1_555 1_555
H7B C9B 1_555 1_555
C10B C9B 1_555 1_555
H8B C10B 1_555 1_555
H9B C10B 1_555 1_555
H10B C10B 1_555 1_555
C11B C5C 1_555 1_555
H11B C11B 1_555 1_555
C12B C11B 1_555 1_555
H12B C12B 1_555 1_555
H13B C12B 1_555 1_555
C13B C12B 1_555 1_555
H14B C13B 1_555 1_555
H15B C13B 1_555 1_555
H16B C13B 1_555 1_555
N1B C7B 1_555 1_555
H17B N1B 1_555 1_555
H18B N1B 1_555 1_555
O1B C2B 1_555 1_555
H19B O1B 1_555 1_555
O2B C4B 1_555 1_555
H20B O2B 1_555 1_555
C14F C15F 1_555 1_555
C15F C15 1_555 1_555
F1F C14F 1_555 1_555
F2F C15F 1_555 1_555
F3F C14F 1_555 1_555
F4F C15F 1_555 1_555
I1F C14F 1_555 1_555
C16B C16 1_555 1_555
C17B C17 1_555 1_555
O3B C16B 1_555 1_555
C16A O3A 1_555 1_555
C17A O3A 1_555 1_555
C16C C16A 1_555 1_555
C17C C17A 1_555 1_555
O3C C16C 1_555 1_555
C8 N1 1_555 1_555
C5A C6A 1_555 1_555
C8A N1A 1_555 1_555
C1C C11C 1_555 1_555
C8C N1C 1_555 1_555
C1B C11B 1_555 1_555
C5B C6B 1_555 1_555
C8B N1B 1_555 1_555
C17B O3B 1_555 1_555
C17C O3C 1_555 1_555

#END
