
#######################################################################
#
#                 Cambridge Crystallographic Data Centre
#                                CCDC 
#
#######################################################################
#
# If this CIF has been generated from an entry in the Cambridge 
# Structural Database, then it will include bibliographic, chemical, 
# crystal, experimental, refinement or atomic coordinate data resulting 
# from the CCDC's data processing and validation procedures.
#
#######################################################################

data_SUPTAA
_chemical_name_common            
'C-propyl-5,11,17,23-tetrakis((hexylammonio)methyl)calix(4)resorcinarene 1,1,2,2,3,3,4,4-octafluoro-1,4-diiodobutane tetrabromide chloroform 1,4-dioxane solvate'
_chemical_formula_moiety         
'C68 H112 N4 O8 4+,C4 F8 I2,C4 H8 O2,4(Br1 1-),C1 H1 Cl3'
_chemical_name_systematic        
'5,11,17,23-tetrakis((hexylammonio)methyl)-4,6,10,12,16,18,22,24-octahydroxy-2,8,14,20-tetrapropylcalix(4)arene 1,1,2,2,3,3,4,4-octafluoro-1,4-diiodobutane tetrabromide chloroform 1,4-dioxane solvate'
_symmetry_cell_setting           triclinic
_symmetry_space_group_name_H-M   'P -1'
_symmetry_Int_Tables_number      2
_space_group_name_Hall           '-P 1'
loop_
_symmetry_equiv_pos_site_id
_symmetry_equiv_pos_as_xyz
1 x,y,z
2 -x,-y,-z
_cell_length_a                   12.4020(2)
_cell_length_b                   22.5922(3)
_cell_length_c                   33.1865(6)
_cell_angle_alpha                77.6713(14)
_cell_angle_beta                 89.4968(15)
_cell_angle_gamma                82.9410(14)
_cell_volume                     9013.72
_exptl_crystal_colour            colorless
_exptl_crystal_description       block
_cell_formula_units_Z            4
loop_
_atom_site_label
_atom_site_type_symbol
_atom_site_fract_x
_atom_site_fract_y
_atom_site_fract_z
Br1 Br 0.33793(4) 0.28444(2) 0.47126(2)
C1 C 0.9250(3) 0.14431(16) 0.60244(11)
C2 C 0.9530(3) 0.13357(16) 0.56325(11)
C3 C 0.8953(3) 0.09655(16) 0.54465(11)
C4 C 0.8090(3) 0.06972(16) 0.56588(11)
C5 C 0.7787(3) 0.07910(16) 0.60484(11)
C6 C 0.8388(3) 0.11690(17) 0.62210(11)
H1 H 0.8197 0.1239 0.6480
C7 C 0.9266(3) 0.08275(17) 0.50356(12)
H2 H 0.9456 0.0390 0.5067
H3 H 0.9903 0.1023 0.4940
C8 C 0.8700(3) 0.10343(17) 0.42855(11)
H4 H 0.9166 0.1350 0.4194
H5 H 0.8056 0.1130 0.4108
C9 C 0.9293(4) 0.04269(19) 0.42379(13)
H6 H 0.8870 0.0105 0.4365
H7 H 0.9985 0.0358 0.4385
C10 C 0.9499(4) 0.0387(2) 0.37883(13)
H8 H 0.9902 0.0718 0.3662
H9 H 0.9958 0.0007 0.3787
C11 C 0.8501(4) 0.0413(2) 0.35225(13)
H10 H 0.8079 0.0811 0.3495
H11 H 0.8730 0.0370 0.3249
C12 C 0.7786(4) -0.0071(2) 0.36911(14)
H12 H 0.7432 0.0022 0.3936
H13 H 0.8233 -0.0462 0.3772
C13 C 0.6925(5) -0.0119(2) 0.33802(17)
H14 H 0.7269 -0.0188 0.3131
H15 H 0.6435 0.0253 0.3320
H16 H 0.6528 -0.0454 0.3493
C14 C 0.6849(3) 0.04969(17) 0.62712(11)
H17 H 0.6843 0.0104 0.6192
C15 C 0.6972(3) 0.03590(18) 0.67443(11)
H18 H 0.7693 0.0148 0.6823
H19 H 0.6906 0.0741 0.6837
C16 C 0.6130(4) -0.0029(2) 0.69602(13)
H20 H 0.6196 -0.0412 0.6868
H21 H 0.5409 0.0182 0.6882
C17 C 0.6260(5) -0.0164(3) 0.74297(15)
H22 H 0.6983 -0.0358 0.7508
H23 H 0.5743 -0.0429 0.7552
H24 H 0.6137 0.0212 0.7524
C18 C 0.5764(3) 0.08817(16) 0.61205(11)
C19 C 0.5101(3) 0.07166(16) 0.58361(11)
C20 C 0.4106(3) 0.10597(17) 0.56987(12)
C21 C 0.3765(3) 0.15755(17) 0.58626(13)
C22 C 0.4402(3) 0.17571(18) 0.61488(12)
C23 C 0.5403(3) 0.14089(17) 0.62626(12)
H25 H 0.5853 0.1535 0.6442
C24 C 0.3360(3) 0.09074(17) 0.53913(12)
H26 H 0.3533 0.0480 0.5381
H27 H 0.2616 0.0968 0.5482
C25 C 0.2635(3) 0.11690(18) 0.46729(12)
H28 H 0.1910 0.1315 0.4750
H29 H 0.2673 0.0732 0.4695
C26 C 0.2826(4) 0.1475(2) 0.42297(13)
H30 H 0.3565 0.1347 0.4157
H31 H 0.2743 0.1914 0.4204
C27 C 0.2036(4) 0.13155(19) 0.39301(13)
H32 H 0.2073 0.0875 0.3972
H33 H 0.1301 0.1475 0.3987
C28 C 0.2297(4) 0.1579(2) 0.34844(15)
H34 H 0.3049 0.1439 0.3437
H35 H 0.2225 0.2021 0.3443
C29 C 0.1583(4) 0.1411(2) 0.31660(15)
H36 H 0.0835 0.1578 0.3197
H37 H 0.1615 0.0970 0.3216
C30 C 0.1937(5) 0.1653(3) 0.27208(17)
H38 H 0.1481 0.1526 0.2531
H39 H 0.2679 0.1493 0.2689
H40 H 0.1871 0.2091 0.2665
C31 C 0.4005(3) 0.22991(18) 0.63441(13)
H41 H 0.3221 0.2394 0.6288
C32 C 0.4163(3) 0.2139(2) 0.68149(14)
H42 H 0.4932 0.2029 0.6882
H43 H 0.3914 0.2495 0.6925
C33 C 0.3557(4) 0.1619(2) 0.70168(15)
H44 H 0.3813 0.1261 0.6909
H45 H 0.2790 0.1726 0.6947
C34 C 0.3703(5) 0.1461(3) 0.74896(16)
H46 H 0.4450 0.1311 0.7561
H47 H 0.3252 0.1153 0.7606
H48 H 0.3498 0.1821 0.7597
C35 C 0.4526(3) 0.28604(18) 0.61326(13)
C36 C 0.4085(3) 0.32153(18) 0.57571(14)
C37 C 0.4581(3) 0.37045(17) 0.55418(13)
C38 C 0.5541(3) 0.38371(17) 0.57017(13)
C39 C 0.5990(3) 0.35130(17) 0.60785(13)
C40 C 0.5463(3) 0.30288(17) 0.62851(12)
H49 H 0.5750 0.2806 0.6538
C41 C 0.4162(3) 0.40912(18) 0.51321(14)
H50 H 0.3410 0.4038 0.5090
H51 H 0.4197 0.4519 0.5129
C42 C 0.4761(4) 0.4379(2) 0.43969(15)
H52 H 0.5059 0.4738 0.4441
H53 H 0.4003 0.4499 0.4316
C43 C 0.5365(4) 0.4147(2) 0.40514(15)
H54 H 0.5113 0.3768 0.4023
H55 H 0.6135 0.4063 0.4120
C44 C 0.5194(5) 0.4610(2) 0.36416(16)
H56 H 0.5440 0.4990 0.3671
H57 H 0.4424 0.4692 0.3572
C45 C 0.5806(5) 0.4383(3) 0.32909(18)
H58 H 0.6574 0.4306 0.3363
H59 H 0.5568 0.3998 0.3269
C46 C 0.5659(6) 0.4819(3) 0.2869(2)
H60 H 0.5861 0.5212 0.2892
H61 H 0.6150 0.4661 0.2677
C47 C 0.4544(7) 0.4908(4) 0.2700(2)
H62 H 0.4500 0.5199 0.2442
H63 H 0.4050 0.5057 0.2890
H64 H 0.4355 0.4526 0.2658
C48 C 0.7023(3) 0.36879(18) 0.62472(13)
H65 H 0.6988 0.4133 0.6162
C49 C 0.7085(3) 0.35300(19) 0.67215(13)
H66 H 0.6399 0.3682 0.6827
H67 H 0.7187 0.3089 0.6815
C50 C 0.7996(4) 0.3792(2) 0.69012(14)
H68 H 0.8685 0.3641 0.6797
H69 H 0.7894 0.4234 0.6811
C51 C 0.8031(5) 0.3624(2) 0.73694(15)
H70 H 0.8094 0.3188 0.7460
H71 H 0.7376 0.3805 0.7474
H72 H 0.8646 0.3773 0.7470
C52 C 0.8039(3) 0.34177(17) 0.60529(12)
C53 C 0.8591(3) 0.37706(18) 0.57369(13)
C54 C 0.9545(3) 0.35280(17) 0.55751(12)
C55 C 0.9923(3) 0.29077(18) 0.57192(13)
C56 C 0.9402(3) 0.25375(17) 0.60316(12)
C57 C 0.8458(3) 0.28052(17) 0.61874(12)
H73 H 0.8089 0.2563 0.6391
C58 C 1.0236(3) 0.39003(18) 0.52714(14)
H74 H 1.0990 0.3803 0.5363
H75 H 1.0021 0.4331 0.5262
C59 C 1.0882(4) 0.4100(2) 0.45410(16)
H76 H 1.1617 0.3895 0.4589
H77 H 1.0878 0.4518 0.4572
C60 C 1.0486(7) 0.4094(4) 0.40950(19)
H78 H 1.0518 0.3673 0.4068
H79 H 0.9731 0.4273 0.4061
C61 C 1.1148(8) 0.4441(4) 0.3744(3)
H80 H 1.0732 0.4517 0.3488
H81 H 1.1247 0.4833 0.3803
C62 C 1.2251(7) 0.4103(3) 0.3686(3)
H82 H 1.2644 0.4004 0.3948
H83 H 1.2654 0.4375 0.3493
C63 C 1.2231(5) 0.3502(3) 0.3527(2)
H84 H 1.1877 0.3209 0.3724
H85 H 1.1836 0.3586 0.3266
C64 C 1.3358(5) 0.3260(3) 0.3476(2)
H86 H 1.3680 0.3538 0.3263
H87 H 1.3381 0.2871 0.3401
H88 H 1.3754 0.3211 0.3730
C65 C 0.9861(3) 0.18728(17) 0.62067(12)
H89 H 1.0613 0.1821 0.6115
C66 C 0.9904(3) 0.17444(19) 0.66798(12)
H90 H 1.0209 0.2074 0.6766
H91 H 0.9169 0.1741 0.6782
C67 C 1.0567(4) 0.1149(2) 0.68724(14)
H92 H 1.1278 0.1129 0.6748
H93 H 1.0212 0.0813 0.6819
C68 C 1.0699(5) 0.1084(2) 0.73392(15)
H94 H 1.0929 0.1450 0.7394
H95 H 1.1235 0.0744 0.7447
H96 H 1.0017 0.1018 0.7469
N1 N 0.8367(3) 0.10443(14) 0.47179(10)
H97 H 0.7788 0.0790 0.4789
H98 H 0.8076 0.1459 0.4730
N2 N 0.3449(3) 0.12925(15) 0.49656(11)
H99 H 0.3332 0.1721 0.4978
H100 H 0.4175 0.1207 0.4865
N3 N 0.4838(3) 0.39068(15) 0.47929(12)
H101 H 0.4614 0.3534 0.4740
H102 H 0.5592 0.3818 0.4886
N4 N 1.0132(3) 0.37799(16) 0.48452(12)
H103 H 1.0281 0.3344 0.4861
H104 H 0.9388 0.3910 0.4746
O1 O 1.0410(2) 0.15846(13) 0.54445(9)
H105 H 1.0266 0.1725 0.5199
O2 O 0.7603(2) 0.03311(12) 0.54553(8)
H106 H 0.6980 0.0307 0.5537
O3 O 0.5509(2) 0.02021(12) 0.56970(9)
H107 H 0.5016 0.0073 0.5592
O4 O 0.2761(2) 0.18739(13) 0.57305(11)
H108 H 0.2735 0.2234 0.5742
O5 O 0.3134(2) 0.30670(14) 0.56156(11)
H109 H 0.3234 0.2979 0.5390
O6 O 0.5998(2) 0.43063(13) 0.54532(10)
H110 H 0.6577 0.4345 0.5556
O7 O 0.8163(2) 0.43778(12) 0.55979(10)
H111 H 0.8185 0.4468 0.5345
O8 O 1.0862(2) 0.27095(13) 0.55426(10)
H112 H 1.0919 0.2337 0.5572
C72 C 0.7247(3) 0.43395(15) -0.11320(11)
C73 C 0.6959(3) 0.44185(16) -0.07384(11)
C74 C 0.6093(3) 0.41538(16) -0.05332(11)
C75 C 0.5513(3) 0.37947(16) -0.07247(11)
C76 C 0.5782(3) 0.36978(16) -0.11179(11)
C77 C 0.6648(3) 0.39787(16) -0.13122(11)
H123 H 0.6834 0.3922 -0.1575
C78 C 0.5808(3) 0.42742(17) -0.01137(12)
H124 H 0.5742 0.4710 -0.0126
H125 H 0.5111 0.4136 -0.0034
C79 C 0.6358(3) 0.39533(19) 0.06425(12)
H126 H 0.5614 0.3866 0.0684
H127 H 0.6823 0.3631 0.0824
C80 C 0.6466(4) 0.4546(2) 0.07569(14)
H128 H 0.5932 0.4858 0.0600
H129 H 0.7181 0.4660 0.0680
C81 C 0.6311(9) 0.4530(5) 0.12173(19)
H130 H 0.5544 0.4610 0.1273
H131 H 0.6586 0.4129 0.1378
C82 C 0.6909(7) 0.5002(4) 0.1337(3)
H132 H 0.6619 0.5403 0.1181
H133 H 0.7671 0.4929 0.1271
C83 C 0.6797(6) 0.4983(3) 0.1804(2)
H134 H 0.6050 0.5106 0.1868
H135 H 0.7021 0.4574 0.1963
C84 C 0.7538(6) 0.5430(3) 0.1903(3)
H136 H 0.8272 0.5306 0.1833
H137 H 0.7506 0.5430 0.2192
H138 H 0.7301 0.5833 0.1746
C85 C 0.5171(3) 0.32813(16) -0.13117(11)
H139 H 0.4420 0.3328 -0.1217
C86 C 0.5119(3) 0.34507(16) -0.17846(11)
H140 H 0.4871 0.3883 -0.1873
H141 H 0.5843 0.3375 -0.1890
C87 C 0.4361(4) 0.3090(2) -0.19673(13)
H142 H 0.3647 0.3146 -0.1850
H143 H 0.4633 0.2659 -0.1893
C88 C 0.4262(5) 0.3289(3) -0.24366(15)
H144 H 0.4949 0.3190 -0.2556
H145 H 0.4050 0.3722 -0.2512
H146 H 0.3724 0.3082 -0.2536
C89 C 0.5626(3) 0.26132(16) -0.11514(11)
C90 C 0.5118(3) 0.22270(17) -0.08440(11)
C91 C 0.5502(3) 0.16062(16) -0.07073(11)
C92 C 0.6460(3) 0.13739(16) -0.08804(12)
C93 C 0.6986(3) 0.17425(17) -0.11956(11)
C94 C 0.6564(3) 0.23537(17) -0.13148(11)
H147 H 0.6928 0.2605 -0.1515
C95 C 0.4819(3) 0.12215(16) -0.04118(12)
H148 H 0.5050 0.0794 -0.0408
H149 H 0.4067 0.1313 -0.0507
C96 C 0.4119(3) 0.09991(19) 0.03073(13)
H150 H 0.4271 0.0564 0.0320
H151 H 0.3383 0.1132 0.0202
C97 C 0.4210(4) 0.1120(2) 0.07373(13)
H152 H 0.4076 0.1555 0.0725
H153 H 0.4938 0.0974 0.0848
C98 C 0.3381(4) 0.0793(2) 0.10185(15)
H154 H 0.2659 0.0928 0.0899
H155 H 0.3532 0.0357 0.1034
C99 C 0.3402(5) 0.0912(3) 0.14552(16)
H156 H 0.4139 0.0801 0.1564
H157 H 0.2948 0.0644 0.1627
C100 C 0.3024(6) 0.1569(4) 0.1496(2)
H158 H 0.3187 0.1605 0.1774
H159 H 0.3437 0.1843 0.1308
C101 C 0.1848(6) 0.1768(3) 0.1408(2)
H160 H 0.1689 0.1772 0.1125
H161 H 0.1665 0.2171 0.1458
H162 H 0.1430 0.1491 0.1584
C102 C 0.7990(3) 0.14852(16) -0.14016(12)
H163 H 0.8024 0.1040 -0.1325
C103 C 0.7907(3) 0.16622(18) -0.18760(12)
H164 H 0.7788 0.2104 -0.1961
H165 H 0.8594 0.1523 -0.1988
C104 C 0.7002(4) 0.1397(2) -0.20575(14)
H166 H 0.6310 0.1538 -0.1950
H167 H 0.7117 0.0955 -0.1975
C105 C 0.6965(4) 0.1586(3) -0.25279(15)
H168 H 0.7649 0.1448 -0.2635
H169 H 0.6825 0.2023 -0.2610
H170 H 0.6397 0.1406 -0.2634
C106 C 0.9039(3) 0.16462(16) -0.12396(12)
C107 C 0.9521(3) 0.12945(16) -0.08729(12)
C108 C 1.0494(3) 0.14161(16) -0.07174(12)
C109 C 1.0967(3) 0.19212(16) -0.09236(12)
C110 C 1.0507(3) 0.22933(16) -0.12858(11)
C111 C 0.9553(3) 0.21415(16) -0.14371(11)
H171 H 0.9246 0.2383 -0.1681
C112 C 1.0961(3) 0.10002(17) -0.03310(13)
H172 H 1.1715 0.1056 -0.0298
H173 H 1.0933 0.0579 -0.0348
C113 C 1.0546(4) 0.06555(18) 0.04202(14)
H174 H 1.1321 0.0583 0.0480
H175 H 1.0315 0.0277 0.0379
C114 C 0.9955(4) 0.0843(2) 0.07812(15)
H176 H 0.9180 0.0852 0.0739
H177 H 1.0094 0.1252 0.0793
C115 C 1.0297(5) 0.0415(2) 0.11899(15)
H178 H 1.1078 0.0386 0.1225
H179 H 1.0116 0.0011 0.1185
C116 C 0.9743(5) 0.0631(3) 0.15559(17)
H180 H 0.9783 0.1064 0.1525
H181 H 0.8982 0.0572 0.1553
C117 C 1.0257(7) 0.0292(4) 0.19709(19)
H182 H 1.0187 -0.0139 0.2007
H183 H 1.1027 0.0334 0.1968
C118 C 0.9744(9) 0.0524(4) 0.2336(2)
H184 H 0.9793 0.0953 0.2299
H185 H 1.0122 0.0310 0.2586
H186 H 0.8995 0.0456 0.2353
C119 C 1.1017(3) 0.28650(17) -0.14870(12)
H187 H 1.1804 0.2768 -0.1438
C120 C 1.0838(3) 0.30689(17) -0.19560(12)
H188 H 1.0063 0.3133 -0.2017
H189 H 1.1117 0.3457 -0.2050
C121 C 1.1381(4) 0.2612(2) -0.21954(13)
H190 H 1.2148 0.2526 -0.2122
H191 H 1.1064 0.2233 -0.2118
C122 C 1.1252(4) 0.2849(2) -0.26598(15)
H192 H 1.1671 0.2569 -0.2799
H193 H 1.1504 0.3242 -0.2735
H194 H 1.0500 0.2884 -0.2738
C123 C 1.0638(3) 0.33836(16) -0.12707(12)
C124 C 1.1282(3) 0.35472(16) -0.09797(11)
C125 C 1.0947(3) 0.40406(16) -0.07961(11)
C126 C 0.9950(3) 0.43922(16) -0.09169(11)
C127 C 0.9280(3) 0.42442(16) -0.12088(11)
C128 C 0.9627(3) 0.37350(16) -0.13675(11)
H195 H 0.9164 0.3621 -0.1548
C129 C 1.1704(3) 0.41712(16) -0.04810(12)
H196 H 1.2445 0.4117 -0.0575
H197 H 1.1534 0.4594 -0.0459
C130 C 1.2461(3) 0.38586(18) 0.02350(12)
H198 H 1.3172 0.3689 0.0160
H199 H 1.2470 0.4293 0.0212
C131 C 1.2251(4) 0.3568(2) 0.06736(13)
H200 H 1.2254 0.3132 0.0699
H201 H 1.1539 0.3734 0.0750
C132 C 1.3112(3) 0.36801(19) 0.09674(13)
H202 H 1.3804 0.3459 0.0918
H203 H 1.3193 0.4112 0.0908
C133 C 1.2832(4) 0.3483(2) 0.14182(14)
H204 H 1.2801 0.3046 0.1481
H205 H 1.2115 0.3682 0.1462
C134 C 1.3635(5) 0.3631(2) 0.17152(16)
H206 H 1.3679 0.4066 0.1649
H207 H 1.4349 0.3423 0.1677
C135 C 1.3326(6) 0.3442(3) 0.21662(17)
H208 H 1.2641 0.3666 0.2211
H209 H 1.3875 0.3530 0.2339
H210 H 1.3266 0.3013 0.2232
C136 C 0.8198(3) 0.46364(16) -0.13507(11)
H211 H 0.8213 0.5023 -0.1263
C137 C 0.8078(3) 0.47924(17) -0.18238(12)
H212 H 0.8118 0.4417 -0.1923
H213 H 0.7368 0.5020 -0.1901
C138 C 0.8952(4) 0.5167(2) -0.20306(14)
H214 H 0.9662 0.4947 -0.1945
H215 H 0.8893 0.5550 -0.1940
C139 C 0.8857(5) 0.5300(2) -0.25016(16)
H216 H 0.9375 0.5568 -0.2618
H217 H 0.8136 0.5490 -0.2587
H218 H 0.8999 0.4924 -0.2595
N5 N 0.6656(3) 0.39524(15) 0.02040(10)
H219 H 0.6815 0.3532 0.0176
H220 H 0.7317 0.4142 0.0145
N6 N 0.4895(3) 0.13270(14) 0.00194(10)
H221 H 0.5630 0.1191 0.0126
H222 H 0.4746 0.1761 0.0010
N7 N 1.0328(3) 0.11346(15) 0.00359(11)
H223 H 1.0500 0.1519 0.0088
H224 H 0.9558 0.1184 -0.0032
N8 N 1.1625(3) 0.37638(14) -0.00616(10)
H225 H 1.0905 0.3848 0.0046
H226 H 1.1725 0.3341 -0.0087
O9 O 0.7477(2) 0.47541(12) -0.05210(9)
H227 H 0.8114 0.4750 -0.0590
O10 O 0.4625(2) 0.35396(13) -0.05356(8)
H228 H 0.4802 0.3345 -0.0303
O11 O 0.4183(2) 0.24137(12) -0.06570(8)
H229 H 0.4151 0.2779 -0.0661
O12 O 0.6899(2) 0.07720(12) -0.07521(9)
H230 H 0.6789 0.0656 -0.0505
O13 O 0.9094(2) 0.08020(12) -0.06403(9)
H231 H 0.8457 0.0813 -0.0709
O14 O 1.1932(2) 0.20550(13) -0.07798(9)
H232 H 1.1937 0.1981 -0.0527
O15 O 1.2292(2) 0.32463(12) -0.08590(9)
H233 H 1.2315 0.2888 -0.0875
O16 O 0.9560(2) 0.48984(12) -0.07670(9)
H234 H 1.0002 0.4957 -0.0602
C143 C 0.8623(4) 0.3279(3) 0.29578(15)
C144 C 0.9308(4) 0.3000(2) 0.26414(15)
C145 C 0.9035(4) 0.3284(2) 0.21804(15)
C146 C 0.9656(5) 0.2963(3) 0.18699(17)
F1 F 0.8662(4) 0.38832(16) 0.28798(12)
F2 F 0.7577(3) 0.3196(2) 0.29161(12)
F3 F 1.0350(2) 0.30626(18) 0.27107(10)
F4 F 0.9209(3) 0.24011(14) 0.27163(10)
F5 F 0.9252(3) 0.38663(14) 0.21048(10)
F6 F 0.7965(2) 0.32872(16) 0.21153(10)
F7 F 1.0733(3) 0.2910(2) 0.19604(11)
F8 F 0.9416(4) 0.23896(16) 0.19220(12)
I1 I 0.91912(3) 0.28805(2) 0.35802(2)
I2 I 0.93641(3) 0.34429(2) 0.12424(2)
C147 C 0.5430(4) 0.2113(2) 0.30181(14)
C148 C 0.6034(4) 0.1770(2) 0.27123(14)
C149 C 0.5811(4) 0.2072(2) 0.22496(14)
C150 C 0.6474(5) 0.1769(3) 0.19399(16)
F9 F 0.5714(4) 0.26736(16) 0.29730(11)
F10 F 0.4359(3) 0.21831(18) 0.29290(10)
F11 F 0.7099(3) 0.1734(2) 0.27894(10)
F12 F 0.5731(4) 0.12126(15) 0.27799(10)
F13 F 0.5976(3) 0.26579(14) 0.21805(10)
F14 F 0.4755(2) 0.20553(17) 0.21693(9)
F15 F 0.7530(3) 0.1827(3) 0.19891(13)
F16 F 0.6368(5) 0.11779(18) 0.20215(12)
I3 I 0.56966(2) 0.16161(2) 0.36503(2)
I4 I 0.59602(3) 0.21732(2) 0.13113(2)
C151 C 0.6701(4) 0.2510(2) 0.53786(15)
H246 H 0.6194 0.2535 0.5600
H247 H 0.7411 0.2345 0.5501
C152 C 0.6342(3) 0.20930(18) 0.51202(14)
H248 H 0.6337 0.1686 0.5289
H249 H 0.5610 0.2242 0.5015
C153 C 0.7114(4) 0.2665(2) 0.45398(15)
H250 H 0.6403 0.2836 0.4421
H251 H 0.7617 0.2643 0.4316
C154 C 0.7488(4) 0.3069(2) 0.48056(17)
H252 H 0.8205 0.2902 0.4920
H253 H 0.7535 0.3474 0.4639
O17 O 0.6750(3) 0.31105(14) 0.51293(11)
O18 O 0.7063(3) 0.20699(13) 0.47843(10)
C155 C 0.8323(4) 0.2530(2) -0.04782(15)
H254 H 0.7585 0.2672 -0.0579
H255 H 0.8789 0.2527 -0.0714
C156 C 0.8684(4) 0.29556(19) -0.02287(15)
H256 H 0.9438 0.2829 -0.0143
H257 H 0.8630 0.3366 -0.0397
C157 C 0.8085(4) 0.2344(2) 0.03686(16)
H258 H 0.7633 0.2342 0.0609
H259 H 0.8827 0.2198 0.0463
C158 C 0.7702(4) 0.1932(2) 0.01167(19)
H260 H 0.7727 0.1522 0.0284
H261 H 0.6955 0.2074 0.0026
O19 O 0.8370(3) 0.19241(14) -0.02321(11)
O20 O 0.8030(3) 0.29540(13) 0.01250(10)
C159 C 0.6884(7) -0.0456(3) 0.1322(2)
H262 H 0.6991 -0.0266 0.1032
Cl1 Cl 0.5633(12) -0.0799(6) 0.13525(16)
Cl2 Cl 0.6535(2) 0.01241(11) 0.15888(9)
Cl3 Cl 0.8124(2) -0.08553(11) 0.15253(8)
C160 C 0.8197(5) 0.5573(3) 0.35825(17)
H264 H 0.8111 0.5240 0.3819
Cl5 Cl 0.69682(13) 0.60416(7) 0.34868(5)
Cl6 Cl 0.85418(16) 0.52544(10) 0.31503(7)
Cl7 Cl 0.92394(16) 0.59688(10) 0.36988(5)
Br2 Br 0.92466(3) 0.42628(2) 0.02880(2)
Br3 Br 0.79591(4) 0.47644(2) 0.46320(2)
Br4 Br 1.01081(4) 0.23498(2) 0.45421(2)
Br5 Br 0.50879(3) 0.27245(2) 0.03388(2)
Br6 Br 1.17145(4) 0.22191(2) 0.01412(2)
Br7 Br 0.69827(4) 0.02965(2) 0.02237(2)
Br8 Br 0.58226(3) 0.07466(2) 0.46127(2)
H113? H 1.1606 0.4023 0.4664
H114? H 1.0655 0.4536 0.4497
C69? C 1.0949(17) 0.3927(8) 0.4126(4)
H115? H 1.1150 0.3491 0.4158
H116? H 1.0259 0.4044 0.3978
C70? C 1.1787(13) 0.4264(6) 0.3910(5)
H117? H 1.2493 0.4107 0.4038
H118? H 1.1636 0.4694 0.3915
C71? C 1.1770(13) 0.4177(4) 0.3468(5)
H119? H 1.2228 0.4440 0.3293
H120? H 1.1038 0.4254 0.3353
H121? H 1.2045 0.3311 0.3805
H122? H 1.1804 0.3336 0.3343
H235? H 0.6148 0.4880 0.0540
H236? H 0.7229 0.4588 0.0786
C140? C 0.5882(17) 0.4575(9) 0.1168(4)
H237? H 0.5954 0.4168 0.1342
H238? H 0.5114 0.4704 0.1110
C141? C 0.6322(19) 0.5015(9) 0.1411(7)
H239? H 0.6230 0.5411 0.1223
H240? H 0.5804 0.5044 0.1629
C142? C 0.7447(16) 0.4969(8) 0.1618(6)
H241? H 0.7984 0.5034 0.1404
H242? H 0.7627 0.4558 0.1780
H243? H 0.7545 0.5833 0.1736
H244? H 0.8198 0.5313 0.2065
H245? H 0.6927 0.5426 0.2083
H263? H 0.6972 -0.0274 0.1029
Cl4? Cl 0.6201(13) -0.1109(8) 0.1361(2)
loop_
_geom_bond_atom_site_label_1
_geom_bond_atom_site_label_2
_geom_bond_site_symmetry_1
_geom_bond_site_symmetry_2
C1 C2 1_555 1_555
C2 C3 1_555 1_555
C3 C4 1_555 1_555
C4 C5 1_555 1_555
C5 C6 1_555 1_555
C6 C1 1_555 1_555
H1 C6 1_555 1_555
C7 C3 1_555 1_555
H2 C7 1_555 1_555
H3 C7 1_555 1_555
C8 H4 1_555 1_555
H5 C8 1_555 1_555
C9 C8 1_555 1_555
H6 C9 1_555 1_555
H7 C9 1_555 1_555
C10 C9 1_555 1_555
H8 C10 1_555 1_555
H9 C10 1_555 1_555
C11 C10 1_555 1_555
H10 C11 1_555 1_555
H11 C11 1_555 1_555
C12 C11 1_555 1_555
H12 C12 1_555 1_555
H13 C12 1_555 1_555
C13 C12 1_555 1_555
H14 C13 1_555 1_555
H15 C13 1_555 1_555
H16 C13 1_555 1_555
C14 C5 1_555 1_555
H17 C14 1_555 1_555
C15 C14 1_555 1_555
H18 C15 1_555 1_555
H19 C15 1_555 1_555
C16 C15 1_555 1_555
H20 C16 1_555 1_555
H21 C16 1_555 1_555
C17 C16 1_555 1_555
H22 C17 1_555 1_555
H23 C17 1_555 1_555
H24 C17 1_555 1_555
C18 C14 1_555 1_555
C19 C18 1_555 1_555
C20 C19 1_555 1_555
C21 C20 1_555 1_555
C22 C21 1_555 1_555
C23 C18 1_555 1_555
H25 C23 1_555 1_555
C24 C20 1_555 1_555
H26 C24 1_555 1_555
H27 C24 1_555 1_555
C25 H28 1_555 1_555
H29 C25 1_555 1_555
C26 C25 1_555 1_555
H30 C26 1_555 1_555
H31 C26 1_555 1_555
C27 C26 1_555 1_555
H32 C27 1_555 1_555
H33 C27 1_555 1_555
C28 C27 1_555 1_555
H34 C28 1_555 1_555
H35 C28 1_555 1_555
C29 C28 1_555 1_555
H36 C29 1_555 1_555
H37 C29 1_555 1_555
C30 C29 1_555 1_555
H38 C30 1_555 1_555
H39 C30 1_555 1_555
H40 C30 1_555 1_555
C31 C22 1_555 1_555
H41 C31 1_555 1_555
C32 C31 1_555 1_555
H42 C32 1_555 1_555
H43 C32 1_555 1_555
C33 C32 1_555 1_555
H44 C33 1_555 1_555
H45 C33 1_555 1_555
C34 C33 1_555 1_555
H46 C34 1_555 1_555
H47 C34 1_555 1_555
H48 C34 1_555 1_555
C35 C31 1_555 1_555
C36 C35 1_555 1_555
C37 C36 1_555 1_555
C38 C37 1_555 1_555
C39 C38 1_555 1_555
C40 C35 1_555 1_555
H49 C40 1_555 1_555
C41 C37 1_555 1_555
H50 C41 1_555 1_555
H51 C41 1_555 1_555
C42 H52 1_555 1_555
H53 C42 1_555 1_555
C43 C42 1_555 1_555
H54 C43 1_555 1_555
H55 C43 1_555 1_555
C44 C43 1_555 1_555
H56 C44 1_555 1_555
H57 C44 1_555 1_555
C45 C44 1_555 1_555
H58 C45 1_555 1_555
H59 C45 1_555 1_555
C46 C45 1_555 1_555
H60 C46 1_555 1_555
H61 C46 1_555 1_555
C47 C46 1_555 1_555
H62 C47 1_555 1_555
H63 C47 1_555 1_555
H64 C47 1_555 1_555
C48 C39 1_555 1_555
H65 C48 1_555 1_555
C49 C48 1_555 1_555
H66 C49 1_555 1_555
H67 C49 1_555 1_555
C50 C49 1_555 1_555
H68 C50 1_555 1_555
H69 C50 1_555 1_555
C51 C50 1_555 1_555
H70 C51 1_555 1_555
H71 C51 1_555 1_555
H72 C51 1_555 1_555
C52 C48 1_555 1_555
C53 C52 1_555 1_555
C54 C53 1_555 1_555
C55 C54 1_555 1_555
C56 C55 1_555 1_555
C57 C52 1_555 1_555
H73 C57 1_555 1_555
C58 C54 1_555 1_555
H74 C58 1_555 1_555
H75 C58 1_555 1_555
C59 H76 1_555 1_555
H77 C59 1_555 1_555
C60 C59 1_555 1_555
H78 C60 1_555 1_555
H79 C60 1_555 1_555
C61 C60 1_555 1_555
H80 C61 1_555 1_555
H81 C61 1_555 1_555
C62 C61 1_555 1_555
H82 C62 1_555 1_555
H83 C62 1_555 1_555
C63 C62 1_555 1_555
H84 C63 1_555 1_555
H85 C63 1_555 1_555
C64 C63 1_555 1_555
H86 C64 1_555 1_555
H87 C64 1_555 1_555
H88 C64 1_555 1_555
C65 C1 1_555 1_555
H89 C65 1_555 1_555
C66 C65 1_555 1_555
H90 C66 1_555 1_555
H91 C66 1_555 1_555
C67 C66 1_555 1_555
H92 C67 1_555 1_555
H93 C67 1_555 1_555
C68 C67 1_555 1_555
H94 C68 1_555 1_555
H95 C68 1_555 1_555
H96 C68 1_555 1_555
N1 C7 1_555 1_555
H97 N1 1_555 1_555
H98 N1 1_555 1_555
N2 C24 1_555 1_555
H99 N2 1_555 1_555
H100 N2 1_555 1_555
N3 C41 1_555 1_555
H101 N3 1_555 1_555
H102 N3 1_555 1_555
N4 C58 1_555 1_555
H103 N4 1_555 1_555
H104 N4 1_555 1_555
O1 C2 1_555 1_555
H105 O1 1_555 1_555
O2 C4 1_555 1_555
H106 O2 1_555 1_555
O3 C19 1_555 1_555
H107 O3 1_555 1_555
O4 C21 1_555 1_555
H108 O4 1_555 1_555
O5 C36 1_555 1_555
H109 O5 1_555 1_555
O6 C38 1_555 1_555
H110 O6 1_555 1_555
O7 C53 1_555 1_555
H111 O7 1_555 1_555
O8 C55 1_555 1_555
H112 O8 1_555 1_555
C72 C73 1_555 1_555
C73 C74 1_555 1_555
C74 C75 1_555 1_555
C75 C76 1_555 1_555
C76 C77 1_555 1_555
C77 C72 1_555 1_555
H123 C77 1_555 1_555
C78 C74 1_555 1_555
H124 C78 1_555 1_555
H125 C78 1_555 1_555
C79 H126 1_555 1_555
H127 C79 1_555 1_555
C80 C79 1_555 1_555
H128 C80 1_555 1_555
H129 C80 1_555 1_555
C81 C80 1_555 1_555
H130 C81 1_555 1_555
H131 C81 1_555 1_555
C82 C81 1_555 1_555
H132 C82 1_555 1_555
H133 C82 1_555 1_555
C83 C82 1_555 1_555
H134 C83 1_555 1_555
H135 C83 1_555 1_555
C84 C83 1_555 1_555
H136 C84 1_555 1_555
H137 C84 1_555 1_555
H138 C84 1_555 1_555
C85 C76 1_555 1_555
H139 C85 1_555 1_555
C86 C85 1_555 1_555
H140 C86 1_555 1_555
H141 C86 1_555 1_555
C87 C86 1_555 1_555
H142 C87 1_555 1_555
H143 C87 1_555 1_555
C88 C87 1_555 1_555
H144 C88 1_555 1_555
H145 C88 1_555 1_555
H146 C88 1_555 1_555
C89 C85 1_555 1_555
C90 C89 1_555 1_555
C91 C90 1_555 1_555
C92 C91 1_555 1_555
C93 C92 1_555 1_555
C94 C89 1_555 1_555
H147 C94 1_555 1_555
C95 C91 1_555 1_555
H148 C95 1_555 1_555
H149 C95 1_555 1_555
C96 H150 1_555 1_555
H151 C96 1_555 1_555
C97 C96 1_555 1_555
H152 C97 1_555 1_555
H153 C97 1_555 1_555
C98 C97 1_555 1_555
H154 C98 1_555 1_555
H155 C98 1_555 1_555
C99 C98 1_555 1_555
H156 C99 1_555 1_555
H157 C99 1_555 1_555
C100 C99 1_555 1_555
H158 C100 1_555 1_555
H159 C100 1_555 1_555
C101 C100 1_555 1_555
H160 C101 1_555 1_555
H161 C101 1_555 1_555
H162 C101 1_555 1_555
C102 C93 1_555 1_555
H163 C102 1_555 1_555
C103 C102 1_555 1_555
H164 C103 1_555 1_555
H165 C103 1_555 1_555
C104 C103 1_555 1_555
H166 C104 1_555 1_555
H167 C104 1_555 1_555
C105 C104 1_555 1_555
H168 C105 1_555 1_555
H169 C105 1_555 1_555
H170 C105 1_555 1_555
C106 C102 1_555 1_555
C107 C106 1_555 1_555
C108 C107 1_555 1_555
C109 C108 1_555 1_555
C110 C109 1_555 1_555
C111 C106 1_555 1_555
H171 C111 1_555 1_555
C112 C108 1_555 1_555
H172 C112 1_555 1_555
H173 C112 1_555 1_555
C113 H174 1_555 1_555
H175 C113 1_555 1_555
C114 C113 1_555 1_555
H176 C114 1_555 1_555
H177 C114 1_555 1_555
C115 C114 1_555 1_555
H178 C115 1_555 1_555
H179 C115 1_555 1_555
C116 C115 1_555 1_555
H180 C116 1_555 1_555
H181 C116 1_555 1_555
C117 C116 1_555 1_555
H182 C117 1_555 1_555
H183 C117 1_555 1_555
C118 C117 1_555 1_555
H184 C118 1_555 1_555
H185 C118 1_555 1_555
H186 C118 1_555 1_555
C119 C110 1_555 1_555
H187 C119 1_555 1_555
C120 C119 1_555 1_555
H188 C120 1_555 1_555
H189 C120 1_555 1_555
C121 C120 1_555 1_555
H190 C121 1_555 1_555
H191 C121 1_555 1_555
C122 C121 1_555 1_555
H192 C122 1_555 1_555
H193 C122 1_555 1_555
H194 C122 1_555 1_555
C123 C119 1_555 1_555
C124 C123 1_555 1_555
C125 C124 1_555 1_555
C126 C125 1_555 1_555
C127 C126 1_555 1_555
C128 C123 1_555 1_555
H195 C128 1_555 1_555
C129 C125 1_555 1_555
H196 C129 1_555 1_555
H197 C129 1_555 1_555
C130 H198 1_555 1_555
H199 C130 1_555 1_555
C131 C130 1_555 1_555
H200 C131 1_555 1_555
H201 C131 1_555 1_555
C132 C131 1_555 1_555
H202 C132 1_555 1_555
H203 C132 1_555 1_555
C133 C132 1_555 1_555
H204 C133 1_555 1_555
H205 C133 1_555 1_555
C134 C133 1_555 1_555
H206 C134 1_555 1_555
H207 C134 1_555 1_555
C135 C134 1_555 1_555
H208 C135 1_555 1_555
H209 C135 1_555 1_555
H210 C135 1_555 1_555
C136 C72 1_555 1_555
H211 C136 1_555 1_555
C137 C136 1_555 1_555
H212 C137 1_555 1_555
H213 C137 1_555 1_555
C138 C137 1_555 1_555
H214 C138 1_555 1_555
H215 C138 1_555 1_555
C139 C138 1_555 1_555
H216 C139 1_555 1_555
H217 C139 1_555 1_555
H218 C139 1_555 1_555
N5 C78 1_555 1_555
H219 N5 1_555 1_555
H220 N5 1_555 1_555
N6 C95 1_555 1_555
H221 N6 1_555 1_555
H222 N6 1_555 1_555
N7 C112 1_555 1_555
H223 N7 1_555 1_555
H224 N7 1_555 1_555
N8 C129 1_555 1_555
H225 N8 1_555 1_555
H226 N8 1_555 1_555
O9 C73 1_555 1_555
H227 O9 1_555 1_555
O10 C75 1_555 1_555
H228 O10 1_555 1_555
O11 C90 1_555 1_555
H229 O11 1_555 1_555
O12 C92 1_555 1_555
H230 O12 1_555 1_555
O13 C107 1_555 1_555
H231 O13 1_555 1_555
O14 C109 1_555 1_555
H232 O14 1_555 1_555
O15 C124 1_555 1_555
H233 O15 1_555 1_555
O16 C126 1_555 1_555
H234 O16 1_555 1_555
C143 C144 1_555 1_555
C144 C145 1_555 1_555
C145 C146 1_555 1_555
C146 F7 1_555 1_555
F1 C143 1_555 1_555
F2 C143 1_555 1_555
F3 C144 1_555 1_555
F4 C144 1_555 1_555
F5 C145 1_555 1_555
F6 C145 1_555 1_555
F8 C146 1_555 1_555
I1 C143 1_555 1_555
I2 C146 1_555 1_555
C147 C148 1_555 1_555
C148 C149 1_555 1_555
C149 C150 1_555 1_555
C150 F15 1_555 1_555
F9 C147 1_555 1_555
F10 C147 1_555 1_555
F11 C148 1_555 1_555
F12 C148 1_555 1_555
F13 C149 1_555 1_555
F14 C149 1_555 1_555
F16 C150 1_555 1_555
I3 C147 1_555 1_555
I4 C150 1_555 1_555
C151 H246 1_555 1_555
H247 C151 1_555 1_555
C152 C151 1_555 1_555
H248 C152 1_555 1_555
H249 C152 1_555 1_555
C153 H250 1_555 1_555
H251 C153 1_555 1_555
C154 C153 1_555 1_555
H252 C154 1_555 1_555
H253 C154 1_555 1_555
O17 C151 1_555 1_555
O18 C152 1_555 1_555
C155 H254 1_555 1_555
H255 C155 1_555 1_555
C156 C155 1_555 1_555
H256 C156 1_555 1_555
H257 C156 1_555 1_555
C157 H258 1_555 1_555
H259 C157 1_555 1_555
C158 C157 1_555 1_555
H260 C158 1_555 1_555
H261 C158 1_555 1_555
O19 C155 1_555 1_555
O20 C156 1_555 1_555
C159 H262 1_555 1_555
Cl1 C159 1_555 1_555
Cl2 C159 1_555 1_555
Cl3 C159 1_555 1_555
C160 H264 1_555 1_555
Cl5 C160 1_555 1_555
Cl6 C160 1_555 1_555
Cl7 C160 1_555 1_555
C8 N1 1_555 1_555
C22 C23 1_555 1_555
C25 N2 1_555 1_555
C39 C40 1_555 1_555
C42 N3 1_555 1_555
C56 C57 1_555 1_555
C56 C65 1_555 1_555
C59 N4 1_555 1_555
C79 N5 1_555 1_555
C93 C94 1_555 1_555
C96 N6 1_555 1_555
C110 C111 1_555 1_555
C113 N7 1_555 1_555
C127 C128 1_555 1_555
C127 C136 1_555 1_555
C130 N8 1_555 1_555
C153 O18 1_555 1_555
C154 O17 1_555 1_555
C157 O20 1_555 1_555
C158 O19 1_555 1_555

#END
