
#######################################################################
#
#                 Cambridge Crystallographic Data Centre
#                                CCDC 
#
#######################################################################
#
# If this CIF has been generated from an entry in the Cambridge 
# Structural Database, then it will include bibliographic, chemical, 
# crystal, experimental, refinement or atomic coordinate data resulting 
# from the CCDC's data processing and validation procedures.
#
#######################################################################

data_SUPTII
_chemical_name_common            
'bis(C-propyl-5,11,17,23-tetrakis((hexylammonio)methyl)calix(4)resorcinarene) tris(1,1,2,2,3,3,4,4-octafluoro-1,4-diiodobutane) octabromide 1,4-dioxane methanol solvate'
_chemical_formula_moiety         
'2(C68 H112 N4 O8 4+),3(C4 F8 I2),2.5(C4 H8 O2),8(Br1 1-),2(C1 H4 O1)'
_chemical_name_systematic        
'bis(5,11,17,23-tetrakis((hexylammonio)methyl)-4,6,10,12,16,18,22,24-octahydroxy-2,8,14,20-tetrapropylcalix(4)arene) tris(1,1,2,2,3,3,4,4-octafluoro-1,4-diiodobutane) octabromide 1,4-dioxane methanol solvate'
_symmetry_cell_setting           triclinic
_symmetry_space_group_name_H-M   'P -1'
_symmetry_Int_Tables_number      2
_space_group_name_Hall           '-P 1'
loop_
_symmetry_equiv_pos_site_id
_symmetry_equiv_pos_as_xyz
1 x,y,z
2 -x,-y,-z
_cell_length_a                   12.2852(4)
_cell_length_b                   20.8278(8)
_cell_length_c                   22.1139(10)
_cell_angle_alpha                63.822(4)
_cell_angle_beta                 88.730(3)
_cell_angle_gamma                74.389(3)
_cell_volume                     4860.04
_exptl_crystal_colour            colorless
_exptl_crystal_description       plate
_cell_formula_units_Z            1
loop_
_atom_site_label
_atom_site_type_symbol
_atom_site_fract_x
_atom_site_fract_y
_atom_site_fract_z
C1 C 1.0353(6) 0.0829(5) 0.2821(4)
C2 C 1.0683(6) 0.1135(5) 0.3212(4)
C3 C 1.1042(6) 0.1783(5) 0.2909(4)
C4 C 1.0985(6) 0.2141(4) 0.2208(4)
C5 C 1.0662(7) 0.1860(5) 0.1804(4)
C6 C 1.0358(7) 0.1204(5) 0.2120(4)
H1 H 1.0144 0.1000 0.1848
C7 C 1.1431(7) 0.2056(5) 0.3368(4)
H2 H 1.2000 0.1637 0.3734
H3 H 1.1802 0.2447 0.3105
C8 C 1.0765(8) 0.2673(5) 0.4126(5)
H4 H 1.0059 0.2926 0.4250
H5 H 1.1167 0.3049 0.3874
C9 C 1.1509(7) 0.2073(5) 0.4763(5)
H6 H 1.1146 0.1668 0.4988
H7 H 1.2251 0.1857 0.4641
C10 C 1.1708(9) 0.2364(6) 0.5250(5)
H8 H 1.0984 0.2511 0.5426
H9 H 1.1971 0.2813 0.5009
C11 C 1.2589(10) 0.1777(6) 0.5839(5)
H10 H 1.2326 0.1326 0.6072
H11 H 1.3310 0.1633 0.5659
C12 C 1.2814(12) 0.2038(8) 0.6350(7)
H12 H 1.3349 0.1617 0.6735
H13 H 1.2093 0.2184 0.6529
C13 C 1.3312(13) 0.2697(9) 0.6051(9)
H14 H 1.2740 0.3139 0.5718
H15 H 1.3980 0.2575 0.5828
H16 H 1.3536 0.2800 0.6414
C14 C 1.0581(7) 0.2288(5) 0.1022(4)
H17 H 1.1171 0.2561 0.0918
C15 C 1.0851(7) 0.1781(5) 0.0674(5)
H18 H 1.0335 0.1461 0.0807
H19 H 1.0702 0.2096 0.0177
C16 C 1.2076(8) 0.1286(6) 0.0851(5)
H20 H 1.2592 0.1606 0.0695
H21 H 1.2239 0.0992 0.1350
C17 C 1.2319(10) 0.0760(8) 0.0538(6)
H22 H 1.2114 0.1045 0.0046
H23 H 1.1872 0.0405 0.0729
H24 H 1.3131 0.0487 0.0635
C18 C 0.9422(7) 0.2886(5) 0.0760(4)
C19 C 0.9302(7) 0.3621(5) 0.0634(4)
C20 C 0.8248(7) 0.4151(5) 0.0436(4)
C21 C 0.7289(7) 0.3942(5) 0.0365(4)
C22 C 0.7384(7) 0.3232(5) 0.0428(4)
C23 C 0.8451(7) 0.2720(5) 0.0639(4)
H25 H 0.8525 0.2226 0.0706
C24 C 0.8176(7) 0.4948(5) 0.0273(4)
H26 H 0.8820 0.5082 0.0018
H27 H 0.7464 0.5283 -0.0026
C25 C 0.8146(9) 0.5884(5) 0.0683(5)
H28 H 0.8859 0.5979 0.0497
H29 H 0.7509 0.6220 0.0322
C26 C 0.7984(9) 0.6059(6) 0.1266(5)
H30 H 0.8642 0.5741 0.1617
H31 H 0.7294 0.5938 0.1467
C27 C 0.7866(9) 0.6873(6) 0.1064(6)
H32 H 0.7199 0.7189 0.0719
H33 H 0.8550 0.6996 0.0854
C28 C 0.7724(10) 0.7054(6) 0.1659(6)
H34 H 0.8353 0.6706 0.2021
H35 H 0.7002 0.6977 0.1842
C29 C 0.7716(11) 0.7853(7) 0.1464(7)
H36 H 0.7049 0.8204 0.1130
H37 H 0.8410 0.7944 0.1248
C30 C 0.7668(15) 0.7999(9) 0.2088(8)
H38 H 0.7764 0.8493 0.1960
H39 H 0.8278 0.7616 0.2440
H40 H 0.6931 0.7981 0.2262
C31 C 0.6328(7) 0.3055(5) 0.0271(4)
H41 H 0.5779 0.3545 -0.0041
C32 C 0.6566(8) 0.2585(5) -0.0111(5)
H42 H 0.7017 0.2798 -0.0487
H43 H 0.7023 0.2071 0.0200
C33 C 0.5473(8) 0.2559(6) -0.0398(5)
H44 H 0.5012 0.3076 -0.0702
H45 H 0.5027 0.2343 -0.0020
C34 C 0.5688(11) 0.2101(8) -0.0789(7)
H46 H 0.6107 0.2322 -0.1173
H47 H 0.4960 0.2097 -0.0958
H48 H 0.6136 0.1587 -0.0489
C35 C 0.5737(7) 0.2716(5) 0.0907(4)
C36 C 0.4837(7) 0.3154(5) 0.1073(4)
C37 C 0.4305(7) 0.2842(5) 0.1661(4)
C38 C 0.4610(7) 0.2067(5) 0.2048(4)
C39 C 0.5511(6) 0.1607(4) 0.1883(4)
C40 C 0.6063(7) 0.1952(5) 0.1333(4)
H49 H 0.6704 0.1648 0.1240
C41 C 0.3408(7) 0.3357(5) 0.1848(5)
H50 H 0.2776 0.3649 0.1477
H51 H 0.3097 0.3058 0.2262
C42 C 0.3026(7) 0.4506(5) 0.2027(5)
H52 H 0.3394 0.4725 0.2251
H53 H 0.2439 0.4313 0.2306
C43 C 0.2471(8) 0.5105(5) 0.1321(5)
H54 H 0.2153 0.4872 0.1090
H55 H 0.3061 0.5309 0.1054
C44 C 0.1521(8) 0.5751(5) 0.1332(5)
H56 H 0.1208 0.6116 0.0858
H57 H 0.0901 0.5550 0.1563
C45 C 0.1877(8) 0.6157(5) 0.1678(5)
H58 H 0.2599 0.6263 0.1522
H59 H 0.2011 0.5834 0.2174
C46 C 0.0973(10) 0.6888(7) 0.1526(7)
H60 H 0.0869 0.7215 0.1031
H61 H 0.0243 0.6779 0.1657
C47 C 0.1235(14) 0.7305(9) 0.1879(9)
H62 H 0.0646 0.7785 0.1726
H63 H 0.1976 0.7393 0.1774
H64 H 0.1255 0.7010 0.2370
C48 C 0.5887(7) 0.0753(5) 0.2319(4)
H65 H 0.5209 0.0611 0.2536
C49 C 0.6253(7) 0.0333(5) 0.1896(4)
H66 H 0.6959 0.0435 0.1703
H67 H 0.6439 -0.0210 0.2201
C50 C 0.5390(8) 0.0524(6) 0.1324(5)
H68 H 0.4677 0.0435 0.1512
H69 H 0.5221 0.1063 0.1009
C51 C 0.5764(10) 0.0085(7) 0.0930(6)
H70 H 0.5196 0.0272 0.0542
H71 H 0.5843 -0.0444 0.1224
H72 H 0.6497 0.0142 0.0767
C52 C 0.6797(7) 0.0530(4) 0.2891(4)
C53 C 0.6502(7) 0.0414(5) 0.3541(4)
C54 C 0.7335(6) 0.0205(5) 0.4070(4)
C55 C 0.8472(7) 0.0122(4) 0.3935(4)
C56 C 0.8798(6) 0.0225(4) 0.3304(4)
C57 C 0.7951(7) 0.0430(5) 0.2788(4)
H73 H 0.8163 0.0505 0.2351
C58 C 0.7064(7) -0.0020(5) 0.4787(4)
H74 H 0.6332 -0.0143 0.4832
H75 H 0.7661 -0.0477 0.5093
C59 C 0.6700(8) 0.0322(5) 0.5728(4)
H76 H 0.7301 -0.0134 0.6031
H77 H 0.5973 0.0195 0.5765
C60 C 0.6601(8) 0.0923(6) 0.5957(5)
H78 H 0.7324 0.1055 0.5915
H79 H 0.5992 0.1377 0.5659
C61 C 0.6334(9) 0.0662(6) 0.6682(5)
H80 H 0.5597 0.0547 0.6716
H81 H 0.6925 0.0193 0.6973
C62 C 0.6273(9) 0.1218(6) 0.6946(5)
H82 H 0.5641 0.1672 0.6677
H83 H 0.6988 0.1362 0.6880
C63 C 0.6093(13) 0.0930(8) 0.7683(6)
H84 H 0.5348 0.0826 0.7740
H85 H 0.6687 0.0451 0.7945
C64 C 0.6124(16) 0.1450(9) 0.7977(8)
H86 H 0.5502 0.1913 0.7745
H87 H 0.6853 0.1566 0.7916
H88 H 0.6038 0.1212 0.8461
C65 C 1.0045(7) 0.0086(5) 0.3170(4)
H89 H 1.0509 -0.0209 0.3623
C66 C 1.0342(7) -0.0387(5) 0.2797(4)
H90 H 1.1132 -0.0420 0.2681
H91 H 0.9833 -0.0137 0.2367
C67 C 1.0238(9) -0.1179(5) 0.3207(5)
H92 H 1.0763 -0.1430 0.3631
H93 H 0.9455 -0.1141 0.3336
C68 C 1.0489(10) -0.1656(6) 0.2853(6)
H94 H 0.9939 -0.1433 0.2450
H95 H 1.0434 -0.2155 0.3159
H96 H 1.1259 -0.1693 0.2717
N1 N 1.0462(6) 0.2368(4) 0.3675(4)
H97 H 0.9885 0.2773 0.3304
H98 H 1.0106 0.1970 0.3941
N2 N 0.8202(6) 0.5083(4) 0.0882(4)
H99 H 0.8910 0.4748 0.1185
H100 H 0.7550 0.4963 0.1134
N3 N 0.3898(6) 0.3878(4) 0.1972(4)
H101 H 0.4349 0.4092 0.1597
H102 H 0.4423 0.3588 0.2397
N4 N 0.6982(6) 0.0571(4) 0.5008(4)
H103 H 0.6385 0.1030 0.4704
H104 H 0.7714 0.0692 0.4971
O1 O 1.0719(5) 0.0827(3) 0.3906(3)
H105 H 1.0220 0.0601 0.4032
O2 O 1.1310(5) 0.2795(3) 0.1891(3)
H106 H 1.1060 0.3068 0.2081
O3 O 1.0211(5) 0.3879(4) 0.0680(3)
H107 H 1.0692 0.3542 0.1003
O4 O 0.6211(5) 0.4445(3) 0.0192(3)
H108 H 0.6095 0.4637 0.0460
O5 O 0.4420(5) 0.3913(3) 0.0699(3)
H109 H 0.4895 0.4075 0.0438
O6 O 0.4008(5) 0.1792(4) 0.2584(3)
H110 H 0.4414 0.1379 0.2881
O7 O 0.5379(5) 0.0501(4) 0.3645(3)
H111 H 0.5215 0.0711 0.3898
O8 O 0.9260(5) -0.0024(3) 0.4458(3)
H112 H 0.9622 -0.0480 0.4643
C69 C 0.6897(8) 0.2446(6) 0.2665(6)
H113 H 0.6579 0.2354 0.2312
H114 H 0.7140 0.1966 0.3083
C70 C 0.7909(8) 0.2737(6) 0.2429(5)
H115 H 0.8501 0.2364 0.2347
H116 H 0.7673 0.3203 0.1997
C71 C 0.7499(8) 0.3426(6) 0.3057(6)
H117 H 0.7254 0.3905 0.2638
H118 H 0.7816 0.3519 0.3409
C72 C 0.6497(8) 0.3128(7) 0.3293(5)
H119 H 0.6738 0.2662 0.3725
H120 H 0.5901 0.3498 0.3377
O9 O 0.6043(5) 0.2980(4) 0.2794(4)
O10 O 0.8363(5) 0.2883(4) 0.2928(4)
C73 C 0.5248(10) 0.5901(8) 0.3276(7)
C74 C 0.4117(10) 0.5908(6) 0.3580(6)
C75 C 0.3830(9) 0.6347(6) 0.3993(6)
C76 C 0.2855(10) 0.6212(6) 0.4431(6)
F1 F 0.6113(7) 0.5537(7) 0.3745(5)
F2 F 0.5309(8) 0.6619(5) 0.2972(5)
F3 F 0.4158(9) 0.5195(4) 0.3958(5)
F4 F 0.3300(6) 0.6198(6) 0.3082(4)
F5 F 0.4739(6) 0.6158(6) 0.4419(5)
F6 F 0.3592(9) 0.7064(4) 0.3568(4)
F7 F 0.3104(9) 0.5530(4) 0.4908(5)
F8 F 0.1966(6) 0.6302(6) 0.4018(5)
I1 I 0.54127(6) 0.55006(4) 0.25218(4)
I2 I 0.23082(6) 0.70175(4) 0.48193(4)
C77 C 0.9459(11) 0.5366(7) 0.4028(6)
C78 C 1.0090(8) 0.4854(6) 0.4735(5)
F9 F 0.8332(7) 0.5561(6) 0.4075(5)
F10 F 0.9765(9) 0.6013(4) 0.3773(4)
F11 F 0.9794(7) 0.4218(4) 0.4967(4)
F12 F 1.1211(5) 0.4676(4) 0.4667(4)
I3 I 0.97594(7) 0.48890(4) 0.33331(4)
C77A C 1.0541(11) 0.4634(7) 0.5972(6)
C78A C 0.9910(8) 0.5146(6) 0.5265(5)
F9A F 1.1668(7) 0.4439(6) 0.5925(5)
F10A F 1.0235(9) 0.3987(4) 0.6227(4)
F11A F 1.0206(7) 0.5782(4) 0.5033(4)
F12A F 0.8789(5) 0.5324(4) 0.5333(4)
I3A I 1.02406(7) 0.51110(4) 0.66669(4)
C79 C 0.990(3) -0.0451(12) 0.0635(14)
H121 H 0.9177 -0.0548 0.0563
H122 H 1.0181 -0.0745 0.1123
C80 C 0.925(2) 0.0687(14) -0.0227(12)
H123 H 0.9073 0.1232 -0.0383
H124 H 0.8536 0.0573 -0.0283
O11 O 0.9696(15) 0.0305(10) 0.0446(9)
C79A C 1.010(3) 0.0451(12) -0.0635(14)
H121A H 1.0823 0.0548 -0.0563
H122A H 0.9819 0.0745 -0.1123
C80A C 1.075(2) -0.0687(14) 0.0227(12)
H123A H 1.0927 -0.1232 0.0383
H124A H 1.1464 -0.0573 0.0283
O11A O 1.0304(15) -0.0305(10) -0.0446(9)
C81 C 0.3531(13) 0.3629(9) 0.3864(8)
H125 H 0.3338 0.4174 0.3602
H126 H 0.4232 0.3446 0.4167
H127 H 0.2911 0.3495 0.4133
O12 O 0.3695(8) 0.3297(5) 0.3408(5)
H128 H 0.3829 0.2832 0.3631
Br1 Br 0.44634(8) 0.14995(6) 0.43561(6)
Br2 Br 0.88057(7) 0.15511(5) 0.48194(5)
Br3 Br 1.01391(8) 0.40838(5) 0.22656(5)
Br4 Br 0.56555(8) 0.50396(6) 0.12822(5)
loop_
_geom_bond_atom_site_label_1
_geom_bond_atom_site_label_2
_geom_bond_site_symmetry_1
_geom_bond_site_symmetry_2
C1 C2 1_555 1_555
C2 C3 1_555 1_555
C3 C4 1_555 1_555
C4 C5 1_555 1_555
C5 C6 1_555 1_555
C6 C1 1_555 1_555
H1 C6 1_555 1_555
C7 C3 1_555 1_555
H2 C7 1_555 1_555
H3 C7 1_555 1_555
C8 H4 1_555 1_555
H5 C8 1_555 1_555
C9 C8 1_555 1_555
H6 C9 1_555 1_555
H7 C9 1_555 1_555
C10 C9 1_555 1_555
H8 C10 1_555 1_555
H9 C10 1_555 1_555
C11 C10 1_555 1_555
H10 C11 1_555 1_555
H11 C11 1_555 1_555
C12 C11 1_555 1_555
H12 C12 1_555 1_555
H13 C12 1_555 1_555
C13 C12 1_555 1_555
H14 C13 1_555 1_555
H15 C13 1_555 1_555
H16 C13 1_555 1_555
C14 C5 1_555 1_555
H17 C14 1_555 1_555
C15 C14 1_555 1_555
H18 C15 1_555 1_555
H19 C15 1_555 1_555
C16 C15 1_555 1_555
H20 C16 1_555 1_555
H21 C16 1_555 1_555
C17 C16 1_555 1_555
H22 C17 1_555 1_555
H23 C17 1_555 1_555
H24 C17 1_555 1_555
C18 C14 1_555 1_555
C19 C18 1_555 1_555
C20 C19 1_555 1_555
C21 C20 1_555 1_555
C22 C21 1_555 1_555
C23 C18 1_555 1_555
H25 C23 1_555 1_555
C24 C20 1_555 1_555
H26 C24 1_555 1_555
H27 C24 1_555 1_555
C25 H28 1_555 1_555
H29 C25 1_555 1_555
C26 C25 1_555 1_555
H30 C26 1_555 1_555
H31 C26 1_555 1_555
C27 C26 1_555 1_555
H32 C27 1_555 1_555
H33 C27 1_555 1_555
C28 C27 1_555 1_555
H34 C28 1_555 1_555
H35 C28 1_555 1_555
C29 C28 1_555 1_555
H36 C29 1_555 1_555
H37 C29 1_555 1_555
C30 C29 1_555 1_555
H38 C30 1_555 1_555
H39 C30 1_555 1_555
H40 C30 1_555 1_555
C31 C22 1_555 1_555
H41 C31 1_555 1_555
C32 C31 1_555 1_555
H42 C32 1_555 1_555
H43 C32 1_555 1_555
C33 C32 1_555 1_555
H44 C33 1_555 1_555
H45 C33 1_555 1_555
C34 C33 1_555 1_555
H46 C34 1_555 1_555
H47 C34 1_555 1_555
H48 C34 1_555 1_555
C35 C31 1_555 1_555
C36 C35 1_555 1_555
C37 C36 1_555 1_555
C38 C37 1_555 1_555
C39 C38 1_555 1_555
C40 C35 1_555 1_555
H49 C40 1_555 1_555
C41 C37 1_555 1_555
H50 C41 1_555 1_555
H51 C41 1_555 1_555
C42 H52 1_555 1_555
H53 C42 1_555 1_555
C43 C42 1_555 1_555
H54 C43 1_555 1_555
H55 C43 1_555 1_555
C44 C43 1_555 1_555
H56 C44 1_555 1_555
H57 C44 1_555 1_555
C45 C44 1_555 1_555
H58 C45 1_555 1_555
H59 C45 1_555 1_555
C46 C45 1_555 1_555
H60 C46 1_555 1_555
H61 C46 1_555 1_555
C47 C46 1_555 1_555
H62 C47 1_555 1_555
H63 C47 1_555 1_555
H64 C47 1_555 1_555
C48 C39 1_555 1_555
H65 C48 1_555 1_555
C49 C48 1_555 1_555
H66 C49 1_555 1_555
H67 C49 1_555 1_555
C50 C49 1_555 1_555
H68 C50 1_555 1_555
H69 C50 1_555 1_555
C51 C50 1_555 1_555
H70 C51 1_555 1_555
H71 C51 1_555 1_555
H72 C51 1_555 1_555
C52 C48 1_555 1_555
C53 C52 1_555 1_555
C54 C53 1_555 1_555
C55 C54 1_555 1_555
C56 C55 1_555 1_555
C57 C52 1_555 1_555
H73 C57 1_555 1_555
C58 C54 1_555 1_555
H74 C58 1_555 1_555
H75 C58 1_555 1_555
C59 H76 1_555 1_555
H77 C59 1_555 1_555
C60 C59 1_555 1_555
H78 C60 1_555 1_555
H79 C60 1_555 1_555
C61 C60 1_555 1_555
H80 C61 1_555 1_555
H81 C61 1_555 1_555
C62 C61 1_555 1_555
H82 C62 1_555 1_555
H83 C62 1_555 1_555
C63 C62 1_555 1_555
H84 C63 1_555 1_555
H85 C63 1_555 1_555
C64 C63 1_555 1_555
H86 C64 1_555 1_555
H87 C64 1_555 1_555
H88 C64 1_555 1_555
C65 C1 1_555 1_555
H89 C65 1_555 1_555
C66 C65 1_555 1_555
H90 C66 1_555 1_555
H91 C66 1_555 1_555
C67 C66 1_555 1_555
H92 C67 1_555 1_555
H93 C67 1_555 1_555
C68 C67 1_555 1_555
H94 C68 1_555 1_555
H95 C68 1_555 1_555
H96 C68 1_555 1_555
N1 C7 1_555 1_555
H97 N1 1_555 1_555
H98 N1 1_555 1_555
N2 C24 1_555 1_555
H99 N2 1_555 1_555
H100 N2 1_555 1_555
N3 C41 1_555 1_555
H101 N3 1_555 1_555
H102 N3 1_555 1_555
N4 C58 1_555 1_555
H103 N4 1_555 1_555
H104 N4 1_555 1_555
O1 C2 1_555 1_555
H105 O1 1_555 1_555
O2 C4 1_555 1_555
H106 O2 1_555 1_555
O3 C19 1_555 1_555
H107 O3 1_555 1_555
O4 C21 1_555 1_555
H108 O4 1_555 1_555
O5 C36 1_555 1_555
H109 O5 1_555 1_555
O6 C38 1_555 1_555
H110 O6 1_555 1_555
O7 C53 1_555 1_555
H111 O7 1_555 1_555
O8 C55 1_555 1_555
H112 O8 1_555 1_555
C69 H113 1_555 1_555
H114 C69 1_555 1_555
C70 C69 1_555 1_555
H115 C70 1_555 1_555
H116 C70 1_555 1_555
C71 H117 1_555 1_555
H118 C71 1_555 1_555
C72 C71 1_555 1_555
H119 C72 1_555 1_555
H120 C72 1_555 1_555
O9 C69 1_555 1_555
O10 C70 1_555 1_555
C73 C74 1_555 1_555
C74 C75 1_555 1_555
C75 C76 1_555 1_555
C76 F7 1_555 1_555
F1 C73 1_555 1_555
F2 C73 1_555 1_555
F3 C74 1_555 1_555
F4 C74 1_555 1_555
F5 C75 1_555 1_555
F6 C75 1_555 1_555
F8 C76 1_555 1_555
I1 C73 1_555 1_555
I2 C76 1_555 1_555
C77 C78 1_555 1_555
C78 F11 1_555 1_555
F9 C77 1_555 1_555
F10 C77 1_555 1_555
F12 C78 1_555 1_555
I3 C77 1_555 1_555
C79 H121 1_555 1_555
H122 C79 1_555 1_555
C80 H123 1_555 1_555
H124 C80 1_555 1_555
O11 C79 1_555 1_555
C81 H125 1_555 1_555
H126 C81 1_555 1_555
H127 C81 1_555 1_555
O12 C81 1_555 1_555
H128 O12 1_555 1_555
C77A C78A 1_555 1_555
C78A C78 1_555 1_555
F9A C77A 1_555 1_555
F10A C77A 1_555 1_555
F11A C78A 1_555 1_555
F12A C78A 1_555 1_555
I3A C77A 1_555 1_555
C79A C80 1_555 1_555
H121A C79A 1_555 1_555
H122A C79A 1_555 1_555
C80A C79 1_555 1_555
H123A C80A 1_555 1_555
H124A C80A 1_555 1_555
O11A C79A 1_555 1_555
C8 N1 1_555 1_555
C22 C23 1_555 1_555
C25 N2 1_555 1_555
C39 C40 1_555 1_555
C42 N3 1_555 1_555
C56 C57 1_555 1_555
C56 C65 1_555 1_555
C59 N4 1_555 1_555
C71 O10 1_555 1_555
C72 O9 1_555 1_555
C80 O11 1_555 1_555
C80A O11A 1_555 1_555

#END
