
#######################################################################
#
#                 Cambridge Crystallographic Data Centre
#                                CCDC 
#
#######################################################################
#
# If this CIF has been generated from an entry in the Cambridge 
# Structural Database, then it will include bibliographic, chemical, 
# crystal, experimental, refinement or atomic coordinate data resulting 
# from the CCDC's data processing and validation procedures.
#
#######################################################################

data_SUPTOO
_chemical_formula_moiety         
'C68 H104 N4 O8 4+,C4 H8 O2,4(Br1 1-),2(C4 F8 I2)'
_chemical_name_systematic        
'2,8,14,20-Tetrapropyl-5,11,17,23-tetrakis((cyclohexylazaniumyl)methyl)-4,6,10,12,16,18,22,24-octahydroxycalix(4)arene bis(1,4-dioxane) clathrate bis(1,4-diiodooctafluorobutane) tetrabromide'
_symmetry_cell_setting           tetragonal
_symmetry_space_group_name_H-M   'P 4/n c c'
_symmetry_Int_Tables_number      130
_space_group_name_Hall           '-P 4a 2ac'
loop_
_symmetry_equiv_pos_site_id
_symmetry_equiv_pos_as_xyz
1 x,y,z
2 1/2-y,x,z
3 1/2-x,1/2-y,z
4 y,1/2-x,z
5 1/2+x,-y,1/2-z
6 -x,1/2+y,1/2-z
7 1/2+y,1/2+x,1/2-z
8 -y,-x,1/2-z
9 -x,-y,-z
10 1/2+y,-x,-z
11 1/2+x,1/2+y,-z
12 -y,1/2+x,-z
13 1/2-x,y,1/2+z
14 x,1/2-y,1/2+z
15 1/2-y,1/2-x,1/2+z
16 y,x,1/2+z
_cell_length_a                   18.2858(13)
_cell_length_b                   18.2858(13)
_cell_length_c                   29.8612(9)
_cell_angle_alpha                90
_cell_angle_beta                 90
_cell_angle_gamma                90
_cell_volume                     9984.7
_exptl_crystal_colour            colorless
_exptl_crystal_description       plate
_cell_formula_units_Z            4
loop_
_atom_site_label
_atom_site_type_symbol
_atom_site_fract_x
_atom_site_fract_y
_atom_site_fract_z
Br1 Br 0.3670(3) 0.0361(3) 0.47453(9)
C3 C 0.3698(12) 0.1213(11) 0.6297(8)
C4 C 0.4123(14) 0.1053(10) 0.5924(8)
C5 C 0.4585(12) 0.1582(14) 0.5746(6)
C6 C 0.4621(10) 0.2272(12) 0.5941(7)
C7 C 0.4196(12) 0.2432(9) 0.6314(7)
C8 C 0.3734(10) 0.1903(13) 0.6492(6)
H1 H 0.3449 0.2010 0.6741
O1 O 0.3988(14) 0.0319(11) 0.5791(10)
H2 H 0.3857 0.0274 0.5490
O2 O 0.5201(11) 0.2681(12) 0.5755(8)
H3 H 0.5204 0.3123 0.5837
C9 C 0.316(2) 0.072(2) 0.6509(15)
H4 H 0.3307 0.0240 0.6397
N1 N 0.4825(12) 0.1710(17) 0.4970(8)
C10 C 0.516(2) 0.137(2) 0.5364(16)
H5 H 0.5642 0.1579 0.5425
H6 H 0.5207 0.0846 0.5330
C11 C 0.292(3) -0.078(3) 0.715(2)
H7 H 0.3291 -0.0914 0.6935
H8 H 0.2446 -0.0886 0.7024
H9 H 0.2988 -0.1044 0.7420
C12 C 0.6125(11) 0.1956(18) 0.4719(6)
H10 H 0.6000 0.2437 0.4832
H11 H 0.6367 0.1694 0.4959
C13 C 0.5134(10) 0.1718(19) 0.4152(7)
H12 H 0.4855 0.1296 0.4054
H13 H 0.4794 0.2124 0.4176
C14 C 0.5662(14) 0.1898(19) 0.3794(6)
H14 H 0.5636 0.2418 0.3732
H15 H 0.5522 0.1640 0.3523
C15 C 0.5422(11) 0.1559(16) 0.4612(7)
H16 H 0.5529 0.1034 0.4623
C16 C 0.297(4) -0.007(4) 0.723(2)
H17 H 0.3194 -0.0059 0.7522
H18 H 0.2459 0.0063 0.7284
C17 C 0.327(2) 0.064(2) 0.7012(15)
H19 H 0.3047 0.1054 0.7159
H20 H 0.3791 0.0659 0.7072
C18 C 0.6446(12) 0.1701(17) 0.3909(7)
H21 H 0.6494 0.1174 0.3931
H22 H 0.6770 0.1872 0.3674
C19 C 0.6657(11) 0.2051(17) 0.4350(8)
H23 H 0.7122 0.1848 0.4444
H24 H 0.6728 0.2570 0.4300
C3A C 0.3787(11) 0.3698(12) 0.6297(8)
C4A C 0.3947(10) 0.4123(14) 0.5924(8)
C5A C 0.3418(14) 0.4585(12) 0.5746(6)
C6A C 0.2728(12) 0.4621(10) 0.5941(7)
C7A C 0.2568(9) 0.4196(12) 0.6314(7)
C8A C 0.3097(13) 0.3734(10) 0.6492(6)
H1A H 0.2990 0.3449 0.6741
O1A O 0.4681(11) 0.3988(14) 0.5791(10)
H2A H 0.4726 0.3857 0.5490
O2A O 0.2319(12) 0.5201(11) 0.5755(8)
H3A H 0.1877 0.5204 0.5837
C9A C 0.428(2) 0.316(2) 0.6509(15)
H4A H 0.4760 0.3307 0.6397
N1A N 0.3290(17) 0.4825(12) 0.4970(8)
C10A C 0.363(2) 0.516(2) 0.5364(16)
H5A H 0.3421 0.5642 0.5425
H6A H 0.4154 0.5207 0.5330
C11A C 0.578(3) 0.292(3) 0.715(2)
H7A H 0.5914 0.3291 0.6935
H8A H 0.5886 0.2446 0.7024
H9A H 0.6044 0.2988 0.7420
C12A C 0.3044(18) 0.6125(11) 0.4719(6)
H10A H 0.2563 0.6000 0.4832
H11A H 0.3306 0.6367 0.4959
C13A C 0.3282(19) 0.5134(10) 0.4152(7)
H12A H 0.3704 0.4855 0.4054
H13A H 0.2876 0.4794 0.4176
C14A C 0.3102(19) 0.5662(14) 0.3794(6)
H14A H 0.2582 0.5636 0.3732
H15A H 0.3360 0.5522 0.3523
C15A C 0.3441(16) 0.5422(11) 0.4612(7)
H16A H 0.3966 0.5529 0.4623
C16A C 0.507(4) 0.297(4) 0.723(2)
H17A H 0.5059 0.3194 0.7522
H18A H 0.4937 0.2459 0.7284
C17A C 0.436(2) 0.327(2) 0.7012(15)
H19A H 0.3946 0.3047 0.7159
H20A H 0.4341 0.3791 0.7072
C18A C 0.3299(17) 0.6446(12) 0.3909(7)
H21A H 0.3826 0.6494 0.3931
H22A H 0.3128 0.6770 0.3674
C19A C 0.2949(17) 0.6657(11) 0.4350(8)
H23A H 0.3152 0.7122 0.4444
H24A H 0.2430 0.6728 0.4300
C3B C 0.1302(12) 0.3787(11) 0.6297(8)
C4B C 0.0877(14) 0.3947(10) 0.5924(8)
C5B C 0.0415(12) 0.3418(14) 0.5746(6)
C6B C 0.0379(10) 0.2728(12) 0.5941(7)
C7B C 0.0804(12) 0.2568(9) 0.6314(7)
C8B C 0.1266(10) 0.3097(13) 0.6492(6)
H1B H 0.1551 0.2990 0.6741
O1B O 0.1012(14) 0.4681(11) 0.5791(10)
H2B H 0.1143 0.4726 0.5490
O2B O -0.0201(11) 0.2319(12) 0.5755(8)
H3B H -0.0204 0.1877 0.5837
C9B C 0.184(2) 0.428(2) 0.6509(15)
H4B H 0.1693 0.4760 0.6397
N1B N 0.0175(12) 0.3290(17) 0.4970(8)
C10B C -0.016(2) 0.363(2) 0.5364(16)
H5B H -0.0642 0.3421 0.5425
H6B H -0.0207 0.4154 0.5330
C11B C 0.208(3) 0.578(3) 0.715(2)
H7B H 0.1709 0.5914 0.6935
H8B H 0.2554 0.5886 0.7024
H9B H 0.2012 0.6044 0.7420
C12B C -0.1125(11) 0.3044(18) 0.4719(6)
H10B H -0.1000 0.2563 0.4832
H11B H -0.1367 0.3306 0.4959
C13B C -0.0134(10) 0.3282(19) 0.4152(7)
H12B H 0.0145 0.3704 0.4054
H13B H 0.0206 0.2876 0.4176
C14B C -0.0662(14) 0.3102(19) 0.3794(6)
H14B H -0.0636 0.2582 0.3732
H15B H -0.0522 0.3360 0.3523
C15B C -0.0422(11) 0.3441(16) 0.4612(7)
H16B H -0.0529 0.3966 0.4623
C16B C 0.203(4) 0.507(4) 0.723(2)
H17B H 0.1806 0.5059 0.7522
H18B H 0.2541 0.4937 0.7284
C17B C 0.173(2) 0.436(2) 0.7012(15)
H19B H 0.1953 0.3946 0.7159
H20B H 0.1209 0.4341 0.7072
C18B C -0.1446(12) 0.3299(17) 0.3909(7)
H21B H -0.1494 0.3826 0.3931
H22B H -0.1770 0.3128 0.3674
C19B C -0.1657(11) 0.2949(17) 0.4350(8)
H23B H -0.2122 0.3152 0.4444
H24B H -0.1728 0.2430 0.4300
C3C C 0.1213(11) 0.1302(12) 0.6297(8)
C4C C 0.1053(10) 0.0877(14) 0.5924(8)
C5C C 0.1582(14) 0.0415(12) 0.5746(6)
C6C C 0.2272(12) 0.0379(10) 0.5941(7)
C7C C 0.2432(9) 0.0804(12) 0.6314(7)
C8C C 0.1903(13) 0.1266(10) 0.6492(6)
H1C H 0.2010 0.1551 0.6741
O1C O 0.0319(11) 0.1012(14) 0.5791(10)
H2C H 0.0274 0.1143 0.5490
O2C O 0.2681(12) -0.0201(11) 0.5755(8)
H3C H 0.3123 -0.0204 0.5837
C9C C 0.072(2) 0.184(2) 0.6509(15)
H4C H 0.0240 0.1693 0.6397
N1C N 0.1710(17) 0.0175(12) 0.4970(8)
C10C C 0.137(2) -0.016(2) 0.5364(16)
H5C H 0.1579 -0.0642 0.5425
H6C H 0.0846 -0.0207 0.5330
C11C C -0.078(3) 0.208(3) 0.715(2)
H7C H -0.0914 0.1709 0.6935
H8C H -0.0886 0.2554 0.7024
H9C H -0.1044 0.2012 0.7420
C12C C 0.1956(18) -0.1125(11) 0.4719(6)
H10C H 0.2437 -0.1000 0.4832
H11C H 0.1694 -0.1367 0.4959
C13C C 0.1718(19) -0.0134(10) 0.4152(7)
H12C H 0.1296 0.0145 0.4054
H13C H 0.2124 0.0206 0.4176
C14C C 0.1898(19) -0.0662(14) 0.3794(6)
H14C H 0.2418 -0.0636 0.3732
H15C H 0.1640 -0.0522 0.3523
C15C C 0.1559(16) -0.0422(11) 0.4612(7)
H16C H 0.1034 -0.0529 0.4623
C16C C -0.007(4) 0.203(4) 0.723(2)
H17C H -0.0059 0.1806 0.7522
H18C H 0.0063 0.2541 0.7284
C17C C 0.064(2) 0.173(2) 0.7012(15)
H19C H 0.1054 0.1953 0.7159
H20C H 0.0659 0.1209 0.7072
C18C C 0.1701(17) -0.1446(12) 0.3909(7)
H21C H 0.1174 -0.1494 0.3931
H22C H 0.1872 -0.1770 0.3674
C19C C 0.2051(17) -0.1657(11) 0.4350(8)
H23C H 0.1848 -0.2122 0.4444
H24C H 0.2570 -0.1728 0.4300
C20 C 0.2500 0.2500 0.5374(9)
C21 C 0.2500 0.2500 0.4433(9)
C22 C 0.3122(10) 0.2295(16) 0.5122(8)
O3 O 0.3133(10) 0.2646(16) 0.4682(8)
C22A C 0.2705(16) 0.3122(10) 0.5122(8)
O3A O 0.2354(16) 0.3133(10) 0.4682(8)
C22B C 0.1878(10) 0.2705(16) 0.5122(8)
O3B O 0.1867(10) 0.2354(16) 0.4682(8)
C22C C 0.2295(16) 0.1878(10) 0.5122(8)
O3C O 0.2646(16) 0.1867(10) 0.4682(8)
O4 O 0.2500 0.2500 0.2729(10)
C23 C 0.304(2) 0.209(3) 0.3418(11)
C24 C 0.277(3) 0.1865(16) 0.2962(11)
O5 O 0.2500 0.2500 0.3649(10)
C23A C 0.291(3) 0.304(2) 0.3418(11)
C24A C 0.3135(16) 0.277(3) 0.2962(11)
C23B C 0.196(2) 0.291(3) 0.3418(11)
C24B C 0.223(3) 0.3135(16) 0.2962(11)
C23C C 0.209(3) 0.196(2) 0.3418(11)
C24C C 0.1865(16) 0.223(3) 0.2962(11)
I1 I 0.6020(2) 0.0052(2) 0.63044(6)
F1 F 0.6351(13) -0.0661(12) 0.7135(6)
F2 F 0.5940(15) 0.0077(12) 0.7866(6)
C1 C 0.5969(10) 0.0373(10) 0.7453(6)
F3 F 0.5147(11) -0.0244(17) 0.7104(6)
F4 F 0.6448(17) 0.0798(13) 0.7240(11)
C2 C 0.5879(14) -0.0101(16) 0.7000(6)
I1F I 0.5052(2) 0.1020(2) 0.86956(6)
F1F F 0.4339(12) 0.1351(13) 0.7865(6)
F2F F 0.5077(12) 0.0940(15) 0.7134(6)
C1F C 0.5373(10) 0.0969(10) 0.7547(6)
F3F F 0.4756(17) 0.0147(11) 0.7896(6)
F4F F 0.5798(13) 0.1448(17) 0.7760(11)
C2F C 0.4899(16) 0.0879(14) 0.8000(6)
O6? O 0.3122(10) 0.2295(16) 0.5122(8)
C25? C 0.3133(10) 0.2646(16) 0.4682(8)
H25? H 0.3181 0.3171 0.4721
H26? H 0.3556 0.2476 0.4516
H27? H 0.3168 0.1659 0.3591
H28? H 0.3482 0.2384 0.3385
H29? H 0.3162 0.1642 0.2792
H30? H 0.2379 0.1509 0.2994
H31? H 0.3560 0.2429 0.5285
H32? H 0.3124 0.1768 0.5083
loop_
_geom_bond_atom_site_label_1
_geom_bond_atom_site_label_2
_geom_bond_site_symmetry_1
_geom_bond_site_symmetry_2
I1 C2 1_555 1_555
F1 C2 1_555 1_555
F2 C1 1_555 1_555
C1 F4 1_555 1_555
F3 C2 1_555 1_555
C2 C1 1_555 1_555
C3 C4 1_555 1_555
C4 C5 1_555 1_555
C5 C6 1_555 1_555
C6 C7 1_555 1_555
C7 C8 1_555 1_555
C8 C3 1_555 1_555
H1 C8 1_555 1_555
O1 C4 1_555 1_555
H2 O1 1_555 1_555
O2 C6 1_555 1_555
H3 O2 1_555 1_555
C9 C3 1_555 1_555
H4 C9 1_555 1_555
N1 C10 1_555 1_555
C10 C5 1_555 1_555
H5 C10 1_555 1_555
H6 C10 1_555 1_555
C11 H7 1_555 1_555
H8 C11 1_555 1_555
H9 C11 1_555 1_555
C12 H10 1_555 1_555
H11 C12 1_555 1_555
C13 H12 1_555 1_555
H13 C13 1_555 1_555
C14 C13 1_555 1_555
H14 C14 1_555 1_555
H15 C14 1_555 1_555
C15 N1 1_555 1_555
H16 C15 1_555 1_555
C16 C11 1_555 1_555
H17 C16 1_555 1_555
H18 C16 1_555 1_555
C17 C9 1_555 1_555
H19 C17 1_555 1_555
H20 C17 1_555 1_555
C18 C14 1_555 1_555
H21 C18 1_555 1_555
H22 C18 1_555 1_555
C19 C12 1_555 1_555
H23 C19 1_555 1_555
H24 C19 1_555 1_555
C20 C22 1_555 1_555
C21 O3 1_555 1_555
C22 O3 1_555 1_555
O3 C22A 1_555 1_555
O4 C24 1_555 1_555
C23 C24 1_555 1_555
C24 C24A 1_555 1_555
O5 C23 1_555 1_555
I1F C2F 1_555 1_555
F1F C2F 1_555 1_555
F2F C1F 1_555 1_555
C1F C1 1_555 1_555
F3F C2F 1_555 1_555
F4F C1F 1_555 1_555
C2F C1F 1_555 1_555
C3A C4A 1_555 1_555
C4A C5A 1_555 1_555
C5A C6A 1_555 1_555
C6A C7A 1_555 1_555
C7A C8A 1_555 1_555
C8A C3A 1_555 1_555
H1A C8A 1_555 1_555
O1A C4A 1_555 1_555
H2A O1A 1_555 1_555
O2A C6A 1_555 1_555
H3A O2A 1_555 1_555
C9A C7 1_555 1_555
H4A C9A 1_555 1_555
N1A C10A 1_555 1_555
C10A C5A 1_555 1_555
H5A C10A 1_555 1_555
H6A C10A 1_555 1_555
C11A H7A 1_555 1_555
H8A C11A 1_555 1_555
H9A C11A 1_555 1_555
C12A H10A 1_555 1_555
H11A C12A 1_555 1_555
C13A H12A 1_555 1_555
H13A C13A 1_555 1_555
C14A C13A 1_555 1_555
H14A C14A 1_555 1_555
H15A C14A 1_555 1_555
C15A N1A 1_555 1_555
H16A C15A 1_555 1_555
C16A C11A 1_555 1_555
H17A C16A 1_555 1_555
H18A C16A 1_555 1_555
C17A C9A 1_555 1_555
H19A C17A 1_555 1_555
H20A C17A 1_555 1_555
C18A C14A 1_555 1_555
H21A C18A 1_555 1_555
H22A C18A 1_555 1_555
C19A C12A 1_555 1_555
H23A C19A 1_555 1_555
H24A C19A 1_555 1_555
C3B C4B 1_555 1_555
C4B C5B 1_555 1_555
C5B C6B 1_555 1_555
C6B C7B 1_555 1_555
C7B C8B 1_555 1_555
C8B C3B 1_555 1_555
H1B C8B 1_555 1_555
O1B C4B 1_555 1_555
H2B O1B 1_555 1_555
O2B C6B 1_555 1_555
H3B O2B 1_555 1_555
C9B C7A 1_555 1_555
H4B C9B 1_555 1_555
N1B C10B 1_555 1_555
C10B C5B 1_555 1_555
H5B C10B 1_555 1_555
H6B C10B 1_555 1_555
C11B H7B 1_555 1_555
H8B C11B 1_555 1_555
H9B C11B 1_555 1_555
C12B H10B 1_555 1_555
H11B C12B 1_555 1_555
C13B H12B 1_555 1_555
H13B C13B 1_555 1_555
C14B C13B 1_555 1_555
H14B C14B 1_555 1_555
H15B C14B 1_555 1_555
C15B N1B 1_555 1_555
H16B C15B 1_555 1_555
C16B C11B 1_555 1_555
H17B C16B 1_555 1_555
H18B C16B 1_555 1_555
C17B C9B 1_555 1_555
H19B C17B 1_555 1_555
H20B C17B 1_555 1_555
C18B C14B 1_555 1_555
H21B C18B 1_555 1_555
H22B C18B 1_555 1_555
C19B C12B 1_555 1_555
H23B C19B 1_555 1_555
H24B C19B 1_555 1_555
C3C C4C 1_555 1_555
C4C C5C 1_555 1_555
C5C C6C 1_555 1_555
C6C C7C 1_555 1_555
C7C C9 1_555 1_555
C8C C3C 1_555 1_555
H1C C8C 1_555 1_555
O1C C4C 1_555 1_555
H2C O1C 1_555 1_555
O2C C6C 1_555 1_555
H3C O2C 1_555 1_555
C9C C7B 1_555 1_555
H4C C9C 1_555 1_555
N1C C10C 1_555 1_555
C10C C5C 1_555 1_555
H5C C10C 1_555 1_555
H6C C10C 1_555 1_555
C11C H7C 1_555 1_555
H8C C11C 1_555 1_555
H9C C11C 1_555 1_555
C12C H10C 1_555 1_555
H11C C12C 1_555 1_555
C13C H12C 1_555 1_555
H13C C13C 1_555 1_555
C14C C13C 1_555 1_555
H14C C14C 1_555 1_555
H15C C14C 1_555 1_555
C15C N1C 1_555 1_555
H16C C15C 1_555 1_555
C16C C11C 1_555 1_555
H17C C16C 1_555 1_555
H18C C16C 1_555 1_555
C17C C9C 1_555 1_555
H19C C17C 1_555 1_555
H20C C17C 1_555 1_555
C18C C14C 1_555 1_555
H21C C18C 1_555 1_555
H22C C18C 1_555 1_555
C19C C12C 1_555 1_555
H23C C19C 1_555 1_555
H24C C19C 1_555 1_555
C22A C20 1_555 1_555
O3A C21 1_555 1_555
C22B C20 1_555 1_555
O3B C21 1_555 1_555
C22C C20 1_555 1_555
O3C C21 1_555 1_555
C23A C23 1_555 1_555
C24A O4 1_555 1_555
C23B O5 1_555 1_555
C24B O4 1_555 1_555
C23C C23 1_555 1_555
C24C O4 1_555 1_555
C12 C15 1_555 1_555
C13 C15 1_555 1_555
C16 C17 1_555 1_555
C18 C19 1_555 1_555
C22 C22A 1_555 1_555
C22 C22C 1_555 1_555
C22 O3C 1_555 1_555
O3 O3A 1_555 1_555
O3 O3C 1_555 1_555
C24 C24C 1_555 1_555
O5 C23A 1_555 1_555
O5 C23C 1_555 1_555
C3A C9A 1_555 1_555
C12A C15A 1_555 1_555
C13A C15A 1_555 1_555
C16A C17A 1_555 1_555
C18A C19A 1_555 1_555
C3B C9B 1_555 1_555
C12B C15B 1_555 1_555
C13B C15B 1_555 1_555
C16B C17B 1_555 1_555
C18B C19B 1_555 1_555
C3C C9C 1_555 1_555
C7C C8C 1_555 1_555
C12C C15C 1_555 1_555
C13C C15C 1_555 1_555
C16C C17C 1_555 1_555
C18C C19C 1_555 1_555
C22A O3A 1_555 1_555
C22A C22B 1_555 1_555
O3A C22B 1_555 1_555
O3A O3B 1_555 1_555
C22B O3B 1_555 1_555
C22B C22C 1_555 1_555
O3B C22C 1_555 1_555
O3B O3C 1_555 1_555
C22C O3C 1_555 1_555
C23A C24A 1_555 1_555
C23A C23B 1_555 1_555
C24A C24B 1_555 1_555
C23B C24B 1_555 1_555
C23B C23C 1_555 1_555
C24B C24C 1_555 1_555
C23C C24C 1_555 1_555

#END
