
#######################################################################
#
#                 Cambridge Crystallographic Data Centre
#                                CCDC 
#
#######################################################################
#
# If this CIF has been generated from an entry in the Cambridge 
# Structural Database, then it will include bibliographic, chemical, 
# crystal, experimental, refinement or atomic coordinate data resulting 
# from the CCDC's data processing and validation procedures.
#
#######################################################################

data_SUPWUX
_chemical_formula_moiety         'C15 H12 O2,0.167(C3 H8 O1)'
_chemical_name_systematic        '2,3-diphenylacrylic acid propan-2-ol solvate'
_symmetry_cell_setting           triclinic
_symmetry_space_group_name_H-M   'P -1'
_symmetry_Int_Tables_number      2
_space_group_name_Hall           '-P 1'
loop_
_symmetry_equiv_pos_site_id
_symmetry_equiv_pos_as_xyz
1 x,y,z
2 -x,-y,-z
_cell_length_a                   5.8667(11)
_cell_length_b                   38.923(6)
_cell_length_c                   38.924(6)
_cell_angle_alpha                119.655(10)
_cell_angle_beta                 92.878(9)
_cell_angle_gamma                92.933(9)
_cell_volume                     7684.71
_exptl_crystal_colour            colorless
_cell_formula_units_Z            24
loop_
_atom_site_label
_atom_site_type_symbol
_atom_site_fract_x
_atom_site_fract_y
_atom_site_fract_z
O3 O 0.0748(5) 0.71044(9) 0.25819(9)
O4 O 0.2189(6) 0.73261(10) 0.22021(10)
H13 H 0.1235 0.7487 0.2302
C16 C 0.2108(8) 0.70776(13) 0.23391(14)
C17 C 0.3683(7) 0.67645(13) 0.21772(13)
C18 C 0.3861(7) 0.65273(12) 0.23846(12)
C19 C 0.1964(7) 0.63009(12) 0.23923(12)
H14 H 0.0591 0.6277 0.2249
C20 C 0.2126(8) 0.61127(12) 0.26132(14)
H15 H 0.0862 0.5960 0.2615
C21 C 0.4133(9) 0.61491(13) 0.28291(14)
H16 H 0.4225 0.6025 0.2980
C22 C 0.6020(8) 0.63718(13) 0.28207(13)
H17 H 0.7393 0.6395 0.2964
C23 C 0.5865(7) 0.65603(12) 0.26004(12)
H18 H 0.7137 0.6712 0.2598
C24 C 0.4899(7) 0.67197(13) 0.18784(13)
H19 H 0.4792 0.6916 0.1809
C25 C 0.6357(7) 0.64123(14) 0.16464(13)
C26 C 0.5939(8) 0.60176(14) 0.15605(13)
H20 H 0.4724 0.5951 0.1667
C27 C 0.7289(8) 0.57277(15) 0.13222(14)
H21 H 0.6977 0.5468 0.1267
C28 C 0.9136(8) 0.58248(17) 0.11620(15)
H22 H 1.0057 0.5631 0.1000
C29 C 0.9566(9) 0.62092(18) 0.12466(16)
H23 H 1.0812 0.6277 0.1146
C30 C 0.8192(8) 0.64952(16) 0.14761(15)
H24 H 0.8486 0.6751 0.1520
O5 O 0.9764(5) 0.70191(9) -0.02063(8)
H25 H 1.0710 0.7143 -0.0261
O6 O 1.1487(5) 0.74023(8) 0.04012(8)
C31 C 0.9962(7) 0.71544(12) 0.01753(13)
C32 C 0.8211(7) 0.69850(11) 0.03289(12)
C33 C 0.8245(7) 0.71896(11) 0.07671(13)
C34 C 0.6440(7) 0.74049(12) 0.09471(13)
H26 H 0.5169 0.7401 0.0792
C35 C 0.6498(8) 0.76268(13) 0.13551(14)
H27 H 0.5267 0.7771 0.1472
C36 C 0.8357(9) 0.76369(13) 0.15893(14)
H28 H 0.8405 0.7790 0.1864
C37 C 1.0158(8) 0.74164(14) 0.14115(14)
H29 H 1.1409 0.7417 0.1569
C38 C 1.0122(7) 0.71967(12) 0.10069(13)
H30 H 1.1352 0.7052 0.0891
C39 C 0.6763(7) 0.66787(12) 0.00726(13)
H31 H 0.6812 0.6605 -0.0193
C40 C 0.5083(7) 0.64409(12) 0.01595(14)
C41 C 0.5512(8) 0.63618(13) 0.04660(14)
H32 H 0.6865 0.6469 0.0631
C42 C 0.3944(9) 0.61239(14) 0.05302(16)
H33 H 0.4251 0.6072 0.0736
C43 C 0.1936(9) 0.59652(15) 0.02884(17)
H34 H 0.0881 0.5808 0.0333
C44 C 0.1487(8) 0.60365(14) -0.00144(16)
H35 H 0.0113 0.5931 -0.0173
C45 C 0.3072(8) 0.62689(13) -0.00922(15)
H36 H 0.2784 0.6307 -0.0308
O7 O 0.3906(5) 0.54010(8) 0.30000(8)
O8 O 0.5029(5) 0.47938(8) 0.27752(9)
H37 H 0.3926 0.4735 0.2613
C46 C 0.5205(8) 0.51798(12) 0.30257(12)
C47 C 0.7100(7) 0.53267(11) 0.33443(12)
C48 C 0.7505(7) 0.57676(11) 0.35788(12)
C49 C 0.5886(7) 0.60052(12) 0.38090(12)
H38 H 0.4545 0.5889 0.3840
C50 C 0.6244(8) 0.64135(13) 0.39935(13)
H39 H 0.5138 0.6570 0.4146
C51 C 0.8222(9) 0.65909(13) 0.39533(14)
H40 H 0.8454 0.6866 0.4077
C52 C 0.9859(8) 0.63574(13) 0.37283(13)
H41 H 1.1205 0.6476 0.3702
C53 C 0.9511(7) 0.59492(12) 0.35428(12)
H42 H 1.0628 0.5794 0.3392
C54 C 0.8309(7) 0.50712(12) 0.33948(13)
H43 H 0.7997 0.4805 0.3202
C55 C 1.0063(7) 0.51555(13) 0.37145(15)
C56 C 1.1825(8) 0.49083(14) 0.36394(16)
H44 H 1.1907 0.4693 0.3387
C57 C 1.3493(8) 0.49863(16) 0.39502(18)
H45 H 1.4709 0.4828 0.3898
C58 C 1.3331(9) 0.52932(16) 0.43270(18)
H46 H 1.4422 0.5339 0.4530
C59 C 1.1579(9) 0.55324(15) 0.44064(16)
H47 H 1.1471 0.5739 0.4663
C60 C 0.9960(8) 0.54655(13) 0.41026(14)
H48 H 0.8778 0.5631 0.4159
O9 O 0.5002(5) 0.72033(10) 0.48754(8)
H49 H 0.6044 0.7304 0.4813
O10 O 0.6823(5) 0.75837(9) 0.54795(8)
C61 C 0.5246(8) 0.73382(13) 0.52579(13)
C62 C 0.3485(7) 0.71783(13) 0.54136(12)
C63 C 0.3533(7) 0.73858(11) 0.58563(12)
C64 C 0.5429(7) 0.73926(12) 0.60908(12)
H50 H 0.6657 0.7248 0.5972
C65 C 0.5484(8) 0.76127(13) 0.64976(13)
H51 H 0.6748 0.7613 0.6652
C66 C 0.3699(9) 0.78338(13) 0.66822(13)
H52 H 0.3763 0.7986 0.6957
C67 C 0.1813(8) 0.78228(12) 0.64473(13)
H53 H 0.0587 0.7966 0.6567
C68 C 0.1719(8) 0.76021(12) 0.60376(12)
H54 H 0.0441 0.7599 0.5884
C69 C 0.1990(7) 0.68772(13) 0.51564(13)
H55 H 0.2047 0.6806 0.4891
C70 C 0.0277(7) 0.66446(13) 0.52354(12)
C71 C -0.1705(8) 0.64785(14) 0.49780(13)
H56 H -0.1935 0.6523 0.4766
C72 C -0.3320(9) 0.62488(15) 0.50363(16)
H57 H -0.4669 0.6150 0.4870
C73 C -0.2978(8) 0.61628(15) 0.53365(16)
H58 H -0.4064 0.6001 0.5369
C74 C -0.0990(8) 0.63205(13) 0.55904(14)
H59 H -0.0739 0.6263 0.5794
C75 C 0.0621(8) 0.65626(12) 0.55434(12)
H60 H 0.1937 0.6671 0.5718
O11 O 1.1318(14) 0.96795(19) 0.7208(2)
O12 O 1.0120(14) 1.02805(14) 0.74291(17)
H61 H 1.1303 1.0342 0.7576
C76 C 0.9935(13) 0.98919(17) 0.7177(2)
C77 C 0.8058(11) 0.97408(15) 0.68662(18)
C78 C 0.7625(10) 0.92974(15) 0.66362(18)
C79 C 0.9208(11) 0.90545(17) 0.63996(19)
H62 H 1.0573 0.9166 0.6370
C80 C 0.8754(13) 0.86451(17) 0.6207(3)
H63 H 0.9801 0.8482 0.6043
C81 C 0.6762(14) 0.84782(17) 0.6257(2)
H64 H 0.6488 0.8204 0.6135
C82 C 0.5188(13) 0.87181(17) 0.6487(2)
H65 H 0.3825 0.8605 0.6515
C83 C 0.5603(11) 0.91254(17) 0.66780(19)
H66 H 0.4525 0.9285 0.6835
C84 C 0.6789(10) 0.99955(16) 0.68283(19)
H67 H 0.7108 1.0260 0.7023
C85 C 0.4975(11) 0.99175(19) 0.6525(2)
C86 C 0.3253(11) 1.0177(2) 0.6616(2)
H68 H 0.3250 1.0394 0.6871
C87 C 0.1541(12) 1.0110(2) 0.6323(3)
H69 H 0.0386 1.0281 0.6384
C88 C 0.1530(14) 0.9790(2) 0.5939(3)
H70 H 0.0351 0.9745 0.5749
C89 C 0.3269(12) 0.9541(2) 0.5841(3)
H71 H 0.3322 0.9337 0.5582
C90 C 0.4944(12) 0.9600(2) 0.6136(2)
H72 H 0.6072 0.9424 0.6073
O13 O 1.4090(5) 0.79988(8) 0.75978(8)
O14 O 1.2752(6) 0.77747(9) 0.79810(9)
H73 H 1.3670 0.7610 0.7872
C91 C 1.2803(8) 0.80261(12) 0.78458(12)
C92 C 1.1237(7) 0.83448(11) 0.80174(12)
C93 C 1.1066(7) 0.85790(11) 0.78122(12)
C94 C 0.9044(8) 0.85436(12) 0.75943(13)
H74 H 0.7776 0.8394 0.7600
C95 C 0.8869(8) 0.87260(13) 0.73689(13)
H75 H 0.7502 0.8696 0.7221
C96 C 1.0749(9) 0.89547(13) 0.73637(14)
H76 H 1.0650 0.9079 0.7212
C97 C 1.2740(9) 0.89966(12) 0.75826(14)
H77 H 1.3985 0.9155 0.7583
C98 C 1.2945(7) 0.88099(11) 0.78026(12)
H78 H 1.4329 0.8837 0.7945
C99 C 1.0074(7) 0.83953(12) 0.83241(12)
H79 H 1.0182 0.8202 0.8397
C100 C 0.8649(7) 0.87171(14) 0.85594(13)
C101 C 0.9155(8) 0.91050(13) 0.86375(13)
H80 H 1.0396 0.9162 0.8529
C102 C 0.7825(9) 0.94063(15) 0.88756(14)
H81 H 0.8190 0.9664 0.8927
C103 C 0.5983(9) 0.93269(17) 0.90348(15)
H82 H 0.5094 0.9529 0.9192
C104 C 0.5448(8) 0.89500(17) 0.89628(14)
H83 H 0.4172 0.8897 0.9067
C105 C 0.6788(8) 0.86419(16) 0.87341(14)
H84 H 0.6451 0.8389 0.8698
O15 O -0.2749(5) 0.75135(8) 0.72818(9)
H85 H -0.3720 0.7670 0.7384
C106 C -0.2888(7) 0.72425(11) 0.73923(12)
O16 O -0.4287(5) 0.72494(8) 0.76210(8)
C107 C -0.1299(7) 0.69317(11) 0.72188(11)
C108 C -0.1169(7) 0.66659(11) 0.73903(11)
C109 C -0.3050(7) 0.64152(11) 0.73575(12)
H86 H -0.4424 0.6407 0.7223
C110 C -0.2848(8) 0.61763(12) 0.75289(14)
H87 H -0.4089 0.6004 0.7503
C111 C -0.0862(9) 0.61910(13) 0.77342(14)
H88 H -0.0759 0.6031 0.7848
C112 C 0.0996(8) 0.64424(12) 0.77733(13)
H89 H 0.2348 0.6454 0.7915
C113 C 0.0843(7) 0.66791(11) 0.76004(12)
H90 H 0.2101 0.6848 0.7626
C114 C -0.0046(7) 0.69112(11) 0.69299(11)
H91 H -0.0174 0.7114 0.6871
C115 C 0.1494(7) 0.66111(12) 0.66965(11)
C116 C 0.3270(7) 0.67168(13) 0.65345(12)
H92 H 0.3458 0.6975 0.6581
C117 C 0.4751(8) 0.64497(15) 0.63085(13)
H93 H 0.5950 0.6531 0.6210
C118 C 0.4476(9) 0.60604(15) 0.62256(14)
H94 H 0.5484 0.5879 0.6073
C119 C 0.2665(9) 0.59461(14) 0.63747(14)
H95 H 0.2442 0.5684 0.6316
C120 C 0.1202(7) 0.62144(12) 0.66075(12)
H96 H 0.0009 0.6133 0.6707
O17 O -0.1535(5) 0.53704(7) 0.77507(8)
O18 O -0.0257(5) 0.47695(7) 0.74858(9)
H97 H -0.1388 0.4715 0.7330
C121 C -0.0128(7) 0.51501(12) 0.77581(12)
C122 C 0.1776(7) 0.52868(11) 0.80682(11)
C123 C 0.2159(7) 0.57266(11) 0.83330(11)
C124 C 0.4172(7) 0.59223(11) 0.83215(12)
H98 H 0.5274 0.5779 0.8156
C125 C 0.4537(8) 0.63289(12) 0.85553(13)
H99 H 0.5873 0.6460 0.8542
C126 C 0.2948(8) 0.65442(12) 0.88081(13)
H100 H 0.3220 0.6818 0.8967
C127 C 0.0953(8) 0.63522(13) 0.88252(13)
H101 H -0.0121 0.6496 0.8997
C128 C 0.0555(7) 0.59445(11) 0.85854(12)
H102 H -0.0802 0.5816 0.8594
C129 C 0.3044(7) 0.50196(11) 0.80880(12)
H103 H 0.2718 0.4759 0.7884
C130 C 0.4880(7) 0.50859(11) 0.83895(12)
C131 C 0.6540(7) 0.48169(13) 0.82825(14)
H104 H 0.6456 0.4604 0.8024
C132 C 0.8300(8) 0.48594(14) 0.85502(15)
H105 H 0.9425 0.4682 0.8470
C133 C 0.8400(8) 0.51655(15) 0.89379(16)
H106 H 0.9589 0.5194 0.9120
C134 C 0.6737(9) 0.54274(14) 0.90534(14)
H107 H 0.6788 0.5630 0.9316
C135 C 0.4978(8) 0.53930(12) 0.87825(13)
H108 H 0.3871 0.5574 0.8863
O19 O 0.3093(5) 0.73791(8) 0.96284(8)
O20 O 0.4974(5) 0.77175(9) 1.02296(8)
H109 H 0.3876 0.7623 1.0287
C136 C 0.4716(7) 0.76069(12) 0.98508(12)
C137 C 0.6481(7) 0.77799(11) 0.97106(11)
C138 C 0.6431(7) 0.76094(11) 0.92747(12)
C139 C 0.8249(7) 0.74003(11) 0.90796(12)
H110 H 0.9487 0.7376 0.9223
C140 C 0.8211(8) 0.72269(12) 0.86684(13)
H111 H 0.9416 0.7084 0.8537
C141 C 0.6400(9) 0.72658(13) 0.84571(13)
H112 H 0.6389 0.7151 0.8183
C142 C 0.4606(8) 0.74727(13) 0.86476(13)
H113 H 0.3389 0.7499 0.8502
C143 C 0.4599(7) 0.76419(11) 0.90544(13)
H114 H 0.3365 0.7778 0.9181
C144 C 0.8027(7) 0.80700(11) 0.99809(12)
H115 H 0.7957 0.8128 1.0242
C145 C 0.9796(7) 0.83043(11) 0.99135(12)
C146 C 1.1727(7) 0.84653(11) 1.01834(13)
H116 H 1.1853 0.8420 1.0396
C147 C 1.3461(8) 0.86918(13) 1.01405(15)
H117 H 1.4776 0.8788 1.0316
C148 C 1.3217(8) 0.87732(13) 0.98350(15)
H118 H 1.4362 0.8930 0.9807
C149 C 1.1297(9) 0.86256(13) 0.95703(14)
H119 H 1.1154 0.8683 0.9365
C150 C 0.9577(7) 0.83921(11) 0.96081(13)
H120 H 0.8276 0.8294 0.9430
O21 O 1.7660(12) 0.75700(16) 0.28510(16)
H121 H 1.8646 0.7414 0.2758
O22 O 1.9098(12) 0.77934(18) 0.24711(18)
C151 C 1.7754(12) 0.78216(18) 0.27140(19)
C152 C 1.6185(11) 0.81330(17) 0.28717(17)
C153 C 1.5978(10) 0.83649(17) 0.26614(17)
C154 C 1.3943(10) 0.83237(18) 0.24450(18)
H122 H 1.2707 0.8166 0.2448
C155 C 1.3698(12) 0.85106(19) 0.2225(2)
H123 H 1.2305 0.8482 0.2085
C156 C 1.5527(12) 0.87388(19) 0.2215(2)
H124 H 1.5395 0.8859 0.2061
C157 C 1.7543(12) 0.8789(2) 0.2433(2)
H125 H 1.8756 0.8952 0.2432
C158 C 1.7823(11) 0.86018(18) 0.26559(18)
H126 H 1.9214 0.8634 0.2798
C159 C 1.4938(10) 0.81733(19) 0.31692(18)
H127 H 1.5051 0.7979 0.3241
C160 C 1.3451(10) 0.8478(2) 0.3391(2)
C161 C 1.1615(11) 0.8388(2) 0.3562(2)
H128 H 1.1366 0.8135 0.3527
C162 C 1.0191(12) 0.8676(3) 0.3780(2)
H129 H 0.8959 0.8610 0.3884
C163 C 1.0542(13) 0.9059(3) 0.3849(2)
H130 H 0.9552 0.9248 0.3994
C164 C 1.2416(12) 0.9157(2) 0.3695(2)
H131 H 1.2716 0.9416 0.3747
C165 C 1.3814(12) 0.8869(2) 0.3466(2)
H132 H 1.5028 0.8936 0.3360
O23 O 1.6348(5) 0.95210(8) 0.21058(9)
O24 O 1.5132(5) 1.01240(8) 0.23267(11)
H133 H 1.6279 1.0188 0.2482
C166 C 1.4983(8) 0.97393(12) 0.20794(14)
C167 C 1.3078(7) 0.95860(11) 0.17631(13)
C168 C 1.2697(7) 0.91423(11) 0.15270(12)
C169 C 1.0678(7) 0.89628(11) 0.15629(13)
H134 H 0.9554 0.9117 0.1712
C170 C 1.0356(8) 0.85497(12) 0.13742(14)
H135 H 0.9012 0.8428 0.1398
C171 C 1.2013(9) 0.83213(12) 0.11536(13)
H136 H 1.1801 0.8046 0.1032
C172 C 1.3987(8) 0.85002(12) 0.11126(12)
H137 H 1.5089 0.8345 0.0957
C173 C 1.4335(7) 0.89083(11) 0.13014(12)
H138 H 1.5685 0.9027 0.1277
C174 C 1.1821(8) 0.98428(12) 0.17207(14)
H139 H 1.2130 1.0107 0.1916
C175 C 1.0043(8) 0.97645(12) 0.14111(15)
C176 C 1.0072(8) 0.94573(12) 0.10213(15)
H140 H 1.1210 0.9283 0.0957
C177 C 0.8430(9) 0.94080(13) 0.07284(16)
H141 H 0.8494 0.9206 0.0468
C178 C 0.6684(9) 0.96612(15) 0.08243(18)
H142 H 0.5562 0.9627 0.0630
C179 C 0.6634(9) 0.99616(15) 0.1208(2)
H143 H 0.5453 1.0128 0.1273
C180 C 0.8308(8) 1.00211(13) 0.14987(17)
H144 H 0.8280 1.0233 0.1755
O1 O 0.0133(17) 0.7854(2) 0.52813(17)
H1 H -0.0987 0.7770 0.5344
O2 O -0.1661(15) 0.7476(2) 0.4679(2)
C1 C -0.0076(14) 0.7719(2) 0.4893(2)
C2 C 0.1687(12) 0.78744(18) 0.47387(18)
C3 C 0.1650(11) 0.76668(18) 0.43000(18)
C4 C 0.3452(11) 0.74450(19) 0.4117(2)
H2 H 0.4710 0.7445 0.4272
C5 C 0.3408(11) 0.7225(2) 0.3709(2)
H3 H 0.4631 0.7079 0.3590
C6 C 0.1545(12) 0.7222(2) 0.3480(2)
H4 H 0.1504 0.7073 0.3205
C7 C -0.0262(12) 0.7439(2) 0.3653(2)
H5 H -0.1513 0.7435 0.3494
C8 C -0.0230(11) 0.76621(19) 0.4061(2)
H6 H -0.1455 0.7809 0.4176
C9 C 0.3203(11) 0.81717(18) 0.49962(19)
H7 H 0.3128 0.8245 0.5262
C10 C 0.4952(11) 0.8395(2) 0.4916(2)
C11 C 0.4663(12) 0.8465(2) 0.4597(2)
H8 H 0.3353 0.8354 0.4421
C12 C 0.6305(13) 0.8697(2) 0.4538(2)
H9 H 0.6071 0.8750 0.4332
C13 C 0.8310(13) 0.8849(2) 0.4793(3)
H10 H 0.9445 0.8996 0.4751
C14 C 0.8606(12) 0.8783(2) 0.5104(2)
H11 H 0.9947 0.8884 0.5273
C15 C 0.6930(11) 0.85654(19) 0.5172(2)
H12 H 0.7130 0.8533 0.5393
O25? O 0.037(4) 0.7980(5) 0.5295(4)
H145? H -0.0578 0.8141 0.5397
O26? O -0.138(3) 0.7582(6) 0.4695(5)
C181? C 0.018(3) 0.7836(5) 0.4906(4)
C182? C 0.186(2) 0.7999(4) 0.4745(3)
C183? C 0.185(2) 0.7775(4) 0.4306(3)
C184? C 0.370(2) 0.7563(5) 0.4133(4)
H146? H 0.4960 0.7573 0.4295
C185? C 0.371(2) 0.7336(5) 0.3726(4)
H147? H 0.4953 0.7192 0.3614
C186? C 0.1864 0.7325(5) 0.3490(4)
H148? H 0.1861 0.7174 0.3215
C187? C 0.002(2) 0.7535(5) 0.3652(4)
H149? H -0.1230 0.7522 0.3487
C188? C 0.000(2) 0.7765(5) 0.4059(4)
H150? H -0.1237 0.7912 0.4168
C189? C 0.330(2) 0.8314(4) 0.4993(3)
H151? H 0.3325 0.8388 0.5260
C190? C 0.484(2) 0.8554(4) 0.4897(4)
C191? C 0.432(2) 0.8617(4) 0.4579(4)
H152? H 0.2967 0.8496 0.4417
C192? C 0.578(2) 0.8856(4) 0.4499(4)
H153? H 0.5411 0.8896 0.4288
C193? C 0.782(2) 0.9034(4) 0.4741(4)
H154? H 0.8789 0.9201 0.4696
C194? C 0.838(2) 0.8965(5) 0.5044(4)
H155? H 0.9775 0.9073 0.5194
C195? C 0.689(2) 0.8736(4) 0.5130(4)
H156? H 0.7267 0.8703 0.5347
O27? O 1.114(3) 0.9700(4) 0.7108(5)
O28? O 0.996(3) 1.0298(3) 0.7305(4)
H157? H 1.1261 1.0389 0.7310
C196? C 0.977(2) 0.9908(3) 0.7064(4)
C197? C 0.792(2) 0.9748(2) 0.6747(4)
C198? C 0.7602(19) 0.9303(2) 0.6521(4)
C199? C 0.929(2) 0.9080(3) 0.6298(5)
H158? H 1.0564 0.9204 0.6258
C200? C 0.907(3) 0.8671(3) 0.6135(6)
H159? H 1.0273 0.8523 0.6012
C201? C 0.706(3) 0.8486(3) 0.6155(5)
H160? H 0.6822 0.8211 0.6016
C202? C 0.541(3) 0.8707(3) 0.6381(5)
H161? H 0.4139 0.8582 0.6421
C203? C 0.560(2) 0.9116(3) 0.6549(4)
H162? H 0.4409 0.9263 0.6680
C204? C 0.6758(19) 0.9990(3) 0.6672(3)
H163? H 0.7071 1.0259 0.6852
C205? C 0.5056(18) 0.9889(3) 0.6344(3)
C206? C 0.3224(19) 1.0123(3) 0.6405(4)
H164? H 0.3103 1.0345 0.6651
C207? C 0.158(2) 1.0018(4) 0.6089(4)
H165? H 0.0245 1.0147 0.6135
C208? C 0.192(2) 0.9722(3) 0.5706(4)
H166? H 0.0915 0.9680 0.5494
C209? C 0.3732(19) 0.9492(3) 0.5640(3)
H167? H 0.3913 0.9284 0.5387
C210? C 0.5287(19) 0.9577(3) 0.5960(3)
H168? H 0.6514 0.9422 0.5917
O29? O 1.772(3) 0.7698(4) 0.2998(4)
H169? H 1.9003 0.7623 0.2996
O30? O 1.904(3) 0.7893(4) 0.2591(4)
C211? C 1.770(2) 0.7930(4) 0.2839(4)
C212? C 1.618(2) 0.8249(3) 0.2999(3)
C213? C 1.6051(19) 0.8475(4) 0.2782(4)
C214? C 1.4049(19) 0.8446(4) 0.2564(4)
H170? H 1.2746 0.8306 0.2574
C215? C 1.396(2) 0.8623(4) 0.2332(4)
H171? H 1.2620 0.8592 0.2177
C216? C 1.586(2) 0.8844(5) 0.2333(5)
H172? H 1.5785 0.8973 0.2186
C217? C 1.785(2) 0.8877(5) 0.2548(5)
H173? H 1.9135 0.9020 0.2538
C218? C 1.7979(19) 0.8698(4) 0.2780(4)
H174? H 1.9328 0.8728 0.2932
C219? C 1.508(2) 0.8328(3) 0.3323(4)
H175? H 1.5208 0.8149 0.3414
C220? C 1.3739(19) 0.8657(3) 0.3545(4)
C221? C 1.1844(19) 0.8598(3) 0.3725(4)
H176? H 1.1462 0.8349 0.3695
C222? C 1.056(2) 0.8909(4) 0.3944(4)
H177? H 0.9233 0.8862 0.4041
C223? C 1.119(2) 0.9290(3) 0.4023(4)
H178? H 1.0362 0.9500 0.4185
C224? C 1.310(2) 0.9355(3) 0.3855(4)
H179? H 1.3547 0.9609 0.3904
C225? C 1.433(2) 0.9042(3) 0.3617(4)
H180? H 1.5571 0.9086 0.3501
O31? O 0.1216(18) 0.4934(3) -0.0269(4)
C226? C 0.3129(19) 0.4957(3) -0.0113(3)
C227? C 0.360(3) 0.4907(6) 0.0242(5)
H181? H 0.2196 0.4869 0.0339
H182? H 0.4476 0.5143 0.0445
H183? H 0.4472 0.4682 0.0170
C228? C 0.521(2) 0.5039(8) -0.0265(7)
H184? H 0.4752 0.5083 -0.0480
H185? H 0.6115 0.4817 -0.0360
H186? H 0.6088 0.5272 -0.0059
O32? O 0.132(4) 0.4948(8) -0.0016(8)
C229? C 0.333(4) 0.4960(7) -0.0032(7)
C230? C 0.498(5) 0.4923(16) 0.0257(12)
H187? H 0.4725 0.4668 0.0237
H188? H 0.4769 0.5128 0.0522
H189? H 0.6522 0.4957 0.0198
C231? C 0.447(6) 0.5012(14) -0.0346(10)
H190? H 0.3517 0.5152 -0.0433
H191? H 0.4647 0.4754 -0.0566
H192? H 0.5942 0.5157 -0.0242
O33? O 0.0184(19) 0.5284(4) 0.5310(4)
C232? C -0.1490(19) 0.5097(3) 0.5068(3)
C233? C -0.152(3) 0.4759(6) 0.4651(4)
H193? H -0.3057 0.4701 0.4530
H194? H -0.1022 0.4531 0.4658
H195? H -0.0524 0.4826 0.4500
C234? C -0.3739(18) 0.5232(3) 0.5161(3)
H196? H -0.3748 0.5395 0.5444
H197? H -0.4847 0.5007 0.5067
H198? H -0.4117 0.5383 0.5036
O34? O 0.992(2) 0.9698(3) -0.0011(4)
C235? C 0.848(2) 0.9939(3) 0.0043(4)
C236? C 0.888(3) 1.0358(3) 0.0128(6)
H199? H 0.7516 1.0491 0.0217
H200? H 0.9255 1.0358 -0.0110
H201? H 1.0121 1.0494 0.0330
C237? C 0.611(2) 0.9838(3) 0.0064(3)
H202? H 0.5146 0.9935 -0.0070
H203? H 0.5789 0.9957 0.0337
H204? H 0.5826 0.9555 -0.0061
O35? O 0.140(5) 1.0144(8) 0.5085(8)
C238? C 0.324(5) 0.9997(13) 0.4986(11)
C239? C 0.465(6) 0.9991(15) 0.4674(11)
H205? H 0.5222 1.0257 0.4751
H206? H 0.3712 0.9879 0.4428
H207? H 0.5919 0.9834 0.4641
C240? C 0.428(6) 0.9800(12) 0.5180(13)
H208? H 0.3722 0.9526 0.5016
H209? H 0.3851 0.9895 0.5445
H210? H 0.5920 0.9826 0.5185
O36? O 0.100(5) 0.9889(8) 0.4950(9)
C241? C 0.309(5) 0.9952(8) 0.4950(10)
C242? C 0.448(6) 1.0345(9) 0.5169(13)
H211? H 0.4755 1.0399 0.5437
H212? H 0.3712 1.0557 0.5168
H213? H 0.5916 1.0326 0.5055
C243? C 0.432(5) 0.9656(11) 0.4640(11)
H214? H 0.3325 0.9420 0.4474
H215? H 0.5561 0.9593 0.4764
H216? H 0.4923 0.9760 0.4482
loop_
_geom_bond_atom_site_label_1
_geom_bond_atom_site_label_2
_geom_bond_site_symmetry_1
_geom_bond_site_symmetry_2
O1 H1 1_555 1_555
O2 C1 1_555 1_555
C1 O1 1_555 1_555
C2 C1 1_555 1_555
C3 C2 1_555 1_555
C4 C3 1_555 1_555
H2 C4 1_555 1_555
C5 C4 1_555 1_555
H3 C5 1_555 1_555
C6 C5 1_555 1_555
H4 C6 1_555 1_555
C7 C6 1_555 1_555
H5 C7 1_555 1_555
C8 C3 1_555 1_555
H6 C8 1_555 1_555
C9 C2 1_555 1_555
H7 C9 1_555 1_555
C10 C9 1_555 1_555
C11 C10 1_555 1_555
H8 C11 1_555 1_555
C12 C11 1_555 1_555
H9 C12 1_555 1_555
C13 C12 1_555 1_555
H10 C13 1_555 1_555
C14 C13 1_555 1_555
H11 C14 1_555 1_555
C15 C10 1_555 1_555
H12 C15 1_555 1_555
O3 C16 1_555 1_555
O4 H13 1_555 1_555
C16 O4 1_555 1_555
C17 C16 1_555 1_555
C18 C17 1_555 1_555
C19 C18 1_555 1_555
H14 C19 1_555 1_555
C20 C19 1_555 1_555
H15 C20 1_555 1_555
C21 C20 1_555 1_555
H16 C21 1_555 1_555
C22 C21 1_555 1_555
H17 C22 1_555 1_555
C23 C18 1_555 1_555
H18 C23 1_555 1_555
C24 C17 1_555 1_555
H19 C24 1_555 1_555
C25 C24 1_555 1_555
C26 C25 1_555 1_555
H20 C26 1_555 1_555
C27 C26 1_555 1_555
H21 C27 1_555 1_555
C28 C27 1_555 1_555
H22 C28 1_555 1_555
C29 C28 1_555 1_555
H23 C29 1_555 1_555
C30 C25 1_555 1_555
H24 C30 1_555 1_555
O5 H25 1_555 1_555
O6 C31 1_555 1_555
C31 O5 1_555 1_555
C32 C31 1_555 1_555
C33 C32 1_555 1_555
C34 C33 1_555 1_555
H26 C34 1_555 1_555
C35 C34 1_555 1_555
H27 C35 1_555 1_555
C36 C35 1_555 1_555
H28 C36 1_555 1_555
C37 C36 1_555 1_555
H29 C37 1_555 1_555
C38 C33 1_555 1_555
H30 C38 1_555 1_555
C39 C32 1_555 1_555
H31 C39 1_555 1_555
C40 C39 1_555 1_555
C41 C40 1_555 1_555
H32 C41 1_555 1_555
C42 C41 1_555 1_555
H33 C42 1_555 1_555
C43 C42 1_555 1_555
H34 C43 1_555 1_555
C44 C43 1_555 1_555
H35 C44 1_555 1_555
C45 C40 1_555 1_555
H36 C45 1_555 1_555
O7 C46 1_555 1_555
O8 H37 1_555 1_555
C46 O8 1_555 1_555
C47 C46 1_555 1_555
C48 C47 1_555 1_555
C49 C48 1_555 1_555
H38 C49 1_555 1_555
C50 C49 1_555 1_555
H39 C50 1_555 1_555
C51 C50 1_555 1_555
H40 C51 1_555 1_555
C52 C51 1_555 1_555
H41 C52 1_555 1_555
C53 C48 1_555 1_555
H42 C53 1_555 1_555
C54 C47 1_555 1_555
H43 C54 1_555 1_555
C55 C54 1_555 1_555
C56 C55 1_555 1_555
H44 C56 1_555 1_555
C57 C56 1_555 1_555
H45 C57 1_555 1_555
C58 C57 1_555 1_555
H46 C58 1_555 1_555
C59 C58 1_555 1_555
H47 C59 1_555 1_555
C60 C55 1_555 1_555
H48 C60 1_555 1_555
O9 H49 1_555 1_555
O10 C61 1_555 1_555
C61 O9 1_555 1_555
C62 C61 1_555 1_555
C63 C62 1_555 1_555
C64 C63 1_555 1_555
H50 C64 1_555 1_555
C65 C64 1_555 1_555
H51 C65 1_555 1_555
C66 C65 1_555 1_555
H52 C66 1_555 1_555
C67 C66 1_555 1_555
H53 C67 1_555 1_555
C68 C63 1_555 1_555
H54 C68 1_555 1_555
C69 C62 1_555 1_555
H55 C69 1_555 1_555
C70 C69 1_555 1_555
C71 C70 1_555 1_555
H56 C71 1_555 1_555
C72 C71 1_555 1_555
H57 C72 1_555 1_555
C73 C72 1_555 1_555
H58 C73 1_555 1_555
C74 C73 1_555 1_555
H59 C74 1_555 1_555
C75 C70 1_555 1_555
H60 C75 1_555 1_555
O11 C76 1_555 1_555
O12 H61 1_555 1_555
C76 O12 1_555 1_555
C77 C76 1_555 1_555
C78 C77 1_555 1_555
C79 C78 1_555 1_555
H62 C79 1_555 1_555
C80 C79 1_555 1_555
H63 C80 1_555 1_555
C81 C80 1_555 1_555
H64 C81 1_555 1_555
C82 C81 1_555 1_555
H65 C82 1_555 1_555
C83 C78 1_555 1_555
H66 C83 1_555 1_555
C84 C77 1_555 1_555
H67 C84 1_555 1_555
C85 C84 1_555 1_555
C86 C85 1_555 1_555
H68 C86 1_555 1_555
C87 C86 1_555 1_555
H69 C87 1_555 1_555
C88 C87 1_555 1_555
H70 C88 1_555 1_555
C89 C88 1_555 1_555
H71 C89 1_555 1_555
C90 C85 1_555 1_555
H72 C90 1_555 1_555
O13 C91 1_555 1_555
O14 H73 1_555 1_555
C91 O14 1_555 1_555
C92 C91 1_555 1_555
C93 C92 1_555 1_555
C94 C93 1_555 1_555
H74 C94 1_555 1_555
C95 C94 1_555 1_555
H75 C95 1_555 1_555
C96 C95 1_555 1_555
H76 C96 1_555 1_555
C97 C96 1_555 1_555
H77 C97 1_555 1_555
C98 C93 1_555 1_555
H78 C98 1_555 1_555
C99 C92 1_555 1_555
H79 C99 1_555 1_555
C100 C99 1_555 1_555
C101 C100 1_555 1_555
H80 C101 1_555 1_555
C102 C101 1_555 1_555
H81 C102 1_555 1_555
C103 C102 1_555 1_555
H82 C103 1_555 1_555
C104 C103 1_555 1_555
H83 C104 1_555 1_555
C105 C100 1_555 1_555
H84 C105 1_555 1_555
O15 H85 1_555 1_555
C106 O15 1_555 1_555
O16 C106 1_555 1_555
C107 C106 1_555 1_555
C108 C107 1_555 1_555
C109 C108 1_555 1_555
H86 C109 1_555 1_555
C110 C109 1_555 1_555
H87 C110 1_555 1_555
C111 C110 1_555 1_555
H88 C111 1_555 1_555
C112 C111 1_555 1_555
H89 C112 1_555 1_555
C113 C108 1_555 1_555
H90 C113 1_555 1_555
C114 C107 1_555 1_555
H91 C114 1_555 1_555
C115 C114 1_555 1_555
C116 C115 1_555 1_555
H92 C116 1_555 1_555
C117 C116 1_555 1_555
H93 C117 1_555 1_555
C118 C117 1_555 1_555
H94 C118 1_555 1_555
C119 C118 1_555 1_555
H95 C119 1_555 1_555
C120 C115 1_555 1_555
H96 C120 1_555 1_555
O17 C121 1_555 1_555
O18 H97 1_555 1_555
C121 O18 1_555 1_555
C122 C121 1_555 1_555
C123 C122 1_555 1_555
C124 C123 1_555 1_555
H98 C124 1_555 1_555
C125 C124 1_555 1_555
H99 C125 1_555 1_555
C126 C125 1_555 1_555
H100 C126 1_555 1_555
C127 C126 1_555 1_555
H101 C127 1_555 1_555
C128 C123 1_555 1_555
H102 C128 1_555 1_555
C129 C122 1_555 1_555
H103 C129 1_555 1_555
C130 C129 1_555 1_555
C131 C130 1_555 1_555
H104 C131 1_555 1_555
C132 C131 1_555 1_555
H105 C132 1_555 1_555
C133 C132 1_555 1_555
H106 C133 1_555 1_555
C134 C133 1_555 1_555
H107 C134 1_555 1_555
C135 C130 1_555 1_555
H108 C135 1_555 1_555
O19 C136 1_555 1_555
O20 H109 1_555 1_555
C136 O20 1_555 1_555
C137 C136 1_555 1_555
C138 C137 1_555 1_555
C139 C138 1_555 1_555
H110 C139 1_555 1_555
C140 C139 1_555 1_555
H111 C140 1_555 1_555
C141 C140 1_555 1_555
H112 C141 1_555 1_555
C142 C141 1_555 1_555
H113 C142 1_555 1_555
C143 C138 1_555 1_555
H114 C143 1_555 1_555
C144 C137 1_555 1_555
H115 C144 1_555 1_555
C145 C144 1_555 1_555
C146 C145 1_555 1_555
H116 C146 1_555 1_555
C147 C146 1_555 1_555
H117 C147 1_555 1_555
C148 C147 1_555 1_555
H118 C148 1_555 1_555
C149 C148 1_555 1_555
H119 C149 1_555 1_555
C150 C145 1_555 1_555
H120 C150 1_555 1_555
O21 H121 1_555 1_555
O22 C151 1_555 1_555
C151 O21 1_555 1_555
C152 C151 1_555 1_555
C153 C152 1_555 1_555
C154 C153 1_555 1_555
H122 C154 1_555 1_555
C155 C154 1_555 1_555
H123 C155 1_555 1_555
C156 C155 1_555 1_555
H124 C156 1_555 1_555
C157 C156 1_555 1_555
H125 C157 1_555 1_555
C158 C153 1_555 1_555
H126 C158 1_555 1_555
C159 C152 1_555 1_555
H127 C159 1_555 1_555
C160 C159 1_555 1_555
C161 C160 1_555 1_555
H128 C161 1_555 1_555
C162 C161 1_555 1_555
H129 C162 1_555 1_555
C163 C162 1_555 1_555
H130 C163 1_555 1_555
C164 C163 1_555 1_555
H131 C164 1_555 1_555
C165 C160 1_555 1_555
H132 C165 1_555 1_555
O23 C166 1_555 1_555
O24 H133 1_555 1_555
C166 O24 1_555 1_555
C167 C166 1_555 1_555
C168 C167 1_555 1_555
C169 C168 1_555 1_555
H134 C169 1_555 1_555
C170 C169 1_555 1_555
H135 C170 1_555 1_555
C171 C170 1_555 1_555
H136 C171 1_555 1_555
C172 C171 1_555 1_555
H137 C172 1_555 1_555
C173 C168 1_555 1_555
H138 C173 1_555 1_555
C174 C167 1_555 1_555
H139 C174 1_555 1_555
C175 C174 1_555 1_555
C176 C175 1_555 1_555
H140 C176 1_555 1_555
C177 C176 1_555 1_555
H141 C177 1_555 1_555
C178 C177 1_555 1_555
H142 C178 1_555 1_555
C179 C178 1_555 1_555
H143 C179 1_555 1_555
C180 C175 1_555 1_555
H144 C180 1_555 1_555
C7 C8 1_555 1_555
C14 C15 1_555 1_555
C22 C23 1_555 1_555
C29 C30 1_555 1_555
C37 C38 1_555 1_555
C44 C45 1_555 1_555
C52 C53 1_555 1_555
C59 C60 1_555 1_555
C67 C68 1_555 1_555
C74 C75 1_555 1_555
C82 C83 1_555 1_555
C89 C90 1_555 1_555
C97 C98 1_555 1_555
C104 C105 1_555 1_555
C112 C113 1_555 1_555
C119 C120 1_555 1_555
C127 C128 1_555 1_555
C134 C135 1_555 1_555
C142 C143 1_555 1_555
C149 C150 1_555 1_555
C157 C158 1_555 1_555
C164 C165 1_555 1_555
C172 C173 1_555 1_555
C179 C180 1_555 1_555

#END
