
#######################################################################
#
#                 Cambridge Crystallographic Data Centre
#                                CCDC 
#
#######################################################################
#
# If this CIF has been generated from an entry in the Cambridge 
# Structural Database, then it will include bibliographic, chemical, 
# crystal, experimental, refinement or atomic coordinate data resulting 
# from the CCDC's data processing and validation procedures.
#
#######################################################################

data_SUQCOY
_chemical_formula_moiety         'C31 H34 O5'
_chemical_name_systematic        
3,4-bis(benzyloxy)-2-((benzyloxy)methyl)-7-methyleneoctahydropyrano[3,2-b]pyran
_symmetry_cell_setting           monoclinic
_symmetry_space_group_name_H-M   'P 21'
_symmetry_Int_Tables_number      4
_space_group_name_Hall           'P 2yb'
loop_
_symmetry_equiv_pos_site_id
_symmetry_equiv_pos_as_xyz
1 x,y,z
2 -x,1/2+y,-z
_cell_length_a                   11.1588(6)
_cell_length_b                   9.3746(6)
_cell_length_c                   12.4312(7)
_cell_angle_alpha                90
_cell_angle_beta                 97.560(3)
_cell_angle_gamma                90
_cell_volume                     1289.12
_exptl_crystal_description       columnar
_cell_formula_units_Z            2
loop_
_atom_site_label
_atom_site_type_symbol
_atom_site_fract_x
_atom_site_fract_y
_atom_site_fract_z
O1 O 0.12603(8) 0.96901(12) 0.54829(7)
O2 O -0.23074(9) 1.02151(14) 0.13912(7)
O3 O -0.21897(8) 0.98665(12) 0.37274(7)
O4 O 0.09254(8) 0.98224(11) 0.31560(7)
O5 O -0.10345(8) 0.85640(11) 0.57199(7)
C1 C 0.50870(14) 0.9036(2) 0.79797(12)
H1 H 0.5812 0.8665 0.8365
C2 C 0.50185(14) 1.0456(2) 0.76909(12)
H2 H 0.5693 1.1063 0.7888
C3 C 0.39688(14) 1.1007(2) 0.71129(12)
H3 H 0.3928 1.1987 0.6917
C4 C 0.29775(12) 1.01203(18) 0.68209(10)
C5 C 0.18317(13) 1.07287(17) 0.62205(11)
H4 H 0.1278 1.1008 0.6744
H5 H 0.2021 1.1591 0.5815
C6 C 0.01766(11) 1.02223(16) 0.48785(9)
H6 H 0.0286 1.1264 0.4751
C7 C -0.00196(10) 0.94795(16) 0.37846(9)
H7 H -0.0074 0.8424 0.3882
C8 C -0.11838(11) 1.00525(17) 0.31416(9)
H8 H -0.1080 1.1094 0.3008
C9 C -0.15005(11) 0.93134(18) 0.20642(9)
H9 H -0.0761 0.9140 0.1723
H10 H -0.1890 0.8384 0.2168
C10 C -0.27145(12) 0.9583(2) 0.03621(10)
H11 H -0.3337 1.0206 -0.0038
H12 H -0.3099 0.8654 0.0481
C11 C -0.17167(12) 0.93497(18) -0.03226(10)
C12 C -0.10860(15) 1.0504(2) -0.06584(12)
H13 H -0.1305 1.1443 -0.0474
C13 C -0.01391(17) 1.0305(3) -0.12600(14)
H14 H 0.0292 1.1103 -0.1483
C14 C 0.01773(14) 0.8932(3) -0.15365(12)
H15 H 0.0832 0.8789 -0.1941
C15 C 0.30440(13) 0.86933(18) 0.71284(11)
H16 H 0.2367 0.8086 0.6942
C16 C 0.41012(14) 0.81477(19) 0.77091(12)
H17 H 0.4144 0.7172 0.7918
C17 C -0.09267(11) 1.00358(15) 0.54716(10)
H18 H -0.0809 1.0598 0.6161
C18 C -0.20488(11) 1.05863(17) 0.47495(10)
H19 H -0.1970 1.1636 0.4632
C19 C 0.18770(14) 0.8796(2) 0.32269(12)
H20 H 0.1533 0.7824 0.3132
H21 H 0.2367 0.8849 0.3950
C20 C 0.26597(12) 0.90958(17) 0.23589(11)
C21 C 0.21672(13) 0.9151(2) 0.12743(12)
H22 H 0.1320 0.9046 0.1081
C22 C 0.28979(14) 0.9359(3) 0.04759(12)
H23 H 0.2553 0.9392 -0.0264
C23 C 0.41357(14) 0.9519(2) 0.07511(13)
H24 H 0.4637 0.9666 0.0200
C24 C 0.46366(13) 0.94659(19) 0.18205(13)
H25 H 0.5485 0.9566 0.2010
C25 C 0.38979(12) 0.92646(18) 0.26226(11)
H26 H 0.4245 0.9242 0.3362
C26 C -0.04589(17) 0.7782(2) -0.12236(13)
H27 H -0.0256 0.6845 -0.1427
C27 C -0.13950(16) 0.7988(2) -0.06120(11)
H28 H -0.1822 0.7187 -0.0388
C28 C -0.31978(12) 1.02864(18) 0.52566(11)
H29 H -0.3236 1.0935 0.5880
H30 H -0.3914 1.0470 0.4715
C29 C -0.32170(12) 0.87602(18) 0.56360(10)
C30 C -0.41624(15) 0.7901(2) 0.54693(12)
H31 H -0.4116 0.6966 0.5766
H32 H -0.4888 0.8219 0.5053
C31 C -0.20543(12) 0.83000(17) 0.62887(10)
H33 H -0.1944 0.8823 0.6987
H34 H -0.2096 0.7269 0.6452
loop_
_geom_bond_atom_site_label_1
_geom_bond_atom_site_label_2
_geom_bond_site_symmetry_1
_geom_bond_site_symmetry_2
O1 C5 1_555 1_555
O2 C9 1_555 1_555
O3 C8 1_555 1_555
O4 C7 1_555 1_555
O5 C17 1_555 1_555
C1 H1 1_555 1_555
C2 C1 1_555 1_555
H2 C2 1_555 1_555
C3 C2 1_555 1_555
H3 C3 1_555 1_555
C4 C3 1_555 1_555
C5 C4 1_555 1_555
H4 C5 1_555 1_555
H5 C5 1_555 1_555
C6 O1 1_555 1_555
H6 C6 1_555 1_555
C7 C6 1_555 1_555
H7 C7 1_555 1_555
C8 C7 1_555 1_555
H8 C8 1_555 1_555
C9 C8 1_555 1_555
H9 C9 1_555 1_555
H10 C9 1_555 1_555
C10 O2 1_555 1_555
H11 C10 1_555 1_555
H12 C10 1_555 1_555
C11 C10 1_555 1_555
C12 C11 1_555 1_555
H13 C12 1_555 1_555
C13 C12 1_555 1_555
H14 C13 1_555 1_555
C14 C13 1_555 1_555
H15 C14 1_555 1_555
C15 C4 1_555 1_555
H16 C15 1_555 1_555
C16 C1 1_555 1_555
H17 C16 1_555 1_555
C17 C6 1_555 1_555
H18 C17 1_555 1_555
C18 O3 1_555 1_555
H19 C18 1_555 1_555
C19 O4 1_555 1_555
H20 C19 1_555 1_555
H21 C19 1_555 1_555
C20 C19 1_555 1_555
C21 C20 1_555 1_555
H22 C21 1_555 1_555
C22 C21 1_555 1_555
H23 C22 1_555 1_555
C23 C22 1_555 1_555
H24 C23 1_555 1_555
C24 C23 1_555 1_555
H25 C24 1_555 1_555
C25 C20 1_555 1_555
H26 C25 1_555 1_555
C26 C14 1_555 1_555
H27 C26 1_555 1_555
C27 C11 1_555 1_555
H28 C27 1_555 1_555
C28 C18 1_555 1_555
H29 C28 1_555 1_555
H30 C28 1_555 1_555
C29 C28 1_555 1_555
C30 C29 1_555 1_555
H31 C30 1_555 1_555
H32 C30 1_555 1_555
C31 O5 1_555 1_555
H33 C31 1_555 1_555
H34 C31 1_555 1_555
C15 C16 1_555 1_555
C17 C18 1_555 1_555
C24 C25 1_555 1_555
C26 C27 1_555 1_555
C29 C31 1_555 1_555

#END
