
#######################################################################
#
#                 Cambridge Crystallographic Data Centre
#                                CCDC 
#
#######################################################################
#
# If this CIF has been generated from an entry in the Cambridge 
# Structural Database, then it will include bibliographic, chemical, 
# crystal, experimental, refinement or atomic coordinate data resulting 
# from the CCDC's data processing and validation procedures.
#
#######################################################################

data_SUQFAM
_chemical_formula_moiety         
'C48 H48 N32 O16,2(C9 H6 O2),4(H2 O4 S1),12(H2 O1)'
_chemical_name_systematic        
'Cucurbit[8]uril bis(coumarin) clathrate sulfuric acid solvate dodecahydrate'
_symmetry_cell_setting           tetragonal
_symmetry_space_group_name_H-M   'I 41/a'
_symmetry_Int_Tables_number      88
_space_group_name_Hall           '-I 4ad'
loop_
_symmetry_equiv_pos_site_id
_symmetry_equiv_pos_as_xyz
1 x,y,z
2 1/2-x,-y,1/2+z
3 3/4-y,1/4+x,1/4+z
4 3/4+y,3/4-x,3/4+z
5 1/2+x,1/2+y,1/2+z
6 -x,1/2-y,z
7 1/4-y,3/4+x,3/4+z
8 1/4+y,1/4-x,1/4+z
9 -x,-y,-z
10 1/2+x,y,1/2-z
11 1/4+y,3/4-x,3/4-z
12 1/4-y,1/4+x,1/4-z
13 1/2-x,1/2-y,1/2-z
14 x,1/2+y,-z
15 3/4+y,1/4-x,1/4-z
16 3/4-y,3/4+x,3/4-z
_cell_length_a                   28.3633(9)
_cell_length_b                   28.3633(9)
_cell_length_c                   21.8616(16)
_cell_angle_alpha                90
_cell_angle_beta                 90
_cell_angle_gamma                90
_cell_volume                     17587.1
_cell_formula_units_Z            8
_exptl_crystal_preparation       photoluminescent
loop_
_atom_site_label
_atom_site_type_symbol
_atom_site_fract_x
_atom_site_fract_y
_atom_site_fract_z
O9 O 0.6683(3) 0.18534(18) 0.2584(2)
O10 O 0.5957(3) 0.2018(2) 0.2542(3)
C25 C 0.71859(17) 0.22949(15) 0.3254(2)
C26 C 0.76303(19) 0.23644(18) 0.3506(2)
H25 H 0.7677 0.2602 0.3807
C27 C 0.80071(17) 0.2086(2) 0.3319(3)
H26 H 0.8311 0.2134 0.3491
C28 C 0.7939(2) 0.17388(19) 0.2879(3)
H27 H 0.8197 0.1549 0.2751
C29 C 0.7495(2) 0.16693(16) 0.2627(2)
H28 H 0.7449 0.1432 0.2327
C30 C 0.71182(19) 0.19473(16) 0.2815(2)
C31 C 0.6334(3) 0.2188(3) 0.2660(3)
C32 C 0.6354(3) 0.2483(3) 0.3166(4)
H29 H 0.6076 0.2619 0.3333
C33 C 0.6786(3) 0.2573(3) 0.3417(3)
H30 H 0.6821 0.2823 0.3703
O11 O 0.5768(4) 0.2807(4) 0.4562(5)
H31 H 0.5519 0.3039 0.4629
H32 H 0.5807 0.2745 0.4125
O1 O 0.54895(9) 0.31140(8) 0.23215(12)
O2 O 0.69991(7) 0.42446(8) 0.09606(9)
O3 O 0.59780(8) 0.34887(8) 0.38006(10)
O4 O 0.75127(7) 0.45414(7) 0.24454(8)
O5 O 0.69123(7) 0.29419(7) 0.49066(9)
O6 O 0.84768(7) 0.40165(8) 0.35563(9)
O7 O 0.77500(7) 0.18471(7) 0.49832(9)
O8 O 0.93360(7) 0.29401(8) 0.37120(11)
N1 N 0.58280(9) 0.27226(9) 0.07224(12)
N2 N 0.64473(9) 0.31608(8) 0.01958(11)
N3 N 0.56891(9) 0.33990(9) 0.13722(12)
N4 N 0.62994(9) 0.38353(8) 0.08454(10)
N5 N 0.57717(8) 0.38701(9) 0.21743(11)
N6 N 0.63754(8) 0.43149(8) 0.16379(10)
N7 N 0.60987(9) 0.41083(9) 0.31468(11)
N8 N 0.67118(8) 0.45456(8) 0.26087(10)
N9 N 0.65668(8) 0.40335(9) 0.39520(11)
N10 N 0.71873(8) 0.44482(8) 0.34070(10)
N11 N 0.71483(8) 0.36884(8) 0.46191(11)
N12 N 0.77731(8) 0.41043(8) 0.40705(10)
N13 N 0.76840(8) 0.31851(8) 0.49784(11)
N14 N 0.83054(8) 0.36067(8) 0.44403(11)
N15 N 0.82076(8) 0.25158(8) 0.50388(11)
N16 N 0.88444(8) 0.29519(8) 0.45458(11)
C1 C 0.60564(10) 0.28351(10) 0.01458(14)
H1 H 0.5824 0.2938 -0.0171
C2 C 0.54819(11) 0.30230(11) 0.10094(16)
H2 H 0.5278 0.2828 0.1276
H3 H 0.5280 0.3164 0.0689
C3 C 0.58343(10) 0.38426(10) 0.11077(13)
H4 H 0.5595 0.3965 0.0812
C4 C 0.63923(12) 0.36634(10) 0.02308(13)
H5 H 0.6129 0.3759 -0.0039
H6 H 0.6683 0.3815 0.0075
C5 C 0.65985(10) 0.41413(10) 0.11332(13)
C6 C 0.58876(10) 0.41719(10) 0.16684(13)
H7 H 0.5670 0.4448 0.1643
C7 C 0.56335(11) 0.34305(11) 0.19848(15)
C8 C 0.56772(10) 0.40503(13) 0.27840(13)
H8 H 0.5516 0.4359 0.2749
H9 H 0.5461 0.3831 0.2997
C9 C 0.63870(10) 0.45304(10) 0.31202(12)
H10 H 0.6193 0.4824 0.3149
C10 C 0.65742(11) 0.46949(10) 0.20029(12)
H11 H 0.6853 0.4824 0.1789
H12 H 0.6339 0.4951 0.2039
C11 C 0.71706(10) 0.45142(9) 0.27812(12)
C12 C 0.67189(10) 0.44721(10) 0.36797(12)
H13 H 0.6690 0.4742 0.3972
C13 C 0.61934(10) 0.38406(11) 0.36441(13)
C14 C 0.66873(11) 0.38980(11) 0.45714(13)
H14 H 0.6674 0.4180 0.4837
H15 H 0.6450 0.3671 0.4723
C15 C 0.75750(10) 0.39701(10) 0.46549(12)
H16 H 0.7533 0.4249 0.4930
C16 C 0.76119(10) 0.45232(10) 0.37477(13)
H17 H 0.7558 0.4779 0.4048
H18 H 0.7863 0.4629 0.3464
C17 C 0.82098(10) 0.39193(10) 0.39782(13)
C18 C 0.79449(10) 0.36246(10) 0.49078(12)
H19 H 0.8076 0.3736 0.5307
C19 C 0.72170(10) 0.32444(10) 0.48417(12)
C20 C 0.78548(11) 0.28041(10) 0.53468(14)
H20 H 0.7586 0.2601 0.5465
H21 H 0.7993 0.2934 0.5726
C21 C 0.87036(11) 0.26364(10) 0.50293(14)
H22 H 0.8813 0.2752 0.5438
C22 C 0.87774(10) 0.34584(10) 0.45797(15)
H23 H 0.8859 0.3566 0.4997
H24 H 0.8997 0.3613 0.4291
C23 C 0.91336(10) 0.27458(11) 0.41360(14)
C24 C 0.81318(11) 0.20494(10) 0.49398(12)
O1L O 0.95105(9) 0.18860(8) 0.26785(12)
O2L O 0.80009(7) 0.07554(8) 0.40394(9)
O3L O 0.90220(8) 0.15113(8) 0.11994(10)
O4L O 0.74873(7) 0.04586(7) 0.25546(8)
O5L O 0.80877(7) 0.20581(7) 0.00934(9)
O6L O 0.65232(7) 0.09835(8) 0.14437(9)
O7L O 0.72500(7) 0.31529(7) 0.00168(9)
O8L O 0.56640(7) 0.20599(8) 0.12880(11)
N1L N 0.91720(9) 0.22774(9) 0.42776(12)
N2L N 0.85527(9) 0.18392(8) 0.48042(11)
N3L N 0.93109(9) 0.16010(9) 0.36278(12)
N4L N 0.87006(9) 0.11647(8) 0.41546(10)
N5L N 0.92283(8) 0.11299(9) 0.28257(11)
N6L N 0.86246(8) 0.06851(8) 0.33621(10)
N7L N 0.89013(9) 0.08917(9) 0.18532(11)
N8L N 0.82882(8) 0.04544(8) 0.23913(10)
N9L N 0.84332(8) 0.09665(9) 0.10480(11)
N10L N 0.78127(8) 0.05518(8) 0.15930(10)
N11L N 0.78517(8) 0.13116(8) 0.03809(11)
N12L N 0.72269(8) 0.08957(8) 0.09295(10)
N13L N 0.73160(8) 0.18149(8) 0.00216(11)
N14L N 0.66946(8) 0.13933(8) 0.05597(11)
N15L N 0.67924(8) 0.24842(8) -0.00388(11)
N16L N 0.61556(8) 0.20481(8) 0.04542(11)
C1L C 0.89436(10) 0.21649(10) 0.48542(14)
H1L H 0.9176 0.2062 0.5171
C2L C 0.95181(11) 0.19770(11) 0.39906(16)
H2L H 0.9722 0.2172 0.3724
H3L H 0.9720 0.1836 0.4311
C3L C 0.91657(10) 0.11574(10) 0.38923(13)
H4L H 0.9405 0.1035 0.4188
C4L C 0.86077(12) 0.13366(10) 0.47692(13)
H5L H 0.8871 0.1241 0.5039
H6L H 0.8317 0.1185 0.4925
C5L C 0.84015(10) 0.08587(10) 0.38668(13)
C6L C 0.91124(10) 0.08281(10) 0.33316(13)
H7L H 0.9330 0.0552 0.3357
C7L C 0.93665(11) 0.15695(11) 0.30152(15)
C8L C 0.93228(10) 0.09497(13) 0.22160(13)
H8L H 0.9484 0.0641 0.2251
H9L H 0.9539 0.1169 0.2003
C9L C 0.86130(10) 0.04696(10) 0.18798(12)
H10L H 0.8807 0.0176 0.1851
C10L C 0.84258(11) 0.03051(10) 0.29971(12)
H11L H 0.8147 0.0176 0.3211
H12L H 0.8661 0.0049 0.2961
C11L C 0.78294(10) 0.04858(9) 0.22188(12)
C12L C 0.82811(10) 0.05279(10) 0.13203(12)
H13L H 0.8310 0.0258 0.1028
C13L C 0.88066(10) 0.11594(11) 0.13559(13)
C14L C 0.83127(11) 0.11020(11) 0.04286(13)
H14L H 0.8326 0.0820 0.0163
H15L H 0.8550 0.1329 0.0277
C15L C 0.74250(10) 0.10299(10) 0.03451(12)
H16L H 0.7467 0.0751 0.0070
C16L C 0.73881(10) 0.04768(10) 0.12523(13)
H17L H 0.7442 0.0221 0.0952
H18L H 0.7137 0.0371 0.1536
C17L C 0.67902(10) 0.10807(10) 0.10218(13)
C18L C 0.70551(10) 0.13754(10) 0.00922(12)
H19L H 0.6924 0.1264 -0.0307
C19L C 0.77830(10) 0.17556(10) 0.01583(12)
C20L C 0.71452(11) 0.21959(10) -0.03468(14)
H20L H 0.7414 0.2399 -0.0465
H21L H 0.7007 0.2066 -0.0726
C21L C 0.62964(11) 0.23636(10) -0.00293(14)
H22L H 0.6187 0.2248 -0.0438
C22L C 0.62226(10) 0.15416(10) 0.04203(15)
H23L H 0.6141 0.1434 0.0003
H24L H 0.6003 0.1387 0.0709
C23L C 0.58664(10) 0.22542(11) 0.08640(14)
C24L C 0.68682(11) 0.29506(10) 0.00602(12)
C34? C 0.7141(2) 0.19232(18) 0.2536(3)
C35? C 0.7534(2) 0.1723(2) 0.2258(3)
C36? C 0.7958(2) 0.1692(2) 0.2575(3)
C37? C 0.7989(2) 0.1862(3) 0.3171(3)
C38? C 0.7596(3) 0.2062(3) 0.3449(2)
C39? C 0.7173(2) 0.2093(2) 0.3131(3)
C40? C 0.64065(15) 0.2424(3) 0.3069(3)
C41? C 0.6314(4) 0.2157(4) 0.2548(5)
C42? C 0.6700(4) 0.1969(3) 0.2234(4)
H33? H 0.7513 0.1607 0.1852
H34? H 0.8226 0.1555 0.2386
H35? H 0.8278 0.1841 0.3387
H36? H 0.7617 0.2178 0.3855
H37? H 0.6000 0.2103 0.2412
H38? H 0.6668 0.1873 0.1820
O12? O 0.6800(3) 0.22965(19) 0.3406(3)
O13? O 0.60632(7) 0.25106(18) 0.33856(19)
loop_
_geom_bond_atom_site_label_1
_geom_bond_atom_site_label_2
_geom_bond_site_symmetry_1
_geom_bond_site_symmetry_2
O1 C7 1_555 1_555
O2 C5 1_555 1_555
O3 C13 1_555 1_555
O4 C11 1_555 1_555
O5 C19 1_555 1_555
O6 C17 1_555 1_555
O7 C24 1_555 1_555
O8 C23 1_555 1_555
N1 C1 1_555 1_555
N2 C1 1_555 1_555
N3 C2 1_555 1_555
N4 C3 1_555 1_555
N5 C6 1_555 1_555
N6 C5 1_555 1_555
N7 C8 1_555 1_555
N8 C9 1_555 1_555
N9 C12 1_555 1_555
N10 C11 1_555 1_555
N11 C14 1_555 1_555
N12 C15 1_555 1_555
N13 C18 1_555 1_555
N14 C17 1_555 1_555
N15 C20 1_555 1_555
N16 C21 1_555 1_555
C1 H1 1_555 1_555
C2 N1 1_555 1_555
H2 C2 1_555 1_555
H3 C2 1_555 1_555
C3 N3 1_555 1_555
H4 C3 1_555 1_555
C4 N2 1_555 1_555
H5 C4 1_555 1_555
H6 C4 1_555 1_555
C5 N4 1_555 1_555
C6 N6 1_555 1_555
H7 C6 1_555 1_555
C7 N3 1_555 1_555
C8 N5 1_555 1_555
H8 C8 1_555 1_555
H9 C8 1_555 1_555
C9 N7 1_555 1_555
H10 C9 1_555 1_555
C10 N6 1_555 1_555
H11 C10 1_555 1_555
H12 C10 1_555 1_555
C11 N8 1_555 1_555
C12 N10 1_555 1_555
H13 C12 1_555 1_555
C13 N7 1_555 1_555
C14 N9 1_555 1_555
H14 C14 1_555 1_555
H15 C14 1_555 1_555
C15 N11 1_555 1_555
H16 C15 1_555 1_555
C16 N10 1_555 1_555
H17 C16 1_555 1_555
H18 C16 1_555 1_555
C17 N12 1_555 1_555
C18 N14 1_555 1_555
H19 C18 1_555 1_555
C19 N11 1_555 1_555
C20 N13 1_555 1_555
H20 C20 1_555 1_555
H21 C20 1_555 1_555
C21 N15 1_555 1_555
H22 C21 1_555 1_555
C22 N14 1_555 1_555
H23 C22 1_555 1_555
H24 C22 1_555 1_555
C23 N16 1_555 1_555
C24 N15 1_555 1_555
O9 C30 1_555 1_555
O10 C31 1_555 1_555
C25 C26 1_555 1_555
C26 H25 1_555 1_555
C27 C26 1_555 1_555
H26 C27 1_555 1_555
C28 C27 1_555 1_555
H27 C28 1_555 1_555
C29 C28 1_555 1_555
H28 C29 1_555 1_555
C30 C25 1_555 1_555
C31 O9 1_555 1_555
C32 C31 1_555 1_555
H29 C32 1_555 1_555
C33 C25 1_555 1_555
H30 C33 1_555 1_555
O11 H31 1_555 1_555
H32 O11 1_555 1_555
O1L C7L 1_555 1_555
O2L C5L 1_555 1_555
O3L C13L 1_555 1_555
O4L C11L 1_555 1_555
O5L C19L 1_555 1_555
O6L C17L 1_555 1_555
O7L C24L 1_555 1_555
O8L C23L 1_555 1_555
N1L C23 1_555 1_555
N2L C24 1_555 1_555
N3L C2L 1_555 1_555
N4L C3L 1_555 1_555
N5L C6L 1_555 1_555
N6L C5L 1_555 1_555
N7L C8L 1_555 1_555
N8L C9L 1_555 1_555
N9L C12L 1_555 1_555
N10L C11L 1_555 1_555
N11L C14L 1_555 1_555
N12L C15L 1_555 1_555
N13L C18L 1_555 1_555
N14L C17L 1_555 1_555
N15L C20L 1_555 1_555
N16L C21L 1_555 1_555
C1L C21 1_555 1_555
H1L C1L 1_555 1_555
C2L N1L 1_555 1_555
H2L C2L 1_555 1_555
H3L C2L 1_555 1_555
C3L N3L 1_555 1_555
H4L C3L 1_555 1_555
C4L N2L 1_555 1_555
H5L C4L 1_555 1_555
H6L C4L 1_555 1_555
C5L N4L 1_555 1_555
C6L N6L 1_555 1_555
H7L C6L 1_555 1_555
C7L N3L 1_555 1_555
C8L N5L 1_555 1_555
H8L C8L 1_555 1_555
H9L C8L 1_555 1_555
C9L N7L 1_555 1_555
H10L C9L 1_555 1_555
C10L N6L 1_555 1_555
H11L C10L 1_555 1_555
H12L C10L 1_555 1_555
C11L N8L 1_555 1_555
C12L N10L 1_555 1_555
H13L C12L 1_555 1_555
C13L N7L 1_555 1_555
C14L N9L 1_555 1_555
H14L C14L 1_555 1_555
H15L C14L 1_555 1_555
C15L N11L 1_555 1_555
H16L C15L 1_555 1_555
C16L N10L 1_555 1_555
H17L C16L 1_555 1_555
H18L C16L 1_555 1_555
C17L N12L 1_555 1_555
C18L N14L 1_555 1_555
H19L C18L 1_555 1_555
C19L N11L 1_555 1_555
C20L N13L 1_555 1_555
H20L C20L 1_555 1_555
H21L C20L 1_555 1_555
C21L C1 1_555 1_555
H22L C21L 1_555 1_555
C22L N14L 1_555 1_555
H23L C22L 1_555 1_555
H24L C22L 1_555 1_555
C23L N1 1_555 1_555
C24L N2 1_555 1_555
N4 C4 1_555 1_555
N5 C7 1_555 1_555
N8 C10 1_555 1_555
N9 C13 1_555 1_555
N12 C16 1_555 1_555
N13 C19 1_555 1_555
N16 C22 1_555 1_555
C3 C6 1_555 1_555
C9 C12 1_555 1_555
C15 C18 1_555 1_555
C29 C30 1_555 1_555
C32 C33 1_555 1_555
N1L C1L 1_555 1_555
N2L C1L 1_555 1_555
N4L C4L 1_555 1_555
N5L C7L 1_555 1_555
N8L C10L 1_555 1_555
N9L C13L 1_555 1_555
N12L C16L 1_555 1_555
N13L C19L 1_555 1_555
N15L C21L 1_555 1_555
N15L C24L 1_555 1_555
N16L C22L 1_555 1_555
N16L C23L 1_555 1_555
C3L C6L 1_555 1_555
C9L C12L 1_555 1_555
C15L C18L 1_555 1_555

#END
