
#######################################################################
#
#                 Cambridge Crystallographic Data Centre
#                                CCDC 
#
#######################################################################
#
# If this CIF has been generated from an entry in the Cambridge 
# Structural Database, then it will include bibliographic, chemical, 
# crystal, experimental, refinement or atomic coordinate data resulting 
# from the CCDC's data processing and validation procedures.
#
#######################################################################

data_SUQMUN
_chemical_formula_moiety         'C24 H30 N2 O4'
_chemical_name_systematic        
(5S,6R)-4-Benzyl-3-((2S,3S)-(3-hydroxy-2,4-dimethylpentanoyl))-5-methyl-6-phenyl-2H-1,3,4-oxadiazinan-2-one
_symmetry_cell_setting           monoclinic
_symmetry_space_group_name_H-M   'P 21'
_symmetry_Int_Tables_number      4
_space_group_name_Hall           'P 2yb'
loop_
_symmetry_equiv_pos_site_id
_symmetry_equiv_pos_as_xyz
1 x,y,z
2 -x,1/2+y,-z
_cell_length_a                   10.032(2)
_cell_length_b                   10.860(5)
_cell_length_c                   20.964(5)
_cell_angle_alpha                90
_cell_angle_beta                 93.09(2)
_cell_angle_gamma                90
_cell_volume                     2280.66
_exptl_crystal_colour            colorless
_exptl_crystal_description       block
_chemical_melting_point          '145-147 deg.C'
_cell_formula_units_Z            4
_exptl_crystal_recrystallization_method dichloromethane/hexane
loop_
_atom_site_label
_atom_site_type_symbol
_atom_site_fract_x
_atom_site_fract_y
_atom_site_fract_z
C1 C 0.1659(3) 0.6638(3) 1.02535(15)
C2 C 0.0508(3) 0.4286(3) 1.03899(15)
H1 H -0.0094 0.3606 1.0268
C3 C -0.0346(3) 0.5421(3) 1.05103(14)
H2 H -0.108 0.5429 1.0183
C4 C 0.3588(3) 0.5250(3) 1.00500(15)
C5 C 0.4624(3) 0.6260(3) 1.01739(16)
H3 H 0.4266 0.7052 1.002
C6 C 0.4916(4) 0.6315(6) 1.0891(2)
H4 H 0.5567 0.6944 1.099
H5 H 0.5256 0.5534 1.104
H6 H 0.4109 0.6501 1.1098
C7 C 0.5860(3) 0.5913(3) 0.98069(17)
H7 H 0.6134 0.5086 0.9948
C8 C 0.5579(3) 0.5851(4) 0.90861(18)
H8 H 0.4875 0.5235 0.9007
C9 C 0.5066(4) 0.7054(5) 0.8791(2)
H9 H 0.4289 0.7317 0.9001
H10 H 0.4838 0.693 0.8345
H11 H 0.5748 0.7672 0.8839
C10 C 0.6797(4) 0.5398(5) 0.8752(2)
H12 H 0.7102 0.4637 0.8941
H13 H 0.7494 0.6002 0.8796
H14 H 0.6562 0.527 0.8307
C11 C 0.0564(3) 0.4823(4) 0.92511(16)
H15 H 0.0088 0.5591 0.9302
H16 H -0.0093 0.4178 0.917
C12 C 0.1418(4) 0.4928(4) 0.86805(17)
C13 C 0.1274(5) 0.5944(5) 0.8282(2)
H17 H 0.0707 0.6581 0.8387
C14 C 0.1968(8) 0.6022(7) 0.7725(3)
H18 H 0.1831 0.6688 0.7451
C15 C 0.2836(7) 0.5132(8) 0.7586(3)
H19 H 0.3322 0.5199 0.7222
C16 C 0.3011(6) 0.4125(8) 0.7976(3)
H20 H 0.3607 0.3509 0.7874
C17 C 0.2285(4) 0.4025(5) 0.8534(2)
H21 H 0.2401 0.3343 0.88
C18 C 0.1381(3) 0.3876(4) 1.09618(17)
H22 H 0.1883 0.3163 1.085
H23 H 0.0831 0.3678 1.1308
H24 H 0.1983 0.4529 1.109
C19 C -0.0954(3) 0.5410(3) 1.11505(15)
C20 C -0.0558(4) 0.6204(4) 1.16310(19)
H25 H 0.0097 0.6788 1.1563
C21 C -0.1127(6) 0.6145(5) 1.2217(2)
H26 H -0.0862 0.6698 1.2538
C22 C -0.2068(5) 0.5285(5) 1.2327(2)
H27 H -0.244 0.5246 1.2723
C23 C -0.2476(4) 0.4467(5) 1.1851(2)
H28 H -0.3113 0.387 1.1927
C24 C -0.1927(3) 0.4543(4) 1.12599(18)
H29 H -0.2214 0.4009 1.0934
N1 N 0.2208(2) 0.5555(2) 1.00097(12)
N2 N 0.1339(2) 0.4546(3) 0.98460(12)
O1 O 0.0410(2) 0.6544(2) 1.04398(12)
O2 O 0.2206(2) 0.7603(2) 1.02858(15)
O3 O 0.3913(2) 0.4198(2) 0.99893(14)
O4 O 0.6945(2) 0.6725(2) 0.99747(14)
H30 H 0.6667 0.7433 0.9993
C25 C 0.1634(3) 0.4333(3) 0.53178(18)
C26 C 0.0444(3) 0.2012(3) 0.54771(16)
H31 H -0.0184 0.1346 0.5365
C27 C -0.0374(3) 0.3155(4) 0.56245(17)
H32 H -0.1119 0.3201 0.5303
C28 C 0.3503(3) 0.2936(3) 0.50526(15)
C29 C 0.4559(3) 0.3922(3) 0.51534(17)
H33 H 0.4199 0.4713 0.4999
C30 C 0.4905(4) 0.4009(5) 0.5867(2)
H34 H 0.5569 0.4635 0.5946
H35 H 0.5246 0.3232 0.602
H36 H 0.4118 0.4216 0.6085
C31 C 0.5761(3) 0.3572(3) 0.47722(17)
H37 H 0.6016 0.2734 0.4902
C32 C 0.5437(4) 0.3535(4) 0.40520(19)
H38 H 0.4681 0.2973 0.3973
C33 C 0.5041(5) 0.4777(5) 0.3770(2)
H39 H 0.4841 0.4691 0.3319
H40 H 0.5764 0.5348 0.3842
H41 H 0.4267 0.5078 0.397
C34 C 0.6620(5) 0.3019(5) 0.3702(2)
H42 H 0.6864 0.2228 0.3876
H43 H 0.7365 0.3571 0.3757
H44 H 0.6372 0.2937 0.3256
C35 C 0.0386(4) 0.2551(5) 0.43344(18)
H45 H -0.0064 0.333 0.4394
H46 H -0.0291 0.1919 0.4269
C36 C 0.1190(4) 0.2631(4) 0.37492(17)
C37 C 0.1043(6) 0.3643(5) 0.3353(2)
H47 H 0.0483 0.4284 0.3461
C38 C 0.1726(8) 0.3711(6) 0.2793(2)
H48 H 0.161 0.4386 0.2523
C39 C 0.2563(7) 0.2784(7) 0.2646(3)
H49 H 0.3022 0.283 0.2273
C40 C 0.2743(6) 0.1775(6) 0.3040(3)
H50 H 0.3327 0.1149 0.2937
C41 C 0.2040(5) 0.1705(5) 0.3592(2)
H51 H 0.2147 0.1022 0.3858
C42 C 0.1364(3) 0.1564(4) 0.60262(16)
H52 H 0.1832 0.0843 0.5896
H53 H 0.0846 0.1367 0.6385
H54 H 0.1995 0.2199 0.6145
C43 C -0.0960(3) 0.3135(4) 0.62724(18)
C44 C -0.0541(4) 0.3886(5) 0.6772(2)
H55 H 0.0139 0.4453 0.6718
C45 C -0.1125(6) 0.3802(5) 0.7356(2)
H56 H -0.0834 0.4314 0.7691
C46 C -0.2124(5) 0.2975(5) 0.7442(2)
H57 H -0.2518 0.2927 0.7832
C47 C -0.2540(5) 0.2221(6) 0.6951(2)
H58 H -0.3208 0.1645 0.7013
C48 C -0.1980(4) 0.2300(5) 0.6358(2)
H59 H -0.2288 0.1796 0.6023
N3 N 0.2125(2) 0.3260(3) 0.50623(13)
N4 N 0.1218(3) 0.2262(3) 0.49141(12)
O5 O 0.0423(2) 0.4259(2) 0.55640(14)
O6 O 0.2185(3) 0.5295(3) 0.53264(17)
O7 O 0.3794(2) 0.1870(2) 0.49787(14)
O8 O 0.6883(2) 0.4340(2) 0.49313(14)
H60 H 0.6637 0.5057 0.4955
loop_
_geom_bond_atom_site_label_1
_geom_bond_atom_site_label_2
_geom_bond_site_symmetry_1
_geom_bond_site_symmetry_2
C1 N1 1_555 1_555
C2 H1 1_555 1_555
C3 C2 1_555 1_555
H2 C3 1_555 1_555
C4 C5 1_555 1_555
C5 H3 1_555 1_555
C6 C5 1_555 1_555
H4 C6 1_555 1_555
H5 C6 1_555 1_555
H6 C6 1_555 1_555
C7 C5 1_555 1_555
H7 C7 1_555 1_555
C8 C7 1_555 1_555
H8 C8 1_555 1_555
C9 C8 1_555 1_555
H9 C9 1_555 1_555
H10 C9 1_555 1_555
H11 C9 1_555 1_555
C10 C8 1_555 1_555
H12 C10 1_555 1_555
H13 C10 1_555 1_555
H14 C10 1_555 1_555
C11 H15 1_555 1_555
H16 C11 1_555 1_555
C12 C11 1_555 1_555
C13 C12 1_555 1_555
H17 C13 1_555 1_555
C14 C13 1_555 1_555
H18 C14 1_555 1_555
C15 C14 1_555 1_555
H19 C15 1_555 1_555
C16 C15 1_555 1_555
H20 C16 1_555 1_555
C17 C12 1_555 1_555
H21 C17 1_555 1_555
C18 C2 1_555 1_555
H22 C18 1_555 1_555
H23 C18 1_555 1_555
H24 C18 1_555 1_555
C19 C3 1_555 1_555
C20 C19 1_555 1_555
H25 C20 1_555 1_555
C21 C20 1_555 1_555
H26 C21 1_555 1_555
C22 C21 1_555 1_555
H27 C22 1_555 1_555
C23 C22 1_555 1_555
H28 C23 1_555 1_555
C24 C19 1_555 1_555
H29 C24 1_555 1_555
N1 C4 1_555 1_555
N2 C2 1_555 1_555
O1 C1 1_555 1_555
O2 C1 1_555 1_555
O3 C4 1_555 1_555
O4 C7 1_555 1_555
H30 O4 1_555 1_555
C25 N3 1_555 1_555
C26 H31 1_555 1_555
C27 C26 1_555 1_555
H32 C27 1_555 1_555
C28 C29 1_555 1_555
C29 H33 1_555 1_555
C30 C29 1_555 1_555
H34 C30 1_555 1_555
H35 C30 1_555 1_555
H36 C30 1_555 1_555
C31 C29 1_555 1_555
H37 C31 1_555 1_555
C32 C31 1_555 1_555
H38 C32 1_555 1_555
C33 C32 1_555 1_555
H39 C33 1_555 1_555
H40 C33 1_555 1_555
H41 C33 1_555 1_555
C34 C32 1_555 1_555
H42 C34 1_555 1_555
H43 C34 1_555 1_555
H44 C34 1_555 1_555
C35 H45 1_555 1_555
H46 C35 1_555 1_555
C36 C35 1_555 1_555
C37 C36 1_555 1_555
H47 C37 1_555 1_555
C38 C37 1_555 1_555
H48 C38 1_555 1_555
C39 C38 1_555 1_555
H49 C39 1_555 1_555
C40 C39 1_555 1_555
H50 C40 1_555 1_555
C41 C36 1_555 1_555
H51 C41 1_555 1_555
C42 C26 1_555 1_555
H52 C42 1_555 1_555
H53 C42 1_555 1_555
H54 C42 1_555 1_555
C43 C27 1_555 1_555
C44 C43 1_555 1_555
H55 C44 1_555 1_555
C45 C44 1_555 1_555
H56 C45 1_555 1_555
C46 C45 1_555 1_555
H57 C46 1_555 1_555
C47 C46 1_555 1_555
H58 C47 1_555 1_555
C48 C43 1_555 1_555
H59 C48 1_555 1_555
N3 C28 1_555 1_555
N4 C26 1_555 1_555
O5 C25 1_555 1_555
O6 C25 1_555 1_555
O7 C28 1_555 1_555
O8 C31 1_555 1_555
H60 O8 1_555 1_555
C3 O1 1_555 1_555
C11 N2 1_555 1_555
C16 C17 1_555 1_555
C23 C24 1_555 1_555
N1 N2 1_555 1_555
C27 O5 1_555 1_555
C35 N4 1_555 1_555
C40 C41 1_555 1_555
C47 C48 1_555 1_555
N3 N4 1_555 1_555

#END
