
#######################################################################
#
#                 Cambridge Crystallographic Data Centre
#                                CCDC 
#
#######################################################################
#
# If this CIF has been generated from an entry in the Cambridge 
# Structural Database, then it will include bibliographic, chemical, 
# crystal, experimental, refinement or atomic coordinate data resulting 
# from the CCDC's data processing and validation procedures.
#
#######################################################################

data_SUQRIG
_chemical_formula_moiety         'C74 H16 F30 N8,3(C7 H8),H2 O1'
_chemical_name_systematic        
"(Tetrahydro-2,2':18,18'-bis(5,10,15-tris(pentafluorophenyl)corrole)) toluene solvate monohydrate"
_symmetry_cell_setting           monoclinic
_symmetry_space_group_name_H-M   'C 2/c'
_symmetry_Int_Tables_number      15
_space_group_name_Hall           '-C 2yn'
loop_
_symmetry_equiv_pos_site_id
_symmetry_equiv_pos_as_xyz
1 x,y,z
2 -x,y,1/2-z
3 1/2+x,1/2+y,z
4 1/2-x,1/2+y,1/2-z
5 -x,-y,-z
6 x,-y,1/2+z
7 1/2-x,1/2-y,-z
8 1/2+x,1/2-y,1/2+z
_cell_length_a                   28.63(3)
_cell_length_b                   6.521(7)
_cell_length_c                   40.62(4)
_cell_angle_alpha                90
_cell_angle_beta                 92.241(18)
_cell_angle_gamma                90
_cell_volume                     7577.8
_exptl_crystal_colour            brown
_exptl_crystal_description       prism
_cell_formula_units_Z            4
loop_
_atom_site_label
_atom_site_type_symbol
_atom_site_fract_x
_atom_site_fract_y
_atom_site_fract_z
C1 C 0.4584(2) 0.6065(11) 0.71502(15)
C2 C 0.4326(2) 0.6075(11) 0.74478(16)
C3 C 0.3856(2) 0.6012(11) 0.73426(16)
H1 H 0.3596 0.5983 0.7481
C4 C 0.3834(2) 0.6001(11) 0.70008(16)
C5 C 0.3456(2) 0.5942(11) 0.67692(17)
C6 C 0.3510(2) 0.5973(11) 0.64289(17)
C7 C 0.3156(2) 0.6005(12) 0.61723(18)
H2 H 0.2829 0.5940 0.6202
C8 C 0.3362(2) 0.6142(13) 0.58826(19)
H3 H 0.3209 0.6230 0.5671
C9 C 0.3863(2) 0.6130(12) 0.59516(17)
C10 C 0.4205(2) 0.6302(12) 0.57215(18)
C11 C 0.4691(2) 0.6302(12) 0.57948(18)
C12 C 0.5054(2) 0.6295(13) 0.55544(19)
H4 H 0.5008 0.6312 0.5322
C13 C 0.5461(2) 0.6259(14) 0.57213(18)
H5 H 0.5760 0.6232 0.5629
C14 C 0.5369(2) 0.6267(11) 0.60674(17)
C15 C 0.5689(2) 0.6203(11) 0.63255(16)
C16 C 0.5561(2) 0.6160(10) 0.66622(16)
C17 C 0.5826(2) 0.6161(10) 0.69551(16)
H6 H 0.6158 0.6184 0.6976
C18 C 0.4480(2) 0.6121(11) 0.77873(16)
C19 C 0.5058(2) 0.6131(11) 0.70590(16)
C20 C 0.2972(2) 0.5919(12) 0.68898(17)
C21 C 0.2788(2) 0.7505(12) 0.70617(19)
C22 C 0.2346(3) 0.7496(15) 0.7172(2)
C23 C 0.2071(2) 0.5804(17) 0.7110(2)
C24 C 0.2241(2) 0.4216(14) 0.69515(19)
C25 C 0.2685(2) 0.4268(13) 0.68430(19)
C26 C 0.4051(2) 0.6502(13) 0.53724(18)
C27 C 0.4138(2) 0.8213(14) 0.5191(2)
C28 C 0.4005(3) 0.8471(14) 0.4872(2)
C29 C 0.3768(3) 0.6953(17) 0.47139(18)
C30 C 0.3666(3) 0.5211(14) 0.48750(19)
C31 C 0.3809(2) 0.4966(15) 0.51956(19)
C32 C 0.6193(2) 0.6102(13) 0.62633(16)
C33 C 0.6425(3) 0.7663(16) 0.61147(18)
C34 C 0.6895(3) 0.754(2) 0.60484(19)
C35 C 0.7137(3) 0.581(2) 0.6138(2)
C36 C 0.6919(3) 0.4249(18) 0.6292(2)
C37 C 0.6450(3) 0.4384(16) 0.63505(19)
F1 F 0.30481(15) 0.9194(7) 0.71201(12)
F2 F 0.21795(16) 0.9108(8) 0.73337(13)
F3 F 0.16318(14) 0.5800(9) 0.72177(12)
F4 F 0.19711(15) 0.2565(9) 0.68900(12)
F5 F 0.28350(14) 0.2619(7) 0.66775(11)
F6 F 0.43708(16) 0.9759(8) 0.53401(12)
F7 F 0.40996(18) 1.0206(8) 0.47125(12)
F8 F 0.36205(16) 0.7136(9) 0.43938(10)
F9 F 0.34304(16) 0.3673(8) 0.47183(11)
F10 F 0.37111(16) 0.3214(7) 0.53499(10)
F11 F 0.62016(16) 0.9369(8) 0.60276(11)
F12 F 0.71042(18) 0.9038(12) 0.58996(13)
F13 F 0.75847(14) 0.5659(13) 0.60747(12)
F14 F 0.71503(19) 0.2565(12) 0.63759(14)
F15 F 0.62546(18) 0.2830(8) 0.64969(13)
N1 N 0.42802(17) 0.6036(9) 0.68917(13)
N2 N 0.39294(18) 0.6012(9) 0.62791(14)
H7 H 0.4205 0.5967 0.6383
N3 N 0.48884(17) 0.6262(9) 0.60954(14)
N4 N 0.51072(17) 0.6152(8) 0.67343(13)
H8 H 0.4874 0.6160 0.6587
C1A C 0.5416(2) 0.6065(11) 0.78498(15)
C2A C 0.5674(2) 0.6075(11) 0.75522(16)
C3A C 0.6144(2) 0.6012(11) 0.76574(16)
H1A H 0.6404 0.5983 0.7519
C4A C 0.6166(2) 0.6001(11) 0.79992(16)
C5A C 0.6544(2) 0.5942(11) 0.82308(17)
C6A C 0.6490(2) 0.5973(11) 0.85711(17)
C7A C 0.6844(2) 0.6005(12) 0.88277(18)
H2A H 0.7171 0.5940 0.8798
C8A C 0.6638(2) 0.6142(13) 0.91174(19)
H3A H 0.6791 0.6230 0.9329
C9A C 0.6137(2) 0.6130(12) 0.90484(17)
C10A C 0.5795(2) 0.6302(12) 0.92785(18)
C11A C 0.5309(2) 0.6302(12) 0.92052(18)
C12A C 0.4946(2) 0.6295(13) 0.94456(19)
H4A H 0.4992 0.6312 0.9678
C13A C 0.4539(2) 0.6259(14) 0.92787(18)
H5A H 0.4240 0.6232 0.9371
C14A C 0.4631(2) 0.6267(11) 0.89326(17)
C15A C 0.4311(2) 0.6203(11) 0.86745(16)
C16A C 0.4439(2) 0.6160(10) 0.83378(16)
C17A C 0.4174(2) 0.6161(10) 0.80449(16)
H6A H 0.3842 0.6184 0.8024
C18A C 0.5520(2) 0.6121(11) 0.72127(16)
C19A C 0.4942(2) 0.6131(11) 0.79410(16)
C20A C 0.7028(2) 0.5919(12) 0.81102(17)
C21A C 0.7212(2) 0.7505(12) 0.79383(19)
C22A C 0.7654(3) 0.7496(15) 0.7828(2)
C23A C 0.7929(2) 0.5804(17) 0.7890(2)
C24A C 0.7759(2) 0.4216(14) 0.80485(19)
C25A C 0.7315(2) 0.4268(13) 0.81570(19)
C26A C 0.5949(2) 0.6502(13) 0.96276(18)
C27A C 0.5862(2) 0.8213(14) 0.9809(2)
C28A C 0.5995(3) 0.8471(14) 1.0128(2)
C29A C 0.6232(3) 0.6953(17) 1.02861(18)
C30A C 0.6334(3) 0.5211(14) 1.01250(19)
C31A C 0.6191(2) 0.4966(15) 0.98044(19)
C32A C 0.3807(2) 0.6102(13) 0.87367(16)
C33A C 0.3575(3) 0.7663(16) 0.88853(18)
C34A C 0.3105(3) 0.754(2) 0.89516(19)
C35A C 0.2863(3) 0.581(2) 0.8862(2)
C36A C 0.3081(3) 0.4249(18) 0.8708(2)
C37A C 0.3550(3) 0.4384(16) 0.86495(19)
F1A F 0.69519(15) 0.9194(7) 0.78799(12)
F2A F 0.78205(16) 0.9108(8) 0.76663(13)
F3A F 0.83682(14) 0.5800(9) 0.77823(12)
F4A F 0.80289(15) 0.2565(9) 0.81100(12)
F5A F 0.71650(14) 0.2619(7) 0.83225(11)
F6A F 0.56292(16) 0.9759(8) 0.96599(12)
F7A F 0.59004(18) 1.0206(8) 1.02875(12)
F8A F 0.63795(16) 0.7136(9) 1.06062(10)
F9A F 0.65696(16) 0.3673(8) 1.02817(11)
F10A F 0.62889(16) 0.3214(7) 0.96501(10)
F11A F 0.37984(16) 0.9369(8) 0.89724(11)
F12A F 0.28958(18) 0.9038(12) 0.91004(13)
F13A F 0.24153(14) 0.5659(13) 0.89253(12)
F14A F 0.28497(19) 0.2565(12) 0.86241(14)
F15A F 0.37454(18) 0.2830(8) 0.85031(13)
N1A N 0.57198(17) 0.6036(9) 0.81083(13)
N2A N 0.60706(18) 0.6012(9) 0.87209(14)
H7A H 0.5795 0.5967 0.8617
N3A N 0.51116(17) 0.6262(9) 0.89046(14)
N4A N 0.48928(17) 0.6152(8) 0.82657(13)
H8A H 0.5126 0.6160 0.8413
O1 O 0.4784(6) 0.111(3) 0.7527(5)
C42 C 0.4327(11) 0.110(4) 0.6391(9)
C43 C 0.4784(14) 0.116(5) 0.6289(6)
C44 C 0.5154(9) 0.118(4) 0.6521(9)
C45 C 0.5066(11) 0.114(3) 0.6855(8)
C46 C 0.4608(14) 0.109(4) 0.6957(6)
C47 C 0.4239(9) 0.106(4) 0.6725(10)
C48 C 0.4374(14) 0.090(5) 0.7281(7)
C38? C 0.2573(3) 0.260(3) -0.0338(4)
C39? C 0.2726(4) 0.095(3) -0.0167(4)
C40? C 0.2657(3) 0.088(2) 0.0174(3)
C41? C 0.2809(6) -0.061(3) 0.0324(5)
C49? C 0.5578(8) 0.103(3) 0.8239(4)
C50? C 0.6043(7) 0.095(3) 0.8349(5)
C51? C 0.6157(6) 0.101(3) 0.8685(6)
C52? C 0.5805(9) 0.115(3) 0.8910(4)
C53? C 0.5339(7) 0.123(3) 0.8800(5)
C54? C 0.5226(6) 0.117(3) 0.8464(6)
C55? C 0.4954(12) 0.139(5) 0.9033(8)
loop_
_geom_bond_atom_site_label_1
_geom_bond_atom_site_label_2
_geom_bond_site_symmetry_1
_geom_bond_site_symmetry_2
C1 C2 1_555 1_555
C2 C3 1_555 1_555
C3 H1 1_555 1_555
C4 C3 1_555 1_555
C5 C4 1_555 1_555
C6 C5 1_555 1_555
C7 C6 1_555 1_555
H2 C7 1_555 1_555
C8 C7 1_555 1_555
H3 C8 1_555 1_555
C9 C8 1_555 1_555
C10 C9 1_555 1_555
C11 C10 1_555 1_555
C12 C11 1_555 1_555
H4 C12 1_555 1_555
C13 C12 1_555 1_555
H5 C13 1_555 1_555
C14 C13 1_555 1_555
C15 C14 1_555 1_555
C16 C15 1_555 1_555
C17 C16 1_555 1_555
H6 C17 1_555 1_555
C18 C2 1_555 1_555
C19 C1 1_555 1_555
C20 C5 1_555 1_555
C21 C20 1_555 1_555
C22 C21 1_555 1_555
C23 C22 1_555 1_555
C24 C23 1_555 1_555
C25 C20 1_555 1_555
C26 C10 1_555 1_555
C27 C26 1_555 1_555
C28 C27 1_555 1_555
C29 C28 1_555 1_555
C30 C29 1_555 1_555
C31 C26 1_555 1_555
C32 C15 1_555 1_555
C33 C32 1_555 1_555
C34 C33 1_555 1_555
C35 C34 1_555 1_555
C36 C35 1_555 1_555
C37 C32 1_555 1_555
F1 C21 1_555 1_555
F2 C22 1_555 1_555
F3 C23 1_555 1_555
F4 C24 1_555 1_555
F5 C25 1_555 1_555
F6 C27 1_555 1_555
F7 C28 1_555 1_555
F8 C29 1_555 1_555
F9 C30 1_555 1_555
F10 C31 1_555 1_555
F11 C33 1_555 1_555
F12 C34 1_555 1_555
F13 C35 1_555 1_555
F14 C36 1_555 1_555
F15 C37 1_555 1_555
N1 C1 1_555 1_555
N2 C6 1_555 1_555
H7 N2 1_555 1_555
N3 C11 1_555 1_555
N4 C16 1_555 1_555
H8 N4 1_555 1_555
C42 C43 1_555 1_555
C43 C44 1_555 1_555
C44 C45 1_555 1_555
C45 C46 1_555 1_555
C46 C47 1_555 1_555
C47 C42 1_555 1_555
C48 C46 1_555 1_555
C1A C2A 1_555 1_555
C2A C3A 1_555 1_555
C3A H1A 1_555 1_555
C4A C3A 1_555 1_555
C5A C4A 1_555 1_555
C6A C5A 1_555 1_555
C7A C6A 1_555 1_555
H2A C7A 1_555 1_555
C8A C7A 1_555 1_555
H3A C8A 1_555 1_555
C9A C8A 1_555 1_555
C10A C9A 1_555 1_555
C11A C10A 1_555 1_555
C12A C11A 1_555 1_555
H4A C12A 1_555 1_555
C13A C12A 1_555 1_555
H5A C13A 1_555 1_555
C14A C13A 1_555 1_555
C15A C14A 1_555 1_555
C16A C15A 1_555 1_555
C17A C18 1_555 1_555
H6A C17A 1_555 1_555
C18A C17 1_555 1_555
C19A C18 1_555 1_555
C20A C5A 1_555 1_555
C21A C20A 1_555 1_555
C22A C21A 1_555 1_555
C23A C22A 1_555 1_555
C24A C23A 1_555 1_555
C25A C20A 1_555 1_555
C26A C10A 1_555 1_555
C27A C26A 1_555 1_555
C28A C27A 1_555 1_555
C29A C28A 1_555 1_555
C30A C29A 1_555 1_555
C31A C26A 1_555 1_555
C32A C15A 1_555 1_555
C33A C32A 1_555 1_555
C34A C33A 1_555 1_555
C35A C34A 1_555 1_555
C36A C35A 1_555 1_555
C37A C32A 1_555 1_555
F1A C21A 1_555 1_555
F2A C22A 1_555 1_555
F3A C23A 1_555 1_555
F4A C24A 1_555 1_555
F5A C25A 1_555 1_555
F6A C27A 1_555 1_555
F7A C28A 1_555 1_555
F8A C29A 1_555 1_555
F9A C30A 1_555 1_555
F10A C31A 1_555 1_555
F11A C33A 1_555 1_555
F12A C34A 1_555 1_555
F13A C35A 1_555 1_555
F14A C36A 1_555 1_555
F15A C37A 1_555 1_555
N1A C1A 1_555 1_555
N2A C6A 1_555 1_555
H7A N2A 1_555 1_555
N3A C11A 1_555 1_555
N4A C16A 1_555 1_555
H8A N4A 1_555 1_555
C4 N1 1_555 1_555
C9 N2 1_555 1_555
C14 N3 1_555 1_555
C19 N4 1_555 1_555
C19 C18A 1_555 1_555
C24 C25 1_555 1_555
C30 C31 1_555 1_555
C36 C37 1_555 1_555
C1A C19A 1_555 1_555
C2A C18A 1_555 1_555
C4A N1A 1_555 1_555
C9A N2A 1_555 1_555
C14A N3A 1_555 1_555
C16A C17A 1_555 1_555
C19A N4A 1_555 1_555
C24A C25A 1_555 1_555
C30A C31A 1_555 1_555
C36A C37A 1_555 1_555

#END
