
#######################################################################
#
#                 Cambridge Crystallographic Data Centre
#                                CCDC 
#
#######################################################################
#
# If this CIF has been generated from an entry in the Cambridge 
# Structural Database, then it will include bibliographic, chemical, 
# crystal, experimental, refinement or atomic coordinate data resulting 
# from the CCDC's data processing and validation procedures.
#
#######################################################################

data_SUQROM
_chemical_formula_moiety         'C74 H18 F30 N8,2(C6 H5 Cl1),2(C1 H1 Cl3)'
_chemical_name_systematic        
"(Hexahydro-2,2':18,18'-bis(5,10,15-tris(pentafluorophenyl)corrole)) chlorobenzene chloroform solvate"
_symmetry_cell_setting           monoclinic
_symmetry_space_group_name_H-M   'C 2/c'
_symmetry_Int_Tables_number      15
_space_group_name_Hall           '-C 2yn'
loop_
_symmetry_equiv_pos_site_id
_symmetry_equiv_pos_as_xyz
1 x,y,z
2 -x,y,1/2-z
3 1/2+x,1/2+y,z
4 1/2-x,1/2+y,1/2-z
5 -x,-y,-z
6 x,-y,1/2+z
7 1/2-x,1/2-y,-z
8 1/2+x,1/2-y,1/2+z
_cell_length_a                   45.961(17)
_cell_length_b                   6.915(3)
_cell_length_c                   28.648(14)
_cell_angle_alpha                90
_cell_angle_beta                 115.291(14)
_cell_angle_gamma                90
_cell_volume                     8232.21
_exptl_crystal_colour            violet
_exptl_crystal_description       prism
_cell_formula_units_Z            4
loop_
_atom_site_label
_atom_site_type_symbol
_atom_site_fract_x
_atom_site_fract_y
_atom_site_fract_z
C1 C 0.53356(11) 0.2345(9) 0.23439(18)
C2 C 0.50561(12) 0.2493(9) 0.18679(17)
C3 C 0.51595(11) 0.2332(9) 0.14729(18)
H1 H 0.5024 0.2377 0.1113
C4 C 0.54932(11) 0.2095(9) 0.16943(17)
C5 C 0.57216(11) 0.2025(9) 0.14823(17)
C6 C 0.60507(12) 0.2281(9) 0.17752(18)
C7 C 0.63074(13) 0.1980(10) 0.1632(2)
H2 H 0.6285 0.1577 0.1301
C8 C 0.65908(13) 0.2367(11) 0.2047(2)
H3 H 0.6799 0.2258 0.2053
C9 C 0.65251(12) 0.2963(9) 0.24697(19)
C10 C 0.67371(12) 0.3463(10) 0.29689(19)
C11 C 0.66585(12) 0.3786(9) 0.33917(18)
C12 C 0.68876(13) 0.4187(10) 0.39151(19)
H4 H 0.7112 0.4379 0.4030
C13 C 0.67271(12) 0.4241(9) 0.42118(18)
H5 H 0.6818 0.4472 0.4573
C14 C 0.63930(12) 0.3886(9) 0.38843(18)
C15 C 0.61348(11) 0.3721(9) 0.40220(17)
C16 C 0.58165(12) 0.3316(9) 0.36626(17)
C17 C 0.55246(12) 0.3174(9) 0.37138(17)
H6 H 0.5501 0.3309 0.4026
C18 C 0.47223(12) 0.2805(9) 0.17719(18)
C19 C 0.54285(11) 0.2690(9) 0.28763(17)
C20 C 0.56071(12) 0.1680(9) 0.09157(18)
C21 C 0.56368(12) 0.3097(10) 0.05924(19)
C22 C 0.55450(13) 0.2771(11) 0.00714(19)
C23 C 0.54156(13) 0.1014(11) -0.01416(19)
C24 C 0.53799(13) -0.0403(11) 0.0163(2)
C25 C 0.54707(12) -0.0056(10) 0.06834(19)
C26 C 0.70829(12) 0.3601(10) 0.30695(18)
C27 C 0.72067(13) 0.5202(11) 0.2940(2)
C28 C 0.75348(15) 0.5349(12) 0.3040(2)
C29 C 0.77320(14) 0.3839(12) 0.3262(2)
C30 C 0.76169(15) 0.2209(12) 0.3388(3)
C31 C 0.72948(14) 0.2087(11) 0.3293(2)
C32 C 0.62000(12) 0.3880(9) 0.45765(18)
C33 C 0.63304(13) 0.5553(10) 0.4868(2)
C34 C 0.64085(14) 0.5596(11) 0.5398(2)
C35 C 0.63556(14) 0.4075(12) 0.5642(2)
C36 C 0.62190(14) 0.2428(12) 0.5363(2)
C37 C 0.61453(12) 0.2352(10) 0.48435(19)
N1 N 0.55901(9) 0.2083(7) 0.22176(14)
H14 H 0.5791 0.1926 0.2445
N2 N 0.61929(9) 0.2863(7) 0.22896(14)
H15 H 0.6087 0.3131 0.2475
N3 N 0.63628(10) 0.3637(7) 0.33848(15)
H16 H 0.6182 0.3419 0.3110
N4 N 0.57520(9) 0.2996(7) 0.31584(15)
F1 F 0.57587(8) 0.4838(6) 0.07832(11)
F2 F 0.55763(9) 0.4193(7) -0.02283(12)
F3 F 0.53249(9) 0.0685(7) -0.06460(12)
F4 F 0.52536(9) -0.2142(6) -0.00438(13)
F5 F 0.54293(8) -0.1493(6) 0.09659(12)
F6 F 0.70180(9) 0.6737(7) 0.27172(16)
F7 F 0.76439(9) 0.6986(8) 0.29115(17)
F8 F 0.80445(8) 0.3974(8) 0.33612(17)
F9 F 0.78153(9) 0.0697(8) 0.3612(2)
F10 F 0.71937(9) 0.0461(7) 0.34320(17)
F11 F 0.63844(9) 0.7101(6) 0.46470(13)
F12 F 0.65360(10) 0.7254(7) 0.56610(14)
F13 F 0.64344(9) 0.4131(8) 0.61465(12)
F14 F 0.61606(10) 0.0876(7) 0.56000(13)
F15 F 0.60238(8) 0.0669(6) 0.45950(12)
C1A C 0.46644(11) 0.2345(9) 0.26561(18)
C2A C 0.49439(12) 0.2493(9) 0.31321(17)
C3A C 0.48405(11) 0.2332(9) 0.35271(18)
H1A H 0.4976 0.2377 0.3887
C4A C 0.45068(11) 0.2095(9) 0.33057(17)
C5A C 0.42784(11) 0.2025(9) 0.35177(17)
C6A C 0.39493(12) 0.2281(9) 0.32248(18)
C7A C 0.36926(13) 0.1980(10) 0.3368(2)
H2A H 0.3715 0.1577 0.3699
C8A C 0.34092(13) 0.2367(11) 0.2953(2)
H3A H 0.3201 0.2258 0.2947
C9A C 0.34749(12) 0.2963(9) 0.25303(19)
C10A C 0.32629(12) 0.3463(10) 0.20311(19)
C11A C 0.33415(12) 0.3786(9) 0.16083(18)
C12A C 0.31124(13) 0.4187(10) 0.10849(19)
H4A H 0.2888 0.4379 0.0970
C13A C 0.32729(12) 0.4241(9) 0.07882(18)
H5A H 0.3182 0.4472 0.0427
C14A C 0.36070(12) 0.3886(9) 0.11157(18)
C15A C 0.38652(11) 0.3721(9) 0.09780(17)
C16A C 0.41835(12) 0.3316(9) 0.13374(17)
C17A C 0.44754(12) 0.3174(9) 0.12862(17)
H6A H 0.4499 0.3309 0.0974
C18A C 0.52777(12) 0.2805(9) 0.32281(18)
C19A C 0.45715(11) 0.2690(9) 0.21237(17)
C20A C 0.43929(12) 0.1680(9) 0.40843(18)
C21A C 0.43632(12) 0.3097(10) 0.44076(19)
C22A C 0.44550(13) 0.2771(11) 0.49286(19)
C23A C 0.45844(13) 0.1014(11) 0.51416(19)
C24A C 0.46201(13) -0.0403(11) 0.4837(2)
C25A C 0.45293(12) -0.0056(10) 0.43166(19)
C26A C 0.29171(12) 0.3601(10) 0.19305(18)
C27A C 0.27933(13) 0.5202(11) 0.2060(2)
C28A C 0.24652(15) 0.5349(12) 0.1960(2)
C29A C 0.22680(14) 0.3839(12) 0.1738(2)
C30A C 0.23831(15) 0.2209(12) 0.1612(3)
C31A C 0.27052(14) 0.2087(11) 0.1707(2)
C32A C 0.38000(12) 0.3880(9) 0.04235(18)
C33A C 0.36696(13) 0.5553(10) 0.0132(2)
C34A C 0.35915(14) 0.5596(11) -0.0398(2)
C35A C 0.36444(14) 0.4075(12) -0.0642(2)
C36A C 0.37810(14) 0.2428(12) -0.0363(2)
C37A C 0.38547(12) 0.2352(10) 0.01565(19)
N1A N 0.44099(9) 0.2083(7) 0.27824(14)
H14A H 0.4209 0.1926 0.2555
N2A N 0.38071(9) 0.2863(7) 0.27104(14)
H15A H 0.3913 0.3131 0.2525
N3A N 0.36372(10) 0.3637(7) 0.16152(15)
H16A H 0.3818 0.3419 0.1890
N4A N 0.42480(9) 0.2996(7) 0.18416(15)
F1A F 0.42413(8) 0.4838(6) 0.42168(11)
F2A F 0.44237(9) 0.4193(7) 0.52283(12)
F3A F 0.46751(9) 0.0685(7) 0.56460(12)
F4A F 0.47464(9) -0.2142(6) 0.50438(13)
F5A F 0.45707(8) -0.1493(6) 0.40341(12)
F6A F 0.29820(9) 0.6737(7) 0.22828(16)
F7A F 0.23561(9) 0.6986(8) 0.20885(17)
F8A F 0.19555(8) 0.3974(8) 0.16388(17)
F9A F 0.21847(9) 0.0697(8) 0.1388(2)
F10A F 0.28063(9) 0.0461(7) 0.15680(17)
F11A F 0.36156(9) 0.7101(6) 0.03530(13)
F12A F 0.34640(10) 0.7254(7) -0.06610(14)
F13A F 0.35656(9) 0.4131(8) -0.11465(12)
F14A F 0.38394(10) 0.0876(7) -0.06000(13)
F15A F 0.39762(8) 0.0669(6) 0.04050(12)
C38 C 0.2085(2) 0.5503(13) 0.0160(3)
H7 H 0.1887 0.6012 -0.0131
Cl1 Cl 0.22412(8) 0.7306(5) 0.05998(13)
Cl2 Cl 0.19802(10) 0.3513(6) 0.03978(10)
Cl3 Cl 0.23556(10) 0.4798(9) -0.00980(17)
C39 C 0.1027(3) 0.2541(11) 0.2279(3)
H8 H 0.1069 0.2316 0.1986
C40 C 0.0720(3) 0.2233(11) 0.2246(3)
H9 H 0.0552 0.1797 0.1932
C41 C 0.0658(2) 0.2563(12) 0.2674(4)
C42 C 0.0903(3) 0.3201(11) 0.3134(3)
H11 H 0.0861 0.3426 0.3427
C43 C 0.1210(2) 0.3509(11) 0.3167(3)
H12 H 0.1377 0.3945 0.3481
C44 C 0.1272(2) 0.3180(11) 0.2739(4)
H13 H 0.1481 0.3390 0.2761
Cl6 Cl 0.0320(6) 0.242(3) 0.2698(17)
H10? H 0.0448 0.2352 0.2652
Cl4? Cl 0.1516(4) 0.4095(17) 0.3740(5)
Cl5? Cl 0.1185(6) 0.234(3) 0.1875(7)
Cl7? Cl 0.2045(6) 0.546(2) -0.0419(6)
H17? H 0.1864 0.6049 0.0045
loop_
_geom_bond_atom_site_label_1
_geom_bond_atom_site_label_2
_geom_bond_site_symmetry_1
_geom_bond_site_symmetry_2
C1 C2 1_555 1_555
C2 C3 1_555 1_555
C3 H1 1_555 1_555
C4 C3 1_555 1_555
C5 C4 1_555 1_555
C6 C5 1_555 1_555
C7 C6 1_555 1_555
H2 C7 1_555 1_555
C8 C7 1_555 1_555
H3 C8 1_555 1_555
C9 C8 1_555 1_555
C10 C9 1_555 1_555
C11 C10 1_555 1_555
C12 C11 1_555 1_555
H4 C12 1_555 1_555
C13 C12 1_555 1_555
H5 C13 1_555 1_555
C14 C13 1_555 1_555
C15 C14 1_555 1_555
C16 C15 1_555 1_555
C17 C16 1_555 1_555
H6 C17 1_555 1_555
C18 C2 1_555 1_555
C19 C1 1_555 1_555
C20 C5 1_555 1_555
C21 C20 1_555 1_555
C22 C21 1_555 1_555
C23 C22 1_555 1_555
C24 C23 1_555 1_555
C25 C20 1_555 1_555
C26 C10 1_555 1_555
C27 C26 1_555 1_555
C28 C27 1_555 1_555
C29 C28 1_555 1_555
C30 C29 1_555 1_555
C31 C26 1_555 1_555
C32 C15 1_555 1_555
C33 C32 1_555 1_555
C34 C33 1_555 1_555
C35 C34 1_555 1_555
C36 C35 1_555 1_555
C37 C32 1_555 1_555
C38 H7 1_555 1_555
C39 H8 1_555 1_555
C40 C39 1_555 1_555
H9 C40 1_555 1_555
C41 C40 1_555 1_555
C42 C41 1_555 1_555
H11 C42 1_555 1_555
C43 C42 1_555 1_555
H12 C43 1_555 1_555
C44 C39 1_555 1_555
H13 C44 1_555 1_555
N1 C1 1_555 1_555
H14 N1 1_555 1_555
N2 C6 1_555 1_555
H15 N2 1_555 1_555
N3 C11 1_555 1_555
H16 N3 1_555 1_555
N4 C16 1_555 1_555
F1 C21 1_555 1_555
F2 C22 1_555 1_555
F3 C23 1_555 1_555
F4 C24 1_555 1_555
F5 C25 1_555 1_555
F6 C27 1_555 1_555
F7 C28 1_555 1_555
F8 C29 1_555 1_555
F9 C30 1_555 1_555
F10 C31 1_555 1_555
F11 C33 1_555 1_555
F12 C34 1_555 1_555
F13 C35 1_555 1_555
F14 C36 1_555 1_555
F15 C37 1_555 1_555
Cl1 C38 1_555 1_555
Cl2 C38 1_555 1_555
Cl3 C38 1_555 1_555
Cl6 C41 1_555 1_555
C1A C2A 1_555 1_555
C2A C3A 1_555 1_555
C3A H1A 1_555 1_555
C4A C3A 1_555 1_555
C5A C4A 1_555 1_555
C6A C5A 1_555 1_555
C7A C6A 1_555 1_555
H2A C7A 1_555 1_555
C8A C7A 1_555 1_555
H3A C8A 1_555 1_555
C9A C8A 1_555 1_555
C10A C9A 1_555 1_555
C11A C10A 1_555 1_555
C12A C11A 1_555 1_555
H4A C12A 1_555 1_555
C13A C12A 1_555 1_555
H5A C13A 1_555 1_555
C14A C13A 1_555 1_555
C15A C14A 1_555 1_555
C16A C15A 1_555 1_555
C17A C18 1_555 1_555
H6A C17A 1_555 1_555
C18A C17 1_555 1_555
C19A C18 1_555 1_555
C20A C5A 1_555 1_555
C21A C20A 1_555 1_555
C22A C21A 1_555 1_555
C23A C22A 1_555 1_555
C24A C23A 1_555 1_555
C25A C20A 1_555 1_555
C26A C10A 1_555 1_555
C27A C26A 1_555 1_555
C28A C27A 1_555 1_555
C29A C28A 1_555 1_555
C30A C29A 1_555 1_555
C31A C26A 1_555 1_555
C32A C15A 1_555 1_555
C33A C32A 1_555 1_555
C34A C33A 1_555 1_555
C35A C34A 1_555 1_555
C36A C35A 1_555 1_555
C37A C32A 1_555 1_555
N1A C1A 1_555 1_555
H14A N1A 1_555 1_555
N2A C6A 1_555 1_555
H15A N2A 1_555 1_555
N3A C11A 1_555 1_555
H16A N3A 1_555 1_555
N4A C16A 1_555 1_555
F1A C21A 1_555 1_555
F2A C22A 1_555 1_555
F3A C23A 1_555 1_555
F4A C24A 1_555 1_555
F5A C25A 1_555 1_555
F6A C27A 1_555 1_555
F7A C28A 1_555 1_555
F8A C29A 1_555 1_555
F9A C30A 1_555 1_555
F10A C31A 1_555 1_555
F11A C33A 1_555 1_555
F12A C34A 1_555 1_555
F13A C35A 1_555 1_555
F14A C36A 1_555 1_555
F15A C37A 1_555 1_555
C4 N1 1_555 1_555
C9 N2 1_555 1_555
C14 N3 1_555 1_555
C19 N4 1_555 1_555
C19 C18A 1_555 1_555
C24 C25 1_555 1_555
C30 C31 1_555 1_555
C36 C37 1_555 1_555
C43 C44 1_555 1_555
C1A C19A 1_555 1_555
C2A C18A 1_555 1_555
C4A N1A 1_555 1_555
C9A N2A 1_555 1_555
C14A N3A 1_555 1_555
C16A C17A 1_555 1_555
C19A N4A 1_555 1_555
C24A C25A 1_555 1_555
C30A C31A 1_555 1_555
C36A C37A 1_555 1_555

#END
