
#######################################################################
#
#                 Cambridge Crystallographic Data Centre
#                                CCDC 
#
#######################################################################
#
# If this CIF has been generated from an entry in the Cambridge 
# Structural Database, then it will include bibliographic, chemical, 
# crystal, experimental, refinement or atomic coordinate data resulting 
# from the CCDC's data processing and validation procedures.
#
#######################################################################

data_SURDOX01
_chemical_formula_moiety         'C1 H4 N2 O2 S1'
_chemical_name_systematic        'Thiourea S,S-dioxide'
_symmetry_cell_setting           orthorhombic
_symmetry_space_group_name_H-M   'P n m a'
_symmetry_Int_Tables_number      62
_space_group_name_Hall           '-P 2ac 2n'
loop_
_symmetry_equiv_pos_site_id
_symmetry_equiv_pos_as_xyz
1 x,y,z
2 1/2-x,1/2+y,1/2+z
3 x,1/2-y,z
4 1/2-x,-y,1/2+z
5 -x,-y,-z
6 1/2+x,1/2-y,1/2-z
7 -x,1/2+y,-z
8 1/2+x,y,1/2-z
_cell_length_a                   10.644(2)
_cell_length_b                   10.106(3)
_cell_length_c                   3.9348(4)
_cell_angle_alpha                90
_cell_angle_beta                 90
_cell_angle_gamma                90
_cell_volume                     423.26
_cell_formula_units_Z            4
loop_
_atom_site_label
_atom_site_type_symbol
_atom_site_fract_x
_atom_site_fract_y
_atom_site_fract_z
S1 S 0.45975(1) 0.25000 0.36497(3)
C1 C 0.61194(3) 0.25000 0.5981(1)
N1 N 0.66367(2) 0.36361(2) 0.6610(1)
O1 O 0.40051(1) 0.12865(2) 0.50769(4)
H1 H 0.7533(2) 0.3694(2) 0.7563(6)
H2 H 0.6206(2) 0.4320(2) 0.6184(6)
O1B O 0.40051(1) 0.37135(2) 0.50769(4)
N1B N 0.66367(2) 0.13639(2) 0.6610(1)
H1B H 0.7533(2) 0.1306(2) 0.7563(6)
H2B H 0.6206(2) 0.0680(2) 0.6184(6)
loop_
_geom_bond_atom_site_label_1
_geom_bond_atom_site_label_2
_geom_bond_site_symmetry_1
_geom_bond_site_symmetry_2
S1 C1 1_555 1_555
C1 N1 1_555 1_555
N1 H1 1_555 1_555
O1 S1 1_555 1_555
H2 N1 1_555 1_555
O1B S1 1_555 1_555
N1B C1 1_555 1_555
H1B N1B 1_555 1_555
H2B N1B 1_555 1_555

#END
