
#######################################################################
#
#                 Cambridge Crystallographic Data Centre
#                                CCDC 
#
#######################################################################
#
# If this CIF has been generated from an entry in the Cambridge 
# Structural Database, then it will include bibliographic, chemical, 
# crystal, experimental, refinement or atomic coordinate data resulting 
# from the CCDC's data processing and validation procedures.
#
#######################################################################

data_SURDUG
_chemical_formula_moiety         'C12 H9 N1 O5'
_chemical_name_systematic        
9-(Nitromethyl)-3,9-dihydro-1H-furo[3,4-b]chromen-1-one
_symmetry_cell_setting           monoclinic
_symmetry_space_group_name_H-M   'P 21'
_symmetry_Int_Tables_number      4
_space_group_name_Hall           'P 2yb'
loop_
_symmetry_equiv_pos_site_id
_symmetry_equiv_pos_as_xyz
1 x,y,z
2 -x,1/2+y,-z
_cell_length_a                   7.201(3)
_cell_length_b                   10.323(4)
_cell_length_c                   7.211(2)
_cell_angle_alpha                90
_cell_angle_beta                 96.096(7)
_cell_angle_gamma                90
_cell_volume                     533.005
_exptl_crystal_colour            colorless
_exptl_crystal_description       prism
_cell_formula_units_Z            2
loop_
_atom_site_label
_atom_site_type_symbol
_atom_site_fract_x
_atom_site_fract_y
_atom_site_fract_z
O1 O 0.53829(18) 0.37900(14) 0.26942(17)
O2 O 0.83478(18) 0.36313(16) 0.40371(19)
O3 O 0.37874(15) 0.05265(13) 0.19362(17)
O4 O 0.9888(2) 0.18655(17) 0.0270(2)
O5 O 0.9009(3) -0.01243(19) -0.0065(2)
N1 N 0.95286(18) 0.08043(17) 0.0893(2)
C1 C 0.6935(2) 0.3088(2) 0.3368(2)
C2 C 0.6538(2) 0.17086(19) 0.3133(2)
C3 C 0.4760(2) 0.16145(19) 0.2357(2)
C4 C 0.3893(2) 0.29141(19) 0.2016(2)
H1 H 0.3507 0.3053 0.0671
H2 H 0.2793 0.3022 0.2717
C5 C 0.7750(2) 0.0566(2) 0.3693(2)
H3 H 0.7963 0.0568 0.5086
C6 C 0.6652(2) -0.0665(2) 0.3119(2)
C7 C 0.4779(2) -0.06343(19) 0.2340(2)
C8 C 0.3752(2) -0.1756(2) 0.1904(2)
H4 H 0.2487 -0.1701 0.1379
C9 C 0.4589(3) -0.2956(2) 0.2241(2)
H5 H 0.3896 -0.3728 0.1965
C10 C 0.6472(3) -0.3024(2) 0.2995(3)
H6 H 0.7062 -0.3842 0.3211
C11 C 0.7458(3) -0.1895(2) 0.3419(2)
H7 H 0.8727 -0.1953 0.3931
C12 C 0.9693(2) 0.0647(2) 0.2965(2)
H8 H 1.0392 0.1391 0.3559
H9 H 1.0407 -0.0151 0.3318
loop_
_geom_bond_atom_site_label_1
_geom_bond_atom_site_label_2
_geom_bond_site_symmetry_1
_geom_bond_site_symmetry_2
O1 C1 1_555 1_555
O2 C1 1_555 1_555
O3 C3 1_555 1_555
O4 N1 1_555 1_555
O5 N1 1_555 1_555
N1 C12 1_555 1_555
C1 C2 1_555 1_555
C2 C3 1_555 1_555
C3 C4 1_555 1_555
C4 O1 1_555 1_555
H1 C4 1_555 1_555
H2 C4 1_555 1_555
C5 C2 1_555 1_555
H3 C5 1_555 1_555
C6 C5 1_555 1_555
C7 O3 1_555 1_555
C8 C7 1_555 1_555
H4 C8 1_555 1_555
C9 C8 1_555 1_555
H5 C9 1_555 1_555
C10 C9 1_555 1_555
H6 C10 1_555 1_555
C11 C6 1_555 1_555
H7 C11 1_555 1_555
C12 C5 1_555 1_555
H8 C12 1_555 1_555
H9 C12 1_555 1_555
C6 C7 1_555 1_555
C10 C11 1_555 1_555

#END
