
#######################################################################
#
#                 Cambridge Crystallographic Data Centre
#                                CCDC 
#
#######################################################################
#
# If this CIF has been generated from an entry in the Cambridge 
# Structural Database, then it will include bibliographic, chemical, 
# crystal, experimental, refinement or atomic coordinate data resulting 
# from the CCDC's data processing and validation procedures.
#
#######################################################################

data_SURDOX04
_chemical_formula_moiety         'C1 H4 N2 O2 S1'
_chemical_name_systematic        'Thiourea S,S,-dioxide'
_symmetry_cell_setting           orthorhombic
_symmetry_space_group_name_H-M   'P n m a'
_symmetry_Int_Tables_number      62
_space_group_name_Hall           '-P 2ac 2n'
loop_
_symmetry_equiv_pos_site_id
_symmetry_equiv_pos_as_xyz
1 x,y,z
2 1/2-x,1/2+y,1/2+z
3 x,1/2-y,z
4 1/2-x,-y,1/2+z
5 -x,-y,-z
6 1/2+x,1/2-y,1/2-z
7 -x,1/2+y,-z
8 1/2+x,y,1/2-z
_cell_length_a                   10.719(2)
_cell_length_b                   10.109(2)
_cell_length_c                   3.8018(7)
_cell_angle_alpha                90
_cell_angle_beta                 90
_cell_angle_gamma                90
_cell_volume                     411.957
_cell_formula_units_Z            4
loop_
_atom_site_label
_atom_site_type_symbol
_atom_site_fract_x
_atom_site_fract_y
_atom_site_fract_z
S1 S 0.46055(1) 0.25000 0.36105(2)
C1 C 0.61168(3) 0.25000 0.60130(10)
N1 N 0.66359(2) 0.36463(3) 0.66485(9)
O1 O 0.40173(2) 0.12758(3) 0.50960(9)
O1B O 0.40173(2) 0.37242(3) 0.50960(9)
N1B N 0.66359(2) 0.13537(3) 0.66485(9)
loop_
_geom_bond_atom_site_label_1
_geom_bond_atom_site_label_2
_geom_bond_site_symmetry_1
_geom_bond_site_symmetry_2
S1 C1 1_555 1_555
C1 N1 1_555 1_555
O1 S1 1_555 1_555
O1B S1 1_555 1_555
N1B C1 1_555 1_555

#END
