
#######################################################################
#
#                 Cambridge Crystallographic Data Centre
#                                CCDC 
#
#######################################################################
#
# If this CIF has been generated from an entry in the Cambridge 
# Structural Database, then it will include bibliographic, chemical, 
# crystal, experimental, refinement or atomic coordinate data resulting 
# from the CCDC's data processing and validation procedures.
#
#######################################################################

data_SURKUL
_chemical_formula_moiety         'C11 H12 O2 S4'
_chemical_name_systematic        4-(n-Butyloxycarbonyl)tetrathiafulvalene
_symmetry_cell_setting           monoclinic
_symmetry_space_group_name_H-M   'C 2/c'
_symmetry_Int_Tables_number      15
_space_group_name_Hall           '-C 2yn'
loop_
_symmetry_equiv_pos_site_id
_symmetry_equiv_pos_as_xyz
1 x,y,z
2 -x,y,1/2-z
3 1/2+x,1/2+y,z
4 1/2-x,1/2+y,1/2-z
5 -x,-y,-z
6 x,-y,1/2+z
7 1/2-x,1/2-y,-z
8 1/2+x,1/2-y,1/2+z
_cell_length_a                   12.7207(14)
_cell_length_b                   11.3585(12)
_cell_length_c                   19.6231(13)
_cell_angle_alpha                90
_cell_angle_beta                 99.619(8)
_cell_angle_gamma                90
_cell_volume                     2795.44
_exptl_crystal_colour            orange
_chemical_melting_point          72-73deg.C
_cell_formula_units_Z            8
loop_
_atom_site_label
_atom_site_type_symbol
_atom_site_fract_x
_atom_site_fract_y
_atom_site_fract_z
S1 S 0.55168(4) 0.68179(5) 0.52142(2)
S2 S 0.48311(4) 0.65603(5) 0.65752(2)
S3 S 0.77636(4) 0.78937(5) 0.59535(3)
S4 S 0.71084(4) 0.76819(6) 0.73187(2)
O1 O 0.25651(10) 0.58075(13) 0.46116(6)
O2 O 0.38957(11) 0.61933(14) 0.40166(7)
C1 C 0.58344(14) 0.7011(2) 0.61131(9)
C2 C 0.42054(14) 0.6374(2) 0.52307(9)
C3 C 0.39074(14) 0.6259(2) 0.58476(9)
H1 H 0.32193(14) 0.6022(2) 0.58841(9)
C4 C 0.67704(14) 0.7464(2) 0.64248(9)
C5 C 0.8622(2) 0.8420(2) 0.66623(12)
H2 H 0.9271(2) 0.8758(2) 0.66146(12)
C6 C 0.8327(2) 0.8329(2) 0.72738(12)
H3 H 0.8763(2) 0.8604(2) 0.76699(12)
C7 C 0.35518(15) 0.6123(2) 0.45538(9)
C8 C 0.18640(15) 0.5504(2) 0.39726(9)
H4 H 0.21759(15) 0.4876(2) 0.37373(9)
H5 H 0.17588(15) 0.6182(2) 0.36684(9)
C9 C 0.08211(14) 0.5116(2) 0.41527(10)
H6 H 0.09382(14) 0.4441(2) 0.44587(10)
H7 H 0.05263(14) 0.5745(2) 0.43970(10)
C10 C 0.0031(2) 0.4786(2) 0.35146(11)
H8 H 0.0337(2) 0.4175(2) 0.32633(11)
H9 H -0.0099(2) 0.5468(2) 0.32154(11)
C11 C -0.1021(2) 0.4354(2) 0.36895(14)
H10 H -0.1519(6) 0.4231(18) 0.32706(15)
H11 H -0.1301(9) 0.4932(9) 0.3968(9)
H12 H -0.0910(4) 0.3627(10) 0.3940(10)
loop_
_geom_bond_atom_site_label_1
_geom_bond_atom_site_label_2
_geom_bond_site_symmetry_1
_geom_bond_site_symmetry_2
S1 C1 1_555 1_555
S2 C1 1_555 1_555
S3 C4 1_555 1_555
S4 C4 1_555 1_555
O1 C7 1_555 1_555
O2 C7 1_555 1_555
C1 C4 1_555 1_555
C2 S1 1_555 1_555
C3 S2 1_555 1_555
H1 C3 1_555 1_555
C5 S3 1_555 1_555
H2 C5 1_555 1_555
C6 S4 1_555 1_555
H3 C6 1_555 1_555
C7 C2 1_555 1_555
C8 O1 1_555 1_555
H4 C8 1_555 1_555
H5 C8 1_555 1_555
C9 C8 1_555 1_555
H6 C9 1_555 1_555
H7 C9 1_555 1_555
C10 C9 1_555 1_555
H8 C10 1_555 1_555
H9 C10 1_555 1_555
C11 C10 1_555 1_555
H10 C11 1_555 1_555
H11 C11 1_555 1_555
H12 C11 1_555 1_555
C2 C3 1_555 1_555
C5 C6 1_555 1_555

#END
