
#######################################################################
#
#                 Cambridge Crystallographic Data Centre
#                                CCDC 
#
#######################################################################
#
# If this CIF has been generated from an entry in the Cambridge 
# Structural Database, then it will include bibliographic, chemical, 
# crystal, experimental, refinement or atomic coordinate data resulting 
# from the CCDC's data processing and validation procedures.
#
#######################################################################

data_SURMIC
_chemical_formula_moiety         'C17 H19 N1 O2'
_chemical_name_systematic        '2-((4-(t-butyl)phenyl)amino)benzoic acid'
_symmetry_cell_setting           triclinic
_symmetry_space_group_name_H-M   'P -1'
_symmetry_Int_Tables_number      2
_space_group_name_Hall           '-P 1'
loop_
_symmetry_equiv_pos_site_id
_symmetry_equiv_pos_as_xyz
1 x,y,z
2 -x,-y,-z
_cell_length_a                   6.7328(13)
_cell_length_b                   7.8277(16)
_cell_length_c                   15.269(3)
_cell_angle_alpha                93.68(3)
_cell_angle_beta                 90.46(3)
_cell_angle_gamma                112.33(3)
_cell_volume                     742.374
_exptl_crystal_colour            colorless
_exptl_crystal_description       block
_cell_formula_units_Z            2
_exptl_crystal_recrystallization_method sublimation
_exptl_crystal_preparation       fluorescent
loop_
_atom_site_label
_atom_site_type_symbol
_atom_site_fract_x
_atom_site_fract_y
_atom_site_fract_z
C1 C 0.2131(7) -0.0718(6) 0.0560(3)
C2 C 0.3797(7) -0.1244(6) 0.0931(3)
C3 C 0.3769(8) -0.3015(6) 0.0720(3)
H1 H 0.2690 -0.3833 0.0341
C4 C 0.5284(9) -0.3577(7) 0.1058(4)
H2 H 0.5238 -0.4762 0.0910
C5 C 0.6879(9) -0.2372(7) 0.1618(4)
H3 H 0.7913 -0.2751 0.1851
C6 C 0.6968(8) -0.0622(7) 0.1839(3)
H4 H 0.8062 0.0164 0.2221
C7 C 0.5459(8) 0.0012(6) 0.1505(3)
C8 C 0.7034(8) 0.3125(6) 0.2311(3)
C9 C 0.9216(9) 0.3791(7) 0.2153(4)
H5 H 0.9719 0.3287 0.1678
C10 C 1.0643(8) 0.5209(7) 0.2706(4)
H6 H 1.2100 0.5635 0.2594
C11 C 0.9981(7) 0.6006(6) 0.3411(3)
C12 C 0.7794(8) 0.5332(7) 0.3545(3)
H7 H 0.7280 0.5844 0.4013
C13 C 0.6362(8) 0.3922(6) 0.3003(3)
H8 H 0.4903 0.3506 0.3113
C14 C 1.1559(8) 0.7620(7) 0.3989(3)
C15 C 1.0725(10) 0.7815(7) 0.4899(4)
H9 H 0.9451 0.8079 0.4847
H10 H 1.1804 0.8807 0.5245
H11 H 1.0396 0.6680 0.5180
C16 C 1.3689(10) 0.7353(11) 0.4116(5)
H12 H 1.3398 0.6123 0.4286
H13 H 1.4562 0.8238 0.4567
H14 H 1.4436 0.7530 0.3576
C17 C 1.1958(12) 0.9404(8) 0.3539(4)
H15 H 1.2420 0.9282 0.2953
H16 H 1.3051 1.0421 0.3865
H17 H 1.0654 0.9630 0.3516
N1 N 0.5516(7) 0.1740(5) 0.1731(3)
H18 H 0.4526 0.2026 0.1499
O1 O 0.0724(6) -0.2009(5) 0.0027(2)
H19 H -0.0170 -0.1627 -0.0154
O2 O 0.1986(5) 0.0788(4) 0.0726(2)
loop_
_geom_bond_atom_site_label_1
_geom_bond_atom_site_label_2
_geom_bond_site_symmetry_1
_geom_bond_site_symmetry_2
C1 C2 1_555 1_555
C2 C3 1_555 1_555
C3 H1 1_555 1_555
C4 C3 1_555 1_555
H2 C4 1_555 1_555
C5 C4 1_555 1_555
H3 C5 1_555 1_555
C6 C5 1_555 1_555
H4 C6 1_555 1_555
C7 C2 1_555 1_555
C8 C9 1_555 1_555
C9 H5 1_555 1_555
C10 C9 1_555 1_555
H6 C10 1_555 1_555
C11 C10 1_555 1_555
C12 C11 1_555 1_555
H7 C12 1_555 1_555
C13 C8 1_555 1_555
H8 C13 1_555 1_555
C14 C11 1_555 1_555
C15 C14 1_555 1_555
H9 C15 1_555 1_555
H10 C15 1_555 1_555
H11 C15 1_555 1_555
C16 C14 1_555 1_555
H12 C16 1_555 1_555
H13 C16 1_555 1_555
H14 C16 1_555 1_555
C17 C14 1_555 1_555
H15 C17 1_555 1_555
H16 C17 1_555 1_555
H17 C17 1_555 1_555
N1 C7 1_555 1_555
H18 N1 1_555 1_555
O1 C1 1_555 1_555
H19 O1 1_555 1_555
O2 C1 1_555 1_555
C6 C7 1_555 1_555
C8 N1 1_555 1_555
C12 C13 1_555 1_555

#END
