
#######################################################################
#
#                 Cambridge Crystallographic Data Centre
#                                CCDC 
#
#######################################################################
#
# If this CIF has been generated from an entry in the Cambridge 
# Structural Database, then it will include bibliographic, chemical, 
# crystal, experimental, refinement or atomic coordinate data resulting 
# from the CCDC's data processing and validation procedures.
#
#######################################################################

data_SURMOI
_chemical_formula_moiety         'C15 H15 N1 O2'
_chemical_name_systematic        '2-((3,5-Dimethylphenyl)amino)benzoic acid'
_symmetry_cell_setting           monoclinic
_symmetry_space_group_name_H-M   'P 21/c'
_symmetry_Int_Tables_number      14
_space_group_name_Hall           '-P 2ybc'
loop_
_symmetry_equiv_pos_site_id
_symmetry_equiv_pos_as_xyz
1 x,y,z
2 -x,1/2+y,1/2-z
3 -x,-y,-z
4 x,1/2-y,1/2+z
_cell_length_a                   4.0126(8)
_cell_length_b                   13.932(3)
_cell_length_c                   22.026(4)
_cell_angle_alpha                90
_cell_angle_beta                 93.45(3)
_cell_angle_gamma                90
_cell_volume                     1229.1
_exptl_crystal_colour            yellow
_exptl_crystal_description       block
_cell_formula_units_Z            4
_exptl_crystal_recrystallization_method sublimation
_exptl_crystal_preparation       fluorescent
loop_
_atom_site_label
_atom_site_type_symbol
_atom_site_fract_x
_atom_site_fract_y
_atom_site_fract_z
C1 C 1.2551(5) 0.87972(15) 0.98579(8)
C2 C 1.0823(5) 0.78859(14) 0.97579(8)
C3 C 1.0543(5) 0.72545(15) 1.02446(9)
H1 H 1.1455 0.7430 1.0627
C4 C 0.8976(6) 0.63880(16) 1.01787(9)
H2 H 0.8863 0.5974 1.0508
C5 C 0.7559(6) 0.61387(16) 0.96127(9)
H3 H 0.6442 0.5556 0.9565
C6 C 0.7769(5) 0.67335(15) 0.91213(9)
H4 H 0.6788 0.6548 0.8746
C7 C 0.9430(5) 0.76148(14) 0.91722(8)
C8 C 0.8595(5) 0.80432(15) 0.80710(8)
C9 C 0.9390(5) 0.72043(14) 0.77743(9)
H5 H 1.0513 0.6715 0.7988
C10 C 0.8514(5) 0.70925(15) 0.71585(8)
C11 C 0.6864(5) 0.78311(15) 0.68476(8)
H6 H 0.6269 0.7757 0.6436
C12 C 0.6075(5) 0.86781(15) 0.71355(9)
C13 C 0.6910(5) 0.87691(14) 0.77518(8)
H7 H 0.6332 0.9325 0.7954
C14 C 0.9424(6) 0.61883(17) 0.68337(10)
H8 H 1.1336 0.5899 0.7043
H9 H 0.9938 0.6341 0.6425
H10 H 0.7580 0.5749 0.6826
C15 C 0.4386(6) 0.94907(18) 0.67843(11)
H11 H 0.2938 0.9828 0.7042
H12 H 0.3100 0.9237 0.6439
H13 H 0.6046 0.9924 0.6648
N1 N 0.9613(5) 0.82186(13) 0.86873(7)
H14 H 1.0453 0.8776 0.8766
O1 O 1.2851(4) 0.94156(11) 0.94661(6)
O2 O 1.3858(4) 0.89290(11) 1.04179(6)
H15 H 1.4821 0.9448 1.0439
loop_
_geom_bond_atom_site_label_1
_geom_bond_atom_site_label_2
_geom_bond_site_symmetry_1
_geom_bond_site_symmetry_2
C1 C2 1_555 1_555
C2 C3 1_555 1_555
C3 H1 1_555 1_555
C4 C3 1_555 1_555
H2 C4 1_555 1_555
C5 C4 1_555 1_555
H3 C5 1_555 1_555
C6 C5 1_555 1_555
H4 C6 1_555 1_555
C7 C2 1_555 1_555
C8 C9 1_555 1_555
C9 H5 1_555 1_555
C10 C9 1_555 1_555
C11 C10 1_555 1_555
H6 C11 1_555 1_555
C12 C11 1_555 1_555
C13 C8 1_555 1_555
H7 C13 1_555 1_555
C14 C10 1_555 1_555
H8 C14 1_555 1_555
H9 C14 1_555 1_555
H10 C14 1_555 1_555
C15 C12 1_555 1_555
H11 C15 1_555 1_555
H12 C15 1_555 1_555
H13 C15 1_555 1_555
N1 C7 1_555 1_555
H14 N1 1_555 1_555
O1 C1 1_555 1_555
O2 C1 1_555 1_555
H15 O2 1_555 1_555
C6 C7 1_555 1_555
C8 N1 1_555 1_555
C12 C13 1_555 1_555

#END
