
#######################################################################
#
#                 Cambridge Crystallographic Data Centre
#                                CCDC 
#
#######################################################################
#
# If this CIF has been generated from an entry in the Cambridge 
# Structural Database, then it will include bibliographic, chemical, 
# crystal, experimental, refinement or atomic coordinate data resulting 
# from the CCDC's data processing and validation procedures.
#
#######################################################################

data_SURPOL
_chemical_compound_source        
'incubation of isosteviol lactone (4a-carboxy-13a-hydroxy-13,16-seco-ent-19-norbeyeran-16- oic acid 13,16-lactone) with Absidia pseudocylindrospora ATCC 24169'
_chemical_name_common            
'2-Hydroxy-5,9,13-trimethyl-15-oxo-14-oxatetracyclo[11.3.1.0$1,10!.0$4,9!]heptadecane-5-carboxylic acid'
_chemical_formula_moiety         'C20 H30 O5'
_chemical_name_systematic        
'4\a-carboxy-7\a,13\a-dihydroxy-13,16-seco-ent-19-norbeyeran-16-oic acid 13,16-lactone'
_chemical_properties_biological  
'exhibited significant inhibitory activities toward activator protein-1 activation'
_symmetry_cell_setting           orthorhombic
_symmetry_space_group_name_H-M   'P 21 21 21'
_symmetry_Int_Tables_number      19
_space_group_name_Hall           'P 2ac 2ab'
loop_
_symmetry_equiv_pos_site_id
_symmetry_equiv_pos_as_xyz
1 x,y,z
2 1/2-x,-y,1/2+z
3 -x,1/2+y,1/2-z
4 1/2+x,1/2-y,-z
_cell_length_a                   11.1996(2)
_cell_length_b                   12.2087(2)
_cell_length_c                   13.4538(2)
_cell_angle_alpha                90
_cell_angle_beta                 90
_cell_angle_gamma                90
_cell_volume                     1839.57
_chemical_melting_point          'above 300 deg.C'
_cell_formula_units_Z            4
loop_
_atom_site_label
_atom_site_type_symbol
_atom_site_fract_x
_atom_site_fract_y
_atom_site_fract_z
O1 O 0.81079(16) 0.65394(15) 1.10533(13)
O2 O 0.66305(14) 0.75740(12) 1.04719(11)
H1 H 0.6913 0.8034 1.0848
O3 O 0.7496(2) 1.08779(13) 0.66859(11)
O4 O 0.74581(13) 0.96843(11) 0.54797(10)
C1 C 0.89948(19) 0.6067(2) 0.80637(17)
H2 H 0.8758 0.5512 0.7587
H3 H 0.9739 0.6385 0.7833
C2 C 0.9211(2) 0.5520(2) 0.90623(18)
H4 H 0.9552 0.6049 0.9520
H5 H 0.9781 0.4929 0.8980
C3 C 0.8058(2) 0.50665(17) 0.94979(18)
H6 H 0.8225 0.4768 1.0151
H7 H 0.7781 0.4470 0.9081
C4 C 0.70570(17) 0.59203(14) 0.95904(14)
C5 C 0.68740(16) 0.64610(14) 0.85498(13)
H8 H 0.6690 0.5842 0.8112
C6 C 0.57898(16) 0.72199(16) 0.84402(13)
H9 H 0.5101 0.6892 0.8761
H10 H 0.5953 0.7916 0.8761
C7 C 0.55243(14) 0.74056(15) 0.73464(14)
H11 H 0.5407 0.6686 0.7039
C8 C 0.65749(15) 0.79657(14) 0.68059(12)
C9 C 0.77315(15) 0.72868(14) 0.69899(13)
H12 H 0.7594 0.6588 0.6651
C10 C 0.80316(15) 0.69719(15) 0.80858(13)
C11 C 0.87778(17) 0.78192(17) 0.64272(15)
H13 H 0.8949 0.8528 0.6721
H14 H 0.9483 0.7365 0.6502
C12 C 0.85132(17) 0.79694(17) 0.53234(15)
H15 H 0.9152 0.8393 0.5025
H16 H 0.8502 0.7257 0.5005
C13 C 0.73331(17) 0.85412(15) 0.51262(14)
C14 C 0.63292(16) 0.79780(15) 0.56861(13)
H17 H 0.6246 0.7232 0.5448
H18 H 0.5584 0.8359 0.5559
C15 C 0.66546(18) 0.91731(15) 0.71197(13)
H19 H 0.5850 0.9433 0.7243
H20 H 0.7081 0.9206 0.7747
C16 C 0.72440(19) 0.99578(16) 0.64139(14)
C17 C 0.7083(2) 0.8653(2) 0.40233(15)
H21 H 0.6330 0.9014 0.3929
H22 H 0.7055 0.7939 0.3725
H23 H 0.7705 0.9076 0.3718
C18 C 0.5905(2) 0.53214(18) 0.99116(17)
H24 H 0.6023 0.4996 1.0554
H25 H 0.5719 0.4760 0.9437
H26 H 0.5258 0.5836 0.9944
C19 C 0.73488(17) 0.67049(15) 1.04392(14)
C20 C 0.85121(18) 0.79336(18) 0.87040(15)
H27 H 0.8676 0.7689 0.9368
H28 H 0.7927 0.8508 0.8723
H29 H 0.9233 0.8205 0.8407
O5 O 0.44667(12) 0.80302(15) 0.71790(10)
H30 H 0.4119 0.8126 0.7708
loop_
_geom_bond_atom_site_label_1
_geom_bond_atom_site_label_2
_geom_bond_site_symmetry_1
_geom_bond_site_symmetry_2
O1 C19 1_555 1_555
O2 H1 1_555 1_555
O3 C16 1_555 1_555
O4 C13 1_555 1_555
C1 H2 1_555 1_555
H3 C1 1_555 1_555
C2 C1 1_555 1_555
H4 C2 1_555 1_555
H5 C2 1_555 1_555
C3 C2 1_555 1_555
H6 C3 1_555 1_555
H7 C3 1_555 1_555
C4 C3 1_555 1_555
C5 C4 1_555 1_555
H8 C5 1_555 1_555
C6 C5 1_555 1_555
H9 C6 1_555 1_555
H10 C6 1_555 1_555
C7 C6 1_555 1_555
H11 C7 1_555 1_555
C8 C7 1_555 1_555
C9 C8 1_555 1_555
H12 C9 1_555 1_555
C10 C1 1_555 1_555
C11 C9 1_555 1_555
H13 C11 1_555 1_555
H14 C11 1_555 1_555
C12 C11 1_555 1_555
H15 C12 1_555 1_555
H16 C12 1_555 1_555
C13 C12 1_555 1_555
C14 C8 1_555 1_555
H17 C14 1_555 1_555
H18 C14 1_555 1_555
C15 C8 1_555 1_555
H19 C15 1_555 1_555
H20 C15 1_555 1_555
C16 O4 1_555 1_555
C17 C13 1_555 1_555
H21 C17 1_555 1_555
H22 C17 1_555 1_555
H23 C17 1_555 1_555
C18 C4 1_555 1_555
H24 C18 1_555 1_555
H25 C18 1_555 1_555
H26 C18 1_555 1_555
C19 O2 1_555 1_555
C20 C10 1_555 1_555
H27 C20 1_555 1_555
H28 C20 1_555 1_555
H29 C20 1_555 1_555
O5 C7 1_555 1_555
H30 O5 1_555 1_555
C4 C19 1_555 1_555
C5 C10 1_555 1_555
C9 C10 1_555 1_555
C13 C14 1_555 1_555
C15 C16 1_555 1_555

#END
