
#######################################################################
#
#                 Cambridge Crystallographic Data Centre
#                                CCDC 
#
#######################################################################
#
# If this CIF has been generated from an entry in the Cambridge 
# Structural Database, then it will include bibliographic, chemical, 
# crystal, experimental, refinement or atomic coordinate data resulting 
# from the CCDC's data processing and validation procedures.
#
#######################################################################

data_SURPIG
_chemical_formula_moiety         'C26 H22 O5'
_chemical_name_systematic        
(7-phenylhexahydrofuro[3,4-b][1,4]dioxine-5,5-diyl)bis(phenylmethanone)
_symmetry_cell_setting           trigonal
_symmetry_space_group_name_H-M   'P 32'
_symmetry_Int_Tables_number      145
_space_group_name_Hall           'P 32'
loop_
_symmetry_equiv_pos_site_id
_symmetry_equiv_pos_as_xyz
1 x,y,z
2 -y,x-y,2/3+z
3 -x+y,-x,1/3+z
_cell_length_a                   10.2142(4)
_cell_length_b                   10.2142(4)
_cell_length_c                   17.8299(7)
_cell_angle_alpha                90
_cell_angle_beta                 90
_cell_angle_gamma                120
_cell_volume                     1610.97
_exptl_crystal_colour            'light colorless'
_cell_formula_units_Z            3
_exptl_crystal_recrystallization_method acetonitrile
loop_
_atom_site_label
_atom_site_type_symbol
_atom_site_fract_x
_atom_site_fract_y
_atom_site_fract_z
O1 O 0.5841(3) 0.7648(3) 0.50113(11)
O2 O 0.7674(3) 0.7286(3) 0.33962(14)
O3 O 0.4409(4) 0.4510(4) 0.3997(2)
O4 O 0.5079(4) 0.9701(4) 0.42865(16)
O5 O 0.5216(5) 0.8001(6) 0.30732(15)
C1 C 0.4400(4) 0.7584(4) 0.50778(19)
H1 H 0.3607 0.6531 0.5156
C2 C 0.7528(4) 0.7934(4) 0.39294(17)
C3 C 0.5948(4) 0.7157(4) 0.42726(17)
C4 C 0.5490(4) 0.5457(4) 0.43369(19)
C5 C 0.8742(6) 1.0343(4) 0.4707(2)
H2 H 0.7804 1.0212 0.4840
C6 C 0.7584(4) 0.6065(4) 0.52819(19)
H3 H 0.7847 0.7078 0.5286
C7 C 0.4417(4) 0.8516(4) 0.5736(2)
C8 C 0.5644(5) 0.9273(5) 0.6199(2)
H4 H 0.6514 0.9221 0.6109
C9 C 0.7966(9) 0.4060(8) 0.5711(3)
H5 H 0.8494 0.3730 0.6007
C10 C 0.6400(4) 0.5034(4) 0.48318(19)
C11 C 0.8367(6) 0.5568(6) 0.5723(3)
H6 H 0.9160 0.6246 0.6025
C12 C 0.8837(4) 0.9322(4) 0.42367(19)
C13 C 0.4753(5) 0.7327(6) 0.3786(2)
H7 H 0.3906 0.6303 0.3702
C14 C 0.4322(8) 1.0192(8) 0.6939(3)
H8 H 0.4286 1.0753 0.7342
C15 C 0.4175(5) 0.8104(5) 0.4319(2)
H9 H 0.3108 0.7770 0.4226
C16 C 1.0057(8) 1.1567(5) 0.4981(3)
H10 H 0.9993 1.2232 0.5315
C17 C 0.3098(8) 0.9432(11) 0.6479(4)
H11 H 0.2235 0.9497 0.6565
C18 C 0.5601(6) 1.0115(7) 0.6800(3)
H12 H 0.6441 1.0628 0.7109
C19 C 0.6802(9) 0.3048(7) 0.5271(4)
H13 H 0.6543 0.2036 0.5268
C20 C 0.3121(6) 0.8577(8) 0.5892(3)
H14 H 0.2263 0.8035 0.5597
C21 C 0.6022(6) 0.3525(5) 0.4836(3)
H15 H 0.5228 0.2832 0.4539
C22 C 0.5201(10) 1.0219(9) 0.3530(3)
H16 H 0.5763 1.1315 0.3517
H17 H 0.4202 0.9878 0.3325
C23 C 1.0246(7) 0.9566(8) 0.4019(4)
H18 H 1.0325 0.8897 0.3693
C24 C 0.6002(10) 0.9600(9) 0.3076(3)
H19 H 0.6109 0.9963 0.2564
H20 H 0.7007 0.9970 0.3279
C25 C 1.1424(9) 1.1803(9) 0.4768(5)
H21 H 1.2295 1.2641 0.4947
C26 C 1.1537(8) 1.0822(13) 0.4293(7)
H22 H 1.2486 1.0993 0.4150
loop_
_geom_bond_atom_site_label_1
_geom_bond_atom_site_label_2
_geom_bond_site_symmetry_1
_geom_bond_site_symmetry_2
O1 C1 1_555 1_555
O2 C2 1_555 1_555
O3 C4 1_555 1_555
O4 C15 1_555 1_555
O5 C13 1_555 1_555
C1 H1 1_555 1_555
C2 C3 1_555 1_555
C3 O1 1_555 1_555
C4 C3 1_555 1_555
C5 H2 1_555 1_555
C6 H3 1_555 1_555
C7 C1 1_555 1_555
C8 C7 1_555 1_555
H4 C8 1_555 1_555
C9 H5 1_555 1_555
C10 C4 1_555 1_555
C11 C6 1_555 1_555
H6 C11 1_555 1_555
C12 C2 1_555 1_555
C13 C3 1_555 1_555
H7 C13 1_555 1_555
C14 H8 1_555 1_555
C15 C1 1_555 1_555
H9 C15 1_555 1_555
C16 C5 1_555 1_555
H10 C16 1_555 1_555
C17 C14 1_555 1_555
H11 C17 1_555 1_555
C18 C8 1_555 1_555
H12 C18 1_555 1_555
C19 C9 1_555 1_555
H13 C19 1_555 1_555
C20 C7 1_555 1_555
H14 C20 1_555 1_555
C21 C10 1_555 1_555
H15 C21 1_555 1_555
C22 O4 1_555 1_555
H16 C22 1_555 1_555
H17 C22 1_555 1_555
C23 C12 1_555 1_555
H18 C23 1_555 1_555
C24 O5 1_555 1_555
H19 C24 1_555 1_555
H20 C24 1_555 1_555
C25 C16 1_555 1_555
H21 C25 1_555 1_555
C26 C23 1_555 1_555
H22 C26 1_555 1_555
C5 C12 1_555 1_555
C6 C10 1_555 1_555
C9 C11 1_555 1_555
C13 C15 1_555 1_555
C14 C18 1_555 1_555
C17 C20 1_555 1_555
C19 C21 1_555 1_555
C22 C24 1_555 1_555
C25 C26 1_555 1_555

#END
