
#######################################################################
#
#                 Cambridge Crystallographic Data Centre
#                                CCDC 
#
#######################################################################
#
# If this CIF has been generated from an entry in the Cambridge 
# Structural Database, then it will include bibliographic, chemical, 
# crystal, experimental, refinement or atomic coordinate data resulting 
# from the CCDC's data processing and validation procedures.
#
#######################################################################

data_SURPIF
_chemical_compound_source        
'incubation of isosteviol lactone (4a-carboxy-13a-hydroxy-13,16-seco-ent-19-norbeyeran-16- oic acid 13,16-lactone) with Absidia pseudocylindrospora ATCC 24169'
_chemical_name_common            
'12-Hydroxy-5,9,13-trimethyl-15-oxo-14-oxatetracyclo[11.3.1.0$1,10!.0$4,9!]heptadecane-5-carboxylic acid monohydrate'
_chemical_formula_moiety         'C20 H30 O5,H2 O1'
_chemical_name_systematic        
'4\a-carboxy-12\b,13\a-dihydroxy-13,16-seco-ent-19-norbeyeran-16-oic acid 13,16-lactone monohydrate'
_chemical_properties_biological  
'exhibited significant inhibitory activities toward activator protein-1 activation'
_symmetry_cell_setting           monoclinic
_symmetry_space_group_name_H-M   'C 2'
_symmetry_Int_Tables_number      5
_space_group_name_Hall           'C 2y'
loop_
_symmetry_equiv_pos_site_id
_symmetry_equiv_pos_as_xyz
1 x,y,z
2 -x,y,-z
3 1/2+x,1/2+y,z
4 1/2-x,1/2+y,-z
_cell_length_a                   44.8056(11)
_cell_length_b                   7.2959(2)
_cell_length_c                   11.8141(3)
_cell_angle_alpha                90
_cell_angle_beta                 97.855(2)
_cell_angle_gamma                90
_cell_volume                     3825.76
_chemical_melting_point          'above 300 deg.C'
_cell_formula_units_Z            8
loop_
_atom_site_label
_atom_site_type_symbol
_atom_site_fract_x
_atom_site_fract_y
_atom_site_fract_z
O1 O 0.55678(6) 0.6253(4) 0.8889(3)
O2 O 0.54264(7) 0.3718(4) 0.9674(3)
O3 O 0.69580(6) 0.7739(4) 1.0504(2)
O4 O 0.71811(5) 0.6193(4) 0.9274(2)
O5 O 0.71283(5) 0.1669(4) 0.7917(2)
C1 C 0.61913(9) 0.1190(5) 0.8916(3)
H1 H 0.6243 0.0549 0.8250
H2 H 0.6331 0.0795 0.9572
C2 C 0.58728(10) 0.0648(6) 0.9098(4)
H3 H 0.5859 -0.0677 0.9141
H4 H 0.5828 0.1151 0.9816
C3 C 0.56419(9) 0.1350(6) 0.8126(4)
H5 H 0.5442 0.1030 0.8286
H6 H 0.5674 0.0734 0.7425
C4 C 0.56562(8) 0.3435(5) 0.7941(3)
C5 C 0.59859(7) 0.3919(5) 0.7762(3)
H7 H 0.6022 0.3157 0.7111
C6 C 0.60412(7) 0.5861(5) 0.7370(3)
H8 H 0.6034 0.6705 0.8001
H9 H 0.5883 0.6204 0.6761
C7 C 0.63478(7) 0.6008(6) 0.6943(3)
H10 H 0.6351 0.5196 0.6295
H11 H 0.6376 0.7251 0.6687
C8 C 0.66054(7) 0.5509(5) 0.7870(3)
C9 C 0.65476(7) 0.3569(4) 0.8347(3)
H12 H 0.6549 0.2745 0.7693
C10 C 0.62308(7) 0.3269(5) 0.8746(3)
C11 C 0.68130(7) 0.2915(5) 0.9221(3)
H13 H 0.6821 0.3653 0.9907
H14 H 0.6778 0.1654 0.9427
C12 C 0.71154(7) 0.3038(5) 0.8773(3)
H15 H 0.7276 0.2802 0.9406
C13 C 0.71643(7) 0.4951(5) 0.8278(3)
C14 C 0.69057(7) 0.5456(5) 0.7381(3)
H16 H 0.6892 0.4569 0.6764
H17 H 0.6944 0.6648 0.7067
C15 C 0.66521(7) 0.7047(5) 0.8765(3)
H18 H 0.6644 0.8210 0.8364
H19 H 0.6484 0.7022 0.9203
C16 C 0.69353(8) 0.6993(5) 0.9579(3)
C17 C 0.74650(9) 0.5152(7) 0.7870(4)
H20 H 0.7483 0.6361 0.7566
H21 H 0.7483 0.4261 0.7285
H22 H 0.7622 0.4961 0.8498
C18 C 0.54366(9) 0.3930(8) 0.6851(4)
H23 H 0.5441 0.5229 0.6725
H24 H 0.5236 0.3564 0.6948
H25 H 0.5497 0.3303 0.6205
C19 C 0.55401(8) 0.4440(6) 0.8928(4)
C20 C 0.62037(8) 0.4223(6) 0.9898(3)
H26 H 0.6007 0.4005 1.0104
H27 H 0.6234 0.5518 0.9825
H28 H 0.6353 0.3738 1.0481
O6 O 0.45287(6) -0.2027(4) 0.9105(2)
O7 O 0.48531(6) -0.0674(5) 0.8130(3)
O8 O 0.31745(7) 0.2675(5) 0.7953(2)
O9 O 0.30078(5) 0.1342(4) 0.63409(19)
O10 O 0.32859(6) 0.0077(4) 0.36828(19)
C21 C 0.42318(8) 0.0024(6) 0.5348(3)
H29 H 0.4161 -0.0746 0.4698
H30 H 0.4189 0.1286 0.5125
C22 C 0.45718(9) -0.0211(7) 0.5633(4)
H31 H 0.4666 0.0019 0.4955
H32 H 0.4650 0.0679 0.6209
C23 C 0.46517(9) -0.2114(6) 0.6068(3)
H33 H 0.4868 -0.2179 0.6291
H34 H 0.4600 -0.2977 0.5448
C24 C 0.44953(8) -0.2712(5) 0.7088(3)
C25 C 0.41504(8) -0.2422(5) 0.6780(3)
H35 H 0.4096 -0.3207 0.6111
C26 C 0.39494(8) -0.3113(5) 0.7644(3)
H36 H 0.4017 -0.4317 0.7916
H37 H 0.3966 -0.2290 0.8294
C27 C 0.36234(8) -0.3215(5) 0.7096(3)
H38 H 0.3502 -0.3673 0.7656
H39 H 0.3608 -0.4089 0.6472
C28 C 0.34934(8) -0.1383(5) 0.6638(3)
C29 C 0.37107(7) -0.0541(5) 0.5852(3)
H40 H 0.3699 -0.1366 0.5193
C30 C 0.40533(7) -0.0461(5) 0.6344(3)
C31 C 0.35805(8) 0.1295(5) 0.5366(3)
H41 H 0.3573 0.2154 0.5987
H42 H 0.3712 0.1802 0.4859
C32 C 0.32640(8) 0.1060(5) 0.4708(3)
H43 H 0.3180 0.2277 0.4507
C33 C 0.30512(8) 0.0060(5) 0.5412(3)
C34 C 0.31920(8) -0.1708(5) 0.5899(3)
H44 H 0.3221 -0.2525 0.5276
H45 H 0.3055 -0.2301 0.6354
C35 C 0.34203(8) -0.0125(6) 0.7609(3)
H46 H 0.3345 -0.0886 0.8181
H47 H 0.3607 0.0421 0.7964
C36 C 0.31994(8) 0.1381(6) 0.7305(3)
C37 C 0.27400(8) -0.0199(6) 0.4760(3)
H48 H 0.2615 -0.0832 0.5232
H49 H 0.2753 -0.0906 0.4083
H50 H 0.2653 0.0976 0.4549
C38 C 0.45649(10) -0.4772(6) 0.7309(4)
H51 H 0.4778 -0.4939 0.7495
H52 H 0.4493 -0.5464 0.6635
H53 H 0.4466 -0.5188 0.7933
C39 C 0.46216(8) -0.1778(5) 0.8204(3)
C40 C 0.41243(8) 0.0990(5) 0.7289(3)
H54 H 0.4336 0.0972 0.7565
H55 H 0.4012 0.0722 0.7907
H56 H 0.4069 0.2181 0.6985
O11 O 0.77121(7) 0.0588(5) 0.7791(3)
H57 H 0.7840(13) 0.135(9) 0.845(5)
H58 H 0.7867(16) -0.057(12) 0.774(6)
O12 O 0.5000 0.1275(6) 1.0000
H59 H 0.5148(16) 0.216(12) 0.980(7)
H59A H 0.4852(16) 0.216(12) 1.020(7)
loop_
_geom_bond_atom_site_label_1
_geom_bond_atom_site_label_2
_geom_bond_site_symmetry_1
_geom_bond_site_symmetry_2
O1 C19 1_555 1_555
O2 C19 1_555 1_555
O3 C16 1_555 1_555
O4 C13 1_555 1_555
O5 C12 1_555 1_555
C1 H1 1_555 1_555
H2 C1 1_555 1_555
C2 C1 1_555 1_555
H3 C2 1_555 1_555
H4 C2 1_555 1_555
C3 C2 1_555 1_555
H5 C3 1_555 1_555
H6 C3 1_555 1_555
C4 C3 1_555 1_555
C5 C4 1_555 1_555
H7 C5 1_555 1_555
C6 C5 1_555 1_555
H8 C6 1_555 1_555
H9 C6 1_555 1_555
C7 C6 1_555 1_555
H10 C7 1_555 1_555
H11 C7 1_555 1_555
C8 C7 1_555 1_555
C9 C8 1_555 1_555
H12 C9 1_555 1_555
C10 C1 1_555 1_555
C11 C9 1_555 1_555
H13 C11 1_555 1_555
H14 C11 1_555 1_555
C12 C11 1_555 1_555
H15 C12 1_555 1_555
C13 C12 1_555 1_555
C14 C8 1_555 1_555
H16 C14 1_555 1_555
H17 C14 1_555 1_555
C15 C8 1_555 1_555
H18 C15 1_555 1_555
H19 C15 1_555 1_555
C16 O4 1_555 1_555
C17 C13 1_555 1_555
H20 C17 1_555 1_555
H21 C17 1_555 1_555
H22 C17 1_555 1_555
C18 C4 1_555 1_555
H23 C18 1_555 1_555
H24 C18 1_555 1_555
H25 C18 1_555 1_555
C19 C4 1_555 1_555
C20 C10 1_555 1_555
H26 C20 1_555 1_555
H27 C20 1_555 1_555
H28 C20 1_555 1_555
O6 C39 1_555 1_555
O7 C39 1_555 1_555
O8 C36 1_555 1_555
O9 C33 1_555 1_555
O10 C32 1_555 1_555
C21 H29 1_555 1_555
H30 C21 1_555 1_555
C22 C21 1_555 1_555
H31 C22 1_555 1_555
H32 C22 1_555 1_555
C23 C22 1_555 1_555
H33 C23 1_555 1_555
H34 C23 1_555 1_555
C24 C23 1_555 1_555
C25 C24 1_555 1_555
H35 C25 1_555 1_555
C26 C25 1_555 1_555
H36 C26 1_555 1_555
H37 C26 1_555 1_555
C27 C26 1_555 1_555
H38 C27 1_555 1_555
H39 C27 1_555 1_555
C28 C27 1_555 1_555
C29 C28 1_555 1_555
H40 C29 1_555 1_555
C30 C21 1_555 1_555
C31 C29 1_555 1_555
H41 C31 1_555 1_555
H42 C31 1_555 1_555
C32 C31 1_555 1_555
H43 C32 1_555 1_555
C33 C32 1_555 1_555
C34 C28 1_555 1_555
H44 C34 1_555 1_555
H45 C34 1_555 1_555
C35 C28 1_555 1_555
H46 C35 1_555 1_555
H47 C35 1_555 1_555
C36 O9 1_555 1_555
C37 C33 1_555 1_555
H48 C37 1_555 1_555
H49 C37 1_555 1_555
H50 C37 1_555 1_555
C38 C24 1_555 1_555
H51 C38 1_555 1_555
H52 C38 1_555 1_555
H53 C38 1_555 1_555
C39 C24 1_555 1_555
C40 C30 1_555 1_555
H54 C40 1_555 1_555
H55 C40 1_555 1_555
H56 C40 1_555 1_555
O11 H57 1_555 1_555
O12 H59 1_555 1_555
H58 O11 1_555 1_555
H59A O12 1_555 1_555
C5 C10 1_555 1_555
C9 C10 1_555 1_555
C13 C14 1_555 1_555
C15 C16 1_555 1_555
C25 C30 1_555 1_555
C29 C30 1_555 1_555
C33 C34 1_555 1_555
C35 C36 1_555 1_555

#END
