
#######################################################################
#
#                 Cambridge Crystallographic Data Centre
#                                CCDC 
#
#######################################################################
#
# If this CIF has been generated from an entry in the Cambridge 
# Structural Database, then it will include bibliographic, chemical, 
# crystal, experimental, refinement or atomic coordinate data resulting 
# from the CCDC's data processing and validation procedures.
#
#######################################################################

data_SURQON
_chemical_formula_moiety         'C24 H24 Br1 N1 O1'
_chemical_name_systematic        9-(6-(4-bromophenoxy)hexyl)-9H-carbazole
_symmetry_cell_setting           monoclinic
_symmetry_space_group_name_H-M   'P 21/n'
_symmetry_Int_Tables_number      14
_space_group_name_Hall           '-P 2yn'
loop_
_symmetry_equiv_pos_site_id
_symmetry_equiv_pos_as_xyz
1 x,y,z
2 1/2-x,1/2+y,1/2-z
3 -x,-y,-z
4 1/2+x,1/2-y,1/2+z
_cell_length_a                   5.7109(15)
_cell_length_b                   12.738(3)
_cell_length_c                   28.186(5)
_cell_angle_alpha                90
_cell_angle_beta                 90.0210(10)
_cell_angle_gamma                90
_cell_volume                     2050.4
_exptl_crystal_colour            colorless
_exptl_crystal_description       block
_cell_formula_units_Z            4
loop_
_atom_site_label
_atom_site_type_symbol
_atom_site_fract_x
_atom_site_fract_y
_atom_site_fract_z
Br1 Br 0.0994(3) 0.97418(9) 1.06723(4)
O1 O 0.2778(11) 0.5697(4) 0.9633(2)
N1 N 0.7054(12) 0.1751(5) 0.7645(3)
C1 C 0.4619(15) 0.4527(6) 0.9093(3)
H1 H 0.3181 0.4514 0.8909
H2 H 0.4545 0.3964 0.9324
C2 C 0.6667(15) 0.4345(6) 0.8767(3)
H3 H 0.8098 0.4388 0.8951
H4 H 0.6706 0.4904 0.8533
C3 C 0.8673(15) 0.3147(6) 0.8179(3)
H5 H 1.0093 0.3316 0.8352
H6 H 0.8531 0.3645 0.7920
C4 C 0.5260(15) 0.1051(6) 0.7742(3)
C5 C 0.2497(16) 0.6646(6) 0.9857(3)
C6 C 0.4009(15) 0.0915(6) 0.7324(4)
C7 C 0.4811(16) 0.5559(6) 0.9346(3)
H7 H 0.6204 0.5567 0.9543
H8 H 0.4930 0.6126 0.9118
C8 C 0.6630(15) 0.3280(6) 0.8503(3)
H9 H 0.6631 0.2716 0.8734
H10 H 0.5196 0.3228 0.8320
C9 C 0.4028(17) 0.7467(7) 0.9815(3)
H11 H 0.5337 0.7414 0.9620
C10 C 0.8917(15) 0.2046(6) 0.7971(3)
H12 H 1.0402 0.2000 0.7805
H13 H 0.8955 0.1544 0.8229
C11 C 0.278(2) -0.0140(8) 0.8139(6)
H14 H 0.2371 -0.0501 0.8414
C12 C 0.5071(16) 0.1578(6) 0.6967(3)
C13 C 0.790(2) 0.2908(8) 0.6466(4)
H15 H 0.8880 0.3341 0.6288
C14 C 0.6993(15) 0.2058(6) 0.7180(3)
C15 C 0.0521(17) 0.6734(7) 1.0139(3)
H16 H -0.0498 0.6168 1.0169
C16 C 0.358(2) 0.8400(7) 1.0074(4)
H17 H 0.4634 0.8956 1.0060
C17 C 0.4580(18) 0.1793(8) 0.6496(4)
H18 H 0.3302 0.1480 0.6348
C18 C 0.599(2) 0.2469(9) 0.6249(4)
H19 H 0.5646 0.2631 0.5935
C19 C 0.162(2) 0.8480(7) 1.0344(3)
C20 C 0.208(2) 0.0220(7) 0.7334(5)
H20 H 0.1185 0.0108 0.7063
C21 C 0.4669(18) 0.0531(7) 0.8156(4)
H21 H 0.5514 0.0631 0.8435
C22 C 0.8437(17) 0.2733(6) 0.6930(3)
H22 H 0.9717 0.3055 0.7074
C23 C 0.0062(17) 0.7645(8) 1.0375(3)
H23 H -0.1291 0.7708 1.0556
C24 C 0.154(2) -0.0293(8) 0.7756(7)
H24 H 0.0280 -0.0754 0.7766
loop_
_geom_bond_atom_site_label_1
_geom_bond_atom_site_label_2
_geom_bond_site_symmetry_1
_geom_bond_site_symmetry_2
Br1 C19 1_555 1_555
O1 C5 1_555 1_555
N1 C4 1_555 1_555
C1 H1 1_555 1_555
H2 C1 1_555 1_555
C2 C1 1_555 1_555
H3 C2 1_555 1_555
H4 C2 1_555 1_555
C3 H5 1_555 1_555
H6 C3 1_555 1_555
C4 C6 1_555 1_555
C5 C9 1_555 1_555
C6 C12 1_555 1_555
C7 O1 1_555 1_555
H7 C7 1_555 1_555
H8 C7 1_555 1_555
C8 C2 1_555 1_555
H9 C8 1_555 1_555
H10 C8 1_555 1_555
C9 H11 1_555 1_555
C10 N1 1_555 1_555
H12 C10 1_555 1_555
H13 C10 1_555 1_555
C11 H14 1_555 1_555
C12 C14 1_555 1_555
C13 H15 1_555 1_555
C14 N1 1_555 1_555
C15 C5 1_555 1_555
H16 C15 1_555 1_555
C16 C9 1_555 1_555
H17 C16 1_555 1_555
C17 C12 1_555 1_555
H18 C17 1_555 1_555
C18 C13 1_555 1_555
H19 C18 1_555 1_555
C19 C16 1_555 1_555
C20 C6 1_555 1_555
H20 C20 1_555 1_555
C21 C4 1_555 1_555
H21 C21 1_555 1_555
C22 C13 1_555 1_555
H22 C22 1_555 1_555
C23 C15 1_555 1_555
H23 C23 1_555 1_555
C24 C11 1_555 1_555
H24 C24 1_555 1_555
C1 C7 1_555 1_555
C3 C8 1_555 1_555
C3 C10 1_555 1_555
C11 C21 1_555 1_555
C14 C22 1_555 1_555
C17 C18 1_555 1_555
C19 C23 1_555 1_555
C20 C24 1_555 1_555

#END
