
#######################################################################
#
#                 Cambridge Crystallographic Data Centre
#                                CCDC 
#
#######################################################################
#
# If this CIF has been generated from an entry in the Cambridge 
# Structural Database, then it will include bibliographic, chemical, 
# crystal, experimental, refinement or atomic coordinate data resulting 
# from the CCDC's data processing and validation procedures.
#
#######################################################################

data_SURQIH
_chemical_formula_moiety         'C18 H20 Br1 N1'
_chemical_name_systematic        9-(6-bromohexyl)-9H-carbazole
_symmetry_cell_setting           orthorhombic
_symmetry_space_group_name_H-M   'P b c a'
_symmetry_Int_Tables_number      61
_space_group_name_Hall           '-P 2ac 2ab'
loop_
_symmetry_equiv_pos_site_id
_symmetry_equiv_pos_as_xyz
1 x,y,z
2 1/2-x,-y,1/2+z
3 1/2+x,1/2-y,-z
4 -x,1/2+y,1/2-z
5 -x,-y,-z
6 1/2+x,y,1/2-z
7 1/2-x,1/2+y,z
8 x,1/2-y,1/2+z
_cell_length_a                   16.319(3)
_cell_length_b                   8.0724(16)
_cell_length_c                   24.455(5)
_cell_angle_alpha                90
_cell_angle_beta                 90
_cell_angle_gamma                90
_cell_volume                     3221.54
_exptl_crystal_colour            colorless
_exptl_crystal_description       block
_cell_formula_units_Z            8
loop_
_atom_site_label
_atom_site_type_symbol
_atom_site_fract_x
_atom_site_fract_y
_atom_site_fract_z
Br1 Br 0.34276(4) -0.30007(8) -0.02247(3)
N1 N 0.4226(2) 0.6295(4) 0.15087(15)
C1 C 0.3915(3) 0.7155(5) 0.19488(18)
C2 C 0.3191(3) 0.6920(6) 0.2225(2)
H1 H 0.2829 0.6080 0.2128
C3 C 0.3021(4) 0.7979(7) 0.2652(2)
H2 H 0.2538 0.7842 0.2849
C4 C 0.3553(4) 0.9241(8) 0.2795(2)
H3 H 0.3424 0.9934 0.3086
C5 C 0.4265(4) 0.9480(6) 0.2514(2)
H4 H 0.4619 1.0335 0.2611
C6 C 0.4456(3) 0.8438(5) 0.20825(19)
C7 C 0.5132(3) 0.8317(5) 0.1714(2)
C8 C 0.5858(4) 0.9206(7) 0.1640(3)
H5 H 0.5981 1.0107 0.1863
C9 C 0.6388(4) 0.8726(10) 0.1232(3)
H6 H 0.6872 0.9310 0.1178
C10 C 0.6206(4) 0.7377(10) 0.0900(3)
H7 H 0.6575 0.7075 0.0628
C11 C 0.5511(4) 0.6492(7) 0.0963(2)
H8 H 0.5401 0.5586 0.0740
C12 C 0.4965(3) 0.6971(5) 0.13689(19)
C13 C 0.3843(3) 0.4866(5) 0.12493(18)
H9 H 0.4046 0.4771 0.0878
H10 H 0.3256 0.5051 0.1230
C14 C 0.3999(3) 0.3255(5) 0.15449(19)
H11 H 0.3816 0.3356 0.1921
H12 H 0.4583 0.3033 0.1549
C15 C 0.3555(3) 0.1808(5) 0.1275(2)
H13 H 0.3511 0.0912 0.1537
H14 H 0.3004 0.2157 0.1181
C16 C 0.3965(3) 0.1168(5) 0.07715(18)
H15 H 0.4527 0.0879 0.0857
H16 H 0.3975 0.2036 0.0497
C17 C 0.3527(3) -0.0355(5) 0.0536(2)
H17 H 0.3464 -0.1179 0.0822
H18 H 0.2985 -0.0037 0.0413
C18 C 0.3984(3) -0.1085(6) 0.0076(2)
H19 H 0.4525 -0.1409 0.0201
H20 H 0.4051 -0.0258 -0.0208
loop_
_geom_bond_atom_site_label_1
_geom_bond_atom_site_label_2
_geom_bond_site_symmetry_1
_geom_bond_site_symmetry_2
Br1 C18 1_555 1_555
N1 C1 1_555 1_555
C1 C2 1_555 1_555
C2 H1 1_555 1_555
C3 C2 1_555 1_555
H2 C3 1_555 1_555
C4 C3 1_555 1_555
H3 C4 1_555 1_555
C5 C4 1_555 1_555
H4 C5 1_555 1_555
C6 C1 1_555 1_555
C7 C6 1_555 1_555
C8 C7 1_555 1_555
H5 C8 1_555 1_555
C9 C8 1_555 1_555
H6 C9 1_555 1_555
C10 C9 1_555 1_555
H7 C10 1_555 1_555
C11 C10 1_555 1_555
H8 C11 1_555 1_555
C12 N1 1_555 1_555
C13 N1 1_555 1_555
H9 C13 1_555 1_555
H10 C13 1_555 1_555
C14 C13 1_555 1_555
H11 C14 1_555 1_555
H12 C14 1_555 1_555
C15 C14 1_555 1_555
H13 C15 1_555 1_555
H14 C15 1_555 1_555
C16 C15 1_555 1_555
H15 C16 1_555 1_555
H16 C16 1_555 1_555
C17 C16 1_555 1_555
H17 C17 1_555 1_555
H18 C17 1_555 1_555
C18 C17 1_555 1_555
H19 C18 1_555 1_555
H20 C18 1_555 1_555
C5 C6 1_555 1_555
C7 C12 1_555 1_555
C11 C12 1_555 1_555

#END
