
#######################################################################
#
#                 Cambridge Crystallographic Data Centre
#                                CCDC 
#
#######################################################################
#
# If this CIF has been generated from an entry in the Cambridge 
# Structural Database, then it will include bibliographic, chemical, 
# crystal, experimental, refinement or atomic coordinate data resulting 
# from the CCDC's data processing and validation procedures.
#
#######################################################################

data_SURQED
_chemical_formula_moiety         'C23 H22 Br1 N1 O1'
_chemical_name_systematic        9-(5-(4-bromophenoxy)pentyl)-9H-carbazole
_symmetry_cell_setting           monoclinic
_symmetry_space_group_name_H-M   'C 2/c'
_symmetry_Int_Tables_number      15
_space_group_name_Hall           '-C 2yn'
loop_
_symmetry_equiv_pos_site_id
_symmetry_equiv_pos_as_xyz
1 x,y,z
2 -x,y,1/2-z
3 1/2+x,1/2+y,z
4 1/2-x,1/2+y,1/2-z
5 -x,-y,-z
6 x,-y,1/2+z
7 1/2-x,1/2-y,-z
8 1/2+x,1/2-y,1/2+z
_cell_length_a                   18.368(4)
_cell_length_b                   9.0221(18)
_cell_length_c                   23.995(5)
_cell_angle_alpha                90
_cell_angle_beta                 102.82(3)
_cell_angle_gamma                90
_cell_volume                     3877.28
_exptl_crystal_colour            colorless
_exptl_crystal_description       block
_cell_formula_units_Z            8
loop_
_atom_site_label
_atom_site_type_symbol
_atom_site_fract_x
_atom_site_fract_y
_atom_site_fract_z
Br1 Br 1.05631(3) -0.06860(6) 1.116258(19)
O1 O 0.76237(16) 0.0585(2) 0.95542(10)
N1 N 0.67882(17) 0.2158(3) 0.70882(11)
C1 C 0.6979(2) 0.0796(3) 0.63378(13)
C2 C 0.7550(2) 0.2130(3) 0.71253(13)
C3 C 0.7690(2) 0.1292(3) 0.66638(13)
C4 C 0.6433(2) 0.1345(3) 0.66138(13)
C5 C 0.6191(2) 0.1988(4) 0.79196(15)
H1 H 0.5893 0.2570 0.8126
H2 H 0.5879 0.1185 0.7731
C6 C 0.6840(2) 0.1328(4) 0.83464(14)
H3 H 0.7127 0.2125 0.8561
H4 H 0.7162 0.0812 0.8140
C7 C 0.8127(2) 0.2768(4) 0.75260(15)
H5 H 0.8031 0.3323 0.7829
C8 C 0.5688(2) 0.1042(4) 0.64133(16)
H6 H 0.5333 0.1396 0.6603
C9 C 0.7243(2) -0.0501(4) 0.91583(16)
H7 H 0.7059 -0.1295 0.9362
H8 H 0.7582 -0.0921 0.8943
C10 C 0.6004(3) -0.0335(4) 0.56438(17)
H9 H 0.5846 -0.0895 0.5314
C11 C 0.6751(2) -0.0059(4) 0.58422(15)
H10 H 0.7100 -0.0434 0.5651
C12 C 0.8283(2) 0.0196(4) 0.99060(14)
C13 C 0.8990(2) 0.1730(4) 0.70074(19)
H11 H 0.9482 0.1602 0.6976
C14 C 0.9643(2) -0.0326(4) 1.06454(15)
C15 C 0.8840(2) 0.2553(4) 0.74594(17)
H12 H 0.9236 0.2969 0.7723
C16 C 0.8421(2) 0.1103(4) 0.66078(16)
H13 H 0.8524 0.0561 0.6305
C17 C 0.6401(2) 0.2961(4) 0.74659(15)
H14 H 0.5952 0.3406 0.7238
H15 H 0.6720 0.3757 0.7651
C18 C 0.8645(2) 0.1314(4) 1.02527(15)
H16 H 0.8427 0.2247 1.0238
C19 C 0.8608(3) -0.1201(4) 0.99355(17)
H17 H 0.8370 -0.1966 0.9706
C20 C 0.9321(2) 0.1069(4) 1.06185(16)
H18 H 0.9563 0.1833 1.0847
C21 C 0.5481(2) 0.0208(5) 0.59277(17)
H19 H 0.4978 0.0002 0.5785
C22 C 0.6606(2) 0.0255(4) 0.87635(16)
H20 H 0.6318 0.0793 0.8991
H21 H 0.6283 -0.0494 0.8548
C23 C 0.9283(3) -0.1445(4) 1.03047(18)
H22 H 0.9499 -0.2381 1.0325
loop_
_geom_bond_atom_site_label_1
_geom_bond_atom_site_label_2
_geom_bond_site_symmetry_1
_geom_bond_site_symmetry_2
Br1 C14 1_555 1_555
O1 C9 1_555 1_555
N1 C2 1_555 1_555
C1 C3 1_555 1_555
C2 C3 1_555 1_555
C3 C16 1_555 1_555
C4 N1 1_555 1_555
C5 H1 1_555 1_555
H2 C5 1_555 1_555
C6 C5 1_555 1_555
H3 C6 1_555 1_555
H4 C6 1_555 1_555
C7 C2 1_555 1_555
H5 C7 1_555 1_555
C8 C4 1_555 1_555
H6 C8 1_555 1_555
C9 H7 1_555 1_555
H8 C9 1_555 1_555
C10 H9 1_555 1_555
C11 C1 1_555 1_555
H10 C11 1_555 1_555
C12 O1 1_555 1_555
C13 H11 1_555 1_555
C14 C20 1_555 1_555
C15 C7 1_555 1_555
H12 C15 1_555 1_555
C16 C13 1_555 1_555
H13 C16 1_555 1_555
C17 N1 1_555 1_555
H14 C17 1_555 1_555
H15 C17 1_555 1_555
C18 C12 1_555 1_555
H16 C18 1_555 1_555
C19 C12 1_555 1_555
H17 C19 1_555 1_555
C20 C18 1_555 1_555
H18 C20 1_555 1_555
C21 C8 1_555 1_555
H19 C21 1_555 1_555
C22 C6 1_555 1_555
H20 C22 1_555 1_555
H21 C22 1_555 1_555
C23 C14 1_555 1_555
H22 C23 1_555 1_555
C1 C4 1_555 1_555
C5 C17 1_555 1_555
C9 C22 1_555 1_555
C10 C11 1_555 1_555
C10 C21 1_555 1_555
C13 C15 1_555 1_555
C19 C23 1_555 1_555

#END
