
#######################################################################
#
#                 Cambridge Crystallographic Data Centre
#                                CCDC 
#
#######################################################################
#
# If this CIF has been generated from an entry in the Cambridge 
# Structural Database, then it will include bibliographic, chemical, 
# crystal, experimental, refinement or atomic coordinate data resulting 
# from the CCDC's data processing and validation procedures.
#
#######################################################################

data_SURREE
_chemical_formula_moiety         'C29 H32 B2 F4 N4'
_chemical_name_systematic        
(7-ethyl-2-[(4-ethyl-3,5-dimethyl-2H-pyrrol-2-ylidene)methyl]-10,10-difluoro-6,8-dimethyl-10,12-dihydro-1H-pyrrolo[1,2-c]pyrrolo[2'',3'':4',5']cyclopenta[1',2':4,5]pyrrolo[2,1-f][1,3,2]diazaborinin-9-iumato)(difluoro)boron
_symmetry_cell_setting           orthorhombic
_symmetry_space_group_name_H-M   'C m c 21'
_symmetry_Int_Tables_number      36
_space_group_name_Hall           'C 2n -2'
loop_
_symmetry_equiv_pos_site_id
_symmetry_equiv_pos_as_xyz
1 x,y,z
2 -x,-y,1/2+z
3 x,-y,1/2+z
4 -x,y,z
5 1/2+x,1/2+y,z
6 1/2-x,1/2-y,1/2+z
7 1/2+x,1/2-y,1/2+z
8 1/2-x,1/2+y,z
_cell_length_a                   23.035(2)
_cell_length_b                   17.8506(18)
_cell_length_c                   7.0291(7)
_cell_angle_alpha                90
_cell_angle_beta                 90
_cell_angle_gamma                90
_cell_volume                     2890.29
_exptl_crystal_colour            colorless
_exptl_crystal_description       block
_cell_formula_units_Z            4
_chemical_properties_physical    Light-sensitive
_exptl_crystal_preparation       Luminescent
loop_
_atom_site_label
_atom_site_type_symbol
_atom_site_fract_x
_atom_site_fract_y
_atom_site_fract_z
B1 B 0.35267(19) 0.3468(2) 0.5826(5)
C1 C 0.45062(14) 0.37755(16) 0.4084(4)
C2 C 0.46837(14) 0.41534(17) 0.2426(5)
C3 C 0.41934(14) 0.43988(18) 0.1490(5)
H1 H 0.4178 0.4664 0.0351
C4 C 0.37202(15) 0.41664(16) 0.2610(5)
C5 C 0.31249(16) 0.42672(18) 0.2335(5)
H2 H 0.3000 0.4520 0.1254
C6 C 0.27153(15) 0.40074(18) 0.3602(5)
C7 C 0.20992(15) 0.4037(2) 0.3601(6)
C8 C 0.19090(17) 0.36989(19) 0.5249(7)
C9 C 0.24122(15) 0.34525(19) 0.6251(6)
C10 C 0.17381(19) 0.4354(3) 0.2044(8)
H3 H 0.1563 0.3954 0.1336
H4 H 0.1978 0.4648 0.1213
H5 H 0.1440 0.4666 0.2577
C11 C 0.13085(18) 0.3602(3) 0.5940(9)
H6 H 0.1069 0.3995 0.5398
H7 H 0.1306 0.3666 0.7311
C12 C 0.1037(3) 0.2851(4) 0.5465(11)
H8 H 0.1028 0.2786 0.4109
H9 H 0.0649 0.2833 0.5958
H10 H 0.1264 0.2457 0.6026
C13 C 0.2445(2) 0.3041(3) 0.8089(7)
H11 H 0.2559 0.2532 0.7857
H12 H 0.2072 0.3048 0.8695
H13 H 0.2725 0.3278 0.8901
C14 C 0.5000 0.3451(2) 0.5267(6)
C15 C 0.5000 0.2587(3) 0.5136(10)
C16 C 0.5000 0.3692(3) 0.7353(8)
F1 F 0.36083(9) 0.27007(12) 0.5969(4)
F2 F 0.36504(11) 0.38021(15) 0.7529(3)
N1 N 0.39246(12) 0.37837(13) 0.4231(4)
N2 N 0.28941(13) 0.36335(15) 0.5261(4)
H14 H 0.5000 0.244(3) 0.381(4)
H15 H 0.4750(18) 0.237(3) 0.605(7)
H16 H 0.4668(13) 0.352(2) 0.807(6)
H17 H 0.5000 0.4227(15) 0.75(3)
B1C B 0.64733(19) 0.3468(2) 0.5826(5)
C1C C 0.54938(14) 0.37755(16) 0.4084(4)
C2C C 0.53163(14) 0.41534(17) 0.2426(5)
C3C C 0.58066(14) 0.43988(18) 0.1490(5)
H1C H 0.5822 0.4664 0.0351
C4C C 0.62798(15) 0.41664(16) 0.2610(5)
C5C C 0.68751(16) 0.42672(18) 0.2335(5)
H2C H 0.7000 0.4520 0.1254
C6C C 0.72847(15) 0.40074(18) 0.3602(5)
C7C C 0.79008(15) 0.4037(2) 0.3601(6)
C8C C 0.80910(17) 0.36989(19) 0.5249(7)
C9C C 0.75878(15) 0.34525(19) 0.6251(6)
C10C C 0.82619(19) 0.4354(3) 0.2044(8)
H3C H 0.8437 0.3954 0.1336
H4C H 0.8022 0.4648 0.1213
H5C H 0.8560 0.4666 0.2577
C11C C 0.86915(18) 0.3602(3) 0.5940(9)
H6C H 0.8931 0.3995 0.5398
H7C H 0.8694 0.3666 0.7311
C12C C 0.8963(3) 0.2851(4) 0.5465(11)
H8C H 0.8972 0.2786 0.4109
H9C H 0.9351 0.2833 0.5958
H10C H 0.8736 0.2457 0.6026
C13C C 0.7555(2) 0.3041(3) 0.8089(7)
H11C H 0.7441 0.2532 0.7857
H12C H 0.7928 0.3048 0.8695
H13C H 0.7275 0.3278 0.8901
F1C F 0.63917(9) 0.27007(12) 0.5969(4)
F2C F 0.63496(11) 0.38021(15) 0.7529(3)
N1C N 0.60754(12) 0.37837(13) 0.4231(4)
N2C N 0.71059(13) 0.36335(15) 0.5261(4)
H15C H 0.5250(18) 0.237(3) 0.605(7)
H16C H 0.5332(13) 0.352(2) 0.807(6)
loop_
_geom_bond_atom_site_label_1
_geom_bond_atom_site_label_2
_geom_bond_site_symmetry_1
_geom_bond_site_symmetry_2
B1 F1 1_555 1_555
C1 C2 1_555 1_555
C2 C3 1_555 1_555
C3 H1 1_555 1_555
C4 C3 1_555 1_555
C5 C4 1_555 1_555
H2 C5 1_555 1_555
C6 C5 1_555 1_555
C7 C6 1_555 1_555
C8 C7 1_555 1_555
C9 C8 1_555 1_555
C10 C7 1_555 1_555
H3 C10 1_555 1_555
H4 C10 1_555 1_555
H5 C10 1_555 1_555
C11 C8 1_555 1_555
H6 C11 1_555 1_555
H7 C11 1_555 1_555
C12 C11 1_555 1_555
H8 C12 1_555 1_555
H9 C12 1_555 1_555
H10 C12 1_555 1_555
C13 C9 1_555 1_555
H11 C13 1_555 1_555
H12 C13 1_555 1_555
H13 C13 1_555 1_555
C14 C1 1_555 1_555
C15 C14 1_555 1_555
C16 C14 1_555 1_555
F2 B1 1_555 1_555
N1 B1 1_555 1_555
N2 B1 1_555 1_555
H14 C15 1_555 1_555
H15 C15 1_555 1_555
H16 C16 1_555 1_555
H17 C16 1_555 1_555
B1C F1C 1_555 1_555
C1C C14 1_555 1_555
C2C C2 1_555 1_555
C3C C2C 1_555 1_555
H1C C3C 1_555 1_555
C4C C3C 1_555 1_555
C5C C4C 1_555 1_555
H2C C5C 1_555 1_555
C6C C5C 1_555 1_555
C7C C6C 1_555 1_555
C8C C7C 1_555 1_555
C9C C8C 1_555 1_555
C10C C7C 1_555 1_555
H3C C10C 1_555 1_555
H4C C10C 1_555 1_555
H5C C10C 1_555 1_555
C11C C8C 1_555 1_555
H6C C11C 1_555 1_555
H7C C11C 1_555 1_555
C12C C11C 1_555 1_555
H8C C12C 1_555 1_555
H9C C12C 1_555 1_555
H10C C12C 1_555 1_555
C13C C9C 1_555 1_555
H11C C13C 1_555 1_555
H12C C13C 1_555 1_555
H13C C13C 1_555 1_555
F2C B1C 1_555 1_555
N1C B1C 1_555 1_555
N2C B1C 1_555 1_555
H15C C15 1_555 1_555
H16C C16 1_555 1_555
C1 N1 1_555 1_555
C4 N1 1_555 1_555
C6 N2 1_555 1_555
C9 N2 1_555 1_555
C1C C2C 1_555 1_555
C1C N1C 1_555 1_555
C4C N1C 1_555 1_555
C6C N2C 1_555 1_555
C9C N2C 1_555 1_555

#END
