
#######################################################################
#
#                 Cambridge Crystallographic Data Centre
#                                CCDC 
#
#######################################################################
#
# If this CIF has been generated from an entry in the Cambridge 
# Structural Database, then it will include bibliographic, chemical, 
# crystal, experimental, refinement or atomic coordinate data resulting 
# from the CCDC's data processing and validation procedures.
#
#######################################################################

data_SURRAA
_chemical_formula_moiety         'C29 H34 B2 F4 N4'
_chemical_name_systematic        
2,2-bis((2-[(4-ethyl-3,5-dimethyl-2H-pyrrol-2-ylidene)methyl]-1H-pyrrolato)(difluoro)boron-5-yl)propane
_symmetry_cell_setting           monoclinic
_symmetry_space_group_name_H-M   'C 2/c'
_symmetry_Int_Tables_number      15
_space_group_name_Hall           '-C 2yn'
loop_
_symmetry_equiv_pos_site_id
_symmetry_equiv_pos_as_xyz
1 x,y,z
2 -x,y,1/2-z
3 1/2+x,1/2+y,z
4 1/2-x,1/2+y,1/2-z
5 -x,-y,-z
6 x,-y,1/2+z
7 1/2-x,1/2-y,-z
8 1/2+x,1/2-y,1/2+z
_cell_length_a                   26.145(4)
_cell_length_b                   7.6970(12)
_cell_length_c                   14.341(2)
_cell_angle_alpha                90
_cell_angle_beta                 101.917(2)
_cell_angle_gamma                90
_cell_volume                     2823.76
_exptl_crystal_colour            colorless
_exptl_crystal_description       block
_cell_formula_units_Z            4
_chemical_properties_physical    Light-sensitive
_exptl_crystal_preparation       Luminescent
loop_
_atom_site_label
_atom_site_type_symbol
_atom_site_fract_x
_atom_site_fract_y
_atom_site_fract_z
B1 B 0.41498(12) 1.0688(4) 0.21822(18)
C1 C 0.48193(8) 1.2854(3) 0.32618(15)
C2 C 0.49751(10) 1.3151(3) 0.42423(17)
H1 H 0.5213 1.3989 0.4529
C3 C 0.47187(10) 1.1999(3) 0.47055(16)
H2 H 0.4748 1.1912 0.5361
C4 C 0.44039(8) 1.0976(3) 0.40122(14)
C5 C 0.41090(9) 0.9533(3) 0.41367(15)
H3 H 0.4101 0.9177 0.4753
C6 C 0.38296(9) 0.8610(3) 0.33866(15)
C7 C 0.35111(11) 0.7114(3) 0.3348(2)
C8 C 0.33079(11) 0.6791(4) 0.2408(2)
C9 C 0.35027(10) 0.8094(3) 0.18740(18)
C10 C 0.33874(14) 0.8301(5) 0.0820(2)
H4 H 0.3193 0.9352 0.0650
H5 H 0.3186 0.7327 0.0530
H6 H 0.3709 0.8358 0.0598
C11 C 0.29511(15) 0.5329(5) 0.1973(3)
H7 H 0.3033 0.4999 0.1367
H8 H 0.3009 0.4326 0.2391
C12 C 0.24010(17) 0.5854(7) 0.1824(4)
H9 H 0.2310 0.6058 0.2430
H10 H 0.2184 0.4949 0.1494
H11 H 0.2349 0.6900 0.1452
C13 C 0.34306(16) 0.6093(5) 0.4200(3)
H12 H 0.3553 0.4926 0.4157
H13 H 0.3065 0.6073 0.4214
H14 H 0.3622 0.6628 0.4771
C14 C 0.5000 1.3915(4) 0.2500
C15 C 0.45414(12) 1.5116(3) 0.2048(2)
H15 H 0.4654 1.5897 0.1609
H16 H 0.4430 1.5771 0.2540
H17 H 0.4256 1.4424 0.1715
F1 F 0.44765(8) 1.0003(3) 0.16483(13)
F2 F 0.38262(10) 1.1856(3) 0.16512(15)
N1 N 0.44614(6) 1.1541(2) 0.31132(11)
N2 N 0.38186(7) 0.9174(2) 0.24605(12)
B1A B 0.58502(12) 1.0688(4) 0.28178(18)
C1A C 0.51807(8) 1.2854(3) 0.17382(15)
C2A C 0.50249(10) 1.3151(3) 0.07577(17)
H1A H 0.4787 1.3989 0.0471
C3A C 0.52813(10) 1.1999(3) 0.02945(16)
H2A H 0.5252 1.1912 -0.0361
C4A C 0.55961(8) 1.0976(3) 0.09878(14)
C5A C 0.58910(9) 0.9533(3) 0.08633(15)
H3A H 0.5899 0.9177 0.0247
C6A C 0.61704(9) 0.8610(3) 0.16134(15)
C7A C 0.64889(11) 0.7114(3) 0.1652(2)
C8A C 0.66921(11) 0.6791(4) 0.2592(2)
C9A C 0.64973(10) 0.8094(3) 0.31260(18)
C10A C 0.66126(14) 0.8301(5) 0.4180(2)
H4A H 0.6807 0.9352 0.4350
H5A H 0.6814 0.7327 0.4470
H6A H 0.6291 0.8358 0.4402
C11A C 0.70489(15) 0.5329(5) 0.3027(3)
H7A H 0.6967 0.4999 0.3633
H8A H 0.6991 0.4326 0.2609
C12A C 0.75990(17) 0.5854(7) 0.3176(4)
H9A H 0.7690 0.6058 0.2570
H10A H 0.7816 0.4949 0.3506
H11A H 0.7651 0.6900 0.3548
C13A C 0.65694(16) 0.6093(5) 0.0800(3)
H12A H 0.6447 0.4926 0.0843
H13A H 0.6935 0.6073 0.0786
H14A H 0.6378 0.6628 0.0229
C15A C 0.54586(12) 1.5116(3) 0.2952(2)
H15A H 0.5346 1.5897 0.3391
H16A H 0.5570 1.5771 0.2460
H17A H 0.5744 1.4424 0.3285
F1A F 0.55235(8) 1.0003(3) 0.33517(13)
F2A F 0.61738(10) 1.1856(3) 0.33488(15)
N1A N 0.55386(6) 1.1541(2) 0.18868(11)
N2A N 0.61814(7) 0.9174(2) 0.25395(12)
loop_
_geom_bond_atom_site_label_1
_geom_bond_atom_site_label_2
_geom_bond_site_symmetry_1
_geom_bond_site_symmetry_2
B1 F1 1_555 1_555
C1 C2 1_555 1_555
C2 H1 1_555 1_555
C3 C2 1_555 1_555
H2 C3 1_555 1_555
C4 C3 1_555 1_555
C5 C4 1_555 1_555
H3 C5 1_555 1_555
C6 C5 1_555 1_555
C7 C6 1_555 1_555
C8 C7 1_555 1_555
C9 C8 1_555 1_555
C10 C9 1_555 1_555
H4 C10 1_555 1_555
H5 C10 1_555 1_555
H6 C10 1_555 1_555
C11 C8 1_555 1_555
H7 C11 1_555 1_555
H8 C11 1_555 1_555
C12 C11 1_555 1_555
H9 C12 1_555 1_555
H10 C12 1_555 1_555
H11 C12 1_555 1_555
C13 C7 1_555 1_555
H12 C13 1_555 1_555
H13 C13 1_555 1_555
H14 C13 1_555 1_555
C14 C1 1_555 1_555
C15 C14 1_555 1_555
H15 C15 1_555 1_555
H16 C15 1_555 1_555
H17 C15 1_555 1_555
F2 B1 1_555 1_555
N1 B1 1_555 1_555
N2 B1 1_555 1_555
B1A F1A 1_555 1_555
C1A C14 1_555 1_555
C2A C1A 1_555 1_555
H1A C2A 1_555 1_555
C3A C2A 1_555 1_555
H2A C3A 1_555 1_555
C4A C3A 1_555 1_555
C5A C4A 1_555 1_555
H3A C5A 1_555 1_555
C6A C5A 1_555 1_555
C7A C6A 1_555 1_555
C8A C7A 1_555 1_555
C9A C8A 1_555 1_555
C10A C9A 1_555 1_555
H4A C10A 1_555 1_555
H5A C10A 1_555 1_555
H6A C10A 1_555 1_555
C11A C8A 1_555 1_555
H7A C11A 1_555 1_555
H8A C11A 1_555 1_555
C12A C11A 1_555 1_555
H9A C12A 1_555 1_555
H10A C12A 1_555 1_555
H11A C12A 1_555 1_555
C13A C7A 1_555 1_555
H12A C13A 1_555 1_555
H13A C13A 1_555 1_555
H14A C13A 1_555 1_555
C15A C14 1_555 1_555
H15A C15A 1_555 1_555
H16A C15A 1_555 1_555
H17A C15A 1_555 1_555
F2A B1A 1_555 1_555
N1A B1A 1_555 1_555
N2A B1A 1_555 1_555
C1 N1 1_555 1_555
C4 N1 1_555 1_555
C6 N2 1_555 1_555
C9 N2 1_555 1_555
C1A N1A 1_555 1_555
C4A N1A 1_555 1_555
C6A N2A 1_555 1_555
C9A N2A 1_555 1_555

#END
