
#######################################################################
#
#                 Cambridge Crystallographic Data Centre
#                                CCDC 
#
#######################################################################
#
# If this CIF has been generated from an entry in the Cambridge 
# Structural Database, then it will include bibliographic, chemical, 
# crystal, experimental, refinement or atomic coordinate data resulting 
# from the CCDC's data processing and validation procedures.
#
#######################################################################

data_SURVAD
_chemical_formula_moiety         'C15 H17 N1 O2 S1'
_chemical_name_systematic        
6,7-bis(Methylene)-3-((4-methylphenyl)sulfonyl)-3-azabicyclo[3.1.1]heptane
_symmetry_cell_setting           monoclinic
_symmetry_space_group_name_H-M   'P 21/a'
_symmetry_Int_Tables_number      14
_space_group_name_Hall           '-P 2yab'
loop_
_symmetry_equiv_pos_site_id
_symmetry_equiv_pos_as_xyz
1 x,y,z
2 1/2-x,1/2+y,-z
3 -x,-y,-z
4 1/2+x,1/2-y,z
_cell_length_a                   13.7417(8)
_cell_length_b                   7.4893(4)
_cell_length_c                   14.6466(9)
_cell_angle_alpha                90
_cell_angle_beta                 105.816(3)
_cell_angle_gamma                90
_cell_volume                     1450.3
_exptl_crystal_colour            colorless
_exptl_crystal_description       needle
_cell_formula_units_Z            4
loop_
_atom_site_label
_atom_site_type_symbol
_atom_site_fract_x
_atom_site_fract_y
_atom_site_fract_z
S1 S 0.14728(4) 0.15672(8) 0.27577(4)
O1 O 0.13339(14) 0.3272(2) 0.22950(13)
O2 O 0.06766(11) 0.0813(3) 0.30880(12)
N1 N 0.17209(12) 0.0155(2) 0.20115(11)
C1 C 0.5222(2) 0.1939(4) 0.61038(19)
H1 H 0.5719 0.2686 0.5945
H2 H 0.5491 0.0758 0.6249
H3 H 0.5049 0.2424 0.6646
C2 C 0.42825(18) 0.1857(3) 0.52696(16)
C3 C 0.34567(19) 0.0873(3) 0.53224(15)
H4 H 0.3476 0.0259 0.5879
C4 C 0.25947(17) 0.0773(3) 0.45656(15)
H5 H 0.2047 0.0086 0.4613
C5 C 0.25549(15) 0.1700(3) 0.37401(14)
C6 C 0.33759(17) 0.2721(3) 0.36785(15)
H6 H 0.3350 0.3364 0.3129
C7 C 0.42315(18) 0.2780(3) 0.44365(16)
H7 H 0.4784 0.3452 0.4388
C8 C 0.17745(17) -0.1745(3) 0.22761(14)
H8 H 0.1148 -0.2108 0.2406
H9 H 0.2323 -0.1934 0.2845
C9 C 0.19521(17) -0.2856(3) 0.14605(15)
H10 H 0.1851 -0.4148 0.1492
C10 C 0.14489(16) -0.1949(3) 0.05146(14)
C11 C 0.29305(17) -0.2258(4) 0.12737(15)
C12 C 0.23646(17) -0.0734(4) 0.06778(15)
H11 H 0.2581 -0.0411 0.0115
C13 C 0.2270(2) 0.0798(3) 0.13357(16)
H12 H 0.2937 0.1217 0.1680
H13 H 0.1905 0.1784 0.0967
C14 C 0.0662(2) -0.2286(4) -0.02055(19)
H14 H 0.0587 -0.1701 -0.0780
H15 H 0.0179 -0.3111 -0.0141
C15 C 0.3848(2) -0.2900(6) 0.14520(19)
H16 H 0.4005 -0.3983 0.1768
H17 H 0.4344 -0.2273 0.1262
loop_
_geom_bond_atom_site_label_1
_geom_bond_atom_site_label_2
_geom_bond_site_symmetry_1
_geom_bond_site_symmetry_2
S1 O1 1_555 1_555
O2 S1 1_555 1_555
N1 S1 1_555 1_555
C1 H1 1_555 1_555
H2 C1 1_555 1_555
H3 C1 1_555 1_555
C2 C1 1_555 1_555
C3 C2 1_555 1_555
H4 C3 1_555 1_555
C4 C3 1_555 1_555
H5 C4 1_555 1_555
C5 S1 1_555 1_555
C6 C5 1_555 1_555
H6 C6 1_555 1_555
C7 C2 1_555 1_555
H7 C7 1_555 1_555
C8 N1 1_555 1_555
H8 C8 1_555 1_555
H9 C8 1_555 1_555
C9 C8 1_555 1_555
H10 C9 1_555 1_555
C10 C9 1_555 1_555
C11 C9 1_555 1_555
C12 C10 1_555 1_555
H11 C12 1_555 1_555
C13 N1 1_555 1_555
H12 C13 1_555 1_555
H13 C13 1_555 1_555
C14 C10 1_555 1_555
H14 C14 1_555 1_555
H15 C14 1_555 1_555
C15 C11 1_555 1_555
H16 C15 1_555 1_555
H17 C15 1_555 1_555
C4 C5 1_555 1_555
C6 C7 1_555 1_555
C11 C12 1_555 1_555
C12 C13 1_555 1_555

#END
