
#######################################################################
#
#                 Cambridge Crystallographic Data Centre
#                                CCDC 
#
#######################################################################
#
# If this CIF has been generated from an entry in the Cambridge 
# Structural Database, then it will include bibliographic, chemical, 
# crystal, experimental, refinement or atomic coordinate data resulting 
# from the CCDC's data processing and validation procedures.
#
#######################################################################

data_SURVEH
_chemical_formula_moiety         'C18 H28 O5'
_chemical_name_systematic        
7-Methoxy-9-methyl-5-propyl-4,15-dioxabicyclo[9.3.1]pentadec-9-ene-3,13-dione
_symmetry_cell_setting           orthorhombic
_symmetry_space_group_name_H-M   'P 21 21 21'
_symmetry_Int_Tables_number      19
_space_group_name_Hall           'P 2ac 2ab'
loop_
_symmetry_equiv_pos_site_id
_symmetry_equiv_pos_as_xyz
1 x,y,z
2 1/2-x,-y,1/2+z
3 -x,1/2+y,1/2-z
4 1/2+x,1/2-y,-z
_cell_length_a                   7.161(3)
_cell_length_b                   9.809(3)
_cell_length_c                   26.000(9)
_cell_angle_alpha                90
_cell_angle_beta                 90
_cell_angle_gamma                90
_cell_volume                     1826.3
_exptl_crystal_colour            colorless
_exptl_crystal_description       block
_cell_formula_units_Z            4
loop_
_atom_site_label
_atom_site_type_symbol
_atom_site_fract_x
_atom_site_fract_y
_atom_site_fract_z
O1 O 0.6445(7) 0.2830(5) 0.81117(19)
O2 O 0.4634(6) 0.2303(4) 0.91916(17)
O3 O 0.6046(9) 0.6556(6) 0.8789(2)
O4 O 0.0671(8) -0.0539(6) 0.9222(2)
O5 O 0.8956(8) 0.2759(6) 0.8611(2)
C1 C 0.6937(12) 0.4175(8) 0.7920(3)
H1 H 0.8090 0.4491 0.8084
C2 C 0.5329(11) 0.5107(8) 0.8065(3)
H2 H 0.4178 0.4726 0.7930
H3 H 0.5516 0.5988 0.7903
C3 C 0.5123(10) 0.5310(8) 0.8645(3)
H4 H 0.5725 0.4547 0.8823
C4 C 0.3112(10) 0.5415(8) 0.8824(3)
H5 H 0.2637 0.6308 0.8732
H6 H 0.2376 0.4743 0.8641
C5 C 0.2836(10) 0.5207(9) 0.9390(3)
C6 C 0.2697(10) 0.3988(8) 0.9588(3)
H7 H 0.2572 0.3937 0.9943
C7 C 0.2719(10) 0.2665(7) 0.9301(3)
H8 H 0.2065 0.2795 0.8974
C8 C 0.1778(11) 0.1500(8) 0.9591(3)
H9 H 0.2341 0.1407 0.9928
H10 H 0.0464 0.1708 0.9637
C9 C 0.1970(13) 0.0201(9) 0.9306(3)
C10 C 0.3886(11) -0.0081(7) 0.9104(3)
H11 H 0.3832 -0.0824 0.8858
H12 H 0.4693 -0.0356 0.9385
C11 C 0.4689(10) 0.1175(8) 0.8845(3)
H13 H 0.3937 0.1391 0.8541
C12 C 0.6699(9) 0.1006(7) 0.8684(3)
H14 H 0.7427 0.0717 0.8980
H15 H 0.6776 0.0293 0.8427
C13 C 0.7525(13) 0.2281(9) 0.8472(3)
C14 C 0.7213(13) 0.4073(9) 0.7343(3)
H16 H 0.7404 0.4983 0.7207
H17 H 0.6077 0.3716 0.7191
C15 C 0.8838(16) 0.3181(10) 0.7177(3)
H18 H 0.8640 0.2267 0.7309
H19 H 0.8842 0.3124 0.6804
C16 C 1.0689(13) 0.3664(11) 0.7349(4)
H20 H 1.1632 0.3032 0.7240
H21 H 1.0702 0.3730 0.7718
H22 H 1.0937 0.4544 0.7203
C17 C 0.7716(16) 0.6439(10) 0.9028(4)
H23 H 0.8192 0.7330 0.9105
H24 H 0.8576 0.5971 0.8806
H25 H 0.7565 0.5932 0.9341
C18 C 0.2793(12) 0.6464(7) 0.9713(3)
H26 H 0.2657 0.6214 1.0068
H27 H 0.1758 0.7024 0.9611
H28 H 0.3936 0.6961 0.9668
loop_
_geom_bond_atom_site_label_1
_geom_bond_atom_site_label_2
_geom_bond_site_symmetry_1
_geom_bond_site_symmetry_2
O1 C1 1_555 1_555
O2 C7 1_555 1_555
O3 C3 1_555 1_555
O4 C9 1_555 1_555
O5 C13 1_555 1_555
C1 H1 1_555 1_555
C2 C1 1_555 1_555
H2 C2 1_555 1_555
H3 C2 1_555 1_555
C3 C2 1_555 1_555
H4 C3 1_555 1_555
C4 C3 1_555 1_555
H5 C4 1_555 1_555
H6 C4 1_555 1_555
C5 C4 1_555 1_555
C6 C5 1_555 1_555
H7 C6 1_555 1_555
C7 C6 1_555 1_555
H8 C7 1_555 1_555
C8 C7 1_555 1_555
H9 C8 1_555 1_555
H10 C8 1_555 1_555
C9 C8 1_555 1_555
C10 C9 1_555 1_555
H11 C10 1_555 1_555
H12 C10 1_555 1_555
C11 O2 1_555 1_555
H13 C11 1_555 1_555
C12 C11 1_555 1_555
H14 C12 1_555 1_555
H15 C12 1_555 1_555
C13 O1 1_555 1_555
C14 C1 1_555 1_555
H16 C14 1_555 1_555
H17 C14 1_555 1_555
C15 C14 1_555 1_555
H18 C15 1_555 1_555
H19 C15 1_555 1_555
C16 C15 1_555 1_555
H20 C16 1_555 1_555
H21 C16 1_555 1_555
H22 C16 1_555 1_555
C17 O3 1_555 1_555
H23 C17 1_555 1_555
H24 C17 1_555 1_555
H25 C17 1_555 1_555
C18 C5 1_555 1_555
H26 C18 1_555 1_555
H27 C18 1_555 1_555
H28 C18 1_555 1_555
C10 C11 1_555 1_555
C12 C13 1_555 1_555

#END
