
#######################################################################
#
#                 Cambridge Crystallographic Data Centre
#                                CCDC 
#
#######################################################################
#
# If this CIF has been generated from an entry in the Cambridge 
# Structural Database, then it will include bibliographic, chemical, 
# crystal, experimental, refinement or atomic coordinate data resulting 
# from the CCDC's data processing and validation procedures.
#
#######################################################################

data_SURXIN
_chemical_formula_moiety         'C26 H32 B1 S1 1+,C1 F3 O3 S1 1-'
_chemical_name_systematic        
'(2-(Dimesitylboryl)phenyl)(dimethyl)sulfonium trifluoromethanesulfonate'
_symmetry_cell_setting           monoclinic
_symmetry_space_group_name_H-M   'P 21/c'
_symmetry_Int_Tables_number      14
_space_group_name_Hall           '-P 2ybc'
loop_
_symmetry_equiv_pos_site_id
_symmetry_equiv_pos_as_xyz
1 x,y,z
2 -x,1/2+y,1/2-z
3 -x,-y,-z
4 x,1/2-y,1/2+z
_cell_length_a                   8.5100(17)
_cell_length_b                   23.287(5)
_cell_length_c                   13.710(3)
_cell_angle_alpha                90
_cell_angle_beta                 99.22(3)
_cell_angle_gamma                90
_cell_volume                     2681.84
_exptl_crystal_colour            colorless
_exptl_crystal_description       block
_cell_formula_units_Z            4
loop_
_atom_site_label
_atom_site_type_symbol
_atom_site_fract_x
_atom_site_fract_y
_atom_site_fract_z
S1 S 0.39742(5) 0.702649(17) 0.34433(3)
C1 C 0.8390(2) 0.76658(8) 0.35650(14)
H1 H 0.8444 0.8046 0.3323
C2 C 0.7433(2) 0.66838(7) 0.33046(13)
C3 C 0.8568(2) 0.56265(8) 0.05786(14)
H2 H 0.9591 0.5486 0.0507
C4 C 0.4004(2) 0.62689(7) 0.36443(12)
C5 C 0.8294(2) 0.57975(7) 0.15070(13)
C6 C 0.3866(2) 0.50926(8) 0.37322(14)
H3 H 0.3806 0.4686 0.3753
C7 C 0.5553(2) 0.59991(8) 0.08004(14)
C8 C 0.3016(2) 0.60148(8) 0.42293(13)
H4 H 0.2381 0.6243 0.4588
C9 C 0.8974(2) 0.69842(8) 0.48715(14)
H5 H 0.9480 0.6890 0.5521
C10 C 0.6768(2) 0.59933(7) 0.16369(13)
C11 C 0.4986(2) 0.59532(7) 0.31119(12)
C12 C 0.8129(2) 0.65620(8) 0.42924(13)
C13 C 0.9647(2) 0.57481(9) 0.23607(14)
H6 H 1.0596 0.5603 0.2120
H7 H 0.9348 0.5483 0.2854
H8 H 0.9876 0.6127 0.2661
C14 C 0.6870(2) 0.74167(8) 0.19114(14)
H9 H 0.7117 0.7820 0.1799
H10 H 0.5713 0.7366 0.1827
H11 H 0.7306 0.7174 0.1435
C15 C 0.7598(2) 0.72472(8) 0.29459(13)
C16 C 0.8016(3) 0.59735(9) 0.47399(15)
H12 H 0.8574 0.5974 0.5423
H13 H 0.8506 0.5689 0.4355
H14 H 0.6895 0.5875 0.4732
C17 C 1.0039(3) 0.79870(9) 0.51650(17)
H15 H 0.9998 0.8352 0.4806
H16 H 1.1149 0.7861 0.5334
H17 H 0.9584 0.8038 0.5772
C18 C 0.4551(3) 0.73325(8) 0.46414(14)
H18 H 0.5696 0.7275 0.4854
H19 H 0.3961 0.7146 0.5111
H20 H 0.4313 0.7744 0.4616
C19 C 0.4848(2) 0.53549(8) 0.31510(13)
H21 H 0.5441 0.5123 0.2770
B1 B 0.6409(2) 0.62167(8) 0.26517(14)
C20 C 0.1886(2) 0.71726(9) 0.31909(16)
H22 H 0.1443 0.7022 0.2537
H23 H 0.1711 0.7588 0.3204
H24 H 0.1358 0.6988 0.3693
C21 C 0.2973(2) 0.54203(8) 0.42814(14)
H25 H 0.2328 0.5238 0.4695
C22 C 0.3882(2) 0.62014(10) 0.08523(15)
H26 H 0.3227 0.6168 0.0198
H27 H 0.3910 0.6603 0.1066
H28 H 0.3424 0.5964 0.1326
C23 C 0.9101(2) 0.75420(8) 0.45264(15)
C24 C 0.5893(2) 0.58396(9) -0.01200(14)
H29 H 0.5074 0.5858 -0.0678
C25 C 0.7398(3) 0.56540(8) -0.02448(14)
C26 C 0.7739(3) 0.54939(11) -0.12565(16)
H30 H 0.8854 0.5376 -0.1208
H31 H 0.7540 0.5826 -0.1698
H32 H 0.7044 0.5176 -0.1521
S2 S 0.34574(6) 0.64757(2) 0.70888(3)
F1 F 0.24385(19) 0.55718(6) 0.79445(11)
F2 F 0.14447(18) 0.56595(7) 0.64147(11)
O1 O 0.3888(2) 0.67060(6) 0.80664(11)
F3 F 0.06411(18) 0.62099(7) 0.74868(13)
O2 O 0.26244(18) 0.68731(7) 0.63819(11)
C27 C 0.1924(3) 0.59539(9) 0.72451(16)
O3 O 0.46564(19) 0.61378(7) 0.67385(14)
loop_
_geom_bond_atom_site_label_1
_geom_bond_atom_site_label_2
_geom_bond_site_symmetry_1
_geom_bond_site_symmetry_2
S1 C4 1_555 1_555
C1 H1 1_555 1_555
C2 C12 1_555 1_555
C3 H2 1_555 1_555
C4 C8 1_555 1_555
C5 C3 1_555 1_555
C6 H3 1_555 1_555
C7 C10 1_555 1_555
C8 H4 1_555 1_555
C9 H5 1_555 1_555
C10 C5 1_555 1_555
C11 C4 1_555 1_555
C12 C9 1_555 1_555
C13 C5 1_555 1_555
H6 C13 1_555 1_555
H7 C13 1_555 1_555
H8 C13 1_555 1_555
C14 H9 1_555 1_555
H10 C14 1_555 1_555
H11 C14 1_555 1_555
C15 C1 1_555 1_555
C16 C12 1_555 1_555
H12 C16 1_555 1_555
H13 C16 1_555 1_555
H14 C16 1_555 1_555
C17 H15 1_555 1_555
H16 C17 1_555 1_555
H17 C17 1_555 1_555
C18 S1 1_555 1_555
H18 C18 1_555 1_555
H19 C18 1_555 1_555
H20 C18 1_555 1_555
C19 C6 1_555 1_555
H21 C19 1_555 1_555
B1 C2 1_555 1_555
C20 S1 1_555 1_555
H22 C20 1_555 1_555
H23 C20 1_555 1_555
H24 C20 1_555 1_555
C21 C6 1_555 1_555
H25 C21 1_555 1_555
C22 C7 1_555 1_555
H26 C22 1_555 1_555
H27 C22 1_555 1_555
H28 C22 1_555 1_555
C23 C1 1_555 1_555
C24 C7 1_555 1_555
H29 C24 1_555 1_555
C25 C3 1_555 1_555
C26 C25 1_555 1_555
H30 C26 1_555 1_555
H31 C26 1_555 1_555
H32 C26 1_555 1_555
S2 O1 1_555 1_555
F1 C27 1_555 1_555
F2 C27 1_555 1_555
F3 C27 1_555 1_555
O2 S2 1_555 1_555
C27 S2 1_555 1_555
O3 S2 1_555 1_555
C2 C15 1_555 1_555
C8 C21 1_555 1_555
C9 C23 1_555 1_555
C10 B1 1_555 1_555
C11 C19 1_555 1_555
C11 B1 1_555 1_555
C14 C15 1_555 1_555
C17 C23 1_555 1_555
C24 C25 1_555 1_555

#END
