
#######################################################################
#
#                 Cambridge Crystallographic Data Centre
#                                CCDC 
#
#######################################################################
#
# If this CIF has been generated from an entry in the Cambridge 
# Structural Database, then it will include bibliographic, chemical, 
# crystal, experimental, refinement or atomic coordinate data resulting 
# from the CCDC's data processing and validation procedures.
#
#######################################################################

data_SUSDUG
_chemical_formula_moiety         'C30 H28 N4 O4'
_chemical_name_systematic        
(4-((2-(Ethyl(4-((4-nitrophenyl)diazenyl)phenyl)amino)ethoxy)methyl)phenyl)(phenyl)methanone
_symmetry_cell_setting           monoclinic
_symmetry_space_group_name_H-M   'P 21/c'
_symmetry_Int_Tables_number      14
_space_group_name_Hall           '-P 2ybc'
loop_
_symmetry_equiv_pos_site_id
_symmetry_equiv_pos_as_xyz
1 x,y,z
2 -x,1/2+y,1/2-z
3 -x,-y,-z
4 x,1/2-y,1/2+z
_cell_length_a                   18.180(17)
_cell_length_b                   7.739(7)
_cell_length_c                   20.67(2)
_cell_angle_alpha                90
_cell_angle_beta                 115.448(12)
_cell_angle_gamma                90
_cell_volume                     2626
_exptl_crystal_colour            red
_exptl_crystal_description       block
_cell_formula_units_Z            4
_exptl_crystal_recrystallization_method benzene
_exptl_crystal_preparation       fluorescent
loop_
_atom_site_label
_atom_site_type_symbol
_atom_site_fract_x
_atom_site_fract_y
_atom_site_fract_z
N1 N 0.81635(14) 0.3405(3) 0.46684(14)
N2 N 0.48243(14) 0.3126(3) 0.29056(13)
N3 N 0.43492(14) 0.3856(3) 0.31236(13)
N4 N 0.09901(17) 0.3130(4) 0.14058(19)
O1 O 0.87756(12) 0.3044(3) 0.35644(12)
O2 O 0.76882(16) 0.6135(4) -0.00580(15)
O3 O 0.07588(14) 0.2327(5) 0.08474(17)
O4 O 0.05243(15) 0.3798(4) 0.16132(17)
C1 C 0.87156(17) 0.2067(4) 0.46376(18)
H1 H 0.8395 0.1087 0.4372
H2 H 0.9057 0.1678 0.5121
C2 C 0.92561(18) 0.2651(5) 0.42929(18)
H3 H 0.9562 0.3665 0.4539
H4 H 0.9641 0.1743 0.4331
C3 C 0.92451(19) 0.3646(5) 0.32166(19)
H5 H 0.9580 0.2710 0.3181
H6 H 0.9605 0.4559 0.3501
C4 C 0.87227(18) 0.4317(4) 0.24854(18)
C5 C 0.78857(18) 0.4157(4) 0.21793(19)
H7 H 0.7631 0.3647 0.2437
C6 C 0.74244(19) 0.4753(4) 0.14920(18)
H8 H 0.6860 0.4651 0.1294
C7 C 0.7790(2) 0.5503(4) 0.10908(18)
C8 C 0.8635(2) 0.5663(5) 0.1406(2)
H9 H 0.8894 0.6159 0.1150
C9 C 0.9085(2) 0.5095(5) 0.2090(2)
H10 H 0.9648 0.5233 0.2295
C10 C 0.7325(2) 0.6003(4) 0.0322(2)
C11 C 0.6433(2) 0.6341(4) 0.00085(19)
C12 C 0.6067(2) 0.7162(4) 0.03904(19)
H11 H 0.6376 0.7453 0.0868
C13 C 0.5245(3) 0.7551(5) 0.0066(3)
H12 H 0.5003 0.8121 0.0321
C14 C 0.4794(3) 0.7095(6) -0.0628(3)
H13 H 0.4241 0.7357 -0.0846
C15 C 0.5143(3) 0.6247(6) -0.1015(2)
H14 H 0.4826 0.5920 -0.1487
C16 C 0.5962(3) 0.5893(5) -0.0696(2)
H15 H 0.6202 0.5345 -0.0957
C17 C 0.73494(16) 0.3408(4) 0.42248(16)
C18 C 0.68033(17) 0.4425(4) 0.43859(16)
H16 H 0.7006 0.5136 0.4788
C19 C 0.59819(17) 0.4383(4) 0.39625(17)
H17 H 0.5636 0.5057 0.4084
C20 C 0.56546(16) 0.3346(4) 0.33514(16)
C21 C 0.61947(17) 0.2419(4) 0.31712(17)
H18 H 0.5991 0.1770 0.2752
C22 C 0.70192(16) 0.2433(4) 0.35928(16)
H19 H 0.7362 0.1789 0.3457
C23 C 0.35111(16) 0.3578(4) 0.26629(16)
C24 C 0.29672(18) 0.4467(4) 0.28494(17)
H20 H 0.3164 0.5169 0.3254
C25 C 0.21399(18) 0.4323(4) 0.24426(18)
H21 H 0.1775 0.4923 0.2566
C26 C 0.18665(16) 0.3274(4) 0.18506(17)
C27 C 0.23937(18) 0.2385(4) 0.16512(18)
H22 H 0.2193 0.1700 0.1242
C28 C 0.32205(18) 0.2519(4) 0.20639(17)
H23 H 0.3582 0.1902 0.1942
C29 C 0.85209(19) 0.4639(4) 0.52579(17)
H24 H 0.8234 0.5730 0.5110
H25 H 0.9084 0.4838 0.5349
C30 C 0.8495(2) 0.4068(6) 0.59532(19)
H26 H 0.7941 0.3853 0.5868
H27 H 0.8719 0.4961 0.6307
H28 H 0.8809 0.3030 0.6123
loop_
_geom_bond_atom_site_label_1
_geom_bond_atom_site_label_2
_geom_bond_site_symmetry_1
_geom_bond_site_symmetry_2
N1 C1 1_555 1_555
N2 N3 1_555 1_555
N3 C23 1_555 1_555
N4 O3 1_555 1_555
O1 C2 1_555 1_555
O2 C10 1_555 1_555
O4 N4 1_555 1_555
C1 H1 1_555 1_555
H2 C1 1_555 1_555
C2 C1 1_555 1_555
H3 C2 1_555 1_555
H4 C2 1_555 1_555
C3 O1 1_555 1_555
H5 C3 1_555 1_555
H6 C3 1_555 1_555
C4 C3 1_555 1_555
C5 C4 1_555 1_555
H7 C5 1_555 1_555
C6 C5 1_555 1_555
H8 C6 1_555 1_555
C7 C6 1_555 1_555
C8 C7 1_555 1_555
H9 C8 1_555 1_555
C9 C4 1_555 1_555
H10 C9 1_555 1_555
C10 C7 1_555 1_555
C11 C10 1_555 1_555
C12 C11 1_555 1_555
H11 C12 1_555 1_555
C13 C12 1_555 1_555
H12 C13 1_555 1_555
C14 C13 1_555 1_555
H13 C14 1_555 1_555
C15 C14 1_555 1_555
H14 C15 1_555 1_555
C16 C11 1_555 1_555
H15 C16 1_555 1_555
C17 N1 1_555 1_555
C18 C17 1_555 1_555
H16 C18 1_555 1_555
C19 C18 1_555 1_555
H17 C19 1_555 1_555
C20 N2 1_555 1_555
C21 C20 1_555 1_555
H18 C21 1_555 1_555
C22 C17 1_555 1_555
H19 C22 1_555 1_555
C23 C24 1_555 1_555
C24 H20 1_555 1_555
C25 C24 1_555 1_555
H21 C25 1_555 1_555
C26 N4 1_555 1_555
C27 C26 1_555 1_555
H22 C27 1_555 1_555
C28 C23 1_555 1_555
H23 C28 1_555 1_555
C29 N1 1_555 1_555
H24 C29 1_555 1_555
H25 C29 1_555 1_555
C30 C29 1_555 1_555
H26 C30 1_555 1_555
H27 C30 1_555 1_555
H28 C30 1_555 1_555
C8 C9 1_555 1_555
C15 C16 1_555 1_555
C19 C20 1_555 1_555
C21 C22 1_555 1_555
C25 C26 1_555 1_555
C27 C28 1_555 1_555

#END
