
#######################################################################
#
#                 Cambridge Crystallographic Data Centre
#                                CCDC 
#
#######################################################################
#
# If this CIF has been generated from an entry in the Cambridge 
# Structural Database, then it will include bibliographic, chemical, 
# crystal, experimental, refinement or atomic coordinate data resulting 
# from the CCDC's data processing and validation procedures.
#
#######################################################################

data_SUSDOZ
_chemical_formula_moiety         'C24 H64 Li2 N6 Si4'
_chemical_name_systematic        
bis(\m~2~-1,3-bis(Dimethyl(diethylamino))disilazane)-di-lithium
_symmetry_cell_setting           monoclinic
_symmetry_space_group_name_H-M   'C 2/c'
_symmetry_Int_Tables_number      15
_space_group_name_Hall           '-C 2yn'
loop_
_symmetry_equiv_pos_site_id
_symmetry_equiv_pos_as_xyz
1 x,y,z
2 -x,y,1/2-z
3 1/2+x,1/2+y,z
4 1/2-x,1/2+y,1/2-z
5 -x,-y,-z
6 x,-y,1/2+z
7 1/2-x,1/2-y,-z
8 1/2+x,1/2-y,1/2+z
_cell_length_a                   20.619(4)
_cell_length_b                   10.840(2)
_cell_length_c                   18.149(4)
_cell_angle_alpha                90
_cell_angle_beta                 116.05(3)
_cell_angle_gamma                90
_cell_volume                     3644.39
_exptl_crystal_colour            colorless
_chemical_melting_point          128deg.C
_cell_formula_units_Z            4
loop_
_atom_site_label
_atom_site_type_symbol
_atom_site_fract_x
_atom_site_fract_y
_atom_site_fract_z
Si1 Si 0.3722(1) 0.2022(1) 0.2525(1)
Si2 Si 0.3644(1) -0.0026(1) 0.1382(1)
N1 N 0.4104(1) 0.1006(1) 0.2127(1)
N2 N 0.4297(1) -0.1116(1) 0.1403(1)
N3 N 0.4408(1) 0.3138(2) 0.3055(1)
C1 C 0.4167(1) -0.2445(2) 0.1462(2)
C2 C 0.3663(2) -0.3050(3) 0.0646(2)
C3 C 0.4637(1) -0.0869(2) 0.0853(1)
C4 C 0.5351(2) -0.1507(3) 0.1085(2)
C5 C 0.4255(2) 0.4456(2) 0.2838(2)
C6 C 0.3849(2) 0.5113(3) 0.3256(3)
C7 C 0.4845(2) 0.2931(3) 0.3932(2)
C8 C 0.5582(2) 0.3552(3) 0.4301(2)
C9 C 0.2908(2) 0.2822(3) 0.1730(2)
C10 C 0.3420(1) 0.1355(3) 0.3276(2)
C11 C 0.2928(1) -0.0869(3) 0.1548(2)
C12 C 0.3179(2) 0.0627(3) 0.0317(2)
Li1 Li 0.5000 -0.0146(4) 0.2500
Li2 Li 0.5000 0.2155(4) 0.2500
N1A N 0.5896(1) 0.1006(1) 0.2873(1)
Si1A Si 0.6278(1) 0.2022(1) 0.2475(1)
N3A N 0.5592(1) 0.3138(2) 0.1945(1)
C5A C 0.5745(2) 0.4456(2) 0.2162(2)
C6A C 0.6151(2) 0.5113(3) 0.1744(3)
C7A C 0.5155(2) 0.2931(3) 0.1068(2)
C8A C 0.4418(2) 0.3552(3) 0.0699(2)
C9A C 0.7092(2) 0.2822(3) 0.3270(2)
C10A C 0.6580(1) 0.1355(3) 0.1724(2)
Si2A Si 0.6356(1) -0.0026(1) 0.3618(1)
N2A N 0.5703(1) -0.1116(1) 0.3597(1)
C1A C 0.5833(1) -0.2445(2) 0.3538(2)
C2A C 0.6337(2) -0.3050(3) 0.4354(2)
C3A C 0.5363(1) -0.0869(2) 0.4147(1)
C4A C 0.4649(2) -0.1507(3) 0.3915(2)
C11A C 0.7072(1) -0.0869(3) 0.3452(2)
C12A C 0.6821(2) 0.0627(3) 0.4683(2)
loop_
_geom_bond_atom_site_label_1
_geom_bond_atom_site_label_2
_geom_bond_site_symmetry_1
_geom_bond_site_symmetry_2
Si1 N1 1_555 1_555
Si2 N1 1_555 1_555
N1 Li1 1_555 1_555
N2 Si2 1_555 1_555
N3 Si1 1_555 1_555
C1 N2 1_555 1_555
C2 C1 1_555 1_555
C3 N2 1_555 1_555
C4 C3 1_555 1_555
C5 N3 1_555 1_555
C6 C5 1_555 1_555
C7 N3 1_555 1_555
C8 C7 1_555 1_555
C9 Si1 1_555 1_555
C10 Si1 1_555 1_555
C11 Si2 1_555 1_555
C12 Si2 1_555 1_555
Li1 N2 1_555 1_555
Li2 N1 1_555 1_555
N1A Li1 1_555 1_555
Si1A N1A 1_555 1_555
N3A Li2 1_555 1_555
C5A N3A 1_555 1_555
C6A C5A 1_555 1_555
C7A N3A 1_555 1_555
C8A C7A 1_555 1_555
C9A Si1A 1_555 1_555
C10A Si1A 1_555 1_555
Si2A N1A 1_555 1_555
N2A Li1 1_555 1_555
C1A N2A 1_555 1_555
C2A C1A 1_555 1_555
C3A N2A 1_555 1_555
C4A C3A 1_555 1_555
C11A Si2A 1_555 1_555
C12A Si2A 1_555 1_555
N3 Li2 1_555 1_555
Li2 N1A 1_555 1_555
Si1A N3A 1_555 1_555
Si2A N2A 1_555 1_555

#END
