
#######################################################################
#
#                 Cambridge Crystallographic Data Centre
#                                CCDC 
#
#######################################################################
#
# If this CIF has been generated from an entry in the Cambridge 
# Structural Database, then it will include bibliographic, chemical, 
# crystal, experimental, refinement or atomic coordinate data resulting 
# from the CCDC's data processing and validation procedures.
#
#######################################################################

data_SUSDOA
_chemical_formula_moiety         'C24 H29 N3 O3 S1'
_chemical_name_systematic        
5-(4-(Decyloxy)phenyl)-2-(4-nitrophenyl)-1,3,4-thiadiazole
_symmetry_cell_setting           triclinic
_symmetry_space_group_name_H-M   'P -1'
_symmetry_Int_Tables_number      2
_space_group_name_Hall           '-P 1'
loop_
_symmetry_equiv_pos_site_id
_symmetry_equiv_pos_as_xyz
1 x,y,z
2 -x,-y,-z
_cell_length_a                   7.040(2)
_cell_length_b                   8.991(3)
_cell_length_c                   18.101(5)
_cell_angle_alpha                78.749(8)
_cell_angle_beta                 81.809(13)
_cell_angle_gamma                88.169(12)
_cell_volume                     1112.24
_exptl_crystal_colour            colorless
_exptl_crystal_description       block
_cell_formula_units_Z            2
_exptl_crystal_recrystallization_method dichloromethane
loop_
_atom_site_label
_atom_site_type_symbol
_atom_site_fract_x
_atom_site_fract_y
_atom_site_fract_z
S1 S -0.63883(6) 0.22778(5) 0.49768(2)
O1 O -1.30918(17) -0.34144(15) 0.72242(8)
O2 O -1.10468(18) -0.42842(16) 0.79953(8)
O3 O -0.05478(16) 0.75631(14) 0.26868(7)
N1 N -0.42879(19) 0.09887(16) 0.59566(8)
N2 N -0.31593(19) 0.20858(16) 0.54760(8)
N3 N -1.1512(2) -0.33925(17) 0.74455(9)
C1 C -0.6016(2) 0.09454(19) 0.57727(10)
C2 C -0.4046(2) 0.28637(19) 0.49333(9)
C3 C -0.7456(2) -0.01556(19) 0.62032(9)
C4 C -0.9363(2) -0.00765(19) 0.60524(10)
H1 H -0.9740 0.0708 0.5668
C5 C -1.0693(2) -0.11297(19) 0.64591(10)
H2 H -1.1984 -0.1082 0.6359
C6 C -1.0101(2) -0.22551(19) 0.70160(9)
C7 C -0.8237(2) -0.23709(19) 0.71840(10)
H3 H -0.7875 -0.3156 0.7572
C8 C -0.6922(2) -0.13133(19) 0.67713(10)
H4 H -0.5633 -0.1373 0.6875
C9 C -0.3136(2) 0.40972(19) 0.43531(9)
C10 C -0.4150(2) 0.4985(2) 0.38134(10)
H5 H -0.5474 0.4797 0.3824
C11 C -0.3259(2) 0.61256(19) 0.32689(9)
H6 H -0.3968 0.6714 0.2905
C12 C -0.1308(2) 0.6424(2) 0.32476(10)
C13 C -0.0282(2) 0.55531(19) 0.37878(9)
H7 H 0.1038 0.5751 0.3783
C14 C -0.1198(2) 0.44052(19) 0.43284(9)
H8 H -0.0491 0.3813 0.4691
C15 C 0.1495(2) 0.7799(2) 0.26012(10)
H9 H 0.2190 0.6859 0.2516
H10 H 0.1852 0.8068 0.3068
C16 C 0.2028(2) 0.9067(2) 0.19303(10)
H11 H 0.1318 0.9999 0.2017
H12 H 0.1662 0.8791 0.1466
C17 C 0.4179(2) 0.9364(2) 0.18174(10)
H13 H 0.4518 0.9657 0.2282
H14 H 0.4870 0.8408 0.1758
C18 C 0.4878(2) 1.0592(2) 0.11352(10)
H15 H 0.4516 1.0316 0.0671
H16 H 0.4225 1.1559 0.1201
C19 C 0.7036(2) 1.0825(2) 0.10279(10)
H17 H 0.7676 0.9829 0.1027
H18 H 0.7369 1.1209 0.1470
C20 C 0.7837(2) 1.1915(2) 0.03038(10)
H19 H 0.7139 1.2893 0.0283
H20 H 0.7608 1.1494 -0.0142
C21 C 0.9977(2) 1.2201(2) 0.02536(10)
H21 H 1.0194 1.2630 0.0698
H22 H 1.0663 1.1217 0.0286
C22 C 1.0846(2) 1.3268(2) -0.04674(10)
H23 H 1.0155 1.4250 -0.0506
H24 H 1.0659 1.2833 -0.0914
C23 C 1.2978(2) 1.3547(2) -0.04909(11)
H25 H 1.3163 1.3973 -0.0042
H26 H 1.3667 1.2565 -0.0455
C24 C 1.3862(3) 1.4621(2) -0.12061(11)
H27 H 1.5229 1.4750 -0.1185
H28 H 1.3211 1.5607 -0.1240
H29 H 1.3715 1.4197 -0.1654
loop_
_geom_bond_atom_site_label_1
_geom_bond_atom_site_label_2
_geom_bond_site_symmetry_1
_geom_bond_site_symmetry_2
S1 C1 1_555 1_555
O1 N3 1_555 1_555
O2 N3 1_555 1_555
O3 C12 1_555 1_555
N1 N2 1_555 1_555
N2 C2 1_555 1_555
N3 C6 1_555 1_555
C1 N1 1_555 1_555
C2 S1 1_555 1_555
C3 C1 1_555 1_555
C4 C3 1_555 1_555
H1 C4 1_555 1_555
C5 C4 1_555 1_555
H2 C5 1_555 1_555
C6 C5 1_555 1_555
C7 C6 1_555 1_555
H3 C7 1_555 1_555
C8 C3 1_555 1_555
H4 C8 1_555 1_555
C9 C2 1_555 1_555
C10 C9 1_555 1_555
H5 C10 1_555 1_555
C11 C10 1_555 1_555
H6 C11 1_555 1_555
C12 C11 1_555 1_555
C13 C12 1_555 1_555
H7 C13 1_555 1_555
C14 C9 1_555 1_555
H8 C14 1_555 1_555
C15 O3 1_555 1_555
H9 C15 1_555 1_555
H10 C15 1_555 1_555
C16 C15 1_555 1_555
H11 C16 1_555 1_555
H12 C16 1_555 1_555
C17 C16 1_555 1_555
H13 C17 1_555 1_555
H14 C17 1_555 1_555
C18 C17 1_555 1_555
H15 C18 1_555 1_555
H16 C18 1_555 1_555
C19 C18 1_555 1_555
H17 C19 1_555 1_555
H18 C19 1_555 1_555
C20 C19 1_555 1_555
H19 C20 1_555 1_555
H20 C20 1_555 1_555
C21 C20 1_555 1_555
H21 C21 1_555 1_555
H22 C21 1_555 1_555
C22 C21 1_555 1_555
H23 C22 1_555 1_555
H24 C22 1_555 1_555
C23 C22 1_555 1_555
H25 C23 1_555 1_555
H26 C23 1_555 1_555
C24 C23 1_555 1_555
H27 C24 1_555 1_555
H28 C24 1_555 1_555
H29 C24 1_555 1_555
C7 C8 1_555 1_555
C13 C14 1_555 1_555

#END
