
#######################################################################
#
#                 Cambridge Crystallographic Data Centre
#                                CCDC 
#
#######################################################################
#
# If this CIF has been generated from an entry in the Cambridge 
# Structural Database, then it will include bibliographic, chemical, 
# crystal, experimental, refinement or atomic coordinate data resulting 
# from the CCDC's data processing and validation procedures.
#
#######################################################################

data_SUSFES
_chemical_formula_moiety         'C19 H13 N1 O2 S2'
_chemical_name_systematic        
8,10-bis(3-Thienyl)-2,3-dihydro-5H-[1,4]oxazino[2,3,4-ij]quinolin-5-one
_symmetry_cell_setting           triclinic
_symmetry_space_group_name_H-M   'P -1'
_symmetry_Int_Tables_number      2
_space_group_name_Hall           '-P 1'
loop_
_symmetry_equiv_pos_site_id
_symmetry_equiv_pos_as_xyz
1 x,y,z
2 -x,-y,-z
_cell_length_a                   8.655(2)
_cell_length_b                   9.619(3)
_cell_length_c                   10.727(3)
_cell_angle_alpha                83.143(5)
_cell_angle_beta                 72.938(4)
_cell_angle_gamma                64.907(4)
_cell_volume                     773.155
_exptl_crystal_colour            yellowish
_exptl_crystal_description       rectangular
_cell_formula_units_Z            2
loop_
_atom_site_label
_atom_site_type_symbol
_atom_site_fract_x
_atom_site_fract_y
_atom_site_fract_z
C1 C 1.1110(3) 0.1830(2) 0.4480(2)
C2 C 1.1348(3) 0.2742(3) 0.3343(2)
H1 H 1.2401 0.2358 0.2685
C3 C 1.00981(15) 0.41378(14) 0.31923(12)
H2 H 1.0300 0.4680 0.2429
C4 C 0.71188(15) 0.62669(14) 0.40751(12)
C5 C 0.57140(15) 0.68822(14) 0.51647(12)
H3 H 0.4863 0.7870 0.5118
C6 C 0.5524(2) 0.6075(2) 0.63343(18)
C7 C 0.6778(2) 0.4599(2) 0.63962(19)
C8 C 0.8256(2) 0.3967(2) 0.53305(19)
C9 C 0.8464(2) 0.4802(2) 0.41855(19)
O1 O 0.65639(19) 0.37646(15) 0.75177(14)
O2 O 1.2190(2) 0.05343(18) 0.46522(18)
N1 N 0.9544(2) 0.25005(19) 0.54358(17)
C10 C 0.7318(3) 0.2156(2) 0.7256(2)
H4 H 0.6748 0.1950 0.6689
H5 H 0.7125 0.1606 0.8065
C11 C 0.9250(3) 0.1620(2) 0.6622(2)
H6 H 0.9833 0.1749 0.7217
H7 H 0.9751 0.0537 0.6406
C12 C 0.7103(3) 0.7141(2) 0.28457(19)
C13 C 0.7425(3) 0.6512(3) 0.1644(2)
H8 H 0.7811 0.5470 0.1492
C14 C 0.7204(11) 0.7437(8) 0.0615(9)
H9 H 0.7364 0.7162 -0.0231
S1 S 0.6516(3) 0.9362(3) 0.12392(13)
C15 C 0.6588(3) 0.8712(3) 0.2761(2)
H10 H 0.6361 0.9290 0.3481
C16 C 0.3975(2) 0.6783(2) 0.74571(18)
C17 C 0.2327(3) 0.7842(2) 0.7305(2)
H11 H 0.2142 0.8178 0.6490
C18 C 0.1004(7) 0.8349(6) 0.8439(4)
H12 H -0.0160 0.9040 0.8499
S2 S 0.18718(12) 0.74770(12) 0.97641(9)
C19 C 0.3913(3) 0.6508(3) 0.8750(2)
H13 H 0.4889 0.5857 0.9043
C20? C 0.6425(14) 0.9382(14) 0.1597(8)
C21? C 0.2482(15) 0.7292(16) 0.9563(12)
H14? H 0.6070 1.0422 0.1406
H15? H 0.2297 0.7296 1.0461
S3? S 0.7027(3) 0.7871(2) 0.0507(2)
S4? S 0.0869(5) 0.8394(5) 0.8701(3)
loop_
_geom_bond_atom_site_label_1
_geom_bond_atom_site_label_2
_geom_bond_site_symmetry_1
_geom_bond_site_symmetry_2
C1 C2 1_555 1_555
C2 H1 1_555 1_555
C3 C2 1_555 1_555
H2 C3 1_555 1_555
C4 C5 1_555 1_555
C5 H3 1_555 1_555
C6 C5 1_555 1_555
C7 C6 1_555 1_555
C8 C7 1_555 1_555
C9 C3 1_555 1_555
O1 C7 1_555 1_555
O2 C1 1_555 1_555
N1 C1 1_555 1_555
C10 O1 1_555 1_555
H4 C10 1_555 1_555
H5 C10 1_555 1_555
C11 N1 1_555 1_555
H6 C11 1_555 1_555
H7 C11 1_555 1_555
C12 C4 1_555 1_555
C13 C12 1_555 1_555
H8 C13 1_555 1_555
C14 C13 1_555 1_555
H9 C14 1_555 1_555
S1 C14 1_555 1_555
C15 C12 1_555 1_555
H10 C15 1_555 1_555
C16 C6 1_555 1_555
C17 C16 1_555 1_555
H11 C17 1_555 1_555
C18 C17 1_555 1_555
H12 C18 1_555 1_555
S2 C18 1_555 1_555
C19 C16 1_555 1_555
H13 C19 1_555 1_555
C4 C9 1_555 1_555
C8 C9 1_555 1_555
C8 N1 1_555 1_555
C10 C11 1_555 1_555
S1 C15 1_555 1_555
S2 C19 1_555 1_555

#END
