
#######################################################################
#
#                 Cambridge Crystallographic Data Centre
#                                CCDC 
#
#######################################################################
#
# If this CIF has been generated from an entry in the Cambridge 
# Structural Database, then it will include bibliographic, chemical, 
# crystal, experimental, refinement or atomic coordinate data resulting 
# from the CCDC's data processing and validation procedures.
#
#######################################################################

data_SUSFUH
_chemical_formula_moiety         'C24 H36 Li2 N2 O4 Si4'
_chemical_name_systematic        
bis(\m~2~-1,3-bis(Dimethyl(2-furyl))disilazane)-di-lithium
_symmetry_cell_setting           monoclinic
_symmetry_space_group_name_H-M   'I 2/a'
_symmetry_Int_Tables_number      15
_space_group_name_Hall           '-I 2ya'
loop_
_symmetry_equiv_pos_site_id
_symmetry_equiv_pos_as_xyz
1 x,y,z
2 1/2-x,y,-z
3 1/2+x,1/2+y,1/2+z
4 -x,1/2+y,1/2-z
5 -x,-y,-z
6 1/2+x,-y,z
7 1/2-x,1/2-y,1/2-z
8 x,1/2-y,1/2+z
_cell_length_a                   15.303(3)
_cell_length_b                   11.105(2)
_cell_length_c                   19.190(4)
_cell_angle_alpha                90
_cell_angle_beta                 106.94(3)
_cell_angle_gamma                90
_cell_volume                     3119.65
_exptl_crystal_colour            colorless
_chemical_melting_point          124deg.C
_cell_formula_units_Z            4
loop_
_atom_site_label
_atom_site_type_symbol
_atom_site_fract_x
_atom_site_fract_y
_atom_site_fract_z
Si1 Si 0.4360(1) 0.2234(1) 0.0835(1)
Si2 Si 0.3816(1) 0.2913(1) -0.0764(1)
N1 N 0.3590(3) 0.2619(4) 0.0032(2)
C1 C 0.3986(3) 0.0770(5) 0.1152(3)
C2 C 0.3698(5) -0.0990(5) 0.1621(3)
C3 C 0.3007(4) -0.0759(5) 0.1048(4)
C4 C 0.5000(4) 0.3332(7) -0.0746(4)
C5 C 0.3445(5) 0.1718(6) -0.1463(3)
C6 C 0.2378(5) 0.5862(7) -0.1812(4)
C7 C 0.3134(4) 0.4268(5) -0.1176(3)
C8 C 0.2201(4) 0.5833(6) -0.1163(4)
C9 C 0.5560(4) 0.1913(7) 0.0846(4)
O1 O 0.2654(2) 0.4881(3) -0.0753(2)
O2 O 0.3153(2) 0.0298(3) 0.0737(2)
C10 C 0.4409(5) 0.3309(5) 0.1590(3)
C11 C 0.4308(4) -0.0022(5) 0.1689(3)
C12 C 0.2946(4) 0.4878(6) -0.1812(3)
Li1 Li 0.2500 0.1480(11) 0.0000
Li2 Li 0.2500 0.3749(11) 0.0000
N1A N 0.1410(3) 0.2619(4) -0.0032(2)
Si1A Si 0.0640(1) 0.2234(1) -0.0835(1)
C1A C 0.1014(3) 0.0770(5) -0.1152(3)
O2A O 0.1847(2) 0.0298(3) -0.0737(2)
C3A C 0.1993(4) -0.0759(5) -0.1048(4)
C2A C 0.1302(5) -0.0990(5) -0.1621(3)
C11A C 0.0692(4) -0.0022(5) -0.1689(3)
C9A C -0.0560(4) 0.1913(7) -0.0846(4)
C10A C 0.0591(5) 0.3309(5) -0.1590(3)
Si2A Si 0.1184(1) 0.2913(1) 0.0764(1)
C4A C 0.0000(4) 0.3332(7) 0.0746(4)
C5A C 0.1555(5) 0.1718(6) 0.1463(3)
C7A C 0.1866(4) 0.4268(5) 0.1176(3)
O1A O 0.2346(2) 0.4881(3) 0.0753(2)
C8A C 0.2799(4) 0.5833(6) 0.1163(4)
C6A C 0.2622(5) 0.5862(7) 0.1812(4)
C12A C 0.2054(4) 0.4878(6) 0.1812(3)
loop_
_geom_bond_atom_site_label_1
_geom_bond_atom_site_label_2
_geom_bond_site_symmetry_1
_geom_bond_site_symmetry_2
Si1 N1 1_555 1_555
Si2 N1 1_555 1_555
N1 Li1 1_555 1_555
C1 Si1 1_555 1_555
C2 C3 1_555 1_555
C3 O2 1_555 1_555
C4 Si2 1_555 1_555
C5 Si2 1_555 1_555
C6 C8 1_555 1_555
C7 Si2 1_555 1_555
C8 O1 1_555 1_555
C9 Si1 1_555 1_555
O1 C7 1_555 1_555
O2 C1 1_555 1_555
C10 Si1 1_555 1_555
C11 C1 1_555 1_555
C12 C6 1_555 1_555
Li1 O2 1_555 1_555
Li2 N1 1_555 1_555
N1A Li1 1_555 1_555
Si1A N1A 1_555 1_555
C1A Si1A 1_555 1_555
O2A Li1 1_555 1_555
C3A O2A 1_555 1_555
C2A C3A 1_555 1_555
C11A C1A 1_555 1_555
C9A Si1A 1_555 1_555
C10A Si1A 1_555 1_555
Si2A N1A 1_555 1_555
C4A Si2A 1_555 1_555
C5A Si2A 1_555 1_555
C7A Si2A 1_555 1_555
O1A Li2 1_555 1_555
C8A O1A 1_555 1_555
C6A C8A 1_555 1_555
C12A C7A 1_555 1_555
C2 C11 1_555 1_555
C7 C12 1_555 1_555
O1 Li2 1_555 1_555
Li2 N1A 1_555 1_555
C1A O2A 1_555 1_555
C2A C11A 1_555 1_555
C7A O1A 1_555 1_555
C6A C12A 1_555 1_555

#END
