
#######################################################################
#
#                 Cambridge Crystallographic Data Centre
#                                CCDC 
#
#######################################################################
#
# If this CIF has been generated from an entry in the Cambridge 
# Structural Database, then it will include bibliographic, chemical, 
# crystal, experimental, refinement or atomic coordinate data resulting 
# from the CCDC's data processing and validation procedures.
#
#######################################################################

data_SUSFOB
_chemical_formula_moiety         'C20 H60 Li2 N2 O4 Si8'
_chemical_name_systematic        
bis(\m~2~-1,3-bis(Dimethyl(trimethylsiloxy))disilazane)-di-lithium
_symmetry_cell_setting           monoclinic
_symmetry_space_group_name_H-M   'P 21/c'
_symmetry_Int_Tables_number      14
_space_group_name_Hall           '-P 2ybc'
loop_
_symmetry_equiv_pos_site_id
_symmetry_equiv_pos_as_xyz
1 x,y,z
2 -x,1/2+y,1/2-z
3 -x,-y,-z
4 x,1/2-y,1/2+z
_cell_length_a                   17.46(2)
_cell_length_b                   18.09(2)
_cell_length_c                   13.607(12)
_cell_angle_alpha                90
_cell_angle_beta                 93.50(8)
_cell_angle_gamma                90
_cell_volume                     4289.77
_exptl_crystal_colour            colorless
_chemical_melting_point          205deg.C
_cell_formula_units_Z            4
loop_
_atom_site_label
_atom_site_type_symbol
_atom_site_fract_x
_atom_site_fract_y
_atom_site_fract_z
Si1 Si -0.1485(1) 0.1016(1) -0.3404(1)
Si2 Si -0.1859(1) 0.0969(1) -0.1188(1)
Si3 Si -0.2174(1) 0.0663(1) -0.5419(1)
Si4 Si -0.2173(1) -0.0128(1) 0.0557(1)
Si5 Si -0.2851(1) -0.1451(1) -0.2734(1)
Si6 Si -0.4078(1) -0.0288(1) -0.2446(1)
Si7 Si -0.1147(1) -0.1842(1) -0.2388(2)
Si8 Si -0.4503(1) 0.1363(2) -0.2846(2)
N1 N -0.1913(2) 0.0712(2) -0.2355(2)
N2 N -0.3187(2) -0.0594(2) -0.2586(3)
O1 O -0.2113(2) 0.0780(2) -0.4228(2)
O2 O -0.2060(2) 0.0182(2) -0.0573(2)
O3 O -0.1951(2) -0.1380(2) -0.2373(3)
O4 O -0.3990(2) 0.0604(2) -0.2777(3)
C1 C -0.2610(4) 0.1655(3) -0.0750(5)
C2 C -0.0906(4) 0.1299(4) -0.0835(5)
C3 C -0.0553(3) 0.0563(4) -0.3759(5)
C4 C -0.1344(5) 0.2040(3) -0.3486(5)
C5 C -0.3144(5) 0.0803(11) -0.5662(6)
C6 C -0.1565(6) 0.1317(5) -0.6139(5)
C7 C -0.1818(8) -0.0246(4) -0.5782(6)
C8 C -0.1260(5) -0.0166(7) 0.1132(6)
C9 C -0.2622(7) -0.1051(5) 0.0489(6)
C10 C -0.2854(6) 0.0451(6) 0.1304(6)
C11 C -0.3340(4) -0.2168(4) -0.1941(6)
C12 C -0.2815(5) -0.1815(4) -0.4014(5)
C13 C -0.4768(4) -0.0732(5) -0.3273(7)
C14 C -0.4509(4) -0.0315(6) -0.1158(6)
C15 C -0.1316(6) -0.2778(4) -0.1855(8)
C16 C -0.0753(5) -0.1952(5) -0.3676(7)
C17 C -0.0482(4) -0.1291(5) -0.1700(8)
C18 C -0.3823(7) 0.2103(5) -0.3239(9)
C19 C -0.4946(5) 0.1630(6) -0.1630(6)
C20 C -0.5214(7) 0.1252(7) -0.3760(9)
Li1 Li -0.2851(4) 0.0433(5) -0.3106(6)
Li2 Li -0.2195(4) -0.0338(4) -0.1883(6)
loop_
_geom_bond_atom_site_label_1
_geom_bond_atom_site_label_2
_geom_bond_site_symmetry_1
_geom_bond_site_symmetry_2
Si1 N1 1_555 1_555
Si2 N1 1_555 1_555
Si3 O1 1_555 1_555
Si4 O2 1_555 1_555
Si5 N2 1_555 1_555
Si6 N2 1_555 1_555
Si7 O3 1_555 1_555
Si8 O4 1_555 1_555
N1 Li1 1_555 1_555
N2 Li1 1_555 1_555
O1 Si1 1_555 1_555
O2 Si2 1_555 1_555
O3 Si5 1_555 1_555
O4 Si6 1_555 1_555
C1 Si2 1_555 1_555
C2 Si2 1_555 1_555
C3 Si1 1_555 1_555
C4 Si1 1_555 1_555
C5 Si3 1_555 1_555
C6 Si3 1_555 1_555
C7 Si3 1_555 1_555
C8 Si4 1_555 1_555
C9 Si4 1_555 1_555
C10 Si4 1_555 1_555
C11 Si5 1_555 1_555
C12 Si5 1_555 1_555
C13 Si6 1_555 1_555
C14 Si6 1_555 1_555
C15 Si7 1_555 1_555
C16 Si7 1_555 1_555
C17 Si7 1_555 1_555
C18 Si8 1_555 1_555
C19 Si8 1_555 1_555
C20 Si8 1_555 1_555
Li1 O1 1_555 1_555
Li2 N1 1_555 1_555
N2 Li2 1_555 1_555
O2 Li2 1_555 1_555
O3 Li2 1_555 1_555
O4 Li1 1_555 1_555

#END
