
#######################################################################
#
#                 Cambridge Crystallographic Data Centre
#                                CCDC 
#
#######################################################################
#
# If this CIF has been generated from an entry in the Cambridge 
# Structural Database, then it will include bibliographic, chemical, 
# crystal, experimental, refinement or atomic coordinate data resulting 
# from the CCDC's data processing and validation procedures.
#
#######################################################################

data_SUSFOC
_chemical_formula_moiety         'C23 H23 Br1 S2'
_chemical_name_systematic        
3,3'-(4-(4-Bromophenyl)cyclopent-1-ene-1,2-diyl)bis(2,5-dimethylthiophene)
_symmetry_cell_setting           monoclinic
_symmetry_space_group_name_H-M   'P 21/c'
_symmetry_Int_Tables_number      14
_space_group_name_Hall           '-P 2ybc'
loop_
_symmetry_equiv_pos_site_id
_symmetry_equiv_pos_as_xyz
1 x,y,z
2 -x,1/2+y,1/2-z
3 -x,-y,-z
4 x,1/2-y,1/2+z
_cell_length_a                   7.3409(19)
_cell_length_b                   8.949(2)
_cell_length_c                   32.747(9)
_cell_angle_alpha                90
_cell_angle_beta                 94.825(3)
_cell_angle_gamma                90
_cell_volume                     2143.65
_exptl_crystal_colour            colorless
_exptl_crystal_description       block
_cell_formula_units_Z            4
_chemical_properties_physical    light-sensitive
_exptl_crystal_recrystallization_method hexane
_exptl_crystal_preparation       photochromic
loop_
_atom_site_label
_atom_site_type_symbol
_atom_site_fract_x
_atom_site_fract_y
_atom_site_fract_z
Br1 Br 1.08974(14) 0.53488(15) 0.29661(3)
S1 S -0.2882(2) 0.4692(2) 0.08090(5)
S2 S 0.2523(2) 0.0738(2) 0.01136(5)
C1 C -0.1666(9) 0.6171(8) 0.1029(2)
C2 C -0.0052(9) 0.5678(7) 0.1212(2)
H1 H 0.0802 0.6315 0.1346
C3 C 0.0232(8) 0.4117(7) 0.11831(19)
C4 C -0.1198(8) 0.3409(7) 0.09723(18)
C5 C -0.2388(13) 0.7749(9) 0.1003(3)
H2 H -0.1826 0.8325 0.1227
H3 H -0.3688 0.7738 0.1017
H4 H -0.2109 0.8189 0.0748
C6 C -0.1534(9) 0.1775(7) 0.0883(2)
H5 H -0.0989 0.1506 0.0637
H6 H -0.2826 0.1592 0.0848
H7 H -0.1002 0.1188 0.1108
C7 C 0.1887(8) 0.3402(7) 0.13857(19)
C8 C 0.2654(9) 0.4031(9) 0.1798(2)
H8 H 0.1693 0.4155 0.1981
H9 H 0.3241 0.4988 0.1763
C9 C 0.4054(9) 0.2850(8) 0.1965(2)
H10 H 0.3436 0.2170 0.2143
C10 C 0.4504(9) 0.1963(8) 0.15789(19)
H11 H 0.5655 0.2293 0.1484
H12 H 0.4581 0.0901 0.1637
C11 C 0.2925(8) 0.2296(7) 0.12600(19)
C12 C 0.2606(8) 0.2099(7) 0.04900(19)
C13 C 0.2793(8) 0.1480(7) 0.08685(19)
C14 C 0.2902(8) -0.0111(7) 0.0849(2)
H13 H 0.3067 -0.0708 0.1081
C15 C 0.2745(9) -0.0681(7) 0.0465(2)
C16 C 0.2451(10) 0.3723(7) 0.0365(2)
H14 H 0.1189 0.3972 0.0298
H15 H 0.3122 0.3888 0.0129
H16 H 0.2944 0.4341 0.0587
C17 C 0.2753(12) -0.2281(8) 0.0335(3)
H17 H 0.2925 -0.2907 0.0573
H18 H 0.3731 -0.2444 0.0164
H19 H 0.1609 -0.2519 0.0186
C18 C 0.5713(8) 0.3475(8) 0.22098(19)
C19 C 0.6125(10) 0.3049(8) 0.2614(2)
H20 H 0.5363 0.2376 0.2733
C20 C 0.7646(10) 0.3601(9) 0.2844(2)
H21 H 0.7901 0.3307 0.3115
C21 C 0.8781(9) 0.4594(9) 0.2665(2)
C22 C 0.8372(9) 0.5075(8) 0.2269(2)
H22 H 0.9110 0.5773 0.2153
C23 C 0.6842(9) 0.4502(8) 0.20472(19)
H23 H 0.6569 0.4822 0.1779
loop_
_geom_bond_atom_site_label_1
_geom_bond_atom_site_label_2
_geom_bond_site_symmetry_1
_geom_bond_site_symmetry_2
Br1 C21 1_555 1_555
S1 C1 1_555 1_555
S2 C12 1_555 1_555
C1 C2 1_555 1_555
C2 H1 1_555 1_555
C3 C2 1_555 1_555
C4 S1 1_555 1_555
C5 C1 1_555 1_555
H2 C5 1_555 1_555
H3 C5 1_555 1_555
H4 C5 1_555 1_555
C6 C4 1_555 1_555
H5 C6 1_555 1_555
H6 C6 1_555 1_555
H7 C6 1_555 1_555
C7 C3 1_555 1_555
C8 C7 1_555 1_555
H8 C8 1_555 1_555
H9 C8 1_555 1_555
C9 C8 1_555 1_555
H10 C9 1_555 1_555
C10 C9 1_555 1_555
H11 C10 1_555 1_555
H12 C10 1_555 1_555
C11 C7 1_555 1_555
C12 C13 1_555 1_555
C13 C11 1_555 1_555
C14 C13 1_555 1_555
H13 C14 1_555 1_555
C15 S2 1_555 1_555
C16 C12 1_555 1_555
H14 C16 1_555 1_555
H15 C16 1_555 1_555
H16 C16 1_555 1_555
C17 C15 1_555 1_555
H17 C17 1_555 1_555
H18 C17 1_555 1_555
H19 C17 1_555 1_555
C18 C9 1_555 1_555
C19 C18 1_555 1_555
H20 C19 1_555 1_555
C20 C19 1_555 1_555
H21 C20 1_555 1_555
C21 C20 1_555 1_555
C22 C21 1_555 1_555
H22 C22 1_555 1_555
C23 C18 1_555 1_555
H23 C23 1_555 1_555
C3 C4 1_555 1_555
C10 C11 1_555 1_555
C14 C15 1_555 1_555
C22 C23 1_555 1_555

#END
