
#######################################################################
#
#                 Cambridge Crystallographic Data Centre
#                                CCDC 
#
#######################################################################
#
# If this CIF has been generated from an entry in the Cambridge 
# Structural Database, then it will include bibliographic, chemical, 
# crystal, experimental, refinement or atomic coordinate data resulting 
# from the CCDC's data processing and validation procedures.
#
#######################################################################

data_SUSGAP
_chemical_compound_source        'fungus Isaria farinosa'
_chemical_name_common            'Cycloaspeptide A methanol solvate hemihydrate'
_chemical_formula_moiety         'C36 H43 N5 O6,0.75(C1 H4 O1),0.5(H2 O1)'
_chemical_name_systematic        
'9-Benzyl-3-(4-hydroxybenzyl)-6-isobutyl-4,10,12-trimethyl-3,4,6,7,9,10,12,13-octahydro-1,4,7,10,13-benzopentaazacyclohexadecine-2,5,8,11,14(1H)-pentone methanol solvate hemihydrate'
_chemical_properties_biological  'potential antibacterial activity'
_symmetry_cell_setting           monoclinic
_symmetry_space_group_name_H-M   'C 2'
_symmetry_Int_Tables_number      5
_space_group_name_Hall           'C 2y'
loop_
_symmetry_equiv_pos_site_id
_symmetry_equiv_pos_as_xyz
1 x,y,z
2 -x,y,-z
3 1/2+x,1/2+y,z
4 1/2-x,1/2+y,-z
_cell_length_a                   27.754(6)
_cell_length_b                   9.7332(19)
_cell_length_c                   14.014(3)
_cell_angle_alpha                90
_cell_angle_beta                 93.95(3)
_cell_angle_gamma                90
_cell_volume                     3776.68
_exptl_crystal_colour            colorless
_exptl_crystal_description       block
_cell_formula_units_Z            4
loop_
_atom_site_label
_atom_site_type_symbol
_atom_site_fract_x
_atom_site_fract_y
_atom_site_fract_z
N1 N 0.67849(11) 0.2937(4) 0.1881(2)
H1 H 0.6872 0.2977 0.1305
N2 N 0.57195(11) 0.3230(3) 0.3166(2)
N3 N 0.62738(11) 0.3989(3) 0.4835(2)
H2 H 0.6374 0.4153 0.4279
N4 N 0.72927(11) 0.3682(3) 0.5754(2)
N5 N 0.78081(11) 0.3952(3) 0.4134(2)
H3 H 0.7535 0.3558 0.4194
O1 O 0.69206(9) 0.3449(3) 0.34247(19)
O2 O 0.58916(11) 0.4428(3) 0.1863(2)
O3 O 0.57365(10) 0.2748(3) 0.5626(2)
O4 O 0.72332(9) 0.5905(3) 0.5320(2)
O5 O 0.84650(9) 0.4756(3) 0.5039(2)
O6 O 0.68401(12) 0.3381(4) 0.9782(2)
H4 H 0.6672 0.4034 0.9919
C1 C 0.75667(14) 0.3963(4) 0.2429(3)
C2 C 0.79222(14) 0.4204(4) 0.3183(3)
C3 C 0.83797(14) 0.4696(4) 0.2978(3)
H5 H 0.8615 0.4856 0.3470
C4 C 0.84775(15) 0.4940(5) 0.2043(3)
H6 H 0.8780 0.5279 0.1915
C5 C 0.81431(17) 0.4700(6) 0.1297(3)
H7 H 0.8220 0.4853 0.0670
C6 C 0.76870(16) 0.4224(5) 0.1489(3)
H8 H 0.7457 0.4076 0.0985
C7 C 0.70741(14) 0.3453(4) 0.2607(3)
C8 C 0.63246(13) 0.2312(4) 0.2073(3)
H9 H 0.6378 0.1638 0.2589
C9 C 0.61116(17) 0.1584(5) 0.1178(3)
H10 H 0.6031 0.2250 0.0687
H11 H 0.5825 0.1097 0.1325
H12 H 0.6344 0.0947 0.0958
C10 C 0.59704(14) 0.3413(5) 0.2381(3)
C11 C 0.53359(16) 0.4248(5) 0.3331(3)
H13 H 0.5481 0.5117 0.3500
H14 H 0.5150 0.3936 0.3841
H15 H 0.5129 0.4349 0.2757
C12 C 0.58193(13) 0.2230(4) 0.3954(3)
H16 H 0.6109 0.1711 0.3814
C13 C 0.59353(13) 0.3018(4) 0.4898(3)
C14 C 0.54061(13) 0.1198(4) 0.4033(3)
H17 H 0.5476 0.0627 0.4593
H18 H 0.5111 0.1698 0.4124
C15 C 0.53263(14) 0.0282(5) 0.3165(3)
C16 C 0.56064(16) -0.0884(5) 0.3067(3)
H19 H 0.5848 -0.1098 0.3536
C17 C 0.55287(19) -0.1735(6) 0.2277(4)
H20 H 0.5718 -0.2515 0.2222
C18 C 0.5174(2) -0.1435(7) 0.1574(4)
H21 H 0.5123 -0.2011 0.1048
C19 C 0.48933(18) -0.0280(7) 0.1654(4)
H22 H 0.4655 -0.0065 0.1178
C20 C 0.49688(16) 0.0561(5) 0.2447(4)
H23 H 0.4775 0.1333 0.2502
C21 C 0.64864(12) 0.4792(4) 0.5639(3)
H24 H 0.6422 0.4316 0.6233
C22 C 0.62711(13) 0.6232(4) 0.5672(3)
H25 H 0.6252 0.6616 0.5032
H26 H 0.6487 0.6810 0.6072
C23 C 0.57653(14) 0.6273(5) 0.6060(3)
H27 H 0.5564 0.5560 0.5740
C24 C 0.57944(16) 0.6020(6) 0.7128(3)
H28 H 0.6006 0.6685 0.7443
H29 H 0.5918 0.5113 0.7259
H30 H 0.5478 0.6100 0.7360
C25 C 0.55376(16) 0.7679(6) 0.5838(4)
H31 H 0.5226 0.7723 0.6096
H32 H 0.5502 0.7809 0.5158
H33 H 0.5742 0.8386 0.6121
C26 C 0.70364(13) 0.4853(4) 0.5565(3)
C27 C 0.70770(15) 0.2432(4) 0.6128(3)
H34 H 0.7022 0.2561 0.6791
H35 H 0.7293 0.1671 0.6064
H36 H 0.6776 0.2246 0.5774
C28 C 0.78240(13) 0.3766(4) 0.5861(3)
H37 H 0.7940 0.2830 0.5997
C29 C 0.80651(14) 0.4237(4) 0.4961(3)
C30 C 0.80060(13) 0.4653(4) 0.6729(3)
H38 H 0.8345 0.4460 0.6884
H39 H 0.7977 0.5617 0.6557
C31 C 0.77269(14) 0.4388(4) 0.7606(3)
C32 C 0.73301(15) 0.5197(4) 0.7775(3)
H40 H 0.7259 0.5955 0.7387
C33 C 0.70384(14) 0.4897(5) 0.8510(3)
H41 H 0.6776 0.5456 0.8617
C34 C 0.71379(17) 0.3768(5) 0.9083(3)
C35 C 0.75388(17) 0.2954(5) 0.8938(3)
H42 H 0.7612 0.2199 0.9329
C36 C 0.78269(16) 0.3285(5) 0.8204(3)
H43 H 0.8096 0.2747 0.8111
O7 O 0.3672(2) 0.5495(6) 0.9628(3)
H44 H 0.3867 0.5032 0.9355
C37 C 0.3886(3) 0.6674(9) 0.9988(5)
H45 H 0.3902 0.7338 0.9484
H46 H 0.4207 0.6470 1.0250
H47 H 0.3699 0.7040 1.0481
O8 O 0.5049(5) 0.511(2) 0.0463(11)
O9? O 0.4895(7) 0.401(2) 0.0305(14)
loop_
_geom_bond_atom_site_label_1
_geom_bond_atom_site_label_2
_geom_bond_site_symmetry_1
_geom_bond_site_symmetry_2
N1 H1 1_555 1_555
N2 C10 1_555 1_555
N3 H2 1_555 1_555
N4 C26 1_555 1_555
N5 H3 1_555 1_555
O1 C7 1_555 1_555
O2 C10 1_555 1_555
O3 C13 1_555 1_555
O4 C26 1_555 1_555
O5 C29 1_555 1_555
O6 H4 1_555 1_555
C1 C2 1_555 1_555
C2 N5 1_555 1_555
C3 C2 1_555 1_555
H5 C3 1_555 1_555
C4 C3 1_555 1_555
H6 C4 1_555 1_555
C5 C4 1_555 1_555
H7 C5 1_555 1_555
C6 C1 1_555 1_555
H8 C6 1_555 1_555
C7 N1 1_555 1_555
C8 N1 1_555 1_555
H9 C8 1_555 1_555
C9 C8 1_555 1_555
H10 C9 1_555 1_555
H11 C9 1_555 1_555
H12 C9 1_555 1_555
C10 C8 1_555 1_555
C11 N2 1_555 1_555
H13 C11 1_555 1_555
H14 C11 1_555 1_555
H15 C11 1_555 1_555
C12 N2 1_555 1_555
H16 C12 1_555 1_555
C13 N3 1_555 1_555
C14 C12 1_555 1_555
H17 C14 1_555 1_555
H18 C14 1_555 1_555
C15 C14 1_555 1_555
C16 C15 1_555 1_555
H19 C16 1_555 1_555
C17 C16 1_555 1_555
H20 C17 1_555 1_555
C18 C17 1_555 1_555
H21 C18 1_555 1_555
C19 C18 1_555 1_555
H22 C19 1_555 1_555
C20 C15 1_555 1_555
H23 C20 1_555 1_555
C21 N3 1_555 1_555
H24 C21 1_555 1_555
C22 C21 1_555 1_555
H25 C22 1_555 1_555
H26 C22 1_555 1_555
C23 C22 1_555 1_555
H27 C23 1_555 1_555
C24 C23 1_555 1_555
H28 C24 1_555 1_555
H29 C24 1_555 1_555
H30 C24 1_555 1_555
C25 C23 1_555 1_555
H31 C25 1_555 1_555
H32 C25 1_555 1_555
H33 C25 1_555 1_555
C26 C21 1_555 1_555
C27 N4 1_555 1_555
H34 C27 1_555 1_555
H35 C27 1_555 1_555
H36 C27 1_555 1_555
C28 N4 1_555 1_555
H37 C28 1_555 1_555
C29 N5 1_555 1_555
C30 C28 1_555 1_555
H38 C30 1_555 1_555
H39 C30 1_555 1_555
C31 C30 1_555 1_555
C32 C31 1_555 1_555
H40 C32 1_555 1_555
C33 C32 1_555 1_555
H41 C33 1_555 1_555
C34 O6 1_555 1_555
C35 C34 1_555 1_555
H42 C35 1_555 1_555
C36 C31 1_555 1_555
H43 C36 1_555 1_555
O7 H44 1_555 1_555
C37 O7 1_555 1_555
H45 C37 1_555 1_555
H46 C37 1_555 1_555
H47 C37 1_555 1_555
C1 C7 1_555 1_555
C5 C6 1_555 1_555
C12 C13 1_555 1_555
C19 C20 1_555 1_555
C28 C29 1_555 1_555
C33 C34 1_555 1_555
C35 C36 1_555 1_555

#END
