
#######################################################################
#
#                 Cambridge Crystallographic Data Centre
#                                CCDC 
#
#######################################################################
#
# If this CIF has been generated from an entry in the Cambridge 
# Structural Database, then it will include bibliographic, chemical, 
# crystal, experimental, refinement or atomic coordinate data resulting 
# from the CCDC's data processing and validation procedures.
#
#######################################################################

data_SUSTUW
_chemical_formula_moiety         'C23 H25 N3 O12 S2'
_chemical_name_systematic        
'2-(Acetoxymethyl)-6-(5-((4-nitrophenoxy)methyl)-2-thioxo-1,3,4-thiadiazol-3(2H)-yl)tetrahydro-2H-pyran-3,4,5-triyl triacetate'
_symmetry_cell_setting           orthorhombic
_symmetry_space_group_name_H-M   'P 21 21 21'
_symmetry_Int_Tables_number      19
_space_group_name_Hall           'P 2ac 2ab'
loop_
_symmetry_equiv_pos_site_id
_symmetry_equiv_pos_as_xyz
1 x,y,z
2 1/2-x,-y,1/2+z
3 -x,1/2+y,1/2-z
4 1/2+x,1/2-y,-z
_cell_length_a                   6.2102(12)
_cell_length_b                   17.803(4)
_cell_length_c                   24.223(5)
_cell_angle_alpha                90
_cell_angle_beta                 90
_cell_angle_gamma                90
_cell_volume                     2678.1
_chemical_melting_point          189-191deg.C
_cell_formula_units_Z            4
loop_
_atom_site_label
_atom_site_type_symbol
_atom_site_fract_x
_atom_site_fract_y
_atom_site_fract_z
S1 S 0.53521(15) 0.31610(5) 0.95187(3)
S2 S 0.13290(16) 0.37857(5) 1.00294(4)
O1 O 1.6981(5) 0.06997(16) 0.84593(11)
O2 O 1.7827(4) 0.16735(16) 0.79551(11)
O3 O 0.8970(4) 0.27143(12) 0.88947(9)
O4 O 0.1611(4) 0.49932(11) 0.85157(8)
O5 O -0.1603(4) 0.48989(12) 0.76717(9)
O6 O -0.4462(4) 0.56634(13) 0.77147(9)
O7 O 0.0107(4) 0.69655(12) 0.83710(9)
O8 O 0.2701(5) 0.77180(14) 0.80261(11)
O9 O 0.3989(4) 0.69965(11) 0.91124(9)
O10 O 0.1598(5) 0.77626(14) 0.95206(11)
O11 O 0.3977(4) 0.56839(13) 0.97899(8)
O12 O 0.7537(5) 0.54926(17) 0.96714(11)
N1 N 1.6594(5) 0.13263(18) 0.82659(12)
N2 N 0.5335(4) 0.42453(14) 0.88207(10)
N3 N 0.3559(4) 0.43263(14) 0.91575(9)
C1 C 1.0856(5) 0.23971(17) 0.87127(13)
C2 C 1.1400(6) 0.17180(18) 0.89620(13)
H1 H 1.0505 0.1507 0.9228
C3 C 1.3271(6) 0.13631(19) 0.88111(13)
H2 H 1.3667 0.0911 0.8974
C4 C 1.4556(6) 0.1691(2) 0.84115(13)
C5 C 1.4010(6) 0.23485(19) 0.81488(13)
H3 H 1.4884 0.2547 0.7873
C6 C 1.2133(6) 0.27084(19) 0.83033(13)
H4 H 1.1730 0.3156 0.8134
C7 C 0.8385(6) 0.34150(17) 0.86618(13)
H5 H 0.8109 0.3363 0.8270
H6 H 0.9525 0.3781 0.8714
C8 C 0.6377(6) 0.36558(17) 0.89602(12)
C9 C 0.3269(5) 0.38139(17) 0.95692(12)
C10 C 0.2271(5) 0.49970(17) 0.90829(12)
H7 H 0.1009 0.4983 0.9326
C11 C 0.3614(6) 0.56891(17) 0.92028(12)
H8 H 0.4986 0.5665 0.9004
C12 C 0.2417(5) 0.64030(16) 0.90560(13)
H9 H 0.1211 0.6483 0.9310
C13 C 0.1617(5) 0.63625(17) 0.84656(12)
H10 H 0.2823 0.6393 0.8206
C14 C 0.0319(5) 0.56383(18) 0.83731(13)
H11 H -0.1001 0.5647 0.8595
C15 C -0.0222(5) 0.55415(17) 0.77675(12)
H12 H -0.0935 0.5991 0.7635
H13 H 0.1100 0.5480 0.7559
C16 C -0.3717(6) 0.50509(18) 0.76287(12)
C17 C -0.4985(6) 0.43760(19) 0.74470(15)
H14 H -0.6076 0.4267 0.7716
H15 H -0.4039 0.3952 0.7412
H16 H -0.5651 0.4478 0.7097
C18 C 0.0849(6) 0.76181(19) 0.81532(14)
C19 C -0.0899(7) 0.81816(19) 0.81135(14)
H17 H -0.1138 0.8403 0.8470
H18 H -0.2196 0.7941 0.7990
H19 H -0.0496 0.8565 0.7855
C20 C 0.3387(7) 0.76495(19) 0.93545(14)
C21 C 0.5242(7) 0.8189(2) 0.93635(15)
H20 H 0.5335 0.8441 0.9014
H21 H 0.6554 0.7919 0.9431
H22 H 0.5023 0.8552 0.9651
C22 C 0.6013(7) 0.55335(18) 0.99719(15)
C23 C 0.5975(9) 0.5428(2) 1.05799(15)
H23 H 0.7414 0.5346 1.0711
H24 H 0.5097 0.5001 1.0669
H25 H 0.5389 0.5868 1.0752
loop_
_geom_bond_atom_site_label_1
_geom_bond_atom_site_label_2
_geom_bond_site_symmetry_1
_geom_bond_site_symmetry_2
S1 C8 1_555 1_555
S2 C9 1_555 1_555
O1 N1 1_555 1_555
O2 N1 1_555 1_555
O3 C1 1_555 1_555
O4 C10 1_555 1_555
O5 C15 1_555 1_555
O6 C16 1_555 1_555
O7 C13 1_555 1_555
O8 C18 1_555 1_555
O9 C12 1_555 1_555
O10 C20 1_555 1_555
O11 C11 1_555 1_555
O12 C22 1_555 1_555
N1 C4 1_555 1_555
N2 N3 1_555 1_555
N3 C9 1_555 1_555
C1 C2 1_555 1_555
C2 H1 1_555 1_555
C3 C2 1_555 1_555
H2 C3 1_555 1_555
C4 C3 1_555 1_555
C5 C4 1_555 1_555
H3 C5 1_555 1_555
C6 C1 1_555 1_555
H4 C6 1_555 1_555
C7 O3 1_555 1_555
H5 C7 1_555 1_555
H6 C7 1_555 1_555
C8 N2 1_555 1_555
C9 S1 1_555 1_555
C10 N3 1_555 1_555
H7 C10 1_555 1_555
C11 C10 1_555 1_555
H8 C11 1_555 1_555
C12 C11 1_555 1_555
H9 C12 1_555 1_555
C13 C12 1_555 1_555
H10 C13 1_555 1_555
C14 O4 1_555 1_555
H11 C14 1_555 1_555
C15 C14 1_555 1_555
H12 C15 1_555 1_555
H13 C15 1_555 1_555
C16 O5 1_555 1_555
C17 C16 1_555 1_555
H14 C17 1_555 1_555
H15 C17 1_555 1_555
H16 C17 1_555 1_555
C18 O7 1_555 1_555
C19 C18 1_555 1_555
H17 C19 1_555 1_555
H18 C19 1_555 1_555
H19 C19 1_555 1_555
C20 O9 1_555 1_555
C21 C20 1_555 1_555
H20 C21 1_555 1_555
H21 C21 1_555 1_555
H22 C21 1_555 1_555
C22 O11 1_555 1_555
C23 C22 1_555 1_555
H23 C23 1_555 1_555
H24 C23 1_555 1_555
H25 C23 1_555 1_555
C5 C6 1_555 1_555
C7 C8 1_555 1_555
C13 C14 1_555 1_555

#END
