
#######################################################################
#
#                 Cambridge Crystallographic Data Centre
#                                CCDC 
#
#######################################################################
#
# If this CIF has been generated from an entry in the Cambridge 
# Structural Database, then it will include bibliographic, chemical, 
# crystal, experimental, refinement or atomic coordinate data resulting 
# from the CCDC's data processing and validation procedures.
#
#######################################################################

data_SUSWUA
_chemical_formula_moiety         'C18 H14 O4 S4'
_chemical_name_systematic        
"diethyl 6,6'-bithieno[3,4-b]thiophene-2,2'-dicarboxylate"
_symmetry_cell_setting           monoclinic
_symmetry_space_group_name_H-M   'P 21/n'
_symmetry_Int_Tables_number      14
_space_group_name_Hall           '-P 2yn'
loop_
_symmetry_equiv_pos_site_id
_symmetry_equiv_pos_as_xyz
1 x,y,z
2 1/2-x,1/2+y,1/2-z
3 -x,-y,-z
4 1/2+x,1/2-y,1/2+z
_cell_length_a                   5.053(2)
_cell_length_b                   10.020(5)
_cell_length_c                   17.645(9)
_cell_angle_alpha                90
_cell_angle_beta                 90.903(7)
_cell_angle_gamma                90
_cell_volume                     893.274
_exptl_crystal_colour            orange
_exptl_crystal_description       rod
_cell_formula_units_Z            2
loop_
_atom_site_label
_atom_site_type_symbol
_atom_site_fract_x
_atom_site_fract_y
_atom_site_fract_z
S2 S 0.0629(3) 0.10862(17) 0.60720(8)
O1 O 0.7217(10) 0.2248(6) 0.2751(3)
O2 O 0.9167(9) 0.3781(4) 0.3515(2)
C1 C 1.2541(13) 0.5289(7) 0.3174(4)
H1 H 1.3647 0.5600 0.2773
H2 H 1.3627 0.4943 0.3579
H3 H 1.1493 0.6016 0.3358
C2 C 1.0760(13) 0.4213(8) 0.2879(4)
H4 H 0.9634 0.4551 0.2472
H5 H 1.1791 0.3474 0.2687
C3 C 0.7490(12) 0.2773(6) 0.3361(3)
C4 C 0.5895(12) 0.2411(6) 0.4022(3)
C5 C 0.2708(14) 0.1282(7) 0.4770(3)
C6 C 0.0834(13) 0.0532(7) 0.5139(3)
C7 C 0.3028(13) 0.2280(7) 0.5980(4)
H6 H 0.3610 0.2850 0.6364
C8 C 0.3975(13) 0.2269(7) 0.5243(4)
S3 S 0.3586(8) 0.1106(4) 0.3836(2)
C9 C 0.574(3) 0.2863(19) 0.4773(8)
H7 H 0.6813 0.3555 0.4946
S2B S -0.0629(3) -0.10862(17) 0.39280(8)
O1B O -0.7217(10) -0.2248(6) 0.7249(3)
O2B O -0.9167(9) -0.3781(4) 0.6485(2)
C1B C -1.2541(13) -0.5289(7) 0.6826(4)
H1B H -1.3647 -0.5600 0.7227
H2B H -1.3627 -0.4943 0.6421
H3B H -1.1493 -0.6016 0.6642
C2B C -1.0760(13) -0.4213(8) 0.7121(4)
H4B H -0.9634 -0.4551 0.7528
H5B H -1.1791 -0.3474 0.7313
C3B C -0.7490(12) -0.2773(6) 0.6639(3)
C4B C -0.5895(12) -0.2411(6) 0.5978(3)
C5B C -0.2708(14) -0.1282(7) 0.5230(3)
C6B C -0.0834(13) -0.0532(7) 0.4861(3)
C7B C -0.3028(13) -0.2280(7) 0.4020(4)
H6B H -0.3610 -0.2850 0.3636
C8B C -0.3975(13) -0.2269(7) 0.4757(4)
S3B S -0.3586(8) -0.1106(4) 0.6164(2)
C9B C -0.574(3) -0.2863(19) 0.5227(8)
H7B H -0.6813 -0.3555 0.5054
S1? S 0.6512(8) 0.3337(4) 0.4850(2)
C10? C 0.411(4) 0.1481(18) 0.4046(10)
H8? H 0.3729 0.0956 0.3624
loop_
_geom_bond_atom_site_label_1
_geom_bond_atom_site_label_2
_geom_bond_site_symmetry_1
_geom_bond_site_symmetry_2
S2 C6 1_555 1_555
O1 C3 1_555 1_555
O2 C2 1_555 1_555
C1 H1 1_555 1_555
H2 C1 1_555 1_555
H3 C1 1_555 1_555
C2 C1 1_555 1_555
H4 C2 1_555 1_555
H5 C2 1_555 1_555
C3 O2 1_555 1_555
C4 C3 1_555 1_555
C5 C6 1_555 1_555
C6 C6B 1_555 1_555
C7 S2 1_555 1_555
H6 C7 1_555 1_555
C8 C5 1_555 1_555
S3 C4 1_555 1_555
C9 C4 1_555 1_555
H7 C9 1_555 1_555
S2B C6B 1_555 1_555
O1B C3B 1_555 1_555
O2B C2B 1_555 1_555
C1B H1B 1_555 1_555
H2B C1B 1_555 1_555
H3B C1B 1_555 1_555
C2B C1B 1_555 1_555
H4B C2B 1_555 1_555
H5B C2B 1_555 1_555
C3B O2B 1_555 1_555
C4B C3B 1_555 1_555
C5B C6B 1_555 1_555
C7B S2B 1_555 1_555
H6B C7B 1_555 1_555
C8B C5B 1_555 1_555
S3B C4B 1_555 1_555
C9B C4B 1_555 1_555
H7B C9B 1_555 1_555
C5 S3 1_555 1_555
C7 C8 1_555 1_555
C8 C9 1_555 1_555
C5B S3B 1_555 1_555
C7B C8B 1_555 1_555
C8B C9B 1_555 1_555

#END
