
#######################################################################
#
#                 Cambridge Crystallographic Data Centre
#                                CCDC 
#
#######################################################################
#
# If this CIF has been generated from an entry in the Cambridge 
# Structural Database, then it will include bibliographic, chemical, 
# crystal, experimental, refinement or atomic coordinate data resulting 
# from the CCDC's data processing and validation procedures.
#
#######################################################################

data_SUSXUB
_chemical_formula_moiety         'C3 H2 N7 O2 1-,C1 H8 N5 1+'
_chemical_name_systematic        
'dihydrazinomethaniminium 5-(4-amino-1,2,5-oxadiazol-3-yl)-1H-tetrazol-1-olate'
_symmetry_cell_setting           monoclinic
_symmetry_space_group_name_H-M   'C c'
_symmetry_Int_Tables_number      9
_space_group_name_Hall           'C -2yc'
loop_
_symmetry_equiv_pos_site_id
_symmetry_equiv_pos_as_xyz
1 x,y,z
2 x,-y,1/2+z
3 1/2+x,1/2+y,z
4 1/2+x,1/2-y,1/2+z
_cell_length_a                   4.7182(2)
_cell_length_b                   17.4672(6)
_cell_length_c                   12.9425(5)
_cell_angle_alpha                90
_cell_angle_beta                 91.2610(10)
_cell_angle_gamma                90
_cell_volume                     1066.38
_exptl_crystal_colour            colorless
_exptl_crystal_description       rod
_cell_formula_units_Z            4
loop_
_atom_site_label
_atom_site_type_symbol
_atom_site_fract_x
_atom_site_fract_y
_atom_site_fract_z
O1 O 0.4867(3) 0.43646(9) 0.60496(12)
N1 N 0.4477(4) 0.48107(10) 0.52457(14)
N2 N 0.2768(5) 0.54236(12) 0.52622(17)
N3 N 0.2896(5) 0.57403(13) 0.43436(17)
N4 N 0.4657(5) 0.53487(12) 0.37363(17)
C1 C 0.5622(4) 0.47670(13) 0.43049(16)
C2 C 0.7612(5) 0.41934(13) 0.39709(18)
N5 N 0.8449(6) 0.36260(15) 0.45551(17)
O2 O 1.0385(5) 0.32285(12) 0.39866(17)
N6 N 1.0714(5) 0.35649(13) 0.30202(18)
C3 C 0.9014(5) 0.41530(13) 0.29976(18)
N7 N 0.8697(6) 0.46189(16) 0.21860(19)
H1 H 0.739(7) 0.499(2) 0.212(3)
H2 H 0.989(9) 0.454(2) 0.164(3)
N8 N -0.1101(5) 0.33686(12) 0.7775(2)
H3 H -0.046(8) 0.3569(19) 0.831(3)
H4 H -0.282(8) 0.3589(18) 0.752(3)
N9 N 0.1049(5) 0.33730(12) 0.70441(16)
H5 H 0.179(7) 0.3742(19) 0.688(3)
C4 C 0.1624(4) 0.27367(12) 0.65352(17)
N10 N 0.0142(5) 0.21076(12) 0.6668(2)
H6 H 0.068(7) 0.174(2) 0.637(3)
H7 H -0.122(7) 0.2101(19) 0.716(3)
N11 N 0.3766(4) 0.27456(12) 0.58822(17)
H8 H 0.455(7) 0.313(2) 0.574(3)
N12 N 0.4131(5) 0.20987(12) 0.5251(2)
H9 H 0.588(9) 0.200(2) 0.528(3)
H10 H 0.386(7) 0.2272(19) 0.458(3)
loop_
_geom_bond_atom_site_label_1
_geom_bond_atom_site_label_2
_geom_bond_site_symmetry_1
_geom_bond_site_symmetry_2
O1 N1 1_555 1_555
N1 N2 1_555 1_555
N2 N3 1_555 1_555
N3 N4 1_555 1_555
N4 C1 1_555 1_555
C1 N1 1_555 1_555
C2 C1 1_555 1_555
N5 C2 1_555 1_555
O2 N5 1_555 1_555
N6 O2 1_555 1_555
C3 C2 1_555 1_555
N7 C3 1_555 1_555
H1 N7 1_555 1_555
H2 N7 1_555 1_555
N8 H3 1_555 1_555
H4 N8 1_555 1_555
N9 N8 1_555 1_555
H5 N9 1_555 1_555
C4 N9 1_555 1_555
N10 C4 1_555 1_555
H6 N10 1_555 1_555
H7 N10 1_555 1_555
N11 C4 1_555 1_555
H8 N11 1_555 1_555
N12 N11 1_555 1_555
H9 N12 1_555 1_555
H10 N12 1_555 1_555
N6 C3 1_555 1_555

#END
