
#######################################################################
#
#                 Cambridge Crystallographic Data Centre
#                                CCDC 
#
#######################################################################
#
# If this CIF has been generated from an entry in the Cambridge 
# Structural Database, then it will include bibliographic, chemical, 
# crystal, experimental, refinement or atomic coordinate data resulting 
# from the CCDC's data processing and validation procedures.
#
#######################################################################

data_SUSYAI
_chemical_formula_moiety         'C3 H3 N7 O2,H2 O1'
_chemical_name_systematic        
'5-(4-amino-1,2,5-oxadiazol-3-yl)-1H-tetrazol-1-ol monohydrate'
_symmetry_cell_setting           monoclinic
_symmetry_space_group_name_H-M   'P 21/n'
_symmetry_Int_Tables_number      14
_space_group_name_Hall           '-P 2yn'
loop_
_symmetry_equiv_pos_site_id
_symmetry_equiv_pos_as_xyz
1 x,y,z
2 1/2-x,1/2+y,1/2-z
3 -x,-y,-z
4 1/2+x,1/2-y,1/2+z
_cell_length_a                   4.5123(7)
_cell_length_b                   13.439(2)
_cell_length_c                   11.8813(19)
_cell_angle_alpha                90
_cell_angle_beta                 95.021(2)
_cell_angle_gamma                90
_cell_volume                     717.727
_exptl_crystal_colour            yellow
_exptl_crystal_description       prism
_cell_formula_units_Z            4
loop_
_atom_site_label
_atom_site_type_symbol
_atom_site_fract_x
_atom_site_fract_y
_atom_site_fract_z
N1 N 0.8587(3) 0.01723(9) 0.62670(11)
C1 C 0.7738(3) 0.10817(10) 0.59188(11)
N2 N 0.5538(2) 0.12751(8) 0.51443(9)
O1 O 0.5415(2) 0.23235(7) 0.50705(8)
N3 N 0.7556(2) 0.27533(8) 0.58037(9)
C2 C 0.8980(3) 0.20186(10) 0.63221(10)
C3 C 1.1433(3) 0.21584(10) 0.71847(10)
N4 N 1.2721(2) 0.30231(8) 0.75188(9)
O2 O 1.1901(2) 0.39676(7) 0.72376(9)
N5 N 1.4959(2) 0.28563(8) 0.83084(9)
N6 N 1.5030(3) 0.18935(8) 0.84448(9)
N7 N 1.2874(2) 0.14340(8) 0.77574(9)
H1 H 1.007(4) 0.0104(13) 0.6770(15)
H2 H 0.769(4) -0.0341(14) 0.5964(14)
H3 H 1.220(4) 0.4050(13) 0.6507(17)
O3 O 0.2501(2) 0.44259(7) 0.51641(8)
H4 H 0.221(4) 0.4006(12) 0.4694(14)
H5 H 0.394(6) 0.467(2) 0.496(3)
H6? H 0.105(6) 0.476(2) 0.497(3)
loop_
_geom_bond_atom_site_label_1
_geom_bond_atom_site_label_2
_geom_bond_site_symmetry_1
_geom_bond_site_symmetry_2
N1 C1 1_555 1_555
C1 N2 1_555 1_555
N2 O1 1_555 1_555
O1 N3 1_555 1_555
N3 C2 1_555 1_555
C2 C1 1_555 1_555
C3 C2 1_555 1_555
N4 C3 1_555 1_555
O2 N4 1_555 1_555
N5 N4 1_555 1_555
N6 N5 1_555 1_555
N7 C3 1_555 1_555
H1 N1 1_555 1_555
H2 N1 1_555 1_555
H3 O2 1_555 1_555
O3 H4 1_555 1_555
H5 O3 1_555 1_555
N6 N7 1_555 1_555

#END
