
#######################################################################
#
#                 Cambridge Crystallographic Data Centre
#                                CCDC 
#
#######################################################################
#
# If this CIF has been generated from an entry in the Cambridge 
# Structural Database, then it will include bibliographic, chemical, 
# crystal, experimental, refinement or atomic coordinate data resulting 
# from the CCDC's data processing and validation procedures.
#
#######################################################################

data_SUTCIV
_chemical_formula_moiety         'C13 H25 B10 N1 Si1'
_chemical_name_systematic        
2,3-(1,2-Dicarba-closo-dodecaborane-1,2-diyl)-1-(trimethylsilyl)indole
_symmetry_cell_setting           monoclinic
_symmetry_space_group_name_H-M   'C c'
_symmetry_Int_Tables_number      9
_space_group_name_Hall           'C -2yc'
loop_
_symmetry_equiv_pos_site_id
_symmetry_equiv_pos_as_xyz
1 x,y,z
2 x,-y,1/2+z
3 1/2+x,1/2+y,z
4 1/2+x,1/2-y,1/2+z
_cell_length_a                   7.092(12)
_cell_length_b                   21.92(4)
_cell_length_c                   26.25(5)
_cell_angle_alpha                90
_cell_angle_beta                 92.31(3)
_cell_angle_gamma                90
_cell_volume                     4077.42
_exptl_crystal_colour            colorless
_exptl_crystal_description       block
_cell_formula_units_Z            8
loop_
_atom_site_label
_atom_site_type_symbol
_atom_site_fract_x
_atom_site_fract_y
_atom_site_fract_z
Si1 Si 0.6239(2) 0.37281(6) 1.02013(5)
B1 B 0.4197(8) 0.1984(2) 0.97232(19)
H1 H 0.3068 0.2303 0.9819
B2 B 0.3763(8) 0.1369(2) 0.9285(2)
H2 H 0.2361 0.1296 0.9100
B3 B 0.5890(8) 0.1221(2) 0.8952(2)
H3 H 0.5823 0.1058 0.8556
B4 B 0.7685(8) 0.1737(2) 0.9187(2)
H4 H 0.8788 0.1904 0.8939
B5 B 0.6055(9) 0.1779(2) 1.0180(2)
H5 H 0.6123 0.1973 1.0567
B6 B 0.4296(9) 0.1231(3) 0.9959(2)
H6 H 0.3222 0.1056 1.0212
B7 B 0.5320(9) 0.0752(3) 0.9485(3)
H7 H 0.4905 0.0272 0.9432
B8 B 0.7722(9) 0.0991(3) 0.9421(2)
H8 H 0.8839 0.0667 0.9326
B9 B 0.8189(8) 0.1627(2) 0.9855(2)
H9 H 0.9585 0.1722 1.0036
B10 B 0.6696(9) 0.1005(3) 1.0039(2)
H10 H 0.7151 0.0685 1.0343
C1 C 0.5300(6) 0.19446(18) 0.91383(15)
C2 C 0.6558(6) 0.21704(18) 0.96384(16)
C3 C 0.5348(6) 0.26100(18) 0.89181(16)
H11 H 0.6010 0.2638 0.8598
C4 C 0.3615(7) 0.30078(19) 0.89243(17)
C5 C 0.2020(7) 0.3024(2) 0.85865(17)
H12 H 0.1904 0.2745 0.8321
C6 C 0.0616(8) 0.3460(2) 0.8651(2)
H13 H -0.0430 0.3477 0.8426
C7 C 0.0797(7) 0.3868(2) 0.9055(2)
H14 H -0.0146 0.4156 0.9099
C8 C 0.2377(7) 0.38570(19) 0.93998(18)
H15 H 0.2475 0.4135 0.9667
C9 C 0.3801(6) 0.34205(19) 0.93340(17)
C10 C 0.6594(6) 0.28402(18) 0.94025(15)
H16 H 0.7863 0.2970 0.9315
C11 C 0.6339(9) 0.4565(2) 1.0063(2)
H17 H 0.5100 0.4709 0.9965
H18 H 0.7178 0.4636 0.9792
H19 H 0.6791 0.4778 1.0363
C12 C 0.8650(7) 0.3426(2) 1.03942(18)
H20 H 0.8566 0.2997 1.0465
H21 H 0.9120 0.3635 1.0694
H22 H 0.9493 0.3491 1.0122
C13 C 0.4567(8) 0.3567(3) 1.07142(19)
H23 H 0.3339 0.3720 1.0614
H24 H 0.5005 0.3763 1.1024
H25 H 0.4496 0.3134 1.0769
N1 N 0.5501(5) 0.33309(15) 0.96355(13)
Si2 Si 0.0202(2) -0.02082(6) 0.28233(6)
B11 B 0.2606(7) 0.1364(2) 0.21836(18)
H26 H 0.3655 0.1030 0.2327
B12 B 0.3135(9) 0.1894(2) 0.1689(2)
H27 H 0.4515 0.1893 0.1513
B13 B 0.1001(9) 0.2057(2) 0.1317(2)
H28 H 0.1053 0.2162 0.0908
B14 B -0.0889(8) 0.1630(3) 0.1574(2)
H29 H -0.2064 0.1464 0.1326
B15 B 0.0896(8) 0.1686(2) 0.2587(2)
H30 H 0.0845 0.1555 0.2991
B16 B 0.2807(8) 0.2149(2) 0.2334(2)
H31 H 0.3989 0.2328 0.2574
B17 B 0.1797(9) 0.2583(3) 0.1811(2)
H32 H 0.2331 0.3040 0.1720
B18 B -0.0696(9) 0.2405(3) 0.1738(2)
H33 H -0.1739 0.2744 0.1600
B19 B -0.1262(8) 0.1843(3) 0.22239(19)
H34 H -0.2652 0.1811 0.2393
B20 B 0.0434(9) 0.2447(3) 0.2367(2)
H35 H 0.0110 0.2816 0.2634
C14 C 0.1398(6) 0.1351(2) 0.15876(15)
C15 C 0.0183(6) 0.12280(19) 0.20908(15)
C16 C 0.1164(6) 0.06624(19) 0.14299(17)
H36 H 0.0468 0.0606 0.1103
C17 C 0.2788(7) 0.0219(2) 0.15123(18)
C18 C 0.4330(7) 0.0133(2) 0.12115(18)
H37 H 0.4463 0.0364 0.0918
C19 C 0.5703(8) -0.0311(3) 0.1358(2)
H38 H 0.6765 -0.0368 0.1168
C20 C 0.5435(9) -0.0657(2) 0.1791(3)
H39 H 0.6307 -0.0960 0.1880
C21 C 0.3881(9) -0.0566(2) 0.2100(2)
H40 H 0.3741 -0.0798 0.2393
C22 C 0.2548(7) -0.0116(2) 0.19584(18)
C23 C -0.0097(6) 0.0532(2) 0.19183(16)
H41 H -0.1411 0.0428 0.1826
C24 C -0.0075(9) -0.1061(2) 0.2813(2)
H42 H -0.1020 -0.1173 0.2557
H43 H -0.0451 -0.1200 0.3140
H44 H 0.1105 -0.1247 0.2735
C25 C 0.2065(8) 0.0026(3) 0.33240(19)
H45 H 0.2188 0.0463 0.3325
H46 H 0.3252 -0.0155 0.3247
H47 H 0.1698 -0.0109 0.3653
C26 C -0.2087(8) 0.0184(2) 0.2945(2)
H48 H -0.3022 0.0063 0.2690
H49 H -0.1912 0.0618 0.2931
H50 H -0.2498 0.0071 0.3276
N2 N 0.0897(6) 0.00545(16) 0.22165(14)
loop_
_geom_bond_atom_site_label_1
_geom_bond_atom_site_label_2
_geom_bond_site_symmetry_1
_geom_bond_site_symmetry_2
Si1 C11 1_555 1_555
B1 H1 1_555 1_555
B2 B1 1_555 1_555
H2 B2 1_555 1_555
B3 B2 1_555 1_555
H3 B3 1_555 1_555
B4 B3 1_555 1_555
H4 B4 1_555 1_555
B5 B1 1_555 1_555
H5 B5 1_555 1_555
B6 B1 1_555 1_555
H6 B6 1_555 1_555
B7 B2 1_555 1_555
H7 B7 1_555 1_555
B8 B3 1_555 1_555
H8 B8 1_555 1_555
B9 B4 1_555 1_555
H9 B9 1_555 1_555
B10 B5 1_555 1_555
H10 B10 1_555 1_555
C1 B1 1_555 1_555
C2 B1 1_555 1_555
C3 C1 1_555 1_555
H11 C3 1_555 1_555
C4 C3 1_555 1_555
C5 C4 1_555 1_555
H12 C5 1_555 1_555
C6 C5 1_555 1_555
H13 C6 1_555 1_555
C7 C6 1_555 1_555
H14 C7 1_555 1_555
C8 C7 1_555 1_555
H15 C8 1_555 1_555
C9 C4 1_555 1_555
C10 C2 1_555 1_555
H16 C10 1_555 1_555
C11 H17 1_555 1_555
H18 C11 1_555 1_555
H19 C11 1_555 1_555
C12 Si1 1_555 1_555
H20 C12 1_555 1_555
H21 C12 1_555 1_555
H22 C12 1_555 1_555
C13 Si1 1_555 1_555
H23 C13 1_555 1_555
H24 C13 1_555 1_555
H25 C13 1_555 1_555
N1 Si1 1_555 1_555
Si2 C24 1_555 1_555
B11 H26 1_555 1_555
B12 B11 1_555 1_555
H27 B12 1_555 1_555
B13 B12 1_555 1_555
H28 B13 1_555 1_555
B14 B13 1_555 1_555
H29 B14 1_555 1_555
B15 B11 1_555 1_555
H30 B15 1_555 1_555
B16 B11 1_555 1_555
H31 B16 1_555 1_555
B17 B12 1_555 1_555
H32 B17 1_555 1_555
B18 B13 1_555 1_555
H33 B18 1_555 1_555
B19 B14 1_555 1_555
H34 B19 1_555 1_555
B20 B15 1_555 1_555
H35 B20 1_555 1_555
C14 B11 1_555 1_555
C15 B11 1_555 1_555
C16 C14 1_555 1_555
H36 C16 1_555 1_555
C17 C16 1_555 1_555
C18 C17 1_555 1_555
H37 C18 1_555 1_555
C19 C18 1_555 1_555
H38 C19 1_555 1_555
C20 C19 1_555 1_555
H39 C20 1_555 1_555
C21 C20 1_555 1_555
H40 C21 1_555 1_555
C22 C17 1_555 1_555
C23 C15 1_555 1_555
H41 C23 1_555 1_555
C24 H42 1_555 1_555
H43 C24 1_555 1_555
H44 C24 1_555 1_555
C25 Si2 1_555 1_555
H45 C25 1_555 1_555
H46 C25 1_555 1_555
H47 C25 1_555 1_555
C26 Si2 1_555 1_555
H48 C26 1_555 1_555
H49 C26 1_555 1_555
H50 C26 1_555 1_555
N2 Si2 1_555 1_555
B2 B6 1_555 1_555
B2 C1 1_555 1_555
B3 B7 1_555 1_555
B3 C1 1_555 1_555
B4 B8 1_555 1_555
B4 C1 1_555 1_555
B4 C2 1_555 1_555
B5 B6 1_555 1_555
B5 B9 1_555 1_555
B5 C2 1_555 1_555
B6 B7 1_555 1_555
B6 B10 1_555 1_555
B7 B8 1_555 1_555
B7 B10 1_555 1_555
B8 B9 1_555 1_555
B8 B10 1_555 1_555
B9 B10 1_555 1_555
B9 C2 1_555 1_555
C1 C2 1_555 1_555
C3 C10 1_555 1_555
C8 C9 1_555 1_555
C9 N1 1_555 1_555
C10 N1 1_555 1_555
B12 B16 1_555 1_555
B12 C14 1_555 1_555
B13 B17 1_555 1_555
B13 C14 1_555 1_555
B14 B18 1_555 1_555
B14 C14 1_555 1_555
B14 C15 1_555 1_555
B15 B16 1_555 1_555
B15 B19 1_555 1_555
B15 C15 1_555 1_555
B16 B17 1_555 1_555
B16 B20 1_555 1_555
B17 B18 1_555 1_555
B17 B20 1_555 1_555
B18 B19 1_555 1_555
B18 B20 1_555 1_555
B19 B20 1_555 1_555
B19 C15 1_555 1_555
C14 C15 1_555 1_555
C16 C23 1_555 1_555
C21 C22 1_555 1_555
C22 N2 1_555 1_555
C23 N2 1_555 1_555

#END
