
#######################################################################
#
#                 Cambridge Crystallographic Data Centre
#                                CCDC 
#
#######################################################################
#
# If this CIF has been generated from an entry in the Cambridge 
# Structural Database, then it will include bibliographic, chemical, 
# crystal, experimental, refinement or atomic coordinate data resulting 
# from the CCDC's data processing and validation procedures.
#
#######################################################################

data_SUTDIW
_chemical_formula_moiety         'C16 H21 B10 N1'
_chemical_name_systematic        
2,3-(1,2-Dicarba-closo-dodecaborane-1,2-diyl)-1-phenylindole
_symmetry_cell_setting           monoclinic
_symmetry_space_group_name_H-M   'P 21'
_symmetry_Int_Tables_number      4
_space_group_name_Hall           'P 2yb'
loop_
_symmetry_equiv_pos_site_id
_symmetry_equiv_pos_as_xyz
1 x,y,z
2 -x,1/2+y,-z
_cell_length_a                   7.077(2)
_cell_length_b                   8.790(3)
_cell_length_c                   14.988(5)
_cell_angle_alpha                90
_cell_angle_beta                 100.256(6)
_cell_angle_gamma                90
_cell_volume                     917.459
_exptl_crystal_colour            colorless
_exptl_crystal_description       block
_cell_formula_units_Z            2
loop_
_atom_site_label
_atom_site_type_symbol
_atom_site_fract_x
_atom_site_fract_y
_atom_site_fract_z
N1 N 0.4740(3) 0.9061(2) 0.82325(12)
C1 C 0.5408(3) 1.1491(3) 0.73548(14)
C2 C 0.3949(3) 1.1163(3) 0.64212(14)
C3 C 0.5592(3) 0.9744(3) 0.75158(14)
H1 H 0.6886 0.9361 0.7500
C4 C 0.4137(3) 0.9432(3) 0.66088(14)
H2 H 0.4697 0.8869 0.6155
C5 C 0.5964(3) 0.8512(3) 0.90147(14)
C6 C 0.7377(4) 0.9478(3) 0.94615(17)
H3 H 0.7457 1.0475 0.9265
C7 C 0.8654(4) 0.8953(4) 1.01942(18)
H4 H 0.9600 0.9601 1.0491
C8 C 0.8554(4) 0.7489(4) 1.04944(18)
H5 H 0.9445 0.7136 1.0983
C9 C 0.7132(4) 0.6552(4) 1.00686(18)
H6 H 0.7028 0.5568 1.0283
C10 C 0.5857(3) 0.7051(3) 0.93292(16)
H7 H 0.4913 0.6396 0.9038
C11 C 0.2948(3) 0.8418(3) 0.78618(15)
C12 C 0.1624(3) 0.7766(3) 0.83255(17)
H8 H 0.1881 0.7672 0.8953
C13 C -0.0086(3) 0.7262(3) 0.78247(18)
H9 H -0.0984 0.6807 0.8123
C14 C -0.0504(4) 0.7413(3) 0.68950(19)
H10 H -0.1659 0.7046 0.6573
C15 C 0.0802(4) 0.8112(3) 0.64413(17)
H11 H 0.0517 0.8240 0.5816
C16 C 0.2524(3) 0.8616(3) 0.69243(15)
B1 B 0.3043(4) 1.1974(3) 0.73100(18)
H12 H 0.2051 1.1421 0.7696
B2 B 0.4928(4) 1.3163(3) 0.78544(19)
H13 H 0.5173 1.3375 0.8589
B3 B 0.6876(4) 1.3017(4) 0.7263(2)
H14 H 0.8362 1.3135 0.7626
B4 B 0.6250(4) 1.1736(3) 0.63517(18)
H15 H 0.7345 1.1026 0.6118
B5 B 0.2265(4) 1.2560(3) 0.61741(19)
H16 H 0.0781 1.2384 0.5820
B6 B 0.2915(4) 1.3906(3) 0.7080(2)
H17 H 0.1838 1.4635 0.7314
B7 B 0.5278(4) 1.4570(4) 0.70454(19)
H18 H 0.5731 1.5733 0.7255
B8 B 0.6102(4) 1.3662(4) 0.61243(19)
H19 H 0.7085 1.4229 0.5738
B9 B 0.4241(4) 1.2408(4) 0.55926(19)
H20 H 0.4012 1.2132 0.4865
B10 B 0.3640(4) 1.4205(4) 0.6018(2)
H21 H 0.3029 1.5130 0.5562
loop_
_geom_bond_atom_site_label_1
_geom_bond_atom_site_label_2
_geom_bond_site_symmetry_1
_geom_bond_site_symmetry_2
N1 C3 1_555 1_555
C1 C2 1_555 1_555
C2 C4 1_555 1_555
C3 C1 1_555 1_555
H1 C3 1_555 1_555
C4 C3 1_555 1_555
H2 C4 1_555 1_555
C5 N1 1_555 1_555
C6 C5 1_555 1_555
H3 C6 1_555 1_555
C7 C6 1_555 1_555
H4 C7 1_555 1_555
C8 C7 1_555 1_555
H5 C8 1_555 1_555
C9 C8 1_555 1_555
H6 C9 1_555 1_555
C10 C5 1_555 1_555
H7 C10 1_555 1_555
C11 N1 1_555 1_555
C12 C11 1_555 1_555
H8 C12 1_555 1_555
C13 C12 1_555 1_555
H9 C13 1_555 1_555
C14 C13 1_555 1_555
H10 C14 1_555 1_555
C15 C14 1_555 1_555
H11 C15 1_555 1_555
C16 C4 1_555 1_555
B1 C1 1_555 1_555
H12 B1 1_555 1_555
B2 C1 1_555 1_555
H13 B2 1_555 1_555
B3 C1 1_555 1_555
H14 B3 1_555 1_555
B4 C1 1_555 1_555
H15 B4 1_555 1_555
B5 C2 1_555 1_555
H16 B5 1_555 1_555
B6 B1 1_555 1_555
H17 B6 1_555 1_555
B7 B2 1_555 1_555
H18 B7 1_555 1_555
B8 B3 1_555 1_555
H19 B8 1_555 1_555
B9 C2 1_555 1_555
H20 B9 1_555 1_555
B10 B5 1_555 1_555
H21 B10 1_555 1_555
C2 B1 1_555 1_555
C2 B4 1_555 1_555
C9 C10 1_555 1_555
C11 C16 1_555 1_555
C15 C16 1_555 1_555
B1 B2 1_555 1_555
B1 B5 1_555 1_555
B2 B3 1_555 1_555
B2 B6 1_555 1_555
B3 B4 1_555 1_555
B3 B7 1_555 1_555
B4 B8 1_555 1_555
B4 B9 1_555 1_555
B5 B6 1_555 1_555
B5 B9 1_555 1_555
B6 B7 1_555 1_555
B6 B10 1_555 1_555
B7 B8 1_555 1_555
B7 B10 1_555 1_555
B8 B9 1_555 1_555
B8 B10 1_555 1_555
B9 B10 1_555 1_555

#END
