
#######################################################################
#
#                 Cambridge Crystallographic Data Centre
#                                CCDC 
#
#######################################################################
#
# If this CIF has been generated from an entry in the Cambridge 
# Structural Database, then it will include bibliographic, chemical, 
# crystal, experimental, refinement or atomic coordinate data resulting 
# from the CCDC's data processing and validation procedures.
#
#######################################################################

data_SUTFEU
_chemical_formula_moiety         'C9 H15 B10 N1 S1'
_chemical_name_systematic        
2-(1,2-Dicarba-closo-dodecaboran-1-yl)-1,3-benzothiazole
_symmetry_cell_setting           monoclinic
_symmetry_space_group_name_H-M   'P 21/n'
_symmetry_Int_Tables_number      14
_space_group_name_Hall           '-P 2yn'
loop_
_symmetry_equiv_pos_site_id
_symmetry_equiv_pos_as_xyz
1 x,y,z
2 1/2-x,1/2+y,1/2-z
3 -x,-y,-z
4 1/2+x,1/2-y,1/2+z
_cell_length_a                   7.121(2)
_cell_length_b                   20.584(6)
_cell_length_c                   10.452(3)
_cell_angle_alpha                90
_cell_angle_beta                 96.443(7)
_cell_angle_gamma                90
_cell_volume                     1522.36
_exptl_crystal_colour            colorless
_exptl_crystal_description       block
_cell_formula_units_Z            4
loop_
_atom_site_label
_atom_site_type_symbol
_atom_site_fract_x
_atom_site_fract_y
_atom_site_fract_z
S1 S 0.67480(8) 0.50049(2) 0.74254(5)
N1 N 0.7491(2) 0.60532(7) 0.87806(15)
C1 C 0.6832(2) 0.62822(8) 0.64823(16)
C2 C 0.7549(3) 0.70308(9) 0.67465(18)
H1 H 0.8175 0.7178 0.7713
C3 C 0.7070(2) 0.58372(9) 0.76210(17)
C4 C 0.7574(3) 0.55322(10) 0.96462(18)
C5 C 0.7993(3) 0.55849(12) 1.09823(19)
H2 H 0.8257 0.5987 1.1368
C6 C 0.8007(3) 0.50261(13) 1.1713(2)
H3 H 0.8289 0.5053 1.2602
C7 C 0.7608(3) 0.44255(13) 1.1149(2)
H4 H 0.7625 0.4058 1.1669
C8 C 0.7188(3) 0.43597(11) 0.9840(2)
H5 H 0.6908 0.3956 0.9467
C9 C 0.7196(3) 0.49227(9) 0.90875(19)
B1 B 0.8890(3) 0.65332(12) 0.5882(2)
H6 H 1.0317 0.6354 0.6212
B2 B 0.7169(4) 0.60443(12) 0.4964(2)
H7 H 0.7486 0.5543 0.4692
B3 B 0.4888(3) 0.62594(14) 0.5360(2)
H8 H 0.3746 0.5898 0.5341
B4 B 0.5148(3) 0.68872(12) 0.6541(3)
H9 H 0.4191 0.6934 0.7293
B5 B 0.8447(3) 0.73596(12) 0.5454(2)
H10 H 0.9599 0.7718 0.5505
B6 B 0.8181(4) 0.67379(13) 0.4266(2)
H11 H 0.9156 0.6691 0.3526
B7 B 0.5714(4) 0.65704(14) 0.3935(2)
H12 H 0.5093 0.6415 0.2973
B8 B 0.4466(4) 0.70853(15) 0.4916(3)
H13 H 0.3035 0.7264 0.4593
B9 B 0.6163(4) 0.75744(12) 0.5859(3)
H14 H 0.5852 0.8070 0.6169
B10 B 0.6492(3) 0.73813(13) 0.4237(3)
H15 H 0.6372 0.7752 0.3474
loop_
_geom_bond_atom_site_label_1
_geom_bond_atom_site_label_2
_geom_bond_site_symmetry_1
_geom_bond_site_symmetry_2
S1 C3 1_555 1_555
N1 C3 1_555 1_555
C1 C2 1_555 1_555
C2 H1 1_555 1_555
C3 C1 1_555 1_555
C4 N1 1_555 1_555
C5 C4 1_555 1_555
H2 C5 1_555 1_555
C6 C5 1_555 1_555
H3 C6 1_555 1_555
C7 C6 1_555 1_555
H4 C7 1_555 1_555
C8 C7 1_555 1_555
H5 C8 1_555 1_555
C9 S1 1_555 1_555
B1 C1 1_555 1_555
H6 B1 1_555 1_555
B2 C1 1_555 1_555
H7 B2 1_555 1_555
B3 C1 1_555 1_555
H8 B3 1_555 1_555
B4 C1 1_555 1_555
H9 B4 1_555 1_555
B5 C2 1_555 1_555
H10 B5 1_555 1_555
B6 B1 1_555 1_555
H11 B6 1_555 1_555
B7 B2 1_555 1_555
H12 B7 1_555 1_555
B8 B3 1_555 1_555
H13 B8 1_555 1_555
B9 C2 1_555 1_555
H14 B9 1_555 1_555
B10 B5 1_555 1_555
H15 B10 1_555 1_555
C2 B1 1_555 1_555
C2 B4 1_555 1_555
C4 C9 1_555 1_555
C8 C9 1_555 1_555
B1 B2 1_555 1_555
B1 B5 1_555 1_555
B2 B3 1_555 1_555
B2 B6 1_555 1_555
B3 B4 1_555 1_555
B3 B7 1_555 1_555
B4 B8 1_555 1_555
B4 B9 1_555 1_555
B5 B6 1_555 1_555
B5 B9 1_555 1_555
B6 B7 1_555 1_555
B6 B10 1_555 1_555
B7 B8 1_555 1_555
B7 B10 1_555 1_555
B8 B9 1_555 1_555
B8 B10 1_555 1_555
B9 B10 1_555 1_555

#END
