
#######################################################################
#
#                 Cambridge Crystallographic Data Centre
#                                CCDC 
#
#######################################################################
#
# If this CIF has been generated from an entry in the Cambridge 
# Structural Database, then it will include bibliographic, chemical, 
# crystal, experimental, refinement or atomic coordinate data resulting 
# from the CCDC's data processing and validation procedures.
#
#######################################################################

data_SUTFIY
_chemical_formula_moiety         'C7 H17 B10 N1'
_chemical_name_systematic        
3-(1,2-Dicarba-closo-dodecaboran-1-yl)-1-methylpyrrole
_symmetry_cell_setting           triclinic
_symmetry_space_group_name_H-M   'P -1'
_symmetry_Int_Tables_number      2
_space_group_name_Hall           '-P 1'
loop_
_symmetry_equiv_pos_site_id
_symmetry_equiv_pos_as_xyz
1 x,y,z
2 -x,-y,-z
_cell_length_a                   10.3132(8)
_cell_length_b                   11.0905(8)
_cell_length_c                   12.8176(8)
_cell_angle_alpha                104.8530(10)
_cell_angle_beta                 105.1280(10)
_cell_angle_gamma                101.135(2)
_cell_volume                     1313.78
_exptl_crystal_colour            colorless
_exptl_crystal_description       block
_cell_formula_units_Z            4
loop_
_atom_site_label
_atom_site_type_symbol
_atom_site_fract_x
_atom_site_fract_y
_atom_site_fract_z
N1 N 0.53569(18) 0.75760(16) 0.28830(16)
C1 C 0.44730(18) 0.40537(17) 0.22118(15)
C2 C 0.28685(19) 0.31777(19) 0.20504(16)
H1 H 0.1989 0.3611 0.1959
C3 C 0.47024(19) 0.54223(18) 0.22343(16)
C4 C 0.4468(2) 0.5892(2) 0.12931(19)
H2 H 0.4101 0.5392 0.0525
C5 C 0.4878(3) 0.7215(2) 0.1723(2)
H3 H 0.4838 0.7777 0.1295
C6 C 0.5258(2) 0.64936(18) 0.32009(17)
H4 H 0.5522 0.6480 0.3948
C7 C 0.5941(3) 0.8913(2) 0.3660(2)
H5 H 0.6204 0.8910 0.4435
H6 H 0.5252 0.9380 0.3544
H7 H 0.6749 0.9326 0.3511
B1 B 0.3497(2) 0.2850(2) 0.09313(19)
H8 H 0.3085 0.3045 0.0127
B2 B 0.5310(2) 0.3053(2) 0.15702(19)
H9 H 0.6087 0.3367 0.1177
B3 B 0.5690(2) 0.3566(2) 0.30724(19)
H10 H 0.6715 0.4214 0.3654
B4 B 0.4120(2) 0.3689(2) 0.33595(19)
H11 H 0.4110 0.4426 0.4116
B5 B 0.2537(2) 0.1599(2) 0.1290(2)
H12 H 0.1502 0.0970 0.0713
B6 B 0.4101(3) 0.1480(2) 0.0989(2)
H13 H 0.4091 0.0763 0.0212
B7 B 0.5460(2) 0.1917(2) 0.2319(2)
H14 H 0.6336 0.1478 0.2409
B8 B 0.4731(3) 0.2321(2) 0.3436(2)
H15 H 0.5133 0.2153 0.4255
B9 B 0.2922(2) 0.2115(2) 0.2792(2)
H16 H 0.2140 0.1820 0.3187
B10 B 0.3754(3) 0.1015(2) 0.2144(2)
H17 H 0.3524 -0.0005 0.2120
N2 N 0.90643(17) 0.20204(14) 0.17856(13)
C8 C 0.99169(17) 0.55583(16) 0.25866(14)
C9 C 0.86796(18) 0.62982(17) 0.27610(15)
H18 H 0.7577 0.5733 0.2474
C10 C 0.94964(18) 0.41274(17) 0.20326(14)
C11 C 0.9065(3) 0.3444(2) 0.08524(17)
H19 H 0.8975 0.3805 0.0267
C12 C 0.8806(3) 0.2158(2) 0.07335(18)
H20 H 0.8502 0.1483 0.0044
C13 C 0.9485(2) 0.32152(17) 0.25805(15)
H21 H 0.9725 0.3388 0.3366
C14 C 0.8915(2) 0.07897(18) 0.2020(2)
H22 H 0.9151 0.0954 0.2829
H23 H 0.9530 0.0346 0.1741
H24 H 0.7966 0.0260 0.1646
B11 B 0.9790(2) 0.6140(2) 0.39297(17)
H25 H 0.9481 0.5512 0.4414
B12 B 1.1435(2) 0.6360(2) 0.36975(18)
H26 H 1.2211 0.5886 0.4043
B13 B 1.1194(2) 0.6572(2) 0.23425(19)
H27 H 1.1818 0.6237 0.1810
B14 B 0.9406(2) 0.6476(2) 0.17385(18)
H28 H 0.8851 0.6062 0.0813
B15 B 0.9267(2) 0.7585(2) 0.39769(19)
H29 H 0.8631 0.7905 0.4504
B16 B 1.1051(2) 0.7668(2) 0.45800(19)
H30 H 1.1587 0.8053 0.5509
B17 B 1.1919(2) 0.7947(2) 0.3599(2)
H31 H 1.3019 0.8518 0.3890
B18 B 1.0655(3) 0.8007(2) 0.2371(2)
H32 H 1.0929 0.8610 0.1857
B19 B 0.9024(2) 0.7785(2) 0.2619(2)
H33 H 0.8227 0.8234 0.2265
B20 B 1.0583(2) 0.8696(2) 0.3766(2)
H34 H 1.0819 0.9752 0.4163
loop_
_geom_bond_atom_site_label_1
_geom_bond_atom_site_label_2
_geom_bond_site_symmetry_1
_geom_bond_site_symmetry_2
N1 C5 1_555 1_555
C1 C2 1_555 1_555
C2 H1 1_555 1_555
C3 C1 1_555 1_555
C4 C3 1_555 1_555
H2 C4 1_555 1_555
C5 C4 1_555 1_555
H3 C5 1_555 1_555
C6 N1 1_555 1_555
H4 C6 1_555 1_555
C7 N1 1_555 1_555
H5 C7 1_555 1_555
H6 C7 1_555 1_555
H7 C7 1_555 1_555
B1 C1 1_555 1_555
H8 B1 1_555 1_555
B2 C1 1_555 1_555
H9 B2 1_555 1_555
B3 C1 1_555 1_555
H10 B3 1_555 1_555
B4 C1 1_555 1_555
H11 B4 1_555 1_555
B5 C2 1_555 1_555
H12 B5 1_555 1_555
B6 B1 1_555 1_555
H13 B6 1_555 1_555
B7 B2 1_555 1_555
H14 B7 1_555 1_555
B8 B3 1_555 1_555
H15 B8 1_555 1_555
B9 C2 1_555 1_555
H16 B9 1_555 1_555
B10 B5 1_555 1_555
H17 B10 1_555 1_555
N2 C12 1_555 1_555
C8 C9 1_555 1_555
C9 H18 1_555 1_555
C10 C8 1_555 1_555
C11 C10 1_555 1_555
H19 C11 1_555 1_555
C12 C11 1_555 1_555
H20 C12 1_555 1_555
C13 N2 1_555 1_555
H21 C13 1_555 1_555
C14 N2 1_555 1_555
H22 C14 1_555 1_555
H23 C14 1_555 1_555
H24 C14 1_555 1_555
B11 C8 1_555 1_555
H25 B11 1_555 1_555
B12 C8 1_555 1_555
H26 B12 1_555 1_555
B13 C8 1_555 1_555
H27 B13 1_555 1_555
B14 C8 1_555 1_555
H28 B14 1_555 1_555
B15 C9 1_555 1_555
H29 B15 1_555 1_555
B16 B11 1_555 1_555
H30 B16 1_555 1_555
B17 B12 1_555 1_555
H31 B17 1_555 1_555
B18 B13 1_555 1_555
H32 B18 1_555 1_555
B19 C9 1_555 1_555
H33 B19 1_555 1_555
B20 B15 1_555 1_555
H34 B20 1_555 1_555
C2 B1 1_555 1_555
C2 B4 1_555 1_555
C3 C6 1_555 1_555
B1 B2 1_555 1_555
B1 B5 1_555 1_555
B2 B3 1_555 1_555
B2 B6 1_555 1_555
B3 B4 1_555 1_555
B3 B7 1_555 1_555
B4 B8 1_555 1_555
B4 B9 1_555 1_555
B5 B6 1_555 1_555
B5 B9 1_555 1_555
B6 B7 1_555 1_555
B6 B10 1_555 1_555
B7 B8 1_555 1_555
B7 B10 1_555 1_555
B8 B9 1_555 1_555
B8 B10 1_555 1_555
B9 B10 1_555 1_555
C9 B11 1_555 1_555
C9 B14 1_555 1_555
C10 C13 1_555 1_555
B11 B12 1_555 1_555
B11 B15 1_555 1_555
B12 B13 1_555 1_555
B12 B16 1_555 1_555
B13 B14 1_555 1_555
B13 B17 1_555 1_555
B14 B18 1_555 1_555
B14 B19 1_555 1_555
B15 B16 1_555 1_555
B15 B19 1_555 1_555
B16 B17 1_555 1_555
B16 B20 1_555 1_555
B17 B18 1_555 1_555
B17 B20 1_555 1_555
B18 B19 1_555 1_555
B18 B20 1_555 1_555
B19 B20 1_555 1_555

#END
