
#######################################################################
#
#                 Cambridge Crystallographic Data Centre
#                                CCDC 
#
#######################################################################
#
# If this CIF has been generated from an entry in the Cambridge 
# Structural Database, then it will include bibliographic, chemical, 
# crystal, experimental, refinement or atomic coordinate data resulting 
# from the CCDC's data processing and validation procedures.
#
#######################################################################

data_SUTFAQ
_chemical_formula_moiety         'C11 H19 B10 N1'
_chemical_name_systematic        
3-(1,2-Dicarba-closo-dodecaboranyl)-1-methylindole
_symmetry_cell_setting           monoclinic
_symmetry_space_group_name_H-M   'P 2/n'
_symmetry_Int_Tables_number      13
_space_group_name_Hall           '-P 2yac'
loop_
_symmetry_equiv_pos_site_id
_symmetry_equiv_pos_as_xyz
1 x,y,z
2 1/2-x,y,1/2-z
3 -x,-y,-z
4 1/2+x,-y,1/2+z
_cell_length_a                   13.907(2)
_cell_length_b                   7.2240(10)
_cell_length_c                   15.485(2)
_cell_angle_alpha                90
_cell_angle_beta                 94.103(3)
_cell_angle_gamma                90
_cell_volume                     1551.7
_exptl_crystal_colour            colorless
_exptl_crystal_description       block
_cell_formula_units_Z            4
loop_
_atom_site_label
_atom_site_type_symbol
_atom_site_fract_x
_atom_site_fract_y
_atom_site_fract_z
N1 N 0.7650(3) 0.2010(5) 0.4858(2)
C1 C 0.5763(3) 0.1832(5) 0.6395(2)
C2 C 0.4602(4) 0.1727(13) 0.6025(4)
H1 H 0.4384 0.1413 0.5344
C3 C 0.6874(4) 0.2680(6) 0.5240(3)
H2 H 0.6595 0.3827 0.5115
C4 C 0.6557(3) 0.1472(5) 0.5828(2)
C5 C 0.7184(3) -0.0100(6) 0.5811(2)
C6 C 0.7267(4) -0.1801(7) 0.6241(3)
H3 H 0.6833 -0.2126 0.6646
C7 C 0.7992(5) -0.2974(8) 0.6058(4)
H4 H 0.8053 -0.4098 0.6350
C8 C 0.8640(4) -0.2547(7) 0.5452(4)
H5 H 0.9121 -0.3395 0.5345
C9 C 0.8594(3) -0.0919(7) 0.5007(3)
H6 H 0.9032 -0.0628 0.4601
C10 C 0.7851(3) 0.0293(5) 0.5194(2)
C11 C 0.8166(5) 0.2910(8) 0.4190(4)
H7 H 0.7892 0.4109 0.4068
H8 H 0.8115 0.2170 0.3674
H9 H 0.8833 0.3044 0.4387
B1 B 0.5065(5) 0.0041(9) 0.6684(4)
H10 H 0.5171 -0.1386 0.6462
B2 B 0.5843(4) 0.1122(7) 0.7413(3)
H11 H 0.6487 0.0388 0.7688
B3 B 0.5908(4) 0.3437(8) 0.7196(4)
H12 H 0.6569 0.4261 0.7319
B4 B 0.5133(5) 0.3821(10) 0.6305(4)
H13 H 0.5274 0.4900 0.5828
B5 B 0.3920(5) 0.0929(15) 0.6824(5)
H14 H 0.3259 0.0108 0.6696
B6 B 0.4725(4) 0.0527(8) 0.7714(4)
H15 H 0.4606 -0.0583 0.8181
B7 B 0.5242(4) 0.2630(8) 0.8044(3)
H16 H 0.5461 0.2913 0.8728
B8 B 0.4785(6) 0.4348(9) 0.7346(5)
H17 H 0.4694 0.5781 0.7566
B9 B 0.3971(6) 0.3272(18) 0.6582(5)
H18 H 0.3338 0.4008 0.6285
B10 B 0.4025(4) 0.2545(8) 0.7671(4)
H19 H 0.3440 0.2789 0.8098
loop_
_geom_bond_atom_site_label_1
_geom_bond_atom_site_label_2
_geom_bond_site_symmetry_1
_geom_bond_site_symmetry_2
N1 C3 1_555 1_555
C1 C2 1_555 1_555
C2 H1 1_555 1_555
C3 H2 1_555 1_555
C4 C1 1_555 1_555
C5 C4 1_555 1_555
C6 C5 1_555 1_555
H3 C6 1_555 1_555
C7 C6 1_555 1_555
H4 C7 1_555 1_555
C8 C7 1_555 1_555
H5 C8 1_555 1_555
C9 C8 1_555 1_555
H6 C9 1_555 1_555
C10 N1 1_555 1_555
C11 N1 1_555 1_555
H7 C11 1_555 1_555
H8 C11 1_555 1_555
H9 C11 1_555 1_555
B1 C1 1_555 1_555
H10 B1 1_555 1_555
B2 C1 1_555 1_555
H11 B2 1_555 1_555
B3 C1 1_555 1_555
H12 B3 1_555 1_555
B4 C1 1_555 1_555
H13 B4 1_555 1_555
B5 C2 1_555 1_555
H14 B5 1_555 1_555
B6 B1 1_555 1_555
H15 B6 1_555 1_555
B7 B2 1_555 1_555
H16 B7 1_555 1_555
B8 B3 1_555 1_555
H17 B8 1_555 1_555
B9 C2 1_555 1_555
H18 B9 1_555 1_555
B10 B5 1_555 1_555
H19 B10 1_555 1_555
C2 B1 1_555 1_555
C2 B4 1_555 1_555
C3 C4 1_555 1_555
C5 C10 1_555 1_555
C9 C10 1_555 1_555
B1 B2 1_555 1_555
B1 B5 1_555 1_555
B2 B3 1_555 1_555
B2 B6 1_555 1_555
B3 B4 1_555 1_555
B3 B7 1_555 1_555
B4 B8 1_555 1_555
B4 B9 1_555 1_555
B5 B6 1_555 1_555
B5 B9 1_555 1_555
B6 B7 1_555 1_555
B6 B10 1_555 1_555
B7 B8 1_555 1_555
B7 B10 1_555 1_555
B8 B9 1_555 1_555
B8 B10 1_555 1_555
B9 B10 1_555 1_555

#END
