
#######################################################################
#
#                 Cambridge Crystallographic Data Centre
#                                CCDC 
#
#######################################################################
#
# If this CIF has been generated from an entry in the Cambridge 
# Structural Database, then it will include bibliographic, chemical, 
# crystal, experimental, refinement or atomic coordinate data resulting 
# from the CCDC's data processing and validation procedures.
#
#######################################################################

data_SUTPAA
_chemical_formula_moiety         'C17 H15 Br1 O1 S2 Se1'
_chemical_name_systematic        
1-(4-Bromophenyl)-3,3-bis(methylsulfanyl)-2-(phenylselanyl)prop-2-en-1-one
_symmetry_cell_setting           monoclinic
_symmetry_space_group_name_H-M   'P 21'
_symmetry_Int_Tables_number      4
_space_group_name_Hall           'P 2yb'
loop_
_symmetry_equiv_pos_site_id
_symmetry_equiv_pos_as_xyz
1 x,y,z
2 -x,1/2+y,-z
_cell_length_a                   8.9593(12)
_cell_length_b                   10.2577(13)
_cell_length_c                   10.5577(14)
_cell_angle_alpha                90
_cell_angle_beta                 111.571(2)
_cell_angle_gamma                90
_cell_volume                     902.317
_exptl_crystal_colour            'pale yellow'
_exptl_crystal_description       prismatic
_chemical_melting_point          '352-353 K'
_cell_formula_units_Z            2
loop_
_atom_site_label
_atom_site_type_symbol
_atom_site_fract_x
_atom_site_fract_y
_atom_site_fract_z
Br1 Br 0.57996(14) 1.02655(9) 0.69610(11)
Se1 Se 1.06072(8) 0.38727(8) 0.92906(7)
S1 S 0.9692(2) 0.4686(2) 0.4913(2)
S2 S 1.2687(2) 0.4269(2) 0.7472(2)
O1 O 0.6955(5) 0.3747(5) 0.6459(6)
C1 C 1.0588(8) 0.4413(7) 0.6666(7)
C2 C 0.9690(7) 0.4336(6) 0.7412(7)
C3 C 0.7892(7) 0.4608(8) 0.6859(7)
C4 C 0.7447(7) 0.5998(7) 0.6895(7)
C5 C 0.5835(8) 0.6297(8) 0.6557(8)
H1 H 0.5073 0.5635 0.6294
C6 C 0.5362(8) 0.7546(8) 0.6606(8)
H2 H 0.4285 0.7733 0.6416
C7 C 0.6454(9) 0.8516(7) 0.6932(7)
C8 C 0.8052(9) 0.8264(7) 0.7260(7)
H3 H 0.8797 0.8940 0.7487
C9 C 0.8537(8) 0.6995(7) 0.7247(7)
H4 H 0.9622 0.6811 0.7482
C10 C 0.8723(8) 0.3838(8) 0.9756(7)
C11 C 0.7965(10) 0.2687(10) 0.9739(10)
H5 H 0.8320 0.1931 0.9453
C12 C 0.6680(14) 0.2640(17) 1.0145(13)
H6 H 0.6131 0.1860 1.0097
C13 C 0.6210(12) 0.373(2) 1.0615(11)
H7 H 0.5347 0.3690 1.0902
C14 C 0.6985(16) 0.4904(17) 1.0675(12)
H8 H 0.6656 0.5648 1.1004
C15 C 0.8270(11) 0.4952(9) 1.0236(9)
H9 H 0.8814 0.5731 1.0268
C16 C 1.0798(14) 0.6020(10) 0.4663(14)
H10 H 1.0565 0.6783 0.5084
H11 H 1.0506 0.6173 0.3705
H12 H 1.1924 0.5830 0.5064
C17 C 1.3188(10) 0.3031(9) 0.6513(10)
H13 H 1.2753 0.2212 0.6654
H14 H 1.4334 0.2962 0.6806
H15 H 1.2748 0.3251 0.5563
loop_
_geom_bond_atom_site_label_1
_geom_bond_atom_site_label_2
_geom_bond_site_symmetry_1
_geom_bond_site_symmetry_2
Br1 C7 1_555 1_555
Se1 C2 1_555 1_555
S1 C1 1_555 1_555
S2 C1 1_555 1_555
O1 C3 1_555 1_555
C1 C2 1_555 1_555
C2 C3 1_555 1_555
C3 C4 1_555 1_555
C4 C5 1_555 1_555
C5 H1 1_555 1_555
C6 C5 1_555 1_555
H2 C6 1_555 1_555
C7 C6 1_555 1_555
C8 C7 1_555 1_555
H3 C8 1_555 1_555
C9 C4 1_555 1_555
H4 C9 1_555 1_555
C10 Se1 1_555 1_555
C11 C10 1_555 1_555
H5 C11 1_555 1_555
C12 C11 1_555 1_555
H6 C12 1_555 1_555
C13 C12 1_555 1_555
H7 C13 1_555 1_555
C14 C13 1_555 1_555
H8 C14 1_555 1_555
C15 C10 1_555 1_555
H9 C15 1_555 1_555
C16 S1 1_555 1_555
H10 C16 1_555 1_555
H11 C16 1_555 1_555
H12 C16 1_555 1_555
C17 S2 1_555 1_555
H13 C17 1_555 1_555
H14 C17 1_555 1_555
H15 C17 1_555 1_555
C8 C9 1_555 1_555
C14 C15 1_555 1_555

#END
