
#######################################################################
#
#                 Cambridge Crystallographic Data Centre
#                                CCDC 
#
#######################################################################
#
# If this CIF has been generated from an entry in the Cambridge 
# Structural Database, then it will include bibliographic, chemical, 
# crystal, experimental, refinement or atomic coordinate data resulting 
# from the CCDC's data processing and validation procedures.
#
#######################################################################

data_SUTQIJ
_chemical_compound_source        'Gelsemium elegans'
_chemical_formula_moiety         'C40 H44 N4 O6'
_chemical_name_systematic        
8,8'-(Diazene-1,2-diylbis(4-methoxy-2,1-phenylene))bis(4-ethylidene-13-oxa-6-azatetracyclo[6.5.0.0^3,11^.0^6,10^]tridecan-7-one)
_chemical_properties_biological  'cytotoxic activity'
_symmetry_cell_setting           monoclinic
_symmetry_space_group_name_H-M   'P 21'
_symmetry_Int_Tables_number      4
_space_group_name_Hall           'P 2yb'
loop_
_symmetry_equiv_pos_site_id
_symmetry_equiv_pos_as_xyz
1 x,y,z
2 -x,1/2+y,-z
_cell_length_a                   9.9993(2)
_cell_length_b                   12.9855(2)
_cell_length_c                   13.4171(2)
_cell_angle_alpha                90
_cell_angle_beta                 110.184(2)
_cell_angle_gamma                90
_cell_volume                     1635.17
_exptl_crystal_colour            orange
_exptl_crystal_description       block
_cell_formula_units_Z            2
loop_
_atom_site_label
_atom_site_type_symbol
_atom_site_fract_x
_atom_site_fract_y
_atom_site_fract_z
O1 O 0.46599(19) 0.68311(13) 0.62100(14)
O2 O 0.6205(2) 0.98399(14) 0.52887(15)
O3 O 1.11469(19) 0.61589(13) 0.57004(14)
N1 N 0.7656(2) 0.64374(15) 0.74937(15)
C1 C 0.5250(3) 0.76499(19) 0.65329(18)
C2 C 0.5517(3) 0.8874(2) 0.5233(2)
H1 H 0.5594 0.8526 0.4607
N2 N 0.4862(2) 0.83239(15) 0.71738(15)
C3 C 0.5713(3) 0.92723(18) 0.73717(18)
H2 H 0.5932 0.9501 0.8107
C4 C 0.7052(3) 0.88767(18) 0.72014(18)
H3 H 0.7651 0.8489 0.7810
H4 H 0.7600 0.9434 0.7051
C5 C 0.6395(3) 0.81793(18) 0.62273(17)
C6 C 0.7528(3) 0.75349(18) 0.60188(18)
C7 C 0.8120(3) 0.78342(19) 0.52559(19)
H5 H 0.7703 0.8374 0.4798
C8 C 0.9303(3) 0.7354(2) 0.5163(2)
H6 H 0.9669 0.7571 0.4649
C9 C 0.9948(3) 0.65426(18) 0.58374(19)
C10 C 0.9375(3) 0.61997(19) 0.65795(19)
H7 H 0.9783 0.5646 0.7018
C11 C 0.8178(3) 0.66943(18) 0.66627(18)
C12 C 0.3906(3) 0.9026(2) 0.50031(19)
H8 H 0.3477 0.8359 0.5019
H9 H 0.3477 0.9302 0.4292
C13 C 0.3549(3) 0.9756(2) 0.5797(2)
H10 H 0.3021 1.0345 0.5395
C14 C 0.4963(3) 1.0156(2) 0.6576(2)
H11 H 0.4750 1.0718 0.6985
C15 C 0.5841(3) 1.0598(2) 0.5946(2)
H12 H 0.5308 1.1151 0.5497
H13 H 0.6712 1.0890 0.6437
C16 C 0.0567(3) 0.9365(3) 0.7016(2)
H14 H -0.0261 0.9796 0.6853
H15 H 0.1108 0.9411 0.7761
H16 H 0.0278 0.8665 0.6836
C17 C 0.1462(3) 0.9712(2) 0.6393(2)
H17 H 0.1133 1.0278 0.5951
C18 C 0.2680(3) 0.9297(2) 0.64055(19)
C19 C 0.3369(3) 0.8389(2) 0.7094(2)
H18 H 0.3309 0.8471 0.7796
H19 H 0.2875 0.7759 0.6787
C20 C 1.1939(3) 0.5395(2) 0.6430(3)
H20 H 1.2743 0.5187 0.6243
H21 H 1.1341 0.4809 0.6402
H22 H 1.2265 0.5674 0.7135
O4 O 1.06123(18) 0.51974(13) 0.89914(13)
O5 O 0.79872(17) 0.21787(12) 0.82635(13)
O6 O 0.4597(2) 0.63892(16) 0.95787(16)
N3 N 0.7801(2) 0.55116(14) 0.77748(15)
C21 C 1.0430(3) 0.43231(19) 0.92549(18)
C22 C 0.8457(2) 0.31802(18) 0.81045(18)
H23 H 0.7611 0.3551 0.7653
N4 N 1.1483(2) 0.36000(15) 0.96238(15)
C23 C 1.0939(3) 0.2623(2) 0.98839(19)
H24 H 1.1631 0.2320 1.0524
C24 C 0.9636(3) 0.30106(19) 1.01175(18)
H25 H 0.9902 0.3335 1.0810
H26 H 0.8964 0.2459 1.0076
C25 C 0.9030(3) 0.37992(18) 0.92143(17)
C26 C 0.7873(2) 0.44902(18) 0.93323(18)
C27 C 0.7315(3) 0.43266(19) 1.01321(18)
H27 H 0.7682 0.3791 1.0608
C28 C 0.6228(3) 0.49287(19) 1.0257(2)
H28 H 0.5885 0.4794 1.0806
C29 C 0.5664(3) 0.57283(19) 0.9556(2)
C30 C 0.6185(3) 0.59074(19) 0.8732(2)
H29 H 0.5789 0.6429 0.8244
C31 C 0.7278(3) 0.53212(18) 0.86330(17)
C32 C 0.9481(2) 0.31124(19) 0.74708(17)
H30 H 0.9848 0.3795 0.7424
H31 H 0.8947 0.2887 0.6754
C33 C 1.0755(2) 0.23706(19) 0.79581(18)
H32 H 1.0686 0.1828 0.7435
C34 C 1.0588(3) 0.18538(19) 0.89433(19)
H33 H 1.1270 0.1283 0.9157
C35 C 0.9098(3) 0.14060(18) 0.8622(2)
H34 H 0.8975 0.0909 0.8058
H35 H 0.8997 0.1043 0.9224
C36 C 1.4412(3) 0.3265(2) 0.7777(2)
H36 H 1.4774 0.3037 0.7238
H37 H 1.5080 0.3093 0.8464
H38 H 1.4274 0.3997 0.7726
C37 C 1.3011(3) 0.2742(2) 0.7624(2)
H39 H 1.2682 0.2281 0.7061
C38 C 1.2206(3) 0.28778(18) 0.82138(19)
C39 C 1.2642(3) 0.3562(2) 0.9193(2)
H40 H 1.3496 0.3290 0.9723
H41 H 1.2848 0.4251 0.9006
C40 C 0.4062(3) 0.6277(2) 1.0413(2)
H42 H 0.3335 0.6782 1.0342
H43 H 0.4821 0.6371 1.1080
H44 H 0.3666 0.5600 1.0388
loop_
_geom_bond_atom_site_label_1
_geom_bond_atom_site_label_2
_geom_bond_site_symmetry_1
_geom_bond_site_symmetry_2
O1 C1 1_555 1_555
O2 C2 1_555 1_555
O3 C9 1_555 1_555
N1 C11 1_555 1_555
C1 N2 1_555 1_555
C2 H1 1_555 1_555
N2 C3 1_555 1_555
C3 H2 1_555 1_555
C4 C3 1_555 1_555
H3 C4 1_555 1_555
H4 C4 1_555 1_555
C5 C1 1_555 1_555
C6 C5 1_555 1_555
C7 C6 1_555 1_555
H5 C7 1_555 1_555
C8 C7 1_555 1_555
H6 C8 1_555 1_555
C9 C8 1_555 1_555
C10 C9 1_555 1_555
H7 C10 1_555 1_555
C11 C6 1_555 1_555
C12 C2 1_555 1_555
H8 C12 1_555 1_555
H9 C12 1_555 1_555
C13 C12 1_555 1_555
H10 C13 1_555 1_555
C14 C3 1_555 1_555
H11 C14 1_555 1_555
C15 O2 1_555 1_555
H12 C15 1_555 1_555
H13 C15 1_555 1_555
C16 H14 1_555 1_555
H15 C16 1_555 1_555
H16 C16 1_555 1_555
C17 C16 1_555 1_555
H17 C17 1_555 1_555
C18 C13 1_555 1_555
C19 N2 1_555 1_555
H18 C19 1_555 1_555
H19 C19 1_555 1_555
C20 O3 1_555 1_555
H20 C20 1_555 1_555
H21 C20 1_555 1_555
H22 C20 1_555 1_555
O4 C21 1_555 1_555
O5 C22 1_555 1_555
O6 C29 1_555 1_555
N3 N1 1_555 1_555
C21 N4 1_555 1_555
C22 H23 1_555 1_555
N4 C23 1_555 1_555
C23 H24 1_555 1_555
C24 C23 1_555 1_555
H25 C24 1_555 1_555
H26 C24 1_555 1_555
C25 C21 1_555 1_555
C26 C25 1_555 1_555
C27 C26 1_555 1_555
H27 C27 1_555 1_555
C28 C27 1_555 1_555
H28 C28 1_555 1_555
C29 C28 1_555 1_555
C30 C29 1_555 1_555
H29 C30 1_555 1_555
C31 N3 1_555 1_555
C32 C22 1_555 1_555
H30 C32 1_555 1_555
H31 C32 1_555 1_555
C33 C32 1_555 1_555
H32 C33 1_555 1_555
C34 C23 1_555 1_555
H33 C34 1_555 1_555
C35 O5 1_555 1_555
H34 C35 1_555 1_555
H35 C35 1_555 1_555
C36 H36 1_555 1_555
H37 C36 1_555 1_555
H38 C36 1_555 1_555
C37 C36 1_555 1_555
H39 C37 1_555 1_555
C38 C33 1_555 1_555
C39 N4 1_555 1_555
H40 C39 1_555 1_555
H41 C39 1_555 1_555
C40 O6 1_555 1_555
H42 C40 1_555 1_555
H43 C40 1_555 1_555
H44 C40 1_555 1_555
C2 C5 1_555 1_555
C4 C5 1_555 1_555
C10 C11 1_555 1_555
C13 C14 1_555 1_555
C14 C15 1_555 1_555
C17 C18 1_555 1_555
C18 C19 1_555 1_555
C22 C25 1_555 1_555
C24 C25 1_555 1_555
C26 C31 1_555 1_555
C30 C31 1_555 1_555
C33 C34 1_555 1_555
C34 C35 1_555 1_555
C37 C38 1_555 1_555
C38 C39 1_555 1_555

#END
