
#######################################################################
#
#                 Cambridge Crystallographic Data Centre
#                                CCDC 
#
#######################################################################
#
# If this CIF has been generated from an entry in the Cambridge 
# Structural Database, then it will include bibliographic, chemical, 
# crystal, experimental, refinement or atomic coordinate data resulting 
# from the CCDC's data processing and validation procedures.
#
#######################################################################

data_SUTSAB01
_chemical_formula_moiety         'C20 H12 Cl2 N4,C2 H6 O1,H2 O1'
_chemical_name_systematic        
'2-Amino-1,3,3-tricyano-4,5-bis(4-chlorophenyl)cyclopentene ethanol solvate monohydrate'
_symmetry_cell_setting           triclinic
_symmetry_space_group_name_H-M   'P -1'
_symmetry_Int_Tables_number      2
_space_group_name_Hall           '-P 1'
loop_
_symmetry_equiv_pos_site_id
_symmetry_equiv_pos_as_xyz
1 x,y,z
2 -x,-y,-z
_cell_length_a                   11.033(4)
_cell_length_b                   12.199(3)
_cell_length_c                   10.732(3)
_cell_angle_alpha                114.46(2)
_cell_angle_beta                 118.33(3)
_cell_angle_gamma                81.56(3)
_cell_volume                     1155.09
_exptl_crystal_colour            colorless
_exptl_crystal_description       prismatic
_chemical_melting_point          158-160deg.C
_cell_formula_units_Z            2
loop_
_atom_site_label
_atom_site_type_symbol
_atom_site_fract_x
_atom_site_fract_y
_atom_site_fract_z
Cl1 Cl 0.2904(2) 0.2255(2) 0.2653(2)
Cl2 Cl -0.3376(3) 0.3774(2) 0.6833(2)
N1 N -0.3217(6) 0.0393(6) -0.3856(7)
N2 N -0.6301(5) 0.2155(5) -0.3449(6)
N3 N -0.6594(5) 0.4679(5) -0.0236(6)
N4 N -0.6912(7) 0.1009(5) -0.0839(7)
C1 C -0.4083(6) 0.1560(5) -0.1839(7)
C2 C -0.5292(6) 0.2066(5) -0.2161(6)
C3 C -0.5468(5) 0.2612(5) -0.0685(6)
C4 C -0.3932(5) 0.2752(5) 0.0590(6)
C5 C -0.3285(5) 0.1662(5) -0.0191(6)
C6 C -0.3614(6) 0.0906(6) -0.2973(8)
C7 C -0.6136(6) 0.3765(6) -0.0454(6)
C8 C -0.6294(6) 0.1728(6) -0.0753(7)
C9 C -0.1734(6) 0.1832(5) 0.0517(6)
C10 C -0.1121(6) 0.2664(6) 0.0383(8)
C11 C 0.0326(7) 0.2773(7) 0.1042(9)
C12 C 0.1103(6) 0.2081(6) 0.1816(7)
C13 C 0.0513(7) 0.1283(7) 0.1964(8)
C14 C -0.0900(6) 0.1156(6) 0.1312(8)
C15 C -0.3771(6) 0.2970(5) 0.2165(6)
C16 C -0.3727(6) 0.2031(6) 0.2593(7)
C17 C -0.3601(7) 0.2277(7) 0.4041(8)
C18 C -0.3531(7) 0.3440(8) 0.5004(8)
C19 C -0.3573(7) 0.4399(7) 0.4621(8)
C20 C -0.3677(7) 0.4139(6) 0.3185(7)
H1 H -0.7228 0.2212 -0.3577
H2 H -0.6169 0.1700 -0.4301
H3 H -0.3606 0.3531 0.0593
H4 H -0.3481 0.0823 -0.0298
H5 H -0.1877 0.3208 -0.0226
H6 H 0.0504 0.3464 0.0881
H7 H 0.1188 0.0746 0.2578
H8 H -0.1459 0.0534 0.1390
H9 H -0.3852 0.1099 0.1717
H10 H -0.3686 0.1506 0.4275
H11 H -0.3413 0.5383 0.5572
H12 H -0.3695 0.4854 0.2756
O1 O 0.100(1) 0.248(1) 0.638(1)
C21 C 0.016(4) 0.345(4) 0.641(4)
C22 C 0.046(3) 0.381(3) 0.578(4)
H15 H 0.1589 0.1835 0.6044
H16 H -0.0749 0.3017 0.6324
H17 H 0.0530 0.3794 0.7781
H18 H 0.1341 0.4039 0.6150
H19 H 0.0057 0.3267 0.4694
H20 H -0.0108 0.4551 0.5744
O2 O 0.957(2) 0.076(2) 0.606(3)
H13 H 0.9797 0.1494 0.7284
H14 H 0.9483 0.0176 0.5505
loop_
_geom_bond_atom_site_label_1
_geom_bond_atom_site_label_2
_geom_bond_site_symmetry_1
_geom_bond_site_symmetry_2
Cl1 C12 1_555 1_555
Cl2 C18 1_555 1_555
O1 C21 1_555 1_555
O2 H13 1_555 1_555
N1 C6 1_555 1_555
N2 C2 1_555 1_555
N3 C7 1_555 1_555
N4 C8 1_555 1_555
C1 C2 1_555 1_555
C2 C3 1_555 1_555
C3 C4 1_555 1_555
C4 C5 1_555 1_555
C5 C1 1_555 1_555
C6 C1 1_555 1_555
C7 C3 1_555 1_555
C8 C3 1_555 1_555
C9 C5 1_555 1_555
C10 C9 1_555 1_555
C11 C10 1_555 1_555
C12 C11 1_555 1_555
C13 C12 1_555 1_555
C14 C9 1_555 1_555
C15 C4 1_555 1_555
C16 C15 1_555 1_555
C17 C16 1_555 1_555
C18 C17 1_555 1_555
C19 C18 1_555 1_555
C20 C15 1_555 1_555
C21 C22 1_555 1_555
C22 H18 1_555 1_555
H1 N2 1_555 1_555
H2 N2 1_555 1_555
H3 C4 1_555 1_555
H4 C5 1_555 1_555
H5 C10 1_555 1_555
H6 C11 1_555 1_555
H7 C13 1_555 1_555
H8 C14 1_555 1_555
H9 C16 1_555 1_555
H10 C17 1_555 1_555
H11 C19 1_555 1_555
H12 C20 1_555 1_555
H14 O2 1_555 1_555
H15 O1 1_555 1_555
H16 C21 1_555 1_555
H17 C21 1_555 1_555
H19 C22 1_555 1_555
H20 C22 1_555 1_555
C13 C14 1_555 1_555
C19 C20 1_555 1_555

#END
