
#######################################################################
#
#                 Cambridge Crystallographic Data Centre
#                                CCDC 
#
#######################################################################
#
# If this CIF has been generated from an entry in the Cambridge 
# Structural Database, then it will include bibliographic, chemical, 
# crystal, experimental, refinement or atomic coordinate data resulting 
# from the CCDC's data processing and validation procedures.
#
#######################################################################

data_SUTVAG
_chemical_formula_moiety         'C20 H34 O3'
_chemical_name_systematic        
2-(3-hydroxybut-1-en-2-yl)-3a,6,6,9a-tetramethyldecahydronaphtho[2,1-b]furan-5a(3aH)-ol
_symmetry_cell_setting           orthorhombic
_symmetry_space_group_name_H-M   'P 21 21 21'
_symmetry_Int_Tables_number      19
_space_group_name_Hall           'P 2ac 2ab'
loop_
_symmetry_equiv_pos_site_id
_symmetry_equiv_pos_as_xyz
1 x,y,z
2 1/2-x,-y,1/2+z
3 1/2+x,1/2-y,-z
4 -x,1/2+y,1/2-z
_cell_length_a                   7.72158(12)
_cell_length_b                   11.8266(3)
_cell_length_c                   20.0185(4)
_cell_angle_alpha                90
_cell_angle_beta                 90
_cell_angle_gamma                90
_cell_volume                     1828.09
_cell_formula_units_Z            4
loop_
_atom_site_label
_atom_site_type_symbol
_atom_site_fract_x
_atom_site_fract_y
_atom_site_fract_z
O1 O 0.11069(14) 0.84956(10) 0.20923(6)
O2 O 0.07021(15) 0.48838(11) 0.18532(6)
H1 H -0.0050 0.4584 0.2082
C1 C 0.18144(18) 0.69633(13) 0.14270(7)
H2 H 0.2048 0.6552 0.1842
C2 C 0.1424(2) 0.60343(14) 0.09086(8)
C3 C 0.3564(2) 0.97674(14) 0.18535(8)
C4 C 0.29524(19) 0.85687(14) 0.19605(8)
H3 H 0.3567 0.8262 0.2349
C5 C -0.1608(2) 0.60559(16) 0.14317(9)
H4 H -0.2478 0.5591 0.1647
H5 H -0.2117 0.6367 0.1029
C6 C 0.03090(18) 0.77570(15) 0.15985(8)
C7 C -0.1124(2) 0.70369(16) 0.19031(9)
H6 H -0.2136 0.7503 0.1984
H7 H -0.0739 0.6735 0.2328
C8 C -0.0062(2) 0.53042(15) 0.12370(8)
C9 C 0.33184(19) 0.77904(14) 0.13592(9)
H8 H 0.3274 0.8200 0.0940
H9 H 0.4429 0.7413 0.1400
C10 C 0.0932(2) 0.65700(17) 0.02282(8)
H10 H -0.0290 0.6719 0.0219
H11 H 0.1226 0.6058 -0.0126
H12 H 0.1555 0.7266 0.0170
C11 C -0.0405(2) 0.85435(17) 0.10585(10)
H13 H -0.1043 0.9147 0.1265
H14 H -0.1158 0.8125 0.0768
H15 H 0.0536 0.8853 0.0804
C12 C -0.0549(3) 0.42322(17) 0.08124(9)
C13 C 0.3029(2) 0.52915(16) 0.07936(10)
H16 H 0.3905 0.5730 0.0563
H17 H 0.3501 0.5066 0.1222
C14 C 0.2612(3) 0.42309(19) 0.03826(13)
H18 H 0.2319 0.4452 -0.0070
H19 H 0.3631 0.3752 0.0363
C15 C 0.2520(3) 1.06040(17) 0.16983(10)
H20 H 0.2966 1.1324 0.1624
H21 H 0.1335 1.0477 0.1662
O3 O 0.5906(2) 0.9496(2) 0.25775(10)
H22 H 0.6908 0.9667 0.2668
C16 C -0.1812(3) 0.34623(19) 0.11988(11)
H23 H -0.1304 0.3253 0.1619
H24 H -0.2041 0.2794 0.0941
H25 H -0.2876 0.3860 0.1277
C17 C 0.1111(3) 0.35612(19) 0.06814(12)
H26 H 0.1494 0.3233 0.1100
H27 H 0.0836 0.2942 0.0382
C18 C 0.5499(2) 0.98798(17) 0.19246(10)
H28 H 0.6035 0.9355 0.1607
C19 C -0.1497(3) 0.4504(2) 0.01495(10)
H29 H -0.2420 0.5029 0.0234
H30 H -0.1964 0.3821 -0.0036
H31 H -0.0694 0.4832 -0.0161
C20 C 0.6226(4) 1.1034(2) 0.17901(14)
H32 H 0.5981 1.1245 0.1337
H33 H 0.7456 1.1023 0.1859
H34 H 0.5705 1.1570 0.2088
loop_
_geom_bond_atom_site_label_1
_geom_bond_atom_site_label_2
_geom_bond_site_symmetry_1
_geom_bond_site_symmetry_2
O1 C4 1_555 1_555
O2 H1 1_555 1_555
C1 H2 1_555 1_555
C2 C1 1_555 1_555
C3 C4 1_555 1_555
C4 H3 1_555 1_555
C5 H4 1_555 1_555
H5 C5 1_555 1_555
C6 O1 1_555 1_555
C7 C5 1_555 1_555
H6 C7 1_555 1_555
H7 C7 1_555 1_555
C8 O2 1_555 1_555
C9 C1 1_555 1_555
H8 C9 1_555 1_555
H9 C9 1_555 1_555
C10 C2 1_555 1_555
H10 C10 1_555 1_555
H11 C10 1_555 1_555
H12 C10 1_555 1_555
C11 C6 1_555 1_555
H13 C11 1_555 1_555
H14 C11 1_555 1_555
H15 C11 1_555 1_555
C12 C8 1_555 1_555
C13 C2 1_555 1_555
H16 C13 1_555 1_555
H17 C13 1_555 1_555
C14 C13 1_555 1_555
H18 C14 1_555 1_555
H19 C14 1_555 1_555
C15 C3 1_555 1_555
H20 C15 1_555 1_555
H21 C15 1_555 1_555
O3 H22 1_555 1_555
C16 C12 1_555 1_555
H23 C16 1_555 1_555
H24 C16 1_555 1_555
H25 C16 1_555 1_555
C17 C12 1_555 1_555
H26 C17 1_555 1_555
H27 C17 1_555 1_555
C18 C3 1_555 1_555
H28 C18 1_555 1_555
C19 C12 1_555 1_555
H29 C19 1_555 1_555
H30 C19 1_555 1_555
H31 C19 1_555 1_555
C20 C18 1_555 1_555
H32 C20 1_555 1_555
H33 C20 1_555 1_555
H34 C20 1_555 1_555
C1 C6 1_555 1_555
C2 C8 1_555 1_555
C4 C9 1_555 1_555
C5 C8 1_555 1_555
C6 C7 1_555 1_555
C14 C17 1_555 1_555
O3 C18 1_555 1_555

#END
