
#######################################################################
#
#                 Cambridge Crystallographic Data Centre
#                                CCDC 
#
#######################################################################
#
# If this CIF has been generated from an entry in the Cambridge 
# Structural Database, then it will include bibliographic, chemical, 
# crystal, experimental, refinement or atomic coordinate data resulting 
# from the CCDC's data processing and validation procedures.
#
#######################################################################

data_SUTVEK
_chemical_formula_moiety         'C20 H34 O3'
_chemical_name_systematic        
2-(3-hydroxybut-1-en-2-yl)-3a,6,6,9a-tetramethyldecahydronaphtho[2,1-b]furan-5a(3aH)-ol
_symmetry_cell_setting           monoclinic
_symmetry_space_group_name_H-M   'P 21'
_symmetry_Int_Tables_number      4
_space_group_name_Hall           'P 2yb'
loop_
_symmetry_equiv_pos_site_id
_symmetry_equiv_pos_as_xyz
1 x,y,z
2 -x,1/2+y,-z
_cell_length_a                   6.63286(8)
_cell_length_b                   10.25407(16)
_cell_length_c                   13.6442(2)
_cell_angle_alpha                90
_cell_angle_beta                 91.4834(12)
_cell_angle_gamma                90
_cell_volume                     927.683
_cell_formula_units_Z            2
loop_
_atom_site_label
_atom_site_type_symbol
_atom_site_fract_x
_atom_site_fract_y
_atom_site_fract_z
O1 O -0.36951(17) -0.76854(13) -0.07585(8)
O2 O -0.43603(17) -0.44787(14) -0.27368(10)
H1 H -0.4363 -0.3970 -0.2273
C1 C -0.3475(2) -0.70592(17) -0.23698(12)
H2 H -0.4729 -0.6581 -0.2260
O3 O -0.4550(3) -1.24118(14) -0.11623(11)
H3 H -0.5027 -1.2495 -0.0617
C2 C -0.2508(3) -0.63566(18) -0.32349(12)
C3 C -0.2318(2) -0.48877(18) -0.29116(13)
C4 C -0.2305(2) -0.69899(17) -0.13886(12)
C5 C -0.1546(3) -0.39713(19) -0.37526(13)
C6 C -0.1122(2) -0.47858(18) -0.19375(13)
H4 H -0.1032 -0.3876 -0.1748
H5 H 0.0238 -0.5100 -0.2032
C7 C -0.4195(2) -1.00560(19) -0.09436(14)
C8 C -0.2066(3) -0.55646(19) -0.10988(12)
H6 H -0.1212 -0.5499 -0.0513
H7 H -0.3375 -0.5201 -0.0953
C9 C -0.3935(3) -0.6442(2) -0.41463(14)
H8 H -0.4013 -0.7341 -0.4366
H9 H -0.5278 -0.6172 -0.3967
C10 C -0.4678(2) -0.87071(18) -0.13317(12)
H10 H -0.6137 -0.8579 -0.1292
C11 C -0.2937(3) -0.4181(2) -0.46648(15)
H11 H -0.4251 -0.3816 -0.4531
H12 H -0.2391 -0.3693 -0.5206
C12 C -0.4094(3) -0.84768(19) -0.24105(13)
H13 H -0.2985 -0.9033 -0.2597
H14 H -0.5232 -0.8614 -0.2860
C13 C -0.0497(3) -0.7015(2) -0.34963(15)
H15 H 0.0569 -0.6679 -0.3079
H16 H -0.0205 -0.6836 -0.4168
H17 H -0.0605 -0.7940 -0.3404
C14 C -0.0294(3) -0.7703(2) -0.12806(14)
H18 H 0.0058 -0.7799 -0.0598
H19 H 0.0733 -0.7211 -0.1598
H20 H -0.0409 -0.8549 -0.1579
C15 C 0.0682(3) -0.4168(2) -0.40033(17)
H21 H 0.1494 -0.4165 -0.3411
H22 H 0.1106 -0.3474 -0.4423
H23 H 0.0836 -0.4988 -0.4333
C16 C -0.3080(3) -1.0247(2) -0.01459(17)
H24 H -0.2556 -0.9538 0.0201
H25 H -0.2814 -1.1091 0.0071
C17 C -0.5082(3) -1.1166(2) -0.15504(14)
H26 H -0.4477 -1.1109 -0.2197
C18 C -0.3223(4) -0.5587(3) -0.49868(15)
H27 H -0.1957 -0.5923 -0.5222
H28 H -0.4208 -0.5622 -0.5524
C19 C -0.1790(3) -0.2538(2) -0.34601(16)
H29 H -0.3186 -0.2360 -0.3347
H30 H -0.1330 -0.1989 -0.3978
H31 H -0.1008 -0.2368 -0.2872
C20 C -0.7346(4) -1.1082(3) -0.17222(19)
H32 H -0.7802 -1.1828 -0.2091
H33 H -0.7669 -1.0301 -0.2081
H34 H -0.8000 -1.1064 -0.1103
loop_
_geom_bond_atom_site_label_1
_geom_bond_atom_site_label_2
_geom_bond_site_symmetry_1
_geom_bond_site_symmetry_2
O1 C4 1_555 1_555
O2 H1 1_555 1_555
C1 H2 1_555 1_555
O3 H3 1_555 1_555
C2 C1 1_555 1_555
C3 O2 1_555 1_555
C4 C1 1_555 1_555
C5 C3 1_555 1_555
C6 C3 1_555 1_555
H4 C6 1_555 1_555
H5 C6 1_555 1_555
C7 C10 1_555 1_555
C8 C4 1_555 1_555
H6 C8 1_555 1_555
H7 C8 1_555 1_555
C9 C2 1_555 1_555
H8 C9 1_555 1_555
H9 C9 1_555 1_555
C10 O1 1_555 1_555
H10 C10 1_555 1_555
C11 C5 1_555 1_555
H11 C11 1_555 1_555
H12 C11 1_555 1_555
C12 C1 1_555 1_555
H13 C12 1_555 1_555
H14 C12 1_555 1_555
C13 C2 1_555 1_555
H15 C13 1_555 1_555
H16 C13 1_555 1_555
H17 C13 1_555 1_555
C14 C4 1_555 1_555
H18 C14 1_555 1_555
H19 C14 1_555 1_555
H20 C14 1_555 1_555
C15 C5 1_555 1_555
H21 C15 1_555 1_555
H22 C15 1_555 1_555
H23 C15 1_555 1_555
C16 C7 1_555 1_555
H24 C16 1_555 1_555
H25 C16 1_555 1_555
C17 O3 1_555 1_555
H26 C17 1_555 1_555
C18 C9 1_555 1_555
H27 C18 1_555 1_555
H28 C18 1_555 1_555
C19 C5 1_555 1_555
H29 C19 1_555 1_555
H30 C19 1_555 1_555
H31 C19 1_555 1_555
C20 C17 1_555 1_555
H32 C20 1_555 1_555
H33 C20 1_555 1_555
H34 C20 1_555 1_555
C2 C3 1_555 1_555
C6 C8 1_555 1_555
C7 C17 1_555 1_555
C10 C12 1_555 1_555
C11 C18 1_555 1_555

#END
