
#######################################################################
#
#                 Cambridge Crystallographic Data Centre
#                                CCDC 
#
#######################################################################
#
# If this CIF has been generated from an entry in the Cambridge 
# Structural Database, then it will include bibliographic, chemical, 
# crystal, experimental, refinement or atomic coordinate data resulting 
# from the CCDC's data processing and validation procedures.
#
#######################################################################

data_SUTWEJ
_chemical_formula_moiety         'C49 H49 N5 O15'
_chemical_name_systematic        
'1-N,N-(Di-isopropyl)carbamoyl-7-trityloxy-3(R),5(R)-dimethyl-1(Z)-heptene-4(S),6(S)-diyl bis(3,5-dinitrobenzoate)'
_symmetry_cell_setting           orthorhombic
_symmetry_space_group_name_H-M   'P 21 21 21'
_symmetry_Int_Tables_number      19
_space_group_name_Hall           'P 2ac 2ab'
loop_
_symmetry_equiv_pos_site_id
_symmetry_equiv_pos_as_xyz
1 x,y,z
2 1/2+x,1/2-y,-z
3 1/2-x,-y,1/2+z
4 -x,1/2+y,1/2-z
_cell_length_a                   27.310(4)
_cell_length_b                   18.793(4)
_cell_length_c                   9.350(1)
_cell_angle_alpha                90
_cell_angle_beta                 90
_cell_angle_gamma                90
_cell_volume                     4798.76
_exptl_crystal_colour            colorless
_cell_formula_units_Z            4
loop_
_atom_site_label
_atom_site_type_symbol
_atom_site_fract_x
_atom_site_fract_y
_atom_site_fract_z
O1 O -0.0858(2) 0.4751(3) 0.6772(7)
O2 O -0.1423(2) 0.4114(4) 0.7929(10)
N1 N -0.1592(2) 0.4549(4) 0.5704(11)
O3 O 0.0878(2) 0.5938(2) 0.6087(7)
O4 O 0.14155(14) 0.4779(2) 0.4534(6)
O5 O 0.0512(2) 0.3388(2) 0.4339(7)
O6 O 0.1494(2) 0.5564(3) 0.7486(9)
N2 N 0.1426(3) 0.8374(4) 0.4387(11)
O7 O 0.0980(2) 0.8384(4) 0.4216(11)
O8 O 0.1691(3) 0.8839(3) 0.3893(9)
N3 N 0.2779(2) 0.7475(5) 0.7246(13)
O9 O 0.2959(2) 0.8069(4) 0.7218(12)
O10 O 0.2975(3) 0.6957(4) 0.7765(15)
O11 O 0.1919(2) 0.4019(3) 0.5705(8)
N4 N 0.2463(3) 0.6803(4) 0.2847(10)
O12 O 0.2094(3) 0.6862(4) 0.2181(12)
O13 O 0.2767(2) 0.7278(3) 0.3044(11)
N5 N 0.3597(2) 0.5195(5) 0.5372(13)
O14 O 0.3639(2) 0.4678(5) 0.6116(13)
O15 O 0.3931(2) 0.5557(4) 0.4905(10)
C1 C -0.0530(3) 0.4607(4) 0.7847(12)
H1 H -0.0603 0.4267 0.8537
C2 C -0.1326(3) 0.4463(4) 0.6880(16)
C3 C -0.0104(3) 0.4959(4) 0.7897(12)
H2 H 0.0109 0.4810 0.8614
C4 C 0.0082(2) 0.5545(4) 0.6998(11)
H3 H -0.0144 0.5609 0.6194
C5 C 0.0101(4) 0.6224(5) 0.7817(15)
H4 H 0.0221 0.6597 0.7209
H5 H 0.0315 0.6169 0.8623
H6 H -0.0222 0.6343 0.8146
C6 C 0.0584(2) 0.5313(3) 0.6391(10)
H7 H 0.0752 0.5045 0.7145
C7 C 0.0559(2) 0.4843(3) 0.5107(11)
H8 H 0.0279 0.4528 0.5275
C8 C 0.0435(3) 0.5251(5) 0.3744(13)
H9 H 0.0423 0.4927 0.2951
H10 H 0.0681 0.5606 0.3572
H11 H 0.0122 0.5478 0.3851
C9 C 0.0992(2) 0.4361(3) 0.4949(11)
H12 H 0.1059 0.4140 0.5878
C10 C 0.0925(3) 0.3770(4) 0.3834(11)
H13 H 0.0863 0.3969 0.2893
H14 H 0.1212 0.3467 0.3788
C11 C 0.0412(2) 0.2683(4) 0.3767(11)
C12 C -0.0108(2) 0.2528(3) 0.4165(10)
C13 C -0.0312(2) 0.2833(4) 0.5354(11)
H15 H -0.0121 0.3141 0.5898
C14 C -0.0790(3) 0.2704(4) 0.5786(12)
H16 H -0.0914 0.2914 0.6611
C15 C -0.1073(3) 0.2266(4) 0.4980(12)
H17 H -0.1396 0.2184 0.5249
C16 C -0.0894(3) 0.1944(5) 0.3785(13)
H18 H -0.1088 0.1637 0.3248
C17 C -0.0401(3) 0.2086(4) 0.3376(11)
H19 H -0.0276 0.1875 0.2554
C18 C 0.0739(2) 0.2125(3) 0.4433(11)
C19 C 0.1069(3) 0.2286(4) 0.5490(12)
H20 H 0.1102 0.2758 0.5777
C20 C 0.1358(3) 0.1769(5) 0.6151(13)
H21 H 0.1576 0.1895 0.6870
C21 C 0.1316(3) 0.1081(5) 0.5737(13)
H22 H 0.1502 0.0730 0.6179
C22 C 0.0999(3) 0.0908(5) 0.4664(13)
H23 H 0.0975 0.0437 0.4368
C23 C 0.0719(3) 0.1414(4) 0.4020(12)
H24 H 0.0508 0.1281 0.3286
C24 C 0.0467(2) 0.2731(3) 0.2153(10)
C25 C 0.0140(3) 0.3098(5) 0.1303(14)
H25 H -0.0123 0.3324 0.1745
C26 C 0.0181(4) 0.3151(5) -0.0173(15)
H26 H -0.0057 0.3392 -0.0694
C27 C 0.0575(4) 0.2843(6) -0.0867(15)
H27 H 0.0603 0.2866 -0.1858
C28 C 0.0925(3) 0.2503(5) -0.0063(15)
H28 H 0.1202 0.2310 -0.0492
C29 C 0.0856(3) 0.2453(4) 0.1396(13)
H29 H 0.1094 0.2211 0.1917
C30 C 0.1308(3) 0.6008(4) 0.6764(13)
C31 C 0.1561(2) 0.6696(3) 0.6353(11)
C32 C 0.1360(3) 0.7210(4) 0.5530(11)
H30 H 0.1046 0.7161 0.5156
C33 C 0.1641(2) 0.7816(4) 0.5264(11)
C34 C 0.2101(3) 0.7924(4) 0.5817(12)
H31 H 0.2278 0.8337 0.5629
C35 C 0.2283(3) 0.7399(4) 0.6649(12)
C36 C 0.2029(3) 0.6767(4) 0.6973(12)
H32 H 0.2162 0.6417 0.7560
C37 C 0.1856(2) 0.4557(4) 0.5013(12)
C38 C 0.2245(3) 0.5051(4) 0.4646(10)
C39 C 0.2169(2) 0.5672(4) 0.3910(12)
H33 H 0.1855 0.5782 0.3595
C40 C 0.2554(3) 0.6146(4) 0.3620(11)
C41 C 0.3027(3) 0.6002(4) 0.4114(12)
H34 H 0.3282 0.6321 0.3974
C42 C 0.3097(3) 0.5376(4) 0.4807(11)
C43 C 0.2718(2) 0.4903(4) 0.5103(11)
H35 H 0.2782 0.4487 0.5608
C44 C -0.1397(4) 0.4900(5) 0.4391(15)
H36 H -0.1658 0.4857 0.3675
C45 C -0.0970(4) 0.4513(6) 0.3779(16)
H37 H -0.1050 0.4019 0.3667
H38 H -0.0694 0.4559 0.4411
H39 H -0.0889 0.4713 0.2863
C46 C -0.1318(4) 0.5672(6) 0.4576(15)
H40 H -0.1609 0.5885 0.4959
H41 H -0.1243 0.5883 0.3667
H42 H -0.1050 0.5748 0.5223
C47 C -0.2094(3) 0.4265(5) 0.5749(14)
H43 H -0.2130 0.4049 0.6697
C48 C -0.2475(6) 0.4865(8) 0.5683(20)
H44 H -0.2400 0.5217 0.6395
H45 H -0.2795 0.4673 0.5861
H46 H -0.2468 0.5081 0.4753
C49 C -0.2171(4) 0.3669(5) 0.4697(15)
H47 H -0.1923 0.3313 0.4834
H48 H -0.2150 0.3852 0.3741
H49 H -0.2488 0.3461 0.4846
loop_
_geom_bond_atom_site_label_1
_geom_bond_atom_site_label_2
_geom_bond_site_symmetry_1
_geom_bond_site_symmetry_2
O1 C1 1_555 1_555
O2 C2 1_555 1_555
N1 C2 1_555 1_555
O3 C6 1_555 1_555
O4 C9 1_555 1_555
O5 C10 1_555 1_555
O6 C30 1_555 1_555
N2 O7 1_555 1_555
O8 N2 1_555 1_555
N3 O9 1_555 1_555
O10 N3 1_555 1_555
O11 C37 1_555 1_555
N4 O12 1_555 1_555
O13 N4 1_555 1_555
N5 O14 1_555 1_555
O15 N5 1_555 1_555
C1 H1 1_555 1_555
C2 O1 1_555 1_555
C3 C1 1_555 1_555
H2 C3 1_555 1_555
C4 C3 1_555 1_555
H3 C4 1_555 1_555
C5 C4 1_555 1_555
H4 C5 1_555 1_555
H5 C5 1_555 1_555
H6 C5 1_555 1_555
C6 C4 1_555 1_555
H7 C6 1_555 1_555
C7 C6 1_555 1_555
H8 C7 1_555 1_555
C8 C7 1_555 1_555
H9 C8 1_555 1_555
H10 C8 1_555 1_555
H11 C8 1_555 1_555
C9 C7 1_555 1_555
H12 C9 1_555 1_555
C10 C9 1_555 1_555
H13 C10 1_555 1_555
H14 C10 1_555 1_555
C11 O5 1_555 1_555
C12 C11 1_555 1_555
C13 C12 1_555 1_555
H15 C13 1_555 1_555
C14 C13 1_555 1_555
H16 C14 1_555 1_555
C15 C14 1_555 1_555
H17 C15 1_555 1_555
C16 C15 1_555 1_555
H18 C16 1_555 1_555
C17 C12 1_555 1_555
H19 C17 1_555 1_555
C18 C11 1_555 1_555
C19 C18 1_555 1_555
H20 C19 1_555 1_555
C20 C19 1_555 1_555
H21 C20 1_555 1_555
C21 C20 1_555 1_555
H22 C21 1_555 1_555
C22 C21 1_555 1_555
H23 C22 1_555 1_555
C23 C18 1_555 1_555
H24 C23 1_555 1_555
C24 C11 1_555 1_555
C25 C24 1_555 1_555
H25 C25 1_555 1_555
C26 C25 1_555 1_555
H26 C26 1_555 1_555
C27 C26 1_555 1_555
H27 C27 1_555 1_555
C28 C27 1_555 1_555
H28 C28 1_555 1_555
C29 C24 1_555 1_555
H29 C29 1_555 1_555
C30 O3 1_555 1_555
C31 C30 1_555 1_555
C32 C31 1_555 1_555
H30 C32 1_555 1_555
C33 N2 1_555 1_555
C34 C33 1_555 1_555
H31 C34 1_555 1_555
C35 N3 1_555 1_555
C36 C31 1_555 1_555
H32 C36 1_555 1_555
C37 O4 1_555 1_555
C38 C37 1_555 1_555
C39 C38 1_555 1_555
H33 C39 1_555 1_555
C40 N4 1_555 1_555
C41 C40 1_555 1_555
H34 C41 1_555 1_555
C42 N5 1_555 1_555
C43 C38 1_555 1_555
H35 C43 1_555 1_555
C44 N1 1_555 1_555
H36 C44 1_555 1_555
C45 C44 1_555 1_555
H37 C45 1_555 1_555
H38 C45 1_555 1_555
H39 C45 1_555 1_555
C46 C44 1_555 1_555
H40 C46 1_555 1_555
H41 C46 1_555 1_555
H42 C46 1_555 1_555
C47 N1 1_555 1_555
H43 C47 1_555 1_555
C48 C47 1_555 1_555
H44 C48 1_555 1_555
H45 C48 1_555 1_555
H46 C48 1_555 1_555
C49 C47 1_555 1_555
H47 C49 1_555 1_555
H48 C49 1_555 1_555
H49 C49 1_555 1_555
C16 C17 1_555 1_555
C22 C23 1_555 1_555
C28 C29 1_555 1_555
C32 C33 1_555 1_555
C34 C35 1_555 1_555
C35 C36 1_555 1_555
C39 C40 1_555 1_555
C41 C42 1_555 1_555
C42 C43 1_555 1_555

#END
