
#######################################################################
#
#                 Cambridge Crystallographic Data Centre
#                                CCDC 
#
#######################################################################
#
# If this CIF has been generated from an entry in the Cambridge 
# Structural Database, then it will include bibliographic, chemical, 
# crystal, experimental, refinement or atomic coordinate data resulting 
# from the CCDC's data processing and validation procedures.
#
#######################################################################

data_SUTWUB
_chemical_name_common            
8-(trimethylsilyl)-2-((trimethylsilyl)ethynyl)-5-oxahexacyclo[7.7.0.0$1,6!.0$2,4!.0$3,7!.0$10,15!]hexadeca-8,10,12,14-tetraen-16-one
_chemical_formula_moiety         'C23 H26 O2 Si2'
_chemical_name_systematic        
'(3aS,9aR)-4-(trimethylsilyl)-10-((trimethylsilyl)ethynyl)-2,3,3a,9btetrahydro- 9H-2,3,9a-(epimethanetriyl)benzo[4,5]pentaleno[1,2-b]furan-9-one'
_symmetry_cell_setting           monoclinic
_symmetry_space_group_name_H-M   'P 21/n'
_symmetry_Int_Tables_number      14
_space_group_name_Hall           '-P 2yn'
loop_
_symmetry_equiv_pos_site_id
_symmetry_equiv_pos_as_xyz
1 x,y,z
2 1/2-x,1/2+y,1/2-z
3 -x,-y,-z
4 1/2+x,1/2-y,1/2+z
_cell_length_a                   10.3932(3)
_cell_length_b                   29.2743(8)
_cell_length_c                   14.2777(4)
_cell_angle_alpha                90
_cell_angle_beta                 98.2530(10)
_cell_angle_gamma                90
_cell_volume                     4299.05
_exptl_crystal_colour            colorless
_exptl_crystal_description       needle
_chemical_melting_point          '421-424 K'
_cell_formula_units_Z            8
loop_
_atom_site_label
_atom_site_type_symbol
_atom_site_fract_x
_atom_site_fract_y
_atom_site_fract_z
Si1 Si 1.32254(4) 0.142804(14) 0.71428(3)
Si2 Si 0.70463(4) -0.021940(13) 0.69391(3)
O1 O 0.75869(10) 0.10740(3) 0.44584(7)
O2 O 0.75485(10) 0.19447(3) 0.61191(7)
C1 C 1.39038(16) 0.18439(6) 0.63665(13)
H1 H 1.3927 0.1706 0.5744
H2 H 1.4787 0.1928 0.6649
H3 H 1.3356 0.2118 0.6296
C2 C 1.41391(17) 0.08845(6) 0.71664(18)
H4 H 1.4082 0.0763 0.6522
H5 H 1.3767 0.0664 0.7568
H6 H 1.5053 0.0939 0.7422
C3 C 1.32583(19) 0.16604(8) 0.83555(13)
H7 H 1.2646 0.1916 0.8340
H8 H 1.4137 0.1768 0.8594
H9 H 1.3009 0.1420 0.8773
C4 C 1.15392(14) 0.12945(5) 0.66437(11)
C5 C 1.04711(14) 0.11825(5) 0.62759(10)
C6 C 0.92332(13) 0.10326(5) 0.58019(10)
C7 C 0.89169(14) 0.09776(5) 0.47311(10)
H10 H 0.9574 0.1050 0.4306
C8 C 0.90412(14) 0.05575(5) 0.53430(10)
H11 H 0.9763 0.0331 0.5346
C9 C 0.76589(14) 0.04221(5) 0.54892(10)
H12 H 0.7255 0.0175 0.5060
C10 C 0.75342(13) 0.03571(5) 0.65426(10)
C11 C 0.77082(13) 0.07822(5) 0.69187(10)
C12 C 0.79211(13) 0.11199(5) 0.61546(10)
C13 C 0.70899(14) 0.09099(5) 0.52665(10)
H13 H 0.6127 0.0938 0.5245
C14 C 0.76547(13) 0.15849(5) 0.65470(10)
C15 C 0.75163(13) 0.15119(5) 0.75539(10)
C16 C 0.73058(14) 0.18447(5) 0.82123(11)
H14 H 0.7255 0.2158 0.8041
C17 C 0.71728(15) 0.17083(5) 0.91196(11)
H15 H 0.7025 0.1929 0.9580
C18 C 0.72553(14) 0.12472(5) 0.93609(11)
H16 H 0.7169 0.1159 0.9989
C19 C 0.74608(14) 0.09118(5) 0.87068(10)
H17 H 0.7517 0.0599 0.8885
C20 C 0.75835(13) 0.10438(5) 0.77834(10)
C21 C 0.71130(17) -0.02805(6) 0.82430(12)
H18 H 0.6452 -0.0084 0.8461
H19 H 0.7976 -0.0190 0.8558
H20 H 0.6946 -0.0599 0.8397
C22 C 0.53431(15) -0.03148(5) 0.63553(13)
H21 H 0.4773 -0.0083 0.6571
H22 H 0.5053 -0.0619 0.6521
H23 H 0.5309 -0.0293 0.5667
C23 C 0.81104(16) -0.06590(5) 0.64912(13)
H24 H 0.9003 -0.0624 0.6814
H25 H 0.8096 -0.0619 0.5808
H26 H 0.7791 -0.0965 0.6617
Si3 Si 0.83355(4) 0.014570(13) 0.15995(3)
Si4 Si 1.44581(4) 0.188437(13) 0.23594(3)
O3 O 1.03850(10) 0.19991(3) -0.03197(7)
O4 O 0.81086(10) 0.19866(4) 0.13315(7)
C24 C 0.66510(16) 0.01801(6) 0.09538(13)
H27 H 0.6231 0.0459 0.1142
H28 H 0.6155 -0.0087 0.1108
H29 H 0.6680 0.0187 0.0271
C25 C 0.91572(17) -0.03781(5) 0.12531(13)
H30 H 1.0035 -0.0395 0.1610
H31 H 0.9213 -0.0368 0.0574
H32 H 0.8658 -0.0647 0.1392
C26 C 0.83116(18) 0.01494(6) 0.28976(12)
H33 H 0.7849 0.0421 0.3070
H34 H 0.9206 0.0154 0.3228
H35 H 0.7867 -0.0125 0.3079
C27 C 0.92541(14) 0.06464(5) 0.12846(10)
C28 C 0.98236(14) 0.09795(5) 0.10639(10)
C29 C 1.04467(14) 0.13863(5) 0.07941(10)
C30 C 1.05055(14) 0.15217(5) -0.02365(10)
H36 H 1.0149 0.1316 -0.0771
C31 C 1.17436(14) 0.14059(5) 0.03963(10)
H37 H 1.2276 0.1129 0.0306
C32 C 1.23384(14) 0.18644(5) 0.07601(10)
H38 H 1.3029 0.1985 0.0406
C33 C 1.10187(14) 0.21299(5) 0.05836(10)
H39 H 1.1076 0.2466 0.0704
C34 C 1.04337(14) 0.18423(5) 0.13407(10)
C35 C 0.92029(14) 0.19477(5) 0.17548(10)
C36 C 0.95976(14) 0.19842(5) 0.27940(10)
C37 C 0.87947(15) 0.20690(5) 0.34744(11)
H40 H 0.7881 0.2097 0.3301
C38 C 0.93577(16) 0.21125(5) 0.44096(11)
H41 H 0.8829 0.2171 0.4887
C39 C 1.07009(15) 0.20705(5) 0.46510(11)
H42 H 1.1076 0.2105 0.5294
C40 C 1.15032(15) 0.19793(5) 0.39761(10)
H43 H 1.2416 0.1949 0.4154
C41 C 1.09490(14) 0.19324(4) 0.30328(10)
C42 C 1.15256(14) 0.18637(5) 0.21612(10)
C43 C 1.26906(14) 0.18713(5) 0.18419(10)
C44 C 1.47827(15) 0.17688(6) 0.36588(12)
H44 H 1.5708 0.1701 0.3843
H45 H 1.4263 0.1507 0.3810
H46 H 1.4547 0.2038 0.4005
C45 C 1.51418(15) 0.24531(5) 0.21164(12)
H47 H 1.6089 0.2430 0.2158
H48 H 1.4923 0.2675 0.2583
H49 H 1.4773 0.2554 0.1480
C46 C 1.52569(17) 0.14311(6) 0.17229(14)
H50 H 1.6197 0.1437 0.1930
H51 H 1.5080 0.1487 0.1040
H52 H 1.4912 0.1131 0.1865
loop_
_geom_bond_atom_site_label_1
_geom_bond_atom_site_label_2
_geom_bond_site_symmetry_1
_geom_bond_site_symmetry_2
Si1 C1 1_555 1_555
Si2 C10 1_555 1_555
O1 C7 1_555 1_555
O2 C14 1_555 1_555
C1 H1 1_555 1_555
H2 C1 1_555 1_555
H3 C1 1_555 1_555
C2 Si1 1_555 1_555
H4 C2 1_555 1_555
H5 C2 1_555 1_555
H6 C2 1_555 1_555
C3 Si1 1_555 1_555
H7 C3 1_555 1_555
H8 C3 1_555 1_555
H9 C3 1_555 1_555
C4 Si1 1_555 1_555
C5 C4 1_555 1_555
C6 C5 1_555 1_555
C7 C6 1_555 1_555
H10 C7 1_555 1_555
C8 C6 1_555 1_555
H11 C8 1_555 1_555
C9 C8 1_555 1_555
H12 C9 1_555 1_555
C10 C9 1_555 1_555
C11 C10 1_555 1_555
C12 C6 1_555 1_555
C13 O1 1_555 1_555
H13 C13 1_555 1_555
C14 C12 1_555 1_555
C15 C14 1_555 1_555
C16 C15 1_555 1_555
H14 C16 1_555 1_555
C17 C16 1_555 1_555
H15 C17 1_555 1_555
C18 C17 1_555 1_555
H16 C18 1_555 1_555
C19 C18 1_555 1_555
H17 C19 1_555 1_555
C20 C11 1_555 1_555
C21 Si2 1_555 1_555
H18 C21 1_555 1_555
H19 C21 1_555 1_555
H20 C21 1_555 1_555
C22 Si2 1_555 1_555
H21 C22 1_555 1_555
H22 C22 1_555 1_555
H23 C22 1_555 1_555
C23 Si2 1_555 1_555
H24 C23 1_555 1_555
H25 C23 1_555 1_555
H26 C23 1_555 1_555
Si3 C24 1_555 1_555
Si4 C43 1_555 1_555
O3 C30 1_555 1_555
O4 C35 1_555 1_555
C24 H27 1_555 1_555
H28 C24 1_555 1_555
H29 C24 1_555 1_555
C25 Si3 1_555 1_555
H30 C25 1_555 1_555
H31 C25 1_555 1_555
H32 C25 1_555 1_555
C26 Si3 1_555 1_555
H33 C26 1_555 1_555
H34 C26 1_555 1_555
H35 C26 1_555 1_555
C27 Si3 1_555 1_555
C28 C27 1_555 1_555
C29 C28 1_555 1_555
C30 C29 1_555 1_555
H36 C30 1_555 1_555
C31 C29 1_555 1_555
H37 C31 1_555 1_555
C32 C31 1_555 1_555
H38 C32 1_555 1_555
C33 O3 1_555 1_555
H39 C33 1_555 1_555
C34 C29 1_555 1_555
C35 C34 1_555 1_555
C36 C35 1_555 1_555
C37 C36 1_555 1_555
H40 C37 1_555 1_555
C38 C37 1_555 1_555
H41 C38 1_555 1_555
C39 C38 1_555 1_555
H42 C39 1_555 1_555
C40 C39 1_555 1_555
H43 C40 1_555 1_555
C41 C36 1_555 1_555
C42 C34 1_555 1_555
C43 C32 1_555 1_555
C44 Si4 1_555 1_555
H44 C44 1_555 1_555
H45 C44 1_555 1_555
H46 C44 1_555 1_555
C45 Si4 1_555 1_555
H47 C45 1_555 1_555
H48 C45 1_555 1_555
H49 C45 1_555 1_555
C46 Si4 1_555 1_555
H50 C46 1_555 1_555
H51 C46 1_555 1_555
H52 C46 1_555 1_555
C7 C8 1_555 1_555
C9 C13 1_555 1_555
C11 C12 1_555 1_555
C12 C13 1_555 1_555
C15 C20 1_555 1_555
C19 C20 1_555 1_555
C30 C31 1_555 1_555
C32 C33 1_555 1_555
C33 C34 1_555 1_555
C40 C41 1_555 1_555
C41 C42 1_555 1_555
C42 C43 1_555 1_555

#END
