
#######################################################################
#
#                 Cambridge Crystallographic Data Centre
#                                CCDC 
#
#######################################################################
#
# If this CIF has been generated from an entry in the Cambridge 
# Structural Database, then it will include bibliographic, chemical, 
# crystal, experimental, refinement or atomic coordinate data resulting 
# from the CCDC's data processing and validation procedures.
#
#######################################################################

data_SUTYOX
_chemical_formula_moiety         'C9 H13 Br1 O3'
_chemical_name_systematic        
10-bromo-6-methyl-1,4-dioxaspiro[4.5]dec-9-en-7-ol
_symmetry_cell_setting           monoclinic
_symmetry_space_group_name_H-M   'P 21'
_symmetry_Int_Tables_number      4
_space_group_name_Hall           'P 2yb'
loop_
_symmetry_equiv_pos_site_id
_symmetry_equiv_pos_as_xyz
1 x,y,z
2 -x,1/2+y,-z
_cell_length_a                   10.9066(15)
_cell_length_b                   8.1505(11)
_cell_length_c                   12.4120(18)
_cell_angle_alpha                90
_cell_angle_beta                 113.038(7)
_cell_angle_gamma                90
_cell_volume                     1015.36
_exptl_crystal_colour            colorless
_exptl_crystal_description       block
_cell_formula_units_Z            4
loop_
_atom_site_label
_atom_site_type_symbol
_atom_site_fract_x
_atom_site_fract_y
_atom_site_fract_z
Br1 Br 0.56955(6) 0.71113(7) 0.59515(5)
C1 C 0.6720(4) 0.5190(6) 0.6595(4)
C2 C 0.6154(5) 0.3917(7) 0.6859(4)
H1 H 0.5248 0.3962 0.6701
C3 C 0.6900(4) 0.2416(6) 0.7399(4)
H2 H 0.6685 0.1558 0.6812
H3 H 0.6624 0.2046 0.8012
C4 C 0.8375(5) 0.2690(6) 0.7907(4)
H4 H 0.8608 0.3355 0.8617
C5 C 0.8818(4) 0.3609(5) 0.7042(4)
H5 H 0.9786 0.3753 0.7415
C6 C 0.8187(4) 0.5305(5) 0.6832(3)
C7 C 0.9076(7) 0.7588(8) 0.6290(5)
H6 H 0.8463 0.8508 0.6060
H7 H 0.9754 0.7747 0.5976
C8 C 0.9693(5) 0.7415(7) 0.7596(5)
H8 H 1.0577 0.6940 0.7853
H9 H 0.9749 0.8467 0.7978
C9 C 0.8510(5) 0.2661(7) 0.5906(4)
H10 H 0.7562 0.2569 0.5494
H11 H 0.8894 0.1584 0.6082
H12 H 0.8880 0.3232 0.5426
O1 O 0.8799(3) 0.6343(4) 0.7831(2)
O2 O 0.8392(4) 0.6088(4) 0.5893(3)
O3 O 0.9019(4) 0.1134(4) 0.8223(3)
H13 H 0.9788 0.1267 0.8693
Br2 Br 0.27325(7) 0.50335(8) 0.72259(6)
C10 C 0.2927(5) 0.3817(6) 0.8599(4)
C11 C 0.2931(5) 0.4586(6) 0.9519(5)
H14 H 0.2824 0.5719 0.9475
C12 C 0.3097(6) 0.3756(7) 1.0642(5)
H15 H 0.2461 0.4212 1.0931
H16 H 0.3985 0.3975 1.1220
C13 C 0.2893(4) 0.1930(6) 1.0499(4)
H17 H 0.3304 0.1427 1.1276
C14 C 0.3551(5) 0.1196(5) 0.9724(4)
H18 H 0.4506 0.1437 1.0109
C15 C 0.3070(4) 0.1983(6) 0.8507(3)
C16 C 0.2022(6) 0.0482(9) 0.6813(5)
H19 H 0.1357 0.0802 0.6057
H20 H 0.1955 -0.0692 0.6909
C17 C 0.3359(6) 0.0918(7) 0.6897(4)
H21 H 0.3823 -0.0049 0.6798
H22 H 0.3306 0.1709 0.6296
C18 C 0.3419(5) -0.0660(6) 0.9661(5)
H23 H 0.3885 -0.1118 1.0426
H24 H 0.3795 -0.1080 0.9135
H25 H 0.2495 -0.0955 0.9383
O4 O 0.1830(3) 0.1346(4) 0.7724(2)
O5 O 0.4038(3) 0.1604(4) 0.8026(2)
O6 O 0.1512(3) 0.1513(5) 1.0026(3)
H26 H 0.1242 0.1469 1.0556
loop_
_geom_bond_atom_site_label_1
_geom_bond_atom_site_label_2
_geom_bond_site_symmetry_1
_geom_bond_site_symmetry_2
Br1 C1 1_555 1_555
C1 C2 1_555 1_555
C2 H1 1_555 1_555
C3 C2 1_555 1_555
H2 C3 1_555 1_555
H3 C3 1_555 1_555
C4 C3 1_555 1_555
H4 C4 1_555 1_555
C5 C4 1_555 1_555
H5 C5 1_555 1_555
C6 C1 1_555 1_555
C7 H6 1_555 1_555
H7 C7 1_555 1_555
C8 C7 1_555 1_555
H8 C8 1_555 1_555
H9 C8 1_555 1_555
C9 C5 1_555 1_555
H10 C9 1_555 1_555
H11 C9 1_555 1_555
H12 C9 1_555 1_555
O1 C6 1_555 1_555
O2 C6 1_555 1_555
O3 C4 1_555 1_555
H13 O3 1_555 1_555
Br2 C10 1_555 1_555
C10 C11 1_555 1_555
C11 H14 1_555 1_555
C12 C11 1_555 1_555
H15 C12 1_555 1_555
H16 C12 1_555 1_555
C13 C12 1_555 1_555
H17 C13 1_555 1_555
C14 C13 1_555 1_555
H18 C14 1_555 1_555
C15 C10 1_555 1_555
C16 H19 1_555 1_555
H20 C16 1_555 1_555
C17 C16 1_555 1_555
H21 C17 1_555 1_555
H22 C17 1_555 1_555
C18 C14 1_555 1_555
H23 C18 1_555 1_555
H24 C18 1_555 1_555
H25 C18 1_555 1_555
O4 C15 1_555 1_555
O5 C15 1_555 1_555
O6 C13 1_555 1_555
H26 O6 1_555 1_555
C5 C6 1_555 1_555
C7 O2 1_555 1_555
C8 O1 1_555 1_555
C14 C15 1_555 1_555
C16 O4 1_555 1_555
C17 O5 1_555 1_555

#END
