
#######################################################################
#
#                 Cambridge Crystallographic Data Centre
#                                CCDC 
#
#######################################################################
#
# If this CIF has been generated from an entry in the Cambridge 
# Structural Database, then it will include bibliographic, chemical, 
# crystal, experimental, refinement or atomic coordinate data resulting 
# from the CCDC's data processing and validation procedures.
#
#######################################################################

data_SUTYUD
_chemical_formula_moiety         'C9 H13 Br1 O3'
_chemical_name_systematic        
10-bromo-6-methyl-1,4-dioxaspiro[4.5]dec-9-en-7-ol
_symmetry_cell_setting           monoclinic
_symmetry_space_group_name_H-M   'P 21'
_symmetry_Int_Tables_number      4
_space_group_name_Hall           'P 2yb'
loop_
_symmetry_equiv_pos_site_id
_symmetry_equiv_pos_as_xyz
1 x,y,z
2 -x,1/2+y,-z
_cell_length_a                   10.913(8)
_cell_length_b                   8.164(6)
_cell_length_c                   12.409(9)
_cell_angle_alpha                90
_cell_angle_beta                 112.943(9)
_cell_angle_gamma                90
_cell_volume                     1018.11
_exptl_crystal_colour            colorless
_exptl_crystal_description       block
_cell_formula_units_Z            4
loop_
_atom_site_label
_atom_site_type_symbol
_atom_site_fract_x
_atom_site_fract_y
_atom_site_fract_z
Br1 Br 0.06962(10) 0.14762(13) 0.09518(9)
C1 C 0.1737(8) 0.3376(13) 0.1605(8)
C2 C 0.1169(9) 0.4658(14) 0.1852(9)
H1 H 0.0259 0.4627 0.1672
C3 C 0.1920(8) 0.6152(12) 0.2406(8)
H2 H 0.1640 0.6512 0.3020
H3 H 0.1710 0.7017 0.1826
C4 C 0.3381(8) 0.5881(11) 0.2914(8)
H4 H 0.3613 0.5217 0.3623
C5 C 0.3805(8) 0.4960(11) 0.2036(8)
H5 H 0.4771 0.4808 0.2402
C6 C 0.3170(8) 0.3267(11) 0.1820(7)
C7 C 0.4080(13) 0.0998(15) 0.1297(10)
H6 H 0.4750 0.0835 0.0973
H7 H 0.3471 0.0077 0.1080
C8 C 0.4709(10) 0.1182(13) 0.2590(10)
H8 H 0.4794 0.0132 0.2979
H9 H 0.5580 0.1686 0.2833
C9 C 0.3500(10) 0.5931(13) 0.0905(9)
H10 H 0.2565 0.6163 0.0552
H11 H 0.3756 0.5299 0.0374
H12 H 0.3990 0.6941 0.1082
O1 O 0.4036(7) 0.7433(8) 0.3223(7)
H13 H 0.4788 0.7300 0.3723
O2 O 0.3391(6) 0.2487(8) 0.0897(5)
O3 O 0.3801(6) 0.2215(8) 0.2825(5)
Br2 Br 0.22713(14) -0.14450(16) 0.77773(12)
C10 C 0.2087(8) -0.0238(11) 0.6415(9)
C11 C 0.2073(10) -0.1014(14) 0.5468(10)
H14 H 0.2180 -0.2146 0.5505
C12 C 0.1897(11) -0.0177(14) 0.4351(9)
H15 H 0.1007 -0.0395 0.3779
H16 H 0.2525 -0.0628 0.4053
C13 C 0.2102(8) 0.1664(12) 0.4497(7)
H17 H 0.1695 0.2172 0.3723
C14 C 0.1448(8) 0.2385(11) 0.5271(7)
H18 H 0.0496 0.2143 0.4889
C15 C 0.1936(7) 0.1585(12) 0.6484(7)
C16 C 0.1638(10) 0.2657(14) 0.8101(8)
H19 H 0.1666 0.1881 0.8701
H20 H 0.1189 0.3642 0.8189
C17 C 0.2983(11) 0.3041(18) 0.8195(10)
H21 H 0.3086 0.4214 0.8136
H22 H 0.3634 0.2667 0.8940
C18 C 0.1577(10) 0.4230(12) 0.5346(10)
H23 H 0.2499 0.4528 0.5614
H24 H 0.1213 0.4637 0.5884
H25 H 0.1100 0.4697 0.4586
O4 O 0.3491(6) 0.2059(9) 0.4973(5)
H26 H 0.3737 0.2234 0.4438
O5 O 0.3161(5) 0.2233(8) 0.7275(5)
O6 O 0.0969(5) 0.1973(7) 0.6976(5)
loop_
_geom_bond_atom_site_label_1
_geom_bond_atom_site_label_2
_geom_bond_site_symmetry_1
_geom_bond_site_symmetry_2
Br1 C1 1_555 1_555
C1 C2 1_555 1_555
C2 H1 1_555 1_555
C3 C2 1_555 1_555
H2 C3 1_555 1_555
H3 C3 1_555 1_555
C4 C3 1_555 1_555
H4 C4 1_555 1_555
C5 C4 1_555 1_555
H5 C5 1_555 1_555
C6 C1 1_555 1_555
C7 H6 1_555 1_555
H7 C7 1_555 1_555
C8 C7 1_555 1_555
H8 C8 1_555 1_555
H9 C8 1_555 1_555
C9 C5 1_555 1_555
H10 C9 1_555 1_555
H11 C9 1_555 1_555
H12 C9 1_555 1_555
O1 C4 1_555 1_555
H13 O1 1_555 1_555
O2 C6 1_555 1_555
O3 C6 1_555 1_555
Br2 C10 1_555 1_555
C10 C11 1_555 1_555
C11 H14 1_555 1_555
C12 C11 1_555 1_555
H15 C12 1_555 1_555
H16 C12 1_555 1_555
C13 C12 1_555 1_555
H17 C13 1_555 1_555
C14 C13 1_555 1_555
H18 C14 1_555 1_555
C15 C10 1_555 1_555
C16 H19 1_555 1_555
H20 C16 1_555 1_555
C17 C16 1_555 1_555
H21 C17 1_555 1_555
H22 C17 1_555 1_555
C18 C14 1_555 1_555
H23 C18 1_555 1_555
H24 C18 1_555 1_555
H25 C18 1_555 1_555
O4 C13 1_555 1_555
H26 O4 1_555 1_555
O5 C15 1_555 1_555
O6 C15 1_555 1_555
C5 C6 1_555 1_555
C7 O2 1_555 1_555
C8 O3 1_555 1_555
C14 C15 1_555 1_555
C16 O6 1_555 1_555
C17 O5 1_555 1_555

#END
