
#######################################################################
#
#                 Cambridge Crystallographic Data Centre
#                                CCDC 
#
#######################################################################
#
# If this CIF has been generated from an entry in the Cambridge 
# Structural Database, then it will include bibliographic, chemical, 
# crystal, experimental, refinement or atomic coordinate data resulting 
# from the CCDC's data processing and validation procedures.
#
#######################################################################

data_SUVBIW
_chemical_formula_moiety         'C17 H11 F1 O2'
_chemical_name_systematic        
(4-fluorophenyl)(3-hydroxy-2-naphthyl)methanone
_symmetry_cell_setting           monoclinic
_symmetry_space_group_name_H-M   'P 21/c'
_symmetry_Int_Tables_number      14
_space_group_name_Hall           '-P 2ybc'
loop_
_symmetry_equiv_pos_site_id
_symmetry_equiv_pos_as_xyz
1 x,y,z
2 -x,1/2+y,1/2-z
3 -x,-y,-z
4 x,1/2-y,1/2+z
_cell_length_a                   16.964(3)
_cell_length_b                   5.8359(10)
_cell_length_c                   12.553(2)
_cell_angle_alpha                90
_cell_angle_beta                 99.922(2)
_cell_angle_gamma                90
_cell_volume                     1224.16
_exptl_crystal_colour            yellow
_exptl_crystal_description       block
_cell_formula_units_Z            4
loop_
_atom_site_label
_atom_site_type_symbol
_atom_site_fract_x
_atom_site_fract_y
_atom_site_fract_z
C1 C 0.34357(10) 0.8484(3) 0.49846(13)
H1 H 0.3634 0.8304 0.4344
C2 C 0.28759(10) 0.6985(3) 0.52239(12)
C3 C 0.25359(9) 0.7288(3) 0.61855(12)
C4 C 0.28268(9) 0.9038(3) 0.68814(12)
H2 H 0.2622 0.9216 0.7517
C5 C 0.34189(9) 1.0558(3) 0.66671(13)
C6 C 0.37118(10) 1.2346(3) 0.73852(14)
H3 H 0.3514 1.2519 0.8027
C7 C 0.42780(11) 1.3815(3) 0.71519(15)
H4 H 0.4468 1.4980 0.7634
C8 C 0.45770(11) 1.3572(3) 0.61793(15)
H5 H 0.4965 1.4583 0.6022
C9 C 0.43066(10) 1.1880(3) 0.54697(14)
H6 H 0.4510 1.1756 0.4830
C10 C 0.37207(9) 1.0297(3) 0.56846(13)
C11 C 0.19359(10) 0.5679(3) 0.64587(13)
C12 C 0.14936(9) 0.6222(3) 0.73568(12)
C13 C 0.14735(10) 0.4598(3) 0.81570(14)
H7 H 0.1736 0.3207 0.8126
C14 C 0.10687(11) 0.5021(3) 0.89970(14)
H8 H 0.1066 0.3952 0.9546
C15 C 0.06710(10) 0.7059(3) 0.90017(14)
C16 C 0.06569(10) 0.8692(3) 0.82168(14)
H9 H 0.0367 1.0041 0.8235
C17 C 0.10862(10) 0.8275(3) 0.73963(13)
H10 H 0.1102 0.9378 0.6866
F1 F 0.02706(7) 0.7487(2) 0.98288(9)
O1 O 0.26447(8) 0.5213(2) 0.45447(9)
H11 H 0.2360 0.4341 0.4823
O2 O 0.17952(8) 0.3849(2) 0.59676(10)
loop_
_geom_bond_atom_site_label_1
_geom_bond_atom_site_label_2
_geom_bond_site_symmetry_1
_geom_bond_site_symmetry_2
C1 H1 1_555 1_555
C2 C1 1_555 1_555
C3 C2 1_555 1_555
C4 C3 1_555 1_555
H2 C4 1_555 1_555
C5 C4 1_555 1_555
C6 C5 1_555 1_555
H3 C6 1_555 1_555
C7 C6 1_555 1_555
H4 C7 1_555 1_555
C8 C7 1_555 1_555
H5 C8 1_555 1_555
C9 C8 1_555 1_555
H6 C9 1_555 1_555
C10 C1 1_555 1_555
C11 C3 1_555 1_555
C12 C11 1_555 1_555
C13 C12 1_555 1_555
H7 C13 1_555 1_555
C14 C13 1_555 1_555
H8 C14 1_555 1_555
C15 C14 1_555 1_555
C16 C15 1_555 1_555
H9 C16 1_555 1_555
C17 C12 1_555 1_555
H10 C17 1_555 1_555
F1 C15 1_555 1_555
O1 C2 1_555 1_555
H11 O1 1_555 1_555
O2 C11 1_555 1_555
C5 C10 1_555 1_555
C9 C10 1_555 1_555
C16 C17 1_555 1_555

#END
