
#######################################################################
#
#                 Cambridge Crystallographic Data Centre
#                                CCDC 
#
#######################################################################
#
# If this CIF has been generated from an entry in the Cambridge 
# Structural Database, then it will include bibliographic, chemical, 
# crystal, experimental, refinement or atomic coordinate data resulting 
# from the CCDC's data processing and validation procedures.
#
#######################################################################

data_SUVBOB
_chemical_formula_moiety         'C13 H17 N1 O2'
_chemical_name_systematic        
5,6-Dimethyl-4,7,7a,8,9,10-hexahydronaphtho[1,8a-c][1,2]oxazol-3-one
_symmetry_cell_setting           monoclinic
_symmetry_space_group_name_H-M   'P 21/n'
_symmetry_Int_Tables_number      14
_space_group_name_Hall           '-P 2yn'
loop_
_symmetry_equiv_pos_site_id
_symmetry_equiv_pos_as_xyz
1 x,y,z
2 1/2-x,1/2+y,1/2-z
3 -x,-y,-z
4 1/2+x,1/2-y,1/2+z
_cell_length_a                   7.4550(15)
_cell_length_b                   7.6800(15)
_cell_length_c                   20.116(4)
_cell_angle_alpha                90
_cell_angle_beta                 99.97(3)
_cell_angle_gamma                90
_cell_volume                     1134.34
_cell_formula_units_Z            4
loop_
_atom_site_label
_atom_site_type_symbol
_atom_site_fract_x
_atom_site_fract_y
_atom_site_fract_z
O1 O -0.02455(13) 0.29007(13) 0.14854(5)
O2 O 0.15451(14) 0.25332(14) 0.24873(5)
N1 N 0.34738(17) 0.21741(17) 0.27392(6)
C1 C 0.21358(16) 0.30276(15) 0.01141(6)
C2 C 0.27997(16) 0.43916(15) 0.04898(6)
C3 C 0.35495(17) 0.42400(15) 0.12347(6)
H1 H 0.3078 0.5224 0.1472
H2 H 0.4891 0.4356 0.1301
C4 C 0.30794(16) 0.25212(15) 0.15662(6)
C5 C 0.42866(18) 0.21823(17) 0.22274(6)
C6 C 0.62308(18) 0.16841(19) 0.22629(6)
H3 H 0.6748 0.1288 0.2725
H4 H 0.6943 0.2700 0.2153
C7 C 0.63295(17) 0.02085(17) 0.17540(6)
H5 H 0.7616 0.0023 0.1707
H6 H 0.5877 -0.0882 0.1929
C8 C 0.52064(17) 0.06096(16) 0.10604(6)
H7 H 0.5293 -0.0382 0.0753
H8 H 0.5716 0.1650 0.0870
C9 C 0.31961(16) 0.09412(15) 0.11005(6)
H9 H 0.2720 -0.0102 0.1311
C10 C 0.20029(17) 0.12396(15) 0.04120(6)
H10 H 0.2336 0.0368 0.0092
H11 H 0.0718 0.1027 0.0455
C11 C 0.12566(18) 0.26760(16) 0.17966(6)
C12 C 0.14489(19) 0.31268(18) -0.06370(6)
H12 H 0.0944 0.4288 -0.0753
H13 H 0.0499 0.2248 -0.0765
H14 H 0.2458 0.2909 -0.0880
C13 C 0.29761(18) 0.61939(16) 0.02162(7)
H15 H 0.4254 0.6422 0.0188
H16 H 0.2557 0.7049 0.0517
H17 H 0.2232 0.6286 -0.0234
loop_
_geom_bond_atom_site_label_1
_geom_bond_atom_site_label_2
_geom_bond_site_symmetry_1
_geom_bond_site_symmetry_2
O1 C11 1_555 1_555
O2 N1 1_555 1_555
N1 C5 1_555 1_555
C1 C2 1_555 1_555
C2 C3 1_555 1_555
C3 H1 1_555 1_555
H2 C3 1_555 1_555
C4 C3 1_555 1_555
C5 C4 1_555 1_555
C6 C5 1_555 1_555
H3 C6 1_555 1_555
H4 C6 1_555 1_555
C7 C6 1_555 1_555
H5 C7 1_555 1_555
H6 C7 1_555 1_555
C8 C7 1_555 1_555
H7 C8 1_555 1_555
H8 C8 1_555 1_555
C9 C4 1_555 1_555
H9 C9 1_555 1_555
C10 C1 1_555 1_555
H10 C10 1_555 1_555
H11 C10 1_555 1_555
C11 O2 1_555 1_555
C12 C1 1_555 1_555
H12 C12 1_555 1_555
H13 C12 1_555 1_555
H14 C12 1_555 1_555
C13 C2 1_555 1_555
H15 C13 1_555 1_555
H16 C13 1_555 1_555
H17 C13 1_555 1_555
C4 C11 1_555 1_555
C8 C9 1_555 1_555
C9 C10 1_555 1_555

#END
