
#######################################################################
#
#                 Cambridge Crystallographic Data Centre
#                                CCDC 
#
#######################################################################
#
# If this CIF has been generated from an entry in the Cambridge 
# Structural Database, then it will include bibliographic, chemical, 
# crystal, experimental, refinement or atomic coordinate data resulting 
# from the CCDC's data processing and validation procedures.
#
#######################################################################

data_SUVBUI
_chemical_formula_moiety         'C21 H17 N1 O2'
_chemical_name_systematic        
9-phenyl-6,6a,7,7a-tetrahydrobenzo[6,7]indeno[1,2-c]pyrrole-8,10(5H,9H)-dione
_symmetry_cell_setting           monoclinic
_symmetry_space_group_name_H-M   'P 21/n'
_symmetry_Int_Tables_number      14
_space_group_name_Hall           '-P 2yn'
loop_
_symmetry_equiv_pos_site_id
_symmetry_equiv_pos_as_xyz
1 x,y,z
2 1/2-x,1/2+y,1/2-z
3 -x,-y,-z
4 1/2+x,1/2-y,1/2+z
_cell_length_a                   7.091(3)
_cell_length_b                   9.470(4)
_cell_length_c                   23.278(9)
_cell_angle_alpha                90
_cell_angle_beta                 98.522(3)
_cell_angle_gamma                90
_cell_volume                     1545.9
_exptl_crystal_colour            colorless
_exptl_crystal_description       prism
_cell_formula_units_Z            4
loop_
_atom_site_label
_atom_site_type_symbol
_atom_site_fract_x
_atom_site_fract_y
_atom_site_fract_z
O1 O 0.76318(11) 0.83304(9) 0.16621(4)
O2 O 0.21578(10) 0.92626(8) 0.04109(3)
N1 N 0.47841(12) 0.90599(9) 0.11287(4)
C1 C 0.66646(15) 0.85249(11) 0.11978(5)
C2 C 0.71380(14) 0.83214(11) 0.05973(5)
H1 H 0.7834 0.9179 0.0491
C3 C 0.81502(16) 0.70169(12) 0.04066(5)
H2 H 0.7873 0.6170 0.0629
H3 H 0.9547 0.7160 0.0450
C4 C 0.72674(15) 0.68980(11) -0.02375(5)
H4 H 0.7976 0.7545 -0.0469
C5 C 0.72613(16) 0.54287(12) -0.04997(5)
H5 H 0.6680 0.4754 -0.0252
H6 H 0.8589 0.5123 -0.0513
C6 C 0.61451(17) 0.54168(13) -0.11097(5)
H7 H 0.6897 0.5912 -0.1374
H8 H 0.5977 0.4426 -0.1244
C7 C 0.42085(16) 0.61061(11) -0.11521(5)
C8 C 0.28157(17) 0.58030(12) -0.16251(5)
H9 H 0.3090 0.5135 -0.1906
C9 C 0.10501(17) 0.64473(13) -0.16960(5)
H10 H 0.0137 0.6240 -0.2027
C10 C 0.06141(16) 0.74035(12) -0.12803(5)
H11 H -0.0603 0.7844 -0.1325
C11 C 0.19484(15) 0.77107(11) -0.08032(5)
H12 H 0.1633 0.8349 -0.0517
C12 C 0.37731(15) 0.70899(11) -0.07343(5)
C13 C 0.52479(15) 0.74702(11) -0.02510(5)
C14 C 0.52184(15) 0.82834(11) 0.02245(5)
C15 C 0.38130(15) 0.89245(10) 0.05531(5)
C16 C 0.39822(15) 0.97119(11) 0.15915(4)
C17 C 0.22050(15) 0.93158(11) 0.17160(5)
H13 H 0.1502 0.8589 0.1499
C18 C 0.14649(16) 0.99964(12) 0.21627(5)
H14 H 0.0243 0.9739 0.2249
C19 C 0.24999(17) 1.10478(12) 0.24822(5)
H15 H 0.1986 1.1508 0.2787
C20 C 0.42823(17) 1.14297(12) 0.23580(5)
H16 H 0.4994 1.2144 0.2580
C21 C 0.50272(15) 1.07698(11) 0.19093(5)
H17 H 0.6241 1.1038 0.1820
loop_
_geom_bond_atom_site_label_1
_geom_bond_atom_site_label_2
_geom_bond_site_symmetry_1
_geom_bond_site_symmetry_2
O1 C1 1_555 1_555
O2 C15 1_555 1_555
N1 C1 1_555 1_555
C1 C2 1_555 1_555
C2 H1 1_555 1_555
C3 C2 1_555 1_555
H2 C3 1_555 1_555
H3 C3 1_555 1_555
C4 C3 1_555 1_555
H4 C4 1_555 1_555
C5 C4 1_555 1_555
H5 C5 1_555 1_555
H6 C5 1_555 1_555
C6 C5 1_555 1_555
H7 C6 1_555 1_555
H8 C6 1_555 1_555
C7 C6 1_555 1_555
C8 C7 1_555 1_555
H9 C8 1_555 1_555
C9 C8 1_555 1_555
H10 C9 1_555 1_555
C10 C9 1_555 1_555
H11 C10 1_555 1_555
C11 C10 1_555 1_555
H12 C11 1_555 1_555
C12 C7 1_555 1_555
C13 C4 1_555 1_555
C14 C2 1_555 1_555
C15 N1 1_555 1_555
C16 N1 1_555 1_555
C17 C16 1_555 1_555
H13 C17 1_555 1_555
C18 C17 1_555 1_555
H14 C18 1_555 1_555
C19 C18 1_555 1_555
H15 C19 1_555 1_555
C20 C19 1_555 1_555
H16 C20 1_555 1_555
C21 C16 1_555 1_555
H17 C21 1_555 1_555
C11 C12 1_555 1_555
C12 C13 1_555 1_555
C13 C14 1_555 1_555
C14 C15 1_555 1_555
C20 C21 1_555 1_555

#END
