
#######################################################################
#
#                 Cambridge Crystallographic Data Centre
#                                CCDC 
#
#######################################################################
#
# If this CIF has been generated from an entry in the Cambridge 
# Structural Database, then it will include bibliographic, chemical, 
# crystal, experimental, refinement or atomic coordinate data resulting 
# from the CCDC's data processing and validation procedures.
#
#######################################################################

data_SUVBER
_chemical_formula_moiety         'C11 H13 N1 O1'
_chemical_name_systematic        
trans-3-Oxobicyclo(4.4.0)dec-4-enecarbonitrile
_symmetry_cell_setting           monoclinic
_symmetry_space_group_name_H-M   'P 21/n'
_symmetry_Int_Tables_number      14
_space_group_name_Hall           '-P 2yn'
loop_
_symmetry_equiv_pos_site_id
_symmetry_equiv_pos_as_xyz
1 x,y,z
2 1/2-x,1/2+y,1/2-z
3 -x,-y,-z
4 1/2+x,1/2-y,1/2+z
_cell_length_a                   6.7250(13)
_cell_length_b                   10.196(2)
_cell_length_c                   13.850(3)
_cell_angle_alpha                90
_cell_angle_beta                 94.03(3)
_cell_angle_gamma                90
_cell_volume                     947.32
_cell_formula_units_Z            4
loop_
_atom_site_label
_atom_site_type_symbol
_atom_site_fract_x
_atom_site_fract_y
_atom_site_fract_z
O1 O 0.2069(3) 0.11988(16) 0.23873(11)
N1 N 0.6425(3) 0.1929(2) 0.01601(15)
C1 C 0.2205(3) 0.4039(2) 0.09094(16)
H1 H 0.2351 0.4961 0.0984
C2 C 0.2327(3) 0.3300(2) 0.17013(16)
H2 H 0.2608 0.3705 0.2313
C3 C 0.2041(3) 0.1873(2) 0.16571(15)
C4 C 0.1616(3) 0.1281(2) 0.06687(15)
H3 H 0.0155 0.1230 0.0526
H4 H 0.2148 0.0375 0.0673
C5 C 0.1942(4) 0.1493(2) -0.11496(15)
H5 H 0.2441 0.0582 -0.1185
H6 H 0.0471 0.1468 -0.1253
C6 C 0.2788(4) 0.2306(2) -0.19452(16)
H7 H 0.2291 0.1954 -0.2583
H8 H 0.4259 0.2229 -0.1895
C7 C 0.2212(4) 0.3750(2) -0.18824(16)
H9 H 0.2906 0.4255 -0.2368
H10 H 0.0759 0.3841 -0.2039
C8 C 0.2743(3) 0.4321(2) -0.08824(16)
H11 H 0.2234 0.5230 -0.0856
H12 H 0.4211 0.4349 -0.0762
C9 C 0.1850(3) 0.3499(2) -0.00954(14)
H13 H 0.0374 0.3500 -0.0246
C10 C 0.2527(3) 0.2059(2) -0.01382(15)
C11 C 0.4728(3) 0.2000(2) 0.00317(16)
loop_
_geom_bond_atom_site_label_1
_geom_bond_atom_site_label_2
_geom_bond_site_symmetry_1
_geom_bond_site_symmetry_2
O1 C3 1_555 1_555
N1 C11 1_555 1_555
C1 H1 1_555 1_555
C2 C1 1_555 1_555
H2 C2 1_555 1_555
C3 C2 1_555 1_555
C4 C3 1_555 1_555
H3 C4 1_555 1_555
H4 C4 1_555 1_555
C5 H5 1_555 1_555
H6 C5 1_555 1_555
C6 C5 1_555 1_555
H7 C6 1_555 1_555
H8 C6 1_555 1_555
C7 C6 1_555 1_555
H9 C7 1_555 1_555
H10 C7 1_555 1_555
C8 C7 1_555 1_555
H11 C8 1_555 1_555
H12 C8 1_555 1_555
C9 C1 1_555 1_555
H13 C9 1_555 1_555
C10 C4 1_555 1_555
C11 C10 1_555 1_555
C5 C10 1_555 1_555
C8 C9 1_555 1_555
C9 C10 1_555 1_555

#END
