
#######################################################################
#
#                 Cambridge Crystallographic Data Centre
#                                CCDC 
#
#######################################################################
#
# If this CIF has been generated from an entry in the Cambridge 
# Structural Database, then it will include bibliographic, chemical, 
# crystal, experimental, refinement or atomic coordinate data resulting 
# from the CCDC's data processing and validation procedures.
#
#######################################################################

data_SUVBIV
_chemical_formula_moiety         'C10 H11 N1 O1'
_chemical_name_systematic        
trans-3-Oxobicyclo(4.3.0)non-4-enecarbonitrile
_symmetry_cell_setting           monoclinic
_symmetry_space_group_name_H-M   'P 21/c'
_symmetry_Int_Tables_number      14
_space_group_name_Hall           '-P 2ybc'
loop_
_symmetry_equiv_pos_site_id
_symmetry_equiv_pos_as_xyz
1 x,y,z
2 -x,1/2+y,1/2-z
3 -x,-y,-z
4 x,1/2-y,1/2+z
_cell_length_a                   6.7000(13)
_cell_length_b                   11.902(2)
_cell_length_c                   10.336(2)
_cell_angle_alpha                90
_cell_angle_beta                 90.32(3)
_cell_angle_gamma                90
_cell_volume                     824.215
_cell_formula_units_Z            4
loop_
_atom_site_label
_atom_site_type_symbol
_atom_site_fract_x
_atom_site_fract_y
_atom_site_fract_z
O1 O 0.1684(3) 0.68158(14) 0.45162(18)
N1 N 0.6842(3) 0.48771(15) 0.26314(19)
C1 C 0.2028(3) 0.58886(16) 0.1249(2)
H1 H 0.2063 0.6187 0.0397
C2 C 0.2031(3) 0.65834(16) 0.2264(2)
H2 H 0.2106 0.7370 0.2116
C3 C 0.1920(4) 0.61711(18) 0.3607(2)
C4 C 0.2058(4) 0.49109(17) 0.3841(2)
H3 H 0.2842 0.4770 0.4640
H4 H 0.0701 0.4603 0.3970
C5 C 0.2945(3) 0.30207(16) 0.2651(2)
H5 H 0.1651 0.2742 0.2979
H6 H 0.4036 0.2681 0.3168
C6 C 0.3183(4) 0.27421(17) 0.1201(2)
H7 H 0.2190 0.2172 0.0931
H8 H 0.4536 0.2443 0.1033
C7 C 0.2850(3) 0.38507(16) 0.0446(2)
H9 H 0.4126 0.4147 0.0109
H10 H 0.1913 0.3737 -0.0287
C8 C 0.1970(3) 0.46418(16) 0.1444(2)
H11 H 0.0535 0.4429 0.1543
C9 C 0.3038(3) 0.43106(15) 0.2713(2)
C10 C 0.5175(3) 0.46513(16) 0.2655(2)
loop_
_geom_bond_atom_site_label_1
_geom_bond_atom_site_label_2
_geom_bond_site_symmetry_1
_geom_bond_site_symmetry_2
O1 C3 1_555 1_555
N1 C10 1_555 1_555
C1 H1 1_555 1_555
C2 C1 1_555 1_555
H2 C2 1_555 1_555
C3 C2 1_555 1_555
C4 C3 1_555 1_555
H3 C4 1_555 1_555
H4 C4 1_555 1_555
C5 H5 1_555 1_555
H6 C5 1_555 1_555
C6 C5 1_555 1_555
H7 C6 1_555 1_555
H8 C6 1_555 1_555
C7 C6 1_555 1_555
H9 C7 1_555 1_555
H10 C7 1_555 1_555
C8 C1 1_555 1_555
H11 C8 1_555 1_555
C9 C4 1_555 1_555
C10 C9 1_555 1_555
C5 C9 1_555 1_555
C7 C8 1_555 1_555
C8 C9 1_555 1_555

#END
