
#######################################################################
#
#                 Cambridge Crystallographic Data Centre
#                                CCDC 
#
#######################################################################
#
# If this CIF has been generated from an entry in the Cambridge 
# Structural Database, then it will include bibliographic, chemical, 
# crystal, experimental, refinement or atomic coordinate data resulting 
# from the CCDC's data processing and validation procedures.
#
#######################################################################

data_SUVCET
_chemical_formula_moiety         'C15 H12 N2 O3'
_chemical_name_systematic        
6-benzyl-1-methyl-1H-pyrrolo[2,3-c]pyridine-4,5,7(6H)-trione
_symmetry_cell_setting           monoclinic
_symmetry_space_group_name_H-M   'P 21/c'
_symmetry_Int_Tables_number      14
_space_group_name_Hall           '-P 2ybc'
loop_
_symmetry_equiv_pos_site_id
_symmetry_equiv_pos_as_xyz
1 x,y,z
2 -x,1/2+y,1/2-z
3 -x,-y,-z
4 x,1/2-y,1/2+z
_cell_length_a                   10.519(6)
_cell_length_b                   14.773(7)
_cell_length_c                   8.352(4)
_cell_angle_alpha                90
_cell_angle_beta                 97.208(10)
_cell_angle_gamma                90
_cell_volume                     1287.62
_exptl_crystal_colour            yellow
_exptl_crystal_description       prism
_cell_formula_units_Z            4
loop_
_atom_site_label
_atom_site_type_symbol
_atom_site_fract_x
_atom_site_fract_y
_atom_site_fract_z
C1 C 0.8916(4) 0.2426(3) 0.5412(5)
H1 H 0.8042 0.2325 0.4883
H2 H 0.9190 0.3041 0.5177
H3 H 0.8935 0.2352 0.6581
C2 C 1.1074(4) 0.1732(3) 0.5303(4)
H4 H 1.1526 0.2130 0.6067
C3 C 1.1617(3) 0.1047(3) 0.4547(4)
H5 H 1.2496 0.0880 0.4682
C4 C 1.0615(3) 0.0631(2) 0.3519(4)
C5 C 1.0558(3) -0.0139(3) 0.2457(4)
C6 C 0.9233(3) -0.0343(2) 0.1493(4)
C7 C 0.8229(3) 0.0896(2) 0.2869(4)
C8 C 0.9497(3) 0.1089(2) 0.3712(4)
C9 C 0.6932(3) 0.0005(3) 0.0763(4)
H6 H 0.7080 -0.0231 -0.0307
H7 H 0.6446 0.0578 0.0590
C10 C 0.6145(3) -0.0669(3) 0.1572(4)
C11 C 0.6219(4) -0.1579(3) 0.1268(5)
H8 H 0.6773 -0.1788 0.0532
C12 C 0.5497(4) -0.2201(3) 0.2019(6)
H9 H 0.5577 -0.2831 0.1819
C13 C 0.4667(4) -0.1903(4) 0.3049(5)
H10 H 0.4159 -0.2326 0.3544
C14 C 0.4570(3) -0.0998(3) 0.3364(5)
H11 H 0.4004 -0.0795 0.4090
C15 C 0.5297(3) -0.0377(3) 0.2626(4)
H12 H 0.5217 0.0250 0.2839
N1 N 0.9783(3) 0.1769(2) 0.4807(3)
N2 N 0.8189(2) 0.01929(18) 0.1734(3)
O1 O 1.1445(2) -0.06375(17) 0.2248(3)
O2 O 0.9126(2) -0.09606(18) 0.0520(3)
O3 O 0.7263(2) 0.13041(16) 0.3077(3)
loop_
_geom_bond_atom_site_label_1
_geom_bond_atom_site_label_2
_geom_bond_site_symmetry_1
_geom_bond_site_symmetry_2
C1 H1 1_555 1_555
H2 C1 1_555 1_555
H3 C1 1_555 1_555
C2 H4 1_555 1_555
C3 C2 1_555 1_555
H5 C3 1_555 1_555
C4 C3 1_555 1_555
C5 C4 1_555 1_555
C6 C5 1_555 1_555
C7 C8 1_555 1_555
C8 C4 1_555 1_555
C9 H6 1_555 1_555
H7 C9 1_555 1_555
C10 C9 1_555 1_555
C11 C10 1_555 1_555
H8 C11 1_555 1_555
C12 C11 1_555 1_555
H9 C12 1_555 1_555
C13 C12 1_555 1_555
H10 C13 1_555 1_555
C14 C13 1_555 1_555
H11 C14 1_555 1_555
C15 C10 1_555 1_555
H12 C15 1_555 1_555
N1 C1 1_555 1_555
N2 C6 1_555 1_555
O1 C5 1_555 1_555
O2 C6 1_555 1_555
O3 C7 1_555 1_555
C2 N1 1_555 1_555
C7 N2 1_555 1_555
C8 N1 1_555 1_555
C9 N2 1_555 1_555
C14 C15 1_555 1_555

#END
