
#######################################################################
#
#                 Cambridge Crystallographic Data Centre
#                                CCDC 
#
#######################################################################
#
# If this CIF has been generated from an entry in the Cambridge 
# Structural Database, then it will include bibliographic, chemical, 
# crystal, experimental, refinement or atomic coordinate data resulting 
# from the CCDC's data processing and validation procedures.
#
#######################################################################

data_SUVGEX
_chemical_formula_moiety         'C48 H62 Br2 S5'
_chemical_name_systematic        
1,13-dibromo-4,5,9,10-tetraheptylthieno[3'',2'':4',5'][1]benzothieno[3',2':4,5]thieno[2,3-b]thieno[3,2-e][1]benzothiophene
_symmetry_cell_setting           triclinic
_symmetry_space_group_name_H-M   'P -1'
_symmetry_Int_Tables_number      2
_space_group_name_Hall           '-P 1'
loop_
_symmetry_equiv_pos_site_id
_symmetry_equiv_pos_as_xyz
1 x,y,z
2 -x,-y,-z
_cell_length_a                   9.9503(11)
_cell_length_b                   12.8178(15)
_cell_length_c                   18.659(2)
_cell_angle_alpha                86.056(3)
_cell_angle_beta                 78.703(3)
_cell_angle_gamma                80.682(3)
_cell_volume                     2301.2
_exptl_crystal_colour            colorless
_exptl_crystal_description       needle
_cell_formula_units_Z            2
loop_
_atom_site_label
_atom_site_type_symbol
_atom_site_fract_x
_atom_site_fract_y
_atom_site_fract_z
Br1 Br 0.86855(7) 0.26010(5) 0.20550(4)
C1 C 0.7717(7) 0.3765(5) 0.1642(3)
C2 C 0.7478(7) 0.3755(6) 0.0944(4)
H1 H 0.7986 0.3259 0.0597
S1 S 0.61721(18) 0.47252(16) 0.07554(9)
C3 C 0.5828(7) 0.5133(5) 0.1652(3)
C4 C 0.4666(7) 0.5877(5) 0.1948(4)
C5 C 0.4467(7) 0.6066(5) 0.2687(3)
C6 C 0.5480(7) 0.5579(5) 0.3078(3)
S2 S 0.53179(18) 0.57312(14) 0.40194(9)
C7 C 0.6932(6) 0.5009(5) 0.3994(3)
S3 S 0.77885(18) 0.46212(15) 0.47054(9)
C8 C 0.9190(6) 0.4093(6) 0.4070(4)
S4 S 1.07361(18) 0.33960(15) 0.42354(9)
C9 C 1.1374(7) 0.3369(5) 0.3290(3)
C10 C 1.2720(7) 0.2859(5) 0.3008(3)
C11 C 1.3181(7) 0.2941(5) 0.2260(3)
C12 C 1.2294(7) 0.3568(5) 0.1842(3)
S5 S 1.27760(18) 0.38185(15) 0.09060(9)
C13 C 1.1331(7) 0.4754(6) 0.0901(3)
H2 H 1.1125 0.5145 0.0474
C14 C 1.0511(7) 0.4875(5) 0.1577(3)
Br2 Br 0.91539(7) 0.60660(5) 0.17477(4)
C15 C 1.0980(6) 0.4135(5) 0.2125(3)
C16 C 1.0430(7) 0.3946(5) 0.2881(3)
C17 C 0.9080(7) 0.4256(5) 0.3347(3)
C18 C 0.7646(7) 0.4699(5) 0.3303(3)
C19 C 0.6718(6) 0.4927(5) 0.2783(3)
C20 C 0.6789(6) 0.4591(5) 0.2061(3)
C21 C 0.3740(8) 0.6430(6) 0.1449(4)
H3 H 0.2794 0.6632 0.1734
H4 H 0.3684 0.5941 0.1071
C22 C 0.4287(10) 0.7427(7) 0.1074(4)
H5 H 0.4433 0.7879 0.1453
H6 H 0.5197 0.7214 0.0755
C23 C 0.3299(12) 0.8074(8) 0.0616(5)
H7 H 0.3767 0.8645 0.0342
H8 H 0.3127 0.7607 0.0253
C24 C 0.1896(9) 0.8573(6) 0.1050(5)
H9 H 0.1323 0.8937 0.0702
H10 H 0.1410 0.8003 0.1313
C25 C 0.2008(7) 0.9360(7) 0.1599(5)
H11 H 0.2525 0.9916 0.1340
H12 H 0.2547 0.8991 0.1960
C26 C 0.0611(7) 0.9880(7) 0.2003(5)
H13 H 0.0045 0.9323 0.2206
H14 H 0.0123 1.0328 0.1651
C27 C 0.0721(11) 1.0555(8) 0.2620(5)
H15 H -0.0211 1.0839 0.2875
H16 H 0.1221 1.1140 0.2419
H17 H 0.1224 1.0121 0.2965
C28 C 0.3172(7) 0.6728(5) 0.3082(4)
H18 H 0.2841 0.7303 0.2747
H19 H 0.3386 0.7054 0.3504
C29 C 0.2032(7) 0.6038(5) 0.3351(4)
H20 H 0.1779 0.5758 0.2922
H21 H 0.2405 0.5427 0.3646
C30 C 0.0745(6) 0.6622(5) 0.3804(4)
H22 H 0.1029 0.6939 0.4209
H23 H 0.0149 0.6093 0.4027
C31 C -0.0145(6) 0.7490(6) 0.3437(4)
H24 H -0.0345 0.7214 0.2993
H25 H 0.0384 0.8084 0.3281
C32 C -0.1505(7) 0.7903(9) 0.3930(5)
H26 H -0.2018 0.7304 0.4099
H27 H -0.1304 0.8201 0.4366
C33 C -0.2419(9) 0.8745(7) 0.3557(6)
H28 H -0.1879 0.9316 0.3351
H29 H -0.3210 0.9057 0.3928
C34 C -0.2975(14) 0.8326(11) 0.2950(7)
H30 H -0.3527 0.8909 0.2720
H31 H -0.3558 0.7790 0.3155
H32 H -0.2199 0.8008 0.2584
C35 C 1.3616(7) 0.2299(6) 0.3524(4)
H33 H 1.4263 0.1709 0.3272
H34 H 1.3021 0.1994 0.3949
C36 C 1.4450(8) 0.3047(6) 0.3795(4)
H35 H 1.5096 0.3305 0.3372
H36 H 1.3804 0.3668 0.4007
C37 C 1.5275(10) 0.2537(8) 0.4365(5)
H37 H 1.5680 0.3091 0.4557
H38 H 1.4631 0.2252 0.4777
C38 C 1.6423(10) 0.1661(9) 0.4093(5)
H39 H 1.6979 0.1897 0.3628
H40 H 1.6020 0.1039 0.3995
C39 C 1.7354(11) 0.1348(14) 0.4650(7)
H41 H 1.8196 0.0878 0.4420
H42 H 1.7651 0.1992 0.4794
C40 C 1.6660(14) 0.0787(15) 0.5332(7)
H43 H 1.6306 0.0171 0.5186
H44 H 1.5855 0.1275 0.5581
C41 C 1.762(2) 0.0410(18) 0.5867(9)
H45 H 1.8436 -0.0056 0.5620
H46 H 1.7132 0.0020 0.6280
H47 H 1.7916 0.1021 0.6046
C42 C 1.4601(7) 0.2436(6) 0.1904(4)
H48 H 1.5238 0.2427 0.2251
H49 H 1.4931 0.2883 0.1472
C43 C 1.4694(7) 0.1313(5) 0.1660(4)
H50 H 1.4147 0.1323 0.1269
H51 H 1.4286 0.0872 0.2078
C44 C 1.6199(7) 0.0817(6) 0.1374(4)
H52 H 1.6649 0.1316 0.1013
H53 H 1.6706 0.0708 0.1787
C45 C 1.6319(6) -0.0243(5) 0.1016(4)
H54 H 1.5909 -0.0752 0.1385
H55 H 1.5772 -0.0141 0.0620
C46 C 1.7800(5) -0.0713(4) 0.0700(4)
H56 H 1.8248 -0.0171 0.0378
H57 H 1.8318 -0.0898 0.1105
C47 C 1.7902(6) -0.1691(5) 0.0267(5)
H58 H 1.7357 -0.1512 -0.0127
H59 H 1.7484 -0.2242 0.0594
C48 C 1.9380(6) -0.2139(6) -0.0070(5)
H60 H 1.9378 -0.2761 -0.0347
H61 H 1.9919 -0.2343 0.0317
H62 H 1.9799 -0.1601 -0.0400
H63? H 0.0140 0.8165 0.3532
H64? H 0.0142 0.7392 0.2904
C49? C -0.1718(6) 0.7668(13) 0.3594(9)
H65? H -0.2050 0.7874 0.4108
H66? H -0.2048 0.6995 0.3539
C50? C -0.2346(9) 0.8514(16) 0.3095(11)
H67? H -0.2083 0.8278 0.2586
H68? H -0.1951 0.9170 0.3116
C51? C -0.3915(10) 0.8760(17) 0.3295(12)
H69? H -0.4303 0.8097 0.3386
H70? H -0.4277 0.9167 0.2892
H71? H -0.4177 0.9174 0.3737
H72? H 1.6712 0.1842 0.3567
H73? H 1.5959 0.1030 0.4112
C52? C 1.7769(14) 0.125(3) 0.4356(9)
H74? H 1.8101 0.0521 0.4197
H75? H 1.8477 0.1696 0.4123
C53? C 1.763(3) 0.127(2) 0.5180(11)
H76? H 1.6636 0.1302 0.5409
H77? H 1.7947 0.1911 0.5306
C54? C 1.8448(18) 0.030(3) 0.5499(12)
H78? H 1.7870 0.0031 0.5936
H79? H 1.9275 0.0504 0.5631
H80? H 1.8729 -0.0245 0.5135
loop_
_geom_bond_atom_site_label_1
_geom_bond_atom_site_label_2
_geom_bond_site_symmetry_1
_geom_bond_site_symmetry_2
Br1 C1 1_555 1_555
C1 C2 1_555 1_555
C2 H1 1_555 1_555
S1 C2 1_555 1_555
C3 S1 1_555 1_555
C4 C3 1_555 1_555
C5 C4 1_555 1_555
C6 C5 1_555 1_555
S2 C6 1_555 1_555
C7 S2 1_555 1_555
S3 C7 1_555 1_555
C8 S3 1_555 1_555
S4 C8 1_555 1_555
C9 S4 1_555 1_555
C10 C9 1_555 1_555
C11 C10 1_555 1_555
C12 C11 1_555 1_555
S5 C12 1_555 1_555
C13 S5 1_555 1_555
H2 C13 1_555 1_555
C14 C13 1_555 1_555
Br2 C14 1_555 1_555
C15 C12 1_555 1_555
C16 C9 1_555 1_555
C17 C8 1_555 1_555
C18 C7 1_555 1_555
C19 C6 1_555 1_555
C20 C1 1_555 1_555
C21 C4 1_555 1_555
H3 C21 1_555 1_555
H4 C21 1_555 1_555
C22 C21 1_555 1_555
H5 C22 1_555 1_555
H6 C22 1_555 1_555
C23 C22 1_555 1_555
H7 C23 1_555 1_555
H8 C23 1_555 1_555
C24 C23 1_555 1_555
H9 C24 1_555 1_555
H10 C24 1_555 1_555
C25 C24 1_555 1_555
H11 C25 1_555 1_555
H12 C25 1_555 1_555
C26 C25 1_555 1_555
H13 C26 1_555 1_555
H14 C26 1_555 1_555
C27 C26 1_555 1_555
H15 C27 1_555 1_555
H16 C27 1_555 1_555
H17 C27 1_555 1_555
C28 C5 1_555 1_555
H18 C28 1_555 1_555
H19 C28 1_555 1_555
C29 C28 1_555 1_555
H20 C29 1_555 1_555
H21 C29 1_555 1_555
C30 C29 1_555 1_555
H22 C30 1_555 1_555
H23 C30 1_555 1_555
C31 C30 1_555 1_555
H24 C31 1_555 1_555
H25 C31 1_555 1_555
C32 C31 1_555 1_555
H26 C32 1_555 1_555
H27 C32 1_555 1_555
C33 C32 1_555 1_555
H28 C33 1_555 1_555
H29 C33 1_555 1_555
C34 C33 1_555 1_555
H30 C34 1_555 1_555
H31 C34 1_555 1_555
H32 C34 1_555 1_555
C35 C10 1_555 1_555
H33 C35 1_555 1_555
H34 C35 1_555 1_555
C36 C35 1_555 1_555
H35 C36 1_555 1_555
H36 C36 1_555 1_555
C37 C36 1_555 1_555
H37 C37 1_555 1_555
H38 C37 1_555 1_555
C38 C37 1_555 1_555
H39 C38 1_555 1_555
H40 C38 1_555 1_555
C39 C38 1_555 1_555
H41 C39 1_555 1_555
H42 C39 1_555 1_555
C40 C39 1_555 1_555
H43 C40 1_555 1_555
H44 C40 1_555 1_555
C41 C40 1_555 1_555
H45 C41 1_555 1_555
H46 C41 1_555 1_555
H47 C41 1_555 1_555
C42 C11 1_555 1_555
H48 C42 1_555 1_555
H49 C42 1_555 1_555
C43 C42 1_555 1_555
H50 C43 1_555 1_555
H51 C43 1_555 1_555
C44 C43 1_555 1_555
H52 C44 1_555 1_555
H53 C44 1_555 1_555
C45 C44 1_555 1_555
H54 C45 1_555 1_555
H55 C45 1_555 1_555
C46 C45 1_555 1_555
H56 C46 1_555 1_555
H57 C46 1_555 1_555
C47 C46 1_555 1_555
H58 C47 1_555 1_555
H59 C47 1_555 1_555
C48 C47 1_555 1_555
H60 C48 1_555 1_555
H61 C48 1_555 1_555
H62 C48 1_555 1_555
C3 C20 1_555 1_555
C14 C15 1_555 1_555
C15 C16 1_555 1_555
C16 C17 1_555 1_555
C17 C18 1_555 1_555
C18 C19 1_555 1_555
C19 C20 1_555 1_555

#END
