
#######################################################################
#
#                 Cambridge Crystallographic Data Centre
#                                CCDC 
#
#######################################################################
#
# If this CIF has been generated from an entry in the Cambridge 
# Structural Database, then it will include bibliographic, chemical, 
# crystal, experimental, refinement or atomic coordinate data resulting 
# from the CCDC's data processing and validation procedures.
#
#######################################################################

data_SUVGIB
_chemical_formula_moiety         'C24 H32 Br2 S2'
_chemical_name_systematic        
1,8-dibromo-4,5-diheptylthieno[3,2-e][1]benzothiophene
_symmetry_cell_setting           monoclinic
_symmetry_space_group_name_H-M   'P 21'
_symmetry_Int_Tables_number      4
_space_group_name_Hall           'P 2yb'
loop_
_symmetry_equiv_pos_site_id
_symmetry_equiv_pos_as_xyz
1 x,y,z
2 -x,1/2+y,-z
_cell_length_a                   14.6460(12)
_cell_length_b                   4.7274(4)
_cell_length_c                   18.0088(14)
_cell_angle_alpha                90
_cell_angle_beta                 104.994(2)
_cell_angle_gamma                90
_cell_volume                     1204.43
_exptl_crystal_colour            colorless
_exptl_crystal_description       needle
_cell_formula_units_Z            2
loop_
_atom_site_label
_atom_site_type_symbol
_atom_site_fract_x
_atom_site_fract_y
_atom_site_fract_z
Br1 Br 0.69429(3) 0.39526(11) 0.66233(2)
Br2 Br 0.91089(3) 0.60618(10) 0.66302(2)
S1 S 0.57311(6) 0.0800(2) 0.43116(5)
S2 S 0.88401(6) 0.97240(19) 0.43677(6)
C1 C 0.6720(2) 0.2985(8) 0.5577(2)
C2 C 0.6005(2) 0.1084(10) 0.5294(2)
H1 H 0.5696 0.0039 0.5609
C3 C 0.7113(2) 0.4225(7) 0.49904(19)
C4 C 0.6592(2) 0.3306(7) 0.4263(2)
C5 C 0.6699(2) 0.4311(8) 0.35394(19)
C6 C 0.7367(2) 0.6387(8) 0.3555(2)
C7 C 0.7875(2) 0.6164(9) 0.50019(18)
C8 C 0.7937(2) 0.7245(8) 0.4282(2)
C9 C 0.8660(2) 0.7297(8) 0.5600(2)
C10 C 0.9196(2) 0.9219(9) 0.5346(2)
H2 H 0.9715 1.0186 0.5674
C11 C 0.6032(2) 0.3195(8) 0.2810(2)
H3 H 0.5897 0.1178 0.2884
H4 H 0.6349 0.3305 0.2387
C12 C 0.5090(2) 0.4831(9) 0.2572(2)
H5 H 0.4893 0.5347 0.3041
H6 H 0.5191 0.6607 0.2313
C13 C 0.4291(3) 0.3143(9) 0.2033(2)
H7 H 0.4194 0.1374 0.2297
H8 H 0.3701 0.4260 0.1944
C14 C 0.4455(3) 0.2380(9) 0.1259(2)
H9 H 0.5053 0.1301 0.1343
H10 H 0.4528 0.4141 0.0982
C15 C 0.3657(3) 0.0634(10) 0.0760(2)
H11 H 0.3061 0.1717 0.0684
H12 H 0.3588 -0.1119 0.1041
C16 C 0.3785(3) -0.0183(11) -0.0028(2)
H13 H 0.3825 0.1563 -0.0322
H14 H 0.4391 -0.1209 0.0044
C17 C 0.2999(4) -0.2007(12) -0.0493(3)
H15 H 0.3123 -0.2456 -0.0989
H16 H 0.2397 -0.0988 -0.0579
H17 H 0.2963 -0.3763 -0.0212
C18 C 0.7563(2) 0.7648(8) 0.2834(2)
H18 H 0.7728 0.9671 0.2927
H19 H 0.6980 0.7540 0.2408
C19 C 0.8369(2) 0.6136(9) 0.2588(2)
H20 H 0.8913 0.5901 0.3043
H21 H 0.8153 0.4227 0.2393
C20 C 0.8693(3) 0.7739(9) 0.1968(2)
H22 H 0.8898 0.9657 0.2161
H23 H 0.8149 0.7953 0.1512
C21 C 0.9500(3) 0.6298(10) 0.1722(2)
H24 H 0.9286 0.4414 0.1506
H25 H 1.0035 0.6006 0.2181
C22 C 0.9850(4) 0.7997(15) 0.1123(4)
H26 H 1.0070 0.9872 0.1344
H27 H 0.9311 0.8315 0.0670
C23 C 1.0654(4) 0.6583(13) 0.0856(4)
H28 H 1.0458 0.4639 0.0681
H29 H 1.0755 0.7644 0.0410
C24 C 1.1561(4) 0.644(2) 0.1456(4)
H30 H 1.2039 0.5523 0.1245
H31 H 1.1474 0.5339 0.1894
H32 H 1.1769 0.8355 0.1626
H33? H 0.9937 0.5533 0.2194
H34? H 0.9226 0.4652 0.1402
C25? C 1.010(3) 0.788(9) 0.129(4)
H35? H 1.0283 0.9723 0.1546
H36? H 0.9710 0.8272 0.0763
C26? C 1.100(2) 0.629(9) 0.124(3)
H37? H 1.1209 0.7082 0.0802
H38? H 1.1499 0.6686 0.1713
C27? C 1.091(3) 0.321(8) 0.114(3)
H39? H 1.1419 0.2506 0.0926
H40? H 1.0297 0.2750 0.0788
H41? H 1.0958 0.2314 0.1639
loop_
_geom_bond_atom_site_label_1
_geom_bond_atom_site_label_2
_geom_bond_site_symmetry_1
_geom_bond_site_symmetry_2
Br1 C1 1_555 1_555
Br2 C9 1_555 1_555
S1 C2 1_555 1_555
S2 C8 1_555 1_555
C1 C2 1_555 1_555
C2 H1 1_555 1_555
C3 C1 1_555 1_555
C4 S1 1_555 1_555
C5 C4 1_555 1_555
C6 C5 1_555 1_555
C7 C3 1_555 1_555
C8 C6 1_555 1_555
C9 C7 1_555 1_555
C10 S2 1_555 1_555
H2 C10 1_555 1_555
C11 C5 1_555 1_555
H3 C11 1_555 1_555
H4 C11 1_555 1_555
C12 C11 1_555 1_555
H5 C12 1_555 1_555
H6 C12 1_555 1_555
C13 C12 1_555 1_555
H7 C13 1_555 1_555
H8 C13 1_555 1_555
C14 C13 1_555 1_555
H9 C14 1_555 1_555
H10 C14 1_555 1_555
C15 C14 1_555 1_555
H11 C15 1_555 1_555
H12 C15 1_555 1_555
C16 C15 1_555 1_555
H13 C16 1_555 1_555
H14 C16 1_555 1_555
C17 C16 1_555 1_555
H15 C17 1_555 1_555
H16 C17 1_555 1_555
H17 C17 1_555 1_555
C18 C6 1_555 1_555
H18 C18 1_555 1_555
H19 C18 1_555 1_555
C19 C18 1_555 1_555
H20 C19 1_555 1_555
H21 C19 1_555 1_555
C20 C19 1_555 1_555
H22 C20 1_555 1_555
H23 C20 1_555 1_555
C21 C20 1_555 1_555
H24 C21 1_555 1_555
H25 C21 1_555 1_555
C22 C21 1_555 1_555
H26 C22 1_555 1_555
H27 C22 1_555 1_555
C23 C22 1_555 1_555
H28 C23 1_555 1_555
H29 C23 1_555 1_555
C24 C23 1_555 1_555
H30 C24 1_555 1_555
H31 C24 1_555 1_555
H32 C24 1_555 1_555
C3 C4 1_555 1_555
C7 C8 1_555 1_555
C9 C10 1_555 1_555

#END
