
#######################################################################
#
#                 Cambridge Crystallographic Data Centre
#                                CCDC 
#
#######################################################################
#
# If this CIF has been generated from an entry in the Cambridge 
# Structural Database, then it will include bibliographic, chemical, 
# crystal, experimental, refinement or atomic coordinate data resulting 
# from the CCDC's data processing and validation procedures.
#
#######################################################################

data_SUVJUO
_chemical_formula_moiety         'C10 H9 N5 O2 S1'
_chemical_name_systematic        
3-Methyl-4-(4-nitrobenzylidenenitrilo)-4,5-dihydro-1H-1,2,4-triazole-5-thione
_chemical_properties_biological  'Staphylococcus aureus inhibitory activity'
_symmetry_cell_setting           monoclinic
_symmetry_space_group_name_H-M   'P 21/n'
_symmetry_Int_Tables_number      14
_space_group_name_Hall           '-P 2yn'
loop_
_symmetry_equiv_pos_site_id
_symmetry_equiv_pos_as_xyz
1 x,y,z
2 1/2-x,1/2+y,1/2-z
3 -x,-y,-z
4 1/2+x,1/2-y,1/2+z
_cell_length_a                   13.3256(5)
_cell_length_b                   6.9775(3)
_cell_length_c                   13.9402(6)
_cell_angle_alpha                90
_cell_angle_beta                 113.881(2)
_cell_angle_gamma                90
_cell_volume                     1185.19
_exptl_crystal_colour            yellow
_exptl_crystal_description       needle
_chemical_melting_point          223.6deg.C
_cell_formula_units_Z            4
loop_
_atom_site_label
_atom_site_type_symbol
_atom_site_fract_x
_atom_site_fract_y
_atom_site_fract_z
S1 S 0.94227(7) 0.8384(2) 0.07431(7)
O1 O 1.7077(2) 0.8216(6) 0.2939(3)
O2 O 1.6478(2) 0.9158(5) 0.1353(3)
N1 N 0.9163(2) 0.8762(4) 0.2547(2)
N2 N 0.9702(2) 0.9020(4) 0.3611(2)
N3 N 1.0839(2) 0.8893(3) 0.2825(2)
N4 N 1.1893(2) 0.8847(4) 0.2850(2)
N5 N 1.6340(3) 0.8725(5) 0.2134(3)
C1 C 0.9808(2) 0.8691(4) 0.2018(2)
C2 C 1.0734(2) 0.9079(5) 0.3770(2)
C3 C 1.1660(3) 0.9332(8) 0.4786(3)
C4 C 1.2024(2) 0.9014(5) 0.2008(3)
C5 C 1.3152(2) 0.8959(4) 0.2061(2)
C6 C 1.3314(3) 0.9180(5) 0.1145(3)
C7 C 1.4354(3) 0.9110(5) 0.1159(3)
C8 C 1.5220(2) 0.8815(5) 0.2103(3)
C9 C 1.5095(3) 0.8597(5) 0.3027(3)
C10 C 1.4049(2) 0.8665(5) 0.3005(3)
H1 H 1.393(3) 0.853(4) 0.365(3)
H2 H 1.146(3) 0.923(4) 0.136(3)
H3 H 1.271(3) 0.928(4) 0.051(2)
H4 H 1.142(4) 0.964(7) 0.533(4)
H5 H 1.446(3) 0.921(5) 0.054(3)
H6 H 1.214(4) 1.037(7) 0.479(3)
H7 H 1.214(4) 0.825(7) 0.498(4)
H8 H 1.563(3) 0.834(5) 0.363(3)
H9 H 0.844(3) 0.875(5) 0.228(3)
loop_
_geom_bond_atom_site_label_1
_geom_bond_atom_site_label_2
_geom_bond_site_symmetry_1
_geom_bond_site_symmetry_2
S1 C1 1_555 1_555
O1 N5 1_555 1_555
O2 N5 1_555 1_555
N1 N2 1_555 1_555
N2 C2 1_555 1_555
N3 N4 1_555 1_555
N4 C4 1_555 1_555
N5 C8 1_555 1_555
C1 N1 1_555 1_555
C2 N3 1_555 1_555
C3 C2 1_555 1_555
C4 C5 1_555 1_555
C5 C6 1_555 1_555
C6 C7 1_555 1_555
C7 C8 1_555 1_555
C8 C9 1_555 1_555
C9 C10 1_555 1_555
C10 C5 1_555 1_555
H1 C10 1_555 1_555
H2 C4 1_555 1_555
H3 C6 1_555 1_555
H4 C3 1_555 1_555
H5 C7 1_555 1_555
H6 C3 1_555 1_555
H7 C3 1_555 1_555
H8 C9 1_555 1_555
H9 N1 1_555 1_555
N3 C1 1_555 1_555

#END
