
#######################################################################
#
#                 Cambridge Crystallographic Data Centre
#                                CCDC 
#
#######################################################################
#
# If this CIF has been generated from an entry in the Cambridge 
# Structural Database, then it will include bibliographic, chemical, 
# crystal, experimental, refinement or atomic coordinate data resulting 
# from the CCDC's data processing and validation procedures.
#
#######################################################################

data_SUVLEC
_chemical_formula_moiety         'C20 H8 Br2 O2'
_chemical_name_systematic        2,8-dibromoindeno[1,2-b]fluorene-6,12-dione
_symmetry_cell_setting           monoclinic
_symmetry_space_group_name_H-M   'P 21/c'
_symmetry_Int_Tables_number      14
_space_group_name_Hall           '-P 2ybc'
loop_
_symmetry_equiv_pos_site_id
_symmetry_equiv_pos_as_xyz
1 x,y,z
2 -x,1/2+y,1/2-z
3 -x,-y,-z
4 x,1/2-y,1/2+z
_cell_length_a                   3.8828(3)
_cell_length_b                   13.5879(11)
_cell_length_c                   14.1314(13)
_cell_angle_alpha                90
_cell_angle_beta                 95.032(6)
_cell_angle_gamma                90
_cell_volume                     742.686
_exptl_crystal_colour            red
_exptl_crystal_description       block
_cell_formula_units_Z            2
loop_
_atom_site_label
_atom_site_type_symbol
_atom_site_fract_x
_atom_site_fract_y
_atom_site_fract_z
Br1 Br 0.18334(11) 1.00972(3) 0.65483(3)
C1 C 0.2531(8) 0.8744(3) 0.6303(3)
C2 C 0.3940(8) 0.8487(3) 0.5470(3)
H1 H 0.4583 0.8961 0.5045
C3 C 0.4343(8) 0.7500(3) 0.5301(3)
C4 C 0.3436(8) 0.6781(3) 0.5937(3)
C5 C 0.2115(8) 0.7058(3) 0.6770(3)
H2 H 0.1545 0.6587 0.7208
C6 C 0.1650(8) 0.8054(3) 0.6944(3)
H3 H 0.0734 0.8252 0.750
C7 C 0.4137(8) 0.5795(3) 0.5550(3)
C8 C 0.3629(10) 0.4860(3) 0.5891(3)
H4 H 0.2731 0.476 0.6473
C9 C 0.4508(8) 0.4077(3) 0.5335(3)
C10 C 0.5798(8) 0.7003(3) 0.4477(3)
O1 O 0.7013(7) 0.7387(2) 0.3810(2)
Br1B Br 0.81666(11) -0.00972(3) 0.34517(3)
C1B C 0.7469(8) 0.1256(3) 0.3697(3)
C2B C 0.6060(8) 0.1513(3) 0.4530(3)
H1B H 0.5417 0.1039 0.4955
C3B C 0.5657(8) 0.2500(3) 0.4699(3)
C4B C 0.6564(8) 0.3219(3) 0.4063(3)
C5B C 0.7885(8) 0.2942(3) 0.3230(3)
H2B H 0.8455 0.3413 0.2792
C6B C 0.8350(8) 0.1946(3) 0.3056(3)
H3B H 0.9266 0.1748 0.250
C7B C 0.5863(8) 0.4205(3) 0.4450(3)
C8B C 0.6371(10) 0.5140(3) 0.4109(3)
H4B H 0.7269 0.524 0.3527
C9B C 0.5492(8) 0.5923(3) 0.4665(3)
C10B C 0.4202(8) 0.2997(3) 0.5523(3)
O1B O 0.2987(7) 0.2613(2) 0.6190(2)
loop_
_geom_bond_atom_site_label_1
_geom_bond_atom_site_label_2
_geom_bond_site_symmetry_1
_geom_bond_site_symmetry_2
Br1 C1 1_555 1_555
C1 C2 1_555 1_555
C2 H1 1_555 1_555
C3 C2 1_555 1_555
C4 C3 1_555 1_555
C5 C4 1_555 1_555
H2 C5 1_555 1_555
C6 C1 1_555 1_555
H3 C6 1_555 1_555
C7 C4 1_555 1_555
C8 C7 1_555 1_555
H4 C8 1_555 1_555
C9 C8 1_555 1_555
C10 C3 1_555 1_555
O1 C10 1_555 1_555
Br1B C1B 1_555 1_555
C1B C2B 1_555 1_555
C2B H1B 1_555 1_555
C3B C2B 1_555 1_555
C4B C3B 1_555 1_555
C5B C4B 1_555 1_555
H2B C5B 1_555 1_555
C6B C1B 1_555 1_555
H3B C6B 1_555 1_555
C7B C9 1_555 1_555
C8B C7B 1_555 1_555
H4B C8B 1_555 1_555
C9B C7 1_555 1_555
C10B C9 1_555 1_555
O1B C10B 1_555 1_555
C5 C6 1_555 1_555
C10 C9B 1_555 1_555
C3B C10B 1_555 1_555
C4B C7B 1_555 1_555
C5B C6B 1_555 1_555
C8B C9B 1_555 1_555

#END
