
#######################################################################
#
#                 Cambridge Crystallographic Data Centre
#                                CCDC 
#
#######################################################################
#
# If this CIF has been generated from an entry in the Cambridge 
# Structural Database, then it will include bibliographic, chemical, 
# crystal, experimental, refinement or atomic coordinate data resulting 
# from the CCDC's data processing and validation procedures.
#
#######################################################################

data_SUVNUU
_chemical_formula_moiety         'C18 H15 N3 O6'
_chemical_name_systematic        
'7a-cyano-7-(4-nitrophenyl)-6-oxo-3,4,5,6,7,7a-hexahydrochromeno[2,3-b]aziren-1a(1H)-yl acetate'
_symmetry_cell_setting           monoclinic
_symmetry_space_group_name_H-M   'P 21/c'
_symmetry_Int_Tables_number      14
_space_group_name_Hall           '-P 2ybc'
loop_
_symmetry_equiv_pos_site_id
_symmetry_equiv_pos_as_xyz
1 x,y,z
2 -x,1/2+y,1/2-z
3 -x,-y,-z
4 x,1/2-y,1/2+z
_cell_length_a                   11.5192(8)
_cell_length_b                   14.4309(10)
_cell_length_c                   10.9492(8)
_cell_angle_alpha                90
_cell_angle_beta                 101.064(2)
_cell_angle_gamma                90
_cell_volume                     1786.28
_exptl_crystal_colour            colorless
_exptl_crystal_description       granular
_cell_formula_units_Z            4
loop_
_atom_site_label
_atom_site_type_symbol
_atom_site_fract_x
_atom_site_fract_y
_atom_site_fract_z
O1 O 0.73765(9) -0.02976(7) 0.26945(11)
O2 O 0.66387(14) 0.04060(13) 0.08826(17)
N1 N 0.93039(11) 0.02339(8) 0.36711(10)
O3 O 0.98508(11) 0.32778(7) 0.13411(10)
O4 O 0.76055(11) 0.12063(8) 0.32919(12)
N2 N 0.94250(16) -0.08132(10) 0.07814(13)
C1 C 0.81807(13) 0.04253(10) 0.29626(14)
C2 C 0.92031(12) 0.05032(9) 0.23322(12)
C3 C 0.96897(12) 0.14554(9) 0.20745(12)
H1 H 0.9708 0.1483 0.1184
C4 C 0.5796(2) -0.1036(2) 0.1360(3)
H2 H 0.5199 -0.0936 0.0631
H3 H 0.5429 -0.1115 0.2069
H4 H 0.6240 -0.1583 0.1249
C5 C 0.66015(17) -0.02273(14) 0.1562(2)
C6 C 1.09559(12) 0.15499(9) 0.27772(12)
C7 C 1.11952(14) 0.17849(11) 0.40273(14)
H5 H 1.0580 0.1953 0.4422
C8 C 1.23454(17) 0.17708(14) 0.46922(16)
H6 H 1.2511 0.1931 0.5531
C9 C 1.32394(16) 0.15155(14) 0.40876(19)
N3 N 1.44627(19) 0.1484(2) 0.4799(3)
O5 O 1.52198(18) 0.1127(3) 0.4309(3)
C10 C 1.18856(14) 0.13220(11) 0.21937(15)
H7 H 1.1729 0.1179 0.1350
C11 C 1.30414(16) 0.13038(13) 0.28441(19)
H8 H 1.3663 0.1153 0.2450
O6 O 1.4665(2) 0.1821(3) 0.5828(2)
C12 C 0.88440(12) 0.21993(9) 0.23374(12)
C13 C 0.90010(13) 0.31229(9) 0.18296(12)
C14 C 0.80592(16) 0.38387(11) 0.18786(18)
H9 H 0.7430 0.3768 0.1156
H10 H 0.8396 0.4452 0.1847
C15 C 0.75483(18) 0.37505(12) 0.3046(2)
H11 H 0.6913 0.4196 0.3022
H12 H 0.8156 0.3887 0.3768
C16 C 0.70746(15) 0.27748(12) 0.31601(19)
H13 H 0.6930 0.2685 0.3996
H14 H 0.6327 0.2705 0.2584
C17 C 0.79193(13) 0.20531(10) 0.28911(14)
C18 C 0.93231(13) -0.02294(9) 0.14592(12)
H15 H 0.9421(16) -0.0351(14) 0.3838(16)
loop_
_geom_bond_atom_site_label_1
_geom_bond_atom_site_label_2
_geom_bond_site_symmetry_1
_geom_bond_site_symmetry_2
O1 C1 1_555 1_555
O2 C5 1_555 1_555
N1 C1 1_555 1_555
O3 C13 1_555 1_555
O4 C1 1_555 1_555
N2 C18 1_555 1_555
C1 C2 1_555 1_555
C2 N1 1_555 1_555
C3 C2 1_555 1_555
H1 C3 1_555 1_555
C4 H2 1_555 1_555
H3 C4 1_555 1_555
H4 C4 1_555 1_555
C5 O1 1_555 1_555
C6 C3 1_555 1_555
C7 C6 1_555 1_555
H5 C7 1_555 1_555
C8 C7 1_555 1_555
H6 C8 1_555 1_555
C9 C8 1_555 1_555
N3 C9 1_555 1_555
O5 N3 1_555 1_555
C10 C6 1_555 1_555
H7 C10 1_555 1_555
C11 C9 1_555 1_555
H8 C11 1_555 1_555
O6 N3 1_555 1_555
C12 C3 1_555 1_555
C13 C12 1_555 1_555
C14 C13 1_555 1_555
H9 C14 1_555 1_555
H10 C14 1_555 1_555
C15 C14 1_555 1_555
H11 C15 1_555 1_555
H12 C15 1_555 1_555
C16 C15 1_555 1_555
H13 C16 1_555 1_555
H14 C16 1_555 1_555
C17 O4 1_555 1_555
C18 C2 1_555 1_555
H15 N1 1_555 1_555
C4 C5 1_555 1_555
C10 C11 1_555 1_555
C12 C17 1_555 1_555
C16 C17 1_555 1_555

#END
