
#######################################################################
#
#                 Cambridge Crystallographic Data Centre
#                                CCDC 
#
#######################################################################
#
# If this CIF has been generated from an entry in the Cambridge 
# Structural Database, then it will include bibliographic, chemical, 
# crystal, experimental, refinement or atomic coordinate data resulting 
# from the CCDC's data processing and validation procedures.
#
#######################################################################

data_SUVNEC01
_chemical_formula_moiety         'C20 H14 O2,C6 H14 N2'
_chemical_name_systematic        
"(R,R)-(-)-1,2-Diaminocyclohexane (S)-(-)-1,1'-bi-2-naphthol"
_symmetry_cell_setting           monoclinic
_symmetry_space_group_name_H-M   'P 21'
_symmetry_Int_Tables_number      4
_space_group_name_Hall           'P 2yb'
loop_
_symmetry_equiv_pos_site_id
_symmetry_equiv_pos_as_xyz
1 x,y,z
2 -x,1/2+y,-z
_cell_length_a                   8.052(2)
_cell_length_b                   13.549(3)
_cell_length_c                   10.821(2)
_cell_angle_alpha                90
_cell_angle_beta                 111.55(3)
_cell_angle_gamma                90
_cell_volume                     1098.01
_exptl_crystal_colour            colorless
_cell_formula_units_Z            2
loop_
_atom_site_label
_atom_site_type_symbol
_atom_site_fract_x
_atom_site_fract_y
_atom_site_fract_z
O1 O 0.4294(2) 0.2665 0.66660(17)
H1 H 0.397(5) 0.252(3) 0.738(4)
C1 C 0.5845(3) 0.4145(2) 0.7725(2)
C2 C 0.5048(3) 0.3556(2) 0.6628(2)
C3 C 0.4981(4) 0.3856(3) 0.5358(2)
H2 H 0.4461 0.3444 0.4630
C4 C 0.5667(3) 0.4742(2) 0.5189(2)
H3 H 0.5611 0.4927 0.4347
C5 C 0.7144(3) 0.6320(2) 0.6130(2)
H4 H 0.7075 0.6525 0.5293
C6 C 0.7895(3) 0.6923(2) 0.7191(3)
H5 H 0.8335 0.7537 0.7076
C7 C 0.8008(3) 0.6623(2) 0.8457(2)
H6 H 0.8531 0.7037 0.9182
C8 C 0.7356(3) 0.5726(2) 0.8636(2)
H7 H 0.7439 0.5540 0.9484
C9 C 0.6557(3) 0.5075(2) 0.7561(2)
C10 C 0.6465(3) 0.5383(2) 0.6280(2)
O2 O 0.8453(3) 0.2746(2) 0.9398(2)
H8 H 0.847(6) 0.300(3) 0.858(4)
C11 C 0.5928(3) 0.3820(2) 0.9065(2)
C12 C 0.7185(3) 0.3151(2) 0.9797(2)
C13 C 0.7214(4) 0.2838(3) 1.1059(3)
H9 H 0.8080 0.2391 1.1553
C14 C 0.6017(4) 0.3175(3) 1.1550(2)
H10 H 0.6059 0.2951 1.2373
C15 C 0.3399(5) 0.4219(3) 1.1327(3)
H11 H 0.3425 0.4013 1.2154
C16 C 0.2115(5) 0.4860(3) 1.0603(3)
H12 H 0.1266 0.5085 1.0931
C17 C 0.2067(5) 0.5182(3) 0.9368(4)
H13 H 0.1182 0.5619 0.8874
C18 C 0.3308(3) 0.4861(2) 0.8878(3)
H14 H 0.3264 0.5090 0.8056
C19 C 0.4662(3) 0.4186(2) 0.9593(2)
C20 C 0.4704(3) 0.3859(2) 1.0847(2)
N1 N -0.0469(5) 0.3148(2) 0.7258(4)
H15 H 0.049(7) 0.359(4) 0.753(5)
H16 H -0.127(7) 0.347(4) 0.668(5)
C21 C -0.0025(3) 0.2270(2) 0.6625(2)
H17 H 0.0654 0.2484 0.6084
C22 C -0.1735(4) 0.1770(3) 0.5726(3)
H18 H -0.2458 0.1598 0.6241
H19 H -0.2415 0.2226 0.5033
C23 C -0.1331(5) 0.0846(4) 0.5098(3)
H20 H -0.2443 0.0531 0.4556
H21 H -0.0696 0.1025 0.4523
C24 C -0.0222(5) 0.0132(3) 0.6137(4)
H22 H 0.0094 -0.0428 0.5709
H23 H -0.0911 -0.0110 0.6644
C25 C 0.1463(4) 0.0626(3) 0.7064(3)
H24 H 0.2101 0.0168 0.7767
H25 H 0.2227 0.0777 0.6573
C26 C 0.1111(3) 0.1563(2) 0.7679(2)
H26 H 0.0486 0.1399 0.8277
N2 N 0.2831(3) 0.2030(3) 0.8452(2)
H27 H 0.270(5) 0.246(3) 0.906(4)
H28 H 0.356(5) 0.157(3) 0.900(4)
loop_
_geom_bond_atom_site_label_1
_geom_bond_atom_site_label_2
_geom_bond_site_symmetry_1
_geom_bond_site_symmetry_2
O1 H1 1_555 1_555
C1 C2 1_555 1_555
C2 O1 1_555 1_555
C3 C2 1_555 1_555
H2 C3 1_555 1_555
C4 C3 1_555 1_555
H3 C4 1_555 1_555
C5 H4 1_555 1_555
C6 C5 1_555 1_555
H5 C6 1_555 1_555
C7 C6 1_555 1_555
H6 C7 1_555 1_555
C8 C7 1_555 1_555
H7 C8 1_555 1_555
C9 C1 1_555 1_555
C10 C4 1_555 1_555
O2 H8 1_555 1_555
C11 C1 1_555 1_555
C12 O2 1_555 1_555
C13 C12 1_555 1_555
H9 C13 1_555 1_555
C14 C13 1_555 1_555
H10 C14 1_555 1_555
C15 H11 1_555 1_555
C16 C15 1_555 1_555
H12 C16 1_555 1_555
C17 C16 1_555 1_555
H13 C17 1_555 1_555
C18 C17 1_555 1_555
H14 C18 1_555 1_555
C19 C11 1_555 1_555
C20 C14 1_555 1_555
N1 H15 1_555 1_555
H16 N1 1_555 1_555
C21 N1 1_555 1_555
H17 C21 1_555 1_555
C22 C21 1_555 1_555
H18 C22 1_555 1_555
H19 C22 1_555 1_555
C23 C22 1_555 1_555
H20 C23 1_555 1_555
H21 C23 1_555 1_555
C24 C23 1_555 1_555
H22 C24 1_555 1_555
H23 C24 1_555 1_555
C25 C24 1_555 1_555
H24 C25 1_555 1_555
H25 C25 1_555 1_555
C26 C21 1_555 1_555
H26 C26 1_555 1_555
N2 C26 1_555 1_555
H27 N2 1_555 1_555
H28 N2 1_555 1_555
C5 C10 1_555 1_555
C8 C9 1_555 1_555
C9 C10 1_555 1_555
C11 C12 1_555 1_555
C15 C20 1_555 1_555
C18 C19 1_555 1_555
C19 C20 1_555 1_555
C25 C26 1_555 1_555

#END
