
#######################################################################
#
#                 Cambridge Crystallographic Data Centre
#                                CCDC 
#
#######################################################################
#
# If this CIF has been generated from an entry in the Cambridge 
# Structural Database, then it will include bibliographic, chemical, 
# crystal, experimental, refinement or atomic coordinate data resulting 
# from the CCDC's data processing and validation procedures.
#
#######################################################################

data_SUVPIK
_chemical_formula_moiety         'C24 H19 N3 O6'
_chemical_name_systematic        
'7a-cyano-7-(4-nitrophenyl)-6-oxo-3,4,5,6,7,7a-hexahydrochromeno[2,3-b]aziren-1a(1H)-yl phenylacetate'
_symmetry_cell_setting           triclinic
_symmetry_space_group_name_H-M   'P -1'
_symmetry_Int_Tables_number      2
_space_group_name_Hall           '-P 1'
loop_
_symmetry_equiv_pos_site_id
_symmetry_equiv_pos_as_xyz
1 x,y,z
2 -x,-y,-z
_cell_length_a                   7.8756(12)
_cell_length_b                   12.1142(18)
_cell_length_c                   12.4328(19)
_cell_angle_alpha                86.913(7)
_cell_angle_beta                 76.478(7)
_cell_angle_gamma                73.204(7)
_cell_volume                     1103.97
_exptl_crystal_colour            colorless
_exptl_crystal_description       granular
_cell_formula_units_Z            2
loop_
_atom_site_label
_atom_site_type_symbol
_atom_site_fract_x
_atom_site_fract_y
_atom_site_fract_z
O1 O 0.10484(16) 0.18085(12) 0.30728(10)
O2 O 0.7999(4) -0.50771(17) 0.03026(18)
N1 N 0.3020(2) 0.01227(14) 0.20597(12)
O3 O 0.95319(15) -0.02788(11) 0.21693(11)
O4 O 0.36542(16) 0.19462(11) 0.19140(10)
O5 O 0.2108(2) 0.24402(14) 0.43756(13)
C1 C 0.2802(2) 0.11887(16) 0.25467(14)
C2 C 0.5914(2) -0.02028(14) 0.27571(12)
H1 H 0.6299 -0.0185 0.3449
C3 C 0.6631(2) -0.14359(14) 0.23198(13)
C4 C -0.2868(6) 0.4320(4) 0.7734(3)
H2 H -0.3250 0.4579 0.8466
C5 C -0.2968(7) 0.5079(3) 0.6886(3)
H3 H -0.3450 0.5865 0.7041
C6 C -0.2361(6) 0.4694(3) 0.5799(3)
H4 H -0.2421 0.5225 0.5230
C7 C -0.1678(3) 0.3548(2) 0.55515(17)
C8 C -0.1125(3) 0.3097(2) 0.43816(18)
H5 H -0.1413 0.3742 0.3894
H6 H -0.1850 0.2591 0.4311
C9 C 0.0853(3) 0.24513(16) 0.39990(15)
C10 C 0.3844(2) 0.01386(15) 0.30296(13)
C11 C 0.7011(3) -0.23293(18) 0.30486(16)
H7 H 0.6910 -0.2166 0.3787
C12 C 0.7538(4) -0.3459(2) 0.26858(19)
H8 H 0.7789 -0.4059 0.3177
C13 C 0.7690(3) -0.36907(16) 0.15958(17)
N2 N 0.8174(4) -0.48921(17) 0.12148(19)
C14 C -0.1581(5) 0.2803(2) 0.6412(2)
H9 H -0.1080 0.2017 0.6262
C15 C -0.2199(6) 0.3179(3) 0.7486(2)
H10 H -0.2160 0.2646 0.8054
O6 O 0.8691(5) -0.56548(17) 0.1828(2)
C16 C 0.7362(3) -0.28243(16) 0.08401(15)
H11 H 0.7499 -0.2995 0.0099
C17 C 0.6824(2) -0.16935(15) 0.12152(13)
H12 H 0.6589 -0.1097 0.0720
C18 C 0.6587(2) 0.06698(14) 0.19938(12)
C19 C 0.5510(2) 0.16269(15) 0.16401(14)
C20 C 0.6198(3) 0.25015(17) 0.09102(16)
H13 H 0.6170 0.3139 0.1361
H14 H 0.5407 0.2802 0.0406
C21 C 0.8119(3) 0.19819(19) 0.02546(16)
H15 H 0.8117 0.1444 -0.0295
H16 H 0.8595 0.2586 -0.0129
C22 C 0.9312(3) 0.13674(18) 0.10061(17)
H17 H 0.9481 0.1933 0.1463
H18 H 1.0498 0.0966 0.0560
C23 C 0.8555(2) 0.05098(14) 0.17481(13)
C24 C 0.2996(3) -0.02190(17) 0.41041(15)
N3 N 0.2407(3) -0.0511(2) 0.49575(16)
H19 H 0.214(3) -0.006(2) 0.2241(19)
loop_
_geom_bond_atom_site_label_1
_geom_bond_atom_site_label_2
_geom_bond_site_symmetry_1
_geom_bond_site_symmetry_2
O1 C1 1_555 1_555
O2 N2 1_555 1_555
N1 C1 1_555 1_555
O3 C23 1_555 1_555
O4 C1 1_555 1_555
O5 C9 1_555 1_555
C1 C10 1_555 1_555
C2 H1 1_555 1_555
C3 C2 1_555 1_555
C4 H2 1_555 1_555
C5 C4 1_555 1_555
H3 C5 1_555 1_555
C6 C5 1_555 1_555
H4 C6 1_555 1_555
C7 C6 1_555 1_555
C8 C7 1_555 1_555
H5 C8 1_555 1_555
H6 C8 1_555 1_555
C9 O1 1_555 1_555
C10 N1 1_555 1_555
C11 C3 1_555 1_555
H7 C11 1_555 1_555
C12 C11 1_555 1_555
H8 C12 1_555 1_555
C13 C12 1_555 1_555
N2 C13 1_555 1_555
C14 C7 1_555 1_555
H9 C14 1_555 1_555
C15 C4 1_555 1_555
H10 C15 1_555 1_555
O6 N2 1_555 1_555
C16 C13 1_555 1_555
H11 C16 1_555 1_555
C17 C3 1_555 1_555
H12 C17 1_555 1_555
C18 C2 1_555 1_555
C19 O4 1_555 1_555
C20 C19 1_555 1_555
H13 C20 1_555 1_555
H14 C20 1_555 1_555
C21 C20 1_555 1_555
H15 C21 1_555 1_555
H16 C21 1_555 1_555
C22 C21 1_555 1_555
H17 C22 1_555 1_555
H18 C22 1_555 1_555
C23 C18 1_555 1_555
C24 C10 1_555 1_555
N3 C24 1_555 1_555
H19 N1 1_555 1_555
C2 C10 1_555 1_555
C8 C9 1_555 1_555
C14 C15 1_555 1_555
C16 C17 1_555 1_555
C18 C19 1_555 1_555
C22 C23 1_555 1_555

#END
