
#######################################################################
#
#                 Cambridge Crystallographic Data Centre
#                                CCDC 
#
#######################################################################
#
# If this CIF has been generated from an entry in the Cambridge 
# Structural Database, then it will include bibliographic, chemical, 
# crystal, experimental, refinement or atomic coordinate data resulting 
# from the CCDC's data processing and validation procedures.
#
#######################################################################

data_SUVREG01
_chemical_formula_moiety         'C18 H21 N1 O4'
_chemical_name_systematic        
2-Hydroxy-3,4-dimethoxy-2-methyl-2,6,7,9,10,11-hexahydro-1H-indeno[1,7-cd]pyrrolo[1,2-a]azepin-1-one
_symmetry_cell_setting           monoclinic
_symmetry_space_group_name_H-M   'P 21/c'
_symmetry_Int_Tables_number      14
_space_group_name_Hall           '-P 2ybc'
loop_
_symmetry_equiv_pos_site_id
_symmetry_equiv_pos_as_xyz
1 x,y,z
2 -x,1/2+y,1/2-z
3 -x,-y,-z
4 x,1/2-y,1/2+z
_cell_length_a                   8.465(3)
_cell_length_b                   9.532(3)
_cell_length_c                   19.588(7)
_cell_angle_alpha                90
_cell_angle_beta                 101.510(6)
_cell_angle_gamma                90
_cell_volume                     1548.74
_cell_formula_units_Z            4
loop_
_atom_site_label
_atom_site_type_symbol
_atom_site_fract_x
_atom_site_fract_y
_atom_site_fract_z
O1 O 0.4883(2) 0.7261(2) 0.28880(10)
O2 O 0.3591(2) 0.92715(17) 0.35578(8)
O3 O 0.1813(2) 0.92296(17) 0.47737(9)
H1 H 0.1503 1.0019 0.4849
O4 O -0.1311(2) 0.80482(18) 0.48540(9)
N1 N -0.1693(2) 0.4065(2) 0.37992(10)
C1 C 0.3595(3) 0.6873(3) 0.31714(12)
C2 C 0.2915(3) 0.5563(3) 0.31302(13)
H2 H 0.3359 0.4859 0.2899
C3 C 0.1584(3) 0.5245(2) 0.34211(12)
C4 C 0.0920(3) 0.3785(3) 0.33956(14)
H3 H 0.1309 0.3338 0.3842
H4 H 0.1335 0.3256 0.3047
C5 C -0.0900(3) 0.3704(3) 0.32299(13)
H5 H -0.1297 0.4327 0.2842
H6 H -0.1211 0.2757 0.3079
C6 C -0.3018(3) 0.3193(3) 0.39219(15)
H7 H -0.2642 0.2258 0.4068
H8 H -0.3850 0.3119 0.3504
C7 C -0.3647(3) 0.3928(3) 0.44896(15)
H9 H -0.3400 0.3392 0.4919
H10 H -0.4806 0.4046 0.4360
C8 C -0.2816(3) 0.5339(3) 0.45819(14)
H11 H -0.3576 0.6088 0.4422
H12 H -0.2335 0.5501 0.5068
C9 C -0.1544(3) 0.5273(3) 0.41495(12)
C10 C -0.0435(3) 0.6315(2) 0.41128(12)
C11 C 0.0917(3) 0.6327(2) 0.37477(11)
C12 C 0.1632(3) 0.7659(2) 0.38022(11)
C13 C 0.2954(3) 0.7936(2) 0.35222(12)
C14 C -0.0468(3) 0.7657(2) 0.44416(12)
C15 C 0.0751(3) 0.8641(2) 0.41929(12)
C16 C -0.0164(3) 0.9766(3) 0.37220(14)
H13 H -0.0764 1.0336 0.3985
H14 H -0.0892 0.9329 0.3343
H15 H 0.0586 1.0343 0.3541
C17 C 0.5036(4) 0.9413(3) 0.40756(16)
H16 H 0.4885 0.8985 0.4502
H17 H 0.5282 1.0389 0.4155
H18 H 0.5909 0.8958 0.3918
C18 C 0.5612(4) 0.6222(3) 0.25483(16)
H19 H 0.5973 0.5469 0.2867
H20 H 0.6516 0.6616 0.2388
H21 H 0.4844 0.5870 0.2158
loop_
_geom_bond_atom_site_label_1
_geom_bond_atom_site_label_2
_geom_bond_site_symmetry_1
_geom_bond_site_symmetry_2
O1 C1 1_555 1_555
O2 C13 1_555 1_555
O3 H1 1_555 1_555
O4 C14 1_555 1_555
N1 C5 1_555 1_555
C1 C2 1_555 1_555
C2 H2 1_555 1_555
C3 C2 1_555 1_555
C4 C3 1_555 1_555
H3 C4 1_555 1_555
H4 C4 1_555 1_555
C5 C4 1_555 1_555
H5 C5 1_555 1_555
H6 C5 1_555 1_555
C6 N1 1_555 1_555
H7 C6 1_555 1_555
H8 C6 1_555 1_555
C7 C6 1_555 1_555
H9 C7 1_555 1_555
H10 C7 1_555 1_555
C8 C7 1_555 1_555
H11 C8 1_555 1_555
H12 C8 1_555 1_555
C9 N1 1_555 1_555
C10 C9 1_555 1_555
C11 C3 1_555 1_555
C12 C11 1_555 1_555
C13 C1 1_555 1_555
C14 C10 1_555 1_555
C15 O3 1_555 1_555
C16 C15 1_555 1_555
H13 C16 1_555 1_555
H14 C16 1_555 1_555
H15 C16 1_555 1_555
C17 O2 1_555 1_555
H16 C17 1_555 1_555
H17 C17 1_555 1_555
H18 C17 1_555 1_555
C18 O1 1_555 1_555
H19 C18 1_555 1_555
H20 C18 1_555 1_555
H21 C18 1_555 1_555
C8 C9 1_555 1_555
C10 C11 1_555 1_555
C12 C13 1_555 1_555
C12 C15 1_555 1_555
C14 C15 1_555 1_555

#END
