
#######################################################################
#
#                 Cambridge Crystallographic Data Centre
#                                CCDC 
#
#######################################################################
#
# If this CIF has been generated from an entry in the Cambridge 
# Structural Database, then it will include bibliographic, chemical, 
# crystal, experimental, refinement or atomic coordinate data resulting 
# from the CCDC's data processing and validation procedures.
#
#######################################################################

data_SUVTAF
_chemical_compound_source        
'Dongsha atoll soft coral Lobophytum sarcophytoides (Alcyoniidae)'
_chemical_name_common            'Sarcophytosterol monohydrate'
_chemical_formula_moiety         'C29 H48 O2,H2 O1'
_chemical_name_systematic        
'(20R,23R,24R)-23-Methylergosta-5,16-diene-3,20-diol monohydrate'
_chemical_properties_biological  
'Found to enhance the expression of the pro-inflammatory iNOS protein in LPS-stimulated RAW264.7 macrophage cells. Tested and found to be inactive for cytotoxicity against six cancer cell lines'
_symmetry_cell_setting           orthorhombic
_symmetry_space_group_name_H-M   'P 21 21 21'
_symmetry_Int_Tables_number      19
_space_group_name_Hall           'P 2ac 2ab'
loop_
_symmetry_equiv_pos_site_id
_symmetry_equiv_pos_as_xyz
1 x,y,z
2 1/2-x,-y,1/2+z
3 -x,1/2+y,1/2-z
4 1/2+x,1/2-y,-z
_cell_length_a                   6.641(5)
_cell_length_b                   17.573(13)
_cell_length_c                   23.399(11)
_cell_angle_alpha                90
_cell_angle_beta                 90
_cell_angle_gamma                90
_cell_volume                     2730.72
_exptl_crystal_colour            colorless
_exptl_crystal_description       prism
_chemical_melting_point          '121-125 deg.C'
_cell_formula_units_Z            4
_exptl_crystal_recrystallization_method 'ethyl acetate'
loop_
_atom_site_label
_atom_site_type_symbol
_atom_site_fract_x
_atom_site_fract_y
_atom_site_fract_z
O1 O 0.8322(5) 0.78416(17) 0.42623(13)
O2 O 0.4330(5) 0.40749(16) 0.05155(13)
C1 C 0.8055(6) 0.6428(3) 0.30456(17)
H1 H 0.8590 0.5916 0.3011
H2 H 0.8696 0.6738 0.2755
C2 C 0.8634(7) 0.6742(2) 0.36341(18)
H3 H 0.8110 0.6411 0.3931
H4 H 1.0089 0.6757 0.3670
C3 C 0.7795(7) 0.7526(2) 0.3708(2)
H5 H 0.8374 0.7854 0.3411
C4 C 0.5547(6) 0.7520(2) 0.36346(19)
H6 H 0.5047 0.8038 0.3659
H7 H 0.4948 0.7232 0.3945
C5 C 0.4889(6) 0.7176(2) 0.30689(17)
C6 C 0.3586(6) 0.7530(2) 0.27357(18)
H8 H 0.3143 0.8007 0.2853
C7 C 0.2765(6) 0.7232(2) 0.21885(17)
H9 H 0.3319 0.7525 0.1875
H10 H 0.1316 0.7300 0.2186
C8 C 0.3242(6) 0.6396(2) 0.20946(16)
H11 H 0.2334 0.6087 0.2329
C9 C 0.5428(6) 0.6236(2) 0.22746(16)
H12 H 0.6256 0.6608 0.2069
C10 C 0.5766(6) 0.6402(2) 0.29226(16)
C11 C 0.6196(6) 0.5449(2) 0.20884(16)
H13 H 0.5588 0.5067 0.2333
H14 H 0.7640 0.5430 0.2149
C12 C 0.5760(6) 0.5240(2) 0.14619(17)
H15 H 0.6545 0.5563 0.1210
H16 H 0.6148 0.4716 0.1392
C13 C 0.3521(5) 0.5341(2) 0.13353(16)
C14 C 0.2982(6) 0.6173(2) 0.14679(17)
C15 C 0.0938(6) 0.6282(2) 0.11740(19)
H17 H -0.0165 0.6109 0.1413
H18 H 0.0716 0.6809 0.1066
C16 C 0.1219(6) 0.5784(2) 0.06637(19)
H19 H 0.0417 0.5817 0.0339
C17 C 0.2719(5) 0.5289(2) 0.07171(17)
C18 C 0.2281(7) 0.4755(2) 0.16929(18)
H20 H 0.2781 0.4251 0.1622
H21 H 0.0889 0.4782 0.1585
H22 H 0.2412 0.4871 0.2092
C19 C 0.4721(7) 0.5809(2) 0.33046(18)
H23 H 0.4959 0.5930 0.3699
H24 H 0.5253 0.5313 0.3223
H25 H 0.3299 0.5813 0.3231
C20 C 0.3493(6) 0.4761(2) 0.02557(17)
C21 C 0.1851(7) 0.4511(2) -0.01604(19)
H26 H 0.2402 0.4155 -0.0429
H27 H 0.1343 0.4947 -0.0361
H28 H 0.0775 0.4274 0.0048
C22 C 0.5273(6) 0.5124(2) -0.00616(17)
H29 H 0.5757 0.4765 -0.0345
H30 H 0.6355 0.5206 0.0210
C23 C 0.4822(7) 0.5890(2) -0.03655(17)
H31 H 0.3508 0.6059 -0.0223
C24 C 0.4615(8) 0.5832(2) -0.10120(17)
H32 H 0.3711 0.5404 -0.1091
C25 C 0.3708(7) 0.6538(2) -0.13009(19)
H33 H 0.4755 0.6931 -0.1298
C26 C 0.1923(10) 0.6862(4) -0.0987(3)
H34 H 0.0863 0.6491 -0.0975
H35 H 0.1457 0.7310 -0.1181
H36 H 0.2313 0.6992 -0.0604
C27 C 0.3152(13) 0.6406(4) -0.1924(2)
H37 H 0.4275 0.6183 -0.2121
H38 H 0.2813 0.6883 -0.2099
H39 H 0.2017 0.6069 -0.1945
C28 C 0.6637(12) 0.5647(4) -0.1289(3)
H40 H 0.7423 0.6103 -0.1322
H41 H 0.6415 0.5436 -0.1662
H42 H 0.7346 0.5284 -0.1058
C29 C 0.6325(11) 0.6494(3) -0.0184(3)
H43 H 0.7638 0.6364 -0.0325
H44 H 0.6362 0.6523 0.0226
H45 H 0.5926 0.6978 -0.0337
H46 H 0.804(12) 0.748(4) 0.445(3)
H47 H 0.350(11) 0.373(4) 0.053(3)
O3 O 0.7274(7) 0.6859(3) 0.5180(2)
H48 H 0.631(11) 0.701(4) 0.529(3)
H49 H 0.794(12) 0.652(4) 0.522(3)
loop_
_geom_bond_atom_site_label_1
_geom_bond_atom_site_label_2
_geom_bond_site_symmetry_1
_geom_bond_site_symmetry_2
O1 C3 1_555 1_555
O2 C20 1_555 1_555
C1 H1 1_555 1_555
H2 C1 1_555 1_555
C2 C1 1_555 1_555
H3 C2 1_555 1_555
H4 C2 1_555 1_555
C3 C2 1_555 1_555
H5 C3 1_555 1_555
C4 C3 1_555 1_555
H6 C4 1_555 1_555
H7 C4 1_555 1_555
C5 C4 1_555 1_555
C6 C5 1_555 1_555
H8 C6 1_555 1_555
C7 C6 1_555 1_555
H9 C7 1_555 1_555
H10 C7 1_555 1_555
C8 C7 1_555 1_555
H11 C8 1_555 1_555
C9 C8 1_555 1_555
H12 C9 1_555 1_555
C10 C1 1_555 1_555
C11 C9 1_555 1_555
H13 C11 1_555 1_555
H14 C11 1_555 1_555
C12 C11 1_555 1_555
H15 C12 1_555 1_555
H16 C12 1_555 1_555
C13 C12 1_555 1_555
C14 C8 1_555 1_555
C15 C14 1_555 1_555
H17 C15 1_555 1_555
H18 C15 1_555 1_555
C16 C15 1_555 1_555
H19 C16 1_555 1_555
C17 C13 1_555 1_555
C18 C13 1_555 1_555
H20 C18 1_555 1_555
H21 C18 1_555 1_555
H22 C18 1_555 1_555
C19 C10 1_555 1_555
H23 C19 1_555 1_555
H24 C19 1_555 1_555
H25 C19 1_555 1_555
C20 C17 1_555 1_555
C21 C20 1_555 1_555
H26 C21 1_555 1_555
H27 C21 1_555 1_555
H28 C21 1_555 1_555
C22 C20 1_555 1_555
H29 C22 1_555 1_555
H30 C22 1_555 1_555
C23 C22 1_555 1_555
H31 C23 1_555 1_555
C24 C23 1_555 1_555
H32 C24 1_555 1_555
C25 C24 1_555 1_555
H33 C25 1_555 1_555
C26 C25 1_555 1_555
H34 C26 1_555 1_555
H35 C26 1_555 1_555
H36 C26 1_555 1_555
C27 C25 1_555 1_555
H37 C27 1_555 1_555
H38 C27 1_555 1_555
H39 C27 1_555 1_555
C28 C24 1_555 1_555
H40 C28 1_555 1_555
H41 C28 1_555 1_555
H42 C28 1_555 1_555
C29 C23 1_555 1_555
H43 C29 1_555 1_555
H44 C29 1_555 1_555
H45 C29 1_555 1_555
H46 O1 1_555 1_555
H47 O2 1_555 1_555
O3 H48 1_555 1_555
H49 O3 1_555 1_555
C5 C10 1_555 1_555
C9 C10 1_555 1_555
C13 C14 1_555 1_555
C16 C17 1_555 1_555

#END
