
#######################################################################
#
#                 Cambridge Crystallographic Data Centre
#                                CCDC 
#
#######################################################################
#
# If this CIF has been generated from an entry in the Cambridge 
# Structural Database, then it will include bibliographic, chemical, 
# crystal, experimental, refinement or atomic coordinate data resulting 
# from the CCDC's data processing and validation procedures.
#
#######################################################################

data_SUVVAH
_chemical_formula_moiety         'C25 H20 N2'
_chemical_name_systematic        
3-(2,4-Dimethylpenta-1,3-dien-3-yl)-4-phenylnaphthalene-1,2-dicarbonitrile
_symmetry_cell_setting           monoclinic
_symmetry_space_group_name_H-M   'P 21/n'
_symmetry_Int_Tables_number      14
_space_group_name_Hall           '-P 2yn'
loop_
_symmetry_equiv_pos_site_id
_symmetry_equiv_pos_as_xyz
1 x,y,z
2 1/2-x,1/2+y,1/2-z
3 -x,-y,-z
4 1/2+x,1/2-y,1/2+z
_cell_length_a                   14.9661(16)
_cell_length_b                   8.1905(9)
_cell_length_c                   16.7871(19)
_cell_angle_alpha                90
_cell_angle_beta                 109.339(2)
_cell_angle_gamma                90
_cell_volume                     1941.65
_exptl_crystal_colour            colorless
_exptl_crystal_description       prismatic
_chemical_melting_point          '142-144 deg.C'
_cell_formula_units_Z            4
loop_
_atom_site_label
_atom_site_type_symbol
_atom_site_fract_x
_atom_site_fract_y
_atom_site_fract_z
N1 N 1.01396(18) 0.4145(3) 0.83034(17)
N2 N 0.75097(17) 0.5676(3) 0.76706(16)
C1 C 0.91483(15) 0.3494(3) 0.92596(14)
C2 C 0.82247(15) 0.4024(3) 0.90425(14)
C3 C 0.76684(15) 0.3693(3) 0.95601(14)
C4 C 0.80604(15) 0.2781(3) 1.02926(14)
C5 C 0.90056(16) 0.2185(3) 1.05091(14)
C6 C 0.95698(16) 0.2590(3) 1.00035(15)
C7 C 1.05194(17) 0.2060(3) 1.02501(17)
H1 H 1.0893 0.2334 0.9924
C8 C 1.08907(19) 0.1153(4) 1.09591(18)
H2 H 1.1522 0.0831 1.1123
C9 C 1.03368(19) 0.0701(3) 1.14423(18)
H3 H 1.0596 0.0054 1.1918
C10 C 0.94180(18) 0.1193(3) 1.12281(16)
H4 H 0.9057 0.0874 1.1558
C11 C 0.75133(17) 0.2442(3) 1.08702(15)
C12 C 0.7772(2) 0.3170(4) 1.16566(17)
H5 H 0.8292 0.3865 1.1822
C13 C 0.7273(3) 0.2884(4) 1.2198(2)
H6 H 0.7456 0.3391 1.2723
C14 C 0.6529(3) 0.1884(4) 1.1975(2)
H7 H 0.6191 0.1703 1.2342
C15 C 0.6263(3) 0.1119(4) 1.1202(3)
H8 H 0.5749 0.0407 1.1051
C16 C 0.6751(2) 0.1400(3) 1.06494(19)
H9 H 0.6564 0.0885 1.0126
C17 C 0.96935(17) 0.3871(3) 0.87165(17)
C18 C 0.78172(17) 0.4942(3) 0.82773(17)
C19 C 0.66940(16) 0.4439(3) 0.93147(14)
C20 C 0.59307(17) 0.3578(4) 0.88430(16)
C21 C 0.5991(2) 0.2026(3) 0.8456(2)
H10 H 0.5803 0.2158 0.7855
H11 H 0.5578 0.1255 0.8589
H12 H 0.6630 0.1632 0.8666
C22 C 0.4949(2) 0.4229(7) 0.8675(3)
H13 H 0.4979 0.5225 0.8984
H14 H 0.4578 0.3440 0.8850
H15 H 0.4662 0.4439 0.8082
C23 C 0.6688(2) 0.6131(4) 0.95727(18)
C24 C 0.6372(4) 0.7361(5) 0.8997(3)
H16 H 0.6494 0.8443 0.9165
H17 H 0.6034 0.7115 0.8437
C25 C 0.7207(3) 0.6650(4) 1.0428(3)
H18 H 0.7831 0.6184 1.0603
H19 H 0.6880 0.6290 1.0801
H20 H 0.7254 0.7819 1.0447
loop_
_geom_bond_atom_site_label_1
_geom_bond_atom_site_label_2
_geom_bond_site_symmetry_1
_geom_bond_site_symmetry_2
N1 C17 1_555 1_555
N2 C18 1_555 1_555
C1 C2 1_555 1_555
C2 C3 1_555 1_555
C3 C4 1_555 1_555
C4 C5 1_555 1_555
C5 C6 1_555 1_555
C6 C1 1_555 1_555
C7 C6 1_555 1_555
H1 C7 1_555 1_555
C8 C7 1_555 1_555
H2 C8 1_555 1_555
C9 C8 1_555 1_555
H3 C9 1_555 1_555
C10 C5 1_555 1_555
H4 C10 1_555 1_555
C11 C4 1_555 1_555
C12 C11 1_555 1_555
H5 C12 1_555 1_555
C13 C12 1_555 1_555
H6 C13 1_555 1_555
C14 C13 1_555 1_555
H7 C14 1_555 1_555
C15 C14 1_555 1_555
H8 C15 1_555 1_555
C16 C11 1_555 1_555
H9 C16 1_555 1_555
C17 C1 1_555 1_555
C18 C2 1_555 1_555
C19 C3 1_555 1_555
C20 C19 1_555 1_555
C21 C20 1_555 1_555
H10 C21 1_555 1_555
H11 C21 1_555 1_555
H12 C21 1_555 1_555
C22 C20 1_555 1_555
H13 C22 1_555 1_555
H14 C22 1_555 1_555
H15 C22 1_555 1_555
C23 C19 1_555 1_555
C24 C23 1_555 1_555
H16 C24 1_555 1_555
H17 C24 1_555 1_555
C25 C23 1_555 1_555
H18 C25 1_555 1_555
H19 C25 1_555 1_555
H20 C25 1_555 1_555
C9 C10 1_555 1_555
C15 C16 1_555 1_555

#END
