
#######################################################################
#
#                 Cambridge Crystallographic Data Centre
#                                CCDC 
#
#######################################################################
#
# If this CIF has been generated from an entry in the Cambridge 
# Structural Database, then it will include bibliographic, chemical, 
# crystal, experimental, refinement or atomic coordinate data resulting 
# from the CCDC's data processing and validation procedures.
#
#######################################################################

data_SUVWUD
_chemical_formula_moiety         'C31 H18 Br2 N2 O4'
_chemical_name_systematic        
2-(1,3-bis(4-bromophenyl)-8b-hydroxy-4-oxo-4,8b-dihydroindeno[1,2-c]pyrazol-3a(1H)-yl)-1H-indene-1,3(2H)-dione
_symmetry_cell_setting           monoclinic
_symmetry_space_group_name_H-M   'P 21/c'
_symmetry_Int_Tables_number      14
_space_group_name_Hall           '-P 2ybc'
loop_
_symmetry_equiv_pos_site_id
_symmetry_equiv_pos_as_xyz
1 x,y,z
2 -x,1/2+y,1/2-z
3 -x,-y,-z
4 x,1/2-y,1/2+z
_cell_length_a                   14.759(3)
_cell_length_b                   11.832(2)
_cell_length_c                   19.609(4)
_cell_angle_alpha                90
_cell_angle_beta                 128.850(3)
_cell_angle_gamma                90
_cell_volume                     2666.81
_exptl_crystal_colour            yellow
_exptl_crystal_description       needle
_cell_formula_units_Z            4
_exptl_crystal_recrystallization_method ethanol
loop_
_atom_site_label
_atom_site_type_symbol
_atom_site_fract_x
_atom_site_fract_y
_atom_site_fract_z
Br1 Br 1.07561(10) 0.82900(9) 1.00368(8)
Br2 Br 0.86705(10) -0.18356(9) 0.67210(8)
O1 O 0.5604(5) 0.4930(4) 0.6956(3)
H1 H 0.5369 0.5379 0.7132
O2 O 0.5782(5) 0.1319(5) 0.7903(4)
O3 O 0.5746(5) 0.3179(5) 0.5581(4)
O4 O 0.3768(5) 0.3163(5) 0.6734(4)
N1 N 0.7552(6) 0.4366(6) 0.7867(4)
N2 N 0.8016(6) 0.3398(6) 0.7808(4)
C1 C 0.1683(10) 0.4778(9) 0.4126(7)
H2 H 0.0954 0.5115 0.3816
C2 C 0.2163(9) 0.4253(8) 0.4912(7)
H3 H 0.1759 0.4213 0.5131
C3 C 0.3250(8) 0.3790(7) 0.5364(6)
C4 C 0.3959(7) 0.3235(6) 0.6209(6)
C5 C 0.5047(6) 0.2754(6) 0.6392(5)
H4 H 0.4929 0.1936 0.6294
C6 C 0.6166(7) 0.2925(6) 0.7329(5)
C7 C 0.6412(7) 0.4189(7) 0.7640(6)
C8 C 0.8297(7) 0.5299(8) 0.8340(5)
C9 C 0.9470(8) 0.5127(7) 0.8887(6)
H5 H 0.9772 0.4418 0.8927
C10 C 1.0208(8) 0.6022(8) 0.9381(6)
H6 H 1.1007 0.5902 0.9765
C11 C 0.9780(8) 0.7081(7) 0.9315(6)
C12 C 0.8231(8) -0.0470(7) 0.6949(5)
C13 C 0.8788(8) 0.0526(8) 0.7074(6)
H7 H 0.9392 0.0541 0.7043
C14 C 0.8467(7) 0.1493(7) 0.7243(5)
H8 H 0.8855 0.2163 0.7328
C15 C 0.7568(7) 0.1497(7) 0.7289(5)
C16 C 0.6988(8) 0.0491(8) 0.7146(6)
H9 H 0.6380 0.0481 0.7171
C17 C 0.7306(9) -0.0508(7) 0.6964(6)
H10 H 0.6908 -0.1179 0.6856
C18 C 0.7277(7) 0.2570(7) 0.7485(5)
C19 C 0.7857(8) 0.6370(8) 0.8223(6)
H11 H 0.7062 0.6500 0.7806
C20 C 0.8602(8) 0.7253(7) 0.8727(6)
H12 H 0.8301 0.7970 0.8666
C21 C 0.6432(6) 0.4210(7) 0.8415(5)
C22 C 0.6272(6) 0.3147(8) 0.8607(5)
C23 C 0.6045(7) 0.2316(8) 0.7965(6)
C24 C 0.4991(8) 0.3249(7) 0.5640(6)
C25 C 0.3845(8) 0.3797(7) 0.5032(6)
C26 C 0.2279(10) 0.4806(8) 0.3800(6)
H13 H 0.1943 0.5160 0.3267
C27 C 0.3373(9) 0.4316(8) 0.4250(7)
H14 H 0.3772 0.4342 0.4027
C28 C 0.6236(7) 0.2937(8) 0.9297(6)
H15 H 0.6106 0.2216 0.9409
C29 C 0.6403(8) 0.3849(10) 0.9796(6)
H16 H 0.6400 0.3743 1.0265
C30 C 0.6575(7) 0.4920(10) 0.9618(6)
H17 H 0.6691 0.5519 0.9972
C31 C 0.6577(7) 0.5123(7) 0.8919(6)
H18 H 0.6674 0.5850 0.8794
loop_
_geom_bond_atom_site_label_1
_geom_bond_atom_site_label_2
_geom_bond_site_symmetry_1
_geom_bond_site_symmetry_2
Br1 C11 1_555 1_555
Br2 C12 1_555 1_555
O1 H1 1_555 1_555
O2 C23 1_555 1_555
O3 C24 1_555 1_555
O4 C4 1_555 1_555
N1 N2 1_555 1_555
N2 C18 1_555 1_555
C1 H2 1_555 1_555
C2 C1 1_555 1_555
H3 C2 1_555 1_555
C3 C2 1_555 1_555
C4 C3 1_555 1_555
C5 C4 1_555 1_555
H4 C5 1_555 1_555
C6 C5 1_555 1_555
C7 O1 1_555 1_555
C8 N1 1_555 1_555
C9 C8 1_555 1_555
H5 C9 1_555 1_555
C10 C9 1_555 1_555
H6 C10 1_555 1_555
C11 C10 1_555 1_555
C12 C13 1_555 1_555
C13 H7 1_555 1_555
C14 C13 1_555 1_555
H8 C14 1_555 1_555
C15 C14 1_555 1_555
C16 C15 1_555 1_555
H9 C16 1_555 1_555
C17 C12 1_555 1_555
H10 C17 1_555 1_555
C18 C6 1_555 1_555
C19 C8 1_555 1_555
H11 C19 1_555 1_555
C20 C11 1_555 1_555
H12 C20 1_555 1_555
C21 C7 1_555 1_555
C22 C21 1_555 1_555
C23 C6 1_555 1_555
C24 C5 1_555 1_555
C25 C3 1_555 1_555
C26 C1 1_555 1_555
H13 C26 1_555 1_555
C27 C25 1_555 1_555
H14 C27 1_555 1_555
C28 C22 1_555 1_555
H15 C28 1_555 1_555
C29 C28 1_555 1_555
H16 C29 1_555 1_555
C30 C29 1_555 1_555
H17 C30 1_555 1_555
C31 C21 1_555 1_555
H18 C31 1_555 1_555
N1 C7 1_555 1_555
C6 C7 1_555 1_555
C15 C18 1_555 1_555
C16 C17 1_555 1_555
C19 C20 1_555 1_555
C22 C23 1_555 1_555
C24 C25 1_555 1_555
C26 C27 1_555 1_555
C30 C31 1_555 1_555

#END
