
#######################################################################
#
#                 Cambridge Crystallographic Data Centre
#                                CCDC 
#
#######################################################################
#
# If this CIF has been generated from an entry in the Cambridge 
# Structural Database, then it will include bibliographic, chemical, 
# crystal, experimental, refinement or atomic coordinate data resulting 
# from the CCDC's data processing and validation procedures.
#
#######################################################################

data_SUVXUE
_chemical_formula_moiety         'C45 H40'
_chemical_name_systematic        
2,7-di-t-butyl-11-methyl-9,14-diphenyldibenzo[de,qr]tetracene
_symmetry_cell_setting           monoclinic
_symmetry_space_group_name_H-M   'P 21/n'
_symmetry_Int_Tables_number      14
_space_group_name_Hall           '-P 2yn'
loop_
_symmetry_equiv_pos_site_id
_symmetry_equiv_pos_as_xyz
1 x,y,z
2 1/2-x,1/2+y,1/2-z
3 -x,-y,-z
4 1/2+x,1/2-y,1/2+z
_cell_length_a                   15.5265(14)
_cell_length_b                   10.2258(9)
_cell_length_c                   20.7939(18)
_cell_angle_alpha                90
_cell_angle_beta                 98.997(2)
_cell_angle_gamma                90
_cell_volume                     3260.85
_exptl_crystal_colour            yellow
_exptl_crystal_description       Prism
_cell_formula_units_Z            4
loop_
_atom_site_label
_atom_site_type_symbol
_atom_site_fract_x
_atom_site_fract_y
_atom_site_fract_z
C1 C 0.6757(3) 0.1211(4) 0.0052(2)
H1 H 0.7096 0.1287 -0.0277
C2 C 0.5908(3) 0.1547(4) -0.00745(19)
H2 H 0.5673 0.1853 -0.0486
C3 C 0.5368(2) 0.1436(3) 0.04184(17)
C4 C 0.4511(2) 0.1885(3) 0.03141(18)
H3 H 0.4276 0.2196 -0.0096
C5 C 0.4000(2) 0.1883(3) 0.07977(17)
C6 C 0.4345(2) 0.1285(3) 0.13888(17)
H4 H 0.4000 0.1247 0.1716
C7 C 0.5176(2) 0.0745(3) 0.15119(16)
C8 C 0.5532(2) 0.0114(3) 0.21426(16)
C9 C 0.4998(2) -0.0394(3) 0.25577(17)
C10 C 0.5347(2) -0.0718(3) 0.32072(17)
C11 C 0.4834(3) -0.1233(4) 0.36568(19)
H5 H 0.4254 -0.1445 0.3510
C12 C 0.5168(3) -0.1429(4) 0.4300(2)
H6 H 0.4811 -0.1755 0.4582
C13 C 0.6031(3) -0.1146(4) 0.45315(19)
C14 C 0.6550(3) -0.0686(4) 0.41161(18)
H7 H 0.7129 -0.0499 0.4279
C15 C 0.6244(2) -0.0474(3) 0.34336(17)
C16 C 0.6803(2) -0.0107(3) 0.29839(17)
C17 C 0.6462(2) 0.0089(3) 0.23260(16)
C18 C 0.7009(2) 0.0190(3) 0.18038(17)
C19 C 0.7884(2) -0.0198(3) 0.18841(19)
H8 H 0.8133 -0.0535 0.2286
C20 C 0.8406(2) -0.0110(3) 0.1397(2)
C21 C 0.8036(3) 0.0392(4) 0.0810(2)
H9 H 0.8382 0.0507 0.0488
C22 C 0.7151(2) 0.0740(3) 0.06757(18)
C23 C 0.6624(2) 0.0601(3) 0.11713(17)
C24 C 0.5720(2) 0.0918(3) 0.10348(16)
C25 C 0.3108(3) 0.2573(4) 0.07237(19)
C26 C 0.2744(3) 0.2852(5) 0.0015(2)
H10 H 0.3116 0.3465 -0.0159
H11 H 0.2169 0.3214 -0.0014
H12 H 0.2719 0.2054 -0.0230
C27 C 0.3236(3) 0.3844(5) 0.1091(3)
H13 H 0.3557 0.3687 0.1517
H14 H 0.2679 0.4215 0.1129
H15 H 0.3556 0.4440 0.0861
C28 C 0.2433(3) 0.1714(6) 0.0986(3)
H16 H 0.2416 0.0869 0.0783
H17 H 0.1869 0.2117 0.0890
H18 H 0.2591 0.1618 0.1448
C29 C 0.4065(2) -0.0748(4) 0.23386(17)
C30 C 0.3380(3) -0.0114(4) 0.2560(2)
H19 H 0.3493 0.0579 0.2851
C31 C 0.2526(3) -0.0502(6) 0.2352(2)
H20 H 0.2070 -0.0055 0.2495
C32 C 0.2352(3) -0.1532(6) 0.1940(3)
H21 H 0.1779 -0.1794 0.1807
C33 C 0.3014(3) -0.2181(5) 0.1722(2)
H22 H 0.2892 -0.2886 0.1440
C34 C 0.3875(3) -0.1793(4) 0.19203(18)
H23 H 0.4325 -0.2241 0.1770
C35 C 0.6332(4) -0.1404(6) 0.5240(3)
H24 H 0.6938 -0.1179 0.5350
H25 H 0.6254 -0.2313 0.5331
H26 H 0.5996 -0.0884 0.5495
C36 C 0.7737(2) 0.0193(3) 0.32611(17)
C37 C 0.8310(3) -0.0773(4) 0.3544(2)
H27 H 0.8124 -0.1637 0.3550
C38 C 0.9148(3) -0.0451(4) 0.3812(2)
H28 H 0.9526 -0.1101 0.3999
C39 C 0.9435(3) 0.0813(4) 0.3808(2)
H29 H 1.0004 0.1022 0.3991
C40 C 0.8880(3) 0.1770(4) 0.3533(2)
H30 H 0.9070 0.2632 0.3531
C41 C 0.8043(2) 0.1457(3) 0.32594(18)
H31 H 0.7674 0.2114 0.3069
C42 C 0.9360(3) -0.0556(4) 0.1534(2)
C43 C 0.9811(3) -0.0356(7) 0.0933(3)
H32 H 1.0393 -0.0703 0.1019
H33 H 0.9835 0.0561 0.0839
H34 H 0.9488 -0.0802 0.0567
C44 C 0.9404(3) -0.1943(6) 0.1731(5)
H35 H 0.9156 -0.2045 0.2123
H36 H 1.0002 -0.2223 0.1807
H37 H 0.9083 -0.2464 0.1391
C45 C 0.9846(3) 0.0319(7) 0.2066(3)
H38 H 0.9601 0.0211 0.2459
H39 H 0.9790 0.1215 0.1929
H40 H 1.0451 0.0080 0.2145
loop_
_geom_bond_atom_site_label_1
_geom_bond_atom_site_label_2
_geom_bond_site_symmetry_1
_geom_bond_site_symmetry_2
C1 H1 1_555 1_555
C2 C1 1_555 1_555
H2 C2 1_555 1_555
C3 C2 1_555 1_555
C4 C3 1_555 1_555
H3 C4 1_555 1_555
C5 C4 1_555 1_555
C6 C5 1_555 1_555
H4 C6 1_555 1_555
C7 C6 1_555 1_555
C8 C7 1_555 1_555
C9 C8 1_555 1_555
C10 C9 1_555 1_555
C11 C10 1_555 1_555
H5 C11 1_555 1_555
C12 C11 1_555 1_555
H6 C12 1_555 1_555
C13 C12 1_555 1_555
C14 C13 1_555 1_555
H7 C14 1_555 1_555
C15 C10 1_555 1_555
C16 C15 1_555 1_555
C17 C8 1_555 1_555
C18 C17 1_555 1_555
C19 C18 1_555 1_555
H8 C19 1_555 1_555
C20 C19 1_555 1_555
C21 C20 1_555 1_555
H9 C21 1_555 1_555
C22 C1 1_555 1_555
C23 C18 1_555 1_555
C24 C3 1_555 1_555
C25 C5 1_555 1_555
C26 C25 1_555 1_555
H10 C26 1_555 1_555
H11 C26 1_555 1_555
H12 C26 1_555 1_555
C27 C25 1_555 1_555
H13 C27 1_555 1_555
H14 C27 1_555 1_555
H15 C27 1_555 1_555
C28 C25 1_555 1_555
H16 C28 1_555 1_555
H17 C28 1_555 1_555
H18 C28 1_555 1_555
C29 C9 1_555 1_555
C30 C29 1_555 1_555
H19 C30 1_555 1_555
C31 C30 1_555 1_555
H20 C31 1_555 1_555
C32 C31 1_555 1_555
H21 C32 1_555 1_555
C33 C32 1_555 1_555
H22 C33 1_555 1_555
C34 C29 1_555 1_555
H23 C34 1_555 1_555
C35 C13 1_555 1_555
H24 C35 1_555 1_555
H25 C35 1_555 1_555
H26 C35 1_555 1_555
C36 C16 1_555 1_555
C37 C36 1_555 1_555
H27 C37 1_555 1_555
C38 C37 1_555 1_555
H28 C38 1_555 1_555
C39 C38 1_555 1_555
H29 C39 1_555 1_555
C40 C39 1_555 1_555
H30 C40 1_555 1_555
C41 C36 1_555 1_555
H31 C41 1_555 1_555
C42 C20 1_555 1_555
C43 C42 1_555 1_555
H32 C43 1_555 1_555
H33 C43 1_555 1_555
H34 C43 1_555 1_555
C44 C42 1_555 1_555
H35 C44 1_555 1_555
H36 C44 1_555 1_555
H37 C44 1_555 1_555
C45 C42 1_555 1_555
H38 C45 1_555 1_555
H39 C45 1_555 1_555
H40 C45 1_555 1_555
C7 C24 1_555 1_555
C14 C15 1_555 1_555
C16 C17 1_555 1_555
C21 C22 1_555 1_555
C22 C23 1_555 1_555
C23 C24 1_555 1_555
C33 C34 1_555 1_555
C40 C41 1_555 1_555

#END
