
#######################################################################
#
#                 Cambridge Crystallographic Data Centre
#                                CCDC 
#
#######################################################################
#
# If this CIF has been generated from an entry in the Cambridge 
# Structural Database, then it will include bibliographic, chemical, 
# crystal, experimental, refinement or atomic coordinate data resulting 
# from the CCDC's data processing and validation procedures.
#
#######################################################################

data_SUVXUD
_chemical_formula_moiety         'C16 H16 F13 I1 O2'
_chemical_name_systematic        
'1-Ethyl-3-(iodomethyl)-4-(2,2,3,3,4,4,5,5,6,6,7,7,7-tridecafluoroheptyl)cyclopentanecarboxylic acid'
_symmetry_cell_setting           monoclinic
_symmetry_space_group_name_H-M   'P 21/c'
_symmetry_Int_Tables_number      14
_space_group_name_Hall           '-P 2ybc'
loop_
_symmetry_equiv_pos_site_id
_symmetry_equiv_pos_as_xyz
1 x,y,z
2 -x,1/2+y,1/2-z
3 -x,-y,-z
4 x,1/2-y,1/2+z
_cell_length_a                   20.812(6)
_cell_length_b                   5.7726(15)
_cell_length_c                   19.363(5)
_cell_angle_alpha                90
_cell_angle_beta                 113.475(4)
_cell_angle_gamma                90
_cell_volume                     2133.72
_exptl_crystal_colour            colorless
_exptl_crystal_description       prismatic
_cell_formula_units_Z            4
loop_
_atom_site_label
_atom_site_type_symbol
_atom_site_fract_x
_atom_site_fract_y
_atom_site_fract_z
I1 I 0.43683(2) 1.08546(10) 0.31441(2)
O1 O 0.42330(16) 0.8919(6) -0.0034(2)
O2 O 0.46102(17) 1.2534(6) 0.0164(2)
F1 F 0.25212(16) 0.6620(6) 0.1773(3)
F2 F 0.20269(19) 0.7334(6) 0.0610(2)
F3 F 0.16794(16) 1.0000(7) 0.2014(2)
F4 F 0.11490(15) 1.0291(5) 0.0826(2)
F5 F 0.13262(16) 0.5722(7) 0.2026(2)
F6 F 0.10150(18) 0.5318(5) 0.0850(2)
F7 F 0.03102(17) 0.9224(6) 0.1700(2)
F8 F -0.00471(16) 0.8204(6) 0.05424(18)
F9 F 0.01120(19) 0.4921(10) 0.2084(3)
F10 F -0.0150(2) 0.3711(6) 0.0949(3)
F11 F -0.09926(18) 0.7829(11) 0.1549(3)
F12 F -0.12717(18) 0.6513(8) 0.0475(2)
F13 F -0.1245(2) 0.4371(10) 0.1335(4)
C1 C 0.3634(2) 1.3480(7) 0.0779(3)
H1 H 0.4012 1.4528 0.0822
H2 H 0.3223 1.4377 0.0726
C2 C 0.3476(2) 1.1827(8) 0.0119(2)
C3 C 0.3078(2) 0.9891(8) 0.0314(3)
H3 H 0.3195 0.8405 0.0161
H4 H 0.2577 1.0130 0.0054
C4 C 0.3290(2) 0.9926(8) 0.1178(2)
H5 H 0.3508 0.8444 0.1392
C5 C 0.3846(2) 1.1863(8) 0.1451(2)
H6 H 0.4295 1.1168 0.1513
C6 C 0.3958(2) 1.3090(9) 0.2175(3)
H7 H 0.3515 1.3731 0.2141
H8 H 0.4280 1.4367 0.2242
C7 C 0.4150(2) 1.0964(9) 0.0087(2)
C8 C 0.3054(2) 1.2996(10) -0.0641(3)
H9 H 0.2643 1.3712 -0.0614
H10 H 0.3337 1.4222 -0.0718
C9 C 0.2815(3) 1.1388(11) -0.1327(3)
H11 H 0.3218 1.0794 -0.1393
H12 H 0.2527 1.2238 -0.1768
H13 H 0.2551 1.0125 -0.1250
C10 C 0.2669(2) 1.0366(7) 0.1393(3)
H14 H 0.2847 1.0821 0.1918
H15 H 0.2398 1.1652 0.1096
C11 C 0.2196(2) 0.8329(9) 0.1279(3)
C12 C 0.1513(2) 0.8854(8) 0.1376(3)
C13 C 0.1040(2) 0.6824(9) 0.1373(3)
C14 C 0.0285(2) 0.7450(9) 0.1253(3)
C15 C -0.0163(3) 0.5539(11) 0.1366(4)
C16 C -0.0923(3) 0.6105(13) 0.1186(4)
H16 H 0.496(2) 1.188(12) 0.017(4)
loop_
_geom_bond_atom_site_label_1
_geom_bond_atom_site_label_2
_geom_bond_site_symmetry_1
_geom_bond_site_symmetry_2
I1 C6 1_555 1_555
O1 C7 1_555 1_555
O2 C7 1_555 1_555
F1 C11 1_555 1_555
F2 C11 1_555 1_555
F3 C12 1_555 1_555
F4 C12 1_555 1_555
F5 C13 1_555 1_555
F6 C13 1_555 1_555
F7 C14 1_555 1_555
F8 C14 1_555 1_555
F9 C15 1_555 1_555
F10 C15 1_555 1_555
F11 C16 1_555 1_555
F12 C16 1_555 1_555
F13 C16 1_555 1_555
C1 H1 1_555 1_555
H2 C1 1_555 1_555
C2 C1 1_555 1_555
C3 C2 1_555 1_555
H3 C3 1_555 1_555
H4 C3 1_555 1_555
C4 C3 1_555 1_555
H5 C4 1_555 1_555
C5 C1 1_555 1_555
H6 C5 1_555 1_555
C6 C5 1_555 1_555
H7 C6 1_555 1_555
H8 C6 1_555 1_555
C7 C2 1_555 1_555
C8 C2 1_555 1_555
H9 C8 1_555 1_555
H10 C8 1_555 1_555
C9 C8 1_555 1_555
H11 C9 1_555 1_555
H12 C9 1_555 1_555
H13 C9 1_555 1_555
C10 C4 1_555 1_555
H14 C10 1_555 1_555
H15 C10 1_555 1_555
C11 C10 1_555 1_555
C12 C11 1_555 1_555
C13 C12 1_555 1_555
C14 C13 1_555 1_555
C15 C14 1_555 1_555
C16 C15 1_555 1_555
H16 O2 1_555 1_555
C4 C5 1_555 1_555

#END
