
#######################################################################
#
#                 Cambridge Crystallographic Data Centre
#                                CCDC 
#
#######################################################################
#
# If this CIF has been generated from an entry in the Cambridge 
# Structural Database, then it will include bibliographic, chemical, 
# crystal, experimental, refinement or atomic coordinate data resulting 
# from the CCDC's data processing and validation procedures.
#
#######################################################################

data_SUVYAK
_chemical_formula_moiety         'C16 H15 F13 O2'
_chemical_name_systematic        
1-Ethyl-6-(2,2,3,3,4,4,5,5,6,6,7,7,7-tridecafluoroheptyl)-3-oxabicyclo[3.2.1]octan-2-one
_symmetry_cell_setting           monoclinic
_symmetry_space_group_name_H-M   'C 2/c'
_symmetry_Int_Tables_number      15
_space_group_name_Hall           '-C 2yn'
loop_
_symmetry_equiv_pos_site_id
_symmetry_equiv_pos_as_xyz
1 x,y,z
2 -x,y,1/2-z
3 1/2+x,1/2+y,z
4 1/2-x,1/2+y,1/2-z
5 -x,-y,-z
6 x,-y,1/2+z
7 1/2-x,1/2-y,-z
8 1/2+x,1/2-y,1/2+z
_cell_length_a                   24.081(5)
_cell_length_b                   6.6612(14)
_cell_length_c                   24.813(5)
_cell_angle_alpha                90
_cell_angle_beta                 104.066(5)
_cell_angle_gamma                90
_cell_volume                     3860.87
_exptl_crystal_colour            colorless
_exptl_crystal_description       prismatic
_chemical_melting_point          '78 deg.C'
_cell_formula_units_Z            8
loop_
_atom_site_label
_atom_site_type_symbol
_atom_site_fract_x
_atom_site_fract_y
_atom_site_fract_z
O1 O 0.3136(2) 1.3036(7) 0.29113(18)
O2 O 0.2346(2) 1.3069(7) 0.22711(19)
F1 F 0.14257(19) 1.1519(6) 0.05050(19)
F2 F 0.20340(19) 1.0859(8) 0.00223(14)
F3 F 0.1338(3) 0.7291(11) 0.0620(3)
F4 F 0.18317(17) 0.7002(7) 0.00377(18)
F5 F 0.0530(2) 0.9307(10) -0.0068(2)
F6 F 0.1003(4) 0.9974(12) -0.0598(3)
F7 F 0.0756(3) 0.5070(7) -0.0268(2)
F8 F 0.1042(2) 0.6238(11) -0.0933(2)
F9 F -0.0258(3) 0.6701(15) -0.0615(3)
F10 F 0.0011(3) 0.8430(10) -0.1224(3)
F11 F 0.0010(4) 0.3332(11) -0.1147(4)
F12 F -0.0616(3) 0.5149(11) -0.1637(3)
F13 F 0.0156(4) 0.5147(16) -0.1758(4)
C1 C 0.2909(3) 1.3143(9) 0.2417(3)
C2 C 0.3240(2) 1.3250(9) 0.1976(2)
C3 C 0.3130(2) 1.1207(10) 0.1664(2)
H1 H 0.3002 1.0204 0.1890
H2 H 0.3476 1.0728 0.1572
C4 C 0.2654(3) 1.1654(9) 0.1125(2)
H3 H 0.2842 1.1955 0.0826
C5 C 0.2391(3) 1.3601(9) 0.1279(2)
H4 H 0.2171 1.4282 0.0945
C6 C 0.2036(3) 1.3386(11) 0.1710(3)
H5 H 0.1806 1.4590 0.1697
H6 H 0.1774 1.2271 0.1599
C7 C 0.2911(3) 1.4803(9) 0.1549(2)
H7 H 0.2811 1.5991 0.1731
H8 H 0.3129 1.5191 0.1285
C8 C 0.3872(3) 1.3723(12) 0.2189(3)
H9 H 0.4042 1.2698 0.2455
H10 H 0.4051 1.3626 0.1879
C9 C 0.4014(4) 1.5723(15) 0.2456(4)
H11 H 0.3700 1.6628 0.2325
H12 H 0.4351 1.6244 0.2362
H13 H 0.4084 1.5585 0.2851
C10 C 0.2262(3) 0.9856(9) 0.0949(2)
H14 H 0.2494 0.8711 0.0900
H15 H 0.2080 0.9534 0.1247
C11 C 0.1806(3) 1.0160(10) 0.0425(2)
C12 C 0.1471(3) 0.8253(10) 0.0206(2)
C13 C 0.0952(3) 0.8531(12) -0.0282(3)
C14 C 0.0682(3) 0.6624(12) -0.0584(3)
C15 C 0.0106(4) 0.6664(16) -0.0982(4)
C16 C -0.0122(5) 0.498(2) -0.1334(6)
F14? F 0.1071(15) 0.798(8) 0.0534(14)
F15? F 0.1189(16) 0.900(8) -0.0712(11)
F16? F 0.0254(14) 0.674(7) -0.0183(10)
F17? F 0.0510(16) 0.677(9) -0.1419(9)
F18? F -0.0613(13) 0.527(6) -0.1045(15)
loop_
_geom_bond_atom_site_label_1
_geom_bond_atom_site_label_2
_geom_bond_site_symmetry_1
_geom_bond_site_symmetry_2
O1 C1 1_555 1_555
O2 C1 1_555 1_555
F1 C11 1_555 1_555
F2 C11 1_555 1_555
F3 C12 1_555 1_555
F4 C12 1_555 1_555
F5 C13 1_555 1_555
F6 C13 1_555 1_555
F7 C14 1_555 1_555
F8 C14 1_555 1_555
F9 C15 1_555 1_555
F10 C15 1_555 1_555
F11 C16 1_555 1_555
F12 C16 1_555 1_555
F13 C16 1_555 1_555
C1 C2 1_555 1_555
C2 C3 1_555 1_555
C3 H1 1_555 1_555
H2 C3 1_555 1_555
C4 C3 1_555 1_555
H3 C4 1_555 1_555
C5 C4 1_555 1_555
H4 C5 1_555 1_555
C6 O2 1_555 1_555
H5 C6 1_555 1_555
H6 C6 1_555 1_555
C7 C2 1_555 1_555
H7 C7 1_555 1_555
H8 C7 1_555 1_555
C8 C2 1_555 1_555
H9 C8 1_555 1_555
H10 C8 1_555 1_555
C9 C8 1_555 1_555
H11 C9 1_555 1_555
H12 C9 1_555 1_555
H13 C9 1_555 1_555
C10 C4 1_555 1_555
H14 C10 1_555 1_555
H15 C10 1_555 1_555
C11 C10 1_555 1_555
C12 C11 1_555 1_555
C13 C12 1_555 1_555
C14 C13 1_555 1_555
C15 C14 1_555 1_555
C16 C15 1_555 1_555
C5 C6 1_555 1_555
C5 C7 1_555 1_555

#END
