
#######################################################################
#
#                 Cambridge Crystallographic Data Centre
#                                CCDC 
#
#######################################################################
#
# If this CIF has been generated from an entry in the Cambridge 
# Structural Database, then it will include bibliographic, chemical, 
# crystal, experimental, refinement or atomic coordinate data resulting 
# from the CCDC's data processing and validation procedures.
#
#######################################################################

data_SUWCUI
_chemical_formula_moiety         'C16 H13 N1 O2'
_chemical_name_systematic        (Z)-3-(p-Methoxy)benzylideneisoindolin-1-one
_symmetry_cell_setting           monoclinic
_symmetry_space_group_name_H-M   'P 21/n'
_symmetry_Int_Tables_number      14
_space_group_name_Hall           '-P 2yn'
loop_
_symmetry_equiv_pos_site_id
_symmetry_equiv_pos_as_xyz
1 x,y,z
2 1/2-x,1/2+y,1/2-z
3 -x,-y,-z
4 1/2+x,1/2-y,1/2+z
_cell_length_a                   13.130(9)
_cell_length_b                   5.149(2)
_cell_length_c                   18.166(3)
_cell_angle_alpha                90
_cell_angle_beta                 90.92(3)
_cell_angle_gamma                90
_cell_volume                     1227.98
_exptl_crystal_colour            colorless
_exptl_crystal_description       prism
_chemical_melting_point          473K
_cell_formula_units_Z            4
loop_
_atom_site_label
_atom_site_type_symbol
_atom_site_fract_x
_atom_site_fract_y
_atom_site_fract_z
N1 N 0.62849(9) 0.3302(3) 0.02221(7)
H1 H 0.6151 0.4539 -0.0082
O1 O 0.46548(8) 0.2612(3) 0.06282(7)
O2 O 0.94717(10) 0.9687(3) -0.21245(7)
C1 C 0.71378(11) 0.0308(3) 0.08985(8)
C2 C 0.78358(12) -0.1304(3) 0.12460(9)
H2 H 0.8526 -0.1206 0.1143
C3 C 0.74788(13) -0.3042(4) 0.17444(9)
H3 H 0.7935 -0.4149 0.1984
C4 C 0.64504(14) -0.3200(3) 0.19031(9)
H4 H 0.6230 -0.4417 0.2244
C5 C 0.57542(12) -0.1591(3) 0.15657(9)
H5 H 0.5065 -0.1685 0.1672
C6 C 0.61146(11) 0.0157(3) 0.10666(8)
C7 C 0.55668(11) 0.2105(3) 0.06314(9)
C8 C 0.72657(11) 0.2314(3) 0.03469(8)
C9 C 0.81502(11) 0.2922(3) 0.00380(9)
H6 H 0.8699 0.1954 0.0217
C10 C 0.84223(11) 0.4775(3) -0.05167(8)
C11 C 0.94003(13) 0.4609(4) -0.08021(10)
H7 H 0.9841 0.3330 -0.0626
C12 C 0.97230(13) 0.6259(4) -0.13272(10)
H8 H 1.0380 0.6111 -0.1506
C13 C 0.90806(12) 0.8162(3) -0.15988(9)
C14 C 0.81174(12) 0.8402(3) -0.13199(9)
H9 H 0.7684 0.9698 -0.1495
C15 C 0.77981(11) 0.6736(3) -0.07864(9)
H10 H 0.7147 0.6923 -0.0600
C16 C 0.8792(2) 1.1283(5) -0.25215(12)
H11 H 0.9134 1.2026 -0.2935
H12 H 0.8554 1.2648 -0.2208
H13 H 0.8223 1.0268 -0.2694
loop_
_geom_bond_atom_site_label_1
_geom_bond_atom_site_label_2
_geom_bond_site_symmetry_1
_geom_bond_site_symmetry_2
N1 H1 1_555 1_555
O1 C7 1_555 1_555
O2 C13 1_555 1_555
C1 C2 1_555 1_555
C2 H2 1_555 1_555
C3 C2 1_555 1_555
H3 C3 1_555 1_555
C4 C3 1_555 1_555
H4 C4 1_555 1_555
C5 C4 1_555 1_555
H5 C5 1_555 1_555
C6 C1 1_555 1_555
C7 N1 1_555 1_555
C8 N1 1_555 1_555
C9 C8 1_555 1_555
H6 C9 1_555 1_555
C10 C9 1_555 1_555
C11 C10 1_555 1_555
H7 C11 1_555 1_555
C12 C11 1_555 1_555
H8 C12 1_555 1_555
C13 C12 1_555 1_555
C14 C13 1_555 1_555
H9 C14 1_555 1_555
C15 C10 1_555 1_555
H10 C15 1_555 1_555
C16 O2 1_555 1_555
H11 C16 1_555 1_555
H12 C16 1_555 1_555
H13 C16 1_555 1_555
C1 C8 1_555 1_555
C5 C6 1_555 1_555
C6 C7 1_555 1_555
C14 C15 1_555 1_555

#END
