
#######################################################################
#
#                 Cambridge Crystallographic Data Centre
#                                CCDC 
#
#######################################################################
#
# If this CIF has been generated from an entry in the Cambridge 
# Structural Database, then it will include bibliographic, chemical, 
# crystal, experimental, refinement or atomic coordinate data resulting 
# from the CCDC's data processing and validation procedures.
#
#######################################################################

data_SUWCIW
_chemical_formula_moiety         'C14 H17 N3 O1 S2'
_chemical_name_systematic        
3-Ethyl-5-ethylthiolato-2-p-toluoylimino-1,3,4-thiadiazole
_symmetry_cell_setting           monoclinic
_symmetry_space_group_name_H-M   'P 21/n'
_symmetry_Int_Tables_number      14
_space_group_name_Hall           '-P 2yn'
loop_
_symmetry_equiv_pos_site_id
_symmetry_equiv_pos_as_xyz
1 x,y,z
2 1/2-x,1/2+y,1/2-z
3 -x,-y,-z
4 1/2+x,1/2-y,1/2+z
_cell_length_a                   13.000(4)
_cell_length_b                   10.4443(11)
_cell_length_c                   11.5084(11)
_cell_angle_alpha                90
_cell_angle_beta                 91.307(14)
_cell_angle_gamma                90
_cell_volume                     1562.16
_exptl_crystal_colour            colorless
_exptl_crystal_description       block
_chemical_melting_point          95-97deg.C
_cell_formula_units_Z            4
_exptl_crystal_recrystallization_method 'diethyl ether'
loop_
_atom_site_label
_atom_site_type_symbol
_atom_site_fract_x
_atom_site_fract_y
_atom_site_fract_z
S1 S 0.31347(6) 0.06015(9) 0.66611(7)
S2 S 0.12896(6) 0.23384(7) 0.67579(6)
N1 N 0.19048(17) 0.1296(2) 0.48523(19)
N2 N 0.10457(17) 0.2031(2) 0.45909(18)
N3 N -0.02563(17) 0.3303(2) 0.53075(18)
O1 O -0.02150(16) 0.3873(2) 0.72422(16)
C1 C 0.3000(4) -0.1491(4) 0.5141(4)
H1 H 0.228(3) -0.121(4) 0.485(3)
H2 H 0.333(3) -0.197(4) 0.455(4)
H3 H 0.292(3) -0.207(4) 0.578(4)
C2 C 0.3640(3) -0.0360(4) 0.5496(3)
H4 H 0.428(3) -0.064(3) 0.580(3)
H5 H 0.375(2) 0.021(3) 0.486(3)
C3 C 0.2108(2) 0.1375(3) 0.5956(2)
C4 C 0.0649(3) 0.2018(3) 0.3391(3)
H6 H 0.125(2) 0.189(3) 0.287(3)
H7 H 0.037(2) 0.286(3) 0.318(3)
C5 C -0.0129(4) 0.0982(5) 0.3222(4)
H8 H -0.031(4) 0.095(5) 0.241(4)
H9 H 0.018(4) 0.014(5) 0.341(4)
H10 H -0.069(4) 0.118(5) 0.370(4)
C6 C 0.0587(2) 0.2639(3) 0.5464(2)
C7 C -0.0632(2) 0.3901(3) 0.6269(2)
C8 C -0.1616(2) 0.4605(3) 0.6061(2)
C9 C -0.2038(2) 0.4752(3) 0.4950(3)
H11 H -0.170(2) 0.441(3) 0.436(3)
C10 C -0.2943(2) 0.5418(3) 0.4775(3)
H12 H -0.320(2) 0.552(3) 0.400(3)
C11 C -0.3453(2) 0.5968(3) 0.5686(3)
C12 C -0.3032(3) 0.5824(3) 0.6790(3)
H13 H -0.338(2) 0.623(3) 0.744(3)
C13 C -0.2134(3) 0.5142(3) 0.6975(3)
H14 H -0.188(2) 0.502(3) 0.773(3)
C14 C -0.4433(3) 0.6707(4) 0.5482(4)
H15 H -0.445(3) 0.726(4) 0.485(4)
H16 H -0.500(3) 0.620(4) 0.546(4)
H17 H -0.450(3) 0.733(4) 0.601(4)
loop_
_geom_bond_atom_site_label_1
_geom_bond_atom_site_label_2
_geom_bond_site_symmetry_1
_geom_bond_site_symmetry_2
S1 C2 1_555 1_555
S2 C3 1_555 1_555
N1 N2 1_555 1_555
N2 C4 1_555 1_555
N3 C6 1_555 1_555
O1 C7 1_555 1_555
C1 H1 1_555 1_555
H2 C1 1_555 1_555
H3 C1 1_555 1_555
C2 C1 1_555 1_555
H4 C2 1_555 1_555
H5 C2 1_555 1_555
C3 S1 1_555 1_555
C4 H6 1_555 1_555
H7 C4 1_555 1_555
C5 C4 1_555 1_555
H8 C5 1_555 1_555
H9 C5 1_555 1_555
H10 C5 1_555 1_555
C6 S2 1_555 1_555
C7 N3 1_555 1_555
C8 C7 1_555 1_555
C9 C8 1_555 1_555
H11 C9 1_555 1_555
C10 C9 1_555 1_555
H12 C10 1_555 1_555
C11 C10 1_555 1_555
C12 C11 1_555 1_555
H13 C12 1_555 1_555
C13 C8 1_555 1_555
H14 C13 1_555 1_555
C14 C11 1_555 1_555
H15 C14 1_555 1_555
H16 C14 1_555 1_555
H17 C14 1_555 1_555
N1 C3 1_555 1_555
N2 C6 1_555 1_555
C12 C13 1_555 1_555

#END
