
#######################################################################
#
#                 Cambridge Crystallographic Data Centre
#                                CCDC 
#
#######################################################################
#
# If this CIF has been generated from an entry in the Cambridge 
# Structural Database, then it will include bibliographic, chemical, 
# crystal, experimental, refinement or atomic coordinate data resulting 
# from the CCDC's data processing and validation procedures.
#
#######################################################################

data_SUWHIB
_chemical_formula_moiety         'C12 H13 N3 O1 S2'
_chemical_name_systematic        
5-Ethylthiolato-2-p-toluoylamino-1,3,4-thiadiazole
_symmetry_cell_setting           triclinic
_symmetry_space_group_name_H-M   'P -1'
_symmetry_Int_Tables_number      2
_space_group_name_Hall           '-P 1'
loop_
_symmetry_equiv_pos_site_id
_symmetry_equiv_pos_as_xyz
1 x,y,z
2 -x,-y,-z
_cell_length_a                   5.0568(9)
_cell_length_b                   11.6315(10)
_cell_length_c                   12.6381(13)
_cell_angle_alpha                65.317(8)
_cell_angle_beta                 80.247(14)
_cell_angle_gamma                80.442(12)
_cell_volume                     661.889
_exptl_crystal_colour            colorless
_exptl_crystal_description       'rectangular rod'
_chemical_melting_point          175-177deg.C
_cell_formula_units_Z            2
_exptl_crystal_recrystallization_method methanol
loop_
_atom_site_label
_atom_site_type_symbol
_atom_site_fract_x
_atom_site_fract_y
_atom_site_fract_z
S1 S 0.79894(18) -0.04335(9) 0.42712(7)
S2 S 0.41351(16) 0.11689(8) 0.25105(7)
O1 O 0.0594(5) 0.2802(2) 0.1230(2)
N1 N 0.7388(5) -0.0684(2) 0.2296(2)
N2 N 0.5936(5) -0.0185(2) 0.1329(2)
N3 N 0.2484(5) 0.1389(2) 0.0473(2)
H1 H 0.288(6) 0.113(3) -0.008(3)
C1 C 0.9169(11) -0.3006(4) 0.4726(5)
H2 H 1.054(10) -0.370(5) 0.475(4)
H3 H 0.805(10) -0.297(5) 0.421(4)
H4 H 0.818(10) -0.318(5) 0.547(4)
C2 C 1.0395(8) -0.1790(4) 0.4335(3)
H5 H 1.140(6) -0.153(3) 0.355(3)
H6 H 1.155(7) -0.184(3) 0.486(3)
C3 C 0.6643(6) -0.0080(3) 0.2970(2)
C4 C 0.4178(6) 0.0766(3) 0.1334(2)
C5 C 0.0711(6) 0.2420(3) 0.0460(3)
C6 C -0.1046(6) 0.3035(3) -0.0502(2)
C7 C -0.2214(8) 0.4263(3) -0.0714(3)
H7 H -0.188(7) 0.467(3) -0.028(3)
C8 C -0.3923(8) 0.4888(3) -0.1568(3)
H8 H -0.473(7) 0.574(3) -0.168(3)
C9 C -0.4589(6) 0.4297(3) -0.2215(3)
C10 C -0.3443(7) 0.3076(3) -0.1995(3)
H9 H -0.379(6) 0.264(3) -0.244(3)
C11 C -0.1656(6) 0.2447(3) -0.1159(3)
H10 H -0.100(6) 0.166(3) -0.104(3)
C12 C -0.6527(9) 0.4978(4) -0.3127(4)
H11 H -0.692(8) 0.579(4) -0.322(4)
H12 H -0.806(8) 0.446(4) -0.299(4)
H13 H -0.580(9) 0.501(4) -0.382(4)
loop_
_geom_bond_atom_site_label_1
_geom_bond_atom_site_label_2
_geom_bond_site_symmetry_1
_geom_bond_site_symmetry_2
S1 C2 1_555 1_555
S2 C3 1_555 1_555
O1 C5 1_555 1_555
N1 N2 1_555 1_555
N2 C4 1_555 1_555
N3 H1 1_555 1_555
C1 H2 1_555 1_555
H3 C1 1_555 1_555
H4 C1 1_555 1_555
C2 C1 1_555 1_555
H5 C2 1_555 1_555
H6 C2 1_555 1_555
C3 S1 1_555 1_555
C4 S2 1_555 1_555
C5 N3 1_555 1_555
C6 C5 1_555 1_555
C7 C6 1_555 1_555
H7 C7 1_555 1_555
C8 C7 1_555 1_555
H8 C8 1_555 1_555
C9 C8 1_555 1_555
C10 C9 1_555 1_555
H9 C10 1_555 1_555
C11 C6 1_555 1_555
H10 C11 1_555 1_555
C12 C9 1_555 1_555
H11 C12 1_555 1_555
H12 C12 1_555 1_555
H13 C12 1_555 1_555
N1 C3 1_555 1_555
N3 C4 1_555 1_555
C10 C11 1_555 1_555

#END
