
#######################################################################
#
#                 Cambridge Crystallographic Data Centre
#                                CCDC 
#
#######################################################################
#
# If this CIF has been generated from an entry in the Cambridge 
# Structural Database, then it will include bibliographic, chemical, 
# crystal, experimental, refinement or atomic coordinate data resulting 
# from the CCDC's data processing and validation procedures.
#
#######################################################################

data_SUWMUU
_chemical_formula_moiety         'C40 H40 N4 O6'
_chemical_name_systematic        
2,9-dibutyl-5,13-bis(morpholin-4-yl)isoquinolino[4',5',6':6,5,10]anthra[2,1,9-def]isoquinoline-1,3,8,10(2H,9H)-tetrone
_symmetry_cell_setting           monoclinic
_symmetry_space_group_name_H-M   'P 21/c'
_symmetry_Int_Tables_number      14
_space_group_name_Hall           '-P 2ybc'
loop_
_symmetry_equiv_pos_site_id
_symmetry_equiv_pos_as_xyz
1 x,y,z
2 -x,1/2+y,1/2-z
3 -x,-y,-z
4 x,1/2-y,1/2+z
_cell_length_a                   12.7735(2)
_cell_length_b                   8.38150(10)
_cell_length_c                   32.1723(5)
_cell_angle_alpha                90
_cell_angle_beta                 111.6840(10)
_cell_angle_gamma                90
_cell_volume                     3200.66
_exptl_crystal_colour            'dark blue'
_exptl_crystal_description       block
_cell_formula_units_Z            4
loop_
_atom_site_label
_atom_site_type_symbol
_atom_site_fract_x
_atom_site_fract_y
_atom_site_fract_z
O1 O 1.22735(9) 0.27370(15) 0.86182(3)
O2 O 1.09402(8) 0.39270(14) 0.97103(3)
O3 O 0.21048(9) 0.42826(17) 0.69951(4)
O4 O 0.37262(9) 0.57334(14) 0.60116(4)
O5 O 0.87809(9) 0.16925(14) 0.63115(3)
O6 O 0.51807(9) 0.58669(13) 0.93146(4)
N1 N 1.16119(10) 0.32994(15) 0.91687(4)
N2 N 0.29150(10) 0.50155(15) 0.65050(4)
N3 N 0.89306(10) 0.29060(15) 0.71578(4)
N4 N 0.67121(10) 0.47597(14) 0.89246(4)
C1 C 0.90762(12) 0.32085(17) 0.76046(5)
C2 C 1.01377(12) 0.29422(18) 0.79449(5)
H1 H 1.0740 0.2553 0.7867
C3 C 1.03180(12) 0.32340(17) 0.83854(5)
C4 C 0.95986(11) 0.39178(16) 0.89677(5)
C5 C 0.87139(12) 0.43254(16) 0.90939(5)
H2 H 0.8854 0.4534 0.9400
C6 C 0.76032(11) 0.44383(16) 0.87767(5)
C7 C 0.52691(12) 0.37949(17) 0.80442(5)
H3 H 0.5322 0.3535 0.8339
C8 C 0.42073(12) 0.38596(18) 0.77013(5)
H4 H 0.3557 0.3590 0.7763
C9 C 0.40951(12) 0.43109(17) 0.72751(5)
C10 C 0.49726(12) 0.50560(17) 0.67414(5)
C11 C 0.59329(12) 0.53417(17) 0.66526(5)
H5 H 0.5872 0.5787 0.6373
C12 C 0.69931(12) 0.49826(17) 0.69701(5)
H6 H 0.7643 0.5139 0.6898
C13 C 0.71186(11) 0.43989(16) 0.73914(5)
C14 C 0.81861(11) 0.38175(16) 0.77200(4)
C15 C 0.83273(11) 0.39034(16) 0.81821(5)
C16 C 0.94174(11) 0.36904(16) 0.85134(5)
C17 C 0.73884(11) 0.41828(16) 0.83181(4)
C18 C 0.62527(11) 0.41017(16) 0.79651(5)
C19 C 0.61539(12) 0.43529(16) 0.75137(5)
C20 C 0.50700(12) 0.45710(16) 0.71749(5)
C21 C 1.14747(12) 0.30638(18) 0.87236(5)
C22 C 1.07437(12) 0.37307(17) 0.93138(5)
C23 C 0.29634(12) 0.45183(19) 0.69263(5)
C24 C 0.38509(13) 0.53050(17) 0.63897(5)
C25 C 0.99420(12) 0.2685(2) 0.70517(5)
H7 H 1.0274 0.1621 0.7154
H8 H 1.0510 0.3506 0.7206
C26 C 0.96146(13) 0.2826(2) 0.65500(5)
H9 H 0.9324 0.3915 0.6454
H10 H 1.0292 0.2670 0.6475
C27 C 0.77984(13) 0.1888(2) 0.64159(5)
H11 H 0.7233 0.1076 0.6253
H12 H 0.7469 0.2954 0.6315
C28 C 0.80661(12) 0.17231(18) 0.69157(5)
H13 H 0.7375 0.1901 0.6981
H14 H 0.8346 0.0633 0.7015
C29 C 0.68769(12) 0.43740(19) 0.93889(5)
H15 H 0.7366 0.5183 0.9594
H16 H 0.7242 0.3317 0.9471
C30 C 0.57245(12) 0.43568(18) 0.94278(5)
H17 H 0.5248 0.3530 0.9226
H18 H 0.5813 0.4077 0.9738
C31 C 0.50312(13) 0.62725(19) 0.88667(5)
H19 H 0.4669 0.7334 0.8794
H20 H 0.4523 0.5485 0.8660
C32 C 0.61438(12) 0.63053(18) 0.87967(5)
H21 H 0.6006 0.6530 0.8479
H22 H 0.6629 0.7163 0.8981
C33 C 1.27646(12) 0.32461(19) 0.95126(5)
H23 H 1.2847 0.4116 0.9731
H24 H 1.3313 0.3444 0.9367
C34 C 1.30482(13) 0.1673(2) 0.97618(5)
H25 H 1.2435 0.1396 0.9868
H26 H 1.3747 0.1809 1.0029
C35 C 1.32117(15) 0.0292(2) 0.94842(5)
H27 H 1.2496 0.0098 0.9230
H28 H 1.3787 0.0594 0.9360
C36 C 1.35769(16) -0.1242(2) 0.97516(7)
H29 H 1.4263 -0.1044 1.0014
H30 H 1.3726 -0.2062 0.9564
H31 H 1.2977 -0.1607 0.9850
C37 C 0.17916(12) 0.53355(18) 0.61642(5)
H32 H 0.1853 0.6240 0.5977
H33 H 0.1284 0.5670 0.6318
C38 C 0.12575(12) 0.39396(18) 0.58611(5)
H34 H 0.1264 0.2987 0.6044
H35 H 0.1695 0.3690 0.5671
C39 C 0.00464(12) 0.43545(19) 0.55659(5)
H36 H -0.0361 0.4705 0.5758
H37 H 0.0054 0.5259 0.5369
C40 C -0.05847(14) 0.2970(2) 0.52786(6)
H38 H -0.0733 0.2157 0.5469
H39 H -0.0128 0.2506 0.5122
H40 H -0.1300 0.3353 0.5059
loop_
_geom_bond_atom_site_label_1
_geom_bond_atom_site_label_2
_geom_bond_site_symmetry_1
_geom_bond_site_symmetry_2
O1 C21 1_555 1_555
O2 C22 1_555 1_555
O3 C23 1_555 1_555
O4 C24 1_555 1_555
O5 C26 1_555 1_555
O6 C30 1_555 1_555
N1 C21 1_555 1_555
N2 C23 1_555 1_555
N3 C1 1_555 1_555
N4 C6 1_555 1_555
C1 C2 1_555 1_555
C2 H1 1_555 1_555
C3 C2 1_555 1_555
C4 C5 1_555 1_555
C5 H2 1_555 1_555
C6 C5 1_555 1_555
C7 H3 1_555 1_555
C8 C7 1_555 1_555
H4 C8 1_555 1_555
C9 C8 1_555 1_555
C10 C11 1_555 1_555
C11 H5 1_555 1_555
C12 C11 1_555 1_555
H6 C12 1_555 1_555
C13 C12 1_555 1_555
C14 C1 1_555 1_555
C15 C14 1_555 1_555
C16 C3 1_555 1_555
C17 C6 1_555 1_555
C18 C7 1_555 1_555
C19 C13 1_555 1_555
C20 C9 1_555 1_555
C21 C3 1_555 1_555
C22 N1 1_555 1_555
C23 C9 1_555 1_555
C24 N2 1_555 1_555
C25 N3 1_555 1_555
H7 C25 1_555 1_555
H8 C25 1_555 1_555
C26 C25 1_555 1_555
H9 C26 1_555 1_555
H10 C26 1_555 1_555
C27 O5 1_555 1_555
H11 C27 1_555 1_555
H12 C27 1_555 1_555
C28 N3 1_555 1_555
H13 C28 1_555 1_555
H14 C28 1_555 1_555
C29 N4 1_555 1_555
H15 C29 1_555 1_555
H16 C29 1_555 1_555
C30 C29 1_555 1_555
H17 C30 1_555 1_555
H18 C30 1_555 1_555
C31 O6 1_555 1_555
H19 C31 1_555 1_555
H20 C31 1_555 1_555
C32 N4 1_555 1_555
H21 C32 1_555 1_555
H22 C32 1_555 1_555
C33 N1 1_555 1_555
H23 C33 1_555 1_555
H24 C33 1_555 1_555
C34 C33 1_555 1_555
H25 C34 1_555 1_555
H26 C34 1_555 1_555
C35 C34 1_555 1_555
H27 C35 1_555 1_555
H28 C35 1_555 1_555
C36 C35 1_555 1_555
H29 C36 1_555 1_555
H30 C36 1_555 1_555
H31 C36 1_555 1_555
C37 N2 1_555 1_555
H32 C37 1_555 1_555
H33 C37 1_555 1_555
C38 C37 1_555 1_555
H34 C38 1_555 1_555
H35 C38 1_555 1_555
C39 C38 1_555 1_555
H36 C39 1_555 1_555
H37 C39 1_555 1_555
C40 C39 1_555 1_555
H38 C40 1_555 1_555
H39 C40 1_555 1_555
H40 C40 1_555 1_555
C4 C16 1_555 1_555
C4 C22 1_555 1_555
C10 C20 1_555 1_555
C10 C24 1_555 1_555
C13 C14 1_555 1_555
C15 C16 1_555 1_555
C15 C17 1_555 1_555
C17 C18 1_555 1_555
C18 C19 1_555 1_555
C19 C20 1_555 1_555
C27 C28 1_555 1_555
C31 C32 1_555 1_555

#END
