
#######################################################################
#
#                 Cambridge Crystallographic Data Centre
#                                CCDC 
#
#######################################################################
#
# If this CIF has been generated from an entry in the Cambridge 
# Structural Database, then it will include bibliographic, chemical, 
# crystal, experimental, refinement or atomic coordinate data resulting 
# from the CCDC's data processing and validation procedures.
#
#######################################################################

data_SUWPUW
_chemical_formula_moiety         'C19 H20 Br1 N1 O4 S1'
_chemical_name_systematic        
'3-Bromo-4-phenyl-1-(phenylsulfonyl)piperidin-4-yl acetate'
_symmetry_cell_setting           monoclinic
_symmetry_space_group_name_H-M   'P 21/c'
_symmetry_Int_Tables_number      14
_space_group_name_Hall           '-P 2ybc'
loop_
_symmetry_equiv_pos_site_id
_symmetry_equiv_pos_as_xyz
1 x,y,z
2 -x,1/2+y,1/2-z
3 -x,-y,-z
4 x,1/2-y,1/2+z
_cell_length_a                   8.4801(3)
_cell_length_b                   18.7737(8)
_cell_length_c                   12.5741(5)
_cell_angle_alpha                90
_cell_angle_beta                 96.011(2)
_cell_angle_gamma                90
_cell_volume                     1990.83
_exptl_crystal_colour            colorless
_exptl_crystal_description       tabular
_cell_formula_units_Z            4
loop_
_atom_site_label
_atom_site_type_symbol
_atom_site_fract_x
_atom_site_fract_y
_atom_site_fract_z
Br1 Br 0.43230(3) 0.357104(15) 0.87796(2)
C1 C 0.7407(3) 0.29826(11) 0.87474(17)
H1 H 0.6823 0.2538 0.8687
H2 H 0.8355 0.2928 0.8385
C2 C 0.6393(3) 0.35756(11) 0.82277(17)
H3 H 0.6222 0.3476 0.7459
C3 C 0.7176(3) 0.43152(11) 0.83715(16)
C4 C 0.7780(3) 0.44288(12) 0.95507(17)
H4 H 0.8406 0.4862 0.9618
H5 H 0.6880 0.4491 0.9958
C5 C 0.8781(3) 0.38124(12) 1.00196(19)
H6 H 0.9735 0.3771 0.9660
H7 H 0.9093 0.3896 1.0774
C6 C 0.6098(3) 0.48979(11) 0.78726(17)
C7 C 0.5536(3) 0.48516(13) 0.67996(19)
H8 H 0.5857 0.4477 0.6389
C8 C 0.4497(3) 0.53611(16) 0.6334(2)
H9 H 0.4125 0.5327 0.5613
C9 C 0.4020(3) 0.59132(15) 0.6932(3)
H10 H 0.3321 0.6253 0.6617
C10 C 0.4564(4) 0.59685(14) 0.7988(3)
H11 H 0.4238 0.6345 0.8392
C11 C 0.5603(3) 0.54634(13) 0.8457(2)
H12 H 0.5974 0.5505 0.9177
C12 C 0.9475(3) 0.47645(15) 0.7566(2)
C13 C 1.0649(4) 0.45537(19) 0.6815(3)
H13 H 1.0143 0.4554 0.6096
H14 H 1.1045 0.4085 0.6995
H15 H 1.1512 0.4887 0.6873
C14 C 1.0300(3) 0.22282(12) 1.04150(19)
C15 C 1.0485(3) 0.18018(14) 0.9544(2)
H16 H 0.9602 0.1652 0.9099
C16 C 1.1980(4) 0.15981(16) 0.9337(3)
H17 H 1.2106 0.1306 0.8755
C17 C 1.3277(4) 0.18222(18) 0.9979(3)
H18 H 1.4283 0.1682 0.9832
C18 C 1.3114(3) 0.22468(18) 1.0830(3)
H19 H 1.4010 0.2396 1.1262
C19 C 1.1620(3) 0.24625(15) 1.1064(2)
H20 H 1.1510 0.2758 1.1645
N1 N 0.7850(2) 0.31505(9) 0.98811(14)
O1 O 0.85155(17) 0.42124(8) 0.77375(11)
O2 O 0.9372(2) 0.53415(10) 0.79476(16)
O3 O 0.73242(19) 0.19138(9) 1.03949(14)
O4 O 0.8511(2) 0.27730(10) 1.17447(13)
S1 S 0.83869(7) 0.24896(3) 1.06836(5)
loop_
_geom_bond_atom_site_label_1
_geom_bond_atom_site_label_2
_geom_bond_site_symmetry_1
_geom_bond_site_symmetry_2
Br1 C2 1_555 1_555
C1 H1 1_555 1_555
H2 C1 1_555 1_555
C2 C1 1_555 1_555
H3 C2 1_555 1_555
C3 C2 1_555 1_555
C4 C3 1_555 1_555
H4 C4 1_555 1_555
H5 C4 1_555 1_555
C5 C4 1_555 1_555
H6 C5 1_555 1_555
H7 C5 1_555 1_555
C6 C3 1_555 1_555
C7 C6 1_555 1_555
H8 C7 1_555 1_555
C8 C7 1_555 1_555
H9 C8 1_555 1_555
C9 C8 1_555 1_555
H10 C9 1_555 1_555
C10 C9 1_555 1_555
H11 C10 1_555 1_555
C11 C6 1_555 1_555
H12 C11 1_555 1_555
C12 C13 1_555 1_555
C13 H13 1_555 1_555
H14 C13 1_555 1_555
H15 C13 1_555 1_555
C14 C15 1_555 1_555
C15 H16 1_555 1_555
C16 C15 1_555 1_555
H17 C16 1_555 1_555
C17 C16 1_555 1_555
H18 C17 1_555 1_555
C18 C17 1_555 1_555
H19 C18 1_555 1_555
C19 C14 1_555 1_555
H20 C19 1_555 1_555
N1 C1 1_555 1_555
O1 C3 1_555 1_555
O2 C12 1_555 1_555
O3 S1 1_555 1_555
O4 S1 1_555 1_555
S1 C14 1_555 1_555
C5 N1 1_555 1_555
C10 C11 1_555 1_555
C12 O1 1_555 1_555
C18 C19 1_555 1_555
N1 S1 1_555 1_555

#END
