
#######################################################################
#
#                 Cambridge Crystallographic Data Centre
#                                CCDC 
#
#######################################################################
#
# If this CIF has been generated from an entry in the Cambridge 
# Structural Database, then it will include bibliographic, chemical, 
# crystal, experimental, refinement or atomic coordinate data resulting 
# from the CCDC's data processing and validation procedures.
#
#######################################################################

data_SUWQUX
_chemical_formula_moiety         'C24 H21 F1 N2 O3 S1'
_chemical_name_systematic        
4-Fluoro-N-(4-phenyl-1-(phenylsulfonyl)-1,2,3,6-tetrahydropyridin-3-yl)benzamide
_symmetry_cell_setting           orthorhombic
_symmetry_space_group_name_H-M   'P 21 21 21'
_symmetry_Int_Tables_number      19
_space_group_name_Hall           'P 2ac 2ab'
loop_
_symmetry_equiv_pos_site_id
_symmetry_equiv_pos_as_xyz
1 x,y,z
2 1/2-x,-y,1/2+z
3 -x,1/2+y,1/2-z
4 1/2+x,1/2-y,-z
_cell_length_a                   5.7885(3)
_cell_length_b                   15.1435(8)
_cell_length_c                   23.7441(13)
_cell_angle_alpha                90
_cell_angle_beta                 90
_cell_angle_gamma                90
_cell_volume                     2081.36
_exptl_crystal_colour            colorless
_cell_formula_units_Z            4
loop_
_atom_site_label
_atom_site_type_symbol
_atom_site_fract_x
_atom_site_fract_y
_atom_site_fract_z
C1 C 0.8576(3) 0.81545(12) 0.23719(7)
C2 C 0.6457(4) 0.81396(14) 0.26284(8)
H1 H 0.5486 0.8628 0.2613
C3 C 0.5792(4) 0.73817(17) 0.29109(8)
H2 H 0.4366 0.7362 0.3091
C4 C 0.7217(5) 0.66590(16) 0.29278(8)
H3 H 0.6744 0.6151 0.3116
C5 C 0.9328(5) 0.66794(15) 0.26705(9)
H4 H 1.0284 0.6186 0.2683
C6 C 1.0042(4) 0.74314(13) 0.23924(8)
H5 H 1.1486 0.7453 0.2221
C7 C 0.6706(3) 0.88905(11) 0.10931(7)
H6 H 0.5720 0.9266 0.1320
H7 H 0.6057 0.8300 0.1090
C8 C 0.6870(3) 0.92518(10) 0.04922(7)
H8 H 0.5380 0.9156 0.0306
C9 C 0.8720(3) 0.87791(10) 0.01545(7)
C10 C 1.0270(3) 0.82836(11) 0.04258(8)
H9 H 1.1298 0.7959 0.0208
C11 C 1.0490(3) 0.82073(12) 0.10508(7)
H10 H 1.0018 0.7622 0.1170
H11 H 1.2089 0.8293 0.1160
C12 C 0.8742(3) 0.89008(10) -0.04688(7)
C13 C 0.6967(4) 0.93292(14) -0.07483(8)
H12 H 0.5697 0.9529 -0.0545
C14 C 0.7046(4) 0.94675(16) -0.13300(9)
H13 H 0.5843 0.9764 -0.1508
C15 C 0.8876(4) 0.91701(14) -0.16378(8)
H14 H 0.8923 0.9260 -0.2025
C16 C 1.0653(5) 0.87367(15) -0.13703(8)
H15 H 1.1899 0.8527 -0.1578
C17 C 1.0595(4) 0.86109(14) -0.07932(8)
H16 H 1.1823 0.8326 -0.0618
C18 C 0.5583(3) 1.07835(11) 0.05696(7)
C19 C 0.6283(3) 1.17273(10) 0.06681(6)
C20 C 0.4680(3) 1.23782(11) 0.05311(7)
H17 H 0.3270 1.2219 0.0373
C21 C 0.5169(4) 1.32614(12) 0.06278(8)
H18 H 0.4115 1.3700 0.0533
C22 C 0.7242(4) 1.34667(12) 0.08661(9)
C23 C 0.8862(4) 1.28452(13) 0.10157(9)
H19 H 1.0246 1.3010 0.1184
C24 C 0.8369(3) 1.19643(12) 0.09074(8)
H20 H 0.9449 1.1531 0.0996
F1 F 0.7722(3) 1.43242(8) 0.09685(8)
N1 N 0.9036(2) 0.88736(10) 0.13238(6)
N2 N 0.7324(2) 1.01967(9) 0.05025(6)
H21 H 0.8718 1.0385 0.0465
O1 O 1.1903(3) 0.91939(11) 0.20535(7)
O2 O 0.7941(3) 0.98060(9) 0.21242(6)
O3 O 0.3551(2) 1.05596(9) 0.05527(7)
S1 S 0.94587(8) 0.90948(3) 0.19858(2)
loop_
_geom_bond_atom_site_label_1
_geom_bond_atom_site_label_2
_geom_bond_site_symmetry_1
_geom_bond_site_symmetry_2
C1 C2 1_555 1_555
C2 H1 1_555 1_555
C3 C2 1_555 1_555
H2 C3 1_555 1_555
C4 C3 1_555 1_555
H3 C4 1_555 1_555
C5 C4 1_555 1_555
H4 C5 1_555 1_555
C6 C1 1_555 1_555
H5 C6 1_555 1_555
C7 H6 1_555 1_555
H7 C7 1_555 1_555
C8 C7 1_555 1_555
H8 C8 1_555 1_555
C9 C8 1_555 1_555
C10 C9 1_555 1_555
H9 C10 1_555 1_555
C11 C10 1_555 1_555
H10 C11 1_555 1_555
H11 C11 1_555 1_555
C12 C9 1_555 1_555
C13 C12 1_555 1_555
H12 C13 1_555 1_555
C14 C13 1_555 1_555
H13 C14 1_555 1_555
C15 C14 1_555 1_555
H14 C15 1_555 1_555
C16 C15 1_555 1_555
H15 C16 1_555 1_555
C17 C12 1_555 1_555
H16 C17 1_555 1_555
C18 C19 1_555 1_555
C19 C20 1_555 1_555
C20 H17 1_555 1_555
C21 C20 1_555 1_555
H18 C21 1_555 1_555
C22 C21 1_555 1_555
C23 C22 1_555 1_555
H19 C23 1_555 1_555
C24 C19 1_555 1_555
H20 C24 1_555 1_555
F1 C22 1_555 1_555
N1 C7 1_555 1_555
N2 C8 1_555 1_555
H21 N2 1_555 1_555
O1 S1 1_555 1_555
O2 S1 1_555 1_555
O3 C18 1_555 1_555
S1 C1 1_555 1_555
C5 C6 1_555 1_555
C11 N1 1_555 1_555
C16 C17 1_555 1_555
C18 N2 1_555 1_555
C23 C24 1_555 1_555
N1 S1 1_555 1_555

#END
