
#######################################################################
#
#                 Cambridge Crystallographic Data Centre
#                                CCDC 
#
#######################################################################
#
# If this CIF has been generated from an entry in the Cambridge 
# Structural Database, then it will include bibliographic, chemical, 
# crystal, experimental, refinement or atomic coordinate data resulting 
# from the CCDC's data processing and validation procedures.
#
#######################################################################

data_SUWQIL
_chemical_formula_moiety         'C24 H23 N2 O2 S1 1+,Cl1 1-'
_chemical_name_systematic        
'6-Phenyl-3-(phenylsulfonyl)-1,2,3,4,4a,10b-hexahydrobenzo[c][1,7]naphthyridin-5-ium chloride'
_symmetry_cell_setting           monoclinic
_symmetry_space_group_name_H-M   'P 21/c'
_symmetry_Int_Tables_number      14
_space_group_name_Hall           '-P 2ybc'
loop_
_symmetry_equiv_pos_site_id
_symmetry_equiv_pos_as_xyz
1 x,y,z
2 -x,1/2+y,1/2-z
3 -x,-y,-z
4 x,1/2-y,1/2+z
_cell_length_a                   15.191(2)
_cell_length_b                   31.163(5)
_cell_length_c                   15.497(2)
_cell_angle_alpha                90
_cell_angle_beta                 114.792(3)
_cell_angle_gamma                90
_cell_volume                     6660.1
_exptl_crystal_colour            colorless
_cell_formula_units_Z            12
loop_
_atom_site_label
_atom_site_type_symbol
_atom_site_fract_x
_atom_site_fract_y
_atom_site_fract_z
C1 C 0.24113(19) 0.00282(9) 0.5642(2)
H1 H 0.1817 -0.0126 0.5274
H2 H 0.2438 0.0084 0.6268
C2 C 0.32826(19) -0.02399(9) 0.5729(2)
H3 H 0.3291 -0.0506 0.6058
H4 H 0.3230 -0.0311 0.5099
C3 C 0.42148(17) 0.00032(8) 0.62683(18)
H5 H 0.4254 0.0064 0.6904
C4 C 0.51319(18) -0.02275(8) 0.63934(17)
C5 C 0.5197(2) -0.06678(9) 0.6344(2)
H6 H 0.4647 -0.0836 0.6194
C6 C 0.6077(2) -0.08604(10) 0.6517(2)
H7 H 0.6109 -0.1157 0.6474
C7 C 0.6899(2) -0.06213(10) 0.6750(2)
H8 H 0.7487 -0.0756 0.6877
C8 C 0.68569(19) -0.01802(10) 0.67976(19)
H9 H 0.7413 -0.0016 0.6944
C9 C 0.59738(18) 0.00198(9) 0.66247(17)
C10 C 0.59070(18) 0.04865(9) 0.66625(18)
C11 C 0.41676(16) 0.04316(8) 0.57817(18)
H10 H 0.4108 0.0373 0.5138
C12 C 0.32929(17) 0.06989(9) 0.5696(2)
H11 H 0.3334 0.0770 0.6321
H12 H 0.3267 0.0964 0.5357
C13 C 0.67852(19) 0.07535(10) 0.7087(2)
C14 C 0.7480(2) 0.06666(12) 0.7992(2)
H13 H 0.7388 0.0443 0.8342
C15 C 0.8313(2) 0.09134(16) 0.8377(3)
H14 H 0.8781 0.0857 0.8986
C16 C 0.8441(3) 0.12393(17) 0.7857(4)
H15 H 0.9001 0.1405 0.8121
C17 C 0.7761(3) 0.13327(14) 0.6946(4)
H16 H 0.7864 0.1556 0.6601
C18 C 0.6918(2) 0.10846(12) 0.6556(3)
H17 H 0.6451 0.1141 0.5946
C19 C 0.09920(19) 0.08688(10) 0.5471(2)
C20 C 0.1215(2) 0.12781(12) 0.5821(3)
H18 H 0.1594 0.1454 0.5629
C21 C 0.0870(3) 0.14268(15) 0.6461(3)
H19 H 0.1010 0.1705 0.6697
C22 C 0.0318(3) 0.11620(18) 0.6745(3)
H20 H 0.0085 0.1263 0.7175
C23 C 0.0108(3) 0.07531(18) 0.6409(3)
H21 H -0.0255 0.0575 0.6617
C24 C 0.0435(3) 0.06051(12) 0.5762(3)
H22 H 0.0282 0.0328 0.5519
N1 N 0.24236(14) 0.04365(7) 0.51686(16)
N2 N 0.50642(14) 0.06714(7) 0.62855(15)
H67 H 0.5033 0.0945 0.6334
O1 O 0.07131(14) 0.03593(7) 0.40635(15)
O2 O 0.15620(14) 0.10450(7) 0.41555(15)
S1 S 0.13852(5) 0.06815(2) 0.46155(5)
C25 C 0.2524(2) 0.33455(10) 0.5926(3)
H23 H 0.1969 0.3158 0.5623
H24 H 0.2527 0.3446 0.6520
C26 C 0.3456(2) 0.31002(9) 0.6121(2)
H25 H 0.3420 0.2976 0.5533
H26 H 0.3525 0.2868 0.6560
C27 C 0.43388(19) 0.33936(9) 0.6540(2)
H27 H 0.4395 0.3496 0.7159
C28 C 0.52831(19) 0.31868(9) 0.66803(18)
C29 C 0.5432(2) 0.27467(9) 0.6764(2)
H28 H 0.4926 0.2566 0.6714
C30 C 0.6323(2) 0.25734(10) 0.6922(2)
H29 H 0.6410 0.2278 0.6972
C31 C 0.7079(2) 0.28350(10) 0.7004(2)
H30 H 0.7683 0.2717 0.7132
C32 C 0.6949(2) 0.32739(9) 0.68978(19)
H31 H 0.7457 0.3449 0.6931
C33 C 0.60565(18) 0.34531(8) 0.67408(18)
C34 C 0.58905(18) 0.39202(8) 0.66245(17)
C35 C 0.41726(17) 0.37780(8) 0.58953(18)
H32 H 0.4113 0.3673 0.5277
C36 C 0.32442(17) 0.40186(8) 0.5731(2)
H33 H 0.3268 0.4126 0.6328
H34 H 0.3157 0.4260 0.5307
C37 C 0.66905(18) 0.42280(9) 0.6838(2)
C38 C 0.75402(19) 0.41969(10) 0.7666(2)
H35 H 0.7613 0.3984 0.8112
C39 C 0.8282(2) 0.44907(12) 0.7814(3)
H36 H 0.8851 0.4476 0.8367
C40 C 0.8182(2) 0.48014(11) 0.7154(3)
H37 H 0.8683 0.4995 0.7262
C41 C 0.7347(2) 0.48283(11) 0.6336(3)
H38 H 0.7288 0.5038 0.5887
C42 C 0.6595(2) 0.45467(10) 0.6173(2)
H39 H 0.6025 0.4569 0.5622
C43 C 0.09419(18) 0.41363(10) 0.5453(2)
C44 C 0.1053(2) 0.45699(11) 0.5639(3)
H40 H 0.1349 0.4743 0.5348
C45 C 0.0718(3) 0.47452(14) 0.6268(3)
H41 H 0.0777 0.5038 0.6392
C46 C 0.0298(3) 0.44873(17) 0.6707(3)
H42 H 0.0087 0.4606 0.7138
C47 C 0.0188(3) 0.40588(16) 0.6517(3)
H43 H -0.0102 0.3887 0.6815
C48 C 0.0502(2) 0.38798(12) 0.5890(2)
H44 H 0.0421 0.3588 0.5758
N3 N 0.24483(15) 0.37118(7) 0.53048(17)
N4 N 0.50141(14) 0.40642(7) 0.62727(15)
H68 H 0.4921 0.4337 0.6259
O3 O 0.07662(15) 0.35395(8) 0.42343(16)
O4 O 0.14712(14) 0.42347(8) 0.40866(15)
S2 S 0.13658(5) 0.39029(3) 0.46660(5)
C49 C 0.2365(2) 0.67670(10) 0.5606(2)
H45 H 0.1768 0.6604 0.5312
H46 H 0.2412 0.6876 0.6210
C50 C 0.3227(2) 0.64786(9) 0.5767(3)
H47 H 0.3255 0.6249 0.6201
H48 H 0.3147 0.6350 0.5169
C51 C 0.41620(18) 0.67314(9) 0.6175(2)
H49 H 0.4242 0.6843 0.6795
C52 C 0.50646(19) 0.64795(9) 0.63230(18)
C53 C 0.5114(2) 0.60377(9) 0.6377(2)
H50 H 0.4566 0.5880 0.6302
C54 C 0.5974(2) 0.58251(10) 0.6542(2)
H51 H 0.5994 0.5527 0.6570
C55 C 0.6793(2) 0.60491(10) 0.6664(2)
H52 H 0.7369 0.5905 0.6787
C56 C 0.6757(2) 0.64921(10) 0.66049(19)
H53 H 0.7308 0.6646 0.6678
C57 C 0.58972(18) 0.67082(8) 0.64355(18)
C58 C 0.58311(18) 0.71758(9) 0.63364(18)
C59 C 0.40836(17) 0.71105(8) 0.55413(18)
H54 H 0.3998 0.7001 0.4918
C60 C 0.32233(18) 0.73995(9) 0.5396(2)
H55 H 0.3289 0.7519 0.5998
H56 H 0.3183 0.7633 0.4968
C61 C 0.6710(2) 0.74457(10) 0.6648(2)
C62 C 0.7453(2) 0.73881(11) 0.7548(3)
H57 H 0.7407 0.7176 0.7950
C63 C 0.8272(3) 0.76534(16) 0.7842(4)
H58 H 0.8774 0.7619 0.8443
C64 C 0.8331(3) 0.79603(17) 0.7249(5)
H59 H 0.8873 0.8137 0.7454
C65 C 0.7614(3) 0.80148(13) 0.6361(4)
H60 H 0.7674 0.8224 0.5961
C66 C 0.6789(2) 0.77563(11) 0.6053(3)
H61 H 0.6295 0.7794 0.5448
C67 C 0.09125(18) 0.76025(10) 0.5161(2)
C68 C 0.1102(2) 0.80300(11) 0.5369(2)
H62 H 0.1442 0.8187 0.5097
C69 C 0.0781(3) 0.82256(13) 0.5987(3)
H63 H 0.0897 0.8516 0.6125
C70 C 0.0294(3) 0.79918(18) 0.6398(3)
H64 H 0.0085 0.8124 0.6817
C71 C 0.0113(3) 0.75661(17) 0.6196(3)
H65 H -0.0221 0.7410 0.6474
C72 C 0.0424(2) 0.73666(12) 0.5581(3)
H66 H 0.0307 0.7076 0.5449
N5 N 0.23546(15) 0.71267(7) 0.49855(17)
N6 N 0.49929(15) 0.73582(7) 0.59388(16)
H69 H 0.4964 0.7634 0.5905
O5 O 0.06434(14) 0.70095(7) 0.39109(16)
O6 O 0.14617(14) 0.76785(7) 0.37977(15)
S3 S 0.13036(5) 0.73531(2) 0.43653(5)
Cl1 Cl 0.46610(8) 0.16384(3) 0.62087(7)
Cl2 Cl 0.43106(6) 0.49789(2) 0.61910(6)
Cl3 Cl 0.32035(8) 0.85953(3) 0.57844(9)
Cl4? Cl 0.4198(5) 0.83160(19) 0.5989(5)
loop_
_geom_bond_atom_site_label_1
_geom_bond_atom_site_label_2
_geom_bond_site_symmetry_1
_geom_bond_site_symmetry_2
C1 H1 1_555 1_555
H2 C1 1_555 1_555
C2 C1 1_555 1_555
H3 C2 1_555 1_555
H4 C2 1_555 1_555
C3 C2 1_555 1_555
H5 C3 1_555 1_555
C4 C3 1_555 1_555
C5 C4 1_555 1_555
H6 C5 1_555 1_555
C6 C5 1_555 1_555
H7 C6 1_555 1_555
C7 C6 1_555 1_555
H8 C7 1_555 1_555
C8 C7 1_555 1_555
H9 C8 1_555 1_555
C9 C4 1_555 1_555
C10 C9 1_555 1_555
C11 C3 1_555 1_555
H10 C11 1_555 1_555
C12 C11 1_555 1_555
H11 C12 1_555 1_555
H12 C12 1_555 1_555
C13 C10 1_555 1_555
C14 C13 1_555 1_555
H13 C14 1_555 1_555
C15 C14 1_555 1_555
H14 C15 1_555 1_555
C16 C15 1_555 1_555
H15 C16 1_555 1_555
C17 C16 1_555 1_555
H16 C17 1_555 1_555
C18 C13 1_555 1_555
H17 C18 1_555 1_555
C19 C20 1_555 1_555
C20 H18 1_555 1_555
C21 C20 1_555 1_555
H19 C21 1_555 1_555
C22 C21 1_555 1_555
H20 C22 1_555 1_555
C23 C22 1_555 1_555
H21 C23 1_555 1_555
C24 C19 1_555 1_555
H22 C24 1_555 1_555
C25 H23 1_555 1_555
H24 C25 1_555 1_555
C26 C25 1_555 1_555
H25 C26 1_555 1_555
H26 C26 1_555 1_555
C27 C26 1_555 1_555
H27 C27 1_555 1_555
C28 C27 1_555 1_555
C29 C28 1_555 1_555
H28 C29 1_555 1_555
C30 C29 1_555 1_555
H29 C30 1_555 1_555
C31 C30 1_555 1_555
H30 C31 1_555 1_555
C32 C31 1_555 1_555
H31 C32 1_555 1_555
C33 C28 1_555 1_555
C34 C33 1_555 1_555
C35 C27 1_555 1_555
H32 C35 1_555 1_555
C36 C35 1_555 1_555
H33 C36 1_555 1_555
H34 C36 1_555 1_555
C37 C34 1_555 1_555
C38 C37 1_555 1_555
H35 C38 1_555 1_555
C39 C38 1_555 1_555
H36 C39 1_555 1_555
C40 C39 1_555 1_555
H37 C40 1_555 1_555
C41 C40 1_555 1_555
H38 C41 1_555 1_555
C42 C37 1_555 1_555
H39 C42 1_555 1_555
C43 C44 1_555 1_555
C44 H40 1_555 1_555
C45 C44 1_555 1_555
H41 C45 1_555 1_555
C46 C45 1_555 1_555
H42 C46 1_555 1_555
C47 C46 1_555 1_555
H43 C47 1_555 1_555
C48 C43 1_555 1_555
H44 C48 1_555 1_555
C49 H45 1_555 1_555
H46 C49 1_555 1_555
C50 C49 1_555 1_555
H47 C50 1_555 1_555
H48 C50 1_555 1_555
C51 C50 1_555 1_555
H49 C51 1_555 1_555
C52 C51 1_555 1_555
C53 C52 1_555 1_555
H50 C53 1_555 1_555
C54 C53 1_555 1_555
H51 C54 1_555 1_555
C55 C54 1_555 1_555
H52 C55 1_555 1_555
C56 C55 1_555 1_555
H53 C56 1_555 1_555
C57 C52 1_555 1_555
C58 C57 1_555 1_555
C59 C51 1_555 1_555
H54 C59 1_555 1_555
C60 C59 1_555 1_555
H55 C60 1_555 1_555
H56 C60 1_555 1_555
C61 C58 1_555 1_555
C62 C61 1_555 1_555
H57 C62 1_555 1_555
C63 C62 1_555 1_555
H58 C63 1_555 1_555
C64 C63 1_555 1_555
H59 C64 1_555 1_555
C65 C64 1_555 1_555
H60 C65 1_555 1_555
C66 C61 1_555 1_555
H61 C66 1_555 1_555
C67 C68 1_555 1_555
C68 H62 1_555 1_555
C69 C68 1_555 1_555
H63 C69 1_555 1_555
C70 C69 1_555 1_555
H64 C70 1_555 1_555
C71 C70 1_555 1_555
H65 C71 1_555 1_555
C72 C67 1_555 1_555
H66 C72 1_555 1_555
N1 C1 1_555 1_555
N2 C10 1_555 1_555
H67 N2 1_555 1_555
N3 C25 1_555 1_555
N4 C34 1_555 1_555
H68 N4 1_555 1_555
N5 C49 1_555 1_555
N6 C58 1_555 1_555
H69 N6 1_555 1_555
O1 S1 1_555 1_555
O2 S1 1_555 1_555
O3 S2 1_555 1_555
O4 S2 1_555 1_555
O5 S3 1_555 1_555
O6 S3 1_555 1_555
S1 C19 1_555 1_555
S2 C43 1_555 1_555
S3 C67 1_555 1_555
C8 C9 1_555 1_555
C11 N2 1_555 1_555
C12 N1 1_555 1_555
C17 C18 1_555 1_555
C23 C24 1_555 1_555
C32 C33 1_555 1_555
C35 N4 1_555 1_555
C36 N3 1_555 1_555
C41 C42 1_555 1_555
C47 C48 1_555 1_555
C56 C57 1_555 1_555
C59 N6 1_555 1_555
C60 N5 1_555 1_555
C65 C66 1_555 1_555
C71 C72 1_555 1_555
N1 S1 1_555 1_555
N3 S2 1_555 1_555
N5 S3 1_555 1_555

#END
