
#######################################################################
#
#                 Cambridge Crystallographic Data Centre
#                                CCDC 
#
#######################################################################
#
# If this CIF has been generated from an entry in the Cambridge 
# Structural Database, then it will include bibliographic, chemical, 
# crystal, experimental, refinement or atomic coordinate data resulting 
# from the CCDC's data processing and validation procedures.
#
#######################################################################

data_SUWTEK
_chemical_formula_moiety         'C30 H22 Cl1 O1 S1 1+,Cl1 O4 1-,0.5(H2 O1)'
_chemical_name_systematic        
"4-(2-(4-Chlorophenyl)-2-oxoethyl)-3,5-dihydrodinaphtho[2,1-c:1',2'-e]thiepinium perchlorate hemihydrate"
_symmetry_cell_setting           orthorhombic
_symmetry_space_group_name_H-M   'P 21 21 21'
_symmetry_Int_Tables_number      19
_space_group_name_Hall           'P 2ac 2ab'
loop_
_symmetry_equiv_pos_site_id
_symmetry_equiv_pos_as_xyz
1 x,y,z
2 1/2-x,-y,1/2+z
3 -x,1/2+y,1/2-z
4 1/2+x,1/2-y,-z
_cell_length_a                   7.5840(8)
_cell_length_b                   15.6662(16)
_cell_length_c                   45.395(5)
_cell_angle_alpha                90
_cell_angle_beta                 90
_cell_angle_gamma                90
_cell_volume                     5393.49
_exptl_crystal_colour            colorless
_exptl_crystal_description       block
_cell_formula_units_Z            8
loop_
_atom_site_label
_atom_site_type_symbol
_atom_site_fract_x
_atom_site_fract_y
_atom_site_fract_z
C1 C 0.2822(6) 0.6835(3) 0.20768(10)
C2 C 0.2267(6) 0.6129(3) 0.19273(11)
H1 H 0.1884 0.5650 0.2030
C3 C 0.2279(6) 0.6131(3) 0.16242(11)
H2 H 0.1932 0.5646 0.1522
C4 C 0.2798(6) 0.6844(3) 0.14729(10)
C5 C 0.3275(7) 0.7559(3) 0.16274(12)
H3 H 0.3597 0.8050 0.1526
C6 C 0.3284(7) 0.7560(3) 0.19326(12)
H4 H 0.3600 0.8048 0.2037
C7 C 0.2910(7) 0.6874(3) 0.11463(11)
C8 C 0.2849(6) 0.6023(3) 0.09818(9)
H5 H 0.1717 0.5748 0.1012
H6 H 0.3766 0.5645 0.1054
C9 C 0.0957(6) 0.6427(3) 0.04697(10)
H7 H 0.0154 0.6042 0.0570
H8 H 0.0605 0.7008 0.0514
C10 C 0.0871(6) 0.6278(3) 0.01406(11)
C11 C 0.0788(7) 0.5458(3) 0.00364(11)
C12 C 0.0869(7) 0.5303(3) -0.02729(11)
C13 C 0.1004(7) 0.4492(3) -0.03980(12)
H9 H 0.1021 0.4019 -0.0274
C14 C 0.1108(8) 0.4369(4) -0.06915(13)
H10 H 0.1215 0.3821 -0.0768
C15 C 0.1055(9) 0.5079(4) -0.08804(12)
H11 H 0.1089 0.4996 -0.1083
C16 C 0.0954(8) 0.5875(4) -0.07728(13)
H12 H 0.0925 0.6338 -0.0901
C17 C 0.0893(7) 0.6013(3) -0.04660(12)
C18 C 0.0917(8) 0.6834(4) -0.03480(12)
H13 H 0.0903 0.7300 -0.0475
C19 C 0.0962(8) 0.6974(3) -0.00530(12)
H14 H 0.1052 0.7527 0.0020
C20 C 0.3581(7) 0.5179(3) 0.04503(10)
H15 H 0.4016 0.5235 0.0250
H16 H 0.4504 0.4913 0.0566
C21 C 0.2018(8) 0.4597(3) 0.04471(11)
C22 C 0.0671(7) 0.4724(3) 0.02457(11)
C23 C -0.0804(9) 0.4172(3) 0.02551(12)
C24 C -0.2254(8) 0.4263(4) 0.00685(12)
H17 H -0.2259 0.4711 -0.0066
C25 C -0.3669(9) 0.3720(4) 0.00751(15)
H18 H -0.4604 0.3791 -0.0055
C26 C -0.3683(13) 0.3055(5) 0.02818(19)
H19 H -0.4641 0.2685 0.0288
C27 C -0.2350(11) 0.2942(5) 0.04697(19)
H20 H -0.2388 0.2496 0.0605
C28 C -0.0888(10) 0.3493(4) 0.04643(14)
C29 C 0.0538(11) 0.3412(4) 0.06597(14)
H21 H 0.0508 0.2974 0.0798
C30 C 0.1936(10) 0.3932(4) 0.06570(12)
H22 H 0.2846 0.3856 0.0792
Cl1 Cl 0.2958(2) 0.67966(9) 0.24593(3)
O1 O 0.3127(5) 0.7526(2) 0.10091(7)
S1 S 0.31813(18) 0.62447(9) 0.05970(3)
C31 C 0.0883(8) -0.0404(4) 0.07689(14)
C32 C 0.0692(7) -0.0895(4) 0.10153(15)
H23 H 0.0303 -0.1456 0.0999
C33 C 0.1080(8) -0.0554(3) 0.12893(13)
H24 H 0.0958 -0.0891 0.1457
C34 C 0.1644(7) 0.0276(3) 0.13174(12)
C35 C 0.1767(8) 0.0764(3) 0.10643(13)
H25 H 0.2104 0.1333 0.1079
C36 C 0.1404(8) 0.0431(4) 0.07916(13)
H26 H 0.1511 0.0768 0.0624
C37 C 0.2123(8) 0.0593(3) 0.16129(13)
C38 C 0.2462(7) 0.1545(3) 0.16474(10)
H27 H 0.1378 0.1861 0.1617
H28 H 0.3319 0.1734 0.1503
C39 C 0.1276(6) 0.1702(3) 0.22335(10)
H29 H 0.0300 0.1935 0.2121
H30 H 0.0997 0.1116 0.2284
C40 C 0.1537(6) 0.2216(3) 0.25107(10)
C41 C 0.1875(7) 0.1795(3) 0.27781(12)
H31 H 0.1911 0.1201 0.2782
C42 C 0.2147(7) 0.2235(4) 0.30280(12)
H32 H 0.2315 0.1944 0.3204
C43 C 0.2181(7) 0.3137(4) 0.30245(11)
C44 C 0.2584(8) 0.3614(4) 0.32815(11)
H33 H 0.2761 0.3335 0.3460
C45 C 0.2714(8) 0.4484(4) 0.32667(12)
H34 H 0.2995 0.4792 0.3435
C46 C 0.2431(7) 0.4912(4) 0.30036(13)
H35 H 0.2517 0.5504 0.2997
C47 C 0.2028(6) 0.4470(3) 0.27563(10)
H36 H 0.1850 0.4766 0.2581
C48 C 0.1873(6) 0.3573(3) 0.27572(10)
C49 C 0.1473(6) 0.3096(3) 0.24993(10)
C50 C 0.3699(7) 0.2881(3) 0.20006(11)
H37 H 0.4320 0.3048 0.2178
H38 H 0.4460 0.3006 0.1834
C51 C 0.2051(7) 0.3403(3) 0.19743(11)
C52 C 0.0985(6) 0.3516(3) 0.22158(10)
C53 C -0.0633(7) 0.3963(3) 0.21880(12)
C54 C -0.1815(7) 0.4089(3) 0.24246(12)
H39 H -0.1508 0.3899 0.2612
C55 C -0.3387(8) 0.4482(3) 0.23837(15)
H40 H -0.4142 0.4563 0.2543
C56 C -0.3878(9) 0.4766(4) 0.21043(18)
H41 H -0.4980 0.5015 0.2077
C57 C -0.2790(9) 0.4686(3) 0.18757(15)
H42 H -0.3117 0.4904 0.1693
C58 C -0.1148(9) 0.4273(3) 0.19071(14)
C59 C -0.0016(10) 0.4155(3) 0.16657(13)
H43 H -0.0337 0.4369 0.1482
C60 C 0.1542(9) 0.3734(3) 0.16959(11)
H44 H 0.2276 0.3662 0.1534
Cl2 Cl 0.0487(2) -0.08442(11) 0.04274(4)
O2 O 0.2191(6) 0.0140(2) 0.18269(8)
S2 S 0.32850(18) 0.17341(9) 0.20127(3)
Cl3 Cl 0.77891(18) 0.62976(10) 0.10758(3)
O3 O 0.8785(5) 0.5526(2) 0.10952(9)
O4 O 0.6548(5) 0.6323(3) 0.13065(8)
O5 O 0.8995(5) 0.6991(2) 0.10887(10)
O6 O 0.6907(5) 0.6289(2) 0.08020(8)
Cl4 Cl 0.7348(2) 0.21233(9) 0.14462(3)
O7 O 0.8811(6) 0.2228(3) 0.12674(10)
O8 O 0.6507(8) 0.1361(3) 0.13975(11)
O9 O 0.6151(7) 0.2763(3) 0.13853(10)
O10 O 0.7806(6) 0.2157(3) 0.17435(9)
O11 O 0.5689(9) 0.4289(3) 0.10545(17)
H45 H 0.586(11) 0.383(3) 0.1154(16)
H46 H 0.655(7) 0.461(4) 0.1085(19)
loop_
_geom_bond_atom_site_label_1
_geom_bond_atom_site_label_2
_geom_bond_site_symmetry_1
_geom_bond_site_symmetry_2
C1 C2 1_555 1_555
C2 H1 1_555 1_555
C3 C2 1_555 1_555
H2 C3 1_555 1_555
C4 C3 1_555 1_555
C5 C4 1_555 1_555
H3 C5 1_555 1_555
C6 C1 1_555 1_555
H4 C6 1_555 1_555
C7 C4 1_555 1_555
C8 C7 1_555 1_555
H5 C8 1_555 1_555
H6 C8 1_555 1_555
C9 H7 1_555 1_555
H8 C9 1_555 1_555
C10 C9 1_555 1_555
C11 C10 1_555 1_555
C12 C11 1_555 1_555
C13 C12 1_555 1_555
H9 C13 1_555 1_555
C14 C13 1_555 1_555
H10 C14 1_555 1_555
C15 C14 1_555 1_555
H11 C15 1_555 1_555
C16 C15 1_555 1_555
H12 C16 1_555 1_555
C17 C12 1_555 1_555
C18 C17 1_555 1_555
H13 C18 1_555 1_555
C19 C10 1_555 1_555
H14 C19 1_555 1_555
C20 H15 1_555 1_555
H16 C20 1_555 1_555
C21 C20 1_555 1_555
C22 C11 1_555 1_555
C23 C22 1_555 1_555
C24 C23 1_555 1_555
H17 C24 1_555 1_555
C25 C24 1_555 1_555
H18 C25 1_555 1_555
C26 C25 1_555 1_555
H19 C26 1_555 1_555
C27 C26 1_555 1_555
H20 C27 1_555 1_555
C28 C23 1_555 1_555
C29 C28 1_555 1_555
H21 C29 1_555 1_555
C30 C21 1_555 1_555
H22 C30 1_555 1_555
C31 C32 1_555 1_555
C32 H23 1_555 1_555
C33 C32 1_555 1_555
H24 C33 1_555 1_555
C34 C33 1_555 1_555
C35 C34 1_555 1_555
H25 C35 1_555 1_555
C36 C31 1_555 1_555
H26 C36 1_555 1_555
C37 C34 1_555 1_555
C38 C37 1_555 1_555
H27 C38 1_555 1_555
H28 C38 1_555 1_555
C39 H29 1_555 1_555
H30 C39 1_555 1_555
C40 C39 1_555 1_555
C41 C40 1_555 1_555
H31 C41 1_555 1_555
C42 C41 1_555 1_555
H32 C42 1_555 1_555
C43 C42 1_555 1_555
C44 C43 1_555 1_555
H33 C44 1_555 1_555
C45 C44 1_555 1_555
H34 C45 1_555 1_555
C46 C45 1_555 1_555
H35 C46 1_555 1_555
C47 C46 1_555 1_555
H36 C47 1_555 1_555
C48 C43 1_555 1_555
C49 C40 1_555 1_555
C50 H37 1_555 1_555
H38 C50 1_555 1_555
C51 C50 1_555 1_555
C52 C49 1_555 1_555
C53 C52 1_555 1_555
C54 C53 1_555 1_555
H39 C54 1_555 1_555
C55 C54 1_555 1_555
H40 C55 1_555 1_555
C56 C55 1_555 1_555
H41 C56 1_555 1_555
C57 C56 1_555 1_555
H42 C57 1_555 1_555
C58 C53 1_555 1_555
C59 C58 1_555 1_555
H43 C59 1_555 1_555
C60 C51 1_555 1_555
H44 C60 1_555 1_555
Cl1 C1 1_555 1_555
Cl2 C31 1_555 1_555
Cl3 O3 1_555 1_555
Cl4 O7 1_555 1_555
O1 C7 1_555 1_555
O2 C37 1_555 1_555
O4 Cl3 1_555 1_555
O5 Cl3 1_555 1_555
O6 Cl3 1_555 1_555
O8 Cl4 1_555 1_555
O9 Cl4 1_555 1_555
O10 Cl4 1_555 1_555
O11 H45 1_555 1_555
H46 O11 1_555 1_555
S1 C8 1_555 1_555
S2 C38 1_555 1_555
C5 C6 1_555 1_555
C9 S1 1_555 1_555
C16 C17 1_555 1_555
C18 C19 1_555 1_555
C20 S1 1_555 1_555
C21 C22 1_555 1_555
C27 C28 1_555 1_555
C29 C30 1_555 1_555
C35 C36 1_555 1_555
C39 S2 1_555 1_555
C47 C48 1_555 1_555
C48 C49 1_555 1_555
C50 S2 1_555 1_555
C51 C52 1_555 1_555
C57 C58 1_555 1_555
C59 C60 1_555 1_555

#END
