
#######################################################################
#
#                 Cambridge Crystallographic Data Centre
#                                CCDC 
#
#######################################################################
#
# If this CIF has been generated from an entry in the Cambridge 
# Structural Database, then it will include bibliographic, chemical, 
# crystal, experimental, refinement or atomic coordinate data resulting 
# from the CCDC's data processing and validation procedures.
#
#######################################################################

data_SUXBOD
_chemical_formula_moiety         'C64 H48 Br2 N6 O8'
_chemical_name_systematic        
4,4'-(4-(2-(3-Bromo-4,4-bis(4-nitrophenyl)but-3-en-1-yn-1-yl)cyclopent-1-en-1-yl)-2-((2-(3-bromo-4,4-bis(4-nitrophenyl)but-3-en-1-yn-1-yl)cyclopent-1-en-1-yl)ethynyl)but-1-en-3-yne-1,1-diyl)bis(N,N-dimethylaniline)
_symmetry_cell_setting           monoclinic
_symmetry_space_group_name_H-M   'P 21/c'
_symmetry_Int_Tables_number      14
_space_group_name_Hall           '-P 2ybc'
loop_
_symmetry_equiv_pos_site_id
_symmetry_equiv_pos_as_xyz
1 x,y,z
2 -x,1/2+y,1/2-z
3 -x,-y,-z
4 x,1/2-y,1/2+z
_cell_length_a                   14.3098(5)
_cell_length_b                   19.1052(8)
_cell_length_c                   22.9260(10)
_cell_angle_alpha                90
_cell_angle_beta                 94.449(2)
_cell_angle_gamma                90
_cell_volume                     6248.89
_exptl_crystal_colour            black
_exptl_crystal_description       needle
_cell_formula_units_Z            4
loop_
_atom_site_label
_atom_site_type_symbol
_atom_site_fract_x
_atom_site_fract_y
_atom_site_fract_z
Br1 Br 0.63884(9) 0.52833(7) -0.09556(5)
Br2 Br 0.86426(8) 0.52594(6) 0.09513(4)
O1 O 0.5254(12) 0.8034(8) 0.2126(5)
O2 O 0.4178(10) 0.7244(7) 0.2140(4)
O3 O 0.9368(14) 0.8396(10) 0.2580(7)
O4 O 0.7996(15) 0.8334(8) 0.2421(6)
O5 O 1.0136(11) 0.8228(6) -0.1914(5)
O6 O 1.1242(8) 0.7523(5) -0.1907(3)
N1 N 0.4793(11) 0.7550(8) 0.1929(5)
N2 N 0.8871(19) 0.8190(9) 0.2316(8)
N3 N 1.0587(9) 0.7760(6) -0.1697(4)
N4 N 0.8358(9) 0.0420(6) -0.2146(6)
N5 N 0.5640(11) 0.0368(7) 0.1539(4)
C1 C 0.7303(5) 0.2705(4) -0.0142(3)
C2 C 0.7736(6) 0.3159(4) -0.0550(3)
C3 C 0.8044(6) 0.3567(4) -0.0874(3)
C4 C 0.8392(7) 0.4002(4) -0.1296(3)
C5 C 0.8417(8) 0.3805(5) -0.1923(3)
C6 C 0.8959(10) 0.4402(6) -0.2191(4)
C7 C 0.8947(8) 0.4998(5) -0.1781(4)
C8 C 0.8729(7) 0.4664(5) -0.1205(3)
C9 C 0.8838(7) 0.5062(5) -0.0637(5)
C10 C 0.6140(6) 0.5283(5) 0.0230(4)
C11 C 0.6131(7) 0.5768(6) -0.0254(4)
C12 C 0.5968(7) 0.6465(6) -0.0243(4)
C13 C 0.6120(7) 0.6948(6) -0.0729(4)
C14 C 0.5456(8) 0.7451(6) -0.0906(5)
C15 C 0.5611(11) 0.7894(8) -0.1364(6)
C16 C 0.6388(19) 0.7831(12) -0.1645(6)
C17 C 0.7089(16) 0.7364(12) -0.1463(10)
C18 C 0.6940(9) 0.6910(7) -0.1029(6)
C19 C 0.5621(8) 0.6754(5) 0.0305(4)
C20 C 0.6026(9) 0.7370(6) 0.0554(5)
C21 C 0.5752(11) 0.7626(7) 0.1079(6)
C22 C 0.5046(10) 0.7271(7) 0.1349(5)
C23 C 0.4634(8) 0.6703(6) 0.1095(5)
C24 C 0.4897(7) 0.6454(5) 0.0588(4)
C25 C 0.7782(8) 0.1489(6) -0.1741(4)
C26 C 0.6962(6) 0.3086(4) 0.0343(3)
C27 C 0.6683(7) 0.3429(4) 0.0729(3)
C28 C 0.6382(7) 0.3841(6) 0.1192(3)
C29 C 0.6289(9) 0.3543(6) 0.1797(4)
C30 C 0.5843(10) 0.4171(8) 0.2104(5)
C31 C 0.5989(11) 0.4837(7) 0.1747(5)
C32 C 0.6173(8) 0.4536(6) 0.1167(4)
C33 C 0.8938(6) 0.5359(5) -0.0260(4)
C34 C 0.8978(6) 0.5778(4) 0.0298(3)
C35 C 0.9229(6) 0.6460(4) 0.0329(3)
C36 C 0.9146(7) 0.6905(4) 0.0849(3)
C37 C 0.9853(7) 0.7338(5) 0.1044(4)
C38 C 0.9751(10) 0.7781(6) 0.1543(6)
C39 C 0.8937(13) 0.7766(7) 0.1803(5)
C40 C 0.8244(13) 0.7338(7) 0.1597(6)
C41 C 0.8325(8) 0.6927(6) 0.1127(5)
C42 C 0.9593(6) 0.6803(4) -0.0193(3)
C43 C 0.9232(8) 0.7441(5) -0.0399(5)
C44 C 0.9557(9) 0.7732(6) -0.0882(5)
C45 C 1.0243(8) 0.7434(5) -0.1159(4)
C46 C 1.0664(7) 0.6821(5) -0.0955(3)
C47 C 1.0330(6) 0.6513(4) -0.0479(3)
C48 C 0.7202(6) 0.2002(4) -0.0206(4)
C49 C 0.7498(6) 0.1610(4) -0.0724(4)
C50 C 0.7782(9) 0.0916(5) -0.0665(5)
C51 C 0.8057(11) 0.0544(6) -0.1111(6)
C52 C 0.8083(8) 0.0822(6) -0.1675(5)
C53 C 0.7473(6) 0.1870(5) -0.1284(4)
C54 C 0.8543(19) -0.0338(8) -0.2061(9)
C55 C 0.8611(12) 0.0743(8) -0.2682(6)
C56 C 0.6797(7) 0.1589(5) 0.0251(4)
C57 C 0.6094(8) 0.1112(6) 0.0118(4)
C58 C 0.5716(9) 0.0709(6) 0.0548(5)
C59 C 0.6056(11) 0.0756(7) 0.1126(5)
C60 C 0.7120(7) 0.1623(5) 0.0837(5)
C61 C 0.6784(9) 0.1211(6) 0.1262(4)
C62 C 0.4876(14) -0.0095(10) 0.1389(6)
C63 C 0.6177(7) 0.4958(6) 0.0624(6)
C64 C 0.6070(14) 0.0406(10) 0.2143(7)
N6 N 0.656(2) 0.8277(10) -0.2129(8)
O7 O 0.7346(19) 0.8296(8) -0.2320(9)
O8 O 0.6090(18) 0.8632(14) -0.2303(10)
H1 H 0.8709 0.3355 -0.1951
H2 H 0.7785 0.3783 -0.2095
H3 H 0.9590 0.4244 -0.2225
H4 H 0.8676 0.4519 -0.2572
H5 H 0.9543 0.5231 -0.1752
H6 H 0.8467 0.5320 -0.1923
H7 H 0.4887 0.7482 -0.0711
H8 H 0.5165 0.8253 -0.1481
H9 H 0.7673 0.7373 -0.1642
H10 H 0.7391 0.6553 -0.0919
H11 H 0.6504 0.7599 0.0352
H12 H 0.6033 0.8037 0.1257
H13 H 0.4146 0.6471 0.1286
H14 H 0.4571 0.6057 0.0415
H15 H 0.7776 0.1703 -0.2120
H16 H 0.5900 0.3134 0.1760
H17 H 0.6897 0.3417 0.1972
H18 H 0.5180 0.4093 0.2109
H19 H 0.6115 0.4218 0.2498
H20 H 0.5447 0.5135 0.1738
H21 H 0.6520 0.5081 0.1930
H22 H 1.0422 0.7338 0.0848
H23 H 1.0256 0.8085 0.1680
H24 H 0.7669 0.7335 0.1787
H25 H 0.7807 0.6639 0.0984
H26 H 0.8753 0.7665 -0.0195
H27 H 0.9306 0.8168 -0.1033
H28 H 1.1171 0.6629 -0.1153
H29 H 1.0612 0.6083 -0.0339
H30 H 0.7802 0.0698 -0.0287
H31 H 0.8229 0.0061 -0.1055
H32 H 0.7238 0.2336 -0.1353
H33 H 0.8719 -0.0546 -0.2417
H34 H 0.7984 -0.0558 -0.1945
H35 H 0.9040 -0.0399 -0.1759
H36 H 0.8772 0.0385 -0.2951
H37 H 0.9138 0.1049 -0.2602
H38 H 0.8088 0.1007 -0.2852
H39 H 0.5861 0.1049 -0.0283
H40 H 0.5200 0.0403 0.0438
H41 H 0.7605 0.1953 0.0955
H42 H 0.7062 0.1229 0.1656
H43 H 0.4665 -0.0310 0.1733
H44 H 0.5102 -0.0448 0.1138
H45 H 0.4364 0.0151 0.1185
H46 H 0.5724 0.0126 0.2399
H47 H 0.6090 0.0881 0.2279
H48 H 0.6697 0.0228 0.2140
loop_
_geom_bond_atom_site_label_1
_geom_bond_atom_site_label_2
_geom_bond_site_symmetry_1
_geom_bond_site_symmetry_2
Br1 C11 1_555 1_555
Br2 C34 1_555 1_555
O1 N1 1_555 1_555
O2 N1 1_555 1_555
O3 N2 1_555 1_555
O4 N2 1_555 1_555
O5 N3 1_555 1_555
O6 N3 1_555 1_555
N1 C22 1_555 1_555
N2 C39 1_555 1_555
N3 C45 1_555 1_555
N4 C52 1_555 1_555
N5 C59 1_555 1_555
C1 C2 1_555 1_555
C2 C3 1_555 1_555
C3 C4 1_555 1_555
C4 C5 1_555 1_555
C5 C6 1_555 1_555
C6 C7 1_555 1_555
C7 C8 1_555 1_555
C8 C4 1_555 1_555
C9 C8 1_555 1_555
C10 C11 1_555 1_555
C11 C12 1_555 1_555
C12 C13 1_555 1_555
C13 C14 1_555 1_555
C14 C15 1_555 1_555
C15 C16 1_555 1_555
C16 C17 1_555 1_555
C17 C18 1_555 1_555
C18 C13 1_555 1_555
C19 C12 1_555 1_555
C20 C19 1_555 1_555
C21 C20 1_555 1_555
C22 C21 1_555 1_555
C23 C22 1_555 1_555
C24 C19 1_555 1_555
C25 C52 1_555 1_555
C26 C1 1_555 1_555
C27 C26 1_555 1_555
C28 C27 1_555 1_555
C29 C28 1_555 1_555
C30 C29 1_555 1_555
C31 C30 1_555 1_555
C32 C28 1_555 1_555
C33 C9 1_555 1_555
C34 C33 1_555 1_555
C35 C34 1_555 1_555
C36 C35 1_555 1_555
C37 C36 1_555 1_555
C38 C37 1_555 1_555
C39 C38 1_555 1_555
C40 C39 1_555 1_555
C41 C36 1_555 1_555
C42 C35 1_555 1_555
C43 C42 1_555 1_555
C44 C43 1_555 1_555
C45 C44 1_555 1_555
C46 C45 1_555 1_555
C47 C42 1_555 1_555
C48 C1 1_555 1_555
C49 C48 1_555 1_555
C50 C49 1_555 1_555
C51 C50 1_555 1_555
C52 C51 1_555 1_555
C53 C25 1_555 1_555
C54 N4 1_555 1_555
C55 N4 1_555 1_555
C56 C48 1_555 1_555
C57 C56 1_555 1_555
C58 C57 1_555 1_555
C59 C58 1_555 1_555
C60 C56 1_555 1_555
C61 C59 1_555 1_555
C62 N5 1_555 1_555
C63 C10 1_555 1_555
C64 N5 1_555 1_555
N6 C16 1_555 1_555
O7 N6 1_555 1_555
O8 N6 1_555 1_555
H1 C5 1_555 1_555
H2 C5 1_555 1_555
H3 C6 1_555 1_555
H4 C6 1_555 1_555
H5 C7 1_555 1_555
H6 C7 1_555 1_555
H7 C14 1_555 1_555
H8 C15 1_555 1_555
H9 C17 1_555 1_555
H10 C18 1_555 1_555
H11 C20 1_555 1_555
H12 C21 1_555 1_555
H13 C23 1_555 1_555
H14 C24 1_555 1_555
H15 C25 1_555 1_555
H16 C29 1_555 1_555
H17 C29 1_555 1_555
H18 C30 1_555 1_555
H19 C30 1_555 1_555
H20 C31 1_555 1_555
H21 C31 1_555 1_555
H22 C37 1_555 1_555
H23 C38 1_555 1_555
H24 C40 1_555 1_555
H25 C41 1_555 1_555
H26 C43 1_555 1_555
H27 C44 1_555 1_555
H28 C46 1_555 1_555
H29 C47 1_555 1_555
H30 C50 1_555 1_555
H31 C51 1_555 1_555
H32 C53 1_555 1_555
H33 C54 1_555 1_555
H34 C54 1_555 1_555
H35 C54 1_555 1_555
H36 C55 1_555 1_555
H37 C55 1_555 1_555
H38 C55 1_555 1_555
H39 C57 1_555 1_555
H40 C58 1_555 1_555
H41 C60 1_555 1_555
H42 C61 1_555 1_555
H43 C62 1_555 1_555
H44 C62 1_555 1_555
H45 C62 1_555 1_555
H46 C64 1_555 1_555
H47 C64 1_555 1_555
H48 C64 1_555 1_555
C23 C24 1_555 1_555
C31 C32 1_555 1_555
C32 C63 1_555 1_555
C40 C41 1_555 1_555
C46 C47 1_555 1_555
C49 C53 1_555 1_555
C60 C61 1_555 1_555

#END
