
#######################################################################
#
#                 Cambridge Crystallographic Data Centre
#                                CCDC 
#
#######################################################################
#
# If this CIF has been generated from an entry in the Cambridge 
# Structural Database, then it will include bibliographic, chemical, 
# crystal, experimental, refinement or atomic coordinate data resulting 
# from the CCDC's data processing and validation procedures.
#
#######################################################################

data_SUXCAQ
_chemical_formula_moiety         'C31 H30 N2 O2'
_chemical_name_systematic        
3-(1-Benzyl-1H-indol-3-yl)-1-cyclohexyl-4-phenylpyrrolidine-2,5-dione
_symmetry_cell_setting           triclinic
_symmetry_space_group_name_H-M   'P -1'
_symmetry_Int_Tables_number      2
_space_group_name_Hall           '-P 1'
loop_
_symmetry_equiv_pos_site_id
_symmetry_equiv_pos_as_xyz
1 x,y,z
2 -x,-y,-z
_cell_length_a                   10.9632(6)
_cell_length_b                   11.3517(6)
_cell_length_c                   11.5312(6)
_cell_angle_alpha                106.660(4)
_cell_angle_beta                 104.051(4)
_cell_angle_gamma                107.982(4)
_cell_volume                     1218.19
_exptl_crystal_colour            colorless
_exptl_crystal_description       prism
_cell_formula_units_Z            2
loop_
_atom_site_label
_atom_site_type_symbol
_atom_site_fract_x
_atom_site_fract_y
_atom_site_fract_z
C1 C 0.19642(12) 0.59284(12) 0.20822(12)
H1 H 0.2349 0.5368 0.2361
C2 C 0.15260(11) 0.67627(11) 0.28105(11)
C3 C 0.10230(11) 0.74144(11) 0.20298(11)
C4 C 0.12092(11) 0.69246(11) 0.08388(11)
C5 C 0.08406(13) 0.73538(13) -0.01565(12)
H2 H 0.0975 0.7019 -0.0949
C6 C 0.02722(15) 0.82862(14) 0.00567(14)
H3 H 0.0011 0.8601 -0.0604
C7 C 0.00713(14) 0.87793(13) 0.12198(14)
H4 H -0.0321 0.9423 0.1335
C8 C 0.04297(12) 0.83525(12) 0.22010(12)
H5 H 0.0278 0.8688 0.2984
C9 C 0.00557(12) 0.62280(12) 0.40796(11)
C10 C 0.15124(12) 0.68989(11) 0.41372(11)
H6 H 0.2077 0.6450 0.4490
C11 C 0.20495(12) 0.83609(11) 0.51314(11)
H7 H 0.2302 0.8993 0.4693
C12 C 0.32715(12) 0.87513(11) 0.63263(11)
C13 C 0.45593(12) 0.96582(12) 0.65273(12)
H8 H 0.4674 1.0051 0.5915
C14 C 0.56794(13) 0.99964(13) 0.76106(12)
H9 H 0.6562 1.0609 0.7731
C15 C 0.55273(13) 0.94535(13) 0.85148(14)
H10 H 0.6298 0.9698 0.9266
C16 C 0.42538(12) 0.85541(14) 0.83260(13)
H11 H 0.4142 0.8177 0.8950
C17 C 0.31368(13) 0.81962(13) 0.72358(12)
H12 H 0.2263 0.7561 0.7107
C18 C -0.16148(12) 0.68249(12) 0.49882(12)
H13 H -0.2186 0.5857 0.4402
C19 C -0.14756(14) 0.69414(15) 0.63576(13)
H14 H -0.0895 0.7885 0.6973
H15 H -0.1019 0.6368 0.6587
C20 C -0.28818(17) 0.65065(18) 0.64739(17)
H16 H -0.3417 0.5532 0.5943
H17 H -0.2767 0.6658 0.7390
C21 C -0.36666(18) 0.72797(19) 0.60255(19)
H18 H -0.4603 0.6921 0.6047
H19 H -0.3195 0.8237 0.6633
C22 C -0.37761(16) 0.71847(18) 0.46715(18)
H20 H -0.4238 0.7755 0.4443
H21 H -0.4350 0.6243 0.4049
C23 C -0.23688(14) 0.76338(15) 0.45482(15)
H22 H -0.2482 0.7492 0.3634
H23 H -0.1826 0.8605 0.5091
C24 C 0.21469(12) 0.52728(12) -0.01224(12)
H24 H 0.1489 0.5092 -0.0976
H25 H 0.2046 0.4393 -0.0073
C25 C 0.35881(12) 0.59856(11) -0.00578(12)
C26 C 0.45930(13) 0.70792(12) 0.10199(12)
H26 H 0.4380 0.7426 0.1762
C27 C 0.59071(13) 0.76770(13) 0.10323(14)
H27 H 0.6587 0.8435 0.1776
C28 C 0.62261(14) 0.71729(14) -0.00329(16)
H28 H 0.7127 0.7580 -0.0027
C29 C 0.52342(15) 0.60748(15) -0.11084(15)
H29 H 0.5457 0.5720 -0.1842
C30 C 0.39229(13) 0.54875(13) -0.11287(13)
H30 H 0.3243 0.4737 -0.1880
C31 C 0.08233(13) 0.84388(12) 0.54898(12)
N1 N 0.17745(10) 0.60080(10) 0.08945(10)
N2 N -0.02673(10) 0.71752(10) 0.48449(10)
O1 O -0.07146(9) 0.50582(8) 0.34605(9)
O2 O 0.07854(10) 0.94154(9) 0.62118(10)
loop_
_geom_bond_atom_site_label_1
_geom_bond_atom_site_label_2
_geom_bond_site_symmetry_1
_geom_bond_site_symmetry_2
C1 H1 1_555 1_555
C2 C1 1_555 1_555
C3 C2 1_555 1_555
C4 C3 1_555 1_555
C5 C4 1_555 1_555
H2 C5 1_555 1_555
C6 C5 1_555 1_555
H3 C6 1_555 1_555
C7 C6 1_555 1_555
H4 C7 1_555 1_555
C8 C3 1_555 1_555
H5 C8 1_555 1_555
C9 C10 1_555 1_555
C10 C2 1_555 1_555
H6 C10 1_555 1_555
C11 C10 1_555 1_555
H7 C11 1_555 1_555
C12 C11 1_555 1_555
C13 C12 1_555 1_555
H8 C13 1_555 1_555
C14 C13 1_555 1_555
H9 C14 1_555 1_555
C15 C14 1_555 1_555
H10 C15 1_555 1_555
C16 C15 1_555 1_555
H11 C16 1_555 1_555
C17 C12 1_555 1_555
H12 C17 1_555 1_555
C18 H13 1_555 1_555
C19 C18 1_555 1_555
H14 C19 1_555 1_555
H15 C19 1_555 1_555
C20 C19 1_555 1_555
H16 C20 1_555 1_555
H17 C20 1_555 1_555
C21 C20 1_555 1_555
H18 C21 1_555 1_555
H19 C21 1_555 1_555
C22 C21 1_555 1_555
H20 C22 1_555 1_555
H21 C22 1_555 1_555
C23 C18 1_555 1_555
H22 C23 1_555 1_555
H23 C23 1_555 1_555
C24 H24 1_555 1_555
H25 C24 1_555 1_555
C25 C24 1_555 1_555
C26 C25 1_555 1_555
H26 C26 1_555 1_555
C27 C26 1_555 1_555
H27 C27 1_555 1_555
C28 C27 1_555 1_555
H28 C28 1_555 1_555
C29 C28 1_555 1_555
H29 C29 1_555 1_555
C30 C25 1_555 1_555
H30 C30 1_555 1_555
C31 C11 1_555 1_555
N1 C1 1_555 1_555
N2 C9 1_555 1_555
O1 C9 1_555 1_555
O2 C31 1_555 1_555
C4 N1 1_555 1_555
C7 C8 1_555 1_555
C16 C17 1_555 1_555
C18 N2 1_555 1_555
C22 C23 1_555 1_555
C24 N1 1_555 1_555
C29 C30 1_555 1_555
C31 N2 1_555 1_555

#END
