
#######################################################################
#
#                 Cambridge Crystallographic Data Centre
#                                CCDC 
#
#######################################################################
#
# If this CIF has been generated from an entry in the Cambridge 
# Structural Database, then it will include bibliographic, chemical, 
# crystal, experimental, refinement or atomic coordinate data resulting 
# from the CCDC's data processing and validation procedures.
#
#######################################################################

data_SUXFEY
_chemical_formula_moiety         'C16 H14 O2'
_chemical_name_systematic        1-methoxy-5,7-dimethyl-9H-fluoren-9-one
_symmetry_cell_setting           monoclinic
_symmetry_space_group_name_H-M   'C 2/c'
_symmetry_Int_Tables_number      15
_space_group_name_Hall           '-C 2yn'
loop_
_symmetry_equiv_pos_site_id
_symmetry_equiv_pos_as_xyz
1 x,y,z
2 -x,y,1/2-z
3 1/2+x,1/2+y,z
4 1/2-x,1/2+y,1/2-z
5 -x,-y,-z
6 x,-y,1/2+z
7 1/2-x,1/2-y,-z
8 1/2+x,1/2-y,1/2+z
_cell_length_a                   13.8731(10)
_cell_length_b                   8.1105(5)
_cell_length_c                   23.2586(18)
_cell_angle_alpha                90
_cell_angle_beta                 111.782(9)
_cell_angle_gamma                90
_cell_volume                     2430.16
_exptl_crystal_colour            orange
_cell_formula_units_Z            8
loop_
_atom_site_label
_atom_site_type_symbol
_atom_site_fract_x
_atom_site_fract_y
_atom_site_fract_z
O1 O 0.38162(10) 0.47606(17) 0.26661(6)
O2 O 0.51104(10) 0.28676(16) 0.37514(6)
C1 C 0.35516(12) 0.3992(2) 0.45930(8)
C2 C 0.44122(13) 0.3155(2) 0.45581(8)
C3 C 0.44533(13) 0.3408(2) 0.39330(8)
C4 C 0.34060(13) 0.4042(2) 0.51536(8)
C5 C 0.29727(13) 0.4735(2) 0.39748(8)
C6 C 0.41082(14) 0.3151(2) 0.56472(8)
H1 H 0.4009 0.3148 0.6030
C7 C 0.35248(13) 0.4420(2) 0.35877(8)
C8 C 0.31897(14) 0.5035(2) 0.29871(8)
C9 C 0.49426(13) 0.2269(2) 0.56094(8)
C10 C 0.50981(13) 0.2299(2) 0.50513(8)
H2 H 0.5670 0.1735 0.5012
C11 C 0.20415(14) 0.5599(2) 0.37493(9)
H3 H 0.1655 0.5809 0.4004
C12 C 0.25618(15) 0.5024(2) 0.52519(9)
H4 H 0.2639 0.6191 0.5168
H5 H 0.2612 0.4895 0.5681
H6 H 0.1884 0.4627 0.4970
C13 C 0.22467(15) 0.5893(2) 0.27573(9)
H7 H 0.1989 0.6296 0.2344
C14 C 0.16929(14) 0.6146(2) 0.31378(9)
H8 H 0.1050 0.6717 0.2975
C15 C 0.56584(15) 0.1323(2) 0.61574(9)
H9 H 0.6359 0.1787 0.6287
H10 H 0.5673 0.0164 0.6043
H11 H 0.5409 0.1403 0.6499
C16 C 0.35374(18) 0.5486(3) 0.20676(9)
H12 H 0.2852 0.5085 0.1799
H13 H 0.4051 0.5182 0.1889
H14 H 0.3518 0.6688 0.2103
loop_
_geom_bond_atom_site_label_1
_geom_bond_atom_site_label_2
_geom_bond_site_symmetry_1
_geom_bond_site_symmetry_2
O1 C8 1_555 1_555
O2 C3 1_555 1_555
C1 C2 1_555 1_555
C2 C3 1_555 1_555
C3 C7 1_555 1_555
C4 C1 1_555 1_555
C5 C1 1_555 1_555
C6 C4 1_555 1_555
H1 C6 1_555 1_555
C7 C5 1_555 1_555
C8 C7 1_555 1_555
C9 C6 1_555 1_555
C10 C2 1_555 1_555
H2 C10 1_555 1_555
C11 C5 1_555 1_555
H3 C11 1_555 1_555
C12 C4 1_555 1_555
H4 C12 1_555 1_555
H5 C12 1_555 1_555
H6 C12 1_555 1_555
C13 C8 1_555 1_555
H7 C13 1_555 1_555
C14 C11 1_555 1_555
H8 C14 1_555 1_555
C15 C9 1_555 1_555
H9 C15 1_555 1_555
H10 C15 1_555 1_555
H11 C15 1_555 1_555
C16 O1 1_555 1_555
H12 C16 1_555 1_555
H13 C16 1_555 1_555
H14 C16 1_555 1_555
C9 C10 1_555 1_555
C13 C14 1_555 1_555

#END
