
#######################################################################
#
#                 Cambridge Crystallographic Data Centre
#                                CCDC 
#
#######################################################################
#
# If this CIF has been generated from an entry in the Cambridge 
# Structural Database, then it will include bibliographic, chemical, 
# crystal, experimental, refinement or atomic coordinate data resulting 
# from the CCDC's data processing and validation procedures.
#
#######################################################################

data_SUXMEF
_chemical_formula_moiety         'C34 H26 N2 O1'
_chemical_name_systematic        
3-(4'-(Diphenylamino)biphenyl-4-yl)-2-(4-methoxyphenyl)acrylonitrile
_symmetry_cell_setting           monoclinic
_symmetry_space_group_name_H-M   'P 21/c'
_symmetry_Int_Tables_number      14
_space_group_name_Hall           '-P 2ybc'
loop_
_symmetry_equiv_pos_site_id
_symmetry_equiv_pos_as_xyz
1 x,y,z
2 -x,1/2+y,1/2-z
3 -x,-y,-z
4 x,1/2-y,1/2+z
_cell_length_a                   21.031(3)
_cell_length_b                   6.0833(8)
_cell_length_c                   21.443(3)
_cell_angle_alpha                90
_cell_angle_beta                 109.880(2)
_cell_angle_gamma                90
_cell_volume                     2579.89
_exptl_crystal_colour            yellow
_exptl_crystal_description       sheet
_cell_formula_units_Z            4
_exptl_crystal_preparation       Luminescent
loop_
_atom_site_label
_atom_site_type_symbol
_atom_site_fract_x
_atom_site_fract_y
_atom_site_fract_z
C1 C 0.24153(9) 0.9629(3) 0.29290(9)
C2 C 0.28999(9) 0.9918(3) 0.25684(9)
C3 C 0.20937(9) 0.7617(3) 0.29250(10)
H1 H 0.2148 0.6494 0.2653
C4 C 0.16000(9) 0.8895(3) 0.37197(9)
O1 O 0.68006(7) 1.1023(3) 0.03500(8)
N1 N 0.12249(8) 0.8468(3) 0.41437(8)
C5 C 0.18807(9) 1.0937(3) 0.36990(9)
H2 H 0.1795 1.2091 0.3944
C6 C 0.52281(9) 0.9562(3) 0.10505(9)
C7 C 0.46649(9) 0.9073(3) 0.12982(9)
C8 C 0.16976(10) 0.7244(3) 0.33119(10)
H3 H 0.1494 0.5879 0.3300
C9 C 0.14213(9) 0.9372(3) 0.47897(9)
C10 C 0.62836(9) 1.0432(4) 0.05631(9)
C11 C 0.22861(10) 1.1286(3) 0.33194(9)
H4 H 0.2479 1.2665 0.3324
C12 C 0.39032(10) 1.0195(4) 0.19580(9)
C13 C 0.20981(9) 0.9732(4) 0.51591(10)
H5 H 0.2432 0.9318 0.4989
C14 C 0.54193(10) 0.8050(4) 0.06603(10)
H6 H 0.5190 0.6719 0.0559
C15 C 0.06203(9) 0.7190(4) 0.38953(9)
C16 C 0.59385(10) 0.8456(4) 0.04172(10)
H7 H 0.6055 0.7411 0.0158
C17 C 0.33618(10) 1.1605(4) 0.27062(11)
H8 H 0.3349 1.2678 0.3011
C18 C 0.55862(10) 1.1549(4) 0.11882(11)
H9 H 0.5474 1.2600 0.1448
C19 C 0.44516(10) 1.0428(4) 0.16850(10)
H10 H 0.4694 1.1734 0.1798
C20 C 0.38453(10) 1.1745(4) 0.24022(11)
H11 H 0.4142 1.2931 0.2502
C21 C 0.60993(10) 1.1967(4) 0.09456(11)
H12 H 0.6327 1.3304 0.1040
C22 C 0.09402(10) 0.9934(4) 0.50705(10)
H13 H 0.0485 0.9682 0.4835
C23 C 0.43429(11) 0.6986(4) 0.10937(12)
C24 C 0.29094(14) 0.8482(5) 0.20713(14)
H14 H 0.2580 0.7396 0.1935
C25 C 0.70212(12) 0.9456(4) -0.00227(12)
H15 H 0.7151 0.8125 0.0230
H16 H 0.7402 1.0033 -0.0120
H17 H 0.6660 0.9149 -0.0429
C26 C 0.22759(11) 1.0703(4) 0.57781(10)
H18 H 0.2729 1.0968 0.6016
C27 C 0.17911(12) 1.1281(4) 0.60460(11)
H19 H 0.1913 1.1946 0.6461
C28 C 0.33918(14) 0.8614(5) 0.17726(14)
H20 H 0.3377 0.7623 0.1438
C29 C 0.11244(12) 1.0861(4) 0.56924(12)
H21 H 0.0794 1.1206 0.5875
C30 C 0.01376(11) 0.7695(5) 0.32989(11)
H22 H 0.0199 0.8886 0.3054
N2 N 0.40999(13) 0.5296(4) 0.09224(14)
C31 C -0.04456(13) 0.6418(7) 0.30606(13)
H23 H -0.0769 0.6744 0.2652
C32 C 0.05177(12) 0.5428(4) 0.42540(13)
H24 H 0.0843 0.5057 0.4657
C33 C -0.05449(16) 0.4700(6) 0.34227(19)
H25 H -0.0937 0.3864 0.3265
C34 C -0.00706(16) 0.4216(5) 0.40119(19)
H26 H -0.0141 0.3045 0.4259
loop_
_geom_bond_atom_site_label_1
_geom_bond_atom_site_label_2
_geom_bond_site_symmetry_1
_geom_bond_site_symmetry_2
C1 C2 1_555 1_555
C2 C17 1_555 1_555
C3 C1 1_555 1_555
H1 C3 1_555 1_555
C4 N1 1_555 1_555
O1 C10 1_555 1_555
N1 C9 1_555 1_555
C5 C4 1_555 1_555
H2 C5 1_555 1_555
C6 C7 1_555 1_555
C7 C19 1_555 1_555
C8 C3 1_555 1_555
H3 C8 1_555 1_555
C9 C13 1_555 1_555
C10 C16 1_555 1_555
C11 C1 1_555 1_555
H4 C11 1_555 1_555
C12 C19 1_555 1_555
C13 H5 1_555 1_555
C14 C6 1_555 1_555
H6 C14 1_555 1_555
C15 N1 1_555 1_555
C16 C14 1_555 1_555
H7 C16 1_555 1_555
C17 H8 1_555 1_555
C18 C6 1_555 1_555
H9 C18 1_555 1_555
C19 H10 1_555 1_555
C20 C12 1_555 1_555
H11 C20 1_555 1_555
C21 C10 1_555 1_555
H12 C21 1_555 1_555
C22 C9 1_555 1_555
H13 C22 1_555 1_555
C23 C7 1_555 1_555
C24 C2 1_555 1_555
H14 C24 1_555 1_555
C25 O1 1_555 1_555
H15 C25 1_555 1_555
H16 C25 1_555 1_555
H17 C25 1_555 1_555
C26 C13 1_555 1_555
H18 C26 1_555 1_555
C27 C26 1_555 1_555
H19 C27 1_555 1_555
C28 C12 1_555 1_555
H20 C28 1_555 1_555
C29 C22 1_555 1_555
H21 C29 1_555 1_555
C30 C15 1_555 1_555
H22 C30 1_555 1_555
N2 C23 1_555 1_555
C31 C30 1_555 1_555
H23 C31 1_555 1_555
C32 C15 1_555 1_555
H24 C32 1_555 1_555
C33 C31 1_555 1_555
H25 C33 1_555 1_555
C34 C32 1_555 1_555
H26 C34 1_555 1_555
C4 C8 1_555 1_555
C5 C11 1_555 1_555
C17 C20 1_555 1_555
C18 C21 1_555 1_555
C24 C28 1_555 1_555
C27 C29 1_555 1_555
C33 C34 1_555 1_555

#END
