
#######################################################################
#
#                 Cambridge Crystallographic Data Centre
#                                CCDC 
#
#######################################################################
#
# If this CIF has been generated from an entry in the Cambridge 
# Structural Database, then it will include bibliographic, chemical, 
# crystal, experimental, refinement or atomic coordinate data resulting 
# from the CCDC's data processing and validation procedures.
#
#######################################################################

data_SUXZOC
_chemical_name_common            
'(4-((3-(ethoxycarbonyl)adamantane-1-carbonyl)oxy)-2,2,6,6-tetramethylpiperidin-1-yl)oxidanyl radical'
_chemical_formula_moiety         'C23 H36 N1 O5'
_chemical_name_systematic        
'(4-((3-(ethoxycarbonyl)tricyclo[3.3.1.1^3,7^]decane-1-carbonyl)oxy)-2,2,6,6-tetramethylpiperidin-1-yl)oxidanyl radical'
_symmetry_cell_setting           orthorhombic
_symmetry_space_group_name_H-M   'P 21 21 21'
_symmetry_Int_Tables_number      19
_space_group_name_Hall           'P 2ac 2ab'
loop_
_symmetry_equiv_pos_site_id
_symmetry_equiv_pos_as_xyz
1 x,y,z
2 1/2-x,-y,1/2+z
3 -x,1/2+y,1/2-z
4 1/2+x,1/2-y,-z
_cell_length_a                   6.2956(9)
_cell_length_b                   15.077(2)
_cell_length_c                   24.161(4)
_cell_angle_alpha                90
_cell_angle_beta                 90
_cell_angle_gamma                90
_cell_volume                     2293.33
_cell_formula_units_Z            4
loop_
_atom_site_label
_atom_site_type_symbol
_atom_site_fract_x
_atom_site_fract_y
_atom_site_fract_z
N1 N 0.6836(4) 0.21370(14) 0.27397(9)
O1 O 0.0419(4) 0.0659(2) -0.07491(10)
O2 O -0.2568(5) 0.0833(2) -0.03058(10)
O3 O 0.0036(4) 0.0394(3) 0.20030(12)
O4 O 0.3053(3) 0.07471(15) 0.16245(8)
O5 O 0.8112(5) 0.25576(15) 0.30553(10)
C1 C -0.4842(10) 0.2005(3) -0.0478(2)
H1 H -0.6080 0.1662 -0.0389
H2 H -0.5218 0.2464 -0.0735
H3 H -0.4284 0.2268 -0.0146
C2 C -0.3326(10) 0.1462(4) -0.0712(2)
H4 H -0.2149 0.1818 -0.0845
H5 H -0.3932 0.1147 -0.1024
C3 C -0.0684(5) 0.0480(2) -0.03682(11)
C4 C -0.0135(4) -0.01464(17) 0.00981(9)
C5 C 0.1884(4) -0.0676(2) -0.00363(10)
H6 H 0.1664 -0.1024 -0.0369
H7 H 0.3057 -0.0272 -0.0102
C6 C 0.2411(4) -0.12844(19) 0.04438(10)
H8 H 0.3691 -0.1624 0.0353
C7 C 0.2830(4) -0.07373(19) 0.09671(10)
H9 H 0.4007 -0.0335 0.0904
H10 H 0.3202 -0.1128 0.1271
C8 C 0.0827(4) -0.02084(16) 0.11139(9)
C9 C 0.0270(4) 0.04025(16) 0.06257(10)
H11 H 0.1429 0.0814 0.0561
H12 H -0.0989 0.0745 0.0715
C10 C -0.1973(4) -0.07895(18) 0.02095(9)
H13 H -0.3250 -0.0458 0.0297
H14 H -0.2247 -0.1142 -0.0118
C11 C -0.1402(4) -0.13974(17) 0.06932(11)
H15 H -0.2579 -0.1809 0.0760
C12 C 0.0592(5) -0.19257(19) 0.05529(13)
H16 H 0.0341 -0.2288 0.0228
H17 H 0.0953 -0.2315 0.0858
C13 C -0.1018(4) -0.08435(18) 0.12141(10)
H18 H -0.2288 -0.0510 0.1305
H19 H -0.0691 -0.1231 0.1523
C14 C 0.1199(4) 0.03536(19) 0.16217(11)
C15 C 0.3655(5) 0.13102(17) 0.20859(11)
H20 H 0.2406 0.1589 0.2254
C16 C 0.4870(5) 0.07742(17) 0.25038(11)
H21 H 0.6021 0.0468 0.2317
H22 H 0.3933 0.0328 0.2659
C17 C 0.5796(5) 0.13338(17) 0.29768(10)
C18 C 0.5967(5) 0.26445(18) 0.22643(11)
C19 C 0.5094(5) 0.19864(19) 0.18379(11)
H23 H 0.4325 0.2311 0.1555
H24 H 0.6274 0.1687 0.1660
C20 C 0.4089(7) 0.1616(3) 0.33881(13)
H25 H 0.4693 0.2015 0.3655
H26 H 0.3544 0.1102 0.3575
H27 H 0.2957 0.1908 0.3194
C21 C 0.7498(7) 0.0807(2) 0.32720(13)
H28 H 0.8670 0.0709 0.3025
H29 H 0.6926 0.0247 0.3388
H30 H 0.7979 0.1132 0.3590
C22 C 0.4260(6) 0.3289(2) 0.24683(16)
H31 H 0.3043 0.2961 0.2593
H32 H 0.3851 0.3676 0.2171
H33 H 0.4814 0.3635 0.2769
C23 C 0.7791(7) 0.3166(2) 0.20094(16)
H34 H 0.8343 0.3576 0.2277
H35 H 0.7287 0.3487 0.1692
H36 H 0.8895 0.2765 0.1898
loop_
_geom_bond_atom_site_label_1
_geom_bond_atom_site_label_2
_geom_bond_site_symmetry_1
_geom_bond_site_symmetry_2
N1 O5 1_555 1_555
O1 C3 1_555 1_555
O2 C2 1_555 1_555
O3 C14 1_555 1_555
O4 C14 1_555 1_555
C1 H1 1_555 1_555
H2 C1 1_555 1_555
H3 C1 1_555 1_555
C2 C1 1_555 1_555
H4 C2 1_555 1_555
H5 C2 1_555 1_555
C3 O2 1_555 1_555
C4 C3 1_555 1_555
C5 C4 1_555 1_555
H6 C5 1_555 1_555
H7 C5 1_555 1_555
C6 C5 1_555 1_555
H8 C6 1_555 1_555
C7 C6 1_555 1_555
H9 C7 1_555 1_555
H10 C7 1_555 1_555
C8 C7 1_555 1_555
C9 C4 1_555 1_555
H11 C9 1_555 1_555
H12 C9 1_555 1_555
C10 C4 1_555 1_555
H13 C10 1_555 1_555
H14 C10 1_555 1_555
C11 C10 1_555 1_555
H15 C11 1_555 1_555
C12 C6 1_555 1_555
H16 C12 1_555 1_555
H17 C12 1_555 1_555
C13 C8 1_555 1_555
H18 C13 1_555 1_555
H19 C13 1_555 1_555
C14 C8 1_555 1_555
C15 O4 1_555 1_555
H20 C15 1_555 1_555
C16 C15 1_555 1_555
H21 C16 1_555 1_555
H22 C16 1_555 1_555
C17 N1 1_555 1_555
C18 N1 1_555 1_555
C19 C15 1_555 1_555
H23 C19 1_555 1_555
H24 C19 1_555 1_555
C20 C17 1_555 1_555
H25 C20 1_555 1_555
H26 C20 1_555 1_555
H27 C20 1_555 1_555
C21 C17 1_555 1_555
H28 C21 1_555 1_555
H29 C21 1_555 1_555
H30 C21 1_555 1_555
C22 C18 1_555 1_555
H31 C22 1_555 1_555
H32 C22 1_555 1_555
H33 C22 1_555 1_555
C23 C18 1_555 1_555
H34 C23 1_555 1_555
H35 C23 1_555 1_555
H36 C23 1_555 1_555
C8 C9 1_555 1_555
C11 C12 1_555 1_555
C11 C13 1_555 1_555
C16 C17 1_555 1_555
C18 C19 1_555 1_555

#END
