
#######################################################################
#
#                 Cambridge Crystallographic Data Centre
#                                CCDC 
#
#######################################################################
#
# If this CIF has been generated from an entry in the Cambridge 
# Structural Database, then it will include bibliographic, chemical, 
# crystal, experimental, refinement or atomic coordinate data resulting 
# from the CCDC's data processing and validation procedures.
#
#######################################################################

data_SUYLEE
_chemical_formula_moiety         'C14 H18 Mg2 N2 O14'
_chemical_name_systematic        
bis(\m~2~-pyridine-2,4-dicarboxylato)-bis[triaqua-magnesium(ii)]
_symmetry_cell_setting           orthorhombic
_symmetry_space_group_name_H-M   'P b c a'
_symmetry_Int_Tables_number      61
_space_group_name_Hall           '-P 2ac 2ab'
loop_
_symmetry_equiv_pos_site_id
_symmetry_equiv_pos_as_xyz
1 x,y,z
2 1/2-x,-y,1/2+z
3 1/2+x,1/2-y,-z
4 -x,1/2+y,1/2-z
5 -x,-y,-z
6 1/2+x,y,1/2-z
7 1/2-x,1/2+y,z
8 x,1/2-y,1/2+z
_cell_length_a                   7.9221(8)
_cell_length_b                   12.0951(12)
_cell_length_c                   20.2989(18)
_cell_angle_alpha                90
_cell_angle_beta                 90
_cell_angle_gamma                90
_cell_volume                     1945.01
_exptl_crystal_colour            colorless
_exptl_crystal_description       block
_cell_formula_units_Z            4
loop_
_atom_site_label
_atom_site_type_symbol
_atom_site_fract_x
_atom_site_fract_y
_atom_site_fract_z
Mg1 Mg 0.07954(11) 0.60169(7) 0.04323(3)
O1 O -0.0075(2) 0.43818(14) 0.05141(7)
O2 O -0.0923(4) 0.30663(19) 0.12021(10)
O3 O -0.0102(4) 0.3649(2) 0.35781(9)
H1 H 0.1178 0.8068 0.0765
H2 H -0.1892 0.7246 0.0848
H3 H -0.2377 0.6193 0.0826
H4 H 0.3503 0.5401 -0.0194
H5 H 0.4054 0.5600 0.0457
H6 H 0.2174 0.8016 0.0211
O4 O 0.1026(2) 0.51899(15) 0.39638(8)
O5 O -0.1604(2) 0.66298(14) 0.06670(8)
O6 O 0.1539(3) 0.76106(16) 0.04659(9)
O7 O 0.3209(2) 0.56088(17) 0.01937(8)
N1 N 0.1126(3) 0.56101(17) 0.14911(9)
C1 C -0.0232(4) 0.3941(2) 0.10852(11)
C2 C 0.0461(3) 0.4620(2) 0.16485(11)
C3 C 0.0314(3) 0.4258(2) 0.22895(11)
H7 H -0.0135 0.3564 0.2378
C4 C 0.0838(3) 0.4934(2) 0.28011(11)
C5 C 0.0576(4) 0.4556(2) 0.35037(12)
C6 C 0.1530(4) 0.5952(2) 0.26430(11)
H8 H 0.1902 0.6426 0.2973
C7 C 0.1660(4) 0.6255(2) 0.19836(11)
H9 H 0.2139 0.6935 0.1881
Mg1D Mg -0.07954(11) 0.39831(7) -0.04323(3)
O1D O 0.0075(2) 0.56182(14) -0.05141(7)
O2D O 0.0923(4) 0.69337(19) -0.12021(10)
O3D O 0.0102(4) 0.6351(2) -0.35781(9)
H1D H -0.1178 0.1932 -0.0765
H2D H 0.1892 0.2754 -0.0848
H3D H 0.2377 0.3807 -0.0826
H4D H -0.3503 0.4599 0.0194
H5D H -0.4054 0.4400 -0.0457
H6D H -0.2174 0.1984 -0.0211
O4D O -0.1026(2) 0.48101(15) -0.39638(8)
O5D O 0.1604(2) 0.33702(14) -0.06670(8)
O6D O -0.1539(3) 0.23894(16) -0.04659(9)
O7D O -0.3209(2) 0.43912(17) -0.01937(8)
N1D N -0.1126(3) 0.43899(17) -0.14911(9)
C1D C 0.0232(4) 0.6059(2) -0.10852(11)
C2D C -0.0461(3) 0.5380(2) -0.16485(11)
C3D C -0.0314(3) 0.5742(2) -0.22895(11)
H7D H 0.0135 0.6436 -0.2378
C4D C -0.0838(3) 0.5066(2) -0.28011(11)
C5D C -0.0576(4) 0.5444(2) -0.35037(12)
C6D C -0.1530(4) 0.4048(2) -0.26430(11)
H8D H -0.1902 0.3574 -0.2973
C7D C -0.1660(4) 0.3745(2) -0.19836(11)
H9D H -0.2139 0.3065 -0.1881
loop_
_geom_bond_atom_site_label_1
_geom_bond_atom_site_label_2
_geom_bond_site_symmetry_1
_geom_bond_site_symmetry_2
Mg1 O1 1_555 1_555
O1 C1 1_555 1_555
O2 C1 1_555 1_555
O3 C5 1_555 1_555
H1 O6 1_555 1_555
H2 O5 1_555 1_555
H3 O5 1_555 1_555
H4 O7 1_555 1_555
H5 O7 1_555 1_555
H6 O6 1_555 1_555
O4 C5 1_555 1_555
O5 Mg1 1_555 1_555
O6 Mg1 1_555 1_555
O7 Mg1 1_555 1_555
N1 Mg1 1_555 1_555
C1 C2 1_555 1_555
C2 N1 1_555 1_555
C3 C2 1_555 1_555
H7 C3 1_555 1_555
C4 C3 1_555 1_555
C5 C4 1_555 1_555
C6 C4 1_555 1_555
H8 C6 1_555 1_555
C7 N1 1_555 1_555
H9 C7 1_555 1_555
Mg1D O1 1_555 1_555
O1D Mg1 1_555 1_555
O2D C1D 1_555 1_555
O3D C5D 1_555 1_555
H1D O6D 1_555 1_555
H2D O5D 1_555 1_555
H3D O5D 1_555 1_555
H4D O7D 1_555 1_555
H5D O7D 1_555 1_555
H6D O6D 1_555 1_555
O4D C5D 1_555 1_555
O5D Mg1D 1_555 1_555
O6D Mg1D 1_555 1_555
O7D Mg1D 1_555 1_555
N1D Mg1D 1_555 1_555
C1D O1D 1_555 1_555
C2D N1D 1_555 1_555
C3D C2D 1_555 1_555
H7D C3D 1_555 1_555
C4D C3D 1_555 1_555
C5D C4D 1_555 1_555
C6D C4D 1_555 1_555
H8D C6D 1_555 1_555
C7D N1D 1_555 1_555
H9D C7D 1_555 1_555
C6 C7 1_555 1_555
Mg1D O1D 1_555 1_555
C1D C2D 1_555 1_555
C6D C7D 1_555 1_555

#END
