
#######################################################################
#
#                 Cambridge Crystallographic Data Centre
#                                CCDC 
#
#######################################################################
#
# If this CIF has been generated from an entry in the Cambridge 
# Structural Database, then it will include bibliographic, chemical, 
# crystal, experimental, refinement or atomic coordinate data resulting 
# from the CCDC's data processing and validation procedures.
#
#######################################################################

data_SUYLIJ
_chemical_compound_source        'Pestalotiopsis sp.'
_chemical_name_common            '4-O-methylpestalactam A'
_chemical_formula_moiety         'C11 H14 Cl1 N1 O4'
_chemical_name_systematic        
3-chloro-7-(2-hydroxy-2-methylpropyl)-4-methoxy-1H-azepine-2,5-dione
_chemical_properties_biological  'antifungal activity'
_symmetry_cell_setting           triclinic
_symmetry_space_group_name_H-M   'P -1'
_symmetry_Int_Tables_number      2
_space_group_name_Hall           '-P 1'
loop_
_symmetry_equiv_pos_site_id
_symmetry_equiv_pos_as_xyz
1 x,y,z
2 -x,-y,-z
_cell_length_a                   5.358(3)
_cell_length_b                   11.117(4)
_cell_length_c                   11.152(3)
_cell_angle_alpha                105.26(2)
_cell_angle_beta                 102.96(3)
_cell_angle_gamma                101.80(3)
_cell_volume                     599.487
_exptl_crystal_colour            red
_exptl_crystal_description       needles
_chemical_melting_point          'above 453 K'
_cell_formula_units_Z            2
_exptl_crystal_recrystallization_method methanol
loop_
_atom_site_label
_atom_site_type_symbol
_atom_site_fract_x
_atom_site_fract_y
_atom_site_fract_z
Cl1 Cl -0.37887(16) 0.66991(7) -0.36078(7)
O1 O -0.2180(4) 0.87858(16) -0.12888(17)
O2 O -0.1411(4) 0.47720(18) -0.3373(2)
O3 O 0.1431(5) 0.44991(18) -0.1169(2)
O4 O 0.2894(4) 0.9479(2) 0.27592(19)
N1 N 0.1434(4) 0.8463(2) -0.0143(2)
C1 C -0.0753(5) 0.8049(2) -0.1192(2)
C2 C -0.1365(5) 0.6815(2) -0.2230(2)
C3 C -0.0379(5) 0.5783(2) -0.2265(2)
C4 C 0.1519(6) 0.5615(2) -0.1151(3)
C5 C 0.3501(5) 0.6709(2) -0.0150(2)
C6 C 0.3471(5) 0.7952(2) 0.0293(2)
C7 C 0.5742(5) 0.8950(2) 0.1384(2)
C8 C 0.5404(5) 0.9225(3) 0.2762(2)
C9 C 0.7617(6) 1.0421(3) 0.3677(3)
C10 C 0.5445(9) 0.8076(3) 0.3225(3)
C11 C 0.0181(8) 0.3974(3) -0.3842(4)
H1 H 0.165(5) 0.922(3) 0.032(3)
H2 H 0.50330 0.65270 0.02500
H3 H 0.60250 0.97600 0.11900
H4 H 0.73440 0.86700 0.13950
H5 H 0.28120 1.01080 0.25140
H6 H 0.74420 1.11600 0.34080
H7 H 0.93170 1.02810 0.36530
H8 H 0.74880 1.05770 0.45460
H9 H 0.54160 0.83020 0.41130
H10 H 0.70360 0.78260 0.31640
H11 H 0.39090 0.73650 0.26930
H12 H 0.20360 0.44220 -0.34200
H13 H -0.01810 0.37910 -0.47640
H14 H -0.02450 0.31740 -0.36550
loop_
_geom_bond_atom_site_label_1
_geom_bond_atom_site_label_2
_geom_bond_site_symmetry_1
_geom_bond_site_symmetry_2
Cl1 C2 1_555 1_555
O1 C1 1_555 1_555
O2 C3 1_555 1_555
O3 C4 1_555 1_555
O4 C8 1_555 1_555
N1 C1 1_555 1_555
C1 C2 1_555 1_555
C2 C3 1_555 1_555
C3 C4 1_555 1_555
C4 C5 1_555 1_555
C5 C6 1_555 1_555
C6 N1 1_555 1_555
C7 C6 1_555 1_555
C8 C7 1_555 1_555
C9 C8 1_555 1_555
C10 C8 1_555 1_555
C11 O2 1_555 1_555
H1 N1 1_555 1_555
H2 C5 1_555 1_555
H3 C7 1_555 1_555
H4 C7 1_555 1_555
H5 O4 1_555 1_555
H6 C9 1_555 1_555
H7 C9 1_555 1_555
H8 C9 1_555 1_555
H9 C10 1_555 1_555
H10 C10 1_555 1_555
H11 C10 1_555 1_555
H12 C11 1_555 1_555
H13 C11 1_555 1_555
H14 C11 1_555 1_555

#END
