
#######################################################################
#
#                 Cambridge Crystallographic Data Centre
#                                CCDC 
#
#######################################################################
#
# If this CIF has been generated from an entry in the Cambridge 
# Structural Database, then it will include bibliographic, chemical, 
# crystal, experimental, refinement or atomic coordinate data resulting 
# from the CCDC's data processing and validation procedures.
#
#######################################################################

data_SUYPEJ
_chemical_formula_moiety         'C15 H28 O3,0.5(H2 O1)'
_chemical_name_systematic        
'3-Isopropyl-5,8a-dimethyldecahydroazulene-4,5,8-triol hemihydrate'
_symmetry_cell_setting           monoclinic
_symmetry_space_group_name_H-M   'P 21'
_symmetry_Int_Tables_number      4
_space_group_name_Hall           'P 2yb'
loop_
_symmetry_equiv_pos_site_id
_symmetry_equiv_pos_as_xyz
1 x,y,z
2 -x,1/2+y,-z
_cell_length_a                   7.1531(5)
_cell_length_b                   19.0058(17)
_cell_length_c                   11.4810(9)
_cell_angle_alpha                90
_cell_angle_beta                 96.341(2)
_cell_angle_gamma                90
_cell_volume                     1551.3
_exptl_crystal_colour            colorless
_exptl_crystal_description       block
_cell_formula_units_Z            4
loop_
_atom_site_label
_atom_site_type_symbol
_atom_site_fract_x
_atom_site_fract_y
_atom_site_fract_z
O1 O 0.5966(6) 0.4105(4) 1.0730(5)
H1 H 0.6247 0.4002 1.1421
O2 O 0.9797(6) 0.4115(3) 0.7222(5)
H2 H 1.0582 0.4377 0.6983
O3 O 1.2014(6) 0.4041(3) 1.0265(4)
H3 H 1.3164 0.4069 1.0371
C1 C 0.7671(9) 0.4115(5) 1.0124(7)
H4 H 0.8691 0.3896 1.0639
C2 C 0.7314(9) 0.3672(5) 0.9032(7)
H5 H 0.6800 0.3969 0.8388
H6 H 0.6380 0.3317 0.9154
C3 C 0.9102(10) 0.3303(5) 0.8689(8)
H7 H 0.9663 0.3036 0.9358
H8 H 0.8729 0.2970 0.8065
C4 C 1.0581(9) 0.3786(5) 0.8289(7)
C5 C 1.1348(9) 0.4359(4) 0.9168(7)
H9 H 1.2465 0.4550 0.8858
C6 C 1.0039(8) 0.4993(5) 0.9292(7)
H10 H 0.9636 0.5171 0.8503
C7 C 0.8199(9) 0.4881(5) 0.9939(7)
C8 C 0.8662(11) 0.5258(6) 1.1113(8)
H11 H 0.7521 0.5409 1.1425
H12 H 0.9361 0.4951 1.1679
C9 C 0.9851(12) 0.5890(6) 1.0839(9)
H13 H 1.0564 0.6069 1.1544
H14 H 0.9069 0.6264 1.0476
C10 C 1.1156(11) 0.5596(5) 0.9991(8)
H15 H 1.2210 0.5373 1.0470
C11 C 1.2003(11) 0.6135(5) 0.9214(9)
H16 H 1.2784 0.5880 0.8706
C12 C 1.0533(14) 0.6561(6) 0.8423(11)
H17 H 0.9730 0.6809 0.8901
H18 H 0.9791 0.6248 0.7905
H19 H 1.1164 0.6893 0.7971
C13 C 1.3289(14) 0.6658(5) 0.9963(9)
H20 H 1.2555 0.6917 1.0467
H21 H 1.3850 0.6978 0.9456
H22 H 1.4259 0.6402 1.0429
C14 C 1.2234(10) 0.3318(5) 0.8006(8)
H23 H 1.3170 0.3604 0.7697
H24 H 1.1785 0.2970 0.7436
H25 H 1.2777 0.3088 0.8708
C15 C 0.6586(9) 0.5263(5) 0.9214(8)
H26 H 0.6886 0.5754 0.9166
H27 H 0.5452 0.5210 0.9582
H28 H 0.6406 0.5066 0.8440
O4 O 0.1234(6) 0.3599(4) 0.2507(5)
H29 H 0.1184 0.3699 0.1809
O5 O 0.7455(6) 0.3739(3) 0.3058(4)
H30 H 0.8585 0.3696 0.3011
O6 O 0.6171(6) 0.4465(3) 0.5830(5)
H31 H 0.7122 0.4373 0.6270
C16 C 0.3111(8) 0.3747(5) 0.3078(7)
H32 H 0.3944 0.3819 0.2466
C17 C 0.3062(9) 0.4420(5) 0.3767(8)
H33 H 0.2717 0.4311 0.4540
H34 H 0.2094 0.4724 0.3381
C18 C 0.4975(9) 0.4828(5) 0.3902(8)
H35 H 0.5336 0.4914 0.3125
H36 H 0.4766 0.5283 0.4248
C19 C 0.6619(9) 0.4479(4) 0.4629(7)
C20 C 0.7120(9) 0.3740(5) 0.4277(6)
H37 H 0.8324 0.3626 0.4730
C21 C 0.5746(9) 0.3161(4) 0.4539(7)
H38 H 0.5496 0.3217 0.5356
C22 C 0.3781(9) 0.3094(5) 0.3771(7)
C23 C 0.4078(11) 0.2466(5) 0.2953(9)
H39 H 0.2883 0.2259 0.2650
H40 H 0.4735 0.2615 0.2300
C24 C 0.5256(12) 0.1944(5) 0.3722(8)
H41 H 0.5871 0.1608 0.3253
H42 H 0.4497 0.1691 0.4233
C25 C 0.6723(10) 0.2434(4) 0.4438(7)
H43 H 0.7751 0.2507 0.3953
C26 C 0.7605(12) 0.2132(5) 0.5602(9)
H44 H 0.8481 0.2491 0.5948
C27 C 0.8793(13) 0.1471(5) 0.5445(10)
H45 H 0.7996 0.1102 0.5103
H46 H 0.9386 0.1321 0.6195
H47 H 0.9739 0.1578 0.4940
C28 C 0.6218(13) 0.1986(6) 0.6517(8)
H48 H 0.6909 0.1845 0.7244
H49 H 0.5369 0.1617 0.6236
H50 H 0.5517 0.2405 0.6638
C29 C 0.8308(10) 0.4993(5) 0.4595(7)
H51 H 0.9339 0.4838 0.5140
H52 H 0.7936 0.5458 0.4804
H53 H 0.8689 0.5001 0.3819
C30 C 0.2307(10) 0.2887(5) 0.4589(8)
H54 H 0.1107 0.2823 0.4137
H55 H 0.2214 0.3252 0.5157
H56 H 0.2679 0.2455 0.4983
O7 O 0.2860(7) 0.4990(4) 0.6651(5)
H57 H 0.3893 0.5207 0.6617
H58 H 0.3050 0.4583 0.6383
loop_
_geom_bond_atom_site_label_1
_geom_bond_atom_site_label_2
_geom_bond_site_symmetry_1
_geom_bond_site_symmetry_2
O1 H1 1_555 1_555
O2 H2 1_555 1_555
O3 H3 1_555 1_555
C1 O1 1_555 1_555
H4 C1 1_555 1_555
C2 C1 1_555 1_555
H5 C2 1_555 1_555
H6 C2 1_555 1_555
C3 C2 1_555 1_555
H7 C3 1_555 1_555
H8 C3 1_555 1_555
C4 O2 1_555 1_555
C5 O3 1_555 1_555
H9 C5 1_555 1_555
C6 C5 1_555 1_555
H10 C6 1_555 1_555
C7 C1 1_555 1_555
C8 C7 1_555 1_555
H11 C8 1_555 1_555
H12 C8 1_555 1_555
C9 C8 1_555 1_555
H13 C9 1_555 1_555
H14 C9 1_555 1_555
C10 C6 1_555 1_555
H15 C10 1_555 1_555
C11 C10 1_555 1_555
H16 C11 1_555 1_555
C12 C11 1_555 1_555
H17 C12 1_555 1_555
H18 C12 1_555 1_555
H19 C12 1_555 1_555
C13 C11 1_555 1_555
H20 C13 1_555 1_555
H21 C13 1_555 1_555
H22 C13 1_555 1_555
C14 C4 1_555 1_555
H23 C14 1_555 1_555
H24 C14 1_555 1_555
H25 C14 1_555 1_555
C15 C7 1_555 1_555
H26 C15 1_555 1_555
H27 C15 1_555 1_555
H28 C15 1_555 1_555
O4 H29 1_555 1_555
O5 H30 1_555 1_555
O6 H31 1_555 1_555
C16 O4 1_555 1_555
H32 C16 1_555 1_555
C17 C16 1_555 1_555
H33 C17 1_555 1_555
H34 C17 1_555 1_555
C18 C17 1_555 1_555
H35 C18 1_555 1_555
H36 C18 1_555 1_555
C19 O6 1_555 1_555
C20 O5 1_555 1_555
H37 C20 1_555 1_555
C21 C20 1_555 1_555
H38 C21 1_555 1_555
C22 C16 1_555 1_555
C23 C22 1_555 1_555
H39 C23 1_555 1_555
H40 C23 1_555 1_555
C24 C23 1_555 1_555
H41 C24 1_555 1_555
H42 C24 1_555 1_555
C25 C21 1_555 1_555
H43 C25 1_555 1_555
C26 C25 1_555 1_555
H44 C26 1_555 1_555
C27 C26 1_555 1_555
H45 C27 1_555 1_555
H46 C27 1_555 1_555
H47 C27 1_555 1_555
C28 C26 1_555 1_555
H48 C28 1_555 1_555
H49 C28 1_555 1_555
H50 C28 1_555 1_555
C29 C19 1_555 1_555
H51 C29 1_555 1_555
H52 C29 1_555 1_555
H53 C29 1_555 1_555
C30 C22 1_555 1_555
H54 C30 1_555 1_555
H55 C30 1_555 1_555
H56 C30 1_555 1_555
O7 H57 1_555 1_555
H58 O7 1_555 1_555
C3 C4 1_555 1_555
C4 C5 1_555 1_555
C6 C7 1_555 1_555
C9 C10 1_555 1_555
C18 C19 1_555 1_555
C19 C20 1_555 1_555
C21 C22 1_555 1_555
C24 C25 1_555 1_555

#END
