
#######################################################################
#
#                 Cambridge Crystallographic Data Centre
#                                CCDC 
#
#######################################################################
#
# If this CIF has been generated from an entry in the Cambridge 
# Structural Database, then it will include bibliographic, chemical, 
# crystal, experimental, refinement or atomic coordinate data resulting 
# from the CCDC's data processing and validation procedures.
#
#######################################################################

data_SUYPAE
_chemical_formula_moiety         'C21 H22 N4 2+,2(F6 P1 1-)'
_chemical_name_systematic        
"3,3'-Dimethyl-1,1'-(methylenedi-p-phenylene)diimidazolium bis(hexafluorophosphate)"
_symmetry_cell_setting           orthorhombic
_symmetry_space_group_name_H-M   'P 21 21 21'
_symmetry_Int_Tables_number      19
_space_group_name_Hall           'P 2ac 2ab'
loop_
_symmetry_equiv_pos_site_id
_symmetry_equiv_pos_as_xyz
1 x,y,z
2 1/2-x,-y,1/2+z
3 1/2+x,1/2-y,-z
4 -x,1/2+y,1/2-z
_cell_length_a                   11.5645(19)
_cell_length_b                   13.690(2)
_cell_length_c                   31.188(5)
_cell_angle_alpha                90
_cell_angle_beta                 90
_cell_angle_gamma                90
_cell_volume                     4937.62
_exptl_crystal_colour            colorless
_exptl_crystal_description       prism
_cell_formula_units_Z            8
_exptl_crystal_recrystallization_method 'acetonitrile/diethyl ether'
loop_
_atom_site_label
_atom_site_type_symbol
_atom_site_fract_x
_atom_site_fract_y
_atom_site_fract_z
N1 N -0.0473(3) 0.6747(3) 0.28054(10)
N2 N 0.0564(3) 0.7088(2) 0.22569(9)
N3 N 0.5528(2) 0.32968(19) 0.05976(8)
N4 N 0.6505(2) 0.21221(19) 0.08809(9)
C1 C -0.1278(4) 0.6224(4) 0.30890(13)
C2 C -0.0293(3) 0.6515(3) 0.23960(12)
C3 C 0.0923(4) 0.7690(3) 0.25863(12)
C4 C 0.0270(4) 0.7479(3) 0.29267(12)
C5 C 0.1090(3) 0.7018(2) 0.18380(10)
C6 C 0.1196(3) 0.6104(2) 0.16471(11)
C7 C 0.1750(3) 0.6042(2) 0.12554(11)
C8 C 0.2194(3) 0.6858(2) 0.10487(11)
C9 C 0.2088(3) 0.7760(2) 0.12527(11)
C10 C 0.1522(3) 0.7850(3) 0.16437(11)
C11 C 0.2783(3) 0.6772(3) 0.06154(11)
C12 C 0.3544(3) 0.5880(2) 0.05757(10)
C13 C 0.3195(3) 0.5064(2) 0.03432(10)
C14 C 0.3854(3) 0.4226(2) 0.03363(11)
C15 C 0.4886(3) 0.4192(2) 0.05605(10)
C16 C 0.5287(3) 0.5010(2) 0.07769(12)
C17 C 0.4601(3) 0.5841(3) 0.07841(12)
C18 C 0.6112(3) 0.3015(2) 0.09451(11)
C19 C 0.6158(3) 0.1818(2) 0.04820(11)
C20 C 0.5551(3) 0.2539(2) 0.03025(10)
C21 C 0.7228(4) 0.1568(3) 0.11954(13)
H1 H -0.17950 0.58150 0.29160
H2 H -0.17370 0.66970 0.32520
H3 H -0.08400 0.58110 0.32880
H4 H -0.06950 0.60360 0.22340
H5 H 0.15210 0.81640 0.25730
H6 H 0.03130 0.77780 0.32010
H7 H 0.08960 0.55370 0.17830
H8 H 0.18290 0.54200 0.11230
H9 H 0.24090 0.83250 0.11220
H10 H 0.14330 0.84710 0.17750
H11 H 0.21840 0.67500 0.03890
H12 H 0.32600 0.73630 0.05660
H13 H 0.24910 0.50850 0.01870
H14 H 0.36010 0.36730 0.01780
H15 H 0.60160 0.50020 0.09170
H16 H 0.48630 0.63990 0.09360
H17 H 0.62270 0.33950 0.11970
H18 H 0.63210 0.12020 0.03560
H19 H 0.52030 0.25340 0.00270
H20 H 0.79890 0.14370 0.10700
H21 H 0.68470 0.09480 0.12650
H22 H 0.73210 0.19560 0.14570
N5 N 0.5227(3) 0.2547(2) 0.28123(9)
N6 N 0.4818(2) 0.21150(19) 0.21667(9)
N7 N -0.0206(2) -0.17354(18) 0.05923(8)
N8 N -0.1168(3) -0.29169(19) 0.08910(9)
C22 C 0.5202(4) 0.3061(4) 0.32176(12)
C23 C 0.4504(3) 0.2705(3) 0.24893(10)
C24 C 0.5762(3) 0.1566(3) 0.22969(12)
C25 C 0.6009(3) 0.1841(3) 0.26999(12)
C26 C 0.4238(3) 0.2047(2) 0.17611(10)
C27 C 0.3690(3) 0.2853(2) 0.15914(11)
C28 C 0.3108(3) 0.2758(2) 0.12021(10)
C29 C 0.3095(3) 0.1870(2) 0.09819(10)
C30 C 0.3663(3) 0.1080(2) 0.11633(11)
C31 C 0.4231(3) 0.1153(3) 0.15498(12)
C32 C 0.2481(3) 0.1767(2) 0.05534(11)
C33 C 0.1731(3) 0.0865(2) 0.05303(10)
C34 C 0.0685(3) 0.0825(2) 0.07502(11)
C35 C 0.0022(3) -0.0010(2) 0.07627(11)
C36 C 0.0411(3) -0.0836(2) 0.05510(10)
C37 C 0.1420(3) -0.0816(2) 0.03128(10)
C38 C 0.2076(3) 0.0044(2) 0.03039(11)
C39 C -0.0779(3) -0.2017(2) 0.09465(10)
C40 C -0.0822(3) -0.3235(2) 0.04900(11)
C41 C -0.0228(3) -0.2503(2) 0.03027(10)
C42 C -0.1874(3) -0.3460(2) 0.12033(13)
H23 H 0.57690 0.35930 0.32130
H24 H 0.53910 0.26070 0.34500
H25 H 0.44280 0.33320 0.32650
H26 H 0.38780 0.31550 0.24870
H27 H 0.61590 0.10880 0.21330
H28 H 0.66130 0.15920 0.28750
H29 H 0.37080 0.34630 0.17370
H30 H 0.27140 0.33050 0.10850
H31 H 0.36590 0.04710 0.10170
H32 H 0.46110 0.06020 0.16700
H33 H 0.19930 0.23510 0.05050
H34 H 0.30650 0.17400 0.03220
H35 H 0.04190 0.13920 0.08960
H36 H -0.06910 -0.00200 0.09140
H37 H 0.16630 -0.13760 0.01580
H38 H 0.27690 0.00640 0.01400
H39 H -0.08880 -0.16310 0.11970
H40 H -0.09760 -0.38580 0.03680
H41 H 0.01110 -0.25120 0.00250
H42 H -0.19200 -0.30900 0.14720
H43 H -0.15190 -0.40980 0.12590
H44 H -0.26540 -0.35550 0.10870
P1 P 0.61677(8) 0.88387(6) 0.06933(3)
F1 F 0.6708(2) 0.83513(17) 0.11089(7)
F2 F 0.6730(2) 0.79921(17) 0.04033(7)
F3 F 0.5659(2) 0.93295(16) 0.02705(7)
F4 F 0.5614(2) 0.96690(17) 0.09819(7)
F5 F 0.7322(2) 0.94752(19) 0.06358(8)
F6 F 0.5023(2) 0.82036(17) 0.07381(8)
P2 P 0.66813(9) 0.47668(7) 0.21334(3)
F7 F 0.5352(2) 0.4707(2) 0.22527(11)
F8 F 0.7010(3) 0.4328(2) 0.25867(8)
F9 F 0.8030(2) 0.48195(17) 0.20214(8)
F10 F 0.6398(3) 0.5190(2) 0.16774(9)
F11 F 0.6758(3) 0.58452(17) 0.23195(9)
F12 F 0.6634(2) 0.36775(17) 0.19490(8)
P3 P 0.83051(8) 0.94635(7) 0.21464(3)
F13 F 0.7940(3) 0.8980(2) 0.25859(8)
F14 F 0.8124(2) 1.05208(17) 0.23341(9)
F15 F 0.8668(3) 0.9915(2) 0.16996(8)
F16 F 0.8492(3) 0.84028(19) 0.19490(10)
F17 F 0.6998(2) 0.94487(17) 0.19868(8)
F18 F 0.9615(2) 0.94825(18) 0.23005(9)
P4 P 0.93255(9) 0.37704(7) 0.07805(3)
F19 F 0.8584(2) 0.34663(19) 0.11796(7)
F20 F 0.8867(2) 0.28285(16) 0.05298(7)
F21 F 1.0041(4) 0.4072(3) 0.03809(11)
F22 F 0.9790(2) 0.47003(16) 0.10268(8)
F23 F 0.8254(3) 0.4369(2) 0.06109(11)
F24 F 1.0361(3) 0.3159(2) 0.09699(15)
loop_
_geom_bond_atom_site_label_1
_geom_bond_atom_site_label_2
_geom_bond_site_symmetry_1
_geom_bond_site_symmetry_2
N1 C1 1_555 1_555
N2 C2 1_555 1_555
N3 C15 1_555 1_555
N4 C18 1_555 1_555
C1 H1 1_555 1_555
C2 N1 1_555 1_555
C3 N2 1_555 1_555
C4 N1 1_555 1_555
C5 N2 1_555 1_555
C6 C5 1_555 1_555
C7 C6 1_555 1_555
C8 C7 1_555 1_555
C9 C8 1_555 1_555
C10 C5 1_555 1_555
C11 C8 1_555 1_555
C12 C11 1_555 1_555
C13 C12 1_555 1_555
C14 C13 1_555 1_555
C15 C14 1_555 1_555
C16 C15 1_555 1_555
C17 C12 1_555 1_555
C18 N3 1_555 1_555
C19 N4 1_555 1_555
C20 N3 1_555 1_555
C21 N4 1_555 1_555
N5 C22 1_555 1_555
N6 C23 1_555 1_555
N7 C36 1_555 1_555
N8 C39 1_555 1_555
C22 H23 1_555 1_555
C23 N5 1_555 1_555
C24 N6 1_555 1_555
C25 N5 1_555 1_555
C26 N6 1_555 1_555
C27 C26 1_555 1_555
C28 C27 1_555 1_555
C29 C28 1_555 1_555
C30 C29 1_555 1_555
C31 C26 1_555 1_555
C32 C29 1_555 1_555
C33 C32 1_555 1_555
C34 C33 1_555 1_555
C35 C34 1_555 1_555
C36 C35 1_555 1_555
C37 C36 1_555 1_555
C38 C33 1_555 1_555
C39 N7 1_555 1_555
C40 N8 1_555 1_555
C41 N7 1_555 1_555
C42 N8 1_555 1_555
P1 F1 1_555 1_555
F2 P1 1_555 1_555
F3 P1 1_555 1_555
F4 P1 1_555 1_555
F5 P1 1_555 1_555
F6 P1 1_555 1_555
P2 F7 1_555 1_555
F8 P2 1_555 1_555
F9 P2 1_555 1_555
F10 P2 1_555 1_555
F11 P2 1_555 1_555
F12 P2 1_555 1_555
P3 F13 1_555 1_555
F14 P3 1_555 1_555
F15 P3 1_555 1_555
F16 P3 1_555 1_555
F17 P3 1_555 1_555
F18 P3 1_555 1_555
P4 F19 1_555 1_555
F20 P4 1_555 1_555
F21 P4 1_555 1_555
F22 P4 1_555 1_555
F23 P4 1_555 1_555
F24 P4 1_555 1_555
H2 C1 1_555 1_555
H3 C1 1_555 1_555
H4 C2 1_555 1_555
H5 C3 1_555 1_555
H6 C4 1_555 1_555
H7 C6 1_555 1_555
H8 C7 1_555 1_555
H9 C9 1_555 1_555
H10 C10 1_555 1_555
H11 C11 1_555 1_555
H12 C11 1_555 1_555
H13 C13 1_555 1_555
H14 C14 1_555 1_555
H15 C16 1_555 1_555
H16 C17 1_555 1_555
H17 C18 1_555 1_555
H18 C19 1_555 1_555
H19 C20 1_555 1_555
H20 C21 1_555 1_555
H21 C21 1_555 1_555
H22 C21 1_555 1_555
H24 C22 1_555 1_555
H25 C22 1_555 1_555
H26 C23 1_555 1_555
H27 C24 1_555 1_555
H28 C25 1_555 1_555
H29 C27 1_555 1_555
H30 C28 1_555 1_555
H31 C30 1_555 1_555
H32 C31 1_555 1_555
H33 C32 1_555 1_555
H34 C32 1_555 1_555
H35 C34 1_555 1_555
H36 C35 1_555 1_555
H37 C37 1_555 1_555
H38 C38 1_555 1_555
H39 C39 1_555 1_555
H40 C40 1_555 1_555
H41 C41 1_555 1_555
H42 C42 1_555 1_555
H43 C42 1_555 1_555
H44 C42 1_555 1_555
C3 C4 1_555 1_555
C9 C10 1_555 1_555
C16 C17 1_555 1_555
C19 C20 1_555 1_555
C24 C25 1_555 1_555
C30 C31 1_555 1_555
C37 C38 1_555 1_555
C40 C41 1_555 1_555

#END
