
#######################################################################
#
#                 Cambridge Crystallographic Data Centre
#                                CCDC 
#
#######################################################################
#
# If this CIF has been generated from an entry in the Cambridge 
# Structural Database, then it will include bibliographic, chemical, 
# crystal, experimental, refinement or atomic coordinate data resulting 
# from the CCDC's data processing and validation procedures.
#
#######################################################################

data_SUYPOS
_chemical_formula_moiety         'C12 H16 N2 O4'
_chemical_name_systematic        'Di-isopropyl pyrazine-2,5-dicarboxylate'
_symmetry_cell_setting           monoclinic
_symmetry_space_group_name_H-M   'P 21/c'
_symmetry_Int_Tables_number      14
_space_group_name_Hall           '-P 2ybc'
loop_
_symmetry_equiv_pos_site_id
_symmetry_equiv_pos_as_xyz
1 x,y,z
2 -x,1/2+y,1/2-z
3 -x,-y,-z
4 x,1/2-y,1/2+z
_cell_length_a                   4.78040(10)
_cell_length_b                   15.6842(3)
_cell_length_c                   9.1877(2)
_cell_angle_alpha                90
_cell_angle_beta                 104.227(2)
_cell_angle_gamma                90
_cell_volume                     667.736
_exptl_crystal_colour            orange
_exptl_crystal_description       block
_cell_formula_units_Z            2
loop_
_atom_site_label
_atom_site_type_symbol
_atom_site_fract_x
_atom_site_fract_y
_atom_site_fract_z
O1 O 0.2207(3) 0.61807(8) 0.76556(16)
O2 O 0.0875(4) 0.48234(10) 0.7742(2)
N1 N 0.4741(4) 0.58450(9) 0.54265(18)
C1 C 0.3667(4) 0.52028(10) 0.6052(2)
C2 C 0.6071(4) 0.56289(12) 0.4371(2)
H1 H 0.6858 0.6058 0.3898
C3 C 0.2104(4) 0.53794(12) 0.7251(2)
C4 C 0.0807(5) 0.64177(14) 0.8860(2)
H2 H -0.0748 0.6011 0.8864
C5 C -0.0461(8) 0.72695(18) 0.8468(4)
H3 H -0.1475 0.7443 0.9200
H4 H -0.1781 0.7249 0.7494
H5 H 0.1046 0.7672 0.8454
C6 C 0.2971(8) 0.6359(3) 1.0299(3)
H6 H 0.2050 0.6437 1.1108
H7 H 0.4403 0.6795 1.0346
H8 H 0.3877 0.5809 1.0384
O1B O 0.7793(3) 0.38193(8) 0.23444(16)
O2B O 0.9125(4) 0.51766(10) 0.2258(2)
N1B N 0.5259(4) 0.41550(9) 0.45735(18)
C1B C 0.6333(4) 0.47972(10) 0.3948(2)
C2B C 0.3929(4) 0.43711(12) 0.5629(2)
H1B H 0.3142 0.3942 0.6102
C3B C 0.7896(4) 0.46206(12) 0.2749(2)
C4B C 0.9193(5) 0.35823(14) 0.1140(2)
H2B H 1.0748 0.3989 0.1136
C5B C 1.0461(8) 0.27305(18) 0.1532(4)
H3B H 1.1475 0.2557 0.0800
H4B H 1.1781 0.2751 0.2506
H5B H 0.8954 0.2328 0.1546
C6B C 0.7029(8) 0.3641(3) -0.0299(3)
H6B H 0.7950 0.3563 -0.1108
H7B H 0.5597 0.3205 -0.0346
H8B H 0.6123 0.4191 -0.0384
loop_
_geom_bond_atom_site_label_1
_geom_bond_atom_site_label_2
_geom_bond_site_symmetry_1
_geom_bond_site_symmetry_2
O1 C3 1_555 1_555
O2 C3 1_555 1_555
N1 C1 1_555 1_555
C1 C3 1_555 1_555
C2 N1 1_555 1_555
H1 C2 1_555 1_555
C4 O1 1_555 1_555
H2 C4 1_555 1_555
C5 C4 1_555 1_555
H3 C5 1_555 1_555
H4 C5 1_555 1_555
H5 C5 1_555 1_555
C6 C4 1_555 1_555
H6 C6 1_555 1_555
H7 C6 1_555 1_555
H8 C6 1_555 1_555
O1B C3B 1_555 1_555
O2B C3B 1_555 1_555
N1B C1B 1_555 1_555
C1B C2 1_555 1_555
C2B C1 1_555 1_555
H1B C2B 1_555 1_555
C3B C1B 1_555 1_555
C4B O1B 1_555 1_555
H2B C4B 1_555 1_555
C5B C4B 1_555 1_555
H3B C5B 1_555 1_555
H4B C5B 1_555 1_555
H5B C5B 1_555 1_555
C6B C4B 1_555 1_555
H6B C6B 1_555 1_555
H7B C6B 1_555 1_555
H8B C6B 1_555 1_555
N1B C2B 1_555 1_555

#END
