
#######################################################################
#
#                 Cambridge Crystallographic Data Centre
#                                CCDC 
#
#######################################################################
#
# If this CIF has been generated from an entry in the Cambridge 
# Structural Database, then it will include bibliographic, chemical, 
# crystal, experimental, refinement or atomic coordinate data resulting 
# from the CCDC's data processing and validation procedures.
#
#######################################################################

data_SUYRAG
_chemical_formula_moiety         'C18 H23 Br1 Cl1 N3 O2'
_chemical_name_systematic        
2-(5-Bromopentyl)-4-chloro-5-((2-(4-methoxyphenyl)ethyl)amino)pyridazin-3(2H)-one
_symmetry_cell_setting           triclinic
_symmetry_space_group_name_H-M   'P -1'
_symmetry_Int_Tables_number      2
_space_group_name_Hall           '-P 1'
loop_
_symmetry_equiv_pos_site_id
_symmetry_equiv_pos_as_xyz
1 x,y,z
2 -x,-y,-z
_cell_length_a                   9.7728(14)
_cell_length_b                   12.6178(19)
_cell_length_c                   15.500(2)
_cell_angle_alpha                94.803(2)
_cell_angle_beta                 96.380(2)
_cell_angle_gamma                91.035(2)
_cell_volume                     1892.09
_exptl_crystal_colour            colorless
_exptl_crystal_description       flake
_chemical_melting_point          355-356K
_cell_formula_units_Z            4
_exptl_crystal_recrystallization_method chloroform
loop_
_atom_site_label
_atom_site_type_symbol
_atom_site_fract_x
_atom_site_fract_y
_atom_site_fract_z
Br1 Br 0.30298(4) 0.50393(3) 0.45799(2)
Cl1 Cl 0.17837(8) 0.99896(6) -0.02591(5)
O1 O 0.2247(2) 0.80242(16) 0.06417(15)
O2 O 0.9083(2) 1.48186(17) 0.40044(15)
C1 C 0.4160(3) 1.0519(2) 0.0756(2)
C2 C 0.5870(3) 1.3402(2) 0.2271(2)
N1 N 0.4189(3) 1.14797(19) 0.04352(18)
H1 H 0.3616 1.1592 -0.0026
N2 N 0.5283(3) 0.9306(2) 0.17251(18)
N3 N 0.4273(3) 0.85810(19) 0.14458(17)
C3 C 0.3153(3) 0.8731(2) 0.0839(2)
C4 C 0.3895(4) 0.4850(2) 0.3507(2)
H2 H 0.4903 0.4804 0.3651
H3 H 0.3552 0.4173 0.3177
C5 C 0.8034(3) 1.4410(2) 0.3407(2)
C6 C 0.5230(3) 1.0221(2) 0.1399(2)
H4 H 0.5947 1.0730 0.1599
C7 C 0.6400(3) 1.4397(2) 0.2130(2)
H5 H 0.6026 1.4736 0.1636
C8 C 0.5136(3) 1.2340(2) 0.0825(2)
H6 H 0.5181 1.2886 0.0406
H7 H 0.6069 1.2055 0.0941
C9 C 0.7462(3) 1.4910(2) 0.2694(2)
H8 H 0.7791 1.5596 0.2591
C10 C 0.3153(3) 0.9743(2) 0.0495(2)
C11 C 0.7528(3) 1.3408(2) 0.3553(2)
H9 H 0.7913 1.3063 0.4042
C12 C 0.3957(4) 0.7748(3) 0.2796(2)
H10 H 0.2954 0.7865 0.2757
H11 H 0.4434 0.8396 0.3102
C13 C 0.6468(3) 1.2917(2) 0.2989(2)
H12 H 0.6140 1.2231 0.3093
C14 C 0.3588(3) 0.5764(2) 0.2945(2)
H13 H 0.3890 0.5579 0.2363
H14 H 0.2581 0.5862 0.2864
C15 C 0.4294(4) 0.6802(3) 0.3332(2)
H15 H 0.5303 0.6708 0.3391
H16 H 0.4023 0.6967 0.3924
C16 C 0.4702(3) 1.2862(2) 0.1676(2)
H17 H 0.3995 1.3392 0.1536
H18 H 0.4274 1.2311 0.1987
C17 C 0.9452(4) 1.5921(2) 0.4003(2)
H19 H 0.9844 1.6039 0.3463
H20 H 1.0135 1.6131 0.4503
H21 H 0.8630 1.6348 0.4043
C18 C 0.4380(4) 0.7591(2) 0.1882(2)
H22 H 0.5341 0.7350 0.1912
H23 H 0.3781 0.7031 0.1538
Br2 Br 1.17053(4) -0.11846(3) 0.48534(2)
Cl2 Cl 1.32193(8) 0.51689(6) 1.02756(5)
O3 O 1.2740(2) 0.29549(18) 0.94660(16)
N4 N 1.0840(3) 0.64087(19) 0.95016(17)
H24 H 1.1411 0.6650 0.9957
N5 N 1.0735(3) 0.32485(19) 0.86383(18)
N6 N 0.9745(3) 0.3881(2) 0.83069(18)
O4 O 0.6028(2) 0.9151(2) 0.60480(17)
C19 C 0.8609(3) 0.8865(2) 0.7875(2)
H25 H 0.8914 0.9247 0.8419
C20 C 1.1866(3) 0.4692(2) 0.9527(2)
C21 C 1.0874(3) 0.5372(2) 0.9223(2)
C22 C 1.1857(3) 0.3584(2) 0.9229(2)
C23 C 1.1627(4) 0.0353(3) 0.6350(2)
H26 H 1.1397 0.0879 0.5920
H27 H 1.2642 0.0338 0.6471
C24 C 0.9815(3) 0.4878(2) 0.8582(2)
H28 H 0.9117 0.5320 0.8346
C25 C 0.7561(3) 0.9263(3) 0.7332(2)
H29 H 0.7160 0.9917 0.7502
C26 C 0.9910(3) 0.7150(2) 0.9092(2)
H30 H 0.9869 0.7797 0.9495
H31 H 0.8973 0.6821 0.8980
C27 C 0.7701(4) 0.7760(3) 0.6286(2)
H32 H 0.7400 0.7382 0.5740
C28 C 0.8749(4) 0.7375(2) 0.6842(2)
H33 H 0.9154 0.6723 0.6672
C29 C 1.0361(3) 0.7468(2) 0.8230(2)
H34 H 1.1123 0.8005 0.8360
H35 H 1.0721 0.6835 0.7917
C30 C 0.9227(3) 0.7915(2) 0.7640(2)
C31 C 0.7092(3) 0.8711(3) 0.6540(2)
C32 C 1.0566(3) 0.2119(2) 0.8319(2)
H36 H 0.9571 0.1942 0.8172
H37 H 1.0922 0.1681 0.8791
C33 C 1.1304(3) 0.1835(2) 0.7524(2)
H38 H 1.2309 0.1954 0.7679
H39 H 1.0997 0.2302 0.7062
C34 C 1.1006(4) 0.0676(2) 0.7185(2)
H40 H 1.1370 0.0215 0.7639
H41 H 0.9996 0.0551 0.7081
C35 C 0.5565(4) 0.8604(4) 0.5224(3)
H42 H 0.6336 0.8535 0.4871
H43 H 0.4835 0.9006 0.4924
H44 H 0.5205 0.7895 0.5309
C36 C 1.1062(4) -0.0739(3) 0.5981(2)
H45 H 1.0043 -0.0731 0.5909
H46 H 1.1346 -0.1266 0.6400
loop_
_geom_bond_atom_site_label_1
_geom_bond_atom_site_label_2
_geom_bond_site_symmetry_1
_geom_bond_site_symmetry_2
Br1 C4 1_555 1_555
Cl1 C10 1_555 1_555
O1 C3 1_555 1_555
O2 C5 1_555 1_555
C1 N1 1_555 1_555
C2 C7 1_555 1_555
N1 H1 1_555 1_555
N2 N3 1_555 1_555
N3 C3 1_555 1_555
C3 C10 1_555 1_555
C4 H2 1_555 1_555
H3 C4 1_555 1_555
C5 C9 1_555 1_555
C6 C1 1_555 1_555
H4 C6 1_555 1_555
C7 H5 1_555 1_555
C8 N1 1_555 1_555
H6 C8 1_555 1_555
H7 C8 1_555 1_555
C9 C7 1_555 1_555
H8 C9 1_555 1_555
C10 C1 1_555 1_555
C11 C5 1_555 1_555
H9 C11 1_555 1_555
C12 H10 1_555 1_555
H11 C12 1_555 1_555
C13 C2 1_555 1_555
H12 C13 1_555 1_555
C14 C4 1_555 1_555
H13 C14 1_555 1_555
H14 C14 1_555 1_555
C15 C12 1_555 1_555
H15 C15 1_555 1_555
H16 C15 1_555 1_555
C16 C2 1_555 1_555
H17 C16 1_555 1_555
H18 C16 1_555 1_555
C17 O2 1_555 1_555
H19 C17 1_555 1_555
H20 C17 1_555 1_555
H21 C17 1_555 1_555
C18 N3 1_555 1_555
H22 C18 1_555 1_555
H23 C18 1_555 1_555
Br2 C36 1_555 1_555
Cl2 C20 1_555 1_555
O3 C22 1_555 1_555
N4 H24 1_555 1_555
N5 N6 1_555 1_555
N6 C24 1_555 1_555
O4 C31 1_555 1_555
C19 H25 1_555 1_555
C20 C21 1_555 1_555
C21 N4 1_555 1_555
C22 N5 1_555 1_555
C23 H26 1_555 1_555
H27 C23 1_555 1_555
C24 C21 1_555 1_555
H28 C24 1_555 1_555
C25 C19 1_555 1_555
H29 C25 1_555 1_555
C26 N4 1_555 1_555
H30 C26 1_555 1_555
H31 C26 1_555 1_555
C27 H32 1_555 1_555
C28 C27 1_555 1_555
H33 C28 1_555 1_555
C29 C26 1_555 1_555
H34 C29 1_555 1_555
H35 C29 1_555 1_555
C30 C19 1_555 1_555
C31 C25 1_555 1_555
C32 N5 1_555 1_555
H36 C32 1_555 1_555
H37 C32 1_555 1_555
C33 C32 1_555 1_555
H38 C33 1_555 1_555
H39 C33 1_555 1_555
C34 C23 1_555 1_555
H40 C34 1_555 1_555
H41 C34 1_555 1_555
C35 O4 1_555 1_555
H42 C35 1_555 1_555
H43 C35 1_555 1_555
H44 C35 1_555 1_555
C36 C23 1_555 1_555
H45 C36 1_555 1_555
H46 C36 1_555 1_555
N2 C6 1_555 1_555
C8 C16 1_555 1_555
C11 C13 1_555 1_555
C12 C18 1_555 1_555
C14 C15 1_555 1_555
C20 C22 1_555 1_555
C27 C31 1_555 1_555
C28 C30 1_555 1_555
C29 C30 1_555 1_555
C33 C34 1_555 1_555

#END
