
#######################################################################
#
#                 Cambridge Crystallographic Data Centre
#                                CCDC 
#
#######################################################################
#
# If this CIF has been generated from an entry in the Cambridge 
# Structural Database, then it will include bibliographic, chemical, 
# crystal, experimental, refinement or atomic coordinate data resulting 
# from the CCDC's data processing and validation procedures.
#
#######################################################################

data_SUYTUB
_chemical_formula_moiety         'C24 H44 N6 6+,3(O4 S1 2-),5(H2 O1)'
_chemical_name_systematic        
'(3,6,9,17,20,23-Hexa-ammoniotricyclo(23.3.1.1^11,15^)triaconta-1(29),11,13,15(30),25,27-hexaene) trisulfate pentahydrate'
_symmetry_cell_setting           orthorhombic
_symmetry_space_group_name_H-M   'A m m 2'
_symmetry_Int_Tables_number      38
_space_group_name_Hall           'A 2 -2'
loop_
_symmetry_equiv_pos_site_id
_symmetry_equiv_pos_as_xyz
1 x,y,z
2 -x,-y,z
3 x,-y,z
4 -x,y,z
5 x,1/2+y,1/2+z
6 -x,1/2-y,1/2+z
7 x,1/2-y,1/2+z
8 -x,1/2+y,1/2+z
_cell_length_a                   10.7345(3)
_cell_length_b                   29.6422(4)
_cell_length_c                   5.7286(2)
_cell_angle_alpha                90
_cell_angle_beta                 90
_cell_angle_gamma                90
_cell_volume                     1822.81
_exptl_crystal_colour            colorless
_exptl_crystal_description       plate
_cell_formula_units_Z            2
_exptl_crystal_recrystallization_method methanol/water(5:1)
loop_
_atom_site_label
_atom_site_type_symbol
_atom_site_fract_x
_atom_site_fract_y
_atom_site_fract_z
S1 S 0.0000 0.37950(4) 0.4915(2)
O1 O 0.0000 0.39036(12) 0.2380(7)
O2 O 0.0000 0.42064(12) 0.6321(8)
O3 O 0.1123(3) 0.35290(10) 0.5439(5)
O3C O -0.1123(3) 0.35290(10) 0.5439(5)
N1 N 0.2854(3) 0.5000 0.0118(9)
H1 H 0.349(6) 0.5000 -0.134(13)
H2 H 0.301(5) 0.5000 0.189(11)
C1 C 0.2114(3) 0.45859(10) -0.0412(8)
H3 H 0.1878 0.4584 -0.2083
H4 H 0.1341 0.4585 0.0530
C2 C 0.2882(3) 0.41667(10) 0.0145(9)
H5 H 0.3619 0.4152 -0.0892
H6 H 0.3177 0.4179 0.1782
N2 N 0.2088(2) 0.37616(8) -0.0208(8)
H7 H 0.190(4) 0.3738(13) -0.147(8)
H8 H 0.139(4) 0.3801(13) 0.086(8)
C3 C 0.2663(3) 0.33281(11) 0.0629(7)
H9 H 0.2067 0.3078 0.0376
H10 H 0.2824 0.3350 0.2327
C4 C 0.3874(3) 0.32208(10) -0.0619(6)
C5 C 0.5000 0.33304(14) 0.0445(8)
H11 H 0.5000 0.3481 0.1908
C6 C 0.3876(3) 0.30041(10) -0.2760(7)
H12 H 0.3110 0.2926 -0.3487
C7 C 0.5000 0.29002(14) -0.3846(8)
H13 H 0.5000 0.2758 -0.5332
C4C C 0.6126(3) 0.32208(10) -0.0619(6)
C3C C 0.7337(3) 0.33281(11) 0.0629(7)
N2C N 0.7912(2) 0.37616(8) -0.0208(8)
C2C C 0.7118(3) 0.41667(10) 0.0145(9)
C1C C 0.7886(3) 0.45859(10) -0.0412(8)
N1C N 0.7146(3) 0.5000 0.0118(9)
H1C H 0.651(6) 0.5000 -0.134(13)
H2C H 0.699(5) 0.5000 0.189(11)
C1A C 0.7886(3) 0.54141(10) -0.0412(8)
H3A H 0.8122 0.5416 -0.2083
H4A H 0.8659 0.5415 0.0530
C2A C 0.7118(3) 0.58333(10) 0.0145(9)
H5A H 0.6381 0.5848 -0.0892
H6A H 0.6823 0.5821 0.1782
N2A N 0.7912(2) 0.62384(8) -0.0208(8)
H7A H 0.810(4) 0.6262(13) -0.147(8)
H8A H 0.861(4) 0.6199(13) 0.086(8)
C3A C 0.7337(3) 0.66719(11) 0.0629(7)
H9A H 0.7933 0.6922 0.0376
H10A H 0.7176 0.6650 0.2327
C4A C 0.6126(3) 0.67792(10) -0.0619(6)
C5A C 0.5000 0.66696(14) 0.0445(8)
C4B C 0.3874(3) 0.67792(10) -0.0619(6)
C3B C 0.2663(3) 0.66719(11) 0.0629(7)
N2B N 0.2088(2) 0.62384(8) -0.0208(8)
C2B C 0.2882(3) 0.58333(10) 0.0145(9)
C1B C 0.2114(3) 0.54141(10) -0.0412(8)
H3B H 0.1878 0.5416 -0.2083
H4B H 0.1341 0.5415 0.0530
H5B H 0.3619 0.5848 -0.0892
H6B H 0.3177 0.5821 0.1782
H7B H 0.190(4) 0.6262(13) -0.147(8)
H8B H 0.139(4) 0.6199(13) 0.086(8)
H9B H 0.2067 0.6922 0.0376
H10B H 0.2824 0.6650 0.2327
C6B C 0.3876(3) 0.69959(10) -0.2760(7)
H12B H 0.3110 0.7074 -0.3487
C7B C 0.5000 0.70998(14) -0.3846(8)
C6A C 0.6124(3) 0.69959(10) -0.2760(7)
H12A H 0.6890 0.7074 -0.3487
H13B H 0.5000 0.7242 -0.5332
H11A H 0.5000 0.6519 0.1908
H3C H 0.8122 0.4584 -0.2083
H4C H 0.8659 0.4585 0.0530
H5C H 0.6381 0.4152 -0.0892
H6C H 0.6823 0.4179 0.1782
H7C H 0.810(4) 0.3738(13) -0.147(8)
H8C H 0.861(4) 0.3801(13) 0.086(8)
H9C H 0.7933 0.3078 0.0376
H10C H 0.7176 0.3350 0.2327
C6C C 0.6124(3) 0.30041(10) -0.2760(7)
H12C H 0.6890 0.2926 -0.3487
O7 O 0.0000 0.5000 0.3594(16)
H14 H 0.0000 0.4746 0.4456
H14A H 0.0000 0.5254 0.4456
O8 O 0.3722(15) 0.4065(5) 0.542(3)
H15 H 0.2996 0.3913 0.5436
H16 H 0.3772 0.4363 0.5136
O9 O 0.0659(7) 0.2578(2) 0.563(3)
H17 H 0.0803 0.2877 0.5586
H19 H 0.0659 0.2528 0.7181
O9C O -0.0659(7) 0.2578(2) 0.563(3)
H17C H -0.0803 0.2877 0.5586
H19C H -0.0659 0.2528 0.7181
S2? S 0.5000 0.48671(10) 0.5158(5)
O4? O 0.5000 0.5000 0.7725(14)
O5? O 0.3838(7) 0.5000 0.4478(13)
O6? O 0.5000 0.4401(6) 0.439(3)
H18? H 0.0659 0.2528 0.4080
loop_
_geom_bond_atom_site_label_1
_geom_bond_atom_site_label_2
_geom_bond_site_symmetry_1
_geom_bond_site_symmetry_2
S1 O1 1_555 1_555
O2 S1 1_555 1_555
O3 S1 1_555 1_555
N1 H1 1_555 1_555
H2 N1 1_555 1_555
C1 N1 1_555 1_555
H3 C1 1_555 1_555
H4 C1 1_555 1_555
C2 C1 1_555 1_555
H5 C2 1_555 1_555
H6 C2 1_555 1_555
N2 C2 1_555 1_555
H7 N2 1_555 1_555
H8 N2 1_555 1_555
C3 N2 1_555 1_555
H9 C3 1_555 1_555
H10 C3 1_555 1_555
C4 C3 1_555 1_555
C5 C4 1_555 1_555
H11 C5 1_555 1_555
C6 C4 1_555 1_555
H12 C6 1_555 1_555
C7 C6 1_555 1_555
H13 C7 1_555 1_555
O7 H14 1_555 1_555
O8 H15 1_555 1_555
H16 O8 1_555 1_555
O9 H17 1_555 1_555
H19 O9 1_555 1_555
O3C S1 1_555 1_555
C4C C5 1_555 1_555
C3C C4C 1_555 1_555
N2C C3C 1_555 1_555
C2C N2C 1_555 1_555
C1C C2C 1_555 1_555
N1C C1C 1_555 1_555
H1C N1C 1_555 1_555
H2C N1C 1_555 1_555
C1A N1C 1_555 1_555
H3A C1A 1_555 1_555
H4A C1A 1_555 1_555
C2A C1A 1_555 1_555
H5A C2A 1_555 1_555
H6A C2A 1_555 1_555
N2A C2A 1_555 1_555
H7A N2A 1_555 1_555
H8A N2A 1_555 1_555
C3A N2A 1_555 1_555
H9A C3A 1_555 1_555
H10A C3A 1_555 1_555
C4A C3A 1_555 1_555
C5A C4A 1_555 1_555
C4B C5A 1_555 1_555
C3B C4B 1_555 1_555
N2B C3B 1_555 1_555
C2B N2B 1_555 1_555
C1B N1 1_555 1_555
H3B C1B 1_555 1_555
H4B C1B 1_555 1_555
H5B C2B 1_555 1_555
H6B C2B 1_555 1_555
H7B N2B 1_555 1_555
H8B N2B 1_555 1_555
H9B C3B 1_555 1_555
H10B C3B 1_555 1_555
C6B C4B 1_555 1_555
H12B C6B 1_555 1_555
C7B C6B 1_555 1_555
C6A C4A 1_555 1_555
H12A C6A 1_555 1_555
H13B C7B 1_555 1_555
H11A C5A 1_555 1_555
H3C C1C 1_555 1_555
H4C C1C 1_555 1_555
H5C C2C 1_555 1_555
H6C C2C 1_555 1_555
H7C N2C 1_555 1_555
H8C N2C 1_555 1_555
H9C C3C 1_555 1_555
H10C C3C 1_555 1_555
C6C C7 1_555 1_555
H12C C6C 1_555 1_555
H14A O7 1_555 1_555
O9C H17C 1_555 1_555
H19C O9C 1_555 1_555
C4C C6C 1_555 1_555
C2B C1B 1_555 1_555
C7B C6A 1_555 1_555

#END
