
#######################################################################
#
#                 Cambridge Crystallographic Data Centre
#                                CCDC 
#
#######################################################################
#
# If this CIF has been generated from an entry in the Cambridge 
# Structural Database, then it will include bibliographic, chemical, 
# crystal, experimental, refinement or atomic coordinate data resulting 
# from the CCDC's data processing and validation procedures.
#
#######################################################################

data_SUYTUC
_chemical_formula_moiety         'C30 H24 N2 O2 S4'
_chemical_name_systematic        
1,2-bis(2-[(1,3-Benzothiazol-2-yl)sulfanylmethyl]phenoxy)ethane
_symmetry_cell_setting           triclinic
_symmetry_space_group_name_H-M   'P -1'
_symmetry_Int_Tables_number      2
_space_group_name_Hall           '-P 1'
loop_
_symmetry_equiv_pos_site_id
_symmetry_equiv_pos_as_xyz
1 x,y,z
2 -x,-y,-z
_cell_length_a                   9.8194(6)
_cell_length_b                   10.7740(8)
_cell_length_c                   14.0716(9)
_cell_angle_alpha                82.4220(10)
_cell_angle_beta                 76.2850(10)
_cell_angle_gamma                68.9930(10)
_cell_volume                     1348.32
_exptl_crystal_colour            yellow
_exptl_crystal_description       block
_cell_formula_units_Z            2
_exptl_crystal_recrystallization_method 'hexane/ethyl acetate'
loop_
_atom_site_label
_atom_site_type_symbol
_atom_site_fract_x
_atom_site_fract_y
_atom_site_fract_z
S1 S 0.25411(9) 0.18208(8) 0.27373(6)
S2 S 0.38885(9) 0.13160(8) 0.44913(6)
S3 S 0.47855(8) 0.88320(7) 0.11847(5)
S4 S 0.80655(8) 0.86358(8) 0.05966(5)
N1 N 0.1731(2) 0.3580(2) 0.40420(16)
N2 N 0.6259(2) 0.9606(2) 0.22042(15)
O1 O 0.5007(2) 0.38268(19) 0.38482(13)
O2 O 0.4699(2) 0.58394(19) 0.16478(13)
C1 C 0.0873(3) 0.4137(3) 0.33328(18)
C2 C -0.0182(3) 0.5403(3) 0.3337(2)
H1 H -0.0354 0.5968 0.3831
C3 C -0.0972(3) 0.5814(3) 0.2596(2)
H2 H -0.1679 0.6664 0.2591
C4 C -0.0727(3) 0.4980(3) 0.1859(2)
H3 H -0.1282 0.5274 0.1372
C5 C 0.0320(3) 0.3725(3) 0.1834(2)
H4 H 0.0485 0.3168 0.1336
C6 C 0.1124(3) 0.3313(3) 0.2573(2)
C7 C 0.2632(3) 0.2401(3) 0.38187(19)
C8 C 0.3907(3) 0.2396(3) 0.53801(19)
H5 H 0.3180 0.3272 0.5299
H6 H 0.3612 0.2041 0.6036
C9 C 0.5399(3) 0.2527(3) 0.52779(18)
C10 C 0.6279(3) 0.1936(3) 0.5960(2)
H7 H 0.5951 0.1419 0.6484
C11 C 0.7635(4) 0.2098(4) 0.5880(2)
H8 H 0.8214 0.1688 0.6344
C12 C 0.8124(4) 0.2859(4) 0.5117(2)
H9 H 0.9034 0.2973 0.5068
C13 C 0.7282(3) 0.3463(3) 0.4420(2)
H10 H 0.7623 0.3978 0.3900
C14 C 0.5929(3) 0.3296(3) 0.44972(19)
C15 C 0.5447(3) 0.4641(3) 0.30440(19)
H11 H 0.6418 0.4161 0.2664
H12 H 0.5490 0.5437 0.3270
C16 C 0.4271(3) 0.4995(3) 0.24431(18)
H13 H 0.4244 0.4202 0.2204
H14 H 0.3297 0.5458 0.2827
C17 C 0.3904(3) 0.6233(2) 0.09199(18)
C18 C 0.2737(3) 0.5827(3) 0.0873(2)
H15 H 0.2423 0.5267 0.1367
C19 C 0.2042(3) 0.6262(3) 0.0083(2)
H16 H 0.1255 0.5993 0.0051
C20 C 0.2497(3) 0.7087(3) -0.0653(2)
H17 H 0.2030 0.7366 -0.1185
C21 C 0.3653(3) 0.7495(3) -0.05950(18)
H18 H 0.3958 0.8056 -0.1093
C22 C 0.4369(3) 0.7090(2) 0.01829(18)
C23 C 0.5585(3) 0.7579(3) 0.02708(18)
H19 H 0.5961 0.7963 -0.0354
H20 H 0.6403 0.6848 0.0472
C24 C 0.6343(3) 0.9053(3) 0.14192(18)
C25 C 0.7615(3) 0.9749(3) 0.21972(18)
C26 C 0.7899(3) 1.0335(3) 0.2921(2)
H21 H 0.7157 1.0665 0.3465
C27 C 0.9282(3) 1.0417(3) 0.2820(2)
H22 H 0.9481 1.0807 0.3299
C28 C 1.0395(3) 0.9924(3) 0.2009(2)
H23 H 1.1328 0.9994 0.1954
C29 C 1.0153(3) 0.9342(3) 0.1293(2)
H24 H 1.0908 0.9005 0.0757
C30 C 0.8741(3) 0.9266(3) 0.13876(18)
loop_
_geom_bond_atom_site_label_1
_geom_bond_atom_site_label_2
_geom_bond_site_symmetry_1
_geom_bond_site_symmetry_2
S1 C6 1_555 1_555
S2 C7 1_555 1_555
S3 C23 1_555 1_555
S4 C24 1_555 1_555
N1 C1 1_555 1_555
N2 C24 1_555 1_555
O1 C14 1_555 1_555
O2 C16 1_555 1_555
C1 C2 1_555 1_555
C2 H1 1_555 1_555
C3 C2 1_555 1_555
H2 C3 1_555 1_555
C4 C3 1_555 1_555
H3 C4 1_555 1_555
C5 C4 1_555 1_555
H4 C5 1_555 1_555
C6 C1 1_555 1_555
C7 S1 1_555 1_555
C8 S2 1_555 1_555
H5 C8 1_555 1_555
H6 C8 1_555 1_555
C9 C8 1_555 1_555
C10 C9 1_555 1_555
H7 C10 1_555 1_555
C11 C10 1_555 1_555
H8 C11 1_555 1_555
C12 C11 1_555 1_555
H9 C12 1_555 1_555
C13 C12 1_555 1_555
H10 C13 1_555 1_555
C14 C9 1_555 1_555
C15 O1 1_555 1_555
H11 C15 1_555 1_555
H12 C15 1_555 1_555
C16 C15 1_555 1_555
H13 C16 1_555 1_555
H14 C16 1_555 1_555
C17 O2 1_555 1_555
C18 C17 1_555 1_555
H15 C18 1_555 1_555
C19 C18 1_555 1_555
H16 C19 1_555 1_555
C20 C19 1_555 1_555
H17 C20 1_555 1_555
C21 C20 1_555 1_555
H18 C21 1_555 1_555
C22 C17 1_555 1_555
C23 C22 1_555 1_555
H19 C23 1_555 1_555
H20 C23 1_555 1_555
C24 S3 1_555 1_555
C25 N2 1_555 1_555
C26 C25 1_555 1_555
H21 C26 1_555 1_555
C27 C26 1_555 1_555
H22 C27 1_555 1_555
C28 C27 1_555 1_555
H23 C28 1_555 1_555
C29 C28 1_555 1_555
H24 C29 1_555 1_555
C30 S4 1_555 1_555
N1 C7 1_555 1_555
C5 C6 1_555 1_555
C13 C14 1_555 1_555
C21 C22 1_555 1_555
C25 C30 1_555 1_555
C29 C30 1_555 1_555

#END
