
#######################################################################
#
#                 Cambridge Crystallographic Data Centre
#                                CCDC 
#
#######################################################################
#
# If this CIF has been generated from an entry in the Cambridge 
# Structural Database, then it will include bibliographic, chemical, 
# crystal, experimental, refinement or atomic coordinate data resulting 
# from the CCDC's data processing and validation procedures.
#
#######################################################################

data_SUYTEM
_chemical_formula_moiety         'C20 H15 N3 O2,C1 H4 O1'
_chemical_name_systematic        
'2-Anilino-3-(2-hydroxyphenyl)quinazolin-4(3H)-one methanol solvate'
_symmetry_cell_setting           monoclinic
_symmetry_space_group_name_H-M   'P 21/c'
_symmetry_Int_Tables_number      14
_space_group_name_Hall           '-P 2ybc'
loop_
_symmetry_equiv_pos_site_id
_symmetry_equiv_pos_as_xyz
1 x,y,z
2 -x,1/2+y,1/2-z
3 -x,-y,-z
4 x,1/2-y,1/2+z
_cell_length_a                   11.5575(18)
_cell_length_b                   8.7305(13)
_cell_length_c                   18.892(3)
_cell_angle_alpha                90
_cell_angle_beta                 106.251(2)
_cell_angle_gamma                90
_cell_volume                     1830.09
_exptl_crystal_colour            colorless
_exptl_crystal_description       block
_cell_formula_units_Z            4
_exptl_crystal_recrystallization_method methanol/dichloromethane
loop_
_atom_site_label
_atom_site_type_symbol
_atom_site_fract_x
_atom_site_fract_y
_atom_site_fract_z
C1 C 0.14579(11) 0.79335(13) 0.16728(6)
C2 C 0.02576(10) 0.74840(13) 0.15172(6)
C3 C -0.05802(12) 0.85206(15) 0.16547(8)
H1 H -0.1387 0.8243 0.1554
C4 C -0.02146(14) 0.99419(16) 0.19373(8)
H2 H -0.0774 1.0612 0.2037
C5 C 0.09758(14) 1.03937(16) 0.20762(8)
H3 H 0.1208 1.1371 0.2257
C6 C 0.18058(12) 0.94065(15) 0.19480(7)
H4 H 0.2606 0.9709 0.2043
C7 C 0.23377(10) 0.68658(14) 0.15427(7)
C8 C 0.06580(9) 0.51041(13) 0.11378(6)
C9 C 0.27399(9) 0.42459(14) 0.12439(6)
C10 C 0.33853(10) 0.35392(14) 0.18934(7)
C11 C 0.41817(10) 0.23803(15) 0.18518(8)
H5 H 0.4634 0.1906 0.2281
C12 C 0.43103(10) 0.19237(15) 0.11810(8)
H6 H 0.4834 0.1127 0.1160
C13 C 0.36727(12) 0.26327(16) 0.05411(8)
H7 H 0.3767 0.2321 0.0090
C14 C 0.28910(11) 0.38117(15) 0.05734(7)
H8 H 0.2468 0.4311 0.0144
C15 C -0.07866(10) 0.29493(13) 0.07155(7)
C16 C -0.10077(12) 0.17938(15) 0.01980(7)
H9 H -0.0431 0.1553 -0.0042
C17 C -0.20769(13) 0.09931(18) 0.00341(8)
H10 H -0.2218 0.0210 -0.0313
C18 C -0.29321(13) 0.1351(2) 0.03829(11)
H11 H -0.3660 0.0823 0.0269
C19 C -0.27106(13) 0.24912(18) 0.09009(11)
H12 H -0.3291 0.2726 0.1140
C20 C -0.16407(11) 0.32979(16) 0.10748(9)
H13 H -0.1498 0.4066 0.1430
N1 N 0.18861(7) 0.54311(10) 0.12879(5)
N2 N -0.01409(8) 0.60588(11) 0.12228(6)
N3 N 0.03525(9) 0.36584(12) 0.08787(6)
H17 H 0.0925(13) 0.3156(15) 0.0783(8)
O1 O 0.34102(7) 0.71482(11) 0.16472(5)
O2 O 0.31895(9) 0.40317(12) 0.25304(5)
H18 H 0.3655(16) 0.346(2) 0.2930(11)
C21 C 0.58910(15) 0.6035(2) 0.12019(10)
H14 H 0.6736 0.6041 0.1238
H15 H 0.5450 0.5624 0.0733
H16 H 0.5752 0.5414 0.1589
O3 O 0.54980(9) 0.75565(12) 0.12703(6)
H19 H 0.4742(18) 0.750(2) 0.1312(11)
loop_
_geom_bond_atom_site_label_1
_geom_bond_atom_site_label_2
_geom_bond_site_symmetry_1
_geom_bond_site_symmetry_2
C1 C2 1_555 1_555
C2 C3 1_555 1_555
C3 H1 1_555 1_555
C4 C3 1_555 1_555
H2 C4 1_555 1_555
C5 C4 1_555 1_555
H3 C5 1_555 1_555
C6 C1 1_555 1_555
H4 C6 1_555 1_555
C7 C1 1_555 1_555
C8 N1 1_555 1_555
C9 C10 1_555 1_555
C10 C11 1_555 1_555
C11 H5 1_555 1_555
C12 C11 1_555 1_555
H6 C12 1_555 1_555
C13 C12 1_555 1_555
H7 C13 1_555 1_555
C14 C9 1_555 1_555
H8 C14 1_555 1_555
C15 C16 1_555 1_555
C16 H9 1_555 1_555
C17 C16 1_555 1_555
H10 C17 1_555 1_555
C18 C17 1_555 1_555
H11 C18 1_555 1_555
C19 C18 1_555 1_555
H12 C19 1_555 1_555
C20 C15 1_555 1_555
H13 C20 1_555 1_555
C21 H14 1_555 1_555
H15 C21 1_555 1_555
H16 C21 1_555 1_555
N1 C7 1_555 1_555
N2 C2 1_555 1_555
N3 C8 1_555 1_555
H17 N3 1_555 1_555
O1 C7 1_555 1_555
O2 C10 1_555 1_555
H18 O2 1_555 1_555
O3 C21 1_555 1_555
H19 O3 1_555 1_555
C5 C6 1_555 1_555
C8 N2 1_555 1_555
C9 N1 1_555 1_555
C13 C14 1_555 1_555
C15 N3 1_555 1_555
C19 C20 1_555 1_555

#END
