
#######################################################################
#
#                 Cambridge Crystallographic Data Centre
#                                CCDC 
#
#######################################################################
#
# If this CIF has been generated from an entry in the Cambridge 
# Structural Database, then it will include bibliographic, chemical, 
# crystal, experimental, refinement or atomic coordinate data resulting 
# from the CCDC's data processing and validation procedures.
#
#######################################################################

data_SUYVIS
_chemical_formula_moiety         'C23 H16 N2 O3'
_chemical_name_systematic        
(Z)-1-Acetyl-3-[2-oxo-1-phenyl-2-(3-pyridyl)ethylidene]indolin-2-one
_symmetry_cell_setting           triclinic
_symmetry_space_group_name_H-M   'P -1'
_symmetry_Int_Tables_number      2
_space_group_name_Hall           '-P 1'
loop_
_symmetry_equiv_pos_site_id
_symmetry_equiv_pos_as_xyz
1 x,y,z
2 -x,-y,-z
_cell_length_a                   7.9259(19)
_cell_length_b                   9.086(2)
_cell_length_c                   12.431(3)
_cell_angle_alpha                84.804(7)
_cell_angle_beta                 87.064(7)
_cell_angle_gamma                76.843(6)
_cell_volume                     867.701
_exptl_crystal_colour            yellow
_exptl_crystal_description       block
_chemical_melting_point          '568-571 K'
_cell_formula_units_Z            2
_exptl_crystal_recrystallization_method 'acetone/petroleum ether'
loop_
_atom_site_label
_atom_site_type_symbol
_atom_site_fract_x
_atom_site_fract_y
_atom_site_fract_z
O1 O 0.74656(11) 0.64928(9) 0.08150(6)
O2 O 0.94194(10) 0.51863(9) 0.29214(7)
O3 O 0.61891(12) 0.98853(10) -0.16758(7)
N1 N 0.72823(12) 0.89175(10) -0.00538(7)
N2 N 0.48355(13) 0.38455(11) 0.38814(8)
C1 C 0.80969(13) 1.00838(12) 0.13505(8)
C2 C 0.86200(14) 1.12405(12) 0.18121(9)
H1 H 0.8958 1.1110 0.2526
C3 C 0.86325(15) 1.25906(13) 0.11949(10)
H2 H 0.8961 1.3375 0.1501
C4 C 0.81564(16) 1.27772(13) 0.01211(10)
H3 H 0.8160 1.3692 -0.0279
C5 C 0.76744(15) 1.16211(13) -0.03661(9)
H4 H 0.7379 1.1742 -0.1088
C6 C 0.76495(13) 1.02835(12) 0.02614(8)
C7 C 0.75826(13) 0.77964(12) 0.08245(8)
C8 C 0.79925(13) 0.85485(11) 0.17647(8)
C9 C 0.80773(13) 0.78123(11) 0.27615(8)
C10 C 0.80593(13) 0.61403(11) 0.29125(8)
C11 C 0.63598(13) 0.57473(11) 0.31789(8)
C12 C 0.47958(14) 0.67902(12) 0.29924(9)
H5 H 0.4784 0.7776 0.2711
C13 C 0.32642(14) 0.63324(13) 0.32333(9)
H6 H 0.2201 0.6996 0.3104
C14 C 0.33486(14) 0.48613(13) 0.36719(9)
H7 H 0.2312 0.4559 0.3831
C15 C 0.63067(14) 0.42976(12) 0.36275(9)
H8 H 0.7352 0.3606 0.3757
C16 C 0.80906(13) 0.84819(11) 0.38002(8)
C17 C 0.90394(13) 0.76491(12) 0.46632(8)
H9 H 0.9728 0.6691 0.4568
C18 C 0.89565(14) 0.82461(12) 0.56573(9)
H10 H 0.9591 0.7688 0.6226
C19 C 0.79292(14) 0.96743(12) 0.58082(9)
H11 H 0.7894 1.0079 0.6472
C20 C 0.69532(14) 1.04977(12) 0.49644(9)
H12 H 0.6253 1.1448 0.5068
C21 C 0.70218(13) 0.99052(12) 0.39705(9)
H13 H 0.6355 1.0455 0.3412
C22 C 0.66296(14) 0.87655(13) -0.10556(9)
C23 C 0.65025(17) 0.72265(14) -0.13229(10)
H14 H 0.6085 0.7288 -0.2041
H15 H 0.5715 0.6849 -0.0817
H16 H 0.7626 0.6552 -0.1283
loop_
_geom_bond_atom_site_label_1
_geom_bond_atom_site_label_2
_geom_bond_site_symmetry_1
_geom_bond_site_symmetry_2
O1 C7 1_555 1_555
O2 C10 1_555 1_555
O3 C22 1_555 1_555
N1 C6 1_555 1_555
N2 C14 1_555 1_555
C1 C2 1_555 1_555
C2 H1 1_555 1_555
C3 C2 1_555 1_555
H2 C3 1_555 1_555
C4 C3 1_555 1_555
H3 C4 1_555 1_555
C5 C4 1_555 1_555
H4 C5 1_555 1_555
C6 C1 1_555 1_555
C7 N1 1_555 1_555
C8 C1 1_555 1_555
C9 C8 1_555 1_555
C10 C9 1_555 1_555
C11 C10 1_555 1_555
C12 C11 1_555 1_555
H5 C12 1_555 1_555
C13 C12 1_555 1_555
H6 C13 1_555 1_555
C14 C13 1_555 1_555
H7 C14 1_555 1_555
C15 N2 1_555 1_555
H8 C15 1_555 1_555
C16 C9 1_555 1_555
C17 C16 1_555 1_555
H9 C17 1_555 1_555
C18 C17 1_555 1_555
H10 C18 1_555 1_555
C19 C18 1_555 1_555
H11 C19 1_555 1_555
C20 C19 1_555 1_555
H12 C20 1_555 1_555
C21 C16 1_555 1_555
H13 C21 1_555 1_555
C22 N1 1_555 1_555
C23 C22 1_555 1_555
H14 C23 1_555 1_555
H15 C23 1_555 1_555
H16 C23 1_555 1_555
C5 C6 1_555 1_555
C7 C8 1_555 1_555
C11 C15 1_555 1_555
C20 C21 1_555 1_555

#END
