
#######################################################################
#
#                 Cambridge Crystallographic Data Centre
#                                CCDC 
#
#######################################################################
#
# If this CIF has been generated from an entry in the Cambridge 
# Structural Database, then it will include bibliographic, chemical, 
# crystal, experimental, refinement or atomic coordinate data resulting 
# from the CCDC's data processing and validation procedures.
#
#######################################################################

data_SUYXAM
_chemical_formula_moiety         'C21 H20 N4 O4 S2'
_chemical_name_systematic        
'2-(2,3-Dioxoindolin-1-yl)ethyl 4-(4-nitrophenyl)piperazine-1-carbodithioate'
_symmetry_cell_setting           monoclinic
_symmetry_space_group_name_H-M   'C 2/c'
_symmetry_Int_Tables_number      15
_space_group_name_Hall           '-C 2yn'
loop_
_symmetry_equiv_pos_site_id
_symmetry_equiv_pos_as_xyz
1 x,y,z
2 -x,y,1/2-z
3 1/2+x,1/2+y,z
4 1/2-x,1/2+y,1/2-z
5 -x,-y,-z
6 x,-y,1/2+z
7 1/2-x,1/2-y,-z
8 1/2+x,1/2-y,1/2+z
_cell_length_a                   34.4244(8)
_cell_length_b                   6.8754(2)
_cell_length_c                   17.9938(4)
_cell_angle_alpha                90
_cell_angle_beta                 103.1850(10)
_cell_angle_gamma                90
_cell_volume                     4146.53
_exptl_crystal_colour            orange
_exptl_crystal_description       block
_chemical_melting_point          '252-254 deg.C'
_cell_formula_units_Z            8
_exptl_crystal_recrystallization_method dichloromethane/methanol
loop_
_atom_site_label
_atom_site_type_symbol
_atom_site_fract_x
_atom_site_fract_y
_atom_site_fract_z
C1 C 0.22169(4) 0.0960(3) 0.55107(9)
C2 C 0.20345(5) -0.0339(3) 0.49616(10)
H1 H 0.2133 -0.1597 0.4960
C3 C 0.17055(5) 0.0221(2) 0.44143(9)
H2 H 0.1585 -0.0664 0.4042
C4 C 0.15485(4) 0.2101(2) 0.44084(8)
C5 C 0.17505(5) 0.3391(3) 0.49705(9)
H3 H 0.1660 0.4664 0.4974
C6 C 0.20780(5) 0.2823(3) 0.55145(10)
H4 H 0.2205 0.3700 0.5884
C7 C 0.10263(5) 0.1336(2) 0.32661(9)
H5 H 0.1046 0.0009 0.3453
H6 H 0.1175 0.1426 0.2870
C8 C 0.05960(5) 0.1827(2) 0.29344(9)
H7 H 0.0493 0.0991 0.2500
H8 H 0.0441 0.1595 0.3313
C9 C 0.07011(5) 0.5142(2) 0.33419(8)
H9 H 0.0544 0.4955 0.3721
H10 H 0.0673 0.6487 0.3175
C10 C 0.11353(5) 0.4710(2) 0.36929(9)
H11 H 0.1295 0.5070 0.3335
H12 H 0.1222 0.5493 0.4149
C11 C 0.12259(4) 0.8667(2) 0.12798(7)
C12 C 0.13746(5) 0.7170(3) 0.17715(9)
H13 H 0.1250 0.5962 0.1733
C13 C 0.17187(5) 0.7545(4) 0.23274(10)
H14 H 0.1826 0.6558 0.2666
C14 C 0.19059(5) 0.9315(4) 0.23961(11)
H15 H 0.2135 0.9509 0.2779
C15 C 0.17588(5) 1.0806(3) 0.19041(11)
H16 H 0.1885 1.2012 0.1948
C16 C 0.14155(4) 1.0463(2) 0.13361(9)
C17 C 0.12020(5) 1.1645(2) 0.07061(10)
C18 C 0.08641(4) 1.0341(2) 0.02587(8)
C19 C 0.06096(4) 0.7055(2) 0.04397(8)
H17 H 0.0745 0.5833 0.0592
H18 H 0.0517 0.7040 -0.0111
C20 C 0.02520(4) 0.7204(2) 0.07963(8)
H19 H 0.0061 0.6212 0.0573
H20 H 0.0126 0.8459 0.0665
C21 C 0.04231(4) 0.4390(2) 0.19615(7)
N1 N 0.12011(4) 0.26548(18) 0.38917(7)
N2 N 0.05537(4) 0.38618(19) 0.26924(7)
N3 N 0.25633(5) 0.0353(3) 0.60869(9)
N4 N 0.08920(3) 0.86365(18) 0.06542(6)
O1 O 0.27296(4) 0.1532(3) 0.65616(9)
O2 O 0.26757(6) -0.1329(3) 0.60752(10)
O3 O 0.12620(4) 1.32892(19) 0.05188(9)
O4 O 0.06274(4) 1.07378(18) -0.03291(6)
S1 S 0.031276(12) 0.28227(6) 0.12387(2)
S2 S 0.036236(11) 0.69395(5) 0.18228(2)
loop_
_geom_bond_atom_site_label_1
_geom_bond_atom_site_label_2
_geom_bond_site_symmetry_1
_geom_bond_site_symmetry_2
C1 C2 1_555 1_555
C2 H1 1_555 1_555
C3 C2 1_555 1_555
H2 C3 1_555 1_555
C4 C3 1_555 1_555
C5 C4 1_555 1_555
H3 C5 1_555 1_555
C6 C1 1_555 1_555
H4 C6 1_555 1_555
C7 H5 1_555 1_555
H6 C7 1_555 1_555
C8 C7 1_555 1_555
H7 C8 1_555 1_555
H8 C8 1_555 1_555
C9 H9 1_555 1_555
H10 C9 1_555 1_555
C10 C9 1_555 1_555
H11 C10 1_555 1_555
H12 C10 1_555 1_555
C11 C12 1_555 1_555
C12 H13 1_555 1_555
C13 C12 1_555 1_555
H14 C13 1_555 1_555
C14 C13 1_555 1_555
H15 C14 1_555 1_555
C15 C14 1_555 1_555
H16 C15 1_555 1_555
C16 C11 1_555 1_555
C17 C16 1_555 1_555
C18 C17 1_555 1_555
C19 H17 1_555 1_555
H18 C19 1_555 1_555
C20 C19 1_555 1_555
H19 C20 1_555 1_555
H20 C20 1_555 1_555
C21 N2 1_555 1_555
N1 C4 1_555 1_555
N2 C8 1_555 1_555
N3 C1 1_555 1_555
N4 C11 1_555 1_555
O1 N3 1_555 1_555
O2 N3 1_555 1_555
O3 C17 1_555 1_555
O4 C18 1_555 1_555
S1 C21 1_555 1_555
S2 C20 1_555 1_555
C5 C6 1_555 1_555
C7 N1 1_555 1_555
C9 N2 1_555 1_555
C10 N1 1_555 1_555
C15 C16 1_555 1_555
C18 N4 1_555 1_555
C19 N4 1_555 1_555
C21 S2 1_555 1_555

#END
