
#######################################################################
#
#                 Cambridge Crystallographic Data Centre
#                                CCDC 
#
#######################################################################
#
# If this CIF has been generated from an entry in the Cambridge 
# Structural Database, then it will include bibliographic, chemical, 
# crystal, experimental, refinement or atomic coordinate data resulting 
# from the CCDC's data processing and validation procedures.
#
#######################################################################

data_SUYZAO
_chemical_formula_moiety         'C21 H20 O5'
_chemical_name_systematic        
(E)-1-[4-(Prop-2-yn-1-yloxy)phenyl]-3-(3,4,5-trimethoxyphenyl)prop-2-en-1-one
_symmetry_cell_setting           monoclinic
_symmetry_space_group_name_H-M   'P 21/n'
_symmetry_Int_Tables_number      14
_space_group_name_Hall           '-P 2yn'
loop_
_symmetry_equiv_pos_site_id
_symmetry_equiv_pos_as_xyz
1 x,y,z
2 1/2-x,1/2+y,1/2-z
3 -x,-y,-z
4 1/2+x,1/2-y,1/2+z
_cell_length_a                   11.6344(8)
_cell_length_b                   11.5970(7)
_cell_length_c                   14.4169(12)
_cell_angle_alpha                90
_cell_angle_beta                 107.763(5)
_cell_angle_gamma                90
_cell_volume                     1852.45
_exptl_crystal_colour            white
_exptl_crystal_description       block
_cell_formula_units_Z            4
loop_
_atom_site_label
_atom_site_type_symbol
_atom_site_fract_x
_atom_site_fract_y
_atom_site_fract_z
C1 C 0.66574(17) 0.75233(16) 0.97300(13)
C2 C 0.62260(15) 0.70881(13) 0.89685(11)
C3 C 0.56205(15) 0.65629(13) 0.80251(11)
H1 H 0.4755 0.6554 0.7911
H2 H 0.5786 0.7004 0.7509
C4 C 0.55619(14) 0.47568(12) 0.72216(9)
C5 C 0.46132(14) 0.51032(13) 0.64241(10)
H3 H 0.4257 0.5822 0.6419
C6 C 0.42044(13) 0.43671(13) 0.56392(10)
H4 H 0.3566 0.4598 0.5107
C7 C 0.47225(12) 0.32897(12) 0.56250(10)
C8 C 0.56578(14) 0.29515(13) 0.64418(11)
H5 H 0.6010 0.2230 0.6450
C9 C 0.60697(15) 0.36650(13) 0.72363(11)
H6 H 0.6684 0.3421 0.7781
C10 C 0.42741(13) 0.25699(12) 0.47322(10)
C11 C 0.50561(13) 0.16440(12) 0.45563(10)
H7 H 0.5799 0.1498 0.5016
C12 C 0.47078(13) 0.10202(11) 0.37496(10)
H8 H 0.3920 0.1139 0.3355
C13 C 0.54076(12) 0.01680(11) 0.34013(9)
C14 C 0.49568(12) -0.01780(11) 0.24300(10)
H9 H 0.4206 0.0082 0.2047
C15 C 0.56300(12) -0.09099(11) 0.20353(9)
C16 C 0.67466(12) -0.13097(11) 0.26139(9)
C17 C 0.71902(12) -0.09784(11) 0.35925(9)
C18 C 0.65216(12) -0.02431(11) 0.39853(9)
H10 H 0.6814 -0.0024 0.4636
C19 C 0.41300(14) -0.09359(15) 0.04783(11)
H11 H 0.3518 -0.1213 0.0743
H12 H 0.3999 -0.1253 -0.0161
H13 H 0.4094 -0.0110 0.0438
C20 C 0.73073(19) -0.32061(14) 0.24124(15)
H14 H 0.7478 -0.3316 0.3101
H15 H 0.7867 -0.3647 0.2186
H16 H 0.6499 -0.3457 0.2083
C21 C 0.88002(15) -0.10781(15) 0.50787(11)
H17 H 0.8881 -0.0254 0.5118
H18 H 0.9580 -0.1428 0.5342
H19 H 0.8280 -0.1327 0.5445
O1 O 0.60592(11) 0.54149(9) 0.80317(7)
O2 O 0.33027(10) 0.27793(11) 0.41288(9)
O3 O 0.52865(9) -0.12805(9) 0.10934(7)
O4 O 0.74235(9) -0.20129(9) 0.22148(7)
O5 O 0.82941(9) -0.14134(9) 0.40858(7)
H20 H 0.6977(17) 0.7866(17) 1.0333(15)
loop_
_geom_bond_atom_site_label_1
_geom_bond_atom_site_label_2
_geom_bond_site_symmetry_1
_geom_bond_site_symmetry_2
C1 C2 1_555 1_555
C2 C3 1_555 1_555
C3 H1 1_555 1_555
H2 C3 1_555 1_555
C4 C5 1_555 1_555
C5 H3 1_555 1_555
C6 C5 1_555 1_555
H4 C6 1_555 1_555
C7 C6 1_555 1_555
C8 C7 1_555 1_555
H5 C8 1_555 1_555
C9 C4 1_555 1_555
H6 C9 1_555 1_555
C10 C7 1_555 1_555
C11 C10 1_555 1_555
H7 C11 1_555 1_555
C12 C11 1_555 1_555
H8 C12 1_555 1_555
C13 C12 1_555 1_555
C14 C13 1_555 1_555
H9 C14 1_555 1_555
C15 C14 1_555 1_555
C16 C15 1_555 1_555
C17 C16 1_555 1_555
C18 C13 1_555 1_555
H10 C18 1_555 1_555
C19 H11 1_555 1_555
H12 C19 1_555 1_555
H13 C19 1_555 1_555
C20 H14 1_555 1_555
H15 C20 1_555 1_555
H16 C20 1_555 1_555
C21 H17 1_555 1_555
H18 C21 1_555 1_555
H19 C21 1_555 1_555
O1 C3 1_555 1_555
O2 C10 1_555 1_555
O3 C15 1_555 1_555
O4 C16 1_555 1_555
O5 C17 1_555 1_555
H20 C1 1_555 1_555
C4 O1 1_555 1_555
C8 C9 1_555 1_555
C17 C18 1_555 1_555
C19 O3 1_555 1_555
C20 O4 1_555 1_555
C21 O5 1_555 1_555

#END
