
#######################################################################
#
#                 Cambridge Crystallographic Data Centre
#                                CCDC 
#
#######################################################################
#
# If this CIF has been generated from an entry in the Cambridge 
# Structural Database, then it will include bibliographic, chemical, 
# crystal, experimental, refinement or atomic coordinate data resulting 
# from the CCDC's data processing and validation procedures.
#
#######################################################################

data_SUYZAP
_chemical_formula_moiety         'C9 H11 N1 O1,0.5(C2 H2 O4)'
_chemical_name_systematic        
'4-(dimethylamino)benzaldehyde hemikis(oxalic acid)'
_symmetry_cell_setting           triclinic
_symmetry_space_group_name_H-M   'P -1'
_symmetry_Int_Tables_number      2
_space_group_name_Hall           '-P 1'
loop_
_symmetry_equiv_pos_site_id
_symmetry_equiv_pos_as_xyz
1 x,y,z
2 -x,-y,-z
_cell_length_a                   5.136(5)
_cell_length_b                   9.268(10)
_cell_length_c                   10.826(12)
_cell_angle_alpha                75.449(14)
_cell_angle_beta                 85.716(14)
_cell_angle_gamma                79.293(13)
_cell_volume                     489.896
_exptl_crystal_colour            colorless
_exptl_crystal_description       block
_cell_formula_units_Z            2
loop_
_atom_site_label
_atom_site_type_symbol
_atom_site_fract_x
_atom_site_fract_y
_atom_site_fract_z
N1 N -0.0485(9) 0.2943(5) 0.1252(4)
O1 O 0.8647(8) -0.2739(5) 0.2972(4)
C1 C 0.7942(11) -0.1563(6) 0.3330(6)
H1 H 0.8899 -0.1402 0.3965
C2 C 0.5740(11) -0.0431(6) 0.2828(5)
C3 C 0.5027(11) 0.0861(6) 0.3273(5)
H2 H 0.5982 0.0986 0.3924
C4 C 0.2953(11) 0.1961(6) 0.2783(5)
H3 H 0.2501 0.2811 0.3114
C5 C 0.1517(11) 0.1827(6) 0.1799(5)
C6 C 0.2228(11) 0.0508(6) 0.1346(6)
H4 H 0.1292 0.0376 0.0691
C7 C 0.4284(11) -0.0574(6) 0.1865(6)
H5 H 0.4719 -0.1442 0.1558
C8 C -0.1418(12) 0.4244(6) 0.1759(6)
H6 H -0.2541 0.3970 0.2499
H7 H -0.2405 0.5028 0.1124
H8 H 0.0067 0.4602 0.1993
C9 C -0.1984(12) 0.2755(7) 0.0253(6)
H9 H -0.0807 0.2566 -0.0442
H10 H -0.3254 0.3658 -0.0042
H11 H -0.2894 0.1914 0.0575
O2 O 0.2658(8) 0.5300(4) 0.3857(4)
H12 H 0.1430 0.5990 0.3595
O3 O 0.3264(8) 0.6749(4) 0.5103(4)
C10 C 0.3863(11) 0.5628(6) 0.4735(6)
O2A O 0.7342(8) 0.4700(4) 0.6143(4)
H12A H 0.8570 0.4010 0.6405
O3A O 0.6736(8) 0.3251(4) 0.4897(4)
C10A C 0.6137(11) 0.4372(6) 0.5265(6)
loop_
_geom_bond_atom_site_label_1
_geom_bond_atom_site_label_2
_geom_bond_site_symmetry_1
_geom_bond_site_symmetry_2
N1 C5 1_555 1_555
O1 C1 1_555 1_555
C1 H1 1_555 1_555
C2 C1 1_555 1_555
C3 C2 1_555 1_555
H2 C3 1_555 1_555
C4 C3 1_555 1_555
H3 C4 1_555 1_555
C5 C4 1_555 1_555
C6 C5 1_555 1_555
H4 C6 1_555 1_555
C7 C2 1_555 1_555
H5 C7 1_555 1_555
C8 N1 1_555 1_555
H6 C8 1_555 1_555
H7 C8 1_555 1_555
H8 C8 1_555 1_555
C9 N1 1_555 1_555
H9 C9 1_555 1_555
H10 C9 1_555 1_555
H11 C9 1_555 1_555
O2 H12 1_555 1_555
O3 C10 1_555 1_555
C10 O2 1_555 1_555
O2A H12A 1_555 1_555
O3A C10A 1_555 1_555
C10A C10 1_555 1_555
C6 C7 1_555 1_555
O2A C10A 1_555 1_555

#END
