
#######################################################################
#
#                 Cambridge Crystallographic Data Centre
#                                CCDC 
#
#######################################################################
#
# If this CIF has been generated from an entry in the Cambridge 
# Structural Database, then it will include bibliographic, chemical, 
# crystal, experimental, refinement or atomic coordinate data resulting 
# from the CCDC's data processing and validation procedures.
#
#######################################################################

data_SUZBOG
_chemical_formula_moiety         'C15 H28 O3'
_chemical_name_systematic        
1-(2-hydroxy-2-methylpropyl)-3a,7-dimethyloctahydro-1H-indene-4,7-diol
_symmetry_cell_setting           monoclinic
_symmetry_space_group_name_H-M   'P 21'
_symmetry_Int_Tables_number      4
_space_group_name_Hall           'P 2yb'
loop_
_symmetry_equiv_pos_site_id
_symmetry_equiv_pos_as_xyz
1 x,y,z
2 -x,1/2+y,-z
_cell_length_a                   6.3040(3)
_cell_length_b                   14.7161(8)
_cell_length_c                   8.1547(5)
_cell_angle_alpha                90
_cell_angle_beta                 90.0410(10)
_cell_angle_gamma                90
_cell_volume                     756.514
_cell_formula_units_Z            2
loop_
_atom_site_label
_atom_site_type_symbol
_atom_site_fract_x
_atom_site_fract_y
_atom_site_fract_z
O1 O 0.6837(3) 0.58123(13) 0.4522(3)
H1 H 0.5950 0.6147 0.4942
O2 O 0.6242(3) 0.20075(15) 0.4317(3)
H2 H 0.7232 0.1749 0.3862
O3 O 1.0094(3) 0.61864(19) 0.6844(3)
H3 H 0.9241 0.6053 0.6124
C1 C 0.5528(4) 0.4420(2) 0.5834(3)
H4 H 0.4272 0.4691 0.6346
C2 C 0.5897(5) 0.4930(2) 0.4204(4)
C3 C 0.7516(5) 0.4429(2) 0.3154(3)
H5 H 0.8898 0.4468 0.3673
H6 H 0.7612 0.4722 0.2092
C4 C 0.6931(5) 0.3428(2) 0.2913(4)
H7 H 0.5589 0.3386 0.2336
H8 H 0.8006 0.3133 0.2250
C5 C 0.6757(4) 0.29516(19) 0.4538(4)
H9 H 0.8142 0.2986 0.5080
C6 C 0.5101(4) 0.33787(19) 0.5691(4)
C7 C 0.5489(6) 0.3070(2) 0.7467(4)
H10 H 0.4260 0.3198 0.8144
H11 H 0.5780 0.2424 0.7508
C8 C 0.7418(6) 0.3616(2) 0.8060(4)
H12 H 0.8720 0.3285 0.7848
H13 H 0.7319 0.3735 0.9227
C9 C 0.7376(4) 0.4519(2) 0.7074(3)
H14 H 0.8699 0.4558 0.6448
C10 C 0.7211(4) 0.5380(2) 0.8154(4)
H15 H 0.6190 0.5789 0.7658
H16 H 0.6661 0.5205 0.9219
C11 C 0.9287(5) 0.5898(2) 0.8413(4)
C12 C 0.8856(7) 0.6738(3) 0.9464(5)
H17 H 1.0144 0.7079 0.9592
H18 H 0.8348 0.6553 1.0521
H19 H 0.7806 0.7110 0.8937
C13 C 1.1004(5) 0.5309(3) 0.9190(4)
H20 H 1.1238 0.4781 0.8524
H21 H 1.0560 0.5125 1.0266
H22 H 1.2297 0.5652 0.9272
C14 C 0.3841(5) 0.5093(3) 0.3251(5)
H23 H 0.2866 0.5428 0.3923
H24 H 0.3222 0.4520 0.2957
H25 H 0.4145 0.5434 0.2276
C15 C 0.2832(5) 0.3144(2) 0.5160(5)
H26 H 0.2765 0.3112 0.3985
H27 H 0.1877 0.3605 0.5544
H28 H 0.2434 0.2568 0.5618
loop_
_geom_bond_atom_site_label_1
_geom_bond_atom_site_label_2
_geom_bond_site_symmetry_1
_geom_bond_site_symmetry_2
O1 H1 1_555 1_555
O2 H2 1_555 1_555
O3 H3 1_555 1_555
C1 H4 1_555 1_555
C2 O1 1_555 1_555
C3 C2 1_555 1_555
H5 C3 1_555 1_555
H6 C3 1_555 1_555
C4 C3 1_555 1_555
H7 C4 1_555 1_555
H8 C4 1_555 1_555
C5 O2 1_555 1_555
H9 C5 1_555 1_555
C6 C1 1_555 1_555
C7 C6 1_555 1_555
H10 C7 1_555 1_555
H11 C7 1_555 1_555
C8 C7 1_555 1_555
H12 C8 1_555 1_555
H13 C8 1_555 1_555
C9 C1 1_555 1_555
H14 C9 1_555 1_555
C10 C9 1_555 1_555
H15 C10 1_555 1_555
H16 C10 1_555 1_555
C11 O3 1_555 1_555
C12 C11 1_555 1_555
H17 C12 1_555 1_555
H18 C12 1_555 1_555
H19 C12 1_555 1_555
C13 C11 1_555 1_555
H20 C13 1_555 1_555
H21 C13 1_555 1_555
H22 C13 1_555 1_555
C14 C2 1_555 1_555
H23 C14 1_555 1_555
H24 C14 1_555 1_555
H25 C14 1_555 1_555
C15 C6 1_555 1_555
H26 C15 1_555 1_555
H27 C15 1_555 1_555
H28 C15 1_555 1_555
C1 C2 1_555 1_555
C4 C5 1_555 1_555
C5 C6 1_555 1_555
C8 C9 1_555 1_555
C10 C11 1_555 1_555

#END
