
#######################################################################
#
#                 Cambridge Crystallographic Data Centre
#                                CCDC 
#
#######################################################################
#
# If this CIF has been generated from an entry in the Cambridge 
# Structural Database, then it will include bibliographic, chemical, 
# crystal, experimental, refinement or atomic coordinate data resulting 
# from the CCDC's data processing and validation procedures.
#
#######################################################################

data_SUZFOI
_chemical_formula_moiety         'C20 H22 S12 1+,I3 1-'
_chemical_name_systematic        
'2-(4,5-bis(n-Butylthio)-1,3-dithiol-2-ylidene)-5-(4,5-(ethylenedithio)-1,3-dithiol-2-ylidene)-1,3,4,6-tetrathiapentalene tri-iodide'
_symmetry_cell_setting           triclinic
_symmetry_space_group_name_H-M   'P -1'
_symmetry_Int_Tables_number      2
_space_group_name_Hall           '-P 1'
loop_
_symmetry_equiv_pos_site_id
_symmetry_equiv_pos_as_xyz
1 x,y,z
2 -x,-y,-z
_cell_length_a                   9.801(8)
_cell_length_b                   23.71(2)
_cell_length_c                   8.677(4)
_cell_angle_alpha                102.57(1)
_cell_angle_beta                 124.42(4)
_cell_angle_gamma                90.19(6)
_cell_volume                     1603.36
_exptl_crystal_colour            black
_exptl_crystal_description       plate
_cell_formula_units_Z            2
loop_
_atom_site_label
_atom_site_type_symbol
_atom_site_fract_x
_atom_site_fract_y
_atom_site_fract_z
I1 I 0.9023(3) 0.43611(9) 0.3049(3)
I2 I 0.7299(3) 0.3352(1) -0.0402(3)
I3 I 0.5510(3) 0.23478(9) -0.3969(3)
S1 S 1.0794(9) 0.6740(3) 0.300(1)
S2 S 0.7183(9) 0.6739(3) 0.298(1)
S3 S 0.8899(8) 0.5627(3) -0.0134(9)
S4 S 0.5967(8) 0.5630(3) -0.0126(10)
S5 S 0.7081(8) 0.4454(3) -0.3837(9)
S6 S 0.4083(8) 0.4459(3) -0.3834(9)
S7 S 0.5358(9) 0.3347(3) -0.7311(10)
S8 S 0.2319(9) 0.3347(3) -0.731(1)
S9 S 0.388(1) 0.2033(4) -1.027(1)
S10 S 0.082(1) 0.2036(4) -1.030(2)
S11 S 0.286(2) 0.0764(4) -1.271(2)
S12 S -0.058(2) 0.0769(4) -1.271(2)
C1 C 1.067(4) 0.725(3) 0.47(1)
C2 C 0.962(5) 0.710(2) 0.485(6)
C3 C 0.898(4) 0.620(1) 0.157(5)
C4 C 0.761(4) 0.623(1) 0.165(4)
C5 C 0.700(4) 0.5284(10) -0.113(3)
C6 C 0.612(3) 0.4795(10) -0.281(4)
C7 C 0.531(3) 0.389(1) -0.555(3)
C8 C 0.402(2) 0.388(1) -0.556(3)
C9 C 0.345(3) 0.2977(10) -0.822(3)
C10 C 0.277(3) 0.2421(9) -0.945(3)
C11 C 0.226(6) 0.137(1) -1.164(5)
C12 C 0.094(5) 0.136(1) -1.163(6)
C13 C 0.224(5) 0.098(2) -1.495(5)
C14 C 0.023(9) 0.116(4) -1.630(10)
C15 C -0.015(7) 0.129(3) -1.82(1)
C16 C -0.195(8) 0.149(3) -1.909(8)
C17 C -0.214(5) 0.100(3) -1.472(8)
C18 C -0.43(2) 0.057(3) -1.57(1)
C19 C -0.578(3) 0.046(7) -1.816(10)
C20 C -0.695(5) 0.020(1) -1.886(5)
H1 H 1.1724 0.7335 0.5891
H2 H 1.0419 0.7602 0.4249
H3 H 0.9602 0.7438 0.5645
H4 H 1.0103 0.6818 0.5576
H5 H 0.3026 0.1302 -1.4579
H6 H 0.2300 0.0654 -1.5771
H7 H -0.0570 0.0851 -1.6629
H8 H 0.0175 0.1505 -1.5538
H9 H 0.0656 0.1590 -1.7909
H10 H -0.0199 0.0946 -1.9035
H11 H -0.1869 0.1829 -1.8203
H12 H -0.2326 0.1578 -2.0273
H13 H -0.2725 0.1185 -1.9319
H14 H -0.2136 0.1408 -1.4345
H15 H -0.1939 0.0923 -1.5697
H16 H -0.4081 0.0196 -1.5439
H17 H -0.4687 0.0776 -1.5027
H18 H -0.6002 0.0831 -1.8371
H19 H -0.5294 0.0281 -1.8796
H20 H -0.7502 0.0363 -1.8296
H21 H -0.7612 0.0184 -2.0197
H22 H -0.6793 -0.0188 -1.8716
loop_
_geom_bond_atom_site_label_1
_geom_bond_atom_site_label_2
_geom_bond_site_symmetry_1
_geom_bond_site_symmetry_2
I1 I2 1_555 1_555
I2 I3 1_555 1_555
S1 C1 1_555 1_555
S2 C2 1_555 1_555
S3 C3 1_555 1_555
S4 C4 1_555 1_555
S5 C6 1_555 1_555
S6 C6 1_555 1_555
S7 C7 1_555 1_555
S8 C8 1_555 1_555
S9 C10 1_555 1_555
S10 C10 1_555 1_555
S11 C11 1_555 1_555
S12 C12 1_555 1_555
C1 C2 1_555 1_555
C2 H3 1_555 1_555
C3 S1 1_555 1_555
C4 S2 1_555 1_555
C5 S3 1_555 1_555
C6 C5 1_555 1_555
C7 S5 1_555 1_555
C8 S6 1_555 1_555
C9 S7 1_555 1_555
C10 C9 1_555 1_555
C11 S9 1_555 1_555
C12 S10 1_555 1_555
C13 S11 1_555 1_555
C14 C13 1_555 1_555
C15 C14 1_555 1_555
C16 C15 1_555 1_555
C17 S12 1_555 1_555
C18 C17 1_555 1_555
C19 C18 1_555 1_555
C20 C19 1_555 1_555
H1 C1 1_555 1_555
H2 C1 1_555 1_555
H4 C2 1_555 1_555
H5 C13 1_555 1_555
H6 C13 1_555 1_555
H7 C14 1_555 1_555
H8 C14 1_555 1_555
H9 C15 1_555 1_555
H10 C15 1_555 1_555
H11 C16 1_555 1_555
H12 C16 1_555 1_555
H13 C16 1_555 1_555
H14 C17 1_555 1_555
H15 C17 1_555 1_555
H16 C18 1_555 1_555
H17 C18 1_555 1_555
H18 C19 1_555 1_555
H19 C19 1_555 1_555
H20 C20 1_555 1_555
H21 C20 1_555 1_555
H22 C20 1_555 1_555
S4 C5 1_555 1_555
S8 C9 1_555 1_555
C3 C4 1_555 1_555
C7 C8 1_555 1_555
C11 C12 1_555 1_555

#END
