
#######################################################################
#
#                 Cambridge Crystallographic Data Centre
#                                CCDC 
#
#######################################################################
#
# If this CIF has been generated from an entry in the Cambridge 
# Structural Database, then it will include bibliographic, chemical, 
# crystal, experimental, refinement or atomic coordinate data resulting 
# from the CCDC's data processing and validation procedures.
#
#######################################################################

data_SUZJAA
_chemical_formula_moiety         'C20 H17 N3 O3'
_chemical_name_systematic        
(3-cyano-4-(2-(2,3-dimethoxyphenyl)vinyl)-5,5-dimethylfuran-2(5H)-ylidene)malononitrile
_symmetry_cell_setting           monoclinic
_symmetry_space_group_name_H-M   'P 21/c'
_symmetry_Int_Tables_number      14
_space_group_name_Hall           '-P 2ybc'
loop_
_symmetry_equiv_pos_site_id
_symmetry_equiv_pos_as_xyz
1 x,y,z
2 -x,1/2+y,1/2-z
3 -x,-y,-z
4 x,1/2-y,1/2+z
_cell_length_a                   8.0071(5)
_cell_length_b                   15.2572(8)
_cell_length_c                   14.9890(10)
_cell_angle_alpha                90
_cell_angle_beta                 102.870(6)
_cell_angle_gamma                90
_cell_volume                     1785.14
_exptl_crystal_colour            yellow
_exptl_crystal_description       needle
_cell_formula_units_Z            4
_exptl_crystal_preparation       Luminescent
loop_
_atom_site_label
_atom_site_type_symbol
_atom_site_fract_x
_atom_site_fract_y
_atom_site_fract_z
O1 O 0.23766(15) 0.72348(8) 0.77085(8)
C1 C 0.2926(2) 0.69006(11) 0.85764(11)
C2 C 0.4506(2) 0.64675(12) 0.88136(12)
C3 C 0.5540(2) 0.64085(12) 0.81305(12)
C4 C 0.7005(2) 0.59472(11) 0.82033(12)
C5 C 0.8001(2) 0.59284(11) 0.75203(12)
C6 C 0.9484(2) 0.54689(11) 0.75840(12)
C7 C 1.0101(2) 0.56069(11) 0.67610(12)
O2 O 0.90504(15) 0.61513(8) 0.62083(8)
C8 C 0.7614(2) 0.64177(12) 0.66264(12)
C9 C 0.5994(2) 0.61208(15) 0.59585(13)
C10 C 0.7748(2) 0.74049(12) 0.67343(13)
C11 C 1.1485(2) 0.52808(11) 0.64750(12)
C12 C 1.1740(2) 0.55061(12) 0.55938(13)
N1 N 1.1958(2) 0.56848(11) 0.48808(12)
C13 C 1.2693(2) 0.46972(12) 0.70114(13)
N2 N 1.3699(2) 0.42243(12) 0.74126(13)
C14 C 1.0287(2) 0.49395(12) 0.83408(12)
N3 N 1.0868(2) 0.45146(11) 0.89636(12)
C15 C 0.5024(2) 0.61229(13) 0.96985(12)
C16 C 0.4000(3) 0.62106(14) 1.03149(13)
C17 C 0.2408(3) 0.66239(13) 1.00686(12)
C18 C 0.1864(2) 0.69630(12) 0.92023(12)
O3 O 0.03208(15) 0.73614(9) 0.88734(9)
C19 C -0.0729(3) 0.75115(15) 0.95168(14)
C20 C 0.2437(3) 0.81773(14) 0.76904(15)
H1 H 0.5115 0.6739 0.7575
H2 H 0.7427 0.5604 0.8747
H3 H 0.5979 0.6387 0.5356
H4 H 0.5008 0.6340 0.6178
H5 H 0.5929 0.5485 0.5914
H6 H 0.7701 0.7661 0.6125
H7 H 0.8858 0.7562 0.7144
H8 H 0.6788 0.7628 0.6980
H9 H 0.6119 0.5830 0.9877
H10 H 0.4391 0.5989 1.0935
H11 H 0.1677 0.6669 1.0506
H12 H -0.1754 0.7827 0.9180
H13 H -0.0107 0.7874 1.0023
H14 H -0.1034 0.6948 0.9759
H15 H 0.1915 0.8375 0.7087
H16 H 0.1854 0.8428 0.8143
H17 H 0.3641 0.8366 0.7831
loop_
_geom_bond_atom_site_label_1
_geom_bond_atom_site_label_2
_geom_bond_site_symmetry_1
_geom_bond_site_symmetry_2
O1 C1 1_555 1_555
C1 C2 1_555 1_555
C2 C3 1_555 1_555
C3 C4 1_555 1_555
C4 C5 1_555 1_555
C5 C6 1_555 1_555
C6 C7 1_555 1_555
C7 O2 1_555 1_555
O2 C8 1_555 1_555
C8 C5 1_555 1_555
C9 C8 1_555 1_555
C10 C8 1_555 1_555
C11 C7 1_555 1_555
C12 C11 1_555 1_555
N1 C12 1_555 1_555
C13 C11 1_555 1_555
N2 C13 1_555 1_555
C14 C6 1_555 1_555
N3 C14 1_555 1_555
C15 C2 1_555 1_555
C16 C15 1_555 1_555
C17 C16 1_555 1_555
C18 C1 1_555 1_555
O3 C18 1_555 1_555
C19 O3 1_555 1_555
C20 O1 1_555 1_555
H1 C3 1_555 1_555
H2 C4 1_555 1_555
H3 C9 1_555 1_555
H4 C9 1_555 1_555
H5 C9 1_555 1_555
H6 C10 1_555 1_555
H7 C10 1_555 1_555
H8 C10 1_555 1_555
H9 C15 1_555 1_555
H10 C16 1_555 1_555
H11 C17 1_555 1_555
H12 C19 1_555 1_555
H13 C19 1_555 1_555
H14 C19 1_555 1_555
H15 C20 1_555 1_555
H16 C20 1_555 1_555
H17 C20 1_555 1_555
C17 C18 1_555 1_555

#END
