
#######################################################################
#
#                 Cambridge Crystallographic Data Centre
#                                CCDC 
#
#######################################################################
#
# If this CIF has been generated from an entry in the Cambridge 
# Structural Database, then it will include bibliographic, chemical, 
# crystal, experimental, refinement or atomic coordinate data resulting 
# from the CCDC's data processing and validation procedures.
#
#######################################################################

data_SUZJOO
_chemical_formula_moiety         'C20 H17 N3 O3'
_chemical_name_systematic        
(3-cyano-4-(2-(3,5-dimethoxyphenyl)vinyl)-5,5-dimethylfuran-2(5H)-ylidene)malononitrile
_symmetry_cell_setting           orthorhombic
_symmetry_space_group_name_H-M   'P n m a'
_symmetry_Int_Tables_number      62
_space_group_name_Hall           '-P 2ac 2n'
loop_
_symmetry_equiv_pos_site_id
_symmetry_equiv_pos_as_xyz
1 x,y,z
2 1/2+x,1/2-y,1/2-z
3 1/2-x,-y,1/2+z
4 -x,1/2+y,-z
5 -x,-y,-z
6 1/2-x,1/2+y,1/2+z
7 1/2+x,y,1/2-z
8 x,1/2-y,z
_cell_length_a                   17.1210(10)
_cell_length_b                   6.9428(5)
_cell_length_c                   15.4460(10)
_cell_angle_alpha                90
_cell_angle_beta                 90
_cell_angle_gamma                90
_cell_volume                     1836.03
_exptl_crystal_colour            red
_exptl_crystal_description       plate
_cell_formula_units_Z            4
_exptl_crystal_preparation       Luminescent
loop_
_atom_site_label
_atom_site_type_symbol
_atom_site_fract_x
_atom_site_fract_y
_atom_site_fract_z
O1 O 0.54692(6) 0.2500 0.72805(7)
C1 C 0.47402(9) 0.2500 0.67611(11)
C2 C 0.42911(7) 0.06902(18) 0.70079(8)
H1 H 0.3790 0.0682 0.6693
H2 H 0.4579 -0.0456 0.6854
H3 H 0.4182 0.0710 0.7616
C3 C 0.50469(10) 0.2500 0.58430(10)
C4 C 0.46144(9) 0.250000(7) 0.50485(11)
C5 C 0.38363(10) 0.250000(7) 0.49438(11)
C6 C 0.34429(10) 0.2500 0.40987(10)
C7 C 0.38568(10) 0.250000(7) 0.33229(11)
C8 C 0.34619(10) 0.2500 0.25320(11)
O2 O 0.39265(7) 0.2500 0.18178(8)
C9 C 0.35584(12) 0.250000(7) 0.09847(11)
H4 H 0.3974 0.2500 0.0565
H5 H 0.3244 0.1350 0.0919
C10 C 0.26522(10) 0.250000(7) 0.25152(11)
C11 C 0.22412(10) 0.2500 0.33006(11)
C12 C 0.26260(10) 0.250000(7) 0.40915(11)
H6 H 0.2341 0.2500 0.4612
O3 O 0.14510(7) 0.2500 0.32177(8)
C13 C 0.09973(11) 0.250000(7) 0.39949(14)
H7 H 0.0450 0.2500 0.3820
H8 H 0.1121 0.3666 0.4334
H9 H 0.2378 0.2500 0.1983
H10 H 0.4409 0.2500 0.3303
H11 H 0.3503 0.2500 0.5448
H12 H 0.4930 0.2500 0.4535
C14 C 0.58414(10) 0.2500 0.58738(10)
C15 C 0.60942(10) 0.2500 0.67686(10)
C16 C 0.68327(10) 0.2500 0.71012(10)
C17 C 0.69587(10) 0.2500 0.80141(12)
N1 N 0.70891(11) 0.2500 0.87420(11)
C18 C 0.75106(10) 0.2500 0.65648(11)
N2 N 0.80748(9) 0.2500 0.61646(11)
C19 C 0.63295(9) 0.2500 0.51247(11)
N3 N 0.66693(9) 0.2500 0.44903(10)
C2G C 0.42911(7) 0.43098(18) 0.70079(8)
H1G H 0.3790 0.4318 0.6693
H2G H 0.4579 0.5456 0.6854
H3G H 0.4182 0.4290 0.7616
H5G H 0.3244 0.3650 0.0919
H8G H 0.1121 0.1334 0.4334
loop_
_geom_bond_atom_site_label_1
_geom_bond_atom_site_label_2
_geom_bond_site_symmetry_1
_geom_bond_site_symmetry_2
O1 C1 1_555 1_555
C1 C2 1_555 1_555
C2 H1 1_555 1_555
H2 C2 1_555 1_555
H3 C2 1_555 1_555
C3 C1 1_555 1_555
C4 C3 1_555 1_555
C5 C4 1_555 1_555
C6 C5 1_555 1_555
C7 C6 1_555 1_555
C8 C7 1_555 1_555
O2 C8 1_555 1_555
C9 O2 1_555 1_555
H4 C9 1_555 1_555
H5 C9 1_555 1_555
C10 C8 1_555 1_555
C11 C10 1_555 1_555
C12 C6 1_555 1_555
H6 C12 1_555 1_555
O3 C11 1_555 1_555
C13 O3 1_555 1_555
H7 C13 1_555 1_555
H8 C13 1_555 1_555
H9 C10 1_555 1_555
H10 C7 1_555 1_555
H11 C5 1_555 1_555
H12 C4 1_555 1_555
C14 C3 1_555 1_555
C15 O1 1_555 1_555
C16 C15 1_555 1_555
C17 C16 1_555 1_555
N1 C17 1_555 1_555
C18 C16 1_555 1_555
N2 C18 1_555 1_555
C19 C14 1_555 1_555
N3 C19 1_555 1_555
C2G C1 1_555 1_555
H1G C2G 1_555 1_555
H2G C2G 1_555 1_555
H3G C2G 1_555 1_555
H5G C9 1_555 1_555
H8G C13 1_555 1_555
C11 C12 1_555 1_555
C14 C15 1_555 1_555

#END
