
#######################################################################
#
#                 Cambridge Crystallographic Data Centre
#                                CCDC 
#
#######################################################################
#
# If this CIF has been generated from an entry in the Cambridge 
# Structural Database, then it will include bibliographic, chemical, 
# crystal, experimental, refinement or atomic coordinate data resulting 
# from the CCDC's data processing and validation procedures.
#
#######################################################################

data_SUZJUU
_chemical_formula_moiety         'C21 H19 N3 O4'
_chemical_name_systematic        
(3-cyano-5,5-dimethyl-4-(2-(2,3,4-trimethoxyphenyl)vinyl)furan-2(5H)-ylidene)malononitrile
_symmetry_cell_setting           monoclinic
_symmetry_space_group_name_H-M   'P 21/n'
_symmetry_Int_Tables_number      14
_space_group_name_Hall           '-P 2yn'
loop_
_symmetry_equiv_pos_site_id
_symmetry_equiv_pos_as_xyz
1 x,y,z
2 1/2-x,1/2+y,1/2-z
3 -x,-y,-z
4 1/2+x,1/2-y,1/2+z
_cell_length_a                   15.229(2)
_cell_length_b                   7.5088(7)
_cell_length_c                   16.6390(10)
_cell_angle_alpha                90
_cell_angle_beta                 92.397(7)
_cell_angle_gamma                90
_cell_volume                     1901.03
_exptl_crystal_colour            red
_exptl_crystal_description       needle
_cell_formula_units_Z            4
_exptl_crystal_preparation       Luminescent
loop_
_atom_site_label
_atom_site_type_symbol
_atom_site_fract_x
_atom_site_fract_y
_atom_site_fract_z
O1 O 0.30660(12) 0.4110(2) 0.64675(10)
C1 C 0.31177(17) 0.3927(3) 0.55850(14)
C2 C 0.36950(16) 0.5468(3) 0.53720(14)
C3 C 0.39588(16) 0.5917(3) 0.45827(14)
C4 C 0.37436(16) 0.4969(3) 0.39093(14)
C5 C 0.39863(16) 0.5357(3) 0.31002(13)
C6 C 0.37042(17) 0.4173(3) 0.24772(14)
O2 O 0.31858(12) 0.2778(2) 0.26766(11)
C7 C 0.34181(19) 0.1043(3) 0.23983(17)
H1 H 0.3231 0.0158 0.2782
H2 H 0.4048 0.0956 0.2362
H3 H 0.3126 0.0785 0.1880
C8 C 0.39147(17) 0.4513(3) 0.16909(14)
O3 O 0.36194(13) 0.3381(3) 0.10819(10)
C9 C 0.2898(2) 0.4061(5) 0.06306(19)
H4 H 0.2776 0.3267 0.0174
H5 H 0.3009 0.5256 0.0454
H6 H 0.2394 0.4044 0.0968
C10 C 0.44246(18) 0.5996(3) 0.15118(14)
O4 O 0.45947(14) 0.6181(3) 0.07216(10)
C11 C 0.5093(2) 0.7686(4) 0.04955(17)
H7 H 0.5135 0.7664 -0.0084
H8 H 0.5682 0.7642 0.0743
H9 H 0.4790 0.8777 0.0635
C12 C 0.46971(16) 0.7168(3) 0.21170(15)
C13 C 0.44715(16) 0.6853(3) 0.28934(14)
H10 H 0.4640 0.7682 0.3297
H11 H 0.5029 0.8189 0.1997
H12 H 0.3412 0.3899 0.3980
H13 H 0.4302 0.6963 0.4527
C14 C 0.39216(16) 0.6379(3) 0.60602(14)
C15 C 0.35205(16) 0.5526(3) 0.67241(14)
C16 C 0.35499(17) 0.5925(3) 0.75303(14)
C17 C 0.39821(18) 0.7460(4) 0.78518(15)
N1 N 0.43067(18) 0.8697(4) 0.81387(15)
C18 C 0.31233(18) 0.4794(4) 0.80728(14)
N2 N 0.27918(19) 0.3871(4) 0.85153(14)
C19 C 0.44902(17) 0.7874(3) 0.60978(14)
N3 N 0.49689(17) 0.9054(3) 0.60885(14)
C20 C 0.35257(18) 0.2123(4) 0.54561(15)
H14 H 0.3562 0.1888 0.4890
H15 H 0.4105 0.2098 0.5707
H16 H 0.3199 0.1179 0.5696
C21 C 0.21762(18) 0.4083(4) 0.52472(16)
H17 H 0.2152 0.3968 0.4675
H18 H 0.1821 0.3155 0.5463
H19 H 0.1951 0.5202 0.5384
loop_
_geom_bond_atom_site_label_1
_geom_bond_atom_site_label_2
_geom_bond_site_symmetry_1
_geom_bond_site_symmetry_2
O1 C1 1_555 1_555
C1 C2 1_555 1_555
C2 C3 1_555 1_555
C3 C4 1_555 1_555
C4 C5 1_555 1_555
C5 C6 1_555 1_555
C6 O2 1_555 1_555
O2 C7 1_555 1_555
C7 H1 1_555 1_555
H2 C7 1_555 1_555
H3 C7 1_555 1_555
C8 C6 1_555 1_555
O3 C8 1_555 1_555
C9 O3 1_555 1_555
H4 C9 1_555 1_555
H5 C9 1_555 1_555
H6 C9 1_555 1_555
C10 C8 1_555 1_555
O4 C10 1_555 1_555
C11 O4 1_555 1_555
H7 C11 1_555 1_555
H8 C11 1_555 1_555
H9 C11 1_555 1_555
C12 C10 1_555 1_555
C13 C5 1_555 1_555
H10 C13 1_555 1_555
H11 C12 1_555 1_555
H12 C4 1_555 1_555
H13 C3 1_555 1_555
C14 C2 1_555 1_555
C15 O1 1_555 1_555
C16 C15 1_555 1_555
C17 C16 1_555 1_555
N1 C17 1_555 1_555
C18 C16 1_555 1_555
N2 C18 1_555 1_555
C19 C14 1_555 1_555
N3 C19 1_555 1_555
C20 C1 1_555 1_555
H14 C20 1_555 1_555
H15 C20 1_555 1_555
H16 C20 1_555 1_555
C21 C1 1_555 1_555
H17 C21 1_555 1_555
H18 C21 1_555 1_555
H19 C21 1_555 1_555
C12 C13 1_555 1_555
C14 C15 1_555 1_555

#END
