
#######################################################################
#
#                 Cambridge Crystallographic Data Centre
#                                CCDC 
#
#######################################################################
#
# If this CIF has been generated from an entry in the Cambridge 
# Structural Database, then it will include bibliographic, chemical, 
# crystal, experimental, refinement or atomic coordinate data resulting 
# from the CCDC's data processing and validation procedures.
#
#######################################################################

data_SUZKAB
_chemical_formula_moiety         'C21 H19 N3 O4'
_chemical_name_systematic        
(3-cyano-5,5-dimethyl-4-(2-(2,4,6-trimethoxyphenyl)vinyl)furan-2(5H)-ylidene)malononitrile
_symmetry_cell_setting           monoclinic
_symmetry_space_group_name_H-M   'P 21/c'
_symmetry_Int_Tables_number      14
_space_group_name_Hall           '-P 2ybc'
loop_
_symmetry_equiv_pos_site_id
_symmetry_equiv_pos_as_xyz
1 x,y,z
2 -x,1/2+y,1/2-z
3 -x,-y,-z
4 x,1/2-y,1/2+z
_cell_length_a                   16.2981(11)
_cell_length_b                   16.4911(9)
_cell_length_c                   7.1281(5)
_cell_angle_alpha                90
_cell_angle_beta                 100.738(6)
_cell_angle_gamma                90
_cell_volume                     1882.3
_exptl_crystal_colour            'intense red'
_exptl_crystal_description       octahedral
_cell_formula_units_Z            4
_exptl_crystal_preparation       Luminescent
loop_
_atom_site_label
_atom_site_type_symbol
_atom_site_fract_x
_atom_site_fract_y
_atom_site_fract_z
O1 O 0.67639(10) 0.05863(9) 0.1655(2)
C1 C 0.59519(16) 0.03267(15) 0.1867(4)
H1 H 0.5542 0.0560 0.0872
H2 H 0.5847 0.0499 0.3087
H3 H 0.5921 -0.0254 0.1786
C2 C 0.86492(15) 0.51870(14) -0.0633(3)
H4 H 0.8168 0.5358 -0.1538
H5 H 0.8697 0.4607 -0.0673
H6 H 0.9141 0.5431 -0.0946
C3 C 0.93382(15) 0.20434(14) 0.1167(3)
H7 H 0.9165 0.1714 0.0053
H8 H 0.9409 0.1708 0.2287
H9 H 0.9858 0.2304 0.1092
C4 C 0.79038(13) 0.75091(13) 0.1893(3)
C5 C 0.51756(14) 0.32279(14) 0.1947(3)
H10 H 0.4867 0.3725 0.1921
H11 H 0.5150 0.2939 0.3104
H12 H 0.4938 0.2900 0.0869
N1 N 0.58769(13) 0.62745(13) 0.2729(3)
C6 C 0.92564(14) 0.51475(14) 0.2920(3)
H13 H 0.9259 0.4565 0.2927
H14 H 0.9172 0.5343 0.4138
H15 H 0.9781 0.5343 0.2676
C7 C 0.76927(14) 0.53146(13) 0.1795(3)
C8 C 0.85547(14) 0.54488(12) 0.1367(3)
C9 C 0.71956(14) 0.79323(13) 0.2292(3)
N2 N 0.66455(13) 0.83039(12) 0.2630(3)
C10 C 0.76613(14) 0.38418(13) 0.1604(3)
H16 H 0.8200 0.3892 0.1362
C11 C 0.63239(14) 0.19796(13) 0.1813(3)
H17 H 0.5784 0.1837 0.1934
C12 C 0.73519(13) 0.60620(13) 0.2049(3)
C13 C 0.65372(14) 0.61911(13) 0.2434(3)
C14 C 0.79416(13) 0.66753(13) 0.1799(3)
C15 C 0.69138(14) 0.13909(13) 0.1656(3)
C16 C 0.77246(14) 0.15904(13) 0.1467(3)
H18 H 0.8109 0.1185 0.1355
C17 C 0.79498(13) 0.23944(13) 0.1447(3)
C18 C 0.85981(14) 0.79821(13) 0.1580(3)
N3 N 0.91532(13) 0.83718(12) 0.1350(3)
C19 C 0.65578(13) 0.27866(13) 0.1784(3)
C20 C 0.73711(14) 0.30242(13) 0.1616(3)
C21 C 0.72911(14) 0.45573(13) 0.1884(3)
H19 H 0.6753 0.4550 0.2144
O2 O 0.60221(9) 0.34044(9) 0.1867(2)
O3 O 0.87207(9) 0.26418(9) 0.1269(2)
O4 O 0.86279(9) 0.63440(9) 0.1388(2)
loop_
_geom_bond_atom_site_label_1
_geom_bond_atom_site_label_2
_geom_bond_site_symmetry_1
_geom_bond_site_symmetry_2
O1 C1 1_555 1_555
C1 H1 1_555 1_555
H2 C1 1_555 1_555
H3 C1 1_555 1_555
C2 H4 1_555 1_555
H5 C2 1_555 1_555
H6 C2 1_555 1_555
C3 H7 1_555 1_555
H8 C3 1_555 1_555
H9 C3 1_555 1_555
C4 C9 1_555 1_555
C5 H10 1_555 1_555
H11 C5 1_555 1_555
H12 C5 1_555 1_555
N1 C13 1_555 1_555
C6 H13 1_555 1_555
H14 C6 1_555 1_555
H15 C6 1_555 1_555
C7 C8 1_555 1_555
C8 C2 1_555 1_555
C9 N2 1_555 1_555
C10 H16 1_555 1_555
C11 H17 1_555 1_555
C12 C7 1_555 1_555
C13 C12 1_555 1_555
C14 C4 1_555 1_555
C15 O1 1_555 1_555
C16 C15 1_555 1_555
H18 C16 1_555 1_555
C17 C16 1_555 1_555
C18 C4 1_555 1_555
N3 C18 1_555 1_555
C19 C11 1_555 1_555
C20 C10 1_555 1_555
C21 C7 1_555 1_555
H19 C21 1_555 1_555
O2 C5 1_555 1_555
O3 C3 1_555 1_555
O4 C8 1_555 1_555
C6 C8 1_555 1_555
C10 C21 1_555 1_555
C11 C15 1_555 1_555
C12 C14 1_555 1_555
C14 O4 1_555 1_555
C17 C20 1_555 1_555
C17 O3 1_555 1_555
C19 C20 1_555 1_555
C19 O2 1_555 1_555

#END
