
#######################################################################
#
#                 Cambridge Crystallographic Data Centre
#                                CCDC 
#
#######################################################################
#
# If this CIF has been generated from an entry in the Cambridge 
# Structural Database, then it will include bibliographic, chemical, 
# crystal, experimental, refinement or atomic coordinate data resulting 
# from the CCDC's data processing and validation procedures.
#
#######################################################################

data_SUZLOO
_chemical_formula_moiety         'C14 H14 F3 N1 O3'
_chemical_name_systematic        
'endo-Ethyl 1,5-dimethyl-3-(trifluoromethyl)-2-cyano-8-oxabicyclo(3.2.1)octa-2,6-diene-4-carboxylate'
_symmetry_cell_setting           orthorhombic
_symmetry_space_group_name_H-M   'P 21 21 21'
_symmetry_Int_Tables_number      19
_space_group_name_Hall           'P 2ac 2ab'
loop_
_symmetry_equiv_pos_site_id
_symmetry_equiv_pos_as_xyz
1 x,y,z
2 1/2-x,-y,1/2+z
3 -x,1/2+y,1/2-z
4 1/2+x,1/2-y,-z
_cell_length_a                   13.304(2)
_cell_length_b                   15.256(3)
_cell_length_c                   7.2256(17)
_cell_angle_alpha                90
_cell_angle_beta                 90
_cell_angle_gamma                90
_cell_volume                     1466.55
_exptl_crystal_colour            colorless
_chemical_melting_point          '74-76 deg.C'
_cell_formula_units_Z            4
loop_
_atom_site_label
_atom_site_type_symbol
_atom_site_fract_x
_atom_site_fract_y
_atom_site_fract_z
O1 O 0.4720(3) -0.1018(3) 0.1949(7)
O2 O 0.6317(4) -0.3532(3) 0.0871(9)
O3 O 0.4671(4) -0.3759(3) 0.0402(8)
F1 F 0.4588(4) -0.3910(3) 0.4383(8)
F2 F 0.3063(4) -0.3847(3) 0.3531(9)
F3 F 0.3544(5) -0.3099(4) 0.5851(8)
N1 N 0.1558(5) -0.2055(6) 0.3711(11)
C1 C 0.3697(5) -0.1185(5) 0.1406(12)
C2 C 0.3811(6) -0.1493(5) -0.0592(12)
C3 C 0.4741(5) -0.1772(5) -0.0793(11)
C4 C 0.5285(5) -0.1689(5) 0.1039(11)
C5 C 0.5132(5) -0.2538(5) 0.2205(12)
C6 C 0.4073(5) -0.2600(5) 0.2910(11)
C7 C 0.3382(5) -0.1987(5) 0.2585(11)
C8 C 0.6378(6) -0.1407(7) 0.1015(17)
C9 C 0.3087(7) -0.0379(6) 0.1713(17)
C10 C 0.2356(6) -0.2037(5) 0.3222(12)
C11 C 0.3815(6) -0.3370(6) 0.4175(13)
C12 C 0.5454(5) -0.3337(5) 0.1080(12)
C13 C 0.4877(7) -0.4552(6) -0.0710(16)
C14 C 0.3800(18) -0.4994(18) -0.103(5)
H1 H 0.319(5) -0.152(4) -0.151(9)
H2 H 0.497(5) -0.208(4) -0.204(10)
H3 H 0.554(5) -0.244(4) 0.307(9)
H4 H 0.677(10) -0.141(9) 0.233(19)
H5 H 0.676(4) -0.182(4) 0.038(8)
H6 H 0.640(5) -0.087(5) 0.023(11)
H7 H 0.233(6) -0.051(5) 0.129(12)
H8 H 0.337(7) 0.022(8) 0.119(17)
H9 H 0.308(5) -0.016(4) 0.288(9)
H10 H 0.539(5) -0.492(5) -0.017(11)
H11 H 0.531(6) -0.432(5) -0.164(11)
H13 H 0.399(14) -0.544(12) -0.15(3)
H12? H 0.403(7) -0.494(5) -0.104(10)
H14? H 0.400(2) -0.48(2) 0.14(6)
loop_
_geom_bond_atom_site_label_1
_geom_bond_atom_site_label_2
_geom_bond_site_symmetry_1
_geom_bond_site_symmetry_2
O1 C1 1_555 1_555
O2 C12 1_555 1_555
O3 C12 1_555 1_555
F1 C11 1_555 1_555
F2 C11 1_555 1_555
F3 C11 1_555 1_555
N1 C10 1_555 1_555
C1 C2 1_555 1_555
C2 C3 1_555 1_555
C3 C4 1_555 1_555
C4 O1 1_555 1_555
C5 C4 1_555 1_555
C6 C5 1_555 1_555
C7 C1 1_555 1_555
C8 C4 1_555 1_555
C9 C1 1_555 1_555
C10 C7 1_555 1_555
C11 C6 1_555 1_555
C12 C5 1_555 1_555
C13 O3 1_555 1_555
C14 C13 1_555 1_555
H1 C2 1_555 1_555
H2 C3 1_555 1_555
H3 C5 1_555 1_555
H4 C8 1_555 1_555
H5 C8 1_555 1_555
H6 C8 1_555 1_555
H7 C9 1_555 1_555
H8 C9 1_555 1_555
H9 C9 1_555 1_555
H10 C13 1_555 1_555
H11 C13 1_555 1_555
H13 C14 1_555 1_555
C6 C7 1_555 1_555

#END
