
#######################################################################
#
#                 Cambridge Crystallographic Data Centre
#                                CCDC 
#
#######################################################################
#
# If this CIF has been generated from an entry in the Cambridge 
# Structural Database, then it will include bibliographic, chemical, 
# crystal, experimental, refinement or atomic coordinate data resulting 
# from the CCDC's data processing and validation procedures.
#
#######################################################################

data_SUZMEG
_chemical_formula_moiety         'C19 H16 N1 O4 P1'
_chemical_name_systematic        (Diphenylphosphoryl)(2-nitrophenyl)methanol
_symmetry_cell_setting           orthorhombic
_symmetry_space_group_name_H-M   'P 21 21 21'
_symmetry_Int_Tables_number      19
_space_group_name_Hall           'P 2ac 2ab'
loop_
_symmetry_equiv_pos_site_id
_symmetry_equiv_pos_as_xyz
1 x,y,z
2 1/2-x,-y,1/2+z
3 -x,1/2+y,1/2-z
4 1/2+x,1/2-y,-z
_cell_length_a                   5.9179(12)
_cell_length_b                   13.917(3)
_cell_length_c                   20.405(4)
_cell_angle_alpha                90
_cell_angle_beta                 90
_cell_angle_gamma                90
_cell_volume                     1680.54
_exptl_crystal_colour            colorless
_exptl_crystal_description       plate
_cell_formula_units_Z            4
_exptl_crystal_recrystallization_method methanol
loop_
_atom_site_label
_atom_site_type_symbol
_atom_site_fract_x
_atom_site_fract_y
_atom_site_fract_z
P1 P 0.36544(6) 0.05040(3) 0.12304(2)
O1 O 0.13285(17) 0.06076(8) 0.15090(6)
O2 O 0.75302(16) -0.03926(10) 0.14345(6)
H1 H 0.8541 -0.0008 0.1517
O3 O 0.3080(3) 0.04117(11) 0.29316(8)
O4 O -0.0305(2) -0.01286(11) 0.29317(8)
C1 C 0.5574(2) -0.01474(11) 0.17954(8)
H2 H 0.5967 0.0257 0.2172
C2 C 0.4346(3) -0.10461(11) 0.20185(8)
C3 C 0.4930(3) -0.19195(13) 0.17376(10)
H3 H 0.6165 -0.1948 0.1456
C4 C 0.3715(4) -0.27538(13) 0.18661(12)
H4 H 0.4172 -0.3332 0.1680
C5 C 0.1858(4) -0.27310(14) 0.22626(12)
H5 H 0.1040 -0.3290 0.2341
C6 C 0.1201(4) -0.18790(13) 0.25448(10)
H6 H -0.0076 -0.1856 0.2810
C7 C 0.2453(3) -0.10560(12) 0.24313(8)
C8 C 0.4845(3) 0.16772(11) 0.10671(8)
C9 C 0.3434(3) 0.24491(12) 0.12017(10)
H7 H 0.2010 0.2337 0.1379
C10 C 0.4114(4) 0.33817(13) 0.10765(11)
H8 H 0.3158 0.3892 0.1177
C11 C 0.6187(4) 0.35558(13) 0.08061(10)
H9 H 0.6629 0.4183 0.0713
C12 C 0.7628(3) 0.27996(13) 0.06705(10)
H10 H 0.9037 0.2921 0.0487
C13 C 0.6988(3) 0.18611(12) 0.08065(9)
H11 H 0.7979 0.1357 0.0725
C14 C 0.3674(3) -0.02135(11) 0.04912(8)
C15 C 0.5420(3) -0.01949(15) 0.00353(10)
H12 H 0.6643 0.0214 0.0100
C16 C 0.5353(4) -0.07759(16) -0.05106(11)
H13 H 0.6521 -0.0753 -0.0815
C17 C 0.3564(4) -0.13884(15) -0.06060(11)
H14 H 0.3526 -0.1784 -0.0973
C18 C 0.1833(4) -0.14165(17) -0.01602(12)
H15 H 0.0624 -0.1833 -0.0225
C19 C 0.1878(3) -0.08300(14) 0.03839(11)
H16 H 0.0689 -0.0849 0.0682
N1 N 0.1687(3) -0.01963(11) 0.27860(7)
loop_
_geom_bond_atom_site_label_1
_geom_bond_atom_site_label_2
_geom_bond_site_symmetry_1
_geom_bond_site_symmetry_2
P1 O1 1_555 1_555
O2 H1 1_555 1_555
O3 N1 1_555 1_555
O4 N1 1_555 1_555
C1 P1 1_555 1_555
H2 C1 1_555 1_555
C2 C1 1_555 1_555
C3 C2 1_555 1_555
H3 C3 1_555 1_555
C4 C3 1_555 1_555
H4 C4 1_555 1_555
C5 C4 1_555 1_555
H5 C5 1_555 1_555
C6 C5 1_555 1_555
H6 C6 1_555 1_555
C7 C2 1_555 1_555
C8 P1 1_555 1_555
C9 C8 1_555 1_555
H7 C9 1_555 1_555
C10 C9 1_555 1_555
H8 C10 1_555 1_555
C11 C10 1_555 1_555
H9 C11 1_555 1_555
C12 C11 1_555 1_555
H10 C12 1_555 1_555
C13 C8 1_555 1_555
H11 C13 1_555 1_555
C14 P1 1_555 1_555
C15 C14 1_555 1_555
H12 C15 1_555 1_555
C16 C15 1_555 1_555
H13 C16 1_555 1_555
C17 C16 1_555 1_555
H14 C17 1_555 1_555
C18 C17 1_555 1_555
H15 C18 1_555 1_555
C19 C14 1_555 1_555
H16 C19 1_555 1_555
N1 C7 1_555 1_555
O2 C1 1_555 1_555
C6 C7 1_555 1_555
C12 C13 1_555 1_555
C18 C19 1_555 1_555

#END
