
#######################################################################
#
#                 Cambridge Crystallographic Data Centre
#                                CCDC 
#
#######################################################################
#
# If this CIF has been generated from an entry in the Cambridge 
# Structural Database, then it will include bibliographic, chemical, 
# crystal, experimental, refinement or atomic coordinate data resulting 
# from the CCDC's data processing and validation procedures.
#
#######################################################################

data_SUZMAC
_chemical_formula_moiety         'C11 H18 N4 O2 S2'
_chemical_name_systematic        
1-(1,3-Dithiolan-2-ylmethyl)-6-methyl-8-nitro-1,2,3,5,6,7-hexahydroimidazo[1,2-c]pyrimidine
_symmetry_cell_setting           triclinic
_symmetry_space_group_name_H-M   'P -1'
_symmetry_Int_Tables_number      2
_space_group_name_Hall           '-P 1'
loop_
_symmetry_equiv_pos_site_id
_symmetry_equiv_pos_as_xyz
1 x,y,z
2 -x,-y,-z
_cell_length_a                   8.0326(7)
_cell_length_b                   9.3521(8)
_cell_length_c                   10.1109(9)
_cell_angle_alpha                80.4610(10)
_cell_angle_beta                 83.4970(10)
_cell_angle_gamma                68.0430(10)
_cell_volume                     693.62
_exptl_crystal_colour            colorless
_exptl_crystal_description       prism
_cell_formula_units_Z            2
_exptl_crystal_recrystallization_method 'dichloromethane/ethyl acetate'
loop_
_atom_site_label
_atom_site_type_symbol
_atom_site_fract_x
_atom_site_fract_y
_atom_site_fract_z
C1 C 0.92947(18) 0.16249(17) 0.65277(14)
C2 C 1.0078(2) 0.10338(19) 0.78875(16)
H1 H 0.9189 0.1516 0.8570
H2 H 1.0364 -0.0081 0.8074
C3 C 1.2634(3) 0.0458(2) 0.9163(2)
H3 H 1.2903 -0.0628 0.9137
H4 H 1.1876 0.0770 0.9949
H5 H 1.3731 0.0636 0.9189
C4 C 1.2876(2) 0.0997(2) 0.67697(17)
H6 H 1.3993 0.1141 0.6851
H7 H 1.3154 -0.0077 0.6650
C5 C 1.2874(2) 0.2345(2) 0.43686(17)
H8 H 1.3595 0.1393 0.4003
H9 H 1.3635 0.2914 0.4466
C6 C 1.1325(2) 0.3324(3) 0.35069(19)
H10 H 1.1106 0.4422 0.3466
H11 H 1.1554 0.3050 0.2602
C7 C 1.02457(19) 0.22041(17) 0.54533(14)
C8 C 0.7976(2) 0.40401(18) 0.38887(15)
H12 H 0.8020 0.5074 0.3646
H13 H 0.7182 0.4057 0.4688
C9 C 0.7185(2) 0.36571(18) 0.27473(15)
H14 H 0.7140 0.2614 0.3005
C10 C 0.7343(3) 0.5774(2) 0.0715(2)
H15 H 0.7905 0.6289 0.1179
H16 H 0.7517 0.6059 -0.0244
C11 C 0.5376(3) 0.6301(2) 0.1105(2)
H17 H 0.4723 0.6319 0.0349
H18 H 0.4967 0.7350 0.1334
N1 N 0.78451(16) 0.12503(15) 0.63650(13)
N2 N 1.17052(18) 0.13662(16) 0.79623(13)
N3 N 1.19480(17) 0.20279(17) 0.56373(13)
N4 N 0.97815(17) 0.29393(16) 0.42032(13)
O1 O 0.71913(17) 0.14805(16) 0.52435(12)
O2 O 0.72085(16) 0.06008(15) 0.73842(12)
S1 S 0.83905(6) 0.36969(6) 0.11346(4)
S2 S 0.49010(6) 0.50283(6) 0.25217(5)
loop_
_geom_bond_atom_site_label_1
_geom_bond_atom_site_label_2
_geom_bond_site_symmetry_1
_geom_bond_site_symmetry_2
C1 C2 1_555 1_555
C2 H1 1_555 1_555
H2 C2 1_555 1_555
C3 H3 1_555 1_555
H4 C3 1_555 1_555
H5 C3 1_555 1_555
C4 H6 1_555 1_555
H7 C4 1_555 1_555
C5 H8 1_555 1_555
H9 C5 1_555 1_555
C6 C5 1_555 1_555
H10 C6 1_555 1_555
H11 C6 1_555 1_555
C7 C1 1_555 1_555
C8 H12 1_555 1_555
H13 C8 1_555 1_555
C9 C8 1_555 1_555
H14 C9 1_555 1_555
C10 H15 1_555 1_555
H16 C10 1_555 1_555
C11 C10 1_555 1_555
H17 C11 1_555 1_555
H18 C11 1_555 1_555
N1 C1 1_555 1_555
N2 C2 1_555 1_555
N3 C4 1_555 1_555
N4 C6 1_555 1_555
O1 N1 1_555 1_555
O2 N1 1_555 1_555
S1 C9 1_555 1_555
S2 C9 1_555 1_555
C3 N2 1_555 1_555
C4 N2 1_555 1_555
C5 N3 1_555 1_555
C7 N3 1_555 1_555
C7 N4 1_555 1_555
C8 N4 1_555 1_555
C10 S1 1_555 1_555
C11 S2 1_555 1_555

#END
