
#######################################################################
#
#                 Cambridge Crystallographic Data Centre
#                                CCDC 
#
#######################################################################
#
# If this CIF has been generated from an entry in the Cambridge 
# Structural Database, then it will include bibliographic, chemical, 
# crystal, experimental, refinement or atomic coordinate data resulting 
# from the CCDC's data processing and validation procedures.
#
#######################################################################

data_SUZNUX
_chemical_name_common            
2,3;5,6-Di-O-isopropylidene-1-O-(2-phenylacetyl)-alpha-D-mannofuranose
_chemical_formula_moiety         'C20 H26 O7'
_chemical_name_systematic        
'6-(2,2-Dimethyl-1,3-dioxolan-4-yl)-2,2-dimethyltetrahydrofuro[3,4-d][1,3]dioxol-4-yl phenylacetate'
_symmetry_cell_setting           orthorhombic
_symmetry_space_group_name_H-M   'P 21 21 21'
_symmetry_Int_Tables_number      19
_space_group_name_Hall           'P 2ac 2ab'
loop_
_symmetry_equiv_pos_site_id
_symmetry_equiv_pos_as_xyz
1 x,y,z
2 1/2-x,-y,1/2+z
3 -x,1/2+y,1/2-z
4 1/2+x,1/2-y,-z
_cell_length_a                   5.6174(3)
_cell_length_b                   13.0946(8)
_cell_length_c                   25.2021(15)
_cell_angle_alpha                90
_cell_angle_beta                 90
_cell_angle_gamma                90
_cell_volume                     1853.81
_exptl_crystal_colour            colorless
_exptl_crystal_description       block
_cell_formula_units_Z            4
_exptl_crystal_recrystallization_method ethanol
loop_
_atom_site_label
_atom_site_type_symbol
_atom_site_fract_x
_atom_site_fract_y
_atom_site_fract_z
O1 O 0.9107(3) 0.56927(14) 0.25276(7)
O2 O 0.9344(4) 0.81639(14) 0.35444(8)
O3 O 1.1329(3) 0.56059(15) 0.14428(7)
O4 O 0.7450(3) 0.56285(14) 0.16757(7)
O5 O 0.5450(4) 0.47655(14) 0.33085(7)
O6 O 0.5940(4) 0.37204(14) 0.26113(8)
O7 O 0.6671(3) 0.69122(14) 0.36960(7)
C1 C 0.8432(5) 0.6452(2) 0.33622(10)
H1 H 0.9090 0.5824 0.3534
C2 C 0.9301(5) 0.57991(19) 0.13408(10)
C3 C 0.5230(5) 0.54195(19) 0.28614(9)
H2 H 0.3639 0.5761 0.2846
C4 C 1.2659(6) 0.5338(2) -0.04967(10)
H3 H 1.3616 0.5120 -0.0786
C5 C 1.0503(6) 0.4865(2) -0.03966(11)
H4 H 0.9964 0.4330 -0.0621
C6 C 0.7276(5) 0.61858(19) 0.28397(9)
H5 H 0.6738 0.6824 0.2657
C7 C 0.9133(5) 0.5172(2) 0.00314(11)
H6 H 0.7668 0.4836 0.0102
C8 C 0.7721(5) 0.77973(19) 0.39329(10)
C9 C 0.5653(5) 0.47073(19) 0.23826(10)
H7 H 0.4323 0.4733 0.2119
C10 C 0.9879(5) 0.59677(19) 0.03595(9)
C11 C 0.5801(6) 0.8580(2) 0.40282(12)
H8 H 0.6512 0.9201 0.4176
H9 H 0.4629 0.8305 0.4278
H10 H 0.5013 0.8743 0.3692
C12 C 1.2031(5) 0.6441(2) 0.02492(10)
H11 H 1.2561 0.6986 0.0468
C13 C 0.2243(5) 0.3600(2) 0.31076(11)
H12 H 0.1581 0.3657 0.3466
H13 H 0.1902 0.2920 0.2964
H14 H 0.1520 0.4120 0.2879
C14 C 0.8021(4) 0.50643(19) 0.21488(9)
H15 H 0.9061 0.4467 0.2063
C15 C 1.0386(5) 0.72767(19) 0.33117(10)
H16 H 1.1843 0.7072 0.3505
H17 H 1.0795 0.7399 0.2935
C16 C 0.6133(5) 0.3004(3) 0.34852(14)
H18 H 0.7855 0.3125 0.3482
H19 H 0.5804 0.2310 0.3359
H20 H 0.5528 0.3081 0.3848
C17 C 1.3418(5) 0.6130(2) -0.01758(11)
H21 H 1.4890 0.6461 -0.0247
C18 C 0.4927(5) 0.3763(2) 0.31284(10)
C19 C 0.9020(6) 0.7498(2) 0.44388(11)
H22 H 1.0245 0.6989 0.4356
H23 H 0.7882 0.7208 0.4692
H24 H 0.9770 0.8104 0.4594
C20 C 0.8400(5) 0.6279(2) 0.08310(10)
H25 H 0.6727 0.6071 0.0772
H26 H 0.8436 0.7032 0.0866
loop_
_geom_bond_atom_site_label_1
_geom_bond_atom_site_label_2
_geom_bond_site_symmetry_1
_geom_bond_site_symmetry_2
O1 C6 1_555 1_555
O2 C8 1_555 1_555
O3 C2 1_555 1_555
O4 C2 1_555 1_555
O5 C3 1_555 1_555
O6 C9 1_555 1_555
O7 C1 1_555 1_555
C1 H1 1_555 1_555
C2 C20 1_555 1_555
C3 H2 1_555 1_555
C4 H3 1_555 1_555
C5 C4 1_555 1_555
H4 C5 1_555 1_555
C6 C1 1_555 1_555
H5 C6 1_555 1_555
C7 C5 1_555 1_555
H6 C7 1_555 1_555
C8 O7 1_555 1_555
C9 C3 1_555 1_555
H7 C9 1_555 1_555
C10 C7 1_555 1_555
C11 C8 1_555 1_555
H8 C11 1_555 1_555
H9 C11 1_555 1_555
H10 C11 1_555 1_555
C12 C10 1_555 1_555
H11 C12 1_555 1_555
C13 H12 1_555 1_555
H13 C13 1_555 1_555
H14 C13 1_555 1_555
C14 O1 1_555 1_555
H15 C14 1_555 1_555
C15 O2 1_555 1_555
H16 C15 1_555 1_555
H17 C15 1_555 1_555
C16 H18 1_555 1_555
H19 C16 1_555 1_555
H20 C16 1_555 1_555
C17 C4 1_555 1_555
H21 C17 1_555 1_555
C18 O5 1_555 1_555
C19 C8 1_555 1_555
H22 C19 1_555 1_555
H23 C19 1_555 1_555
H24 C19 1_555 1_555
C20 C10 1_555 1_555
H25 C20 1_555 1_555
H26 C20 1_555 1_555
O4 C14 1_555 1_555
O6 C18 1_555 1_555
C1 C15 1_555 1_555
C3 C6 1_555 1_555
C9 C14 1_555 1_555
C12 C17 1_555 1_555
C13 C18 1_555 1_555
C16 C18 1_555 1_555

#END
