
#######################################################################
#
#                 Cambridge Crystallographic Data Centre
#                                CCDC 
#
#######################################################################
#
# If this CIF has been generated from an entry in the Cambridge 
# Structural Database, then it will include bibliographic, chemical, 
# crystal, experimental, refinement or atomic coordinate data resulting 
# from the CCDC's data processing and validation procedures.
#
#######################################################################

data_SUZPUZ
_chemical_formula_moiety         'C22 H36 N1 O2 P1'
_chemical_name_systematic        
'2-Isopropyl-5-methylcyclohexyl N-cyclohexyl-P-phenylphosphonamidate'
_symmetry_cell_setting           orthorhombic
_symmetry_space_group_name_H-M   'P 21 21 21'
_symmetry_Int_Tables_number      19
_space_group_name_Hall           'P 2ac 2ab'
loop_
_symmetry_equiv_pos_site_id
_symmetry_equiv_pos_as_xyz
1 x,y,z
2 1/2-x,-y,1/2+z
3 -x,1/2+y,1/2-z
4 1/2+x,1/2-y,-z
_cell_length_a                   10.0205(10)
_cell_length_b                   10.4317(11)
_cell_length_c                   22.101(2)
_cell_angle_alpha                90
_cell_angle_beta                 90
_cell_angle_gamma                90
_cell_volume                     2310.24
_exptl_crystal_colour            colorless
_exptl_crystal_description       block
_cell_formula_units_Z            4
_exptl_crystal_recrystallization_method ether
loop_
_atom_site_label
_atom_site_type_symbol
_atom_site_fract_x
_atom_site_fract_y
_atom_site_fract_z
N1 N 1.06771(19) 0.23385(19) 0.24171(9)
H1 H 1.0595 0.3159 0.2405
O1 O 0.83345(16) 0.21330(17) 0.19514(8)
O2 O 0.96301(17) 0.01022(17) 0.22946(8)
P1 P 0.93290(8) 0.14723(7) 0.24088(3)
C1 C 0.8879(4) 0.4422(3) 0.06456(14)
H2 H 0.9796 0.4183 0.0541
C2 C 0.8593(3) 0.3933(3) 0.12811(12)
H3 H 0.9217 0.4326 0.1561
H4 H 0.7701 0.4193 0.1398
C3 C 0.8704(3) 0.2485(3) 0.13321(12)
H5 H 0.9629 0.2226 0.1256
C4 C 0.7777(3) 0.1789(3) 0.08865(12)
H6 H 0.6861 0.2041 0.0987
C5 C 0.8062(4) 0.2286(3) 0.02431(12)
H7 H 0.8956 0.2033 0.0125
H8 H 0.7439 0.1894 -0.0037
C6 C 0.7939(4) 0.3748(3) 0.02013(14)
H9 H 0.8147 0.4021 -0.0208
H10 H 0.7026 0.3997 0.0288
C7 C 0.8768(4) 0.5885(3) 0.06108(16)
H11 H 0.7875 0.6141 0.0712
H12 H 0.8975 0.6165 0.0208
H13 H 0.9384 0.6266 0.0891
C8 C 0.7848(3) 0.0312(3) 0.09409(14)
H14 H 0.7767 0.0105 0.1372
C9 C 0.6676(4) -0.0338(3) 0.06175(16)
H15 H 0.5853 0.0033 0.0754
H16 H 0.6680 -0.1239 0.0708
H17 H 0.6762 -0.0217 0.0189
C10 C 0.9165(3) -0.0253(3) 0.07251(16)
H18 H 0.9257 -0.0113 0.0298
H19 H 0.9178 -0.1157 0.0807
H20 H 0.9889 0.0154 0.0934
C11 C 1.2028(2) 0.1796(3) 0.24442(13)
H21 H 1.1964 0.0928 0.2611
C12 C 1.2647(3) 0.1704(4) 0.18205(14)
H22 H 1.2098 0.1157 0.1568
H23 H 1.2665 0.2550 0.1638
C13 C 1.4051(4) 0.1172(5) 0.1840(2)
H24 H 1.4426 0.1165 0.1435
H25 H 1.4032 0.0297 0.1989
C14 C 1.4916(4) 0.1989(6) 0.2252(3)
H26 H 1.4984 0.2849 0.2088
H27 H 1.5807 0.1628 0.2273
C15 C 1.4315(4) 0.2045(5) 0.2888(2)
H28 H 1.4860 0.2588 0.3144
H29 H 1.4300 0.1192 0.3062
C16 C 1.2890(3) 0.2581(4) 0.28578(16)
H30 H 1.2505 0.2584 0.3260
H31 H 1.2918 0.3459 0.2714
C17 C 0.8400(3) 0.1681(3) 0.30935(12)
C18 C 0.8202(3) 0.2870(3) 0.33534(14)
H32 H 0.8568 0.3594 0.3172
C19 C 0.7467(3) 0.3002(3) 0.38791(15)
H33 H 0.7345 0.3810 0.4048
C20 C 0.6920(4) 0.1947(4) 0.41515(14)
H34 H 0.6425 0.2038 0.4505
C21 C 0.7103(4) 0.0758(4) 0.39042(15)
H35 H 0.6733 0.0039 0.4088
C22 C 0.7844(3) 0.0634(3) 0.33780(14)
H36 H 0.7969 -0.0176 0.3213
loop_
_geom_bond_atom_site_label_1
_geom_bond_atom_site_label_2
_geom_bond_site_symmetry_1
_geom_bond_site_symmetry_2
N1 H1 1_555 1_555
O1 P1 1_555 1_555
O2 P1 1_555 1_555
P1 N1 1_555 1_555
C1 H2 1_555 1_555
C2 C1 1_555 1_555
H3 C2 1_555 1_555
H4 C2 1_555 1_555
C3 O1 1_555 1_555
H5 C3 1_555 1_555
C4 C3 1_555 1_555
H6 C4 1_555 1_555
C5 C4 1_555 1_555
H7 C5 1_555 1_555
H8 C5 1_555 1_555
C6 C1 1_555 1_555
H9 C6 1_555 1_555
H10 C6 1_555 1_555
C7 C1 1_555 1_555
H11 C7 1_555 1_555
H12 C7 1_555 1_555
H13 C7 1_555 1_555
C8 C4 1_555 1_555
H14 C8 1_555 1_555
C9 C8 1_555 1_555
H15 C9 1_555 1_555
H16 C9 1_555 1_555
H17 C9 1_555 1_555
C10 C8 1_555 1_555
H18 C10 1_555 1_555
H19 C10 1_555 1_555
H20 C10 1_555 1_555
C11 N1 1_555 1_555
H21 C11 1_555 1_555
C12 C11 1_555 1_555
H22 C12 1_555 1_555
H23 C12 1_555 1_555
C13 C12 1_555 1_555
H24 C13 1_555 1_555
H25 C13 1_555 1_555
C14 C13 1_555 1_555
H26 C14 1_555 1_555
H27 C14 1_555 1_555
C15 C14 1_555 1_555
H28 C15 1_555 1_555
H29 C15 1_555 1_555
C16 C11 1_555 1_555
H30 C16 1_555 1_555
H31 C16 1_555 1_555
C17 P1 1_555 1_555
C18 C17 1_555 1_555
H32 C18 1_555 1_555
C19 C18 1_555 1_555
H33 C19 1_555 1_555
C20 C19 1_555 1_555
H34 C20 1_555 1_555
C21 C20 1_555 1_555
H35 C21 1_555 1_555
C22 C17 1_555 1_555
H36 C22 1_555 1_555
C2 C3 1_555 1_555
C5 C6 1_555 1_555
C15 C16 1_555 1_555
C21 C22 1_555 1_555

#END
