
#######################################################################
#
#                 Cambridge Crystallographic Data Centre
#                                CCDC 
#
#######################################################################
#
# If this CIF has been generated from an entry in the Cambridge 
# Structural Database, then it will include bibliographic, chemical, 
# crystal, experimental, refinement or atomic coordinate data resulting 
# from the CCDC's data processing and validation procedures.
#
#######################################################################

data_SUZPOU
_chemical_name_common            'neutral red tetrahydrate'
_chemical_formula_moiety         'C15 H16 N4,4(H2 O1)'
_chemical_name_systematic        
'N^8^,N^8^,3-trimethylphenazine-2,8-diamine tetrahydrate'
_symmetry_cell_setting           monoclinic
_symmetry_space_group_name_H-M   'P 21'
_symmetry_Int_Tables_number      4
_space_group_name_Hall           'P 2yb'
loop_
_symmetry_equiv_pos_site_id
_symmetry_equiv_pos_as_xyz
1 x,y,z
2 -x,1/2+y,-z
_cell_length_a                   9.4300(19)
_cell_length_b                   4.7380(9)
_cell_length_c                   18.556(4)
_cell_angle_alpha                90
_cell_angle_beta                 91.27(3)
_cell_angle_gamma                90
_cell_volume                     828.866
_exptl_crystal_colour            'reddish orange'
_exptl_crystal_description       plate
_cell_formula_units_Z            2
loop_
_atom_site_label
_atom_site_type_symbol
_atom_site_fract_x
_atom_site_fract_y
_atom_site_fract_z
C1 C 1.0021(10) -0.630(2) 0.8470(6)
C2 C 0.8977(11) -0.578(2) 0.9029(6)
N1 N 0.4680(9) 0.6685(18) 0.6531(4)
C3 C 0.7924(10) -0.366(2) 0.8879(5)
H1 H 0.7258 -0.3228 0.9239
C4 C 0.7841(10) -0.2208(19) 0.8220(6)
C5 C 0.5726(12) 0.313(2) 0.7330(6)
H2 H 0.5057 0.3562 0.7689
C6 C 0.6795(11) 0.100(2) 0.7477(6)
C7 C 0.5655(11) 0.455(2) 0.6677(6)
C8 C 0.6694(13) 0.379(2) 0.6147(6)
H3 H 0.6651 0.4712 0.5693
N2 N 0.8811(9) -0.1638(19) 0.7048(5)
C9 C 0.7788(11) 0.035(2) 0.6933(6)
C10 C 0.7694(10) 0.189(2) 0.6258(5)
H4 H 0.8360 0.1520 0.5893
C11 C 1.1207(9) -0.829(2) 0.8643(5)
H5 H 1.1743 -0.7608 0.9066
H6 H 1.1838 -0.8413 0.8231
H7 H 1.0820 -1.0168 0.8745
C12 C 0.8830(9) -0.302(2) 0.7673(5)
C13 C 0.4385(13) 0.757(3) 0.5801(6)
H8 H 0.5230 0.8474 0.5606
H9 H 0.3597 0.8921 0.5794
H10 H 0.4128 0.5927 0.5506
N3 N 0.6808(9) -0.0313(17) 0.8103(5)
C14 C 0.3578(10) 0.692(2) 0.7054(5)
H11 H 0.2881 0.5409 0.6975
H12 H 0.3108 0.8755 0.7002
H13 H 0.3994 0.6752 0.7541
N4 N 0.9072(8) -0.7031(19) 0.9664(4)
H14 H 0.8482 -0.6571 1.0005
H15 H 0.9725 -0.8326 0.9746
C15 C 0.9899(12) -0.493(2) 0.7846(6)
H16 H 1.0594 -0.5283 0.7495
O1 O 1.0434(6) -0.3182(13) 0.5858(3)
H17 H 1.0862 -0.4755 0.5896
H18 H 0.9820 -0.3054 0.6185
O2 O 0.3607(7) -0.3236(17) 0.9517(4)
H19 H 0.3934 -0.1588 0.9449
H20 H 0.4088 -0.4425 0.9281
O3 O 0.8497(7) -0.3131(14) 0.4677(3)
H21 H 0.8747 -0.4555 0.4432
H22 H 0.9020 -0.3010 0.5055
O4 O 0.4963(6) 0.1687(16) 0.9159(3)
H23 H 0.5523 0.2277 0.8840
H24 H 0.5404 0.1588 0.9563
loop_
_geom_bond_atom_site_label_1
_geom_bond_atom_site_label_2
_geom_bond_site_symmetry_1
_geom_bond_site_symmetry_2
C1 C2 1_555 1_555
C2 C3 1_555 1_555
N1 C7 1_555 1_555
C3 H1 1_555 1_555
C4 C3 1_555 1_555
C5 H2 1_555 1_555
C6 C5 1_555 1_555
C7 C5 1_555 1_555
C8 C7 1_555 1_555
H3 C8 1_555 1_555
N2 C9 1_555 1_555
C9 C6 1_555 1_555
C10 C8 1_555 1_555
H4 C10 1_555 1_555
C11 C1 1_555 1_555
H5 C11 1_555 1_555
H6 C11 1_555 1_555
H7 C11 1_555 1_555
C12 C4 1_555 1_555
C13 N1 1_555 1_555
H8 C13 1_555 1_555
H9 C13 1_555 1_555
H10 C13 1_555 1_555
N3 C4 1_555 1_555
C14 N1 1_555 1_555
H11 C14 1_555 1_555
H12 C14 1_555 1_555
H13 C14 1_555 1_555
N4 C2 1_555 1_555
H14 N4 1_555 1_555
H15 N4 1_555 1_555
C15 C1 1_555 1_555
H16 C15 1_555 1_555
O1 H17 1_555 1_555
H18 O1 1_555 1_555
O2 H19 1_555 1_555
H20 O2 1_555 1_555
O3 H21 1_555 1_555
H22 O3 1_555 1_555
O4 H23 1_555 1_555
H24 O4 1_555 1_555
C6 N3 1_555 1_555
N2 C12 1_555 1_555
C9 C10 1_555 1_555
C12 C15 1_555 1_555

#END
