
#######################################################################
#
#                 Cambridge Crystallographic Data Centre
#                                CCDC 
#
#######################################################################
#
# If this CIF has been generated from an entry in the Cambridge 
# Structural Database, then it will include bibliographic, chemical, 
# crystal, experimental, refinement or atomic coordinate data resulting 
# from the CCDC's data processing and validation procedures.
#
#######################################################################

data_SUZRAH
_chemical_formula_moiety         'C9 H15 N3 O4'
_chemical_name_systematic        
(E)-1-[(1,3-Dioxan-4-yl)methyl]-2-(nitromethylidene)imidazolidine
_symmetry_cell_setting           monoclinic
_symmetry_space_group_name_H-M   'P 21/n'
_symmetry_Int_Tables_number      14
_space_group_name_Hall           '-P 2yn'
loop_
_symmetry_equiv_pos_site_id
_symmetry_equiv_pos_as_xyz
1 x,y,z
2 1/2-x,1/2+y,1/2-z
3 -x,-y,-z
4 1/2+x,1/2-y,1/2+z
_cell_length_a                   5.0138(4)
_cell_length_b                   9.8092(9)
_cell_length_c                   21.7162(18)
_cell_angle_alpha                90
_cell_angle_beta                 90.00
_cell_angle_gamma                90
_cell_volume                     1068.03
_exptl_crystal_colour            colorless
_exptl_crystal_description       prism
_cell_formula_units_Z            4
_exptl_crystal_recrystallization_method 'dichloromethane/ethyl acetate'
loop_
_atom_site_label
_atom_site_type_symbol
_atom_site_fract_x
_atom_site_fract_y
_atom_site_fract_z
O1 O 0.7955(3) 0.71286(16) 0.23056(8)
N1 N 0.7422(4) 0.58813(19) 0.22961(9)
C1 C 0.3945(4) 0.6124(2) 0.30617(10)
O2 O 0.2691(4) 0.39753(16) 0.44986(7)
N2 N 0.4042(4) 0.74655(19) 0.31417(9)
H1 H 0.5038 0.8003 0.2930
C2 C 0.5501(4) 0.5344(2) 0.26581(10)
H2 H 0.5196 0.4409 0.2638
N3 N 0.2104(4) 0.55718(19) 0.34370(8)
O3 O 0.8720(4) 0.51016(18) 0.19406(9)
C3 C 0.1287(5) 0.4153(2) 0.34624(11)
H3 H 0.1514 0.3753 0.3057
H4 H -0.0597 0.4115 0.3563
C4 C 0.2786(5) 0.3314(2) 0.39185(10)
H5 H 0.4653 0.3268 0.3787
O4 O 0.2921(5) 0.1954(2) 0.50513(9)
C5 C 0.1743(5) 0.1882(2) 0.39737(11)
H6 H 0.2109 0.1387 0.3596
H7 H -0.0175 0.1904 0.4032
C6 C 0.0734(5) 0.6627(3) 0.37948(11)
H8 H 0.0835 0.6438 0.4233
H9 H -0.1125 0.6699 0.3675
C7 C 0.2257(5) 0.7920(2) 0.36326(11)
H10 H 0.1061 0.8629 0.3488
H11 H 0.3255 0.8258 0.3984
C8 C 0.4109(7) 0.3220(3) 0.49462(13)
H12 H 0.5930 0.3086 0.4808
H13 H 0.4163 0.3731 0.5328
C9 C 0.3037(7) 0.1152(3) 0.45115(13)
H14 H 0.2132 0.0293 0.4583
H15 H 0.4885 0.0956 0.4413
loop_
_geom_bond_atom_site_label_1
_geom_bond_atom_site_label_2
_geom_bond_site_symmetry_1
_geom_bond_site_symmetry_2
O1 N1 1_555 1_555
N1 C2 1_555 1_555
C1 N2 1_555 1_555
O2 C4 1_555 1_555
N2 H1 1_555 1_555
C2 C1 1_555 1_555
H2 C2 1_555 1_555
N3 C1 1_555 1_555
O3 N1 1_555 1_555
C3 N3 1_555 1_555
H3 C3 1_555 1_555
H4 C3 1_555 1_555
C4 C3 1_555 1_555
H5 C4 1_555 1_555
O4 C8 1_555 1_555
C5 C4 1_555 1_555
H6 C5 1_555 1_555
H7 C5 1_555 1_555
C6 N3 1_555 1_555
H8 C6 1_555 1_555
H9 C6 1_555 1_555
C7 N2 1_555 1_555
H10 C7 1_555 1_555
H11 C7 1_555 1_555
C8 O2 1_555 1_555
H12 C8 1_555 1_555
H13 C8 1_555 1_555
C9 O4 1_555 1_555
H14 C9 1_555 1_555
H15 C9 1_555 1_555
C5 C9 1_555 1_555
C6 C7 1_555 1_555

#END
