
#######################################################################
#
#                 Cambridge Crystallographic Data Centre
#                                CCDC 
#
#######################################################################
#
# If this CIF has been generated from an entry in the Cambridge 
# Structural Database, then it will include bibliographic, chemical, 
# crystal, experimental, refinement or atomic coordinate data resulting 
# from the CCDC's data processing and validation procedures.
#
#######################################################################

data_SUZWOA
_chemical_formula_moiety         'C17 H20 N2 O4'
_chemical_name_systematic        
N-(2,5-Dimethoxyphenyl)-N'-[4-(2-hydroxyethyl)phenyl]urea
_symmetry_cell_setting           monoclinic
_symmetry_space_group_name_H-M   'P 21/c'
_symmetry_Int_Tables_number      14
_space_group_name_Hall           '-P 2ybc'
loop_
_symmetry_equiv_pos_site_id
_symmetry_equiv_pos_as_xyz
1 x,y,z
2 -x,1/2+y,1/2-z
3 -x,-y,-z
4 x,1/2-y,1/2+z
_cell_length_a                   18.7551(18)
_cell_length_b                   6.8095(6)
_cell_length_c                   12.6881(12)
_cell_angle_alpha                90
_cell_angle_beta                 98.930(3)
_cell_angle_gamma                90
_cell_volume                     1600.79
_exptl_crystal_colour            colorless
_exptl_crystal_description       plate
_chemical_melting_point          '427 K'
_cell_formula_units_Z            4
_exptl_crystal_recrystallization_method ethanol
loop_
_atom_site_label
_atom_site_type_symbol
_atom_site_fract_x
_atom_site_fract_y
_atom_site_fract_z
C1 C 0.81571(7) 0.4546(2) 0.70224(10)
C2 C 0.85245(8) 0.6263(2) 0.68225(10)
C3 C 0.91672(8) 0.6722(2) 0.74533(12)
H1 H 0.9415 0.7852 0.7315
C4 C 0.94471(8) 0.5516(2) 0.82909(12)
H2 H 0.9877 0.5848 0.8723
C5 C 0.90884(8) 0.3820(2) 0.84865(11)
C6 C 0.84471(8) 0.3320(2) 0.78530(11)
H3 H 0.8211 0.2166 0.7983
N1 N 0.75121(7) 0.41428(19) 0.63308(9)
H4 H 0.7438(8) 0.482(2) 0.5747(12)
C7 C 0.69226(7) 0.31819(18) 0.65892(10)
O1 O 0.69222(6) 0.23814(17) 0.74516(8)
N2 N 0.63478(6) 0.32245(17) 0.58002(9)
H5 H 0.6403(7) 0.3846(19) 0.5222(11)
C8 C 0.56284(7) 0.26392(17) 0.58430(10)
C9 C 0.51483(8) 0.26886(18) 0.48941(10)
H6 H 0.5314 0.3014 0.4263
C10 C 0.44293(8) 0.22611(18) 0.48762(11)
H7 H 0.4118 0.2295 0.423
C11 C 0.41582(7) 0.17787(17) 0.58034(11)
C12 C 0.46477(8) 0.1691(2) 0.67378(11)
H8 H 0.4483 0.134 0.7366
C13 C 0.53723(8) 0.2105(2) 0.67713(10)
H9 H 0.5687 0.2026 0.7413
C14 C 0.33652(8) 0.1382(2) 0.57897(12)
H10 H 0.3309 0.0088 0.6086
H11 H 0.3124 0.1373 0.5056
C15 C 0.30012(9) 0.2874(2) 0.64108(12)
H12 H 0.2503 0.2494 0.6416
H13 H 0.3245 0.2921 0.7143
O2 O 0.30252(6) 0.47658(15) 0.59305(8)
H14 H 0.3042(9) 0.563(3) 0.6438(15)
O3 O 0.81964(6) 0.73557(16) 0.59742(9)
C16 C 0.85404(10) 0.9101(3) 0.57235(14)
H15 H 0.8596 0.9967 0.6328
H16 H 0.8253 0.9731 0.5127
H17 H 0.9007 0.8792 0.5545
O4 O 0.94077(6) 0.27125(18) 0.93408(9)
C17 C 0.90471(10) 0.1000(3) 0.96033(14)
H18 H 0.8569 0.1336 0.9725
H19 H 0.931 0.0422 1.0237
H20 H 0.9017 0.0077 0.9026
loop_
_geom_bond_atom_site_label_1
_geom_bond_atom_site_label_2
_geom_bond_site_symmetry_1
_geom_bond_site_symmetry_2
C1 C2 1_555 1_555
C2 C3 1_555 1_555
C3 H1 1_555 1_555
C4 C3 1_555 1_555
H2 C4 1_555 1_555
C5 C4 1_555 1_555
C6 C1 1_555 1_555
H3 C6 1_555 1_555
N1 C1 1_555 1_555
H4 N1 1_555 1_555
C7 N1 1_555 1_555
O1 C7 1_555 1_555
N2 C7 1_555 1_555
H5 N2 1_555 1_555
C8 N2 1_555 1_555
C9 C8 1_555 1_555
H6 C9 1_555 1_555
C10 C9 1_555 1_555
H7 C10 1_555 1_555
C11 C10 1_555 1_555
C12 C11 1_555 1_555
H8 C12 1_555 1_555
C13 C8 1_555 1_555
H9 C13 1_555 1_555
C14 C11 1_555 1_555
H10 C14 1_555 1_555
H11 C14 1_555 1_555
C15 C14 1_555 1_555
H12 C15 1_555 1_555
H13 C15 1_555 1_555
O2 C15 1_555 1_555
H14 O2 1_555 1_555
O3 C2 1_555 1_555
C16 O3 1_555 1_555
H15 C16 1_555 1_555
H16 C16 1_555 1_555
H17 C16 1_555 1_555
O4 C5 1_555 1_555
C17 O4 1_555 1_555
H18 C17 1_555 1_555
H19 C17 1_555 1_555
H20 C17 1_555 1_555
C5 C6 1_555 1_555
C12 C13 1_555 1_555

#END
