
#######################################################################
#
#                 Cambridge Crystallographic Data Centre
#                                CCDC 
#
#######################################################################
#
# If this CIF has been generated from an entry in the Cambridge 
# Structural Database, then it will include bibliographic, chemical, 
# crystal, experimental, refinement or atomic coordinate data resulting 
# from the CCDC's data processing and validation procedures.
#
#######################################################################

data_SUZYIW
_chemical_name_common            bis(2,4,6-trimethoxybenzylidene)hydrazine
_chemical_formula_moiety         'C20 H24 N2 O6'
_chemical_name_systematic        
(E,E)-1,2-bis(2,4,6-trimethoxybenzylidene)hydrazine
_symmetry_cell_setting           triclinic
_symmetry_space_group_name_H-M   'P -1'
_symmetry_Int_Tables_number      2
_space_group_name_Hall           '-P 1'
loop_
_symmetry_equiv_pos_site_id
_symmetry_equiv_pos_as_xyz
1 x,y,z
2 -x,-y,-z
_cell_length_a                   7.3851(2)
_cell_length_b                   7.4043(2)
_cell_length_c                   9.5440(2)
_cell_angle_alpha                71.4120(10)
_cell_angle_beta                 78.0950(10)
_cell_angle_gamma                79.4490(10)
_cell_volume                     480.126
_exptl_crystal_colour            yellow
_exptl_crystal_description       block
_cell_formula_units_Z            1
loop_
_atom_site_label
_atom_site_type_symbol
_atom_site_fract_x
_atom_site_fract_y
_atom_site_fract_z
O1 O 0.20858(11) 0.87907(11) 0.08848(8)
O2 O 0.82788(11) 0.57545(11) 0.12544(8)
O3 O 0.44058(10) 0.78425(11) 0.53298(8)
N1 N 0.09376(12) 0.95751(13) 0.49155(10)
C1 C 0.35619(14) 0.81164(14) 0.16438(11)
C2 C 0.52565(15) 0.72803(15) 0.10450(11)
H1 H 0.5443 0.7178 0.0078
C3 C 0.66759(14) 0.65957(15) 0.19168(11)
C4 C 0.64415(14) 0.67699(14) 0.33540(11)
H2 H 0.7406 0.6318 0.3917
C5 C 0.47341(14) 0.76345(14) 0.39383(10)
C6 C 0.32381(14) 0.83151(14) 0.31125(11)
C7 C 0.14037(15) 0.91807(15) 0.36584(11)
C8 C 0.22823(17) 0.85390(17) -0.05710(12)
H3 H 0.1127 0.9008 -0.0954
H4 H 0.2601 0.7199 -0.0499
H5 H 0.3251 0.9241 -0.1234
C9 C 0.96932(16) 0.47848(17) 0.21582(12)
H6 H 1.0697 0.4173 0.1585
H7 H 0.9173 0.3834 0.3022
H8 H 1.0157 0.5698 0.2473
C10 C 0.59168(15) 0.72427(16) 0.61730(11)
H9 H 0.5516 0.7495 0.7123
H10 H 0.6945 0.7939 0.5631
H11 H 0.6302 0.5892 0.6330
H12 H 0.0407(19) 0.9430(19) 0.3064(15)
O1A O -0.20858(11) 1.12093(11) 0.91152(8)
O2A O -0.82788(11) 1.42455(11) 0.87456(8)
O3A O -0.44058(10) 1.21575(11) 0.46702(8)
N1A N -0.09376(12) 1.04249(13) 0.50845(10)
C1A C -0.35619(14) 1.18836(14) 0.83562(11)
C2A C -0.52565(15) 1.27197(15) 0.89550(11)
H1A H -0.5443 1.2822 0.9922
C3A C -0.66759(14) 1.34043(15) 0.80832(11)
C4A C -0.64415(14) 1.32301(14) 0.66460(11)
H2A H -0.7406 1.3682 0.6083
C5A C -0.47341(14) 1.23655(14) 0.60617(10)
C6A C -0.32381(14) 1.16849(14) 0.68875(11)
C7A C -0.14037(15) 1.08193(15) 0.63416(11)
C8A C -0.22823(17) 1.14610(17) 1.05710(12)
H3A H -0.1127 1.0992 1.0954
H4A H -0.2601 1.2801 1.0499
H5A H -0.3251 1.0759 1.1234
C9A C -0.96932(16) 1.52152(17) 0.78418(12)
H6A H -1.0697 1.5827 0.8415
H7A H -0.9173 1.6166 0.6978
H8A H -1.0157 1.4302 0.7527
C10A C -0.59168(15) 1.27573(16) 0.38270(11)
H9A H -0.5516 1.2505 0.2877
H10A H -0.6945 1.2061 0.4369
H11A H -0.6302 1.4108 0.3670
H12A H -0.0407(19) 1.0570(19) 0.6936(15)
loop_
_geom_bond_atom_site_label_1
_geom_bond_atom_site_label_2
_geom_bond_site_symmetry_1
_geom_bond_site_symmetry_2
O1 C1 1_555 1_555
O2 C3 1_555 1_555
O3 C5 1_555 1_555
N1 C7 1_555 1_555
C1 C2 1_555 1_555
C2 H1 1_555 1_555
C3 C2 1_555 1_555
C4 C3 1_555 1_555
H2 C4 1_555 1_555
C5 C4 1_555 1_555
C6 C1 1_555 1_555
C7 C6 1_555 1_555
C8 O1 1_555 1_555
H3 C8 1_555 1_555
H4 C8 1_555 1_555
H5 C8 1_555 1_555
C9 O2 1_555 1_555
H6 C9 1_555 1_555
H7 C9 1_555 1_555
H8 C9 1_555 1_555
C10 O3 1_555 1_555
H9 C10 1_555 1_555
H10 C10 1_555 1_555
H11 C10 1_555 1_555
H12 C7 1_555 1_555
O1A C1A 1_555 1_555
O2A C3A 1_555 1_555
O3A C5A 1_555 1_555
N1A N1 1_555 1_555
C1A C2A 1_555 1_555
C2A H1A 1_555 1_555
C3A C2A 1_555 1_555
C4A C3A 1_555 1_555
H2A C4A 1_555 1_555
C5A C4A 1_555 1_555
C6A C1A 1_555 1_555
C7A N1A 1_555 1_555
C8A O1A 1_555 1_555
H3A C8A 1_555 1_555
H4A C8A 1_555 1_555
H5A C8A 1_555 1_555
C9A O2A 1_555 1_555
H6A C9A 1_555 1_555
H7A C9A 1_555 1_555
H8A C9A 1_555 1_555
C10A O3A 1_555 1_555
H9A C10A 1_555 1_555
H10A C10A 1_555 1_555
H11A C10A 1_555 1_555
H12A C7A 1_555 1_555
C5 C6 1_555 1_555
C5A C6A 1_555 1_555
C6A C7A 1_555 1_555

#END
