
#######################################################################
#
#                 Cambridge Crystallographic Data Centre
#                                CCDC 
#
#######################################################################
#
# If this CIF has been generated from an entry in the Cambridge 
# Structural Database, then it will include bibliographic, chemical, 
# crystal, experimental, refinement or atomic coordinate data resulting 
# from the CCDC's data processing and validation procedures.
#
#######################################################################

data_SUZZOD
_chemical_name_common            
"N'-(4-Chlorobenzylidene)-3-phenylacrylohydrazide monohydrate"
_chemical_formula_moiety         'C16 H13 Cl1 N2 O1,H2 O1'
_chemical_name_systematic        
"(2E)-N'-[(E)-4-Chlorobenzylidene]-3-phenylprop-2-enohydrazide monohydrate"
_symmetry_cell_setting           monoclinic
_symmetry_space_group_name_H-M   'P 21/c'
_symmetry_Int_Tables_number      14
_space_group_name_Hall           '-P 2ybc'
loop_
_symmetry_equiv_pos_site_id
_symmetry_equiv_pos_as_xyz
1 x,y,z
2 -x,1/2+y,1/2-z
3 -x,-y,-z
4 x,1/2-y,1/2+z
_cell_length_a                   34.078(3)
_cell_length_b                   5.9824(6)
_cell_length_c                   7.2912(6)
_cell_angle_alpha                90
_cell_angle_beta                 95.674(3)
_cell_angle_gamma                90
_cell_volume                     1479.16
_exptl_crystal_colour            colorless
_exptl_crystal_description       block
_cell_formula_units_Z            4
loop_
_atom_site_label
_atom_site_type_symbol
_atom_site_fract_x
_atom_site_fract_y
_atom_site_fract_z
Cl1 Cl 0.02800(3) -0.2977(2) 0.18849(16)
O1 O 0.28173(10) -0.0171(6) 0.2229(5)
N1 N 0.20834(11) 0.1523(7) 0.1857(5)
N2 N 0.24086(12) 0.2830(8) 0.1657(6)
H1 H 0.2398(16) 0.420(3) 0.129(7)
C1 C 0.07011(13) -0.1339(9) 0.1827(6)
C2 C 0.10625(13) -0.2220(9) 0.2528(6)
H2 H 0.1074 -0.3662 0.3077
C3 C 0.14047(13) -0.1007(8) 0.2430(6)
H3 H 0.1652 -0.1615 0.2906
C4 C 0.13869(13) 0.1134(8) 0.1623(6)
C5 C 0.10192(13) 0.2008(9) 0.0959(6)
H4 H 0.1004 0.3458 0.0425
C6 C 0.06758(13) 0.0787(9) 0.1071(6)
H5 H 0.0427 0.1401 0.0635
C7 C 0.17447(14) 0.2426(9) 0.1444(6)
H6 H 0.1727 0.3929 0.1023
C8 C 0.27682(14) 0.1859(9) 0.1837(6)
C9 C 0.30969(14) 0.3385(9) 0.1550(6)
H7 H 0.3046 0.4928 0.1329
C10 C 0.34638(14) 0.2621(10) 0.1598(6)
H8 H 0.3503 0.1079 0.1869
C11 C 0.38178(14) 0.3936(9) 0.1270(6)
C12 C 0.41917(14) 0.3067(10) 0.1809(7)
H9 H 0.4215 0.1632 0.2367
C13 C 0.45299(15) 0.4277(11) 0.1540(7)
H10 H 0.4783 0.3688 0.1935
C14 C 0.44946(15) 0.6344(11) 0.0691(7)
H11 H 0.4725 0.7163 0.0482
C15 C 0.41234(15) 0.7235(10) 0.0140(7)
H12 H 0.4102 0.8662 -0.0433
C16 C 0.37871(14) 0.6055(9) 0.0424(6)
H13 H 0.3535 0.6670 0.0049
O2 O 0.23087(11) 0.6983(6) -0.0131(5)
H14 H 0.2424(14) 0.797(8) 0.055(6)
H15 H 0.2444(13) 0.668(9) -0.101(5)
loop_
_geom_bond_atom_site_label_1
_geom_bond_atom_site_label_2
_geom_bond_site_symmetry_1
_geom_bond_site_symmetry_2
Cl1 C1 1_555 1_555
O1 C8 1_555 1_555
N1 N2 1_555 1_555
N2 H1 1_555 1_555
C1 C2 1_555 1_555
C2 H2 1_555 1_555
C3 C2 1_555 1_555
H3 C3 1_555 1_555
C4 C3 1_555 1_555
C5 C4 1_555 1_555
H4 C5 1_555 1_555
C6 C1 1_555 1_555
H5 C6 1_555 1_555
C7 N1 1_555 1_555
H6 C7 1_555 1_555
C8 N2 1_555 1_555
C9 C8 1_555 1_555
H7 C9 1_555 1_555
C10 C9 1_555 1_555
H8 C10 1_555 1_555
C11 C10 1_555 1_555
C12 C11 1_555 1_555
H9 C12 1_555 1_555
C13 C12 1_555 1_555
H10 C13 1_555 1_555
C14 C13 1_555 1_555
H11 C14 1_555 1_555
C15 C14 1_555 1_555
H12 C15 1_555 1_555
C16 C11 1_555 1_555
H13 C16 1_555 1_555
O2 H14 1_555 1_555
H15 O2 1_555 1_555
C4 C7 1_555 1_555
C5 C6 1_555 1_555
C15 C16 1_555 1_555

#END
