
#######################################################################
#
#                 Cambridge Crystallographic Data Centre
#                                CCDC 
#
#######################################################################
#
# If this CIF has been generated from an entry in the Cambridge 
# Structural Database, then it will include bibliographic, chemical, 
# crystal, experimental, refinement or atomic coordinate data resulting 
# from the CCDC's data processing and validation procedures.
#
#######################################################################

data_TABFEI
_chemical_formula_moiety         'C30 H48 N14'
_chemical_name_systematic        
1,4,7,8,11,14,17,20,21,24,29,32,33,36-Tetradeca-azapentacyclo[12.12.12.2^6,9^,2^19,22^.2^31,34^]tetratetraconta-6,8,19,21,31,33,39,41,43-nonaene
_symmetry_cell_setting           monoclinic
_symmetry_space_group_name_H-M   'C 2/c'
_symmetry_Int_Tables_number      15
_space_group_name_Hall           '-C 2yn'
loop_
_symmetry_equiv_pos_site_id
_symmetry_equiv_pos_as_xyz
1 x,y,z
2 1/2+x,1/2+y,z
3 x,-y,1/2+z
4 1/2+x,1/2-y,1/2+z
5 -x,-y,-z
6 1/2-x,1/2-y,-z
7 -x,y,1/2-z
8 1/2-x,1/2+y,1/2-z
_cell_length_a                   28.801(14)
_cell_length_b                   8.656(4)
_cell_length_c                   14.854(6)
_cell_angle_alpha                90
_cell_angle_beta                 119.083(10)
_cell_angle_gamma                90
_cell_volume                     3236.22
_exptl_crystal_colour            colorless
_exptl_crystal_description       Plate
_cell_formula_units_Z            4
_exptl_crystal_recrystallization_method 'chloroform/diethyl ether'
loop_
_atom_site_label
_atom_site_type_symbol
_atom_site_fract_x
_atom_site_fract_y
_atom_site_fract_z
N1 N 0.02638(5) -0.25085(16) -0.21447(9)
C1 C 0.02638(6) 0.0256(2) -0.21426(12)
H1 H 0.0452 0.1197 -0.1884
C2 C 0.05208(6) -0.11752(19) -0.18013(11)
C3 C 0.11065(6) -0.1279(2) -0.10482(12)
H2 H 0.1201 -0.2366 -0.0828
H3 H 0.1311 -0.0948 -0.1392
N2 N 0.12521(5) -0.03136(16) -0.01458(9)
H4 H 0.1095 -0.0679 0.0301
C4 C 0.18305(6) -0.0218(2) 0.05144(12)
H5 H 0.1992 0.0210 0.0113
H6 H 0.1976 -0.1267 0.0748
C5 C 0.19733(7) 0.0799(2) 0.14436(12)
H7 H 0.1809 0.0368 0.1840
H8 H 0.2364 0.0785 0.1895
N3 N 0.17965(5) 0.24042(16) 0.11604(10)
C6 C 0.15450(6) 0.3473(2) -0.13533(12)
H9 H 0.1682 0.2452 -0.1034
H10 H 0.1826 0.3989 -0.1444
N4 N 0.14313(5) 0.43923(17) -0.06689(10)
H11 H 0.1179 0.3785 -0.0488
C7 C 0.19052(7) 0.4738(2) 0.03160(13)
H12 H 0.1804 0.5470 0.0704
H13 H 0.2168 0.5265 0.0173
C8 C 0.21724(6) 0.3336(2) 0.09983(13)
H14 H 0.2333 0.2690 0.0673
H15 H 0.2461 0.3691 0.1673
N5 N 0.11149(6) 0.21620(17) -0.29765(11)
N6 N 0.07070(5) 0.18693(17) -0.39264(11)
C9 C 0.10613(6) 0.3243(2) -0.23972(12)
C10 C 0.05922(6) 0.40927(19) -0.27300(12)
H16 H 0.0562 0.4855 -0.2301
C11 C 0.01792(6) 0.37912(19) -0.36915(12)
H17 H -0.0147 0.4340 -0.3951
C12 C 0.02504(6) 0.26545(19) -0.42795(12)
C13 C -0.01712(6) 0.2269(2) -0.53590(12)
H18 H -0.0087 0.2795 -0.5853
H19 H -0.0168 0.1142 -0.5469
N7 N -0.07025(5) 0.27295(17) -0.55683(10)
H20 H -0.0816 0.1991 -0.5169
C14 C -0.10988(6) 0.2516(2) -0.66544(12)
H21 H -0.1128 0.1405 -0.6832
H22 H -0.0985 0.3076 -0.7095
C15 C 0.16355(6) 0.3118(2) 0.18546(12)
H23 H 0.1616 0.4252 0.1758
H24 H 0.1905 0.2895 0.2577
N1F N -0.02638(5) -0.25085(16) -0.28553(9)
C2F C -0.05208(6) -0.11752(19) -0.31987(11)
C1F C -0.02638(6) 0.0256(2) -0.28574(12)
C15F C -0.16355(6) 0.3118(2) -0.68546(12)
N3F N -0.17965(5) 0.24042(16) -0.61604(10)
C5F C -0.19733(7) 0.0799(2) -0.64436(12)
C4F C -0.18305(6) -0.0218(2) -0.55144(12)
N2F N -0.12521(5) -0.03136(16) -0.48542(9)
C3F C -0.11065(6) -0.1279(2) -0.39518(12)
H2F H -0.1201 -0.2366 -0.4172
H3F H -0.1311 -0.0948 -0.3608
H4F H -0.1095 -0.0679 -0.5301
H5F H -0.1992 0.0210 -0.5113
H6F H -0.1976 -0.1267 -0.5748
H7F H -0.1809 0.0368 -0.6840
H8F H -0.2364 0.0785 -0.6895
C8F C -0.21724(6) 0.3336(2) -0.59983(13)
C7F C -0.19052(7) 0.4738(2) -0.53160(13)
N4F N -0.14313(5) 0.43923(17) -0.43311(10)
C6F C -0.15450(6) 0.3473(2) -0.36467(12)
H9F H -0.1682 0.2452 -0.3966
H10F H -0.1826 0.3989 -0.3556
C9F C -0.10613(6) 0.3243(2) -0.26028(12)
N5F N -0.11149(6) 0.21620(17) -0.20235(11)
N6F N -0.07070(5) 0.18693(17) -0.10736(11)
C12F C -0.02504(6) 0.26545(19) -0.07205(12)
C11F C -0.01792(6) 0.37912(19) -0.13085(12)
C10F C -0.05922(6) 0.40927(19) -0.22700(12)
H16F H -0.0562 0.4855 -0.2699
H17F H 0.0147 0.4340 -0.1049
C13F C 0.01712(6) 0.2269(2) 0.03590(12)
H18F H 0.0087 0.2795 0.0853
H19F H 0.0168 0.1142 0.0469
N7F N 0.07025(5) 0.27295(17) 0.05683(10)
H20F H 0.0816 0.1991 0.0169
C14F C 0.10988(6) 0.2516(2) 0.16544(12)
H21F H 0.1128 0.1405 0.1832
H22F H 0.0985 0.3076 0.2095
H11F H -0.1179 0.3785 -0.4512
H12F H -0.1804 0.5470 -0.5704
H13F H -0.2168 0.5265 -0.5173
H14F H -0.2333 0.2690 -0.5673
H15F H -0.2461 0.3691 -0.6673
H23F H -0.1616 0.4252 -0.6758
H24F H -0.1905 0.2895 -0.7577
H1F H -0.0452 0.1197 -0.3116
loop_
_geom_bond_atom_site_label_1
_geom_bond_atom_site_label_2
_geom_bond_site_symmetry_1
_geom_bond_site_symmetry_2
N1 C2 1_555 1_555
C1 H1 1_555 1_555
C2 C1 1_555 1_555
C3 C2 1_555 1_555
H2 C3 1_555 1_555
H3 C3 1_555 1_555
N2 C3 1_555 1_555
H4 N2 1_555 1_555
C4 N2 1_555 1_555
H5 C4 1_555 1_555
H6 C4 1_555 1_555
C5 C4 1_555 1_555
H7 C5 1_555 1_555
H8 C5 1_555 1_555
N3 C5 1_555 1_555
C6 H9 1_555 1_555
H10 C6 1_555 1_555
N4 C6 1_555 1_555
H11 N4 1_555 1_555
C7 N4 1_555 1_555
H12 C7 1_555 1_555
H13 C7 1_555 1_555
C8 N3 1_555 1_555
H14 C8 1_555 1_555
H15 C8 1_555 1_555
N5 N6 1_555 1_555
N6 C12 1_555 1_555
C9 C6 1_555 1_555
C10 C9 1_555 1_555
H16 C10 1_555 1_555
C11 C10 1_555 1_555
H17 C11 1_555 1_555
C12 C11 1_555 1_555
C13 C12 1_555 1_555
H18 C13 1_555 1_555
H19 C13 1_555 1_555
N7 C13 1_555 1_555
H20 N7 1_555 1_555
C14 N7 1_555 1_555
H21 C14 1_555 1_555
H22 C14 1_555 1_555
C15 N3 1_555 1_555
H23 C15 1_555 1_555
H24 C15 1_555 1_555
N1F N1 1_555 1_555
C2F N1F 1_555 1_555
C1F C1 1_555 1_555
C15F C14 1_555 1_555
N3F C15F 1_555 1_555
C5F N3F 1_555 1_555
C4F C5F 1_555 1_555
N2F C4F 1_555 1_555
C3F C2F 1_555 1_555
H2F C3F 1_555 1_555
H3F C3F 1_555 1_555
H4F N2F 1_555 1_555
H5F C4F 1_555 1_555
H6F C4F 1_555 1_555
H7F C5F 1_555 1_555
H8F C5F 1_555 1_555
C8F N3F 1_555 1_555
C7F C8F 1_555 1_555
N4F C7F 1_555 1_555
C6F N4F 1_555 1_555
H9F C6F 1_555 1_555
H10F C6F 1_555 1_555
C9F C6F 1_555 1_555
N5F C9F 1_555 1_555
N6F N5F 1_555 1_555
C12F N6F 1_555 1_555
C11F C12F 1_555 1_555
C10F C9F 1_555 1_555
H16F C10F 1_555 1_555
H17F C11F 1_555 1_555
C13F C12F 1_555 1_555
H18F C13F 1_555 1_555
H19F C13F 1_555 1_555
N7F C13F 1_555 1_555
H20F N7F 1_555 1_555
C14F C15 1_555 1_555
H21F C14F 1_555 1_555
H22F C14F 1_555 1_555
H11F N4F 1_555 1_555
H12F C7F 1_555 1_555
H13F C7F 1_555 1_555
H14F C8F 1_555 1_555
H15F C8F 1_555 1_555
H23F C15F 1_555 1_555
H24F C15F 1_555 1_555
H1F C1F 1_555 1_555
C7 C8 1_555 1_555
N5 C9 1_555 1_555
C2F C1F 1_555 1_555
N2F C3F 1_555 1_555
C11F C10F 1_555 1_555
N7F C14F 1_555 1_555

#END
