
#######################################################################
#
#                 Cambridge Crystallographic Data Centre
#                                CCDC 
#
#######################################################################
#
# If this CIF has been generated from an entry in the Cambridge 
# Structural Database, then it will include bibliographic, chemical, 
# crystal, experimental, refinement or atomic coordinate data resulting 
# from the CCDC's data processing and validation procedures.
#
#######################################################################

data_TABNAM
_chemical_formula_moiety         'C38 H30 N2 S8,4(C4 H8 O1)'
_chemical_name_systematic        
'1,4,5,8,14,17,18,21-Octathia-11,24-diazacyclohexaeicosane tetrahydrofuran solvate'
_symmetry_cell_setting           monoclinic
_symmetry_space_group_name_H-M   'P 21/c'
_symmetry_Int_Tables_number      14
_space_group_name_Hall           '-P 2ybc'
loop_
_symmetry_equiv_pos_site_id
_symmetry_equiv_pos_as_xyz
1 x,y,z
2 x,1/2-y,1/2+z
3 -x,-y,-z
4 -x,1/2+y,1/2-z
_cell_length_a                   8.6681(17)
_cell_length_b                   28.111(5)
_cell_length_c                   10.775(2)
_cell_angle_alpha                90
_cell_angle_beta                 93.485(4)
_cell_angle_gamma                90
_cell_volume                     2620.68
_exptl_crystal_colour            colorless
_exptl_crystal_description       plate
_cell_formula_units_Z            2
loop_
_atom_site_label
_atom_site_type_symbol
_atom_site_fract_x
_atom_site_fract_y
_atom_site_fract_z
C1 C -0.0742(9) 0.4232(3) 0.9098(7)
H1 H -0.1110 0.3975 0.9633
H2 H -0.0009 0.4430 0.9615
S1 S 0.0295(3) 0.39645(8) 0.78527(18)
C2 C 0.0923(8) 0.4464(3) 0.7020(7)
C3 C 0.1082(9) 0.4911(3) 0.7512(7)
H3 H 0.0815 0.4965 0.8343
C4 C 0.1620(9) 0.5286(3) 0.6834(8)
H4 H 0.1691 0.5596 0.7186
C5 C 0.2060(9) 0.5207(3) 0.5627(7)
H5 H 0.2466 0.5460 0.5162
C6 C 0.1903(9) 0.4762(3) 0.5116(7)
H6 H 0.2208 0.4709 0.4295
C7 C 0.1305(8) 0.4385(3) 0.5776(7)
S2 S 0.0968(3) 0.38067(8) 0.51507(19)
S3 S 0.1461(2) 0.38640(8) 0.33305(18)
C8 C 0.3520(10) 0.3754(3) 0.3335(7)
C9 C 0.4460(11) 0.3690(3) 0.4400(7)
H7 H 0.4038 0.3704 0.5192
C10 C 0.6005(11) 0.3606(3) 0.4311(8)
H8 H 0.6661 0.3567 0.5043
C11 C 0.6611(10) 0.3576(3) 0.3155(8)
H9 H 0.7684 0.3516 0.3103
C12 C 0.5690(10) 0.3633(3) 0.2079(8)
H10 H 0.6121 0.3607 0.1292
C13 C 0.4107(9) 0.3728(3) 0.2153(6)
S4 S 0.2877(2) 0.38154(8) 0.08025(18)
C14 C 0.3699(9) 0.4359(3) 0.0175(7)
H11 H 0.4812 0.4306 0.0068
H12 H 0.3192 0.4422 -0.0657
C15 C 0.3522(9) 0.4792(3) 0.0983(7)
N1 N 0.2274(7) 0.5064(2) 0.0675(5)
C16 C -0.2113(9) 0.4538(3) 0.8667(7)
C17 C -0.3135(10) 0.4407(3) 0.7670(7)
H13 H -0.2972 0.4126 0.7205
C18 C -0.4385(10) 0.4698(3) 0.7383(7)
H14 H -0.5113 0.4617 0.6722
C19 C 0.4569(9) 0.4901(3) 0.1952(7)
H15 H 0.5417 0.4695 0.2152
C16B C 0.2113(9) 0.5462(3) 0.1333(7)
C1B C 0.0742(9) 0.5768(3) 0.0902(7)
H1B H 0.1110 0.6025 0.0367
H2B H 0.0009 0.5570 0.0385
S1B S -0.0295(3) 0.60355(8) 0.21473(18)
C2B C -0.0923(8) 0.5536(3) 0.2980(7)
C3B C -0.1082(9) 0.5089(3) 0.2488(7)
H3B H -0.0815 0.5035 0.1657
C4B C -0.1620(9) 0.4714(3) 0.3166(8)
H4B H -0.1691 0.4404 0.2814
C5B C -0.2060(9) 0.4793(3) 0.4373(7)
H5B H -0.2466 0.4540 0.4838
C6B C -0.1903(9) 0.5238(3) 0.4884(7)
H6B H -0.2208 0.5291 0.5705
C7B C -0.1305(8) 0.5615(3) 0.4224(7)
S2B S -0.0968(3) 0.61933(8) 0.48493(19)
S3B S -0.1461(2) 0.61360(8) 0.66695(18)
C8B C -0.3520(10) 0.6246(3) 0.6665(7)
C9B C -0.4460(11) 0.6310(3) 0.5600(7)
H7B H -0.4038 0.6296 0.4808
C10B C -0.6005(11) 0.6394(3) 0.5689(8)
H8B H -0.6661 0.6433 0.4957
C11B C -0.6611(10) 0.6424(3) 0.6845(8)
H9B H -0.7684 0.6484 0.6897
C12B C -0.5690(10) 0.6367(3) 0.7921(8)
H10B H -0.6121 0.6393 0.8708
C13B C -0.4107(9) 0.6272(3) 0.7847(6)
S4B S -0.2877(2) 0.61846(8) 0.91975(18)
C14B C -0.3699(9) 0.5641(3) 0.9825(7)
H11B H -0.4812 0.5694 0.9932
H12B H -0.3192 0.5578 1.0657
C15B C -0.3522(9) 0.5208(3) 0.9017(7)
N1B N -0.2274(7) 0.4936(2) 0.9325(5)
C19B C -0.4569(9) 0.5099(3) 0.8048(7)
H15B H -0.5417 0.5305 0.7848
C17B C 0.3135(10) 0.5593(3) 0.2330(7)
H13B H 0.2972 0.5874 0.2795
C18B C 0.4385(10) 0.5302(3) 0.2617(7)
H14B H 0.5113 0.5383 0.3278
O1 O 0.4472(10) 0.6830(3) 0.2956(6)
C20 C 0.5338(16) 0.6681(4) 0.1947(11)
H16 H 0.4648 0.6634 0.1191
H17 H 0.5876 0.6378 0.2150
C21 C 0.650(2) 0.7071(5) 0.1738(15)
H18 H 0.7549 0.6972 0.2042
H19 H 0.6510 0.7149 0.0842
C22 C 0.5999(19) 0.7472(5) 0.2425(19)
H20 H 0.5311 0.7679 0.1894
H21 H 0.6895 0.7662 0.2754
C23 C 0.516(2) 0.7267(5) 0.3454(13)
H22 H 0.5874 0.7199 0.4183
H23 H 0.4345 0.7488 0.3710
O2 O 0.1743(11) 0.6898(3) 0.9892(8)
C24 C 0.089(2) 0.7095(5) 0.8876(11)
H24 H 0.0065 0.6872 0.8580
H25 H 0.1574 0.7151 0.8187
C25 C 0.021(3) 0.7542(8) 0.9252(14)
H26 H 0.0678 0.7812 0.8818
H27 H -0.0915 0.7542 0.9044
C26 C 0.052(2) 0.7583(5) 1.0548(11)
H28 H -0.0461 0.7597 1.0972
H29 H 0.1112 0.7877 1.0746
C27 C 0.140(3) 0.7174(6) 1.0951(14)
H30 H 0.2367 0.7275 1.1407
H31 H 0.0796 0.6981 1.1519
loop_
_geom_bond_atom_site_label_1
_geom_bond_atom_site_label_2
_geom_bond_site_symmetry_1
_geom_bond_site_symmetry_2
C1 H1 1_555 1_555
H2 C1 1_555 1_555
S1 C1 1_555 1_555
C2 S1 1_555 1_555
C3 C2 1_555 1_555
H3 C3 1_555 1_555
C4 C3 1_555 1_555
H4 C4 1_555 1_555
C5 C4 1_555 1_555
H5 C5 1_555 1_555
C6 C5 1_555 1_555
H6 C6 1_555 1_555
C7 C2 1_555 1_555
S2 C7 1_555 1_555
S3 S2 1_555 1_555
C8 S3 1_555 1_555
C9 C8 1_555 1_555
H7 C9 1_555 1_555
C10 C9 1_555 1_555
H8 C10 1_555 1_555
C11 C10 1_555 1_555
H9 C11 1_555 1_555
C12 C11 1_555 1_555
H10 C12 1_555 1_555
C13 C8 1_555 1_555
S4 C13 1_555 1_555
C14 S4 1_555 1_555
H11 C14 1_555 1_555
H12 C14 1_555 1_555
C15 C14 1_555 1_555
N1 C15 1_555 1_555
C16 C1 1_555 1_555
C17 C16 1_555 1_555
H13 C17 1_555 1_555
C18 C17 1_555 1_555
H14 C18 1_555 1_555
C19 C15 1_555 1_555
H15 C19 1_555 1_555
O1 C20 1_555 1_555
C20 H16 1_555 1_555
H17 C20 1_555 1_555
C21 C20 1_555 1_555
H18 C21 1_555 1_555
H19 C21 1_555 1_555
C22 C21 1_555 1_555
H20 C22 1_555 1_555
H21 C22 1_555 1_555
C23 O1 1_555 1_555
H22 C23 1_555 1_555
H23 C23 1_555 1_555
O2 C24 1_555 1_555
C24 H24 1_555 1_555
H25 C24 1_555 1_555
C25 C24 1_555 1_555
H26 C25 1_555 1_555
H27 C25 1_555 1_555
C26 C25 1_555 1_555
H28 C26 1_555 1_555
H29 C26 1_555 1_555
C27 O2 1_555 1_555
H30 C27 1_555 1_555
H31 C27 1_555 1_555
C16B N1 1_555 1_555
C1B C16B 1_555 1_555
H1B C1B 1_555 1_555
H2B C1B 1_555 1_555
S1B C1B 1_555 1_555
C2B S1B 1_555 1_555
C3B C2B 1_555 1_555
H3B C3B 1_555 1_555
C4B C3B 1_555 1_555
H4B C4B 1_555 1_555
C5B C4B 1_555 1_555
H5B C5B 1_555 1_555
C6B C5B 1_555 1_555
H6B C6B 1_555 1_555
C7B C2B 1_555 1_555
S2B C7B 1_555 1_555
S3B S2B 1_555 1_555
C8B S3B 1_555 1_555
C9B C8B 1_555 1_555
H7B C9B 1_555 1_555
C10B C9B 1_555 1_555
H8B C10B 1_555 1_555
C11B C10B 1_555 1_555
H9B C11B 1_555 1_555
C12B C11B 1_555 1_555
H10B C12B 1_555 1_555
C13B C8B 1_555 1_555
S4B C13B 1_555 1_555
C14B S4B 1_555 1_555
H11B C14B 1_555 1_555
H12B C14B 1_555 1_555
C15B C14B 1_555 1_555
N1B C16 1_555 1_555
C19B C18 1_555 1_555
H15B C19B 1_555 1_555
C17B C16B 1_555 1_555
H13B C17B 1_555 1_555
C18B C19 1_555 1_555
H14B C18B 1_555 1_555
C6 C7 1_555 1_555
C12 C13 1_555 1_555
C22 C23 1_555 1_555
C26 C27 1_555 1_555
C6B C7B 1_555 1_555
C12B C13B 1_555 1_555
C15B N1B 1_555 1_555
C15B C19B 1_555 1_555
C17B C18B 1_555 1_555

#END
