
#######################################################################
#
#                 Cambridge Crystallographic Data Centre
#                                CCDC 
#
#######################################################################
#
# If this CIF has been generated from an entry in the Cambridge 
# Structural Database, then it will include bibliographic, chemical, 
# crystal, experimental, refinement or atomic coordinate data resulting 
# from the CCDC's data processing and validation procedures.
#
#######################################################################

data_TABSUN
_chemical_formula_moiety         'C28 H41 N2 O1 P1,C1 H1 Cl3'
_chemical_name_systematic        
'1,3-bis(2,6-diisopropylphenyl)-4,5-dimethyl-2,3-dihydro-1H-1,3,2-diazaphosphole 2-oxide chloroform solvate'
_symmetry_cell_setting           monoclinic
_symmetry_space_group_name_H-M   'C 2/c'
_symmetry_Int_Tables_number      15
_space_group_name_Hall           '-C 2yn'
loop_
_symmetry_equiv_pos_site_id
_symmetry_equiv_pos_as_xyz
1 x,y,z
2 -x,y,1/2-z
3 1/2+x,1/2+y,z
4 1/2-x,1/2+y,1/2-z
5 -x,-y,-z
6 x,-y,1/2+z
7 1/2-x,1/2-y,-z
8 1/2+x,1/2-y,1/2+z
_cell_length_a                   20.4601(5)
_cell_length_b                   11.1617(3)
_cell_length_c                   26.5179(8)
_cell_angle_alpha                90
_cell_angle_beta                 100.038(2)
_cell_angle_gamma                90
_cell_volume                     5963.18
_exptl_crystal_colour            red
_exptl_crystal_description       rectangle
_cell_formula_units_Z            8
loop_
_atom_site_label
_atom_site_type_symbol
_atom_site_fract_x
_atom_site_fract_y
_atom_site_fract_z
P1 P 0.25530(2) 0.65886(4) 0.122451(17)
N1 N 0.31788(7) 0.64406(13) 0.17086(6)
N2 N 0.27471(7) 0.53212(13) 0.09603(6)
C1 C 0.33701(8) 0.73338(16) 0.20995(7)
C2 C 0.33996(9) 0.34275(16) 0.11362(7)
H1 H 0.3749 0.3082 0.1395
H2 H 0.3551 0.3452 0.0806
H3 H 0.2999 0.2933 0.1106
C3 C 0.19850(8) 0.44700(15) 0.02305(7)
C4 C 0.22109(9) 0.47831(17) -0.06277(7)
H4 H 0.2079 0.4695 -0.0987
C5 C 0.25748(8) 0.50979(15) 0.04191(6)
C6 C 0.27993(9) 0.53639(16) -0.04340(7)
H5 H 0.3075 0.5649 -0.0662
C7 C 0.34817(8) 0.52826(15) 0.17164(7)
C8 C 0.36426(9) 0.61771(17) 0.02945(7)
H6 H 0.3693 0.6220 0.0676
C9 C 0.32484(8) 0.46644(15) 0.12906(7)
C10 C 0.29929(8) 0.55357(16) 0.00934(7)
C11 C 0.30752(9) 0.73211(17) 0.25382(7)
C12 C 0.39574(9) 0.48962(17) 0.21815(7)
H7 H 0.4119 0.4088 0.2128
H8 H 0.3732 0.4895 0.2479
H9 H 0.4333 0.5453 0.2243
C13 C 0.47010(10) 0.73128(19) 0.15512(9)
H10 H 0.4880 0.7358 0.1232
H11 H 0.4525 0.6507 0.1589
H12 H 0.5055 0.7484 0.1842
C14 C 0.40142(9) 0.90632(18) 0.24078(8)
H13 H 0.4334 0.9658 0.2369
C15 C 0.38414(9) 0.82092(17) 0.20222(7)
C16 C 0.18132(9) 0.43298(17) -0.02988(7)
H14 H 0.1416 0.3916 -0.0437
C17 C 0.15473(9) 0.39558(17) 0.05812(7)
H15 H 0.1777 0.4078 0.0942
C18 C 0.36369(10) 0.74604(17) 0.00898(8)
H16 H 0.3255 0.7893 0.0177
H17 H 0.3604 0.7442 -0.0283
H18 H 0.4048 0.7868 0.0244
C19 C 0.32658(10) 0.8203(2) 0.29100(8)
H19 H 0.3073 0.8211 0.3211
C20 C 0.42387(9) 0.54838(19) 0.01637(8)
H20 H 0.4237 0.4666 0.0298
H21 H 0.4651 0.5887 0.0318
H22 H 0.4209 0.5455 -0.0209
C21 C 0.25427(9) 0.64268(18) 0.26145(7)
H23 H 0.2484 0.5854 0.2320
C22 C 0.41420(9) 0.82346(18) 0.15370(8)
H24 H 0.3783 0.8011 0.1246
C23 C 0.43966(10) 0.94746(19) 0.14178(9)
H25 H 0.4038 1.0063 0.1405
H26 H 0.4546 0.9453 0.1086
H27 H 0.4769 0.9702 0.1686
C24 C 0.37294(10) 0.90617(19) 0.28449(8)
H28 H 0.3854 0.9654 0.3101
C25 C 0.14416(11) 0.26087(19) 0.04958(10)
H29 H 0.1873 0.2205 0.0538
H30 H 0.1198 0.2467 0.0149
H31 H 0.1186 0.2291 0.0746
C26 C 0.08827(11) 0.4599(2) 0.05155(10)
H32 H 0.0957 0.5460 0.0569
H33 H 0.0625 0.4291 0.0766
H34 H 0.0638 0.4459 0.0169
C27 C 0.27317(11) 0.5701(2) 0.31101(8)
H35 H 0.3155 0.5290 0.3108
H36 H 0.2385 0.5107 0.3133
H37 H 0.2776 0.6241 0.3405
C28 C 0.18854(10) 0.7087(2) 0.26041(9)
H38 H 0.1774 0.7538 0.2283
H39 H 0.1928 0.7642 0.2894
H40 H 0.1533 0.6506 0.2628
O1 O 0.18753(6) 0.67650(13) 0.13298(5)
H41 H 0.2693(10) 0.7473(19) 0.0948(9)
Cl1 Cl -0.00140(2) 0.72973(5) 0.07783(2)
Cl2 Cl 0.01826(3) 0.72815(5) 0.18877(2)
Cl3 Cl 0.05130(3) 0.93826(5) 0.13531(2)
C29 C 0.04890(10) 0.78067(18) 0.13465(8)
H42 H 0.0950 0.7495 0.1359
loop_
_geom_bond_atom_site_label_1
_geom_bond_atom_site_label_2
_geom_bond_site_symmetry_1
_geom_bond_site_symmetry_2
P1 N1 1_555 1_555
N1 C1 1_555 1_555
N2 P1 1_555 1_555
C1 C11 1_555 1_555
C2 H1 1_555 1_555
H2 C2 1_555 1_555
H3 C2 1_555 1_555
C3 C5 1_555 1_555
C4 H4 1_555 1_555
C5 N2 1_555 1_555
C6 C4 1_555 1_555
H5 C6 1_555 1_555
C7 N1 1_555 1_555
C8 H6 1_555 1_555
C9 N2 1_555 1_555
C10 C5 1_555 1_555
C11 C19 1_555 1_555
C12 C7 1_555 1_555
H7 C12 1_555 1_555
H8 C12 1_555 1_555
H9 C12 1_555 1_555
C13 H10 1_555 1_555
H11 C13 1_555 1_555
H12 C13 1_555 1_555
C14 H13 1_555 1_555
C15 C1 1_555 1_555
C16 C3 1_555 1_555
H14 C16 1_555 1_555
C17 C3 1_555 1_555
H15 C17 1_555 1_555
C18 C8 1_555 1_555
H16 C18 1_555 1_555
H17 C18 1_555 1_555
H18 C18 1_555 1_555
C19 H19 1_555 1_555
C20 C8 1_555 1_555
H20 C20 1_555 1_555
H21 C20 1_555 1_555
H22 C20 1_555 1_555
C21 C11 1_555 1_555
H23 C21 1_555 1_555
C22 C13 1_555 1_555
H24 C22 1_555 1_555
C23 C22 1_555 1_555
H25 C23 1_555 1_555
H26 C23 1_555 1_555
H27 C23 1_555 1_555
C24 C14 1_555 1_555
H28 C24 1_555 1_555
C25 C17 1_555 1_555
H29 C25 1_555 1_555
H30 C25 1_555 1_555
H31 C25 1_555 1_555
C26 C17 1_555 1_555
H32 C26 1_555 1_555
H33 C26 1_555 1_555
H34 C26 1_555 1_555
C27 C21 1_555 1_555
H35 C27 1_555 1_555
H36 C27 1_555 1_555
H37 C27 1_555 1_555
C28 C21 1_555 1_555
H38 C28 1_555 1_555
H39 C28 1_555 1_555
H40 C28 1_555 1_555
O1 P1 1_555 1_555
H41 P1 1_555 1_555
Cl1 C29 1_555 1_555
Cl2 C29 1_555 1_555
Cl3 C29 1_555 1_555
C29 H42 1_555 1_555
C2 C9 1_555 1_555
C4 C16 1_555 1_555
C6 C10 1_555 1_555
C7 C9 1_555 1_555
C8 C10 1_555 1_555
C14 C15 1_555 1_555
C15 C22 1_555 1_555
C19 C24 1_555 1_555

#END
