
#######################################################################
#
#                 Cambridge Crystallographic Data Centre
#                                CCDC 
#
#######################################################################
#
# If this CIF has been generated from an entry in the Cambridge 
# Structural Database, then it will include bibliographic, chemical, 
# crystal, experimental, refinement or atomic coordinate data resulting 
# from the CCDC's data processing and validation procedures.
#
#######################################################################

data_TABTOI
_chemical_formula_moiety         'C25 H22 F3 N3 O4'
_chemical_name_systematic        
3-(1-(morpholin-4-ylacetyl)-5-(2-(trifluoromethyl)phenyl)-4,5-dihydro-1H-pyrazol-3-yl)-2H-chromen-2-one
_chemical_properties_biological  'antiproliferative activity'
_symmetry_cell_setting           triclinic
_symmetry_space_group_name_H-M   'P -1'
_symmetry_Int_Tables_number      2
_space_group_name_Hall           '-P 1'
loop_
_symmetry_equiv_pos_site_id
_symmetry_equiv_pos_as_xyz
1 x,y,z
2 -x,-y,-z
_cell_length_a                   8.644(7)
_cell_length_b                   11.227(9)
_cell_length_c                   12.453(10)
_cell_angle_alpha                86.634(9)
_cell_angle_beta                 76.607(9)
_cell_angle_gamma                73.167(7)
_cell_volume                     1125.23
_exptl_crystal_colour            colorless
_exptl_crystal_description       block
_chemical_melting_point          '232-234 deg.C'
_cell_formula_units_Z            2
loop_
_atom_site_label
_atom_site_type_symbol
_atom_site_fract_x
_atom_site_fract_y
_atom_site_fract_z
C1 C 1.0865(6) 0.3569(4) -0.1030(4)
C2 C 1.3392(6) 0.3872(4) -0.2196(4)
C3 C 1.4235(6) 0.4001(4) -0.3255(4)
H1 H 1.3734 0.4048 -0.3847
C4 C 1.5857(6) 0.4059(4) -0.3419(4)
H2 H 1.6452 0.4141 -0.4130
C5 C 1.6598(6) 0.3995(4) -0.2538(4)
H3 H 1.7688 0.4028 -0.2660
C6 C 1.5738(6) 0.3884(4) -0.1493(4)
H4 H 1.6243 0.3852 -0.0904
C7 C 1.4100(5) 0.3818(4) -0.1290(4)
C8 C 1.3115(5) 0.3680(4) -0.0229(4)
H5 H 1.3553 0.3690 0.0385
C9 C 1.1590(5) 0.3536(4) -0.0065(4)
C10 C 1.0659(5) 0.3356(4) 0.1037(4)
C11 C 1.1309(6) 0.3388(4) 0.2055(4)
H6 H 1.1353 0.4218 0.2193
H7 H 1.2406 0.2810 0.1989
C12 C 1.0029(5) 0.2993(4) 0.2972(4)
H8 H 0.9600 0.3604 0.3577
C13 C 1.0726(5) 0.1705(4) 0.3400(4)
C14 C 1.1455(6) 0.1516(5) 0.4311(4)
C15 C 1.2164(7) 0.0293(6) 0.4625(5)
H9 H 1.2656 0.0164 0.5228
C16 C 1.2148(7) -0.0708(6) 0.4067(5)
H10 H 1.2621 -0.1509 0.4290
C17 C 1.1435(7) -0.0531(5) 0.3176(5)
H11 H 1.1427 -0.1209 0.2785
C18 C 1.0722(6) 0.0674(5) 0.2863(4)
H12 H 1.0222 0.0786 0.2264
C19 C 1.1513(7) 0.2556(6) 0.4938(5)
C20 C 0.7227(6) 0.2856(4) 0.2867(4)
C21 C 0.6145(6) 0.2748(4) 0.2106(4)
H13 H 0.4988 0.3013 0.2491
H14 H 0.6300 0.3287 0.1477
C22 C 0.6860(9) 0.1217(6) 0.0641(5)
C23 C 0.7299(9) -0.0110(6) 0.0340(5)
H15 H 0.6947 -0.0160 -0.0338
H16 H 0.8498 -0.0431 0.0175
C24 C 0.6390(10) -0.0622(6) 0.2130(6)
H17 H 0.7382 -0.1062 0.2383
H18 H 0.5517 -0.0976 0.2512
C25 C 0.5925(7) 0.0676(5) 0.2505(4)
H19 H 0.4724 0.0992 0.2685
H20 H 0.6304 0.0695 0.3177
F1 F 1.2395(7) 0.2213(5) 0.5713(4)
F2 F 1.0012(5) 0.3241(4) 0.5470(3)
F3 F 1.2153(4) 0.3392(4) 0.4328(3)
N1 N 0.9219(4) 0.3169(3) 0.1245(3)
N2 N 0.8728(4) 0.3027(3) 0.2370(3)
N3 N 0.6578(7) 0.1479(4) 0.1724(4)
O1 O 0.6671(6) -0.0883(4) 0.1085(4)
O2 O 1.1792(4) 0.3788(3) -0.2042(2)
O3 O 0.9531(4) 0.3450(4) -0.1027(3)
O4 O 0.6840(4) 0.2759(3) 0.3864(3)
loop_
_geom_bond_atom_site_label_1
_geom_bond_atom_site_label_2
_geom_bond_site_symmetry_1
_geom_bond_site_symmetry_2
C1 C9 1_555 1_555
C2 C3 1_555 1_555
C3 H1 1_555 1_555
C4 C3 1_555 1_555
H2 C4 1_555 1_555
C5 C4 1_555 1_555
H3 C5 1_555 1_555
C6 C5 1_555 1_555
H4 C6 1_555 1_555
C7 C2 1_555 1_555
C8 C7 1_555 1_555
H5 C8 1_555 1_555
C9 C8 1_555 1_555
C10 C9 1_555 1_555
C11 C10 1_555 1_555
H6 C11 1_555 1_555
H7 C11 1_555 1_555
C12 C11 1_555 1_555
H8 C12 1_555 1_555
C13 C12 1_555 1_555
C14 C13 1_555 1_555
C15 C14 1_555 1_555
H9 C15 1_555 1_555
C16 C15 1_555 1_555
H10 C16 1_555 1_555
C17 C16 1_555 1_555
H11 C17 1_555 1_555
C18 C13 1_555 1_555
H12 C18 1_555 1_555
C19 C14 1_555 1_555
C20 C21 1_555 1_555
C21 H13 1_555 1_555
H14 C21 1_555 1_555
C22 C23 1_555 1_555
C23 H15 1_555 1_555
H16 C23 1_555 1_555
C24 H17 1_555 1_555
H18 C24 1_555 1_555
C25 C24 1_555 1_555
H19 C25 1_555 1_555
H20 C25 1_555 1_555
F1 C19 1_555 1_555
F2 C19 1_555 1_555
F3 C19 1_555 1_555
N1 C10 1_555 1_555
N2 C12 1_555 1_555
N3 C21 1_555 1_555
O1 C23 1_555 1_555
O2 C1 1_555 1_555
O3 C1 1_555 1_555
O4 C20 1_555 1_555
C2 O2 1_555 1_555
C6 C7 1_555 1_555
C17 C18 1_555 1_555
C20 N2 1_555 1_555
C22 N3 1_555 1_555
C24 O1 1_555 1_555
C25 N3 1_555 1_555
N1 N2 1_555 1_555

#END
