
#######################################################################
#
#                 Cambridge Crystallographic Data Centre
#                                CCDC 
#
#######################################################################
#
# If this CIF has been generated from an entry in the Cambridge 
# Structural Database, then it will include bibliographic, chemical, 
# crystal, experimental, refinement or atomic coordinate data resulting 
# from the CCDC's data processing and validation procedures.
#
#######################################################################

data_TABVIE
_chemical_formula_moiety         'C24 H23 N3 O3 S1'
_chemical_name_systematic        
3-(5-phenyl-1-(thiomorpholin-4-ylacetyl)-4,5-dihydro-1H-pyrazol-3-yl)-2H-chromen-2-one
_chemical_properties_biological  'antiproliferative activity'
_symmetry_cell_setting           orthorhombic
_symmetry_space_group_name_H-M   'P b c a'
_symmetry_Int_Tables_number      61
_space_group_name_Hall           '-P 2ac 2ab'
loop_
_symmetry_equiv_pos_site_id
_symmetry_equiv_pos_as_xyz
1 x,y,z
2 1/2-x,-y,1/2+z
3 -x,1/2+y,1/2-z
4 1/2+x,1/2-y,-z
5 -x,-y,-z
6 1/2+x,y,1/2-z
7 x,1/2-y,1/2+z
8 1/2-x,1/2+y,z
_cell_length_a                   9.823(3)
_cell_length_b                   19.365(5)
_cell_length_c                   22.469(6)
_cell_angle_alpha                90
_cell_angle_beta                 90
_cell_angle_gamma                90
_cell_volume                     4274.11
_exptl_crystal_colour            yellow
_exptl_crystal_description       block
_chemical_melting_point          '215-216 deg.C'
_cell_formula_units_Z            8
loop_
_atom_site_label
_atom_site_type_symbol
_atom_site_fract_x
_atom_site_fract_y
_atom_site_fract_z
C1 C 1.0324(3) 0.64311(15) 0.03500(14)
C2 C 1.1168(4) 0.69577(17) 0.01623(16)
H1 H 1.0820 0.7333 -0.0046
C3 C 1.2526(4) 0.69150(19) 0.02897(17)
H2 H 1.3106 0.7267 0.0169
C4 C 1.3050(4) 0.63562(19) 0.05957(17)
H3 H 1.3976 0.6335 0.0680
C5 C 1.2205(3) 0.58341(18) 0.07747(15)
H4 H 1.2561 0.5458 0.0979
C6 C 1.0818(3) 0.58628(15) 0.06523(13)
C7 C 0.9861(3) 0.53412(16) 0.08137(13)
H5 H 1.0174 0.4949 0.1010
C8 C 0.8525(3) 0.53937(15) 0.06936(12)
C9 C 0.8018(3) 0.60192(16) 0.04046(13)
C10 C 0.7555(3) 0.48443(16) 0.08358(12)
C11 C 0.6100(3) 0.47961(18) 0.06341(14)
H6 H 0.6036 0.4817 0.0204
H7 H 0.5555 0.5164 0.0804
C12 C 0.5645(3) 0.40896(17) 0.08681(14)
H8 H 0.5479 0.3778 0.0532
C13 C 0.7072(3) 0.32043(17) 0.13803(14)
C14 C 0.8404(3) 0.30685(16) 0.16934(15)
H9 H 0.9125 0.3031 0.1400
H10 H 0.8615 0.3455 0.1952
C15 C 0.8509(4) 0.18405(19) 0.16837(17)
H11 H 0.9436 0.1819 0.1536
H12 H 0.7904 0.1874 0.1344
C16 C 0.8193(4) 0.11868(19) 0.2025(2)
H13 H 0.8250 0.0796 0.1756
H14 H 0.7266 0.1211 0.2173
C17 C 0.9091(5) 0.18798(18) 0.29595(17)
H15 H 0.8173 0.1913 0.3116
H16 H 0.9717 0.1928 0.3291
C18 C 0.9322(4) 0.24594(17) 0.25310(16)
H17 H 0.9237 0.2896 0.2739
H18 H 1.0239 0.2429 0.2373
C19 C 0.4408(3) 0.41061(16) 0.12646(13)
C20 C 0.4368(4) 0.45078(17) 0.17697(15)
H19 H 0.5124 0.4769 0.1875
C21 C 0.3221(4) 0.4526(2) 0.21193(18)
H20 H 0.3201 0.4801 0.2459
C22 C 0.2119(4) 0.4143(3) 0.1969(2)
H21 H 0.1340 0.4157 0.2204
C23 C 0.2151(4) 0.3739(2) 0.1474(2)
H22 H 0.1394 0.3475 0.1373
C24 C 0.3290(3) 0.37181(19) 0.11261(16)
H23 H 0.3306 0.3437 0.0791
N1 N 0.7947(2) 0.43266(13) 0.11493(11)
N2 N 0.6879(2) 0.38663(13) 0.11913(12)
N3 N 0.8356(2) 0.24392(12) 0.20450(12)
O1 O 0.8965(2) 0.64927(11) 0.02237(10)
O2 O 0.6845(2) 0.61553(12) 0.03095(11)
O3 O 0.6175(2) 0.27858(12) 0.12985(11)
S1 S 0.93166(12) 0.10507(5) 0.26324(6)
loop_
_geom_bond_atom_site_label_1
_geom_bond_atom_site_label_2
_geom_bond_site_symmetry_1
_geom_bond_site_symmetry_2
C1 C2 1_555 1_555
C2 H1 1_555 1_555
C3 C2 1_555 1_555
H2 C3 1_555 1_555
C4 C3 1_555 1_555
H3 C4 1_555 1_555
C5 C4 1_555 1_555
H4 C5 1_555 1_555
C6 C1 1_555 1_555
C7 C6 1_555 1_555
H5 C7 1_555 1_555
C8 C7 1_555 1_555
C9 C8 1_555 1_555
C10 C8 1_555 1_555
C11 C10 1_555 1_555
H6 C11 1_555 1_555
H7 C11 1_555 1_555
C12 C11 1_555 1_555
H8 C12 1_555 1_555
C13 C14 1_555 1_555
C14 H9 1_555 1_555
H10 C14 1_555 1_555
C15 H11 1_555 1_555
H12 C15 1_555 1_555
C16 C15 1_555 1_555
H13 C16 1_555 1_555
H14 C16 1_555 1_555
C17 H15 1_555 1_555
H16 C17 1_555 1_555
C18 C17 1_555 1_555
H17 C18 1_555 1_555
H18 C18 1_555 1_555
C19 C12 1_555 1_555
C20 C19 1_555 1_555
H19 C20 1_555 1_555
C21 C20 1_555 1_555
H20 C21 1_555 1_555
C22 C21 1_555 1_555
H21 C22 1_555 1_555
C23 C22 1_555 1_555
H22 C23 1_555 1_555
C24 C19 1_555 1_555
H23 C24 1_555 1_555
N1 C10 1_555 1_555
N2 C12 1_555 1_555
N3 C14 1_555 1_555
O1 C1 1_555 1_555
O2 C9 1_555 1_555
O3 C13 1_555 1_555
S1 C16 1_555 1_555
C5 C6 1_555 1_555
C9 O1 1_555 1_555
C13 N2 1_555 1_555
C15 N3 1_555 1_555
C17 S1 1_555 1_555
C18 N3 1_555 1_555
C23 C24 1_555 1_555
N1 N2 1_555 1_555

#END
