
#######################################################################
#
#                 Cambridge Crystallographic Data Centre
#                                CCDC 
#
#######################################################################
#
# If this CIF has been generated from an entry in the Cambridge 
# Structural Database, then it will include bibliographic, chemical, 
# crystal, experimental, refinement or atomic coordinate data resulting 
# from the CCDC's data processing and validation procedures.
#
#######################################################################

data_TABVOK
_chemical_formula_moiety         'C21 H30 N4 O4'
_chemical_name_systematic        
't-butyl 4-(2-(5-(2-hydroxyphenyl)-3-methyl-4,5-dihydro-1H-pyrazol-1-yl)-2-oxoethyl)piperazine-1-carboxylate'
_chemical_properties_biological  'antiproliferative activity'
_symmetry_cell_setting           monoclinic
_symmetry_space_group_name_H-M   'P 21/c'
_symmetry_Int_Tables_number      14
_space_group_name_Hall           '-P 2ybc'
loop_
_symmetry_equiv_pos_site_id
_symmetry_equiv_pos_as_xyz
1 x,y,z
2 -x,1/2+y,1/2-z
3 -x,-y,-z
4 x,1/2-y,1/2+z
_cell_length_a                   14.640(7)
_cell_length_b                   11.068(5)
_cell_length_c                   15.141(5)
_cell_angle_alpha                90
_cell_angle_beta                 119.70(3)
_cell_angle_gamma                90
_cell_volume                     2131.08
_exptl_crystal_colour            colorless
_exptl_crystal_description       block
_chemical_melting_point          '189-190 deg.C'
_cell_formula_units_Z            4
loop_
_atom_site_label
_atom_site_type_symbol
_atom_site_fract_x
_atom_site_fract_y
_atom_site_fract_z
O1 O -0.26696(14) -0.27041(19) -0.89691(13)
O2 O -0.19712(15) -0.62595(16) -0.45013(12)
O3 O -0.14358(13) -0.81997(15) -0.13940(12)
O4 O -0.42096(13) -0.33547(14) -0.91106(11)
N1 N -0.01719(15) -0.45210(17) -0.24130(14)
N2 N -0.08891(15) -0.54374(17) -0.29912(13)
N3 N -0.16509(14) -0.44673(17) -0.56011(13)
N4 N -0.27071(15) -0.36032(19) -0.76471(14)
C1 C -0.4761(3) -0.1481(3) -1.0091(2)
H1 H -0.4923 -0.1176 -0.9590
H2 H -0.5240 -0.1141 -1.0743
H3 H -0.4054 -0.1260 -0.9906
C2 C -0.5967(2) -0.3219(3) -1.0404(2)
H4 H -0.5997 -0.4083 -1.0365
H5 H -0.6459 -0.2958 -1.1081
H6 H -0.6143 -0.2857 -0.9932
C3 C -0.4584(2) -0.3405(3) -1.08820(18)
H7 H -0.4661 -0.4266 -1.0880
H8 H -0.3869 -0.3211 -1.0686
H9 H -0.5043 -0.3098 -1.1552
C4 C -0.48636(19) -0.2840(2) -1.01426(17)
C5 C -0.3165(2) -0.3178(2) -0.86173(18)
C6 C -0.27868(18) -0.4222(2) -0.61393(16)
H10 H -0.2910 -0.3405 -0.5991
H11 H -0.3132 -0.4774 -0.5899
C7 C -0.15637(19) -0.3710(3) -0.70823(17)
H12 H -0.1256 -0.3090 -0.7307
H13 H -0.1358 -0.4491 -0.7217
C8 C -0.32532(18) -0.4369(2) -0.72736(17)
H14 H -0.3198 -0.5207 -0.7429
H15 H -0.3993 -0.4155 -0.7614
C9 C -0.11567(19) -0.3576(2) -0.59557(17)
H16 H -0.0400 -0.3688 -0.5589
H17 H -0.1306 -0.2767 -0.5815
C10 C -0.11986(19) -0.4337(2) -0.44903(15)
H18 H -0.1501 -0.3631 -0.4353
H19 H -0.0447 -0.4207 -0.4179
C11 C -0.13961(19) -0.5427(2) -0.40150(17)
C12 C 0.01000(19) -0.6187(2) -0.13672(17)
H20 H 0.0010 -0.6250 -0.0776
H21 H 0.0639 -0.6750 -0.1298
C13 C -0.09351(18) -0.6410(2) -0.23487(16)
H22 H -0.0932 -0.7204 -0.2633
C14 C 0.03623(19) -0.4930(2) -0.15078(17)
C15 C 0.1234(2) -0.4228(3) -0.06698(19)
H23 H 0.1218 -0.3410 -0.0888
H24 H 0.1896 -0.4589 -0.0501
H25 H 0.1146 -0.4233 -0.0082
C16 C -0.3555(2) -0.6114(3) -0.18338(19)
H26 H -0.4120 -0.6060 -0.1717
C17 C -0.3337(2) -0.5167(3) -0.2290(2)
H27 H -0.3747 -0.4471 -0.2475
C18 C -0.2503(2) -0.5263(2) -0.24710(18)
H28 H -0.2359 -0.4626 -0.2785
C19 C -0.29434(19) -0.7140(3) -0.15477(17)
H29 H -0.3101 -0.7776 -0.1245
C20 C -0.20980(19) -0.7226(2) -0.17080(16)
C21 C -0.18758(18) -0.6282(2) -0.21968(16)
loop_
_geom_bond_atom_site_label_1
_geom_bond_atom_site_label_2
_geom_bond_site_symmetry_1
_geom_bond_site_symmetry_2
O1 C5 1_555 1_555
O2 C11 1_555 1_555
O3 C20 1_555 1_555
O4 C4 1_555 1_555
N1 N2 1_555 1_555
N2 C11 1_555 1_555
N3 C6 1_555 1_555
N4 C5 1_555 1_555
C1 H1 1_555 1_555
H2 C1 1_555 1_555
H3 C1 1_555 1_555
C2 H4 1_555 1_555
H5 C2 1_555 1_555
H6 C2 1_555 1_555
C3 H7 1_555 1_555
H8 C3 1_555 1_555
H9 C3 1_555 1_555
C4 C1 1_555 1_555
C5 O4 1_555 1_555
C6 H10 1_555 1_555
H11 C6 1_555 1_555
C7 N4 1_555 1_555
H12 C7 1_555 1_555
H13 C7 1_555 1_555
C8 N4 1_555 1_555
H14 C8 1_555 1_555
H15 C8 1_555 1_555
C9 N3 1_555 1_555
H16 C9 1_555 1_555
H17 C9 1_555 1_555
C10 N3 1_555 1_555
H18 C10 1_555 1_555
H19 C10 1_555 1_555
C11 C10 1_555 1_555
C12 H20 1_555 1_555
H21 C12 1_555 1_555
C13 N2 1_555 1_555
H22 C13 1_555 1_555
C14 N1 1_555 1_555
C15 C14 1_555 1_555
H23 C15 1_555 1_555
H24 C15 1_555 1_555
H25 C15 1_555 1_555
C16 H26 1_555 1_555
C17 C16 1_555 1_555
H27 C17 1_555 1_555
C18 C17 1_555 1_555
H28 C18 1_555 1_555
C19 C16 1_555 1_555
H29 C19 1_555 1_555
C20 C19 1_555 1_555
C21 C13 1_555 1_555
C2 C4 1_555 1_555
C3 C4 1_555 1_555
C6 C8 1_555 1_555
C7 C9 1_555 1_555
C12 C13 1_555 1_555
C12 C14 1_555 1_555
C18 C21 1_555 1_555
C20 C21 1_555 1_555

#END
