
#######################################################################
#
#                 Cambridge Crystallographic Data Centre
#                                CCDC 
#
#######################################################################
#
# If this CIF has been generated from an entry in the Cambridge 
# Structural Database, then it will include bibliographic, chemical, 
# crystal, experimental, refinement or atomic coordinate data resulting 
# from the CCDC's data processing and validation procedures.
#
#######################################################################

data_TABVEA
_chemical_formula_moiety         'C16 H21 N3 O2 S1'
_chemical_name_systematic        
1-(5-(2-hydroxyphenyl)-3-methyl-4,5-dihydro-1H-pyrazol-1-yl)-2-(thiomorpholin-4-yl)ethanone
_chemical_properties_biological  'antiproliferative activity'
_symmetry_cell_setting           monoclinic
_symmetry_space_group_name_H-M   'P 21'
_symmetry_Int_Tables_number      4
_space_group_name_Hall           'P 2yb'
loop_
_symmetry_equiv_pos_site_id
_symmetry_equiv_pos_as_xyz
1 x,y,z
2 -x,1/2+y,-z
_cell_length_a                   7.306(8)
_cell_length_b                   11.030(12)
_cell_length_c                   10.145(11)
_cell_angle_alpha                90
_cell_angle_beta                 94.146(9)
_cell_angle_gamma                90
_cell_volume                     815.397
_exptl_crystal_colour            colorless
_exptl_crystal_description       block
_chemical_melting_point          '177-178 deg.C'
_cell_formula_units_Z            2
loop_
_atom_site_label
_atom_site_type_symbol
_atom_site_fract_x
_atom_site_fract_y
_atom_site_fract_z
C1 C 0.8885(3) 0.2258(2) 0.2449(3)
H1 H 0.8097 0.2361 0.1646
H2 H 0.8124 0.1998 0.3141
C2 C 1.0283(4) 0.1288(2) 0.2230(2)
H3 H 1.1077 0.1559 0.1562
H4 H 0.9658 0.0560 0.1905
C3 C 1.2427(4) 0.2458(3) 0.4046(3)
H5 H 1.3153 0.2479 0.4884
H6 H 1.3212 0.2702 0.3362
C4 C 1.0865(3) 0.3352(3) 0.4087(2)
H7 H 1.0091 0.3117 0.4781
H8 H 1.1362 0.4149 0.4304
C5 C 0.8311(3) 0.4337(3) 0.2943(2)
H9 H 0.8838 0.5031 0.3419
H10 H 0.7357 0.4005 0.3454
C6 C 0.7463(3) 0.4752(2) 0.1608(2)
C7 C 0.4903(3) 0.5957(3) 0.0473(2)
H11 H 0.5730 0.6444 -0.0032
C8 C 0.3585(3) 0.6808(2) 0.1145(2)
H12 H 0.3834 0.7651 0.0948
H13 H 0.2317 0.6627 0.0866
C9 C 0.3985(3) 0.6547(3) 0.2576(2)
C10 C 0.3981(3) 0.5016(2) -0.0423(2)
C11 C 0.4363(3) 0.4944(3) -0.1736(2)
H14 H 0.5253 0.5451 -0.2048
C12 C 0.3453(4) 0.4139(3) -0.2593(3)
H15 H 0.3719 0.4109 -0.3475
C13 C 0.2159(4) 0.3384(3) -0.2135(3)
H16 H 0.1546 0.2837 -0.2708
C14 C 0.1752(3) 0.3429(3) -0.0823(3)
H17 H 0.0868 0.2913 -0.0518
C15 C 0.2659(3) 0.4239(2) 0.0032(2)
C16 C 0.2917(4) 0.7082(3) 0.3635(3)
H18 H 0.3408 0.6796 0.4482
H19 H 0.1654 0.6843 0.3497
H20 H 0.3004 0.7950 0.3607
N1 N 0.9730(2) 0.34248(19) 0.28202(18)
N2 N 0.5957(3) 0.54396(18) 0.16491(19)
N3 N 0.5304(3) 0.5803(2) 0.28518(18)
O1 O 0.8092(2) 0.44950(18) 0.05610(16)
O2 O 0.2364(2) 0.43191(18) 0.13329(16)
H21 H 0.1399 0.3977 0.1469
S1 S 1.16539(11) 0.09411(7) 0.37287(7)
loop_
_geom_bond_atom_site_label_1
_geom_bond_atom_site_label_2
_geom_bond_site_symmetry_1
_geom_bond_site_symmetry_2
C1 H1 1_555 1_555
H2 C1 1_555 1_555
C2 C1 1_555 1_555
H3 C2 1_555 1_555
H4 C2 1_555 1_555
C3 H5 1_555 1_555
H6 C3 1_555 1_555
C4 C3 1_555 1_555
H7 C4 1_555 1_555
H8 C4 1_555 1_555
C5 H9 1_555 1_555
H10 C5 1_555 1_555
C6 C5 1_555 1_555
C7 H11 1_555 1_555
C8 C7 1_555 1_555
H12 C8 1_555 1_555
H13 C8 1_555 1_555
C9 C8 1_555 1_555
C10 C7 1_555 1_555
C11 C10 1_555 1_555
H14 C11 1_555 1_555
C12 C11 1_555 1_555
H15 C12 1_555 1_555
C13 C12 1_555 1_555
H16 C13 1_555 1_555
C14 C13 1_555 1_555
H17 C14 1_555 1_555
C15 C10 1_555 1_555
C16 C9 1_555 1_555
H18 C16 1_555 1_555
H19 C16 1_555 1_555
H20 C16 1_555 1_555
N1 C1 1_555 1_555
N2 C6 1_555 1_555
N3 C9 1_555 1_555
O1 C6 1_555 1_555
O2 C15 1_555 1_555
H21 O2 1_555 1_555
S1 C2 1_555 1_555
C3 S1 1_555 1_555
C4 N1 1_555 1_555
C5 N1 1_555 1_555
C7 N2 1_555 1_555
C14 C15 1_555 1_555
N2 N3 1_555 1_555

#END
