
#######################################################################
#
#                 Cambridge Crystallographic Data Centre
#                                CCDC 
#
#######################################################################
#
# If this CIF has been generated from an entry in the Cambridge 
# Structural Database, then it will include bibliographic, chemical, 
# crystal, experimental, refinement or atomic coordinate data resulting 
# from the CCDC's data processing and validation procedures.
#
#######################################################################

data_TABWEB
_chemical_formula_moiety         'C18 H16 Br2 N2 O2'
_chemical_name_systematic        
(5-(3,5-dibromo-2-hydroxyphenyl)-3-methyl-4,5-dihydro-1H-pyrazol-1-yl)(4-methylphenyl)methanone
_chemical_properties_biological  'antiproliferative activity'
_symmetry_cell_setting           monoclinic
_symmetry_space_group_name_H-M   'P 21/c'
_symmetry_Int_Tables_number      14
_space_group_name_Hall           '-P 2ybc'
loop_
_symmetry_equiv_pos_site_id
_symmetry_equiv_pos_as_xyz
1 x,y,z
2 -x,1/2+y,1/2-z
3 -x,-y,-z
4 x,1/2-y,1/2+z
_cell_length_a                   11.491(9)
_cell_length_b                   14.208(11)
_cell_length_c                   22.132(16)
_cell_angle_alpha                90
_cell_angle_beta                 90.654(8)
_cell_angle_gamma                90
_cell_volume                     3613.13
_exptl_crystal_colour            colorless
_exptl_crystal_description       block
_chemical_melting_point          '164-165 deg.C'
_cell_formula_units_Z            8
loop_
_atom_site_label
_atom_site_type_symbol
_atom_site_fract_x
_atom_site_fract_y
_atom_site_fract_z
Br1 Br 0.31673(6) 0.12313(4) 0.06958(3)
Br2 Br -0.11492(7) -0.06011(6) 0.08807(4)
C1 C -0.3326(5) 0.0350(4) 0.4037(3)
H1 H -0.4050 0.0626 0.4097
O1 O 0.2242(4) 0.2231(3) 0.18713(19)
N1 N -0.0657(4) 0.1625(3) 0.28776(18)
N2 N -0.1495(4) 0.2302(3) 0.3015(2)
O2 O 0.0351(3) 0.0327(2) 0.30824(16)
C2 C -0.1455(5) 0.0418(4) 0.3579(2)
C3 C 0.0271(4) 0.2015(3) 0.2490(2)
H2 H 0.0998 0.2061 0.2724
C4 C 0.1526(5) 0.1587(4) 0.1627(2)
C5 C -0.1211(5) -0.0426(3) 0.3850(2)
H3 H -0.0481 -0.0694 0.3798
C6 C 0.1736(5) 0.1071(4) 0.1104(2)
C7 C -0.0084(6) 0.0309(4) 0.1176(3)
C8 C 0.0477(5) 0.1442(3) 0.1921(2)
C9 C -0.0334(5) 0.0825(4) 0.1689(3)
H4 H -0.1049 0.0754 0.1877
C10 C -0.0532(5) 0.0804(4) 0.3176(2)
C11 C -0.0203(5) 0.3007(3) 0.2363(3)
H5 H 0.0362 0.3484 0.2476
H6 H -0.0407 0.3083 0.1939
C12 C -0.3089(5) -0.0516(4) 0.4309(2)
C13 C -0.1245(4) 0.3064(4) 0.2744(3)
C14 C -0.1955(5) 0.3924(4) 0.2794(3)
H7 H -0.2579 0.3815 0.3071
H8 H -0.2271 0.4084 0.2404
H9 H -0.1478 0.4431 0.2941
C15 C 0.0938(6) 0.0425(4) 0.0881(3)
H10 H 0.1097 0.0078 0.0535
C16 C -0.2536(5) 0.0807(4) 0.3687(3)
H11 H -0.2727 0.1387 0.3519
C17 C -0.3994(5) -0.1011(4) 0.4671(3)
H12 H -0.4680 -0.0627 0.4690
H13 H -0.3700 -0.1123 0.5072
H14 H -0.4183 -0.1601 0.4483
C18 C -0.2018(5) -0.0891(4) 0.4200(2)
H15 H -0.1826 -0.1474 0.4365
H16 H 0.280(4) 0.232(4) 0.176(2)
Br3 Br 0.15585(5) 0.16565(5) 0.41662(3)
Br4 Br 0.56528(7) 0.37720(5) 0.40132(3)
O3 O 0.2652(3) 0.0641(2) 0.30459(15)
H17 H 0.1961 0.0720 0.3120
N3 N 0.5578(3) 0.1342(3) 0.20718(18)
O4 O 0.4590(3) 0.2608(2) 0.17548(16)
C19 C 0.6260(4) -0.0014(4) 0.2348(2)
N4 N 0.6550(4) 0.0730(3) 0.20666(19)
C20 C 0.3284(4) 0.1373(3) 0.3274(2)
C21 C 0.5463(5) 0.2111(4) 0.1721(2)
C22 C 0.4325(4) 0.1562(3) 0.2988(2)
C23 C 0.6418(4) 0.2346(4) 0.1298(2)
C24 C 0.5070(4) -0.0028(3) 0.2599(2)
H18 H 0.5089 -0.0126 0.3033
H19 H 0.4597 -0.0515 0.2411
C25 C 0.4614(4) 0.0966(3) 0.2436(2)
H20 H 0.3917 0.0906 0.2180
C26 C 0.7080(4) -0.0823(3) 0.2423(2)
H21 H 0.7802 -0.0679 0.2230
H22 H 0.6745 -0.1376 0.2243
H23 H 0.7220 -0.0934 0.2846
C27 C 0.3681(5) 0.2607(4) 0.3989(2)
H24 H 0.3463 0.2957 0.4324
C28 C 0.5040(5) 0.2265(3) 0.3212(2)
H25 H 0.5750 0.2385 0.3030
C29 C 0.4705(5) 0.2787(4) 0.3705(3)
C30 C 0.2978(4) 0.1898(4) 0.3772(2)
C31 C 0.8099(5) 0.2914(5) 0.0463(3)
C32 C 0.6756(5) 0.3268(4) 0.1239(3)
H26 H 0.6402 0.3723 0.1477
C33 C 0.7602(6) 0.3542(5) 0.0839(3)
H27 H 0.7834 0.4169 0.0827
C34 C 0.6926(5) 0.1701(5) 0.0923(3)
H28 H 0.6717 0.1069 0.0948
C35 C 0.7756(6) 0.1987(5) 0.0506(3)
H29 H 0.8085 0.1542 0.0251
C36 C 0.9044(5) 0.3181(6) 0.0019(3)
H30 H 0.9173 0.3848 0.0035
H31 H 0.8803 0.3006 -0.0383
H32 H 0.9752 0.2858 0.0123
loop_
_geom_bond_atom_site_label_1
_geom_bond_atom_site_label_2
_geom_bond_site_symmetry_1
_geom_bond_site_symmetry_2
Br1 C6 1_555 1_555
Br2 C7 1_555 1_555
C1 H1 1_555 1_555
O1 C4 1_555 1_555
N1 N2 1_555 1_555
N2 C13 1_555 1_555
O2 C10 1_555 1_555
C2 C5 1_555 1_555
C3 N1 1_555 1_555
H2 C3 1_555 1_555
C4 C6 1_555 1_555
C5 H3 1_555 1_555
C6 C15 1_555 1_555
C7 C9 1_555 1_555
C8 C3 1_555 1_555
C9 C8 1_555 1_555
H4 C9 1_555 1_555
C10 N1 1_555 1_555
C11 C3 1_555 1_555
H5 C11 1_555 1_555
H6 C11 1_555 1_555
C12 C1 1_555 1_555
C13 C11 1_555 1_555
C14 C13 1_555 1_555
H7 C14 1_555 1_555
H8 C14 1_555 1_555
H9 C14 1_555 1_555
C15 C7 1_555 1_555
H10 C15 1_555 1_555
C16 C1 1_555 1_555
H11 C16 1_555 1_555
C17 C12 1_555 1_555
H12 C17 1_555 1_555
H13 C17 1_555 1_555
H14 C17 1_555 1_555
C18 C5 1_555 1_555
H15 C18 1_555 1_555
H16 O1 1_555 1_555
Br3 C30 1_555 1_555
Br4 C29 1_555 1_555
O3 H17 1_555 1_555
N3 N4 1_555 1_555
O4 C21 1_555 1_555
C19 N4 1_555 1_555
C20 O3 1_555 1_555
C21 N3 1_555 1_555
C22 C20 1_555 1_555
C23 C21 1_555 1_555
C24 C19 1_555 1_555
H18 C24 1_555 1_555
H19 C24 1_555 1_555
C25 N3 1_555 1_555
H20 C25 1_555 1_555
C26 C19 1_555 1_555
H21 C26 1_555 1_555
H22 C26 1_555 1_555
H23 C26 1_555 1_555
C27 H24 1_555 1_555
C28 C22 1_555 1_555
H25 C28 1_555 1_555
C29 C27 1_555 1_555
C30 C20 1_555 1_555
C31 C33 1_555 1_555
C32 C23 1_555 1_555
H26 C32 1_555 1_555
C33 C32 1_555 1_555
H27 C33 1_555 1_555
C34 C23 1_555 1_555
H28 C34 1_555 1_555
C35 C31 1_555 1_555
H29 C35 1_555 1_555
C36 C31 1_555 1_555
H30 C36 1_555 1_555
H31 C36 1_555 1_555
H32 C36 1_555 1_555
C2 C10 1_555 1_555
C2 C16 1_555 1_555
C4 C8 1_555 1_555
C12 C18 1_555 1_555
C22 C25 1_555 1_555
C24 C25 1_555 1_555
C27 C30 1_555 1_555
C28 C29 1_555 1_555
C34 C35 1_555 1_555

#END
