
#######################################################################
#
#                 Cambridge Crystallographic Data Centre
#                                CCDC 
#
#######################################################################
#
# If this CIF has been generated from an entry in the Cambridge 
# Structural Database, then it will include bibliographic, chemical, 
# crystal, experimental, refinement or atomic coordinate data resulting 
# from the CCDC's data processing and validation procedures.
#
#######################################################################

data_TABXIG
_chemical_formula_moiety         'C18 H17 Br1 N2 O2'
_chemical_name_systematic        
(5-(5-bromo-2-hydroxyphenyl)-3-methyl-4,5-dihydro-1H-pyrazol-1-yl)(4-methylphenyl)methanone
_chemical_properties_biological  'antiproliferative activity'
_symmetry_cell_setting           monoclinic
_symmetry_space_group_name_H-M   'C 2/c'
_symmetry_Int_Tables_number      15
_space_group_name_Hall           '-C 2yn'
loop_
_symmetry_equiv_pos_site_id
_symmetry_equiv_pos_as_xyz
1 x,y,z
2 -x,y,1/2-z
3 1/2+x,1/2+y,z
4 1/2-x,1/2+y,1/2-z
5 -x,-y,-z
6 x,-y,1/2+z
7 1/2-x,1/2-y,-z
8 1/2+x,1/2-y,1/2+z
_cell_length_a                   25.457(16)
_cell_length_b                   10.870(7)
_cell_length_c                   13.026(8)
_cell_angle_alpha                90
_cell_angle_beta                 107.087(6)
_cell_angle_gamma                90
_cell_volume                     3445.42
_exptl_crystal_colour            colorless
_exptl_crystal_description       block
_chemical_melting_point          '208-210 deg.C'
_cell_formula_units_Z            8
loop_
_atom_site_label
_atom_site_type_symbol
_atom_site_fract_x
_atom_site_fract_y
_atom_site_fract_z
Br1 Br 0.04533(3) 0.05225(7) 0.17388(7)
O1 O 0.27030(14) 0.1057(3) 0.4391(2)
O2 O 0.26783(14) 0.0365(3) 0.1027(3)
H1 H 0.2673 -0.0081 0.0517
N1 N 0.30236(15) 0.1647(3) 0.3050(3)
C1 C 0.3600(2) 0.0356(4) 0.4444(4)
C2 C 0.2175(2) 0.0371(4) 0.1185(4)
N2 N 0.34715(16) 0.1923(3) 0.2665(3)
C3 C 0.3084(2) 0.1050(4) 0.3975(4)
C4 C 0.24996(19) 0.2218(4) 0.2406(3)
H2 H 0.2353 0.2744 0.2869
C5 C 0.20769(19) 0.1261(4) 0.1873(4)
C6 C 0.1158(2) 0.0442(6) 0.1522(5)
C7 C 0.3298(2) 0.2672(4) 0.1883(4)
C8 C 0.1265(2) -0.0439(5) 0.0859(5)
H3 H 0.0996 -0.1005 0.0523
C9 C 0.1771(2) -0.0480(5) 0.0692(4)
H4 H 0.1846 -0.1081 0.0247
C10 C 0.3865(2) 0.0410(5) 0.5550(4)
H5 H 0.3728 0.0916 0.5986
C11 C 0.2707(2) 0.3020(4) 0.1637(4)
H6 H 0.2509 0.2840 0.0894
H7 H 0.2668 0.3887 0.1772
C12 C 0.3814(2) -0.0412(4) 0.3832(4)
H8 H 0.3646 -0.0458 0.3096
C13 C 0.1559(2) 0.1279(5) 0.2034(4)
H9 H 0.1482 0.1861 0.2493
C14 C 0.4275(2) -0.1115(5) 0.4288(5)
H10 H 0.4410 -0.1636 0.3857
C15 C 0.3670(2) 0.3147(5) 0.1285(4)
H11 H 0.4031 0.2806 0.1585
H12 H 0.3689 0.4027 0.1340
H13 H 0.3531 0.2914 0.0543
C16 C 0.4541(2) -0.1055(5) 0.5382(5)
C17 C 0.4326(2) -0.0281(6) 0.5991(5)
H14 H 0.4500 -0.0225 0.6725
C18 C 0.5042(2) -0.1858(6) 0.5864(6)
H15 H 0.5179 -0.1707 0.6623
H16 H 0.5323 -0.1665 0.5533
H17 H 0.4942 -0.2709 0.5742
loop_
_geom_bond_atom_site_label_1
_geom_bond_atom_site_label_2
_geom_bond_site_symmetry_1
_geom_bond_site_symmetry_2
Br1 C6 1_555 1_555
O1 C3 1_555 1_555
O2 H1 1_555 1_555
N1 N2 1_555 1_555
C1 C3 1_555 1_555
C2 O2 1_555 1_555
N2 C7 1_555 1_555
C3 N1 1_555 1_555
C4 N1 1_555 1_555
H2 C4 1_555 1_555
C5 C2 1_555 1_555
C6 C8 1_555 1_555
C7 C11 1_555 1_555
C8 H3 1_555 1_555
C9 C2 1_555 1_555
H4 C9 1_555 1_555
C10 C1 1_555 1_555
H5 C10 1_555 1_555
C11 C4 1_555 1_555
H6 C11 1_555 1_555
H7 C11 1_555 1_555
C12 C1 1_555 1_555
H8 C12 1_555 1_555
C13 C5 1_555 1_555
H9 C13 1_555 1_555
C14 C12 1_555 1_555
H10 C14 1_555 1_555
C15 C7 1_555 1_555
H11 C15 1_555 1_555
H12 C15 1_555 1_555
H13 C15 1_555 1_555
C16 C14 1_555 1_555
C17 C10 1_555 1_555
H14 C17 1_555 1_555
C18 C16 1_555 1_555
H15 C18 1_555 1_555
H16 C18 1_555 1_555
H17 C18 1_555 1_555
C4 C5 1_555 1_555
C6 C13 1_555 1_555
C8 C9 1_555 1_555
C16 C17 1_555 1_555

#END
