
#######################################################################
#
#                 Cambridge Crystallographic Data Centre
#                                CCDC 
#
#######################################################################
#
# If this CIF has been generated from an entry in the Cambridge 
# Structural Database, then it will include bibliographic, chemical, 
# crystal, experimental, refinement or atomic coordinate data resulting 
# from the CCDC's data processing and validation procedures.
#
#######################################################################

data_TABYUT
_chemical_formula_moiety         'C15 H15 N3 O3,H2 O1'
_chemical_name_systematic        
'3-hydroxy-3-(1-oxido-3,4-dihydro-2H-pyrrol-5-yl)-2,3-dihydropyrrolo[2,1-b]quinazolin-9(1H)-one monohydrate'
_symmetry_cell_setting           monoclinic
_symmetry_space_group_name_H-M   'P 21/c'
_symmetry_Int_Tables_number      14
_space_group_name_Hall           '-P 2ybc'
loop_
_symmetry_equiv_pos_site_id
_symmetry_equiv_pos_as_xyz
1 x,y,z
2 -x,1/2+y,1/2-z
3 -x,-y,-z
4 x,1/2-y,1/2+z
_cell_length_a                   10.7205(2)
_cell_length_b                   11.74740(10)
_cell_length_c                   11.46760(10)
_cell_angle_alpha                90
_cell_angle_beta                 107.73
_cell_angle_gamma                90
_cell_volume                     1375.61
_exptl_crystal_colour            colorless
_exptl_crystal_description       block
_cell_formula_units_Z            4
loop_
_atom_site_label
_atom_site_type_symbol
_atom_site_fract_x
_atom_site_fract_y
_atom_site_fract_z
N1 N 0.76582(17) 0.42952(15) 0.21183(16)
N2 N 0.62328(17) 0.32621(16) 0.04750(16)
N3 N 0.9796(2) 0.22318(17) 0.24931(17)
O1 O 0.40093(15) 0.33372(14) -0.00560(15)
O2 O 0.86558(15) 0.40767(14) -0.01275(14)
H1 H 0.8769 0.3801 -0.0764
O3 O 0.88141(19) 0.16764(15) 0.26796(16)
C1 C 0.7435(2) 0.36330(17) 0.11850(18)
C2 C 0.5070(2) 0.36363(18) 0.06380(19)
C3 C 0.4199(2) 0.4772(2) 0.2039(2)
H2 H 0.3336 0.4580 0.1553
C4 C 0.4386(3) 0.5445(2) 0.3061(2)
H3 H 0.3655 0.5714 0.3285
C5 C 0.5660(3) 0.5733(2) 0.3767(2)
H4 H 0.5787 0.6194 0.4475
C6 C 0.6728(2) 0.53575(19) 0.3452(2)
H5 H 0.7585 0.5566 0.3936
C7 C 0.8460(2) 0.31828(19) 0.06295(19)
C8 C 0.7759(2) 0.21511(19) -0.0111(2)
H6 H 0.8066 0.2013 -0.0829
H7 H 0.7908 0.1457 0.0403
C9 C 0.6310(2) 0.2489(2) -0.05109(19)
H8 H 0.6060 0.2883 -0.1312
H9 H 0.5740 0.1816 -0.0564
C10 C 0.9732(2) 0.2908(2) 0.1596(2)
C11 C 1.1137(3) 0.2127(3) 0.3369(3)
H10 H 1.1442 0.1327 0.3431
H11 H 1.1161 0.2398 0.4194
C12 C 1.1962(3) 0.2870(3) 0.2831(3)
H12 H 1.2624 0.2407 0.2602
H13 H 1.2422 0.3454 0.3431
C13 C 1.1023(3) 0.3437(5) 0.1692(3)
H14 H 1.0995 0.4271 0.1801
H15 H 1.1289 0.3275 0.0954
C14 C 0.6556(2) 0.46679(18) 0.24167(19)
C15 C 0.5276(2) 0.43678(18) 0.17136(19)
O4 O 0.9764(2) 0.5236(2) 0.6145(3)
H16 H 0.978(5) 0.5627(12) 0.556(2)
H17 H 1.049(3) 0.534(5) 0.664(4)
loop_
_geom_bond_atom_site_label_1
_geom_bond_atom_site_label_2
_geom_bond_site_symmetry_1
_geom_bond_site_symmetry_2
N1 C1 1_555 1_555
N2 C1 1_555 1_555
N3 O3 1_555 1_555
O1 C2 1_555 1_555
O2 H1 1_555 1_555
C1 C7 1_555 1_555
C2 N2 1_555 1_555
C3 H2 1_555 1_555
C4 C3 1_555 1_555
H3 C4 1_555 1_555
C5 C4 1_555 1_555
H4 C5 1_555 1_555
C6 C5 1_555 1_555
H5 C6 1_555 1_555
C7 O2 1_555 1_555
C8 C7 1_555 1_555
H6 C8 1_555 1_555
H7 C8 1_555 1_555
C9 N2 1_555 1_555
H8 C9 1_555 1_555
H9 C9 1_555 1_555
C10 N3 1_555 1_555
C11 N3 1_555 1_555
H10 C11 1_555 1_555
H11 C11 1_555 1_555
C12 C11 1_555 1_555
H12 C12 1_555 1_555
H13 C12 1_555 1_555
C13 C10 1_555 1_555
H14 C13 1_555 1_555
H15 C13 1_555 1_555
C14 N1 1_555 1_555
C15 C2 1_555 1_555
O4 H16 1_555 1_555
H17 O4 1_555 1_555
C3 C15 1_555 1_555
C6 C14 1_555 1_555
C7 C10 1_555 1_555
C8 C9 1_555 1_555
C12 C13 1_555 1_555
C14 C15 1_555 1_555

#END
