
#######################################################################
#
#                 Cambridge Crystallographic Data Centre
#                                CCDC 
#
#######################################################################
#
# If this CIF has been generated from an entry in the Cambridge 
# Structural Database, then it will include bibliographic, chemical, 
# crystal, experimental, refinement or atomic coordinate data resulting 
# from the CCDC's data processing and validation procedures.
#
#######################################################################

data_TABZII
_chemical_formula_moiety         'C17 H15 N3 O4'
_chemical_name_systematic        
(5-(2-hydroxyphenyl)-3-methyl-4,5-dihydro-1H-pyrazol-1-yl)(4-nitrophenyl)methanone
_symmetry_cell_setting           monoclinic
_symmetry_space_group_name_H-M   'P 21/n'
_symmetry_Int_Tables_number      14
_space_group_name_Hall           '-P 2yn'
loop_
_symmetry_equiv_pos_site_id
_symmetry_equiv_pos_as_xyz
1 x,y,z
2 1/2-x,1/2+y,1/2-z
3 -x,-y,-z
4 1/2+x,1/2-y,1/2+z
_cell_length_a                   11.24(3)
_cell_length_b                   11.35(3)
_cell_length_c                   13.43(3)
_cell_angle_alpha                90
_cell_angle_beta                 109.25(2)
_cell_angle_gamma                90
_cell_volume                     1617.53
_exptl_crystal_colour            colorless
_exptl_crystal_description       block
_cell_formula_units_Z            4
loop_
_atom_site_label
_atom_site_type_symbol
_atom_site_fract_x
_atom_site_fract_y
_atom_site_fract_z
N1 N 0.46369(16) 0.69835(15) 0.13783(16)
N2 N 0.48522(17) 0.61112(16) 0.21682(16)
O1 O 0.40421(15) 0.74806(14) -0.03427(15)
O2 O 0.57585(15) 1.03853(14) 0.11918(15)
H1 H 0.5775 1.1039 0.0937
C1 C 0.40256(19) 0.67611(19) 0.0350(2)
C2 C 0.32689(19) 0.56502(18) 0.0032(2)
C3 C 0.5302(2) 0.81103(18) 0.1774(2)
H2 H 0.5883 0.8299 0.1390
C4 C 0.43609(19) 0.91079(18) 0.16553(19)
C5 C 0.3288(2) 0.50878(19) -0.0883(2)
H3 H 0.3825 0.5355 -0.1233
C6 C 0.5622(2) 0.6542(2) 0.3023(2)
C7 C 0.4629(2) 1.02335(19) 0.1365(2)
C8 C 0.1701(2) 0.3762(2) -0.0754(2)
C9 C 0.2449(2) 0.5258(2) 0.0550(2)
H4 H 0.2433 0.5634 0.1161
C10 C 0.3221(2) 0.8925(2) 0.1861(2)
H5 H 0.3038 0.8181 0.2060
C11 C 0.2506(2) 0.4126(2) -0.1278(2)
H6 H 0.2525 0.3737 -0.1882
C12 C 0.2367(2) 0.9836(3) 0.1771(2)
H7 H 0.1619 0.9705 0.1909
N3 N 0.0855(3) 0.2748(2) -0.1188(3)
C13 C 0.3765(3) 1.1150(2) 0.1272(2)
H8 H 0.3940 1.1898 0.1075
C14 C 0.6048(2) 0.7779(2) 0.2924(2)
H9 H 0.6948 0.7807 0.3051
H10 H 0.5844 0.8303 0.3415
C15 C 0.2645(3) 1.0945(2) 0.1473(2)
H11 H 0.2076 1.1559 0.1407
C16 C 0.6075(3) 0.5844(2) 0.4022(2)
H12 H 0.5686 0.5081 0.3908
H13 H 0.5857 0.6247 0.4566
H14 H 0.6974 0.5756 0.4232
C17 C 0.1657(3) 0.4303(3) 0.0151(3)
H15 H 0.1107 0.4036 0.0490
O3 O 0.1034(3) 0.2173(2) -0.1898(3)
O4 O 0.0004(3) 0.2553(2) -0.0821(3)
loop_
_geom_bond_atom_site_label_1
_geom_bond_atom_site_label_2
_geom_bond_site_symmetry_1
_geom_bond_site_symmetry_2
N1 N2 1_555 1_555
N2 C6 1_555 1_555
O1 C1 1_555 1_555
O2 H1 1_555 1_555
C1 N1 1_555 1_555
C2 C1 1_555 1_555
C3 N1 1_555 1_555
H2 C3 1_555 1_555
C4 C3 1_555 1_555
C5 C2 1_555 1_555
H3 C5 1_555 1_555
C6 C14 1_555 1_555
C7 O2 1_555 1_555
C8 C11 1_555 1_555
C9 C2 1_555 1_555
H4 C9 1_555 1_555
C10 C4 1_555 1_555
H5 C10 1_555 1_555
C11 C5 1_555 1_555
H6 C11 1_555 1_555
C12 C10 1_555 1_555
H7 C12 1_555 1_555
N3 C8 1_555 1_555
C13 C7 1_555 1_555
H8 C13 1_555 1_555
C14 C3 1_555 1_555
H9 C14 1_555 1_555
H10 C14 1_555 1_555
C15 C12 1_555 1_555
H11 C15 1_555 1_555
C16 C6 1_555 1_555
H12 C16 1_555 1_555
H13 C16 1_555 1_555
H14 C16 1_555 1_555
C17 C8 1_555 1_555
H15 C17 1_555 1_555
O3 N3 1_555 1_555
O4 N3 1_555 1_555
C4 C7 1_555 1_555
C9 C17 1_555 1_555
C13 C15 1_555 1_555

#END
