
#######################################################################
#
#                 Cambridge Crystallographic Data Centre
#                                CCDC 
#
#######################################################################
#
# If this CIF has been generated from an entry in the Cambridge 
# Structural Database, then it will include bibliographic, chemical, 
# crystal, experimental, refinement or atomic coordinate data resulting 
# from the CCDC's data processing and validation procedures.
#
#######################################################################

data_TACLUH
_chemical_formula_moiety         'C26 H37 N2 O1 P1'
_chemical_name_systematic        
'1,3-bis(mesitylmethyl)octahydro-1H-1,3,2-benzodiazaphosphole 2-oxide'
_symmetry_cell_setting           monoclinic
_symmetry_space_group_name_H-M   'P 21/c'
_symmetry_Int_Tables_number      14
_space_group_name_Hall           '-P 2ybc'
loop_
_symmetry_equiv_pos_site_id
_symmetry_equiv_pos_as_xyz
1 x,y,z
2 -x,1/2+y,1/2-z
3 -x,-y,-z
4 x,1/2-y,1/2+z
_cell_length_a                   11.4852(4)
_cell_length_b                   14.5023(4)
_cell_length_c                   14.6424(4)
_cell_angle_alpha                90
_cell_angle_beta                 105.870(3)
_cell_angle_gamma                90
_cell_volume                     2345.91
_exptl_crystal_colour            colorless
_exptl_crystal_description       parallelepiped
_cell_formula_units_Z            4
loop_
_atom_site_label
_atom_site_type_symbol
_atom_site_fract_x
_atom_site_fract_y
_atom_site_fract_z
P1 P 0.37383(6) 0.64179(4) 0.17929(3)
N1 N 0.40237(15) 0.67633(11) 0.29106(10)
N2 N 0.24578(15) 0.58723(11) 0.17816(10)
C1 C 0.29763(18) 0.66013(14) 0.32767(12)
H1 H 0.2408 0.7113 0.3071
C2 C 0.11363(17) 0.59898(13) -0.03964(12)
C3 C 0.26374(17) 0.50997(13) -0.13168(12)
H2 H 0.3143 0.4806 -0.1624
C4 C 0.67915(17) 0.82307(13) 0.17010(12)
H3 H 0.6782 0.8640 0.1210
C5 C 0.47878(19) 0.75729(14) 0.32765(13)
H4 H 0.5082 0.7533 0.3963
H5 H 0.4307 0.8130 0.3119
C6 C 0.24013(17) 0.57364(13) 0.27610(12)
H6 H 0.2924 0.5213 0.3027
C7 C 0.17959(17) 0.57309(13) -0.18145(12)
C8 C 0.10520(17) 0.61714(13) -0.13439(12)
H7 H 0.0485 0.6597 -0.1671
C9 C 0.19856(17) 0.53423(12) 0.00989(12)
C10 C 0.58570(17) 0.82619(12) 0.21356(12)
C11 C 0.58482(18) 0.76243(13) 0.28578(12)
C12 C 0.36630(19) 0.41790(14) 0.01180(14)
H8 H 0.4088 0.3958 -0.0319
H9 H 0.3256 0.3674 0.0323
H10 H 0.4229 0.4451 0.0658
C13 C 0.68147(19) 0.70053(13) 0.31631(12)
C14 C 0.27461(17) 0.48931(12) -0.03653(12)
C15 C 0.48809(19) 0.89797(14) 0.18102(14)
H11 H 0.5051 0.9346 0.1316
H12 H 0.4859 0.9369 0.2335
H13 H 0.4112 0.8680 0.1573
C16 C 0.77402(18) 0.76049(14) 0.19790(13)
C17 C 0.3208(2) 0.64912(17) 0.43358(14)
H14 H 0.3566 0.7050 0.4657
H15 H 0.3766 0.5985 0.4559
C18 C 0.20330(19) 0.50997(13) 0.11198(12)
H16 H 0.1231 0.4917 0.1149
H17 H 0.2570 0.4577 0.1320
C19 C 0.11777(19) 0.55628(15) 0.29192(13)
H18 H 0.0839 0.4994 0.2609
H19 H 0.0630 0.6063 0.2652
C20 C 0.77495(19) 0.70115(14) 0.27259(13)
H20 H 0.8397 0.6608 0.2939
C21 C 0.2010(2) 0.62975(16) 0.45525(14)
H21 H 0.1508 0.6845 0.4413
H22 H 0.2163 0.6167 0.5225
C22 C 0.03041(18) 0.64853(14) 0.00746(13)
H23 H -0.0209 0.6898 -0.0372
H24 H 0.0776 0.6831 0.0607
H25 H -0.0186 0.6044 0.0289
C23 C 0.8695(2) 0.75500(17) 0.14651(15)
H26 H 0.9272 0.7083 0.1751
H27 H 0.9097 0.8135 0.1502
H28 H 0.8329 0.7397 0.0812
C24 C 0.16714(18) 0.59267(14) -0.28549(12)
H29 H 0.2252 0.5566 -0.3063
H30 H 0.1814 0.6570 -0.2936
H31 H 0.0870 0.5768 -0.3224
C25 C 0.1328(2) 0.54938(16) 0.39886(14)
H32 H 0.0533 0.5457 0.4097
H33 H 0.1755 0.4927 0.4223
C26 C 0.6851(2) 0.63261(15) 0.39492(15)
H34 H 0.7574 0.5962 0.4063
H35 H 0.6156 0.5930 0.3768
H36 H 0.6845 0.6654 0.4518
H37 H 0.4365 0.6021 0.1663
O1 O 0.3318(4) 0.7251(3) 0.1055(3)
O2? O 0.4793(2) 0.58026(15) 0.16224(15)
loop_
_geom_bond_atom_site_label_1
_geom_bond_atom_site_label_2
_geom_bond_site_symmetry_1
_geom_bond_site_symmetry_2
P1 N1 1_555 1_555
N1 C1 1_555 1_555
N2 P1 1_555 1_555
C1 H1 1_555 1_555
C2 C8 1_555 1_555
C3 H2 1_555 1_555
C4 H3 1_555 1_555
C5 N1 1_555 1_555
H4 C5 1_555 1_555
H5 C5 1_555 1_555
C6 N2 1_555 1_555
H6 C6 1_555 1_555
C7 C3 1_555 1_555
C8 C7 1_555 1_555
H7 C8 1_555 1_555
C9 C2 1_555 1_555
C10 C4 1_555 1_555
C11 C5 1_555 1_555
C12 H8 1_555 1_555
H9 C12 1_555 1_555
H10 C12 1_555 1_555
C13 C11 1_555 1_555
C14 C3 1_555 1_555
C15 C10 1_555 1_555
H11 C15 1_555 1_555
H12 C15 1_555 1_555
H13 C15 1_555 1_555
C16 C4 1_555 1_555
C17 C1 1_555 1_555
H14 C17 1_555 1_555
H15 C17 1_555 1_555
C18 N2 1_555 1_555
H16 C18 1_555 1_555
H17 C18 1_555 1_555
C19 C6 1_555 1_555
H18 C19 1_555 1_555
H19 C19 1_555 1_555
C20 C13 1_555 1_555
H20 C20 1_555 1_555
C21 C17 1_555 1_555
H21 C21 1_555 1_555
H22 C21 1_555 1_555
C22 C2 1_555 1_555
H23 C22 1_555 1_555
H24 C22 1_555 1_555
H25 C22 1_555 1_555
C23 C16 1_555 1_555
H26 C23 1_555 1_555
H27 C23 1_555 1_555
H28 C23 1_555 1_555
C24 C7 1_555 1_555
H29 C24 1_555 1_555
H30 C24 1_555 1_555
H31 C24 1_555 1_555
C25 C19 1_555 1_555
H32 C25 1_555 1_555
H33 C25 1_555 1_555
C26 C13 1_555 1_555
H34 C26 1_555 1_555
H35 C26 1_555 1_555
H36 C26 1_555 1_555
H37 P1 1_555 1_555
O1 P1 1_555 1_555
C1 C6 1_555 1_555
C9 C14 1_555 1_555
C9 C18 1_555 1_555
C10 C11 1_555 1_555
C12 C14 1_555 1_555
C16 C20 1_555 1_555
C21 C25 1_555 1_555

#END
