
#######################################################################
#
#                 Cambridge Crystallographic Data Centre
#                                CCDC 
#
#######################################################################
#
# If this CIF has been generated from an entry in the Cambridge 
# Structural Database, then it will include bibliographic, chemical, 
# crystal, experimental, refinement or atomic coordinate data resulting 
# from the CCDC's data processing and validation procedures.
#
#######################################################################

data_TACMIW
_chemical_formula_moiety         'C25 H34 O5'
_chemical_name_systematic        
3'-(benzyloxy)-2,2-dimethyl-4'-methyleneoctahydro-8'H-spiro[1,3-dioxane-5,7'-naphtho[1,8a-c]furan]-10'-ol
_symmetry_cell_setting           triclinic
_symmetry_space_group_name_H-M   'P -1'
_symmetry_Int_Tables_number      2
_space_group_name_Hall           '-P 1'
loop_
_symmetry_equiv_pos_site_id
_symmetry_equiv_pos_as_xyz
1 x,y,z
2 -x,-y,-z
_cell_length_a                   9.3611(3)
_cell_length_b                   10.4294(4)
_cell_length_c                   12.5882(9)
_cell_angle_alpha                91.067(6)
_cell_angle_beta                 109.523(8)
_cell_angle_gamma                106.480(7)
_cell_volume                     1101.97
_exptl_crystal_colour            colorless
_exptl_crystal_description       block
_cell_formula_units_Z            2
loop_
_atom_site_label
_atom_site_type_symbol
_atom_site_fract_x
_atom_site_fract_y
_atom_site_fract_z
O1 O 0.57925(16) 0.11767(14) 0.33890(12)
O2 O 1.22533(17) 0.35269(15) 0.01836(12)
O3 O 1.16763(17) 0.16315(15) 0.11142(13)
O4 O 0.89685(18) 0.34735(17) -0.03694(12)
H1 H 0.997(2) 0.379(3) -0.023(2)
O5 O 0.56149(17) -0.04634(14) 0.20186(13)
C1 C 0.3532(3) -0.0718(3) 0.2710(2)
H2 H 0.3066 -0.0191 0.2159
H3 H 0.3264 -0.0623 0.3374
H4 H 0.3128 -0.1649 0.2392
C2 C 0.5325(3) -0.0233(2) 0.30340(19)
C3 C 0.7395(2) 0.1876(2) 0.34991(18)
H5 H 0.8116 0.1549 0.4099
H6 H 0.7617 0.2829 0.3716
C4 C 0.7700(2) 0.16857(19) 0.23943(16)
C5 C 0.9477(2) 0.2446(2) 0.25928(16)
H7 H 0.9668 0.3350 0.2952
C6 C 0.9902(2) 0.26806(19) 0.15041(16)
C7 C 1.1626(2) 0.3704(2) 0.18410(16)
H8 H 1.1559 0.4546 0.1526
C8 C 1.2440(2) 0.3014(2) 0.12451(17)
H9 H 1.3573 0.3221 0.1703
C9 C 1.2970(3) 0.2995(3) -0.0472(2)
H10 H 1.2692 0.2024 -0.0482
H11 H 1.4120 0.3370 -0.0137
C10 C 1.2405(3) 0.3338(2) -0.16567(19)
C11 C 1.3477(3) 0.4001(3) -0.2146(2)
H12 H 1.4563 0.4231 -0.1733
C12 C 1.2971(3) 0.4330(3) -0.3235(2)
H13 H 1.3712 0.4777 -0.3552
C13 C 1.1382(4) 0.3998(3) -0.3849(2)
H14 H 1.1037 0.4221 -0.4583
C14 C 0.6142(3) -0.0958(3) 0.3970(2)
H15 H 0.5805 -0.1903 0.3706
H16 H 0.5861 -0.0832 0.4623
H17 H 0.7275 -0.0598 0.4172
C15 C 1.0702(2) 0.1884(2) 0.34436(19)
H18 H 1.0477 0.1806 0.4142
H19 H 1.0587 0.0989 0.3130
C16 C 1.2425(2) 0.2781(2) 0.37145(18)
H20 H 1.2924 0.3062 0.4527
H21 H 1.3020 0.2268 0.3494
C17 C 1.2483(2) 0.4002(2) 0.31018(17)
C18 C 1.3174(3) 0.5246(3) 0.3611(2)
H22 H 1.3664 0.5408 0.4397
H23 H 1.3172 0.5965 0.3185
C19 C 1.0289(3) 0.3333(4) -0.3378(2)
H24 H 0.9205 0.3106 -0.3797
C20 C 1.0795(3) 0.3003(3) -0.2292(2)
H25 H 1.0049 0.2552 -0.1980
C21 C 1.0029(2) 0.1429(2) 0.09263(19)
H26 H 0.9606 0.0632 0.1246
H27 H 0.9424 0.1304 0.0118
C22 C 0.8704(2) 0.3273(2) 0.06652(17)
H28 H 0.8819 0.4153 0.1029
C23 C 0.7011(2) 0.2403(3) 0.04025(18)
H29 H 0.6869 0.1511 0.0065
H30 H 0.6291 0.2790 -0.0141
C24 C 0.6617(2) 0.2295(2) 0.14776(18)
H31 H 0.5519 0.1741 0.1287
H32 H 0.6712 0.3186 0.1787
C25 C 0.7203(2) 0.0164(2) 0.2063(2)
H33 H 0.7273 -0.0015 0.1327
H34 H 0.7925 -0.0214 0.2614
loop_
_geom_bond_atom_site_label_1
_geom_bond_atom_site_label_2
_geom_bond_site_symmetry_1
_geom_bond_site_symmetry_2
O1 C2 1_555 1_555
O2 C8 1_555 1_555
O3 C8 1_555 1_555
O4 H1 1_555 1_555
O5 C2 1_555 1_555
C1 H2 1_555 1_555
H3 C1 1_555 1_555
H4 C1 1_555 1_555
C2 C1 1_555 1_555
C3 O1 1_555 1_555
H5 C3 1_555 1_555
H6 C3 1_555 1_555
C4 C3 1_555 1_555
C5 C4 1_555 1_555
H7 C5 1_555 1_555
C6 C5 1_555 1_555
C7 C6 1_555 1_555
H8 C7 1_555 1_555
C8 C7 1_555 1_555
H9 C8 1_555 1_555
C9 O2 1_555 1_555
H10 C9 1_555 1_555
H11 C9 1_555 1_555
C10 C9 1_555 1_555
C11 C10 1_555 1_555
H12 C11 1_555 1_555
C12 C11 1_555 1_555
H13 C12 1_555 1_555
C13 C12 1_555 1_555
H14 C13 1_555 1_555
C14 C2 1_555 1_555
H15 C14 1_555 1_555
H16 C14 1_555 1_555
H17 C14 1_555 1_555
C15 C5 1_555 1_555
H18 C15 1_555 1_555
H19 C15 1_555 1_555
C16 C15 1_555 1_555
H20 C16 1_555 1_555
H21 C16 1_555 1_555
C17 C7 1_555 1_555
C18 C17 1_555 1_555
H22 C18 1_555 1_555
H23 C18 1_555 1_555
C19 C13 1_555 1_555
H24 C19 1_555 1_555
C20 C10 1_555 1_555
H25 C20 1_555 1_555
C21 O3 1_555 1_555
H26 C21 1_555 1_555
H27 C21 1_555 1_555
C22 O4 1_555 1_555
H28 C22 1_555 1_555
C23 C22 1_555 1_555
H29 C23 1_555 1_555
H30 C23 1_555 1_555
C24 C4 1_555 1_555
H31 C24 1_555 1_555
H32 C24 1_555 1_555
C25 O5 1_555 1_555
H33 C25 1_555 1_555
H34 C25 1_555 1_555
C4 C25 1_555 1_555
C6 C21 1_555 1_555
C6 C22 1_555 1_555
C16 C17 1_555 1_555
C19 C20 1_555 1_555
C23 C24 1_555 1_555

#END
