
#######################################################################
#
#                 Cambridge Crystallographic Data Centre
#                                CCDC 
#
#######################################################################
#
# If this CIF has been generated from an entry in the Cambridge 
# Structural Database, then it will include bibliographic, chemical, 
# crystal, experimental, refinement or atomic coordinate data resulting 
# from the CCDC's data processing and validation procedures.
#
#######################################################################

data_TACTAV
_chemical_formula_moiety         'C49 H32 N2'
_chemical_name_systematic        
9-Phenyl-10-(4-(1,2,2-triphenylvinyl)phenyl)-9H-pyreno[4,5-d]imidazole
_symmetry_cell_setting           triclinic
_symmetry_space_group_name_H-M   'P -1'
_symmetry_Int_Tables_number      2
_space_group_name_Hall           '-P 1'
loop_
_symmetry_equiv_pos_site_id
_symmetry_equiv_pos_as_xyz
1 x,y,z
2 -x,-y,-z
_cell_length_a                   9.4323(19)
_cell_length_b                   9.962(2)
_cell_length_c                   18.769(4)
_cell_angle_alpha                83.37(3)
_cell_angle_beta                 81.36(3)
_cell_angle_gamma                79.00(3)
_cell_volume                     1704.71
_exptl_crystal_colour            colorless
_exptl_crystal_description       block
_cell_formula_units_Z            2
_exptl_crystal_recrystallization_method dichloromethane
_exptl_crystal_preparation       Luminescent
loop_
_atom_site_label
_atom_site_type_symbol
_atom_site_fract_x
_atom_site_fract_y
_atom_site_fract_z
N1 N 0.7208(2) 1.22690(19) 0.46037(10)
N2 N 0.7593(2) 1.00405(18) 0.44017(10)
C1 C 0.7349(3) 1.0787(2) 0.37440(12)
C2 C 0.7122(3) 1.2148(2) 0.38854(12)
C3 C 0.6763(3) 1.2880(2) 0.26353(13)
C4 C 0.6811(3) 1.3250(2) 0.33388(13)
C5 C 0.7021(3) 1.1469(2) 0.24873(12)
C6 C 0.7601(3) 0.9017(3) 0.28477(14)
H1 H 0.7796 0.8296 0.3200
C7 C 0.7335(3) 1.0366(2) 0.30357(12)
C8 C 0.7479(3) 1.0992(2) 0.48987(12)
C9 C 0.6423(3) 1.3942(3) 0.20792(14)
C10 C 0.8814(3) 0.9255(2) 0.66276(13)
H2 H 0.9576 0.8588 0.6770
C11 C 0.7669(3) 0.8585(2) 0.45801(12)
C12 C 0.6972(3) 1.1147(3) 0.17731(13)
C13 C 0.7627(3) 1.0604(2) 0.56663(12)
C14 C 0.8720(3) 0.9583(2) 0.59001(13)
H3 H 0.9399 0.9112 0.5562
C15 C 0.6518(3) 1.4630(2) 0.34738(15)
H4 H 0.6545 1.4868 0.3936
C16 C 0.8200(3) 0.8193(2) 0.82196(13)
C17 C 0.7351(3) 1.0655(2) 0.84157(13)
C18 C 0.7797(3) 0.9899(2) 0.71519(13)
C19 C 0.6469(3) 0.8111(2) 0.49663(15)
H5 H 0.5629 0.8727 0.5109
C20 C 0.6187(3) 1.5648(3) 0.29259(16)
H6 H 0.6000 1.6565 0.3022
C21 C 0.6352(4) 1.3558(3) 0.13746(15)
H7 H 0.6112 1.4239 0.1008
C22 C 0.6134(3) 1.5311(3) 0.22410(16)
H8 H 0.5902 1.6005 0.1880
C23 C 0.7837(3) 0.9507(2) 0.79420(13)
C24 C 0.7759(3) 0.5810(3) 0.49252(15)
H9 H 0.7791 0.4871 0.5037
C25 C 0.7578(4) 0.8736(3) 0.21437(15)
H10 H 0.7770 0.7829 0.2030
C26 C 0.7163(3) 0.6855(3) 0.74440(15)
H11 H 0.6323 0.7521 0.7476
C27 C 0.8923(3) 0.7681(3) 0.43734(14)
H12 H 0.9739 0.8000 0.4123
C28 C 0.8336(3) 0.6990(2) 0.77896(13)
C29 C 0.8500(3) 0.7813(2) 0.89834(13)
C30 C 0.7276(3) 0.9772(3) 0.16145(15)
H13 H 0.7272 0.9562 0.1145
C31 C 0.8948(3) 0.6292(3) 0.45449(15)
H14 H 0.9785 0.5673 0.4400
C32 C 0.6625(4) 1.2241(3) 0.12312(15)
H15 H 0.6588 1.2033 0.0765
C33 C 0.6522(3) 0.6719(3) 0.51394(16)
H16 H 0.5718 0.6396 0.5402
C34 C 0.6644(3) 1.1305(3) 0.61828(14)
H17 H 0.5928 1.2019 0.6037
C35 C 0.6720(3) 1.0949(3) 0.69171(14)
H18 H 0.6041 1.1418 0.7256
C36 C 0.6157(3) 1.0620(3) 0.89517(15)
H19 H 0.5717 0.9848 0.9030
C37 C 0.9559(3) 0.5985(3) 0.77375(16)
H20 H 1.0339 0.6044 0.7975
C38 C 0.9394(4) 0.8475(3) 0.92926(15)
H21 H 0.9774 0.9205 0.9030
C39 C 0.7977(4) 1.1835(3) 0.83039(16)
H22 H 0.8766 1.1893 0.7946
C40 C 0.7959(4) 0.6717(3) 0.93926(16)
H23 H 0.7361 0.6253 0.9199
C41 C 0.7427(4) 1.2926(3) 0.87270(18)
H24 H 0.7852 1.3708 0.8650
C42 C 0.5618(4) 1.1701(3) 0.93661(16)
H25 H 0.4821 1.1658 0.9720
C43 C 0.9195(5) 0.6996(4) 1.03785(17)
H26 H 0.9428 0.6724 1.0844
C44 C 0.9641(4) 0.4883(3) 0.73340(18)
H27 H 1.0490 0.4230 0.7287
C45 C 0.6271(4) 1.2856(3) 0.92516(17)
H28 H 0.5918 1.3586 0.9534
C46 C 0.8471(4) 0.4753(3) 0.70025(17)
H29 H 0.8516 0.3999 0.6745
C47 C 0.7243(4) 0.5740(3) 0.70551(16)
H30 H 0.6456 0.5660 0.6828
C48 C 0.8308(4) 0.6313(4) 1.00881(19)
H31 H 0.7943 0.5581 1.0358
C49 C 0.9726(4) 0.8062(4) 0.99857(18)
H32 H 1.0322 0.8521 1.0185
loop_
_geom_bond_atom_site_label_1
_geom_bond_atom_site_label_2
_geom_bond_site_symmetry_1
_geom_bond_site_symmetry_2
N1 C2 1_555 1_555
N2 C1 1_555 1_555
C1 C2 1_555 1_555
C2 C4 1_555 1_555
C3 C4 1_555 1_555
C4 C15 1_555 1_555
C5 C3 1_555 1_555
C6 H1 1_555 1_555
C7 C1 1_555 1_555
C8 N1 1_555 1_555
C9 C3 1_555 1_555
C10 H2 1_555 1_555
C11 N2 1_555 1_555
C12 C5 1_555 1_555
C13 C8 1_555 1_555
C14 C10 1_555 1_555
H3 C14 1_555 1_555
C15 H4 1_555 1_555
C16 C23 1_555 1_555
C17 C23 1_555 1_555
C18 C10 1_555 1_555
C19 C11 1_555 1_555
H5 C19 1_555 1_555
C20 C15 1_555 1_555
H6 C20 1_555 1_555
C21 C9 1_555 1_555
H7 C21 1_555 1_555
C22 C9 1_555 1_555
H8 C22 1_555 1_555
C23 C18 1_555 1_555
C24 H9 1_555 1_555
C25 C6 1_555 1_555
H10 C25 1_555 1_555
C26 H11 1_555 1_555
C27 C11 1_555 1_555
H12 C27 1_555 1_555
C28 C16 1_555 1_555
C29 C16 1_555 1_555
C30 C12 1_555 1_555
H13 C30 1_555 1_555
C31 C24 1_555 1_555
H14 C31 1_555 1_555
C32 C12 1_555 1_555
H15 C32 1_555 1_555
C33 C19 1_555 1_555
H16 C33 1_555 1_555
C34 C13 1_555 1_555
H17 C34 1_555 1_555
C35 C18 1_555 1_555
H18 C35 1_555 1_555
C36 C17 1_555 1_555
H19 C36 1_555 1_555
C37 C28 1_555 1_555
H20 C37 1_555 1_555
C38 C29 1_555 1_555
H21 C38 1_555 1_555
C39 C17 1_555 1_555
H22 C39 1_555 1_555
C40 C29 1_555 1_555
H23 C40 1_555 1_555
C41 C39 1_555 1_555
H24 C41 1_555 1_555
C42 C36 1_555 1_555
H25 C42 1_555 1_555
C43 H26 1_555 1_555
C44 C37 1_555 1_555
H27 C44 1_555 1_555
C45 C41 1_555 1_555
H28 C45 1_555 1_555
C46 C44 1_555 1_555
H29 C46 1_555 1_555
C47 C26 1_555 1_555
H30 C47 1_555 1_555
C48 C40 1_555 1_555
H31 C48 1_555 1_555
C49 C38 1_555 1_555
H32 C49 1_555 1_555
N2 C8 1_555 1_555
C5 C7 1_555 1_555
C6 C7 1_555 1_555
C13 C14 1_555 1_555
C20 C22 1_555 1_555
C21 C32 1_555 1_555
C24 C33 1_555 1_555
C25 C30 1_555 1_555
C26 C28 1_555 1_555
C27 C31 1_555 1_555
C34 C35 1_555 1_555
C42 C45 1_555 1_555
C43 C48 1_555 1_555
C43 C49 1_555 1_555
C46 C47 1_555 1_555

#END
