
#######################################################################
#
#                 Cambridge Crystallographic Data Centre
#                                CCDC 
#
#######################################################################
#
# If this CIF has been generated from an entry in the Cambridge 
# Structural Database, then it will include bibliographic, chemical, 
# crystal, experimental, refinement or atomic coordinate data resulting 
# from the CCDC's data processing and validation procedures.
#
#######################################################################

data_TACYOO
_chemical_formula_moiety         'C13 H21 N1 O7'
_chemical_name_systematic        
5-(2,2-dimethyl-1,3-dioxolan-4-yl)-2,2-dimethyl-6-(nitromethyl)tetrahydrofuro[2,3-d][1,3]dioxole
_symmetry_cell_setting           orthorhombic
_symmetry_space_group_name_H-M   'P 21 21 21'
_symmetry_Int_Tables_number      19
_space_group_name_Hall           'P 2ac 2ab'
loop_
_symmetry_equiv_pos_site_id
_symmetry_equiv_pos_as_xyz
1 x,y,z
2 1/2-x,-y,1/2+z
3 1/2+x,1/2-y,-z
4 -x,1/2+y,1/2-z
_cell_length_a                   5.5044(2)
_cell_length_b                   12.6144(4)
_cell_length_c                   21.6348(9)
_cell_angle_alpha                90
_cell_angle_beta                 90
_cell_angle_gamma                90
_cell_volume                     1502.21
_exptl_crystal_colour            colorless
_exptl_crystal_description       needle
_cell_formula_units_Z            4
loop_
_atom_site_label
_atom_site_type_symbol
_atom_site_fract_x
_atom_site_fract_y
_atom_site_fract_z
O1 O 0.1756(4) 0.94348(18) 0.03395(11)
C1 C 0.2580(7) 0.8418(3) 0.04912(17)
H1 H 0.3478 0.8095 0.0148
C2 C 0.4157(6) 0.8508(3) 0.10747(17)
H2 H 0.5873 0.8361 0.0990
C3 C 0.3744(6) 0.9665(2) 0.12881(17)
H3 H 0.5155 1.0090 0.1166
C4 C 0.1536(6) 1.0022(2) 0.09017(16)
H4 H 0.0025 0.9832 0.1114
C5 C 0.1502(6) 1.1182(3) 0.07239(18)
H5 H 0.3020 1.1371 0.0514
C6 C -0.0661(6) 1.1468(3) 0.03179(19)
H6 H -0.0244 1.2023 0.0026
H7 H -0.1248 1.0854 0.0093
O2 O -0.2414(4) 1.18276(17) 0.07540(12)
C7 C -0.1090(6) 1.2369(3) 0.12245(19)
O3 O 0.1197(4) 1.18174(19) 0.12615(13)
C8 C -0.0637(8) 1.3514(3) 0.1055(2)
H8 H -0.2159 1.3882 0.1027
H9 H 0.0184 1.3548 0.0664
H10 H 0.0354 1.3840 0.1367
C9 C -0.2428(8) 1.2243(3) 0.18262(19)
H11 H -0.2530 1.1505 0.1930
H12 H -0.4035 1.2530 0.1786
H13 H -0.1572 1.2614 0.2147
O4 O 0.0607(5) 0.77711(19) 0.06819(12)
C10 C 0.1517(6) 0.7096(3) 0.11560(17)
O5 O 0.3131(4) 0.77660(18) 0.14980(11)
C11 C 0.2887(8) 0.6163(3) 0.08712(19)
H14 H 0.3527 0.5723 0.1194
H15 H 0.4198 0.6425 0.0621
H16 H 0.1798 0.5756 0.0619
C12 C -0.0501(7) 0.6743(3) 0.1567(2)
H17 H -0.1272 0.7352 0.1748
H18 H 0.0138 0.6299 0.1889
H19 H -0.1670 0.6352 0.1330
C13 C 0.3314(6) 0.9814(3) 0.19700(17)
H20 H 0.2859 1.0546 0.2044
H21 H 0.1959 0.9372 0.2095
N1 N 0.5468(6) 0.9550(2) 0.23638(16)
O6 O 0.7368(4) 0.9282(2) 0.21135(13)
O7 O 0.5199(5) 0.9616(3) 0.29175(14)
loop_
_geom_bond_atom_site_label_1
_geom_bond_atom_site_label_2
_geom_bond_site_symmetry_1
_geom_bond_site_symmetry_2
O1 C1 1_555 1_555
C1 H1 1_555 1_555
C2 C1 1_555 1_555
H2 C2 1_555 1_555
C3 C2 1_555 1_555
H3 C3 1_555 1_555
C4 O1 1_555 1_555
H4 C4 1_555 1_555
C5 C4 1_555 1_555
H5 C5 1_555 1_555
C6 C5 1_555 1_555
H6 C6 1_555 1_555
H7 C6 1_555 1_555
O2 C6 1_555 1_555
C7 O2 1_555 1_555
O3 C5 1_555 1_555
C8 C7 1_555 1_555
H8 C8 1_555 1_555
H9 C8 1_555 1_555
H10 C8 1_555 1_555
C9 C7 1_555 1_555
H11 C9 1_555 1_555
H12 C9 1_555 1_555
H13 C9 1_555 1_555
O4 C1 1_555 1_555
C10 O4 1_555 1_555
O5 C2 1_555 1_555
C11 C10 1_555 1_555
H14 C11 1_555 1_555
H15 C11 1_555 1_555
H16 C11 1_555 1_555
C12 C10 1_555 1_555
H17 C12 1_555 1_555
H18 C12 1_555 1_555
H19 C12 1_555 1_555
C13 C3 1_555 1_555
H20 C13 1_555 1_555
H21 C13 1_555 1_555
N1 C13 1_555 1_555
O6 N1 1_555 1_555
O7 N1 1_555 1_555
C3 C4 1_555 1_555
C7 O3 1_555 1_555
C10 O5 1_555 1_555

#END
