
#######################################################################
#
#                 Cambridge Crystallographic Data Centre
#                                CCDC 
#
#######################################################################
#
# If this CIF has been generated from an entry in the Cambridge 
# Structural Database, then it will include bibliographic, chemical, 
# crystal, experimental, refinement or atomic coordinate data resulting 
# from the CCDC's data processing and validation procedures.
#
#######################################################################

data_TADCIM
_chemical_formula_moiety         
'C36 H36 N24 O12,2(B1 F4 1-),2(H3 O1 1+),8(H2 O1)'
_chemical_name_systematic        
'bis(Oxonium) cucurbit[6]uril bis(tetrafluoroborate) octahydrate'
_symmetry_cell_setting           orthorhombic
_symmetry_space_group_name_H-M   'P n n m'
_symmetry_Int_Tables_number      58
_space_group_name_Hall           '-P 2 2n'
loop_
_symmetry_equiv_pos_site_id
_symmetry_equiv_pos_as_xyz
1 x,y,z
2 -x,-y,z
3 1/2-x,1/2+y,1/2-z
4 1/2+x,1/2-y,1/2-z
5 -x,-y,-z
6 x,y,-z
7 1/2+x,1/2-y,1/2+z
8 1/2-x,1/2+y,1/2+z
_cell_length_a                   15.9736(19)
_cell_length_b                   11.5940(13)
_cell_length_c                   14.9519(17)
_cell_angle_alpha                90
_cell_angle_beta                 90
_cell_angle_gamma                90
_cell_volume                     2769.06
_exptl_crystal_colour            colorless
_exptl_crystal_description       needle
_cell_formula_units_Z            2
loop_
_atom_site_label
_atom_site_type_symbol
_atom_site_fract_x
_atom_site_fract_y
_atom_site_fract_z
C1 C 0.2537(3) -0.7748(4) 0.5000
H1 H 0.2278 -0.8505 0.5000
H2 H 0.3139 -0.7858 0.5000
C2 C 0.2803(2) -0.6278(3) 0.6227(2)
H3 H 0.3383 -0.6532 0.6307
C3 C 0.3193(3) -0.4847(4) 0.5000
H4 H 0.3290 -0.4021 0.5000
H5 H 0.3735 -0.5223 0.5000
C4 C 0.2399(2) -0.4348(3) 0.6352(3)
C5 C 0.1811(2) -0.4262(3) 0.7851(3)
H6 H 0.1977 -0.3460 0.7798
H7 H 0.2057 -0.4561 0.8397
C6 C 0.0400(2) -0.3427(3) 0.7670(3)
C7 C -0.0457(2) -0.4784(3) 0.8388(2)
H8 H -0.0667 -0.4658 0.8996
C8 C -0.1085(2) -0.2909(3) 0.7818(3)
H9 H -0.0858 -0.2139 0.7745
H10 H -0.1399 -0.2922 0.8373
C9 C -0.1643(2) -0.2517(3) 0.6310(2)
C10 C -0.2360(2) -0.3910(3) 0.7138(3)
H11 H -0.2726 -0.3721 0.7643
N1 N 0.23020(17) -0.7156(2) 0.5807(2)
N2 N 0.27613(17) -0.5150(2) 0.5806(2)
N3 N 0.21490(18) -0.4878(3) 0.7118(2)
N4 N 0.09057(18) -0.4308(2) 0.7937(2)
N5 N -0.04038(18) -0.3711(2) 0.7886(2)
N6 N -0.16490(18) -0.3143(2) 0.7087(2)
O1 O 0.23111(17) -0.3324(2) 0.61724(19)
O2 O 0.06274(18) -0.2532(2) 0.7318(2)
O3 O -0.11289(18) -0.1778(2) 0.6122(2)
C1A C -0.2537(3) -0.2252(4) 0.5000
H1A H -0.2278 -0.1495 0.5000
H2A H -0.3139 -0.2142 0.5000
C2A C -0.2803(2) -0.3722(3) 0.6227(2)
C2D C -0.2803(2) -0.3722(3) 0.3773(2)
C2E C 0.2803(2) -0.6278(3) 0.3773(2)
H3A H -0.3383 -0.3468 0.6307
H3D H -0.3383 -0.3468 0.3693
H3E H 0.3383 -0.6532 0.3693
C3A C -0.3193(3) -0.5153(4) 0.5000
H4A H -0.3290 -0.5979 0.5000
H5A H -0.3735 -0.4777 0.5000
C4A C -0.2399(2) -0.5652(3) 0.6352(3)
C4D C -0.2399(2) -0.5652(3) 0.3648(3)
C4E C 0.2399(2) -0.4348(3) 0.3648(3)
C5A C -0.1811(2) -0.5738(3) 0.7851(3)
C5D C -0.1811(2) -0.5738(3) 0.2149(3)
C5E C 0.1811(2) -0.4262(3) 0.2149(3)
H6A H -0.1977 -0.6540 0.7798
H6D H -0.1977 -0.6540 0.2202
H6E H 0.1977 -0.3460 0.2202
H7A H -0.2057 -0.5439 0.8397
H7D H -0.2057 -0.5439 0.1603
H7E H 0.2057 -0.4561 0.1603
C6A C -0.0400(2) -0.6573(3) 0.7670(3)
C6D C -0.0400(2) -0.6573(3) 0.2330(3)
C6E C 0.0400(2) -0.3427(3) 0.2330(3)
C7A C 0.0457(2) -0.5216(3) 0.8388(2)
C7D C 0.0457(2) -0.5216(3) 0.1612(2)
C7E C -0.0457(2) -0.4784(3) 0.1612(2)
H8A H 0.0667 -0.5342 0.8996
H8D H 0.0667 -0.5342 0.1004
H8E H -0.0667 -0.4658 0.1004
C8A C 0.1085(2) -0.7091(3) 0.7818(3)
C8D C 0.1085(2) -0.7091(3) 0.2182(3)
C8E C -0.1085(2) -0.2909(3) 0.2182(3)
H9A H 0.0858 -0.7861 0.7745
H9D H 0.0858 -0.7861 0.2255
H9E H -0.0858 -0.2139 0.2255
H10A H 0.1399 -0.7078 0.8373
H10D H 0.1399 -0.7078 0.1627
H10E H -0.1399 -0.2922 0.1627
C9A C 0.1643(2) -0.7483(3) 0.6310(2)
C9D C 0.1643(2) -0.7483(3) 0.3690(2)
C9E C -0.1643(2) -0.2517(3) 0.3690(2)
C10A C 0.2360(2) -0.6090(3) 0.7138(3)
C10D C 0.2360(2) -0.6090(3) 0.2862(3)
C10E C -0.2360(2) -0.3910(3) 0.2862(3)
H11A H 0.2726 -0.6279 0.7643
H11D H 0.2726 -0.6279 0.2357
H11E H -0.2726 -0.3721 0.2357
N1A N -0.23020(17) -0.2844(2) 0.5807(2)
N1D N -0.23020(17) -0.2844(2) 0.4193(2)
N1E N 0.23020(17) -0.7156(2) 0.4193(2)
N2A N -0.27613(17) -0.4850(2) 0.5806(2)
N2D N -0.27613(17) -0.4850(2) 0.4194(2)
N2E N 0.27613(17) -0.5150(2) 0.4194(2)
N3A N -0.21490(18) -0.5122(3) 0.7118(2)
N3D N -0.21490(18) -0.5122(3) 0.2882(2)
N3E N 0.21490(18) -0.4878(3) 0.2882(2)
N4A N -0.09057(18) -0.5692(2) 0.7937(2)
N4D N -0.09057(18) -0.5692(2) 0.2063(2)
N4E N 0.09057(18) -0.4308(2) 0.2063(2)
N5A N 0.04038(18) -0.6289(2) 0.7886(2)
N5D N 0.04038(18) -0.6289(2) 0.2114(2)
N5E N -0.04038(18) -0.3711(2) 0.2114(2)
N6A N 0.16490(18) -0.6857(2) 0.7087(2)
N6D N 0.16490(18) -0.6857(2) 0.2913(2)
N6E N -0.16490(18) -0.3143(2) 0.2913(2)
O1A O -0.23111(17) -0.6676(2) 0.61724(19)
O1D O -0.23111(17) -0.6676(2) 0.38276(19)
O1E O 0.23111(17) -0.3324(2) 0.38276(19)
O2A O -0.06274(18) -0.7468(2) 0.7318(2)
O2D O -0.06274(18) -0.7468(2) 0.2682(2)
O2E O 0.06274(18) -0.2532(2) 0.2682(2)
O3A O 0.11289(18) -0.8222(2) 0.6122(2)
O3D O 0.11289(18) -0.8222(2) 0.3878(2)
O3E O -0.11289(18) -0.1778(2) 0.3878(2)
B1 B 0.4952(4) -0.2656(6) 0.5000
F1 F 0.5120(2) -0.3296(3) 0.42641(19)
F2 F 0.4153(2) -0.2259(3) 0.5000
F3 F 0.5464(2) -0.1700(4) 0.5000
F1E F 0.5120(2) -0.3296(3) 0.57359(19)
O4 O 0.1082(6) -0.0647(5) 0.6168(5)
O5 O 0.0000 0.0000 0.7820(7)
O6 O 0.2608(6) -0.0868(5) 0.5000
O7 O 0.0573(9) -0.3051(11) 0.5000
O8? O -0.0030(19) -0.4488(16) 0.5000
loop_
_geom_bond_atom_site_label_1
_geom_bond_atom_site_label_2
_geom_bond_site_symmetry_1
_geom_bond_site_symmetry_2
C1 H1 1_555 1_555
H2 C1 1_555 1_555
C2 H3 1_555 1_555
C3 H4 1_555 1_555
H5 C3 1_555 1_555
C4 N2 1_555 1_555
C5 H6 1_555 1_555
H7 C5 1_555 1_555
C6 N4 1_555 1_555
C7 H8 1_555 1_555
C8 H9 1_555 1_555
H10 C8 1_555 1_555
C9 N6 1_555 1_555
C10 H11 1_555 1_555
N1 C1 1_555 1_555
N2 C2 1_555 1_555
N3 C4 1_555 1_555
N4 C5 1_555 1_555
N5 C6 1_555 1_555
N6 C8 1_555 1_555
O1 C4 1_555 1_555
O2 C6 1_555 1_555
O3 C9 1_555 1_555
B1 F1 1_555 1_555
F2 B1 1_555 1_555
F3 B1 1_555 1_555
C1A H1A 1_555 1_555
H2A C1A 1_555 1_555
C2A C10 1_555 1_555
C2D H3D 1_555 1_555
C2E H3E 1_555 1_555
H3A C2A 1_555 1_555
C3A H4A 1_555 1_555
H5A C3A 1_555 1_555
C4A N2A 1_555 1_555
C4D N2D 1_555 1_555
C4E N2E 1_555 1_555
C5A H6A 1_555 1_555
C5D H6D 1_555 1_555
C5E H6E 1_555 1_555
H7A C5A 1_555 1_555
H7D C5D 1_555 1_555
H7E C5E 1_555 1_555
C6A N4A 1_555 1_555
C6D N4D 1_555 1_555
C6E N4E 1_555 1_555
C7A C7 1_555 1_555
C7D C7E 1_555 1_555
C7E H8E 1_555 1_555
H8A C7A 1_555 1_555
H8D C7D 1_555 1_555
C8A H9A 1_555 1_555
C8D H9D 1_555 1_555
C8E H9E 1_555 1_555
H10A C8A 1_555 1_555
H10D C8D 1_555 1_555
H10E C8E 1_555 1_555
C9A N1 1_555 1_555
C9D N1E 1_555 1_555
C9E N1D 1_555 1_555
C10A C2 1_555 1_555
C10D C2E 1_555 1_555
C10E C2D 1_555 1_555
H11A C10A 1_555 1_555
H11D C10D 1_555 1_555
H11E C10E 1_555 1_555
N1A C9 1_555 1_555
N1D C1A 1_555 1_555
N1E C1 1_555 1_555
N2A C2A 1_555 1_555
N2D C2D 1_555 1_555
N2E C3 1_555 1_555
N3A C10 1_555 1_555
N3D C4D 1_555 1_555
N3E C4E 1_555 1_555
N4A C7 1_555 1_555
N4D C5D 1_555 1_555
N4E C5E 1_555 1_555
N5A C6A 1_555 1_555
N5D C6D 1_555 1_555
N5E C6E 1_555 1_555
N6A C8A 1_555 1_555
N6D C8D 1_555 1_555
N6E C8E 1_555 1_555
O1A C4A 1_555 1_555
O1D C4D 1_555 1_555
O1E C4E 1_555 1_555
O2A C6A 1_555 1_555
O2D C6D 1_555 1_555
O2E C6E 1_555 1_555
O3A C9A 1_555 1_555
O3D C9D 1_555 1_555
O3E C9E 1_555 1_555
F1E B1 1_555 1_555
C2 N1 1_555 1_555
C3 N2 1_555 1_555
C5 N3 1_555 1_555
C7 N5 1_555 1_555
C8 N5 1_555 1_555
C10 N6 1_555 1_555
N3 C10A 1_555 1_555
N4 C7A 1_555 1_555
C1A N1A 1_555 1_555
C2A N1A 1_555 1_555
C2D N1D 1_555 1_555
C2E N1E 1_555 1_555
C2E N2E 1_555 1_555
C3A N2A 1_555 1_555
C3A N2D 1_555 1_555
C4A N3A 1_555 1_555
C5A N3A 1_555 1_555
C5A N4A 1_555 1_555
C5D N3D 1_555 1_555
C5E N3E 1_555 1_555
C7A N5A 1_555 1_555
C7D N4E 1_555 1_555
C7D N5D 1_555 1_555
C7E N4D 1_555 1_555
C7E N5E 1_555 1_555
C8A N5A 1_555 1_555
C8D N5D 1_555 1_555
C8E N5E 1_555 1_555
C9A N6A 1_555 1_555
C9D N6D 1_555 1_555
C9E N6E 1_555 1_555
C10A N6A 1_555 1_555
C10D N3E 1_555 1_555
C10D N6D 1_555 1_555
C10E N3D 1_555 1_555
C10E N6E 1_555 1_555

#END
