
#######################################################################
#
#                 Cambridge Crystallographic Data Centre
#                                CCDC 
#
#######################################################################
#
# If this CIF has been generated from an entry in the Cambridge 
# Structural Database, then it will include bibliographic, chemical, 
# crystal, experimental, refinement or atomic coordinate data resulting 
# from the CCDC's data processing and validation procedures.
#
#######################################################################

data_TADGOU
_chemical_formula_moiety         'C56 H87 N3 O36 S1,16(H2 O1)'
_chemical_name_systematic        
"6-Deoxy-6-N-(N'-(dimethylamino-1-naphthalenesulfonyl)diaminoethane)-\b-cyclodextrin hexadecahydrate"
_symmetry_cell_setting           orthorhombic
_symmetry_space_group_name_H-M   'P 21 21 21'
_symmetry_Int_Tables_number      19
_space_group_name_Hall           'P 2ac 2ab'
loop_
_symmetry_equiv_pos_site_id
_symmetry_equiv_pos_as_xyz
1 x,y,z
2 1/2-x,-y,1/2+z
3 1/2+x,1/2-y,-z
4 -x,1/2+y,1/2-z
_cell_length_a                   27.293(8)
_cell_length_b                   17.801(2)
_cell_length_c                   15.881(4)
_cell_angle_alpha                90
_cell_angle_beta                 90
_cell_angle_gamma                90
_cell_volume                     7715.67
_exptl_crystal_colour            'pale green'
_chemical_melting_point          117deg.C
_cell_formula_units_Z            4
loop_
_atom_site_label
_atom_site_type_symbol
_atom_site_fract_x
_atom_site_fract_y
_atom_site_fract_z
C1 C -0.1719(2) 0.8204(4) 0.7584(5)
C2 C -0.1873(3) 0.8950(4) 0.7983(5)
O1 O -0.1902(2) 0.9521(3) 0.7351(4)
C3 C -0.1534(3) 0.9167(4) 0.8705(5)
O2 O -0.1725(2) 0.9826(3) 0.9105(4)
C4 C -0.1508(2) 0.8518(4) 0.9306(4)
O3 O -0.1185(2) 0.8738(3) 0.9982(3)
C5 C -0.1315(2) 0.7818(4) 0.8873(4)
O4 O -0.1658(2) 0.7636(3) 0.8200(3)
C6 C -0.1290(3) 0.7155(4) 0.9466(5)
N1 N -0.0995(2) 0.6499(3) 0.9198(4)
C7 C -0.1251(3) 0.5995(5) 0.8615(6)
C8 C -0.0902(3) 0.5383(4) 0.8307(5)
N2 N -0.0515(2) 0.5691(3) 0.7765(4)
S1 S 0.00615(6) 0.5594(1) 0.7955(1)
O5 O 0.0311(2) 0.5754(3) 0.7174(3)
O6 O 0.0138(2) 0.4890(3) 0.8375(4)
C9 C 0.0215(2) 0.6301(4) 0.8693(4)
C10 C 0.0351(3) 0.6081(4) 0.9477(5)
C11 C 0.0439(3) 0.6612(4) 1.0117(4)
C12 C 0.0413(3) 0.7356(4) 0.9936(4)
C13 C 0.0253(2) 0.8403(4) 0.8946(4)
C14 C 0.0085(3) 0.8628(4) 0.8177(5)
C15 C -0.0037(3) 0.8095(4) 0.7552(4)
C16 C 0.0013(3) 0.7351(4) 0.7692(4)
C17 C 0.0175(2) 0.7084(4) 0.8481(4)
C18 C 0.0286(2) 0.7617(4) 0.9122(4)
N3 N 0.0405(2) 0.8912(3) 0.9580(4)
C19 C 0.0183(3) 0.9660(4) 0.9539(5)
C20 C 0.0939(3) 0.8980(5) 0.9597(6)
C21 C -0.1405(3) 0.8804(4) 1.0796(5)
C22 C -0.1230(3) 0.9525(1) 1.1202(5)
O7 O -0.1316(3) 1.0171(3) 1.0670(4)
C23 C -0.0689(3) 0.9487(4) 1.1416(5)
O8 O -0.0554(2) 1.0139(3) 1.1865(4)
C24 C -0.0574(3) 0.8789(4) 1.1909(4)
O9 O -0.0054(2) 0.8734(3) 1.1953(3)
C25 C -0.0768(3) 0.8101(4) 1.1459(5)
O10 O -0.1287(2) 0.8185(3) 1.1307(3)
C26 C -0.0701(3) 0.7371(4) 1.1934(6)
O11 O -0.0880(3) 0.7419(4) 1.2755(4)
C27 C 0.0176(3) 0.8725(4) 1.2751(4)
C28 C 0.0585(3) 0.9305(4) 1.2729(5)
O12 O 0.0398(2) 1.0045(3) 1.2627(4)
C29 C 0.0942(3) 0.9091(4) 1.2054(5)
O13 O 0.1337(2) 0.9625(3) 1.2009(4)
C30 C 0.1135(3) 0.8309(4) 1.2211(4)
O14 O 0.1411(2) 0.8095(3) 1.1490(3)
C31 C 0.0716(3) 0.7748(4) 1.2317(4)
O15 O 0.0367(2) 0.8015(3) 1.2932(3)
C32 C 0.0876(3) 0.6965(4) 1.2598(5)
O16 O 0.1139(2) 0.6984(3) 1.3339(3)
C33 C 0.1876(3) 0.7747(5) 1.1611(5)
C34 C 0.2277(3) 0.8287(5) 1.1292(5)
O17 O 0.2246(2) 0.8979(3) 1.1740(3)
C35 C 0.2198(2) 0.8429(4) 1.0360(4)
O18 O 0.2584(2) 0.8879(3) 1.0043(3)
C36 C 0.2166(2) 0.7689(4) 0.9887(4)
O19 O 0.2015(2) 0.7857(3) 0.9038(3)
C37 C 0.1800(2) 0.7147(4) 1.0272(4)
O20 O 0.1895(2) 0.7067(3) 1.1156(3)
C38 C 0.1813(3) 0.6367(4) 0.9897(5)
O21 O 0.2280(2) 0.6045(3) 0.9951(5)
C39 C 0.2336(2) 0.7674(4) 0.8379(4)
C40 C 0.2392(2) 0.8345(4) 0.7800(5)
O22 O 0.2534(2) 0.8987(3) 0.8267(3)
C41 C 0.1919(2) 0.8489(4) 0.7302(5)
O23 O 0.2006(2) 0.9091(3) 0.6721(3)
C42 C 0.1768(2) 0.7780(4) 0.6854(4)
O24 O 0.1330(2) 0.7931(3) 0.6390(3)
C43 C 0.1691(3) 0.7154(4) 0.7502(5)
O25 O 0.2150(2) 0.7034(3) 0.7937(3)
C44 C 0.1543(3) 0.6418(4) 0.7133(5)
O26 O 0.1919(2) 0.6168(3) 0.6556(4)
C45 C 0.1339(2) 0.7795(4) 0.5502(4)
C46 C 0.1139(2) 0.8485(4) 0.5070(4)
O27 O 0.1424(2) 0.9131(3) 0.5289(3)
C47 C 0.0602(2) 0.8602(4) 0.5293(4)
O28 O 0.0416(2) 0.9217(3) 0.4824(3)
C48 C 0.0319(2) 0.7890(4) 0.5098(4)
O29 O -0.0163(1) 0.7987(2) 0.5442(3)
C49 C 0.0552(2) 0.7196(4) 0.5507(4)
O30 O 0.1062(2) 0.7161(3) 0.5288(3)
C50 C 0.0334(3) 0.6462(4) 0.5255(4)
O31 O 0.0372(2) 0.6341(3) 0.4369(3)
C51 C -0.0584(2) 0.7909(4) 0.4912(4)
C52 C -0.0867(2) 0.8635(4) 0.4926(4)
O32 O -0.0574(2) 0.9210(3) 0.4581(3)
C53 C -0.1021(2) 0.8822(4) 0.5825(5)
O33 O -0.1326(2) 0.9477(3) 0.5835(4)
C54 C -0.1278(2) 0.8170(4) 0.6242(4)
O34 O -0.1281(2) 0.8321(3) 0.7121(3)
C55 C -0.1030(2) 0.7409(4) 0.6090(4)
O35 O -0.0881(2) 0.7320(3) 0.5224(3)
C56 C -0.1371(3) 0.6766(4) 0.6290(6)
O36 O -0.1141(2) 0.6068(3) 0.6292(4)
O37 O 0.4460(2) 0.8810(3) 0.6395(4)
O38 O 0.3997(2) 0.4787(4) 0.6462(4)
O39 O 0.2104(3) 1.0467(4) 0.7948(5)
O40 O -0.0830(3) 0.5582(4) 1.0593(4)
O41 O 0.3678(3) 0.9284(5) 0.5418(5)
O42 O 0.2687(3) 0.9616(5) 0.5554(6)
O43 O 0.3482(3) 0.9270(7) 0.8092(7)
O44 O 0.2591(4) 0.5547(8) 0.812(1)
O45 O 0.3028(4) 0.4690(8) 0.6745(8)
O46 O 0.1966(5) 0.6129(9) 0.346(1)
O47 O 0.2255(4) 0.8962(8) 0.4109(9)
O48 O 0.2863(4) 0.5422(9) 0.518(1)
O49 O 0.2334(5) 0.7390(8) 0.3958(8)
O50 O 0.2457(6) 0.675(1) 0.535(1)
O51 O 0.3143(5) 0.675(1) 0.685(1)
O52 O 0.3000(6) 0.791(1) 0.574(2)
loop_
_geom_bond_atom_site_label_1
_geom_bond_atom_site_label_2
_geom_bond_site_symmetry_1
_geom_bond_site_symmetry_2
C1 C2 1_555 1_555
C2 O1 1_555 1_555
C3 C2 1_555 1_555
O2 C3 1_555 1_555
C4 C3 1_555 1_555
O3 C4 1_555 1_555
C5 C4 1_555 1_555
O4 C1 1_555 1_555
C6 C5 1_555 1_555
N1 C6 1_555 1_555
C7 N1 1_555 1_555
C8 C7 1_555 1_555
N2 C8 1_555 1_555
S1 N2 1_555 1_555
O5 S1 1_555 1_555
O6 S1 1_555 1_555
C9 S1 1_555 1_555
C10 C9 1_555 1_555
C11 C10 1_555 1_555
C12 C11 1_555 1_555
C13 C14 1_555 1_555
C14 C15 1_555 1_555
C15 C16 1_555 1_555
C16 C17 1_555 1_555
C17 C9 1_555 1_555
C18 C12 1_555 1_555
N3 C13 1_555 1_555
C19 N3 1_555 1_555
C20 N3 1_555 1_555
C21 O3 1_555 1_555
C22 C21 1_555 1_555
O7 C22 1_555 1_555
C23 C22 1_555 1_555
O8 C23 1_555 1_555
C24 C23 1_555 1_555
O9 C24 1_555 1_555
C25 C24 1_555 1_555
O10 C21 1_555 1_555
C26 C25 1_555 1_555
O11 C26 1_555 1_555
C27 O9 1_555 1_555
C28 C27 1_555 1_555
O12 C28 1_555 1_555
C29 C28 1_555 1_555
O13 C29 1_555 1_555
C30 C29 1_555 1_555
O14 C30 1_555 1_555
C31 C30 1_555 1_555
O15 C27 1_555 1_555
C32 C31 1_555 1_555
O16 C32 1_555 1_555
C33 O14 1_555 1_555
C34 C33 1_555 1_555
O17 C34 1_555 1_555
C35 C34 1_555 1_555
O18 C35 1_555 1_555
C36 C35 1_555 1_555
O19 C36 1_555 1_555
C37 C36 1_555 1_555
O20 C33 1_555 1_555
C38 C37 1_555 1_555
O21 C38 1_555 1_555
C39 O19 1_555 1_555
C40 C39 1_555 1_555
O22 C40 1_555 1_555
C41 C40 1_555 1_555
O23 C41 1_555 1_555
C42 C41 1_555 1_555
O24 C42 1_555 1_555
C43 C42 1_555 1_555
O25 C39 1_555 1_555
C44 C43 1_555 1_555
O26 C44 1_555 1_555
C45 O24 1_555 1_555
C46 C45 1_555 1_555
O27 C46 1_555 1_555
C47 C46 1_555 1_555
O28 C47 1_555 1_555
C48 C47 1_555 1_555
O29 C48 1_555 1_555
C49 C48 1_555 1_555
O30 C45 1_555 1_555
C50 C49 1_555 1_555
O31 C50 1_555 1_555
C51 O29 1_555 1_555
C52 C51 1_555 1_555
O32 C52 1_555 1_555
C53 C52 1_555 1_555
O33 C53 1_555 1_555
C54 C53 1_555 1_555
O34 C1 1_555 1_555
C55 C54 1_555 1_555
O35 C51 1_555 1_555
C56 C55 1_555 1_555
O36 C56 1_555 1_555
C5 O4 1_555 1_555
C13 C18 1_555 1_555
C17 C18 1_555 1_555
C25 O10 1_555 1_555
C31 O15 1_555 1_555
C37 O20 1_555 1_555
C43 O25 1_555 1_555
C49 O30 1_555 1_555
C54 O34 1_555 1_555
C55 O35 1_555 1_555

#END
