
#######################################################################
#
#                 Cambridge Crystallographic Data Centre
#                                CCDC 
#
#######################################################################
#
# If this CIF has been generated from an entry in the Cambridge 
# Structural Database, then it will include bibliographic, chemical, 
# crystal, experimental, refinement or atomic coordinate data resulting 
# from the CCDC's data processing and validation procedures.
#
#######################################################################

data_TADLIU
_chemical_name_common            Fenofibrate
_chemical_formula_moiety         'C20 H21 Cl1 O4'
_chemical_name_systematic        
'1-Methylethyl 2-(4-(4-chlorobenzoyl)phenoxy)-2-methylpropanoate'
_chemical_properties_biological  
'belongs to a class of compounds which are used to treat hypercholesterolaemia or mixed dyslipidemia'
_symmetry_cell_setting           triclinic
_symmetry_space_group_name_H-M   'P -1'
_symmetry_Int_Tables_number      2
_space_group_name_Hall           '-P 1'
loop_
_symmetry_equiv_pos_site_id
_symmetry_equiv_pos_as_xyz
1 x,y,z
2 -x,-y,-z
_cell_length_a                   8.1605(16)
_cell_length_b                   8.2664(16)
_cell_length_c                   14.511(3)
_cell_angle_alpha                93.951(3)
_cell_angle_beta                 105.664(3)
_cell_angle_gamma                96.002(3)
_cell_volume                     932.527
_exptl_crystal_colour            colorless
_exptl_crystal_description       parallelepiped
_chemical_melting_point          80-81deg.C
_cell_formula_units_Z            2
_exptl_crystal_recrystallization_method ethanol
loop_
_atom_site_label
_atom_site_type_symbol
_atom_site_fract_x
_atom_site_fract_y
_atom_site_fract_z
Cl1 Cl 0.56390(7) 0.29037(8) 0.42848(4)
O1 O 1.84131(12) 0.41642(12) 0.83905(8)
O2 O 1.78245(16) 0.68641(14) 0.93170(8)
O3 O 1.16190(15) -0.07372(13) 0.71558(9)
O4 O 1.78000(19) 0.82642(14) 0.80542(10)
C1 C 1.18172(19) 0.06097(17) 0.68797(10)
C2 C 1.67663(17) 0.34356(16) 0.79862(10)
C3 C 1.53632(18) 0.42282(16) 0.75832(11)
H1 H 1.5499 0.5356 0.7565
C4 C 1.65445(19) 0.17488(17) 0.80155(11)
H2 H 1.7481 0.1218 0.8290
C5 C 0.9039(2) 0.2710(2) 0.48911(11)
H3 H 0.9138 0.3349 0.4401
C6 C 1.37547(18) 0.33229(17) 0.72069(11)
H4 H 1.2816 0.3856 0.6940
C7 C 1.81198(17) 0.71001(16) 0.84840(10)
C8 C 1.0477(2) 0.22088(19) 0.54899(11)
H5 H 1.1552 0.2519 0.5406
C9 C 1.03302(19) 0.12374(17) 0.62217(10)
C10 C 1.35218(18) 0.16340(17) 0.72222(10)
C11 C 0.8701(2) 0.07593(19) 0.63247(11)
H6 H 0.8584 0.0083 0.6795
C12 C 1.89999(18) 0.57282(16) 0.81342(11)
C13 C 1.49490(19) 0.08644(16) 0.76405(11)
H7 H 1.4817 -0.0262 0.7665
C14 C 1.8796(2) 0.56876(19) 0.70608(12)
H8 H 1.9370 0.4826 0.6864
H9 H 1.9290 0.6716 0.6922
H10 H 1.7599 0.5495 0.6718
C15 C 0.7452(2) 0.2253(2) 0.50278(12)
C16 C 0.7265(2) 0.1278(2) 0.57366(12)
H11 H 0.6186 0.0976 0.5817
C17 C 2.0889(2) 0.6045(2) 0.87061(15)
H12 H 2.0985 0.6038 0.9380
H13 H 2.1381 0.7090 0.8589
H14 H 2.1489 0.5206 0.8509
C18 C 1.7095(2) 0.8146(2) 0.97655(12)
H15 H 1.6866 0.9026 0.9347
C19 C 1.8357(3) 0.8783(3) 1.06991(17)
H16 H 1.8565 0.7910 1.1102
H17 H 1.7909 0.9624 1.1012
H18 H 1.9413 0.9228 1.0587
C20 C 1.5459(3) 0.7347(5) 0.9905(3)
H19 H 1.4666 0.6971 0.9289
H20 H 1.4972 0.8123 1.0240
H21 H 1.5691 0.6436 1.0274
loop_
_geom_bond_atom_site_label_1
_geom_bond_atom_site_label_2
_geom_bond_site_symmetry_1
_geom_bond_site_symmetry_2
Cl1 C15 1_555 1_555
O1 C2 1_555 1_555
O2 C7 1_555 1_555
O3 C1 1_555 1_555
O4 C7 1_555 1_555
C1 C9 1_555 1_555
C2 C3 1_555 1_555
C3 H1 1_555 1_555
C4 C2 1_555 1_555
H2 C4 1_555 1_555
C5 H3 1_555 1_555
C6 C3 1_555 1_555
H4 C6 1_555 1_555
C7 C12 1_555 1_555
C8 C5 1_555 1_555
H5 C8 1_555 1_555
C9 C8 1_555 1_555
C10 C1 1_555 1_555
C11 C9 1_555 1_555
H6 C11 1_555 1_555
C12 O1 1_555 1_555
C13 C4 1_555 1_555
H7 C13 1_555 1_555
C14 C12 1_555 1_555
H8 C14 1_555 1_555
H9 C14 1_555 1_555
H10 C14 1_555 1_555
C15 C5 1_555 1_555
C16 C11 1_555 1_555
H11 C16 1_555 1_555
C17 C12 1_555 1_555
H12 C17 1_555 1_555
H13 C17 1_555 1_555
H14 C17 1_555 1_555
C18 O2 1_555 1_555
H15 C18 1_555 1_555
C19 C18 1_555 1_555
H16 C19 1_555 1_555
H17 C19 1_555 1_555
H18 C19 1_555 1_555
C20 C18 1_555 1_555
H19 C20 1_555 1_555
H20 C20 1_555 1_555
H21 C20 1_555 1_555
C6 C10 1_555 1_555
C10 C13 1_555 1_555
C15 C16 1_555 1_555

#END
