
#######################################################################
#
#                 Cambridge Crystallographic Data Centre
#                                CCDC 
#
#######################################################################
#
# If this CIF has been generated from an entry in the Cambridge 
# Structural Database, then it will include bibliographic, chemical, 
# crystal, experimental, refinement or atomic coordinate data resulting 
# from the CCDC's data processing and validation procedures.
#
#######################################################################

data_TADMES
_chemical_formula_moiety         'C9 H15 N1 O7 S1'
_chemical_name_systematic        
'4,4-Dimethyl-3,5,10,11-tetraoxatricyclo[6.2.1.0^2,6^]undec-7-yl sulfamate'
_symmetry_cell_setting           triclinic
_symmetry_space_group_name_H-M   'P 1'
_symmetry_Int_Tables_number      1
_space_group_name_Hall           'P 1'
loop_
_symmetry_equiv_pos_site_id
_symmetry_equiv_pos_as_xyz
1 x,y,z
_cell_length_a                   6.0756(2)
_cell_length_b                   6.6423(2)
_cell_length_c                   7.3505(2)
_cell_angle_alpha                80.5318(12)
_cell_angle_beta                 84.2434(12)
_cell_angle_gamma                89.0269(12)
_cell_volume                     291.12
_exptl_crystal_colour            colorless
_exptl_crystal_description       block
_cell_formula_units_Z            1
loop_
_atom_site_label
_atom_site_type_symbol
_atom_site_fract_x
_atom_site_fract_y
_atom_site_fract_z
S1 S 0.54699(10) 0.54877(9) 0.33471(9)
O1 O 0.6667(2) 0.69721(18) 0.19999(16)
O2 O 0.34525(19) 0.6076(2) 0.42852(17)
N1 N 0.7041(2) 0.4484(2) 0.48566(17)
O3 O 0.49931(18) 0.36014(17) 0.23572(15)
C1 C 0.3972(2) 0.3950(2) 0.06135(19)
C2 C 0.1559(2) 0.4577(2) 0.0924(2)
O4 O 0.03994(18) 0.29475(16) 0.21780(15)
C3 C 0.0091(2) 0.1510(2) 0.09850(19)
O5 O -0.05633(18) 0.26698(17) -0.06649(16)
C4 C 0.0356(3) 0.4696(2) -0.0823(2)
C5 C 0.2299(2) 0.0400(2) 0.06958(19)
C6 C 0.4215(2) 0.1870(2) -0.00230(18)
O6 O 0.41299(17) 0.21196(16) -0.19912(15)
C7 C 0.3523(2) 0.0161(2) -0.23865(19)
O7 O 0.22897(19) -0.08447(16) -0.07127(15)
C8 C 0.5585(3) -0.1070(2) -0.2788(2)
C9 C 0.2047(3) 0.0484(2) -0.3941(2)
H1 H 0.643(3) 0.366(3) 0.587(3)
H2 H 0.822(3) 0.398(3) 0.431(3)
H3 H 0.4840 0.4992 -0.0278
H4 H 0.1423 0.5799 0.1511
H5 H -0.1140 0.0575 0.1602
H6 H -0.0829 0.5677 -0.0786
H7 H 0.1397 0.5002 -0.1982
H8 H 0.2598 -0.0449 0.1866
H9 H 0.5622 0.1258 0.0272
H10 H 0.6537 -0.1153 -0.1757
H11 H 0.6438 -0.0444 -0.3953
H12 H 0.5215 -0.2457 -0.2928
H13 H 0.0776 0.1344 -0.3519
H14 H 0.2931 0.1240 -0.5057
H15 H 0.1618 -0.0894 -0.4106
loop_
_geom_bond_atom_site_label_1
_geom_bond_atom_site_label_2
_geom_bond_site_symmetry_1
_geom_bond_site_symmetry_2
S1 O1 1_555 1_555
O2 S1 1_555 1_555
N1 S1 1_555 1_555
O3 S1 1_555 1_555
C1 O3 1_555 1_555
C2 C1 1_555 1_555
O4 C2 1_555 1_555
C3 O4 1_555 1_555
O5 C3 1_555 1_555
C4 C2 1_555 1_555
C5 C3 1_555 1_555
C6 C1 1_555 1_555
O6 C6 1_555 1_555
C7 O6 1_555 1_555
O7 C5 1_555 1_555
C8 C7 1_555 1_555
C9 C7 1_555 1_555
H1 N1 1_555 1_555
H2 N1 1_555 1_555
H3 C1 1_555 1_555
H4 C2 1_555 1_555
H5 C3 1_555 1_555
H6 C4 1_555 1_555
H7 C4 1_555 1_555
H8 C5 1_555 1_555
H9 C6 1_555 1_555
H10 C8 1_555 1_555
H11 C8 1_555 1_555
H12 C8 1_555 1_555
H13 C9 1_555 1_555
H14 C9 1_555 1_555
H15 C9 1_555 1_555
O5 C4 1_555 1_555
C5 C6 1_555 1_555
C7 O7 1_555 1_555

#END
