
#######################################################################
#
#                 Cambridge Crystallographic Data Centre
#                                CCDC 
#
#######################################################################
#
# If this CIF has been generated from an entry in the Cambridge 
# Structural Database, then it will include bibliographic, chemical, 
# crystal, experimental, refinement or atomic coordinate data resulting 
# from the CCDC's data processing and validation procedures.
#
#######################################################################

data_TADMAO
_chemical_formula_moiety         'C22 H14 N2 O8,3(C2 H6 O1 S1)'
_chemical_name_systematic        
"1,1'-(1,3,6,8-Tetraoxo-1,3,6,8-tetrahydrobenzo[lmn][3,8]phenanthroline-2,7-diyl)dicyclopropanecarboxylic acid dimethylsulfoxide solvate"
_symmetry_cell_setting           monoclinic
_symmetry_space_group_name_H-M   'P 21/c'
_symmetry_Int_Tables_number      14
_space_group_name_Hall           '-P 2ybc'
loop_
_symmetry_equiv_pos_site_id
_symmetry_equiv_pos_as_xyz
1 x,y,z
2 -x,1/2+y,1/2-z
3 -x,-y,-z
4 x,1/2-y,1/2+z
_cell_length_a                   9.0612(2)
_cell_length_b                   11.8489(2)
_cell_length_c                   28.6964(5)
_cell_angle_alpha                90
_cell_angle_beta                 98.513(1)
_cell_angle_gamma                90
_cell_volume                     3047.05
_exptl_crystal_description       block
_cell_formula_units_Z            4
loop_
_atom_site_label
_atom_site_type_symbol
_atom_site_fract_x
_atom_site_fract_y
_atom_site_fract_z
O1 O 1.1028(2) 0.23610(15) 0.09713(6)
N1 N 1.1721(2) 0.41871(17) 0.11319(7)
C1 C 0.9592(3) 0.2902(2) 0.00520(8)
H1 H 0.9581 0.2131 0.0143
O2 O 1.2862(2) 0.59034(16) 0.12219(6)
C2 C 1.0325(3) 0.36878(19) 0.03589(8)
C3 C 1.0368(3) 0.48301(19) 0.02235(7)
C4 C 1.1136(3) 0.5645(2) 0.05267(8)
C5 C 1.1136(3) 0.6766(2) 0.03930(8)
H2 H 1.1630 0.7313 0.0603
C6 C 1.1026(3) 0.3336(2) 0.08357(8)
C7 C 1.1986(3) 0.5285(2) 0.09855(8)
O3 O 1.4281(2) 0.27232(17) 0.20202(6)
H3 H 1.5078 0.2369 0.2008
C8 C 1.2379(3) 0.3826(2) 0.15985(8)
O4 O 1.4428(2) 0.30820(18) 0.12605(7)
C9 C 1.3804(3) 0.3177(2) 0.16038(9)
C10 C 1.1323(3) 0.3513(2) 0.19386(9)
H4 H 1.0239 0.3575 0.1827
H5 H 1.1613 0.2881 0.2159
C11 C 1.2202(3) 0.4580(2) 0.20112(9)
H6 H 1.3034 0.4608 0.2277
H7 H 1.1660 0.5301 0.1944
O1B O 0.8972(2) 0.76390(15) -0.09713(6)
N1B N 0.8279(2) 0.58129(17) -0.11319(7)
C1B C 1.0408(3) 0.7098(2) -0.00520(8)
H1B H 1.0419 0.7869 -0.0143
O2B O 0.7138(2) 0.40966(16) -0.12219(6)
C2B C 0.9675(3) 0.63122(19) -0.03589(8)
C3B C 0.9632(3) 0.51699(19) -0.02235(7)
C4B C 0.8864(3) 0.4355(2) -0.05267(8)
C5B C 0.8864(3) 0.3234(2) -0.03930(8)
H2B H 0.8370 0.2687 -0.0603
C6B C 0.8974(3) 0.6664(2) -0.08357(8)
C7B C 0.8014(3) 0.4715(2) -0.09855(8)
O3B O 0.5719(2) 0.72768(17) -0.20202(6)
H3B H 0.4922 0.7631 -0.2008
C8B C 0.7621(3) 0.6174(2) -0.15985(8)
O4B O 0.5572(2) 0.69180(18) -0.12605(7)
C9B C 0.6196(3) 0.6823(2) -0.16038(9)
C10B C 0.8677(3) 0.6487(2) -0.19386(9)
H4B H 0.9761 0.6425 -0.1827
H5B H 0.8387 0.7119 -0.2159
C11B C 0.7798(3) 0.5420(2) -0.20112(9)
H6B H 0.6966 0.5392 -0.2277
H7B H 0.8340 0.4699 -0.1944
C12 C 0.6345(3) 0.3223(2) 0.03013(9)
H8 H 0.6905 0.2654 0.0482
N2 N 0.6645(2) 0.55678(18) 0.11666(7)
O5 O 0.8050(2) 0.39760(16) 0.11585(6)
C13 C 0.6227(3) 0.4283(2) 0.04900(8)
O6 O 0.5724(2) 0.73596(16) 0.11031(6)
C14 C 0.5353(3) 0.51209(19) 0.02317(8)
C15 C 0.5174(3) 0.6200(2) 0.04235(8)
C16 C 0.4357(3) 0.7020(2) 0.01570(9)
H9 H 0.4270 0.7753 0.0285
C17 C 0.7053(3) 0.4567(2) 0.09610(8)
C18 C 0.5840(3) 0.6452(2) 0.09165(8)
C19 C 0.7326(3) 0.5822(2) 0.16430(8)
O7 O 0.9315(2) 0.68696(19) 0.20736(7)
C20 C 0.8689(3) 0.6544(2) 0.16916(9)
O8 O 0.9128(2) 0.67886(18) 0.12852(7)
H10 H 0.9895 0.7195 0.1333
C21 C 0.7244(3) 0.4937(3) 0.20170(9)
H11 H 0.6745 0.4214 0.1918
H12 H 0.8102 0.4872 0.2273
C22 C 0.6293(3) 0.5970(3) 0.20070(9)
H13 H 0.6564 0.6542 0.2256
H14 H 0.5208 0.5884 0.1902
C12B C 0.3655(3) 0.6777(2) -0.03013(9)
H8B H 0.3095 0.7346 -0.0482
N2B N 0.3355(2) 0.44322(18) -0.11666(7)
O5B O 0.1950(2) 0.60240(16) -0.11585(6)
C13B C 0.3773(3) 0.5717(2) -0.04900(8)
O6B O 0.4276(2) 0.26404(16) -0.11031(6)
C14B C 0.4647(3) 0.48791(19) -0.02317(8)
C15B C 0.4826(3) 0.3800(2) -0.04235(8)
C16B C 0.5643(3) 0.2980(2) -0.01570(9)
H9B H 0.5730 0.2247 -0.0285
C17B C 0.2947(3) 0.5433(2) -0.09610(8)
C18B C 0.4160(3) 0.3548(2) -0.09165(8)
C19B C 0.2674(3) 0.4178(2) -0.16430(8)
O7B O 0.0685(2) 0.31304(19) -0.20736(7)
C20B C 0.1311(3) 0.3456(2) -0.16916(9)
O8B O 0.0872(2) 0.32114(18) -0.12852(7)
H10B H 0.0105 0.2805 -0.1333
C21B C 0.2756(3) 0.5063(3) -0.20170(9)
H11B H 0.3255 0.5786 -0.1918
H12B H 0.1898 0.5128 -0.2273
C22B C 0.3707(3) 0.4030(3) -0.20070(9)
H13B H 0.3436 0.3458 -0.2256
H14B H 0.4792 0.4116 -0.1902
S1 S 0.21330(9) 1.03464(6) 0.01016(3)
O9 O 0.2553(3) 0.9214(2) -0.00570(14)
C23 C 0.3789(5) 1.0887(4) 0.04414(15)
H15 H 0.4020 1.0451 0.0733
H16 H 0.3638 1.1681 0.0518
H17 H 0.4620 1.0827 0.0260
C24 C 0.2156(5) 1.1254(4) -0.03980(14)
H18 H 0.1281 1.1099 -0.0633
H19 H 0.3066 1.1116 -0.0536
H20 H 0.2135 1.2043 -0.0297
S2 S 0.68006(10) 1.07158(7) 0.15833(3)
O10 O 0.6303(3) 1.1186(2) 0.20207(8)
C25 C 0.8491(7) 1.1372(4) 0.1529(3)
H21 H 0.8297 1.2121 0.1389
H22 H 0.9037 1.0915 0.1326
H23 H 0.9090 1.1447 0.1841
C26 C 0.7532(4) 0.9360(3) 0.17389(13)
H24 H 0.6731 0.8868 0.1815
H25 H 0.8309 0.9422 0.2014
H26 H 0.7961 0.9039 0.1474
S3 S 1.16632(11) 0.89789(8) 0.17680(3)
O11 O 1.0829(5) 0.8526(4) 0.13151(17)
C27 C 1.2807(5) 1.0069(4) 0.15955(16)
H27 H 1.2177 1.0677 0.1444
H28 H 1.3431 0.9768 0.1374
H29 H 1.3445 1.0367 0.1874
C28 C 1.3165(5) 0.8021(4) 0.19647(18)
H30 H 1.2770 0.7352 0.2105
H31 H 1.3895 0.8395 0.2201
H32 H 1.3650 0.7794 0.1696
C29? C 1.2355(13) 1.0232(7) 0.1720(4)
C30? C 1.2805(13) 0.8011(10) 0.2017(4)
H33? H 1.2322 1.0820 0.1478
H34? H 1.3215 1.0360 0.1964
H35? H 1.1436 1.0258 0.1862
H36? H 1.3010 0.7222 0.1946
H37? H 1.1901 0.8050 0.2167
H38? H 1.3650 0.8320 0.2232
O12? O 1.1004(10) 0.8464(10) 0.1271(4)
S4? S 1.2523(3) 0.8859(2) 0.14525(8)
loop_
_geom_bond_atom_site_label_1
_geom_bond_atom_site_label_2
_geom_bond_site_symmetry_1
_geom_bond_site_symmetry_2
O1 C6 1_555 1_555
N1 C6 1_555 1_555
C1 H1 1_555 1_555
O2 C7 1_555 1_555
C2 C1 1_555 1_555
C3 C2 1_555 1_555
C4 C3 1_555 1_555
C5 C4 1_555 1_555
H2 C5 1_555 1_555
C6 C2 1_555 1_555
C7 N1 1_555 1_555
O3 H3 1_555 1_555
C8 N1 1_555 1_555
O4 C9 1_555 1_555
C9 O3 1_555 1_555
C10 C8 1_555 1_555
H4 C10 1_555 1_555
H5 C10 1_555 1_555
C11 C8 1_555 1_555
H6 C11 1_555 1_555
H7 C11 1_555 1_555
C12 H8 1_555 1_555
N2 C17 1_555 1_555
O5 C17 1_555 1_555
C13 C12 1_555 1_555
O6 C18 1_555 1_555
C14 C13 1_555 1_555
C15 C14 1_555 1_555
C16 C15 1_555 1_555
H9 C16 1_555 1_555
C17 C13 1_555 1_555
C18 N2 1_555 1_555
C19 N2 1_555 1_555
O7 C20 1_555 1_555
C20 C19 1_555 1_555
O8 C20 1_555 1_555
H10 O8 1_555 1_555
C21 C19 1_555 1_555
H11 C21 1_555 1_555
H12 C21 1_555 1_555
C22 C19 1_555 1_555
H13 C22 1_555 1_555
H14 C22 1_555 1_555
S1 O9 1_555 1_555
C23 S1 1_555 1_555
H15 C23 1_555 1_555
H16 C23 1_555 1_555
H17 C23 1_555 1_555
C24 S1 1_555 1_555
H18 C24 1_555 1_555
H19 C24 1_555 1_555
H20 C24 1_555 1_555
S2 O10 1_555 1_555
C25 S2 1_555 1_555
H21 C25 1_555 1_555
H22 C25 1_555 1_555
H23 C25 1_555 1_555
C26 S2 1_555 1_555
H24 C26 1_555 1_555
H25 C26 1_555 1_555
H26 C26 1_555 1_555
S3 O11 1_555 1_555
C27 S3 1_555 1_555
H27 C27 1_555 1_555
H28 C27 1_555 1_555
H29 C27 1_555 1_555
C28 S3 1_555 1_555
H30 C28 1_555 1_555
H31 C28 1_555 1_555
H32 C28 1_555 1_555
O1B C6B 1_555 1_555
N1B C6B 1_555 1_555
C1B C5 1_555 1_555
H1B C1B 1_555 1_555
O2B C7B 1_555 1_555
C2B C1B 1_555 1_555
C3B C3 1_555 1_555
C4B C3B 1_555 1_555
C5B C1 1_555 1_555
H2B C5B 1_555 1_555
C6B C2B 1_555 1_555
C7B N1B 1_555 1_555
O3B H3B 1_555 1_555
C8B N1B 1_555 1_555
O4B C9B 1_555 1_555
C9B O3B 1_555 1_555
C10B C8B 1_555 1_555
H4B C10B 1_555 1_555
H5B C10B 1_555 1_555
C11B C8B 1_555 1_555
H6B C11B 1_555 1_555
H7B C11B 1_555 1_555
C12B C16 1_555 1_555
H8B C12B 1_555 1_555
N2B C17B 1_555 1_555
O5B C17B 1_555 1_555
C13B C12B 1_555 1_555
O6B C18B 1_555 1_555
C14B C14 1_555 1_555
C15B C14B 1_555 1_555
C16B C12 1_555 1_555
H9B C16B 1_555 1_555
C17B C13B 1_555 1_555
C18B N2B 1_555 1_555
C19B N2B 1_555 1_555
O7B C20B 1_555 1_555
C20B C19B 1_555 1_555
O8B C20B 1_555 1_555
H10B O8B 1_555 1_555
C21B C19B 1_555 1_555
H11B C21B 1_555 1_555
H12B C21B 1_555 1_555
C22B C19B 1_555 1_555
H13B C22B 1_555 1_555
H14B C22B 1_555 1_555
C4 C7 1_555 1_555
C8 C9 1_555 1_555
C10 C11 1_555 1_555
C15 C18 1_555 1_555
C21 C22 1_555 1_555
C2B C3B 1_555 1_555
C4B C5B 1_555 1_555
C4B C7B 1_555 1_555
C8B C9B 1_555 1_555
C10B C11B 1_555 1_555
C13B C14B 1_555 1_555
C15B C16B 1_555 1_555
C15B C18B 1_555 1_555
C21B C22B 1_555 1_555

#END
