
#######################################################################
#
#                 Cambridge Crystallographic Data Centre
#                                CCDC 
#
#######################################################################
#
# If this CIF has been generated from an entry in the Cambridge 
# Structural Database, then it will include bibliographic, chemical, 
# crystal, experimental, refinement or atomic coordinate data resulting 
# from the CCDC's data processing and validation procedures.
#
#######################################################################

data_TADNES
_chemical_formula_moiety         'C29 H19 N1 O3'
_chemical_name_systematic        
4',5a'-Diphenyl-10-oxospiro(phenanthrene(9,2')oxeto(5,4-b)oxazole)
_symmetry_cell_setting           triclinic
_symmetry_space_group_name_H-M   'P -1'
_symmetry_Int_Tables_number      2
_space_group_name_Hall           '-P 1'
loop_
_symmetry_equiv_pos_site_id
_symmetry_equiv_pos_as_xyz
1 x,y,z
2 -x,-y,-z
_cell_length_a                   8.3475(4)
_cell_length_b                   11.8671(6)
_cell_length_c                   11.9106(6)
_cell_angle_alpha                74.1480(10)
_cell_angle_beta                 89.7360(10)
_cell_angle_gamma                72.3440(10)
_cell_volume                     1077.59
_exptl_crystal_colour            yellow
_exptl_crystal_description       block
_chemical_melting_point          466.0K
_cell_formula_units_Z            2
_exptl_crystal_recrystallization_method 'petroleum ether-acetone'
loop_
_atom_site_label
_atom_site_type_symbol
_atom_site_fract_x
_atom_site_fract_y
_atom_site_fract_z
O1 O 1.08581(13) 0.64435(8) 0.98562(8)
O2 O 0.90521(13) 0.66549(9) 0.82385(9)
O3 O 0.85720(19) 0.78044(15) 0.58936(11)
N1 N 0.97931(14) 0.85379(10) 0.93414(10)
C1 C 0.98666(17) 0.81986(13) 0.82579(12)
C2 C 1.03276(16) 0.75302(12) 1.01582(11)
C3 C 1.06025(17) 0.67794(12) 0.85985(11)
C4 C 1.21255(18) 0.60787(12) 0.81193(12)
C5 C 1.3727(2) 0.59056(17) 0.85888(15)
C6 C 1.5136(2) 0.5288(2) 0.81309(18)
C7 C 1.4954(3) 0.48210(18) 0.72151(17)
C8 C 1.3372(2) 0.50072(17) 0.67356(16)
C9 C 1.1951(2) 0.56434(14) 0.71752(14)
C10 C 1.04697(16) 0.73900(13) 1.14238(12)
C11 C 1.0550(2) 0.83739(15) 1.18159(14)
C12 C 1.0688(2) 0.82331(18) 1.30035(15)
C13 C 1.0712(2) 0.71390(19) 1.37997(15)
C14 C 1.0635(3) 0.61655(19) 1.34128(15)
C15 C 1.0529(2) 0.62783(16) 1.22244(14)
C16 C 0.82167(18) 0.79788(14) 0.78354(12)
C17 C 0.79287(19) 0.84497(17) 0.65087(14)
C18 C 0.69292(19) 0.97626(16) 0.60449(13)
C19 C 0.7150(3) 1.0433(2) 0.49258(16)
C20 C 0.6258(3) 1.1661(2) 0.4495(2)
C21 C 0.5138(3) 1.2228(2) 0.5172(2)
C22 C 0.4880(3) 1.15793(19) 0.62716(19)
C23 C 0.57677(19) 1.03246(15) 0.67361(14)
C24 C 0.54650(18) 0.95677(15) 0.78832(14)
C25 C 0.4010(2) 0.9967(2) 0.84388(18)
C26 C 0.3734(3) 0.9247(2) 0.9491(2)
C27 C 0.4883(3) 0.8113(2) 1.00138(18)
C28 C 0.6343(2) 0.76805(18) 0.94782(15)
C29 C 0.66309(18) 0.84068(15) 0.84179(13)
H1 H 1.0359(18) 0.8693(13) 0.7644(13)
H2 H 1.386(2) 0.6223(17) 0.9221(17)
H3 H 1.625(3) 0.520(2) 0.8462(19)
H4 H 1.589(3) 0.4390(19) 0.6928(18)
H5 H 1.324(3) 0.4689(18) 0.6075(19)
H6 H 1.081(2) 0.5797(16) 0.6823(16)
H7 H 1.050(2) 0.9136(17) 1.1238(16)
H8 H 1.073(2) 0.8896(18) 1.3272(17)
H9 H 1.079(2) 0.7062(17) 1.4609(18)
H10 H 1.071(3) 0.534(2) 1.4001(19)
H11 H 1.049(2) 0.5582(18) 1.1932(17)
H12 H 0.790(2) 0.9980(18) 0.4487(17)
H13 H 0.642(3) 1.211(2) 0.372(2)
H14 H 0.452(3) 1.312(2) 0.485(2)
H15 H 0.403(3) 1.199(2) 0.672(2)
H16 H 0.316(3) 1.078(2) 0.8064(19)
H17 H 0.275(3) 0.953(2) 0.9878(19)
H18 H 0.472(3) 0.759(2) 1.075(2)
H19 H 0.715(2) 0.6907(17) 0.9787(15)
loop_
_geom_bond_atom_site_label_1
_geom_bond_atom_site_label_2
_geom_bond_site_symmetry_1
_geom_bond_site_symmetry_2
O1 C2 1_555 1_555
O2 C3 1_555 1_555
O3 C17 1_555 1_555
N1 C1 1_555 1_555
C1 C3 1_555 1_555
C2 N1 1_555 1_555
C3 O1 1_555 1_555
C4 C3 1_555 1_555
C5 C4 1_555 1_555
C6 C5 1_555 1_555
C7 C6 1_555 1_555
C8 C7 1_555 1_555
C9 C4 1_555 1_555
C10 C2 1_555 1_555
C11 C10 1_555 1_555
C12 C11 1_555 1_555
C13 C12 1_555 1_555
C14 C13 1_555 1_555
C15 C10 1_555 1_555
C16 O2 1_555 1_555
C17 C16 1_555 1_555
C18 C17 1_555 1_555
C19 C18 1_555 1_555
C20 C19 1_555 1_555
C21 C20 1_555 1_555
C22 C21 1_555 1_555
C23 C18 1_555 1_555
C24 C23 1_555 1_555
C25 C24 1_555 1_555
C26 C25 1_555 1_555
C27 C26 1_555 1_555
C28 C27 1_555 1_555
C29 C16 1_555 1_555
H1 C1 1_555 1_555
H2 C5 1_555 1_555
H3 C6 1_555 1_555
H4 C7 1_555 1_555
H5 C8 1_555 1_555
H6 C9 1_555 1_555
H7 C11 1_555 1_555
H8 C12 1_555 1_555
H9 C13 1_555 1_555
H10 C14 1_555 1_555
H11 C15 1_555 1_555
H12 C19 1_555 1_555
H13 C20 1_555 1_555
H14 C21 1_555 1_555
H15 C22 1_555 1_555
H16 C25 1_555 1_555
H17 C26 1_555 1_555
H18 C27 1_555 1_555
H19 C28 1_555 1_555
C1 C16 1_555 1_555
C8 C9 1_555 1_555
C14 C15 1_555 1_555
C22 C23 1_555 1_555
C24 C29 1_555 1_555
C28 C29 1_555 1_555

#END
