
#######################################################################
#
#                 Cambridge Crystallographic Data Centre
#                                CCDC 
#
#######################################################################
#
# If this CIF has been generated from an entry in the Cambridge 
# Structural Database, then it will include bibliographic, chemical, 
# crystal, experimental, refinement or atomic coordinate data resulting 
# from the CCDC's data processing and validation procedures.
#
#######################################################################

data_TADQUM
_chemical_formula_moiety         'C12 H8 N14 Si1,0.5(C2 H3 N1)'
_chemical_name_systematic        
"tetrakis(Azido)-(1,10-phenanthroline-N,N')-silicon acetonitrile solvate"
_symmetry_cell_setting           monoclinic
_symmetry_space_group_name_H-M   'I 2/a'
_symmetry_Int_Tables_number      15
_space_group_name_Hall           '-I 2ya'
loop_
_symmetry_equiv_pos_site_id
_symmetry_equiv_pos_as_xyz
1 x,y,z
2 1/2-x,y,-z
3 1/2+x,1/2+y,1/2+z
4 -x,1/2+y,1/2-z
5 -x,-y,-z
6 1/2+x,-y,z
7 1/2-x,1/2-y,1/2-z
8 x,1/2-y,1/2+z
_cell_length_a                   18.053(4)
_cell_length_b                   10.1493(17)
_cell_length_c                   19.438(4)
_cell_angle_alpha                90
_cell_angle_beta                 103.97(2)
_cell_angle_gamma                90
_cell_volume                     3456.19
_exptl_crystal_colour            colorless
_exptl_crystal_description       rhombus
_chemical_melting_point          '499 K (dec.)'
_cell_formula_units_Z            8
_chemical_properties_physical    moisture-sensitive
_exptl_crystal_recrystallization_method acetonitrile
loop_
_atom_site_label
_atom_site_type_symbol
_atom_site_fract_x
_atom_site_fract_y
_atom_site_fract_z
C1 C 0.10542(8) 0.74908(14) 0.33690(7)
H1 H 0.1518(9) 0.7630(16) 0.3219(8)
C2 C 0.09904(9) 0.76495(15) 0.40681(7)
H2 H 0.1444(11) 0.7963(19) 0.4413(10)
C3 C 0.03154(9) 0.73805(14) 0.42466(7)
H3 H 0.0280(10) 0.7457(17) 0.4713(10)
C4 C -0.03117(8) 0.69499(13) 0.37185(7)
C5 C -0.10528(9) 0.66578(15) 0.38273(8)
H4 H -0.1135(10) 0.6744(17) 0.4285(10)
C6 C -0.16278(8) 0.62580(16) 0.32878(8)
H5 H -0.2125(11) 0.6073(17) 0.3352(9)
C7 C -0.15241(8) 0.61137(14) 0.25797(7)
C8 C -0.20916(8) 0.57417(15) 0.19807(8)
H6 H -0.2592(12) 0.5552(19) 0.2039(10)
C9 C -0.19204(8) 0.56935(15) 0.13319(8)
H7 H -0.2279(11) 0.5482(18) 0.0908(10)
C10 C -0.11808(8) 0.59792(14) 0.12649(7)
H8 H -0.1039(9) 0.5952(15) 0.0817(9)
C11 C -0.02017(7) 0.68083(12) 0.30356(7)
C12 C -0.08024(7) 0.63876(12) 0.24681(7)
N1 N 0.04705(6) 0.70705(10) 0.28603(5)
N2 N -0.06275(6) 0.63050(11) 0.18263(5)
N3 N 0.06229(7) 0.49168(11) 0.21183(6)
N4 N 0.10823(6) 0.45952(11) 0.26577(6)
N5 N 0.15009(7) 0.42354(13) 0.31596(7)
N6 N 0.03123(7) 0.62777(12) 0.09295(6)
N7 N 0.07130(7) 0.54825(12) 0.07233(6)
N8 N 0.10711(9) 0.47623(16) 0.04914(7)
N9 N 0.14888(6) 0.70018(13) 0.20602(6)
N10 N 0.17676(7) 0.74881(13) 0.16150(7)
N11 N 0.20605(9) 0.7913(2) 0.12097(10)
N12 N 0.02122(6) 0.84251(11) 0.16787(6)
N13 N -0.01719(7) 0.87706(11) 0.11030(6)
N14 N -0.05280(9) 0.91695(14) 0.05830(7)
Si1 Si 0.045680(19) 0.66811(3) 0.186892(17)
C13 C 0.2500 0.1421(2) 0.0000
C14 C 0.2500 0.0000(3) 0.0000
N15 N 0.2500 0.2535(2) 0.0000
H9? H 0.1980 -0.0322 -0.0035
H10? H 0.2838 -0.0322 0.0440
H11? H 0.2681 -0.0322 -0.0406
loop_
_geom_bond_atom_site_label_1
_geom_bond_atom_site_label_2
_geom_bond_site_symmetry_1
_geom_bond_site_symmetry_2
C1 H1 1_555 1_555
C2 C1 1_555 1_555
H2 C2 1_555 1_555
C3 C2 1_555 1_555
H3 C3 1_555 1_555
C4 C3 1_555 1_555
C5 C4 1_555 1_555
H4 C5 1_555 1_555
C6 C5 1_555 1_555
H5 C6 1_555 1_555
C7 C6 1_555 1_555
C8 C7 1_555 1_555
H6 C8 1_555 1_555
C9 C8 1_555 1_555
H7 C9 1_555 1_555
C10 C9 1_555 1_555
H8 C10 1_555 1_555
C11 C4 1_555 1_555
C12 C7 1_555 1_555
C13 C14 1_555 1_555
N1 C1 1_555 1_555
N2 C10 1_555 1_555
N3 N4 1_555 1_555
N4 N5 1_555 1_555
N6 N7 1_555 1_555
N7 N8 1_555 1_555
N9 N10 1_555 1_555
N10 N11 1_555 1_555
N12 N13 1_555 1_555
N13 N14 1_555 1_555
N15 C13 1_555 1_555
Si1 N1 1_555 1_555
C11 C12 1_555 1_555
C11 N1 1_555 1_555
C12 N2 1_555 1_555
N2 Si1 1_555 1_555
N3 Si1 1_555 1_555
N6 Si1 1_555 1_555
N9 Si1 1_555 1_555
N12 Si1 1_555 1_555

#END
