
#######################################################################
#
#                 Cambridge Crystallographic Data Centre
#                                CCDC 
#
#######################################################################
#
# If this CIF has been generated from an entry in the Cambridge 
# Structural Database, then it will include bibliographic, chemical, 
# crystal, experimental, refinement or atomic coordinate data resulting 
# from the CCDC's data processing and validation procedures.
#
#######################################################################

data_TADSEY
_chemical_formula_moiety         'C27 H22 Br1 N1 O2'
_chemical_name_systematic        
(3R,8aS)-3-(4-Bromophenyl)-2,4-diphenyl-2,3,6,7,8,8a-hexahydrofuro[4,3,2-de][1,2]benzoxazine
_symmetry_cell_setting           monoclinic
_symmetry_space_group_name_H-M   'P 21'
_symmetry_Int_Tables_number      4
_space_group_name_Hall           'P 2yb'
loop_
_symmetry_equiv_pos_site_id
_symmetry_equiv_pos_as_xyz
1 x,y,z
2 -x,1/2+y,-z
_cell_length_a                   11.0772(6)
_cell_length_b                   9.6492(5)
_cell_length_c                   20.8264(11)
_cell_angle_alpha                90
_cell_angle_beta                 93.249(2)
_cell_angle_gamma                90
_cell_volume                     2222.48
_exptl_crystal_colour            colorless
_exptl_crystal_description       block
_cell_formula_units_Z            4
loop_
_atom_site_label
_atom_site_type_symbol
_atom_site_fract_x
_atom_site_fract_y
_atom_site_fract_z
Br1 Br 0.73699(7) 0.88556(9) 0.92754(4)
N1 N 1.2536(3) 0.8803(5) 1.12689(18)
O1 O 1.2104(3) 1.0191(3) 1.13932(16)
O2 O 1.0253(3) 0.8099(4) 1.29582(17)
C1 C 0.9049(6) 0.5558(8) 1.2859(3)
H1 H 0.9048 0.6063 1.3240
C2 C 0.8383(7) 0.4359(8) 1.2798(4)
H2 H 0.7918 0.4079 1.3133
C3 C 0.8394(6) 0.3569(8) 1.2252(4)
H3 H 0.7970 0.2738 1.2223
C4 C 0.9029(6) 0.4012(7) 1.1758(3)
H4 H 0.9023 0.3496 1.1381
C5 C 0.9689(6) 0.5231(6) 1.1808(3)
H5 H 1.0121 0.5524 1.1462
C6 C 0.9715(4) 0.6020(6) 1.2365(2)
C7 C 0.9565(5) 0.9033(6) 1.0957(2)
H6 H 0.9591 0.9519 1.1343
C8 C 0.8633(5) 0.9282(6) 1.0488(3)
H7 H 0.8036 0.9936 1.0554
C9 C 0.8627(5) 0.8524(6) 0.9924(3)
C10 C 0.9484(5) 0.7579(6) 0.9806(3)
H8 H 0.9459 0.7088 0.9421
C11 C 1.0394(5) 0.7361(6) 1.0270(3)
H9 H 1.0994 0.6717 1.0194
C12 C 1.0445(4) 0.8066(6) 1.0843(2)
C13 C 1.3632(5) 0.7621(7) 1.0467(3)
H10 H 1.3764 0.6907 1.0762
C14 C 1.4081(6) 0.7511(9) 0.9862(4)
H11 H 1.4524 0.6736 0.9753
C15 C 1.3868(8) 0.8548(12) 0.9427(4)
H12 H 1.4137 0.8468 0.9014
C16 C 1.3269(8) 0.9681(11) 0.9598(3)
H13 H 1.3146 1.0392 0.9300
C17 C 1.2824(5) 0.9832(8) 1.0206(3)
H14 H 1.2423 1.0638 1.0315
C18 C 1.2984(4) 0.8787(7) 1.0638(2)
C19 C 1.1711(6) 1.1694(7) 1.2309(3)
H15 H 1.0907 1.1827 1.2108
H16 H 1.2217 1.2458 1.2185
C20 C 1.1648(6) 1.1655(8) 1.3046(3)
H17 H 1.2461 1.1524 1.3235
H18 H 1.1367 1.2551 1.3188
C21 C 1.0829(6) 1.0526(7) 1.3310(3)
H19 H 1.1071 1.0328 1.3756
H20 H 0.9995 1.0837 1.3289
C22 C 1.0952(5) 0.9243(6) 1.2905(2)
C23 C 1.1530(4) 0.9193(6) 1.2357(2)
C24 C 1.2235(5) 1.0333(6) 1.2088(2)
H21 H 1.3088 1.0258 1.2236
C25 C 1.1486(4) 0.7819(5) 1.1337(2)
H22 H 1.1781 0.6872 1.1281
C26 C 1.1153(4) 0.7977(6) 1.2023(2)
C27 C 1.0393(5) 0.7305(6) 1.2411(2)
Br2 Br 0.21658(7) 0.98612(8) 0.53541(4)
N2 N 0.7507(4) 1.0253(4) 0.3782(2)
O3 O 0.7042(3) 0.8963(4) 0.35126(17)
O4 O 0.5286(3) 1.1784(5) 0.20569(16)
C28 C 0.4378(6) 1.4453(7) 0.2280(3)
H23 H 0.4559 1.4225 0.1862
C29 C 0.3720(6) 1.5653(9) 0.2393(4)
H24 H 0.3472 1.6218 0.2048
C30 C 0.3438(6) 1.6009(8) 0.2991(3)
H25 H 0.2989 1.6802 0.3063
C31 C 0.3834(6) 1.5165(8) 0.3492(3)
H26 H 0.3652 1.5402 0.3908
C32 C 0.4484(6) 1.3989(8) 0.3396(3)
H27 H 0.4742 1.3447 0.3746
C33 C 0.4764(4) 1.3597(6) 0.2786(2)
C34 C 0.4590(4) 0.9949(6) 0.3929(3)
H28 H 0.4663 0.9525 0.3533
C35 C 0.3629(5) 0.9614(7) 0.4289(3)
H29 H 0.3052 0.8973 0.4139
C36 C 0.3542(5) 1.0242(6) 0.4870(3)
C37 C 0.4360(6) 1.1199(8) 0.5097(3)
H30 H 0.4264 1.1637 0.5489
C38 C 0.5342(6) 1.1514(7) 0.4736(3)
H31 H 0.5925 1.2139 0.4894
C39 C 0.5452(4) 1.0907(5) 0.4146(2)
C40 C 0.8526(6) 1.1093(7) 0.4751(3)
H32 H 0.8551 1.1966 0.4563
C41 C 0.9016(6) 1.0882(8) 0.5373(3)
H33 H 0.9349 1.1631 0.5602
C42 C 0.9022(6) 0.9615(9) 0.5656(3)
H34 H 0.9333 0.9494 0.6077
C43 C 0.8561(8) 0.8529(8) 0.5308(3)
H35 H 0.8585 0.7645 0.5486
C44 C 0.8057(6) 0.8721(8) 0.4694(3)
H36 H 0.7748 0.7961 0.4465
C45 C 0.8003(4) 0.9995(6) 0.4418(2)
C46 C 0.6516(6) 0.7906(7) 0.2462(3)
H37 H 0.6954 0.7050 0.2550
H38 H 0.5701 0.7794 0.2602
C47 C 0.6473(6) 0.8211(8) 0.1746(3)
H39 H 0.6108 0.7424 0.1520
H40 H 0.7297 0.8293 0.1615
C48 C 0.5776(6) 0.9528(8) 0.1530(3)
H41 H 0.6088 0.9883 0.1136
H42 H 0.4926 0.9314 0.1448
C49 C 0.5925(5) 1.0566(6) 0.2042(3)
C50 C 0.6494(4) 1.0374(6) 0.2626(3)
C51 C 0.7140(5) 0.9092(7) 0.2830(3)
H43 H 0.7992 0.9148 0.2728
C52 C 0.6500(4) 1.1305(5) 0.3738(2)
H44 H 0.6825 1.2196 0.3893
C53 C 0.6148(4) 1.1441(6) 0.3039(2)
C54 C 0.5409(4) 1.2286(6) 0.2677(2)
loop_
_geom_bond_atom_site_label_1
_geom_bond_atom_site_label_2
_geom_bond_site_symmetry_1
_geom_bond_site_symmetry_2
Br1 C9 1_555 1_555
Br2 C36 1_555 1_555
N1 O1 1_555 1_555
N2 O3 1_555 1_555
O1 C24 1_555 1_555
O2 C22 1_555 1_555
O3 C51 1_555 1_555
O4 C49 1_555 1_555
C1 H1 1_555 1_555
C2 C1 1_555 1_555
H2 C2 1_555 1_555
C3 C2 1_555 1_555
H3 C3 1_555 1_555
C4 C3 1_555 1_555
H4 C4 1_555 1_555
C5 C4 1_555 1_555
H5 C5 1_555 1_555
C6 C1 1_555 1_555
C7 H6 1_555 1_555
C8 C7 1_555 1_555
H7 C8 1_555 1_555
C9 C8 1_555 1_555
C10 C9 1_555 1_555
H8 C10 1_555 1_555
C11 C10 1_555 1_555
H9 C11 1_555 1_555
C12 C7 1_555 1_555
C13 H10 1_555 1_555
C14 C13 1_555 1_555
H11 C14 1_555 1_555
C15 C14 1_555 1_555
H12 C15 1_555 1_555
C16 C15 1_555 1_555
H13 C16 1_555 1_555
C17 C16 1_555 1_555
H14 C17 1_555 1_555
C18 N1 1_555 1_555
C19 H15 1_555 1_555
H16 C19 1_555 1_555
C20 C19 1_555 1_555
H17 C20 1_555 1_555
H18 C20 1_555 1_555
C21 C20 1_555 1_555
H19 C21 1_555 1_555
H20 C21 1_555 1_555
C22 C21 1_555 1_555
C23 C22 1_555 1_555
C24 C19 1_555 1_555
H21 C24 1_555 1_555
C25 N1 1_555 1_555
H22 C25 1_555 1_555
C26 C23 1_555 1_555
C27 O2 1_555 1_555
C28 H23 1_555 1_555
C29 C28 1_555 1_555
H24 C29 1_555 1_555
C30 C29 1_555 1_555
H25 C30 1_555 1_555
C31 C30 1_555 1_555
H26 C31 1_555 1_555
C32 C31 1_555 1_555
H27 C32 1_555 1_555
C33 C28 1_555 1_555
C34 H28 1_555 1_555
C35 C34 1_555 1_555
H29 C35 1_555 1_555
C36 C35 1_555 1_555
C37 C36 1_555 1_555
H30 C37 1_555 1_555
C38 C37 1_555 1_555
H31 C38 1_555 1_555
C39 C34 1_555 1_555
C40 H32 1_555 1_555
C41 C40 1_555 1_555
H33 C41 1_555 1_555
C42 C41 1_555 1_555
H34 C42 1_555 1_555
C43 C42 1_555 1_555
H35 C43 1_555 1_555
C44 C43 1_555 1_555
H36 C44 1_555 1_555
C45 N2 1_555 1_555
C46 H37 1_555 1_555
H38 C46 1_555 1_555
C47 C46 1_555 1_555
H39 C47 1_555 1_555
H40 C47 1_555 1_555
C48 C47 1_555 1_555
H41 C48 1_555 1_555
H42 C48 1_555 1_555
C49 C48 1_555 1_555
C50 C49 1_555 1_555
C51 C46 1_555 1_555
H43 C51 1_555 1_555
C52 N2 1_555 1_555
H44 C52 1_555 1_555
C53 C50 1_555 1_555
C54 O4 1_555 1_555
C5 C6 1_555 1_555
C6 C27 1_555 1_555
C11 C12 1_555 1_555
C12 C25 1_555 1_555
C13 C18 1_555 1_555
C17 C18 1_555 1_555
C23 C24 1_555 1_555
C25 C26 1_555 1_555
C26 C27 1_555 1_555
C32 C33 1_555 1_555
C33 C54 1_555 1_555
C38 C39 1_555 1_555
C39 C52 1_555 1_555
C40 C45 1_555 1_555
C44 C45 1_555 1_555
C50 C51 1_555 1_555
C52 C53 1_555 1_555
C53 C54 1_555 1_555

#END
