
#######################################################################
#
#                 Cambridge Crystallographic Data Centre
#                                CCDC 
#
#######################################################################
#
# If this CIF has been generated from an entry in the Cambridge 
# Structural Database, then it will include bibliographic, chemical, 
# crystal, experimental, refinement or atomic coordinate data resulting 
# from the CCDC's data processing and validation procedures.
#
#######################################################################

data_TADTUQ
_chemical_formula_moiety         'C11 H10 N3 1+,H2 O1,Br1 1-'
_chemical_name_systematic        
"6H-dipyrido[1,2-a:2',1'-d][1,3,5]triazin-5-ium bromide monohydrate"
_symmetry_cell_setting           monoclinic
_symmetry_space_group_name_H-M   'P 21/c'
_symmetry_Int_Tables_number      14
_space_group_name_Hall           '-P 2ybc'
loop_
_symmetry_equiv_pos_site_id
_symmetry_equiv_pos_as_xyz
1 x,y,z
2 -x,1/2+y,1/2-z
3 -x,-y,-z
4 x,1/2-y,1/2+z
_cell_length_a                   5.4965(5)
_cell_length_b                   11.9528(10)
_cell_length_c                   17.7702(18)
_cell_angle_alpha                90
_cell_angle_beta                 95.354(3)
_cell_angle_gamma                90
_cell_volume                     1162.38
_exptl_crystal_colour            yellow
_exptl_crystal_description       block
_cell_formula_units_Z            4
loop_
_atom_site_label
_atom_site_type_symbol
_atom_site_fract_x
_atom_site_fract_y
_atom_site_fract_z
Br1 Br 0.93554(8) 0.66573(3) 0.26282(2)
C1 C 0.5912(8) 0.0190(3) 0.3352(2)
H1 H 0.7233 0.0375 0.3085
C2 C 0.4882(8) -0.0834(3) 0.3270(3)
H2 H 0.5507 -0.1368 0.2960
C3 C 0.2855(8) -0.1071(3) 0.3663(3)
H3 H 0.2094 -0.1764 0.3600
C4 C 0.1982(7) -0.0316(3) 0.4131(2)
H4 H 0.0655 -0.0500 0.4395
C5 C 0.3060(7) 0.0751(3) 0.4225(2)
C6 C 0.5855(8) 0.2109(3) 0.3795(2)
H5 H 0.7528 0.2125 0.3663
H6 H 0.4843 0.2518 0.3412
C7 C 0.3739(7) 0.2364(3) 0.4914(2)
C8 C 0.3438(8) 0.3013(3) 0.5566(2)
H7 H 0.2089 0.2889 0.5834
C9 C 0.5064(8) 0.3803(3) 0.5803(3)
H8 H 0.4842 0.4212 0.6236
C10 C 0.7098(8) 0.4018(3) 0.5402(3)
H9 H 0.8238 0.4559 0.5571
C11 C 0.7370(8) 0.3432(3) 0.4771(3)
H10 H 0.8696 0.3576 0.4496
N1 N 0.2284(6) 0.1499(3) 0.47091(19)
N2 N 0.5713(5) 0.2625(2) 0.45281(19)
N3 N 0.5015(5) 0.0957(2) 0.38257(18)
H11 H 0.978(11) 0.454(3) 0.311(3)
H12 H 1.068(9) 0.351(2) 0.305(2)
O1 O 1.0672(10) 0.4049(3) 0.3351(2)
loop_
_geom_bond_atom_site_label_1
_geom_bond_atom_site_label_2
_geom_bond_site_symmetry_1
_geom_bond_site_symmetry_2
C1 H1 1_555 1_555
C2 C1 1_555 1_555
H2 C2 1_555 1_555
C3 C2 1_555 1_555
H3 C3 1_555 1_555
C4 C3 1_555 1_555
H4 C4 1_555 1_555
C5 C4 1_555 1_555
C6 H5 1_555 1_555
H6 C6 1_555 1_555
C7 C8 1_555 1_555
C8 H7 1_555 1_555
C9 C8 1_555 1_555
H8 C9 1_555 1_555
C10 C9 1_555 1_555
H9 C10 1_555 1_555
C11 C10 1_555 1_555
H10 C11 1_555 1_555
N1 C5 1_555 1_555
N2 C6 1_555 1_555
N3 C1 1_555 1_555
H11 O1 1_555 1_555
H12 O1 1_555 1_555
C5 N3 1_555 1_555
C6 N3 1_555 1_555
C7 N1 1_555 1_555
C7 N2 1_555 1_555
C11 N2 1_555 1_555

#END
