
#######################################################################
#
#                 Cambridge Crystallographic Data Centre
#                                CCDC 
#
#######################################################################
#
# If this CIF has been generated from an entry in the Cambridge 
# Structural Database, then it will include bibliographic, chemical, 
# crystal, experimental, refinement or atomic coordinate data resulting 
# from the CCDC's data processing and validation procedures.
#
#######################################################################

data_TADVUQ
_chemical_formula_moiety         'C32 H46 O19'
_chemical_name_systematic        
4,4'-Di-O-isobutyroyl-2,2',3,3',6,6'-hexa-O-acetyl-\a,\a'-trehalose
_symmetry_cell_setting           tetragonal
_symmetry_space_group_name_H-M   'P 41 21 2'
_symmetry_Int_Tables_number      92
_space_group_name_Hall           'P 4abw 2nw'
loop_
_symmetry_equiv_pos_site_id
_symmetry_equiv_pos_as_xyz
1 x,y,z
2 -x,-y,1/2+z
3 1/2+x,1/2-y,3/4-z
4 1/2-x,1/2+y,1/4-z
5 -y,-x,1/2-z
6 y,x,-z
7 1/2+y,1/2-x,3/4+z
8 1/2-y,1/2+x,1/4+z
_cell_length_a                   14.9188(9)
_cell_length_b                   14.9188(9)
_cell_length_c                   17.8355(6)
_cell_angle_alpha                90
_cell_angle_beta                 90
_cell_angle_gamma                90
_cell_volume                     3969.66
_exptl_crystal_colour            colorless
_exptl_crystal_description       lozenge
_chemical_melting_point          '397-399 K'
_cell_formula_units_Z            4
_exptl_crystal_recrystallization_method ethanol
loop_
_atom_site_label
_atom_site_type_symbol
_atom_site_fract_x
_atom_site_fract_y
_atom_site_fract_z
O1 O 0.50423(15) 0.49577(15) 0.2500
O2 O 0.53377(18) 0.59905(16) 0.12323(12)
O3 O 0.6641(2) 0.5604(2) 0.07028(16)
O4 O 0.38070(17) 0.5479(2) 0.04240(12)
O5 O 0.50504(16) 0.36524(16) 0.17855(11)
O6 O 0.2879(4) 0.6402(3) 0.09708(18)
O7 O 0.27419(17) 0.4091(2) 0.12429(14)
O8 O 0.2417(4) 0.4346(6) 0.0022(3)
O10 O 0.4099(2) 0.2209(2) 0.24749(17)
O11 O 0.5227(6) 0.1458(4) 0.2006(4)
C1 C 0.5363(2) 0.4538(2) 0.18394(16)
H1 H 0.6033 0.4535 0.1848
C2 C 0.5048(2) 0.5074(2) 0.11790(17)
H2 H 0.5301 0.4805 0.0711
C3 C 0.4035(2) 0.5066(3) 0.11277(16)
H3 H 0.3768 0.5409 0.1554
C4 C 0.3701(3) 0.4107(3) 0.11322(19)
H4 H 0.3857 0.3807 0.0648
C5 C 0.4093(3) 0.3583(3) 0.17849(19)
H5 H 0.3854 0.3833 0.2265
C6 C 0.3892(4) 0.2603(3) 0.1750(2)
H6 H 0.3251 0.2509 0.1629
H7 H 0.4258 0.2316 0.1354
C7 C 0.4792(5) 0.1653(4) 0.2532(4)
C8 C 0.4942(6) 0.1368(5) 0.3333(4)
H8 H 0.5523 0.1067 0.3375
H9 H 0.4465 0.0955 0.3485
H10 H 0.4935 0.1897 0.3659
C9 C 0.6160(3) 0.6164(3) 0.09627(19)
C10 C 0.6376(4) 0.7134(3) 0.1029(3)
H11 H 0.7027 0.7217 0.1002
H12 H 0.6155 0.7361 0.1511
H13 H 0.6089 0.7464 0.0619
C11 C 0.3225(3) 0.6138(4) 0.0423(2)
C12 C 0.3098(4) 0.6506(4) -0.0354(2)
H14 H 0.2572 0.6899 -0.0362
H15 H 0.3010 0.6010 -0.0706
H16 H 0.3631 0.6849 -0.0499
C13 C 0.2166(7) 0.4251(8) 0.0653(6)
C14 C 0.1234(9) 0.4089(16) 0.0918(9)
H17 H 0.1051 0.4699 0.1093
C15 C 0.0616(8) 0.3944(13) 0.0264(7)
H18 H -0.0001 0.3881 0.0445
H19 H 0.0792 0.3398 -0.0004
H20 H 0.0653 0.4458 -0.0077
C16 C 0.1064(7) 0.3555(10) 0.1568(6)
H21 H 0.0420 0.3552 0.1675
H22 H 0.1388 0.3807 0.1997
H23 H 0.1269 0.2940 0.1478
C1D C 0.5462(2) 0.4637(2) 0.31606(16)
O5D O 0.63476(16) 0.49496(16) 0.32145(11)
C5D C 0.6417(3) 0.5907(3) 0.32151(19)
C4D C 0.5893(3) 0.6299(3) 0.38678(19)
O7D O 0.5909(2) 0.72581(17) 0.37571(14)
C13D C 0.5749(8) 0.7834(7) 0.4347(6)
O8D O 0.5654(6) 0.7583(4) 0.4978(3)
C14D C 0.5911(16) 0.8766(9) 0.4082(9)
H17D H 0.5301 0.8949 0.3907
C15D C 0.6056(13) 0.9384(8) 0.4736(7)
H18D H 0.6119 1.0001 0.4555
H19D H 0.6602 0.9208 0.5004
H20D H 0.5542 0.9347 0.5077
C16D C 0.6445(10) 0.8936(7) 0.3432(6)
H21D H 0.6448 0.9580 0.3325
H22D H 0.6193 0.8612 0.3003
H23D H 0.7060 0.8731 0.3522
C3D C 0.4934(3) 0.5965(2) 0.38723(16)
O4D O 0.4521(2) 0.61930(17) 0.45760(12)
C11D C 0.3862(4) 0.6775(3) 0.4577(2)
O6D O 0.3598(3) 0.7121(4) 0.40292(18)
C12D C 0.3494(4) 0.6902(4) 0.5354(2)
H14D H 0.3101 0.7428 0.5362
H15D H 0.3990 0.6990 0.5706
H16D H 0.3151 0.6369 0.5499
C2D C 0.4926(2) 0.4952(2) 0.38210(17)
O2D O 0.40095(16) 0.46623(18) 0.37677(12)
C9D C 0.3836(3) 0.3840(3) 0.40373(19)
O3D O 0.4396(2) 0.3359(2) 0.42972(16)
C10D C 0.2866(3) 0.3624(4) 0.3971(3)
H11D H 0.2783 0.2973 0.3998
H12D H 0.2639 0.3845 0.3489
H13D H 0.2536 0.3911 0.4381
H1D H 0.5465 0.3967 0.3152
H2D H 0.5195 0.4699 0.4289
H3D H 0.4591 0.6232 0.3446
H4D H 0.6193 0.6143 0.4352
H5D H 0.6167 0.6146 0.2735
C6D C 0.7397(3) 0.6108(4) 0.3250(2)
O10D O 0.7791(2) 0.5901(2) 0.25251(17)
C7D C 0.8347(4) 0.5208(5) 0.2468(4)
O11D O 0.8542(4) 0.4773(6) 0.2994(4)
C8D C 0.8632(5) 0.5058(6) 0.1667(4)
H8D H 0.8933 0.4477 0.1625
H9D H 0.9045 0.5535 0.1515
H10D H 0.8103 0.5065 0.1341
H6D H 0.7491 0.6749 0.3371
H7D H 0.7684 0.5742 0.3646
O9? O 0.2600(5) 0.3428(8) 0.0066(4)
C17? C 0.2259(7) 0.3700(11) 0.0650(5)
C18? C 0.1267(10) 0.3705(12) 0.0763(11)
H24? H 0.1135 0.3591 0.1305
C19? C 0.1021(11) 0.4660(13) 0.0576(12)
H25? H 0.0374 0.4743 0.0639
H26? H 0.1187 0.4789 0.0055
H27? H 0.1342 0.5069 0.0912
C20? C 0.0834(9) 0.3015(10) 0.0311(6)
H28? H 0.0184 0.3038 0.0390
H29? H 0.1059 0.2424 0.0459
H30? H 0.0967 0.3118 -0.0220
loop_
_geom_bond_atom_site_label_1
_geom_bond_atom_site_label_2
_geom_bond_site_symmetry_1
_geom_bond_site_symmetry_2
O1 C1 1_555 1_555
O2 C2 1_555 1_555
O3 C9 1_555 1_555
O4 C3 1_555 1_555
O5 C1 1_555 1_555
O6 C11 1_555 1_555
O7 C4 1_555 1_555
O8 C13 1_555 1_555
O10 C6 1_555 1_555
O11 C7 1_555 1_555
C1 H1 1_555 1_555
C2 C1 1_555 1_555
H2 C2 1_555 1_555
C3 C2 1_555 1_555
H3 C3 1_555 1_555
C4 C3 1_555 1_555
H4 C4 1_555 1_555
C5 O5 1_555 1_555
H5 C5 1_555 1_555
C6 C5 1_555 1_555
H6 C6 1_555 1_555
H7 C6 1_555 1_555
C7 O10 1_555 1_555
C8 C7 1_555 1_555
H8 C8 1_555 1_555
H9 C8 1_555 1_555
H10 C8 1_555 1_555
C9 O2 1_555 1_555
C10 C9 1_555 1_555
H11 C10 1_555 1_555
H12 C10 1_555 1_555
H13 C10 1_555 1_555
C11 O4 1_555 1_555
C12 C11 1_555 1_555
H14 C12 1_555 1_555
H15 C12 1_555 1_555
H16 C12 1_555 1_555
C13 O7 1_555 1_555
C14 C13 1_555 1_555
H17 C14 1_555 1_555
C15 C14 1_555 1_555
H18 C15 1_555 1_555
H19 C15 1_555 1_555
H20 C15 1_555 1_555
C16 C14 1_555 1_555
H21 C16 1_555 1_555
H22 C16 1_555 1_555
H23 C16 1_555 1_555
C1D O1 1_555 1_555
O5D C1D 1_555 1_555
C5D O5D 1_555 1_555
C4D C5D 1_555 1_555
O7D C4D 1_555 1_555
C13D O7D 1_555 1_555
O8D C13D 1_555 1_555
C14D C13D 1_555 1_555
H17D C14D 1_555 1_555
C15D C14D 1_555 1_555
H18D C15D 1_555 1_555
H19D C15D 1_555 1_555
H20D C15D 1_555 1_555
C16D C14D 1_555 1_555
H21D C16D 1_555 1_555
H22D C16D 1_555 1_555
H23D C16D 1_555 1_555
C3D C4D 1_555 1_555
O4D C3D 1_555 1_555
C11D O4D 1_555 1_555
O6D C11D 1_555 1_555
C12D C11D 1_555 1_555
H14D C12D 1_555 1_555
H15D C12D 1_555 1_555
H16D C12D 1_555 1_555
C2D C1D 1_555 1_555
O2D C2D 1_555 1_555
C9D O2D 1_555 1_555
O3D C9D 1_555 1_555
C10D C9D 1_555 1_555
H11D C10D 1_555 1_555
H12D C10D 1_555 1_555
H13D C10D 1_555 1_555
H1D C1D 1_555 1_555
H2D C2D 1_555 1_555
H3D C3D 1_555 1_555
H4D C4D 1_555 1_555
H5D C5D 1_555 1_555
C6D C5D 1_555 1_555
O10D C6D 1_555 1_555
C7D O10D 1_555 1_555
O11D C7D 1_555 1_555
C8D C7D 1_555 1_555
H8D C8D 1_555 1_555
H9D C8D 1_555 1_555
H10D C8D 1_555 1_555
H6D C6D 1_555 1_555
H7D C6D 1_555 1_555
C4 C5 1_555 1_555
C3D C2D 1_555 1_555

#END
