
#######################################################################
#
#                 Cambridge Crystallographic Data Centre
#                                CCDC 
#
#######################################################################
#
# If this CIF has been generated from an entry in the Cambridge 
# Structural Database, then it will include bibliographic, chemical, 
# crystal, experimental, refinement or atomic coordinate data resulting 
# from the CCDC's data processing and validation procedures.
#
#######################################################################

data_TADVOM
_chemical_formula_moiety         'C8 H4 I1 N1 O2'
_chemical_name_systematic        4-Iodo-1H-indole-2,3-dione
_symmetry_cell_setting           monoclinic
_symmetry_space_group_name_H-M   'P 21/c'
_symmetry_Int_Tables_number      14
_space_group_name_Hall           '-P 2ybc'
loop_
_symmetry_equiv_pos_site_id
_symmetry_equiv_pos_as_xyz
1 x,y,z
2 -x,1/2+y,1/2-z
3 -x,-y,-z
4 x,1/2-y,1/2+z
_cell_length_a                   7.6138(9)
_cell_length_b                   13.9658(17)
_cell_length_c                   7.3866(10)
_cell_angle_alpha                90
_cell_angle_beta                 91.249(5)
_cell_angle_gamma                90
_cell_volume                     785.251
_exptl_crystal_colour            orange
_exptl_crystal_description       rod
_cell_formula_units_Z            4
loop_
_atom_site_label
_atom_site_type_symbol
_atom_site_fract_x
_atom_site_fract_y
_atom_site_fract_z
I1 I 0.76809(5) 0.52256(3) 0.58699(6)
O1 O 1.1415(6) 0.8920(3) 0.4389(7)
O2 O 1.0723(6) 0.6869(3) 0.4540(7)
N1 N 0.8656(7) 0.8997(3) 0.5598(7)
H1 H 0.854(9) 0.9613(16) 0.561(9)
C1 C 1.0079(8) 0.8563(4) 0.4961(8)
C2 C 0.9695(7) 0.7460(4) 0.5078(7)
C3 C 0.7944(7) 0.7395(4) 0.5841(7)
C4 C 0.6850(7) 0.6629(4) 0.6254(7)
C5 C 0.5197(7) 0.6816(4) 0.6915(8)
H2 H 0.4451 0.6315 0.7211
C6 C 0.4664(8) 0.7758(5) 0.7130(8)
H3 H 0.3549 0.7873 0.7571
C7 C 0.5710(8) 0.8532(4) 0.6722(8)
H4 H 0.5316 0.9157 0.6859
C8 C 0.7365(7) 0.8335(4) 0.6102(7)
loop_
_geom_bond_atom_site_label_1
_geom_bond_atom_site_label_2
_geom_bond_site_symmetry_1
_geom_bond_site_symmetry_2
I1 C4 1_555 1_555
O1 C1 1_555 1_555
O2 C2 1_555 1_555
N1 H1 1_555 1_555
C1 N1 1_555 1_555
C2 C1 1_555 1_555
C3 C2 1_555 1_555
C4 C3 1_555 1_555
C5 C4 1_555 1_555
H2 C5 1_555 1_555
C6 C5 1_555 1_555
H3 C6 1_555 1_555
C7 C6 1_555 1_555
H4 C7 1_555 1_555
C8 N1 1_555 1_555
C3 C8 1_555 1_555
C7 C8 1_555 1_555

#END
