
#######################################################################
#
#                 Cambridge Crystallographic Data Centre
#                                CCDC 
#
#######################################################################
#
# If this CIF has been generated from an entry in the Cambridge 
# Structural Database, then it will include bibliographic, chemical, 
# crystal, experimental, refinement or atomic coordinate data resulting 
# from the CCDC's data processing and validation procedures.
#
#######################################################################

data_TADVIF
_chemical_name_common            
'3,4,7,8,11,12-Hexamethoxy-2,6,10-tris(4-methoxyphenyl)benzo[lmn]phenanthridino[2,1,10,9-defgh][2,8]phenanthroline tetrahydrofuran solvate'
_chemical_formula_moiety         'C48 H39 N3 O9,2.5(C4 H8 O1)'
_chemical_name_systematic        
'3,4,7,8,11,12-Hexamethoxy-2,6,10-tris(p-methoxyphenyl)-1,5,9-triazacoronene tetrahydrofuran solvate'
_symmetry_cell_setting           triclinic
_symmetry_space_group_name_H-M   'P -1'
_symmetry_Int_Tables_number      2
_space_group_name_Hall           '-P 1'
loop_
_symmetry_equiv_pos_site_id
_symmetry_equiv_pos_as_xyz
1 x,y,z
2 -x,-y,-z
_cell_length_a                   11.993(4)
_cell_length_b                   13.599(4)
_cell_length_c                   18.240(6)
_cell_angle_alpha                111.631(4)
_cell_angle_beta                 107.684(4)
_cell_angle_gamma                90.120(4)
_cell_volume                     2612.7
_exptl_crystal_colour            colorless
_exptl_crystal_description       'square plate'
_chemical_melting_point          '275-277 deg.C'
_cell_formula_units_Z            2
_exptl_crystal_recrystallization_method tetrahydrofuran
loop_
_atom_site_label
_atom_site_type_symbol
_atom_site_fract_x
_atom_site_fract_y
_atom_site_fract_z
N1 N 1.0698(2) 0.76199(19) 1.20443(14)
N2 N 0.9155(2) 0.64156(19) 0.80951(14)
N3 N 0.6497(2) 0.38424(17) 0.95379(14)
O1 O 1.4263(3) 1.1818(2) 1.36897(19)
O2 O 1.17313(18) 0.90773(15) 1.06212(12)
O3 O 1.08022(17) 0.82240(17) 0.89187(12)
O4 O 0.6767(2) 0.4506(2) 0.42157(13)
O5 O 0.63104(19) 0.39038(17) 0.69076(12)
O6 O 0.54574(17) 0.31054(15) 0.78280(12)
O7 O 0.4444(2) 0.2069(2) 1.16141(17)
O8 O 0.78666(18) 0.52711(17) 1.21766(12)
O9 O 0.9771(2) 0.68488(18) 1.29568(12)
C1 C 1.1103(2) 0.8045(2) 1.16154(17)
C2 C 1.0677(2) 0.7651(2) 1.07208(16)
C3 C 1.0992(2) 0.8140(2) 1.02219(17)
C4 C 1.0481(2) 0.7727(2) 0.93651(17)
C5 C 0.9638(2) 0.6797(2) 0.89409(16)
C6 C 0.8322(2) 0.5593(2) 0.76979(16)
C7 C 0.7852(2) 0.5069(2) 0.81228(16)
C8 C 0.6871(2) 0.4250(2) 0.77426(16)
C9 C 0.6431(2) 0.3869(2) 0.82158(17)
C10 C 0.6968(2) 0.4239(2) 0.90906(16)
C11 C 0.6958(2) 0.4221(2) 1.03644(17)
C12 C 0.7945(2) 0.5054(2) 1.08313(17)
C13 C 0.8421(2) 0.5561(2) 1.17244(17)
C14 C 0.9334(2) 0.6382(2) 1.21082(16)
C15 C 0.9840(2) 0.6769(2) 1.16340(16)
C16 C 0.9375(2) 0.6301(2) 1.07650(16)
C17 C 0.9801(2) 0.6750(2) 1.02995(16)
C18 C 0.9293(2) 0.6321(2) 0.94135(16)
C19 C 0.8376(2) 0.5455(2) 0.90014(15)
C20 C 0.7942(2) 0.5030(2) 0.94814(16)
C21 C 0.8438(2) 0.5449(2) 1.03635(16)
C22 C 1.1997(2) 0.9017(2) 1.21588(17)
C23 C 1.1632(3) 0.9931(3) 1.2630(2)
H1 H 1.0848 0.9921 1.2611
C24 C 1.2388(4) 1.0836(3) 1.3115(2)
H2 H 1.2117 1.1447 1.3411
C25 C 1.3562(3) 1.0855(3) 1.3172(2)
C26 C 1.3956(3) 0.9961(3) 1.2752(2)
H3 H 1.4754 0.9963 1.2808
C27 C 1.3175(3) 0.9037(2) 1.2237(2)
H4 H 1.3450 0.8428 1.1942
C28 C 1.5413(5) 1.1940(4) 1.3639(4)
H5 H 1.5905 1.1515 1.3889
H6 H 1.5747 1.2676 1.3930
H7 H 1.5364 1.1711 1.3064
C29 C 1.2819(3) 0.9107(3) 1.0444(2)
H8 H 1.3150 0.8456 1.0413
H9 H 1.3365 0.9700 1.0881
H10 H 1.2667 0.9183 0.9921
C30 C 1.0005(4) 0.8914(4) 0.8700(3)
H11 H 0.9297 0.8499 0.8271
H12 H 1.0361 0.9349 0.8499
H13 H 0.9816 0.9362 0.9182
C31 C 0.7867(2) 0.5288(2) 0.67745(16)
C32 C 0.7241(3) 0.5973(3) 0.64464(19)
H14 H 0.7085 0.6606 0.6806
C33 C 0.6845(3) 0.5735(3) 0.56001(19)
H15 H 0.6409 0.6197 0.5394
C34 C 0.7093(3) 0.4825(3) 0.50632(17)
C35 C 0.7737(3) 0.4138(3) 0.53852(18)
H16 H 0.7911 0.3513 0.5027
C36 C 0.8116(3) 0.4382(2) 0.62292(18)
H17 H 0.8552 0.3921 0.6436
C37 C 0.5973(4) 0.5109(4) 0.3849(2)
H18 H 0.5271 0.5117 0.3998
H19 H 0.5771 0.4789 0.3253
H20 H 0.6346 0.5827 0.4050
C38 C 0.6291(5) 0.2796(3) 0.6442(2)
H21 H 0.7073 0.2603 0.6595
H22 H 0.6018 0.2655 0.5856
H23 H 0.5771 0.2384 0.6561
C39 C 0.4373(3) 0.3515(3) 0.7841(3)
H24 H 0.4356 0.3794 0.8403
H25 H 0.3730 0.2955 0.7495
H26 H 0.4299 0.4075 0.7634
C40 C 0.6314(2) 0.3707(2) 1.07408(17)
C41 C 0.5117(3) 0.3752(2) 1.05871(19)
H27 H 0.4738 0.4134 1.0274
C42 C 0.4469(3) 0.3246(2) 1.0884(2)
H28 H 0.3671 0.3309 1.0789
C43 C 0.5011(3) 0.2647(2) 1.1323(2)
C44 C 0.6198(3) 0.2581(3) 1.1472(2)
H29 H 0.6567 0.2173 1.1765
C45 C 0.6841(3) 0.3110(2) 1.1195(2)
H30 H 0.7646 0.3069 1.1313
C46 C 0.3232(4) 0.2096(4) 1.1479(3)
H31 H 0.3083 0.2823 1.1698
H32 H 0.2975 0.1707 1.1757
H33 H 0.2808 0.1776 1.0891
C47 C 0.8546(4) 0.5018(4) 1.2849(2)
H34 H 0.9194 0.4669 1.2715
H35 H 0.8062 0.4551 1.2949
H36 H 0.8843 0.5660 1.3340
C48 C 0.9305(4) 0.7790(4) 1.3317(3)
H37 H 0.9614 0.8358 1.3212
H38 H 0.9522 0.7979 1.3909
H39 H 0.8460 0.7674 1.3077
O10 O 0.0227(8) 0.7883(7) 0.5537(6)
C49 C -0.0395(6) 0.6922(7) 0.5358(4)
H40 H -0.0390 0.6405 0.4825
H41 H -0.1208 0.7015 0.5326
C50 C 0.0140(6) 0.6556(6) 0.5997(4)
H42 H 0.0538 0.5944 0.5791
H43 H -0.0448 0.6348 0.6197
C51 C 0.0961(9) 0.7413(8) 0.6646(5)
H44 H 0.1738 0.7188 0.6788
H45 H 0.0722 0.7660 0.7140
C52 C 0.0984(11) 0.8264(7) 0.6340(8)
H46 H 0.0731 0.8897 0.6681
H47 H 0.1775 0.8447 0.6356
O11 O 0.7890(7) 0.8887(7) 0.1333(8)
C53 C 0.7187(7) 0.8224(8) 0.1458(6)
H48 H 0.7587 0.8118 0.1966
H49 H 0.6973 0.7536 0.0994
C54 C 0.6175(9) 0.8730(8) 0.1521(8)
H50 H 0.5473 0.8213 0.1200
H51 H 0.6204 0.9028 0.2099
C55 C 0.6127(7) 0.9502(8) 0.1234(10)
H52 H 0.6036 1.0170 0.1643
H53 H 0.5467 0.9323 0.0722
C56 C 0.7198(8) 0.9586(8) 0.1089(8)
H54 H 0.7052 0.9419 0.0500
H55 H 0.7599 1.0309 0.1402
O12 O 0.7283(16) 0.9261(18) 0.4148(9)
C57 C 0.6538(15) 0.9126(13) 0.4452(14)
H56 H 0.6763 0.8645 0.4739
H57 H 0.5769 0.8846 0.4028
C58 C 0.6540(12) 1.0160(18) 0.5012(10)
H58 H 0.6354 1.0144 0.5490
H59 H 0.5972 1.0531 0.4743
C59 C 0.7695(11) 1.0651(10) 0.5254(9)
H60 H 0.7692 1.1287 0.5131
H61 H 0.8089 1.0849 0.5847
C60 C 0.8206(11) 0.9967(13) 0.4837(12)
H62 H 0.8665 0.9595 0.5164
H63 H 0.8725 1.0300 0.4654
loop_
_geom_bond_atom_site_label_1
_geom_bond_atom_site_label_2
_geom_bond_site_symmetry_1
_geom_bond_site_symmetry_2
N1 C1 1_555 1_555
N2 C5 1_555 1_555
N3 C10 1_555 1_555
O1 C25 1_555 1_555
O2 C3 1_555 1_555
O3 C4 1_555 1_555
O4 C34 1_555 1_555
O5 C8 1_555 1_555
O6 C9 1_555 1_555
O7 C43 1_555 1_555
O8 C13 1_555 1_555
O9 C14 1_555 1_555
C1 C2 1_555 1_555
C2 C3 1_555 1_555
C3 C4 1_555 1_555
C4 C5 1_555 1_555
C5 C18 1_555 1_555
C6 N2 1_555 1_555
C7 C6 1_555 1_555
C8 C7 1_555 1_555
C9 C8 1_555 1_555
C10 C9 1_555 1_555
C11 N3 1_555 1_555
C12 C11 1_555 1_555
C13 C12 1_555 1_555
C14 C13 1_555 1_555
C15 N1 1_555 1_555
C16 C15 1_555 1_555
C17 C2 1_555 1_555
C18 C17 1_555 1_555
C19 C7 1_555 1_555
C20 C10 1_555 1_555
C21 C12 1_555 1_555
C22 C1 1_555 1_555
C23 C22 1_555 1_555
H1 C23 1_555 1_555
C24 C23 1_555 1_555
H2 C24 1_555 1_555
C25 C24 1_555 1_555
C26 C25 1_555 1_555
H3 C26 1_555 1_555
C27 C22 1_555 1_555
H4 C27 1_555 1_555
C28 O1 1_555 1_555
H5 C28 1_555 1_555
H6 C28 1_555 1_555
H7 C28 1_555 1_555
C29 O2 1_555 1_555
H8 C29 1_555 1_555
H9 C29 1_555 1_555
H10 C29 1_555 1_555
C30 O3 1_555 1_555
H11 C30 1_555 1_555
H12 C30 1_555 1_555
H13 C30 1_555 1_555
C31 C6 1_555 1_555
C32 C31 1_555 1_555
H14 C32 1_555 1_555
C33 C32 1_555 1_555
H15 C33 1_555 1_555
C34 C33 1_555 1_555
C35 C34 1_555 1_555
H16 C35 1_555 1_555
C36 C31 1_555 1_555
H17 C36 1_555 1_555
C37 O4 1_555 1_555
H18 C37 1_555 1_555
H19 C37 1_555 1_555
H20 C37 1_555 1_555
C38 O5 1_555 1_555
H21 C38 1_555 1_555
H22 C38 1_555 1_555
H23 C38 1_555 1_555
C39 O6 1_555 1_555
H24 C39 1_555 1_555
H25 C39 1_555 1_555
H26 C39 1_555 1_555
C40 C11 1_555 1_555
C41 C40 1_555 1_555
H27 C41 1_555 1_555
C42 C41 1_555 1_555
H28 C42 1_555 1_555
C43 C42 1_555 1_555
C44 C43 1_555 1_555
H29 C44 1_555 1_555
C45 C40 1_555 1_555
H30 C45 1_555 1_555
C46 O7 1_555 1_555
H31 C46 1_555 1_555
H32 C46 1_555 1_555
H33 C46 1_555 1_555
C47 O8 1_555 1_555
H34 C47 1_555 1_555
H35 C47 1_555 1_555
H36 C47 1_555 1_555
C48 O9 1_555 1_555
H37 C48 1_555 1_555
H38 C48 1_555 1_555
H39 C48 1_555 1_555
O10 C49 1_555 1_555
C49 H40 1_555 1_555
H41 C49 1_555 1_555
C50 C49 1_555 1_555
H42 C50 1_555 1_555
H43 C50 1_555 1_555
C51 C50 1_555 1_555
H44 C51 1_555 1_555
H45 C51 1_555 1_555
C52 O10 1_555 1_555
H46 C52 1_555 1_555
H47 C52 1_555 1_555
O11 C53 1_555 1_555
C53 H48 1_555 1_555
H49 C53 1_555 1_555
C54 C53 1_555 1_555
H50 C54 1_555 1_555
H51 C54 1_555 1_555
C55 C54 1_555 1_555
H52 C55 1_555 1_555
H53 C55 1_555 1_555
C56 O11 1_555 1_555
H54 C56 1_555 1_555
H55 C56 1_555 1_555
O12 C57 1_555 1_555
C57 H56 1_555 1_555
H57 C57 1_555 1_555
C58 C57 1_555 1_555
H58 C58 1_555 1_555
H59 C58 1_555 1_555
C59 C58 1_555 1_555
H60 C59 1_555 1_555
H61 C59 1_555 1_555
C60 O12 1_555 1_555
H62 C60 1_555 1_555
H63 C60 1_555 1_555
C14 C15 1_555 1_555
C16 C17 1_555 1_555
C16 C21 1_555 1_555
C18 C19 1_555 1_555
C19 C20 1_555 1_555
C20 C21 1_555 1_555
C26 C27 1_555 1_555
C35 C36 1_555 1_555
C44 C45 1_555 1_555
C51 C52 1_555 1_555
C55 C56 1_555 1_555
C59 C60 1_555 1_555

#END
