
#######################################################################
#
#                 Cambridge Crystallographic Data Centre
#                                CCDC 
#
#######################################################################
#
# If this CIF has been generated from an entry in the Cambridge 
# Structural Database, then it will include bibliographic, chemical, 
# crystal, experimental, refinement or atomic coordinate data resulting 
# from the CCDC's data processing and validation procedures.
#
#######################################################################

data_TADWAY
_chemical_formula_moiety         'C228 H198 B6 N6'
_chemical_name_systematic        
1,2,3,4,5,6-hexakis(4-(2-(6,6-Dimesityl-6H-5\l^5^,6\l^5^-pyrido[1,2-b][2,1]benzazaborol-3-yl)ethynyl)phenyl)benzene
_symmetry_cell_setting           monoclinic
_symmetry_space_group_name_H-M   'C 2/c'
_symmetry_Int_Tables_number      15
_space_group_name_Hall           '-C 2yn'
loop_
_symmetry_equiv_pos_site_id
_symmetry_equiv_pos_as_xyz
1 x,y,z
2 -x,y,1/2-z
3 1/2+x,1/2+y,z
4 1/2-x,1/2+y,1/2-z
5 -x,-y,-z
6 x,-y,1/2+z
7 1/2-x,1/2-y,-z
8 1/2+x,1/2-y,1/2+z
_cell_length_a                   50.466(18)
_cell_length_b                   24.851(9)
_cell_length_c                   19.746(7)
_cell_angle_alpha                90
_cell_angle_beta                 93.450(4)
_cell_angle_gamma                90
_cell_volume                     24719.2
_exptl_crystal_colour            yellow
_exptl_crystal_description       plate
_cell_formula_units_Z            4
_exptl_crystal_recrystallization_method dichloromethane
loop_
_atom_site_label
_atom_site_type_symbol
_atom_site_fract_x
_atom_site_fract_y
_atom_site_fract_z
C1 C 0.01322(12) 0.2558(2) 0.2523(4)
C2 C 0.02734(15) 0.2094(3) 0.2515(3)
C3 C 0.01405(11) 0.1590(3) 0.2507(3)
C4 C 0.06739(18) 0.2319(3) 0.1932(4)
H1 H 0.0561 0.2416 0.1550
C5 C 0.05595(19) 0.2108(3) 0.2467(4)
C6 C 0.0933(2) 0.2403(3) 0.1892(4)
H2 H 0.0999 0.2566 0.1501
C7 C 0.1106(2) 0.2246(3) 0.2443(6)
C8 C 0.1003(2) 0.1993(3) 0.2999(4)
H3 H 0.1120 0.1884 0.3370
C9 C 0.0730(2) 0.1897(3) 0.3016(4)
H4 H 0.0660 0.1700 0.3376
C10 C 0.1385(4) 0.2359(5) 0.2434(6)
C11 C 0.1575(4) 0.2539(5) 0.2365(6)
C12 C 0.1838(3) 0.2806(6) 0.2244(5)
C13 C 0.1878(3) 0.3323(5) 0.2139(7)
H5 H 0.1728 0.3555 0.2151
C14 C 0.2117(3) 0.3556(6) 0.2014(8)
H6 H 0.2127 0.3921 0.1878
C15 C 0.2327(3) 0.3257(7) 0.2089(6)
C16 C 0.2061(2) 0.2429(5) 0.2310(5)
H7 H 0.2041 0.2064 0.2441
C17 C 0.2609(3) 0.3335(6) 0.1962(6)
C18 C 0.2722(3) 0.3836(5) 0.1817(6)
H8 H 0.2606 0.4136 0.1768
C19 C 0.3002(3) 0.3928(8) 0.1737(10)
H9 H 0.3075 0.4277 0.1681
C20 C 0.3149(3) 0.3480(7) 0.1748(8)
H10 H 0.3329 0.3510 0.1636
C21 C 0.3054(3) 0.2962(7) 0.1915(6)
H11 H 0.3176 0.2671 0.1967
C22 C 0.2781(3) 0.2872(5) 0.2006(5)
C23 C 0.25991(18) 0.2008(5) 0.2898(5)
C24 C 0.25108(16) 0.1478(5) 0.2898(5)
C25 C 0.25240(17) 0.1183(3) 0.3498(8)
H12 H 0.2464 0.0821 0.3498
C26 C 0.2625(2) 0.1419(5) 0.4097(5)
C27 C 0.27138(16) 0.1948(6) 0.4097(5)
H13 H 0.2783 0.2109 0.4507
C28 C 0.27006(16) 0.2243(3) 0.3498(8)
C29 C 0.2763(2) 0.2833(5) 0.3537(7)
H14 H 0.2875 0.2907 0.3949
H15 H 0.2597 0.3039 0.3548
H16 H 0.2857 0.2940 0.3139
C30 C 0.2677(2) 0.1024(5) 0.4751(5)
H17 H 0.2558 0.0713 0.4705
H18 H 0.2643 0.1221 0.5166
H19 H 0.2862 0.0900 0.4774
C31 C 0.2376(2) 0.1142(5) 0.2312(6)
H20 H 0.2242 0.1362 0.2062
H21 H 0.2290 0.0825 0.2500
H22 H 0.2510 0.1025 0.2004
C32 C 0.24670(12) 0.1987(3) 0.0868(5)
C33 C 0.26224(18) 0.1945(3) 0.1471(4)
C34 C 0.28423(15) 0.1607(3) 0.1510(3)
C35 C 0.29067(12) 0.1311(3) 0.0946(5)
H23 H 0.3057 0.1080 0.0972
C36 C 0.27513(18) 0.1353(3) 0.0343(4)
C37 C 0.25315(15) 0.1691(3) 0.0304(3)
H24 H 0.2425 0.1719 -0.0109
C38 C 0.30329(19) 0.1546(4) 0.2090(5)
H25 H 0.3210 0.1485 0.1928
H26 H 0.2982 0.1239 0.2364
H27 H 0.3034 0.1874 0.2366
C39 C 0.2810(3) 0.1047(6) -0.0335(7)
H28 H 0.2654 0.0835 -0.0488
H29 H 0.2962 0.0807 -0.0251
H30 H 0.2849 0.1310 -0.0685
C40 C 0.22119(18) 0.2349(4) 0.0753(5)
H31 H 0.2258 0.2725 0.0858
H32 H 0.2076 0.2227 0.1051
H33 H 0.2144 0.2322 0.0279
C41 C 0.02905(13) 0.3084(3) 0.2614(4)
C42 C 0.04238(14) 0.3201(3) 0.3213(3)
H34 H 0.0425 0.2946 0.3571
C43 C 0.05580(14) 0.3681(3) 0.3315(4)
H35 H 0.0644 0.3763 0.3743
C44 C 0.05644(14) 0.4039(3) 0.2787(4)
C45 C 0.02885(12) 0.3449(3) 0.2068(3)
H36 H 0.0193 0.3372 0.1650
C46 C 0.04327(14) 0.3933(3) 0.2162(4)
H37 H 0.0440 0.4185 0.1801
C47 C 0.07135(16) 0.4533(3) 0.2894(4)
C48 C 0.08449(15) 0.4921(3) 0.3032(4)
C49 C 0.09827(14) 0.5386(3) 0.3302(4)
C50 C 0.09878(11) 0.5454(2) 0.3972(4)
H38 H 0.0902 0.5195 0.4236
C51 C 0.10961(13) 0.5762(3) 0.2883(4)
H39 H 0.1092 0.5717 0.2405
C52 C 0.12171(12) 0.6214(3) 0.3206(4)
H40 H 0.1298 0.6483 0.2946
C53 C 0.12166(13) 0.6261(3) 0.3896(5)
C54 C 0.13270(13) 0.6691(3) 0.4365(5)
C55 C 0.14707(14) 0.7162(3) 0.4152(4)
H41 H 0.1500 0.7222 0.3687
C56 C 0.15630(16) 0.7520(4) 0.4652(6)
H42 H 0.1656 0.7834 0.4529
C57 C 0.15211(16) 0.7426(4) 0.5314(6)
H43 H 0.1586 0.7678 0.5646
C58 C 0.13853(13) 0.6973(3) 0.5523(4)
H44 H 0.1369 0.6909 0.5993
C59 C 0.12716(13) 0.6605(3) 0.5036(5)
C60 C 0.13351(11) 0.5675(2) 0.5626(4)
C61 C 0.12998(11) 0.5747(2) 0.6313(4)
C62 C 0.14667(17) 0.5488(3) 0.6795(3)
H45 H 0.1443 0.5538 0.7264
C63 C 0.16689(14) 0.5157(2) 0.6590(5)
C64 C 0.17042(10) 0.50845(19) 0.5903(5)
H46 H 0.1842 0.4858 0.5763
C65 C 0.15373(14) 0.5343(2) 0.5421(3)
C66 C 0.10965(16) 0.6073(3) 0.6640(4)
H47 H 0.1180 0.6265 0.7030
H48 H 0.0957 0.5835 0.6792
H49 H 0.1019 0.6333 0.6312
C67 C 0.18517(19) 0.4840(3) 0.7119(5)
H50 H 0.2000 0.4680 0.6891
H51 H 0.1749 0.4555 0.7323
H52 H 0.1921 0.5087 0.7474
C68 C 0.15867(16) 0.5280(3) 0.4652(5)
H53 H 0.1753 0.5084 0.4604
H54 H 0.1598 0.5636 0.4444
H55 H 0.1440 0.5079 0.4426
C69 C 0.07958(7) 0.5996(2) 0.5274(2)
C70 C 0.06310(10) 0.64432(14) 0.5209(2)
C71 C 0.03600(9) 0.63890(18) 0.5282(2)
H56 H 0.0247 0.6695 0.5238
C72 C 0.02539(7) 0.5887(2) 0.5419(2)
C73 C 0.04187(11) 0.54399(16) 0.54841(19)
H57 H 0.0346 0.5097 0.5578
C74 C 0.06897(10) 0.54940(15) 0.5411(2)
C75 C -0.00479(12) 0.5819(2) 0.5513(3)
H58 H -0.0139 0.6163 0.5425
H59 H -0.0074 0.5704 0.5979
H60 H -0.0121 0.5547 0.5195
C76 C 0.08460(13) 0.4965(2) 0.5535(3)
H61 H 0.0730 0.4658 0.5421
H62 H 0.0909 0.4942 0.6014
H63 H 0.0998 0.4958 0.5250
C77 C 0.07254(11) 0.7024(2) 0.5083(3)
H64 H 0.0839 0.7027 0.4696
H65 H 0.0826 0.7157 0.5488
H66 H 0.0571 0.7256 0.4983
C78 C 0.02930(15) 0.1070(3) 0.2445(5)
C79 C 0.03001(15) 0.0709(3) 0.2988(4)
H67 H 0.0210 0.0797 0.3382
C80 C 0.04338(16) 0.0230(3) 0.2966(4)
H68 H 0.0447 -0.0002 0.3349
C81 C 0.05494(16) 0.0095(3) 0.2375(5)
C82 C 0.05468(14) 0.0443(3) 0.1837(4)
H69 H 0.0635 0.0352 0.1441
C83 C 0.04140(16) 0.0932(3) 0.1876(4)
H70 H 0.0408 0.1171 0.1500
C84 C 0.06828(16) -0.0425(3) 0.2298(4)
C85 C 0.07858(18) -0.0829(4) 0.2210(4)
C86 C 0.09202(19) -0.1319(3) 0.2080(4)
C87 C 0.11874(19) -0.1377(3) 0.2132(4)
H71 H 0.1293 -0.1081 0.2287
C88 C 0.13107(15) -0.1844(4) 0.1973(4)
H72 H 0.1499 -0.1861 0.1995
C89 C 0.11582(16) -0.2307(3) 0.1773(4)
C90 C 0.07669(12) -0.1776(3) 0.1894(3)
H73 H 0.0579 -0.1752 0.1855
C91 C 0.12355(16) -0.2823(3) 0.1552(3)
C92 C 0.14926(15) -0.2985(3) 0.1546(4)
H74 H 0.1638 -0.2760 0.1686
C93 C 0.15256(16) -0.3518(3) 0.1313(4)
H75 H 0.1701 -0.3651 0.1285
C94 C 0.13207(17) -0.3847(3) 0.1129(4)
H76 H 0.1350 -0.4207 0.0992
C95 C 0.10670(15) -0.3642(3) 0.1148(3)
H77 H 0.0923 -0.3868 0.1002
C96 C 0.10077(13) -0.3121(3) 0.1367(3)
C97 C 0.06109(8) -0.31814(18) 0.2136(3)
C98 C 0.06394(8) -0.30865(15) 0.2831(3)
C99 C 0.05370(9) -0.3451(2) 0.32809(19)
H78 H 0.0557 -0.3386 0.3755
C100 C 0.04060(8) -0.39096(18) 0.3037(3)
C101 C 0.03774(7) -0.40045(15) 0.2343(3)
H79 H 0.0288 -0.4318 0.2176
C102 C 0.04798(9) -0.3640(2) 0.18923(19)
C103 C 0.07824(15) -0.2608(3) 0.3150(3)
H80 H 0.0799 -0.2654 0.3644
H81 H 0.0682 -0.2280 0.3037
H82 H 0.0960 -0.2580 0.2976
C104 C 0.03970(11) -0.3764(2) 0.1166(3)
H83 H 0.0406 -0.4154 0.1092
H84 H 0.0516 -0.3581 0.0868
H85 H 0.0215 -0.3639 0.1065
C105 C 0.03001(12) -0.4308(3) 0.3560(3)
H86 H 0.0345 -0.4176 0.4020
H87 H 0.0381 -0.4662 0.3503
H88 H 0.0107 -0.4339 0.3488
C106 C 0.05164(9) -0.25911(16) 0.0906(2)
C107 C 0.02562(11) -0.24868(17) 0.1060(2)
C108 C 0.00738(7) -0.23009(17) 0.0558(3)
H89 H -0.0104 -0.2230 0.0663
C109 C 0.01518(11) -0.22192(15) -0.0097(3)
C110 C 0.04120(12) -0.23234(17) -0.0251(2)
H90 H 0.0465 -0.2268 -0.0699
C111 C 0.05943(8) -0.25094(17) 0.0251(3)
C112 C -0.00487(14) -0.2025(3) -0.0662(4)
H91 H -0.0062 -0.2292 -0.1027
H92 H 0.0011 -0.1681 -0.0842
H93 H -0.0223 -0.1978 -0.0477
C113 C 0.01359(12) -0.2529(3) 0.1737(3)
H94 H 0.0257 -0.2369 0.2088
H95 H 0.0107 -0.2908 0.1844
H96 H -0.0034 -0.2336 0.1719
C114 C 0.08732(13) -0.2584(3) 0.0032(3)
H97 H 0.0885 -0.2442 -0.0429
H98 H 0.0917 -0.2968 0.0037
H99 H 0.0998 -0.2391 0.0344
N1 N 0.23090(19) 0.2653(4) 0.2163(4)
N2 N 0.11089(10) 0.5876(2) 0.4295(3)
N3 N 0.08903(12) -0.2258(2) 0.1769(3)
B1 B 0.2603(3) 0.2340(6) 0.2169(8)
B2 B 0.11260(16) 0.6029(3) 0.5114(5)
B3 B 0.07317(15) -0.2826(3) 0.1539(4)
C1A C -0.01322(12) 0.2558(2) 0.2477(4)
C2A C -0.02734(15) 0.2094(3) 0.2485(3)
C3A C -0.01405(11) 0.1590(3) 0.2493(3)
C4A C -0.06739(18) 0.2319(3) 0.3068(4)
H1A H -0.0561 0.2416 0.3450
C5A C -0.05595(19) 0.2108(3) 0.2533(4)
C6A C -0.0933(2) 0.2403(3) 0.3108(4)
H2A H -0.0999 0.2566 0.3499
C7A C -0.1106(2) 0.2246(3) 0.2557(6)
C8A C -0.1003(2) 0.1993(3) 0.2001(4)
H3A H -0.1120 0.1884 0.1630
C9A C -0.0730(2) 0.1897(3) 0.1984(4)
H4A H -0.0660 0.1700 0.1624
C10A C -0.1385(4) 0.2359(5) 0.2566(6)
C11A C -0.1575(4) 0.2539(5) 0.2635(6)
C12A C -0.1838(3) 0.2806(6) 0.2756(5)
C13A C -0.1878(3) 0.3323(5) 0.2861(7)
H5A H -0.1728 0.3555 0.2849
C14A C -0.2117(3) 0.3556(6) 0.2986(8)
H6A H -0.2127 0.3921 0.3122
C15A C -0.2327(3) 0.3257(7) 0.2911(6)
C16A C -0.2061(2) 0.2429(5) 0.2690(5)
H7A H -0.2041 0.2064 0.2559
C17A C -0.2609(3) 0.3335(6) 0.3038(6)
C18A C -0.2722(3) 0.3836(5) 0.3183(6)
H8A H -0.2606 0.4136 0.3232
C19A C -0.3002(3) 0.3928(8) 0.3263(10)
H9A H -0.3075 0.4277 0.3319
C20A C -0.3149(3) 0.3480(7) 0.3252(8)
H10A H -0.3329 0.3510 0.3364
C21A C -0.3054(3) 0.2962(7) 0.3085(6)
H11A H -0.3176 0.2671 0.3033
C22A C -0.2781(3) 0.2872(5) 0.2994(5)
C23A C -0.25991(18) 0.2008(5) 0.2102(5)
C24A C -0.25108(16) 0.1478(5) 0.2102(5)
C25A C -0.25240(17) 0.1183(3) 0.1502(8)
H12A H -0.2464 0.0821 0.1502
C26A C -0.2625(2) 0.1419(5) 0.0903(5)
C27A C -0.27138(16) 0.1948(6) 0.0903(5)
H13A H -0.2783 0.2109 0.0493
C28A C -0.27006(16) 0.2243(3) 0.1502(8)
C29A C -0.2763(2) 0.2833(5) 0.1463(7)
H14A H -0.2875 0.2907 0.1051
H15A H -0.2597 0.3039 0.1452
H16A H -0.2857 0.2940 0.1861
C30A C -0.2677(2) 0.1024(5) 0.0249(5)
H17A H -0.2558 0.0713 0.0295
H18A H -0.2643 0.1221 -0.0166
H19A H -0.2862 0.0900 0.0226
C31A C -0.2376(2) 0.1142(5) 0.2688(6)
H20A H -0.2242 0.1362 0.2938
H21A H -0.2290 0.0825 0.2500
H22A H -0.2510 0.1025 0.2996
C32A C -0.24670(12) 0.1987(3) 0.4132(5)
C33A C -0.26224(18) 0.1945(3) 0.3529(4)
C34A C -0.28423(15) 0.1607(3) 0.3490(3)
C35A C -0.29067(12) 0.1311(3) 0.4054(5)
H23A H -0.3057 0.1080 0.4028
C36A C -0.27513(18) 0.1353(3) 0.4657(4)
C37A C -0.25315(15) 0.1691(3) 0.4696(3)
H24A H -0.2425 0.1719 0.5109
C38A C -0.30329(19) 0.1546(4) 0.2910(5)
H25A H -0.3210 0.1485 0.3072
H26A H -0.2982 0.1239 0.2636
H27A H -0.3034 0.1874 0.2634
C39A C -0.2810(3) 0.1047(6) 0.5335(7)
H28A H -0.2654 0.0835 0.5488
H29A H -0.2962 0.0807 0.5251
H30A H -0.2849 0.1310 0.5685
C40A C -0.22119(18) 0.2349(4) 0.4247(5)
H31A H -0.2258 0.2725 0.4142
H32A H -0.2076 0.2227 0.3949
H33A H -0.2144 0.2322 0.4721
C41A C -0.02905(13) 0.3084(3) 0.2386(4)
C42A C -0.04238(14) 0.3201(3) 0.1787(3)
H34A H -0.0425 0.2946 0.1429
C43A C -0.05580(14) 0.3681(3) 0.1685(4)
H35A H -0.0644 0.3763 0.1257
C44A C -0.05644(14) 0.4039(3) 0.2213(4)
C45A C -0.02885(12) 0.3449(3) 0.2932(3)
H36A H -0.0193 0.3372 0.3350
C46A C -0.04327(14) 0.3933(3) 0.2838(4)
H37A H -0.0440 0.4185 0.3199
C47A C -0.07135(16) 0.4533(3) 0.2106(4)
C48A C -0.08449(15) 0.4921(3) 0.1968(4)
C49A C -0.09827(14) 0.5386(3) 0.1698(4)
C50A C -0.09878(11) 0.5454(2) 0.1028(4)
H38A H -0.0902 0.5195 0.0764
C51A C -0.10961(13) 0.5762(3) 0.2117(4)
H39A H -0.1092 0.5717 0.2595
C52A C -0.12171(12) 0.6214(3) 0.1794(4)
H40A H -0.1298 0.6483 0.2054
C53A C -0.12166(13) 0.6261(3) 0.1104(5)
C54A C -0.13270(13) 0.6691(3) 0.0635(5)
C55A C -0.14707(14) 0.7162(3) 0.0848(4)
H41A H -0.1500 0.7222 0.1313
C56A C -0.15630(16) 0.7520(4) 0.0348(6)
H42A H -0.1656 0.7834 0.0471
C57A C -0.15211(16) 0.7426(4) -0.0314(6)
H43A H -0.1586 0.7678 -0.0646
C58A C -0.13853(13) 0.6973(3) -0.0523(4)
H44A H -0.1369 0.6909 -0.0993
C59A C -0.12716(13) 0.6605(3) -0.0036(5)
C60A C -0.13351(11) 0.5675(2) -0.0626(4)
C61A C -0.12998(11) 0.5747(2) -0.1313(4)
C62A C -0.14667(17) 0.5488(3) -0.1795(3)
H45A H -0.1443 0.5538 -0.2264
C63A C -0.16689(14) 0.5157(2) -0.1590(5)
C64A C -0.17042(10) 0.50845(19) -0.0903(5)
H46A H -0.1842 0.4858 -0.0763
C65A C -0.15373(14) 0.5343(2) -0.0421(3)
C66A C -0.10965(16) 0.6073(3) -0.1640(4)
H47A H -0.1180 0.6265 -0.2030
H48A H -0.0957 0.5835 -0.1792
H49A H -0.1019 0.6333 -0.1312
C67A C -0.18517(19) 0.4840(3) -0.2119(5)
H50A H -0.2000 0.4680 -0.1891
H51A H -0.1749 0.4555 -0.2323
H52A H -0.1921 0.5087 -0.2474
C68A C -0.15867(16) 0.5280(3) 0.0348(5)
H53A H -0.1753 0.5084 0.0396
H54A H -0.1598 0.5636 0.0556
H55A H -0.1440 0.5079 0.0574
C69A C -0.07958(7) 0.5996(2) -0.0274(2)
C70A C -0.06310(10) 0.64432(14) -0.0209(2)
C71A C -0.03600(9) 0.63890(18) -0.0282(2)
H56A H -0.0247 0.6695 -0.0238
C72A C -0.02539(7) 0.5887(2) -0.0419(2)
C73A C -0.04187(11) 0.54399(16) -0.04841(19)
H57A H -0.0346 0.5097 -0.0578
C74A C -0.06897(10) 0.54940(15) -0.0411(2)
C75A C 0.00479(12) 0.5819(2) -0.0513(3)
H58A H 0.0139 0.6163 -0.0425
H59A H 0.0074 0.5704 -0.0979
H60A H 0.0121 0.5547 -0.0195
C76A C -0.08460(13) 0.4965(2) -0.0535(3)
H61A H -0.0730 0.4658 -0.0421
H62A H -0.0909 0.4942 -0.1014
H63A H -0.0998 0.4958 -0.0250
C77A C -0.07254(11) 0.7024(2) -0.0083(3)
H64A H -0.0839 0.7027 0.0304
H65A H -0.0826 0.7157 -0.0488
H66A H -0.0571 0.7256 0.0017
C78A C -0.02930(15) 0.1070(3) 0.2555(5)
C79A C -0.03001(15) 0.0709(3) 0.2012(4)
H67A H -0.0210 0.0797 0.1618
C80A C -0.04338(16) 0.0230(3) 0.2034(4)
H68A H -0.0447 -0.0002 0.1651
C81A C -0.05494(16) 0.0095(3) 0.2625(5)
C82A C -0.05468(14) 0.0443(3) 0.3163(4)
H69A H -0.0635 0.0352 0.3559
C83A C -0.04140(16) 0.0932(3) 0.3124(4)
H70A H -0.0408 0.1171 0.3500
C84A C -0.06828(16) -0.0425(3) 0.2702(4)
C85A C -0.07858(18) -0.0829(4) 0.2790(4)
C86A C -0.09202(19) -0.1319(3) 0.2920(4)
C87A C -0.11874(19) -0.1377(3) 0.2868(4)
H71A H -0.1293 -0.1081 0.2713
C88A C -0.13107(15) -0.1844(4) 0.3027(4)
H72A H -0.1499 -0.1861 0.3005
C89A C -0.11582(16) -0.2307(3) 0.3227(4)
C90A C -0.07669(12) -0.1776(3) 0.3106(3)
H73A H -0.0579 -0.1752 0.3145
C91A C -0.12355(16) -0.2823(3) 0.3448(3)
C92A C -0.14926(15) -0.2985(3) 0.3454(4)
H74A H -0.1638 -0.2760 0.3314
C93A C -0.15256(16) -0.3518(3) 0.3687(4)
H75A H -0.1701 -0.3651 0.3715
C94A C -0.13207(17) -0.3847(3) 0.3871(4)
H76A H -0.1350 -0.4207 0.4008
C95A C -0.10670(15) -0.3642(3) 0.3852(3)
H77A H -0.0923 -0.3868 0.3998
C96A C -0.10077(13) -0.3121(3) 0.3633(3)
C97A C -0.06109(8) -0.31814(18) 0.2864(3)
C98A C -0.06394(8) -0.30865(15) 0.2169(3)
C99A C -0.05370(9) -0.3451(2) 0.17191(19)
H78A H -0.0557 -0.3386 0.1245
C100A C -0.04060(8) -0.39096(18) 0.1963(3)
C101A C -0.03774(7) -0.40045(15) 0.2657(3)
H79A H -0.0288 -0.4318 0.2824
C102A C -0.04798(9) -0.3640(2) 0.31077(19)
C103A C -0.07824(15) -0.2608(3) 0.1850(3)
H80A H -0.0799 -0.2654 0.1356
H81A H -0.0682 -0.2280 0.1963
H82A H -0.0960 -0.2580 0.2024
C104A C -0.03970(11) -0.3764(2) 0.3834(3)
H83A H -0.0406 -0.4154 0.3908
H84A H -0.0516 -0.3581 0.4132
H85A H -0.0215 -0.3639 0.3935
C105A C -0.03001(12) -0.4308(3) 0.1440(3)
H86A H -0.0345 -0.4176 0.0980
H87A H -0.0381 -0.4662 0.1497
H88A H -0.0107 -0.4339 0.1512
C106A C -0.05164(9) -0.25911(16) 0.4094(2)
C107A C -0.02562(11) -0.24868(17) 0.3940(2)
C108A C -0.00738(7) -0.23009(17) 0.4442(3)
H89A H 0.0104 -0.2230 0.4337
C109A C -0.01518(11) -0.22192(15) 0.5097(3)
C110A C -0.04120(12) -0.23234(17) 0.5251(2)
H90A H -0.0465 -0.2268 0.5699
C111A C -0.05943(8) -0.25094(17) 0.4749(3)
C112A C 0.00487(14) -0.2025(3) 0.5662(4)
H91A H 0.0062 -0.2292 0.6027
H92A H -0.0011 -0.1681 0.5842
H93A H 0.0223 -0.1978 0.5477
C113A C -0.01359(12) -0.2529(3) 0.3263(3)
H94A H -0.0257 -0.2369 0.2912
H95A H -0.0107 -0.2908 0.3156
H96A H 0.0034 -0.2336 0.3281
C114A C -0.08732(13) -0.2584(3) 0.4968(3)
H97A H -0.0885 -0.2442 0.5429
H98A H -0.0917 -0.2968 0.4963
H99A H -0.0998 -0.2391 0.4656
N1A N -0.23090(19) 0.2653(4) 0.2837(4)
N2A N -0.11089(10) 0.5876(2) 0.0705(3)
N3A N -0.08903(12) -0.2258(2) 0.3231(3)
B1A B -0.2603(3) 0.2340(6) 0.2831(8)
B2A B -0.11260(16) 0.6029(3) -0.0114(5)
B3A B -0.07317(15) -0.2826(3) 0.3461(4)
loop_
_geom_bond_atom_site_label_1
_geom_bond_atom_site_label_2
_geom_bond_site_symmetry_1
_geom_bond_site_symmetry_2
C1 C2 1_555 1_555
C2 C3 1_555 1_555
C3 C78 1_555 1_555
C4 H1 1_555 1_555
C5 C2 1_555 1_555
C6 C4 1_555 1_555
H2 C6 1_555 1_555
C7 C6 1_555 1_555
C8 C7 1_555 1_555
H3 C8 1_555 1_555
C9 C5 1_555 1_555
H4 C9 1_555 1_555
C10 C7 1_555 1_555
C11 C10 1_555 1_555
C12 C11 1_555 1_555
C13 C12 1_555 1_555
H5 C13 1_555 1_555
C14 C13 1_555 1_555
H6 C14 1_555 1_555
C15 C14 1_555 1_555
C16 C12 1_555 1_555
H7 C16 1_555 1_555
C17 C15 1_555 1_555
C18 C17 1_555 1_555
H8 C18 1_555 1_555
C19 C18 1_555 1_555
H9 C19 1_555 1_555
C20 C19 1_555 1_555
H10 C20 1_555 1_555
C21 C20 1_555 1_555
H11 C21 1_555 1_555
C22 C17 1_555 1_555
C23 C24 1_555 1_555
C24 C25 1_555 1_555
C25 H12 1_555 1_555
C26 C25 1_555 1_555
C27 C26 1_555 1_555
H13 C27 1_555 1_555
C28 C23 1_555 1_555
C29 C28 1_555 1_555
H14 C29 1_555 1_555
H15 C29 1_555 1_555
H16 C29 1_555 1_555
C30 C26 1_555 1_555
H17 C30 1_555 1_555
H18 C30 1_555 1_555
H19 C30 1_555 1_555
C31 C24 1_555 1_555
H20 C31 1_555 1_555
H21 C31 1_555 1_555
H22 C31 1_555 1_555
C32 C33 1_555 1_555
C33 C34 1_555 1_555
C34 C35 1_555 1_555
C35 H23 1_555 1_555
C36 C35 1_555 1_555
C37 C32 1_555 1_555
H24 C37 1_555 1_555
C38 C34 1_555 1_555
H25 C38 1_555 1_555
H26 C38 1_555 1_555
H27 C38 1_555 1_555
C39 C36 1_555 1_555
H28 C39 1_555 1_555
H29 C39 1_555 1_555
H30 C39 1_555 1_555
C40 C32 1_555 1_555
H31 C40 1_555 1_555
H32 C40 1_555 1_555
H33 C40 1_555 1_555
C41 C1 1_555 1_555
C42 C41 1_555 1_555
H34 C42 1_555 1_555
C43 C42 1_555 1_555
H35 C43 1_555 1_555
C44 C43 1_555 1_555
C45 C41 1_555 1_555
H36 C45 1_555 1_555
C46 C44 1_555 1_555
H37 C46 1_555 1_555
C47 C44 1_555 1_555
C48 C47 1_555 1_555
C49 C48 1_555 1_555
C50 C49 1_555 1_555
H38 C50 1_555 1_555
C51 C49 1_555 1_555
H39 C51 1_555 1_555
C52 C51 1_555 1_555
H40 C52 1_555 1_555
C53 C52 1_555 1_555
C54 C53 1_555 1_555
C55 C54 1_555 1_555
H41 C55 1_555 1_555
C56 C55 1_555 1_555
H42 C56 1_555 1_555
C57 C56 1_555 1_555
H43 C57 1_555 1_555
C58 C57 1_555 1_555
H44 C58 1_555 1_555
C59 C54 1_555 1_555
C60 C61 1_555 1_555
C61 C62 1_555 1_555
C62 H45 1_555 1_555
C63 C62 1_555 1_555
C64 C63 1_555 1_555
H46 C64 1_555 1_555
C65 C60 1_555 1_555
C66 C61 1_555 1_555
H47 C66 1_555 1_555
H48 C66 1_555 1_555
H49 C66 1_555 1_555
C67 C63 1_555 1_555
H50 C67 1_555 1_555
H51 C67 1_555 1_555
H52 C67 1_555 1_555
C68 C65 1_555 1_555
H53 C68 1_555 1_555
H54 C68 1_555 1_555
H55 C68 1_555 1_555
C69 C70 1_555 1_555
C70 C71 1_555 1_555
C71 H56 1_555 1_555
C72 C71 1_555 1_555
C73 C72 1_555 1_555
H57 C73 1_555 1_555
C74 C69 1_555 1_555
C75 C72 1_555 1_555
H58 C75 1_555 1_555
H59 C75 1_555 1_555
H60 C75 1_555 1_555
C76 C74 1_555 1_555
H61 C76 1_555 1_555
H62 C76 1_555 1_555
H63 C76 1_555 1_555
C77 C70 1_555 1_555
H64 C77 1_555 1_555
H65 C77 1_555 1_555
H66 C77 1_555 1_555
C78 C79 1_555 1_555
C79 H67 1_555 1_555
C80 C79 1_555 1_555
H68 C80 1_555 1_555
C81 C80 1_555 1_555
C82 C81 1_555 1_555
H69 C82 1_555 1_555
C83 C78 1_555 1_555
H70 C83 1_555 1_555
C84 C81 1_555 1_555
C85 C84 1_555 1_555
C86 C85 1_555 1_555
C87 C86 1_555 1_555
H71 C87 1_555 1_555
C88 C87 1_555 1_555
H72 C88 1_555 1_555
C89 C88 1_555 1_555
C90 C86 1_555 1_555
H73 C90 1_555 1_555
C91 C89 1_555 1_555
C92 C91 1_555 1_555
H74 C92 1_555 1_555
C93 C92 1_555 1_555
H75 C93 1_555 1_555
C94 C93 1_555 1_555
H76 C94 1_555 1_555
C95 C94 1_555 1_555
H77 C95 1_555 1_555
C96 C91 1_555 1_555
C97 C98 1_555 1_555
C98 C99 1_555 1_555
C99 H78 1_555 1_555
C100 C99 1_555 1_555
C101 C100 1_555 1_555
H79 C101 1_555 1_555
C102 C97 1_555 1_555
C103 C98 1_555 1_555
H80 C103 1_555 1_555
H81 C103 1_555 1_555
H82 C103 1_555 1_555
C104 C102 1_555 1_555
H83 C104 1_555 1_555
H84 C104 1_555 1_555
H85 C104 1_555 1_555
C105 C100 1_555 1_555
H86 C105 1_555 1_555
H87 C105 1_555 1_555
H88 C105 1_555 1_555
C106 C107 1_555 1_555
C107 C108 1_555 1_555
C108 H89 1_555 1_555
C109 C108 1_555 1_555
C110 C109 1_555 1_555
H90 C110 1_555 1_555
C111 C106 1_555 1_555
C112 C109 1_555 1_555
H91 C112 1_555 1_555
H92 C112 1_555 1_555
H93 C112 1_555 1_555
C113 C107 1_555 1_555
H94 C113 1_555 1_555
H95 C113 1_555 1_555
H96 C113 1_555 1_555
C114 C111 1_555 1_555
H97 C114 1_555 1_555
H98 C114 1_555 1_555
H99 C114 1_555 1_555
N1 C15 1_555 1_555
N2 C50 1_555 1_555
N3 C89 1_555 1_555
B1 C22 1_555 1_555
B2 C59 1_555 1_555
B3 C96 1_555 1_555
C1A C1 1_555 1_555
C2A C1A 1_555 1_555
C3A C3 1_555 1_555
C4A H1A 1_555 1_555
C5A C2A 1_555 1_555
C6A C4A 1_555 1_555
H2A C6A 1_555 1_555
C7A C6A 1_555 1_555
C8A C7A 1_555 1_555
H3A C8A 1_555 1_555
C9A C5A 1_555 1_555
H4A C9A 1_555 1_555
C10A C7A 1_555 1_555
C11A C10A 1_555 1_555
C12A C11A 1_555 1_555
C13A C12A 1_555 1_555
H5A C13A 1_555 1_555
C14A C13A 1_555 1_555
H6A C14A 1_555 1_555
C15A C14A 1_555 1_555
C16A C12A 1_555 1_555
H7A C16A 1_555 1_555
C17A C15A 1_555 1_555
C18A C17A 1_555 1_555
H8A C18A 1_555 1_555
C19A C18A 1_555 1_555
H9A C19A 1_555 1_555
C20A C19A 1_555 1_555
H10A C20A 1_555 1_555
C21A C20A 1_555 1_555
H11A C21A 1_555 1_555
C22A C17A 1_555 1_555
C23A C24A 1_555 1_555
C24A C25A 1_555 1_555
C25A H12A 1_555 1_555
C26A C25A 1_555 1_555
C27A C26A 1_555 1_555
H13A C27A 1_555 1_555
C28A C23A 1_555 1_555
C29A C28A 1_555 1_555
H14A C29A 1_555 1_555
H15A C29A 1_555 1_555
H16A C29A 1_555 1_555
C30A C26A 1_555 1_555
H17A C30A 1_555 1_555
H18A C30A 1_555 1_555
H19A C30A 1_555 1_555
C31A C24A 1_555 1_555
H20A C31A 1_555 1_555
H21A C31A 1_555 1_555
H22A C31A 1_555 1_555
C32A C33A 1_555 1_555
C33A C34A 1_555 1_555
C34A C35A 1_555 1_555
C35A H23A 1_555 1_555
C36A C35A 1_555 1_555
C37A C32A 1_555 1_555
H24A C37A 1_555 1_555
C38A C34A 1_555 1_555
H25A C38A 1_555 1_555
H26A C38A 1_555 1_555
H27A C38A 1_555 1_555
C39A C36A 1_555 1_555
H28A C39A 1_555 1_555
H29A C39A 1_555 1_555
H30A C39A 1_555 1_555
C40A C32A 1_555 1_555
H31A C40A 1_555 1_555
H32A C40A 1_555 1_555
H33A C40A 1_555 1_555
C41A C1A 1_555 1_555
C42A C41A 1_555 1_555
H34A C42A 1_555 1_555
C43A C42A 1_555 1_555
H35A C43A 1_555 1_555
C44A C43A 1_555 1_555
C45A C41A 1_555 1_555
H36A C45A 1_555 1_555
C46A C44A 1_555 1_555
H37A C46A 1_555 1_555
C47A C44A 1_555 1_555
C48A C47A 1_555 1_555
C49A C48A 1_555 1_555
C50A C49A 1_555 1_555
H38A C50A 1_555 1_555
C51A C49A 1_555 1_555
H39A C51A 1_555 1_555
C52A C51A 1_555 1_555
H40A C52A 1_555 1_555
C53A C52A 1_555 1_555
C54A C53A 1_555 1_555
C55A C54A 1_555 1_555
H41A C55A 1_555 1_555
C56A C55A 1_555 1_555
H42A C56A 1_555 1_555
C57A C56A 1_555 1_555
H43A C57A 1_555 1_555
C58A C57A 1_555 1_555
H44A C58A 1_555 1_555
C59A C54A 1_555 1_555
C60A C61A 1_555 1_555
C61A C62A 1_555 1_555
C62A H45A 1_555 1_555
C63A C62A 1_555 1_555
C64A C63A 1_555 1_555
H46A C64A 1_555 1_555
C65A C60A 1_555 1_555
C66A C61A 1_555 1_555
H47A C66A 1_555 1_555
H48A C66A 1_555 1_555
H49A C66A 1_555 1_555
C67A C63A 1_555 1_555
H50A C67A 1_555 1_555
H51A C67A 1_555 1_555
H52A C67A 1_555 1_555
C68A C65A 1_555 1_555
H53A C68A 1_555 1_555
H54A C68A 1_555 1_555
H55A C68A 1_555 1_555
C69A C70A 1_555 1_555
C70A C71A 1_555 1_555
C71A H56A 1_555 1_555
C72A C71A 1_555 1_555
C73A C72A 1_555 1_555
H57A C73A 1_555 1_555
C74A C69A 1_555 1_555
C75A C72A 1_555 1_555
H58A C75A 1_555 1_555
H59A C75A 1_555 1_555
H60A C75A 1_555 1_555
C76A C74A 1_555 1_555
H61A C76A 1_555 1_555
H62A C76A 1_555 1_555
H63A C76A 1_555 1_555
C77A C70A 1_555 1_555
H64A C77A 1_555 1_555
H65A C77A 1_555 1_555
H66A C77A 1_555 1_555
C78A C3A 1_555 1_555
C79A C78A 1_555 1_555
H67A C79A 1_555 1_555
C80A C79A 1_555 1_555
H68A C80A 1_555 1_555
C81A C80A 1_555 1_555
C82A C81A 1_555 1_555
H69A C82A 1_555 1_555
C83A C78A 1_555 1_555
H70A C83A 1_555 1_555
C84A C81A 1_555 1_555
C85A C84A 1_555 1_555
C86A C85A 1_555 1_555
C87A C86A 1_555 1_555
H71A C87A 1_555 1_555
C88A C87A 1_555 1_555
H72A C88A 1_555 1_555
C89A C88A 1_555 1_555
C90A C86A 1_555 1_555
H73A C90A 1_555 1_555
C91A C89A 1_555 1_555
C92A C91A 1_555 1_555
H74A C92A 1_555 1_555
C93A C92A 1_555 1_555
H75A C93A 1_555 1_555
C94A C93A 1_555 1_555
H76A C94A 1_555 1_555
C95A C94A 1_555 1_555
H77A C95A 1_555 1_555
C96A C91A 1_555 1_555
C97A C98A 1_555 1_555
C98A C99A 1_555 1_555
C99A H78A 1_555 1_555
C100A C99A 1_555 1_555
C101A C100A 1_555 1_555
H79A C101A 1_555 1_555
C102A C97A 1_555 1_555
C103A C98A 1_555 1_555
H80A C103A 1_555 1_555
H81A C103A 1_555 1_555
H82A C103A 1_555 1_555
C104A C102A 1_555 1_555
H83A C104A 1_555 1_555
H84A C104A 1_555 1_555
H85A C104A 1_555 1_555
C105A C100A 1_555 1_555
H86A C105A 1_555 1_555
H87A C105A 1_555 1_555
H88A C105A 1_555 1_555
C106A C107A 1_555 1_555
C107A C108A 1_555 1_555
C108A H89A 1_555 1_555
C109A C108A 1_555 1_555
C110A C109A 1_555 1_555
H90A C110A 1_555 1_555
C111A C106A 1_555 1_555
C112A C109A 1_555 1_555
H91A C112A 1_555 1_555
H92A C112A 1_555 1_555
H93A C112A 1_555 1_555
C113A C107A 1_555 1_555
H94A C113A 1_555 1_555
H95A C113A 1_555 1_555
H96A C113A 1_555 1_555
C114A C111A 1_555 1_555
H97A C114A 1_555 1_555
H98A C114A 1_555 1_555
H99A C114A 1_555 1_555
N1A C15A 1_555 1_555
N2A C50A 1_555 1_555
N3A C89A 1_555 1_555
B1A C22A 1_555 1_555
B2A C59A 1_555 1_555
B3A C96A 1_555 1_555
C4 C5 1_555 1_555
C8 C9 1_555 1_555
C16 N1 1_555 1_555
C21 C22 1_555 1_555
C23 B1 1_555 1_555
C27 C28 1_555 1_555
C33 B1 1_555 1_555
C36 C37 1_555 1_555
C45 C46 1_555 1_555
C53 N2 1_555 1_555
C58 C59 1_555 1_555
C60 B2 1_555 1_555
C64 C65 1_555 1_555
C69 B2 1_555 1_555
C73 C74 1_555 1_555
C82 C83 1_555 1_555
C90 N3 1_555 1_555
C95 C96 1_555 1_555
C97 B3 1_555 1_555
C101 C102 1_555 1_555
C106 B3 1_555 1_555
C110 C111 1_555 1_555
N1 B1 1_555 1_555
N2 B2 1_555 1_555
N3 B3 1_555 1_555
C2A C3A 1_555 1_555
C4A C5A 1_555 1_555
C8A C9A 1_555 1_555
C16A N1A 1_555 1_555
C21A C22A 1_555 1_555
C23A B1A 1_555 1_555
C27A C28A 1_555 1_555
C33A B1A 1_555 1_555
C36A C37A 1_555 1_555
C45A C46A 1_555 1_555
C53A N2A 1_555 1_555
C58A C59A 1_555 1_555
C60A B2A 1_555 1_555
C64A C65A 1_555 1_555
C69A B2A 1_555 1_555
C73A C74A 1_555 1_555
C82A C83A 1_555 1_555
C90A N3A 1_555 1_555
C95A C96A 1_555 1_555
C97A B3A 1_555 1_555
C101A C102A 1_555 1_555
C106A B3A 1_555 1_555
C110A C111A 1_555 1_555
N1A B1A 1_555 1_555
N2A B2A 1_555 1_555
N3A B3A 1_555 1_555

#END
