
#######################################################################
#
#                 Cambridge Crystallographic Data Centre
#                                CCDC 
#
#######################################################################
#
# If this CIF has been generated from an entry in the Cambridge 
# Structural Database, then it will include bibliographic, chemical, 
# crystal, experimental, refinement or atomic coordinate data resulting 
# from the CCDC's data processing and validation procedures.
#
#######################################################################

data_TAFBUZ01
_chemical_formula_moiety         'C18 H10 Cl2 O2,C6 H16 N1 1+,C2 H3 O2 1-'
_chemical_name_systematic        
'1,5-Dichloro-trans-9,10-diethynyl-9,10-dihydroxy-9,10-dihydroanthracene triethylammonium acetate'
_symmetry_cell_setting           monoclinic
_symmetry_space_group_name_H-M   'P 21/c'
_symmetry_Int_Tables_number      14
_space_group_name_Hall           '-P 2ybc'
loop_
_symmetry_equiv_pos_site_id
_symmetry_equiv_pos_as_xyz
1 x,y,z
2 -x,1/2+y,1/2-z
3 -x,-y,-z
4 x,1/2-y,1/2+z
_cell_length_a                   7.4892(4)
_cell_length_b                   13.3457(7)
_cell_length_c                   24.0116(13)
_cell_angle_alpha                90
_cell_angle_beta                 90.709(2)
_cell_angle_gamma                90
_cell_volume                     2399.74
_exptl_crystal_colour            colorless
_exptl_crystal_description       block
_cell_formula_units_Z            4
loop_
_atom_site_label
_atom_site_type_symbol
_atom_site_fract_x
_atom_site_fract_y
_atom_site_fract_z
Cl1 Cl 0.04827(8) 0.89423(5) 0.19921(3)
O1 O 0.0169(2) 0.81047(14) 0.31596(8)
H1 H 0.052(3) 0.8579(18) 0.3352(11)
C1 C 0.2646(3) 0.8886(2) 0.22724(11)
Cl2 Cl 0.67327(8) 0.61094(5) 0.43328(3)
O2 O 0.6959(2) 0.70357(14) 0.32227(8)
H3 H 0.775(4) 0.740(2) 0.3189(13)
C2 C 0.3879(4) 0.9508(2) 0.20341(12)
H4 H 0.354(3) 0.9929(19) 0.1737(12)
C3 C 0.5623(4) 0.9501(2) 0.22357(13)
H5 H 0.645(3) 0.9896(19) 0.2076(11)
C4 C 0.6079(3) 0.8894(2) 0.26771(12)
H6 H 0.730(3) 0.8913(19) 0.2811(11)
C5 C 0.4560(3) 0.6219(2) 0.40659(11)
C6 C 0.3320(4) 0.5601(2) 0.43028(12)
H7 H 0.357(3) 0.5161(19) 0.4582(11)
C7 C 0.1554(3) 0.5622(2) 0.41096(13)
H8 H 0.067(3) 0.517(2) 0.4276(11)
C8 C 0.1108(3) 0.6252(2) 0.36830(12)
H9 H -0.011(3) 0.6277(17) 0.3544(10)
C9 C 0.1663(3) 0.75464(18) 0.29660(10)
C10 C 0.5500(3) 0.76264(19) 0.34084(11)
C11 C 0.2366(3) 0.68866(18) 0.34426(11)
C12 C 0.4125(3) 0.68920(18) 0.36361(11)
C13 C 0.3062(3) 0.82435(18) 0.27202(10)
C14 C 0.4816(3) 0.82685(18) 0.29247(11)
C15 C 0.1003(3) 0.6848(2) 0.25286(11)
C16 C 0.0522(4) 0.6231(2) 0.22061(13)
H10 H 0.014(4) 0.576(2) 0.1949(13)
C17 C 0.6056(3) 0.8304(2) 0.38726(12)
C18 C 0.6484(4) 0.8829(2) 0.42450(14)
H11 H 0.680(4) 0.923(2) 0.4524(13)
N1 N 0.3842(4) 1.1856(2) 0.40349(11)
H2 H 0.307(4) 1.120(3) 0.4131(14)
C21 C 0.5709(6) 1.1453(4) 0.4181(2)
H15 H 0.5766 1.1286 0.4574
H16 H 0.5928 1.0846 0.3970
C22 C 0.7134(8) 1.2220(6) 0.4051(3)
H17 H 0.8287 1.1952 0.4147
H18 H 0.6926 1.2817 0.4263
H19 H 0.7093 1.2376 0.3661
C23 C 0.3522(7) 1.2024(3) 0.34624(18)
H20 H 0.4117 1.2641 0.3360
H21 H 0.2250 1.2129 0.3408
C24 C 0.4106(5) 1.1213(3) 0.30640(17)
H22 H 0.3818 1.1411 0.2689
H23 H 0.3499 1.0600 0.3149
H24 H 0.5372 1.1115 0.3101
C25 C 0.3412(9) 1.2632(4) 0.4430(2)
H25 H 0.4119 1.3224 0.4352
H26 H 0.3721 1.2405 0.4803
C26 C 0.1454(10) 1.2903(6) 0.4407(3)
H27 H 0.1217 1.3418 0.4675
H28 H 0.0751 1.2322 0.4489
H29 H 0.1150 1.3142 0.4040
O3 O 0.2273(3) 1.03426(16) 0.45096(9)
O4 O 0.1235(2) 0.96695(14) 0.37227(8)
C19 C 0.1582(4) 0.9626(2) 0.42343(12)
C20 C 0.1218(4) 0.8687(2) 0.45519(13)
H12 H 0.0699 0.8196 0.4306
H13 H 0.0404 0.8829 0.4847
H14 H 0.2316 0.8432 0.4706
C27? C 0.5123(11) 1.2253(7) 0.4464(4)
C28? C 0.6126(11) 1.3195(6) 0.4334(4)
C29? C 0.4891(16) 1.1683(9) 0.3474(5)
C30? C 0.5883(19) 1.0995(11) 0.3521(7)
C31? C 0.2428(12) 1.2693(7) 0.3855(4)
C32? C 0.101(4) 1.270(2) 0.4315(12)
H30? H 0.5992 1.1732 0.4544
H31? H 0.4463 1.2366 0.4803
H32? H 0.6874 1.3372 0.4647
H33? H 0.5294 1.3728 0.4261
H34? H 0.6851 1.3090 0.4013
H35? H 0.4047 1.1553 0.3173
H36? H 0.5559 1.2282 0.3383
H37? H 0.6517 1.0904 0.3179
H38? H 0.5217 1.0399 0.3602
H39? H 0.6719 1.1124 0.3818
H40? H 0.3001 1.3343 0.3828
H41? H 0.1888 1.2530 0.3497
H42? H 0.0108 1.3191 0.4227
H43? H 0.1561 1.2866 0.4666
H44? H 0.0462 1.2051 0.4339
loop_
_geom_bond_atom_site_label_1
_geom_bond_atom_site_label_2
_geom_bond_site_symmetry_1
_geom_bond_site_symmetry_2
Cl1 C1 1_555 1_555
O1 H1 1_555 1_555
C1 C2 1_555 1_555
N1 H2 1_555 1_555
Cl2 C5 1_555 1_555
O2 H3 1_555 1_555
C2 H4 1_555 1_555
C3 C2 1_555 1_555
H5 C3 1_555 1_555
O3 C19 1_555 1_555
C4 C3 1_555 1_555
H6 C4 1_555 1_555
O4 C19 1_555 1_555
C5 C6 1_555 1_555
C6 H7 1_555 1_555
C7 C6 1_555 1_555
H8 C7 1_555 1_555
C8 C7 1_555 1_555
H9 C8 1_555 1_555
C9 O1 1_555 1_555
C10 O2 1_555 1_555
C11 C8 1_555 1_555
C12 C5 1_555 1_555
C13 C1 1_555 1_555
C14 C4 1_555 1_555
C15 C9 1_555 1_555
C16 C15 1_555 1_555
H10 C16 1_555 1_555
C17 C10 1_555 1_555
C18 C17 1_555 1_555
H11 C18 1_555 1_555
C19 C20 1_555 1_555
C20 H12 1_555 1_555
H13 C20 1_555 1_555
H14 C20 1_555 1_555
C21 N1 1_555 1_555
H15 C21 1_555 1_555
H16 C21 1_555 1_555
C22 C21 1_555 1_555
H17 C22 1_555 1_555
H18 C22 1_555 1_555
H19 C22 1_555 1_555
C23 N1 1_555 1_555
H20 C23 1_555 1_555
H21 C23 1_555 1_555
C24 C23 1_555 1_555
H22 C24 1_555 1_555
H23 C24 1_555 1_555
H24 C24 1_555 1_555
C25 N1 1_555 1_555
H25 C25 1_555 1_555
H26 C25 1_555 1_555
C26 C25 1_555 1_555
H27 C26 1_555 1_555
H28 C26 1_555 1_555
H29 C26 1_555 1_555
C9 C11 1_555 1_555
C9 C13 1_555 1_555
C10 C12 1_555 1_555
C10 C14 1_555 1_555
C11 C12 1_555 1_555
C13 C14 1_555 1_555

#END
