
#######################################################################
#
#                 Cambridge Crystallographic Data Centre
#                                CCDC 
#
#######################################################################
#
# If this CIF has been generated from an entry in the Cambridge 
# Structural Database, then it will include bibliographic, chemical, 
# crystal, experimental, refinement or atomic coordinate data resulting 
# from the CCDC's data processing and validation procedures.
#
#######################################################################

data_TAFBOR
_chemical_formula_moiety         'C10 H14 N1 O1 1+,H1 O4 S1 1-'
_chemical_name_systematic        
"2,4-Dimethyl-1-(1'-hydroxyethylamide-)-benzene monohydrogensulfate"
_symmetry_cell_setting           monoclinic
_symmetry_space_group_name_H-M   'P 21/c'
_symmetry_Int_Tables_number      14
_space_group_name_Hall           '-P 2ybc'
loop_
_symmetry_equiv_pos_site_id
_symmetry_equiv_pos_as_xyz
1 x,y,z
2 -x,1/2+y,1/2-z
3 -x,-y,-z
4 x,1/2-y,1/2+z
_cell_length_a                   4.690(1)
_cell_length_b                   24.374(5)
_cell_length_c                   11.106(2)
_cell_angle_alpha                90
_cell_angle_beta                 92.93(2)
_cell_angle_gamma                90
_cell_volume                     1267.91
_cell_formula_units_Z            4
loop_
_atom_site_label
_atom_site_type_symbol
_atom_site_fract_x
_atom_site_fract_y
_atom_site_fract_z
S1 S 0.2213(2) 0.15301(4) 0.1391(1)
O1 O 0.4098(7) 0.1018(1) 0.1254(3)
O2 O 0.2801(9) 0.1747(2) 0.2579(3)
O3 O -0.0610(7) 0.1332(2) 0.1159(4)
O4 O 0.2990(7) 0.1924(1) 0.0492(3)
H1 H 0.582(9) 0.109(2) 0.126(4)
O5 O 0.6695(7) 0.2670(1) 0.0677(2)
C1 C 0.7744(10) 0.2361(2) -0.1321(4)
C2 C 0.8072(10) 0.2758(2) -0.0286(3)
N1 N 0.9611(8) 0.3190(1) -0.0340(3)
C3 C 0.9935(2) 0.3593(2) 0.0619(3)
C4 C 0.8640(10) 0.4094(2) 0.0477(4)
C5 C 0.8970(12) 0.4472(2) 0.1419(4)
C6 C 1.0682(11) 0.4350(2) 0.2458(4)
C7 C 1.1917(12) 0.3845(2) 0.2551(4)
C8 C 1.1604(11) 0.3459(2) 0.1643(3)
C9 C 0.6833(14) 0.4246(2) -0.0651(5)
C10 C 1.1089(17) 0.4782(2) 0.3443(5)
H2 H 0.525(11) 0.235(2) 0.057(4)
H3 H 0.899(12) 0.248(2) -0.191(4)
H4 H 0.801(9) 0.195(2) -0.101(4)
H5 H 0.548(10) 0.234(2) -0.155(4)
H6 H 1.069(11) 0.325(2) -0.093(4)
H7 H 0.679(11) 0.465(2) -0.088(5)
H8 H 0.746(15) 0.404(3) -0.129(6)
H9 H 0.468(13) 0.413(3) -0.066(5)
H10 H 0.834(9) 0.491(2) 0.129(4)
H11 H 0.941(11) 0.471(2) 0.388(4)
H12 H 1.232(11) 0.460(2) 0.413(5)
H13 H 1.113(13) 0.516(2) 0.325(5)
H14 H 1.335(11) 0.374(2) 0.331(4)
H15 H 1.224(9) 0.308(2) 0.173(3)
loop_
_geom_bond_atom_site_label_1
_geom_bond_atom_site_label_2
_geom_bond_site_symmetry_1
_geom_bond_site_symmetry_2
S1 O1 1_555 1_555
O1 H1 1_555 1_555
O2 S1 1_555 1_555
O3 S1 1_555 1_555
O4 S1 1_555 1_555
O5 C2 1_555 1_555
C1 C2 1_555 1_555
C2 N1 1_555 1_555
N1 C3 1_555 1_555
C3 C4 1_555 1_555
C4 C5 1_555 1_555
C5 C6 1_555 1_555
C6 C7 1_555 1_555
C7 C8 1_555 1_555
C8 C3 1_555 1_555
C9 C4 1_555 1_555
C10 C6 1_555 1_555
H2 O5 1_555 1_555
H3 C1 1_555 1_555
H4 C1 1_555 1_555
H5 C1 1_555 1_555
H6 N1 1_555 1_555
H7 C9 1_555 1_555
H8 C9 1_555 1_555
H9 C9 1_555 1_555
H10 C5 1_555 1_555
H11 C10 1_555 1_555
H12 C10 1_555 1_555
H13 C10 1_555 1_555
H14 C7 1_555 1_555
H15 C8 1_555 1_555

#END
