
#######################################################################
#
#                 Cambridge Crystallographic Data Centre
#                                CCDC 
#
#######################################################################
#
# If this CIF has been generated from an entry in the Cambridge 
# Structural Database, then it will include bibliographic, chemical, 
# crystal, experimental, refinement or atomic coordinate data resulting 
# from the CCDC's data processing and validation procedures.
#
#######################################################################

data_TAFGUF
_chemical_formula_moiety         'C22 H14 Cl1 N2 O2 1+,C4 H8 O2,Cl1 1-'
_chemical_name_systematic        
'8-(8-chloro-11-oxodibenzo[b,f][1,4]oxazepin-10(11H)-yl)quinolin-1-ium chloride 1,4-dioxane solvate'
_symmetry_cell_setting           monoclinic
_symmetry_space_group_name_H-M   'P 21/c'
_symmetry_Int_Tables_number      14
_space_group_name_Hall           '-P 2ybc'
loop_
_symmetry_equiv_pos_site_id
_symmetry_equiv_pos_as_xyz
1 x,y,z
2 -x,1/2+y,1/2-z
3 -x,-y,-z
4 x,1/2-y,1/2+z
_cell_length_a                   9.9210(9)
_cell_length_b                   17.9238(15)
_cell_length_c                   12.9555(11)
_cell_angle_alpha                90
_cell_angle_beta                 90.022
_cell_angle_gamma                90
_cell_volume                     2303.77
_exptl_crystal_description       block
_cell_formula_units_Z            4
loop_
_atom_site_label
_atom_site_type_symbol
_atom_site_fract_x
_atom_site_fract_y
_atom_site_fract_z
Cl1 Cl 0.52491(4) 0.97740(2) 0.81407(3)
Cl2 Cl 0.39884(5) 1.15120(2) 0.50274(3)
O1 O 0.19326(12) 0.84632(6) 0.55994(8)
O2 O 0.21968(11) 0.87233(6) 0.87309(7)
N1 N 0.27101(14) 1.03522(6) 0.90311(9)
H1 H 0.3310 1.0111 0.8687
N2 N 0.20048(13) 0.94399(6) 0.73073(8)
C1 C 0.21507(19) 1.11306(8) 1.04430(11)
H2 H 0.2428 1.1390 1.1028
C2 C 0.30877(18) 1.07342(8) 0.98491(11)
H3 H 0.3993 1.0741 1.0036
C3 C 0.14101(17) 1.03252(8) 0.87122(10)
C4 C 0.10418(16) 0.99048(8) 0.78380(10)
C5 C 0.24280(16) 0.88037(8) 0.78063(10)
C6 C 0.30890(17) 0.81939(8) 0.72054(11)
C7 C 0.27476(16) 0.80104(8) 0.61955(11)
C8 C 0.31403(17) 0.73366(8) 0.57612(11)
H4 H 0.2875 0.7215 0.5094
C9 C 0.39231(18) 0.68490(9) 0.63217(13)
H5 H 0.4183 0.6395 0.6036
C10 C 0.24656(17) 0.96686(8) 0.63102(10)
C11 C 0.24286(17) 0.91838(8) 0.54774(11)
C12 C 0.43246(18) 0.70362(9) 0.73157(12)
H6 H 0.4873 0.6714 0.7690
C13 C 0.39091(17) 0.76993(8) 0.77444(11)
H7 H 0.4183 0.7820 0.8410
C14 C 0.28646(18) 0.94116(9) 0.45096(11)
H8 H 0.2842 0.9079 0.3959
C15 C 0.33350(18) 1.01329(9) 0.43601(11)
H9 H 0.3623 1.0291 0.3713
C16 C 0.33632(17) 1.06090(8) 0.51981(11)
C17 C 0.29441(16) 1.03899(8) 0.61730(11)
H10 H 0.2983 1.0720 0.6726
C18 C -0.02652(17) 0.99284(8) 0.75153(11)
H11 H -0.0513 0.9666 0.6926
C19 C -0.12530(18) 1.03418(8) 0.80558(11)
H12 H -0.2136 1.0352 0.7815
C20 C -0.09175(17) 1.07255(8) 0.89291(11)
H13 H -0.1577 1.0980 0.9298
C21 C 0.04293(17) 1.07350(8) 0.92694(10)
C22 C 0.08339(18) 1.11331(8) 1.01572(11)
H14 H 0.0202 1.1396 1.0544
O3 O 0.01754(13) 0.19632(6) 0.24625(8)
O4 O 0.18418(13) 0.32398(6) 0.25271(8)
C23 C 0.09768(19) 0.30995(9) 0.16775(13)
H15 H 0.1465 0.2826 0.1150
H16 H 0.0684 0.3570 0.1382
C24 C -0.02353(19) 0.26554(8) 0.20108(13)
H17 H -0.0753 0.2940 0.2509
H18 H -0.0807 0.2559 0.1419
C25 C 0.1014(2) 0.21117(10) 0.33254(13)
H19 H 0.1302 0.1645 0.3633
H20 H 0.0509 0.2388 0.3840
C26 C 0.2228(2) 0.25554(9) 0.30035(13)
H21 H 0.2780 0.2660 0.3604
H22 H 0.2763 0.2264 0.2524
loop_
_geom_bond_atom_site_label_1
_geom_bond_atom_site_label_2
_geom_bond_site_symmetry_1
_geom_bond_site_symmetry_2
Cl2 C16 1_555 1_555
O1 C7 1_555 1_555
O2 C5 1_555 1_555
N1 H1 1_555 1_555
N2 C4 1_555 1_555
C1 H2 1_555 1_555
C2 N1 1_555 1_555
H3 C2 1_555 1_555
C3 N1 1_555 1_555
C4 C3 1_555 1_555
C5 N2 1_555 1_555
C6 C5 1_555 1_555
C7 C6 1_555 1_555
C8 C7 1_555 1_555
H4 C8 1_555 1_555
C9 C8 1_555 1_555
H5 C9 1_555 1_555
C10 N2 1_555 1_555
C11 O1 1_555 1_555
C12 C9 1_555 1_555
H6 C12 1_555 1_555
C13 C6 1_555 1_555
H7 C13 1_555 1_555
C14 C11 1_555 1_555
H8 C14 1_555 1_555
C15 C14 1_555 1_555
H9 C15 1_555 1_555
C16 C15 1_555 1_555
C17 C10 1_555 1_555
H10 C17 1_555 1_555
C18 C4 1_555 1_555
H11 C18 1_555 1_555
C19 C18 1_555 1_555
H12 C19 1_555 1_555
C20 C19 1_555 1_555
H13 C20 1_555 1_555
C21 C3 1_555 1_555
C22 C1 1_555 1_555
H14 C22 1_555 1_555
O3 C24 1_555 1_555
O4 C23 1_555 1_555
C23 H15 1_555 1_555
H16 C23 1_555 1_555
C24 C23 1_555 1_555
H17 C24 1_555 1_555
H18 C24 1_555 1_555
C25 O3 1_555 1_555
H19 C25 1_555 1_555
H20 C25 1_555 1_555
C26 O4 1_555 1_555
H21 C26 1_555 1_555
H22 C26 1_555 1_555
C1 C2 1_555 1_555
C10 C11 1_555 1_555
C12 C13 1_555 1_555
C16 C17 1_555 1_555
C20 C21 1_555 1_555
C21 C22 1_555 1_555
C25 C26 1_555 1_555

#END
