
#######################################################################
#
#                 Cambridge Crystallographic Data Centre
#                                CCDC 
#
#######################################################################
#
# If this CIF has been generated from an entry in the Cambridge 
# Structural Database, then it will include bibliographic, chemical, 
# crystal, experimental, refinement or atomic coordinate data resulting 
# from the CCDC's data processing and validation procedures.
#
#######################################################################

data_TAFHEQ
_chemical_name_common            
9,11-dibromo-6-methyl-6-phenyl-6,7-dihydro-5H-quinolino[2,3-d][1]benzazepine
_chemical_formula_moiety         'C24 H18 Br2 N2'
_chemical_name_systematic        
9,11-dibromo-6-methyl-6-phenyl-6,7-dihydro-5H-benzo[6,7]azepino[4,5-b]quinoline
_symmetry_cell_setting           monoclinic
_symmetry_space_group_name_H-M   'P 21/n'
_symmetry_Int_Tables_number      14
_space_group_name_Hall           '-P 2yn'
loop_
_symmetry_equiv_pos_site_id
_symmetry_equiv_pos_as_xyz
1 x,y,z
2 1/2-x,1/2+y,1/2-z
3 -x,-y,-z
4 1/2+x,1/2-y,1/2+z
_cell_length_a                   11.5512(17)
_cell_length_b                   7.5173(11)
_cell_length_c                   22.879(3)
_cell_angle_alpha                90
_cell_angle_beta                 91.554(4)
_cell_angle_gamma                90
_cell_volume                     1985.94
_exptl_crystal_colour            'yellow solid'
_exptl_crystal_description       needle
_chemical_melting_point          '436-438 K'
_cell_formula_units_Z            4
_chemical_properties_physical    Heat-sensitive
_exptl_crystal_recrystallization_method 'ethyl acetate'
loop_
_atom_site_label
_atom_site_type_symbol
_atom_site_fract_x
_atom_site_fract_y
_atom_site_fract_z
C1 C 0.3783(3) -0.0088(6) 0.91248(15)
C2 C 0.3232(4) -0.1095(6) 0.95642(16)
C3 C 0.3074(4) -0.0438(6) 1.01115(17)
H1 H 0.2713 -0.1122 1.0392
C4 C 0.3462(4) 0.1278(7) 1.02435(17)
C5 C 0.4007(4) 0.2300(6) 0.98488(17)
H2 H 0.4265 0.3432 0.9951
C6 C 0.4180(3) 0.1632(6) 0.92796(16)
C7 C 0.4734(4) 0.2618(6) 0.88498(17)
H3 H 0.4998 0.3759 0.8935
C8 C 0.4890(3) 0.1919(5) 0.83053(16)
C9 C 0.4470(3) 0.0163(5) 0.81944(15)
C10 C 0.4686(4) -0.0689(5) 0.76161(15)
H4 H 0.4528 -0.1952 0.7646
H5 H 0.5498 -0.0552 0.7529
C11 C 0.2662(4) -0.0241(7) 0.7209(2)
H6 H 0.2448 0.0320 0.7567
H7 H 0.2519 -0.1497 0.7233
H8 H 0.2211 0.0251 0.6889
C12 C 0.3953(3) 0.0081(5) 0.71071(16)
C13 C 0.4352(3) -0.0785(6) 0.65382(15)
C14 C 0.3761(4) -0.2176(7) 0.6274(2)
H9 H 0.3101 -0.2629 0.6445
C15 C 0.4142(5) -0.2905(8) 0.5757(2)
H10 H 0.3727 -0.3829 0.5581
C16 C 0.5125(5) -0.2280(8) 0.5503(2)
H11 H 0.5380 -0.2780 0.5158
C17 C 0.5722(5) -0.0916(8) 0.5764(2)
H12 H 0.6388 -0.0480 0.5595
C18 C 0.5340(4) -0.0180(7) 0.6277(2)
H13 H 0.5760 0.0745 0.6451
C19 C 0.5056(3) 0.2999(5) 0.72688(17)
C20 C 0.5479(3) 0.2955(5) 0.78507(17)
C21 C 0.6394(4) 0.4070(6) 0.8013(2)
H14 H 0.6690 0.4013 0.8395
C22 C 0.6876(4) 0.5246(6) 0.7633(2)
H15 H 0.7488 0.5975 0.7753
C23 C 0.6435(5) 0.5324(7) 0.7068(2)
H16 H 0.6737 0.6137 0.6807
C24 C 0.5554(4) 0.4214(6) 0.68885(19)
H17 H 0.5280 0.4272 0.6503
N1 N 0.3919(3) -0.0794(5) 0.85832(13)
N2 N 0.4093(3) 0.2025(5) 0.70769(16)
Br1 Br 0.26703(5) -0.33892(7) 0.93805(2)
Br2 Br 0.32129(5) 0.21759(8) 1.10011(2)
H18 H 0.381(4) 0.236(7) 0.678(2)
loop_
_geom_bond_atom_site_label_1
_geom_bond_atom_site_label_2
_geom_bond_site_symmetry_1
_geom_bond_site_symmetry_2
C1 C2 1_555 1_555
C2 C3 1_555 1_555
C3 H1 1_555 1_555
C4 C3 1_555 1_555
C5 C4 1_555 1_555
H2 C5 1_555 1_555
C6 C1 1_555 1_555
C7 C6 1_555 1_555
H3 C7 1_555 1_555
C8 C7 1_555 1_555
C9 C8 1_555 1_555
C10 C9 1_555 1_555
H4 C10 1_555 1_555
H5 C10 1_555 1_555
C11 H6 1_555 1_555
H7 C11 1_555 1_555
H8 C11 1_555 1_555
C12 C10 1_555 1_555
C13 C12 1_555 1_555
C14 C13 1_555 1_555
H9 C14 1_555 1_555
C15 C14 1_555 1_555
H10 C15 1_555 1_555
C16 C15 1_555 1_555
H11 C16 1_555 1_555
C17 C16 1_555 1_555
H12 C17 1_555 1_555
C18 C13 1_555 1_555
H13 C18 1_555 1_555
C19 C20 1_555 1_555
C20 C8 1_555 1_555
C21 C20 1_555 1_555
H14 C21 1_555 1_555
C22 C21 1_555 1_555
H15 C22 1_555 1_555
C23 C22 1_555 1_555
H16 C23 1_555 1_555
C24 C19 1_555 1_555
H17 C24 1_555 1_555
N1 C1 1_555 1_555
N2 C12 1_555 1_555
Br1 C2 1_555 1_555
Br2 C4 1_555 1_555
H18 N2 1_555 1_555
C5 C6 1_555 1_555
C9 N1 1_555 1_555
C11 C12 1_555 1_555
C17 C18 1_555 1_555
C19 N2 1_555 1_555
C23 C24 1_555 1_555

#END
