
#######################################################################
#
#                 Cambridge Crystallographic Data Centre
#                                CCDC 
#
#######################################################################
#
# If this CIF has been generated from an entry in the Cambridge 
# Structural Database, then it will include bibliographic, chemical, 
# crystal, experimental, refinement or atomic coordinate data resulting 
# from the CCDC's data processing and validation procedures.
#
#######################################################################

data_TAFLAQ
_chemical_formula_moiety         'C36 H48 S4 Si2'
_chemical_name_systematic        
"tristhieno[2',3':3,4;2'',3'':5,6;2''',3''':7,8]naphtho[1,2-b]thiene-2,8-diylbis(tri-isopropylsilane) unknown solvate"
_symmetry_cell_setting           triclinic
_symmetry_space_group_name_H-M   'P -1'
_symmetry_Int_Tables_number      2
_space_group_name_Hall           '-P 1'
loop_
_symmetry_equiv_pos_site_id
_symmetry_equiv_pos_as_xyz
1 x,y,z
2 -x,-y,-z
_cell_length_a                   11.715(3)
_cell_length_b                   12.209(3)
_cell_length_c                   15.564(4)
_cell_angle_alpha                76.856(6)
_cell_angle_beta                 75.796(6)
_cell_angle_gamma                79.474(6)
_cell_volume                     2082.43
_exptl_crystal_colour            'pale yellow'
_cell_formula_units_Z            2
_exptl_crystal_recrystallization_method dichloromethane/methanol
loop_
_atom_site_label
_atom_site_type_symbol
_atom_site_fract_x
_atom_site_fract_y
_atom_site_fract_z
C1 C 0.3427(5) 0.5362(4) 0.4456(3)
H1 H 0.3794 0.5514 0.4897
H2 H 0.4026 0.5221 0.3934
H3 H 0.3022 0.4708 0.4709
S1 S 0.33766(7) 0.57273(6) 0.20247(5)
S2 S 0.69840(9) 0.76501(8) -0.02580(7)
Si1 Si 0.31374(9) 0.75239(7) 0.32523(6)
C2 C 0.2534(4) 0.6390(4) 0.4182(3)
C3 C 0.3885(3) 0.6867(2) 0.2244(2)
C4 C 0.4415(3) 0.5686(2) 0.10161(18)
C5 C 0.4548(2) 0.4926(2) 0.03982(18)
C6 C 0.1905(4) 0.8658(3) 0.2925(3)
H4 H 0.1458 0.8920 0.3478
C7 C 0.2399(5) 0.9706(4) 0.2259(4)
H5 H 0.2930 0.9466 0.1740
H6 H 0.2819 1.0062 0.2554
H7 H 0.1752 1.0237 0.2073
C8 C 0.5385(5) 0.7447(5) 0.3720(4)
H8 H 0.5812 0.7152 0.3193
H9 H 0.5171 0.6830 0.4208
H10 H 0.5878 0.7876 0.3887
C9 C 0.4278(4) 0.8206(4) 0.3520(3)
H11 H 0.4535 0.8778 0.2986
C10 C 0.3710(6) 0.8864(5) 0.4316(4)
H12 H 0.3114 0.9466 0.4135
H13 H 0.4316 0.9179 0.4462
H14 H 0.3354 0.8351 0.4836
C11 C 0.1029(5) 0.8220(5) 0.2550(4)
H15 H 0.1446 0.7897 0.2034
H16 H 0.0443 0.8836 0.2376
H17 H 0.0646 0.7650 0.3005
C12 C 0.6185(3) 0.5953(2) -0.0558(2)
C13 C 0.6005(3) 0.6653(2) 0.0067(2)
C14 C 0.7641(4) 0.7145(3) -0.1221(3)
H18 H 0.8275 0.7440 -0.1644
C15 C 0.7144(4) 0.6273(3) -0.1305(2)
H19 H 0.7396 0.5913 -0.1798
C16 C 0.5119(3) 0.6530(2) 0.0863(2)
C17 C 0.4809(3) 0.7181(3) 0.1562(2)
H20 H 0.5211 0.7776 0.1552
C18 C 0.1682(14) 0.6736(10) 0.4909(8)
H21 H 0.1562 0.6097 0.5397
H22 H 0.0946 0.7034 0.4721
H23 H 0.1953 0.7312 0.5108
H24 H 0.2055 0.6065 0.3908
C1A C 0.6573(5) 0.4638(4) -0.4456(3)
H1A H 0.6206 0.4486 -0.4897
H2A H 0.5974 0.4779 -0.3934
H3A H 0.6978 0.5292 -0.4709
S1A S 0.66234(7) 0.42727(6) -0.20247(5)
S2A S 0.30160(9) 0.23499(8) 0.02580(7)
Si1A Si 0.68626(9) 0.24761(7) -0.32523(6)
C2A C 0.7466(4) 0.3610(4) -0.4182(3)
C3A C 0.6115(3) 0.3133(2) -0.2244(2)
C4A C 0.5585(3) 0.4314(2) -0.10161(18)
C5A C 0.5452(2) 0.5074(2) -0.03982(18)
C6A C 0.8095(4) 0.1342(3) -0.2925(3)
H4A H 0.8542 0.1080 -0.3478
C7A C 0.7601(5) 0.0294(4) -0.2259(4)
H5A H 0.7070 0.0534 -0.1740
H6A H 0.7181 -0.0062 -0.2554
H7A H 0.8248 -0.0237 -0.2073
C8A C 0.4615(5) 0.2553(5) -0.3720(4)
H8A H 0.4188 0.2848 -0.3193
H9A H 0.4829 0.3170 -0.4208
H10A H 0.4122 0.2124 -0.3887
C9A C 0.5722(4) 0.1794(4) -0.3520(3)
H11A H 0.5465 0.1222 -0.2986
C10A C 0.6290(6) 0.1136(5) -0.4316(4)
H12A H 0.6886 0.0534 -0.4135
H13A H 0.5684 0.0821 -0.4462
H14A H 0.6646 0.1649 -0.4836
C11A C 0.8971(5) 0.1780(5) -0.2550(4)
H15A H 0.8554 0.2103 -0.2034
H16A H 0.9557 0.1164 -0.2376
H17A H 0.9354 0.2350 -0.3005
C12A C 0.3815(3) 0.4047(2) 0.0558(2)
C13A C 0.3995(3) 0.3347(2) -0.0067(2)
C14A C 0.2359(4) 0.2855(3) 0.1221(3)
H18A H 0.1725 0.2560 0.1644
C15A C 0.2856(4) 0.3727(3) 0.1305(2)
H19A H 0.2604 0.4087 0.1798
C16A C 0.4881(3) 0.3470(2) -0.0863(2)
C17A C 0.5191(3) 0.2819(3) -0.1562(2)
H20A H 0.4789 0.2224 -0.1552
C18A C 0.8318(14) 0.3264(10) -0.4909(8)
H21A H 0.8438 0.3903 -0.5397
H22A H 0.9054 0.2966 -0.4721
H23A H 0.8047 0.2688 -0.5108
H24A H 0.7945 0.3935 -0.3908
S3 S 0.90444(8) 0.15548(7) 0.30842(5)
S4 S 0.77447(9) -0.23607(9) 0.50852(7)
Si2 Si 0.72852(8) 0.15394(8) 0.18468(6)
C20 C 0.6310(6) 0.3573(5) 0.2533(5)
H29 H 0.6726 0.3281 0.3014
H30 H 0.5607 0.4067 0.2737
H31 H 0.6815 0.3988 0.2030
C21 C 0.5963(4) 0.2585(5) 0.2240(3)
H32 H 0.5585 0.2910 0.1725
C22 C 0.8015(3) 0.0889(3) 0.2829(2)
C23 C 0.9231(3) 0.0513(2) 0.40298(18)
C24 C 1.0007(2) 0.0470(2) 0.46295(18)
C25 C 0.7722(6) -0.0574(5) 0.1240(5)
H33 H 0.8096 -0.0945 0.1733
H34 H 0.8305 -0.0258 0.0739
H35 H 0.7369 -0.1114 0.1062
C26 C 0.6790(4) 0.0346(4) 0.1525(3)
H36 H 0.6277 -0.0015 0.2075
C27 C 0.5997(6) 0.0745(6) 0.0817(5)
H37 H 0.5377 0.1329 0.1005
H38 H 0.5651 0.0115 0.0765
H39 H 0.6472 0.1040 0.0242
C28 C 0.8388(4) 0.2314(4) 0.0962(3)
H40 H 0.8611 0.2842 0.1261
C29 C 0.9552(4) 0.1620(6) 0.0608(4)
H41 H 0.9821 0.1097 0.1103
H42 H 1.0136 0.2117 0.0310
H43 H 0.9435 0.1206 0.0188
C30 C 0.7852(5) 0.3079(6) 0.0185(4)
H44 H 0.7216 0.3618 0.0423
H45 H 0.7551 0.2621 -0.0112
H46 H 0.8455 0.3476 -0.0240
C31 C 0.7846(3) -0.0088(3) 0.34431(19)
H47 H 0.7332 -0.0573 0.3420
C32 C 0.8521(3) -0.0309(2) 0.41227(19)
C33 C 0.8552(3) -0.1237(2) 0.4848(2)
C34 C 0.8324(4) -0.2951(3) 0.6021(3)
H48 H 0.8126 -0.3626 0.6403
C35 C 0.9090(3) -0.2343(3) 0.6147(2)
H49 H 0.9481 -0.2558 0.6624
C36 C 0.9250(3) -0.1323(2) 0.54738(19)
C37 C 0.5077(6) 0.2051(10) 0.2961(5)
H50 H 0.5395 0.1778 0.3495
H51 H 0.4865 0.1427 0.2781
H52 H 0.4384 0.2595 0.3085
S3A S 1.09556(8) -0.15548(7) 0.69158(5)
S4A S 1.22553(9) 0.23607(9) 0.49148(7)
Si2A Si 1.27148(8) -0.15394(8) 0.81532(6)
C20A C 1.3690(6) -0.3573(5) 0.7467(5)
H29A H 1.3274 -0.3281 0.6986
H30A H 1.4393 -0.4067 0.7263
H31A H 1.3185 -0.3988 0.7970
C21A C 1.4037(4) -0.2585(5) 0.7760(3)
H32A H 1.4415 -0.2910 0.8275
C22A C 1.1985(3) -0.0889(3) 0.7171(2)
C23A C 1.0769(3) -0.0513(2) 0.59702(18)
C24A C 0.9993(2) -0.0470(2) 0.53705(18)
C25A C 1.2278(6) 0.0574(5) 0.8760(5)
H33A H 1.1904 0.0945 0.8267
H34A H 1.1695 0.0258 0.9261
H35A H 1.2631 0.1114 0.8938
C26A C 1.3210(4) -0.0346(4) 0.8475(3)
H36A H 1.3723 0.0015 0.7925
C27A C 1.4003(6) -0.0745(6) 0.9183(5)
H37A H 1.4623 -0.1329 0.8995
H38A H 1.4349 -0.0115 0.9235
H39A H 1.3528 -0.1040 0.9758
C28A C 1.1612(4) -0.2314(4) 0.9038(3)
H40A H 1.1389 -0.2842 0.8739
C29A C 1.0448(4) -0.1620(6) 0.9392(4)
H41A H 1.0179 -0.1097 0.8897
H42A H 0.9864 -0.2117 0.9690
H43A H 1.0565 -0.1206 0.9812
C30A C 1.2148(5) -0.3079(6) 0.9815(4)
H44A H 1.2784 -0.3618 0.9577
H45A H 1.2449 -0.2621 1.0112
H46A H 1.1545 -0.3476 1.0240
C31A C 1.2154(3) 0.0088(3) 0.65569(19)
H47A H 1.2668 0.0573 0.6580
C32A C 1.1479(3) 0.0309(2) 0.58773(19)
C33A C 1.1448(3) 0.1237(2) 0.5152(2)
C34A C 1.1676(4) 0.2951(3) 0.3979(3)
H48A H 1.1874 0.3626 0.3597
C35A C 1.0910(3) 0.2343(3) 0.3853(2)
H49A H 1.0519 0.2558 0.3376
C36A C 1.0750(3) 0.1323(2) 0.45262(19)
C37A C 1.4923(6) -0.2051(10) 0.7039(5)
H50A H 1.4605 -0.1778 0.6505
H51A H 1.5135 -0.1427 0.7219
H52A H 1.5616 -0.2595 0.6915
C19? C 0.1275(10) 0.6141(11) 0.4215(10)
H25? H 0.1280 0.5867 0.3683
H26? H 0.0725 0.6826 0.4242
H27? H 0.1040 0.5577 0.4740
H28? H 0.2367 0.6755 0.4698
loop_
_geom_bond_atom_site_label_1
_geom_bond_atom_site_label_2
_geom_bond_site_symmetry_1
_geom_bond_site_symmetry_2
C1 H1 1_555 1_555
H2 C1 1_555 1_555
H3 C1 1_555 1_555
S1 C3 1_555 1_555
S2 C13 1_555 1_555
Si1 C2 1_555 1_555
C2 C1 1_555 1_555
C3 Si1 1_555 1_555
C4 S1 1_555 1_555
C5 C4 1_555 1_555
C6 Si1 1_555 1_555
H4 C6 1_555 1_555
C7 C6 1_555 1_555
H5 C7 1_555 1_555
H6 C7 1_555 1_555
H7 C7 1_555 1_555
C8 H8 1_555 1_555
H9 C8 1_555 1_555
H10 C8 1_555 1_555
C9 Si1 1_555 1_555
H11 C9 1_555 1_555
C10 C9 1_555 1_555
H12 C10 1_555 1_555
H13 C10 1_555 1_555
H14 C10 1_555 1_555
C11 C6 1_555 1_555
H15 C11 1_555 1_555
H16 C11 1_555 1_555
H17 C11 1_555 1_555
C12 C13 1_555 1_555
C13 C16 1_555 1_555
C14 S2 1_555 1_555
H18 C14 1_555 1_555
C15 C12 1_555 1_555
H19 C15 1_555 1_555
C16 C4 1_555 1_555
C17 C3 1_555 1_555
H20 C17 1_555 1_555
C18 C2 1_555 1_555
H21 C18 1_555 1_555
H22 C18 1_555 1_555
H23 C18 1_555 1_555
H24 C2 1_555 1_555
S3 C22 1_555 1_555
S4 C33 1_555 1_555
Si2 C21 1_555 1_555
C20 H29 1_555 1_555
H30 C20 1_555 1_555
H31 C20 1_555 1_555
C21 C20 1_555 1_555
H32 C21 1_555 1_555
C22 Si2 1_555 1_555
C23 S3 1_555 1_555
C24 C23 1_555 1_555
C25 H33 1_555 1_555
H34 C25 1_555 1_555
H35 C25 1_555 1_555
C26 Si2 1_555 1_555
H36 C26 1_555 1_555
C27 C26 1_555 1_555
H37 C27 1_555 1_555
H38 C27 1_555 1_555
H39 C27 1_555 1_555
C28 Si2 1_555 1_555
H40 C28 1_555 1_555
C29 C28 1_555 1_555
H41 C29 1_555 1_555
H42 C29 1_555 1_555
H43 C29 1_555 1_555
C30 C28 1_555 1_555
H44 C30 1_555 1_555
H45 C30 1_555 1_555
H46 C30 1_555 1_555
C31 C22 1_555 1_555
H47 C31 1_555 1_555
C32 C23 1_555 1_555
C33 C32 1_555 1_555
C34 S4 1_555 1_555
H48 C34 1_555 1_555
C35 C34 1_555 1_555
H49 C35 1_555 1_555
C36 C33 1_555 1_555
C37 C21 1_555 1_555
H50 C37 1_555 1_555
H51 C37 1_555 1_555
H52 C37 1_555 1_555
C1A H1A 1_555 1_555
H2A C1A 1_555 1_555
H3A C1A 1_555 1_555
S1A C3A 1_555 1_555
S2A C13A 1_555 1_555
Si1A C2A 1_555 1_555
C2A C1A 1_555 1_555
C3A Si1A 1_555 1_555
C4A S1A 1_555 1_555
C5A C5 1_555 1_555
C6A Si1A 1_555 1_555
H4A C6A 1_555 1_555
C7A C6A 1_555 1_555
H5A C7A 1_555 1_555
H6A C7A 1_555 1_555
H7A C7A 1_555 1_555
C8A H8A 1_555 1_555
H9A C8A 1_555 1_555
H10A C8A 1_555 1_555
C9A Si1A 1_555 1_555
H11A C9A 1_555 1_555
C10A C9A 1_555 1_555
H12A C10A 1_555 1_555
H13A C10A 1_555 1_555
H14A C10A 1_555 1_555
C11A C6A 1_555 1_555
H15A C11A 1_555 1_555
H16A C11A 1_555 1_555
H17A C11A 1_555 1_555
C12A C5 1_555 1_555
C13A C12A 1_555 1_555
C14A S2A 1_555 1_555
H18A C14A 1_555 1_555
C15A C12A 1_555 1_555
H19A C15A 1_555 1_555
C16A C4A 1_555 1_555
C17A C3A 1_555 1_555
H20A C17A 1_555 1_555
C18A C2A 1_555 1_555
H21A C18A 1_555 1_555
H22A C18A 1_555 1_555
H23A C18A 1_555 1_555
H24A C2A 1_555 1_555
S3A C22A 1_555 1_555
S4A C33A 1_555 1_555
Si2A C21A 1_555 1_555
C20A H29A 1_555 1_555
H30A C20A 1_555 1_555
H31A C20A 1_555 1_555
C21A C20A 1_555 1_555
H32A C21A 1_555 1_555
C22A Si2A 1_555 1_555
C23A S3A 1_555 1_555
C24A C24 1_555 1_555
C25A H33A 1_555 1_555
H34A C25A 1_555 1_555
H35A C25A 1_555 1_555
C26A Si2A 1_555 1_555
H36A C26A 1_555 1_555
C27A C26A 1_555 1_555
H37A C27A 1_555 1_555
H38A C27A 1_555 1_555
H39A C27A 1_555 1_555
C28A Si2A 1_555 1_555
H40A C28A 1_555 1_555
C29A C28A 1_555 1_555
H41A C29A 1_555 1_555
H42A C29A 1_555 1_555
H43A C29A 1_555 1_555
C30A C28A 1_555 1_555
H44A C30A 1_555 1_555
H45A C30A 1_555 1_555
H46A C30A 1_555 1_555
C31A C22A 1_555 1_555
H47A C31A 1_555 1_555
C32A C23A 1_555 1_555
C33A C32A 1_555 1_555
C34A S4A 1_555 1_555
H48A C34A 1_555 1_555
C35A C34A 1_555 1_555
H49A C35A 1_555 1_555
C36A C24 1_555 1_555
C37A C21A 1_555 1_555
H50A C37A 1_555 1_555
H51A C37A 1_555 1_555
H52A C37A 1_555 1_555
C8 C9 1_555 1_555
C12 C5A 1_555 1_555
C14 C15 1_555 1_555
C16 C17 1_555 1_555
C25 C26 1_555 1_555
C31 C32 1_555 1_555
C35 C36 1_555 1_555
C36 C24A 1_555 1_555
C4A C5A 1_555 1_555
C8A C9A 1_555 1_555
C13A C16A 1_555 1_555
C14A C15A 1_555 1_555
C16A C17A 1_555 1_555
C23A C24A 1_555 1_555
C25A C26A 1_555 1_555
C31A C32A 1_555 1_555
C33A C36A 1_555 1_555
C35A C36A 1_555 1_555

#END
