
#######################################################################
#
#                 Cambridge Crystallographic Data Centre
#                                CCDC 
#
#######################################################################
#
# If this CIF has been generated from an entry in the Cambridge 
# Structural Database, then it will include bibliographic, chemical, 
# crystal, experimental, refinement or atomic coordinate data resulting 
# from the CCDC's data processing and validation procedures.
#
#######################################################################

data_TAFLEU
_chemical_formula_moiety         'C36 H50 S4 Si2'
_chemical_name_systematic        
Tri-isopropyl(4-(5'-(triisopropylsilyl)-2,3'-bithiophen-2'-yl)thieno[2,3-e][1]benzothiophen-7-yl)silane
_symmetry_cell_setting           triclinic
_symmetry_space_group_name_H-M   'P -1'
_symmetry_Int_Tables_number      2
_space_group_name_Hall           '-P 1'
loop_
_symmetry_equiv_pos_site_id
_symmetry_equiv_pos_as_xyz
1 x,y,z
2 -x,-y,-z
_cell_length_a                   12.2329(4)
_cell_length_b                   17.7221(6)
_cell_length_c                   19.3408(6)
_cell_angle_alpha                69.034(2)
_cell_angle_beta                 72.015(2)
_cell_angle_gamma                72.867(2)
_cell_volume                     3643.14
_exptl_crystal_colour            pink
_cell_formula_units_Z            4
loop_
_atom_site_label
_atom_site_type_symbol
_atom_site_fract_x
_atom_site_fract_y
_atom_site_fract_z
C1 C 0.7288(3) 0.5457(2) 0.35699(19)
H1 H 0.7035 0.5660 0.3090
H2 H 0.7044 0.5900 0.3810
H3 H 0.6928 0.4989 0.3910
C2 C 0.8649(3) 0.51734(18) 0.34102(17)
H4 H 0.8839 0.4921 0.3923
C3 C 0.9081(2) 0.66752(17) 0.35808(14)
C4 C 0.8585(2) 0.71316(17) 0.47569(15)
C5 C 0.8294(2) 0.72460(18) 0.54812(15)
H5 H 0.8098 0.6809 0.5926
C6 C 0.8296(2) 0.79977(18) 0.55385(15)
C7 C 0.7913(2) 0.81463(17) 0.62979(15)
C8 C 0.7825(2) 0.81874(18) 0.76092(15)
C9 C 0.7844(3) 0.69498(19) 0.91809(16)
H6 H 0.8055 0.6848 0.9671
C10 C 0.6563(3) 0.6912(2) 0.93683(17)
H7 H 0.6315 0.7034 0.8897
H8 H 0.6088 0.7319 0.9636
H9 H 0.6456 0.6357 0.9694
C11 C 0.7043(3) 0.9708(2) 0.8553(2)
H10 H 0.6346 1.0068 0.8771
H11 H 0.7061 0.9806 0.8018
H12 H 0.7751 0.9830 0.8589
C12 C 0.6993(3) 0.8802(2) 0.89925(16)
H13 H 0.6212 0.8738 0.8985
C13 C 0.6839(2) 0.85265(17) 0.66249(15)
C14 C 0.6804(2) 0.85444(17) 0.73672(14)
H14 H 0.6115 0.8789 0.7670
C15 C 0.5806(3) 0.88798(18) 0.62873(15)
C16 C 0.4246(3) 0.9197(2) 0.55997(19)
H15 H 0.3748 0.9231 0.5293
C17 C 0.3996(3) 0.9683(2) 0.60612(18)
H16 H 0.3301 1.0096 0.6115
C18 C 0.4891(3) 0.9498(2) 0.64496(17)
H17 H 0.4859 0.9780 0.6793
C19 C 0.8608(2) 0.86453(17) 0.48640(15)
C20 C 0.8891(2) 0.85172(17) 0.41451(15)
C21 C 0.9013(3) 0.99125(19) 0.40675(16)
H18 H 0.9112 1.0464 0.3928
C22 C 0.8680(3) 0.94510(18) 0.47954(16)
H19 H 0.8510 0.9651 0.5220
C23 C 0.8874(2) 0.77545(17) 0.40760(14)
C24 C 0.9071(3) 0.4465(2) 0.3039(2)
H20 H 0.8664 0.4013 0.3358
H21 H 0.9920 0.4262 0.2990
H22 H 0.8896 0.4670 0.2535
C25 C 0.9171(3) 0.67422(19) 0.19625(16)
H23 H 0.9615 0.7191 0.1808
C26 C 0.7897(3) 0.7172(2) 0.1965(2)
H24 H 0.7857 0.7627 0.1494
H25 H 0.7559 0.7390 0.2402
H26 H 0.7453 0.6776 0.2000
C27 C 0.9670(4) 0.6303(2) 0.13327(19)
H27 H 0.9252 0.5862 0.1451
H28 H 1.0509 0.6066 0.1307
H29 H 0.9566 0.6703 0.0842
C28 C 1.1106(3) 0.55677(17) 0.27941(16)
H30 H 1.1310 0.5204 0.2460
C29 C 1.1420(3) 0.50285(18) 0.35501(16)
H31 H 1.2262 0.4782 0.3462
H32 H 1.0970 0.4589 0.3782
H33 H 1.1230 0.5368 0.3892
C30 C 1.1859(3) 0.62303(19) 0.23997(17)
H34 H 1.1651 0.6615 0.2701
H35 H 1.1714 0.6533 0.1891
H36 H 1.2692 0.5964 0.2356
C31 C 0.9144(2) 0.74835(17) 0.34181(15)
H37 H 0.9348 0.7831 0.2914
C32 C 0.9689(3) 0.80247(19) 0.84008(17)
H38 H 1.0140 0.7634 0.8095
C33 C 1.0131(3) 0.7687(2) 0.91359(19)
H39 H 1.0980 0.7655 0.9012
H40 H 0.9966 0.7134 0.9410
H41 H 0.9730 0.8054 0.9456
C34 C 1.0011(3) 0.8855(2) 0.7926(2)
H42 H 0.9730 0.9235 0.8238
H43 H 0.9645 0.9086 0.7490
H44 H 1.0867 0.8781 0.7745
C35 C 0.8622(3) 0.6266(2) 0.88389(19)
H45 H 0.8464 0.5731 0.9185
H46 H 0.9449 0.6274 0.8763
H47 H 0.8455 0.6354 0.8349
C36 C 0.6946(3) 0.8650(3) 0.98309(19)
H48 H 0.7657 0.8761 0.9874
H49 H 0.6896 0.8074 1.0113
H50 H 0.6254 0.9018 1.0042
S1 S 0.88695(6) 0.78222(5) 0.68944(4)
S2 S 0.55649(7) 0.85206(5) 0.56395(5)
S3 S 0.86744(7) 0.62318(4) 0.45596(4)
S4 S 0.92377(7) 0.93819(4) 0.34183(4)
Si1 Si 0.94780(7) 0.60359(5) 0.29105(4)
Si2 Si 0.81016(7) 0.80099(5) 0.85616(4)
C37 C 0.1966(3) 0.8247(2) 0.50973(16)
H51 H 0.2665 0.8282 0.5220
H52 H 0.1789 0.7697 0.5368
H53 H 0.1297 0.8666 0.5253
C38 C 0.2195(3) 0.83966(19) 0.42340(16)
H54 H 0.1443 0.8375 0.4146
C39 C 0.3227(2) 0.77481(18) 0.28832(15)
C40 C 0.3504(2) 0.76747(17) 0.15609(15)
C41 C 0.3811(2) 0.75053(17) 0.08582(15)
H55 H 0.4556 0.7177 0.0704
C42 C 0.3019(2) 0.78209(17) 0.03968(15)
C43 C 0.3300(2) 0.76366(17) -0.03360(15)
C44 C 0.3753(2) 0.69013(17) -0.13288(15)
C45 C 0.5768(2) 0.57131(18) -0.20422(15)
H56 H 0.5952 0.5324 -0.2350
C46 C 0.6182(3) 0.52194(19) -0.13040(17)
H57 H 0.7035 0.5021 -0.1424
H58 H 0.5797 0.4747 -0.1041
H59 H 0.5977 0.5575 -0.0975
C47 C 0.3773(3) 0.4475(2) -0.15005(19)
H60 H 0.3435 0.4018 -0.1113
H61 H 0.4632 0.4313 -0.1605
H62 H 0.3510 0.4607 -0.1968
C48 C 0.3369(3) 0.52371(18) -0.12100(17)
H63 H 0.3619 0.5056 -0.0720
C49 C 0.2026(3) 0.5468(2) -0.1006(2)
H64 H 0.1726 0.5600 -0.1459
H65 H 0.1775 0.5949 -0.0815
H66 H 0.1718 0.5001 -0.0612
C50 C 0.3394(2) 0.81648(17) -0.10633(15)
C51 C 0.3657(2) 0.77417(17) -0.16186(15)
H67 H 0.3757 0.8020 -0.2148
C52 C 0.1907(2) 0.83173(17) 0.06356(15)
C53 C 0.1626(2) 0.84859(16) 0.13335(15)
C54 C 0.0000(3) 0.90883(18) 0.06614(15)
H68 H -0.0710 0.9357 0.0496
C55 C 0.0948(2) 0.86772(17) 0.02639(16)
H69 H 0.0977 0.8631 -0.0216
C56 C 0.2422(2) 0.81592(17) 0.18153(15)
C57 C 0.2930(3) 0.65206(19) 0.44768(17)
H70 H 0.3040 0.6411 0.4998
C58 C 0.3719(3) 0.5793(2) 0.41812(19)
H71 H 0.3479 0.5277 0.4520
H72 H 0.4540 0.5758 0.4168
H73 H 0.3641 0.5880 0.3667
C59 C 0.1632(3) 0.6546(2) 0.45599(17)
H74 H 0.1476 0.6695 0.4055
H75 H 0.1137 0.6958 0.4817
H76 H 0.1455 0.6002 0.4861
C60 C 0.4917(3) 0.7477(2) 0.38634(17)
H77 H 0.5403 0.7101 0.3549
C61 C 0.5336(3) 0.8288(3) 0.3480(2)
H78 H 0.4906 0.8675 0.3777
H79 H 0.5192 0.8524 0.2967
H80 H 0.6179 0.8187 0.3450
C62 C 0.5226(3) 0.7077(2) 0.46486(19)
H81 H 0.6059 0.7052 0.4593
H82 H 0.5072 0.6517 0.4862
H83 H 0.4745 0.7409 0.4990
C63 C 0.2387(3) 0.9275(2) 0.37903(18)
H84 H 0.1648 0.9673 0.3885
H85 H 0.2646 0.9328 0.3245
H86 H 0.2988 0.9386 0.3957
C64 C 0.2282(3) 0.81935(17) 0.25669(15)
H87 H 0.1599 0.8496 0.2823
C65 C 0.3718(3) 0.6685(2) -0.28009(16)
H88 H 0.4193 0.7124 -0.3055
C66 C 0.2439(3) 0.7139(2) -0.2755(2)
H89 H 0.2351 0.7523 -0.3255
H90 H 0.2207 0.7447 -0.2382
H91 H 0.1938 0.6737 -0.2597
C67 C 0.4095(3) 0.6137(2) -0.33216(18)
H92 H 0.3679 0.5679 -0.3091
H93 H 0.4944 0.5916 -0.3395
H94 H 0.3905 0.6463 -0.3815
C68 C 0.6442(3) 0.64066(19) -0.25159(17)
H95 H 0.6250 0.6817 -0.2243
H96 H 0.6220 0.6672 -0.3006
H97 H 0.7289 0.6174 -0.2601
S5 S 0.35172(6) 0.66350(4) -0.03486(4)
S6 S 0.02255(6) 0.90713(5) 0.15123(4)
S7 S 0.43327(6) 0.72921(5) 0.22437(4)
Si3 Si 0.41267(7) 0.61179(5) -0.18535(4)
Si4 Si 0.33378(7) 0.75476(5) 0.38850(4)
S8 S 0.36784(17) 0.95532(9) -0.08081(9)
C69 C 0.3245(15) 0.9079(3) -0.1284(7)
C70 C 0.3290(6) 1.0513(3) -0.1425(3)
H98 H 0.3383 1.1012 -0.1394
C71 C 0.2830(6) 1.0464(3) -0.1963(3)
H99 H 0.2563 1.0930 -0.2352
C72 C 0.2797(10) 0.9652(8) -0.1880(7)
H100 H 0.2493 0.9511 -0.2204
S9? S 0.2584(19) 0.9669(13) -0.1945(11)
C73? C 0.325(11) 0.9002(17) -0.123(6)
C74? C 0.275(4) 1.0520(17) -0.179(2)
H101? H 0.2446 1.1074 -0.2053
C75? C 0.339(4) 1.0302(18) -0.126(2)
H102? H 0.3648 1.0682 -0.1135
C76? C 0.360(4) 0.945(2) -0.091(2)
H103? H 0.3960 0.9193 -0.0489
loop_
_geom_bond_atom_site_label_1
_geom_bond_atom_site_label_2
_geom_bond_site_symmetry_1
_geom_bond_site_symmetry_2
C1 H1 1_555 1_555
H2 C1 1_555 1_555
H3 C1 1_555 1_555
C2 C1 1_555 1_555
H4 C2 1_555 1_555
C3 C31 1_555 1_555
C4 C5 1_555 1_555
C5 H5 1_555 1_555
C6 C5 1_555 1_555
C7 C6 1_555 1_555
C8 C14 1_555 1_555
C9 H6 1_555 1_555
C10 C9 1_555 1_555
H7 C10 1_555 1_555
H8 C10 1_555 1_555
H9 C10 1_555 1_555
C11 H10 1_555 1_555
H11 C11 1_555 1_555
H12 C11 1_555 1_555
C12 C11 1_555 1_555
H13 C12 1_555 1_555
C13 C7 1_555 1_555
C14 C13 1_555 1_555
H14 C14 1_555 1_555
C15 C13 1_555 1_555
C16 H15 1_555 1_555
C17 C16 1_555 1_555
H16 C17 1_555 1_555
C18 C15 1_555 1_555
H17 C18 1_555 1_555
C19 C6 1_555 1_555
C20 C19 1_555 1_555
C21 H18 1_555 1_555
C22 C19 1_555 1_555
H19 C22 1_555 1_555
C23 C4 1_555 1_555
C24 C2 1_555 1_555
H20 C24 1_555 1_555
H21 C24 1_555 1_555
H22 C24 1_555 1_555
C25 H23 1_555 1_555
C26 C25 1_555 1_555
H24 C26 1_555 1_555
H25 C26 1_555 1_555
H26 C26 1_555 1_555
C27 C25 1_555 1_555
H27 C27 1_555 1_555
H28 C27 1_555 1_555
H29 C27 1_555 1_555
C28 H30 1_555 1_555
C29 C28 1_555 1_555
H31 C29 1_555 1_555
H32 C29 1_555 1_555
H33 C29 1_555 1_555
C30 C28 1_555 1_555
H34 C30 1_555 1_555
H35 C30 1_555 1_555
H36 C30 1_555 1_555
C31 C23 1_555 1_555
H37 C31 1_555 1_555
C32 H38 1_555 1_555
C33 C32 1_555 1_555
H39 C33 1_555 1_555
H40 C33 1_555 1_555
H41 C33 1_555 1_555
C34 C32 1_555 1_555
H42 C34 1_555 1_555
H43 C34 1_555 1_555
H44 C34 1_555 1_555
C35 C9 1_555 1_555
H45 C35 1_555 1_555
H46 C35 1_555 1_555
H47 C35 1_555 1_555
C36 C12 1_555 1_555
H48 C36 1_555 1_555
H49 C36 1_555 1_555
H50 C36 1_555 1_555
S1 C7 1_555 1_555
S2 C15 1_555 1_555
S3 C3 1_555 1_555
S4 C20 1_555 1_555
Si1 C2 1_555 1_555
Si2 C8 1_555 1_555
C37 H51 1_555 1_555
H52 C37 1_555 1_555
H53 C37 1_555 1_555
C38 C37 1_555 1_555
H54 C38 1_555 1_555
C39 C64 1_555 1_555
C40 C41 1_555 1_555
C41 H55 1_555 1_555
C42 C41 1_555 1_555
C43 C42 1_555 1_555
C44 C51 1_555 1_555
C45 H56 1_555 1_555
C46 C45 1_555 1_555
H57 C46 1_555 1_555
H58 C46 1_555 1_555
H59 C46 1_555 1_555
C47 H60 1_555 1_555
H61 C47 1_555 1_555
H62 C47 1_555 1_555
C48 C47 1_555 1_555
H63 C48 1_555 1_555
C49 C48 1_555 1_555
H64 C49 1_555 1_555
H65 C49 1_555 1_555
H66 C49 1_555 1_555
C50 C43 1_555 1_555
C51 C50 1_555 1_555
H67 C51 1_555 1_555
C52 C42 1_555 1_555
C53 C52 1_555 1_555
C54 H68 1_555 1_555
C55 C52 1_555 1_555
H69 C55 1_555 1_555
C56 C40 1_555 1_555
C57 H70 1_555 1_555
C58 C57 1_555 1_555
H71 C58 1_555 1_555
H72 C58 1_555 1_555
H73 C58 1_555 1_555
C59 C57 1_555 1_555
H74 C59 1_555 1_555
H75 C59 1_555 1_555
H76 C59 1_555 1_555
C60 H77 1_555 1_555
C61 C60 1_555 1_555
H78 C61 1_555 1_555
H79 C61 1_555 1_555
H80 C61 1_555 1_555
C62 C60 1_555 1_555
H81 C62 1_555 1_555
H82 C62 1_555 1_555
H83 C62 1_555 1_555
C63 C38 1_555 1_555
H84 C63 1_555 1_555
H85 C63 1_555 1_555
H86 C63 1_555 1_555
C64 C56 1_555 1_555
H87 C64 1_555 1_555
C65 H88 1_555 1_555
C66 C65 1_555 1_555
H89 C66 1_555 1_555
H90 C66 1_555 1_555
H91 C66 1_555 1_555
C67 C65 1_555 1_555
H92 C67 1_555 1_555
H93 C67 1_555 1_555
H94 C67 1_555 1_555
C68 C45 1_555 1_555
H95 C68 1_555 1_555
H96 C68 1_555 1_555
H97 C68 1_555 1_555
S5 C43 1_555 1_555
S6 C53 1_555 1_555
S7 C39 1_555 1_555
Si3 C44 1_555 1_555
Si4 C38 1_555 1_555
S8 C69 1_555 1_555
C69 C50 1_555 1_555
C70 S8 1_555 1_555
H98 C70 1_555 1_555
C71 C70 1_555 1_555
H99 C71 1_555 1_555
C72 C69 1_555 1_555
H100 C72 1_555 1_555
C3 Si1 1_555 1_555
C4 S3 1_555 1_555
C8 S1 1_555 1_555
C9 Si2 1_555 1_555
C12 Si2 1_555 1_555
C16 S2 1_555 1_555
C17 C18 1_555 1_555
C20 C23 1_555 1_555
C21 C22 1_555 1_555
C21 S4 1_555 1_555
C25 Si1 1_555 1_555
C28 Si1 1_555 1_555
C32 Si2 1_555 1_555
C39 Si4 1_555 1_555
C40 S7 1_555 1_555
C44 S5 1_555 1_555
C45 Si3 1_555 1_555
C48 Si3 1_555 1_555
C53 C56 1_555 1_555
C54 C55 1_555 1_555
C54 S6 1_555 1_555
C57 Si4 1_555 1_555
C60 Si4 1_555 1_555
C65 Si3 1_555 1_555
C71 C72 1_555 1_555

#END
