
#######################################################################
#
#                 Cambridge Crystallographic Data Centre
#                                CCDC 
#
#######################################################################
#
# If this CIF has been generated from an entry in the Cambridge 
# Structural Database, then it will include bibliographic, chemical, 
# crystal, experimental, refinement or atomic coordinate data resulting 
# from the CCDC's data processing and validation procedures.
#
#######################################################################

data_TAFSIC
_chemical_formula_moiety         'C24 H36 O6'
_chemical_name_systematic        
1,7,12,17,22,27-Hexaoxahexaspiro(4.0.4.0.4.0.4.0.4.0.4.0)triacontane
_symmetry_cell_setting           monoclinic
_symmetry_space_group_name_H-M   'P 21/c'
_symmetry_Int_Tables_number      14
_space_group_name_Hall           '-P 2ybc'
loop_
_symmetry_equiv_pos_site_id
_symmetry_equiv_pos_as_xyz
1 x,y,z
2 -x,1/2+y,1/2-z
3 -x,-y,-z
4 x,1/2-y,1/2+z
_cell_length_a                   8.4408(7)
_cell_length_b                   14.6697(13)
_cell_length_c                   16.839(2)
_cell_angle_alpha                90
_cell_angle_beta                 100.807(2)
_cell_angle_gamma                90
_cell_volume                     2048.09
_exptl_crystal_colour            colorless
_cell_formula_units_Z            4
loop_
_atom_site_label
_atom_site_type_symbol
_atom_site_fract_x
_atom_site_fract_y
_atom_site_fract_z
O1 O -0.7984(3) -0.3802(2) -0.1115(2)
O2 O -1.0656(4) -0.3371(2) -0.2458(2)
O3 O -0.9432(4) -0.2638(2) -0.3845(2)
O4 O -0.7013(4) -0.3816(3) -0.4347(2)
O5 O -0.6843(4) -0.5222(2) -0.3236(2)
O6 O -0.5263(4) -0.3435(3) -0.1711(2)
C1 C -0.9097(6) -0.4315(4) -0.0751(3)
C2 C -0.9206(7) -0.5226(4) -0.1155(3)
C3 C -0.9024(5) -0.4996(3) -0.2018(3)
C4 C -0.8083(5) -0.4083(3) -0.1954(3)
C5 C -0.8952(5) -0.3330(3) -0.2502(3)
C6 C -0.8451(5) -0.2371(3) -0.2191(3)
C7 C -0.9735(6) -0.2062(4) -0.1727(3)
C8 C -1.1218(6) -0.2499(4) -0.2200(3)
C9 C -0.8832(5) -0.3468(3) -0.3408(3)
C10 C -0.9867(5) -0.4239(3) -0.3794(3)
C11 C -1.0777(12) -0.3754(6) -0.4624(5)
C12 C -1.1039(11) -0.2977(10) -0.4426(7)
C15 C -0.7025(5) -0.3577(3) -0.3506(3)
C16 C -0.6159(5) -0.2704(3) -0.3368(2)
C17 C -0.5665(15) -0.2451(8) -0.4110(8)
C18 C -0.6305(13) -0.3184(7) -0.4724(5)
C21 C -0.6154(5) -0.4339(3) -0.2961(3)
C22 C -0.4401(5) -0.4398(3) -0.3053(3)
C23 C -0.3998(10) -0.5333(7) -0.3180(6)
C24 C -0.5662(11) -0.5699(6) -0.3604(6)
C27 C -0.6294(5) -0.4223(3) -0.2060(3)
C28 C -0.5677(6) -0.5036(4) -0.1601(3)
C29 C -0.3990(10) -0.4729(7) -0.1027(5)
C30 C -0.4333(9) -0.3683(7) -0.0939(5)
H1 H -1.0166(6) -0.4013(4) -0.0842(3)
H2 H -0.8702(6) -0.4377(4) -0.0162(3)
H3 H -1.0258(7) -0.5520(4) -0.1146(3)
H4 H -0.8330(7) -0.5635(4) -0.0891(3)
H5 H -1.0094(5) -0.4928(3) -0.2373(3)
H6 H -0.8417(5) -0.5481(3) -0.2241(3)
H7 H -0.7378(5) -0.2385(3) -0.1832(3)
H8 H -0.8403(5) -0.1954(3) -0.2648(3)
H9 H -0.9504(6) -0.2284(4) -0.1162(3)
H10 H -0.9833(6) -0.1390(4) -0.1727(3)
H11 H -1.2041(6) -0.2590(4) -0.1858(3)
H12 H -1.1688(6) -0.2120(4) -0.2672(3)
H13 H -1.0642(5) -0.4440(3) -0.3455(3)
H14 H -0.9209(5) -0.4766(3) -0.3906(3)
H17 H -1.0081(12) -0.3755(6) -0.5036(5)
H18 H -1.1798(12) -0.4073(6) -0.4846(5)
H19 H -1.1961(11) -0.2964(10) -0.4139(7)
H20 H -1.1295(11) -0.2579(10) -0.4909(7)
H25 H -0.6873(5) -0.2230(3) -0.3208(2)
H26 H -0.5204(5) -0.2769(3) -0.2929(2)
H29 H -0.4474(15) -0.2418(8) -0.4031(8)
H30 H -0.6117(15) -0.1849(8) -0.4297(8)
H31 H -0.7092(13) -0.2918(7) -0.5175(5)
H32 H -0.5410(13) -0.3456(7) -0.4948(5)
H37 H -0.4229(5) -0.4023(3) -0.3519(3)
H38 H -0.3695(5) -0.4160(3) -0.2561(3)
H41 H -0.3602(10) -0.5652(7) -0.2663(6)
H42 H -0.3184(10) -0.5384(7) -0.3532(6)
H43 H -0.5840(11) -0.5574(6) -0.4192(6)
H44 H -0.5734(11) -0.6365(6) -0.3522(6)
H49 H -0.5488(6) -0.5532(4) -0.1970(3)
H50 H -0.6453(6) -0.5252(4) -0.1269(3)
H53 H -0.3814(10) -0.5045(7) -0.0498(5)
H54 H -0.3054(10) -0.4835(7) -0.1292(5)
H55 H -0.4949(9) -0.3574(7) -0.0502(5)
H56 H -0.3314(9) -0.3332(7) -0.0821(5)
C13? C -1.1005(24) -0.4036(13) -0.4409(13)
C14? C -1.0682(13) -0.2711(7) -0.4403(7)
C19? C -0.6086(15) -0.2268(10) -0.4187(8)
C20? C -0.5978(14) -0.2939(9) -0.4691(10)
C25? C -0.4325(16) -0.5310(10) -0.3554(9)
C26? C -0.5685(19) -0.5899(9) -0.3352(10)
C31? C -0.4822(22) -0.4888(13) -0.1142(18)
C32? C -0.3850(15) -0.4050(12) -0.1089(8)
H15? H -0.9154(5) -0.4700(3) -0.3975(3)
H16? H -1.0377(5) -0.4529(3) -0.3374(3)
H21? H -1.2088(24) -0.4204(13) -0.4312(13)
H22? H -1.0819(24) -0.4320(13) -0.4917(13)
H23? H -1.0474(13) -0.2489(7) -0.4929(7)
H24? H -1.1616(13) -0.2382(7) -0.4264(7)
H27? H -0.5053(5) -0.2808(3) -0.3061(2)
H28? H -0.6725(5) -0.2293(3) -0.3048(2)
H33? H -0.7070(15) -0.1903(10) -0.4380(8)
H34? H -0.5136(15) -0.1862(10) -0.4141(8)
H35? H -0.4838(14) -0.3109(9) -0.4676(10)
H36? H -0.6478(14) -0.2769(9) -0.5251(10)
H39? H -0.3675(5) -0.4434(3) -0.2519(3)
H40? H -0.4094(5) -0.3864(3) -0.3351(3)
H45? H -0.4497(16) -0.5181(10) -0.4141(9)
H46? H -0.3269(16) -0.5616(10) -0.3389(9)
H47? H -0.6123(19) -0.6316(9) -0.3802(10)
H48? H -0.5323(19) -0.6260(9) -0.2854(10)
H51? H -0.6572(6) -0.5341(4) -0.1401(3)
H52? H -0.5253(6) -0.5467(4) -0.1963(3)
H57? H -0.4050(22) -0.5403(13) -0.1085(18)
H58? H -0.5324(22) -0.4899(13) -0.0656(18)
H59? H -0.2846(15) -0.4129(12) -0.1305(8)
H60? H -0.3600(15) -0.3799(12) -0.0534(8)
loop_
_geom_bond_atom_site_label_1
_geom_bond_atom_site_label_2
_geom_bond_site_symmetry_1
_geom_bond_site_symmetry_2
O1 C1 1_555 1_555
O2 C5 1_555 1_555
O3 C9 1_555 1_555
O4 C15 1_555 1_555
O5 C21 1_555 1_555
O6 C27 1_555 1_555
C1 C2 1_555 1_555
C2 C3 1_555 1_555
C3 C4 1_555 1_555
C4 O1 1_555 1_555
C5 C4 1_555 1_555
C6 C5 1_555 1_555
C7 C6 1_555 1_555
C8 O2 1_555 1_555
C9 C5 1_555 1_555
C10 C9 1_555 1_555
C11 C10 1_555 1_555
C12 O3 1_555 1_555
C15 C9 1_555 1_555
C16 C15 1_555 1_555
C17 C16 1_555 1_555
C18 O4 1_555 1_555
C21 C15 1_555 1_555
C22 C21 1_555 1_555
C23 C22 1_555 1_555
C24 O5 1_555 1_555
C27 C4 1_555 1_555
C28 C27 1_555 1_555
C29 C28 1_555 1_555
C30 O6 1_555 1_555
H1 C1 1_555 1_555
H2 C1 1_555 1_555
H3 C2 1_555 1_555
H4 C2 1_555 1_555
H5 C3 1_555 1_555
H6 C3 1_555 1_555
H7 C6 1_555 1_555
H8 C6 1_555 1_555
H9 C7 1_555 1_555
H10 C7 1_555 1_555
H11 C8 1_555 1_555
H12 C8 1_555 1_555
H13 C10 1_555 1_555
H14 C10 1_555 1_555
H17 C11 1_555 1_555
H18 C11 1_555 1_555
H19 C12 1_555 1_555
H20 C12 1_555 1_555
H25 C16 1_555 1_555
H26 C16 1_555 1_555
H29 C17 1_555 1_555
H30 C17 1_555 1_555
H31 C18 1_555 1_555
H32 C18 1_555 1_555
H37 C22 1_555 1_555
H38 C22 1_555 1_555
H41 C23 1_555 1_555
H42 C23 1_555 1_555
H43 C24 1_555 1_555
H44 C24 1_555 1_555
H49 C28 1_555 1_555
H50 C28 1_555 1_555
H53 C29 1_555 1_555
H54 C29 1_555 1_555
H55 C30 1_555 1_555
H56 C30 1_555 1_555
C7 C8 1_555 1_555
C11 C12 1_555 1_555
C17 C18 1_555 1_555
C21 C27 1_555 1_555
C23 C24 1_555 1_555
C29 C30 1_555 1_555

#END
