
#######################################################################
#
#                 Cambridge Crystallographic Data Centre
#                                CCDC 
#
#######################################################################
#
# If this CIF has been generated from an entry in the Cambridge 
# Structural Database, then it will include bibliographic, chemical, 
# crystal, experimental, refinement or atomic coordinate data resulting 
# from the CCDC's data processing and validation procedures.
#
#######################################################################

data_TAFVUU
_chemical_formula_moiety         'C30 H20 O1'
_chemical_name_systematic        
5-(4-methylphenyl)-10-phenyl-11H-benzo[b]fluoren-11-one
_symmetry_cell_setting           triclinic
_symmetry_space_group_name_H-M   'P -1'
_symmetry_Int_Tables_number      2
_space_group_name_Hall           '-P 1'
loop_
_symmetry_equiv_pos_site_id
_symmetry_equiv_pos_as_xyz
1 x,y,z
2 -x,-y,-z
_cell_length_a                   9.695(4)
_cell_length_b                   10.725(5)
_cell_length_c                   12.043(5)
_cell_angle_alpha                67.555(4)
_cell_angle_beta                 69.092(4)
_cell_angle_gamma                69.054(4)
_cell_volume                     1045.05
_exptl_crystal_colour            colorless
_exptl_crystal_description       block
_cell_formula_units_Z            2
loop_
_atom_site_label
_atom_site_type_symbol
_atom_site_fract_x
_atom_site_fract_y
_atom_site_fract_z
C1 C 0.74946(13) 0.62285(13) 0.50330(11)
C2 C 0.85061(14) 0.82379(13) 0.43231(12)
C3 C 0.75241(14) 0.73790(13) 0.52555(11)
C4 C 0.65365(14) 0.78178(13) 0.63926(11)
C5 C 0.93712(14) 0.79184(13) 0.31826(12)
O1 O 0.88734(13) 0.38649(11) 0.32197(9)
C6 C 0.84159(14) 0.58859(13) 0.38988(11)
C7 C 0.93048(14) 0.67117(13) 0.29675(11)
C8 C 1.01380(14) 0.64551(13) 0.17294(11)
C9 C 0.66375(14) 0.51425(13) 0.57932(11)
C10 C 0.85982(16) 0.94417(14) 0.44893(14)
H1 H 0.8039 0.9666 0.5226
C11 C 0.82244(15) 0.45321(13) 0.39669(12)
C12 C 0.71114(16) 0.75824(16) 0.73751(13)
H2 H 0.8128 0.7107 0.7353
C13 C 0.93384(16) 0.67189(16) 0.08794(13)
H3 H 0.8276 0.6984 0.1105
C14 C 0.55468(15) 0.49876(15) 0.69278(12)
H4 H 0.5216 0.5649 0.7352
C15 C 0.70877(15) 0.41343(14) 0.51739(12)
C16 C 1.02600(17) 0.88274(15) 0.22744(14)
H5 H 1.0809 0.8643 0.1520
C17 C 1.03307(19) 0.99703(17) 0.24791(16)
H6 H 1.0941 1.0540 0.1873
C18 C 0.94922(19) 1.02846(16) 0.35915(15)
H7 H 0.9538 1.1066 0.3726
C19 C 0.61811(18) 0.80508(19) 0.83924(14)
H8 H 0.6589 0.7884 0.9043
C20 C 0.50122(17) 0.85210(17) 0.64628(14)
H9 H 0.4602 0.8688 0.5814
C21 C 0.64994(18) 0.29789(15) 0.56621(15)
H10 H 0.6816 0.2320 0.5236
C22 C 0.46605(17) 0.87605(16) 0.84632(13)
C23 C 0.49592(18) 0.38240(17) 0.74165(14)
H11 H 0.4233 0.3713 0.8177
C24 C 1.0102(2) 0.65920(17) -0.03042(14)
H12 H 0.9549 0.6761 -0.0861
C25 C 0.40934(17) 0.89776(18) 0.74855(15)
H13 H 0.3072 0.9440 0.7514
C26 C 1.17109(17) 0.60616(19) 0.13617(15)
H14 H 1.2273 0.5871 0.1918
C27 C 0.54274(19) 0.28277(17) 0.68009(15)
H15 H 0.5022 0.2056 0.7152
C28 C 1.16653(19) 0.62191(17) -0.06591(14)
H16 H 1.2175 0.6153 -0.1459
C29 C 0.3645(2) 0.9280(2) 0.95650(18)
H17 H 0.3728 0.8534 1.0318
H18 H 0.2604 0.9602 0.9511
H19 H 0.3956 1.0035 0.9566
C30 C 1.24678(18) 0.5946(2) 0.01698(16)
H20 H 1.3530 0.5680 -0.0063
loop_
_geom_bond_atom_site_label_1
_geom_bond_atom_site_label_2
_geom_bond_site_symmetry_1
_geom_bond_site_symmetry_2
C1 C3 1_555 1_555
C2 C3 1_555 1_555
C3 C4 1_555 1_555
C4 C12 1_555 1_555
C5 C2 1_555 1_555
O1 C11 1_555 1_555
C6 C1 1_555 1_555
C7 C5 1_555 1_555
C8 C7 1_555 1_555
C9 C1 1_555 1_555
C10 C2 1_555 1_555
H1 C10 1_555 1_555
C11 C6 1_555 1_555
C12 H2 1_555 1_555
C13 C8 1_555 1_555
H3 C13 1_555 1_555
C14 C9 1_555 1_555
H4 C14 1_555 1_555
C15 C9 1_555 1_555
C16 C5 1_555 1_555
H5 C16 1_555 1_555
C17 C16 1_555 1_555
H6 C17 1_555 1_555
C18 C10 1_555 1_555
H7 C18 1_555 1_555
C19 C12 1_555 1_555
H8 C19 1_555 1_555
C20 C4 1_555 1_555
H9 C20 1_555 1_555
C21 C15 1_555 1_555
H10 C21 1_555 1_555
C22 C19 1_555 1_555
C23 C14 1_555 1_555
H11 C23 1_555 1_555
C24 C13 1_555 1_555
H12 C24 1_555 1_555
C25 C20 1_555 1_555
H13 C25 1_555 1_555
C26 C8 1_555 1_555
H14 C26 1_555 1_555
C27 C21 1_555 1_555
H15 C27 1_555 1_555
C28 C24 1_555 1_555
H16 C28 1_555 1_555
C29 C22 1_555 1_555
H17 C29 1_555 1_555
H18 C29 1_555 1_555
H19 C29 1_555 1_555
C30 C26 1_555 1_555
H20 C30 1_555 1_555
C6 C7 1_555 1_555
C11 C15 1_555 1_555
C17 C18 1_555 1_555
C22 C25 1_555 1_555
C23 C27 1_555 1_555
C28 C30 1_555 1_555

#END
