
#######################################################################
#
#                 Cambridge Crystallographic Data Centre
#                                CCDC 
#
#######################################################################
#
# If this CIF has been generated from an entry in the Cambridge 
# Structural Database, then it will include bibliographic, chemical, 
# crystal, experimental, refinement or atomic coordinate data resulting 
# from the CCDC's data processing and validation procedures.
#
#######################################################################

data_TAFXEG
_chemical_formula_moiety         'C35 H21 B1 Br2 O4,C6 H6 O1'
_chemical_name_systematic        
"(3,3'-dibromo(1,1'-binaphthalene)-2,2'-diolato)-(2-(3-phenylprop-2-enoyl)phenolato)-boron phenol unknown solvate"
_symmetry_cell_setting           monoclinic
_symmetry_space_group_name_H-M   'P 21'
_symmetry_Int_Tables_number      4
_space_group_name_Hall           'P 2yb'
loop_
_symmetry_equiv_pos_site_id
_symmetry_equiv_pos_as_xyz
1 x,y,z
2 -x,1/2+y,-z
_cell_length_a                   10.2781(4)
_cell_length_b                   12.6985(4)
_cell_length_c                   15.9497(5)
_cell_angle_alpha                90
_cell_angle_beta                 95.976(2)
_cell_angle_gamma                90
_cell_volume                     2070.39
_exptl_crystal_colour            colorless
_exptl_crystal_description       prism
_cell_formula_units_Z            2
loop_
_atom_site_label
_atom_site_type_symbol
_atom_site_fract_x
_atom_site_fract_y
_atom_site_fract_z
Br1 Br 0.59811(5) 0.17428(3) 0.60898(3)
Br2 Br 0.85509(5) 0.54296(4) 0.27128(3)
O1 O 0.7574(3) 0.3541(2) 0.36416(19)
O2 O 0.6184(3) 0.3489(2) 0.47759(18)
O3 O 0.8503(3) 0.3131(2) 0.50022(19)
O4 O 0.7661(3) 0.4886(2) 0.46866(19)
C1 C 0.4642(4) 0.1653(4) 0.3187(3)
C2 C 0.8395(4) 0.6380(3) 0.5432(3)
H1 H 0.8868 0.6685 0.5915
C3 C 0.5837(5) 0.5445(4) 0.2202(3)
H2 H 0.6035 0.6052 0.1892
C4 C 0.4150(5) -0.0227(4) 0.3306(4)
H3 H 0.4095 -0.0837 0.3645
C5 C 0.7849(4) 0.7005(3) 0.4808(3)
H4 H 0.7344 0.6667 0.4353
C6 C 0.4276(5) 0.1558(4) 0.2306(3)
H5 H 0.4307 0.2160 0.1955
C7 C 0.5319(4) 0.3585(4) 0.3087(3)
C8 C 0.8807(4) 0.4525(4) 0.6007(3)
C9 C 0.4954(4) 0.0783(3) 0.4559(3)
H6 H 0.4880 0.0179 0.4902
C10 C 0.5584(4) 0.2608(3) 0.4414(3)
C11 C 0.6559(4) 0.3998(4) 0.3129(3)
C12 C 0.5140(4) 0.2606(3) 0.3572(3)
C13 C 0.8201(5) 1.0326(4) 0.4571(4)
H7 H 0.8292 1.1064 0.4502
C14 C 0.5436(4) 0.1715(4) 0.4909(3)
C15 C 0.7631(5) 0.9724(4) 0.3919(4)
H8 H 0.7328 1.0056 0.3402
C16 C 0.4576(4) 0.0739(4) 0.3692(3)
C17 C 0.8268(4) 0.5258(3) 0.5370(3)
C18 C 0.6801(5) 0.4916(4) 0.2662(3)
C19 C 0.8896(4) 0.3462(4) 0.5787(3)
C20 C 0.4241(5) 0.4144(4) 0.2625(3)
C21 C 0.2935(5) 0.3845(4) 0.2652(3)
H9 H 0.2743 0.3226 0.2949
C22 C 0.9462(5) 0.2747(3) 0.6386(3)
H10 H 0.9560 0.2028 0.6239
C23 C 0.3876(5) 0.0605(5) 0.1953(4)
H11 H 0.3638 0.0556 0.1362
C24 C 0.7485(5) 0.8644(4) 0.3995(3)
H12 H 0.7075 0.8242 0.3540
C25 C 0.9873(5) 0.3090(4) 0.7186(3)
H13 H 1.0224 0.2593 0.7593
C26 C 0.1928(5) 0.4430(5) 0.2258(3)
H14 H 0.1048 0.4214 0.2283
C27 C 0.9790(5) 0.4151(4) 0.7422(3)
H15 H 1.0095 0.4378 0.7975
C28 C 0.9255(5) 0.4851(4) 0.6825(3)
H16 H 0.9187 0.5573 0.6970
C29 C 0.8524(5) 0.8764(4) 0.5421(3)
H17 H 0.8835 0.8438 0.5940
C30 C 0.3821(5) -0.0293(4) 0.2464(4)
H18 H 0.3551 -0.0948 0.2216
C31 C 0.7957(4) 0.8153(4) 0.4762(3)
C32 C 0.2206(5) 0.5362(5) 0.1812(4)
H19 H 0.1514 0.5783 0.1551
C33 C 0.3458(6) 0.5640(5) 0.1763(4)
H20 H 0.3633 0.6234 0.1431
C34 C 0.4518(5) 0.5088(4) 0.2185(3)
C35 C 0.8646(5) 0.9851(4) 0.5335(3)
H21 H 0.9029 1.0263 0.5793
B1 B 0.7471(5) 0.3724(4) 0.4526(3)
O5 O 0.9617(4) 0.2639(3) 0.2899(2)
H22 H 0.910(8) 0.293(6) 0.308(5)
C36 C 0.7872(5) 0.1736(5) 0.2050(3)
H23 H 0.7252 0.1918 0.2428
C37 C 0.9163(5) 0.2078(4) 0.2211(3)
C38 C 1.0069(5) 0.1794(5) 0.1643(3)
H24 H 1.0957 0.2008 0.1744
C39 C 0.9657(7) 0.1208(5) 0.0950(4)
H25 H 1.0273 0.1020 0.0571
C40 C 0.7489(6) 0.1142(5) 0.1351(4)
H26 H 0.6609 0.0906 0.1257
C41 C 0.8363(7) 0.0876(6) 0.0776(4)
H27 H 0.8089 0.0483 0.0282
loop_
_geom_bond_atom_site_label_1
_geom_bond_atom_site_label_2
_geom_bond_site_symmetry_1
_geom_bond_site_symmetry_2
Br1 C14 1_555 1_555
Br2 C18 1_555 1_555
O1 C11 1_555 1_555
O2 C10 1_555 1_555
O3 C19 1_555 1_555
O4 C17 1_555 1_555
C1 C6 1_555 1_555
C2 H1 1_555 1_555
C3 H2 1_555 1_555
C4 H3 1_555 1_555
C5 C2 1_555 1_555
H4 C5 1_555 1_555
C6 H5 1_555 1_555
C7 C11 1_555 1_555
C8 C17 1_555 1_555
C9 H6 1_555 1_555
C10 C12 1_555 1_555
C11 C18 1_555 1_555
C12 C1 1_555 1_555
C13 H7 1_555 1_555
C14 C9 1_555 1_555
C15 C13 1_555 1_555
H8 C15 1_555 1_555
C16 C1 1_555 1_555
C17 C2 1_555 1_555
C18 C3 1_555 1_555
C19 C8 1_555 1_555
C20 C7 1_555 1_555
C21 C20 1_555 1_555
H9 C21 1_555 1_555
C22 C19 1_555 1_555
H10 C22 1_555 1_555
C23 C6 1_555 1_555
H11 C23 1_555 1_555
C24 C15 1_555 1_555
H12 C24 1_555 1_555
C25 C22 1_555 1_555
H13 C25 1_555 1_555
C26 C21 1_555 1_555
H14 C26 1_555 1_555
C27 C25 1_555 1_555
H15 C27 1_555 1_555
C28 C8 1_555 1_555
H16 C28 1_555 1_555
C29 H17 1_555 1_555
C30 C4 1_555 1_555
H18 C30 1_555 1_555
C31 C5 1_555 1_555
C32 C26 1_555 1_555
H19 C32 1_555 1_555
C33 C32 1_555 1_555
H20 C33 1_555 1_555
C34 C3 1_555 1_555
C35 C13 1_555 1_555
H21 C35 1_555 1_555
B1 O1 1_555 1_555
O5 H22 1_555 1_555
C36 H23 1_555 1_555
C37 O5 1_555 1_555
C38 C37 1_555 1_555
H24 C38 1_555 1_555
C39 C38 1_555 1_555
H25 C39 1_555 1_555
C40 C36 1_555 1_555
H26 C40 1_555 1_555
C41 C39 1_555 1_555
H27 C41 1_555 1_555
O2 B1 1_555 1_555
O3 B1 1_555 1_555
O4 B1 1_555 1_555
C4 C16 1_555 1_555
C7 C12 1_555 1_555
C9 C16 1_555 1_555
C10 C14 1_555 1_555
C20 C34 1_555 1_555
C23 C30 1_555 1_555
C24 C31 1_555 1_555
C27 C28 1_555 1_555
C29 C31 1_555 1_555
C29 C35 1_555 1_555
C33 C34 1_555 1_555
C36 C37 1_555 1_555
C40 C41 1_555 1_555

#END
