
#######################################################################
#
#                 Cambridge Crystallographic Data Centre
#                                CCDC 
#
#######################################################################
#
# If this CIF has been generated from an entry in the Cambridge 
# Structural Database, then it will include bibliographic, chemical, 
# crystal, experimental, refinement or atomic coordinate data resulting 
# from the CCDC's data processing and validation procedures.
#
#######################################################################

data_TAFXOQ
_chemical_formula_moiety         'C78 H50 F24 O2'
_chemical_name_systematic        
'6,9,15,18-tetrakis(3,5-bis(trifluoromethyl)phenyl)-7,16-bis(hexyloxy)benzo[5,6]-s-indaceno[1,2-b]indeno[2,1-h]fluorene unknown solvate'
_symmetry_cell_setting           monoclinic
_symmetry_space_group_name_H-M   'C 2/c'
_symmetry_Int_Tables_number      15
_space_group_name_Hall           '-C 2yn'
loop_
_symmetry_equiv_pos_site_id
_symmetry_equiv_pos_as_xyz
1 x,y,z
2 -x,y,1/2-z
3 1/2+x,1/2+y,z
4 1/2-x,1/2+y,1/2-z
5 -x,-y,-z
6 x,-y,1/2+z
7 1/2-x,1/2-y,-z
8 1/2+x,1/2-y,1/2+z
_cell_length_a                   32.7089(12)
_cell_length_b                   14.2715(5)
_cell_length_c                   15.6260(6)
_cell_angle_alpha                90
_cell_angle_beta                 104.233(2)
_cell_angle_gamma                90
_cell_volume                     7070.39
_exptl_crystal_colour            black
_exptl_crystal_description       'prism frag'
_cell_formula_units_Z            4
loop_
_atom_site_label
_atom_site_type_symbol
_atom_site_fract_x
_atom_site_fract_y
_atom_site_fract_z
O1 O 0.42687(4) 0.08370(10) 0.02934(9)
C1 C 0.48465(7) 0.43303(14) 0.11521(13)
C2 C 0.51684(7) 0.50645(15) 0.12422(14)
C3 C 0.51740(8) 0.60057(16) 0.15021(16)
H1 H 0.4938 0.6277 0.1660
C4 C 0.55342(9) 0.65339(16) 0.15231(18)
H2 H 0.5538 0.7177 0.1680
C5 C 0.58859(9) 0.61461(17) 0.13215(18)
H3 H 0.6127 0.6525 0.1342
C6 C 0.58909(8) 0.52052(16) 0.10891(16)
H4 H 0.6134 0.4934 0.0960
C7 C 0.55335(7) 0.46754(15) 0.10512(14)
C8 C 0.54430(7) 0.36854(14) 0.08312(14)
C9 C 0.56888(7) 0.29991(14) 0.06160(14)
H5 H 0.5971 0.3124 0.0592
C10 C 0.55105(7) 0.20839(14) 0.04274(14)
C11 C 0.50738(7) 0.19260(14) 0.04331(14)
C12 C 0.48279(7) 0.26110(14) 0.06576(14)
H6 H 0.4542 0.2494 0.0656
C13 C 0.50143(7) 0.35110(15) 0.08954(14)
C14 C 0.44261(7) 0.44567(15) 0.13105(14)
C15 C 0.42229(7) 0.37415(15) 0.16575(14)
H7 H 0.4360 0.3155 0.1803
C16 C 0.38240(8) 0.38790(16) 0.17908(15)
C17 C 0.36230(8) 0.47416(18) 0.16218(17)
H8 H 0.3352 0.4838 0.1726
C18 C 0.38280(8) 0.54560(17) 0.12976(18)
C19 C 0.42177(8) 0.53160(16) 0.11277(16)
H9 H 0.4346 0.5811 0.0883
C20 C 0.56852(7) 0.12643(14) 0.01984(13)
C21 C 0.61198(7) 0.11599(14) 0.00975(14)
C22 C 0.64660(7) 0.13880(15) 0.07873(16)
H10 H 0.6423 0.1595 0.1337
C23 C 0.68705(8) 0.13127(18) 0.06728(19)
C24 C 0.69412(8) 0.10390(18) -0.01303(19)
H11 H 0.7220 0.1008 -0.0210
C25 C 0.65973(9) 0.08114(16) -0.08136(17)
C26 C 0.61904(8) 0.08544(15) -0.06988(15)
H12 H 0.5959 0.0674 -0.1167
C27 C 0.49847(7) 0.09407(14) 0.01974(13)
C28 C 0.46238(6) 0.04191(14) 0.01348(13)
C29 C 0.39655(7) 0.11423(15) -0.04968(14)
H13 H 0.3839 0.0593 -0.0852
H14 H 0.4106 0.1537 -0.0861
C30 C 0.36274(7) 0.16965(16) -0.02180(16)
H15 H 0.3747 0.2300 0.0040
H16 H 0.3532 0.1345 0.0244
C31 C 0.32492(8) 0.18883(18) -0.09898(17)
H17 H 0.3107 0.1288 -0.1195
H18 H 0.3350 0.2158 -0.1484
C32 C 0.29277(8) 0.2561(2) -0.07517(19)
H19 H 0.2658 0.2508 -0.1205
H20 H 0.2876 0.2367 -0.0179
C33 C 0.30670(9) 0.3581(2) -0.0686(2)
H21 H 0.3107 0.3789 -0.1265
H22 H 0.3342 0.3636 -0.0248
C34 C 0.27466(12) 0.4221(3) -0.0414(3)
H23 H 0.2473 0.4161 -0.0840
H24 H 0.2843 0.4872 -0.0399
H25 H 0.2718 0.4039 0.0174
C35 C 0.46380(7) -0.05378(14) -0.00568(13)
C36 C 0.35969(14) 0.3087(3) 0.2126(3)
F1 F 0.38383(17) 0.2338(4) 0.2385(3)
F2 F 0.32594(13) 0.2805(2) 0.1512(3)
F3 F 0.3457(2) 0.3354(5) 0.2826(4)
C37 C 0.36312(9) 0.6414(2) 0.1151(2)
F4 F 0.34013(8) 0.65054(17) 0.03310(18)
F5 F 0.33904(7) 0.66164(15) 0.16954(19)
F6 F 0.39207(8) 0.70977(18) 0.1267(2)
C38 C 0.72387(11) 0.1524(2) 0.1437(2)
F7 F 0.71429(7) 0.1656(3) 0.22004(17)
F8 F 0.74503(10) 0.2278(2) 0.1296(2)
F9 F 0.75175(15) 0.0823(2) 0.1564(3)
C39 C 0.66706(11) 0.0511(2) -0.1678(2)
F10 F 0.70479(9) 0.0743(3) -0.1785(3)
F11 F 0.6635(1) -0.0412(2) -0.1787(2)
F12 F 0.63899(12) 0.0898(2) -0.2358(2)
O1D O 0.57313(4) -0.08370(10) -0.02934(9)
C1D C 0.51535(7) -0.43303(14) -0.11521(13)
C2D C 0.48316(7) -0.50645(15) -0.12422(14)
C3D C 0.48260(8) -0.60057(16) -0.15021(16)
H1D H 0.5062 -0.6277 -0.1660
C4D C 0.44658(9) -0.65339(16) -0.15231(18)
H2D H 0.4462 -0.7177 -0.1680
C5D C 0.41141(9) -0.61461(17) -0.13215(18)
H3D H 0.3873 -0.6525 -0.1342
C6D C 0.41091(8) -0.52052(16) -0.10891(16)
H4D H 0.3866 -0.4934 -0.0960
C7D C 0.44665(7) -0.46754(15) -0.10512(14)
C8D C 0.45570(7) -0.36854(14) -0.08312(14)
C9D C 0.43112(7) -0.29991(14) -0.06160(14)
H5D H 0.4029 -0.3124 -0.0592
C10D C 0.44895(7) -0.20839(14) -0.04274(14)
C11D C 0.49262(7) -0.19260(14) -0.04331(14)
C12D C 0.51721(7) -0.26110(14) -0.06576(14)
H6D H 0.5458 -0.2494 -0.0656
C13D C 0.49857(7) -0.35110(15) -0.08954(14)
C14D C 0.55739(7) -0.44567(15) -0.13105(14)
C15D C 0.57771(7) -0.37415(15) -0.16575(14)
H7D H 0.5640 -0.3155 -0.1803
C16D C 0.61760(8) -0.38790(16) -0.17908(15)
C17D C 0.63770(8) -0.47416(18) -0.16218(17)
H8D H 0.6648 -0.4838 -0.1726
C18D C 0.61720(8) -0.54560(17) -0.12976(18)
C19D C 0.57823(8) -0.53160(16) -0.11277(16)
H9D H 0.5654 -0.5811 -0.0883
C20D C 0.43148(7) -0.12643(14) -0.01984(13)
C21D C 0.38802(7) -0.11599(14) -0.00975(14)
C22D C 0.35340(7) -0.13880(15) -0.07873(16)
H10D H 0.3577 -0.1595 -0.1337
C23D C 0.31295(8) -0.13127(18) -0.06728(19)
C24D C 0.30588(8) -0.10390(18) 0.01303(19)
H11D H 0.2780 -0.1008 0.0210
C25D C 0.34027(9) -0.08114(16) 0.08136(17)
C26D C 0.38096(8) -0.08544(15) 0.06988(15)
H12D H 0.4041 -0.0674 0.1167
C27D C 0.50153(7) -0.09407(14) -0.01974(13)
C28D C 0.53762(6) -0.04191(14) -0.01348(13)
C29D C 0.60345(7) -0.11423(15) 0.04968(14)
H13D H 0.6161 -0.0593 0.0852
H14D H 0.5894 -0.1537 0.0861
C30D C 0.63726(7) -0.16965(16) 0.02180(16)
H15D H 0.6253 -0.2300 -0.0040
H16D H 0.6468 -0.1345 -0.0244
C31D C 0.67508(8) -0.18883(18) 0.09898(17)
H17D H 0.6893 -0.1288 0.1195
H18D H 0.6650 -0.2158 0.1484
C32D C 0.70723(8) -0.2561(2) 0.07517(19)
H19D H 0.7342 -0.2508 0.1205
H20D H 0.7124 -0.2367 0.0179
C33D C 0.69330(9) -0.3581(2) 0.0686(2)
H21D H 0.6893 -0.3789 0.1265
H22D H 0.6658 -0.3636 0.0248
C34D C 0.72534(12) -0.4221(3) 0.0414(3)
H23D H 0.7527 -0.4161 0.0840
H24D H 0.7157 -0.4872 0.0399
H25D H 0.7282 -0.4039 -0.0174
C35D C 0.53620(7) 0.05378(14) 0.00568(13)
C36D C 0.64031(14) -0.3087(3) -0.2126(3)
F1D F 0.61617(17) -0.2338(4) -0.2385(3)
F2D F 0.67406(13) -0.2805(2) -0.1512(3)
F3D F 0.6543(2) -0.3354(5) -0.2826(4)
C37D C 0.63688(9) -0.6414(2) -0.1151(2)
F4D F 0.65987(8) -0.65054(17) -0.03310(18)
F5D F 0.66096(7) -0.66164(15) -0.16954(19)
F6D F 0.60793(8) -0.70977(18) -0.1267(2)
C38D C 0.27613(11) -0.1524(2) -0.1437(2)
F7D F 0.28571(7) -0.1656(3) -0.22004(17)
F8D F 0.25497(10) -0.2278(2) -0.1296(2)
F9D F 0.24825(15) -0.0823(2) -0.1564(3)
C39D C 0.33294(11) -0.0511(2) 0.1678(2)
F10D F 0.29521(9) -0.0743(3) 0.1785(3)
F11D F 0.3365(1) 0.0412(2) 0.1787(2)
F12D F 0.36101(12) -0.0898(2) 0.2358(2)
C40? C 0.3578(10) 0.324(2) 0.211(2)
F13? F 0.3785(12) 0.243(3) 0.224(3)
F14? F 0.3204(10) 0.3076(19) 0.157(2)
F15? F 0.3500(17) 0.346(4) 0.289(2)
C41? C 0.3544(4) 0.6240(10) 0.0762(9)
F16? F 0.3408(6) 0.6283(13) -0.0109(9)
F17? F 0.3211(5) 0.6363(10) 0.1095(12)
F18? F 0.3786(5) 0.7002(14) 0.0991(14)
C42? C 0.7277(6) 0.1634(13) 0.1251(13)
F19? F 0.7165(5) 0.2191(17) 0.1831(11)
F20? F 0.7503(7) 0.2149(18) 0.0827(13)
F21? F 0.7546(12) 0.1012(18) 0.173(2)
C43? C 0.6573(7) 0.0539(12) -0.1760(13)
F22? F 0.6950(6) 0.053(2) -0.194(2)
F23? F 0.6389(6) -0.0269(11) -0.2053(13)
F24? F 0.6351(9) 0.1200(13) -0.228(2)
loop_
_geom_bond_atom_site_label_1
_geom_bond_atom_site_label_2
_geom_bond_site_symmetry_1
_geom_bond_site_symmetry_2
O1 C28 1_555 1_555
C1 C2 1_555 1_555
C2 C3 1_555 1_555
C3 H1 1_555 1_555
C4 C3 1_555 1_555
H2 C4 1_555 1_555
C5 C4 1_555 1_555
H3 C5 1_555 1_555
C6 C5 1_555 1_555
H4 C6 1_555 1_555
C7 C2 1_555 1_555
C8 C7 1_555 1_555
C9 C8 1_555 1_555
H5 C9 1_555 1_555
C10 C9 1_555 1_555
C11 C10 1_555 1_555
C12 C11 1_555 1_555
H6 C12 1_555 1_555
C13 C1 1_555 1_555
C14 C1 1_555 1_555
C15 C14 1_555 1_555
H7 C15 1_555 1_555
C16 C15 1_555 1_555
C17 C16 1_555 1_555
H8 C17 1_555 1_555
C18 C17 1_555 1_555
C19 C14 1_555 1_555
H9 C19 1_555 1_555
C20 C10 1_555 1_555
C21 C20 1_555 1_555
C22 C21 1_555 1_555
H10 C22 1_555 1_555
C23 C22 1_555 1_555
C24 C23 1_555 1_555
H11 C24 1_555 1_555
C25 C24 1_555 1_555
C26 C21 1_555 1_555
H12 C26 1_555 1_555
C27 C11 1_555 1_555
C28 C27 1_555 1_555
C29 O1 1_555 1_555
H13 C29 1_555 1_555
H14 C29 1_555 1_555
C30 C29 1_555 1_555
H15 C30 1_555 1_555
H16 C30 1_555 1_555
C31 C30 1_555 1_555
H17 C31 1_555 1_555
H18 C31 1_555 1_555
C32 C31 1_555 1_555
H19 C32 1_555 1_555
H20 C32 1_555 1_555
C33 C32 1_555 1_555
H21 C33 1_555 1_555
H22 C33 1_555 1_555
C34 C33 1_555 1_555
H23 C34 1_555 1_555
H24 C34 1_555 1_555
H25 C34 1_555 1_555
C35 C28 1_555 1_555
C36 C16 1_555 1_555
F1 C36 1_555 1_555
F2 C36 1_555 1_555
F3 C36 1_555 1_555
C37 C18 1_555 1_555
F4 C37 1_555 1_555
F5 C37 1_555 1_555
F6 C37 1_555 1_555
C38 C23 1_555 1_555
F7 C38 1_555 1_555
F8 C38 1_555 1_555
F9 C38 1_555 1_555
C39 C25 1_555 1_555
F10 C39 1_555 1_555
F11 C39 1_555 1_555
F12 C39 1_555 1_555
O1D C28D 1_555 1_555
C1D C2D 1_555 1_555
C2D C3D 1_555 1_555
C3D H1D 1_555 1_555
C4D C3D 1_555 1_555
H2D C4D 1_555 1_555
C5D C4D 1_555 1_555
H3D C5D 1_555 1_555
C6D C5D 1_555 1_555
H4D C6D 1_555 1_555
C7D C2D 1_555 1_555
C8D C7D 1_555 1_555
C9D C8D 1_555 1_555
H5D C9D 1_555 1_555
C10D C9D 1_555 1_555
C11D C10D 1_555 1_555
C12D C11D 1_555 1_555
H6D C12D 1_555 1_555
C13D C1D 1_555 1_555
C14D C1D 1_555 1_555
C15D C14D 1_555 1_555
H7D C15D 1_555 1_555
C16D C15D 1_555 1_555
C17D C16D 1_555 1_555
H8D C17D 1_555 1_555
C18D C17D 1_555 1_555
C19D C14D 1_555 1_555
H9D C19D 1_555 1_555
C20D C35 1_555 1_555
C21D C20D 1_555 1_555
C22D C21D 1_555 1_555
H10D C22D 1_555 1_555
C23D C22D 1_555 1_555
C24D C23D 1_555 1_555
H11D C24D 1_555 1_555
C25D C24D 1_555 1_555
C26D C21D 1_555 1_555
H12D C26D 1_555 1_555
C27D C35 1_555 1_555
C28D C27D 1_555 1_555
C29D O1D 1_555 1_555
H13D C29D 1_555 1_555
H14D C29D 1_555 1_555
C30D C29D 1_555 1_555
H15D C30D 1_555 1_555
H16D C30D 1_555 1_555
C31D C30D 1_555 1_555
H17D C31D 1_555 1_555
H18D C31D 1_555 1_555
C32D C31D 1_555 1_555
H19D C32D 1_555 1_555
H20D C32D 1_555 1_555
C33D C32D 1_555 1_555
H21D C33D 1_555 1_555
H22D C33D 1_555 1_555
C34D C33D 1_555 1_555
H23D C34D 1_555 1_555
H24D C34D 1_555 1_555
H25D C34D 1_555 1_555
C35D C20 1_555 1_555
C36D C16D 1_555 1_555
F1D C36D 1_555 1_555
F2D C36D 1_555 1_555
F3D C36D 1_555 1_555
C37D C18D 1_555 1_555
F4D C37D 1_555 1_555
F5D C37D 1_555 1_555
F6D C37D 1_555 1_555
C38D C23D 1_555 1_555
F7D C38D 1_555 1_555
F8D C38D 1_555 1_555
F9D C38D 1_555 1_555
C39D C25D 1_555 1_555
F10D C39D 1_555 1_555
F11D C39D 1_555 1_555
F12D C39D 1_555 1_555
C6 C7 1_555 1_555
C8 C13 1_555 1_555
C12 C13 1_555 1_555
C18 C19 1_555 1_555
C25 C26 1_555 1_555
C27 C35D 1_555 1_555
C6D C7D 1_555 1_555
C8D C13D 1_555 1_555
C10D C20D 1_555 1_555
C11D C27D 1_555 1_555
C12D C13D 1_555 1_555
C18D C19D 1_555 1_555
C25D C26D 1_555 1_555
C28D C35D 1_555 1_555

#END
