
#######################################################################
#
#                 Cambridge Crystallographic Data Centre
#                                CCDC 
#
#######################################################################
#
# If this CIF has been generated from an entry in the Cambridge 
# Structural Database, then it will include bibliographic, chemical, 
# crystal, experimental, refinement or atomic coordinate data resulting 
# from the CCDC's data processing and validation procedures.
#
#######################################################################

data_TAFYOO
_chemical_formula_moiety         'C29 H27 N1 O6'
_chemical_name_systematic        
'1,4,11,14,21,30-Hexaoxa(4)(1,3)benzeno(4)(1,2) benzeno(2)(2,6)pyridino(2)(1,2)benzenophane'
_symmetry_cell_setting           triclinic
_symmetry_space_group_name_H-M   'P -1'
_symmetry_Int_Tables_number      2
_space_group_name_Hall           '-P 1'
loop_
_symmetry_equiv_pos_site_id
_symmetry_equiv_pos_as_xyz
1 x,y,z
2 -x,-y,-z
_cell_length_a                   11.076(1)
_cell_length_b                   13.459(1)
_cell_length_c                   17.619(1)
_cell_angle_alpha                87.97(1)
_cell_angle_beta                 75.57(1)
_cell_angle_gamma                78.17(1)
_cell_volume                     2489.27
_exptl_crystal_colour            colorless
_cell_formula_units_Z            4
loop_
_atom_site_label
_atom_site_type_symbol
_atom_site_fract_x
_atom_site_fract_y
_atom_site_fract_z
N1 N 0.4291(3) 0.1825(2) 0.2230(2)
C1 C 0.4241(3) 0.2345(3) 0.2875(2)
C2 C 0.4585(4) 0.1700(3) 0.3529(2)
O1 O 0.4367(2) 0.2272(2) 0.4242(1)
C3 C 0.3617(4) 0.1889(3) 0.4898(2)
C4 C 0.2303(3) 0.2149(3) 0.5038(2)
O2 O 0.1855(2) 0.2735(2) 0.4485(1)
C5 C 0.0502(4) 0.3095(4) 0.4638(2)
C6 C 0.0261(4) 0.3598(4) 0.3903(2)
O3 O 0.0519(3) 0.4591(2) 0.3867(1)
C7 C 0.0587(4) 0.5076(4) 0.3163(2)
C8 C 0.0325(4) 0.4656(4) 0.2524(2)
C9 C 0.0509(4) 0.5193(4) 0.1826(2)
O4 O 0.0353(3) 0.4826(2) 0.1150(1)
C10 C 0.0066(4) 0.3843(4) 0.1149(2)
C11 C 0.0308(4) 0.3485(4) 0.0321(2)
O5 O 0.1648(3) 0.3278(3) -0.0008(2)
C12 C 0.2206(3) 0.2389(3) -0.0398(2)
C13 C 0.3268(4) 0.1889(3) -0.0216(2)
O6 O 0.3647(3) 0.2307(2) 0.0360(2)
C14 C 0.4081(4) 0.1711(3) 0.0917(2)
C15 C 0.4009(3) 0.2348(3) 0.1618(2)
C16 C 0.3658(3) 0.3388(3) 0.1618(2)
C17 C 0.3618(4) 0.3913(3) 0.2286(2)
C18 C 0.3903(3) 0.3388(3) 0.2926(2)
C19 C 0.4190(4) 0.1324(3) 0.5427(2)
C20 C 0.3437(6) 0.0985(4) 0.6085(3)
C21 C 0.2144(5) 0.1213(3) 0.6229(2)
C22 C 0.1559(4) 0.1803(3) 0.5701(2)
C23 C 0.0951(4) 0.6005(4) 0.3126(2)
C24 C 0.1086(4) 0.6518(4) 0.2429(2)
C25 C 0.0876(4) 0.6116(4) 0.1773(2)
C26 C 0.1790(4) 0.2013(4) -0.0985(3)
C27 C 0.2470(4) 0.1157(3) -0.1402(2)
C28 C 0.3531(5) 0.0673(4) -0.1223(3)
C29 C 0.3944(5) 0.1032(4) -0.0627(3)
H1 H 0.549(4) 0.141(3) 0.337(2)
H2 H 0.403(4) 0.116(3) 0.360(2)
H3 H 0.019(4) 0.351(3) 0.508(2)
H4 H 0.015(4) 0.244(3) 0.476(2)
H5 H -0.067(4) 0.363(3) 0.389(2)
H6 H 0.078(4) 0.320(3) 0.344(2)
H7 H -0.001(4) 0.406(3) 0.257(2)
H8 H -0.081(4) 0.381(3) 0.145(2)
H9 H 0.063(4) 0.328(3) 0.141(2)
H10 H -0.011(4) 0.407(3) 0.005(2)
H11 H -0.004(4) 0.287(3) 0.027(2)
H12 H 0.498(4) 0.139(3) 0.064(2)
H13 H 0.370(4) 0.116(3) 0.106(2)
H14 H 0.337(4) 0.379(3) 0.114(2)
H15 H 0.334(4) 0.472(3) 0.231(2)
H16 H 0.387(4) 0.371(3) 0.343(2)
H17 H 0.507(4) 0.123(3) 0.529(2)
H18 H 0.378(5) 0.062(4) 0.646(3)
H19 H 0.160(5) 0.090(4) 0.671(3)
H20 H 0.061(4) 0.201(3) 0.580(2)
H21 H 0.110(4) 0.627(3) 0.359(2)
H22 H 0.121(5) 0.724(4) 0.240(2)
H23 H 0.096(4) 0.650(3) 0.123(2)
H24 H 0.101(4) 0.239(3) -0.114(2)
H25 H 0.212(4) 0.094(3) -0.182(2)
H26 H 0.399(4) -0.002(4) -0.153(2)
H27 H 0.476(5) 0.072(4) -0.054(3)
N2 N 0.2022(3) 0.8358(2) 0.7149(2)
C30 C 0.1375(4) 0.8479(3) 0.7895(2)
C31 C 0.2179(4) 0.8231(3) 0.8471(2)
O7 O 0.1372(3) 0.8388(2) 0.9246(1)
C32 C 0.1998(5) 0.8268(3) 0.9838(2)
C33 C 0.2661(4) 0.7332(3) 0.9991(2)
O8 O 0.2634(2) 0.6531(2) 0.9543(2)
C34 C 0.3466(4) 0.5594(4) 0.9581(3)
C35 C 0.3258(4) 0.4882(4) 0.9012(3)
O9 O 0.3567(3) 0.5313(2) 0.8248(2)
C36 C 0.3309(4) 0.4852(3) 0.7644(3)
C37 C 0.3412(3) 0.5384(3) 0.6958(2)
C38 C 0.3179(4) 0.4962(3) 0.6322(3)
O10 O 0.3332(2) 0.5533(2) 0.5659(2)
C39 C 0.3149(4) 0.5138(3) 0.4967(3)
C40 C 0.3471(4) 0.5859(4) 0.4326(3)
O11 O 0.2571(2) 0.6809(2) 0.4523(2)
C41 C 0.2838(3) 0.7634(3) 0.4100(2)
C42 C 0.2246(4) 0.8585(3) 0.4456(2)
O12 O 0.1487(2) 0.8631(2) 0.5214(1)
C43 C 0.2238(4) 0.8408(3) 0.5781(2)
C44 C 0.1410(4) 0.8568(3) 0.6581(2)
C45 C 0.0110(5) 0.8865(6) 0.6748(3)
C46 C -0.0546(6) 0.8991(8) 0.7519(3)
C47 C 0.0082(5) 0.8775(6) 0.8110(3)
C48 C 0.1907(6) 0.9099(4) 1.0292(3)
C49 C 0.2511(7) 0.8982(5) 1.0913(3)
C50 C 0.3172(6) 0.8055(5) 1.1051(3)
C51 C 0.3258(5) 0.7214(4) 1.0612(3)
C52 C 0.2978(4) 0.3907(3) 0.7706(3)
C53 C 0.2753(5) 0.3502(4) 0.7060(3)
C54 C 0.2832(4) 0.4014(3) 0.6369(3)
C55 C 0.3649(4) 0.7590(4) 0.3353(2)
C56 C 0.3812(5) 0.8467(5) 0.2971(3)
C57 C 0.3197(5) 0.9405(5) 0.3296(2)
C58 C 0.2420(5) 0.9454(4) 0.4056(3)
H28 H 0.286(4) 0.863(3) 0.835(2)
H29 H 0.258(4) 0.744(3) 0.839(2)
H30 H 0.323(4) 0.531(3) 1.012(2)
H31 H 0.443(4) 0.561(3) 0.944(2)
H32 H 0.232(4) 0.477(4) 0.916(3)
H33 H 0.378(4) 0.423(4) 0.904(3)
H34 H 0.363(4) 0.607(3) 0.692(2)
H35 H 0.221(5) 0.511(4) 0.501(3)
H36 H 0.369(5) 0.437(4) 0.485(3)
H37 H 0.341(5) 0.561(4) 0.384(3)
H38 H 0.435(4) 0.600(4) 0.427(2)
H39 H 0.283(4) 0.883(3) 0.565(2)
H40 H 0.261(4) 0.763(3) 0.575(2)
H41 H -0.026(6) 0.904(5) 0.629(3)
H42 H -0.150(6) 0.882(5) 0.769(3)
H43 H -0.038(7) 0.887(6) 0.871(4)
H44 H 0.143(6) 0.979(5) 1.014(3)
H45 H 0.253(6) 0.956(5) 1.122(4)
H46 H 0.354(6) 0.794(5) 1.149(3)
H47 H 0.376(5) 0.654(4) 1.071(3)
H48 H 0.298(5) 0.346(4) 0.820(3)
H49 H 0.251(5) 0.277(4) 0.709(3)
H50 H 0.269(5) 0.372(4) 0.594(3)
H51 H 0.407(5) 0.693(4) 0.308(3)
H52 H 0.433(5) 0.842(4) 0.251(3)
H53 H 0.324(5) 1.000(4) 0.302(3)
H54 H 0.191(5) 1.015(4) 0.428(3)
loop_
_geom_bond_atom_site_label_1
_geom_bond_atom_site_label_2
_geom_bond_site_symmetry_1
_geom_bond_site_symmetry_2
N1 C1 1_555 1_555
C1 C2 1_555 1_555
C2 O1 1_555 1_555
O1 C3 1_555 1_555
C3 C4 1_555 1_555
C4 O2 1_555 1_555
O2 C5 1_555 1_555
C5 C6 1_555 1_555
C6 O3 1_555 1_555
O3 C7 1_555 1_555
C7 C8 1_555 1_555
C8 C9 1_555 1_555
C9 O4 1_555 1_555
O4 C10 1_555 1_555
C10 C11 1_555 1_555
C11 O5 1_555 1_555
O5 C12 1_555 1_555
C12 C13 1_555 1_555
C13 O6 1_555 1_555
O6 C14 1_555 1_555
C14 C15 1_555 1_555
C15 N1 1_555 1_555
C16 C15 1_555 1_555
C17 C16 1_555 1_555
C18 C1 1_555 1_555
C19 C3 1_555 1_555
C20 C19 1_555 1_555
C21 C20 1_555 1_555
C22 C4 1_555 1_555
C23 C7 1_555 1_555
C24 C23 1_555 1_555
C25 C9 1_555 1_555
C26 C12 1_555 1_555
C27 C26 1_555 1_555
C28 C27 1_555 1_555
C29 C13 1_555 1_555
N2 C30 1_555 1_555
C30 C31 1_555 1_555
C31 O7 1_555 1_555
O7 C32 1_555 1_555
C32 C33 1_555 1_555
C33 O8 1_555 1_555
O8 C34 1_555 1_555
C34 C35 1_555 1_555
C35 O9 1_555 1_555
O9 C36 1_555 1_555
C36 C37 1_555 1_555
C37 C38 1_555 1_555
C38 O10 1_555 1_555
O10 C39 1_555 1_555
C39 C40 1_555 1_555
C40 O11 1_555 1_555
O11 C41 1_555 1_555
C41 C42 1_555 1_555
C42 O12 1_555 1_555
O12 C43 1_555 1_555
C43 C44 1_555 1_555
C44 N2 1_555 1_555
C45 C44 1_555 1_555
C46 C45 1_555 1_555
C47 C30 1_555 1_555
C48 C32 1_555 1_555
C49 C48 1_555 1_555
C50 C49 1_555 1_555
C51 C33 1_555 1_555
C52 C36 1_555 1_555
C53 C52 1_555 1_555
C54 C38 1_555 1_555
C55 C41 1_555 1_555
C56 C55 1_555 1_555
C57 C56 1_555 1_555
C58 C42 1_555 1_555
H1 C2 1_555 1_555
H2 C2 1_555 1_555
H3 C5 1_555 1_555
H4 C5 1_555 1_555
H5 C6 1_555 1_555
H6 C6 1_555 1_555
H7 C8 1_555 1_555
H8 C10 1_555 1_555
H9 C10 1_555 1_555
H10 C11 1_555 1_555
H11 C11 1_555 1_555
H12 C14 1_555 1_555
H13 C14 1_555 1_555
H14 C16 1_555 1_555
H15 C17 1_555 1_555
H16 C18 1_555 1_555
H17 C19 1_555 1_555
H18 C20 1_555 1_555
H19 C21 1_555 1_555
H20 C22 1_555 1_555
H21 C23 1_555 1_555
H22 C24 1_555 1_555
H23 C25 1_555 1_555
H24 C26 1_555 1_555
H25 C27 1_555 1_555
H26 C28 1_555 1_555
H27 C29 1_555 1_555
H28 C31 1_555 1_555
H29 C31 1_555 1_555
H30 C34 1_555 1_555
H31 C34 1_555 1_555
H32 C35 1_555 1_555
H33 C35 1_555 1_555
H34 C37 1_555 1_555
H35 C39 1_555 1_555
H36 C39 1_555 1_555
H37 C40 1_555 1_555
H38 C40 1_555 1_555
H39 C43 1_555 1_555
H40 C43 1_555 1_555
H41 C45 1_555 1_555
H42 C46 1_555 1_555
H43 C47 1_555 1_555
H44 C48 1_555 1_555
H45 C49 1_555 1_555
H46 C50 1_555 1_555
H47 C51 1_555 1_555
H48 C52 1_555 1_555
H49 C53 1_555 1_555
H50 C54 1_555 1_555
H51 C55 1_555 1_555
H52 C56 1_555 1_555
H53 C57 1_555 1_555
H54 C58 1_555 1_555
C17 C18 1_555 1_555
C21 C22 1_555 1_555
C24 C25 1_555 1_555
C28 C29 1_555 1_555
C46 C47 1_555 1_555
C50 C51 1_555 1_555
C53 C54 1_555 1_555
C57 C58 1_555 1_555

#END
