
#######################################################################
#
#                 Cambridge Crystallographic Data Centre
#                                CCDC 
#
#######################################################################
#
# If this CIF has been generated from an entry in the Cambridge 
# Structural Database, then it will include bibliographic, chemical, 
# crystal, experimental, refinement or atomic coordinate data resulting 
# from the CCDC's data processing and validation procedures.
#
#######################################################################

data_TAGFEM
_chemical_formula_moiety         'C20 H40 Cs1 O10'
_chemical_name_systematic        'bis(15-Crown-5)-cesium electride'
_symmetry_cell_setting           triclinic
_symmetry_space_group_name_H-M   'P -1'
_symmetry_Int_Tables_number      2
_space_group_name_Hall           '-P 1'
loop_
_symmetry_equiv_pos_site_id
_symmetry_equiv_pos_as_xyz
1 x,y,z
2 -x,-y,-z
_cell_length_a                   8.597(4)
_cell_length_b                   8.886(8)
_cell_length_c                   9.941(9)
_cell_angle_alpha                102.91(8)
_cell_angle_beta                 90.06(6)
_cell_angle_gamma                97.74(6)
_cell_volume                     733.101
_exptl_crystal_colour            dark-grey
_cell_formula_units_Z            1
loop_
_atom_site_label
_atom_site_type_symbol
_atom_site_fract_x
_atom_site_fract_y
_atom_site_fract_z
Cs1 Cs 0.0000 0.0000 0.0000
O1 O -0.1628(2) 0.1501(2) -0.2024(2)
O2 O 0.1277(2) 0.3223(2) -0.0605(2)
O3 O 0.3425(2) 0.0926(2) -0.1024(2)
O4 O 0.1964(2) -0.2271(2) -0.1862(2)
O5 O -0.0214(2) -0.1137(2) -0.3396(2)
C1 C -0.1210(4) 0.3157(3) -0.1679(4)
C2 C 0.0534(4) 0.3647(4) -0.1708(4)
C3 C 0.2960(4) 0.3554(4) -0.0546(4)
C4 C 0.3732(4) 0.2348(4) -0.1472(4)
C5 C 0.4166(4) -0.0252(4) -0.1883(4)
C6 C 0.3594(4) -0.1789(4) -0.1552(4)
C7 C 0.1594(4) -0.2887(3) -0.3299(3)
C8 C -0.0081(4) -0.2742(3) -0.3558(3)
C9 C -0.1754(4) -0.0879(4) -0.3700(3)
C10 C -0.1766(4) 0.0840(4) -0.3469(3)
H1 H -0.160(3) 0.349(3) -0.066(3)
H2 H -0.178(4) 0.357(4) -0.236(3)
H3 H 0.092(4) 0.314(4) -0.263(3)
H4 H 0.072(4) 0.479(4) -0.157(4)
H5 H 0.338(4) 0.347(4) 0.045(3)
H6 H 0.325(4) 0.457(4) -0.092(3)
H7 H 0.326(4) 0.227(4) -0.246(4)
H8 H 0.493(4) 0.274(4) -0.138(4)
H9 H 0.535(4) -0.006(4) -0.167(3)
H10 H 0.392(3) -0.020(3) -0.286(3)
H11 H 0.420(4) -0.261(4) -0.203(3)
H12 H 0.375(4) -0.169(3) -0.049(3)
H13 H 0.182(4) -0.396(4) -0.354(3)
H14 H 0.230(3) -0.229(3) -0.385(3)
H15 H -0.037(4) -0.326(4) -0.452(3)
H16 H -0.081(4) -0.320(4) -0.291(3)
H17 H -0.250(4) -0.133(4) -0.314(3)
H18 H -0.204(4) -0.134(4) -0.461(3)
H19 H -0.090(4) 0.129(3) -0.393(3)
H20 H -0.282(4) 0.109(4) -0.382(3)
O1A O 0.1628(2) -0.1501(2) 0.2024(2)
O2A O -0.1277(2) -0.3223(2) 0.0605(2)
O3A O -0.3425(2) -0.0926(2) 0.1024(2)
O4A O -0.1964(2) 0.2271(2) 0.1862(2)
O5A O 0.0214(2) 0.1137(2) 0.3396(2)
C1A C 0.1210(4) -0.3157(3) 0.1679(4)
C10A C 0.1766(4) -0.0840(4) 0.3469(3)
C2A C -0.0534(4) -0.3647(4) 0.1708(4)
C3A C -0.2960(4) -0.3554(4) 0.0546(4)
C4A C -0.3732(4) -0.2348(4) 0.1472(4)
C5A C -0.4166(4) 0.0252(4) 0.1883(4)
C6A C -0.3594(4) 0.1789(4) 0.1552(4)
C7A C -0.1594(4) 0.2887(3) 0.3299(3)
C8A C 0.0081(4) 0.2742(3) 0.3558(3)
C9A C 0.1754(4) 0.0879(4) 0.3700(3)
H1A H 0.160(3) -0.349(3) 0.066(3)
H2A H 0.178(4) -0.357(4) 0.236(3)
H19A H 0.090(4) -0.129(3) 0.393(3)
H20A H 0.282(4) -0.109(4) 0.382(3)
H3A H -0.092(4) -0.314(4) 0.263(3)
H4A H -0.072(4) -0.479(4) 0.157(4)
H5A H -0.338(4) -0.347(4) -0.045(3)
H6A H -0.325(4) -0.457(4) 0.092(3)
H7A H -0.326(4) -0.227(4) 0.246(4)
H8A H -0.493(4) -0.274(4) 0.138(4)
H9A H -0.535(4) 0.006(4) 0.167(3)
H10A H -0.392(3) 0.020(3) 0.286(3)
H11A H -0.420(4) 0.261(4) 0.203(3)
H12A H -0.375(4) 0.169(3) 0.049(3)
H13A H -0.182(4) 0.396(4) 0.354(3)
H14A H -0.230(3) 0.229(3) 0.385(3)
H15A H 0.037(4) 0.326(4) 0.452(3)
H16A H 0.081(4) 0.320(4) 0.291(3)
H17A H 0.250(4) 0.133(4) 0.314(3)
H18A H 0.204(4) 0.134(4) 0.461(3)
loop_
_geom_bond_atom_site_label_1
_geom_bond_atom_site_label_2
_geom_bond_site_symmetry_1
_geom_bond_site_symmetry_2
Cs1 O1 1_555 1_555
O1 C1 1_555 1_555
O2 Cs1 1_555 1_555
O3 Cs1 1_555 1_555
O4 Cs1 1_555 1_555
O5 Cs1 1_555 1_555
C1 C2 1_555 1_555
C2 O2 1_555 1_555
C3 O2 1_555 1_555
C4 O3 1_555 1_555
C5 O3 1_555 1_555
C6 O4 1_555 1_555
C7 O4 1_555 1_555
C8 O5 1_555 1_555
C9 O5 1_555 1_555
C10 O1 1_555 1_555
H1 C1 1_555 1_555
H2 C1 1_555 1_555
H3 C2 1_555 1_555
H4 C2 1_555 1_555
H5 C3 1_555 1_555
H6 C3 1_555 1_555
H7 C4 1_555 1_555
H8 C4 1_555 1_555
H9 C5 1_555 1_555
H10 C5 1_555 1_555
H11 C6 1_555 1_555
H12 C6 1_555 1_555
H13 C7 1_555 1_555
H14 C7 1_555 1_555
H15 C8 1_555 1_555
H16 C8 1_555 1_555
H17 C9 1_555 1_555
H18 C9 1_555 1_555
H19 C10 1_555 1_555
H20 C10 1_555 1_555
O1A Cs1 1_555 1_555
O2A Cs1 1_555 1_555
O3A Cs1 1_555 1_555
O4A Cs1 1_555 1_555
O5A Cs1 1_555 1_555
C1A O1A 1_555 1_555
C10A O1A 1_555 1_555
C2A O2A 1_555 1_555
C3A O2A 1_555 1_555
C4A O3A 1_555 1_555
C5A O3A 1_555 1_555
C6A O4A 1_555 1_555
C7A O4A 1_555 1_555
C8A O5A 1_555 1_555
C9A O5A 1_555 1_555
H1A C1A 1_555 1_555
H2A C1A 1_555 1_555
H19A C10A 1_555 1_555
H20A C10A 1_555 1_555
H3A C2A 1_555 1_555
H4A C2A 1_555 1_555
H5A C3A 1_555 1_555
H6A C3A 1_555 1_555
H7A C4A 1_555 1_555
H8A C4A 1_555 1_555
H9A C5A 1_555 1_555
H10A C5A 1_555 1_555
H11A C6A 1_555 1_555
H12A C6A 1_555 1_555
H13A C7A 1_555 1_555
H14A C7A 1_555 1_555
H15A C8A 1_555 1_555
H16A C8A 1_555 1_555
H17A C9A 1_555 1_555
H18A C9A 1_555 1_555
C3 C4 1_555 1_555
C5 C6 1_555 1_555
C7 C8 1_555 1_555
C9 C10 1_555 1_555
C1A C2A 1_555 1_555
C10A C9A 1_555 1_555
C3A C4A 1_555 1_555
C5A C6A 1_555 1_555
C7A C8A 1_555 1_555

#END
