
#######################################################################
#
#                 Cambridge Crystallographic Data Centre
#                                CCDC 
#
#######################################################################
#
# If this CIF has been generated from an entry in the Cambridge 
# Structural Database, then it will include bibliographic, chemical, 
# crystal, experimental, refinement or atomic coordinate data resulting 
# from the CCDC's data processing and validation procedures.
#
#######################################################################

data_TAGGIU
_chemical_formula_moiety         'C29 H34 O5 S1'
_chemical_name_systematic        
'2,3-dimethoxy-9-(4-methoxyphenyl)-5,5-dimethyl-8-((4-methylphenyl)sulfonyl)-6,7,8,9-tetrahydro-5H-benzo[7]annulene unknown solvate'
_symmetry_cell_setting           monoclinic
_symmetry_space_group_name_H-M   'P 21/c'
_symmetry_Int_Tables_number      14
_space_group_name_Hall           '-P 2ybc'
loop_
_symmetry_equiv_pos_site_id
_symmetry_equiv_pos_as_xyz
1 x,y,z
2 -x,1/2+y,1/2-z
3 -x,-y,-z
4 x,1/2-y,1/2+z
_cell_length_a                   10.4874(8)
_cell_length_b                   11.6664(8)
_cell_length_c                   24.139(2)
_cell_angle_alpha                90
_cell_angle_beta                 90.051(5)
_cell_angle_gamma                90
_cell_volume                     2953.41
_exptl_crystal_colour            colorless
_cell_formula_units_Z            4
loop_
_atom_site_label
_atom_site_type_symbol
_atom_site_fract_x
_atom_site_fract_y
_atom_site_fract_z
S1 S 0.34247(9) 0.66533(9) 0.34418(4)
O1 O 0.2112(2) 0.0581(2) 0.28645(11)
O2 O 0.0276(2) 0.2066(2) 0.28766(10)
O3 O 0.0853(2) 0.4712(3) 0.62626(10)
O4 O 0.2351(2) 0.7330(3) 0.36229(13)
O5 O 0.3328(3) 0.6083(3) 0.29172(10)
C1 C 0.2343(3) 0.1551(3) 0.31630(13)
C2 C 0.1351(3) 0.2367(3) 0.31614(13)
C3 C 0.1549(3) 0.3377(3) 0.34386(12)
H1 H 0.0899 0.3919 0.3435
C4 C 0.2677(3) 0.3642(3) 0.37295(11)
C5 C 0.2606(3) 0.4800(3) 0.40261(12)
H2 H 0.1912 0.5203 0.3836
C6 C 0.3763(3) 0.5631(3) 0.39740(12)
H3 H 0.3817 0.6057 0.4323
C7 C 0.5045(3) 0.5062(3) 0.38867(16)
H4 H 0.5719 0.5620 0.3941
H5 H 0.5100 0.4780 0.3509
C8 C 0.5230(3) 0.4069(3) 0.42888(14)
H6 H 0.6102 0.4080 0.4423
H7 H 0.4673 0.4180 0.4605
C9 C 0.4957(3) 0.2902(3) 0.40357(13)
C10 C 0.3651(3) 0.2824(3) 0.37364(12)
C11 C 0.3433(3) 0.1793(3) 0.34489(13)
H8 H 0.4073 0.1242 0.3454
C12 C 0.3142(4) -0.0178(4) 0.2783(2)
H9 H 0.3843 0.0228 0.2620
H10 H 0.2882 -0.0788 0.2541
H11 H 0.3400 -0.0493 0.3133
C13 C -0.0696(3) 0.2907(4) 0.28216(19)
H12 H -0.0996 0.3125 0.3182
H13 H -0.1391 0.2597 0.2610
H14 H -0.0359 0.3568 0.2635
C14 C 0.2148(3) 0.4718(3) 0.46272(12)
C15 C 0.2131(3) 0.3710(3) 0.49269(13)
H15 H 0.2409 0.3039 0.4758
C16 C 0.1712(3) 0.3663(3) 0.54733(14)
H16 H 0.1723 0.2975 0.5667
C17 C 0.1282(3) 0.4648(3) 0.57225(13)
C18 C 0.1255(3) 0.5664(3) 0.54304(13)
H17 H 0.0951 0.6328 0.5598
C19 C 0.1680(3) 0.5694(3) 0.48903(13)
H18 H 0.1653 0.6383 0.4697
C20 C 0.0847(4) 0.3693(4) 0.65817(16)
H19 H 0.0292 0.3141 0.6412
H20 H 0.0550 0.3860 0.6949
H21 H 0.1696 0.3387 0.6601
C21 C 0.5042(3) 0.1996(4) 0.44988(15)
H22 H 0.4412 0.2157 0.4776
H23 H 0.5876 0.2018 0.4663
H24 H 0.4891 0.1249 0.4345
C22 C 0.6052(3) 0.2651(4) 0.36190(16)
H25 H 0.5981 0.1876 0.3488
H26 H 0.6859 0.2751 0.3800
H27 H 0.5992 0.3170 0.3311
C23 C 0.4773(3) 0.7558(3) 0.34191(13)
C24 C 0.5145(4) 0.8188(4) 0.38771(16)
H28 H 0.4699 0.8124 0.4209
C25 C 0.6183(4) 0.8913(4) 0.38387(17)
H29 H 0.6441 0.9326 0.4149
C26 C 0.6849(3) 0.9036(4) 0.33444(19)
C27 C 0.6449(4) 0.8424(4) 0.28951(18)
H30 H 0.6868 0.8520 0.2559
C28 C 0.5436(4) 0.7665(4) 0.29260(15)
H31 H 0.5203 0.7232 0.2619
C29 C 0.7993(4) 0.9823(4) 0.3309(2)
H32 H 0.8757 0.9373 0.3282
H33 H 0.8032 1.0293 0.3636
H34 H 0.7916 1.0304 0.2988
loop_
_geom_bond_atom_site_label_1
_geom_bond_atom_site_label_2
_geom_bond_site_symmetry_1
_geom_bond_site_symmetry_2
S1 O4 1_555 1_555
O1 C1 1_555 1_555
O2 C2 1_555 1_555
O3 C17 1_555 1_555
O5 S1 1_555 1_555
C1 C2 1_555 1_555
C2 C3 1_555 1_555
C3 H1 1_555 1_555
C4 C3 1_555 1_555
C5 C4 1_555 1_555
H2 C5 1_555 1_555
C6 S1 1_555 1_555
H3 C6 1_555 1_555
C7 C6 1_555 1_555
H4 C7 1_555 1_555
H5 C7 1_555 1_555
C8 C7 1_555 1_555
H6 C8 1_555 1_555
H7 C8 1_555 1_555
C9 C8 1_555 1_555
C10 C4 1_555 1_555
C11 C1 1_555 1_555
H8 C11 1_555 1_555
C12 O1 1_555 1_555
H9 C12 1_555 1_555
H10 C12 1_555 1_555
H11 C12 1_555 1_555
C13 O2 1_555 1_555
H12 C13 1_555 1_555
H13 C13 1_555 1_555
H14 C13 1_555 1_555
C14 C5 1_555 1_555
C15 C14 1_555 1_555
H15 C15 1_555 1_555
C16 C15 1_555 1_555
H16 C16 1_555 1_555
C17 C16 1_555 1_555
C18 C17 1_555 1_555
H17 C18 1_555 1_555
C19 C14 1_555 1_555
H18 C19 1_555 1_555
C20 O3 1_555 1_555
H19 C20 1_555 1_555
H20 C20 1_555 1_555
H21 C20 1_555 1_555
C21 C9 1_555 1_555
H22 C21 1_555 1_555
H23 C21 1_555 1_555
H24 C21 1_555 1_555
C22 C9 1_555 1_555
H25 C22 1_555 1_555
H26 C22 1_555 1_555
H27 C22 1_555 1_555
C23 S1 1_555 1_555
C24 C23 1_555 1_555
H28 C24 1_555 1_555
C25 C24 1_555 1_555
H29 C25 1_555 1_555
C26 C25 1_555 1_555
C27 C26 1_555 1_555
H30 C27 1_555 1_555
C28 C23 1_555 1_555
H31 C28 1_555 1_555
C29 C26 1_555 1_555
H32 C29 1_555 1_555
H33 C29 1_555 1_555
H34 C29 1_555 1_555
C5 C6 1_555 1_555
C9 C10 1_555 1_555
C10 C11 1_555 1_555
C18 C19 1_555 1_555
C27 C28 1_555 1_555

#END
