
#######################################################################
#
#                 Cambridge Crystallographic Data Centre
#                                CCDC 
#
#######################################################################
#
# If this CIF has been generated from an entry in the Cambridge 
# Structural Database, then it will include bibliographic, chemical, 
# crystal, experimental, refinement or atomic coordinate data resulting 
# from the CCDC's data processing and validation procedures.
#
#######################################################################

data_TAGGEQ
_chemical_formula_moiety         'C28 H32 O4 S1'
_chemical_name_systematic        
2,3-dimethoxy-5,5-dimethyl-8-((4-methylphenyl)sulfonyl)-9-phenyl-6,7,8,9-tetrahydro-5H-benzo[7]annulene
_symmetry_cell_setting           orthorhombic
_symmetry_space_group_name_H-M   'P 21 21 21'
_symmetry_Int_Tables_number      19
_space_group_name_Hall           'P 2ac 2ab'
loop_
_symmetry_equiv_pos_site_id
_symmetry_equiv_pos_as_xyz
1 x,y,z
2 1/2+x,1/2-y,-z
3 -x,1/2+y,1/2-z
4 1/2-x,-y,1/2+z
_cell_length_a                   9.4078(8)
_cell_length_b                   9.4698(8)
_cell_length_c                   26.640(2)
_cell_angle_alpha                90
_cell_angle_beta                 90
_cell_angle_gamma                90
_cell_volume                     2373.36
_exptl_crystal_colour            colorless
_cell_formula_units_Z            4
loop_
_atom_site_label
_atom_site_type_symbol
_atom_site_fract_x
_atom_site_fract_y
_atom_site_fract_z
S1 S 0.48698(6) 0.43873(6) 0.92724(2)
O1 O -0.14104(19) 0.87175(18) 0.86509(7)
O2 O 0.3930(2) 0.51531(18) 0.96022(6)
O3 O 0.12311(19) 0.98704(17) 0.88357(6)
O4 O 0.62594(19) 0.49742(19) 0.91658(7)
C1 C 0.5625(3) -0.1563(3) 1.00704(12)
H1 H 0.6304 -0.1555 1.0349
H2 H 0.5985 -0.2171 0.9801
H3 H 0.4708 -0.1927 1.0188
C2 C 0.5434(3) -0.0081(3) 0.98739(9)
C3 C 0.4281(3) 0.0738(3) 1.00187(9)
H4 H 0.3597 0.0357 1.0243
C4 C 0.4113(3) 0.2101(3) 0.98413(9)
H5 H 0.3316 0.2649 0.9942
C5 C 0.5114(3) 0.2664(2) 0.95151(8)
C6 C 0.3998(2) 0.4105(2) 0.86808(8)
H6 H 0.4676 0.3572 0.8462
C7 C 0.3740(2) 0.5573(3) 0.84257(8)
H7 H 0.4402 0.6235 0.8601
C8 C 0.2255(3) 0.6216(2) 0.85004(9)
C9 C 0.0919(2) 0.5612(3) 0.83901(8)
C10 C -0.0286(3) 0.6467(2) 0.84487(9)
H8 H -0.1190 0.6061 0.8382
C11 C -0.0240(3) 0.7869(2) 0.85974(8)
C12 C -0.2754(3) 0.8063(3) 0.85560(11)
H9 H -0.2805 0.7773 0.8203
H10 H -0.3520 0.8735 0.8628
H11 H -0.2859 0.7231 0.8772
C13 C 0.2671(3) 0.3193(2) 0.87386(9)
H12 H 0.2034 0.3610 0.8995
H13 H 0.2942 0.2234 0.8851
C14 C 0.1898(3) 0.3108(3) 0.82321(9)
H14 H 0.2572 0.3352 0.7960
H15 H 0.1577 0.2125 0.8176
C15 C 0.0611(2) 0.4096(2) 0.82025(9)
C16 C 0.1096(3) 0.8464(2) 0.87058(9)
C17 C 0.0776(3) 1.0176(3) 0.93379(9)
H16 H -0.0210 0.9864 0.9382
H17 H 0.0838 1.1195 0.9398
H18 H 0.1388 0.9677 0.9577
C18 C 0.2286(3) 0.7633(2) 0.86577(9)
H19 H 0.3182 0.8041 0.8735
C19 C 0.4229(2) 0.5575(3) 0.78759(8)
C20 C 0.5575(3) 0.5056(3) 0.77500(9)
H20 H 0.6172 0.4684 0.8006
C21 C 0.6051(3) 0.5075(3) 0.72580(10)
H21 H 0.6964 0.4708 0.7179
C22 C 0.5205(3) 0.5626(3) 0.68800(9)
H22 H 0.5525 0.5625 0.6542
C23 C 0.3884(3) 0.6180(3) 0.70029(9)
H23 H 0.3303 0.6572 0.6747
C24 C 0.3404(3) 0.6167(3) 0.74939(9)
H24 H 0.2504 0.6565 0.7572
C25 C 0.0086(3) 0.4146(3) 0.76533(9)
H25 H 0.0837 0.4533 0.7439
H26 H -0.0759 0.4747 0.7632
H27 H -0.0152 0.3189 0.7541
C26 C -0.0577(3) 0.3418(3) 0.85270(10)
H28 H -0.0709 0.2431 0.8427
H29 H -0.1468 0.3936 0.8477
H30 H -0.0306 0.3458 0.8882
C27 C 0.6287(3) 0.1871(3) 0.93654(9)
H31 H 0.6974 0.2259 0.9143
C28 C 0.6434(3) 0.0505(3) 0.95465(9)
H32 H 0.7230 -0.0043 0.9446
loop_
_geom_bond_atom_site_label_1
_geom_bond_atom_site_label_2
_geom_bond_site_symmetry_1
_geom_bond_site_symmetry_2
S1 O2 1_555 1_555
O1 C11 1_555 1_555
O3 C16 1_555 1_555
O4 S1 1_555 1_555
C1 H1 1_555 1_555
H2 C1 1_555 1_555
H3 C1 1_555 1_555
C2 C1 1_555 1_555
C3 C2 1_555 1_555
H4 C3 1_555 1_555
C4 C3 1_555 1_555
H5 C4 1_555 1_555
C5 S1 1_555 1_555
C6 S1 1_555 1_555
H6 C6 1_555 1_555
C7 C6 1_555 1_555
H7 C7 1_555 1_555
C8 C7 1_555 1_555
C9 C8 1_555 1_555
C10 C9 1_555 1_555
H8 C10 1_555 1_555
C11 C10 1_555 1_555
C12 O1 1_555 1_555
H9 C12 1_555 1_555
H10 C12 1_555 1_555
H11 C12 1_555 1_555
C13 C6 1_555 1_555
H12 C13 1_555 1_555
H13 C13 1_555 1_555
C14 C13 1_555 1_555
H14 C14 1_555 1_555
H15 C14 1_555 1_555
C15 C9 1_555 1_555
C16 C11 1_555 1_555
C17 O3 1_555 1_555
H16 C17 1_555 1_555
H17 C17 1_555 1_555
H18 C17 1_555 1_555
C18 C8 1_555 1_555
H19 C18 1_555 1_555
C19 C7 1_555 1_555
C20 C19 1_555 1_555
H20 C20 1_555 1_555
C21 C20 1_555 1_555
H21 C21 1_555 1_555
C22 C21 1_555 1_555
H22 C22 1_555 1_555
C23 C22 1_555 1_555
H23 C23 1_555 1_555
C24 C19 1_555 1_555
H24 C24 1_555 1_555
C25 C15 1_555 1_555
H25 C25 1_555 1_555
H26 C25 1_555 1_555
H27 C25 1_555 1_555
C26 C15 1_555 1_555
H28 C26 1_555 1_555
H29 C26 1_555 1_555
H30 C26 1_555 1_555
C27 C5 1_555 1_555
H31 C27 1_555 1_555
C28 C2 1_555 1_555
H32 C28 1_555 1_555
C4 C5 1_555 1_555
C14 C15 1_555 1_555
C16 C18 1_555 1_555
C23 C24 1_555 1_555
C27 C28 1_555 1_555

#END
