
#######################################################################
#
#                 Cambridge Crystallographic Data Centre
#                                CCDC 
#
#######################################################################
#
# If this CIF has been generated from an entry in the Cambridge 
# Structural Database, then it will include bibliographic, chemical, 
# crystal, experimental, refinement or atomic coordinate data resulting 
# from the CCDC's data processing and validation procedures.
#
#######################################################################

data_TAGGOA
_chemical_formula_moiety         'C19 H19 F3 O3 S1'
_chemical_name_systematic        
5-methyl-3-((4-methylphenyl)sulfonyl)-2-(4-(trifluoromethyl)phenyl)tetrahydrofuran
_symmetry_cell_setting           orthorhombic
_symmetry_space_group_name_H-M   'P 21 21 21'
_symmetry_Int_Tables_number      19
_space_group_name_Hall           'P 2ac 2ab'
loop_
_symmetry_equiv_pos_site_id
_symmetry_equiv_pos_as_xyz
1 x,y,z
2 1/2-x,-y,1/2+z
3 -x,1/2+y,1/2-z
4 1/2+x,1/2-y,-z
_cell_length_a                   5.6186(6)
_cell_length_b                   8.3590(8)
_cell_length_c                   37.132(3)
_cell_angle_alpha                90
_cell_angle_beta                 90
_cell_angle_gamma                90
_cell_volume                     1743.94
_exptl_crystal_colour            colorless
_cell_formula_units_Z            4
loop_
_atom_site_label
_atom_site_type_symbol
_atom_site_fract_x
_atom_site_fract_y
_atom_site_fract_z
C1 C 0.705(3) 0.7110(19) 0.2664(5)
F1 F 0.535(2) 0.6104(17) 0.2569(3)
F2 F 0.911(2) 0.6414(19) 0.2612(3)
F3 F 0.694(2) 0.8218(11) 0.24184(18)
C2 C 0.6669(7) 0.7719(4) 0.30406(8)
C3 C 0.4597(7) 0.8517(4) 0.31280(9)
H1 H 0.3411 0.8693 0.2950
C4 C 0.4255(7) 0.9061(4) 0.34783(8)
H2 H 0.2822 0.9598 0.3541
C5 C 0.5997(7) 0.8824(3) 0.37366(8)
C6 C 0.8104(7) 0.8057(4) 0.36445(9)
H3 H 0.9318 0.7925 0.3820
C7 C 0.8449(7) 0.7481(4) 0.32977(9)
H4 H 0.9874 0.6934 0.3236
C8 C 0.5704(7) 0.9445(4) 0.41177(8)
H5 H 0.6959 1.0277 0.4155
C9 C 0.5891(6) 0.8268(3) 0.44362(8)
H6 H 0.7598 0.8042 0.4493
C10 C 0.4767(6) 0.9298(4) 0.47347(8)
H7 H 0.4060 0.8617 0.4925
H8 H 0.5965 1.0014 0.4845
C11 C 0.2837(7) 1.0265(4) 0.45390(9)
H9 H 0.1264 0.9727 0.4573
C12 C 0.2657(8) 1.1963(4) 0.46634(9)
H10 H 0.4161 1.2516 0.4616
H11 H 0.2324 1.1985 0.4922
H12 H 0.1365 1.2500 0.4534
C13 C 0.5429(6) 0.5205(4) 0.40738(8)
C14 C 0.7558(6) 0.4409(4) 0.41366(9)
H13 H 0.8356 0.4524 0.4361
C15 C 0.8505(6) 0.3445(4) 0.38698(8)
H14 H 0.9949 0.2887 0.3914
C16 C 0.7375(7) 0.3279(4) 0.35381(9)
C17 C 0.5201(6) 0.4053(4) 0.34850(9)
H15 H 0.4384 0.3919 0.3263
C18 C 0.4211(7) 0.5018(4) 0.37506(8)
H16 H 0.2730 0.5539 0.3712
C19 C 0.8476(8) 0.2300(4) 0.32421(10)
H17 H 0.7565 0.1310 0.3210
H18 H 1.0122 0.2036 0.3306
H19 H 0.8460 0.2914 0.3017
O1 O 0.3469(5) 1.0220(3) 0.41590(6)
O2 O 0.1780(4) 0.6785(3) 0.43221(6)
O3 O 0.4688(5) 0.5655(3) 0.47561(6)
S1 S 0.42186(16) 0.64311(9) 0.44162(2)
C20? C 0.706(3) 0.717(2) 0.2668(6)
F4? F 0.5106(18) 0.7053(17) 0.2472(2)
F5? F 0.800(3) 0.5733(11) 0.2645(3)
F6? F 0.841(3) 0.8165(15) 0.2484(3)
loop_
_geom_bond_atom_site_label_1
_geom_bond_atom_site_label_2
_geom_bond_site_symmetry_1
_geom_bond_site_symmetry_2
C1 F1 1_555 1_555
F2 C1 1_555 1_555
F3 C1 1_555 1_555
C2 C1 1_555 1_555
C3 C2 1_555 1_555
H1 C3 1_555 1_555
C4 C3 1_555 1_555
H2 C4 1_555 1_555
C5 C4 1_555 1_555
C6 C5 1_555 1_555
H3 C6 1_555 1_555
C7 C2 1_555 1_555
H4 C7 1_555 1_555
C8 C5 1_555 1_555
H5 C8 1_555 1_555
C9 C8 1_555 1_555
H6 C9 1_555 1_555
C10 C9 1_555 1_555
H7 C10 1_555 1_555
H8 C10 1_555 1_555
C11 C10 1_555 1_555
H9 C11 1_555 1_555
C12 C11 1_555 1_555
H10 C12 1_555 1_555
H11 C12 1_555 1_555
H12 C12 1_555 1_555
C13 C14 1_555 1_555
C14 H13 1_555 1_555
C15 C14 1_555 1_555
H14 C15 1_555 1_555
C16 C15 1_555 1_555
C17 C16 1_555 1_555
H15 C17 1_555 1_555
C18 C13 1_555 1_555
H16 C18 1_555 1_555
C19 C16 1_555 1_555
H17 C19 1_555 1_555
H18 C19 1_555 1_555
H19 C19 1_555 1_555
O1 C8 1_555 1_555
O2 S1 1_555 1_555
O3 S1 1_555 1_555
S1 C9 1_555 1_555
C6 C7 1_555 1_555
C11 O1 1_555 1_555
C13 S1 1_555 1_555
C17 C18 1_555 1_555

#END
