
#######################################################################
#
#                 Cambridge Crystallographic Data Centre
#                                CCDC 
#
#######################################################################
#
# If this CIF has been generated from an entry in the Cambridge 
# Structural Database, then it will include bibliographic, chemical, 
# crystal, experimental, refinement or atomic coordinate data resulting 
# from the CCDC's data processing and validation procedures.
#
#######################################################################

data_TAGHER
_chemical_formula_moiety         'C26 H28 O4 S1'
_chemical_name_systematic        
5,7-dimethoxy-4-methyl-2-((4-methylphenyl)sulfonyl)-1-phenyl-1,2,3,4-tetrahydronaphthalene
_symmetry_cell_setting           monoclinic
_symmetry_space_group_name_H-M   'P 21/c'
_symmetry_Int_Tables_number      14
_space_group_name_Hall           '-P 2ybc'
loop_
_symmetry_equiv_pos_site_id
_symmetry_equiv_pos_as_xyz
1 x,y,z
2 -x,1/2+y,1/2-z
3 -x,-y,-z
4 x,1/2-y,1/2+z
_cell_length_a                   23.259(3)
_cell_length_b                   5.6619(4)
_cell_length_c                   17.6922(16)
_cell_angle_alpha                90
_cell_angle_beta                 112.341(4)
_cell_angle_gamma                90
_cell_volume                     2155
_exptl_crystal_colour            colorless
_exptl_crystal_description       Blade
_cell_formula_units_Z            4
loop_
_atom_site_label
_atom_site_type_symbol
_atom_site_fract_x
_atom_site_fract_y
_atom_site_fract_z
C1 C 0.60811(15) -0.0534(6) 0.2810(2)
C2 C 0.59892(16) -0.2370(6) 0.2258(2)
H1 H 0.6260 -0.3696 0.2391
C3 C 0.54946(16) -0.2240(6) 0.1505(2)
H2 H 0.5432 -0.3486 0.1123
C4 C 0.50912(16) -0.0330(7) 0.1303(2)
C5 C 0.52055(16) 0.1536(6) 0.1855(2)
H3 H 0.4946 0.2892 0.1713
C6 C 0.56936(16) 0.1434(6) 0.2607(2)
H4 H 0.5764 0.2701 0.2984
C7 C 0.45209(17) -0.0292(8) 0.0521(2)
H5 H 0.4581 -0.1370 0.0124
H6 H 0.4453 0.1313 0.0297
H7 H 0.4158 -0.0796 0.0634
C8 C 0.72519(15) 0.1280(6) 0.39872(19)
H8 H 0.7070 0.2821 0.3731
C9 C 0.75805(16) 0.1612(6) 0.4910(2)
H9 H 0.7267 0.1925 0.5150
H10 H 0.7801 0.0136 0.5155
C10 C 0.80454(15) 0.3648(6) 0.5121(2)
H11 H 0.7804 0.5148 0.5054
C11 C 0.83947(15) 0.3777(6) 0.4548(2)
C12 C 0.88529(15) 0.5520(6) 0.4660(2)
C13 C 0.91841(15) 0.5716(6) 0.4152(2)
H12 H 0.9489 0.6913 0.4242
C14 C 0.90587(15) 0.4124(6) 0.3509(2)
C15 C 0.86004(15) 0.2425(6) 0.3368(2)
H13 H 0.8516 0.1354 0.2926
C16 C 0.82628(15) 0.2273(6) 0.3870(2)
C17 C 0.77302(15) 0.0451(6) 0.3640(2)
H14 H 0.7911 -0.1066 0.3919
C18 C 0.84566(17) 0.3396(8) 0.6036(2)
H15 H 0.8713 0.1972 0.6119
H16 H 0.8192 0.3272 0.6353
H17 H 0.8726 0.4783 0.6217
C19 C 0.94266(17) 0.8769(6) 0.5454(2)
H18 H 0.9818 0.7952 0.5542
H19 H 0.9467 0.9664 0.5946
H20 H 0.9329 0.9853 0.4990
C20 C 0.97508(18) 0.6117(7) 0.3021(3)
H21 H 0.9510 0.7578 0.2949
H22 H 0.9915 0.5990 0.2588
H23 H 1.0096 0.6138 0.3555
C21 C 0.74573(15) -0.0030(6) 0.2727(2)
C22 C 0.75814(16) -0.2156(6) 0.2427(2)
H24 H 0.7833 -0.3309 0.2794
C23 C 0.73388(17) -0.2605(6) 0.1591(2)
H25 H 0.7430 -0.4055 0.1391
C24 C 0.69658(16) -0.0959(7) 0.1051(2)
H26 H 0.6795 -0.1288 0.0481
C25 C 0.68412(16) 0.1170(6) 0.1340(2)
H27 H 0.6584 0.2306 0.0970
C26 C 0.70934(15) 0.1644(6) 0.2174(2)
H28 H 0.7017 0.3127 0.2369
O1 O 0.68886(12) -0.3188(4) 0.39020(15)
O2 O 0.63160(12) -0.0154(5) 0.43464(15)
O3 O 0.93613(11) 0.4153(5) 0.29797(15)
O4 O 0.89397(11) 0.7078(4) 0.52859(15)
S1 S 0.66317(4) -0.08393(14) 0.38177(5)
loop_
_geom_bond_atom_site_label_1
_geom_bond_atom_site_label_2
_geom_bond_site_symmetry_1
_geom_bond_site_symmetry_2
C1 C2 1_555 1_555
C2 H1 1_555 1_555
C3 C2 1_555 1_555
H2 C3 1_555 1_555
C4 C3 1_555 1_555
C5 C4 1_555 1_555
H3 C5 1_555 1_555
C6 C1 1_555 1_555
H4 C6 1_555 1_555
C7 C4 1_555 1_555
H5 C7 1_555 1_555
H6 C7 1_555 1_555
H7 C7 1_555 1_555
C8 H8 1_555 1_555
C9 C8 1_555 1_555
H9 C9 1_555 1_555
H10 C9 1_555 1_555
C10 C9 1_555 1_555
H11 C10 1_555 1_555
C11 C10 1_555 1_555
C12 C11 1_555 1_555
C13 C12 1_555 1_555
H12 C13 1_555 1_555
C14 C13 1_555 1_555
C15 C14 1_555 1_555
H13 C15 1_555 1_555
C16 C11 1_555 1_555
C17 C8 1_555 1_555
H14 C17 1_555 1_555
C18 C10 1_555 1_555
H15 C18 1_555 1_555
H16 C18 1_555 1_555
H17 C18 1_555 1_555
C19 H18 1_555 1_555
H19 C19 1_555 1_555
H20 C19 1_555 1_555
C20 H21 1_555 1_555
H22 C20 1_555 1_555
H23 C20 1_555 1_555
C21 C17 1_555 1_555
C22 C21 1_555 1_555
H24 C22 1_555 1_555
C23 C22 1_555 1_555
H25 C23 1_555 1_555
C24 C23 1_555 1_555
H26 C24 1_555 1_555
C25 C24 1_555 1_555
H27 C25 1_555 1_555
C26 C21 1_555 1_555
H28 C26 1_555 1_555
O1 S1 1_555 1_555
O2 S1 1_555 1_555
O3 C14 1_555 1_555
O4 C12 1_555 1_555
S1 C1 1_555 1_555
C5 C6 1_555 1_555
C8 S1 1_555 1_555
C15 C16 1_555 1_555
C16 C17 1_555 1_555
C19 O4 1_555 1_555
C20 O3 1_555 1_555
C25 C26 1_555 1_555

#END
