
#######################################################################
#
#                 Cambridge Crystallographic Data Centre
#                                CCDC 
#
#######################################################################
#
# If this CIF has been generated from an entry in the Cambridge 
# Structural Database, then it will include bibliographic, chemical, 
# crystal, experimental, refinement or atomic coordinate data resulting 
# from the CCDC's data processing and validation procedures.
#
#######################################################################

data_TAGMIA
_chemical_formula_moiety         'C14 H14 N2 O2'
_chemical_name_systematic        N-(4-methoxybenzyl)-N-nitrosoaniline
_symmetry_cell_setting           monoclinic
_symmetry_space_group_name_H-M   'P 21'
_symmetry_Int_Tables_number      4
_space_group_name_Hall           'P 2yb'
loop_
_symmetry_equiv_pos_site_id
_symmetry_equiv_pos_as_xyz
1 x,y,z
2 -x,1/2+y,-z
_cell_length_a                   7.5292(5)
_cell_length_b                   5.7936(3)
_cell_length_c                   13.9668(9)
_cell_angle_alpha                90
_cell_angle_beta                 93.766(4)
_cell_angle_gamma                90
_cell_volume                     607.933
_exptl_crystal_colour            'pale yellow'
_exptl_crystal_description       block
_cell_formula_units_Z            2
loop_
_atom_site_label
_atom_site_type_symbol
_atom_site_fract_x
_atom_site_fract_y
_atom_site_fract_z
C1 C -0.3369(4) 0.0072(5) 0.9789(2)
H1 H -0.3363 -0.1284 0.9394
H2 H -0.4524 0.0256 1.0033
H3 H -0.2491 -0.0086 1.0316
C2 C -0.1380(3) 0.2066(5) 0.88130(16)
C3 C -0.0091(3) 0.0379(4) 0.89272(17)
H4 H -0.0275 -0.0903 0.9309
C4 C 0.1479(3) 0.0602(4) 0.84715(17)
H5 H 0.2340 -0.0545 0.8553
C5 C 0.1799(3) 0.2480(4) 0.79004(15)
C6 C 0.0493(3) 0.4159(4) 0.77983(16)
H6 H 0.0679 0.5447 0.7420
C7 C -0.1080(3) 0.3964(4) 0.82466(17)
H7 H -0.1941 0.5112 0.8167
C8 C 0.3560(3) 0.2667(4) 0.74437(17)
H8 H 0.4501 0.2868 0.7945
H9 H 0.3784 0.1233 0.7114
C9 C 0.3026(3) 0.4377(4) 0.57771(16)
C10 C 0.2068(3) 0.2452(4) 0.54633(18)
H10 H 0.1811 0.1294 0.5894
C11 C 0.1499(3) 0.2262(5) 0.45099(19)
H11 H 0.0863 0.0961 0.4299
C12 C 0.1855(3) 0.3956(5) 0.38664(19)
H12 H 0.1465 0.3812 0.3224
C13 C 0.2797(3) 0.5873(5) 0.41835(18)
H13 H 0.3032 0.7038 0.3751
C14 C 0.3394(3) 0.6090(4) 0.51281(18)
H14 H 0.4045 0.7384 0.5332
N1 N 0.4201(3) 0.6657(4) 0.70457(16)
N2 N 0.3634(2) 0.4572(3) 0.67620(14)
O1 O -0.2967(2) 0.2044(3) 0.92339(13)
O2 O 0.4691(3) 0.6791(4) 0.79055(13)
loop_
_geom_bond_atom_site_label_1
_geom_bond_atom_site_label_2
_geom_bond_site_symmetry_1
_geom_bond_site_symmetry_2
C1 H1 1_555 1_555
H2 C1 1_555 1_555
H3 C1 1_555 1_555
C2 C3 1_555 1_555
C3 H4 1_555 1_555
C4 C3 1_555 1_555
H5 C4 1_555 1_555
C5 C4 1_555 1_555
C6 C5 1_555 1_555
H6 C6 1_555 1_555
C7 C2 1_555 1_555
H7 C7 1_555 1_555
C8 C5 1_555 1_555
H8 C8 1_555 1_555
H9 C8 1_555 1_555
C9 C10 1_555 1_555
C10 H10 1_555 1_555
C11 C10 1_555 1_555
H11 C11 1_555 1_555
C12 C11 1_555 1_555
H12 C12 1_555 1_555
C13 C12 1_555 1_555
H13 C13 1_555 1_555
C14 C9 1_555 1_555
H14 C14 1_555 1_555
N1 N2 1_555 1_555
N2 C8 1_555 1_555
O1 C1 1_555 1_555
O2 N1 1_555 1_555
C2 O1 1_555 1_555
C6 C7 1_555 1_555
C9 N2 1_555 1_555
C13 C14 1_555 1_555

#END
