
#######################################################################
#
#                 Cambridge Crystallographic Data Centre
#                                CCDC 
#
#######################################################################
#
# If this CIF has been generated from an entry in the Cambridge 
# Structural Database, then it will include bibliographic, chemical, 
# crystal, experimental, refinement or atomic coordinate data resulting 
# from the CCDC's data processing and validation procedures.
#
#######################################################################

data_TAGNEV01
_chemical_formula_moiety         'C10 H8 Cl2 I2 N2'
_chemical_name_systematic        N,N'-bis(Chloroiodo)-2,2'-bipyridine
_symmetry_cell_setting           monoclinic
_symmetry_space_group_name_H-M   'P 21/n'
_symmetry_Int_Tables_number      14
_space_group_name_Hall           '-P 2yn'
loop_
_symmetry_equiv_pos_site_id
_symmetry_equiv_pos_as_xyz
1 x,y,z
2 1/2-x,1/2+y,1/2-z
3 -x,-y,-z
4 1/2+x,1/2-y,1/2+z
_cell_length_a                   10.073(1)
_cell_length_b                   12.141(7)
_cell_length_c                   11.859(1)
_cell_angle_alpha                90
_cell_angle_beta                 101.67(1)
_cell_angle_gamma                90
_cell_volume                     1420.33
_exptl_crystal_colour            yellow
_exptl_crystal_description       prism
_chemical_melting_point          '403-404 K'
_cell_formula_units_Z            4
loop_
_atom_site_label
_atom_site_type_symbol
_atom_site_fract_x
_atom_site_fract_y
_atom_site_fract_z
I1 I 0.168100(14) 0.123277(11) 0.544843(11)
I2 I 0.288000(14) 0.457739(11) 0.569825(11)
Cl1 Cl 0.18345(7) 0.01834(5) 0.36680(5)
Cl2 Cl 0.14089(6) 0.59473(5) 0.44778(5)
N1 N 0.15288(19) 0.21922(15) 0.71107(16)
N2 N 0.43098(18) 0.32364(16) 0.67077(16)
C1 C 0.2603(2) 0.26906(17) 0.77743(18)
C2 C 0.2461(2) 0.3318(2) 0.8715(2)
H1 H 0.323(4) 0.372(3) 0.918(3)
C3 C 0.1167(3) 0.3456(2) 0.8959(2)
H2 H 0.103(4) 0.386(3) 0.957(3)
C4 C 0.0079(2) 0.2936(2) 0.8281(2)
H3 H -0.089(3) 0.300(3) 0.843(3)
C5 C 0.0298(2) 0.2293(2) 0.7369(2)
H4 H -0.048(3) 0.188(3) 0.689(3)
C6 C 0.3956(2) 0.25304(18) 0.74674(18)
C7 C 0.4803(2) 0.1675(2) 0.7943(2)
H5 H 0.454(3) 0.130(3) 0.852(3)
C8 C 0.6033(3) 0.1535(2) 0.7599(2)
H6 H 0.659(3) 0.098(2) 0.792(2)
C9 C 0.6393(2) 0.2273(2) 0.6824(2)
H7 H 0.725(4) 0.227(3) 0.663(3)
C10 C 0.5519(2) 0.3122(2) 0.6398(2)
H8 H 0.568(3) 0.362(3) 0.578(3)
loop_
_geom_bond_atom_site_label_1
_geom_bond_atom_site_label_2
_geom_bond_site_symmetry_1
_geom_bond_site_symmetry_2
I1 Cl1 1_555 1_555
I2 Cl2 1_555 1_555
N1 I1 1_555 1_555
N2 I2 1_555 1_555
C1 N1 1_555 1_555
C2 C1 1_555 1_555
H1 C2 1_555 1_555
C3 C2 1_555 1_555
H2 C3 1_555 1_555
C4 C3 1_555 1_555
H3 C4 1_555 1_555
C5 N1 1_555 1_555
H4 C5 1_555 1_555
C6 N2 1_555 1_555
C7 C6 1_555 1_555
H5 C7 1_555 1_555
C8 C7 1_555 1_555
H6 C8 1_555 1_555
C9 C8 1_555 1_555
H7 C9 1_555 1_555
C10 N2 1_555 1_555
H8 C10 1_555 1_555
C1 C6 1_555 1_555
C4 C5 1_555 1_555
C9 C10 1_555 1_555

#END
