
#######################################################################
#
#                 Cambridge Crystallographic Data Centre
#                                CCDC 
#
#######################################################################
#
# If this CIF has been generated from an entry in the Cambridge 
# Structural Database, then it will include bibliographic, chemical, 
# crystal, experimental, refinement or atomic coordinate data resulting 
# from the CCDC's data processing and validation procedures.
#
#######################################################################

data_TAGQEA
_chemical_formula_moiety         'C25 H19 N3'
_chemical_name_systematic        3,3',3''-methanetriyltris(1H-indole)
_symmetry_cell_setting           monoclinic
_symmetry_space_group_name_H-M   'P 21/c'
_symmetry_Int_Tables_number      14
_space_group_name_Hall           '-P 2ybc'
loop_
_symmetry_equiv_pos_site_id
_symmetry_equiv_pos_as_xyz
1 x,y,z
2 -x,1/2+y,1/2-z
3 -x,-y,-z
4 x,1/2-y,1/2+z
_cell_length_a                   12.7117(15)
_cell_length_b                   19.505(2)
_cell_length_c                   15.8607(18)
_cell_angle_alpha                90
_cell_angle_beta                 91.418(4)
_cell_angle_gamma                90
_cell_volume                     3931.32
_exptl_crystal_colour            colorless
_exptl_crystal_description       block
_cell_formula_units_Z            8
loop_
_atom_site_label
_atom_site_type_symbol
_atom_site_fract_x
_atom_site_fract_y
_atom_site_fract_z
C1 C 0.74317(18) 0.18659(12) 0.71561(15)
H1 H 0.7477 0.2195 0.7623
C2 C 0.9151(2) 0.16747(14) 0.63628(18)
H2 H 0.8927 0.1857 0.5847
C3 C 0.85404(19) 0.16084(12) 0.70445(17)
C4 C 0.91968(19) 0.13100(12) 0.76948(17)
C5 C 0.9047(2) 0.11290(13) 0.85306(19)
H3 H 0.8387 0.1172 0.8765
C6 C 0.9885(3) 0.08853(15) 0.9009(2)
H4 H 0.9788 0.0766 0.9569
C7 C 1.0872(3) 0.08160(15) 0.8665(2)
H5 H 1.1427 0.0654 0.9002
C8 C 1.1047(2) 0.09807(15) 0.7843(2)
H6 H 1.1711 0.0935 0.7616
C9 C 1.0199(2) 0.12193(13) 0.73583(19)
C10 C 0.6784(2) 0.06245(16) 0.73360(18)
H7 H 0.7325 0.0409 0.7054
C11 C 0.66947(19) 0.13127(13) 0.74392(15)
C12 C 0.57471(19) 0.14145(13) 0.79006(15)
C13 C 0.5228(2) 0.19903(14) 0.81966(16)
H8 H 0.5489 0.2427 0.8093
C14 C 0.4323(2) 0.19065(17) 0.86457(17)
H9 H 0.3971 0.2290 0.8843
C15 C 0.3929(2) 0.1257(2) 0.88070(19)
H10 H 0.3321 0.1215 0.9117
C16 C 0.4413(3) 0.06739(18) 0.85215(19)
H11 H 0.4147 0.0239 0.8630
C17 C 0.5316(2) 0.07671(15) 0.80633(17)
C18 C 0.6127(2) 0.21003(14) 0.59363(17)
H12 H 0.5731 0.1703 0.5994
C19 C 0.69932(18) 0.22621(13) 0.64138(15)
C20 C 0.73445(18) 0.29135(13) 0.61138(15)
C21 C 0.8159(2) 0.33559(14) 0.63631(16)
H13 H 0.8642 0.3225 0.6783
C22 C 0.8238(2) 0.39822(16) 0.59842(18)
H14 H 0.8777 0.4279 0.6150
C23 C 0.7518(3) 0.41816(15) 0.53496(19)
H15 H 0.7580 0.4613 0.5107
C24 C 0.6725(2) 0.37568(16) 0.50770(17)
H16 H 0.6254 0.3888 0.4649
C25 C 0.6649(2) 0.31208(15) 0.54656(15)
N1 N 1.01473(18) 0.14342(12) 0.65400(16)
H17 H 1.0655 0.1421 0.6192
N2 N 0.59174(16) 0.26065(12) 0.53567(13)
H18 H 0.5412 0.2603 0.4986
N3 N 0.5968(2) 0.02930(12) 0.77058(16)
H19 H 0.5877 -0.0144 0.7713
C26 C 0.74335(17) 0.44738(12) 0.87695(15)
H20 H 0.7475 0.4645 0.8190
C27 C 0.8480(2) 0.50413(14) 1.00033(17)
H21 H 0.8824 0.4651 1.0205
C28 C 0.77931(18) 0.50529(13) 0.93345(15)
C29 C 0.74642(18) 0.57534(13) 0.92536(15)
C30 C 0.67833(19) 0.60938(14) 0.86903(16)
H22 H 0.6421 0.5852 0.8270
C31 C 0.6654(2) 0.67915(15) 0.87641(18)
H23 H 0.6207 0.7022 0.8387
C32 C 0.7185(2) 0.71562(15) 0.9398(2)
H24 H 0.7083 0.7627 0.9439
C33 C 0.7855(2) 0.68374(15) 0.99633(18)
H25 H 0.8211 0.7084 1.0383
C34 C 0.79821(19) 0.61339(14) 0.98860(16)
C35 C 0.5747(2) 0.43284(13) 0.96120(17)
H26 H 0.6016 0.4488 1.0126
C36 C 0.62999(18) 0.42887(12) 0.88941(16)
C37 C 0.55865(18) 0.40252(11) 0.82636(16)
C38 C 0.56751(19) 0.38773(12) 0.74060(17)
H27 H 0.6312 0.3936 0.7140
C39 C 0.4805(2) 0.36434(13) 0.69639(18)
H28 H 0.4859 0.3541 0.6394
C40 C 0.3845(2) 0.35571(13) 0.7354(2)
H29 H 0.3268 0.3403 0.7036
C41 C 0.3728(2) 0.36934(13) 0.81944(19)
H30 H 0.3084 0.3636 0.8451
C42 C 0.4608(2) 0.39198(12) 0.86446(17)
C43 C 0.7930(2) 0.32455(15) 0.91892(16)
H31 H 0.7325 0.3147 0.9483
C44 C 0.81368(19) 0.38550(13) 0.88211(15)
C45 C 0.91339(19) 0.37783(14) 0.84304(15)
C46 C 0.9746(2) 0.42045(16) 0.79363(17)
H32 H 0.9550 0.4657 0.7838
C47 C 1.0658(3) 0.3938(2) 0.7592(2)
H33 H 1.1074 0.4213 0.7256
C48 C 1.0950(3) 0.3256(3) 0.7750(2)
H34 H 1.1554 0.3086 0.7505
C49 C 1.0387(3) 0.28365(19) 0.8245(2)
H35 H 1.0600 0.2388 0.8352
C50 C 0.9479(2) 0.31001(15) 0.85874(18)
N4 N 0.85989(16) 0.56847(12) 1.03407(13)
H36 H 0.8996 0.5789 1.0768
N5 N 0.47322(16) 0.41008(10) 0.94758(14)
H37 H 0.4255 0.4076 0.9850
N6 N 0.87383(19) 0.27926(11) 0.90691(14)
H38 H 0.8773 0.2382 0.9265
loop_
_geom_bond_atom_site_label_1
_geom_bond_atom_site_label_2
_geom_bond_site_symmetry_1
_geom_bond_site_symmetry_2
C1 H1 1_555 1_555
C2 H2 1_555 1_555
C3 C1 1_555 1_555
C4 C3 1_555 1_555
C5 C4 1_555 1_555
H3 C5 1_555 1_555
C6 C5 1_555 1_555
H4 C6 1_555 1_555
C7 C6 1_555 1_555
H5 C7 1_555 1_555
C8 C7 1_555 1_555
H6 C8 1_555 1_555
C9 C4 1_555 1_555
C10 H7 1_555 1_555
C11 C1 1_555 1_555
C12 C11 1_555 1_555
C13 C12 1_555 1_555
H8 C13 1_555 1_555
C14 C13 1_555 1_555
H9 C14 1_555 1_555
C15 C14 1_555 1_555
H10 C15 1_555 1_555
C16 C15 1_555 1_555
H11 C16 1_555 1_555
C17 C12 1_555 1_555
C18 H12 1_555 1_555
C19 C1 1_555 1_555
C20 C19 1_555 1_555
C21 C20 1_555 1_555
H13 C21 1_555 1_555
C22 C21 1_555 1_555
H14 C22 1_555 1_555
C23 C22 1_555 1_555
H15 C23 1_555 1_555
C24 C23 1_555 1_555
H16 C24 1_555 1_555
C25 C20 1_555 1_555
N1 C2 1_555 1_555
H17 N1 1_555 1_555
N2 C18 1_555 1_555
H18 N2 1_555 1_555
N3 C10 1_555 1_555
H19 N3 1_555 1_555
C26 H20 1_555 1_555
C27 H21 1_555 1_555
C28 C26 1_555 1_555
C29 C28 1_555 1_555
C30 C29 1_555 1_555
H22 C30 1_555 1_555
C31 C30 1_555 1_555
H23 C31 1_555 1_555
C32 C31 1_555 1_555
H24 C32 1_555 1_555
C33 C32 1_555 1_555
H25 C33 1_555 1_555
C34 C29 1_555 1_555
C35 H26 1_555 1_555
C36 C26 1_555 1_555
C37 C36 1_555 1_555
C38 C37 1_555 1_555
H27 C38 1_555 1_555
C39 C38 1_555 1_555
H28 C39 1_555 1_555
C40 C39 1_555 1_555
H29 C40 1_555 1_555
C41 C40 1_555 1_555
H30 C41 1_555 1_555
C42 C37 1_555 1_555
C43 H31 1_555 1_555
C44 C26 1_555 1_555
C45 C44 1_555 1_555
C46 C45 1_555 1_555
H32 C46 1_555 1_555
C47 C46 1_555 1_555
H33 C47 1_555 1_555
C48 C47 1_555 1_555
H34 C48 1_555 1_555
C49 C48 1_555 1_555
H35 C49 1_555 1_555
C50 C45 1_555 1_555
N4 C27 1_555 1_555
H36 N4 1_555 1_555
N5 C35 1_555 1_555
H37 N5 1_555 1_555
N6 C43 1_555 1_555
H38 N6 1_555 1_555
C2 C3 1_555 1_555
C8 C9 1_555 1_555
C9 N1 1_555 1_555
C10 C11 1_555 1_555
C16 C17 1_555 1_555
C17 N3 1_555 1_555
C18 C19 1_555 1_555
C24 C25 1_555 1_555
C25 N2 1_555 1_555
C27 C28 1_555 1_555
C33 C34 1_555 1_555
C34 N4 1_555 1_555
C35 C36 1_555 1_555
C41 C42 1_555 1_555
C42 N5 1_555 1_555
C43 C44 1_555 1_555
C49 C50 1_555 1_555
C50 N6 1_555 1_555

#END
