
#######################################################################
#
#                 Cambridge Crystallographic Data Centre
#                                CCDC 
#
#######################################################################
#
# If this CIF has been generated from an entry in the Cambridge 
# Structural Database, then it will include bibliographic, chemical, 
# crystal, experimental, refinement or atomic coordinate data resulting 
# from the CCDC's data processing and validation procedures.
#
#######################################################################

data_TAGRAX
_chemical_formula_moiety         'C32 H47 N2 O10 Si2'
_chemical_name_systematic        
2,7-bis(2,2-dimethyl-4-(trimethoxysilyl)butyl)benzo[lmn][3,8]phenanthroline-1,3,6,8(2H,7H)-tetrone
_symmetry_cell_setting           orthorhombic
_symmetry_space_group_name_H-M   'P n a n'
_symmetry_Int_Tables_number      52
_space_group_name_Hall           '-P 2n 2bc'
loop_
_symmetry_equiv_pos_site_id
_symmetry_equiv_pos_as_xyz
1 x,y,z
2 1/2-x,1/2-y,1/2+z
3 x,1/2-y,1/2-z
4 1/2-x,y,-z
5 -x,-y,-z
6 1/2+x,1/2+y,1/2-z
7 -x,1/2+y,1/2+z
8 1/2+x,-y,z
_cell_length_a                   8.2935(4)
_cell_length_b                   18.5071(13)
_cell_length_c                   21.8417(15)
_cell_angle_alpha                90
_cell_angle_beta                 90
_cell_angle_gamma                90
_cell_volume                     3352.45
_exptl_crystal_colour            colorless
_exptl_crystal_description       needle
_cell_formula_units_Z            4
_chemical_properties_physical    Moisture-sensitive
loop_
_atom_site_label
_atom_site_type_symbol
_atom_site_fract_x
_atom_site_fract_y
_atom_site_fract_z
N1 N 0.2676(4) 0.06680(19) 0.37628(15)
O1 O 0.3309(4) 0.18201(17) 0.40521(14)
O2 O 0.1847(4) -0.04794(16) 0.35583(13)
C1 C 0.3441(5) 0.1174(3) 0.41471(19)
C2 C 0.4387(5) 0.0887(2) 0.46716(18)
C3 C 0.5145(5) 0.1352(2) 0.5066(2)
H1 H 0.5032 0.1859 0.5010
C4 C 0.4528(5) 0.0130(2) 0.47570(17)
C5 C 0.3732(5) -0.0358(2) 0.43614(18)
C6 C 0.3912(5) -0.1091(2) 0.44469(19)
H2 H 0.3399 -0.1420 0.4176
C7 C 0.2685(5) -0.0078(2) 0.38652(18)
C8 C 0.1617(5) 0.0953(3) 0.32695(18)
H3 H 0.1223 0.1436 0.3395
H4 H 0.0666 0.0632 0.3234
C9 C 0.2397(5) 0.1022(2) 0.26322(19)
C10 C 0.2889(6) 0.0278(3) 0.2382(2)
H5 H 0.1947 -0.0041 0.2375
H6 H 0.3724 0.0068 0.2645
H7 H 0.3312 0.0332 0.1965
C11 C 0.3875(6) 0.1513(3) 0.2657(2)
H8 H 0.4324 0.1566 0.2245
H9 H 0.4688 0.1299 0.2928
H10 H 0.3560 0.1988 0.2815
C12 C 0.1049(6) 0.1352(3) 0.2229(2)
H11 H 0.0108 0.1024 0.2245
H12 H 0.0716 0.1815 0.2417
C13 C 0.1433(7) 0.1496(3) 0.1558(2)
H13 H 0.2066 0.1086 0.1394
H14 H 0.2112 0.1935 0.1529
Si1 Si -0.0373(2) 0.16216(10) 0.10805(7)
O3 O 0.0127(5) 0.1793(3) 0.03809(17)
O4 O -0.117(2) 0.0831(11) 0.1027(9)
O5 O -0.136(3) 0.2173(10) 0.1263(12)
C14 C -0.059(2) 0.0214(8) 0.0774(5)
H15 H -0.0086 0.0324 0.0380
H16 H -0.1483 -0.0126 0.0711
H17 H 0.0207 -0.0003 0.1049
C15 C -0.260(4) 0.2229(18) 0.1676(8)
H18 H -0.3420 0.1863 0.1585
H19 H -0.3084 0.2711 0.1648
H20 H -0.2184 0.2153 0.2091
C16 C -0.094(2) 0.1696(8) -0.0143(6)
H21 H -0.1274 0.1189 -0.0169
H22 H -0.0371 0.1832 -0.0519
N1D N 0.7324(4) -0.06680(19) 0.62372(15)
O1D O 0.6691(4) -0.18201(17) 0.59479(14)
O2D O 0.8153(4) 0.04794(16) 0.64417(13)
C1D C 0.6559(5) -0.1174(3) 0.58529(19)
C2D C 0.5613(5) -0.0887(2) 0.53284(18)
C3D C 0.4855(5) -0.1352(2) 0.4934(2)
H1D H 0.4968 -0.1859 0.4990
C4D C 0.5472(5) -0.0130(2) 0.52430(17)
C5D C 0.6268(5) 0.0358(2) 0.56386(18)
C6D C 0.6088(5) 0.1091(2) 0.55531(19)
H2D H 0.6601 0.1420 0.5824
C7D C 0.7315(5) 0.0078(2) 0.61348(18)
C8D C 0.8383(5) -0.0953(3) 0.67305(18)
H3D H 0.8777 -0.1436 0.6605
H4D H 0.9334 -0.0632 0.6766
C9D C 0.7603(5) -0.1022(2) 0.73678(19)
C10D C 0.7111(6) -0.0278(3) 0.7618(2)
H5D H 0.8053 0.0041 0.7625
H6D H 0.6276 -0.0068 0.7355
H7D H 0.6688 -0.0332 0.8035
C11D C 0.6125(6) -0.1513(3) 0.7343(2)
H8D H 0.5676 -0.1566 0.7755
H9D H 0.5312 -0.1299 0.7072
H10D H 0.6440 -0.1988 0.7185
C12D C 0.8951(6) -0.1352(3) 0.7771(2)
H11D H 0.9892 -0.1024 0.7755
H12D H 0.9284 -0.1815 0.7583
C13D C 0.8567(7) -0.1496(3) 0.8442(2)
H13D H 0.7934 -0.1086 0.8606
H14D H 0.7888 -0.1935 0.8471
Si1D Si 1.0373(2) -0.16216(10) 0.89195(7)
O3D O 0.9873(5) -0.1793(3) 0.96191(17)
O4D O 1.117(2) -0.0831(11) 0.8973(9)
O5D O 1.136(3) -0.2173(10) 0.8737(12)
C14D C 1.059(2) -0.0214(8) 0.9226(5)
H15D H 1.0086 -0.0324 0.9620
H16D H 1.1483 0.0126 0.9289
H17D H 0.9793 0.0003 0.8951
C15D C 1.260(4) -0.2229(18) 0.8324(8)
H18D H 1.3420 -0.1863 0.8415
H19D H 1.3084 -0.2711 0.8352
H20D H 1.2184 -0.2153 0.7909
C16D C 1.094(2) -0.1696(8) 1.0143(6)
H21D H 1.1274 -0.1189 1.0169
H22D H 1.0371 -0.1832 1.0519
O6? O -0.179(2) 0.0977(14) 0.1203(10)
O7? O -0.145(3) 0.2416(10) 0.1341(11)
C17? C -0.325(3) 0.0757(14) 0.0978(11)
H23? H -0.3848 0.1177 0.0826
H24? H -0.3870 0.0523 0.1305
H25? H -0.3082 0.0413 0.0643
C18? C -0.295(3) 0.2457(18) 0.1544(19)
H26? H -0.3608 0.2086 0.1344
H27? H -0.3390 0.2936 0.1450
H28? H -0.2962 0.2381 0.1987
C19? C 0.1659(14) 0.1774(6) 0.0071(6)
H29? H 0.1533 0.1964 -0.0345
H30? H 0.2047 0.1274 0.0052
H31? H 0.2439 0.2071 0.0295
H32? H -0.1896 0.2003 -0.0094
loop_
_geom_bond_atom_site_label_1
_geom_bond_atom_site_label_2
_geom_bond_site_symmetry_1
_geom_bond_site_symmetry_2
N1 C1 1_555 1_555
O1 C1 1_555 1_555
O2 C7 1_555 1_555
C1 C2 1_555 1_555
C2 C3 1_555 1_555
C3 H1 1_555 1_555
C4 C2 1_555 1_555
C5 C4 1_555 1_555
C6 C5 1_555 1_555
H2 C6 1_555 1_555
C7 N1 1_555 1_555
C8 N1 1_555 1_555
H3 C8 1_555 1_555
H4 C8 1_555 1_555
C9 C8 1_555 1_555
C10 C9 1_555 1_555
H5 C10 1_555 1_555
H6 C10 1_555 1_555
H7 C10 1_555 1_555
C11 C9 1_555 1_555
H8 C11 1_555 1_555
H9 C11 1_555 1_555
H10 C11 1_555 1_555
C12 C9 1_555 1_555
H11 C12 1_555 1_555
H12 C12 1_555 1_555
C13 C12 1_555 1_555
H13 C13 1_555 1_555
H14 C13 1_555 1_555
Si1 C13 1_555 1_555
O3 Si1 1_555 1_555
O4 Si1 1_555 1_555
O5 Si1 1_555 1_555
C14 O4 1_555 1_555
H15 C14 1_555 1_555
H16 C14 1_555 1_555
H17 C14 1_555 1_555
C15 O5 1_555 1_555
H18 C15 1_555 1_555
H19 C15 1_555 1_555
H20 C15 1_555 1_555
C16 O3 1_555 1_555
H21 C16 1_555 1_555
H22 C16 1_555 1_555
N1D C1D 1_555 1_555
O1D C1D 1_555 1_555
O2D C7D 1_555 1_555
C1D C2D 1_555 1_555
C2D C3D 1_555 1_555
C3D C6 1_555 1_555
H1D C3D 1_555 1_555
C4D C4 1_555 1_555
C5D C4D 1_555 1_555
C6D C3 1_555 1_555
H2D C6D 1_555 1_555
C7D N1D 1_555 1_555
C8D N1D 1_555 1_555
H3D C8D 1_555 1_555
H4D C8D 1_555 1_555
C9D C8D 1_555 1_555
C10D C9D 1_555 1_555
H5D C10D 1_555 1_555
H6D C10D 1_555 1_555
H7D C10D 1_555 1_555
C11D C9D 1_555 1_555
H8D C11D 1_555 1_555
H9D C11D 1_555 1_555
H10D C11D 1_555 1_555
C12D C9D 1_555 1_555
H11D C12D 1_555 1_555
H12D C12D 1_555 1_555
C13D C12D 1_555 1_555
H13D C13D 1_555 1_555
H14D C13D 1_555 1_555
Si1D C13D 1_555 1_555
O3D Si1D 1_555 1_555
O4D Si1D 1_555 1_555
O5D Si1D 1_555 1_555
C14D O4D 1_555 1_555
H15D C14D 1_555 1_555
H16D C14D 1_555 1_555
H17D C14D 1_555 1_555
C15D O5D 1_555 1_555
H18D C15D 1_555 1_555
H19D C15D 1_555 1_555
H20D C15D 1_555 1_555
C16D O3D 1_555 1_555
H21D C16D 1_555 1_555
H22D C16D 1_555 1_555
C5 C7 1_555 1_555
C2D C4D 1_555 1_555
C5D C6D 1_555 1_555
C5D C7D 1_555 1_555

#END
