
#######################################################################
#
#                 Cambridge Crystallographic Data Centre
#                                CCDC 
#
#######################################################################
#
# If this CIF has been generated from an entry in the Cambridge 
# Structural Database, then it will include bibliographic, chemical, 
# crystal, experimental, refinement or atomic coordinate data resulting 
# from the CCDC's data processing and validation procedures.
#
#######################################################################

data_TAGWIK
_chemical_formula_moiety         'C17 H21 N1 O2 S1'
_chemical_name_systematic        
2-((4-methylphenyl)sulfonyl)-2,3,3a,6,7,9a-hexahydro-1H-cyclo-octa[c]pyrrole
_symmetry_cell_setting           triclinic
_symmetry_space_group_name_H-M   'P -1'
_symmetry_Int_Tables_number      2
_space_group_name_Hall           '-P 1'
loop_
_symmetry_equiv_pos_site_id
_symmetry_equiv_pos_as_xyz
1 x,y,z
2 -x,-y,-z
_cell_length_a                   7.5506(4)
_cell_length_b                   8.5257(3)
_cell_length_c                   12.2376(7)
_cell_angle_alpha                84.359(3)
_cell_angle_beta                 89.015(2)
_cell_angle_gamma                84.730(3)
_cell_volume                     780.63
_exptl_crystal_description       prism
_cell_formula_units_Z            2
loop_
_atom_site_label
_atom_site_type_symbol
_atom_site_fract_x
_atom_site_fract_y
_atom_site_fract_z
C1 C 0.2559(3) 0.8715(2) 0.48012(17)
H1 H 0.3397 0.8461 0.4232
H2 H 0.3095 0.9330 0.5300
H3 H 0.1525 0.9314 0.4481
C2 C 0.2022(2) 0.7203(2) 0.54174(15)
C3 C 0.2728(3) 0.5744(2) 0.51309(16)
H4 H 0.3502 0.5696 0.4533
C4 C 0.2306(3) 0.4347(2) 0.57184(15)
H5 H 0.2811 0.3377 0.5523
C5 C 0.1137(2) 0.44056(19) 0.65900(14)
C6 C 0.0364(2) 0.5864(2) 0.68605(15)
H6 H -0.0464 0.5910 0.7431
C7 C 0.0827(3) 0.7241(2) 0.62821(15)
H7 H 0.0324 0.8211 0.6479
C8 C 0.3628(2) 0.2244(2) 0.85841(15)
H8 H 0.4181 0.2685 0.7915
H9 H 0.3998 0.1121 0.8698
C9 C 0.4119(2) 0.30907(18) 0.95685(14)
H10 H 0.4286 0.4186 0.9291
C10 C 0.5829(2) 0.2402(2) 1.00958(16)
H11 H 0.6672 0.1936 0.9636
C11 C 0.6282(3) 0.2377(2) 1.11366(17)
H12 H 0.7424 0.1935 1.1316
C12 C 0.5176(3) 0.2975(2) 1.20600(16)
H13 H 0.4384 0.3879 1.1779
H14 H 0.5947 0.3325 1.2595
C13 C 0.4074(3) 0.1705(2) 1.26244(16)
H15 H 0.4886 0.0838 1.2941
H16 H 0.3414 0.2150 1.3225
C14 C 0.2791(3) 0.1044(2) 1.19185(15)
H17 H 0.2407 0.0080 1.2202
C15 C 0.2114(2) 0.1606(2) 1.09571(15)
H18 H 0.1354 0.0966 1.0657
C16 C 0.2395(2) 0.31390(19) 1.02739(13)
H19 H 0.2369 0.4005 1.0746
C17 C 0.1001(2) 0.3525(2) 0.93845(15)
H20 H -0.0160 0.3254 0.9651
H21 H 0.0924 0.4638 0.9116
N1 N 0.1669(2) 0.25281(16) 0.85267(11)
O1 O 0.1344(2) 0.13496(15) 0.68031(11)
O2 O -0.12376(18) 0.28267(16) 0.76415(11)
S1 S 0.06224(7) 0.26495(5) 0.73732(4)
loop_
_geom_bond_atom_site_label_1
_geom_bond_atom_site_label_2
_geom_bond_site_symmetry_1
_geom_bond_site_symmetry_2
C1 H1 1_555 1_555
H2 C1 1_555 1_555
H3 C1 1_555 1_555
C2 C1 1_555 1_555
C3 C2 1_555 1_555
H4 C3 1_555 1_555
C4 C3 1_555 1_555
H5 C4 1_555 1_555
C5 C4 1_555 1_555
C6 C5 1_555 1_555
H6 C6 1_555 1_555
C7 C2 1_555 1_555
H7 C7 1_555 1_555
C8 H8 1_555 1_555
H9 C8 1_555 1_555
C9 C8 1_555 1_555
H10 C9 1_555 1_555
C10 C9 1_555 1_555
H11 C10 1_555 1_555
C11 C10 1_555 1_555
H12 C11 1_555 1_555
C12 C11 1_555 1_555
H13 C12 1_555 1_555
H14 C12 1_555 1_555
C13 C12 1_555 1_555
H15 C13 1_555 1_555
H16 C13 1_555 1_555
C14 C13 1_555 1_555
H17 C14 1_555 1_555
C15 C14 1_555 1_555
H18 C15 1_555 1_555
C16 C9 1_555 1_555
H19 C16 1_555 1_555
C17 C16 1_555 1_555
H20 C17 1_555 1_555
H21 C17 1_555 1_555
N1 C8 1_555 1_555
O1 S1 1_555 1_555
O2 S1 1_555 1_555
S1 C5 1_555 1_555
C6 C7 1_555 1_555
C15 C16 1_555 1_555
C17 N1 1_555 1_555
N1 S1 1_555 1_555

#END
