
#######################################################################
#
#                 Cambridge Crystallographic Data Centre
#                                CCDC 
#
#######################################################################
#
# If this CIF has been generated from an entry in the Cambridge 
# Structural Database, then it will include bibliographic, chemical, 
# crystal, experimental, refinement or atomic coordinate data resulting 
# from the CCDC's data processing and validation procedures.
#
#######################################################################

data_TAGZEH
_chemical_name_common            
1,2-Dicyano-1,2-bis(2'-(4-dimethylaminophenyl)ethynyl)ethene
_chemical_formula_moiety         'C24 H20 N4'
_chemical_name_systematic        
(E)-2,3-bis((4-(Dimethylamino)phenyl)ethynyl)but-2-enedinitrile
_symmetry_cell_setting           monoclinic
_symmetry_space_group_name_H-M   'P 21/n'
_symmetry_Int_Tables_number      14
_space_group_name_Hall           '-P 2yn'
loop_
_symmetry_equiv_pos_site_id
_symmetry_equiv_pos_as_xyz
1 x,y,z
2 1/2-x,1/2+y,1/2-z
3 -x,-y,-z
4 1/2+x,1/2-y,1/2+z
_cell_length_a                   3.9477(2)
_cell_length_b                   11.1064(4)
_cell_length_c                   22.3725(9)
_cell_angle_alpha                90
_cell_angle_beta                 93.769(2)
_cell_angle_gamma                90
_cell_volume                     978.795
_exptl_crystal_colour            black
_chemical_melting_point          258deg.C
_cell_formula_units_Z            2
_exptl_crystal_recrystallization_method hexane/dichloromethane
loop_
_atom_site_label
_atom_site_type_symbol
_atom_site_fract_x
_atom_site_fract_y
_atom_site_fract_z
C1 C -0.9970(5) -0.04818(19) -0.98078(8)
C2 C -1.1246(5) -0.1621(2) -1.00341(9)
N1 N -1.2263(5) -0.2524(2) -1.02167(9)
C3 C -0.8674(5) -0.04151(19) -0.92028(9)
C4 C -0.7538(5) -0.02860(19) -0.86928(9)
C5 C -0.6189(5) -0.00817(19) -0.80964(8)
C6 C -0.4373(5) 0.09687(19) -0.79510(9)
H1 H -0.4012 0.1533 -0.8253
C7 C -0.3107(5) 0.11914(19) -0.73769(9)
H2 H -0.1906 0.1909 -0.7293
C8 C -0.3572(5) 0.03669(18) -0.69099(8)
C9 C -0.5412(5) -0.06934(19) -0.70576(9)
H3 H -0.5768 -0.1264 -0.6758
C10 C -0.6692(5) -0.09016(19) -0.76344(9)
H4 H -0.7931 -0.1610 -0.7721
N2 N -0.2292(4) 0.05905(17) -0.63378(7)
C11 C -0.0507(5) 0.1709(2) -0.61991(9)
H5 H 0.0252 0.1721 -0.5778
H6 H -0.2023 0.2383 -0.6287
H7 H 0.1441 0.1772 -0.6440
C12 C -0.3042(6) -0.0213(2) -0.58504(9)
H8 H -0.1926 0.0079 -0.5479
H9 H -0.2222 -0.1015 -0.5934
H10 H -0.5475 -0.0239 -0.5813
C1B C -1.0030(5) 0.04818(19) -1.01922(8)
C2B C -0.8754(5) 0.1621(2) -0.99659(9)
N1B N -0.7737(5) 0.2524(2) -0.97833(9)
C3B C -1.1326(5) 0.04151(19) -1.07972(9)
C4B C -1.2462(5) 0.02860(19) -1.13072(9)
C5B C -1.3811(5) 0.00817(19) -1.19036(8)
C6B C -1.5627(5) -0.09687(19) -1.20490(9)
H1B H -1.5988 -0.1533 -1.1747
C7B C -1.6893(5) -0.11914(19) -1.26231(9)
H2B H -1.8094 -0.1909 -1.2707
C8B C -1.6428(5) -0.03669(18) -1.30901(8)
C9B C -1.4588(5) 0.06934(19) -1.29424(9)
H3B H -1.4232 0.1264 -1.3242
C10B C -1.3308(5) 0.09016(19) -1.23656(9)
H4B H -1.2069 0.1610 -1.2279
N2B N -1.7708(4) -0.05905(17) -1.36622(7)
C11B C -1.9493(5) -0.1709(2) -1.38009(9)
H5B H -2.0252 -0.1721 -1.4222
H6B H -1.7977 -0.2383 -1.3713
H7B H -2.1441 -0.1772 -1.3560
C12B C -1.6958(6) 0.0213(2) -1.41496(9)
H8B H -1.8074 -0.0079 -1.4521
H9B H -1.7778 0.1015 -1.4066
H10B H -1.4525 0.0239 -1.4187
loop_
_geom_bond_atom_site_label_1
_geom_bond_atom_site_label_2
_geom_bond_site_symmetry_1
_geom_bond_site_symmetry_2
C1 C2 1_555 1_555
C2 N1 1_555 1_555
C3 C1 1_555 1_555
C4 C3 1_555 1_555
C5 C4 1_555 1_555
C6 C5 1_555 1_555
H1 C6 1_555 1_555
C7 C6 1_555 1_555
H2 C7 1_555 1_555
C8 C7 1_555 1_555
C9 C8 1_555 1_555
H3 C9 1_555 1_555
C10 C5 1_555 1_555
H4 C10 1_555 1_555
N2 C8 1_555 1_555
C11 N2 1_555 1_555
H5 C11 1_555 1_555
H6 C11 1_555 1_555
H7 C11 1_555 1_555
C12 N2 1_555 1_555
H8 C12 1_555 1_555
H9 C12 1_555 1_555
H10 C12 1_555 1_555
C1B C1 1_555 1_555
C2B C1B 1_555 1_555
N1B C2B 1_555 1_555
C3B C1B 1_555 1_555
C4B C3B 1_555 1_555
C5B C4B 1_555 1_555
C6B C5B 1_555 1_555
H1B C6B 1_555 1_555
C7B C6B 1_555 1_555
H2B C7B 1_555 1_555
C8B C7B 1_555 1_555
C9B C8B 1_555 1_555
H3B C9B 1_555 1_555
C10B C5B 1_555 1_555
H4B C10B 1_555 1_555
N2B C8B 1_555 1_555
C11B N2B 1_555 1_555
H5B C11B 1_555 1_555
H6B C11B 1_555 1_555
H7B C11B 1_555 1_555
C12B N2B 1_555 1_555
H8B C12B 1_555 1_555
H9B C12B 1_555 1_555
H10B C12B 1_555 1_555
C9 C10 1_555 1_555
C9B C10B 1_555 1_555

#END
