
#######################################################################
#
#                 Cambridge Crystallographic Data Centre
#                                CCDC 
#
#######################################################################
#
# If this CIF has been generated from an entry in the Cambridge 
# Structural Database, then it will include bibliographic, chemical, 
# crystal, experimental, refinement or atomic coordinate data resulting 
# from the CCDC's data processing and validation procedures.
#
#######################################################################

data_TAHHUI
_chemical_formula_moiety         'C26 H32 N2 O2'
_chemical_name_systematic        
4,4'-((1,2-Diphenylethane-1,2-diylidene)diazanylylidene)dicyclohexanol
_symmetry_cell_setting           triclinic
_symmetry_space_group_name_H-M   'P -1'
_symmetry_Int_Tables_number      2
_space_group_name_Hall           '-P 1'
loop_
_symmetry_equiv_pos_site_id
_symmetry_equiv_pos_as_xyz
1 x,y,z
2 -x,-y,-z
_cell_length_a                   9.6534(4)
_cell_length_b                   12.1371(6)
_cell_length_c                   19.5361(10)
_cell_angle_alpha                98.810(4)
_cell_angle_beta                 97.793(4)
_cell_angle_gamma                90.592(4)
_cell_volume                     2239.91
_exptl_crystal_colour            colorless
_exptl_crystal_description       block
_cell_formula_units_Z            4
loop_
_atom_site_label
_atom_site_type_symbol
_atom_site_fract_x
_atom_site_fract_y
_atom_site_fract_z
O1 O 0.3855(2) 0.61360(14) 0.05365(9)
H1 H 0.385(3) 0.546(3) 0.0645(17)
O2 O 0.44127(19) 1.38895(13) 0.04827(9)
H2 H 0.489(3) 1.380(2) 0.0108(17)
N1 N 0.26842(18) 0.97915(14) 0.24957(9)
N2 N 0.56629(18) 1.11879(14) 0.25570(9)
C1 C 0.3442(2) 1.05537(16) 0.29016(10)
C2 C 0.5023(2) 1.06642(16) 0.29455(10)
C3 C 0.2770(2) 1.13782(16) 0.33893(10)
C4 C 0.1349(2) 1.12683(18) 0.34413(11)
H3 H 0.078(2) 1.0652(17) 0.3127(11)
C5 C 0.0734(3) 1.20329(18) 0.38988(12)
H4 H -0.024(3) 1.1928(19) 0.3940(13)
C6 C 0.1523(2) 1.29145(18) 0.43168(12)
H5 H 0.109(2) 1.3432(19) 0.4658(12)
C7 C 0.2922(3) 1.30296(19) 0.42656(12)
H6 H 0.350(2) 1.3626(18) 0.4573(12)
C8 C 0.3549(3) 1.22683(18) 0.38045(12)
H7 H 0.456(3) 1.2367(19) 0.3779(13)
C9 C 0.5886(2) 1.01450(15) 0.34947(10)
C10 C 0.5268(2) 0.95544(18) 0.39383(12)
H8 H 0.420(3) 0.9436(18) 0.3892(12)
C11 C 0.6109(3) 0.90913(18) 0.44518(12)
H9 H 0.567(2) 0.8692(19) 0.4776(13)
C12 C 0.7541(2) 0.91982(17) 0.45162(12)
H10 H 0.812(2) 0.8893(17) 0.4864(12)
C13 C 0.8161(2) 0.97887(17) 0.40763(12)
H11 H 0.925(3) 0.9869(19) 0.4115(13)
C14 C 0.7336(2) 1.02585(17) 0.35720(11)
H12 H 0.779(2) 1.0667(18) 0.3271(12)
C15 C 0.3333(2) 0.89422(17) 0.20353(11)
H13 H 0.436(2) 0.9097(15) 0.2063(10)
C16 C 0.2701(3) 0.89423(18) 0.12752(11)
H14 H 0.167(3) 0.8817(17) 0.1227(12)
H15 H 0.287(2) 0.968(2) 0.1123(12)
C17 C 0.3352(3) 0.80418(18) 0.07987(12)
H16 H 0.436(3) 0.8225(18) 0.0859(12)
H17 H 0.296(2) 0.8034(17) 0.0307(12)
C18 C 0.3138(3) 0.68976(18) 0.09930(12)
H18 H 0.212(3) 0.6668(18) 0.0906(12)
C19 C 0.3661(3) 0.68697(19) 0.17568(12)
H19 H 0.341(2) 0.613(2) 0.1882(12)
H20 H 0.469(3) 0.6933(18) 0.1825(12)
C20 C 0.3059(3) 0.78026(18) 0.22395(12)
H21 H 0.201(3) 0.7678(19) 0.2197(13)
H22 H 0.346(2) 0.7809(19) 0.2748(13)
C21 C 0.4906(2) 1.17787(17) 0.20335(11)
H23 H 0.390(2) 1.1700(15) 0.2008(10)
C22 C 0.5340(3) 1.30124(18) 0.22385(13)
H24 H 0.637(3) 1.3048(19) 0.2310(13)
H25 H 0.503(3) 1.331(2) 0.2683(15)
C23 C 0.4733(3) 1.3702(2) 0.16869(13)
H26 H 0.505(3) 1.449(2) 0.1804(13)
H27 H 0.372(3) 1.372(2) 0.1659(13)
C24 C 0.5092(3) 1.32338(18) 0.09733(12)
H28 H 0.613(3) 1.3310(18) 0.0988(12)
C25 C 0.4634(3) 1.20154(18) 0.07731(12)
H29 H 0.488(2) 1.1720(19) 0.0315(14)
H30 H 0.353(3) 1.1974(19) 0.0740(13)
C26 C 0.5308(3) 1.13335(18) 0.13186(11)
H31 H 0.639(2) 1.1396(16) 0.1350(11)
H32 H 0.500(3) 1.054(2) 0.1194(13)
O3 O 0.93775(19) 0.13813(12) 0.04644(9)
H33 H 0.992(3) 0.130(2) 0.0110(16)
O4 O 0.8816(2) 0.91414(15) 0.05059(9)
H34 H 0.882(3) 0.984(3) 0.0620(16)
N3 N 0.77227(18) 0.64369(14) 0.24792(9)
N4 N 1.06935(18) 0.51223(14) 0.25408(9)
C27 C 0.8480(2) 0.59015(16) 0.28932(10)
C28 C 1.0055(2) 0.58163(16) 0.29362(10)
C29 C 0.7807(2) 0.53457(16) 0.33958(10)
C30 C 0.6398(2) 0.54982(18) 0.34565(12)
H35 H 0.587(3) 0.5939(19) 0.3141(13)
C31 C 0.5772(3) 0.49931(18) 0.39281(12)
H36 H 0.476(3) 0.5075(18) 0.3958(12)
C32 C 0.6539(2) 0.43383(18) 0.43526(12)
H37 H 0.611(2) 0.3971(18) 0.4682(12)
C33 C 0.7934(3) 0.4188(2) 0.43028(13)
H38 H 0.846(3) 0.373(2) 0.4604(13)
C34 C 0.8565(3) 0.46838(18) 0.38228(12)
H39 H 0.956(3) 0.4571(18) 0.3793(12)
C35 C 1.0920(2) 0.65890(15) 0.35043(10)
C36 C 1.0322(2) 0.74165(18) 0.39337(12)
H40 H 0.932(2) 0.7482(16) 0.3843(11)
C37 C 1.1132(2) 0.81051(18) 0.44722(12)
H41 H 1.071(2) 0.8674(18) 0.4780(12)
C38 C 1.2563(2) 0.79851(17) 0.45869(12)
H42 H 1.312(2) 0.8475(18) 0.4988(12)
C39 C 1.3180(2) 0.71675(17) 0.41610(12)
H43 H 1.420(3) 0.710(2) 0.4212(13)
C40 C 1.2364(2) 0.64728(17) 0.36289(11)
H44 H 1.279(2) 0.5920(17) 0.3331(11)
C41 C 0.9921(2) 0.42708(17) 0.20147(11)
H45 H 0.889(2) 0.4325(15) 0.1992(10)
C42 C 1.0330(3) 0.43564(17) 0.12976(12)
H46 H 1.139(3) 0.4335(17) 0.1327(12)
H47 H 1.004(2) 0.5066(18) 0.1151(11)
C43 C 0.9642(3) 0.34056(18) 0.07537(12)
H48 H 0.989(2) 0.3475(19) 0.0290(14)
H49 H 0.858(3) 0.3421(18) 0.0731(12)
C44 C 1.0072(3) 0.22824(17) 0.09566(12)
H50 H 1.114(3) 0.2215(18) 0.0948(12)
C45 C 0.9713(3) 0.21725(19) 0.16701(13)
H51 H 0.867(3) 0.2111(19) 0.1656(13)
H52 H 1.001(3) 0.141(2) 0.1791(15)
C46 C 1.0333(3) 0.31437(18) 0.22208(13)
H53 H 1.000(2) 0.3083(17) 0.2666(13)
H54 H 1.137(3) 0.315(2) 0.2265(13)
C47 C 0.8365(2) 0.70569(17) 0.20092(11)
H55 H 0.938(2) 0.6930(16) 0.2040(11)
C48 C 0.7705(3) 0.66744(18) 0.12560(11)
H56 H 0.670(3) 0.6759(18) 0.1221(12)
H57 H 0.787(2) 0.5861(19) 0.1109(12)
C49 C 0.8343(3) 0.73575(18) 0.07759(12)
H58 H 0.940(3) 0.7209(17) 0.0816(11)
H59 H 0.794(2) 0.7108(18) 0.0303(13)
C50 C 0.8123(3) 0.85928(18) 0.09702(12)
H60 H 0.707(2) 0.8727(16) 0.0898(11)
C51 C 0.8673(3) 0.90049(18) 0.17313(12)
H61 H 0.839(2) 0.9800(19) 0.1854(12)
H62 H 0.970(3) 0.8991(19) 0.1792(13)
C52 C 0.8100(3) 0.82960(18) 0.22168(13)
H63 H 0.708(3) 0.8343(18) 0.2190(12)
H64 H 0.854(3) 0.8548(19) 0.2690(14)
loop_
_geom_bond_atom_site_label_1
_geom_bond_atom_site_label_2
_geom_bond_site_symmetry_1
_geom_bond_site_symmetry_2
O1 H1 1_555 1_555
O2 H2 1_555 1_555
N1 C1 1_555 1_555
N2 C2 1_555 1_555
C1 C2 1_555 1_555
C2 C9 1_555 1_555
C3 C1 1_555 1_555
C4 C3 1_555 1_555
H3 C4 1_555 1_555
C5 C4 1_555 1_555
H4 C5 1_555 1_555
C6 C5 1_555 1_555
H5 C6 1_555 1_555
C7 C6 1_555 1_555
H6 C7 1_555 1_555
C8 C3 1_555 1_555
H7 C8 1_555 1_555
C9 C10 1_555 1_555
C10 H8 1_555 1_555
C11 C10 1_555 1_555
H9 C11 1_555 1_555
C12 C11 1_555 1_555
H10 C12 1_555 1_555
C13 C12 1_555 1_555
H11 C13 1_555 1_555
C14 C9 1_555 1_555
H12 C14 1_555 1_555
C15 N1 1_555 1_555
H13 C15 1_555 1_555
C16 C15 1_555 1_555
H14 C16 1_555 1_555
H15 C16 1_555 1_555
C17 C16 1_555 1_555
H16 C17 1_555 1_555
H17 C17 1_555 1_555
C18 O1 1_555 1_555
H18 C18 1_555 1_555
C19 C18 1_555 1_555
H19 C19 1_555 1_555
H20 C19 1_555 1_555
C20 C15 1_555 1_555
H21 C20 1_555 1_555
H22 C20 1_555 1_555
C21 N2 1_555 1_555
H23 C21 1_555 1_555
C22 C21 1_555 1_555
H24 C22 1_555 1_555
H25 C22 1_555 1_555
C23 C22 1_555 1_555
H26 C23 1_555 1_555
H27 C23 1_555 1_555
C24 O2 1_555 1_555
H28 C24 1_555 1_555
C25 C24 1_555 1_555
H29 C25 1_555 1_555
H30 C25 1_555 1_555
C26 C21 1_555 1_555
H31 C26 1_555 1_555
H32 C26 1_555 1_555
O3 H33 1_555 1_555
O4 H34 1_555 1_555
N3 C27 1_555 1_555
N4 C28 1_555 1_555
C27 C28 1_555 1_555
C28 C35 1_555 1_555
C29 C27 1_555 1_555
C30 C29 1_555 1_555
H35 C30 1_555 1_555
C31 C30 1_555 1_555
H36 C31 1_555 1_555
C32 C31 1_555 1_555
H37 C32 1_555 1_555
C33 C32 1_555 1_555
H38 C33 1_555 1_555
C34 C29 1_555 1_555
H39 C34 1_555 1_555
C35 C36 1_555 1_555
C36 H40 1_555 1_555
C37 C36 1_555 1_555
H41 C37 1_555 1_555
C38 C37 1_555 1_555
H42 C38 1_555 1_555
C39 C38 1_555 1_555
H43 C39 1_555 1_555
C40 C35 1_555 1_555
H44 C40 1_555 1_555
C41 N4 1_555 1_555
H45 C41 1_555 1_555
C42 C41 1_555 1_555
H46 C42 1_555 1_555
H47 C42 1_555 1_555
C43 C42 1_555 1_555
H48 C43 1_555 1_555
H49 C43 1_555 1_555
C44 O3 1_555 1_555
H50 C44 1_555 1_555
C45 C44 1_555 1_555
H51 C45 1_555 1_555
H52 C45 1_555 1_555
C46 C41 1_555 1_555
H53 C46 1_555 1_555
H54 C46 1_555 1_555
C47 N3 1_555 1_555
H55 C47 1_555 1_555
C48 C47 1_555 1_555
H56 C48 1_555 1_555
H57 C48 1_555 1_555
C49 C48 1_555 1_555
H58 C49 1_555 1_555
H59 C49 1_555 1_555
C50 O4 1_555 1_555
H60 C50 1_555 1_555
C51 C50 1_555 1_555
H61 C51 1_555 1_555
H62 C51 1_555 1_555
C52 C47 1_555 1_555
H63 C52 1_555 1_555
H64 C52 1_555 1_555
C7 C8 1_555 1_555
C13 C14 1_555 1_555
C17 C18 1_555 1_555
C19 C20 1_555 1_555
C23 C24 1_555 1_555
C25 C26 1_555 1_555
C33 C34 1_555 1_555
C39 C40 1_555 1_555
C43 C44 1_555 1_555
C45 C46 1_555 1_555
C49 C50 1_555 1_555
C51 C52 1_555 1_555

#END
