
#######################################################################
#
#                 Cambridge Crystallographic Data Centre
#                                CCDC 
#
#######################################################################
#
# If this CIF has been generated from an entry in the Cambridge 
# Structural Database, then it will include bibliographic, chemical, 
# crystal, experimental, refinement or atomic coordinate data resulting 
# from the CCDC's data processing and validation procedures.
#
#######################################################################

data_TAHHIT
_chemical_formula_moiety         'C17 H16 Cl2 O2'
_chemical_name_systematic        
1,1-Dichloro-cis-2,3-bis(4-methoxyphenyl)cyclopropane
_chemical_properties_biological  
'mammary carcinoma cell activity in vitro suppressed'
_symmetry_cell_setting           monoclinic
_symmetry_space_group_name_H-M   'P 21/c'
_symmetry_Int_Tables_number      14
_space_group_name_Hall           '-P 2ybc'
loop_
_symmetry_equiv_pos_site_id
_symmetry_equiv_pos_as_xyz
1 x,y,z
2 -x,1/2+y,1/2-z
3 -x,-y,-z
4 x,1/2-y,1/2+z
_cell_length_a                   16.540(1)
_cell_length_b                   7.4749(7)
_cell_length_c                   12.333(3)
_cell_angle_alpha                90
_cell_angle_beta                 91.53(2)
_cell_angle_gamma                90
_cell_volume                     1524.24
_cell_formula_units_Z            4
loop_
_atom_site_label
_atom_site_type_symbol
_atom_site_fract_x
_atom_site_fract_y
_atom_site_fract_z
Cl1 Cl 0.71436(2) 0.30620(5) 0.53854(3)
Cl2 Cl 0.77473(2) 0.33783(5) 0.32192(3)
O1 O 0.49900(7) 0.9721(2) 0.7029(1)
O2 O 0.98698(6) 0.5986(2) 0.88616(9)
C1 C 0.75753(9) 0.4508(2) 0.4450(1)
C2 C 0.73314(9) 0.6448(2) 0.4417(1)
C3 C 0.81938(9) 0.5893(2) 0.4801(1)
C4 C 0.67064(8) 0.7228(2) 0.5129(1)
C5 C 0.58884(9) 0.6809(2) 0.4961(1)
C6 C 0.52926(9) 0.7609(2) 0.5570(1)
C7 C 0.55114(9) 0.8847(2) 0.6368(1)
C8 C 0.63227(9) 0.9292(2) 0.6529(1)
C9 C 0.69086(9) 0.8500(2) 0.5914(1)
C10 C 0.85896(8) 0.5997(2) 0.5900(1)
C11 C 0.82139(8) 0.5731(2) 0.6891(1)
C12 C 0.86585(9) 0.5744(2) 0.7856(1)
C13 C 0.94939(9) 0.6034(2) 0.7864(1)
C14 C 0.98768(9) 0.6339(2) 0.6893(1)
C15 C 0.94240(9) 0.6319(2) 0.5928(1)
C16 C 0.4155(1) 0.9268(3) 0.6929(2)
C17 C 1.0732(1) 0.6170(2) 0.8899(1)
H1 H 0.735(1) 0.691(2) 0.370(2)
H2 H 0.857(1) 0.608(2) 0.428(1)
H3 H 0.574(1) 0.598(3) 0.439(2)
H4 H 0.477(1) 0.730(3) 0.548(2)
H5 H 0.644(1) 1.017(3) 0.707(2)
H6 H 0.744(1) 0.874(3) 0.605(2)
H7 H 0.767(1) 0.548(2) 0.694(1)
H8 H 0.842(1) 0.547(2) 0.858(1)
H9 H 1.042(1) 0.650(3) 0.687(2)
H10 H 0.967(1) 0.651(2) 0.525(2)
H11 H 0.405(1) 0.796(3) 0.711(2)
H12 H 0.388(1) 0.996(3) 0.744(2)
H13 H 0.389(2) 0.968(3) 0.621(2)
H14 H 1.087(1) 0.735(3) 0.857(2)
H15 H 1.099(1) 0.519(3) 0.851(2)
H16 H 1.090(1) 0.606(3) 0.965(2)
loop_
_geom_bond_atom_site_label_1
_geom_bond_atom_site_label_2
_geom_bond_site_symmetry_1
_geom_bond_site_symmetry_2
Cl1 C1 1_555 1_555
Cl2 C1 1_555 1_555
O1 C7 1_555 1_555
O2 C13 1_555 1_555
C1 C2 1_555 1_555
C2 C3 1_555 1_555
C3 C1 1_555 1_555
C4 C2 1_555 1_555
C5 C4 1_555 1_555
C6 C5 1_555 1_555
C7 C6 1_555 1_555
C8 C7 1_555 1_555
C9 C4 1_555 1_555
C10 C3 1_555 1_555
C11 C10 1_555 1_555
C12 C11 1_555 1_555
C13 C12 1_555 1_555
C14 C13 1_555 1_555
C15 C10 1_555 1_555
C16 O1 1_555 1_555
C17 O2 1_555 1_555
H1 C2 1_555 1_555
H2 C3 1_555 1_555
H3 C5 1_555 1_555
H4 C6 1_555 1_555
H5 C8 1_555 1_555
H6 C9 1_555 1_555
H7 C11 1_555 1_555
H8 C12 1_555 1_555
H9 C14 1_555 1_555
H10 C15 1_555 1_555
H11 C16 1_555 1_555
H12 C16 1_555 1_555
H13 C16 1_555 1_555
H14 C17 1_555 1_555
H15 C17 1_555 1_555
H16 C17 1_555 1_555
C8 C9 1_555 1_555
C14 C15 1_555 1_555

#END
