
#######################################################################
#
#                 Cambridge Crystallographic Data Centre
#                                CCDC 
#
#######################################################################
#
# If this CIF has been generated from an entry in the Cambridge 
# Structural Database, then it will include bibliographic, chemical, 
# crystal, experimental, refinement or atomic coordinate data resulting 
# from the CCDC's data processing and validation procedures.
#
#######################################################################

data_TAHTII
_chemical_formula_moiety         'C32 H21 Br1 N2 O2'
_chemical_name_systematic        
8-(3-bromophenyl)-2,4,10-triphenyl-2,3-diazaspiro[4.5]deca-3,7,9-triene-1,6-dione
_symmetry_cell_setting           orthorhombic
_symmetry_space_group_name_H-M   'P 21 21 21'
_symmetry_Int_Tables_number      19
_space_group_name_Hall           'P 2ac 2ab'
loop_
_symmetry_equiv_pos_site_id
_symmetry_equiv_pos_as_xyz
1 x,y,z
2 1/2+x,1/2-y,-z
3 -x,1/2+y,1/2-z
4 1/2-x,-y,1/2+z
_cell_length_a                   8.3038(8)
_cell_length_b                   11.9137(10)
_cell_length_c                   25.371(2)
_cell_angle_alpha                90
_cell_angle_beta                 90
_cell_angle_gamma                90
_cell_volume                     2509.93
_exptl_crystal_colour            colorless
_exptl_crystal_description       block
_cell_formula_units_Z            4
_exptl_crystal_recrystallization_method 'dichloromethane/petroleum ether'
loop_
_atom_site_label
_atom_site_type_symbol
_atom_site_fract_x
_atom_site_fract_y
_atom_site_fract_z
Br1 Br 0.89667(14) 0.64629(7) -0.14860(3)
O1 O 0.5252(8) 0.5416(4) 0.1706(2)
O2 O 0.9337(7) 0.4781(4) 0.11481(19)
N1 N 0.7113(8) 0.3180(4) 0.2039(2)
N2 N 0.8465(7) 0.3818(5) 0.1893(2)
C1 C 0.6602(8) 0.3975(5) 0.1217(2)
C2 C 0.6577(8) 0.3543(5) 0.0661(2)
C3 C 0.6456(10) 0.4270(5) 0.0258(3)
H1 H 0.6567 0.3996 -0.0092
C4 C 0.6159(10) 0.5465(5) 0.0338(3)
C5 C 0.5793(10) 0.5853(6) 0.0819(3)
H2 H 0.5555 0.6629 0.0859
C6 C 0.5745(10) 0.5141(6) 0.1280(3)
C7 C 0.6091(9) 0.3206(5) 0.1662(2)
C8 C 0.8332(10) 0.4243(6) 0.1394(3)
C9 C 0.4560(9) 0.2610(5) 0.1688(3)
C10 C 0.3426(9) 0.2707(6) 0.1291(3)
H3 H 0.3625 0.3198 0.1003
C11 C 0.2012(10) 0.2101(7) 0.1306(3)
H4 H 0.1254 0.2166 0.1027
C12 C 0.1699(11) 0.1404(7) 0.1724(3)
H5 H 0.0723 0.0989 0.1736
C13 C 0.2811(11) 0.1306(7) 0.2128(3)
H6 H 0.2597 0.0821 0.2416
C14 C 0.4232(10) 0.1911(6) 0.2113(3)
H7 H 0.4984 0.1849 0.2394
C15 C 0.9748(10) 0.3970(7) 0.2249(3)
C16 C 1.0886(14) 0.4796(10) 0.2170(4)
H8 H 1.0826 0.5268 0.1869
C17 C 1.2116(14) 0.4935(12) 0.2533(4)
H9 H 1.2924 0.5482 0.2468
C18 C 1.2195(12) 0.4323(11) 0.2969(4)
H10 H 1.3014 0.4460 0.3223
C19 C 1.1095(14) 0.3498(10) 0.3049(4)
H11 H 1.1190 0.3028 0.3350
C20 C 0.9824(12) 0.3328(9) 0.2697(3)
H12 H 0.9026 0.2776 0.2766
C21 C 0.6815(9) 0.2311(5) 0.0554(3)
C22 C 0.6018(11) 0.1830(5) 0.0129(3)
H13 H 0.5306 0.2271 -0.0078
C23 C 0.6258(12) 0.0700(6) 0.0006(3)
H14 H 0.5714 0.0369 -0.0285
C24 C 0.7296(11) 0.0070(6) 0.0311(3)
H15 H 0.7472 -0.0696 0.0226
C25 C 0.8072(10) 0.0527(6) 0.0732(3)
H16 H 0.8775 0.0079 0.0939
C26 C 0.7830(9) 0.1656(5) 0.0858(3)
H17 H 0.8365 0.1975 0.1153
C27 C 0.6228(10) 0.6221(5) -0.0122(2)
C28 C 0.5258(10) 0.7178(5) -0.0154(3)
H18 H 0.4487 0.7331 0.0113
C29 C 0.5433(12) 0.7905(6) -0.0579(3)
H19 H 0.4781 0.8559 -0.0596
C30 C 0.6503(11) 0.7704(6) -0.0967(3)
H20 H 0.6605 0.8214 -0.1252
C31 C 0.7462(10) 0.6742(6) -0.0947(3)
C32 C 0.7316(10) 0.6006(6) -0.0533(3)
H21 H 0.7959 0.5346 -0.0524
loop_
_geom_bond_atom_site_label_1
_geom_bond_atom_site_label_2
_geom_bond_site_symmetry_1
_geom_bond_site_symmetry_2
Br1 C31 1_555 1_555
O1 C6 1_555 1_555
O2 C8 1_555 1_555
N1 N2 1_555 1_555
N2 C8 1_555 1_555
C1 C2 1_555 1_555
C2 C3 1_555 1_555
C3 H1 1_555 1_555
C4 C3 1_555 1_555
C5 C4 1_555 1_555
H2 C5 1_555 1_555
C6 C1 1_555 1_555
C7 N1 1_555 1_555
C8 C1 1_555 1_555
C9 C7 1_555 1_555
C10 C9 1_555 1_555
H3 C10 1_555 1_555
C11 C10 1_555 1_555
H4 C11 1_555 1_555
C12 C11 1_555 1_555
H5 C12 1_555 1_555
C13 C12 1_555 1_555
H6 C13 1_555 1_555
C14 C9 1_555 1_555
H7 C14 1_555 1_555
C15 N2 1_555 1_555
C16 C15 1_555 1_555
H8 C16 1_555 1_555
C17 C16 1_555 1_555
H9 C17 1_555 1_555
C18 C17 1_555 1_555
H10 C18 1_555 1_555
C19 C18 1_555 1_555
H11 C19 1_555 1_555
C20 C15 1_555 1_555
H12 C20 1_555 1_555
C21 C2 1_555 1_555
C22 C21 1_555 1_555
H13 C22 1_555 1_555
C23 C22 1_555 1_555
H14 C23 1_555 1_555
C24 C23 1_555 1_555
H15 C24 1_555 1_555
C25 C24 1_555 1_555
H16 C25 1_555 1_555
C26 C21 1_555 1_555
H17 C26 1_555 1_555
C27 C4 1_555 1_555
C28 C27 1_555 1_555
H18 C28 1_555 1_555
C29 C28 1_555 1_555
H19 C29 1_555 1_555
C30 C29 1_555 1_555
H20 C30 1_555 1_555
C31 C30 1_555 1_555
C32 C27 1_555 1_555
H21 C32 1_555 1_555
C1 C7 1_555 1_555
C5 C6 1_555 1_555
C13 C14 1_555 1_555
C19 C20 1_555 1_555
C25 C26 1_555 1_555
C31 C32 1_555 1_555

#END
