
#######################################################################
#
#                 Cambridge Crystallographic Data Centre
#                                CCDC 
#
#######################################################################
#
# If this CIF has been generated from an entry in the Cambridge 
# Structural Database, then it will include bibliographic, chemical, 
# crystal, experimental, refinement or atomic coordinate data resulting 
# from the CCDC's data processing and validation procedures.
#
#######################################################################

data_TAHYAD
_chemical_formula_moiety         'C20 H17 N1 O1'
_chemical_name_systematic        N-Benzyl-4-phenylbenzamide
_symmetry_cell_setting           monoclinic
_symmetry_space_group_name_H-M   'P 21/c'
_symmetry_Int_Tables_number      14
_space_group_name_Hall           '-P 2ybc'
loop_
_symmetry_equiv_pos_site_id
_symmetry_equiv_pos_as_xyz
1 x,y,z
2 -x,1/2+y,1/2-z
3 -x,-y,-z
4 x,1/2-y,1/2+z
_cell_length_a                   10.612(3)
_cell_length_b                   15.764(4)
_cell_length_c                   9.854(3)
_cell_angle_alpha                90
_cell_angle_beta                 112.800(4)
_cell_angle_gamma                90
_cell_volume                     1519.65
_exptl_crystal_colour            yellow
_exptl_crystal_description       prism
_cell_formula_units_Z            4
loop_
_atom_site_label
_atom_site_type_symbol
_atom_site_fract_x
_atom_site_fract_y
_atom_site_fract_z
O1 O 0.1028(7) 0.2724(4) 0.4074(6)
N1 N 0.0705(7) 0.2357(5) 0.1772(6)
C1 C 0.1111(7) 0.2901(5) 0.2894(8)
C2 C 0.1674(7) 0.3735(5) 0.2684(7)
C3 C 0.1552(9) 0.4045(6) 0.1306(8)
C4 C 0.2072(9) 0.4824(6) 0.1196(8)
C5 C 0.2747(8) 0.5334(5) 0.2412(8)
C6 C 0.2853(8) 0.5015(6) 0.3784(8)
C7 C 0.2333(8) 0.4237(6) 0.3889(8)
C8 C 0.3288(8) 0.6176(5) 0.2241(8)
C9 C 0.2692(10) 0.6658(6) 0.0985(10)
C10 C 0.3287(11) 0.7412(6) 0.0832(12)
C11 C 0.4483(11) 0.7697(7) 0.1896(12)
C12 C 0.5069(10) 0.7242(7) 0.3174(11)
C13 C 0.4492(10) 0.6484(6) 0.3352(10)
C14 C 0.0240(8) 0.1506(6) 0.1853(8)
C15 C 0.1340(7) 0.0856(5) 0.2311(7)
C16 C 0.2714(8) 0.1051(5) 0.3040(8)
C17 C 0.3676(8) 0.0431(6) 0.3387(9)
C18 C 0.3333(11) -0.0395(6) 0.3050(10)
C19 C 0.2014(11) -0.0612(6) 0.2345(9)
C20 C 0.1018(9) 0.0003(6) 0.1957(8)
H1 H 0.081(6) 0.246(4) 0.106(7)
H2 H 0.111(8) 0.368(5) 0.055(9)
H3 H 0.192(8) 0.509(5) 0.036(10)
H4 H 0.332(7) 0.531(4) 0.459(8)
H5 H 0.246(6) 0.404(4) 0.474(7)
H6 H 0.177(10) 0.661(6) 0.021(11)
H7 H 0.283(7) 0.769(5) 0.008(8)
H8 H 0.495(10) 0.817(6) 0.198(10)
H9 H 0.589(7) 0.737(4) 0.390(7)
H10 H 0.493(8) 0.609(5) 0.422(9)
H11 H -0.055(7) 0.139(4) 0.085(7)
H12 H -0.014(7) 0.155(5) 0.252(8)
H13 H 0.288(6) 0.162(4) 0.319(7)
H14 H 0.449(6) 0.056(4) 0.388(6)
H15 H 0.398(9) -0.083(6) 0.323(9)
H16 H 0.169(9) -0.119(6) 0.201(9)
H17 H 0.012(8) -0.009(5) 0.132(9)
loop_
_geom_bond_atom_site_label_1
_geom_bond_atom_site_label_2
_geom_bond_site_symmetry_1
_geom_bond_site_symmetry_2
O1 C1 1_555 1_555
N1 C1 1_555 1_555
C1 C2 1_555 1_555
C2 C3 1_555 1_555
C3 C4 1_555 1_555
C4 C5 1_555 1_555
C5 C6 1_555 1_555
C6 C7 1_555 1_555
C7 C2 1_555 1_555
C8 C5 1_555 1_555
C9 C8 1_555 1_555
C10 C9 1_555 1_555
C11 C10 1_555 1_555
C12 C11 1_555 1_555
C13 C8 1_555 1_555
C14 N1 1_555 1_555
C15 C14 1_555 1_555
C16 C15 1_555 1_555
C17 C16 1_555 1_555
C18 C17 1_555 1_555
C19 C18 1_555 1_555
C20 C15 1_555 1_555
H1 N1 1_555 1_555
H2 C3 1_555 1_555
H3 C4 1_555 1_555
H4 C6 1_555 1_555
H5 C7 1_555 1_555
H6 C9 1_555 1_555
H7 C10 1_555 1_555
H8 C11 1_555 1_555
H9 C12 1_555 1_555
H10 C13 1_555 1_555
H11 C14 1_555 1_555
H12 C14 1_555 1_555
H13 C16 1_555 1_555
H14 C17 1_555 1_555
H15 C18 1_555 1_555
H16 C19 1_555 1_555
H17 C20 1_555 1_555
C12 C13 1_555 1_555
C19 C20 1_555 1_555

#END
