
#######################################################################
#
#                 Cambridge Crystallographic Data Centre
#                                CCDC 
#
#######################################################################
#
# If this CIF has been generated from an entry in the Cambridge 
# Structural Database, then it will include bibliographic, chemical, 
# crystal, experimental, refinement or atomic coordinate data resulting 
# from the CCDC's data processing and validation procedures.
#
#######################################################################

data_TAHYEH
_chemical_formula_moiety         'C14 H12 N2 O3'
_chemical_name_systematic        N-Benzyl-4-nitrobenzamide
_symmetry_cell_setting           monoclinic
_symmetry_space_group_name_H-M   'P 21/c'
_symmetry_Int_Tables_number      14
_space_group_name_Hall           '-P 2ybc'
loop_
_symmetry_equiv_pos_site_id
_symmetry_equiv_pos_as_xyz
1 x,y,z
2 -x,1/2+y,1/2-z
3 -x,-y,-z
4 x,1/2-y,1/2+z
_cell_length_a                   4.8193(5)
_cell_length_b                   22.234(2)
_cell_length_c                   11.3997(11)
_cell_angle_alpha                90
_cell_angle_beta                 93.455(2)
_cell_angle_gamma                90
_cell_volume                     1219.28
_exptl_crystal_colour            yellow
_exptl_crystal_description       prism
_cell_formula_units_Z            4
loop_
_atom_site_label
_atom_site_type_symbol
_atom_site_fract_x
_atom_site_fract_y
_atom_site_fract_z
O1 O 1.4064(2) 0.59909(5) 0.50151(10)
O2 O 0.9852(4) 0.39002(7) 0.90234(15)
O3 O 0.7135(3) 0.45602(7) 0.96954(13)
N1 N 0.9757(3) 0.63926(6) 0.48981(11)
N2 N 0.8775(3) 0.43951(6) 0.89915(12)
C1 C 1.1664(3) 0.60069(6) 0.53465(13)
C2 C 1.0813(3) 0.55912(6) 0.62998(12)
C3 C 1.2171(3) 0.50387(7) 0.64247(14)
C4 C 1.1517(3) 0.46445(7) 0.73041(14)
C5 C 0.9509(3) 0.48153(7) 0.80610(13)
C6 C 0.8154(3) 0.53636(7) 0.79733(13)
C7 C 0.8811(3) 0.57518(7) 0.70772(13)
C8 C 1.0491(3) 0.68017(7) 0.39577(14)
C9 C 0.8210(3) 0.72506(6) 0.36654(13)
C10 C 0.6672(4) 0.72269(8) 0.25954(15)
C11 C 0.4630(4) 0.76547(10) 0.23237(18)
C12 C 0.4084(4) 0.80980(9) 0.3123(2)
C13 C 0.5603(4) 0.81258(8) 0.41882(19)
C14 C 0.7672(4) 0.77067(7) 0.44534(16)
H1 H 0.803(5) 0.6326(10) 0.5001(17)
H2 H 1.356(4) 0.4931(9) 0.5907(17)
H3 H 1.246(4) 0.4266(9) 0.7398(17)
H4 H 0.680(4) 0.5464(10) 0.8504(18)
H5 H 0.790(4) 0.6137(8) 0.7020(16)
H6 H 1.090(4) 0.6569(8) 0.3270(16)
H7 H 1.221(4) 0.7012(9) 0.4217(16)
H8 H 0.707(4) 0.6905(10) 0.2031(19)
H9 H 0.360(5) 0.7630(11) 0.158(2)
H10 H 0.266(5) 0.8391(11) 0.296(2)
H11 H 0.527(5) 0.8432(10) 0.473(2)
H12 H 0.881(5) 0.7730(9) 0.520(2)
loop_
_geom_bond_atom_site_label_1
_geom_bond_atom_site_label_2
_geom_bond_site_symmetry_1
_geom_bond_site_symmetry_2
O1 C1 1_555 1_555
O2 N2 1_555 1_555
O3 N2 1_555 1_555
N1 C1 1_555 1_555
N2 C5 1_555 1_555
C1 C2 1_555 1_555
C2 C3 1_555 1_555
C3 C4 1_555 1_555
C4 C5 1_555 1_555
C5 C6 1_555 1_555
C6 C7 1_555 1_555
C7 C2 1_555 1_555
C8 N1 1_555 1_555
C9 C8 1_555 1_555
C10 C9 1_555 1_555
C11 C10 1_555 1_555
C12 C11 1_555 1_555
C13 C12 1_555 1_555
C14 C9 1_555 1_555
H1 N1 1_555 1_555
H2 C3 1_555 1_555
H3 C4 1_555 1_555
H4 C6 1_555 1_555
H5 C7 1_555 1_555
H6 C8 1_555 1_555
H7 C8 1_555 1_555
H8 C10 1_555 1_555
H9 C11 1_555 1_555
H10 C12 1_555 1_555
H11 C13 1_555 1_555
H12 C14 1_555 1_555
C13 C14 1_555 1_555

#END
