
#######################################################################
#
#                 Cambridge Crystallographic Data Centre
#                                CCDC 
#
#######################################################################
#
# If this CIF has been generated from an entry in the Cambridge 
# Structural Database, then it will include bibliographic, chemical, 
# crystal, experimental, refinement or atomic coordinate data resulting 
# from the CCDC's data processing and validation procedures.
#
#######################################################################

data_TAJFIT
_chemical_formula_moiety         'C23 H19 N1 O2'
_chemical_name_systematic        
1-Phenoxy-9b-phenyl-1,4,5,9b-tetrahydro-2H-azeto(1,2-a)isoquinolin-2-one
_symmetry_cell_setting           monoclinic
_symmetry_space_group_name_H-M   'C 2/c'
_symmetry_Int_Tables_number      15
_space_group_name_Hall           '-C 2yn'
loop_
_symmetry_equiv_pos_site_id
_symmetry_equiv_pos_as_xyz
1 x,y,z
2 1/2+x,1/2+y,z
3 -x,y,1/2-z
4 1/2-x,1/2+y,1/2-z
5 -x,-y,-z
6 1/2-x,1/2-y,-z
7 x,-y,1/2+z
8 1/2+x,1/2-y,1/2+z
_cell_length_a                   23.054(1)
_cell_length_b                   7.315(2)
_cell_length_c                   23.713(4)
_cell_angle_alpha                90
_cell_angle_beta                 115.08(6)
_cell_angle_gamma                90
_cell_volume                     3621.93
_cell_formula_units_Z            8
loop_
_atom_site_label
_atom_site_type_symbol
_atom_site_fract_x
_atom_site_fract_y
_atom_site_fract_z
O1 O 0.2789(2) 0.1646(6) 0.6520(2)
O2 O 0.2126(2) 0.5049(5) 0.6820(2)
C1 C 0.2239(2) 0.1659(7) 0.6652(2)
C2 C 0.1255(3) -0.1262(8) 0.6709(3)
C3 C 0.1579(2) 0.1109(7) 0.6099(2)
C4 C 0.1574(3) -0.1641(9) 0.5447(3)
N1 N 0.1439(2) 0.3073(6) 0.6040(2)
C5 C 0.1634(2) 0.0240(8) 0.5536(2)
C6 C 0.0786(3) -0.2036(10) 0.6854(3)
C7 C 0.3771(3) 0.0452(11) 0.6647(3)
C8 C 0.1971(3) 0.3588(8) 0.6551(3)
C9 C 0.3191(2) 0.0152(8) 0.6693(2)
C10 C 0.0013(3) 0.0027(11) 0.6157(4)
C11 C 0.1101(2) 0.0177(7) 0.6283(2)
C12 C 0.1757(3) 0.1319(11) 0.5118(3)
C13 C 0.1840(3) 0.0433(13) 0.4619(3)
C14 C 0.0174(3) -0.1393(11) 0.6583(4)
C15 C 0.4218(3) -0.0978(12) 0.6827(3)
C16 C 0.0472(3) 0.0789(8) 0.6000(3)
C17 C 0.3070(3) -0.1465(9) 0.6900(3)
C18 C 0.1784(3) -0.1355(15) 0.4541(3)
C19 C 0.3524(3) -0.2833(11) 0.7080(3)
C20 C 0.0311(3) 0.2325(10) 0.5525(3)
C21 C 0.1649(4) -0.2442(12) 0.4951(4)
C22 C 0.0792(3) 0.3895(10) 0.5754(4)
C23 C 0.4105(3) -0.2585(12) 0.7048(3)
H1 H 0.2302(21) 0.1105(66) 0.7070(21)
H2 H 0.1690(23) -0.1765(70) 0.6914(21)
H3 H 0.1787(24) 0.2679(77) 0.5164(23)
H4 H 0.1502(26) -0.2279(82) 0.5753(26)
H5 H 0.3815(26) 0.1599(83) 0.6389(25)
H6 H -0.0140(27) -0.1804(82) 0.6700(25)
H7 H 0.4472(32) -0.365(10) 0.7125(31)
H8 H 0.0376(27) 0.1811(89) 0.5103(29)
H9 H 0.0715(31) 0.464(10) 0.6068(30)
H10 H 0.2678(31) -0.1709(97) 0.6914(29)
H11 H 0.1997(30) 0.0927(95) 0.4305(31)
H12 H -0.0110(32) 0.3117(95) 0.5422(30)
H13 H 0.0891(27) -0.3010(86) 0.7144(26)
H14 H 0.0749 0.4697(97) 0.5397(29)
H15 H 0.3417(31) -0.3922(96) 0.7263(30)
H16 H 0.1638(33) -0.360(10) 0.4920(32)
H17 H 0.4631(34) -0.081(11) 0.6791(32)
H18 H 0.1839(34) -0.193(11) 0.4184(35)
H19 H -0.0404(35) -0.069(11) 0.5987(33)
loop_
_geom_bond_atom_site_label_1
_geom_bond_atom_site_label_2
_geom_bond_site_symmetry_1
_geom_bond_site_symmetry_2
O1 C1 1_555 1_555
O2 C8 1_555 1_555
C1 C3 1_555 1_555
C2 C6 1_555 1_555
C3 N1 1_555 1_555
C4 C5 1_555 1_555
N1 C8 1_555 1_555
C5 C3 1_555 1_555
C6 C14 1_555 1_555
C7 C9 1_555 1_555
C8 C1 1_555 1_555
C9 O1 1_555 1_555
C10 C14 1_555 1_555
C11 C2 1_555 1_555
C12 C5 1_555 1_555
C13 C12 1_555 1_555
C14 H6 1_555 1_555
C15 C7 1_555 1_555
C16 C10 1_555 1_555
C17 C9 1_555 1_555
C18 C13 1_555 1_555
C19 C17 1_555 1_555
C20 C16 1_555 1_555
C21 C4 1_555 1_555
C22 N1 1_555 1_555
C23 C15 1_555 1_555
H1 C1 1_555 1_555
H2 C2 1_555 1_555
H3 C12 1_555 1_555
H4 C4 1_555 1_555
H5 C7 1_555 1_555
H7 C23 1_555 1_555
H8 C20 1_555 1_555
H9 C22 1_555 1_555
H10 C17 1_555 1_555
H11 C13 1_555 1_555
H12 C20 1_555 1_555
H13 C6 1_555 1_555
H14 C22 1_555 1_555
H15 C19 1_555 1_555
H16 C21 1_555 1_555
H17 C15 1_555 1_555
H18 C18 1_555 1_555
H19 C10 1_555 1_555
C3 C11 1_555 1_555
C11 C16 1_555 1_555
C18 C21 1_555 1_555
C19 C23 1_555 1_555
C20 C22 1_555 1_555

#END
