
#######################################################################
#
#                 Cambridge Crystallographic Data Centre
#                                CCDC 
#
#######################################################################
#
# If this CIF has been generated from an entry in the Cambridge 
# Structural Database, then it will include bibliographic, chemical, 
# crystal, experimental, refinement or atomic coordinate data resulting 
# from the CCDC's data processing and validation procedures.
#
#######################################################################

data_TAJHAP
_chemical_formula_moiety         'C20 H16 N2 O2,C1 H4 O1'
_chemical_name_systematic        
'5-(4-(benzyloxy)phenyl)-3-(2-furyl)-1H-pyrazole methanol solvate'
_symmetry_cell_setting           monoclinic
_symmetry_space_group_name_H-M   'P 21'
_symmetry_Int_Tables_number      4
_space_group_name_Hall           'P 2yb'
loop_
_symmetry_equiv_pos_site_id
_symmetry_equiv_pos_as_xyz
1 x,y,z
2 -x,1/2+y,-z
_cell_length_a                   16.080(3)
_cell_length_b                   7.4574(14)
_cell_length_c                   16.156(3)
_cell_angle_alpha                90
_cell_angle_beta                 110.796(4)
_cell_angle_gamma                90
_cell_volume                     1811.13
_exptl_crystal_colour            red
_exptl_crystal_description       block
_cell_formula_units_Z            4
loop_
_atom_site_label
_atom_site_type_symbol
_atom_site_fract_x
_atom_site_fract_y
_atom_site_fract_z
O1 O -0.13815(19) 0.2707(6) 0.0313(2)
O2 O 0.47561(14) 0.3123(4) 0.40547(15)
N1 N 0.06158(17) 0.3079(5) -0.02380(19)
N2 N 0.14647(17) 0.3099(5) 0.03411(18)
H1 H 0.1923 0.3153 0.0187
C1 C -0.2222(3) 0.2730(8) -0.1091(3)
H2 H -0.2711 0.2706 -0.1617
C2 C -0.2246(2) 0.2631(7) -0.0291(3)
H3 H -0.2757 0.2527 -0.0151
C3 C -0.1328(2) 0.2879(7) -0.1015(2)
H4 H -0.1115 0.2970 -0.1479
C4 C -0.0852(2) 0.2864(6) -0.0170(3)
C5 C 0.0112(2) 0.2968(5) 0.0257(2)
C6 C 0.0638(2) 0.2941(6) 0.1150(2)
H5 H 0.0447 0.2879 0.1629
C7 C 0.1502(2) 0.3027(5) 0.1177(2)
C8 C 0.2359(2) 0.3030(5) 0.1926(2)
C9 C 0.3114(2) 0.2305(6) 0.1835(2)
H6 H 0.3074 0.1800 0.1296
C10 C 0.3923(2) 0.2314(5) 0.2522(2)
H7 H 0.4422 0.1825 0.2444
C11 C 0.3990(2) 0.3045(5) 0.3324(2)
C12 C 0.3245(2) 0.3782(5) 0.3426(2)
H8 H 0.3288 0.4295 0.3965
C13 C 0.2442(2) 0.3765(6) 0.2740(2)
H9 H 0.1945 0.4256 0.2821
C14 C 0.5532(2) 0.2358(6) 0.3974(2)
H10 H 0.5642 0.2894 0.3475
H11 H 0.5444 0.1080 0.3864
C15 C 0.6322(2) 0.2666(5) 0.4807(2)
C16 C 0.7144(2) 0.2023(6) 0.4843(3)
H12 H 0.7188 0.1424 0.4355
C17 C 0.7889(3) 0.2251(6) 0.5580(3)
H13 H 0.8433 0.1804 0.5592
C18 C 0.7833(2) 0.3145(6) 0.6306(3)
H14 H 0.8337 0.3299 0.6810
C19 C 0.7023(3) 0.3807(6) 0.6278(3)
H15 H 0.6980 0.4418 0.6763
C20 C 0.6274(2) 0.3566(6) 0.5530(2)
H16 H 0.5730 0.4018 0.5516
O3 O 1.39773(16) 0.7115(4) 0.92630(18)
O4 O 0.79621(15) 0.8042(4) 0.42973(16)
N3 N 1.22851(19) 0.6112(5) 0.8239(2)
N4 N 1.14294(19) 0.6051(5) 0.7666(2)
H17 H 1.1039 0.5287 0.7693
C21 C 1.5004(3) 0.8787(7) 0.8999(3)
H18 H 1.5541 0.9343 0.9060
C22 C 1.4846(3) 0.7698(7) 0.9574(3)
H19 H 1.5267 0.7371 1.0116
C23 C 1.4190(3) 0.8935(5) 0.8270(3)
H20 H 1.4086 0.9623 0.7762
C24 C 1.3602(2) 0.7891(5) 0.8456(2)
C25 C 1.2665(2) 0.7459(5) 0.7978(2)
C26 C 1.2062(2) 0.8272(6) 0.7229(2)
H21 H 1.2168 0.9236 0.6915
C27 C 1.1274(2) 0.7347(5) 0.7050(2)
C28 C 1.0394(2) 0.7573(5) 0.6348(2)
C29 C 1.0300(2) 0.8450(6) 0.5572(2)
H22 H 1.0797 0.8959 0.5498
C30 C 0.9485(2) 0.8587(6) 0.4902(3)
H23 H 0.9436 0.9179 0.4380
C31 C 0.8737(2) 0.7846(6) 0.5003(2)
C32 C 0.8822(2) 0.7014(6) 0.5787(2)
H24 H 0.8320 0.6561 0.5874
C33 C 0.9640(2) 0.6844(6) 0.6444(2)
H25 H 0.9690 0.6232 0.6961
C34 C 0.7191(2) 0.7258(6) 0.4378(2)
H26 H 0.7092 0.7750 0.4891
H27 H 0.7275 0.5974 0.4460
C35 C 0.6400(2) 0.7631(5) 0.3561(2)
C36 C 0.6454(2) 0.8466(6) 0.2822(2)
H28 H 0.7005 0.8841 0.2822
C37 C 0.5703(3) 0.8759(6) 0.2080(3)
H29 H 0.5750 0.9345 0.1590
C38 C 0.4890(2) 0.8185(6) 0.2068(3)
H30 H 0.4386 0.8348 0.1565
C39 C 0.4824(2) 0.7376(6) 0.2797(3)
H31 H 0.4270 0.7005 0.2791
C40 C 0.5563(2) 0.7097(5) 0.3544(3)
H32 H 0.5505 0.6551 0.4038
O5 O 0.72541(15) 0.8437(4) 0.04578(17)
H33 H 0.7432 0.9331 0.0770
C41 C 0.7246(3) 0.6790(7) 0.0872(4)
H34 H 0.7816 0.6221 0.1015
H35 H 0.6794 0.6034 0.0479
H36 H 0.7124 0.6987 0.1404
O6 O 0.96649(17) 0.8404(5) 0.20260(17)
H37 H 0.9574 0.8278 0.1497
C42 C 0.9716(3) 0.6716(8) 0.2421(3)
H38 H 0.9779 0.6862 0.3031
H39 H 1.0221 0.6077 0.2386
H40 H 0.9184 0.6051 0.2118
loop_
_geom_bond_atom_site_label_1
_geom_bond_atom_site_label_2
_geom_bond_site_symmetry_1
_geom_bond_site_symmetry_2
O1 C2 1_555 1_555
O2 C11 1_555 1_555
N1 N2 1_555 1_555
N2 H1 1_555 1_555
C1 H2 1_555 1_555
C2 C1 1_555 1_555
H3 C2 1_555 1_555
C3 C1 1_555 1_555
H4 C3 1_555 1_555
C4 O1 1_555 1_555
C5 N1 1_555 1_555
C6 C5 1_555 1_555
H5 C6 1_555 1_555
C7 N2 1_555 1_555
C8 C7 1_555 1_555
C9 C8 1_555 1_555
H6 C9 1_555 1_555
C10 C9 1_555 1_555
H7 C10 1_555 1_555
C11 C10 1_555 1_555
C12 C11 1_555 1_555
H8 C12 1_555 1_555
C13 C8 1_555 1_555
H9 C13 1_555 1_555
C14 O2 1_555 1_555
H10 C14 1_555 1_555
H11 C14 1_555 1_555
C15 C14 1_555 1_555
C16 C15 1_555 1_555
H12 C16 1_555 1_555
C17 C16 1_555 1_555
H13 C17 1_555 1_555
C18 C17 1_555 1_555
H14 C18 1_555 1_555
C19 C18 1_555 1_555
H15 C19 1_555 1_555
C20 C15 1_555 1_555
H16 C20 1_555 1_555
O3 C22 1_555 1_555
O4 C31 1_555 1_555
N3 N4 1_555 1_555
N4 H17 1_555 1_555
C21 H18 1_555 1_555
C22 C21 1_555 1_555
H19 C22 1_555 1_555
C23 C21 1_555 1_555
H20 C23 1_555 1_555
C24 O3 1_555 1_555
C25 N3 1_555 1_555
C26 C25 1_555 1_555
H21 C26 1_555 1_555
C27 N4 1_555 1_555
C28 C27 1_555 1_555
C29 C28 1_555 1_555
H22 C29 1_555 1_555
C30 C29 1_555 1_555
H23 C30 1_555 1_555
C31 C30 1_555 1_555
C32 C31 1_555 1_555
H24 C32 1_555 1_555
C33 C28 1_555 1_555
H25 C33 1_555 1_555
C34 O4 1_555 1_555
H26 C34 1_555 1_555
H27 C34 1_555 1_555
C35 C34 1_555 1_555
C36 C35 1_555 1_555
H28 C36 1_555 1_555
C37 C36 1_555 1_555
H29 C37 1_555 1_555
C38 C37 1_555 1_555
H30 C38 1_555 1_555
C39 C38 1_555 1_555
H31 C39 1_555 1_555
C40 C35 1_555 1_555
H32 C40 1_555 1_555
O5 H33 1_555 1_555
C41 O5 1_555 1_555
H34 C41 1_555 1_555
H35 C41 1_555 1_555
H36 C41 1_555 1_555
O6 H37 1_555 1_555
C42 O6 1_555 1_555
H38 C42 1_555 1_555
H39 C42 1_555 1_555
H40 C42 1_555 1_555
C3 C4 1_555 1_555
C4 C5 1_555 1_555
C6 C7 1_555 1_555
C12 C13 1_555 1_555
C19 C20 1_555 1_555
C23 C24 1_555 1_555
C24 C25 1_555 1_555
C26 C27 1_555 1_555
C32 C33 1_555 1_555
C39 C40 1_555 1_555

#END
