
#######################################################################
#
#                 Cambridge Crystallographic Data Centre
#                                CCDC 
#
#######################################################################
#
# If this CIF has been generated from an entry in the Cambridge 
# Structural Database, then it will include bibliographic, chemical, 
# crystal, experimental, refinement or atomic coordinate data resulting 
# from the CCDC's data processing and validation procedures.
#
#######################################################################

data_TAJHET
_chemical_formula_moiety         '0.5(C23 H22 N2),0.5(C23 H22 N2)'
_chemical_name_systematic        
'3-(4-t-Butylphenyl)-5-(2-naphthyl)-1H-pyrazole 5-(4-t-butylphenyl)-3-(2-naphthyl)-1H-pyrazole'
_symmetry_cell_setting           triclinic
_symmetry_space_group_name_H-M   'P -1'
_symmetry_Int_Tables_number      2
_space_group_name_Hall           '-P 1'
loop_
_symmetry_equiv_pos_site_id
_symmetry_equiv_pos_as_xyz
1 x,y,z
2 -x,-y,-z
_cell_length_a                   10.2430(3)
_cell_length_b                   13.2720(4)
_cell_length_c                   14.1420(4)
_cell_angle_alpha                89.9760(10)
_cell_angle_beta                 77.5260(10)
_cell_angle_gamma                77.0560(10)
_cell_volume                     1827.13
_exptl_crystal_colour            colorless
_exptl_crystal_description       block
_cell_formula_units_Z            4
_exptl_crystal_recrystallization_method methanol/dichloromethane
loop_
_atom_site_label
_atom_site_type_symbol
_atom_site_fract_x
_atom_site_fract_y
_atom_site_fract_z
N1 N 0.8271(4) 0.0754(3) 0.5303(3)
H1 H 0.7983 0.0191 0.5332
N2 N 0.8233(4) 0.1394(3) 0.4577(3)
C1 C 0.9012(5) 0.0523(4) 0.6844(3)
C2 C 1.0029(5) 0.0693(4) 0.7335(3)
H2 H 1.0545 0.1173 0.7110
C3 C 1.0250(5) 0.0160(4) 0.8125(4)
H3 H 1.0917 0.0283 0.8435
C4 C 0.9495(5) -0.0571(4) 0.8486(4)
C5 C 0.9778(6) -0.1155(4) 0.9287(4)
H4 H 1.0478 -0.1059 0.9576
C6 C 0.9028(7) -0.1854(5) 0.9633(4)
H5 H 0.9198 -0.2221 1.0171
C7 C 0.7997(7) -0.2024(4) 0.9182(5)
H6 H 0.7497 -0.2511 0.9417
C8 C 0.7723(5) -0.1480(4) 0.8399(4)
H7 H 0.7032 -0.1600 0.8113
C9 C 0.8468(5) -0.0738(4) 0.8016(4)
C10 C 0.8276(5) -0.0182(4) 0.7196(3)
H8 H 0.7614 -0.0300 0.6879
C11 C 0.8819(5) 0.1105(4) 0.5986(3)
C12 C 0.9116(4) 0.2022(4) 0.5685(3)
H9 H 0.9496 0.2451 0.6011
C13 C 0.8744(4) 0.2192(4) 0.4799(3)
C14 C 0.8793(4) 0.3053(4) 0.4161(3)
C15 C 0.8777(5) 0.2927(4) 0.3187(4)
H10 H 0.8777 0.2279 0.2937
C16 C 0.8759(5) 0.3748(4) 0.2582(4)
H11 H 0.8757 0.3633 0.1934
C17 C 0.8745(4) 0.4736(4) 0.2907(3)
C18 C 0.8746(4) 0.4848(4) 0.3879(3)
H12 H 0.8729 0.5499 0.4132
C19 C 0.8772(4) 0.4034(4) 0.4490(3)
H13 H 0.8775 0.4151 0.5138
C20 C 0.8692(5) 0.5632(4) 0.2224(3)
C21 C 0.9628(6) 0.5291(4) 0.1236(4)
H14 H 0.9305 0.4775 0.0935
H15 H 1.0546 0.5007 0.1311
H16 H 0.9624 0.5877 0.0837
C22 C 0.9144(6) 0.6534(4) 0.2618(4)
H17 H 0.8470 0.6854 0.3180
H18 H 0.9237 0.7032 0.2130
H19 H 1.0012 0.6284 0.2791
C23 C 0.7219(6) 0.6016(5) 0.2112(5)
H20 H 0.6953 0.5482 0.1792
H21 H 0.7158 0.6617 0.1732
H22 H 0.6619 0.6190 0.2740
N3 N 0.6756(4) 0.9567(3) 0.4403(3)
N4 N 0.6719(4) 1.0278(3) 0.3726(3)
H23 H 0.7017 1.0831 0.3754
C24 C 0.6039(5) 0.7937(4) 0.4706(3)
C25 C 0.5026(4) 0.7389(4) 0.4623(3)
H24 H 0.4471 0.7592 0.4184
C26 C 0.4860(5) 0.6579(4) 0.5173(4)
H25 H 0.4199 0.6226 0.5095
C27 C 0.5645(5) 0.6249(4) 0.5857(4)
C28 C 0.5460(6) 0.5437(4) 0.6456(4)
H26 H 0.4779 0.5093 0.6406
C29 C 0.6248(8) 0.5132(5) 0.7114(5)
H27 H 0.6102 0.4593 0.7513
C30 C 0.7273(7) 0.5642(5) 0.7174(4)
H28 H 0.7823 0.5427 0.7614
C31 C 0.7501(5) 0.6441(5) 0.6616(4)
H29 H 0.8195 0.6767 0.6678
C32 C 0.6688(5) 0.6781(4) 0.5940(4)
C33 C 0.6837(5) 0.7624(4) 0.5352(3)
H30 H 0.7506 0.7978 0.5409
C34 C 0.6165(4) 0.8827(4) 0.4116(3)
C35 C 0.5808(4) 0.9106(4) 0.3239(3)
H31 H 0.5401 0.8731 0.2879
C36 C 0.6163(4) 1.0032(4) 0.2996(3)
C37 C 0.6102(4) 1.0684(4) 0.2168(3)
C38 C 0.6107(5) 1.0287(4) 0.1271(4)
H32 H 0.6096 0.9593 0.1198
C39 C 0.6129(4) 1.0896(4) 0.0468(4)
H33 H 0.6154 1.0598 -0.0132
C40 C 0.6112(4) 1.1933(4) 0.0551(3)
C41 C 0.6089(5) 1.2328(4) 0.1463(4)
H34 H 0.6077 1.3025 0.1544
C42 C 0.6082(5) 1.1723(4) 0.2249(4)
H35 H 0.6063 1.2019 0.2849
C43 C 0.6169(5) 1.2612(4) -0.0321(4)
C44 C 0.5066(6) 1.3626(4) -0.0083(4)
H36 H 0.4175 1.3473 0.0093
H37 H 0.5112 1.4040 -0.0640
H38 H 0.5222 1.3999 0.0448
C45 C 0.5884(7) 1.2118(4) -0.1208(4)
H39 H 0.5947 1.2578 -0.1732
H40 H 0.4978 1.1989 -0.1051
H41 H 0.6548 1.1476 -0.1399
C46 C 0.7568(6) 1.2874(6) -0.0601(5)
H42 H 0.7756 1.3187 -0.0049
H43 H 0.7570 1.3348 -0.1114
H44 H 0.8261 1.2253 -0.0817
loop_
_geom_bond_atom_site_label_1
_geom_bond_atom_site_label_2
_geom_bond_site_symmetry_1
_geom_bond_site_symmetry_2
N1 H1 1_555 1_555
N2 N1 1_555 1_555
C1 C2 1_555 1_555
C2 H2 1_555 1_555
C3 C2 1_555 1_555
H3 C3 1_555 1_555
C4 C3 1_555 1_555
C5 C4 1_555 1_555
H4 C5 1_555 1_555
C6 C5 1_555 1_555
H5 C6 1_555 1_555
C7 C6 1_555 1_555
H6 C7 1_555 1_555
C8 C7 1_555 1_555
H7 C8 1_555 1_555
C9 C4 1_555 1_555
C10 C1 1_555 1_555
H8 C10 1_555 1_555
C11 N1 1_555 1_555
C12 C11 1_555 1_555
H9 C12 1_555 1_555
C13 N2 1_555 1_555
C14 C13 1_555 1_555
C15 C14 1_555 1_555
H10 C15 1_555 1_555
C16 C15 1_555 1_555
H11 C16 1_555 1_555
C17 C16 1_555 1_555
C18 C17 1_555 1_555
H12 C18 1_555 1_555
C19 C14 1_555 1_555
H13 C19 1_555 1_555
C20 C17 1_555 1_555
C21 C20 1_555 1_555
H14 C21 1_555 1_555
H15 C21 1_555 1_555
H16 C21 1_555 1_555
C22 C20 1_555 1_555
H17 C22 1_555 1_555
H18 C22 1_555 1_555
H19 C22 1_555 1_555
C23 C20 1_555 1_555
H20 C23 1_555 1_555
H21 C23 1_555 1_555
H22 C23 1_555 1_555
N3 N4 1_555 1_555
N4 H23 1_555 1_555
C24 C25 1_555 1_555
C25 H24 1_555 1_555
C26 C25 1_555 1_555
H25 C26 1_555 1_555
C27 C26 1_555 1_555
C28 C27 1_555 1_555
H26 C28 1_555 1_555
C29 C28 1_555 1_555
H27 C29 1_555 1_555
C30 C29 1_555 1_555
H28 C30 1_555 1_555
C31 C30 1_555 1_555
H29 C31 1_555 1_555
C32 C27 1_555 1_555
C33 C24 1_555 1_555
H30 C33 1_555 1_555
C34 N3 1_555 1_555
C35 C34 1_555 1_555
H31 C35 1_555 1_555
C36 N4 1_555 1_555
C37 C36 1_555 1_555
C38 C37 1_555 1_555
H32 C38 1_555 1_555
C39 C38 1_555 1_555
H33 C39 1_555 1_555
C40 C39 1_555 1_555
C41 C40 1_555 1_555
H34 C41 1_555 1_555
C42 C37 1_555 1_555
H35 C42 1_555 1_555
C43 C40 1_555 1_555
C44 C43 1_555 1_555
H36 C44 1_555 1_555
H37 C44 1_555 1_555
H38 C44 1_555 1_555
C45 C43 1_555 1_555
H39 C45 1_555 1_555
H40 C45 1_555 1_555
H41 C45 1_555 1_555
C46 C43 1_555 1_555
H42 C46 1_555 1_555
H43 C46 1_555 1_555
H44 C46 1_555 1_555
C1 C11 1_555 1_555
C8 C9 1_555 1_555
C9 C10 1_555 1_555
C12 C13 1_555 1_555
C18 C19 1_555 1_555
C24 C34 1_555 1_555
C31 C32 1_555 1_555
C32 C33 1_555 1_555
C35 C36 1_555 1_555
C41 C42 1_555 1_555

#END
