
#######################################################################
#
#                 Cambridge Crystallographic Data Centre
#                                CCDC 
#
#######################################################################
#
# If this CIF has been generated from an entry in the Cambridge 
# Structural Database, then it will include bibliographic, chemical, 
# crystal, experimental, refinement or atomic coordinate data resulting 
# from the CCDC's data processing and validation procedures.
#
#######################################################################

data_TAJJAP
_chemical_formula_moiety         'C18 H22 N1 Te1 1+,Cl1 O4 1-'
_chemical_name_systematic        
'Butyl-methyl-(2-phenyliminomethylphenyl)telluronium perchlorate'
_symmetry_cell_setting           monoclinic
_symmetry_space_group_name_H-M   'P 21/c'
_symmetry_Int_Tables_number      14
_space_group_name_Hall           '-P 2ybc'
loop_
_symmetry_equiv_pos_site_id
_symmetry_equiv_pos_as_xyz
1 x,y,z
2 -x,1/2+y,1/2-z
3 -x,-y,-z
4 x,1/2-y,1/2+z
_cell_length_a                   8.460(1)
_cell_length_b                   23.961(2)
_cell_length_c                   10.300(1)
_cell_angle_alpha                90
_cell_angle_beta                 111.158(5)
_cell_angle_gamma                90
_cell_volume                     1947.16
_exptl_crystal_colour            yellow
_chemical_melting_point          157deg.C
_cell_formula_units_Z            4
_exptl_crystal_preparation       Explosive
loop_
_atom_site_label
_atom_site_type_symbol
_atom_site_fract_x
_atom_site_fract_y
_atom_site_fract_z
Te1 Te 0.19950(3) 0.06957(1) 0.16777(3)
N1 N 0.2408(5) 0.1098(2) 0.4280(4)
C1 C 0.4540(5) 0.0564(2) 0.3016(5)
C2 C 0.5687(6) 0.0327(2) 0.2504(5)
C3 C 0.7361(6) 0.0245(2) 0.3382(6)
C4 C 0.7860(5) 0.0390(2) 0.4743(6)
C5 C 0.6740(6) 0.0624(2) 0.5262(5)
C6 C 0.5058(6) 0.0717(2) 0.4403(5)
C7 C 0.3917(6) 0.0984(2) 0.5003(5)
C8 C 0.1323(6) 0.1362(2) 0.4871(5)
C9 C 0.1590(7) 0.1344(2) 0.6289(5)
C10 C 0.0524(7) 0.1621(3) 0.6799(6)
C11 C -0.0785(8) 0.1931(3) 0.5925(6)
C12 C -0.1084(7) 0.1938(3) 0.4538(7)
C13 C -0.0034(6) 0.1657(2) 0.4000(5)
C14 C 0.2338(6) 0.0462(2) -0.0205(5)
C15 C 0.2195(6) 0.1569(2) 0.1298(5)
C16 C 0.3839(9) 0.1736(3) 0.1280(9)
C17 C 0.3913(13) 0.2342(3) 0.0903(11)
C18 C 0.4725(17) 0.2491(4) 0.0195(14)
Cl1 Cl 0.2672(1) 0.8850(1) 0.0754(1)
O1 O 0.1611(6) 0.9232(2) 0.1064(6)
O2 O 0.2069(8) 0.8734(4) -0.0620(5)
O3 O 0.4235(6) 0.9076(3) 0.1031(7)
O4 O 0.2860(9) 0.8393(2) 0.1635(7)
loop_
_geom_bond_atom_site_label_1
_geom_bond_atom_site_label_2
_geom_bond_site_symmetry_1
_geom_bond_site_symmetry_2
Te1 C1 1_555 1_555
Cl1 O1 1_555 1_555
O2 Cl1 1_555 1_555
O3 Cl1 1_555 1_555
O4 Cl1 1_555 1_555
N1 C7 1_555 1_555
C1 C2 1_555 1_555
C2 C3 1_555 1_555
C3 C4 1_555 1_555
C4 C5 1_555 1_555
C5 C6 1_555 1_555
C6 C1 1_555 1_555
C7 C6 1_555 1_555
C8 N1 1_555 1_555
C9 C8 1_555 1_555
C10 C9 1_555 1_555
C11 C10 1_555 1_555
C12 C11 1_555 1_555
C13 C8 1_555 1_555
C14 Te1 1_555 1_555
C15 Te1 1_555 1_555
C16 C15 1_555 1_555
C17 C16 1_555 1_555
C18 C17 1_555 1_555
C12 C13 1_555 1_555

#END
