
#######################################################################
#
#                 Cambridge Crystallographic Data Centre
#                                CCDC 
#
#######################################################################
#
# If this CIF has been generated from an entry in the Cambridge 
# Structural Database, then it will include bibliographic, chemical, 
# crystal, experimental, refinement or atomic coordinate data resulting 
# from the CCDC's data processing and validation procedures.
#
#######################################################################

data_TAJWUW01
_chemical_formula_moiety         'C11 H12 N4 O2'
_chemical_name_systematic        2-Anilino-4,6-dimethoxy-1,3,5-triazine
_symmetry_cell_setting           monoclinic
_symmetry_space_group_name_H-M   'P 21/c'
_symmetry_Int_Tables_number      14
_space_group_name_Hall           '-P 2ybc'
loop_
_symmetry_equiv_pos_site_id
_symmetry_equiv_pos_as_xyz
1 x,y,z
2 -x,1/2+y,1/2-z
3 -x,-y,-z
4 x,1/2-y,1/2+z
_cell_length_a                   10.947(2)
_cell_length_b                   6.2890(10)
_cell_length_c                   16.235(3)
_cell_angle_alpha                90
_cell_angle_beta                 90.59(3)
_cell_angle_gamma                90
_cell_volume                     1117.65
_exptl_crystal_colour            colorless
_chemical_melting_point          130-131deg.C
_cell_formula_units_Z            4
_exptl_crystal_recrystallization_method acetone
loop_
_atom_site_label
_atom_site_type_symbol
_atom_site_fract_x
_atom_site_fract_y
_atom_site_fract_z
O1 O 1.0908(1) -0.2362(2) 0.3597(1)
O2 O 0.7681(1) -0.1629(3) 0.5294(1)
N1 N 0.9645(2) 0.0334(3) 0.3381(1)
N2 N 0.9297(2) -0.2064(3) 0.4482(1)
N3 N 0.7942(1) 0.0830(3) 0.4270(1)
N4 N 0.8364(2) 0.3103(3) 0.3184(1)
C1 C 0.8642(2) 0.1370(3) 0.3631(1)
C2 C 0.9897(2) -0.1345(3) 0.3840(1)
C3 C 0.8322(2) -0.0906(3) 0.4647(1)
C4 C 1.1225(2) -0.4305(4) 0.4011(2)
C5 C 0.6618(2) -0.0573(5) 0.5495(2)
C6 C 0.7387(2) 0.4554(3) 0.3231(1)
C7 C 0.6386(2) 0.4343(4) 0.3748(2)
C8 C 0.5472(2) 0.5856(4) 0.3726(2)
C9 C 0.5534(2) 0.7555(4) 0.3209(2)
C10 C 0.6529(2) 0.7774(4) 0.2704(2)
C11 C 0.7458(2) 0.6310(4) 0.2721(1)
H1 H 0.8922 0.3329 0.2748
H2 H 1.0445 -0.5242 0.3991
H3 H 1.1950 -0.4683 0.3790
H4 H 1.1132 -0.4133 0.4581
H5 H 0.6253 -0.1204 0.5971
H6 H 0.6064 -0.0649 0.5033
H7 H 0.6794 0.0899 0.5598
H8 H 0.6483 0.3134 0.4197
H9 H 0.4783 0.5696 0.4155
H10 H 0.4794 0.8583 0.3120
H11 H 0.6505 0.9005 0.2300
H12 H 0.8124 0.6447 0.2350
loop_
_geom_bond_atom_site_label_1
_geom_bond_atom_site_label_2
_geom_bond_site_symmetry_1
_geom_bond_site_symmetry_2
O1 C2 1_555 1_555
O2 C3 1_555 1_555
N1 C1 1_555 1_555
N2 C2 1_555 1_555
N3 C1 1_555 1_555
N4 C1 1_555 1_555
C2 N1 1_555 1_555
C3 N2 1_555 1_555
C4 O1 1_555 1_555
C5 O2 1_555 1_555
C6 N4 1_555 1_555
C7 C6 1_555 1_555
C8 C7 1_555 1_555
C9 C8 1_555 1_555
C10 C9 1_555 1_555
C11 C6 1_555 1_555
H1 N4 1_555 1_555
H2 C4 1_555 1_555
H3 C4 1_555 1_555
H4 C4 1_555 1_555
H5 C5 1_555 1_555
H6 C5 1_555 1_555
H7 C5 1_555 1_555
H8 C7 1_555 1_555
H9 C8 1_555 1_555
H10 C9 1_555 1_555
H11 C10 1_555 1_555
H12 C11 1_555 1_555
N3 C3 1_555 1_555
C10 C11 1_555 1_555

#END
