
#######################################################################
#
#                 Cambridge Crystallographic Data Centre
#                                CCDC 
#
#######################################################################
#
# If this CIF has been generated from an entry in the Cambridge 
# Structural Database, then it will include bibliographic, chemical, 
# crystal, experimental, refinement or atomic coordinate data resulting 
# from the CCDC's data processing and validation procedures.
#
#######################################################################

data_TAJXIN
_chemical_formula_moiety         'C23 H28 N2 P2'
_chemical_name_systematic        
"N-(Diphenylphosphino)-N'-ethyl-N-isopropyl-P-phenylphosphonous diamide"
_symmetry_cell_setting           orthorhombic
_symmetry_space_group_name_H-M   'P 21 21 21'
_symmetry_Int_Tables_number      19
_space_group_name_Hall           'P 2ac 2ab'
loop_
_symmetry_equiv_pos_site_id
_symmetry_equiv_pos_as_xyz
1 x,y,z
2 1/2-x,-y,1/2+z
3 -x,1/2+y,1/2-z
4 1/2+x,1/2-y,-z
_cell_length_a                   8.9016(18)
_cell_length_b                   9.978(2)
_cell_length_c                   24.459(5)
_cell_angle_alpha                90
_cell_angle_beta                 90
_cell_angle_gamma                90
_cell_volume                     2172.45
_exptl_crystal_colour            colorless
_exptl_crystal_description       prism
_chemical_melting_point          '96 deg.C'
_cell_formula_units_Z            4
_exptl_crystal_recrystallization_method n-hexane
loop_
_atom_site_label
_atom_site_type_symbol
_atom_site_fract_x
_atom_site_fract_y
_atom_site_fract_z
C1 C -0.6036(2) -0.40182(18) -0.17166(7)
C2 C -0.7256(2) -0.48801(19) -0.16956(8)
H1 H -0.8244 -0.4523 -0.1710
C3 C -0.7058(3) -0.62571(19) -0.16539(9)
H2 H -0.7906 -0.6834 -0.1638
C4 C -0.5632(3) -0.6781(2) -0.16359(8)
H3 H -0.5490 -0.7722 -0.1606
C5 C -0.4412(2) -0.5940(2) -0.16612(8)
H4 H -0.3427 -0.6305 -0.1651
C6 C -0.4602(2) -0.4572(2) -0.17005(7)
H5 H -0.3747 -0.4004 -0.1717
C7 C -0.4778(2) -0.13979(18) -0.15497(7)
C8 C -0.4134(2) -0.03590(18) -0.18400(8)
H6 H -0.4469 -0.0177 -0.2201
C9 C -0.3009(2) 0.0423(2) -0.16135(10)
H7 H -0.2581 0.1134 -0.1820
C10 C -0.2510(2) 0.0175(2) -0.10916(10)
H8 H -0.1755 0.0722 -0.0932
C11 C -0.3124(2) -0.0884(2) -0.08010(9)
H9 H -0.2778 -0.1070 -0.0441
C12 C -0.4226(2) -0.1668(2) -0.10288(8)
H10 H -0.4617 -0.2405 -0.0828
C13 C -0.8509(2) -0.07411(17) -0.04749(7)
C14 C -0.7714(2) 0.04098(19) -0.06027(8)
H11 H -0.6949 0.0370 -0.0873
C15 C -0.8008(3) 0.1610(2) -0.03462(9)
H12 H -0.7466 0.2393 -0.0447
C16 C -0.9092(3) 0.1677(2) 0.00583(9)
H13 H -0.9292 0.2502 0.0238
C17 C -0.9877(2) 0.0540(2) 0.01977(8)
H14 H -1.0622 0.0579 0.0475
C18 C -0.9586(2) -0.06585(19) -0.00652(7)
H15 H -1.0131 -0.1438 0.0036
C19 C -0.9158(2) -0.11674(19) -0.17323(8)
H16 H -0.9873 -0.0898 -0.1437
C20 C -1.0012(2) -0.2094(2) -0.21190(9)
H17 H -1.0309 -0.2909 -0.1923
H18 H -0.9364 -0.2334 -0.2428
H19 H -1.0911 -0.1635 -0.2255
C21 C -0.8682(3) 0.0099(2) -0.20228(10)
H20 H -0.8141 0.0681 -0.1767
H21 H -0.9572 0.0568 -0.2160
H22 H -0.8022 -0.0130 -0.2330
C22 C -0.9765(2) -0.4572(2) -0.05715(8)
H23 H -1.0057 -0.4643 -0.0182
H24 H -0.8768 -0.5000 -0.0614
C23 C -1.0891(3) -0.5318(2) -0.09138(10)
H25 H -1.0919 -0.6259 -0.0800
H26 H -1.0601 -0.5264 -0.1300
H27 H -1.1887 -0.4917 -0.0865
N1 N -0.78775(16) -0.18620(14) -0.14637(5)
N2 N -0.96455(19) -0.31682(16) -0.07171(7)
P1 P -0.63785(5) -0.22530(5) -0.187022(16)
P2 P -0.80116(5) -0.23498(4) -0.079291(16)
H28 H -1.049(2) -0.2816(18) -0.0791(7)
loop_
_geom_bond_atom_site_label_1
_geom_bond_atom_site_label_2
_geom_bond_site_symmetry_1
_geom_bond_site_symmetry_2
C1 C2 1_555 1_555
C2 H1 1_555 1_555
C3 C2 1_555 1_555
H2 C3 1_555 1_555
C4 C3 1_555 1_555
H3 C4 1_555 1_555
C5 C4 1_555 1_555
H4 C5 1_555 1_555
C6 C1 1_555 1_555
H5 C6 1_555 1_555
C7 C8 1_555 1_555
C8 H6 1_555 1_555
C9 C8 1_555 1_555
H7 C9 1_555 1_555
C10 C9 1_555 1_555
H8 C10 1_555 1_555
C11 C10 1_555 1_555
H9 C11 1_555 1_555
C12 C7 1_555 1_555
H10 C12 1_555 1_555
C13 C14 1_555 1_555
C14 H11 1_555 1_555
C15 C14 1_555 1_555
H12 C15 1_555 1_555
C16 C15 1_555 1_555
H13 C16 1_555 1_555
C17 C16 1_555 1_555
H14 C17 1_555 1_555
C18 C13 1_555 1_555
H15 C18 1_555 1_555
C19 H16 1_555 1_555
C20 C19 1_555 1_555
H17 C20 1_555 1_555
H18 C20 1_555 1_555
H19 C20 1_555 1_555
C21 C19 1_555 1_555
H20 C21 1_555 1_555
H21 C21 1_555 1_555
H22 C21 1_555 1_555
C22 H23 1_555 1_555
H24 C22 1_555 1_555
C23 C22 1_555 1_555
H25 C23 1_555 1_555
H26 C23 1_555 1_555
H27 C23 1_555 1_555
N1 C19 1_555 1_555
N2 C22 1_555 1_555
P1 C1 1_555 1_555
P2 C13 1_555 1_555
H28 N2 1_555 1_555
C5 C6 1_555 1_555
C7 P1 1_555 1_555
C11 C12 1_555 1_555
C17 C18 1_555 1_555
N1 P1 1_555 1_555
N1 P2 1_555 1_555
N2 P2 1_555 1_555

#END
