
#######################################################################
#
#                 Cambridge Crystallographic Data Centre
#                                CCDC 
#
#######################################################################
#
# If this CIF has been generated from an entry in the Cambridge 
# Structural Database, then it will include bibliographic, chemical, 
# crystal, experimental, refinement or atomic coordinate data resulting 
# from the CCDC's data processing and validation procedures.
#
#######################################################################

data_TAKFAM01
_chemical_formula_moiety         'C12 H8 Se2'
_chemical_name_systematic        Dibenzo(c,e)(1,2)diselenine
_symmetry_cell_setting           tetragonal
_symmetry_space_group_name_H-M   'P 43 21 2'
_symmetry_Int_Tables_number      96
_space_group_name_Hall           'P 4nw 2abw'
loop_
_symmetry_equiv_pos_site_id
_symmetry_equiv_pos_as_xyz
1 x,y,z
2 1/2-y,1/2+x,3/4+z
3 1/2+x,1/2-y,1/4-z
4 -x,-y,1/2+z
5 y,x,-z
6 1/2+y,1/2-x,1/4+z
7 1/2-x,1/2+y,3/4-z
8 -y,-x,1/2-z
_cell_length_a                   14.126(2)
_cell_length_b                   14.126(2)
_cell_length_c                   21.574(3)
_cell_angle_alpha                90
_cell_angle_beta                 90
_cell_angle_gamma                90
_cell_volume                     4304.96
_exptl_crystal_colour            red
_chemical_melting_point          '104-105 deg.C'
_cell_formula_units_Z            16
loop_
_atom_site_label
_atom_site_type_symbol
_atom_site_fract_x
_atom_site_fract_y
_atom_site_fract_z
Se1 Se 0.31063(6) 0.49309(5) -0.05344(4)
Se2 Se 0.29269(6) 0.47281(6) 0.05277(5)
C1 C 0.2589(5) 0.6178(4) -0.0521(4)
C2 C 0.1752(5) 0.6365(5) -0.0187(3)
C3 C 0.1450(5) 0.7297(5) -0.0197(3)
H1 H 0.0923(5) 0.7459(5) 0.0039(3)
C4 C 0.1894(6) 0.7994(5) -0.0546(4)
H2 H 0.1658(6) 0.8608(5) -0.0553(4)
C5 C 0.2681(5) 0.7763(5) -0.0892(4)
H3 H 0.2964(5) 0.8218(5) -0.1143(4)
C6 C 0.3060(5) 0.6866(5) -0.0864(3)
H4 H 0.3620(5) 0.6721(5) -0.1071(3)
C7 C 0.1587(5) 0.4921(5) 0.0504(4)
C8 C 0.1192(5) 0.5637(6) 0.0153(4)
C9 C 0.0206(6) 0.5720(6) 0.0142(4)
H5 H -0.0079(6) 0.6183(6) -0.0102(4)
C10 C -0.0344(5) 0.5095(7) 0.0481(4)
H6 H -0.1000(5) 0.5140(7) 0.0454(4)
C11 C 0.0062(7) 0.4435(6) 0.0857(4)
H7 H -0.0318(7) 0.4059(6) 0.1109(4)
C12 C 0.1024(6) 0.4337(6) 0.0846(4)
H8 H 0.1296(6) 0.3863(6) 0.1086(4)
Se3 Se 0.47293(6) 0.54404(6) 0.19678(5)
C13 C 0.6031(5) 0.5083(5) 0.1984(4)
C14 C 0.6342(5) 0.4314(4) 0.2328(3)
C15 C 0.7314(5) 0.4134(5) 0.2352(3)
H9 H 0.7533(5) 0.3642(5) 0.2599(3)
C16 C 0.7939(6) 0.4657(6) 0.2018(4)
H10 H 0.8583(6) 0.4527(6) 0.2045(4)
C17 C 0.7620(6) 0.5401(6) 0.1665(4)
H11 H 0.8045(6) 0.5736(6) 0.1419(4)
C18 C 0.6668(6) 0.5629(5) 0.1643(4)
H12 H 0.6455(6) 0.6139(5) 0.1409(4)
Se3G Se 0.45596(6) 0.52707(6) 0.30322(5)
C13G C 0.4917(5) 0.3969(5) 0.3016(4)
C14G C 0.5686(4) 0.3658(5) 0.2672(3)
C15G C 0.5866(5) 0.2686(5) 0.2648(3)
H9G H 0.6358(5) 0.2467(5) 0.2401(3)
C16G C 0.5343(6) 0.2061(6) 0.2982(4)
H10G H 0.5473(6) 0.1417(6) 0.2955(4)
C17G C 0.4599(6) 0.2380(6) 0.3335(4)
H11G H 0.4264(6) 0.1955(6) 0.3581(4)
C18G C 0.4371(5) 0.3332(6) 0.3357(4)
H12G H 0.3861(5) 0.3545(6) 0.3591(4)
Se4 Se 0.27589(6) 0.70398(6) 0.19690(5)
C19 C 0.1474(5) 0.7417(5) 0.1991(3)
C20 C 0.1156(4) 0.8197(5) 0.2332(3)
C21 C 0.0211(5) 0.8409(5) 0.2322(3)
H13 H -0.0021(5) 0.8896(5) 0.2568(3)
C22 C -0.0431(5) 0.7891(6) 0.1957(4)
H14 H -0.1068(5) 0.8057(6) 0.1949(4)
C23 C -0.0107(6) 0.7139(6) 0.1612(4)
H15 H -0.0527(6) 0.6798(6) 0.1366(4)
C24 C 0.0854(6) 0.6914(6) 0.1636(4)
H16 H 0.1070(6) 0.6401(6) 0.1406(4)
Se4G Se 0.29602(6) 0.72411(6) 0.30310(5)
C19G C 0.2583(5) 0.8526(5) 0.3009(3)
C20G C 0.1803(5) 0.8844(4) 0.2668(3)
C21G C 0.1591(5) 0.9789(5) 0.2678(3)
H13G H 0.1104(5) 1.0021(5) 0.2432(3)
C22G C 0.2109(6) 1.0431(5) 0.3043(4)
H14G H 0.1943(6) 1.1068(5) 0.3051(4)
C23G C 0.2861(6) 1.0107(6) 0.3388(4)
H15G H 0.3202(6) 1.0527(6) 0.3634(4)
C24G C 0.3086(6) 0.9146(6) 0.3364(4)
H16G H 0.3599(6) 0.8930(6) 0.3594(4)
loop_
_geom_bond_atom_site_label_1
_geom_bond_atom_site_label_2
_geom_bond_site_symmetry_1
_geom_bond_site_symmetry_2
Se1 Se2 1_555 1_555
Se2 C7 1_555 1_555
C1 Se1 1_555 1_555
C2 C1 1_555 1_555
C3 C2 1_555 1_555
H1 C3 1_555 1_555
C4 C3 1_555 1_555
H2 C4 1_555 1_555
C5 C4 1_555 1_555
H3 C5 1_555 1_555
C6 C1 1_555 1_555
H4 C6 1_555 1_555
C7 C8 1_555 1_555
C8 C2 1_555 1_555
C9 C8 1_555 1_555
H5 C9 1_555 1_555
C10 C9 1_555 1_555
H6 C10 1_555 1_555
C11 C10 1_555 1_555
H7 C11 1_555 1_555
C12 C7 1_555 1_555
H8 C12 1_555 1_555
Se3 C13 1_555 1_555
C13 C14 1_555 1_555
C14 C15 1_555 1_555
C15 H9 1_555 1_555
C16 C15 1_555 1_555
H10 C16 1_555 1_555
C17 C16 1_555 1_555
H11 C17 1_555 1_555
C18 C13 1_555 1_555
H12 C18 1_555 1_555
Se4 C19 1_555 1_555
C19 C20 1_555 1_555
C20 C21 1_555 1_555
C21 H13 1_555 1_555
C22 C21 1_555 1_555
H14 C22 1_555 1_555
C23 C22 1_555 1_555
H15 C23 1_555 1_555
C24 C19 1_555 1_555
H16 C24 1_555 1_555
Se3G Se3 1_555 1_555
C13G Se3G 1_555 1_555
C14G C14 1_555 1_555
C15G C14G 1_555 1_555
H9G C15G 1_555 1_555
C16G C15G 1_555 1_555
H10G C16G 1_555 1_555
C17G C16G 1_555 1_555
H11G C17G 1_555 1_555
C18G C13G 1_555 1_555
H12G C18G 1_555 1_555
Se4G Se4 1_555 1_555
C19G Se4G 1_555 1_555
C20G C20 1_555 1_555
C21G C20G 1_555 1_555
H13G C21G 1_555 1_555
C22G C21G 1_555 1_555
H14G C22G 1_555 1_555
C23G C22G 1_555 1_555
H15G C23G 1_555 1_555
C24G C19G 1_555 1_555
H16G C24G 1_555 1_555
C5 C6 1_555 1_555
C11 C12 1_555 1_555
C17 C18 1_555 1_555
C23 C24 1_555 1_555
C13G C14G 1_555 1_555
C17G C18G 1_555 1_555
C19G C20G 1_555 1_555
C23G C24G 1_555 1_555

#END
