
#######################################################################
#
#                 Cambridge Crystallographic Data Centre
#                                CCDC 
#
#######################################################################
#
# If this CIF has been generated from an entry in the Cambridge 
# Structural Database, then it will include bibliographic, chemical, 
# crystal, experimental, refinement or atomic coordinate data resulting 
# from the CCDC's data processing and validation procedures.
#
#######################################################################

data_TAKJAT
_chemical_formula_moiety         'C48 H32 F2 N4'
_chemical_name_systematic        
3,3'-(2,5-bis(diphenylamino)-1,4-phenylene)bis(2-(4-fluorophenyl)acrylonitrile)
_symmetry_cell_setting           triclinic
_symmetry_space_group_name_H-M   'P -1'
_symmetry_Int_Tables_number      2
_space_group_name_Hall           '-P 1'
loop_
_symmetry_equiv_pos_site_id
_symmetry_equiv_pos_as_xyz
1 x,y,z
2 -x,-y,-z
_cell_length_a                   6.8021(14)
_cell_length_b                   11.609(2)
_cell_length_c                   12.963(3)
_cell_angle_alpha                65.52(3)
_cell_angle_beta                 88.28(3)
_cell_angle_gamma                76.62(3)
_cell_volume                     903.814
_cell_formula_units_Z            1
loop_
_atom_site_label
_atom_site_type_symbol
_atom_site_fract_x
_atom_site_fract_y
_atom_site_fract_z
F1 F 0.3040(4) 0.2462(2) 0.21884(19)
N1 N 0.9091(6) 0.0861(4) 0.7169(3)
N2 N 0.1942(4) 0.2316(3) 0.8846(2)
C1 C 0.7397(7) 0.0939(4) 0.7025(3)
C2 C 0.5282(6) 0.1101(4) 0.6771(3)
C3 C 0.4008(6) 0.0955(3) 0.7590(3)
H1 H 0.2607 0.1163 0.7367
C4 C 0.4563(5) 0.0499(4) 0.8817(3)
C5 C 0.6099(5) -0.0628(4) 0.9385(3)
H2 H 0.6844 -0.1063 0.8964
C6 C 0.4675(6) 0.1490(3) 0.5541(3)
C7 C 0.6128(6) 0.1337(4) 0.4798(3)
H3 H 0.7514 0.0998 0.5071
C8 C 0.5597(7) 0.1667(4) 0.3668(3)
H4 H 0.6598 0.1569 0.3164
C9 C 0.3596(7) 0.2137(4) 0.3303(3)
C10 C 0.2094(7) 0.2336(4) 0.3989(3)
H5 H 0.0718 0.2693 0.3698
C11 C 0.2651(6) 0.1997(4) 0.5125(3)
H6 H 0.1640 0.2114 0.5619
C12 C 0.3440(5) 0.1125(4) 0.9453(3)
C13 C 0.2610(6) 0.3336(3) 0.7917(3)
C14 C 0.1390(6) 0.4022(4) 0.6901(3)
H7 H 0.0140 0.3823 0.6822
C15 C 0.2033(7) 0.5004(4) 0.6002(3)
H8 H 0.1197 0.5489 0.5314
C16 C 0.3866(7) 0.5282(4) 0.6099(4)
H9 H 0.4307 0.5936 0.5476
C17 C 0.5062(7) 0.4595(4) 0.7119(4)
H10 H 0.6304 0.4802 0.7201
C18 C 0.4445(6) 0.3601(4) 0.8024(3)
H11 H 0.5289 0.3111 0.8709
C19 C 0.0273(5) 0.2693(4) 0.9427(3)
C20 C -0.0656(5) 0.1760(4) 1.0199(3)
H12 H -0.0223 0.0878 1.0304
C21 C -0.2201(6) 0.2108(4) 1.0812(3)
H13 H -0.2788 0.1459 1.1352
C22 C -0.2895(6) 0.3400(4) 1.0641(3)
H14 H -0.3942 0.3638 1.1068
C23 C -0.2042(6) 0.4340(4) 0.9840(3)
H15 H -0.2545 0.5231 0.9699
C24 C -0.0462(6) 0.3995(4) 0.9241(3)
H16 H 0.0121 0.4647 0.8702
F1A F 0.6960(4) -0.2462(2) 1.78116(19)
N1A N 0.0909(6) -0.0861(4) 1.2831(3)
N2A N 0.8058(4) -0.2316(3) 1.1154(2)
C1A C 0.2603(7) -0.0939(4) 1.2975(3)
C2A C 0.4718(6) -0.1101(4) 1.3229(3)
C3A C 0.5992(6) -0.0955(3) 1.2410(3)
H1A H 0.7393 -0.1163 1.2633
C4A C 0.5437(5) -0.0499(4) 1.1183(3)
C5A C 0.3901(5) 0.0628(4) 1.0615(3)
H2A H 0.3156 0.1063 1.1036
C6A C 0.5325(6) -0.1490(3) 1.4459(3)
C7A C 0.3872(6) -0.1337(4) 1.5202(3)
H3A H 0.2486 -0.0998 1.4929
C8A C 0.4403(7) -0.1667(4) 1.6332(3)
H4A H 0.3402 -0.1569 1.6836
C9A C 0.6404(7) -0.2137(4) 1.6697(3)
C10A C 0.7906(7) -0.2336(4) 1.6011(3)
H5A H 0.9282 -0.2693 1.6302
C11A C 0.7349(6) -0.1997(4) 1.4875(3)
H6A H 0.8360 -0.2114 1.4381
C12A C 0.6560(5) -0.1125(4) 1.0547(3)
C13A C 0.7390(6) -0.3336(3) 1.2083(3)
C14A C 0.8610(6) -0.4022(4) 1.3099(3)
H7A H 0.9860 -0.3823 1.3178
C15A C 0.7967(7) -0.5004(4) 1.3998(3)
H8A H 0.8803 -0.5489 1.4686
C16A C 0.6134(7) -0.5282(4) 1.3901(4)
H9A H 0.5693 -0.5936 1.4524
C17A C 0.4938(7) -0.4595(4) 1.2881(4)
H10A H 0.3696 -0.4802 1.2799
C18A C 0.5555(6) -0.3601(4) 1.1976(3)
H11A H 0.4711 -0.3111 1.1291
C19A C 0.9727(5) -0.2693(4) 1.0573(3)
C20A C 1.0656(5) -0.1760(4) 0.9801(3)
H12A H 1.0223 -0.0878 0.9696
C21A C 1.2201(6) -0.2108(4) 0.9188(3)
H13A H 1.2788 -0.1459 0.8648
C22A C 1.2895(6) -0.3400(4) 0.9359(3)
H14A H 1.3942 -0.3638 0.8932
C23A C 1.2042(6) -0.4340(4) 1.0160(3)
H15A H 1.2545 -0.5231 1.0301
C24A C 1.0462(6) -0.3995(4) 1.0759(3)
H16A H 0.9879 -0.4647 1.1298
loop_
_geom_bond_atom_site_label_1
_geom_bond_atom_site_label_2
_geom_bond_site_symmetry_1
_geom_bond_site_symmetry_2
F1 C9 1_555 1_555
N1 C1 1_555 1_555
N2 C12 1_555 1_555
C1 C2 1_555 1_555
C2 C3 1_555 1_555
C3 H1 1_555 1_555
C4 C3 1_555 1_555
C5 C4 1_555 1_555
H2 C5 1_555 1_555
C6 C2 1_555 1_555
C7 C6 1_555 1_555
H3 C7 1_555 1_555
C8 C7 1_555 1_555
H4 C8 1_555 1_555
C9 C8 1_555 1_555
C10 C9 1_555 1_555
H5 C10 1_555 1_555
C11 C6 1_555 1_555
H6 C11 1_555 1_555
C12 C4 1_555 1_555
C13 N2 1_555 1_555
C14 C13 1_555 1_555
H7 C14 1_555 1_555
C15 C14 1_555 1_555
H8 C15 1_555 1_555
C16 C15 1_555 1_555
H9 C16 1_555 1_555
C17 C16 1_555 1_555
H10 C17 1_555 1_555
C18 C13 1_555 1_555
H11 C18 1_555 1_555
C19 N2 1_555 1_555
C20 C19 1_555 1_555
H12 C20 1_555 1_555
C21 C20 1_555 1_555
H13 C21 1_555 1_555
C22 C21 1_555 1_555
H14 C22 1_555 1_555
C23 C22 1_555 1_555
H15 C23 1_555 1_555
C24 C19 1_555 1_555
H16 C24 1_555 1_555
F1A C9A 1_555 1_555
N1A C1A 1_555 1_555
N2A C12A 1_555 1_555
C1A C2A 1_555 1_555
C2A C3A 1_555 1_555
C3A H1A 1_555 1_555
C4A C3A 1_555 1_555
C5A C12 1_555 1_555
H2A C5A 1_555 1_555
C6A C2A 1_555 1_555
C7A C6A 1_555 1_555
H3A C7A 1_555 1_555
C8A C7A 1_555 1_555
H4A C8A 1_555 1_555
C9A C8A 1_555 1_555
C10A C9A 1_555 1_555
H5A C10A 1_555 1_555
C11A C6A 1_555 1_555
H6A C11A 1_555 1_555
C12A C5 1_555 1_555
C13A N2A 1_555 1_555
C14A C13A 1_555 1_555
H7A C14A 1_555 1_555
C15A C14A 1_555 1_555
H8A C15A 1_555 1_555
C16A C15A 1_555 1_555
H9A C16A 1_555 1_555
C17A C16A 1_555 1_555
H10A C17A 1_555 1_555
C18A C13A 1_555 1_555
H11A C18A 1_555 1_555
C19A N2A 1_555 1_555
C20A C19A 1_555 1_555
H12A C20A 1_555 1_555
C21A C20A 1_555 1_555
H13A C21A 1_555 1_555
C22A C21A 1_555 1_555
H14A C22A 1_555 1_555
C23A C22A 1_555 1_555
H15A C23A 1_555 1_555
C24A C19A 1_555 1_555
H16A C24A 1_555 1_555
C10 C11 1_555 1_555
C17 C18 1_555 1_555
C23 C24 1_555 1_555
C4A C5A 1_555 1_555
C4A C12A 1_555 1_555
C10A C11A 1_555 1_555
C17A C18A 1_555 1_555
C23A C24A 1_555 1_555

#END
