
#######################################################################
#
#                 Cambridge Crystallographic Data Centre
#                                CCDC 
#
#######################################################################
#
# If this CIF has been generated from an entry in the Cambridge 
# Structural Database, then it will include bibliographic, chemical, 
# crystal, experimental, refinement or atomic coordinate data resulting 
# from the CCDC's data processing and validation procedures.
#
#######################################################################

data_TAKMAT
_chemical_formula_moiety         'C12 H8 S3,C12 H4 N4'
_chemical_name_systematic        'Trithiophene tetracyanoquinodimethane'
_symmetry_cell_setting           monoclinic
_symmetry_space_group_name_H-M   'P 21/n'
_symmetry_Int_Tables_number      14
_space_group_name_Hall           '-P 2yn'
loop_
_symmetry_equiv_pos_site_id
_symmetry_equiv_pos_as_xyz
1 x,y,z
2 1/2-x,1/2+y,1/2-z
3 -x,-y,-z
4 1/2+x,1/2-y,1/2+z
_cell_length_a                   7.763(1)
_cell_length_b                   12.724(2)
_cell_length_c                   10.997(3)
_cell_angle_alpha                90
_cell_angle_beta                 101.26(8)
_cell_angle_gamma                90
_cell_volume                     1065.34
_cell_formula_units_Z            2
loop_
_atom_site_label
_atom_site_type_symbol
_atom_site_fract_x
_atom_site_fract_y
_atom_site_fract_z
S1 S 0.4851(13) 0.42984(37) 0.99158(82)
S2 S 0.3539(13) 0.58149(43) 1.32265(70)
S3 S 0.3408(19) 0.39499(53) 1.31384(90)
C1 C 0.4488(17) 0.52409(61) 1.09722(78)
C2 C 0.5145(27) 0.37559(60) 0.9428(12)
C3 C 0.4528(21) 0.37734(63) 1.05798(99)
C4 C 0.5517(32) 0.52109(76) 0.8935(13)
C5 C 0.3918(20) 0.49153(84) 1.21220(89)
C6 C 0.3572(21) 0.38916(70) 1.2475(13)
C7 C 0.3056(32) 0.38568(73) 1.3666(16)
C8 C 0.2894(17) 0.48582(86) 1.41552(85)
C9 C 0.2974(34) 0.58164(70) 1.3941(14)
C10 C 0.3514(30) 0.59505(62) 1.2773(13)
C11 C 0.3880(29) 0.49929(68) 1.2243(12)
C12 C 0.2909(30) 0.47600(76) 1.4283(12)
N1 N 0.2886(17) 0.6702(14) 1.3325(11)
S1B S 0.5149(13) 0.57016(37) 1.00842(82)
C1B C 0.5512(17) 0.47591(61) 0.90278(78)
C2B C 0.4855(27) 0.62441(60) 1.0572(12)
C4B C 0.4483(32) 0.47891(76) 1.1065(13)
C3B C 0.5472(21) 0.62266(63) 0.94202(99)
C5B C 0.6082(20) 0.50847(84) 0.78780(89)
S2B S 0.6461(13) 0.41851(43) 0.67735(70)
S3B S 0.6592(19) 0.60501(53) 0.68616(90)
C11B C 0.6120(29) 0.50071(68) 0.7757(12)
C8B C 0.7106(17) 0.51418(86) 0.58448(85)
C6B C 0.6428(21) 0.61084(70) 0.7525(13)
C10B C 0.6486(30) 0.40495(62) 0.7227(13)
C9B C 0.7026(34) 0.41836(70) 0.6059(14)
C7B C 0.6944(32) 0.61432(73) 0.6334(16)
C12B C 0.7091(30) 0.52400(76) 0.5717(12)
N1B N 0.7114(17) 0.3298(14) 0.6675(11)
N2 N 1.1552(26) 0.6687(19) -0.3582(18)
C13 C 1.0291(21) 0.4023(13) -0.0533(21)
C14 C 1.0248(26) 0.5979(21) -0.0557(19)
C15 C 1.0546(11) 0.5022(29) -0.11295(92)
C16 C 1.1123(13) 0.5058(24) -0.2249(11)
C17 C 1.1415(14) 0.4073(14) -0.2881(14)
C18 C 1.1403(28) 0.6041(23) -0.2914(22)
C14B C 0.9752(26) 0.4021(21) 0.0557(19)
C15B C 0.9454(11) 0.4978(29) 0.11295(92)
C13B C 0.9709(21) 0.5977(13) 0.0533(21)
C16B C 0.8877(13) 0.4942(24) 0.2249(11)
C17B C 0.8585(14) 0.5927(14) 0.2881(14)
C18B C 0.8597(28) 0.3959(23) 0.2914(22)
N2B N 0.8448(26) 0.3313(19) 0.3582(18)
loop_
_geom_bond_atom_site_label_1
_geom_bond_atom_site_label_2
_geom_bond_site_symmetry_1
_geom_bond_site_symmetry_2
S1 C1 1_555 1_555
S2 S3 1_555 1_555
S3 C5 1_555 1_555
C1 C5 1_555 1_555
C2 S1 1_555 1_555
C3 S1 1_555 1_555
C4 S1 1_555 1_555
C5 S2 1_555 1_555
C6 S3 1_555 1_555
C7 S3 1_555 1_555
C8 S2 1_555 1_555
C9 S2 1_555 1_555
C10 S2 1_555 1_555
C11 S2 1_555 1_555
C12 S2 1_555 1_555
N1 S2 1_555 1_555
N2 C18 1_555 1_555
C13 C15 1_555 1_555
C14 C15 1_555 1_555
C15 C16 1_555 1_555
C16 C17 1_555 1_555
C18 C16 1_555 1_555
S1B S1 1_555 1_555
C1B S1 1_555 1_555
C2B C1 1_555 1_555
C4B S1 1_555 1_555
C3B C4 1_555 1_555
C5B C4 1_555 1_555
S2B C5B 1_555 1_555
S3B C5B 1_555 1_555
C11B C4 1_555 1_555
C8B S2B 1_555 1_555
C6B C5B 1_555 1_555
C10B C5B 1_555 1_555
C9B S2B 1_555 1_555
C7B S3B 1_555 1_555
C12B S2B 1_555 1_555
N1B S2B 1_555 1_555
C14B C13 1_555 1_555
C15B C14B 1_555 1_555
C13B C14 1_555 1_555
C16B C15B 1_555 1_555
C17B C16B 1_555 1_555
C18B C16B 1_555 1_555
N2B C18B 1_555 1_555
S3 C8 1_555 1_555
S3 C11 1_555 1_555
S3 C12 1_555 1_555
C1 C11 1_555 1_555
C1 C4B 1_555 1_555
C1 S1B 1_555 1_555
C2 C3 1_555 1_555
C2 C1B 1_555 1_555
C3 C4B 1_555 1_555
C4 C1B 1_555 1_555
C4 S1B 1_555 1_555
C5 C4B 1_555 1_555
C5 C10 1_555 1_555
C5 C6 1_555 1_555
C5 C11 1_555 1_555
C6 C11 1_555 1_555
C6 C7 1_555 1_555
C7 C8 1_555 1_555
C7 C12 1_555 1_555
C8 C9 1_555 1_555
C8 C12 1_555 1_555
C9 N1 1_555 1_555
C9 C10 1_555 1_555
C9 C12 1_555 1_555
C10 C11 1_555 1_555
C10 N1 1_555 1_555
C11 C4B 1_555 1_555
S1B C1B 1_555 1_555
S1B C2B 1_555 1_555
S1B C3B 1_555 1_555
S1B C4B 1_555 1_555
C1B C11B 1_555 1_555
C1B C5B 1_555 1_555
C2B C3B 1_555 1_555
C5B C11B 1_555 1_555
S2B S3B 1_555 1_555
S2B C11B 1_555 1_555
S2B C10B 1_555 1_555
S3B C6B 1_555 1_555
S3B C8B 1_555 1_555
S3B C11B 1_555 1_555
S3B C12B 1_555 1_555
C11B C6B 1_555 1_555
C11B C10B 1_555 1_555
C8B C7B 1_555 1_555
C8B C9B 1_555 1_555
C8B C12B 1_555 1_555
C6B C7B 1_555 1_555
C10B C9B 1_555 1_555
C10B N1B 1_555 1_555
C9B N1B 1_555 1_555
C9B C12B 1_555 1_555
C7B C12B 1_555 1_555
C15B C13B 1_555 1_555

#END
