
#######################################################################
#
#                 Cambridge Crystallographic Data Centre
#                                CCDC 
#
#######################################################################
#
# If this CIF has been generated from an entry in the Cambridge 
# Structural Database, then it will include bibliographic, chemical, 
# crystal, experimental, refinement or atomic coordinate data resulting 
# from the CCDC's data processing and validation procedures.
#
#######################################################################

data_TAKZOW
_chemical_formula_moiety         'C15 H15 N3 O1 S1'
_chemical_name_systematic        
2-(4-Methoxybenzylidene)-N-phenylhydrazinecarbothioamide
_symmetry_cell_setting           triclinic
_symmetry_space_group_name_H-M   'P -1'
_symmetry_Int_Tables_number      2
_space_group_name_Hall           '-P 1'
loop_
_symmetry_equiv_pos_site_id
_symmetry_equiv_pos_as_xyz
1 x,y,z
2 -x,-y,-z
_cell_length_a                   4.8553(4)
_cell_length_b                   11.0263(10)
_cell_length_c                   13.8679(11)
_cell_angle_alpha                78.089(6)
_cell_angle_beta                 89.639(6)
_cell_angle_gamma                89.659(6)
_cell_volume                     726.424
_exptl_crystal_colour            yellow
_exptl_crystal_description       needle
_cell_formula_units_Z            2
loop_
_atom_site_label
_atom_site_type_symbol
_atom_site_fract_x
_atom_site_fract_y
_atom_site_fract_z
C1 C 0.4186(5) 0.4310(2) 0.17481(17)
C2 C -0.0795(5) 0.6624(2) 0.11141(19)
H1 H -0.0811 0.6625 0.0443
C3 C 0.5596(6) 0.3465(3) 0.34696(18)
C4 C 0.5745(8) 0.2223(3) 0.3582(2)
H2 H 0.4819 0.1830 0.3149
C5 C 0.7286(9) 0.1531(3) 0.4346(3)
H3 H 0.7377 0.0674 0.4421
C6 C 0.8640(9) 0.2080(5) 0.4977(3)
H4 H 0.9701 0.1614 0.5477
C7 C 0.8439(10) 0.3324(5) 0.4873(3)
H5 H 0.9334 0.3711 0.5317
C8 C 0.6920(8) 0.4027(3) 0.4118(2)
H6 H 0.6806 0.4882 0.4053
C9 C -0.2633(5) 0.7459(2) 0.14965(17)
C10 C -0.4428(5) 0.8223(2) 0.08736(18)
H7 H -0.4458 0.8181 0.0211
C11 C -0.6178(5) 0.9048(2) 0.12034(18)
H8 H -0.7362 0.9551 0.0769
C12 C -0.6140(6) 0.9112(2) 0.21849(19)
C13 C -0.4381(6) 0.8350(3) 0.28176(19)
H9 H -0.4376 0.8387 0.3481
C14 C -0.2644(6) 0.7541(2) 0.24878(18)
H10 H -0.1462 0.7042 0.2927
C15 C -0.9429(7) 1.0773(3) 0.1954(2)
H11 H -0.8295 1.1288 0.1467
H12 H -1.0393 1.1280 0.2332
H13 H -1.0736 1.0342 0.1633
N1 N 0.3978(5) 0.4219(2) 0.27240(15)
H14 H 0.2725 0.4666 0.2922
N2 N 0.2519(4) 0.51707(19) 0.12120(14)
H15 H 0.2504 0.5271 0.0580
N3 N 0.0840(4) 0.58899(19) 0.16720(15)
O1 O -0.7737(4) 0.98951(17) 0.25924(13)
S1 S 0.63199(16) 0.34736(7) 0.11901(5)
loop_
_geom_bond_atom_site_label_1
_geom_bond_atom_site_label_2
_geom_bond_site_symmetry_1
_geom_bond_site_symmetry_2
C1 N1 1_555 1_555
C2 H1 1_555 1_555
C3 C4 1_555 1_555
C4 H2 1_555 1_555
C5 C4 1_555 1_555
H3 C5 1_555 1_555
C6 C5 1_555 1_555
H4 C6 1_555 1_555
C7 C6 1_555 1_555
H5 C7 1_555 1_555
C8 C3 1_555 1_555
H6 C8 1_555 1_555
C9 C2 1_555 1_555
C10 C9 1_555 1_555
H7 C10 1_555 1_555
C11 C10 1_555 1_555
H8 C11 1_555 1_555
C12 C11 1_555 1_555
C13 C12 1_555 1_555
H9 C13 1_555 1_555
C14 C9 1_555 1_555
H10 C14 1_555 1_555
C15 H11 1_555 1_555
H12 C15 1_555 1_555
H13 C15 1_555 1_555
N1 C3 1_555 1_555
H14 N1 1_555 1_555
N2 C1 1_555 1_555
H15 N2 1_555 1_555
N3 C2 1_555 1_555
O1 C12 1_555 1_555
S1 C1 1_555 1_555
C7 C8 1_555 1_555
C13 C14 1_555 1_555
C15 O1 1_555 1_555
N2 N3 1_555 1_555

#END
