
#######################################################################
#
#                 Cambridge Crystallographic Data Centre
#                                CCDC 
#
#######################################################################
#
# If this CIF has been generated from an entry in the Cambridge 
# Structural Database, then it will include bibliographic, chemical, 
# crystal, experimental, refinement or atomic coordinate data resulting 
# from the CCDC's data processing and validation procedures.
#
#######################################################################

data_TALDAM
_chemical_formula_moiety         'C18 H18 N2 O4'
_chemical_name_systematic        
'(E)-Ethyl 2,6-bis(4-pyridyl)-(1,3)dioxan-4-ylideneacetate'
_symmetry_cell_setting           triclinic
_symmetry_space_group_name_H-M   'P -1'
_symmetry_Int_Tables_number      2
_space_group_name_Hall           '-P 1'
loop_
_symmetry_equiv_pos_site_id
_symmetry_equiv_pos_as_xyz
1 x,y,z
2 -x,-y,-z
_cell_length_a                   9.223(4)
_cell_length_b                   10.134(4)
_cell_length_c                   10.621(4)
_cell_angle_alpha                106.363(7)
_cell_angle_beta                 114.880(7)
_cell_angle_gamma                101.746(7)
_cell_volume                     802.756
_exptl_crystal_colour            colorless
_exptl_crystal_description       block
_cell_formula_units_Z            2
loop_
_atom_site_label
_atom_site_type_symbol
_atom_site_fract_x
_atom_site_fract_y
_atom_site_fract_z
O1 O 0.34262(17) 1.14267(14) 0.95229(14)
O2 O 0.16923(18) 0.89257(14) 0.80176(14)
O3 O 0.06417(18) 0.75744(16) 1.11829(15)
O4 O -0.15831(17) 0.57733(15) 0.89797(15)
N1 N 0.7800(2) 1.46403(19) 1.49535(19)
N2 N 0.2392(2) 1.0856(2) 0.44170(19)
C1 C 0.4882(3) 1.2919(2) 1.3606(2)
H1 H 0.3904 1.2467 1.3648
C2 C 0.6367(3) 1.3959(2) 1.4918(2)
H2 H 0.6374 1.4206 1.5853
C3 C 0.7737(3) 1.4268(2) 1.3616(2)
H3 H 0.8734 1.4735 1.3607
C4 C 0.6307(3) 1.3244(2) 1.2244(2)
H4 H 0.6330 1.3021 1.1324
C5 C 0.4840(2) 1.2548(2) 1.2232(2)
C6 C 0.3245(2) 1.1389(2) 1.0791(2)
H5 H 0.2229 1.1648 1.0712
C7 C 0.1925(2) 1.0407(2) 0.8146(2)
H6 H 0.0904 1.0634 0.8105
C8 C 0.2115(2) 1.0545(2) 0.6848(2)
C9 C 0.1763(3) 1.1660(2) 0.6414(2)
H7 H 0.1419 1.2337 0.6936
C10 C 0.1921(3) 1.1770(2) 0.5203(2)
H8 H 0.1680 1.2542 0.4916
C11 C 0.2728(3) 0.9782(3) 0.4855(2)
H9 H 0.3066 0.9118 0.4311
C12 C 0.2612(3) 0.9583(2) 0.6050(2)
H10 H 0.2866 0.8805 0.6317
C13 C 0.1556(2) 0.8689(2) 0.9184(2)
C14 C 0.2930(3) 0.9826(2) 1.0741(2)
H11 H 0.4010 0.9633 1.1026
H12 H 0.2583 0.9752 1.1490
C15 C 0.0301(2) 0.7438(2) 0.8770(2)
H13 H -0.0375 0.6795 0.7716
C16 C -0.0109(2) 0.6984(2) 0.9809(2)
C17 C -0.2310(3) 0.5268(2) 0.9813(2)
H14 H -0.2590 0.6052 1.0355
H15 H -0.1481 0.5012 1.0571
C18 C -0.3911(3) 0.3927(3) 0.8657(2)
H16 H -0.4685 0.4181 0.7876
H17 H -0.4488 0.3586 0.9162
H18 H -0.3605 0.3139 0.8178
loop_
_geom_bond_atom_site_label_1
_geom_bond_atom_site_label_2
_geom_bond_site_symmetry_1
_geom_bond_site_symmetry_2
O1 C6 1_555 1_555
O2 C7 1_555 1_555
O3 C16 1_555 1_555
O4 C16 1_555 1_555
N1 C2 1_555 1_555
N2 C10 1_555 1_555
C1 H1 1_555 1_555
C2 C1 1_555 1_555
H2 C2 1_555 1_555
C3 N1 1_555 1_555
H3 C3 1_555 1_555
C4 C3 1_555 1_555
H4 C4 1_555 1_555
C5 C1 1_555 1_555
C6 C5 1_555 1_555
H5 C6 1_555 1_555
C7 O1 1_555 1_555
H6 C7 1_555 1_555
C8 C7 1_555 1_555
C9 C8 1_555 1_555
H7 C9 1_555 1_555
C10 C9 1_555 1_555
H8 C10 1_555 1_555
C11 N2 1_555 1_555
H9 C11 1_555 1_555
C12 C8 1_555 1_555
H10 C12 1_555 1_555
C13 O2 1_555 1_555
C14 C6 1_555 1_555
H11 C14 1_555 1_555
H12 C14 1_555 1_555
C15 C13 1_555 1_555
H13 C15 1_555 1_555
C16 C15 1_555 1_555
C17 O4 1_555 1_555
H14 C17 1_555 1_555
H15 C17 1_555 1_555
C18 C17 1_555 1_555
H16 C18 1_555 1_555
H17 C18 1_555 1_555
H18 C18 1_555 1_555
C4 C5 1_555 1_555
C11 C12 1_555 1_555
C13 C14 1_555 1_555

#END
