
#######################################################################
#
#                 Cambridge Crystallographic Data Centre
#                                CCDC 
#
#######################################################################
#
# If this CIF has been generated from an entry in the Cambridge 
# Structural Database, then it will include bibliographic, chemical, 
# crystal, experimental, refinement or atomic coordinate data resulting 
# from the CCDC's data processing and validation procedures.
#
#######################################################################

data_TALGES
_chemical_compound_source        'wood distillate of Amyris(sp.)'
_chemical_formula_moiety         'C22 H29 Br1 O3'
_chemical_name_systematic        
'5,6,9,9-Tetramethyl-10-oxa-tricyclo(6.2.2.0^1,6^)dodec-2-yl p-bromobenzoate'
_symmetry_cell_setting           orthorhombic
_symmetry_space_group_name_H-M   'P 21 21 21'
_symmetry_Int_Tables_number      19
_space_group_name_Hall           'P 2ac 2ab'
loop_
_symmetry_equiv_pos_site_id
_symmetry_equiv_pos_as_xyz
1 x,y,z
2 1/2+x,1/2-y,-z
3 -x,1/2+y,1/2-z
4 1/2-x,-y,1/2+z
_cell_length_a                   7.038(1)
_cell_length_b                   23.924(2)
_cell_length_c                   24.84(1)
_cell_angle_alpha                90
_cell_angle_beta                 90
_cell_angle_gamma                90
_cell_volume                     4182.49
_cell_formula_units_Z            8
loop_
_atom_site_label
_atom_site_type_symbol
_atom_site_fract_x
_atom_site_fract_y
_atom_site_fract_z
Br1 Br 0.04601(24) 0.21923(6) 0.56333(6)
C1 C -0.1150(17) 0.1566(4) 0.5545(4)
C2 C -0.3108(19) 0.1658(5) 0.5498(5)
C3 C -0.0447(17) 0.1048(4) 0.5511(4)
C4 C -0.4289(17) 0.1212(4) 0.5404(4)
C5 C -0.1620(16) 0.0611(4) 0.5404(4)
C6 C -0.3600(16) 0.0694(4) 0.5354(4)
C7 C -0.4925(17) 0.0226(4) 0.5228(4)
O1 O -0.6614(10) 0.0261(3) 0.5258(3)
O2 O -0.3996(9) -0.0236(3) 0.5076(3)
C8 C -0.5159(15) -0.0695(4) 0.4855(4)
C9 C -0.5328(20) -0.1141(6) 0.5285(5)
C10 C -0.3409(28) -0.1459(8) 0.5390(6)
C11 C -0.2647(19) -0.1692(4) 0.4858(6)
C12 C -0.2292(14) -0.1246(4) 0.4441(5)
C13 C -0.1882(17) -0.1531(5) 0.3889(6)
C14 C -0.3163(17) -0.1324(5) 0.3434(5)
C15 C -0.2988(23) -0.0689(6) 0.3425(6)
C16 C -0.3842(26) -0.0425(5) 0.3947(5)
C17 C -0.4177(13) -0.0902(4) 0.4353(4)
O3 O -0.5598(9) -0.1277(2) 0.4136(3)
C18 C -0.5290(17) -0.1460(5) 0.3595(4)
C19 C -0.0871(29) -0.2051(6) 0.4984(9)
C20 C -0.0645(18) -0.0868(6) 0.4588(6)
C21 C -0.5578(21) -0.2105(5) 0.3598(7)
C22 C -0.6706(24) -0.1185(7) 0.3212(6)
H1 H -0.3527 0.1904 0.5435
H2 H 0.0727 0.1117 0.5528
H3 H -0.5468 0.1349 0.5218
H4 H -0.1261 0.0265 0.5389
H6 H -0.5988 -0.1438 0.5166
H7 H -0.5943 -0.1032 0.5629
H8 H -0.3825 -0.1752 0.5660
H10 H -0.3967 -0.1985 0.4761
H11 H -0.1775 -0.2018 0.3968
H12 H -0.0783 -0.1374 0.3695
H14 H -0.3427 -0.0410 0.3165
H15 H -0.1775 -0.0610 0.3399
H16 H -0.4641 -0.0321 0.3912
H17 H -0.3545 -0.0081 0.4050
H18 H -0.0459 -0.2154 0.4620
H19 H -0.1138 -0.2385 0.5187
H20 H -0.0374 -0.1976 0.5271
H21 H -0.0454 -0.0524 0.4255
H22 H 0.0370 -0.1039 0.4606
H23 H -0.1104 -0.0755 0.4936
H24 H -0.4817 -0.2323 0.3968
H25 H -0.5424 -0.2141 0.3344
H26 H -0.6546 -0.2153 0.3691
H27 H -0.6435 -0.1442 0.2815
H28 H -0.6635 -0.0668 0.3220
H29 H -0.7846 -0.1306 0.3156
Br2 Br 0.14497(26) -0.03417(6) 0.65858(7)
C23 C 0.2932(21) 0.0296(5) 0.6707(5)
C24 C 0.4946(20) 0.0219(4) 0.6772(6)
C25 C 0.2191(17) 0.0799(5) 0.6730(5)
C26 C 0.5949(24) 0.0685(5) 0.6848(7)
C27 C 0.3283(17) 0.1275(4) 0.6803(4)
C28 C 0.5289(16) 0.1208(4) 0.6887(4)
C29 C 0.6476(17) 0.1704(4) 0.6971(4)
O4 O 0.8224(11) 0.1661(3) 0.6990(3)
O5 O 0.5562(10) 0.2170(3) 0.7031(3)
C30 C 0.6596(17) 0.2694(4) 0.7067(6)
C31 C 0.6987(18) 0.2847(5) 0.7683(5)
C32 C 0.5208(19) 0.2995(5) 0.7972(4)
C33 C 0.4288(17) 0.3483(4) 0.7706(4)
C34 C 0.3671(14) 0.3351(4) 0.7108(4)
C35 C 0.3002(19) 0.3914(5) 0.6805(8)
C36 C 0.4169(22) 0.4002(5) 0.6309(5)
C37 C 0.3938(22) 0.3475(6) 0.5971(5)
C38 C 0.4986(20) 0.2987(5) 0.6225(5)
C39 C 0.5474(15) 0.3142(3) 0.6790(4)
O6 O 0.6867(9) 0.3597(3) 0.6782(3)
C40 C 0.6381(17) 0.4068(5) 0.6453(5)
C41 C 0.2550(21) 0.3694(6) 0.8043(6)
C42 C 0.2074(15) 0.2930(3) 0.7080(6)
C43 C 0.6676(22) 0.4584(4) 0.6766(6)
C44 C 0.7594(30) 0.4088(9) 0.5952(7)
H30 H 0.4470 -0.0180 0.6907
H31 H 0.1057 0.0795 0.6564
H32 H 0.6678 0.0691 0.7011
H33 H 0.2714 0.1684 0.6865
H34 H 0.7719 0.2606 0.6820
H36 H 0.7647 0.2622 0.7807
H37 H 0.5444 0.3048 0.8387
H38 H 0.4310 0.2546 0.7909
H39 H 0.5271 0.3858 0.7626
H41 H 0.3542 0.4357 0.6150
H42 H 0.4350 0.3529 0.5597
H43 H 0.2289 0.3367 0.5909
H44 H 0.5653 0.2920 0.6020
H45 H 0.4551 0.2607 0.6227
H46 H 0.3453 0.3598 0.8375
H47 H 0.1644 0.3408 0.8061
H48 H 0.2009 0.4046 0.7895
H49 H 0.2278 0.2447 0.7216
H50 H 0.1664 0.2848 0.6698
H51 H 0.1355 0.3106 0.7283
H52 H 0.5914 0.4587 0.7223
H53 H 0.6472 0.4903 0.6654
H54 H 0.7831 0.4656 0.6974
H55 H 0.7322 0.3659 0.5751
H57 H 0.8933 0.4101 0.5941
H5? H -0.3992 -0.0617 0.5270
H9? H -0.3775 -0.1276 0.5398
H13? H -0.2171 -0.1557 0.3587
H35? H 0.7022 0.2777 0.7315
H40? H 0.3171 0.3787 0.6992
H56? H 0.8131 0.3937 0.5811
loop_
_geom_bond_atom_site_label_1
_geom_bond_atom_site_label_2
_geom_bond_site_symmetry_1
_geom_bond_site_symmetry_2
Br1 C1 1_555 1_555
C1 C2 1_555 1_555
C2 C4 1_555 1_555
C3 C1 1_555 1_555
C4 C6 1_555 1_555
C5 C3 1_555 1_555
C6 C5 1_555 1_555
C7 C6 1_555 1_555
O1 C7 1_555 1_555
O2 C7 1_555 1_555
C8 O2 1_555 1_555
C9 C8 1_555 1_555
C10 C9 1_555 1_555
C11 C10 1_555 1_555
C12 C11 1_555 1_555
C13 C12 1_555 1_555
C14 C13 1_555 1_555
C15 C14 1_555 1_555
C16 C15 1_555 1_555
C17 C8 1_555 1_555
O3 C17 1_555 1_555
C18 C14 1_555 1_555
C19 C11 1_555 1_555
C20 C12 1_555 1_555
C21 C18 1_555 1_555
C22 C18 1_555 1_555
Br2 C23 1_555 1_555
C23 C24 1_555 1_555
C24 C26 1_555 1_555
C25 C23 1_555 1_555
C26 C28 1_555 1_555
C27 C25 1_555 1_555
C28 C27 1_555 1_555
C29 C28 1_555 1_555
O4 C29 1_555 1_555
O5 C29 1_555 1_555
C30 O5 1_555 1_555
C31 C30 1_555 1_555
C32 C31 1_555 1_555
C33 C32 1_555 1_555
C34 C33 1_555 1_555
C35 C34 1_555 1_555
C36 C35 1_555 1_555
C37 C36 1_555 1_555
C38 C37 1_555 1_555
C39 C30 1_555 1_555
O6 C39 1_555 1_555
C40 C36 1_555 1_555
C41 C33 1_555 1_555
C42 C34 1_555 1_555
C43 C40 1_555 1_555
C44 C40 1_555 1_555
H1 C2 1_555 1_555
H2 C3 1_555 1_555
H3 C4 1_555 1_555
H4 C5 1_555 1_555
H6 C9 1_555 1_555
H7 C9 1_555 1_555
H8 C10 1_555 1_555
H10 C11 1_555 1_555
H11 C13 1_555 1_555
H12 C13 1_555 1_555
H14 C15 1_555 1_555
H15 C15 1_555 1_555
H16 C16 1_555 1_555
H17 C16 1_555 1_555
H18 C19 1_555 1_555
H19 C19 1_555 1_555
H20 C19 1_555 1_555
H21 C20 1_555 1_555
H22 C20 1_555 1_555
H23 C20 1_555 1_555
H24 C21 1_555 1_555
H25 C21 1_555 1_555
H26 C21 1_555 1_555
H27 C22 1_555 1_555
H28 C22 1_555 1_555
H29 C22 1_555 1_555
H30 C24 1_555 1_555
H31 C25 1_555 1_555
H32 C26 1_555 1_555
H33 C27 1_555 1_555
H34 C30 1_555 1_555
H36 C31 1_555 1_555
H37 C32 1_555 1_555
H38 C32 1_555 1_555
H39 C33 1_555 1_555
H41 C36 1_555 1_555
H42 C37 1_555 1_555
H43 C37 1_555 1_555
H44 C38 1_555 1_555
H45 C38 1_555 1_555
H46 C41 1_555 1_555
H47 C41 1_555 1_555
H48 C41 1_555 1_555
H49 C42 1_555 1_555
H50 C42 1_555 1_555
H51 C42 1_555 1_555
H52 C43 1_555 1_555
H53 C43 1_555 1_555
H54 C43 1_555 1_555
H55 C44 1_555 1_555
H57 C44 1_555 1_555
C12 C17 1_555 1_555
C16 C17 1_555 1_555
O3 C18 1_555 1_555
C34 C39 1_555 1_555
C38 C39 1_555 1_555
O6 C40 1_555 1_555

#END
