
#######################################################################
#
#                 Cambridge Crystallographic Data Centre
#                                CCDC 
#
#######################################################################
#
# If this CIF has been generated from an entry in the Cambridge 
# Structural Database, then it will include bibliographic, chemical, 
# crystal, experimental, refinement or atomic coordinate data resulting 
# from the CCDC's data processing and validation procedures.
#
#######################################################################

data_TALVIO
_chemical_formula_moiety         'C7 H5 N2 O4 1-,H5 N2 1+,2(H2 O1)'
_chemical_name_systematic        'hydrazinium 2-amino-4-nitrobenzoate dihydrate'
_symmetry_cell_setting           triclinic
_symmetry_space_group_name_H-M   'P -1'
_symmetry_Int_Tables_number      2
_space_group_name_Hall           '-P 1'
loop_
_symmetry_equiv_pos_site_id
_symmetry_equiv_pos_as_xyz
1 x,y,z
2 -x,-y,-z
_cell_length_a                   6.9695(2)
_cell_length_b                   8.0960(3)
_cell_length_c                   10.5316(3)
_cell_angle_alpha                76.468(2)
_cell_angle_beta                 73.251(2)
_cell_angle_gamma                75.390(2)
_cell_volume                     542.23
_exptl_crystal_colour            red
_exptl_crystal_description       block
_cell_formula_units_Z            2
loop_
_atom_site_label
_atom_site_type_symbol
_atom_site_fract_x
_atom_site_fract_y
_atom_site_fract_z
O1 O 0.40595(14) 0.36669(11) 0.25616(9)
O2 O 0.46220(13) 0.18017(11) 0.11781(9)
O3 O 0.04781(14) -0.28112(12) 0.77375(9)
O4 O 0.24000(15) -0.47250(11) 0.65475(9)
N1 N 0.15996(17) 0.28747(14) 0.50370(11)
H1 H 0.218(2) 0.3697(17) 0.4483(14)
H2 H 0.107(2) 0.301(2) 0.5877(10)
N2 N 0.17056(16) -0.32135(13) 0.67034(10)
C1 C 0.34738(18) 0.08075(15) 0.35268(12)
C2 C 0.23062(17) 0.12171(15) 0.47960(12)
C3 C 0.17447(18) -0.01538(16) 0.58371(12)
H3 H 0.0949 0.0079 0.6698
C4 C 0.23572(18) -0.18300(15) 0.55975(12)
C5 C 0.35262(19) -0.22781(16) 0.43707(13)
H4 H 0.3943 -0.3450 0.4241
C6 C 0.40531(19) -0.09256(16) 0.33461(12)
H5 H 0.4836 -0.1183 0.2489
C7 C 0.40929(18) 0.21917(15) 0.23517(12)
N3 N -0.00982(17) 0.32666(14) 0.90634(11)
H6 H 0.045(2) 0.2268(14) 0.9450(14)
H7 H 0.086(2) 0.3844(19) 0.8652(14)
H8 H -0.102(2) 0.3825(19) 0.9655(13)
N4 N -0.09239(17) 0.30241(15) 0.80197(11)
H9 H -0.179(2) 0.3973(15) 0.7857(16)
H10 H -0.159(2) 0.2192(17) 0.8375(15)
O5 O 0.21973(14) 0.02486(12) 0.02803(10)
H11 H 0.279(3) 0.070(2) 0.0681(16)
H12 H 0.312(2) -0.033(2) -0.0235(15)
O6 O 0.31998(14) 0.45790(12) -0.06089(9)
H13 H 0.381(2) 0.382(2) -0.0080(15)
H14 H 0.409(2) 0.506(2) -0.1221(15)
loop_
_geom_bond_atom_site_label_1
_geom_bond_atom_site_label_2
_geom_bond_site_symmetry_1
_geom_bond_site_symmetry_2
O1 C7 1_555 1_555
O2 C7 1_555 1_555
O3 N2 1_555 1_555
O4 N2 1_555 1_555
N1 H1 1_555 1_555
H2 N1 1_555 1_555
N2 C4 1_555 1_555
C1 C2 1_555 1_555
C2 N1 1_555 1_555
C3 C2 1_555 1_555
H3 C3 1_555 1_555
C4 C3 1_555 1_555
C5 C4 1_555 1_555
H4 C5 1_555 1_555
C6 C1 1_555 1_555
H5 C6 1_555 1_555
C7 C1 1_555 1_555
N3 H6 1_555 1_555
H7 N3 1_555 1_555
H8 N3 1_555 1_555
N4 N3 1_555 1_555
H9 N4 1_555 1_555
H10 N4 1_555 1_555
O5 H11 1_555 1_555
H12 O5 1_555 1_555
O6 H13 1_555 1_555
H14 O6 1_555 1_555
C5 C6 1_555 1_555

#END
