
#######################################################################
#
#                 Cambridge Crystallographic Data Centre
#                                CCDC 
#
#######################################################################
#
# If this CIF has been generated from an entry in the Cambridge 
# Structural Database, then it will include bibliographic, chemical, 
# crystal, experimental, refinement or atomic coordinate data resulting 
# from the CCDC's data processing and validation procedures.
#
#######################################################################

data_TALWUY
_chemical_formula_moiety         'C13 H15 N1 O1'
_chemical_name_systematic        
2,3,4,5-Tetrahydro-2-oxo-1,5-propanobenzazepine
_chemical_properties_biological  'related to tranquillizing drug'
_symmetry_cell_setting           monoclinic
_symmetry_space_group_name_H-M   'P 21/n'
_symmetry_Int_Tables_number      14
_space_group_name_Hall           '-P 2yn'
loop_
_symmetry_equiv_pos_site_id
_symmetry_equiv_pos_as_xyz
1 x,y,z
2 1/2-x,1/2+y,1/2-z
3 -x,-y,-z
4 1/2+x,1/2-y,1/2+z
_cell_length_a                   9.020(3)
_cell_length_b                   10.177(4)
_cell_length_c                   22.663(10)
_cell_angle_alpha                90
_cell_angle_beta                 93.72(3)
_cell_angle_gamma                90
_cell_volume                     2076
_exptl_crystal_colour            colorless
_chemical_melting_point          82.3-83.3deg.C
_cell_formula_units_Z            8
loop_
_atom_site_label
_atom_site_type_symbol
_atom_site_fract_x
_atom_site_fract_y
_atom_site_fract_z
O1 O -0.2781(4) -0.1304(4) 0.2920(2)
N1 N -0.0588(4) -0.2404(4) 0.3044(2)
C1 C -0.1442(5) -0.1295(5) 0.3067(2)
C2 C -0.0637(6) -0.0052(5) 0.3239(2)
C3 C 0.0192(6) 0.0433(5) 0.2703(2)
C4 C 0.1011(5) -0.0655(5) 0.2380(2)
C5 C 0.1818(5) -0.1516(5) 0.2838(2)
C6 C 0.3366(5) -0.1468(6) 0.2965(2)
C7 C 0.4022(6) -0.2227(6) 0.3418(2)
C8 C 0.3176(6) -0.3037(5) 0.3748(2)
C9 C 0.1647(6) -0.3110(5) 0.3625(2)
C10 C 0.1012(5) -0.2335(5) 0.3182(2)
C11 C -0.0040(6) -0.1451(6) 0.1926(2)
C12 C -0.0123(6) -0.2942(5) 0.2016(2)
C13 C -0.1001(8) -0.3336(6) 0.2551(2)
H1 H -0.0044 0.0209 0.3569
H2 H -0.1336 0.0596 0.3339
H3 H 0.0920 0.1049 0.2846
H4 H -0.0499 0.0854 0.2431
H5 H 0.1689 -0.0268 0.2128
H6 H 0.3972 -0.0938 0.2734
H7 H 0.5062 -0.2168 0.3510
H8 H 0.3634 -0.3558 0.4055
H9 H 0.1057 -0.3685 0.3842
H10 H 0.0293 -0.1301 0.1542
H11 H -0.1017 -0.1112 0.1945
H12 H 0.0859 -0.3276 0.2077
H13 H -0.0591 -0.3323 0.1669
H14 H -0.2036 -0.3284 0.2447
H15 H -0.0751 -0.4208 0.2670
O2 O 0.5244(4) 0.2866(4) 0.4855(2)
N2 N 0.3046(4) 0.2417(4) 0.4347(2)
C14 C 0.3900(6) 0.3107(5) 0.4765(2)
C15 C 0.3112(5) 0.4087(5) 0.5126(2)
C16 C 0.2226(5) 0.3340(5) 0.5583(2)
C17 C 0.1391(5) 0.2109(5) 0.5333(2)
C18 C 0.0602(5) 0.2482(5) 0.4745(2)
C19 C -0.0924(5) 0.2712(5) 0.4665(2)
C20 C -0.1552(6) 0.3119(5) 0.4122(2)
C21 C -0.0668(6) 0.3314(5) 0.3651(2)
C22 C 0.0860(5) 0.3109(5) 0.3724(2)
C23 C 0.1472(5) 0.2699(5) 0.4271(2)
C24 C 0.2395(6) 0.0855(5) 0.5315(2)
C25 C 0.2514(6) 0.0208(5) 0.4708(2)
C26 C 0.3398(6) 0.1010(5) 0.4281(2)
H16 H 0.2447 0.4594 0.4876
H17 H 0.3818 0.4652 0.5325
H18 H 0.1533 0.3933 0.5735
H19 H 0.2907 0.3055 0.5894
H20 H 0.0655 0.1869 0.5595
H21 H -0.1542 0.2604 0.4985
H22 H -0.2596 0.3237 0.4066
H23 H -0.1110 0.3615 0.3284
H24 H 0.1469 0.3227 0.3402
H25 H 0.1997 0.0215 0.5566
H26 H 0.3367 0.1089 0.5465
H27 H 0.1539 0.0088 0.4533
H28 H 0.2983 -0.0622 0.4764
H29 H 0.4431 0.0879 0.4370
H30 H 0.3143 0.0736 0.3887
loop_
_geom_bond_atom_site_label_1
_geom_bond_atom_site_label_2
_geom_bond_site_symmetry_1
_geom_bond_site_symmetry_2
O1 C1 1_555 1_555
N1 C1 1_555 1_555
C1 C2 1_555 1_555
C2 C3 1_555 1_555
C3 C4 1_555 1_555
C4 C5 1_555 1_555
C5 C6 1_555 1_555
C6 C7 1_555 1_555
C7 C8 1_555 1_555
C8 C9 1_555 1_555
C9 C10 1_555 1_555
C10 N1 1_555 1_555
C11 C4 1_555 1_555
C12 C11 1_555 1_555
C13 N1 1_555 1_555
O2 C14 1_555 1_555
N2 C14 1_555 1_555
C14 C15 1_555 1_555
C15 C16 1_555 1_555
C16 C17 1_555 1_555
C17 C18 1_555 1_555
C18 C19 1_555 1_555
C19 C20 1_555 1_555
C20 C21 1_555 1_555
C21 C22 1_555 1_555
C22 C23 1_555 1_555
C23 N2 1_555 1_555
C24 C17 1_555 1_555
C25 C24 1_555 1_555
C26 N2 1_555 1_555
H1 C2 1_555 1_555
H2 C2 1_555 1_555
H3 C3 1_555 1_555
H4 C3 1_555 1_555
H5 C4 1_555 1_555
H6 C6 1_555 1_555
H7 C7 1_555 1_555
H8 C8 1_555 1_555
H9 C9 1_555 1_555
H10 C11 1_555 1_555
H11 C11 1_555 1_555
H12 C12 1_555 1_555
H13 C12 1_555 1_555
H14 C13 1_555 1_555
H15 C13 1_555 1_555
H16 C15 1_555 1_555
H17 C15 1_555 1_555
H18 C16 1_555 1_555
H19 C16 1_555 1_555
H20 C17 1_555 1_555
H21 C19 1_555 1_555
H22 C20 1_555 1_555
H23 C21 1_555 1_555
H24 C22 1_555 1_555
H25 C24 1_555 1_555
H26 C24 1_555 1_555
H27 C25 1_555 1_555
H28 C25 1_555 1_555
H29 C26 1_555 1_555
H30 C26 1_555 1_555
C5 C10 1_555 1_555
C12 C13 1_555 1_555
C18 C23 1_555 1_555
C25 C26 1_555 1_555

#END
