
#######################################################################
#
#                 Cambridge Crystallographic Data Centre
#                                CCDC 
#
#######################################################################
#
# If this CIF has been generated from an entry in the Cambridge 
# Structural Database, then it will include bibliographic, chemical, 
# crystal, experimental, refinement or atomic coordinate data resulting 
# from the CCDC's data processing and validation procedures.
#
#######################################################################

data_TALXOW
_chemical_formula_moiety         'C47 H42 N6 O3'
_chemical_name_systematic        
2,4,6,8,9,11-hexabenzyl-2,4,6,8,9,11-hexaazatricyclo[3.3.3.0^1,5^]undecane-3,7,10-trione
_symmetry_cell_setting           orthorhombic
_symmetry_space_group_name_H-M   'F d d 2'
_symmetry_Int_Tables_number      43
_space_group_name_Hall           'F 2 -2d'
loop_
_symmetry_equiv_pos_site_id
_symmetry_equiv_pos_as_xyz
1 x,y,z
2 -x,-y,z
3 1/4+x,1/4-y,1/4+z
4 1/4-x,1/4+y,1/4+z
5 x,1/2+y,1/2+z
6 -x,1/2-y,1/2+z
7 1/4+x,3/4-y,3/4+z
8 1/4-x,3/4+y,3/4+z
9 1/2+x,y,1/2+z
10 1/2-x,-y,1/2+z
11 3/4+x,1/4-y,3/4+z
12 3/4-x,1/4+y,3/4+z
13 1/2+x,1/2+y,z
14 1/2-x,1/2-y,z
15 3/4+x,3/4-y,1/4+z
16 3/4-x,3/4+y,1/4+z
_cell_length_a                   18.182(3)
_cell_length_b                   29.406(6)
_cell_length_c                   14.548(3)
_cell_angle_alpha                90
_cell_angle_beta                 90
_cell_angle_gamma                90
_cell_volume                     7778.23
_exptl_crystal_colour            white
_exptl_crystal_description       block
_cell_formula_units_Z            8
loop_
_atom_site_label
_atom_site_type_symbol
_atom_site_fract_x
_atom_site_fract_y
_atom_site_fract_z
N1 N 0.21752(7) 0.20106(4) 0.64766(9)
N2 N 0.16042(6) 0.26713(5) 0.67196(9)
N3 N 0.23649(7) 0.28713(4) 0.80336(8)
O1 O 0.10022(6) 0.21092(4) 0.59115(9)
O2 O 0.2500 0.2500 0.94148(12)
C1 C 0.32590(11) 0.12755(6) 0.50467(15)
H1 H 0.3479 0.1131 0.5544
C2 C 0.35613(14) 0.12311(8) 0.41840(19)
H2 H 0.3984 0.1058 0.4104
C3 C 0.32455(15) 0.14393(9) 0.34475(18)
H3 H 0.3448 0.1407 0.2864
C4 C 0.26318(15) 0.16952(10) 0.35723(16)
H4 H 0.2415 0.1839 0.3072
C5 C 0.23275(11) 0.17431(8) 0.44337(14)
H5 H 0.1909 0.1921 0.4510
C6 C 0.26377(9) 0.15304(6) 0.51826(11)
C7 C 0.22853(9) 0.15532(5) 0.61176(12)
H6 H 0.1812 0.1402 0.6088
H7 H 0.2589 0.1385 0.6547
C8 C 0.15354(9) 0.22491(5) 0.63269(11)
C9 C 0.23372(8) 0.27418(5) 0.70758(10)
C10 C 0.09750(8) 0.29805(6) 0.67784(13)
H8 H 0.0764 0.3016 0.6170
H9 H 0.1147 0.3277 0.6979
C11 C 0.03837(9) 0.28186(5) 0.74284(13)
C12 C -0.02663(10) 0.26441(7) 0.70868(15)
H10 H -0.0338 0.2627 0.6455
C13 C -0.08130(11) 0.24943(8) 0.76781(18)
H11 H -0.1249 0.2378 0.7440
C14 C -0.07155(12) 0.25168(7) 0.86117(17)
H12 H -0.1083 0.2415 0.9006
C15 C -0.00721(11) 0.26907(7) 0.89614(15)
H13 H -0.0003 0.2708 0.9594
C16 C 0.04713(9) 0.28393(6) 0.83726(14)
H14 H 0.0905 0.2956 0.8615
C17 C 0.2500 0.2500 0.85858(17)
C18 C 0.23888(9) 0.33311(5) 0.84037(12)
H15 H 0.2236 0.3320 0.9042
H16 H 0.2033 0.3515 0.8074
C19 C 0.31286(8) 0.35650(5) 0.83533(11)
C20 C 0.31564(9) 0.40335(6) 0.83013(13)
H17 H 0.2721 0.4200 0.8297
C21 C 0.38208(10) 0.42582(6) 0.82558(13)
H18 H 0.3830 0.4574 0.8213
C22 C 0.44669(10) 0.40196(7) 0.82733(13)
H19 H 0.4914 0.4172 0.8242
C23 C 0.44500(10) 0.35554(7) 0.83374(16)
H20 H 0.4887 0.3391 0.8356
C24 C 0.37817(9) 0.33300(6) 0.83741(15)
H21 H 0.3775 0.3014 0.8413
N1M N 0.28248(7) 0.29894(4) 0.64766(9)
N2M N 0.33958(6) 0.23287(5) 0.67196(9)
N3M N 0.26351(7) 0.21287(4) 0.80336(8)
O1M O 0.39978(6) 0.28908(4) 0.59115(9)
C1M C 0.17410(11) 0.37245(6) 0.50467(15)
H1M H 0.1521 0.3869 0.5544
C2M C 0.14387(14) 0.37689(8) 0.41840(19)
H2M H 0.1016 0.3942 0.4104
C3M C 0.17545(15) 0.35607(9) 0.34475(18)
H3M H 0.1552 0.3593 0.2864
C4M C 0.23682(15) 0.33048(10) 0.35723(16)
H4M H 0.2585 0.3161 0.3072
C5M C 0.26725(11) 0.32569(8) 0.44337(14)
H5M H 0.3091 0.3079 0.4510
C6M C 0.23623(9) 0.34696(6) 0.51826(11)
C7M C 0.27147(9) 0.34468(5) 0.61176(12)
H6M H 0.3188 0.3598 0.6088
H7M H 0.2411 0.3615 0.6547
C8M C 0.34646(9) 0.27509(5) 0.63269(11)
C9M C 0.26628(8) 0.22582(5) 0.70758(10)
C10M C 0.40250(8) 0.20195(6) 0.67784(13)
H8M H 0.4236 0.1984 0.6170
H9M H 0.3853 0.1723 0.6979
C11M C 0.46163(9) 0.21814(5) 0.74284(13)
C12M C 0.52663(10) 0.23559(7) 0.70868(15)
H10M H 0.5338 0.2373 0.6455
C13M C 0.58130(11) 0.25057(8) 0.76781(18)
H11M H 0.6249 0.2622 0.7440
C14M C 0.57155(12) 0.24832(7) 0.86117(17)
H12M H 0.6083 0.2585 0.9006
C15M C 0.50721(11) 0.23093(7) 0.89614(15)
H13M H 0.5003 0.2292 0.9594
C16M C 0.45287(9) 0.21607(6) 0.83726(14)
H14M H 0.4095 0.2044 0.8615
C18M C 0.26112(9) 0.16689(5) 0.84037(12)
H15M H 0.2764 0.1680 0.9042
H16M H 0.2967 0.1485 0.8074
C19M C 0.18714(8) 0.14350(5) 0.83533(11)
C20M C 0.18436(9) 0.09665(6) 0.83013(13)
H17M H 0.2279 0.0800 0.8297
C21M C 0.11792(10) 0.07418(6) 0.82558(13)
H18M H 0.1170 0.0426 0.8213
C22M C 0.05331(10) 0.09804(7) 0.82733(13)
H19M H 0.0086 0.0828 0.8242
C23M C 0.05500(10) 0.14446(7) 0.83374(16)
H20M H 0.0113 0.1609 0.8356
C24M C 0.12183(9) 0.16700(6) 0.83741(15)
H21M H 0.1225 0.1986 0.8413
loop_
_geom_bond_atom_site_label_1
_geom_bond_atom_site_label_2
_geom_bond_site_symmetry_1
_geom_bond_site_symmetry_2
N1 C7 1_555 1_555
N2 C8 1_555 1_555
N3 C9 1_555 1_555
O1 C8 1_555 1_555
O2 C17 1_555 1_555
C1 H1 1_555 1_555
C2 C1 1_555 1_555
H2 C2 1_555 1_555
C3 C2 1_555 1_555
H3 C3 1_555 1_555
C4 C3 1_555 1_555
H4 C4 1_555 1_555
C5 C4 1_555 1_555
H5 C5 1_555 1_555
C6 C1 1_555 1_555
C7 C6 1_555 1_555
H6 C7 1_555 1_555
H7 C7 1_555 1_555
C8 N1 1_555 1_555
C9 N2 1_555 1_555
C10 N2 1_555 1_555
H8 C10 1_555 1_555
H9 C10 1_555 1_555
C11 C10 1_555 1_555
C12 C11 1_555 1_555
H10 C12 1_555 1_555
C13 C12 1_555 1_555
H11 C13 1_555 1_555
C14 C13 1_555 1_555
H12 C14 1_555 1_555
C15 C14 1_555 1_555
H13 C15 1_555 1_555
C16 C11 1_555 1_555
H14 C16 1_555 1_555
C17 N3 1_555 1_555
C18 N3 1_555 1_555
H15 C18 1_555 1_555
H16 C18 1_555 1_555
C19 C18 1_555 1_555
C20 C19 1_555 1_555
H17 C20 1_555 1_555
C21 C20 1_555 1_555
H18 C21 1_555 1_555
C22 C21 1_555 1_555
H19 C22 1_555 1_555
C23 C22 1_555 1_555
H20 C23 1_555 1_555
C24 C19 1_555 1_555
H21 C24 1_555 1_555
N1M C9 1_555 1_555
N2M C8M 1_555 1_555
N3M C17 1_555 1_555
O1M C8M 1_555 1_555
C1M H1M 1_555 1_555
C2M C1M 1_555 1_555
H2M C2M 1_555 1_555
C3M C2M 1_555 1_555
H3M C3M 1_555 1_555
C4M C3M 1_555 1_555
H4M C4M 1_555 1_555
C5M C4M 1_555 1_555
H5M C5M 1_555 1_555
C6M C1M 1_555 1_555
C7M N1M 1_555 1_555
H6M C7M 1_555 1_555
H7M C7M 1_555 1_555
C8M N1M 1_555 1_555
C9M N1 1_555 1_555
C10M N2M 1_555 1_555
H8M C10M 1_555 1_555
H9M C10M 1_555 1_555
C11M C10M 1_555 1_555
C12M C11M 1_555 1_555
H10M C12M 1_555 1_555
C13M C12M 1_555 1_555
H11M C13M 1_555 1_555
C14M C13M 1_555 1_555
H12M C14M 1_555 1_555
C15M C14M 1_555 1_555
H13M C15M 1_555 1_555
C16M C11M 1_555 1_555
H14M C16M 1_555 1_555
C18M N3M 1_555 1_555
H15M C18M 1_555 1_555
H16M C18M 1_555 1_555
C19M C18M 1_555 1_555
C20M C19M 1_555 1_555
H17M C20M 1_555 1_555
C21M C20M 1_555 1_555
H18M C21M 1_555 1_555
C22M C21M 1_555 1_555
H19M C22M 1_555 1_555
C23M C22M 1_555 1_555
H20M C23M 1_555 1_555
C24M C19M 1_555 1_555
H21M C24M 1_555 1_555
C5 C6 1_555 1_555
C9 C9M 1_555 1_555
C15 C16 1_555 1_555
C23 C24 1_555 1_555
N2M C9M 1_555 1_555
N3M C9M 1_555 1_555
C5M C6M 1_555 1_555
C6M C7M 1_555 1_555
C15M C16M 1_555 1_555
C23M C24M 1_555 1_555

#END
