
#######################################################################
#
#                 Cambridge Crystallographic Data Centre
#                                CCDC 
#
#######################################################################
#
# If this CIF has been generated from an entry in the Cambridge 
# Structural Database, then it will include bibliographic, chemical, 
# crystal, experimental, refinement or atomic coordinate data resulting 
# from the CCDC's data processing and validation procedures.
#
#######################################################################

data_TALXAG
_chemical_formula_moiety         'C13 H12 O2 S1'
_chemical_name_systematic        Phenylbenzylsulfone
_symmetry_cell_setting           orthorhombic
_symmetry_space_group_name_H-M   'P n a 21'
_symmetry_Int_Tables_number      33
_space_group_name_Hall           'P 2c -2n'
loop_
_symmetry_equiv_pos_site_id
_symmetry_equiv_pos_as_xyz
1 x,y,z
2 -x,-y,1/2+z
3 1/2+x,1/2-y,z
4 1/2-x,1/2+y,1/2+z
_cell_length_a                   16.5888(6)
_cell_length_b                   12.2537(5)
_cell_length_c                   5.6054(2)
_cell_angle_alpha                90
_cell_angle_beta                 90
_cell_angle_gamma                90
_cell_volume                     1139.43
_exptl_crystal_colour            colorless
_exptl_crystal_description       block
_cell_formula_units_Z            4
_exptl_crystal_recrystallization_method ethanol
loop_
_atom_site_label
_atom_site_type_symbol
_atom_site_fract_x
_atom_site_fract_y
_atom_site_fract_z
S1 S 0.09785(6) 0.11027(7) 0.4039(2)
O1 O 0.0818(2) 0.1094(2) 0.6556(6)
O2 O 0.1316(2) 0.0140(2) 0.2968(7)
C1 C 0.1673(2) 0.3049(3) 0.5080(9)
H1 H 0.1355 0.3033 0.6446
C2 C 0.2197(3) 0.3900(4) 0.4703(8)
H2 H 0.2246 0.4451 0.5833
C3 C 0.2651(3) 0.3932(4) 0.2629(10)
H3 H 0.2997 0.4514 0.2343
C4 C 0.2589(3) 0.3102(4) 0.1004(9)
H4 H 0.2899 0.3124 -0.0378
C5 C 0.2074(3) 0.2234(4) 0.1380(8)
H5 H 0.2034 0.1671 0.0275
C6 C 0.1621(2) 0.2228(3) 0.3446(7)
C7 C 0.0058(3) 0.1390(3) 0.2490(9)
H6 H 0.0168 0.1405 0.0790
H7 H -0.0319 0.0800 0.2785
C8 C -0.0335(2) 0.2450(3) 0.3186(8)
C9 C -0.0251(3) 0.3356(4) 0.1769(9)
H8 H 0.0061 0.3317 0.0394
C10 C -0.0625(3) 0.4329(4) 0.2361(11)
H9 H -0.0561 0.4938 0.1390
C11 C -0.1085(3) 0.4393(4) 0.4362(12)
H10 H -0.1348 0.5041 0.4742
C12 C -0.1161(3) 0.3497(4) 0.5822(9)
H11 H -0.1465 0.3546 0.7213
C13 C -0.0790(2) 0.2525(4) 0.5239(10)
H12 H -0.0846 0.1921 0.6231
loop_
_geom_bond_atom_site_label_1
_geom_bond_atom_site_label_2
_geom_bond_site_symmetry_1
_geom_bond_site_symmetry_2
S1 O1 1_555 1_555
O2 S1 1_555 1_555
C1 H1 1_555 1_555
C2 C1 1_555 1_555
H2 C2 1_555 1_555
C3 C2 1_555 1_555
H3 C3 1_555 1_555
C4 C3 1_555 1_555
H4 C4 1_555 1_555
C5 C4 1_555 1_555
H5 C5 1_555 1_555
C6 S1 1_555 1_555
C7 S1 1_555 1_555
H6 C7 1_555 1_555
H7 C7 1_555 1_555
C8 C7 1_555 1_555
C9 C8 1_555 1_555
H8 C9 1_555 1_555
C10 C9 1_555 1_555
H9 C10 1_555 1_555
C11 C10 1_555 1_555
H10 C11 1_555 1_555
C12 C11 1_555 1_555
H11 C12 1_555 1_555
C13 C8 1_555 1_555
H12 C13 1_555 1_555
C1 C6 1_555 1_555
C5 C6 1_555 1_555
C12 C13 1_555 1_555

#END
