
#######################################################################
#
#                 Cambridge Crystallographic Data Centre
#                                CCDC 
#
#######################################################################
#
# If this CIF has been generated from an entry in the Cambridge 
# Structural Database, then it will include bibliographic, chemical, 
# crystal, experimental, refinement or atomic coordinate data resulting 
# from the CCDC's data processing and validation procedures.
#
#######################################################################

data_TALYAI
_chemical_formula_moiety         
'C36 H36 N24 O12,C24 H26 N2 2+,7(H2 O1),2(Br1 1-)'
_chemical_name_systematic        
"((2,2'-(Hexylene-1,6-diyl)di-isoquinolinium)-cucurbit(6)uril) pseudorotaxane dibromide heptahydrate"
_symmetry_cell_setting           monoclinic
_symmetry_space_group_name_H-M   'C 2/c'
_symmetry_Int_Tables_number      15
_space_group_name_Hall           '-C 2yn'
loop_
_symmetry_equiv_pos_site_id
_symmetry_equiv_pos_as_xyz
1 x,y,z
2 -x,y,1/2-z
3 1/2+x,1/2+y,z
4 1/2-x,1/2+y,1/2-z
5 -x,-y,-z
6 x,-y,1/2+z
7 1/2-x,1/2-y,-z
8 1/2+x,1/2-y,1/2+z
_cell_length_a                   23.5852(19)
_cell_length_b                   21.2805(18)
_cell_length_c                   13.3985(11)
_cell_angle_alpha                90
_cell_angle_beta                 100.999(3)
_cell_angle_gamma                90
_cell_volume                     6601.24
_cell_formula_units_Z            4
loop_
_atom_site_label
_atom_site_type_symbol
_atom_site_fract_x
_atom_site_fract_y
_atom_site_fract_z
C1 C 0.24351(11) 0.44090(11) 0.6617(2)
C2 C 0.33391(11) 0.42129(12) 0.7635(2)
H1 H 0.3575 0.4520 0.8076
C3 C 0.28584(10) 0.39317(12) 0.8149(2)
H2 H 0.2849 0.4132 0.8804
C4 C 0.35039(10) 0.31346(12) 0.7906(2)
C5 C 0.17606(11) 0.39173(11) 0.7589(2)
H3 H 0.1747 0.4007 0.8294
H4 H 0.1486 0.4192 0.7168
C6 C 0.27579(11) 0.28475(13) 0.8895(2)
H5 H 0.3047 0.2540 0.9182
H6 H 0.2655 0.3083 0.9454
C7 C 0.11263(10) 0.31216(12) 0.6611(2)
C8 C 0.16796(10) 0.27897(12) 0.8153(2)
H7 H 0.1558 0.2935 0.8773
C9 C 0.13013(10) 0.22394(12) 0.7662(2)
H8 H 0.1038 0.2097 0.8099
C10 C 0.22636(11) 0.19141(13) 0.8042(2)
C11 C 0.05327(11) 0.21810(13) 0.6055(2)
H9 H 0.0284 0.2491 0.5660
H10 H 0.0302 0.1950 0.6457
C12 C 0.15599(12) 0.11032(12) 0.7303(2)
H11 H 0.1878 0.0834 0.7609
H12 H 0.1231 0.0998 0.7608
C13 C 0.08578(11) 0.10933(12) 0.5601(2)
H13 H 0.0546 0.0896 0.5878
C14 C 0.09117(11) 0.08012(12) 0.4569(2)
H14 H 0.0648 0.0445 0.4399
C15 C 0.17704(11) 0.06359(11) 0.5727(2)
C16 C 0.42463(10) 0.37136(13) 0.7214(2)
H15 H 0.4421 0.4107 0.7480
H16 H 0.4484 0.3374 0.7549
C17 C 0.32803(11) 0.48187(12) 0.5979(2)
H17 H 0.3601 0.5071 0.6326
H18 H 0.2999 0.5102 0.5592
C18 C 0.43780(10) 0.31493(13) 0.5666(2)
N1 N 0.30173(9) 0.45035(10) 0.67296(18)
N2 N 0.23361(9) 0.40543(10) 0.74117(18)
N3 N 0.36738(8) 0.36666(10) 0.74634(17)
N4 N 0.30127(9) 0.32754(10) 0.82657(17)
N5 N 0.15895(8) 0.32710(10) 0.73696(17)
N6 N 0.09892(9) 0.25018(10) 0.67307(18)
N7 N 0.22535(9) 0.25203(10) 0.83745(18)
N8 N 0.17202(9) 0.17538(10) 0.75487(18)
N9 N 0.14168(10) 0.09674(10) 0.62367(19)
N10 N 0.15088(9) 0.06027(10) 0.47239(18)
N11 N 0.07342(9) 0.17489(10) 0.53625(18)
N12 N 0.42424(9) 0.36852(10) 0.61357(18)
O1 O 0.20631(7) 0.46149(8) 0.59281(15)
O2 O 0.37497(8) 0.26260(8) 0.79717(15)
O3 O 0.08826(8) 0.34773(9) 0.59577(15)
O4 O 0.26840(8) 0.15683(9) 0.81855(16)
O5 O 0.22371(8) 0.04080(9) 0.61125(16)
O6 O 0.45711(8) 0.26701(9) 0.60953(16)
C1F C 0.25649(11) 0.05910(11) 0.3383(2)
C2F C 0.16609(11) 0.07871(12) 0.2365(2)
H1F H 0.1425 0.0480 0.1924
C3F C 0.21416(10) 0.10683(12) 0.1851(2)
H2F H 0.2151 0.0868 0.1196
C4F C 0.14961(10) 0.18654(12) 0.2094(2)
C5F C 0.32394(11) 0.10827(11) 0.2411(2)
H3F H 0.3253 0.0993 0.1706
H4F H 0.3514 0.0808 0.2832
C6F C 0.22421(11) 0.21525(13) 0.1105(2)
H5F H 0.1953 0.2460 0.0818
H6F H 0.2345 0.1917 0.0546
C7F C 0.38737(10) 0.18784(12) 0.3389(2)
C8F C 0.33204(10) 0.22103(12) 0.1847(2)
H7F H 0.3442 0.2065 0.1227
C9F C 0.36987(10) 0.27606(12) 0.2338(2)
H8F H 0.3962 0.2903 0.1901
C10F C 0.27364(11) 0.30859(13) 0.1958(2)
C11F C 0.44673(11) 0.28190(13) 0.3945(2)
H9F H 0.4716 0.2509 0.4340
H10F H 0.4698 0.3050 0.3543
C12F C 0.34401(12) 0.38968(12) 0.2697(2)
H11F H 0.3122 0.4166 0.2391
H12F H 0.3769 0.4002 0.2392
C13F C 0.41422(11) 0.39067(12) 0.4399(2)
H13F H 0.4454 0.4104 0.4122
C14F C 0.40883(11) 0.41988(12) 0.5431(2)
H14F H 0.4352 0.4555 0.5601
C15F C 0.32296(11) 0.43641(11) 0.4273(2)
C16F C 0.07537(10) 0.12864(13) 0.2786(2)
H15F H 0.0579 0.0893 0.2520
H16F H 0.0516 0.1626 0.2451
C17F C 0.17197(11) 0.01813(12) 0.4021(2)
H17F H 0.1399 -0.0071 0.3674
H18F H 0.2001 -0.0102 0.4408
C18F C 0.06220(10) 0.18507(13) 0.4334(2)
N1F N 0.19827(9) 0.04965(10) 0.32704(18)
N2F N 0.26639(9) 0.09457(10) 0.25883(18)
N3F N 0.13262(8) 0.13334(10) 0.25366(17)
N4F N 0.19873(9) 0.17246(10) 0.17343(17)
N5F N 0.34105(8) 0.17290(10) 0.26304(17)
N6F N 0.40108(9) 0.24982(10) 0.32693(18)
N7F N 0.27465(9) 0.24797(10) 0.16255(18)
N8F N 0.32798(9) 0.32462(10) 0.24513(18)
N9F N 0.35832(10) 0.40326(10) 0.37633(19)
N10F N 0.34912(9) 0.43973(10) 0.52761(18)
N11F N 0.42658(9) 0.32511(10) 0.46375(18)
N12F N 0.07576(9) 0.13148(10) 0.38643(18)
O1F O 0.29369(7) 0.03851(8) 0.40719(15)
O2F O 0.12503(8) 0.23740(8) 0.20283(15)
O3F O 0.41174(8) 0.15227(9) 0.40423(15)
O4F O 0.23160(8) 0.34317(9) 0.18145(16)
O5F O 0.27629(8) 0.45920(9) 0.38875(16)
O6F O 0.04289(8) 0.23299(9) 0.39047(16)
C19 C -0.03004(13) 0.37334(17) 0.3745(3)
H19 H -0.0326 0.3297 0.3720
C20 C -0.07746(13) 0.4087(2) 0.3770(3)
H20 H -0.1128 0.3892 0.3769
C21 C -0.07379(14) 0.4741(2) 0.3798(3)
H21 H -0.1068 0.4975 0.3821
C22 C -0.02291(14) 0.50465(17) 0.3793(3)
H22 H -0.0217 0.5483 0.3797
C23 C 0.02782(12) 0.46949(14) 0.3783(2)
C24 C 0.02320(12) 0.40359(14) 0.3758(2)
C25 C 0.07302(11) 0.36864(14) 0.3738(2)
H23 H 0.0704 0.3251 0.3707
C26 C 0.08297(12) 0.49612(14) 0.3821(2)
H24 H 0.0874 0.5395 0.3853
C27 C 0.12918(12) 0.45922(13) 0.3810(2)
H25 H 0.1653 0.4773 0.3836
C28 C 0.17389(11) 0.35480(13) 0.3702(2)
H26 H 0.2065 0.3812 0.3635
H27 H 0.1649 0.3287 0.3099
C29 C 0.19062(11) 0.31307(13) 0.4629(2)
H28 H 0.2002 0.3391 0.5232
H29 H 0.1580 0.2868 0.4700
C30 C 0.24173(12) 0.27187(13) 0.4546(2)
H30 H 0.2745 0.2983 0.4492
H31 H 0.2325 0.2469 0.3930
N13 N 0.12341(9) 0.39521(10) 0.37613(18)
C19F C 0.53004(13) 0.12666(17) 0.6255(3)
H19F H 0.5326 0.1703 0.6280
C20F C 0.57746(13) 0.0913(2) 0.6230(3)
H20F H 0.6128 0.1108 0.6231
C21F C 0.57379(14) 0.0259(2) 0.6202(3)
H21F H 0.6068 0.0025 0.6179
C22F C 0.52291(14) -0.00465(17) 0.6207(3)
H22F H 0.5217 -0.0483 0.6203
C23F C 0.47218(12) 0.03051(14) 0.6217(2)
C24F C 0.47680(12) 0.09641(14) 0.6242(2)
C25F C 0.42698(11) 0.13136(14) 0.6262(2)
H23F H 0.4296 0.1749 0.6293
C26F C 0.41703(12) 0.00388(14) 0.6179(2)
H24F H 0.4126 -0.0395 0.6147
C27F C 0.37082(12) 0.04078(13) 0.6190(2)
H25F H 0.3347 0.0227 0.6164
C28F C 0.32611(11) 0.14520(13) 0.6298(2)
H26F H 0.2935 0.1188 0.6365
H27F H 0.3351 0.1713 0.6901
C29F C 0.30938(11) 0.18693(13) 0.5371(2)
H28F H 0.2998 0.1609 0.4768
H29F H 0.3420 0.2132 0.5300
C30F C 0.25827(12) 0.22813(13) 0.5454(2)
H30F H 0.2255 0.2017 0.5508
H31F H 0.2675 0.2531 0.6070
N13F N 0.37659(9) 0.10479(10) 0.62387(18)
Br1 Br 0.42872(6) 0.59990(5) 0.5430(2)
O7 O 0.29292(9) 0.08356(10) 0.99437(16)
H32 H 0.2906 0.1095 0.9421
H33 H 0.2941 0.0432 0.9682
O8 O 0.41281(9) 0.24737(11) 1.00978(17)
H34 H 0.4113 0.2423 0.9366
H35 H 0.4210 0.2920 1.0153
O9 O 0.5000 0.5227(2) 0.7500
H36 H 0.5154 0.5468 0.7996
H36A H 0.4846 0.5468 0.7004
O10 O 0.04378(13) 0.34400(12) 0.8447(2)
H37 H 0.0532 0.3171 0.8945
H38 H 0.0134 0.3358 0.8156
Br2? Br 0.4256(2) 0.5961(3) 0.5188(9)
loop_
_geom_bond_atom_site_label_1
_geom_bond_atom_site_label_2
_geom_bond_site_symmetry_1
_geom_bond_site_symmetry_2
C1 N1 1_555 1_555
C2 H1 1_555 1_555
C3 C2 1_555 1_555
H2 C3 1_555 1_555
C4 N3 1_555 1_555
C5 H3 1_555 1_555
H4 C5 1_555 1_555
C6 H5 1_555 1_555
H6 C6 1_555 1_555
C7 N5 1_555 1_555
C8 H7 1_555 1_555
C9 C8 1_555 1_555
H8 C9 1_555 1_555
C10 N7 1_555 1_555
C11 H9 1_555 1_555
H10 C11 1_555 1_555
C12 H11 1_555 1_555
H12 C12 1_555 1_555
C13 H13 1_555 1_555
C14 C13 1_555 1_555
H14 C14 1_555 1_555
C15 N9 1_555 1_555
C16 H15 1_555 1_555
H16 C16 1_555 1_555
C17 H17 1_555 1_555
H18 C17 1_555 1_555
C18 N12 1_555 1_555
C19 H19 1_555 1_555
C20 C19 1_555 1_555
H20 C20 1_555 1_555
C21 C20 1_555 1_555
H21 C21 1_555 1_555
C22 C21 1_555 1_555
H22 C22 1_555 1_555
C23 C22 1_555 1_555
C24 C19 1_555 1_555
C25 C24 1_555 1_555
H23 C25 1_555 1_555
C26 C23 1_555 1_555
H24 C26 1_555 1_555
C27 C26 1_555 1_555
H25 C27 1_555 1_555
C28 H26 1_555 1_555
H27 C28 1_555 1_555
C29 C28 1_555 1_555
H28 C29 1_555 1_555
H29 C29 1_555 1_555
C30 C29 1_555 1_555
H30 C30 1_555 1_555
H31 C30 1_555 1_555
N1 C2 1_555 1_555
N2 C1 1_555 1_555
N3 C2 1_555 1_555
N4 C3 1_555 1_555
N5 C5 1_555 1_555
N6 C7 1_555 1_555
N7 C6 1_555 1_555
N8 C9 1_555 1_555
N9 C12 1_555 1_555
N10 C14 1_555 1_555
N11 C11 1_555 1_555
N12 C16 1_555 1_555
N13 C25 1_555 1_555
O1 C1 1_555 1_555
O2 C4 1_555 1_555
O3 C7 1_555 1_555
O4 C10 1_555 1_555
O5 C15 1_555 1_555
O6 C18 1_555 1_555
O7 H32 1_555 1_555
H33 O7 1_555 1_555
O8 H34 1_555 1_555
H35 O8 1_555 1_555
O9 H36 1_555 1_555
O10 H37 1_555 1_555
H38 O10 1_555 1_555
C1F N1F 1_555 1_555
C2F H1F 1_555 1_555
C3F C2F 1_555 1_555
H2F C3F 1_555 1_555
C4F N3F 1_555 1_555
C5F H3F 1_555 1_555
H4F C5F 1_555 1_555
C6F H5F 1_555 1_555
H6F C6F 1_555 1_555
C7F N5F 1_555 1_555
C8F H7F 1_555 1_555
C9F C8F 1_555 1_555
H8F C9F 1_555 1_555
C10F N7F 1_555 1_555
C11F H9F 1_555 1_555
H10F C11F 1_555 1_555
C12F H11F 1_555 1_555
H12F C12F 1_555 1_555
C13F H13F 1_555 1_555
C14F N12 1_555 1_555
H14F C14F 1_555 1_555
C15F N9F 1_555 1_555
C16F H15F 1_555 1_555
H16F C16F 1_555 1_555
C17F N10 1_555 1_555
H17F C17F 1_555 1_555
H18F C17F 1_555 1_555
C18F N11 1_555 1_555
C19F H19F 1_555 1_555
C20F C19F 1_555 1_555
H20F C20F 1_555 1_555
C21F C20F 1_555 1_555
H21F C21F 1_555 1_555
C22F C21F 1_555 1_555
H22F C22F 1_555 1_555
C23F C22F 1_555 1_555
C24F C19F 1_555 1_555
C25F C24F 1_555 1_555
H23F C25F 1_555 1_555
C26F C23F 1_555 1_555
H24F C26F 1_555 1_555
C27F C26F 1_555 1_555
H25F C27F 1_555 1_555
C28F H26F 1_555 1_555
H27F C28F 1_555 1_555
C29F C28F 1_555 1_555
H28F C29F 1_555 1_555
H29F C29F 1_555 1_555
C30F C30 1_555 1_555
H30F C30F 1_555 1_555
H31F C30F 1_555 1_555
N1F C2F 1_555 1_555
N2F C1F 1_555 1_555
N3F C2F 1_555 1_555
N4F C3F 1_555 1_555
N5F C5F 1_555 1_555
N6F C7F 1_555 1_555
N7F C6F 1_555 1_555
N8F C9F 1_555 1_555
N9F C12F 1_555 1_555
N10F C17 1_555 1_555
N11F C18 1_555 1_555
N12F C14 1_555 1_555
N13F C25F 1_555 1_555
O1F C1F 1_555 1_555
O2F C4F 1_555 1_555
O3F C7F 1_555 1_555
O4F C10F 1_555 1_555
O5F C15F 1_555 1_555
O6F C18F 1_555 1_555
H36A O9 1_555 1_555
C3 N2 1_555 1_555
C4 N4 1_555 1_555
C5 N2 1_555 1_555
C6 N4 1_555 1_555
C8 N5 1_555 1_555
C8 N7 1_555 1_555
C9 N6 1_555 1_555
C10 N8 1_555 1_555
C11 N6 1_555 1_555
C12 N8 1_555 1_555
C13 N9 1_555 1_555
C13 N11 1_555 1_555
C15 N10 1_555 1_555
C16 N3 1_555 1_555
C17 N1 1_555 1_555
C23 C24 1_555 1_555
C27 N13 1_555 1_555
C28 N13 1_555 1_555
C3F N2F 1_555 1_555
C4F N4F 1_555 1_555
C5F N2F 1_555 1_555
C6F N4F 1_555 1_555
C8F N5F 1_555 1_555
C8F N7F 1_555 1_555
C9F N6F 1_555 1_555
C10F N8F 1_555 1_555
C11F N6F 1_555 1_555
C11F N11F 1_555 1_555
C12F N8F 1_555 1_555
C13F C14F 1_555 1_555
C13F N9F 1_555 1_555
C13F N11F 1_555 1_555
C14F N10F 1_555 1_555
C15F N10F 1_555 1_555
C16F N3F 1_555 1_555
C16F N12F 1_555 1_555
C17F N1F 1_555 1_555
C18F N12F 1_555 1_555
C23F C24F 1_555 1_555
C27F N13F 1_555 1_555
C28F N13F 1_555 1_555
C29F C30F 1_555 1_555

#END
