
#######################################################################
#
#                 Cambridge Crystallographic Data Centre
#                                CCDC 
#
#######################################################################
#
# If this CIF has been generated from an entry in the Cambridge 
# Structural Database, then it will include bibliographic, chemical, 
# crystal, experimental, refinement or atomic coordinate data resulting 
# from the CCDC's data processing and validation procedures.
#
#######################################################################

data_TAMBUE
_chemical_formula_moiety         'C14 H18 N2 O4,2(C12 H4 N4)'
_chemical_name_systematic        
'4a,8a-Diaza-2,6-dioxa-3,4,7,8-tetrahydro-4,4,8,8-tetramethylanthracene-1,5-dione bis(tetracyanoquinodimethane)'
_symmetry_cell_setting           triclinic
_symmetry_space_group_name_H-M   'P -1'
_symmetry_Int_Tables_number      2
_space_group_name_Hall           '-P 1'
loop_
_symmetry_equiv_pos_site_id
_symmetry_equiv_pos_as_xyz
1 x,y,z
2 -x,-y,-z
_cell_length_a                   7.2570(10)
_cell_length_b                   8.743(2)
_cell_length_c                   14.184(2)
_cell_angle_alpha                85.490(10)
_cell_angle_beta                 87.060(10)
_cell_angle_gamma                74.590(10)
_cell_volume                     864.473
_exptl_crystal_colour            black
_cell_formula_units_Z            1
loop_
_atom_site_label
_atom_site_type_symbol
_atom_site_fract_x
_atom_site_fract_y
_atom_site_fract_z
O1 O 0.1253(3) 0.2980(2) 0.5110(1)
O2 O 0.3304(3) 0.1725(2) 0.6178(1)
N5 N 0.5745(3) 0.3678(2) 0.5595(1)
C1 C 0.2696(4) 0.2894(3) 0.5512(2)
C2 C 0.4785(4) 0.1903(3) 0.6766(2)
C3 C 0.6501(4) 0.2193(3) 0.6208(2)
C4 C 0.3886(3) 0.4000(3) 0.5279(2)
C5 C 0.6799(3) 0.4687(3) 0.5303(2)
C6 C 0.7905(4) 0.2441(4) 0.6898(2)
C7 C 0.7413(4) 0.0868(3) 0.5569(2)
H1 H 0.5185 0.0962 0.7180
H2 H 0.4264 0.2785 0.7149
H3 H 0.8087 0.4465 0.5511
H4 H 0.7268 0.3287 0.7287
H5 H 0.8368 0.1482 0.7290
H6 H 0.8961 0.2716 0.6556
H7 H 0.6477 0.0753 0.5145
H8 H 0.8463 0.1124 0.5211
H9 H 0.7870 -0.0110 0.5945
C5A C 0.3201(3) 0.5313(3) 0.4697(2)
C4A C 0.6114(3) 0.6000(3) 0.4721(2)
N5A N 0.4255(3) 0.6322(2) 0.4405(1)
H3A H 0.1913 0.5535 0.4489
C1A C 0.7304(4) 0.7106(3) 0.4488(2)
C3A C 0.3499(4) 0.7807(3) 0.3792(2)
O1A O 0.8747(3) 0.7020(2) 0.4890(1)
O2A O 0.6696(3) 0.8275(2) 0.3822(1)
C2A C 0.5215(4) 0.8097(3) 0.3234(2)
C6A C 0.2095(4) 0.7559(4) 0.3102(2)
C7A C 0.2587(4) 0.9132(3) 0.4431(2)
H1A H 0.4815 0.9038 0.2820
H2A H 0.5736 0.7215 0.2851
H4A H 0.2732 0.6713 0.2713
H5A H 0.1632 0.8518 0.2710
H6A H 0.1039 0.7284 0.3444
H7A H 0.3523 0.9247 0.4855
H8A H 0.1537 0.8876 0.4789
H9A H 0.2130 1.0110 0.4055
N1 N 1.0501(5) -0.4716(3) 0.7108(2)
N2 N 0.7539(5) -0.0566(3) 0.8659(2)
N3 N 0.7778(5) -1.0766(3) 1.1426(2)
N4 N 0.5148(5) -0.6773(4) 1.3093(2)
C8 C 0.8138(4) -0.4609(3) 0.9328(2)
C9 C 0.7124(4) -0.4020(3) 1.0172(2)
C10 C 0.6723(4) -0.5019(3) 1.0874(2)
C11 C 0.7265(4) -0.6700(3) 1.0808(2)
C12 C 0.8263(4) -0.7287(3) 0.9963(2)
C13 C 0.8689(4) -0.6294(3) 0.9262(2)
C14 C 0.8588(4) -0.3600(3) 0.8594(2)
C15 C 0.9633(5) -0.4197(4) 0.7760(2)
C16 C 0.8006(4) -0.1919(4) 0.8631(2)
C17 C 0.6858(4) -0.7739(3) 1.1536(2)
C18 C 0.7384(4) -0.9417(4) 1.1468(2)
C19 C 0.5919(5) -0.7204(3) 1.2400(2)
H10 H 0.6735 -0.2894 1.0237
H11 H 0.6050 -0.4596 1.1436
H12 H 0.8642 -0.8413 0.9899
H13 H 0.9375 -0.6721 0.8704
loop_
_geom_bond_atom_site_label_1
_geom_bond_atom_site_label_2
_geom_bond_site_symmetry_1
_geom_bond_site_symmetry_2
O1 C1 1_555 1_555
O2 C1 1_555 1_555
N1 C15 1_555 1_555
N2 C16 1_555 1_555
N3 C18 1_555 1_555
N4 C19 1_555 1_555
N5 C3 1_555 1_555
C1 C4 1_555 1_555
C2 O2 1_555 1_555
C3 C2 1_555 1_555
C4 N5 1_555 1_555
C5 N5 1_555 1_555
C6 C3 1_555 1_555
C7 C3 1_555 1_555
C8 C9 1_555 1_555
C9 C10 1_555 1_555
C10 C11 1_555 1_555
C11 C12 1_555 1_555
C12 C13 1_555 1_555
C13 C8 1_555 1_555
C14 C8 1_555 1_555
C15 C14 1_555 1_555
C16 C14 1_555 1_555
C17 C11 1_555 1_555
C18 C17 1_555 1_555
C19 C17 1_555 1_555
H1 C2 1_555 1_555
H2 C2 1_555 1_555
H3 C5 1_555 1_555
H4 C6 1_555 1_555
H5 C6 1_555 1_555
H6 C6 1_555 1_555
H7 C7 1_555 1_555
H8 C7 1_555 1_555
H9 C7 1_555 1_555
H10 C9 1_555 1_555
H11 C10 1_555 1_555
H12 C12 1_555 1_555
H13 C13 1_555 1_555
C5A C4 1_555 1_555
C4A C5 1_555 1_555
N5A C5A 1_555 1_555
H3A C5A 1_555 1_555
C1A C4A 1_555 1_555
C3A N5A 1_555 1_555
O1A C1A 1_555 1_555
O2A C1A 1_555 1_555
C2A C3A 1_555 1_555
C6A C3A 1_555 1_555
C7A C3A 1_555 1_555
H1A C2A 1_555 1_555
H2A C2A 1_555 1_555
H4A C6A 1_555 1_555
H5A C6A 1_555 1_555
H6A C6A 1_555 1_555
H7A C7A 1_555 1_555
H8A C7A 1_555 1_555
H9A C7A 1_555 1_555
C4A N5A 1_555 1_555
O2A C2A 1_555 1_555

#END
