
#######################################################################
#
#                 Cambridge Crystallographic Data Centre
#                                CCDC 
#
#######################################################################
#
# If this CIF has been generated from an entry in the Cambridge 
# Structural Database, then it will include bibliographic, chemical, 
# crystal, experimental, refinement or atomic coordinate data resulting 
# from the CCDC's data processing and validation procedures.
#
#######################################################################

data_TAMBOY
_chemical_formula_moiety         'C14 H18 N2 O4'
_chemical_name_systematic        
4a,8a-Diaza-2,6-dioxa-3,4,7,8-tetrahydro-4,4,8,8-tetramethylanthracene-1,5-dione
_symmetry_cell_setting           monoclinic
_symmetry_space_group_name_H-M   'P 21/n'
_symmetry_Int_Tables_number      14
_space_group_name_Hall           '-P 2yn'
loop_
_symmetry_equiv_pos_site_id
_symmetry_equiv_pos_as_xyz
1 x,y,z
2 1/2-x,1/2+y,1/2-z
3 -x,-y,-z
4 1/2+x,1/2-y,1/2+z
_cell_length_a                   5.7781(13)
_cell_length_b                   15.680(4)
_cell_length_c                   7.426(2)
_cell_angle_alpha                90
_cell_angle_beta                 103.78(2)
_cell_angle_gamma                90
_cell_volume                     653.435
_exptl_crystal_colour            'dark green'
_cell_formula_units_Z            2
loop_
_atom_site_label
_atom_site_type_symbol
_atom_site_fract_x
_atom_site_fract_y
_atom_site_fract_z
O1 O 0.4293(2) 0.6159(1) 0.4082(1)
C1 C 0.3397(2) 0.6113(1) 0.2435(2)
O2 O 0.1601(2) 0.6656(1) 0.1712(1)
C2 C 0.0159(2) 0.6485(1) -0.0117(2)
C3 C 0.1596(2) 0.6291(1) -0.1537(2)
N1 N 0.3096(2) 0.5549(1) -0.0789(1)
C4 C 0.4182(2) 0.5538(1) 0.1173(2)
C5 C 0.4059(2) 0.5023(1) -0.1853(2)
C6 C 0.3174(3) 0.7036(1) -0.1788(2)
C7 C -0.0160(2) 0.6064(1) -0.3350(2)
H1 H -0.0856 0.6006 -0.0061
H2 H -0.0841 0.6971 -0.0527
H3 H 0.3450 0.5047 -0.3173
H4 H 0.4256 0.7164 -0.0623
H5 H 0.4062 0.6888 -0.2684
H6 H 0.2202 0.7527 -0.2211
H7 H 0.0687 0.5940 -0.4286
H8 H -0.1048 0.5570 -0.3148
H9 H -0.1233 0.6531 -0.3749
C5B C 0.5941(2) 0.4977(1) 0.1853(2)
C4B C 0.5818(2) 0.4462(1) -0.1173(2)
N1B N 0.6904(2) 0.4451(1) 0.0789(1)
H3B H 0.6550 0.4953 0.3173
C1B C 0.6603(2) 0.3887(1) -0.2435(2)
C3B C 0.8404(2) 0.3709(1) 0.1537(2)
O1B O 0.5707(2) 0.3841(1) -0.4082(1)
O2B O 0.8399(2) 0.3344(1) -0.1712(1)
C2B C 0.9841(2) 0.3515(1) 0.0117(2)
C6B C 0.6826(3) 0.2964(1) 0.1788(2)
C7B C 1.0160(2) 0.3936(1) 0.3350(2)
H1B H 1.0856 0.3994 0.0061
H2B H 1.0841 0.3029 0.0527
H4B H 0.5744 0.2836 0.0623
H5B H 0.5938 0.3112 0.2684
H6B H 0.7798 0.2473 0.2211
H7B H 0.9313 0.4060 0.4286
H8B H 1.1048 0.4430 0.3148
H9B H 1.1233 0.3469 0.3749
loop_
_geom_bond_atom_site_label_1
_geom_bond_atom_site_label_2
_geom_bond_site_symmetry_1
_geom_bond_site_symmetry_2
O1 C1 1_555 1_555
C1 O2 1_555 1_555
O2 C2 1_555 1_555
C2 C3 1_555 1_555
C3 N1 1_555 1_555
N1 C4 1_555 1_555
C4 C1 1_555 1_555
C5 N1 1_555 1_555
C6 C3 1_555 1_555
C7 C3 1_555 1_555
H1 C2 1_555 1_555
H2 C2 1_555 1_555
H3 C5 1_555 1_555
H4 C6 1_555 1_555
H5 C6 1_555 1_555
H6 C6 1_555 1_555
H7 C7 1_555 1_555
H8 C7 1_555 1_555
H9 C7 1_555 1_555
C5B C4 1_555 1_555
C4B C5 1_555 1_555
N1B C5B 1_555 1_555
H3B C5B 1_555 1_555
C1B C4B 1_555 1_555
C3B N1B 1_555 1_555
O1B C1B 1_555 1_555
O2B C1B 1_555 1_555
C2B C3B 1_555 1_555
C6B C3B 1_555 1_555
C7B C3B 1_555 1_555
H1B C2B 1_555 1_555
H2B C2B 1_555 1_555
H4B C6B 1_555 1_555
H5B C6B 1_555 1_555
H6B C6B 1_555 1_555
H7B C7B 1_555 1_555
H8B C7B 1_555 1_555
H9B C7B 1_555 1_555
C4B N1B 1_555 1_555
O2B C2B 1_555 1_555

#END
