
#######################################################################
#
#                 Cambridge Crystallographic Data Centre
#                                CCDC 
#
#######################################################################
#
# If this CIF has been generated from an entry in the Cambridge 
# Structural Database, then it will include bibliographic, chemical, 
# crystal, experimental, refinement or atomic coordinate data resulting 
# from the CCDC's data processing and validation procedures.
#
#######################################################################

data_TAMCOA
_chemical_formula_moiety         'C29 H16 F12 S2'
_chemical_name_systematic        
3,3,4,4,5,5-Hexafluoro-1,2-bis(5-(3-(trifluoromethyl)phenyl)-2-methyl-3-thienyl)cyclopent-1-ene
_symmetry_cell_setting           monoclinic
_symmetry_space_group_name_H-M   'C 2/c'
_symmetry_Int_Tables_number      15
_space_group_name_Hall           '-C 2yn'
loop_
_symmetry_equiv_pos_site_id
_symmetry_equiv_pos_as_xyz
1 x,y,z
2 1/2+x,1/2+y,z
3 -x,y,1/2-z
4 1/2-x,1/2+y,1/2-z
5 -x,-y,-z
6 1/2-x,1/2-y,-z
7 x,-y,1/2+z
8 1/2+x,1/2-y,1/2+z
_cell_length_a                   20.687(3)
_cell_length_b                   8.3928(9)
_cell_length_c                   16.568(2)
_cell_angle_alpha                90
_cell_angle_beta                 104.393(11)
_cell_angle_gamma                90
_cell_volume                     2786.28
_exptl_crystal_colour            colorless
_exptl_crystal_description       prism
_chemical_melting_point          127.1-128.2deg.C
_cell_formula_units_Z            4
_chemical_properties_physical    light-sensitive
_exptl_crystal_recrystallization_method hexane
_exptl_crystal_preparation       photochromic
loop_
_atom_site_label
_atom_site_type_symbol
_atom_site_fract_x
_atom_site_fract_y
_atom_site_fract_z
S1 S 0.01074(7) 0.17086(16) 0.42745(8)
F1 F -0.0095(3) -0.4147(5) 0.3821(3)
F2 F 0.0875(2) -0.4131(5) 0.3611(3)
F3 F 0.0479(3) -0.5858(7) 0.2419(3)
F4 F 0.1507(5) 0.6302(7) 0.5706(5)
F5 F 0.2486(4) 0.6201(8) 0.6206(8)
F6 F 0.1851(6) 0.5790(9) 0.6843(5)
C1 C 0.0123(2) -0.2182(6) 0.2914(3)
C2 C 0.0241(3) -0.3833(6) 0.3243(3)
C3 C 0.0000 -0.4915(10) 0.2500
C4 C -0.0219(2) 0.0313(6) 0.3527(3)
C5 C 0.0256(2) -0.0818(6) 0.3490(3)
C6 C 0.0874(2) -0.0542(6) 0.4073(3)
H1 H 0.1242 -0.1211 0.4132
C7 C 0.0878(2) 0.0806(6) 0.4538(3)
C8 C 0.1438(2) 0.1523(6) 0.5164(3)
C9 C 0.1987(3) 0.0609(7) 0.5541(3)
H2 H 0.1999 -0.0464 0.5406
C10 C 0.2527(3) 0.1291(9) 0.6126(4)
H3 H 0.2896 0.0672 0.6375
C11 C 0.2509(3) 0.2871(9) 0.6330(4)
H4 H 0.2864 0.3329 0.6717
C12 C 0.1963(3) 0.3773(8) 0.5957(3)
C13 C 0.1431(3) 0.3114(7) 0.5379(3)
H5 H 0.1066 0.3745 0.5132
C14 C -0.0924(3) 0.0421(7) 0.3039(3)
H6 H -0.1021 -0.0446 0.2649
H7 H -0.0993 0.1413 0.2741
H8 H -0.1214 0.0366 0.3409
C15 C 0.1953(4) 0.5472(9) 0.6152(5)
S1B S -0.01074(7) 0.17086(16) 0.07255(8)
F1B F 0.0095(3) -0.4147(5) 0.1179(3)
F2B F -0.0875(2) -0.4131(5) 0.1389(3)
F3B F -0.0479(3) -0.5858(7) 0.2581(3)
F4B F -0.1507(5) 0.6302(7) -0.0706(5)
F5B F -0.2486(4) 0.6201(8) -0.1206(8)
F6B F -0.1851(6) 0.5790(9) -0.1843(5)
C1B C -0.0123(2) -0.2182(6) 0.2086(3)
C2B C -0.0241(3) -0.3833(6) 0.1757(3)
C4B C 0.0219(2) 0.0313(6) 0.1473(3)
C5B C -0.0256(2) -0.0818(6) 0.1510(3)
C6B C -0.0874(2) -0.0542(6) 0.0927(3)
H1B H -0.1242 -0.1211 0.0868
C7B C -0.0878(2) 0.0806(6) 0.0462(3)
C8B C -0.1438(2) 0.1523(6) -0.0164(3)
C9B C -0.1987(3) 0.0609(7) -0.0541(3)
H2B H -0.1999 -0.0464 -0.0406
C10B C -0.2527(3) 0.1291(9) -0.1126(4)
H3B H -0.2896 0.0672 -0.1375
C11B C -0.2509(3) 0.2871(9) -0.1330(4)
H4B H -0.2864 0.3329 -0.1717
C12B C -0.1963(3) 0.3773(8) -0.0957(3)
C13B C -0.1431(3) 0.3114(7) -0.0379(3)
H5B H -0.1066 0.3745 -0.0132
C14B C 0.0924(3) 0.0421(7) 0.1961(3)
H6B H 0.1021 -0.0446 0.2351
H7B H 0.0993 0.1413 0.2259
H8B H 0.1214 0.0366 0.1591
C15B C -0.1953(4) 0.5472(9) -0.1152(5)
loop_
_geom_bond_atom_site_label_1
_geom_bond_atom_site_label_2
_geom_bond_site_symmetry_1
_geom_bond_site_symmetry_2
S1 C4 1_555 1_555
F1 C2 1_555 1_555
F2 C2 1_555 1_555
F3 C3 1_555 1_555
F4 C15 1_555 1_555
F5 C15 1_555 1_555
F6 C15 1_555 1_555
C1 C2 1_555 1_555
C2 C3 1_555 1_555
C3 F3B 1_555 1_555
C4 C5 1_555 1_555
C5 C1 1_555 1_555
C6 C5 1_555 1_555
H1 C6 1_555 1_555
C7 S1 1_555 1_555
C8 C7 1_555 1_555
C9 C8 1_555 1_555
H2 C9 1_555 1_555
C10 C9 1_555 1_555
H3 C10 1_555 1_555
C11 C10 1_555 1_555
H4 C11 1_555 1_555
C12 C11 1_555 1_555
C13 C8 1_555 1_555
H5 C13 1_555 1_555
C14 C4 1_555 1_555
H6 C14 1_555 1_555
H7 C14 1_555 1_555
H8 C14 1_555 1_555
C15 C12 1_555 1_555
S1B C4B 1_555 1_555
F1B C2B 1_555 1_555
F2B C2B 1_555 1_555
F4B C15B 1_555 1_555
F5B C15B 1_555 1_555
F6B C15B 1_555 1_555
C1B C1 1_555 1_555
C2B C3 1_555 1_555
C4B C5B 1_555 1_555
C5B C1B 1_555 1_555
C6B C5B 1_555 1_555
H1B C6B 1_555 1_555
C7B S1B 1_555 1_555
C8B C7B 1_555 1_555
C9B C8B 1_555 1_555
H2B C9B 1_555 1_555
C10B C9B 1_555 1_555
H3B C10B 1_555 1_555
C11B C10B 1_555 1_555
H4B C11B 1_555 1_555
C12B C11B 1_555 1_555
C13B C8B 1_555 1_555
H5B C13B 1_555 1_555
C14B C4B 1_555 1_555
H6B C14B 1_555 1_555
H7B C14B 1_555 1_555
H8B C14B 1_555 1_555
C15B C12B 1_555 1_555
C6 C7 1_555 1_555
C12 C13 1_555 1_555
C1B C2B 1_555 1_555
C6B C7B 1_555 1_555
C12B C13B 1_555 1_555

#END
