
#######################################################################
#
#                 Cambridge Crystallographic Data Centre
#                                CCDC 
#
#######################################################################
#
# If this CIF has been generated from an entry in the Cambridge 
# Structural Database, then it will include bibliographic, chemical, 
# crystal, experimental, refinement or atomic coordinate data resulting 
# from the CCDC's data processing and validation procedures.
#
#######################################################################

data_TAMFIY
_chemical_formula_moiety         
'2(C16 H36 N1 1+),C32 H37 N2 O2 1-,C32 H38 N2 O2,F1 1-,3(C1 H2 Cl2),H2 O1'
_chemical_name_systematic        
'bis(tetra-n-butylammonium) bis(2,2,7,7,13,13,18,18-octamethyl-24,26-diazapentacyclo[17.3.1.1^3,6^.1^8,12^.1^14,17^]hexacosa-1(23),3,5,8(25),9,11,14,16,19,21-decaene-10,21-diol) fluoride dichloromethane solvate monohydrate'
_symmetry_cell_setting           monoclinic
_symmetry_space_group_name_H-M   'I 2/a'
_symmetry_Int_Tables_number      15
_space_group_name_Hall           '-I 2ya'
loop_
_symmetry_equiv_pos_site_id
_symmetry_equiv_pos_as_xyz
1 x,y,z
2 1/2-x,y,-z
3 1/2+x,1/2+y,1/2+z
4 -x,1/2+y,1/2-z
5 -x,-y,-z
6 1/2+x,-y,z
7 1/2-x,1/2-y,1/2-z
8 x,1/2-y,1/2+z
_cell_length_a                   29.8044(8)
_cell_length_b                   10.3800(5)
_cell_length_c                   31.855(2)
_cell_angle_alpha                90
_cell_angle_beta                 95.290(2)
_cell_angle_gamma                90
_cell_volume                     9813
_exptl_crystal_colour            colorless
_exptl_crystal_description       plates
_cell_formula_units_Z            4
loop_
_atom_site_label
_atom_site_type_symbol
_atom_site_fract_x
_atom_site_fract_y
_atom_site_fract_z
O1 O 0.50370(9) 0.3912(2) 0.51526(8)
H1 H 0.5068 0.4661 0.5059
O2 O 0.70813(9) 0.2361(3) 0.53071(8)
H2 H 0.7230 0.2998 0.5235
N1 N 0.58334(9) 0.1061(3) 0.65021(9)
H3 H 0.5861 0.1445 0.6260
N2 N 0.62854(9) 0.5438(3) 0.65199(9)
H4 H 0.6257 0.5134 0.6261
C1 C 0.61760(11) 0.0414(3) 0.67369(10)
C2 C 0.59985(12) -0.0049(3) 0.70800(11)
H5 H 0.6154 -0.0540 0.7299
C3 C 0.55383(12) 0.0323(3) 0.70586(11)
H6 H 0.5332 0.0119 0.7259
C4 C 0.54449(11) 0.1022(3) 0.66997(11)
C5 C 0.50046(11) 0.1548(3) 0.64933(11)
C6 C 0.50933(10) 0.2770(3) 0.62368(11)
C7 C 0.52525(10) 0.3878(3) 0.64512(11)
H7 H 0.5312 0.3856 0.6749
C8 C 0.53260(10) 0.5017(3) 0.62347(11)
C9 C 0.52508(10) 0.5027(3) 0.57987(11)
H8 H 0.5298 0.5801 0.5650
C10 C 0.51065(11) 0.3925(3) 0.55727(11)
C11 C 0.50239(11) 0.2800(3) 0.58008(11)
H9 H 0.4919 0.2048 0.5653
C12 C 0.54853(11) 0.6230(3) 0.64870(11)
C13 C 0.59439(11) 0.6003(3) 0.67169(11)
C14 C 0.61247(11) 0.6336(3) 0.71098(11)
H10 H 0.5970 0.6743 0.7321
C15 C 0.65863(12) 0.5967(3) 0.71480(11)
H11 H 0.6794 0.6091 0.7389
C16 C 0.66773(10) 0.5412(3) 0.67831(11)
C17 C 0.71137(11) 0.4912(3) 0.66292(12)
C18 C 0.70227(10) 0.3677(3) 0.63685(11)
C19 C 0.68586(11) 0.2585(3) 0.65620(11)
H12 H 0.6800 0.2630 0.6850
C20 C 0.67779(10) 0.1421(3) 0.63402(11)
C21 C 0.68497(11) 0.1392(3) 0.59191(11)
H13 H 0.6788 0.0625 0.5762
C22 C 0.70103(11) 0.2469(4) 0.57213(11)
C23 C 0.70994(11) 0.3605(3) 0.59421(12)
H14 H 0.7212 0.4332 0.5805
C24 C 0.66383(11) 0.0229(3) 0.65772(11)
C25 C 0.47731(12) 0.0475(3) 0.62150(12)
H15 H 0.4971 0.0211 0.6002
H16 H 0.4489 0.0801 0.6075
H17 H 0.4712 -0.0267 0.6391
C26 C 0.46897(13) 0.1875(4) 0.68368(13)
H18 H 0.4653 0.1112 0.7012
H19 H 0.4395 0.2143 0.6703
H20 H 0.4821 0.2576 0.7014
C27 C 0.51451(12) 0.6534(4) 0.68107(12)
H21 H 0.5135 0.5813 0.7008
H22 H 0.4845 0.6665 0.6663
H23 H 0.5239 0.7318 0.6966
C28 C 0.55116(12) 0.7423(3) 0.62029(12)
H24 H 0.5600 0.8175 0.6377
H25 H 0.5216 0.7577 0.6049
H26 H 0.5736 0.7274 0.6001
C29 C 0.73163(12) 0.6001(4) 0.63734(13)
H27 H 0.7104 0.6226 0.6131
H28 H 0.7600 0.5706 0.6273
H29 H 0.7373 0.6759 0.6554
C30 C 0.74499(12) 0.4609(4) 0.70112(13)
H30 H 0.7504 0.5388 0.7182
H31 H 0.7734 0.4311 0.6913
H32 H 0.7326 0.3933 0.7182
C31 C 0.69856(12) -0.0031(4) 0.69555(12)
H33 H 0.7285 -0.0138 0.6856
H34 H 0.6903 -0.0819 0.7100
H35 H 0.6990 0.0697 0.7152
C32 C 0.66160(12) -0.0982(3) 0.62982(13)
H36 H 0.6395 -0.0850 0.6054
H37 H 0.6525 -0.1723 0.6462
H38 H 0.6913 -0.1147 0.6201
F1 F 0.7500 0.4137(3) 0.5000
O3 O 0.7250(3) 0.6056(8) 0.4539(3)
N3 N 0.62052(9) 0.3241(3) 0.43305(10)
C34 C 0.60150(13) 0.3836(4) 0.39162(14)
H41 H 0.5928 0.3130 0.3716
H42 H 0.5737 0.4311 0.3966
C35 C 0.63217(14) 0.4736(5) 0.37113(15)
H43 H 0.6591 0.4258 0.3639
H44 H 0.6423 0.5426 0.3913
C36 C 0.60907(15) 0.5327(4) 0.33196(15)
H45 H 0.5804 0.5721 0.3388
H46 H 0.6018 0.4642 0.3108
C37 C 0.63753(15) 0.6343(4) 0.31311(15)
H47 H 0.6477 0.6973 0.3348
H48 H 0.6196 0.6780 0.2900
H49 H 0.6637 0.5934 0.3022
C38 C 0.66089(11) 0.2412(4) 0.42588(13)
H50 H 0.6833 0.2954 0.4130
H51 H 0.6749 0.2119 0.4536
C39 C 0.65124(13) 0.1244(4) 0.39833(14)
H52 H 0.6328 0.1503 0.3723
H53 H 0.6337 0.0613 0.4134
C40 C 0.69443(15) 0.0614(5) 0.38672(17)
H54 H 0.7102 0.1210 0.3688
H55 H 0.7145 0.0452 0.4127
C41 C 0.6855(2) -0.0641(6) 0.3635(2)
H56 H 0.6695 -0.1230 0.3810
H57 H 0.7141 -0.1030 0.3575
H58 H 0.6669 -0.0478 0.3370
C42 C 0.58250(12) 0.2445(4) 0.44900(13)
H59 H 0.5571 0.3030 0.4534
H60 H 0.5718 0.1822 0.4268
C43 C 0.59477(13) 0.1713(4) 0.48931(13)
H61 H 0.5983 0.2321 0.5133
H62 H 0.6238 0.1262 0.4876
C44 C 0.55819(13) 0.0740(4) 0.49631(13)
H63 H 0.5529 0.0189 0.4710
H64 H 0.5298 0.1205 0.5000
C45 C 0.57013(15) -0.0108(5) 0.53457(15)
H65 H 0.5983 -0.0569 0.5312
H66 H 0.5459 -0.0731 0.5373
H67 H 0.5740 0.0429 0.5600
C46 C 0.63605(13) 0.4265(4) 0.46474(13)
H68 H 0.6473 0.3840 0.4915
H69 H 0.6616 0.4737 0.4542
C47 C 0.60022(16) 0.5223(4) 0.47373(16)
H70 H 0.5800 0.4809 0.4913
H71 H 0.5833 0.5431 0.4475
C48 C 0.6152(2) 0.6431(6) 0.4939(2)
H72 H 0.5888 0.6975 0.4985
H73 H 0.6344 0.6909 0.4755
C49 C 0.6411(2) 0.6144(6) 0.53513(19)
H74 H 0.6241 0.5536 0.5511
H75 H 0.6461 0.6944 0.5513
H76 H 0.6703 0.5765 0.5301
Cl1 Cl 0.56671(4) 0.34836(12) 0.77701(4)
Cl2 Cl 0.66145(4) 0.27972(12) 0.77862(4)
C33 C 0.61109(13) 0.3130(4) 0.74676(12)
H39 H 0.6161 0.3870 0.7281
H40 H 0.6029 0.2375 0.7287
Cl3? Cl 0.69994(9) -0.1013(2) 0.49466(10)
C50? C 0.7475(16) -0.0215(12) 0.5055(12)
C51? C 0.6187(6) 0.6136(19) 0.5096(7)
C52? C 0.6634(6) 0.675(2) 0.5028(8)
H77? H 0.5915 0.5718 0.4488
H78? H 0.5742 0.4771 0.4817
H79? H 0.5964 0.6828 0.5127
H80? H 0.6221 0.5645 0.5364
H81? H 0.6810 0.6152 0.4869
H82? H 0.6799 0.6936 0.5301
H83? H 0.6582 0.7548 0.4868
loop_
_geom_bond_atom_site_label_1
_geom_bond_atom_site_label_2
_geom_bond_site_symmetry_1
_geom_bond_site_symmetry_2
Cl1 C33 1_555 1_555
Cl2 C33 1_555 1_555
O1 H1 1_555 1_555
O2 H2 1_555 1_555
N1 H3 1_555 1_555
N2 H4 1_555 1_555
C1 N1 1_555 1_555
C2 C1 1_555 1_555
H5 C2 1_555 1_555
C3 C2 1_555 1_555
H6 C3 1_555 1_555
C4 N1 1_555 1_555
C5 C4 1_555 1_555
C6 C5 1_555 1_555
C7 C6 1_555 1_555
H7 C7 1_555 1_555
C8 C7 1_555 1_555
C9 C8 1_555 1_555
H8 C9 1_555 1_555
C10 O1 1_555 1_555
C11 C6 1_555 1_555
H9 C11 1_555 1_555
C12 C8 1_555 1_555
C13 N2 1_555 1_555
C14 C13 1_555 1_555
H10 C14 1_555 1_555
C15 C14 1_555 1_555
H11 C15 1_555 1_555
C16 N2 1_555 1_555
C17 C16 1_555 1_555
C18 C17 1_555 1_555
C19 C18 1_555 1_555
H12 C19 1_555 1_555
C20 C19 1_555 1_555
C21 C20 1_555 1_555
H13 C21 1_555 1_555
C22 O2 1_555 1_555
C23 C18 1_555 1_555
H14 C23 1_555 1_555
C24 C1 1_555 1_555
C25 C5 1_555 1_555
H15 C25 1_555 1_555
H16 C25 1_555 1_555
H17 C25 1_555 1_555
C26 C5 1_555 1_555
H18 C26 1_555 1_555
H19 C26 1_555 1_555
H20 C26 1_555 1_555
C27 C12 1_555 1_555
H21 C27 1_555 1_555
H22 C27 1_555 1_555
H23 C27 1_555 1_555
C28 C12 1_555 1_555
H24 C28 1_555 1_555
H25 C28 1_555 1_555
H26 C28 1_555 1_555
C29 C17 1_555 1_555
H27 C29 1_555 1_555
H28 C29 1_555 1_555
H29 C29 1_555 1_555
C30 C17 1_555 1_555
H30 C30 1_555 1_555
H31 C30 1_555 1_555
H32 C30 1_555 1_555
C31 C24 1_555 1_555
H33 C31 1_555 1_555
H34 C31 1_555 1_555
H35 C31 1_555 1_555
C32 C24 1_555 1_555
H36 C32 1_555 1_555
H37 C32 1_555 1_555
H38 C32 1_555 1_555
C33 H39 1_555 1_555
H40 C33 1_555 1_555
N3 C34 1_555 1_555
C34 H41 1_555 1_555
H42 C34 1_555 1_555
C35 C34 1_555 1_555
H43 C35 1_555 1_555
H44 C35 1_555 1_555
C36 C35 1_555 1_555
H45 C36 1_555 1_555
H46 C36 1_555 1_555
C37 C36 1_555 1_555
H47 C37 1_555 1_555
H48 C37 1_555 1_555
H49 C37 1_555 1_555
C38 N3 1_555 1_555
H50 C38 1_555 1_555
H51 C38 1_555 1_555
C39 C38 1_555 1_555
H52 C39 1_555 1_555
H53 C39 1_555 1_555
C40 C39 1_555 1_555
H54 C40 1_555 1_555
H55 C40 1_555 1_555
C41 C40 1_555 1_555
H56 C41 1_555 1_555
H57 C41 1_555 1_555
H58 C41 1_555 1_555
C42 N3 1_555 1_555
H59 C42 1_555 1_555
H60 C42 1_555 1_555
C43 C42 1_555 1_555
H61 C43 1_555 1_555
H62 C43 1_555 1_555
C44 C43 1_555 1_555
H63 C44 1_555 1_555
H64 C44 1_555 1_555
C45 C44 1_555 1_555
H65 C45 1_555 1_555
H66 C45 1_555 1_555
H67 C45 1_555 1_555
C46 N3 1_555 1_555
H68 C46 1_555 1_555
H69 C46 1_555 1_555
C47 C46 1_555 1_555
H70 C47 1_555 1_555
H71 C47 1_555 1_555
C48 C47 1_555 1_555
H72 C48 1_555 1_555
H73 C48 1_555 1_555
C49 C48 1_555 1_555
H74 C49 1_555 1_555
H75 C49 1_555 1_555
H76 C49 1_555 1_555
C3 C4 1_555 1_555
C9 C10 1_555 1_555
C10 C11 1_555 1_555
C12 C13 1_555 1_555
C15 C16 1_555 1_555
C20 C24 1_555 1_555
C21 C22 1_555 1_555
C22 C23 1_555 1_555

#END
