
#######################################################################
#
#                 Cambridge Crystallographic Data Centre
#                                CCDC 
#
#######################################################################
#
# If this CIF has been generated from an entry in the Cambridge 
# Structural Database, then it will include bibliographic, chemical, 
# crystal, experimental, refinement or atomic coordinate data resulting 
# from the CCDC's data processing and validation procedures.
#
#######################################################################

data_TAMHIA
_chemical_formula_moiety         'C80 H29 N2 O7,3.5(C1 H1 Cl3),0.13(H2 O1)'
_chemical_name_systematic        
'(3,6-bis[(4-t-butylphenyl)imino]-3,6-dihydro-2H-pyran-2-one)open-cage-C60fullerenedionetriol aqua clathrate chloroform solvate'
_symmetry_cell_setting           triclinic
_symmetry_space_group_name_H-M   'P -1'
_symmetry_Int_Tables_number      2
_space_group_name_Hall           '-P 1'
loop_
_symmetry_equiv_pos_site_id
_symmetry_equiv_pos_as_xyz
1 x,y,z
2 -x,-y,-z
_cell_length_a                   14.802(3)
_cell_length_b                   15.015(2)
_cell_length_c                   15.464(3)
_cell_angle_alpha                75.086(6)
_cell_angle_beta                 88.761(7)
_cell_angle_gamma                72.662(6)
_cell_volume                     3164.57
_cell_formula_units_Z            2
loop_
_atom_site_label
_atom_site_type_symbol
_atom_site_fract_x
_atom_site_fract_y
_atom_site_fract_z
Cl1 Cl 0.3400(2) 0.3210(2) 0.2157(2)
Cl2 Cl 0.2444(2) 0.2359(2) 0.11201(15)
Cl3 Cl 0.27829(15) 0.15854(14) 0.30271(13)
C81 C 0.2545(6) 0.2623(6) 0.2151(5)
H29 H 0.1920 0.3069 0.2243
Cl4 Cl 0.7697(3) 0.2510(5) 0.2344(4)
Cl5 Cl 0.7377(4) 0.1750(3) 0.4142(3)
Cl6 Cl 0.58161(18) 0.2541(2) 0.28909(19)
C82 C 0.6883(6) 0.2709(6) 0.3110(5)
H30 H 0.6780 0.3363 0.3211
Cl7 Cl 0.1607(2) 0.5306(2) -0.0019(2)
Cl8 Cl -0.02903(18) 0.65001(19) 0.01060(19)
Cl9 Cl 0.06600(16) 0.49731(15) 0.16305(14)
C83 C 0.0812(5) 0.5830(5) 0.0687(5)
H31 H 0.1076 0.6287 0.0893
O1 O 0.1729(3) 0.3739(3) 0.3760(2)
H1 H 0.1859 0.4264 0.3622
O2 O 0.0042(3) 0.4441(3) 0.6263(3)
H2 H 0.0182 0.4950 0.6239
O3 O 0.3815(3) 0.4788(3) 0.4771(3)
O4 O 0.2412(3) 0.5434(3) 0.6939(3)
O5 O 0.4280(3) 0.5454(3) 0.6295(3)
O6 O 0.1550(3) 0.6468(3) 0.5157(3)
O7 O 0.2467(3) 0.6860(3) 0.4084(3)
N1 N 0.0485(3) 0.6064(3) 0.6183(3)
N2 N 0.2124(3) 0.5384(3) 0.3332(3)
C1 C 0.2154(4) 0.3621(4) 0.4624(4)
C2 C 0.1057(4) 0.4088(4) 0.6253(4)
C3 C 0.2612(4) 0.4667(4) 0.7505(4)
C4 C 0.4614(4) 0.4605(5) 0.6712(4)
C5 C 0.1917(4) 0.4616(4) 0.4840(3)
C6 C 0.1437(4) 0.4799(4) 0.5564(4)
C7 C 0.1105(4) 0.5821(4) 0.5645(4)
C8 C 0.2036(4) 0.6296(4) 0.4426(4)
C9 C 0.2033(4) 0.5432(4) 0.4154(4)
C10 C 0.6110(4) 0.1307(4) 0.7930(4)
C11 C 0.4816(4) 0.0018(4) 0.6487(4)
C12 C 0.4896(4) 0.0206(4) 0.8735(4)
C13 C 0.3190(4) 0.0701(4) 0.8908(4)
C14 C 0.4982(5) 0.0961(5) 0.9067(4)
C15 C 0.3468(4) 0.3368(4) 0.8698(4)
C16 C 0.3278(4) 0.1486(4) 0.9239(4)
C17 C 0.3922(5) 0.0371(4) 0.5940(4)
C18 C 0.5412(4) 0.0601(4) 0.6076(4)
C19 C 0.3089(4) 0.0077(4) 0.7332(4)
C20 C 0.5272(4) 0.3798(4) 0.6393(4)
C21 C 0.4264(4) 0.2559(5) 0.9083(4)
C22 C 0.5424(4) -0.0004(4) 0.7958(4)
C23 C 0.5738(4) 0.3071(4) 0.7187(4)
C24 C 0.5999(4) 0.0854(4) 0.6598(4)
C25 C 0.3569(4) 0.4179(4) 0.8026(4)
C26 C 0.2299(4) 0.1035(4) 0.8363(4)
C27 C 0.5160(4) 0.2509(4) 0.8667(4)
C28 C 0.3986(4) 0.0069(4) 0.8657(4)
C29 C 0.4833(5) -0.0275(4) 0.7420(4)
C30 C 0.6007(4) 0.0538(4) 0.7574(4)
C31 C 0.2461(4) 0.2324(4) 0.8876(4)
C32 C 0.1484(4) 0.3685(4) 0.7262(4)
C33 C 0.3088(4) 0.0372(4) 0.6367(4)
C34 C 0.6084(4) 0.1816(4) 0.6375(4)
C35 C 0.3928(5) -0.0240(4) 0.7859(5)
C36 C 0.5220(4) 0.3272(4) 0.7963(4)
C37 C 0.4165(4) 0.1606(4) 0.9338(4)
C38 C 0.4871(4) 0.1326(4) 0.5296(4)
C39 C 0.4911(4) 0.2274(4) 0.5095(4)
C40 C 0.1295(4) 0.2375(4) 0.6786(4)
C41 C 0.2286(4) 0.1959(4) 0.5327(3)
C42 C 0.1863(4) 0.2054(4) 0.8342(4)
C43 C 0.5166(4) 0.3520(4) 0.5641(4)
C44 C 0.2568(4) 0.3233(4) 0.8586(4)
C45 C 0.6162(4) 0.2098(4) 0.7176(4)
C46 C 0.2239(4) 0.0722(4) 0.7603(4)
C47 C 0.3979(4) 0.1175(4) 0.5220(4)
C48 C 0.5541(4) 0.2524(4) 0.5621(4)
C49 C 0.4286(4) 0.3959(4) 0.4991(4)
C50 C 0.1757(4) 0.2944(4) 0.5289(4)
C51 C 0.1394(4) 0.2709(4) 0.7559(4)
C52 C 0.4441(4) 0.4140(4) 0.7653(4)
C53 C 0.1731(4) 0.1407(4) 0.6802(4)
C54 C 0.2243(4) 0.1196(4) 0.6030(4)
C55 C 0.3164(4) 0.1979(4) 0.4925(4)
C56 C 0.4077(4) 0.3109(4) 0.4768(3)
C57 C 0.2068(4) 0.3935(4) 0.7775(4)
C58 C 0.5614(4) 0.1517(4) 0.8663(4)
C59 C 0.3213(4) 0.2964(4) 0.4671(3)
C60 C 0.1264(4) 0.3146(4) 0.6008(4)
C61 C 0.0175(4) 0.7025(4) 0.6293(4)
C62 C 0.0099(5) 0.7088(4) 0.7181(4)
H3 H 0.0256 0.6519 0.7664
C63 C -0.0212(5) 0.8004(5) 0.7345(4)
H4 H -0.0241 0.8050 0.7947
C64 C -0.0482(4) 0.8856(4) 0.6645(4)
C65 C -0.0412(4) 0.8744(4) 0.5777(4)
H5 H -0.0593 0.9303 0.5285
C66 C -0.0087(4) 0.7843(4) 0.5607(4)
H6 H -0.0048 0.7797 0.5005
C67 C -0.0806(5) 0.9874(5) 0.6811(5)
C68 C 0.0083(5) 1.0182(5) 0.6907(5)
H7 H 0.0424 1.0197 0.6356
H8 H 0.0497 0.9719 0.7414
H9 H -0.0107 1.0828 0.7012
C69 C -0.1330(6) 0.9848(5) 0.7696(5)
H10 H -0.1897 0.9650 0.7647
H11 H -0.1516 1.0492 0.7802
H12 H -0.0907 0.9384 0.8198
C70 C -0.1443(6) 1.0605(5) 0.6043(5)
H13 H -0.2011 1.0416 0.5975
H14 H -0.1104 1.0633 0.5490
H15 H -0.1628 1.1243 0.6164
C71 C 0.2072(4) 0.6172(4) 0.2603(4)
C72 C 0.1297(5) 0.7016(4) 0.2413(4)
H16 H 0.0821 0.7091 0.2834
C73 C 0.1207(5) 0.7740(4) 0.1632(4)
H17 H 0.0670 0.8301 0.1523
C74 C 0.1907(4) 0.7659(4) 0.0987(4)
C75 C 0.2666(4) 0.6817(4) 0.1176(4)
H18 H 0.3152 0.6752 0.0764
C76 C 0.2745(4) 0.6063(4) 0.1947(4)
H19 H 0.3250 0.5478 0.2030
C77 C 0.1769(5) 0.8435(4) 0.0102(4)
C78 C 0.0966(6) 0.8378(6) -0.0460(5)
H20 H 0.0390 0.8458 -0.0125
H21 H 0.1143 0.7747 -0.0594
H22 H 0.0849 0.8892 -0.1021
C79 C 0.1477(7) 0.9463(5) 0.0262(5)
H23 H 0.0899 0.9558 0.0593
H24 H 0.1358 0.9951 -0.0317
H25 H 0.1988 0.9527 0.0609
C80 C 0.2662(5) 0.8320(5) -0.0421(5)
H26 H 0.2856 0.7681 -0.0538
H27 H 0.3172 0.8383 -0.0069
H28 H 0.2534 0.8821 -0.0991
O8 O 0.373(2) 0.225(2) 0.7087(19)
Cl10? Cl 0.6082 0.4372 0.0632(15)
Cl11? Cl 0.5093 0.6182 -0.0404
Cl12? Cl 0.3834 0.4969 0.0025
C84? C 0.5000 0.5000 0.0000
Cl13? Cl 0.7256(10) 0.3221(9) 0.1959(7)
Cl14? Cl 0.7853(8) 0.1708(8) 0.3476(11)
loop_
_geom_bond_atom_site_label_1
_geom_bond_atom_site_label_2
_geom_bond_site_symmetry_1
_geom_bond_site_symmetry_2
Cl1 C81 1_555 1_555
Cl2 C81 1_555 1_555
Cl3 C81 1_555 1_555
Cl4 C82 1_555 1_555
Cl5 C82 1_555 1_555
Cl6 C82 1_555 1_555
Cl7 C83 1_555 1_555
Cl8 C83 1_555 1_555
Cl9 C83 1_555 1_555
O1 H1 1_555 1_555
O2 H2 1_555 1_555
O3 C49 1_555 1_555
O4 C3 1_555 1_555
O5 C4 1_555 1_555
O6 C7 1_555 1_555
O7 C8 1_555 1_555
N1 C7 1_555 1_555
N2 C9 1_555 1_555
C1 O1 1_555 1_555
C2 O2 1_555 1_555
C3 C25 1_555 1_555
C4 C20 1_555 1_555
C5 C1 1_555 1_555
C6 C2 1_555 1_555
C7 C6 1_555 1_555
C8 O6 1_555 1_555
C9 C5 1_555 1_555
C10 C30 1_555 1_555
C11 C17 1_555 1_555
C12 C14 1_555 1_555
C13 C16 1_555 1_555
C14 C37 1_555 1_555
C15 C21 1_555 1_555
C16 C31 1_555 1_555
C17 C33 1_555 1_555
C18 C11 1_555 1_555
C19 C33 1_555 1_555
C20 C23 1_555 1_555
C21 C27 1_555 1_555
C22 C12 1_555 1_555
C23 C36 1_555 1_555
C24 C18 1_555 1_555
C25 C15 1_555 1_555
C26 C13 1_555 1_555
C27 C36 1_555 1_555
C28 C12 1_555 1_555
C29 C11 1_555 1_555
C30 C22 1_555 1_555
C31 C42 1_555 1_555
C32 C2 1_555 1_555
C33 C54 1_555 1_555
C34 C24 1_555 1_555
C35 C19 1_555 1_555
C36 C52 1_555 1_555
C37 C16 1_555 1_555
C38 C18 1_555 1_555
C39 C38 1_555 1_555
C40 C51 1_555 1_555
C41 C50 1_555 1_555
C42 C26 1_555 1_555
C43 C20 1_555 1_555
C44 C15 1_555 1_555
C45 C10 1_555 1_555
C46 C19 1_555 1_555
C47 C17 1_555 1_555
C48 C34 1_555 1_555
C49 C43 1_555 1_555
C50 C1 1_555 1_555
C51 C32 1_555 1_555
C52 C4 1_555 1_555
C53 C40 1_555 1_555
C54 C41 1_555 1_555
C55 C41 1_555 1_555
C56 C39 1_555 1_555
C57 C3 1_555 1_555
C58 C10 1_555 1_555
C59 C1 1_555 1_555
C60 C2 1_555 1_555
C61 N1 1_555 1_555
C62 C61 1_555 1_555
H3 C62 1_555 1_555
C63 C62 1_555 1_555
H4 C63 1_555 1_555
C64 C63 1_555 1_555
C65 C64 1_555 1_555
H5 C65 1_555 1_555
C66 C61 1_555 1_555
H6 C66 1_555 1_555
C67 C64 1_555 1_555
C68 C67 1_555 1_555
H7 C68 1_555 1_555
H8 C68 1_555 1_555
H9 C68 1_555 1_555
C69 C67 1_555 1_555
H10 C69 1_555 1_555
H11 C69 1_555 1_555
H12 C69 1_555 1_555
C70 C67 1_555 1_555
H13 C70 1_555 1_555
H14 C70 1_555 1_555
H15 C70 1_555 1_555
C71 N2 1_555 1_555
C72 C71 1_555 1_555
H16 C72 1_555 1_555
C73 C72 1_555 1_555
H17 C73 1_555 1_555
C74 C73 1_555 1_555
C75 C74 1_555 1_555
H18 C75 1_555 1_555
C76 C71 1_555 1_555
H19 C76 1_555 1_555
C77 C74 1_555 1_555
C78 C77 1_555 1_555
H20 C78 1_555 1_555
H21 C78 1_555 1_555
H22 C78 1_555 1_555
C79 C77 1_555 1_555
H23 C79 1_555 1_555
H24 C79 1_555 1_555
H25 C79 1_555 1_555
C80 C77 1_555 1_555
H26 C80 1_555 1_555
H27 C80 1_555 1_555
H28 C80 1_555 1_555
C81 H29 1_555 1_555
C82 H30 1_555 1_555
C83 H31 1_555 1_555
C5 C6 1_555 1_555
C8 C9 1_555 1_555
C13 C28 1_555 1_555
C14 C58 1_555 1_555
C21 C37 1_555 1_555
C22 C29 1_555 1_555
C23 C45 1_555 1_555
C24 C30 1_555 1_555
C25 C52 1_555 1_555
C26 C46 1_555 1_555
C27 C58 1_555 1_555
C28 C35 1_555 1_555
C29 C35 1_555 1_555
C31 C44 1_555 1_555
C32 C57 1_555 1_555
C34 C45 1_555 1_555
C38 C47 1_555 1_555
C39 C48 1_555 1_555
C40 C60 1_555 1_555
C42 C51 1_555 1_555
C43 C48 1_555 1_555
C44 C57 1_555 1_555
C46 C53 1_555 1_555
C47 C55 1_555 1_555
C49 C56 1_555 1_555
C50 C60 1_555 1_555
C53 C54 1_555 1_555
C55 C59 1_555 1_555
C56 C59 1_555 1_555
C65 C66 1_555 1_555
C75 C76 1_555 1_555

#END
