
#######################################################################
#
#                 Cambridge Crystallographic Data Centre
#                                CCDC 
#
#######################################################################
#
# If this CIF has been generated from an entry in the Cambridge 
# Structural Database, then it will include bibliographic, chemical, 
# crystal, experimental, refinement or atomic coordinate data resulting 
# from the CCDC's data processing and validation procedures.
#
#######################################################################

data_TAMHOG
_chemical_formula_moiety         'C80 H29 N2 O7,3(C1 H1 Cl3)'
_chemical_name_systematic        
'(3,6-bis[(4-t-butylphenyl)imino]-3,6-dihydro-2H-pyran-2-one)open-cage-C60fullerenedionetriol chloroform solvate'
_symmetry_cell_setting           triclinic
_symmetry_space_group_name_H-M   'P -1'
_symmetry_Int_Tables_number      2
_space_group_name_Hall           '-P 1'
loop_
_symmetry_equiv_pos_site_id
_symmetry_equiv_pos_as_xyz
1 x,y,z
2 -x,-y,-z
_cell_length_a                   14.7838(19)
_cell_length_b                   15.0011(18)
_cell_length_c                   15.416(2)
_cell_angle_alpha                75.211(4)
_cell_angle_beta                 88.656(5)
_cell_angle_gamma                72.633(4)
_cell_volume                     3149.75
_exptl_crystal_colour            red
_exptl_crystal_description       block
_cell_formula_units_Z            2
loop_
_atom_site_label
_atom_site_type_symbol
_atom_site_fract_x
_atom_site_fract_y
_atom_site_fract_z
Cl1 Cl 0.34020(18) 0.32039(18) 0.21597(17)
Cl2 Cl 0.24342(16) 0.23603(15) 0.11255(11)
Cl3 Cl 0.27843(11) 0.15810(11) 0.30271(9)
C81 C 0.2544(4) 0.2632(4) 0.2150(4)
H29 H 0.1921 0.3081 0.2248
Cl4 Cl 0.7693(3) 0.2527(4) 0.2346(3)
Cl5 Cl 0.7379(3) 0.1741(3) 0.4153(3)
Cl6 Cl 0.58207(13) 0.25333(15) 0.28950(15)
C82 C 0.6887(4) 0.2701(4) 0.3110(4)
H30 H 0.6779 0.3354 0.3218
Cl7 Cl 0.16215(17) 0.52978(17) -0.00235(16)
Cl8 Cl -0.02756(13) 0.64906(14) 0.00951(14)
Cl9 Cl 0.06635(12) 0.49675(11) 0.16271(10)
C83 C 0.0818(4) 0.5834(4) 0.0672(4)
H31 H 0.1078 0.6293 0.0878
O1 O 0.1731(2) 0.3742(2) 0.37575(18)
H1 H 0.1916 0.4193 0.3442
O2 O 0.00474(19) 0.4442(2) 0.62583(19)
H2 H -0.0065 0.4976 0.6385
O3 O 0.3822(2) 0.4794(2) 0.4768(2)
O4 O 0.2406(2) 0.5431(2) 0.6948(2)
O5 O 0.4279(2) 0.5454(2) 0.6298(2)
O6 O 0.1557(2) 0.6462(2) 0.5160(2)
O7 O 0.2470(3) 0.6858(2) 0.4086(2)
N1 N 0.0490(2) 0.6065(2) 0.6183(2)
N2 N 0.2137(2) 0.5379(2) 0.3334(2)
C1 C 0.2153(3) 0.3628(3) 0.4620(3)
C2 C 0.1053(3) 0.4086(3) 0.6259(3)
C3 C 0.2617(3) 0.4668(3) 0.7509(3)
C4 C 0.4610(3) 0.4614(3) 0.6715(3)
C5 C 0.1915(3) 0.4605(3) 0.4844(3)
C6 C 0.1432(3) 0.4806(3) 0.5574(3)
C7 C 0.1116(3) 0.5809(3) 0.5649(3)
C8 C 0.2032(3) 0.6306(3) 0.4412(3)
C9 C 0.2037(3) 0.5434(3) 0.4139(3)
C10 C 0.6099(3) 0.1321(3) 0.7935(3)
C11 C 0.4814(3) 0.0029(3) 0.6488(3)
C12 C 0.4898(3) 0.0211(3) 0.8738(3)
C13 C 0.3174(3) 0.0702(3) 0.8917(3)
C14 C 0.4987(3) 0.0958(3) 0.9074(3)
C15 C 0.3475(3) 0.3373(3) 0.8711(3)
C16 C 0.3266(3) 0.1488(3) 0.9250(3)
C17 C 0.3933(3) 0.0365(3) 0.5945(3)
C18 C 0.5416(3) 0.0614(3) 0.6070(3)
C19 C 0.3083(3) 0.0087(3) 0.7333(3)
C20 C 0.5278(3) 0.3792(3) 0.6404(3)
C21 C 0.4254(3) 0.2569(3) 0.9084(3)
C22 C 0.5416(3) -0.0004(3) 0.7976(3)
C23 C 0.5732(3) 0.3061(3) 0.7199(3)
C24 C 0.5991(3) 0.0860(3) 0.6601(3)
C25 C 0.3567(3) 0.4178(3) 0.8026(3)
C26 C 0.2299(3) 0.1044(3) 0.8361(3)
C27 C 0.5150(3) 0.2513(3) 0.8685(3)
C28 C 0.3978(3) 0.0073(3) 0.8659(3)
C29 C 0.4827(3) -0.0270(3) 0.7418(3)
C30 C 0.6001(3) 0.0542(3) 0.7575(3)
C31 C 0.2454(3) 0.2326(3) 0.8880(3)
C32 C 0.1477(3) 0.3695(3) 0.7264(3)
C33 C 0.3087(3) 0.0385(3) 0.6360(3)
C34 C 0.6080(3) 0.1829(3) 0.6365(3)
C35 C 0.3929(3) -0.0231(3) 0.7855(3)
C36 C 0.5216(3) 0.3268(3) 0.7968(3)
C37 C 0.4154(3) 0.1608(3) 0.9338(3)
C38 C 0.4877(3) 0.1335(3) 0.5294(3)
C39 C 0.4914(3) 0.2272(3) 0.5104(3)
C40 C 0.1290(3) 0.2376(3) 0.6792(3)
C41 C 0.2282(3) 0.1960(3) 0.5320(3)
C42 C 0.1860(3) 0.2054(3) 0.8349(3)
C43 C 0.5161(3) 0.3518(3) 0.5636(3)
C44 C 0.2561(3) 0.3238(3) 0.8587(3)
C45 C 0.6160(3) 0.2100(3) 0.7182(3)
C46 C 0.2243(3) 0.0729(3) 0.7598(3)
C47 C 0.3975(3) 0.1181(3) 0.5219(3)
C48 C 0.5543(3) 0.2526(3) 0.5635(3)
C49 C 0.4300(3) 0.3960(3) 0.4983(3)
C50 C 0.1750(3) 0.2937(3) 0.5292(3)
C51 C 0.1389(3) 0.2715(3) 0.7560(3)
C52 C 0.4438(3) 0.4140(3) 0.7665(3)
C53 C 0.1720(3) 0.1412(3) 0.6795(3)
C54 C 0.2238(3) 0.1197(3) 0.6029(3)
C55 C 0.3171(3) 0.1979(3) 0.4924(3)
C56 C 0.4086(3) 0.3102(3) 0.4772(2)
C57 C 0.2058(3) 0.3943(3) 0.7780(3)
C58 C 0.5601(3) 0.1517(3) 0.8675(3)
C59 C 0.3211(3) 0.2968(3) 0.4674(3)
C60 C 0.1266(3) 0.3146(3) 0.6004(3)
C61 C 0.0175(3) 0.7023(3) 0.6298(3)
C62 C 0.0101(3) 0.7109(3) 0.7173(3)
H3 H 0.0265 0.6546 0.7662
C63 C -0.0212(3) 0.8017(3) 0.7335(3)
H4 H -0.0243 0.8064 0.7939
C64 C -0.0484(3) 0.8863(3) 0.6636(3)
C65 C -0.0420(3) 0.8751(3) 0.5770(3)
H5 H -0.0604 0.9309 0.5277
C66 C -0.0093(3) 0.7845(3) 0.5602(3)
H6 H -0.0056 0.7794 0.4999
C67 C -0.0803(3) 0.9865(3) 0.6816(3)
C68 C 0.0086(4) 1.0178(4) 0.6901(4)
H7 H 0.0408 1.0219 0.6336
H8 H 0.0518 0.9702 0.7389
H9 H -0.0102 1.0812 0.7032
C69 C -0.1334(4) 0.9852(4) 0.7684(4)
H10 H -0.1865 0.9594 0.7654
H11 H -0.1577 1.0512 0.7754
H12 H -0.0898 0.9442 0.8199
C70 C -0.1457(4) 1.0611(4) 0.6036(4)
H13 H -0.1993 1.0386 0.5930
H14 H -0.1101 1.0690 0.5492
H15 H -0.1696 1.1232 0.6188
C71 C 0.2082(3) 0.6176(3) 0.2584(3)
C72 C 0.1304(3) 0.7016(3) 0.2421(3)
H16 H 0.0831 0.7093 0.2847
C73 C 0.1228(3) 0.7731(3) 0.1634(3)
H17 H 0.0693 0.8294 0.1526
C74 C 0.1912(3) 0.7656(3) 0.0989(3)
C75 C 0.2666(3) 0.6818(3) 0.1166(3)
H18 H 0.3144 0.6745 0.0745
C76 C 0.2749(3) 0.6073(3) 0.1947(3)
H19 H 0.3265 0.5495 0.2039
C77 C 0.1768(4) 0.8437(3) 0.0093(3)
C78 C 0.0980(4) 0.8367(5) -0.0474(4)
H20 H 0.0418 0.8377 -0.0122
H21 H 0.1192 0.7763 -0.0659
H22 H 0.0820 0.8917 -0.1008
C79 C 0.1491(5) 0.9450(4) 0.0272(4)
H23 H 0.0888 0.9565 0.0567
H24 H 0.1421 0.9943 -0.0300
H25 H 0.1987 0.9485 0.0661
C80 C 0.2668(4) 0.8315(4) -0.0422(3)
H26 H 0.2848 0.7686 -0.0562
H27 H 0.3182 0.8350 -0.0053
H28 H 0.2555 0.8832 -0.0981
Cl10? Cl 0.7238(8) 0.3258(7) 0.1929(5)
Cl11? Cl 0.7845(5) 0.1721(5) 0.3435(8)
loop_
_geom_bond_atom_site_label_1
_geom_bond_atom_site_label_2
_geom_bond_site_symmetry_1
_geom_bond_site_symmetry_2
Cl1 C81 1_555 1_555
Cl2 C81 1_555 1_555
Cl3 C81 1_555 1_555
Cl4 C82 1_555 1_555
Cl5 C82 1_555 1_555
Cl6 C82 1_555 1_555
Cl7 C83 1_555 1_555
Cl8 C83 1_555 1_555
Cl9 C83 1_555 1_555
O1 H1 1_555 1_555
O2 H2 1_555 1_555
O3 C49 1_555 1_555
O4 C3 1_555 1_555
O5 C4 1_555 1_555
O6 C7 1_555 1_555
O7 C8 1_555 1_555
N1 C7 1_555 1_555
N2 C9 1_555 1_555
C1 O1 1_555 1_555
C2 O2 1_555 1_555
C3 C25 1_555 1_555
C4 C20 1_555 1_555
C5 C1 1_555 1_555
C6 C2 1_555 1_555
C7 C6 1_555 1_555
C8 O6 1_555 1_555
C9 C5 1_555 1_555
C10 C30 1_555 1_555
C11 C17 1_555 1_555
C12 C14 1_555 1_555
C13 C16 1_555 1_555
C14 C37 1_555 1_555
C15 C21 1_555 1_555
C16 C31 1_555 1_555
C17 C33 1_555 1_555
C18 C11 1_555 1_555
C19 C33 1_555 1_555
C20 C23 1_555 1_555
C21 C27 1_555 1_555
C22 C12 1_555 1_555
C23 C36 1_555 1_555
C24 C18 1_555 1_555
C25 C15 1_555 1_555
C26 C13 1_555 1_555
C27 C36 1_555 1_555
C28 C12 1_555 1_555
C29 C11 1_555 1_555
C30 C22 1_555 1_555
C31 C42 1_555 1_555
C32 C2 1_555 1_555
C33 C54 1_555 1_555
C34 C24 1_555 1_555
C35 C19 1_555 1_555
C36 C52 1_555 1_555
C37 C16 1_555 1_555
C38 C18 1_555 1_555
C39 C38 1_555 1_555
C40 C51 1_555 1_555
C41 C50 1_555 1_555
C42 C26 1_555 1_555
C43 C20 1_555 1_555
C44 C15 1_555 1_555
C45 C10 1_555 1_555
C46 C19 1_555 1_555
C47 C17 1_555 1_555
C48 C34 1_555 1_555
C49 C43 1_555 1_555
C50 C1 1_555 1_555
C51 C32 1_555 1_555
C52 C4 1_555 1_555
C53 C40 1_555 1_555
C54 C41 1_555 1_555
C55 C41 1_555 1_555
C56 C39 1_555 1_555
C57 C3 1_555 1_555
C58 C10 1_555 1_555
C59 C1 1_555 1_555
C60 C2 1_555 1_555
C61 N1 1_555 1_555
C62 C61 1_555 1_555
H3 C62 1_555 1_555
C63 C62 1_555 1_555
H4 C63 1_555 1_555
C64 C63 1_555 1_555
C65 C64 1_555 1_555
H5 C65 1_555 1_555
C66 C61 1_555 1_555
H6 C66 1_555 1_555
C67 C64 1_555 1_555
C68 C67 1_555 1_555
H7 C68 1_555 1_555
H8 C68 1_555 1_555
H9 C68 1_555 1_555
C69 C67 1_555 1_555
H10 C69 1_555 1_555
H11 C69 1_555 1_555
H12 C69 1_555 1_555
C70 C67 1_555 1_555
H13 C70 1_555 1_555
H14 C70 1_555 1_555
H15 C70 1_555 1_555
C71 N2 1_555 1_555
C72 C71 1_555 1_555
H16 C72 1_555 1_555
C73 C72 1_555 1_555
H17 C73 1_555 1_555
C74 C73 1_555 1_555
C75 C74 1_555 1_555
H18 C75 1_555 1_555
C76 C71 1_555 1_555
H19 C76 1_555 1_555
C77 C74 1_555 1_555
C78 C77 1_555 1_555
H20 C78 1_555 1_555
H21 C78 1_555 1_555
H22 C78 1_555 1_555
C79 C77 1_555 1_555
H23 C79 1_555 1_555
H24 C79 1_555 1_555
H25 C79 1_555 1_555
C80 C77 1_555 1_555
H26 C80 1_555 1_555
H27 C80 1_555 1_555
H28 C80 1_555 1_555
C81 H29 1_555 1_555
C82 H30 1_555 1_555
C83 H31 1_555 1_555
C5 C6 1_555 1_555
C8 C9 1_555 1_555
C13 C28 1_555 1_555
C14 C58 1_555 1_555
C21 C37 1_555 1_555
C22 C29 1_555 1_555
C23 C45 1_555 1_555
C24 C30 1_555 1_555
C25 C52 1_555 1_555
C26 C46 1_555 1_555
C27 C58 1_555 1_555
C28 C35 1_555 1_555
C29 C35 1_555 1_555
C31 C44 1_555 1_555
C32 C57 1_555 1_555
C34 C45 1_555 1_555
C38 C47 1_555 1_555
C39 C48 1_555 1_555
C40 C60 1_555 1_555
C42 C51 1_555 1_555
C43 C48 1_555 1_555
C44 C57 1_555 1_555
C46 C53 1_555 1_555
C47 C55 1_555 1_555
C49 C56 1_555 1_555
C50 C60 1_555 1_555
C53 C54 1_555 1_555
C55 C59 1_555 1_555
C56 C59 1_555 1_555
C65 C66 1_555 1_555
C75 C76 1_555 1_555

#END
