
#######################################################################
#
#                 Cambridge Crystallographic Data Centre
#                                CCDC 
#
#######################################################################
#
# If this CIF has been generated from an entry in the Cambridge 
# Structural Database, then it will include bibliographic, chemical, 
# crystal, experimental, refinement or atomic coordinate data resulting 
# from the CCDC's data processing and validation procedures.
#
#######################################################################

data_TAMLUQ
_chemical_formula_moiety         'C23 H26 O7'
_chemical_name_systematic        
'Ethyl 3-ethyl-6,7,8-trimethoxy-4-oxo-1-phenyl-3,4-dihydro-1H-isochromene-3-carboxylate'
_symmetry_cell_setting           monoclinic
_symmetry_space_group_name_H-M   'P 21/c'
_symmetry_Int_Tables_number      14
_space_group_name_Hall           '-P 2ybc'
loop_
_symmetry_equiv_pos_site_id
_symmetry_equiv_pos_as_xyz
1 x,y,z
2 -x,1/2+y,1/2-z
3 -x,-y,-z
4 x,1/2-y,1/2+z
_cell_length_a                   12.4360(5)
_cell_length_b                   10.6121(4)
_cell_length_c                   16.2001(6)
_cell_angle_alpha                90
_cell_angle_beta                 99.3920(10)
_cell_angle_gamma                90
_cell_volume                     2109.3
_exptl_crystal_colour            colorless
_exptl_crystal_description       block
_cell_formula_units_Z            4
loop_
_atom_site_label
_atom_site_type_symbol
_atom_site_fract_x
_atom_site_fract_y
_atom_site_fract_z
O1 O 0.17838(8) -0.01145(10) -0.00053(6)
O2 O 0.21250(7) 0.11316(9) 0.20489(6)
O3 O 0.00176(10) -0.01441(12) 0.20297(8)
O4 O 0.08417(8) -0.15464(10) 0.13170(6)
O5 O 0.56192(9) -0.20486(11) 0.04266(7)
O6 O 0.63985(8) -0.15835(10) 0.20685(7)
O7 O 0.51350(8) -0.03791(11) 0.30593(6)
C1 C 0.47585(11) -0.05652(13) 0.22230(8)
C2 C 0.53956(11) -0.11566(12) 0.17090(9)
C3 C 0.49591(11) -0.13925(13) 0.08660(9)
C4 C 0.39176(11) -0.09962(13) 0.05520(9)
H1 H 0.3634 -0.1125 -0.0009
C5 C 0.32856(10) -0.04002(12) 0.10762(8)
C6 C 0.36907(10) -0.01925(12) 0.19155(8)
C7 C 0.30351(10) 0.04425(12) 0.24960(8)
H2 H 0.3518 0.1073 0.2804
C8 C 0.14755(11) 0.05840(13) 0.13344(8)
C9 C 0.21653(11) 0.00010(12) 0.07300(8)
C10 C 0.26857(10) -0.04168(13) 0.31524(8)
C11 C 0.24841(12) -0.16920(14) 0.30269(9)
H3 H 0.2601 -0.2068 0.2530
C12 C 0.21103(13) -0.24125(15) 0.36350(11)
H4 H 0.1965 -0.3264 0.3539
C13 C 0.19528(13) -0.18808(16) 0.43751(10)
H5 H 0.1696 -0.2366 0.4780
C14 C 0.21764(15) -0.06253(17) 0.45158(10)
H6 H 0.2084 -0.0262 0.5022
C15 C 0.25382(13) 0.01036(15) 0.39070(9)
H7 H 0.2684 0.0954 0.4008
C16 C 0.06883(11) -0.04000(14) 0.16074(9)
C17 C 0.01502(14) -0.25463(16) 0.15629(11)
H8 H -0.0597 -0.2427 0.1291
H9 H 0.0168 -0.2532 0.2164
C18 C 0.05758(16) -0.37703(17) 0.13045(12)
H10 H 0.0136 -0.4445 0.1460
H11 H 0.1315 -0.3879 0.1578
H12 H 0.0551 -0.3776 0.0709
C19 C 0.07891(13) 0.16750(16) 0.09158(10)
H13 H 0.0325 0.1364 0.0418
H14 H 0.0321 0.1985 0.1295
C20 C 0.14674(17) 0.27551(17) 0.06745(13)
H15 H 0.0995 0.3409 0.0417
H16 H 0.1920 0.2461 0.0288
H17 H 0.1918 0.3081 0.1166
C21 C 0.51869(15) -0.2403(2) -0.04099(12)
H18 H 0.5728 -0.2862 -0.0646
H19 H 0.4985 -0.1660 -0.0737
H20 H 0.4556 -0.2925 -0.0410
C22 C 0.73238(13) -0.11320(19) 0.17363(14)
H21 H 0.7975 -0.1500 0.2041
H22 H 0.7363 -0.0231 0.1788
H23 H 0.7255 -0.1362 0.1157
C23 C 0.59716(18) 0.0530(2) 0.32569(14)
H24 H 0.6177 0.0584 0.3853
H25 H 0.5712 0.1336 0.3040
H26 H 0.6592 0.0286 0.3011
loop_
_geom_bond_atom_site_label_1
_geom_bond_atom_site_label_2
_geom_bond_site_symmetry_1
_geom_bond_site_symmetry_2
O1 C9 1_555 1_555
O2 C7 1_555 1_555
O3 C16 1_555 1_555
O4 C16 1_555 1_555
O5 C3 1_555 1_555
O6 C2 1_555 1_555
O7 C1 1_555 1_555
C1 C2 1_555 1_555
C2 C3 1_555 1_555
C3 C4 1_555 1_555
C4 H1 1_555 1_555
C5 C4 1_555 1_555
C6 C1 1_555 1_555
C7 C6 1_555 1_555
H2 C7 1_555 1_555
C8 O2 1_555 1_555
C9 C5 1_555 1_555
C10 C7 1_555 1_555
C11 C10 1_555 1_555
H3 C11 1_555 1_555
C12 C11 1_555 1_555
H4 C12 1_555 1_555
C13 C12 1_555 1_555
H5 C13 1_555 1_555
C14 C13 1_555 1_555
H6 C14 1_555 1_555
C15 C10 1_555 1_555
H7 C15 1_555 1_555
C16 C8 1_555 1_555
C17 O4 1_555 1_555
H8 C17 1_555 1_555
H9 C17 1_555 1_555
C18 C17 1_555 1_555
H10 C18 1_555 1_555
H11 C18 1_555 1_555
H12 C18 1_555 1_555
C19 C8 1_555 1_555
H13 C19 1_555 1_555
H14 C19 1_555 1_555
C20 C19 1_555 1_555
H15 C20 1_555 1_555
H16 C20 1_555 1_555
H17 C20 1_555 1_555
C21 O5 1_555 1_555
H18 C21 1_555 1_555
H19 C21 1_555 1_555
H20 C21 1_555 1_555
C22 O6 1_555 1_555
H21 C22 1_555 1_555
H22 C22 1_555 1_555
H23 C22 1_555 1_555
C23 O7 1_555 1_555
H24 C23 1_555 1_555
H25 C23 1_555 1_555
H26 C23 1_555 1_555
C5 C6 1_555 1_555
C8 C9 1_555 1_555
C14 C15 1_555 1_555

#END
