
#######################################################################
#
#                 Cambridge Crystallographic Data Centre
#                                CCDC 
#
#######################################################################
#
# If this CIF has been generated from an entry in the Cambridge 
# Structural Database, then it will include bibliographic, chemical, 
# crystal, experimental, refinement or atomic coordinate data resulting 
# from the CCDC's data processing and validation procedures.
#
#######################################################################

data_TAMPEE
_chemical_formula_moiety         'C12 H8 F3 N1 O3'
_chemical_name_systematic        
'Methyl 4-phenyl-2-(trifluoromethyl)-1,3-oxazole-5-carboxylate'
_symmetry_cell_setting           monoclinic
_symmetry_space_group_name_H-M   'P 21/c'
_symmetry_Int_Tables_number      14
_space_group_name_Hall           '-P 2ybc'
loop_
_symmetry_equiv_pos_site_id
_symmetry_equiv_pos_as_xyz
1 x,y,z
2 -x,1/2+y,1/2-z
3 -x,-y,-z
4 x,1/2-y,1/2+z
_cell_length_a                   10.925(2)
_cell_length_b                   8.6147(17)
_cell_length_c                   15.619(5)
_cell_angle_alpha                90
_cell_angle_beta                 126.37(2)
_cell_angle_gamma                90
_cell_volume                     1183.64
_exptl_crystal_colour            colorless
_exptl_crystal_description       block
_chemical_melting_point          '47-48 deg.C'
_cell_formula_units_Z            4
loop_
_atom_site_label
_atom_site_type_symbol
_atom_site_fract_x
_atom_site_fract_y
_atom_site_fract_z
F1 F 0.1986(6) 0.1986(8) 1.0970(5)
F2 F 0.1189(5) 0.0192(6) 0.9899(4)
F3 F 0.0408(6) 0.2376(7) 0.9370(5)
O1 O 0.3126(4) 0.0120(5) 0.7801(3)
O2 O 0.5415(5) 0.1162(5) 0.8550(4)
O3 O 0.2784(4) 0.1178(4) 0.9166(3)
N1 N 0.4069(5) 0.2712(5) 1.0585(4)
C1 C 0.6409(6) 0.3341(6) 1.0753(4)
C2 C 0.7462(6) 0.3049(7) 1.0555(5)
H1 H 0.7239 0.2338 1.0032
C3 C 0.8850(7) 0.3810(8) 1.1130(6)
H2 H 0.9558 0.3587 1.0998
C4 C 0.9191(6) 0.4875(8) 1.1881(5)
H3 H 1.0113 0.5403 1.2248
C5 C 0.8169(7) 0.5166(8) 1.2095(5)
H4 H 0.8408 0.5878 1.2621
C6 C 0.6780(6) 0.4413(7) 1.1537(5)
H5 H 0.6092 0.4626 1.1688
C7 C 0.4930(6) 0.2550(6) 1.0186(4)
C8 C 0.4123(6) 0.1607(6) 0.9312(4)
C9 C 0.2868(6) 0.1902(6) 0.9956(5)
C10 C 0.4303(6) 0.0967(6) 0.8521(5)
C11 C 0.3227(8) -0.0645(8) 0.7016(5)
H6 H 0.4070 -0.1353 0.7368
H7 H 0.3374 0.0119 0.6637
H8 H 0.2305 -0.1207 0.6526
C12 C 0.1628(8) 0.1619(8) 1.0058(7)
loop_
_geom_bond_atom_site_label_1
_geom_bond_atom_site_label_2
_geom_bond_site_symmetry_1
_geom_bond_site_symmetry_2
F1 C12 1_555 1_555
F2 C12 1_555 1_555
F3 C12 1_555 1_555
O1 C10 1_555 1_555
O2 C10 1_555 1_555
O3 C8 1_555 1_555
N1 C7 1_555 1_555
C1 C2 1_555 1_555
C2 H1 1_555 1_555
C3 C2 1_555 1_555
H2 C3 1_555 1_555
C4 C3 1_555 1_555
H3 C4 1_555 1_555
C5 C4 1_555 1_555
H4 C5 1_555 1_555
C6 C1 1_555 1_555
H5 C6 1_555 1_555
C7 C1 1_555 1_555
C8 C7 1_555 1_555
C9 O3 1_555 1_555
C10 C8 1_555 1_555
C11 O1 1_555 1_555
H6 C11 1_555 1_555
H7 C11 1_555 1_555
H8 C11 1_555 1_555
C12 C9 1_555 1_555
N1 C9 1_555 1_555
C5 C6 1_555 1_555

#END
