
#######################################################################
#
#                 Cambridge Crystallographic Data Centre
#                                CCDC 
#
#######################################################################
#
# If this CIF has been generated from an entry in the Cambridge 
# Structural Database, then it will include bibliographic, chemical, 
# crystal, experimental, refinement or atomic coordinate data resulting 
# from the CCDC's data processing and validation procedures.
#
#######################################################################

data_TAMQEF
_chemical_formula_moiety         'C16 H11 B1 Br2 F2 N2 O1'
_chemical_name_systematic        
2,8-Dibromo-5,5-difluoro-10-(4-methoxyphenyl)-5H-6\l^5^,5\l^5^-dipyrrolo[1,2-c:2',1'-f][1,3,2]diazaborinine
_symmetry_cell_setting           monoclinic
_symmetry_space_group_name_H-M   'P 21/n'
_symmetry_Int_Tables_number      14
_space_group_name_Hall           '-P 2yn'
loop_
_symmetry_equiv_pos_site_id
_symmetry_equiv_pos_as_xyz
1 x,y,z
2 1/2-x,1/2+y,1/2-z
3 -x,-y,-z
4 1/2+x,1/2-y,1/2+z
_cell_length_a                   7.346(4)
_cell_length_b                   10.948(6)
_cell_length_c                   20.674(12)
_cell_angle_alpha                90
_cell_angle_beta                 90.743(8)
_cell_angle_gamma                90
_cell_volume                     1662.55
_exptl_crystal_colour            red
_exptl_crystal_description       block
_cell_formula_units_Z            4
_exptl_crystal_recrystallization_method dichloromethane/hexane
loop_
_atom_site_label
_atom_site_type_symbol
_atom_site_fract_x
_atom_site_fract_y
_atom_site_fract_z
C1 C -0.0449(10) 0.3496(6) 0.1002(4)
H1 H -0.0777 0.3386 0.0570
C2 C -0.1474(9) 0.3128(5) 0.1539(3)
C3 C -0.0535(9) 0.3496(5) 0.2096(3)
H2 H -0.0911 0.3384 0.2520
C4 C 0.1104(9) 0.4074(5) 0.1899(3)
C5 C 0.2530(8) 0.4601(5) 0.2246(3)
C6 C 0.3949(9) 0.5165(5) 0.1933(3)
C7 C 0.5593(9) 0.5702(5) 0.2162(3)
H3 H 0.5975 0.5773 0.2591
C8 C 0.6502(9) 0.6092(5) 0.1631(3)
C9 C 0.5508(10) 0.5764(6) 0.1087(3)
H4 H 0.5861 0.5912 0.0664
C10 C 0.2515(8) 0.4602(5) 0.2971(3)
C11 C 0.2209(8) 0.3538(5) 0.3322(3)
H5 H 0.1990 0.2807 0.3105
C12 C 0.2228(9) 0.3562(6) 0.3986(3)
H6 H 0.2106 0.2838 0.4216
C13 C 0.2427(9) 0.4655(6) 0.4315(3)
C14 C 0.2674(9) 0.5720(5) 0.3977(3)
H7 H 0.2805 0.6458 0.4196
C15 C 0.2729(8) 0.5692(5) 0.3308(3)
H8 H 0.2913 0.6413 0.3081
C16 C 0.2521(12) 0.5694(7) 0.5344(4)
H9 H 0.3724 0.6029 0.5312
H10 H 0.2254 0.5536 0.5789
H11 H 0.1653 0.6267 0.5170
B1 B 0.2536(13) 0.4660(8) 0.0787(4)
O1 O 0.2416(7) 0.4563(4) 0.4980(2)
F1 F 0.1766(7) 0.5575(4) 0.04146(19)
F2 F 0.3308(7) 0.3773(4) 0.03964(18)
Br1 Br -0.36608(11) 0.22660(7) 0.14791(4)
Br2 Br 0.87234(10) 0.69492(7) 0.16085(4)
N1 N 0.1102(8) 0.4043(4) 0.1223(2)
N2 N 0.3944(8) 0.5193(4) 0.1256(3)
loop_
_geom_bond_atom_site_label_1
_geom_bond_atom_site_label_2
_geom_bond_site_symmetry_1
_geom_bond_site_symmetry_2
C1 H1 1_555 1_555
C2 C1 1_555 1_555
C3 C2 1_555 1_555
H2 C3 1_555 1_555
C4 C3 1_555 1_555
C5 C4 1_555 1_555
C6 C5 1_555 1_555
C7 C6 1_555 1_555
H3 C7 1_555 1_555
C8 C7 1_555 1_555
C9 C8 1_555 1_555
H4 C9 1_555 1_555
C10 C5 1_555 1_555
C11 C10 1_555 1_555
H5 C11 1_555 1_555
C12 C11 1_555 1_555
H6 C12 1_555 1_555
C13 C12 1_555 1_555
C14 C13 1_555 1_555
H7 C14 1_555 1_555
C15 C10 1_555 1_555
H8 C15 1_555 1_555
C16 H9 1_555 1_555
H10 C16 1_555 1_555
H11 C16 1_555 1_555
B1 F1 1_555 1_555
O1 C13 1_555 1_555
F2 B1 1_555 1_555
Br1 C2 1_555 1_555
Br2 C8 1_555 1_555
N1 C1 1_555 1_555
N2 C6 1_555 1_555
C4 N1 1_555 1_555
C9 N2 1_555 1_555
C14 C15 1_555 1_555
C16 O1 1_555 1_555
B1 N1 1_555 1_555
B1 N2 1_555 1_555

#END
