
#######################################################################
#
#                 Cambridge Crystallographic Data Centre
#                                CCDC 
#
#######################################################################
#
# If this CIF has been generated from an entry in the Cambridge 
# Structural Database, then it will include bibliographic, chemical, 
# crystal, experimental, refinement or atomic coordinate data resulting 
# from the CCDC's data processing and validation procedures.
#
#######################################################################

data_TAMQUW
_chemical_formula_moiety         '2(C9 H7 N5),3(H2 O1)'
_chemical_name_systematic        
'2-(4H-1,2,4-triazol-4-yl)-1H-benzimidazole trihydrate'
_symmetry_cell_setting           monoclinic
_symmetry_space_group_name_H-M   'C 2/c'
_symmetry_Int_Tables_number      15
_space_group_name_Hall           '-C 2yn'
loop_
_symmetry_equiv_pos_site_id
_symmetry_equiv_pos_as_xyz
1 x,y,z
2 -x,y,1/2-z
3 1/2+x,1/2+y,z
4 1/2-x,1/2+y,1/2-z
5 -x,-y,-z
6 x,-y,1/2+z
7 1/2-x,1/2-y,-z
8 1/2+x,1/2-y,1/2+z
_cell_length_a                   27.264(6)
_cell_length_b                   9.6670(19)
_cell_length_c                   7.7520(16)
_cell_angle_alpha                90
_cell_angle_beta                 96.50(3)
_cell_angle_gamma                90
_cell_volume                     2029.99
_cell_formula_units_Z            4
loop_
_atom_site_label
_atom_site_type_symbol
_atom_site_fract_x
_atom_site_fract_y
_atom_site_fract_z
N1 N 0.37840(8) 0.6426(2) 0.0115(3)
C1 C 0.39395(9) 0.5065(3) -0.0100(3)
N2 N 0.32463(7) 0.4962(2) 0.1129(3)
H1 H 0.2989 0.4689 0.1581
C2 C 0.43574(10) 0.4581(3) -0.0771(4)
H2 H 0.4582 0.5180 -0.1200
N3 N 0.31074(7) 0.7413(2) 0.1333(3)
C3 C 0.44241(12) 0.3162(4) -0.0771(5)
H3 H 0.4702 0.2803 -0.1206
N4 N 0.25717(8) 0.8713(2) 0.2455(3)
C4 C 0.40948(12) 0.2265(3) -0.0151(5)
H4 H 0.4153 0.1318 -0.0198
N5 N 0.29008(9) 0.9563(2) 0.1734(4)
C5 C 0.36806(11) 0.2731(3) 0.0539(4)
H5 H 0.3461 0.2127 0.0982
C6 C 0.36102(9) 0.4149(3) 0.0535(4)
C7 C 0.33834(9) 0.6278(2) 0.0846(3)
C8 C 0.27059(9) 0.7447(3) 0.2204(4)
H6 H 0.2547 0.6668 0.2574
C9 C 0.32135(11) 0.8772(3) 0.1095(4)
H7 H 0.3478 0.9086 0.0541
O1 O 0.5000 0.0081(3) 0.2500
H8 H 0.5191 -0.0281 0.3155
H8A H 0.4809 -0.0281 0.1845
O2 O 0.43939(8) 0.8816(2) -0.0182(3)
H9 H 0.4605 0.8973 -0.1161
H10 H 0.4231 0.8065 -0.0164
loop_
_geom_bond_atom_site_label_1
_geom_bond_atom_site_label_2
_geom_bond_site_symmetry_1
_geom_bond_site_symmetry_2
N1 C1 1_555 1_555
C1 C2 1_555 1_555
N2 H1 1_555 1_555
C2 H2 1_555 1_555
N3 C7 1_555 1_555
C3 C2 1_555 1_555
H3 C3 1_555 1_555
N4 N5 1_555 1_555
C4 C3 1_555 1_555
H4 C4 1_555 1_555
N5 C9 1_555 1_555
C5 C4 1_555 1_555
H5 C5 1_555 1_555
C6 C1 1_555 1_555
C7 N1 1_555 1_555
C8 N3 1_555 1_555
H6 C8 1_555 1_555
C9 N3 1_555 1_555
H7 C9 1_555 1_555
O1 H8 1_555 1_555
O2 H9 1_555 1_555
H10 O2 1_555 1_555
H8A O1 1_555 1_555
N2 C6 1_555 1_555
N2 C7 1_555 1_555
N4 C8 1_555 1_555
C5 C6 1_555 1_555

#END
