
#######################################################################
#
#                 Cambridge Crystallographic Data Centre
#                                CCDC 
#
#######################################################################
#
# If this CIF has been generated from an entry in the Cambridge 
# Structural Database, then it will include bibliographic, chemical, 
# crystal, experimental, refinement or atomic coordinate data resulting 
# from the CCDC's data processing and validation procedures.
#
#######################################################################

data_TAMQOP
_chemical_formula_moiety         'C16 H8 B1 Br5 F2 N2 O1'
_chemical_name_systematic        
1,2,3,7,8-Pentabromo-5,5-difluoro-10-(4-methoxyphenyl)-5H-4\l^5^,5\l^5^-dipyrrolo[1,2-c:2',1'-f][1,3,2]diazaborinine
_symmetry_cell_setting           monoclinic
_symmetry_space_group_name_H-M   'P 21/n'
_symmetry_Int_Tables_number      14
_space_group_name_Hall           '-P 2yn'
loop_
_symmetry_equiv_pos_site_id
_symmetry_equiv_pos_as_xyz
1 x,y,z
2 1/2-x,1/2+y,1/2-z
3 -x,-y,-z
4 1/2+x,1/2-y,1/2+z
_cell_length_a                   11.1392(8)
_cell_length_b                   9.0066(6)
_cell_length_c                   19.8041(14)
_cell_angle_alpha                90
_cell_angle_beta                 90.677(1)
_cell_angle_gamma                90
_cell_volume                     1986.73
_exptl_crystal_colour            red
_exptl_crystal_description       block
_cell_formula_units_Z            4
_exptl_crystal_recrystallization_method dichloromethane/hexane
loop_
_atom_site_label
_atom_site_type_symbol
_atom_site_fract_x
_atom_site_fract_y
_atom_site_fract_z
B1 B 1.0062(6) -0.1854(7) 0.9298(3)
Br1 Br 0.84270(6) -0.42094(7) 1.02173(3)
Br2 Br 0.54093(6) -0.28101(8) 1.00984(4)
Br3 Br 1.00356(6) 0.35731(8) 0.79585(4)
Br4 Br 1.30038(6) 0.22039(10) 0.80800(4)
Br5 Br 1.29189(6) -0.11963(9) 0.90070(4)
C1 C 0.7931(6) -0.2551(6) 0.9735(3)
C2 C 0.6751(5) -0.2010(6) 0.9671(3)
C3 C 0.6776(5) -0.0776(6) 0.9277(3)
H1 H 0.6121 -0.0193 0.9150
C4 C 0.7980(5) -0.0546(6) 0.9098(3)
C5 C 0.8496(5) 0.0619(6) 0.8746(2)
C6 C 0.9724(5) 0.0710(6) 0.8661(2)
C7 C 1.0480(5) 0.1781(6) 0.8356(3)
C8 C 1.1638(5) 0.1299(7) 0.8404(3)
C9 C 1.1607(5) -0.0053(7) 0.8756(3)
C10 C 0.7663(3) 0.1774(3) 0.84805(15)
C11 C 0.7403(3) 0.2991(4) 0.88849(13)
H2 H 0.7815 0.3129 0.9291
C12 C 0.6527(3) 0.4001(3) 0.86822(15)
H3 H 0.6353 0.4815 0.8953
C13 C 0.5910(3) 0.3793(3) 0.80752(16)
C14 C 0.6170(3) 0.2576(4) 0.76709(13)
H4 H 0.5757 0.2438 0.7265
C15 C 0.7046(3) 0.1566(3) 0.78735(14)
H5 H 0.7220 0.0752 0.7603
C16 C 0.4516(6) 0.5721(8) 0.8311(3)
H6 H 0.4291 0.5235 0.8722
H7 H 0.3824 0.6191 0.8112
H8 H 0.5117 0.6457 0.8408
F1 F 1.0306(3) -0.3087(4) 0.89200(17)
F2 F 1.0620(3) -0.1910(4) 0.99152(16)
N1 N 0.8682(4) -0.1682(5) 0.9389(2)
N2 N 1.0476(4) -0.0425(5) 0.8913(2)
O1 O 0.4983(4) 0.4655(5) 0.78533(18)
loop_
_geom_bond_atom_site_label_1
_geom_bond_atom_site_label_2
_geom_bond_site_symmetry_1
_geom_bond_site_symmetry_2
B1 F1 1_555 1_555
Br1 C1 1_555 1_555
Br2 C2 1_555 1_555
Br3 C7 1_555 1_555
Br4 C8 1_555 1_555
Br5 C9 1_555 1_555
C1 C2 1_555 1_555
C2 C3 1_555 1_555
C3 H1 1_555 1_555
C4 C3 1_555 1_555
C5 C4 1_555 1_555
C6 C5 1_555 1_555
C7 C6 1_555 1_555
C8 C7 1_555 1_555
C9 C8 1_555 1_555
C10 C5 1_555 1_555
C11 C10 1_555 1_555
H2 C11 1_555 1_555
C12 C11 1_555 1_555
H3 C12 1_555 1_555
C13 C12 1_555 1_555
C14 C13 1_555 1_555
H4 C14 1_555 1_555
C15 C10 1_555 1_555
H5 C15 1_555 1_555
C16 H6 1_555 1_555
H7 C16 1_555 1_555
H8 C16 1_555 1_555
F2 B1 1_555 1_555
N1 B1 1_555 1_555
N2 B1 1_555 1_555
O1 C13 1_555 1_555
C1 N1 1_555 1_555
C4 N1 1_555 1_555
C6 N2 1_555 1_555
C9 N2 1_555 1_555
C14 C15 1_555 1_555
C16 O1 1_555 1_555

#END
