
#######################################################################
#
#                 Cambridge Crystallographic Data Centre
#                                CCDC 
#
#######################################################################
#
# If this CIF has been generated from an entry in the Cambridge 
# Structural Database, then it will include bibliographic, chemical, 
# crystal, experimental, refinement or atomic coordinate data resulting 
# from the CCDC's data processing and validation procedures.
#
#######################################################################

data_TAMRAC
_chemical_formula_moiety         'C21 H11 B1 Br5 F2 N3'
_chemical_name_systematic        
1,2,3,8,9-Pentabromo-7-phenyliminio-5,5-difluoro-10-phenyl-4\l^5^,5\l^5^-dipyrrolo[1,2-c:2',1'-f][1,3,2]diazaborinine
_symmetry_cell_setting           monoclinic
_symmetry_space_group_name_H-M   'P 21/c'
_symmetry_Int_Tables_number      14
_space_group_name_Hall           '-P 2ybc'
loop_
_symmetry_equiv_pos_site_id
_symmetry_equiv_pos_as_xyz
1 x,y,z
2 -x,1/2+y,1/2-z
3 -x,-y,-z
4 x,1/2-y,1/2+z
_cell_length_a                   17.350(3)
_cell_length_b                   13.448(2)
_cell_length_c                   9.9745(15)
_cell_angle_alpha                90
_cell_angle_beta                 93.922(2)
_cell_angle_gamma                90
_cell_volume                     2321.83
_exptl_crystal_colour            red
_exptl_crystal_description       block
_cell_formula_units_Z            4
_exptl_crystal_recrystallization_method dichloromethane/hexane
loop_
_atom_site_label
_atom_site_type_symbol
_atom_site_fract_x
_atom_site_fract_y
_atom_site_fract_z
B1 B 0.1652(3) 0.8151(4) 0.4151(6)
Br1 Br 0.25480(3) 0.43868(4) 0.28351(7)
Br2 Br 0.38874(3) 0.60249(4) 0.16702(5)
Br3 Br 0.39936(4) 1.07505(4) 0.30351(7)
Br4 Br 0.24907(4) 1.20518(4) 0.44382(7)
Br5 Br 0.09685(4) 1.03358(5) 0.49469(7)
C1 C 0.1092(3) 0.5041(4) 0.4514(6)
C2 C 0.0559(4) 0.4548(5) 0.3686(6)
H1 H 0.0358 0.4833 0.2888
C3 C 0.0324(4) 0.3588(6) 0.4080(9)
H2 H -0.0032 0.3228 0.3536
C4 C 0.0616(5) 0.3209(5) 0.5230(10)
H3 H 0.0451 0.2585 0.5493
C5 C 0.1139(5) 0.3696(6) 0.6021(7)
H4 H 0.1339 0.3405 0.6816
C6 C 0.1379(4) 0.4607(5) 0.5674(7)
H5 H 0.1744 0.4941 0.6232
C7 C 0.1952(3) 0.6323(4) 0.3675(6)
C8 C 0.2531(3) 0.5757(3) 0.3073(5)
C9 C 0.3064(3) 0.6398(3) 0.2633(5)
C10 C 0.2844(3) 0.7394(4) 0.3013(5)
C11 C 0.3196(3) 0.8294(3) 0.2909(4)
C12 C 0.2835(3) 0.9163(3) 0.3396(5)
C13 C 0.3076(3) 1.0163(4) 0.3495(5)
C14 C 0.2495(3) 1.0696(3) 0.4057(5)
C15 C 0.1911(3) 1.0036(4) 0.4298(5)
C16 C 0.3957(3) 0.8395(3) 0.2332(4)
C17 C 0.4634(3) 0.8245(4) 0.3100(5)
H6 H 0.4621 0.8073 0.4002
C18 C 0.5329(3) 0.8350(4) 0.2540(6)
H7 H 0.5786 0.8241 0.3062
C19 C 0.5356(4) 0.8612(4) 0.1220(7)
H8 H 0.5831 0.8677 0.0848
C20 C 0.4694(4) 0.8777(4) 0.0452(6)
H9 H 0.4714 0.8958 -0.0445
C21 C 0.3991(3) 0.8675(4) 0.1003(5)
H10 H 0.3536 0.8796 0.0478
F1 F 0.1563(2) 0.8016(2) 0.5498(3)
F2 F 0.09526(19) 0.8153(2) 0.3463(4)
N1 N 0.1314(3) 0.6021(3) 0.4189(6)
H11 H 0.0988 0.6480 0.4350
N2 N 0.2154(2) 0.7299(3) 0.3648(4)
N3 N 0.2113(2) 0.9112(3) 0.3918(4)
loop_
_geom_bond_atom_site_label_1
_geom_bond_atom_site_label_2
_geom_bond_site_symmetry_1
_geom_bond_site_symmetry_2
B1 F1 1_555 1_555
Br1 C8 1_555 1_555
Br2 C9 1_555 1_555
Br3 C13 1_555 1_555
Br4 C14 1_555 1_555
Br5 C15 1_555 1_555
C1 C2 1_555 1_555
C2 H1 1_555 1_555
C3 C2 1_555 1_555
H2 C3 1_555 1_555
C4 C3 1_555 1_555
H3 C4 1_555 1_555
C5 C4 1_555 1_555
H4 C5 1_555 1_555
C6 C1 1_555 1_555
H5 C6 1_555 1_555
C7 C8 1_555 1_555
C8 C9 1_555 1_555
C9 C10 1_555 1_555
C10 C11 1_555 1_555
C11 C12 1_555 1_555
C12 C13 1_555 1_555
C13 C14 1_555 1_555
C14 C15 1_555 1_555
C15 N3 1_555 1_555
C16 C11 1_555 1_555
C17 C16 1_555 1_555
H6 C17 1_555 1_555
C18 C17 1_555 1_555
H7 C18 1_555 1_555
C19 C18 1_555 1_555
H8 C19 1_555 1_555
C20 C19 1_555 1_555
H9 C20 1_555 1_555
C21 C16 1_555 1_555
H10 C21 1_555 1_555
F2 B1 1_555 1_555
N1 C1 1_555 1_555
H11 N1 1_555 1_555
N2 B1 1_555 1_555
N3 B1 1_555 1_555
C5 C6 1_555 1_555
C7 N1 1_555 1_555
C7 N2 1_555 1_555
C10 N2 1_555 1_555
C12 N3 1_555 1_555
C20 C21 1_555 1_555

#END
