
#######################################################################
#
#                 Cambridge Crystallographic Data Centre
#                                CCDC 
#
#######################################################################
#
# If this CIF has been generated from an entry in the Cambridge 
# Structural Database, then it will include bibliographic, chemical, 
# crystal, experimental, refinement or atomic coordinate data resulting 
# from the CCDC's data processing and validation procedures.
#
#######################################################################

data_TAMREG
_chemical_formula_moiety         'C29 H19 B1 Br4 F2 N2 S2'
_chemical_name_systematic        
1,2,8,9-Tetrabromo-5,5-difluoro-3,7-bis((4-methylphenyl)sulfanyl)-10-phenyl-5H-6\l^5^,5\l^5^-dipyrrolo[1,2-c:2',1'-f][1,3,2]diazaborinine
_symmetry_cell_setting           orthorhombic
_symmetry_space_group_name_H-M   'P b a 2'
_symmetry_Int_Tables_number      32
_space_group_name_Hall           'P 2 -2ab'
loop_
_symmetry_equiv_pos_site_id
_symmetry_equiv_pos_as_xyz
1 x,y,z
2 -x,-y,z
3 1/2+x,1/2-y,z
4 1/2-x,1/2+y,z
_cell_length_a                   19.356(2)
_cell_length_b                   27.471(3)
_cell_length_c                   5.6890(7)
_cell_angle_alpha                90
_cell_angle_beta                 90
_cell_angle_gamma                90
_cell_volume                     3025
_exptl_crystal_colour            blue
_exptl_crystal_description       block
_cell_formula_units_Z            4
_exptl_crystal_recrystallization_method dichloromethane/hexane
loop_
_atom_site_label
_atom_site_type_symbol
_atom_site_fract_x
_atom_site_fract_y
_atom_site_fract_z
B1 B 0.6227(4) 0.2712(4) 0.610(2)
Br1 Br 0.55705(5) 0.44069(4) 1.0599(3)
Br2 Br 0.44651(5) 0.34968(4) 1.2759(2)
Br3 Br 0.44278(6) 0.12633(4) 0.9090(3)
Br4 Br 0.56516(7) 0.07720(4) 0.5243(3)
C1 C 0.7169(5) 0.4091(3) 0.820(2)
C2 C 0.7375(5) 0.3849(3) 1.020(2)
H1 H 0.7185 0.3547 1.0569
C3 C 0.7865(5) 0.4055(4) 1.165(3)
H2 H 0.7994 0.3892 1.3016
C4 C 0.8168(5) 0.4496(4) 1.113(3)
C5 C 0.7958(6) 0.4733(4) 0.915(3)
H3 H 0.8151 0.5034 0.8794
C6 C 0.7469(6) 0.4540(4) 0.767(3)
H4 H 0.7338 0.4708 0.6318
C7 C 0.8709(7) 0.4714(6) 1.273(3)
H5 H 0.8494 0.4944 1.3772
H6 H 0.9054 0.4876 1.1806
H7 H 0.8922 0.4460 1.3637
C8 C 0.5982(4) 0.3556(3) 0.792(2)
C9 C 0.5552(5) 0.3761(3) 0.967(2)
C10 C 0.5112(4) 0.3402(3) 1.043(2)
C11 C 0.5276(4) 0.2967(3) 0.9161(18)
C12 C 0.5002(4) 0.2501(3) 0.9250(17)
C13 C 0.5308(4) 0.2122(3) 0.7988(18)
C14 C 0.5150(4) 0.1617(3) 0.781(2)
C15 C 0.5621(4) 0.1419(3) 0.627(2)
C16 C 0.6045(4) 0.1786(3) 0.541(2)
C17 C 0.4364(3) 0.2413(3) 1.0637(17)
C18 C 0.4371(4) 0.2186(4) 1.275(2)
H8 H 0.4789 0.2082 1.3384
C19 C 0.3763(6) 0.2107(4) 1.398(2)
H9 H 0.3775 0.1946 1.5415
C20 C 0.3149(5) 0.2262(4) 1.309(2)
H10 H 0.2744 0.2220 1.3949
C21 C 0.3131(4) 0.2482(4) 1.092(2)
H11 H 0.2710 0.2574 1.0273
C22 C 0.3737(4) 0.2567(3) 0.9702(18)
H12 H 0.3725 0.2726 0.8260
C23 C 0.7269(4) 0.1351(3) 0.420(2)
C24 C 0.7623(6) 0.1440(5) 0.622(2)
H13 H 0.7511 0.1710 0.7127
C25 C 0.8157(6) 0.1127(5) 0.693(3)
H14 H 0.8391 0.1186 0.8335
C26 C 0.8337(5) 0.0726(4) 0.553(3)
C27 C 0.7973(5) 0.0650(4) 0.352(3)
H15 H 0.8086 0.0386 0.2576
C28 C 0.7442(5) 0.0953(4) 0.285(2)
H16 H 0.7198 0.0888 0.1481
C29 C 0.8937(6) 0.0408(5) 0.623(4)
H17 H 0.8793 0.0074 0.6251
H18 H 0.9096 0.0501 0.7763
H19 H 0.9306 0.0447 0.5114
F1 F 0.6192(3) 0.2842(2) 0.3801(11)
F2 F 0.6901(2) 0.2683(2) 0.6907(11)
N1 N 0.5821(3) 0.3083(3) 0.7662(15)
N2 N 0.5870(3) 0.2208(2) 0.6494(15)
S1 S 0.65879(14) 0.38387(10) 0.6100(6)
S2 S 0.66448(12) 0.17696(10) 0.3115(6)
loop_
_geom_bond_atom_site_label_1
_geom_bond_atom_site_label_2
_geom_bond_site_symmetry_1
_geom_bond_site_symmetry_2
B1 F1 1_555 1_555
Br1 C9 1_555 1_555
Br2 C10 1_555 1_555
Br3 C14 1_555 1_555
Br4 C15 1_555 1_555
C1 C2 1_555 1_555
C2 H1 1_555 1_555
C3 C2 1_555 1_555
H2 C3 1_555 1_555
C4 C3 1_555 1_555
C5 C4 1_555 1_555
H3 C5 1_555 1_555
C6 C1 1_555 1_555
H4 C6 1_555 1_555
C7 C4 1_555 1_555
H5 C7 1_555 1_555
H6 C7 1_555 1_555
H7 C7 1_555 1_555
C8 C9 1_555 1_555
C9 C10 1_555 1_555
C10 C11 1_555 1_555
C11 C12 1_555 1_555
C12 C13 1_555 1_555
C13 C14 1_555 1_555
C14 C15 1_555 1_555
C15 C16 1_555 1_555
C16 N2 1_555 1_555
C17 C12 1_555 1_555
C18 C17 1_555 1_555
H8 C18 1_555 1_555
C19 C18 1_555 1_555
H9 C19 1_555 1_555
C20 C19 1_555 1_555
H10 C20 1_555 1_555
C21 C20 1_555 1_555
H11 C21 1_555 1_555
C22 C17 1_555 1_555
H12 C22 1_555 1_555
C23 C24 1_555 1_555
C24 H13 1_555 1_555
C25 C24 1_555 1_555
H14 C25 1_555 1_555
C26 C25 1_555 1_555
C27 C26 1_555 1_555
H15 C27 1_555 1_555
C28 C23 1_555 1_555
H16 C28 1_555 1_555
C29 C26 1_555 1_555
H17 C29 1_555 1_555
H18 C29 1_555 1_555
H19 C29 1_555 1_555
F2 B1 1_555 1_555
N1 B1 1_555 1_555
N2 B1 1_555 1_555
S1 C1 1_555 1_555
S2 C16 1_555 1_555
C5 C6 1_555 1_555
C8 N1 1_555 1_555
C8 S1 1_555 1_555
C11 N1 1_555 1_555
C13 N2 1_555 1_555
C21 C22 1_555 1_555
C23 S2 1_555 1_555
C27 C28 1_555 1_555

#END
