
#######################################################################
#
#                 Cambridge Crystallographic Data Centre
#                                CCDC 
#
#######################################################################
#
# If this CIF has been generated from an entry in the Cambridge 
# Structural Database, then it will include bibliographic, chemical, 
# crystal, experimental, refinement or atomic coordinate data resulting 
# from the CCDC's data processing and validation procedures.
#
#######################################################################

data_TAMRUX
_chemical_formula_moiety         'C22 H17 Cl1 O4'
_chemical_name_systematic        
7-(3-chlorophenyl)-7,7a,9,10,11,11a-hexahydro-6H,8H-chromeno[4,3-b]chromene-6,8-dione
_symmetry_cell_setting           orthorhombic
_symmetry_space_group_name_H-M   'P 21 21 21'
_symmetry_Int_Tables_number      19
_space_group_name_Hall           'P 2ac 2ab'
loop_
_symmetry_equiv_pos_site_id
_symmetry_equiv_pos_as_xyz
1 x,y,z
2 1/2-x,-y,1/2+z
3 1/2+x,1/2-y,-z
4 -x,1/2+y,1/2-z
_cell_length_a                   9.3379(2)
_cell_length_b                   11.2530(3)
_cell_length_c                   17.0022(4)
_cell_angle_alpha                90
_cell_angle_beta                 90
_cell_angle_gamma                90
_cell_volume                     1786.58
_exptl_crystal_colour            colorless
_exptl_crystal_description       BAR
_cell_formula_units_Z            4
loop_
_atom_site_label
_atom_site_type_symbol
_atom_site_fract_x
_atom_site_fract_y
_atom_site_fract_z
Cl1 Cl 0.07831(6) 0.98160(5) 0.08708(3)
O1 O 0.33140(13) 0.85578(10) 0.42139(7)
O2 O 0.11204(13) 0.92547(11) 0.42701(8)
C1 C 0.23426(18) 0.94667(14) 0.40981(10)
C2 C 0.52926(17) 0.97882(16) 0.38130(9)
C3 C 0.47549(19) 0.87191(15) 0.40933(10)
C4 C 0.17907(17) 1.15593(14) 0.36804(9)
H1 H 0.1168 1.1563 0.4144
O3 O 0.48577(12) 1.17353(10) 0.33770(7)
C5 C 0.11894(18) 1.07308(15) 0.23202(10)
H2 H 0.2016 1.0270 0.2334
C6 C 0.42794(17) 1.07263(14) 0.36498(8)
C7 C 0.08329(18) 1.14340(14) 0.29562(9)
C8 C 0.26024(17) 1.27394(14) 0.36671(9)
H3 H 0.1953 1.3342 0.3454
C9 C 0.28619(17) 1.05748(14) 0.37864(9)
C10 C 0.67662(18) 0.98881(19) 0.36980(11)
H4 H 0.7156 1.0596 0.3513
C11 C 0.7646(2) 0.8931(2) 0.38603(13)
H5 H 0.8627 0.8992 0.3773
C12 C 0.0316(2) 1.07110(16) 0.16624(10)
C13 C 0.3900(2) 1.26772(15) 0.31249(9)
H6 H 0.3576 1.2512 0.2588
C14 C 0.5640(2) 0.77738(18) 0.42711(11)
H7 H 0.5265 0.7070 0.4470
C15 C 0.30689(19) 1.31566(16) 0.44822(10)
O4 O 0.27770(18) 1.26127(14) 0.50680(8)
C16 C 0.5226(2) 1.41668(18) 0.39489(12)
H8 H 0.5721 1.4924 0.3928
H9 H 0.5886 1.3580 0.4158
C17 C 0.4778(2) 1.38063(17) 0.31242(11)
H10 H 0.4222 1.4442 0.2890
H11 H 0.5627 1.3689 0.2804
C18 C 0.3940(2) 1.42710(17) 0.44929(12)
H12 H 0.4266 1.4426 0.5025
H13 H 0.3349 1.4935 0.4328
C19 C -0.0902(2) 1.13919(18) 0.16198(12)
H14 H -0.1462 1.1396 0.1167
C20 C 0.7089(2) 0.7893(2) 0.41478(13)
H15 H 0.7697 0.7262 0.4261
C21 C -0.0430(2) 1.20774(18) 0.29253(12)
H16 H -0.0714 1.2524 0.3359
C22 C -0.1272(2) 1.2063(2) 0.22584(14)
H17 H -0.2103 1.2517 0.2243
loop_
_geom_bond_atom_site_label_1
_geom_bond_atom_site_label_2
_geom_bond_site_symmetry_1
_geom_bond_site_symmetry_2
Cl1 C12 1_555 1_555
O1 C1 1_555 1_555
O2 C1 1_555 1_555
C1 C9 1_555 1_555
C2 C3 1_555 1_555
C3 O1 1_555 1_555
C4 H1 1_555 1_555
O3 C6 1_555 1_555
C5 H2 1_555 1_555
C6 C2 1_555 1_555
C7 C4 1_555 1_555
C8 C4 1_555 1_555
H3 C8 1_555 1_555
C9 C4 1_555 1_555
C10 C2 1_555 1_555
H4 C10 1_555 1_555
C11 C10 1_555 1_555
H5 C11 1_555 1_555
C12 C5 1_555 1_555
C13 O3 1_555 1_555
H6 C13 1_555 1_555
C14 C3 1_555 1_555
H7 C14 1_555 1_555
C15 C8 1_555 1_555
O4 C15 1_555 1_555
C16 H8 1_555 1_555
H9 C16 1_555 1_555
C17 C13 1_555 1_555
H10 C17 1_555 1_555
H11 C17 1_555 1_555
C18 C15 1_555 1_555
H12 C18 1_555 1_555
H13 C18 1_555 1_555
C19 C12 1_555 1_555
H14 C19 1_555 1_555
C20 C11 1_555 1_555
H15 C20 1_555 1_555
C21 C7 1_555 1_555
H16 C21 1_555 1_555
C22 C19 1_555 1_555
H17 C22 1_555 1_555
C5 C7 1_555 1_555
C6 C9 1_555 1_555
C8 C13 1_555 1_555
C14 C20 1_555 1_555
C16 C17 1_555 1_555
C16 C18 1_555 1_555
C21 C22 1_555 1_555

#END
