
#######################################################################
#
#                 Cambridge Crystallographic Data Centre
#                                CCDC 
#
#######################################################################
#
# If this CIF has been generated from an entry in the Cambridge 
# Structural Database, then it will include bibliographic, chemical, 
# crystal, experimental, refinement or atomic coordinate data resulting 
# from the CCDC's data processing and validation procedures.
#
#######################################################################

data_TAMRIL
_chemical_name_common            
'hexaaqua-(mu-9,9,19,19,29,29,39,39-octamethyl-1,3,5,7,11,13,15,17,21,23,25,27,31,33,35,37-hexadecaazatridecacyclo[25.13.1.1$7,21!.1$11,37!.1$17,31!.0$3,38!.0$5,10!.0$8,13!.0$15,20!.0$18,23!.0$25,30!.0$28,33!.0$35,40!]tetratetracontane-2,6,12,16,22,26,32,36-octone)-di-calcium(ii) tetrakis(chloride) octahydrate'
_chemical_formula_moiety         'C36 H60 Ca2 N16 O14 4+,8(H2 O1),4(Cl1 1-)'
_chemical_name_systematic        
'(tetrakis(2-propylene)cucurbit[4]uril)-hexaaqua-di-calcium(ii) tetrakis(chloride) octahydrate'
_symmetry_cell_setting           monoclinic
_symmetry_space_group_name_H-M   'P 21/n'
_symmetry_Int_Tables_number      14
_space_group_name_Hall           '-P 2yn'
loop_
_symmetry_equiv_pos_site_id
_symmetry_equiv_pos_as_xyz
1 x,y,z
2 1/2-x,1/2+y,1/2-z
3 -x,-y,-z
4 1/2+x,1/2-y,1/2+z
_cell_length_a                   12.207(4)
_cell_length_b                   21.254(6)
_cell_length_c                   22.602(7)
_cell_angle_alpha                90
_cell_angle_beta                 101.677(5)
_cell_angle_gamma                90
_cell_volume                     5742.67
_exptl_crystal_colour            colorless
_exptl_crystal_description       block
_cell_formula_units_Z            4
loop_
_atom_site_label
_atom_site_type_symbol
_atom_site_fract_x
_atom_site_fract_y
_atom_site_fract_z
Ca1 Ca 0.64566(10) 0.63825(6) 0.17162(6)
Ca2 Ca 0.19456(10) 0.87277(6) -0.05209(6)
N1 N 0.6690(4) 0.7513(2) 0.0178(2)
N2 N 0.6729(4) 0.8207(2) 0.0993(2)
N3 N 0.5454(4) 0.8913(2) 0.0341(2)
N4 N 0.5394(4) 0.8210(2) -0.0464(2)
N5 N 0.5652(4) 0.8334(2) 0.1801(2)
N6 N 0.4147(4) 0.7799(2) 0.2070(2)
N7 N 0.2856(4) 0.8491(2) 0.1417(2)
N8 N 0.4364(4) 0.9029(2) 0.1146(2)
N9 N 0.2978(4) 0.6902(2) 0.1669(2)
N10 N 0.2911(4) 0.6207(2) 0.0855(2)
N11 N 0.1604(4) 0.6898(2) 0.0206(2)
N12 N 0.1672(4) 0.7589(2) 0.1018(2)
N13 N 0.4025(4) 0.6083(2) 0.0068(2)
N14 N 0.5532(4) 0.6604(2) -0.0209(2)
N15 N 0.4220(4) 0.7305(2) -0.0856(2)
N16 N 0.2713(4) 0.6776(2) -0.0581(2)
O1 O 0.7053(4) 0.71652(19) 0.1150(2)
O2 O 0.3912(4) 0.8838(2) -0.0404(2)
O3 O 0.5806(3) 0.73090(19) 0.2082(2)
O4 O 0.2686(3) 0.8958(2) 0.0501(2)
O5 O 0.4481(4) 0.6299(2) 0.1581(2)
O6 O 0.1308(4) 0.79374(19) 0.0049(2)
O7 O 0.5724(4) 0.6106(2) 0.0694(2)
O8 O 0.2572(4) 0.77986(19) -0.0879(2)
C1 C 0.6825(5) 0.7607(3) 0.0785(3)
C2 C 0.6614(5) 0.8748(3) 0.0582(3)
H1 H 0.6982 0.9110 0.0806
C3 C 0.4858(5) 0.8656(3) -0.0182(3)
C4 C 0.6563(5) 0.8039(3) -0.0246(3)
H2 H 0.6887 0.7920 -0.0593
C5 C 0.6755(5) 0.8309(3) 0.1631(3)
H3 H 0.7144 0.8701 0.1751
H4 H 0.7187 0.7973 0.1859
C6 C 0.4861(5) 0.9340(3) 0.0685(3)
H5 H 0.5383 0.9657 0.0879
H6 H 0.4273 0.9553 0.0404
C7 C 0.5232(5) 0.7791(3) 0.1984(3)
C8 C 0.3493(5) 0.8384(3) 0.2015(3)
H7 H 0.2973 0.8361 0.2293
C9 C 0.3271(5) 0.8828(3) 0.0992(3)
C10 C 0.5041(5) 0.8921(3) 0.1746(3)
H8 H 0.5583 0.9265 0.1837
C11 C 0.3635(5) 0.7207(3) 0.2199(3)
H9 H 0.4221 0.6922 0.2390
H10 H 0.3156 0.7288 0.2485
C12 C 0.1712(5) 0.8246(3) 0.1243(3)
H11 H 0.1289 0.8513 0.0930
H12 H 0.1357 0.8265 0.1589
C13 C 0.3499(5) 0.6460(3) 0.1373(3)
C14 C 0.1735(5) 0.6355(3) 0.0622(3)
H13 H 0.1373 0.5988 0.0404
C15 C 0.1534(5) 0.7497(3) 0.0410(3)
C16 C 0.1801(5) 0.7065(3) 0.1446(3)
H14 H 0.1477 0.7189 0.1791
C17 C 0.3496(5) 0.5766(2) 0.0528(3)
H15 H 0.2968 0.5454 0.0328
H16 H 0.4069 0.5548 0.0815
C18 C 0.1602(5) 0.6792(3) -0.0432(3)
H17 H 0.1168 0.7122 -0.0666
H18 H 0.1229 0.6395 -0.0553
C19 C 0.5121(5) 0.6262(3) 0.0213(3)
C20 C 0.4871(5) 0.6717(3) -0.0816(3)
H19 H 0.5379 0.6741 -0.1101
C21 C 0.3147(5) 0.7316(3) -0.0777(3)
C22 C 0.3338(5) 0.6180(3) -0.0537(3)
H20 H 0.2799 0.5834 -0.0624
C23 C 0.6661(5) 0.6864(3) -0.0046(3)
H21 H 0.7002 0.6852 -0.0398
H22 H 0.7104 0.6600 0.0262
C24 C 0.4745(5) 0.7892(3) -0.0991(3)
H23 H 0.5232 0.7802 -0.1271
H24 H 0.4165 0.8176 -0.1193
C25 C 0.7203(5) 0.8608(3) 0.0066(3)
C26 C 0.7125(6) 0.9174(3) -0.0369(3)
H25 H 0.6365 0.9224 -0.0581
H26 H 0.7597 0.9101 -0.0654
H27 H 0.7364 0.9549 -0.0142
C27 C 0.8437(5) 0.8452(3) 0.0283(3)
H28 H 0.8808 0.8800 0.0512
H29 H 0.8774 0.8375 -0.0059
H30 H 0.8508 0.8084 0.0534
C28 C 0.4295(5) 0.8938(3) 0.2210(3)
C29 C 0.3613(6) 0.9558(3) 0.2188(3)
H31 H 0.4111 0.9902 0.2324
H32 H 0.3080 0.9520 0.2446
H33 H 0.3225 0.9636 0.1781
C30 C 0.4968(6) 0.8858(4) 0.2862(3)
H34 H 0.5414 0.8483 0.2887
H35 H 0.4462 0.8825 0.3135
H36 H 0.5447 0.9216 0.2969
C31 C 0.1156(5) 0.6503(3) 0.1143(3)
C32 C -0.0086(5) 0.6659(3) 0.0928(3)
H37 H -0.0380 0.6824 0.1259
H38 H -0.0488 0.6284 0.0778
H39 H -0.0170 0.6967 0.0611
C33 C 0.1250(6) 0.5931(3) 0.1582(3)
H40 H 0.2022 0.5818 0.1713
H41 H 0.0844 0.5581 0.1377
H42 H 0.0941 0.6043 0.1926
C34 C 0.4063(5) 0.6167(3) -0.0999(3)
C35 C 0.3372(6) 0.6255(3) -0.1650(3)
H43 H 0.2893 0.5898 -0.1759
H44 H 0.3870 0.6293 -0.1927
H45 H 0.2926 0.6629 -0.1667
C36 C 0.4696(6) 0.5531(3) -0.0971(3)
H46 H 0.5157 0.5478 -0.0576
H47 H 0.5157 0.5529 -0.1268
H48 H 0.4165 0.5193 -0.1051
O9 O 0.7774(5) 0.5576(3) 0.1624(3)
O10 O 0.8085(5) 0.6745(3) 0.2410(3)
O11 O 0.6077(6) 0.5676(4) 0.2433(4)
O12 O 0.0801(5) 0.9486(3) -0.0211(3)
O13 O 0.2223(5) 0.9567(3) -0.1181(3)
O14 O 0.0250(6) 0.8444(3) -0.1212(4)
Cl1 Cl 0.32951(17) 0.28244(11) 0.18757(10)
Cl2 Cl 0.91734(18) 0.92455(10) 0.17653(10)
Cl3 Cl 0.8724(2) 0.50117(13) 0.05945(13)
Cl4 Cl 0.41062(19) 0.94518(10) 0.80696(11)
O15 O 0.9245(5) 0.0170(3) 0.9010(2)
O16 O 0.3475(5) 0.5802(3) 0.3196(3)
O17 O 0.0860(4) 0.4212(3) 0.0555(2)
O18 O 0.4046(5) 0.5012(3) 0.2331(3)
O19 O 0.9488(6) 0.7763(3) 0.2137(4)
O20 O 0.1417(6) 0.6314(3) 0.3117(3)
O21 O 0.2791(6) 0.4259(3) 0.1479(4)
O22 O 0.1052(7) 0.2743(5) 0.0893(5)
loop_
_geom_bond_atom_site_label_1
_geom_bond_atom_site_label_2
_geom_bond_site_symmetry_1
_geom_bond_site_symmetry_2
Ca1 O1 1_555 1_555
Ca2 O2 1_555 1_555
N1 C1 1_555 1_555
N2 C1 1_555 1_555
N3 C2 1_555 1_555
N4 C3 1_555 1_555
N5 C5 1_555 1_555
N6 C7 1_555 1_555
N7 C8 1_555 1_555
N8 C6 1_555 1_555
N9 C11 1_555 1_555
N10 C13 1_555 1_555
N11 C14 1_555 1_555
N12 C12 1_555 1_555
N13 C17 1_555 1_555
N14 C19 1_555 1_555
N15 C20 1_555 1_555
N16 C18 1_555 1_555
O1 C1 1_555 1_555
O2 C3 1_555 1_555
O3 Ca1 1_555 1_555
O4 Ca2 1_555 1_555
O5 Ca1 1_555 1_555
O6 Ca2 1_555 1_555
O7 Ca1 1_555 1_555
O8 Ca2 1_555 1_555
C2 N2 1_555 1_555
H1 C2 1_555 1_555
C3 N3 1_555 1_555
C4 N1 1_555 1_555
H2 C4 1_555 1_555
C5 N2 1_555 1_555
H3 C5 1_555 1_555
H4 C5 1_555 1_555
C6 N3 1_555 1_555
H5 C6 1_555 1_555
H6 C6 1_555 1_555
C7 N5 1_555 1_555
C8 N6 1_555 1_555
H7 C8 1_555 1_555
C9 N7 1_555 1_555
C10 N5 1_555 1_555
H8 C10 1_555 1_555
C11 N6 1_555 1_555
H9 C11 1_555 1_555
H10 C11 1_555 1_555
C12 N7 1_555 1_555
H11 C12 1_555 1_555
H12 C12 1_555 1_555
C13 N9 1_555 1_555
C14 N10 1_555 1_555
H13 C14 1_555 1_555
C15 N11 1_555 1_555
C16 N9 1_555 1_555
H14 C16 1_555 1_555
C17 N10 1_555 1_555
H15 C17 1_555 1_555
H16 C17 1_555 1_555
C18 N11 1_555 1_555
H17 C18 1_555 1_555
H18 C18 1_555 1_555
C19 N13 1_555 1_555
C20 N14 1_555 1_555
H19 C20 1_555 1_555
C21 N15 1_555 1_555
C22 N13 1_555 1_555
H20 C22 1_555 1_555
C23 N1 1_555 1_555
H21 C23 1_555 1_555
H22 C23 1_555 1_555
C24 N4 1_555 1_555
H23 C24 1_555 1_555
H24 C24 1_555 1_555
C25 C2 1_555 1_555
C26 C25 1_555 1_555
H25 C26 1_555 1_555
H26 C26 1_555 1_555
H27 C26 1_555 1_555
C27 C25 1_555 1_555
H28 C27 1_555 1_555
H29 C27 1_555 1_555
H30 C27 1_555 1_555
C28 C8 1_555 1_555
C29 C28 1_555 1_555
H31 C29 1_555 1_555
H32 C29 1_555 1_555
H33 C29 1_555 1_555
C30 C28 1_555 1_555
H34 C30 1_555 1_555
H35 C30 1_555 1_555
H36 C30 1_555 1_555
C31 C14 1_555 1_555
C32 C31 1_555 1_555
H37 C32 1_555 1_555
H38 C32 1_555 1_555
H39 C32 1_555 1_555
C33 C31 1_555 1_555
H40 C33 1_555 1_555
H41 C33 1_555 1_555
H42 C33 1_555 1_555
C34 C20 1_555 1_555
C35 C34 1_555 1_555
H43 C35 1_555 1_555
H44 C35 1_555 1_555
H45 C35 1_555 1_555
C36 C34 1_555 1_555
H46 C36 1_555 1_555
H47 C36 1_555 1_555
H48 C36 1_555 1_555
O9 Ca1 1_555 1_555
O10 Ca1 1_555 1_555
O11 Ca1 1_555 1_555
O12 Ca2 1_555 1_555
O13 Ca2 1_555 1_555
O14 Ca2 1_555 1_555
N4 C4 1_555 1_555
N8 C9 1_555 1_555
N8 C10 1_555 1_555
N12 C15 1_555 1_555
N12 C16 1_555 1_555
N14 C23 1_555 1_555
N15 C24 1_555 1_555
N16 C21 1_555 1_555
N16 C22 1_555 1_555
O3 C7 1_555 1_555
O4 C9 1_555 1_555
O5 C13 1_555 1_555
O6 C15 1_555 1_555
O7 C19 1_555 1_555
O8 C21 1_555 1_555
C4 C25 1_555 1_555
C10 C28 1_555 1_555
C16 C31 1_555 1_555
C22 C34 1_555 1_555

#END
