
#######################################################################
#
#                 Cambridge Crystallographic Data Centre
#                                CCDC 
#
#######################################################################
#
# If this CIF has been generated from an entry in the Cambridge 
# Structural Database, then it will include bibliographic, chemical, 
# crystal, experimental, refinement or atomic coordinate data resulting 
# from the CCDC's data processing and validation procedures.
#
#######################################################################

data_TAMSIK
_chemical_formula_moiety         'C16 H17 Cl2 N5 O4'
_chemical_name_systematic        
N-(1-(3,4-Dichlorophenyl)-4,5-dioxoimidazolidin-2-ylidene)-N'-isopropyl-N''-(ethoxycarbonyl)guanidine
_symmetry_cell_setting           triclinic
_symmetry_space_group_name_H-M   'P -1'
_symmetry_Int_Tables_number      2
_space_group_name_Hall           '-P 1'
loop_
_symmetry_equiv_pos_site_id
_symmetry_equiv_pos_as_xyz
1 x,y,z
2 -x,-y,-z
_cell_length_a                   7.924(2)
_cell_length_b                   9.704(2)
_cell_length_c                   13.375(2)
_cell_angle_alpha                102.900(10)
_cell_angle_beta                 96.180(10)
_cell_angle_gamma                97.39(2)
_cell_volume                     984.237
_exptl_crystal_colour            colorless
_exptl_crystal_description       plate
_chemical_melting_point          257deg.C
_cell_formula_units_Z            2
loop_
_atom_site_label
_atom_site_type_symbol
_atom_site_fract_x
_atom_site_fract_y
_atom_site_fract_z
C1 C 1.1672(12) 0.5142(11) 0.3848(7)
C2 C 1.1532(11) 0.3663(10) 0.3648(6)
C3 C 1.0991(10) 0.2814(9) 0.2655(6)
H1 H 1.0983 0.1799 0.2514
C4 C 1.0434(10) 0.3447(8) 0.1873(6)
C5 C 1.0525(11) 0.4933(9) 0.2083(7)
H2 H 1.0187 0.5381 0.1538
C6 C 1.1099(12) 0.5741(10) 0.3063(7)
H3 H 1.1124 0.6758 0.3209
N1 N 0.9856(8) 0.2608(7) 0.0851(5)
C7 C 0.8631(10) 0.1359(8) 0.0560(6)
N2 N 0.8389(8) 0.0786(7) -0.0466(5)
C8 C 0.9380(11) 0.1687(8) -0.0889(6)
C9 C 1.0378(11) 0.2927(9) -0.0035(6)
N3 N 0.7919(8) 0.0923(6) 0.1298(5)
C10 C 0.6762(10) -0.0286(8) 0.1104(6)
N4 N 0.6342(10) -0.1186(7) 0.0116(5)
H4 H 0.698(8) -0.088(7) -0.020(4)
C11 C 0.5305(11) -0.2460(9) -0.0158(8)
O1 O 0.5258(7) -0.3025(6) -0.1154(4)
C12 C 0.4254(13) -0.4418(10) -0.1547(9)
H5 H 0.3099 -0.4374 -0.1400
H6 H 0.4708 -0.5096 -0.1212
C13 C 0.4252(18) -0.4934(16) -0.2563(9)
H7 H 0.3560 -0.5860 -0.2822
H8 H 0.3784 -0.4258 -0.2895
H9 H 0.5406 -0.4986 -0.2706
Cl1 Cl 1.2158(4) 0.2847(3) 0.46210(18)
Cl2 Cl 1.2391(4) 0.6207(3) 0.5064(2)
O2 O 1.1409(8) 0.3887(7) -0.0108(4)
O3 O 0.9477(9) 0.1543(7) -0.1813(5)
N5 N 0.6038(11) -0.0658(8) 0.1847(6)
H10 H 0.538(10) -0.142(9) 0.176(6)
C14 C 0.6365(13) 0.0169(10) 0.2926(7)
H11 H 0.6812 0.1135 0.2922
C15 C 0.758(2) -0.0400(16) 0.3541(8)
H12 H 0.8624 -0.0362 0.3243
H13 H 0.7790 0.0168 0.4242
H14 H 0.7150 -0.1374 0.3536
O4 O 0.4458(8) -0.2977(6) 0.0404(5)
C16 C 0.4742(18) 0.0198(19) 0.3351(10)
H15 H 0.4916 0.0750 0.4056
H16 H 0.3973 0.0604 0.2936
H17 H 0.4255 -0.0771 0.3323
loop_
_geom_bond_atom_site_label_1
_geom_bond_atom_site_label_2
_geom_bond_site_symmetry_1
_geom_bond_site_symmetry_2
C1 C2 1_555 1_555
C2 C3 1_555 1_555
C3 H1 1_555 1_555
C4 C3 1_555 1_555
C5 C4 1_555 1_555
H2 C5 1_555 1_555
C6 C1 1_555 1_555
H3 C6 1_555 1_555
N1 C4 1_555 1_555
C7 N1 1_555 1_555
N2 C7 1_555 1_555
C8 N2 1_555 1_555
C9 N1 1_555 1_555
N3 C7 1_555 1_555
C10 N3 1_555 1_555
N4 C10 1_555 1_555
H4 N4 1_555 1_555
C11 N4 1_555 1_555
O1 C11 1_555 1_555
C12 O1 1_555 1_555
H5 C12 1_555 1_555
H6 C12 1_555 1_555
C13 C12 1_555 1_555
H7 C13 1_555 1_555
H8 C13 1_555 1_555
H9 C13 1_555 1_555
Cl1 C2 1_555 1_555
Cl2 C1 1_555 1_555
O2 C9 1_555 1_555
O3 C8 1_555 1_555
N5 C10 1_555 1_555
H10 N5 1_555 1_555
C14 N5 1_555 1_555
H11 C14 1_555 1_555
C15 C14 1_555 1_555
H12 C15 1_555 1_555
H13 C15 1_555 1_555
H14 C15 1_555 1_555
O4 C11 1_555 1_555
C16 C14 1_555 1_555
H15 C16 1_555 1_555
H16 C16 1_555 1_555
H17 C16 1_555 1_555
C5 C6 1_555 1_555
C8 C9 1_555 1_555

#END
