
#######################################################################
#
#                 Cambridge Crystallographic Data Centre
#                                CCDC 
#
#######################################################################
#
# If this CIF has been generated from an entry in the Cambridge 
# Structural Database, then it will include bibliographic, chemical, 
# crystal, experimental, refinement or atomic coordinate data resulting 
# from the CCDC's data processing and validation procedures.
#
#######################################################################

data_TAMSEG
_chemical_formula_moiety         'C16 H17 Cl2 N5 O4'
_chemical_name_systematic        
N-(3,4-Dichlorophenyl)-N'-(ethoxycarbonyl)-N''-(1-isopropyl-4,5-dioxoimidazolidin-2-ylidene)guanidine
_symmetry_cell_setting           monoclinic
_symmetry_space_group_name_H-M   'P 21/n'
_symmetry_Int_Tables_number      14
_space_group_name_Hall           '-P 2yn'
loop_
_symmetry_equiv_pos_site_id
_symmetry_equiv_pos_as_xyz
1 x,y,z
2 1/2-x,1/2+y,1/2-z
3 -x,-y,-z
4 1/2+x,1/2-y,1/2+z
_cell_length_a                   14.919(2)
_cell_length_b                   7.6130(10)
_cell_length_c                   17.504(3)
_cell_angle_alpha                90
_cell_angle_beta                 102.79(2)
_cell_angle_gamma                90
_cell_volume                     1938.75
_exptl_crystal_colour            colorless
_exptl_crystal_description       plate
_chemical_melting_point          181deg.C
_cell_formula_units_Z            4
_exptl_crystal_recrystallization_method methanol
loop_
_atom_site_label
_atom_site_type_symbol
_atom_site_fract_x
_atom_site_fract_y
_atom_site_fract_z
C1 C 0.4878(3) 0.1475(7) 0.1920(3)
C2 C 0.4127(4) 0.1902(7) 0.1352(3)
C3 C 0.3242(4) 0.1796(7) 0.1489(3)
H1 H 0.2713 0.2136 0.1096
C4 C 0.3150(3) 0.1186(6) 0.2211(3)
C5 C 0.3894(3) 0.0709(7) 0.2778(3)
H2 H 0.3808 0.0263 0.3270
C6 C 0.4778(3) 0.0868(8) 0.2640(3)
H3 H 0.5307 0.0563 0.3039
N1 N 0.2248(3) 0.1077(6) 0.2383(2)
H4 H 0.218(4) 0.161(8) 0.280(3)
C7 C 0.1543(3) 0.0255(7) 0.1931(3)
N2 N 0.1694(3) -0.0614(5) 0.1318(2)
C8 C 0.1013(3) -0.1331(7) 0.0796(3)
N3 N 0.1257(3) -0.2183(6) 0.0161(3)
C9 C 0.0459(4) -0.2797(7) -0.0314(3)
C10 C -0.0288(4) -0.2257(7) 0.0117(3)
N4 N 0.0111(3) -0.1367(6) 0.0779(2)
N5 N 0.0700(3) 0.0354(6) 0.2118(2)
H5 H 0.025(3) -0.024(6) 0.175(3)
C11 C 0.0518(3) 0.1146(7) 0.2773(3)
O1 O -0.0384(2) 0.0994(5) 0.2737(2)
C12 C -0.0703(4) 0.1701(9) 0.3408(3)
H6 H -0.0465 0.2863 0.3533
H7 H -0.0505 0.0961 0.3858
C13 C -0.1729(4) 0.1747(11) 0.3171(5)
H8 H -0.1982 0.2199 0.3590
H9 H -0.1911 0.2486 0.2718
H10 H -0.1952 0.0577 0.3044
Cl1 Cl 0.59830(10) 0.1662(2) 0.17651(11)
Cl2 Cl 0.42506(12) 0.2580(3) 0.04358(9)
C14 C 0.2176(4) -0.2127(8) -0.0023(3)
H11 H 0.2592 -0.1674 0.0433
C15 C 0.2196(5) -0.0871(12) -0.0671(5)
H12 H 0.1987 0.0258 -0.0540
H13 H 0.2808 -0.0765 -0.0756
H14 H 0.1794 -0.1299 -0.1140
C16 C 0.2498(6) -0.3907(11) -0.0175(6)
H15 H 0.2481 -0.4636 0.0269
H16 H 0.2101 -0.4391 -0.0634
H17 H 0.3116 -0.3857 -0.0250
O2 O 0.0362(4) -0.3524(7) -0.0932(3)
O3 O -0.1103(3) -0.2607(6) -0.0127(3)
O4 O 0.1071(3) 0.1830(5) 0.3287(2)
loop_
_geom_bond_atom_site_label_1
_geom_bond_atom_site_label_2
_geom_bond_site_symmetry_1
_geom_bond_site_symmetry_2
C1 C2 1_555 1_555
C2 C3 1_555 1_555
C3 H1 1_555 1_555
C4 C3 1_555 1_555
C5 C4 1_555 1_555
H2 C5 1_555 1_555
C6 C1 1_555 1_555
H3 C6 1_555 1_555
N1 C4 1_555 1_555
H4 N1 1_555 1_555
C7 N1 1_555 1_555
N2 C7 1_555 1_555
C8 N2 1_555 1_555
N3 C8 1_555 1_555
C9 N3 1_555 1_555
C10 C9 1_555 1_555
N4 C8 1_555 1_555
N5 C7 1_555 1_555
H5 N5 1_555 1_555
C11 N5 1_555 1_555
O1 C11 1_555 1_555
C12 O1 1_555 1_555
H6 C12 1_555 1_555
H7 C12 1_555 1_555
C13 C12 1_555 1_555
H8 C13 1_555 1_555
H9 C13 1_555 1_555
H10 C13 1_555 1_555
Cl1 C1 1_555 1_555
Cl2 C2 1_555 1_555
C14 N3 1_555 1_555
H11 C14 1_555 1_555
C15 C14 1_555 1_555
H12 C15 1_555 1_555
H13 C15 1_555 1_555
H14 C15 1_555 1_555
C16 C14 1_555 1_555
H15 C16 1_555 1_555
H16 C16 1_555 1_555
H17 C16 1_555 1_555
O2 C9 1_555 1_555
O3 C10 1_555 1_555
O4 C11 1_555 1_555
C5 C6 1_555 1_555
C10 N4 1_555 1_555

#END
