
#######################################################################
#
#                 Cambridge Crystallographic Data Centre
#                                CCDC 
#
#######################################################################
#
# If this CIF has been generated from an entry in the Cambridge 
# Structural Database, then it will include bibliographic, chemical, 
# crystal, experimental, refinement or atomic coordinate data resulting 
# from the CCDC's data processing and validation procedures.
#
#######################################################################

data_TAMSAE
_chemical_name_common            
'9,9,19,19,29,29,39,39-octamethyl-1,3,5,7,11,13,15,17,21,23,25,27,31,33,35,37-hexadecaazatridecacyclo[25.13.1.1$7,21!.1$11,37!.1$17,31!.0$3,38!.0$5,10!.0$8,13!.0$15,20!.0$18,23!.0$25,30!.0$28,33!.0$35,40!]tetratetracontane-2,6,12,16,22,26,32,36-octone octahydrate'
_chemical_formula_moiety         'C36 H48 N16 O8,8(H2 O1)'
_chemical_name_systematic        
'tetrakis(2-propylene)cucurbit[4]uril octahydrate'
_symmetry_cell_setting           monoclinic
_symmetry_space_group_name_H-M   'C 2/m'
_symmetry_Int_Tables_number      12
_space_group_name_Hall           '-C 2y'
loop_
_symmetry_equiv_pos_site_id
_symmetry_equiv_pos_as_xyz
1 x,y,z
2 -x,y,-z
3 1/2+x,1/2+y,z
4 1/2-x,1/2+y,-z
5 -x,-y,-z
6 x,-y,z
7 1/2-x,1/2-y,-z
8 1/2+x,1/2-y,z
_cell_length_a                   10.972(2)
_cell_length_b                   18.773(4)
_cell_length_c                   11.281(4)
_cell_angle_alpha                90
_cell_angle_beta                 102.904(3)
_cell_angle_gamma                90
_cell_volume                     2264.95
_exptl_crystal_colour            colorless
_exptl_crystal_description       block
_cell_formula_units_Z            2
loop_
_atom_site_label
_atom_site_type_symbol
_atom_site_fract_x
_atom_site_fract_y
_atom_site_fract_z
N1 N 0.1582(2) 0.34396(14) 0.5686(2)
N2 N -0.0353(2) 0.34405(15) 0.6422(2)
N3 N 0.0459(2) 0.43485(14) 0.7798(2)
N4 N 0.2391(3) 0.43504(14) 0.7059(2)
C1 C 0.0894(3) 0.31403(17) 0.6534(3)
H1 H 0.0808 0.2626 0.6386
C2 C 0.1724(3) 0.40663(17) 0.7936(3)
H2 H 0.2201 0.4190 0.8752
O1 O -0.1639(2) 0.41811(17) 0.7179(3)
C3 C 0.0272(4) 0.5000 0.8447(4)
H3 H 0.0848 0.5000 0.9236
H4 H -0.0570 0.5000 0.8583
C4 C 0.2395(3) 0.40040(18) 0.5986(3)
C5 C 0.3127(4) 0.5000 0.7346(4)
H5 H 0.3522 0.5000 0.8206
H6 H 0.3785 0.5000 0.6897
C6 C -0.0582(3) 0.40058(18) 0.7132(3)
C7 C 0.1400(3) 0.31429(18) 0.4461(3)
H7 H 0.2157 0.3218 0.4170
H8 H 0.1277 0.2633 0.4507
C8 C 0.1661(3) 0.32563(17) 0.7841(3)
O2 O 0.3121(3) 0.41735(18) 0.5345(3)
C9 C 0.2962(3) 0.2922(2) 0.8029(3)
H9 H 0.3390 0.3116 0.7448
H10 H 0.2882 0.2415 0.7921
H11 H 0.3429 0.3024 0.8837
C10 C 0.1016(4) 0.2936(2) 0.8790(3)
H12 H 0.1499 0.3040 0.9591
H13 H 0.0950 0.2429 0.8681
H14 H 0.0195 0.3137 0.8693
N1A N -0.1582(2) 0.34396(14) 0.4314(2)
N2A N 0.0353(2) 0.34405(15) 0.3578(2)
N3A N -0.0459(2) 0.43485(14) 0.2202(2)
N4A N -0.2391(3) 0.43504(14) 0.2941(2)
C1A C -0.0894(3) 0.31403(17) 0.3466(3)
H1A H -0.0808 0.2626 0.3614
C2A C -0.1724(3) 0.40663(17) 0.2064(3)
H2A H -0.2201 0.4190 0.1248
O1A O 0.1639(2) 0.41811(17) 0.2821(3)
C3A C -0.0272(4) 0.5000 0.1553(4)
H3A H -0.0848 0.5000 0.0764
H4A H 0.0570 0.5000 0.1417
C4A C -0.2395(3) 0.40040(18) 0.4014(3)
C5A C -0.3127(4) 0.5000 0.2654(4)
H5A H -0.3522 0.5000 0.1794
H6A H -0.3785 0.5000 0.3103
C6A C 0.0582(3) 0.40058(18) 0.2868(3)
C7A C -0.1400(3) 0.31429(18) 0.5539(3)
H7A H -0.2157 0.3218 0.5830
H8A H -0.1277 0.2633 0.5493
C8A C -0.1661(3) 0.32563(17) 0.2159(3)
O2A O -0.3121(3) 0.41735(18) 0.4655(3)
C9A C -0.2962(3) 0.2922(2) 0.1971(3)
H9A H -0.3390 0.3116 0.2552
H10A H -0.2882 0.2415 0.2079
H11A H -0.3429 0.3024 0.1163
C10A C -0.1016(4) 0.2936(2) 0.1210(3)
H12A H -0.1499 0.3040 0.0409
H13A H -0.0950 0.2429 0.1319
H14A H -0.0195 0.3137 0.1307
N1D N -0.1582(2) 0.65604(14) 0.4314(2)
N2D N 0.0353(2) 0.65595(15) 0.3578(2)
N3D N -0.0459(2) 0.56515(14) 0.2202(2)
N4D N -0.2391(3) 0.56496(14) 0.2941(2)
C1D C -0.0894(3) 0.68597(17) 0.3466(3)
H1D H -0.0808 0.7374 0.3614
C2D C -0.1724(3) 0.59337(17) 0.2064(3)
H2D H -0.2201 0.5810 0.1248
O1D O 0.1639(2) 0.58189(17) 0.2821(3)
C4D C -0.2395(3) 0.59960(18) 0.4014(3)
C6D C 0.0582(3) 0.59942(18) 0.2868(3)
C7D C -0.1400(3) 0.68571(18) 0.5539(3)
H7D H -0.2157 0.6782 0.5830
H8D H -0.1277 0.7367 0.5493
C8D C -0.1661(3) 0.67437(17) 0.2159(3)
O2D O -0.3121(3) 0.58265(18) 0.4655(3)
C9D C -0.2962(3) 0.7078(2) 0.1971(3)
H9D H -0.3390 0.6884 0.2552
H10D H -0.2882 0.7585 0.2079
H11D H -0.3429 0.6976 0.1163
C10D C -0.1016(4) 0.7064(2) 0.1210(3)
H12D H -0.1499 0.6960 0.0409
H13D H -0.0950 0.7571 0.1319
H14D H -0.0195 0.6863 0.1307
N1E N 0.1582(2) 0.65604(14) 0.5686(2)
N2E N -0.0353(2) 0.65595(15) 0.6422(2)
N3E N 0.0459(2) 0.56515(14) 0.7798(2)
N4E N 0.2391(3) 0.56496(14) 0.7059(2)
C1E C 0.0894(3) 0.68597(17) 0.6534(3)
H1E H 0.0808 0.7374 0.6386
C2E C 0.1724(3) 0.59337(17) 0.7936(3)
H2E H 0.2201 0.5810 0.8752
O1E O -0.1639(2) 0.58189(17) 0.7179(3)
C4E C 0.2395(3) 0.59960(18) 0.5986(3)
C6E C -0.0582(3) 0.59942(18) 0.7132(3)
C7E C 0.1400(3) 0.68571(18) 0.4461(3)
H7E H 0.2157 0.6782 0.4170
H8E H 0.1277 0.7367 0.4507
C8E C 0.1661(3) 0.67437(17) 0.7841(3)
O2E O 0.3121(3) 0.58265(18) 0.5345(3)
C9E C 0.2962(3) 0.7078(2) 0.8029(3)
H9E H 0.3390 0.6884 0.7448
H10E H 0.2882 0.7585 0.7921
H11E H 0.3429 0.6976 0.8837
C10E C 0.1016(4) 0.7064(2) 0.8790(3)
H12E H 0.1499 0.6960 0.9591
H13E H 0.0950 0.7571 0.8681
H14E H 0.0195 0.6863 0.8693
O3 O 0.0936(7) 0.0842(5) 0.9349(6)
O4 O 0.0752(4) 0.1262(3) 0.6825(5)
loop_
_geom_bond_atom_site_label_1
_geom_bond_atom_site_label_2
_geom_bond_site_symmetry_1
_geom_bond_site_symmetry_2
N1 C1 1_555 1_555
N2 C1 1_555 1_555
N3 C2 1_555 1_555
N4 C2 1_555 1_555
C1 H1 1_555 1_555
C2 H2 1_555 1_555
O1 C6 1_555 1_555
C3 N3 1_555 1_555
H3 C3 1_555 1_555
H4 C3 1_555 1_555
C4 N1 1_555 1_555
C5 N4 1_555 1_555
H5 C5 1_555 1_555
H6 C5 1_555 1_555
C6 N2 1_555 1_555
C7 N1 1_555 1_555
H7 C7 1_555 1_555
H8 C7 1_555 1_555
C8 C1 1_555 1_555
O2 C4 1_555 1_555
C9 C8 1_555 1_555
H9 C9 1_555 1_555
H10 C9 1_555 1_555
H11 C9 1_555 1_555
C10 C8 1_555 1_555
H12 C10 1_555 1_555
H13 C10 1_555 1_555
H14 C10 1_555 1_555
N1A C1A 1_555 1_555
N2A C7 1_555 1_555
N3A C2A 1_555 1_555
N4A C2A 1_555 1_555
C1A N2A 1_555 1_555
H1A C1A 1_555 1_555
C2A H2A 1_555 1_555
O1A C6A 1_555 1_555
C3A N3A 1_555 1_555
H3A C3A 1_555 1_555
H4A C3A 1_555 1_555
C4A N1A 1_555 1_555
C5A N4A 1_555 1_555
H5A C5A 1_555 1_555
H6A C5A 1_555 1_555
C6A N2A 1_555 1_555
C7A N2 1_555 1_555
H7A C7A 1_555 1_555
H8A C7A 1_555 1_555
C8A C1A 1_555 1_555
O2A C4A 1_555 1_555
C9A C8A 1_555 1_555
H9A C9A 1_555 1_555
H10A C9A 1_555 1_555
H11A C9A 1_555 1_555
C10A C8A 1_555 1_555
H12A C10A 1_555 1_555
H13A C10A 1_555 1_555
H14A C10A 1_555 1_555
N1D C1D 1_555 1_555
N2D C1D 1_555 1_555
N3D C3A 1_555 1_555
N4D C5A 1_555 1_555
C1D H1D 1_555 1_555
C2D N3D 1_555 1_555
H2D C2D 1_555 1_555
O1D C6D 1_555 1_555
C4D N1D 1_555 1_555
C6D N2D 1_555 1_555
C7D N1D 1_555 1_555
H7D C7D 1_555 1_555
H8D C7D 1_555 1_555
C8D C1D 1_555 1_555
O2D C4D 1_555 1_555
C9D C8D 1_555 1_555
H9D C9D 1_555 1_555
H10D C9D 1_555 1_555
H11D C9D 1_555 1_555
C10D C8D 1_555 1_555
H12D C10D 1_555 1_555
H13D C10D 1_555 1_555
H14D C10D 1_555 1_555
N1E C1E 1_555 1_555
N2E C7D 1_555 1_555
N3E C3 1_555 1_555
N4E C5 1_555 1_555
C1E N2E 1_555 1_555
H1E C1E 1_555 1_555
C2E N3E 1_555 1_555
H2E C2E 1_555 1_555
O1E C6E 1_555 1_555
C4E N1E 1_555 1_555
C6E N2E 1_555 1_555
C7E N2D 1_555 1_555
H7E C7E 1_555 1_555
H8E C7E 1_555 1_555
C8E C1E 1_555 1_555
O2E C4E 1_555 1_555
C9E C8E 1_555 1_555
H9E C9E 1_555 1_555
H10E C9E 1_555 1_555
H11E C9E 1_555 1_555
C10E C8E 1_555 1_555
H12E C10E 1_555 1_555
H13E C10E 1_555 1_555
H14E C10E 1_555 1_555
N3 C6 1_555 1_555
N4 C4 1_555 1_555
C2 C8 1_555 1_555
N1A C7A 1_555 1_555
N3A C6A 1_555 1_555
N4A C4A 1_555 1_555
C2A C8A 1_555 1_555
N3D C6D 1_555 1_555
N4D C2D 1_555 1_555
N4D C4D 1_555 1_555
C2D C8D 1_555 1_555
N1E C7E 1_555 1_555
N3E C6E 1_555 1_555
N4E C2E 1_555 1_555
N4E C4E 1_555 1_555
C2E C8E 1_555 1_555

#END
