
#######################################################################
#
#                 Cambridge Crystallographic Data Centre
#                                CCDC 
#
#######################################################################
#
# If this CIF has been generated from an entry in the Cambridge 
# Structural Database, then it will include bibliographic, chemical, 
# crystal, experimental, refinement or atomic coordinate data resulting 
# from the CCDC's data processing and validation procedures.
#
#######################################################################

data_TAMWAH
_chemical_formula_moiety         'C16 H23 N1 O2'
_chemical_name_systematic        
3-Ethynyl-9-hydroxy-9a-(2-methylenebutyl)octahydro-5H-pyrrolo[1,2-a]azepin-5-one
_symmetry_cell_setting           monoclinic
_symmetry_space_group_name_H-M   'P 21/c'
_symmetry_Int_Tables_number      14
_space_group_name_Hall           '-P 2ybc'
loop_
_symmetry_equiv_pos_site_id
_symmetry_equiv_pos_as_xyz
1 x,y,z
2 -x,1/2+y,1/2-z
3 -x,-y,-z
4 x,1/2-y,1/2+z
_cell_length_a                   12.247(7)
_cell_length_b                   9.209(5)
_cell_length_c                   13.959(8)
_cell_angle_alpha                90
_cell_angle_beta                 114.350(7)
_cell_angle_gamma                90
_cell_volume                     1434.29
_exptl_crystal_colour            colorless
_exptl_crystal_description       block
_cell_formula_units_Z            4
loop_
_atom_site_label
_atom_site_type_symbol
_atom_site_fract_x
_atom_site_fract_y
_atom_site_fract_z
C1 C 0.7464(3) 0.2727(3) 0.8622(2)
C2 C 0.8751(3) 0.3108(3) 0.8882(2)
H1 H 0.9243 0.2257 0.9174
H2 H 0.9004 0.3855 0.9419
C3 C 0.8982(3) 0.3643(3) 0.7947(3)
H3 H 0.8348 0.4313 0.7543
H4 H 0.9730 0.4179 0.8212
C4 C 0.9048(3) 0.2464(3) 0.7218(3)
H5 H 0.9293 0.2902 0.6706
H6 H 0.9666 0.1779 0.7627
C5 C 0.7900(3) 0.1632(3) 0.6634(2)
H7 H 0.8056 0.0935 0.6174
C6 C 0.7378(2) 0.0775(3) 0.7294(2)
C7 C 0.6248(3) -0.0039(3) 0.6559(2)
H8 H 0.6275 -0.0217 0.5885
H9 H 0.6185 -0.0965 0.6864
C8 C 0.5192(3) 0.0918(3) 0.6425(2)
H10 H 0.4468 0.0349 0.6246
H11 H 0.5056 0.1644 0.5884
C9 C 0.5576(2) 0.1618(3) 0.7502(2)
H12 H 0.5230 0.2594 0.7417
C10 C 0.5191(3) 0.0769(3) 0.8200(2)
C11 C 0.4768(3) 0.0088(3) 0.8664(3)
H13 H 0.4430 -0.0456 0.9034
C12 C 0.8331(3) -0.0316(3) 0.8003(2)
H14 H 0.8568 -0.0916 0.7550
H15 H 0.9031 0.0237 0.8448
C13 C 0.8010(3) -0.1317(3) 0.8703(2)
C14 C 0.8082(3) -0.0715(3) 0.9714(2)
H16 H 0.7547 0.0114 0.9556
H17 H 0.8890 -0.0356 1.0104
C15 C 0.7782(3) -0.1720(4) 1.0426(3)
H18 H 0.6953 -0.1993 1.0089
H19 H 0.7929 -0.1233 1.1076
H20 H 0.8274 -0.2574 1.0566
C16 C 0.7751(3) -0.2701(4) 0.8441(3)
H21 H 0.7607 -0.3330 0.8897
H22 H 0.7714 -0.3042 0.7801
N1 N 0.6889(2) 0.1739(2) 0.78754(17)
O1 O 0.7013(2) 0.2625(2) 0.59707(16)
H23 H 0.6849 0.2432 0.5353
O2 O 0.69311(18) 0.3357(2) 0.90841(15)
loop_
_geom_bond_atom_site_label_1
_geom_bond_atom_site_label_2
_geom_bond_site_symmetry_1
_geom_bond_site_symmetry_2
C1 C2 1_555 1_555
C2 H1 1_555 1_555
H2 C2 1_555 1_555
C3 C2 1_555 1_555
H3 C3 1_555 1_555
H4 C3 1_555 1_555
C4 C3 1_555 1_555
H5 C4 1_555 1_555
H6 C4 1_555 1_555
C5 C4 1_555 1_555
H7 C5 1_555 1_555
C6 C5 1_555 1_555
C7 C6 1_555 1_555
H8 C7 1_555 1_555
H9 C7 1_555 1_555
C8 C7 1_555 1_555
H10 C8 1_555 1_555
H11 C8 1_555 1_555
C9 C8 1_555 1_555
H12 C9 1_555 1_555
C10 C9 1_555 1_555
C11 C10 1_555 1_555
H13 C11 1_555 1_555
C12 C6 1_555 1_555
H14 C12 1_555 1_555
H15 C12 1_555 1_555
C13 C12 1_555 1_555
C14 C13 1_555 1_555
H16 C14 1_555 1_555
H17 C14 1_555 1_555
C15 C14 1_555 1_555
H18 C15 1_555 1_555
H19 C15 1_555 1_555
H20 C15 1_555 1_555
C16 C13 1_555 1_555
H21 C16 1_555 1_555
H22 C16 1_555 1_555
N1 C1 1_555 1_555
O1 C5 1_555 1_555
H23 O1 1_555 1_555
O2 C1 1_555 1_555
C6 N1 1_555 1_555
C9 N1 1_555 1_555

#END
