
#######################################################################
#
#                 Cambridge Crystallographic Data Centre
#                                CCDC 
#
#######################################################################
#
# If this CIF has been generated from an entry in the Cambridge 
# Structural Database, then it will include bibliographic, chemical, 
# crystal, experimental, refinement or atomic coordinate data resulting 
# from the CCDC's data processing and validation procedures.
#
#######################################################################

data_TAMWEL
_chemical_formula_moiety         'C15 H19 N1 O2'
_chemical_name_systematic        
9-Methyl-3-vinyl-2,3,7,8-tetrahydro-1H-cyclopenta[b]pyrrolo[1,2-a]azepine-5,10(6H,11H)-dione
_symmetry_cell_setting           triclinic
_symmetry_space_group_name_H-M   'P -1'
_symmetry_Int_Tables_number      2
_space_group_name_Hall           '-P 1'
loop_
_symmetry_equiv_pos_site_id
_symmetry_equiv_pos_as_xyz
1 x,y,z
2 -x,-y,-z
_cell_length_a                   7.425(3)
_cell_length_b                   8.152(4)
_cell_length_c                   11.990(5)
_cell_angle_alpha                78.823(7)
_cell_angle_beta                 79.424(6)
_cell_angle_gamma                66.947(6)
_cell_volume                     650.443
_exptl_crystal_colour            colorless
_exptl_crystal_description       block
_cell_formula_units_Z            2
loop_
_atom_site_label
_atom_site_type_symbol
_atom_site_fract_x
_atom_site_fract_y
_atom_site_fract_z
C1 C 0.4455(5) 0.5889(4) 0.3646(2)
C2 C 0.2321(5) 0.6299(4) 0.3739(3)
C3 C 0.1988(4) 0.5184(4) 0.3194(2)
C4 C 0.3881(4) 0.3707(4) 0.2811(2)
C5 C 0.5475(4) 0.4434(4) 0.2880(3)
H1 H 0.6597 0.3493 0.3209
H2 H 0.5923 0.4927 0.2127
C6 C 0.0872(7) 0.7850(6) 0.4318(4)
H3 H -0.0438 0.7884 0.4330
H4 H 0.0972 0.8952 0.3908
H5 H 0.1154 0.7709 0.5089
C7 C 0.0105(5) 0.5360(5) 0.2832(3)
H6 H -0.0996 0.5969 0.3368
H7 H 0.0095 0.4179 0.2815
C8 C -0.0078(5) 0.6459(5) 0.1626(3)
H8 H -0.0854 0.6090 0.1229
H9 H -0.0792 0.7721 0.1707
C9 C 0.1896(5) 0.6258(4) 0.0886(3)
H10 H 0.1638 0.6940 0.0136
H11 H 0.2600 0.6775 0.1231
C10 C 0.3199(4) 0.4331(4) 0.0742(2)
C11 C 0.4973(5) 0.1261(4) 0.1624(3)
H12 H 0.6096 0.1083 0.1023
C12 C 0.5732(6) 0.0569(4) 0.2798(3)
H13 H 0.5779 -0.0648 0.3062
H14 H 0.7036 0.0592 0.2771
C13 C 0.4215(5) 0.1890(4) 0.3567(3)
H15 H 0.4728 0.1843 0.4265
H16 H 0.3006 0.1651 0.3762
C14 C 0.3739(6) 0.0300(5) 0.1428(3)
H17 H 0.4414 -0.0891 0.1300
C15 C 0.1808(7) 0.0920(6) 0.1411(4)
H18 H 0.1048 0.2100 0.1533
H19 H 0.1211 0.0175 0.1278
N1 N 0.3908(4) 0.3208(3) 0.1674(2)
O1 O 0.5234(4) 0.6638(4) 0.4063(2)
O2 O 0.3540(4) 0.3790(3) -0.01979(19)
loop_
_geom_bond_atom_site_label_1
_geom_bond_atom_site_label_2
_geom_bond_site_symmetry_1
_geom_bond_site_symmetry_2
C1 C2 1_555 1_555
C2 C3 1_555 1_555
C3 C4 1_555 1_555
C4 C5 1_555 1_555
C5 C1 1_555 1_555
H1 C5 1_555 1_555
H2 C5 1_555 1_555
C6 C2 1_555 1_555
H3 C6 1_555 1_555
H4 C6 1_555 1_555
H5 C6 1_555 1_555
C7 C3 1_555 1_555
H6 C7 1_555 1_555
H7 C7 1_555 1_555
C8 C7 1_555 1_555
H8 C8 1_555 1_555
H9 C8 1_555 1_555
C9 C8 1_555 1_555
H10 C9 1_555 1_555
H11 C9 1_555 1_555
C10 C9 1_555 1_555
C11 H12 1_555 1_555
C12 C11 1_555 1_555
H13 C12 1_555 1_555
H14 C12 1_555 1_555
C13 C4 1_555 1_555
H15 C13 1_555 1_555
H16 C13 1_555 1_555
C14 C11 1_555 1_555
H17 C14 1_555 1_555
C15 C14 1_555 1_555
H18 C15 1_555 1_555
H19 C15 1_555 1_555
N1 C4 1_555 1_555
O1 C1 1_555 1_555
O2 C10 1_555 1_555
C10 N1 1_555 1_555
C11 N1 1_555 1_555
C12 C13 1_555 1_555

#END
