
#######################################################################
#
#                 Cambridge Crystallographic Data Centre
#                                CCDC 
#
#######################################################################
#
# If this CIF has been generated from an entry in the Cambridge 
# Structural Database, then it will include bibliographic, chemical, 
# crystal, experimental, refinement or atomic coordinate data resulting 
# from the CCDC's data processing and validation procedures.
#
#######################################################################

data_TANCAM
_chemical_formula_moiety         'C42 H56 N2 O2 Si2'
_chemical_name_systematic        
trans-1-(p-Dimethylaminophenyl)-6-(p-nitrophenyl)-3,4-bis(2-tri-isopropylsilylethynyl)-hex-3-ene-1,5-diyne
_symmetry_cell_setting           triclinic
_symmetry_space_group_name_H-M   'P -1'
_symmetry_Int_Tables_number      2
_space_group_name_Hall           '-P 1'
loop_
_symmetry_equiv_pos_site_id
_symmetry_equiv_pos_as_xyz
1 x,y,z
2 -x,-y,-z
_cell_length_a                   8.809(13)
_cell_length_b                   15.09(2)
_cell_length_c                   16.35(2)
_cell_angle_alpha                84.19(9)
_cell_angle_beta                 79.33(10)
_cell_angle_gamma                82.77(11)
_cell_volume                     2112.03
_exptl_crystal_colour            red
_chemical_melting_point          190-191deg.C
_cell_formula_units_Z            2
loop_
_atom_site_label
_atom_site_type_symbol
_atom_site_fract_x
_atom_site_fract_y
_atom_site_fract_z
Si1 Si 0.3329(4) 0.2234(2) -0.0594(2)
C1 C 0.2697(50) 0.1280(17) -0.0794(12)
C2 C 0.5298(32) 0.2225(33) -0.1036(15)
C3 C 0.2212(47) 0.3204(22) -0.0846(12)
C4 C 0.1771(54) 0.0741(31) -0.0255(20)
C5 C 0.3422(45) 0.0635(19) -0.1284(32)
C6 C 0.5578(42) 0.2282(43) -0.1901(22)
C7 C 0.6454(31) 0.2573(29) -0.0891(23)
C8 C 0.2304(39) 0.3742(22) -0.1544(22)
C9 C 0.1111(27) 0.3772(15) -0.0409(17)
Si2 Si 0.2049(4) 0.2625(3) 0.5411(2)
C10 C 0.0111(21) 0.2528(21) 0.5872(13)
C11 C 0.3523(42) 0.1832(25) 0.5715(14)
C12 C 0.2570(53) 0.3709(17) 0.5615(14)
C13 C -0.1092(26) 0.2495(21) 0.5481(16)
C14 C -0.0329(33) 0.2157(25) 0.6735(13)
C15 C 0.4085(43) 0.1069(18) 0.5361(21)
C16 C 0.3823(49) 0.1645(27) 0.6481(21)
C17 C 0.1925(58) 0.4172(29) 0.6314(25)
C18 C 0.2389(46) 0.4484(17) 0.5123(21)
N1 N 1.1972(21) 0.0158(10) 0.3339(16)
N2 N -0.6527(13) 0.4741(7) 0.1932(8)
O1 O 1.2991(15) -0.0043(10) 0.2767(14)
O2 O 1.1959(17) 0.0043(11) 0.4121(14)
C19 C -0.5053(14) 0.4358(7) 0.2011(9)
C20 C -0.3965(15) 0.4048(7) 0.1344(8)
C21 C -0.2522(14) 0.3683(8) 0.1462(8)
C22 C -0.2025(13) 0.3630(6) 0.2208(7)
C23 C -0.3081(15) 0.3911(8) 0.2877(8)
C24 C -0.4566(15) 0.4288(7) 0.2804(8)
C25 C -0.0470(14) 0.3265(7) 0.2318(7)
C26 C 0.0770(14) 0.2942(7) 0.2438(6)
C27 C 0.2233(14) 0.2602(7) 0.2676(7)
C28 C 0.3441(14) 0.2267(7) 0.2110(7)
C29 C 0.4917(15) 0.1893(7) 0.2360(7)
C30 C 0.6118(15) 0.1613(7) 0.2529(7)
C31 C 0.7593(13) 0.1251(7) 0.2744(8)
C32 C 0.8846(18) 0.1017(9) 0.2137(8)
C33 C 1.0283(14) 0.0623(8) 0.2354(12)
C34 C 1.0378(18) 0.0551(8) 0.3166(13)
C35 C 0.9175(22) 0.0815(10) 0.3784(12)
C36 C 0.7799(15) 0.1151(8) 0.3538(9)
C37 C 0.3357(12) 0.2235(8) 0.1256(8)
C38 C 0.3316(13) 0.2228(8) 0.0515(9)
C39 C 0.2330(12) 0.2605(7) 0.3522(8)
C40 C 0.2274(12) 0.2629(8) 0.4265(7)
C41 C -0.7616(16) 0.5050(11) 0.2620(10)
C42 C -0.7023(18) 0.4778(11) 0.1115(11)
H1 H 0.2064 0.1506 -0.1205
H2 H 0.5825 0.1636 -0.0948
H3 H 0.1390 0.2902 -0.0964
H4 H 0.1612 0.0240 -0.0537
H5 H 0.2222 0.0526 0.0229
H6 H 0.0792 0.1088 -0.0088
H7 H 0.2658 0.0239 -0.1298
H8 H 0.3962 0.0769 -0.1841
H9 H 0.4150 0.0353 -0.0942
H10 H 0.6526 0.2258 -0.2301
H11 H 0.4891 0.1905 -0.2053
H12 H 0.5090 0.2887 -0.1894
H13 H 0.7555 0.2490 -0.1087
H14 H 0.6009 0.3102 -0.1176
H15 H 0.6259 0.2639 -0.0301
H16 H 0.1368 0.4134 -0.1584
H17 H 0.3083 0.4081 -0.1430
H18 H 0.2669 0.3472 -0.2061
H19 H 0.0316 0.4038 -0.0716
H20 H 0.0659 0.3656 0.0167
H21 H 0.1889 0.4174 -0.0453
H22 H 0.0290 0.1905 0.5769
H23 H 0.4491 0.2059 0.5476
H24 H 0.3643 0.3795 0.5578
H25 H -0.1953 0.2288 0.5872
H26 H -0.1295 0.3129 0.5351
H27 H -0.0956 0.2192 0.4980
H28 H -0.1394 0.2033 0.6862
H29 H 0.0318 0.1655 0.6940
H30 H -0.0220 0.2681 0.6998
H31 H 0.4927 0.0602 0.5388
H32 H 0.3227 0.0944 0.5795
H33 H 0.3766 0.1096 0.4827
H34 H 0.4703 0.1334 0.6696
H35 H 0.3368 0.2125 0.6823
H36 H 0.3068 0.1237 0.6488
H37 H 0.2050 0.4737 0.6500
H38 H 0.1044 0.4240 0.6035
H39 H 0.1761 0.3740 0.6786
H40 H 0.2585 0.5096 0.5121
H41 H 0.2240 0.4371 0.4578
H42 H 0.1471 0.4376 0.5522
H43 H -0.4267 0.4094 0.0805
H44 H -0.1839 0.3461 0.0980
H45 H -0.2793 0.3845 0.3420
H46 H -0.5281 0.4498 0.3280
H47 H 0.8762 0.1120 0.1557
H48 H 1.1119 0.0400 0.1936
H49 H 0.9300 0.0737 0.4359
H50 H 0.6962 0.1346 0.3968
H51 H -0.7151 0.4986 0.3113
H52 H -0.7948 0.5672 0.2493
H53 H -0.8497 0.4714 0.2715
H54 H -0.8070 0.5065 0.1199
H55 H -0.6385 0.5127 0.0695
H56 H -0.7007 0.4190 0.0938
loop_
_geom_bond_atom_site_label_1
_geom_bond_atom_site_label_2
_geom_bond_site_symmetry_1
_geom_bond_site_symmetry_2
Si1 C1 1_555 1_555
C1 C4 1_555 1_555
C2 Si1 1_555 1_555
C3 Si1 1_555 1_555
C4 H4 1_555 1_555
C5 C1 1_555 1_555
C6 C2 1_555 1_555
C7 C2 1_555 1_555
C8 C3 1_555 1_555
C9 C3 1_555 1_555
Si2 C10 1_555 1_555
C10 C13 1_555 1_555
C11 Si2 1_555 1_555
C12 Si2 1_555 1_555
C13 H25 1_555 1_555
C14 C10 1_555 1_555
C15 C11 1_555 1_555
C16 C11 1_555 1_555
C17 C12 1_555 1_555
C18 C12 1_555 1_555
N1 O1 1_555 1_555
N2 C19 1_555 1_555
O2 N1 1_555 1_555
C19 C20 1_555 1_555
C20 C21 1_555 1_555
C21 C22 1_555 1_555
C22 C23 1_555 1_555
C23 C24 1_555 1_555
C24 C19 1_555 1_555
C25 C22 1_555 1_555
C26 C25 1_555 1_555
C27 C26 1_555 1_555
C28 C27 1_555 1_555
C29 C28 1_555 1_555
C30 C29 1_555 1_555
C31 C30 1_555 1_555
C32 C31 1_555 1_555
C33 C32 1_555 1_555
C34 N1 1_555 1_555
C35 C34 1_555 1_555
C36 C31 1_555 1_555
C37 C28 1_555 1_555
C38 Si1 1_555 1_555
C39 C27 1_555 1_555
C40 Si2 1_555 1_555
C41 N2 1_555 1_555
C42 N2 1_555 1_555
H1 C1 1_555 1_555
H2 C2 1_555 1_555
H3 C3 1_555 1_555
H5 C4 1_555 1_555
H6 C4 1_555 1_555
H7 C5 1_555 1_555
H8 C5 1_555 1_555
H9 C5 1_555 1_555
H10 C6 1_555 1_555
H11 C6 1_555 1_555
H12 C6 1_555 1_555
H13 C7 1_555 1_555
H14 C7 1_555 1_555
H15 C7 1_555 1_555
H16 C8 1_555 1_555
H17 C8 1_555 1_555
H18 C8 1_555 1_555
H19 C9 1_555 1_555
H20 C9 1_555 1_555
H21 C9 1_555 1_555
H22 C10 1_555 1_555
H23 C11 1_555 1_555
H24 C12 1_555 1_555
H26 C13 1_555 1_555
H27 C13 1_555 1_555
H28 C14 1_555 1_555
H29 C14 1_555 1_555
H30 C14 1_555 1_555
H31 C15 1_555 1_555
H32 C15 1_555 1_555
H33 C15 1_555 1_555
H34 C16 1_555 1_555
H35 C16 1_555 1_555
H36 C16 1_555 1_555
H37 C17 1_555 1_555
H38 C17 1_555 1_555
H39 C17 1_555 1_555
H40 C18 1_555 1_555
H41 C18 1_555 1_555
H42 C18 1_555 1_555
H43 C20 1_555 1_555
H44 C21 1_555 1_555
H45 C23 1_555 1_555
H46 C24 1_555 1_555
H47 C32 1_555 1_555
H48 C33 1_555 1_555
H49 C35 1_555 1_555
H50 C36 1_555 1_555
H51 C41 1_555 1_555
H52 C41 1_555 1_555
H53 C41 1_555 1_555
H54 C42 1_555 1_555
H55 C42 1_555 1_555
H56 C42 1_555 1_555
C33 C34 1_555 1_555
C35 C36 1_555 1_555
C37 C38 1_555 1_555
C39 C40 1_555 1_555

#END
