
#######################################################################
#
#                 Cambridge Crystallographic Data Centre
#                                CCDC 
#
#######################################################################
#
# If this CIF has been generated from an entry in the Cambridge 
# Structural Database, then it will include bibliographic, chemical, 
# crystal, experimental, refinement or atomic coordinate data resulting 
# from the CCDC's data processing and validation procedures.
#
#######################################################################

data_TANCAO
_chemical_formula_moiety         'C4 H9 N1 O2,1.5(H2 O2)'
_chemical_name_systematic        '2-aminobutyric acid hydrogen peroxide solvate'
_symmetry_cell_setting           triclinic
_symmetry_space_group_name_H-M   'P -1'
_symmetry_Int_Tables_number      2
_space_group_name_Hall           '-P 1'
loop_
_symmetry_equiv_pos_site_id
_symmetry_equiv_pos_as_xyz
1 x,y,z
2 -x,-y,-z
_cell_length_a                   8.0479(14)
_cell_length_b                   9.6064(17)
_cell_length_c                   9.7464(17)
_cell_angle_alpha                81.813(3)
_cell_angle_beta                 81.415(2)
_cell_angle_gamma                88.676(3)
_cell_volume                     737.47
_exptl_crystal_colour            colorless
_exptl_crystal_description       block
_cell_formula_units_Z            4
loop_
_atom_site_label
_atom_site_type_symbol
_atom_site_fract_x
_atom_site_fract_y
_atom_site_fract_z
O1 O 0.24748(11) 0.40385(10) 0.90137(9)
O2 O 0.26801(12) 0.43121(10) 0.74814(9)
H13 H 0.342(3) 0.364(2) 0.912(2)
H14 H 0.173(2) 0.3928(19) 0.7379(19)
O3 O 0.38402(11) 0.24960(10) 0.50232(9)
O4 O 0.45927(11) 0.35655(9) 0.38879(9)
H15 H 0.278(2) 0.2789(18) 0.5119(18)
H16 H 0.457(2) 0.317(2) 0.313(2)
O5 O 0.11510(12) 0.24548(9) 0.17886(9)
O6 O 0.09043(12) 0.39197(9) 0.20486(10)
H17 H 0.224(2) 0.2477(18) 0.1582(18)
H18 H 0.081(2) 0.3784(18) 0.301(2)
N1 N 0.64366(13) 0.35033(12) 0.63270(11)
O7 O 0.95753(11) 0.33642(9) 0.70905(9)
O8 O 1.08226(10) 0.34932(10) 0.48742(9)
C1 C 0.95512(14) 0.33690(12) 0.58102(12)
C2 C 0.78928(14) 0.31311(12) 0.52976(12)
H1 H 0.7865 0.3758 0.4389
C3 C 0.77964(16) 0.16026(13) 0.50356(13)
H2 H 0.6709 0.1461 0.4717
H3 H 0.8700 0.1439 0.4267
C4 C 0.7960(2) 0.05103(14) 0.63073(16)
H4 H 0.7862 -0.0435 0.6059
H5 H 0.7066 0.0656 0.7075
H6 H 0.9057 0.0608 0.6605
H19 H 0.6313(19) 0.4484(18) 0.6274(16)
H20 H 0.6502(19) 0.3166(16) 0.7221(17)
H21 H 0.546(2) 0.3188(18) 0.6143(17)
N2 N 0.86606(13) 0.33972(12) 0.00153(11)
O9 O 0.45150(11) 0.24676(10) 0.15381(9)
O10 O 0.55606(10) 0.29757(10) -0.07233(9)
C5 C 0.57038(14) 0.26394(12) 0.05425(12)
C6 C 0.74790(14) 0.23550(12) 0.09110(12)
H7 H 0.7477 0.2462 0.1917
C7 C 0.80658(16) 0.08701(13) 0.06807(15)
H8 H 0.8050 0.0763 -0.0313
H9 H 0.9242 0.0749 0.0863
C8 C 0.6994(2) -0.02804(16) 0.1608(2)
H10 H 0.7489 -0.1201 0.1467
H11 H 0.5855 -0.0232 0.1363
H12 H 0.6949 -0.0151 0.2593
H22 H 0.868(2) 0.3393(17) -0.0867(19)
H23 H 0.835(2) 0.4268(18) 0.0198(16)
H24 H 0.965(2) 0.3233(16) 0.0261(16)
loop_
_geom_bond_atom_site_label_1
_geom_bond_atom_site_label_2
_geom_bond_site_symmetry_1
_geom_bond_site_symmetry_2
O1 O2 1_555 1_555
O2 H14 1_555 1_555
O3 O4 1_555 1_555
O4 H16 1_555 1_555
O5 O6 1_555 1_555
O6 H18 1_555 1_555
N1 C2 1_555 1_555
O7 C1 1_555 1_555
O8 C1 1_555 1_555
C1 C2 1_555 1_555
C2 H1 1_555 1_555
C3 C2 1_555 1_555
H2 C3 1_555 1_555
H3 C3 1_555 1_555
C4 C3 1_555 1_555
H4 C4 1_555 1_555
H5 C4 1_555 1_555
H6 C4 1_555 1_555
N2 C6 1_555 1_555
O9 C5 1_555 1_555
O10 C5 1_555 1_555
C5 C6 1_555 1_555
C6 H7 1_555 1_555
C7 C6 1_555 1_555
H8 C7 1_555 1_555
H9 C7 1_555 1_555
C8 C7 1_555 1_555
H10 C8 1_555 1_555
H11 C8 1_555 1_555
H12 C8 1_555 1_555
H13 O1 1_555 1_555
H15 O3 1_555 1_555
H17 O5 1_555 1_555
H19 N1 1_555 1_555
H20 N1 1_555 1_555
H21 N1 1_555 1_555
H22 N2 1_555 1_555
H23 N2 1_555 1_555
H24 N2 1_555 1_555

#END
