
#######################################################################
#
#                 Cambridge Crystallographic Data Centre
#                                CCDC 
#
#######################################################################
#
# If this CIF has been generated from an entry in the Cambridge 
# Structural Database, then it will include bibliographic, chemical, 
# crystal, experimental, refinement or atomic coordinate data resulting 
# from the CCDC's data processing and validation procedures.
#
#######################################################################

data_TANDER
_chemical_formula_moiety         'C33 H51 N1'
_chemical_name_systematic        'Cholesteryl aniline'
_symmetry_cell_setting           monoclinic
_symmetry_space_group_name_H-M   'P 21'
_symmetry_Int_Tables_number      4
_space_group_name_Hall           'P 2yb'
loop_
_symmetry_equiv_pos_site_id
_symmetry_equiv_pos_as_xyz
1 x,y,z
2 -x,1/2+y,-z
_cell_length_a                   9.020(3)
_cell_length_b                   6.000(1)
_cell_length_c                   27.130(9)
_cell_angle_alpha                90
_cell_angle_beta                 98.22(2)
_cell_angle_gamma                90
_cell_volume                     1453.19
_exptl_crystal_colour            colorless
_chemical_melting_point          191.9deg.C
_cell_formula_units_Z            2
loop_
_atom_site_label
_atom_site_type_symbol
_atom_site_fract_x
_atom_site_fract_y
_atom_site_fract_z
C1 C 0.8109(5) 0.1112(20) 0.3601(1)
C2 C 0.7168(4) 0.0579(7) 0.4012(1)
C3 C 0.5842(4) -0.0866(7) 0.3821(1)
C4 C 0.6364(4) -0.2981(7) 0.3589(1)
C5 C 0.7368(3) -0.2532(6) 0.3202(1)
C6 C 0.7052(4) -0.3420(7) 0.2753(1)
C7 C 0.7982(4) -0.3138(9) 0.2343(1)
C8 C 0.9549(4) -0.2197(7) 0.2532(1)
C9 C 0.9418(3) -0.0261(6) 0.2898(1)
C10 C 0.8693(3) -0.1001(6) 0.3356(1)
C11 C 1.0942(5) 0.0928(8) 0.3039(1)
C12 C 1.1742(5) 0.1547(7) 0.2604(1)
C13 C 1.1920(4) -0.0484(6) 0.2268(1)
C14 C 1.0323(4) -0.1392(7) 0.2110(1)
C15 C 1.0484(5) -0.3002(9) 0.1680(1)
C16 C 1.1732(5) -0.1965(9) 0.1422(1)
C17 C 1.2408(4) -0.0011(8) 0.1754(1)
C18 C 1.2934(5) -0.2227(9) 0.2549(2)
C19 C 0.9826(5) -0.2255(9) 0.3740(2)
C20 C 1.4101(4) 0.0313(7) 0.1723(1)
C21 C 1.4827(6) 0.2078(11) 0.2060(2)
C22 C 1.4322(5) 0.0783(12) 0.1184(2)
C23 C 1.5950(5) 0.0665(15) 0.1090(2)
C24 C 1.6166(6) 0.1056(19) 0.0563(2)
C25 C 1.7737(8) 0.0919(18) 0.0442(2)
C26 C 1.7744(13) 0.0970(52) -0.0102(4)
C27 C 1.8722(13) 0.2490(40) 0.0706(5)
C28 C 0.3943(3) -0.0069(6) 0.4385(1)
C29 C 0.3546(4) 0.2007(7) 0.4174(1)
C30 C 0.2456(5) 0.3290(9) 0.4362(2)
C31 C 0.1752(4) 0.2516(11) 0.4748(2)
C32 C 0.2147(4) 0.0479(10) 0.4962(1)
C33 C 0.3240(4) -0.0818(8) 0.4789(1)
N1 N 0.4926(3) -0.1475(6) 0.4198(1)
loop_
_geom_bond_atom_site_label_1
_geom_bond_atom_site_label_2
_geom_bond_site_symmetry_1
_geom_bond_site_symmetry_2
C1 C2 1_555 1_555
C2 C3 1_555 1_555
C3 C4 1_555 1_555
C4 C5 1_555 1_555
C5 C6 1_555 1_555
C6 C7 1_555 1_555
C7 C8 1_555 1_555
C8 C9 1_555 1_555
C9 C10 1_555 1_555
C10 C1 1_555 1_555
C11 C9 1_555 1_555
C12 C11 1_555 1_555
C13 C12 1_555 1_555
C14 C8 1_555 1_555
C15 C14 1_555 1_555
C16 C15 1_555 1_555
C17 C13 1_555 1_555
C18 C13 1_555 1_555
C19 C10 1_555 1_555
C20 C17 1_555 1_555
C21 C20 1_555 1_555
C22 C20 1_555 1_555
C23 C22 1_555 1_555
C24 C23 1_555 1_555
C25 C24 1_555 1_555
C26 C25 1_555 1_555
C27 C25 1_555 1_555
C28 C29 1_555 1_555
C29 C30 1_555 1_555
C30 C31 1_555 1_555
C31 C32 1_555 1_555
C32 C33 1_555 1_555
C33 C28 1_555 1_555
N1 C3 1_555 1_555
C5 C10 1_555 1_555
C13 C14 1_555 1_555
C16 C17 1_555 1_555
C28 N1 1_555 1_555

#END
