
#######################################################################
#
#                 Cambridge Crystallographic Data Centre
#                                CCDC 
#
#######################################################################
#
# If this CIF has been generated from an entry in the Cambridge 
# Structural Database, then it will include bibliographic, chemical, 
# crystal, experimental, refinement or atomic coordinate data resulting 
# from the CCDC's data processing and validation procedures.
#
#######################################################################

data_TANDAP
_chemical_name_common            'beta-alanine hydrogen peroxide solvate'
_chemical_formula_moiety         'C3 H7 N1 O2,2(H2 O2)'
_chemical_name_systematic        
'3-aminopropanoic acid hydrogen peroxide disolvate'
_symmetry_cell_setting           monoclinic
_symmetry_space_group_name_H-M   'P 21/n'
_symmetry_Int_Tables_number      14
_space_group_name_Hall           '-P 2yn'
loop_
_symmetry_equiv_pos_site_id
_symmetry_equiv_pos_as_xyz
1 x,y,z
2 1/2-x,1/2+y,1/2-z
3 -x,-y,-z
4 1/2+x,1/2-y,1/2+z
_cell_length_a                   6.8875(11)
_cell_length_b                   9.5679(16)
_cell_length_c                   10.5760(18)
_cell_angle_alpha                90
_cell_angle_beta                 101.842(2)
_cell_angle_gamma                90
_cell_volume                     682.114
_exptl_crystal_colour            colorless
_exptl_crystal_description       block
_cell_formula_units_Z            4
loop_
_atom_site_label
_atom_site_type_symbol
_atom_site_fract_x
_atom_site_fract_y
_atom_site_fract_z
O1 O 0.26918(10) 0.91114(7) 0.58130(6)
O2 O 0.35634(11) 0.85303(8) 0.47763(7)
H1 H 0.369(2) 0.9097(16) 0.6428(15)
H2 H 0.310(2) 0.7676(17) 0.4755(13)
O3 O 0.45803(11) 0.51851(8) 0.70921(7)
O4 O 0.39503(11) 0.62874(8) 0.78750(7)
H3 H 0.388(2) 0.5320(16) 0.6357(15)
H4 H 0.479(2) 0.6965(16) 0.7788(14)
C1 C 0.14971(12) 0.54253(9) 0.36393(8)
C2 C 0.10980(14) 0.38771(9) 0.34195(8)
C3 C 0.19881(13) 0.29814(9) 0.45736(8)
N1 N 0.16343(13) 0.14770(8) 0.42519(8)
O5 O 0.23672(11) 0.58551(7) 0.47274(6)
O6 O 0.08971(10) 0.62327(7) 0.26852(6)
H5 H 0.040(3) 0.1332(15) 0.3991(15)
H6 H 0.220(2) 0.1255(14) 0.3621(14)
H7 H 0.211(2) 0.0931(16) 0.4941(15)
H8 H 0.160(2) 0.3607(13) 0.2678(13)
H9 H -0.028(2) 0.3771(13) 0.3190(12)
H10 H 0.1407(19) 0.3192(14) 0.5293(13)
H11 H 0.3436(19) 0.3119(13) 0.4823(12)
loop_
_geom_bond_atom_site_label_1
_geom_bond_atom_site_label_2
_geom_bond_site_symmetry_1
_geom_bond_site_symmetry_2
O1 O2 1_555 1_555
O2 H2 1_555 1_555
O3 O4 1_555 1_555
O4 H4 1_555 1_555
C1 C2 1_555 1_555
C2 C3 1_555 1_555
C3 N1 1_555 1_555
N1 H5 1_555 1_555
O5 C1 1_555 1_555
O6 C1 1_555 1_555
H1 O1 1_555 1_555
H3 O3 1_555 1_555
H6 N1 1_555 1_555
H7 N1 1_555 1_555
H8 C2 1_555 1_555
H9 C2 1_555 1_555
H10 C3 1_555 1_555
H11 C3 1_555 1_555

#END
