
#######################################################################
#
#                 Cambridge Crystallographic Data Centre
#                                CCDC 
#
#######################################################################
#
# If this CIF has been generated from an entry in the Cambridge 
# Structural Database, then it will include bibliographic, chemical, 
# crystal, experimental, refinement or atomic coordinate data resulting 
# from the CCDC's data processing and validation procedures.
#
#######################################################################

data_TANFAP
_chemical_formula_moiety         'C36 H54 N2 O2 Si2'
_chemical_name_systematic        
3,4-bis(t-Butyldimethylsiloxymethyl)-1,6-bis(p-dimethylaminophenyl)-hex-3-ene-1,5-diyne
_symmetry_cell_setting           monoclinic
_symmetry_space_group_name_H-M   'P 21/c'
_symmetry_Int_Tables_number      14
_space_group_name_Hall           '-P 2ybc'
loop_
_symmetry_equiv_pos_site_id
_symmetry_equiv_pos_as_xyz
1 x,y,z
2 -x,1/2+y,1/2-z
3 -x,-y,-z
4 x,1/2-y,1/2+z
_cell_length_a                   13.127(16)
_cell_length_b                   13.425(11)
_cell_length_c                   11.038(14)
_cell_angle_alpha                90
_cell_angle_beta                 108.23(9)
_cell_angle_gamma                90
_cell_volume                     1847.59
_exptl_crystal_colour            orange
_cell_formula_units_Z            2
loop_
_atom_site_label
_atom_site_type_symbol
_atom_site_fract_x
_atom_site_fract_y
_atom_site_fract_z
Si1 Si 0.3262(2) 0.4686(2) 0.1835(3)
C1 C 0.3221(8) 0.3900(8) 0.3210(9)
C2 C 0.3330(8) 0.3821(8) 0.0558(10)
C3 C 0.4426(7) 0.5555(10) 0.2359(13)
C4 C 0.5500(8) 0.4947(10) 0.2748(12)
C5 C 0.4322(9) 0.6224(9) 0.3431(12)
C6 C 0.4425(8) 0.6191(8) 0.1147(12)
C7 C 0.0950(7) 0.1828(6) 0.0987(10)
C8 C 0.1039(7) 0.1379(6) 0.2155(9)
C9 C 0.1316(7) 0.0403(6) 0.2391(10)
C10 C 0.1493(6) -0.0207(6) 0.1483(9)
C11 C 0.1379(7) 0.0228(7) 0.0250(10)
C12 C 0.1123(7) 0.1228(7) 0.0033(9)
C13 C 0.0692(7) 0.2882(7) 0.0743(10)
C14 C 0.0493(7) 0.3695(7) 0.0535(11)
C15 C 0.0380(7) 0.4823(8) 0.0489(10)
C16 C 0.1179(6) 0.5370(7) 0.1456(10)
O1 O 0.2197(4) 0.5413(5) 0.1296(7)
C17 C 0.1985(8) -0.1801(7) 0.0726(11)
C18 C 0.1795(10) -0.1626(7) 0.2939(11)
N1 N 0.1750(6) -0.1200(6) 0.1702(9)
H1 H 0.2622 0.3454 0.2932
H2 H 0.3873 0.3523 0.3516
H3 H 0.3142 0.4315 0.3883
H4 H 0.3359 0.4192 -0.0174
H5 H 0.3962 0.3416 0.0865
H6 H 0.2706 0.3402 0.0325
H7 H 0.6103 0.5391 0.3006
H8 H 0.5501 0.4525 0.3451
H9 H 0.5546 0.4545 0.2049
H10 H 0.4920 0.6675 0.3677
H11 H 0.3666 0.6598 0.3165
H12 H 0.4331 0.5811 0.4144
H13 H 0.5011 0.6655 0.1369
H14 H 0.4488 0.5759 0.0480
H15 H 0.3760 0.6548 0.0657
H16 H 0.0928 0.1788 0.2816
H17 H 0.1376 0.0127 0.3212
H18 H 0.1480 -0.0177 -0.0421
H19 H 0.1058 0.1510 -0.0787
H20 H 0.0921 0.6035 0.1494
H21 H 0.1257 0.5054 0.2261
H22 H 0.1926 -0.1380 0.0004
H23 H 0.2699 -0.2066 0.1040
H24 H 0.1481 -0.2339 0.0475
H25 H 0.1624 -0.1131 0.3472
H26 H 0.1282 -0.2158 0.2789
H27 H 0.2500 -0.1884 0.3354
C15B C -0.0380(7) 0.5177(8) -0.0489(10)
C14B C -0.0493(7) 0.6305(7) -0.0535(11)
C13B C -0.0692(7) 0.7118(7) -0.0743(10)
C7B C -0.0950(7) 0.8172(6) -0.0987(10)
C8B C -0.1039(7) 0.8621(6) -0.2155(9)
C9B C -0.1316(7) 0.9597(6) -0.2391(10)
C10B C -0.1493(6) 1.0207(6) -0.1483(9)
C11B C -0.1379(7) 0.9772(7) -0.0250(10)
C12B C -0.1123(7) 0.8772(7) -0.0033(9)
H19B H -0.1058 0.8490 0.0787
H18B H -0.1480 1.0177 0.0421
N1B N -0.1750(6) 1.1200(6) -0.1702(9)
C17B C -0.1985(8) 1.1801(7) -0.0726(11)
H22B H -0.1926 1.1380 -0.0004
H23B H -0.2699 1.2066 -0.1040
H24B H -0.1481 1.2339 -0.0475
C18B C -0.1795(10) 1.1626(7) -0.2939(11)
H25B H -0.1624 1.1131 -0.3472
H26B H -0.1282 1.2158 -0.2789
H27B H -0.2500 1.1884 -0.3354
H17B H -0.1376 0.9873 -0.3212
H16B H -0.0928 0.8212 -0.2816
C16B C -0.1179(6) 0.4630(7) -0.1456(10)
O1B O -0.2197(4) 0.4587(5) -0.1296(7)
Si1B Si -0.3262(2) 0.5314(2) -0.1835(3)
C1B C -0.3221(8) 0.6100(8) -0.3210(9)
H1B H -0.2622 0.6546 -0.2932
H2B H -0.3873 0.6477 -0.3516
H3B H -0.3142 0.5685 -0.3883
C2B C -0.3330(8) 0.6179(8) -0.0558(10)
H4B H -0.3359 0.5808 0.0174
H5B H -0.3962 0.6584 -0.0865
H6B H -0.2706 0.6598 -0.0325
C3B C -0.4426(7) 0.4445(10) -0.2359(13)
C4B C -0.5500(8) 0.5053(10) -0.2748(12)
H7B H -0.6103 0.4609 -0.3006
H8B H -0.5501 0.5475 -0.3451
H9B H -0.5546 0.5455 -0.2049
C5B C -0.4322(9) 0.3776(9) -0.3431(12)
H10B H -0.4920 0.3325 -0.3677
H11B H -0.3666 0.3402 -0.3165
H12B H -0.4331 0.4189 -0.4144
C6B C -0.4425(8) 0.3809(8) -0.1147(12)
H13B H -0.5011 0.3345 -0.1369
H14B H -0.4488 0.4241 -0.0480
H15B H -0.3760 0.3452 -0.0657
H20B H -0.0921 0.3965 -0.1494
H21B H -0.1257 0.4946 -0.2261
loop_
_geom_bond_atom_site_label_1
_geom_bond_atom_site_label_2
_geom_bond_site_symmetry_1
_geom_bond_site_symmetry_2
Si1 C1 1_555 1_555
C1 H1 1_555 1_555
C2 Si1 1_555 1_555
C3 Si1 1_555 1_555
C4 C3 1_555 1_555
C5 C3 1_555 1_555
C6 C3 1_555 1_555
C7 C8 1_555 1_555
C8 C9 1_555 1_555
C9 C10 1_555 1_555
C10 C11 1_555 1_555
C11 C12 1_555 1_555
C12 C7 1_555 1_555
C13 C7 1_555 1_555
C14 C13 1_555 1_555
C15 C14 1_555 1_555
C16 C15 1_555 1_555
O1 Si1 1_555 1_555
C17 N1 1_555 1_555
C18 N1 1_555 1_555
N1 C10 1_555 1_555
H2 C1 1_555 1_555
H3 C1 1_555 1_555
H4 C2 1_555 1_555
H5 C2 1_555 1_555
H6 C2 1_555 1_555
H7 C4 1_555 1_555
H8 C4 1_555 1_555
H9 C4 1_555 1_555
H10 C5 1_555 1_555
H11 C5 1_555 1_555
H12 C5 1_555 1_555
H13 C6 1_555 1_555
H14 C6 1_555 1_555
H15 C6 1_555 1_555
H16 C8 1_555 1_555
H17 C9 1_555 1_555
H18 C11 1_555 1_555
H19 C12 1_555 1_555
H20 C16 1_555 1_555
H21 C16 1_555 1_555
H22 C17 1_555 1_555
H23 C17 1_555 1_555
H24 C17 1_555 1_555
H25 C18 1_555 1_555
H26 C18 1_555 1_555
H27 C18 1_555 1_555
C15B C15 1_555 1_555
C14B C15B 1_555 1_555
C13B C14B 1_555 1_555
C7B C13B 1_555 1_555
C8B C7B 1_555 1_555
C9B C8B 1_555 1_555
C10B C9B 1_555 1_555
C11B C10B 1_555 1_555
C12B C7B 1_555 1_555
H19B C12B 1_555 1_555
H18B C11B 1_555 1_555
N1B C10B 1_555 1_555
C17B N1B 1_555 1_555
H22B C17B 1_555 1_555
H23B C17B 1_555 1_555
H24B C17B 1_555 1_555
C18B N1B 1_555 1_555
H25B C18B 1_555 1_555
H26B C18B 1_555 1_555
H27B C18B 1_555 1_555
H17B C9B 1_555 1_555
H16B C8B 1_555 1_555
C16B C15B 1_555 1_555
O1B C16B 1_555 1_555
Si1B O1B 1_555 1_555
C1B Si1B 1_555 1_555
H1B C1B 1_555 1_555
H2B C1B 1_555 1_555
H3B C1B 1_555 1_555
C2B Si1B 1_555 1_555
H4B C2B 1_555 1_555
H5B C2B 1_555 1_555
H6B C2B 1_555 1_555
C3B Si1B 1_555 1_555
C4B C3B 1_555 1_555
H7B C4B 1_555 1_555
H8B C4B 1_555 1_555
H9B C4B 1_555 1_555
C5B C3B 1_555 1_555
H10B C5B 1_555 1_555
H11B C5B 1_555 1_555
H12B C5B 1_555 1_555
C6B C3B 1_555 1_555
H13B C6B 1_555 1_555
H14B C6B 1_555 1_555
H15B C6B 1_555 1_555
H20B C16B 1_555 1_555
H21B C16B 1_555 1_555
C16 O1 1_555 1_555
C11B C12B 1_555 1_555

#END
