
#######################################################################
#
#                 Cambridge Crystallographic Data Centre
#                                CCDC 
#
#######################################################################
#
# If this CIF has been generated from an entry in the Cambridge 
# Structural Database, then it will include bibliographic, chemical, 
# crystal, experimental, refinement or atomic coordinate data resulting 
# from the CCDC's data processing and validation procedures.
#
#######################################################################

data_TANPHN10
_chemical_formula_moiety         'C18 H18 N3 P1'
_chemical_name_systematic        Trianilino-phosphine
_symmetry_cell_setting           hexagonal
_symmetry_space_group_name_H-M   'P 63'
_symmetry_Int_Tables_number      173
_space_group_name_Hall           'P 6c'
loop_
_symmetry_equiv_pos_site_id
_symmetry_equiv_pos_as_xyz
1 x,y,z
2 -y,x-y,z
3 -x+y,-x,z
4 -x,-y,1/2+z
5 y,-x+y,1/2+z
6 x-y,x,1/2+z
_cell_length_a                   11.449(3)
_cell_length_b                   11.449(3)
_cell_length_c                   7.488(2)
_cell_angle_alpha                90
_cell_angle_beta                 90
_cell_angle_gamma                120
_cell_volume                     850.025
_chemical_melting_point          95-6deg.C
_cell_formula_units_Z            2
loop_
_atom_site_label
_atom_site_type_symbol
_atom_site_fract_x
_atom_site_fract_y
_atom_site_fract_z
P1 P 0.33333 0.66667 0.87000
N1 N 0.43100 0.81510 0.76300
C1 C 0.55260 0.91760 0.83080
C2 C 0.59600 1.05130 0.78610
C3 C 0.71710 1.15240 0.84900
C4 C 0.79790 1.12440 0.96440
C5 C 0.75600 0.99390 1.00730
C6 C 0.63650 0.89150 0.94020
H1 H 0.40100 0.82900 0.65000
H2 H 0.54200 1.07200 0.71100
H3 H 0.75000 1.24300 0.81600
H4 H 0.87800 1.19600 1.01300
H5 H 0.80900 0.97400 1.08500
H6 H 0.61200 0.80000 0.97000
N1A N 0.18490 0.61590 0.76300
N1B N 0.38410 0.56900 0.76300
C1A C 0.08240 0.63500 0.83080
H1A H 0.17100 0.57200 0.65000
C1B C 0.36500 0.44740 0.83080
H1B H 0.42800 0.59900 0.65000
C2A C -0.05130 0.54470 0.78610
C6A C 0.10850 0.74500 0.94020
C2B C 0.45530 0.40400 0.78610
C6B C 0.25500 0.36350 0.94020
C3A C -0.15240 0.56470 0.84900
H2A H -0.07200 0.47000 0.71100
C5A C 0.00610 0.76210 1.00730
H6A H 0.20000 0.81200 0.97000
C3B C 0.43530 0.28290 0.84900
H2B H 0.53000 0.45800 0.71100
C5B C 0.23790 0.24400 1.00730
H6B H 0.18800 0.38800 0.97000
C4A C -0.12440 0.67350 0.96440
H3A H -0.24300 0.50700 0.81600
H5A H 0.02600 0.83500 1.08500
C4B C 0.32650 0.20210 0.96440
H3B H 0.49300 0.25000 0.81600
H5B H 0.16500 0.19100 1.08500
H4A H -0.19600 0.68200 1.01300
H4B H 0.31800 0.12200 1.01300
loop_
_geom_bond_atom_site_label_1
_geom_bond_atom_site_label_2
_geom_bond_site_symmetry_1
_geom_bond_site_symmetry_2
P1 N1 1_555 1_555
N1 C1 1_555 1_555
C1 C2 1_555 1_555
C2 C3 1_555 1_555
C3 C4 1_555 1_555
C4 C5 1_555 1_555
C5 C6 1_555 1_555
C6 C1 1_555 1_555
H1 N1 1_555 1_555
H2 C2 1_555 1_555
H3 C3 1_555 1_555
H4 C4 1_555 1_555
H5 C5 1_555 1_555
H6 C6 1_555 1_555
N1A P1 1_555 1_555
N1B P1 1_555 1_555
C1A N1A 1_555 1_555
H1A N1A 1_555 1_555
C1B N1B 1_555 1_555
H1B N1B 1_555 1_555
C2A C1A 1_555 1_555
C6A C1A 1_555 1_555
C2B C1B 1_555 1_555
C6B C1B 1_555 1_555
C3A C2A 1_555 1_555
H2A C2A 1_555 1_555
C5A C6A 1_555 1_555
H6A C6A 1_555 1_555
C3B C2B 1_555 1_555
H2B C2B 1_555 1_555
C5B C6B 1_555 1_555
H6B C6B 1_555 1_555
C4A C3A 1_555 1_555
H3A C3A 1_555 1_555
H5A C5A 1_555 1_555
C4B C3B 1_555 1_555
H3B C3B 1_555 1_555
H5B C5B 1_555 1_555
H4A C4A 1_555 1_555
H4B C4B 1_555 1_555
C5A C4A 1_555 1_555
C5B C4B 1_555 1_555

#END
