
#######################################################################
#
#                 Cambridge Crystallographic Data Centre
#                                CCDC 
#
#######################################################################
#
# If this CIF has been generated from an entry in the Cambridge 
# Structural Database, then it will include bibliographic, chemical, 
# crystal, experimental, refinement or atomic coordinate data resulting 
# from the CCDC's data processing and validation procedures.
#
#######################################################################

data_TANSEG
_chemical_formula_moiety         'C14 H13 N1 O1'
_chemical_name_systematic        4-Amino-4'-methylbenzophenone
_symmetry_cell_setting           orthorhombic
_symmetry_space_group_name_H-M   'P 21 21 21'
_symmetry_Int_Tables_number      19
_space_group_name_Hall           'P 2ac 2ab'
loop_
_symmetry_equiv_pos_site_id
_symmetry_equiv_pos_as_xyz
1 x,y,z
2 1/2+x,1/2-y,-z
3 -x,1/2+y,1/2-z
4 1/2-x,-y,1/2+z
_cell_length_a                   8.331(4)
_cell_length_b                   24.066(8)
_cell_length_c                   5.663(2)
_cell_angle_alpha                90
_cell_angle_beta                 90
_cell_angle_gamma                90
_cell_volume                     1135.4
_exptl_crystal_colour            'light yellow'
_cell_formula_units_Z            4
loop_
_atom_site_label
_atom_site_type_symbol
_atom_site_fract_x
_atom_site_fract_y
_atom_site_fract_z
O1 O 0.4784(4) 0.0872(1) 0.6692(8)
N1 N 1.2092(5) 0.0344(2) 0.9017(9)
C1 C 0.6000(5) 0.1108(2) 0.6025(9)
C2 C 0.7606(5) 0.0921(2) 0.6801(8)
C3 C 0.8966(6) 0.1039(2) 0.5519(8)
C4 C 1.0466(5) 0.0847(2) 0.6199(9)
C5 C 1.0618(6) 0.0529(2) 0.8277(9)
C6 C 0.9223(6) 0.0401(2) 0.9560(9)
C7 C 0.7762(5) 0.0591(2) 0.8816(9)
C8 C 0.5165(7) 0.2990(2) -0.0260(1)
C9 C 0.5845(5) 0.1588(2) 0.4375(8)
C10 C 0.4865(6) 0.1548(2) 0.2455(1)
C11 C 0.4683(7) 0.1992(2) 0.0947(1)
C12 C 0.5405(6) 0.2502(2) 0.1368(9)
C13 C 0.6345(6) 0.2538(2) 0.3331(1)
C14 C 0.6619(6) 0.2088(2) 0.4801(9)
H1 H 0.6790 0.0492 0.9683
H2 H 0.8872 0.1261 0.4129
H3 H 1.1401 0.0924 0.5271
H4 H 0.9315 0.0178 1.0954
H5 H 0.6877 0.2887 0.3678
H6 H 0.4040 0.1968 -0.0485
H7 H 0.4331 0.1207 0.2103
H8 H 0.7310 0.2137 0.6145
H9 H 0.5724 0.3304 0.0290
H10 H 0.5498 0.2895 -0.1801
H11 H 0.4029 0.3076 -0.0304
H12 H 1.2190 0.0133 1.0454
H13 H 1.3041 0.0437 0.8173
loop_
_geom_bond_atom_site_label_1
_geom_bond_atom_site_label_2
_geom_bond_site_symmetry_1
_geom_bond_site_symmetry_2
O1 C1 1_555 1_555
N1 C5 1_555 1_555
C1 C2 1_555 1_555
C2 C3 1_555 1_555
C3 C4 1_555 1_555
C4 C5 1_555 1_555
C5 C6 1_555 1_555
C6 C7 1_555 1_555
C7 C2 1_555 1_555
C8 C12 1_555 1_555
C9 C1 1_555 1_555
C10 C9 1_555 1_555
C11 C10 1_555 1_555
C12 C11 1_555 1_555
C13 C12 1_555 1_555
C14 C9 1_555 1_555
H1 C7 1_555 1_555
H2 C3 1_555 1_555
H3 C4 1_555 1_555
H4 C6 1_555 1_555
H5 C13 1_555 1_555
H6 C11 1_555 1_555
H7 C10 1_555 1_555
H8 C14 1_555 1_555
H9 C8 1_555 1_555
H10 C8 1_555 1_555
H11 C8 1_555 1_555
H12 N1 1_555 1_555
H13 N1 1_555 1_555
C13 C14 1_555 1_555

#END
