
#######################################################################
#
#                 Cambridge Crystallographic Data Centre
#                                CCDC 
#
#######################################################################
#
# If this CIF has been generated from an entry in the Cambridge 
# Structural Database, then it will include bibliographic, chemical, 
# crystal, experimental, refinement or atomic coordinate data resulting 
# from the CCDC's data processing and validation procedures.
#
#######################################################################

data_TANTIO
_chemical_name_common            N-(3,4-dichlorobenzylidene)-4-methylaniline
_chemical_formula_moiety         'C14 H11 Cl2 N1'
_chemical_name_systematic        
1-(3,4-dichlorophenyl)-N-(4-methylphenyl)methanimine
_symmetry_cell_setting           monoclinic
_symmetry_space_group_name_H-M   'P 21/c'
_symmetry_Int_Tables_number      14
_space_group_name_Hall           '-P 2ybc'
loop_
_symmetry_equiv_pos_site_id
_symmetry_equiv_pos_as_xyz
1 x,y,z
2 -x,1/2+y,1/2-z
3 -x,-y,-z
4 x,1/2-y,1/2+z
_cell_length_a                   6.1494(3)
_cell_length_b                   14.4196(5)
_cell_length_c                   14.2686(8)
_cell_angle_alpha                90
_cell_angle_beta                 97.055(5)
_cell_angle_gamma                90
_cell_volume                     1255.64
_exptl_crystal_colour            colorless
_exptl_crystal_description       sheet
_cell_formula_units_Z            4
loop_
_atom_site_label
_atom_site_type_symbol
_atom_site_fract_x
_atom_site_fract_y
_atom_site_fract_z
Cl1 Cl 0.43922(9) 0.73283(3) 0.63031(4)
Cl2 Cl 0.85709(8) 0.65646(3) 0.54576(4)
N1 N 0.8114(2) 0.29318(9) 0.62144(11)
C1 C 0.4957(3) 0.61516(11) 0.63048(12)
C2 C 0.6817(3) 0.58194(11) 0.59479(12)
C3 C 0.7262(3) 0.48821(11) 0.59714(12)
H1 H 0.8513 0.4661 0.5740
C4 C 0.5846(3) 0.42656(11) 0.63396(12)
C5 C 0.3978(3) 0.46060(13) 0.66749(13)
H2 H 0.3007 0.4196 0.6909
C6 C 0.3541(3) 0.55461(13) 0.66659(13)
H3 H 0.2298 0.5769 0.6902
C7 C 0.6305(3) 0.32649(11) 0.63733(12)
H4 H 0.5213 0.2862 0.6518
C8 C 0.8433(3) 0.19551(11) 0.62316(12)
C9 C 0.6826(3) 0.13134(12) 0.59179(13)
H5 H 0.5426 0.1515 0.5687
C10 C 0.7296(3) 0.03763(12) 0.59470(13)
H6 H 0.6190 -0.0044 0.5746
C11 C 0.9372(3) 0.00453(12) 0.62673(12)
C12 C 1.0963(3) 0.06917(12) 0.65752(14)
H7 H 1.2366 0.0490 0.6801
C13 C 1.0512(3) 0.16303(12) 0.65542(14)
H8 H 1.1617 0.2050 0.6759
C14 C 0.9874(4) -0.09788(13) 0.62742(16)
H9 H 1.0628 -0.1150 0.6879
H10 H 1.0784 -0.1115 0.5791
H11 H 0.8532 -0.1323 0.6157
loop_
_geom_bond_atom_site_label_1
_geom_bond_atom_site_label_2
_geom_bond_site_symmetry_1
_geom_bond_site_symmetry_2
Cl1 C1 1_555 1_555
Cl2 C2 1_555 1_555
N1 C7 1_555 1_555
C1 C2 1_555 1_555
C2 C3 1_555 1_555
C3 H1 1_555 1_555
C4 C3 1_555 1_555
C5 C4 1_555 1_555
H2 C5 1_555 1_555
C6 C1 1_555 1_555
H3 C6 1_555 1_555
C7 C4 1_555 1_555
H4 C7 1_555 1_555
C8 N1 1_555 1_555
C9 C8 1_555 1_555
H5 C9 1_555 1_555
C10 C9 1_555 1_555
H6 C10 1_555 1_555
C11 C10 1_555 1_555
C12 C11 1_555 1_555
H7 C12 1_555 1_555
C13 C8 1_555 1_555
H8 C13 1_555 1_555
C14 C11 1_555 1_555
H9 C14 1_555 1_555
H10 C14 1_555 1_555
H11 C14 1_555 1_555
C5 C6 1_555 1_555
C12 C13 1_555 1_555

#END
