
#######################################################################
#
#                 Cambridge Crystallographic Data Centre
#                                CCDC 
#
#######################################################################
#
# If this CIF has been generated from an entry in the Cambridge 
# Structural Database, then it will include bibliographic, chemical, 
# crystal, experimental, refinement or atomic coordinate data resulting 
# from the CCDC's data processing and validation procedures.
#
#######################################################################

data_TANWOX
_chemical_formula_moiety         'C20 H17 N3'
_chemical_name_systematic        
4-(1,3-dimethyl-2,3-dihydro-1H-perimidin-2-yl)benzonitrile
_symmetry_cell_setting           orthorhombic
_symmetry_space_group_name_H-M   'P n m a'
_symmetry_Int_Tables_number      62
_space_group_name_Hall           '-P 2ac 2n'
loop_
_symmetry_equiv_pos_site_id
_symmetry_equiv_pos_as_xyz
1 x,y,z
2 1/2-x,-y,1/2+z
3 1/2+x,1/2-y,1/2-z
4 -x,1/2+y,-z
5 -x,-y,-z
6 1/2+x,y,1/2-z
7 1/2-x,1/2+y,1/2+z
8 x,1/2-y,z
_cell_length_a                   11.371(11)
_cell_length_b                   12.144(12)
_cell_length_c                   11.718(11)
_cell_angle_alpha                90
_cell_angle_beta                 90
_cell_angle_gamma                90
_cell_volume                     1618.13
_exptl_crystal_colour            colorless
_exptl_crystal_description       block
_cell_formula_units_Z            4
loop_
_atom_site_label
_atom_site_type_symbol
_atom_site_fract_x
_atom_site_fract_y
_atom_site_fract_z
C1 C 0.12162(18) 0.7500 0.10144(17)
N1 N 0.00646(11) 0.65188(12) 0.24122(12)
C2 C 0.08429(14) 0.64812(14) 0.14966(13)
C3 C 0.22079(18) 0.7500 0.37529(18)
H1 H 0.2431 0.7500 0.2989
C4 C 0.30549(18) 0.7500 0.45840(17)
H2 H 0.3846 0.7500 0.4383
C5 C 0.3632(2) 0.7500 0.65776(19)
C6 C 0.19449(19) 0.7500 0.00363(18)
C7 C 0.00578(19) 0.7500 0.31227(19)
H3 H -0.0693 0.7500 0.3533
C8 C 0.0723(2) 0.7500 0.5171(2)
H4 H -0.0068 0.7500 0.5372
C9 C 0.27356(17) 0.7500 0.57158(17)
C10 C 0.10249(18) 0.7500 0.40311(17)
C11 C 0.12108(18) 0.55110(16) 0.09984(16)
H5 H 0.0978 0.4840 0.1308
C12 C 0.1561(2) 0.7500 0.60174(19)
H6 H 0.1340 0.7500 0.6782
N2 N 0.4342(2) 0.7500 0.72641(19)
C13 C 0.22898(17) 0.64838(16) -0.04401(16)
H7 H 0.2768 0.6472 -0.1084
C14 C 0.19303(18) 0.55289(16) 0.00334(17)
H8 H 0.2168 0.4866 -0.0291
C15 C -0.0258(2) 0.55010(19) 0.29843(18)
H9 H -0.0578 0.4994 0.2438
H10 H -0.0837 0.5653 0.3560
H11 H 0.0426 0.5183 0.3333
N1G N 0.00646(11) 0.84812(12) 0.24122(12)
C2G C 0.08429(14) 0.85188(14) 0.14966(13)
C11G C 0.12108(18) 0.94890(16) 0.09984(16)
H5G H 0.0978 1.0160 0.1308
C13G C 0.22898(17) 0.85162(16) -0.04401(16)
H7G H 0.2768 0.8528 -0.1084
C14G C 0.19303(18) 0.94711(16) 0.00334(17)
H8G H 0.2168 1.0134 -0.0291
C15G C -0.0258(2) 0.94990(19) 0.29843(18)
H9G H -0.0578 1.0006 0.2438
H10G H -0.0837 0.9347 0.3560
H11G H 0.0426 0.9817 0.3333
loop_
_geom_bond_atom_site_label_1
_geom_bond_atom_site_label_2
_geom_bond_site_symmetry_1
_geom_bond_site_symmetry_2
C1 C2 1_555 1_555
N1 C2 1_555 1_555
C2 C11 1_555 1_555
C3 H1 1_555 1_555
C4 C3 1_555 1_555
H2 C4 1_555 1_555
C5 C9 1_555 1_555
C6 C1 1_555 1_555
C7 N1 1_555 1_555
H3 C7 1_555 1_555
C8 H4 1_555 1_555
C9 C4 1_555 1_555
C10 C3 1_555 1_555
C11 H5 1_555 1_555
C12 C8 1_555 1_555
H6 C12 1_555 1_555
N2 C5 1_555 1_555
C13 C6 1_555 1_555
H7 C13 1_555 1_555
C14 C11 1_555 1_555
H8 C14 1_555 1_555
C15 N1 1_555 1_555
H9 C15 1_555 1_555
H10 C15 1_555 1_555
H11 C15 1_555 1_555
N1G C7 1_555 1_555
C2G C1 1_555 1_555
C11G C2G 1_555 1_555
H5G C11G 1_555 1_555
C13G C6 1_555 1_555
H7G C13G 1_555 1_555
C14G C11G 1_555 1_555
H8G C14G 1_555 1_555
C15G N1G 1_555 1_555
H9G C15G 1_555 1_555
H10G C15G 1_555 1_555
H11G C15G 1_555 1_555
C7 C10 1_555 1_555
C8 C10 1_555 1_555
C9 C12 1_555 1_555
C13 C14 1_555 1_555
N1G C2G 1_555 1_555
C13G C14G 1_555 1_555

#END
