
#######################################################################
#
#                 Cambridge Crystallographic Data Centre
#                                CCDC 
#
#######################################################################
#
# If this CIF has been generated from an entry in the Cambridge 
# Structural Database, then it will include bibliographic, chemical, 
# crystal, experimental, refinement or atomic coordinate data resulting 
# from the CCDC's data processing and validation procedures.
#
#######################################################################

data_TANYIT
_chemical_formula_moiety         'C15 H10 O4,C3 H7 N1 O1'
_chemical_name_systematic        
'7-hydroxy-3-(4-hydroxyphenyl)-4H-1-benzopyran-4-one N,N-dimethylformamide solvate'
_symmetry_cell_setting           monoclinic
_symmetry_space_group_name_H-M   'P 21/n'
_symmetry_Int_Tables_number      14
_space_group_name_Hall           '-P 2yn'
loop_
_symmetry_equiv_pos_site_id
_symmetry_equiv_pos_as_xyz
1 x,y,z
2 1/2-x,1/2+y,1/2-z
3 -x,-y,-z
4 1/2+x,1/2-y,1/2+z
_cell_length_a                   6.260(4)
_cell_length_b                   20.454(12)
_cell_length_c                   12.386(8)
_cell_angle_alpha                90
_cell_angle_beta                 97.146(10)
_cell_angle_gamma                90
_cell_volume                     1573.61
_exptl_crystal_colour            colorless
_exptl_crystal_description       prism
_cell_formula_units_Z            4
loop_
_atom_site_label
_atom_site_type_symbol
_atom_site_fract_x
_atom_site_fract_y
_atom_site_fract_z
O1 O 0.81731(18) 0.04681(5) 0.03899(9)
O2 O 0.24927(19) 0.14743(6) -0.00338(10)
O3 O 0.6841(3) -0.02879(7) 0.38591(10)
O4 O 0.4245(2) 0.29825(7) -0.41674(11)
C1 C 0.4208(2) 0.11598(7) 0.00910(13)
C2 C 0.5740(2) 0.11801(7) -0.07069(12)
C3 C 0.7562(3) 0.08292(8) -0.05095(13)
H1 H 0.8508 0.0836 -0.1053
C4 C 0.6824(2) 0.04455(7) 0.11793(12)
C5 C 0.4838(2) 0.07579(7) 0.10446(12)
C6 C 0.3530(3) 0.06823(8) 0.18806(14)
H2 H 0.2149 0.0882 0.1809
C7 C 0.4208(3) 0.03271(8) 0.27948(14)
H3 H 0.3290 0.0276 0.3344
C8 C 0.6256(3) 0.00383(8) 0.29236(13)
C9 C 0.7566(3) 0.00904(8) 0.21086(13)
H4 H 0.8942 -0.0112 0.2181
C10 C 0.5389(2) 0.16251(7) -0.16570(12)
C11 C 0.3374(3) 0.16942(8) -0.22656(13)
H5 H 0.2214 0.1429 -0.2100
C12 C 0.3033(3) 0.21410(8) -0.31047(13)
H6 H 0.1646 0.2180 -0.3509
C13 C 0.7059(3) 0.20154(8) -0.19404(13)
H7 H 0.8452 0.1974 -0.1543
C14 C 0.6740(3) 0.24612(8) -0.27862(13)
H8 H 0.7908 0.2716 -0.2973
C15 C 0.4706(3) 0.25334(8) -0.33597(13)
H9 H 0.553(5) 0.3185(13) -0.436(2)
H10 H 0.815(4) -0.0410(11) 0.3872(19)
O5 O 1.0797(2) -0.07186(8) 0.38235(13)
N1 N 1.1884(2) -0.13821(7) 0.52500(12)
C16 C 1.2151(3) -0.10627(9) 0.43563(16)
H11 H 1.3513 -0.1101 0.4099
C17 C 0.9888(4) -0.13386(14) 0.5720(2)
H12 H 0.9006 -0.0985 0.5367
H13 H 1.0200 -0.1249 0.6501
H14 H 0.9106 -0.1753 0.5611
C18 C 1.3566(4) -0.17971(10) 0.58000(19)
H15 H 1.4843 -0.1775 0.5417
H16 H 1.3051 -0.2249 0.5803
H17 H 1.3938 -0.1646 0.6551
loop_
_geom_bond_atom_site_label_1
_geom_bond_atom_site_label_2
_geom_bond_site_symmetry_1
_geom_bond_site_symmetry_2
O1 C3 1_555 1_555
O2 C1 1_555 1_555
O3 C8 1_555 1_555
O4 C15 1_555 1_555
C1 C2 1_555 1_555
C2 C3 1_555 1_555
C3 H1 1_555 1_555
C4 O1 1_555 1_555
C5 C1 1_555 1_555
C6 C5 1_555 1_555
H2 C6 1_555 1_555
C7 C6 1_555 1_555
H3 C7 1_555 1_555
C8 C7 1_555 1_555
C9 C4 1_555 1_555
H4 C9 1_555 1_555
C10 C2 1_555 1_555
C11 C10 1_555 1_555
H5 C11 1_555 1_555
C12 C11 1_555 1_555
H6 C12 1_555 1_555
C13 C10 1_555 1_555
H7 C13 1_555 1_555
C14 C13 1_555 1_555
H8 C14 1_555 1_555
C15 C12 1_555 1_555
H9 O4 1_555 1_555
H10 O3 1_555 1_555
O5 C16 1_555 1_555
N1 C16 1_555 1_555
C16 H11 1_555 1_555
C17 N1 1_555 1_555
H12 C17 1_555 1_555
H13 C17 1_555 1_555
H14 C17 1_555 1_555
C18 N1 1_555 1_555
H15 C18 1_555 1_555
H16 C18 1_555 1_555
H17 C18 1_555 1_555
C4 C5 1_555 1_555
C8 C9 1_555 1_555
C14 C15 1_555 1_555

#END
