
#######################################################################
#
#                 Cambridge Crystallographic Data Centre
#                                CCDC 
#
#######################################################################
#
# If this CIF has been generated from an entry in the Cambridge 
# Structural Database, then it will include bibliographic, chemical, 
# crystal, experimental, refinement or atomic coordinate data resulting 
# from the CCDC's data processing and validation procedures.
#
#######################################################################

data_TANYOZ
_chemical_name_common            
'methyl 1-(4-fluorobenzyl)-3-phenyl-1H-pyrazole-5-carboxylate'
_chemical_formula_moiety         'C18 H15 F1 N2 O2'
_chemical_name_systematic        
'methyl 1-((4-fluorophenyl)methyl)-3-phenyl-1H-pyrazole-5-carboxylate'
_symmetry_cell_setting           triclinic
_symmetry_space_group_name_H-M   'P -1'
_symmetry_Int_Tables_number      2
_space_group_name_Hall           '-P 1'
loop_
_symmetry_equiv_pos_site_id
_symmetry_equiv_pos_as_xyz
1 x,y,z
2 -x,-y,-z
_cell_length_a                   7.8272(8)
_cell_length_b                   9.6662(10)
_cell_length_c                   10.9834(12)
_cell_angle_alpha                107.859(2)
_cell_angle_beta                 92.559(2)
_cell_angle_gamma                99.415(2)
_cell_volume                     776.311
_exptl_crystal_colour            colorless
_exptl_crystal_description       block
_cell_formula_units_Z            2
loop_
_atom_site_label
_atom_site_type_symbol
_atom_site_fract_x
_atom_site_fract_y
_atom_site_fract_z
C1 C 0.32589(18) 0.87363(16) 0.30960(14)
C2 C 0.3806(2) 0.74106(19) 0.25569(17)
H1 H 0.3954 0.6808 0.3056
C3 C 0.4134(2) 0.6975(2) 0.12795(19)
H2 H 0.4497 0.6080 0.0925
C4 C 0.3925(2) 0.7857(2) 0.05324(18)
H3 H 0.4126 0.7554 -0.0330
C5 C 0.3418(2) 0.9191(2) 0.10692(17)
H4 H 0.3300 0.9803 0.0574
C6 C 0.3084(2) 0.96235(18) 0.23367(16)
H5 H 0.2735 1.0526 0.2689
C7 C 0.28512(18) 0.91869(16) 0.44392(15)
C8 C 0.23917(19) 1.05074(17) 0.51632(15)
H6 H 0.2299 1.1321 0.4898
C9 C 0.21044(18) 1.03644(17) 0.63412(15)
C10 C 0.1616(2) 1.14148(19) 0.74919(17)
C11 C 0.2165(2) 0.82323(19) 0.72494(17)
H7 H 0.2566 0.8928 0.8099
H8 H 0.2873 0.7471 0.7082
C12 C 0.0282(2) 0.75261(17) 0.72320(15)
C13 C -0.0484(2) 0.77049(19) 0.83652(17)
H9 H 0.0168 0.8256 0.9142
C14 C -0.2202(2) 0.70778(19) 0.83630(18)
H10 H -0.2714 0.7195 0.9128
C15 C -0.3128(2) 0.62827(18) 0.7209(2)
C16 C -0.2427(3) 0.60595(19) 0.60668(19)
H11 H -0.3089 0.5499 0.5297
C17 C -0.0705(2) 0.66886(18) 0.60836(17)
H12 H -0.0200 0.6549 0.5315
C18 C 0.0928(3) 1.3805(2) 0.8290(2)
H13 H -0.0016 1.3391 0.8676
H14 H 0.0577 1.4543 0.7967
H15 H 0.1913 1.4249 0.8922
F1 F -0.48454(14) 0.56969(12) 0.71949(13)
N1 N 0.28546(16) 0.82659(14) 0.51391(13)
N2 N 0.24077(16) 0.90048(15) 0.62995(13)
O1 O 0.14536(18) 1.12230(15) 0.85152(13)
O2 O 0.13973(17) 1.26468(14) 0.72421(13)
loop_
_geom_bond_atom_site_label_1
_geom_bond_atom_site_label_2
_geom_bond_site_symmetry_1
_geom_bond_site_symmetry_2
C1 C2 1_555 1_555
C2 H1 1_555 1_555
C3 C2 1_555 1_555
H2 C3 1_555 1_555
C4 C3 1_555 1_555
H3 C4 1_555 1_555
C5 C4 1_555 1_555
H4 C5 1_555 1_555
C6 C1 1_555 1_555
H5 C6 1_555 1_555
C7 C1 1_555 1_555
C8 C7 1_555 1_555
H6 C8 1_555 1_555
C9 C8 1_555 1_555
C10 C9 1_555 1_555
C11 H7 1_555 1_555
H8 C11 1_555 1_555
C12 C11 1_555 1_555
C13 C12 1_555 1_555
H9 C13 1_555 1_555
C14 C13 1_555 1_555
H10 C14 1_555 1_555
C15 C14 1_555 1_555
C16 C15 1_555 1_555
H11 C16 1_555 1_555
C17 C12 1_555 1_555
H12 C17 1_555 1_555
C18 H13 1_555 1_555
H14 C18 1_555 1_555
H15 C18 1_555 1_555
F1 C15 1_555 1_555
N1 C7 1_555 1_555
N2 C9 1_555 1_555
O1 C10 1_555 1_555
O2 C10 1_555 1_555
C5 C6 1_555 1_555
C11 N2 1_555 1_555
C16 C17 1_555 1_555
C18 O2 1_555 1_555
N1 N2 1_555 1_555

#END
