
#######################################################################
#
#                 Cambridge Crystallographic Data Centre
#                                CCDC 
#
#######################################################################
#
# If this CIF has been generated from an entry in the Cambridge 
# Structural Database, then it will include bibliographic, chemical, 
# crystal, experimental, refinement or atomic coordinate data resulting 
# from the CCDC's data processing and validation procedures.
#
#######################################################################

data_TAPGAV
_chemical_formula_moiety         'C27 H28 Br1 N1 O3 S1'
_chemical_name_systematic        
5-benzyl-9-bromo-7-((4-methylphenyl)sulfonyl)-1-phenyl-2-oxa-7-azabicyclo[3.3.1]nonane
_symmetry_cell_setting           monoclinic
_symmetry_space_group_name_H-M   'P 21'
_symmetry_Int_Tables_number      4
_space_group_name_Hall           'P 2yb'
loop_
_symmetry_equiv_pos_site_id
_symmetry_equiv_pos_as_xyz
1 x,y,z
2 -x,1/2+y,-z
_cell_length_a                   10.2079(18)
_cell_length_b                   10.4253(16)
_cell_length_c                   11.4032(19)
_cell_angle_alpha                90
_cell_angle_beta                 97.286(6)
_cell_angle_gamma                90
_cell_volume                     1203.73
_chemical_melting_point          '196-197 deg.C'
_cell_formula_units_Z            2
loop_
_atom_site_label
_atom_site_type_symbol
_atom_site_fract_x
_atom_site_fract_y
_atom_site_fract_z
Br1 Br 0.48537(5) 0.54450(6) 0.44579(4)
C1 C 0.7034(7) 0.1487(6) 0.2372(6)
H1 H 0.7952 0.1502 0.2494
C2 C 0.6400(7) 0.0563(7) 0.1638(5)
H2 H 0.6886 -0.0029 0.1262
C3 C 0.5027(7) 0.0530(7) 0.1469(5)
H3 H 0.4592 -0.0083 0.0970
C4 C 0.4314(7) 0.1394(6) 0.2033(6)
H4 H 0.3396 0.1362 0.1926
C5 C 0.4962(7) 0.2309(5) 0.2760(6)
H5 H 0.4468 0.2885 0.3146
C6 C 0.6328(6) 0.2399(5) 0.2934(5)
C7 C 0.7063(7) 0.3411(6) 0.3706(6)
H6 H 0.7974 0.3137 0.3892
H7 H 0.6685 0.3453 0.4444
C8 C 0.7057(6) 0.4793(5) 0.3172(5)
C9 C 0.7522(7) 0.4737(6) 0.1940(6)
H8 H 0.8414 0.4396 0.2022
H9 H 0.6960 0.4144 0.1451
C10 C 0.5690(5) 0.5419(7) 0.2982(4)
H10 H 0.5127 0.4918 0.2389
C11 C 0.5796(6) 0.6803(5) 0.2506(5)
C12 C 0.4417(6) 0.7402(5) 0.2231(5)
C13 C 0.3691(7) 0.7160(6) 0.1127(5)
H11 H 0.4058 0.6667 0.0572
C14 C 0.2428(7) 0.7652(6) 0.0858(6)
H12 H 0.1964 0.7498 0.0115
C15 C 0.1846(7) 0.8366(6) 0.1670(6)
H13 H 0.0994 0.8684 0.1487
C16 C 0.2565(7) 0.8599(6) 0.2768(6)
H14 H 0.2188 0.9069 0.3332
C17 C 0.3847(7) 0.8132(5) 0.3025(5)
H15 H 0.4327 0.8320 0.3753
C18 C 0.7509(7) 0.6021(6) 0.1309(6)
H16 H 0.8248 0.6536 0.1661
H17 H 0.7612 0.5882 0.0485
C19 C 0.9001(6) 0.8116(5) 0.5724(5)
C20 C 0.9337(7) 0.7159(6) 0.6575(6)
H18 H 0.9691 0.6383 0.6365
C21 C 0.9133(7) 0.7391(6) 0.7727(6)
H19 H 0.9331 0.6751 0.8290
C22 C 0.8634(7) 0.8566(6) 0.8072(6)
C23 C 0.8323(7) 0.9507(6) 0.7200(6)
H20 H 0.7992 1.0296 0.7406
C24 C 0.8502(6) 0.9271(6) 0.6048(6)
H21 H 0.8284 0.9900 0.5478
C25 C 0.8402(9) 0.8810(8) 0.9333(6)
H22 H 0.7515 0.8569 0.9433
H23 H 0.8530 0.9704 0.9513
H24 H 0.9013 0.8311 0.9857
C26 C 0.6734(6) 0.7596(6) 0.3396(6)
H25 H 0.6856 0.8441 0.3071
H26 H 0.6344 0.7700 0.4123
C27 C 0.7980(6) 0.5604(6) 0.4048(5)
H27 H 0.7678 0.5572 0.4821
H28 H 0.8865 0.5249 0.4120
N1 N 0.8009(5) 0.6958(4) 0.3648(4)
O1 O 0.9183(5) 0.9029(4) 0.3623(4)
O2 O 1.0417(4) 0.7045(4) 0.4265(4)
O3 O 0.6284(4) 0.6709(4) 0.1386(4)
S1 S 0.92577(16) 0.78254(13) 0.42417(13)
loop_
_geom_bond_atom_site_label_1
_geom_bond_atom_site_label_2
_geom_bond_site_symmetry_1
_geom_bond_site_symmetry_2
Br1 C10 1_555 1_555
C1 H1 1_555 1_555
C2 C1 1_555 1_555
H2 C2 1_555 1_555
C3 C2 1_555 1_555
H3 C3 1_555 1_555
C4 C3 1_555 1_555
H4 C4 1_555 1_555
C5 C4 1_555 1_555
H5 C5 1_555 1_555
C6 C1 1_555 1_555
C7 C6 1_555 1_555
H6 C7 1_555 1_555
H7 C7 1_555 1_555
C8 C7 1_555 1_555
C9 C8 1_555 1_555
H8 C9 1_555 1_555
H9 C9 1_555 1_555
C10 C8 1_555 1_555
H10 C10 1_555 1_555
C11 C10 1_555 1_555
C12 C11 1_555 1_555
C13 C12 1_555 1_555
H11 C13 1_555 1_555
C14 C13 1_555 1_555
H12 C14 1_555 1_555
C15 C14 1_555 1_555
H13 C15 1_555 1_555
C16 C15 1_555 1_555
H14 C16 1_555 1_555
C17 C12 1_555 1_555
H15 C17 1_555 1_555
C18 C9 1_555 1_555
H16 C18 1_555 1_555
H17 C18 1_555 1_555
C19 C20 1_555 1_555
C20 H18 1_555 1_555
C21 C20 1_555 1_555
H19 C21 1_555 1_555
C22 C21 1_555 1_555
C23 C22 1_555 1_555
H20 C23 1_555 1_555
C24 C19 1_555 1_555
H21 C24 1_555 1_555
C25 C22 1_555 1_555
H22 C25 1_555 1_555
H23 C25 1_555 1_555
H24 C25 1_555 1_555
C26 C11 1_555 1_555
H25 C26 1_555 1_555
H26 C26 1_555 1_555
C27 C8 1_555 1_555
H27 C27 1_555 1_555
H28 C27 1_555 1_555
N1 C26 1_555 1_555
O1 S1 1_555 1_555
O2 S1 1_555 1_555
O3 C11 1_555 1_555
S1 C19 1_555 1_555
C5 C6 1_555 1_555
C16 C17 1_555 1_555
C18 O3 1_555 1_555
C23 C24 1_555 1_555
C27 N1 1_555 1_555
N1 S1 1_555 1_555

#END
