
#######################################################################
#
#                 Cambridge Crystallographic Data Centre
#                                CCDC 
#
#######################################################################
#
# If this CIF has been generated from an entry in the Cambridge 
# Structural Database, then it will include bibliographic, chemical, 
# crystal, experimental, refinement or atomic coordinate data resulting 
# from the CCDC's data processing and validation procedures.
#
#######################################################################

data_TAPGEZ
_chemical_formula_moiety         'C29 H38 N1 O5 S1,0.5(C6 H14)'
_chemical_name_systematic        
'1-oxy-2,2,6,6-tetramethylpiperidin-4-yl 4-(2-((4-t-butylbenzyl)sulfonyl)vinyl)benzoate radical n-hexane solvate'
_chemical_properties_biological  
'tested for radioprotective activity under gamma-ray radiation'
_symmetry_cell_setting           triclinic
_symmetry_space_group_name_H-M   'P -1'
_symmetry_Int_Tables_number      2
_space_group_name_Hall           '-P 1'
loop_
_symmetry_equiv_pos_site_id
_symmetry_equiv_pos_as_xyz
1 x,y,z
2 -x,-y,-z
_cell_length_a                   5.9676(16)
_cell_length_b                   16.491(4)
_cell_length_c                   16.558(5)
_cell_angle_alpha                97.004(4)
_cell_angle_beta                 93.026(4)
_cell_angle_gamma                92.510(3)
_cell_volume                     1613.01
_exptl_crystal_colour            yellow
_exptl_crystal_description       block
_cell_formula_units_Z            2
loop_
_atom_site_label
_atom_site_type_symbol
_atom_site_fract_x
_atom_site_fract_y
_atom_site_fract_z
S1 S 0.71137(10) 0.94039(3) 0.08790(4)
N1 N 1.5220(3) 1.67749(10) 0.18828(11)
O1 O 1.6757(3) 1.73432(10) 0.19813(11)
O2 O 1.0890(3) 1.47037(8) 0.15220(11)
O3 O 0.7887(4) 1.49372(13) 0.2244(3)
O4 O 0.7547(3) 0.89765(9) 0.00987(10)
O5 O 0.4879(2) 0.93477(9) 0.11508(10)
C1 C 1.4206(4) 1.65559(14) 0.10404(14)
C2 C 1.3091(4) 1.57004(13) 0.09784(14)
H1 H 1.2193 1.5594 0.0468
H2 H 1.4252 1.5306 0.0964
C3 C 1.1621(4) 1.55686(12) 0.16617(15)
H3 H 1.0325 1.5913 0.1651
C4 C 1.2942(4) 1.57425(13) 0.24631(14)
H4 H 1.4093 1.5347 0.2483
H5 H 1.1948 1.5669 0.2896
C5 C 1.4062(4) 1.66020(13) 0.26223(14)
C6 C 1.6098(5) 1.65505(18) 0.04538(16)
H6 H 1.7149 1.6153 0.0578
H7 H 1.6853 1.7082 0.0510
H8 H 1.5481 1.6413 -0.0096
C7 C 1.2527(5) 1.71931(16) 0.08395(18)
H9 H 1.1338 1.7199 0.1209
H10 H 1.1908 1.7054 0.0290
H11 H 1.3284 1.7724 0.0894
C8 C 1.2348(4) 1.72480(15) 0.28455(19)
H12 H 1.1207 1.7226 0.2411
H13 H 1.3096 1.7782 0.2928
H14 H 1.1670 1.7141 0.3337
C9 C 1.5856(5) 1.66384(18) 0.33175(16)
H15 H 1.6925 1.6232 0.3184
H16 H 1.5163 1.6536 0.3808
H17 H 1.6610 1.7171 0.3399
C10 C 0.8996(4) 1.44697(14) 0.18229(17)
C11 C 0.8504(4) 1.35703(12) 0.16670(14)
C12 C 0.9979(4) 1.30400(13) 0.13104(14)
H18 H 1.1352 1.3243 0.1158
C13 C 0.9454(4) 1.22151(13) 0.11758(14)
H19 H 1.0477 1.1866 0.0934
C14 C 0.7418(4) 1.18937(12) 0.13962(13)
C15 C 0.5962(4) 1.24277(14) 0.17647(18)
H20 H 0.4599 1.2226 0.1926
C16 C 0.6490(4) 1.32566(14) 0.18983(19)
H21 H 0.5481 1.3607 0.2146
C17 C 0.6818(4) 1.10136(13) 0.12712(14)
H22 H 0.5470 1.0849 0.1474
C18 C 0.7961(4) 1.04394(13) 0.09084(14)
H23 H 0.9257 1.0580 0.0659
C19 C 0.9018(4) 0.90643(13) 0.16179(15)
H24 H 0.8594 0.8505 0.1691
H25 H 1.0521 0.9073 0.1421
C20 C 0.9029(4) 0.95908(14) 0.24190(15)
C21 C 0.7251(4) 0.95605(16) 0.29143(16)
H26 H 0.6108 0.9157 0.2783
C22 C 0.7137(4) 1.01142(18) 0.35960(17)
H27 H 0.5890 1.0082 0.3907
C23 C 0.8784(4) 1.07150(15) 0.38412(15)
C24 C 1.0607(4) 1.07224(17) 0.33528(17)
H28 H 1.1781 1.1112 0.3496
C25 C 1.0727(4) 1.01728(16) 0.26659(17)
H29 H 1.1987 1.0194 0.2360
C26 C 0.8550(5) 1.13579(19) 0.45728(18)
C27 C 0.7234(7) 1.0998(2) 0.5233(2)
H30 H 0.8068 1.0577 0.5442
H31 H 0.5802 1.0771 0.5000
H32 H 0.7013 1.1423 0.5668
C28 C 0.7197(6) 1.2035(2) 0.4284(2)
H33 H 0.7989 1.2283 0.3880
H34 H 0.6986 1.2441 0.4738
H35 H 0.5761 1.1812 0.4052
C29 C 1.0798(5) 1.1701(3) 0.4955(2)
H36 H 1.1634 1.1939 0.4556
H37 H 1.1618 1.1269 0.5151
H38 H 1.0571 1.2112 0.5402
O6? O 0.757(2) 1.4909(9) 0.1592(17)
H39? H 0.9702 1.3884 0.4161
H40? H 1.1556 1.3943 0.4850
H41? H 0.9272 1.4846 0.5028
H42? H 0.9988 1.5223 0.4250
C30? C 1.048(4) 1.4913(10) 0.4675(10)
C31? C 1.2710(14) 1.3846(5) 0.3811(5)
H43? H 1.2427 1.3266 0.3688
H44? H 1.4198 1.3959 0.4060
H45? H 1.2580 1.4095 0.3317
C32? C 1.112(2) 1.4171(7) 0.4355(7)
H46? H 0.9788 1.4297 0.4042
H47? H 1.0679 1.3758 0.4694
C33? C 1.192(6) 1.4857(12) 0.4842(12)
H48? H 1.3232 1.4736 0.5159
H49? H 1.2319 1.5267 0.4502
loop_
_geom_bond_atom_site_label_1
_geom_bond_atom_site_label_2
_geom_bond_site_symmetry_1
_geom_bond_site_symmetry_2
S1 O4 1_555 1_555
N1 O1 1_555 1_555
O2 C3 1_555 1_555
O3 C10 1_555 1_555
O5 S1 1_555 1_555
C1 N1 1_555 1_555
C2 C1 1_555 1_555
H1 C2 1_555 1_555
H2 C2 1_555 1_555
C3 C2 1_555 1_555
H3 C3 1_555 1_555
C4 C3 1_555 1_555
H4 C4 1_555 1_555
H5 C4 1_555 1_555
C5 N1 1_555 1_555
C6 C1 1_555 1_555
H6 C6 1_555 1_555
H7 C6 1_555 1_555
H8 C6 1_555 1_555
C7 C1 1_555 1_555
H9 C7 1_555 1_555
H10 C7 1_555 1_555
H11 C7 1_555 1_555
C8 C5 1_555 1_555
H12 C8 1_555 1_555
H13 C8 1_555 1_555
H14 C8 1_555 1_555
C9 C5 1_555 1_555
H15 C9 1_555 1_555
H16 C9 1_555 1_555
H17 C9 1_555 1_555
C10 O2 1_555 1_555
C11 C10 1_555 1_555
C12 C11 1_555 1_555
H18 C12 1_555 1_555
C13 C12 1_555 1_555
H19 C13 1_555 1_555
C14 C13 1_555 1_555
C15 C14 1_555 1_555
H20 C15 1_555 1_555
C16 C11 1_555 1_555
H21 C16 1_555 1_555
C17 C14 1_555 1_555
H22 C17 1_555 1_555
C18 S1 1_555 1_555
H23 C18 1_555 1_555
C19 S1 1_555 1_555
H24 C19 1_555 1_555
H25 C19 1_555 1_555
C20 C19 1_555 1_555
C21 C20 1_555 1_555
H26 C21 1_555 1_555
C22 C21 1_555 1_555
H27 C22 1_555 1_555
C23 C22 1_555 1_555
C24 C23 1_555 1_555
H28 C24 1_555 1_555
C25 C20 1_555 1_555
H29 C25 1_555 1_555
C26 C23 1_555 1_555
C27 C26 1_555 1_555
H30 C27 1_555 1_555
H31 C27 1_555 1_555
H32 C27 1_555 1_555
C28 C26 1_555 1_555
H33 C28 1_555 1_555
H34 C28 1_555 1_555
H35 C28 1_555 1_555
C29 C26 1_555 1_555
H36 C29 1_555 1_555
H37 C29 1_555 1_555
H38 C29 1_555 1_555
C4 C5 1_555 1_555
C15 C16 1_555 1_555
C17 C18 1_555 1_555
C24 C25 1_555 1_555

#END
