
#######################################################################
#
#                 Cambridge Crystallographic Data Centre
#                                CCDC 
#
#######################################################################
#
# If this CIF has been generated from an entry in the Cambridge 
# Structural Database, then it will include bibliographic, chemical, 
# crystal, experimental, refinement or atomic coordinate data resulting 
# from the CCDC's data processing and validation procedures.
#
#######################################################################

data_TAPJEB
_chemical_name_common            
'1-Carbamoylmethyl-3-ethoxycarbonylpyridinium tetrafluoroborate'
_chemical_formula_moiety         'C10 H13 N2 O3 1+,B1 F4 1-'
_chemical_name_systematic        
'1-(2-Amino-2-oxoethyl)-3-(ethoxycarbonyl)pyridinium tetrafluoroborate'
_symmetry_cell_setting           triclinic
_symmetry_space_group_name_H-M   'P -1'
_symmetry_Int_Tables_number      2
_space_group_name_Hall           '-P 1'
loop_
_symmetry_equiv_pos_site_id
_symmetry_equiv_pos_as_xyz
1 x,y,z
2 -x,-y,-z
_cell_length_a                   5.9302(4)
_cell_length_b                   8.3680(6)
_cell_length_c                   26.0876(17)
_cell_angle_alpha                89.168(4)
_cell_angle_beta                 87.153(4)
_cell_angle_gamma                87.763(4)
_cell_volume                     1291.88
_exptl_crystal_colour            colorless
_cell_formula_units_Z            4
_exptl_crystal_recrystallization_method ethanol/hexane
loop_
_atom_site_label
_atom_site_type_symbol
_atom_site_fract_x
_atom_site_fract_y
_atom_site_fract_z
B1 B 0.8523(5) 0.6313(4) 0.34122(11)
F1 F 0.7189(3) 0.7560(2) 0.36092(8)
F2 F 1.0795(3) 0.6512(2) 0.35088(6)
F3 F 0.7850(3) 0.4885(2) 0.36360(9)
F4 F 0.8338(3) 0.6249(3) 0.28847(7)
B2 B 0.1201(5) 0.1293(4) 0.15673(12)
F5 F 0.2727(6) 0.2261(4) 0.13231(13)
F6 F 0.1339(4) 0.1466(4) 0.20883(8)
F7 F 0.1679(4) -0.0237(3) 0.14177(11)
F8 F -0.0941(4) 0.1760(4) 0.14403(9)
N1 N 0.2464(3) 0.2777(3) 0.33676(8)
O1 O 0.5915(3) 0.1367(2) 0.28333(7)
N3 N 0.6193(4) 0.3356(3) 0.22377(9)
H1 H 0.7274 0.2851 0.2054
H2 H 0.5685 0.4308 0.2139
C1 C 0.3357(4) 0.2738(4) 0.38305(10)
H5 H 0.4607 0.3371 0.3893
C2 C 0.2448(5) 0.1772(5) 0.42148(11)
C3 C 0.0637(5) 0.0847(4) 0.41137(11)
H6 H -0.0005 0.0182 0.4376
C4 C -0.0231(4) 0.0893(3) 0.36335(10)
H7 H -0.1461 0.0253 0.3560
C5 C 0.0710(4) 0.1878(3) 0.32640(10)
H8 H 0.0120 0.1927 0.2932
C6 C 0.3539(4) 0.3730(3) 0.29501(10)
H9 H 0.4244 0.4666 0.3094
H10 H 0.2387 0.4124 0.2712
C7 C 0.5336(4) 0.2688(3) 0.26604(9)
O3 O 0.5277(12) 0.2422(8) 0.4770(3)
O4 O 0.2977(10) 0.0469(8) 0.5046(2)
C15 C 0.3661(12) 0.1424(9) 0.4723(3)
C16 C 0.6258(15) 0.2491(11) 0.5278(3)
H17 H 0.5062 0.2724 0.5547
H18 H 0.7038 0.1460 0.5362
C17 C 0.788(7) 0.378(8) 0.5242(15)
H19 H 0.9035 0.3544 0.4970
H20 H 0.8593 0.3871 0.5571
H21 H 0.7076 0.4797 0.5162
N2 N 0.7306(3) 0.7714(3) 0.16171(8)
O2 O 0.3854(3) 0.6450(2) 0.21495(7)
N4 N 0.3597(4) 0.8370(3) 0.27531(8)
H3 H 0.2533 0.7894 0.2938
H4 H 0.4102 0.9284 0.2854
C8 C 0.9201(5) 0.5812(4) 0.08615(11)
H11 H 0.9872 0.5160 0.0596
C9 C 0.7274(5) 0.6746(4) 0.07750(11)
C10 C 0.6320(5) 0.7692(4) 0.11654(10)
H12 H 0.4978 0.8320 0.1114
C11 C 0.9168(4) 0.6817(3) 0.17072(10)
H13 H 0.9823 0.6862 0.2031
C12 C 1.0142(4) 0.5828(3) 0.13323(10)
H14 H 1.1439 0.5170 0.1399
C13 C 0.6232(4) 0.8690(3) 0.20343(9)
H15 H 0.5524 0.9677 0.1890
H16 H 0.7383 0.8999 0.2273
C14 C 0.4442(4) 0.7711(3) 0.23213(9)
O5 O 0.7399(10) 0.6371(7) -0.0122(2)
O6 O 0.4604(8) 0.7963(6) 0.02370(19)
C18 C 0.6485(11) 0.7066(8) 0.0240(3)
C19 C 0.3626(10) 0.8199(9) -0.0269(2)
H22 H 0.3465 0.7162 -0.0438
H23 H 0.4585 0.8882 -0.0495
C20 C 0.1336(9) 0.9013(7) -0.0152(2)
H24 H 0.0410 0.8312 0.0068
H25 H 0.0586 0.9234 -0.0473
H26 H 0.1532 1.0020 0.0025
C21? C 0.3052(12) 0.2037(10) 0.4757(3)
C22? C 0.5610(16) 0.3170(11) 0.5306(3)
C23? C 0.800(7) 0.358(9) 0.5241(15)
C24? C 0.6108(11) 0.6452(8) 0.0274(3)
C25? C 0.3109(10) 0.7427(8) -0.0243(2)
C26? C 0.3619(10) 0.9006(8) -0.0487(2)
H27? H 0.5465 0.2166 0.5508
H28? H 0.4731 0.4034 0.5490
H29? H 0.8892 0.2642 0.5114
H30? H 0.8539 0.3892 0.5572
H31? H 0.8147 0.4463 0.4994
H32? H 0.1453 0.7332 -0.0194
H33? H 0.3704 0.6553 -0.0469
H34? H 0.3137 0.9865 -0.0249
H35? H 0.2808 0.9137 -0.0804
H36? H 0.5248 0.9051 -0.0566
O7? O 0.4767(12) 0.2976(8) 0.4796(3)
O8? O 0.2177(10) 0.1306(8) 0.5113(2)
O9? O 0.6981(10) 0.5695(7) -0.0077(2)
O10? O 0.4157(8) 0.7285(6) 0.02577(19)
loop_
_geom_bond_atom_site_label_1
_geom_bond_atom_site_label_2
_geom_bond_site_symmetry_1
_geom_bond_site_symmetry_2
B1 F1 1_555 1_555
B2 F5 1_555 1_555
F2 B1 1_555 1_555
F3 B1 1_555 1_555
F4 B1 1_555 1_555
F6 B2 1_555 1_555
F7 B2 1_555 1_555
F8 B2 1_555 1_555
N1 C1 1_555 1_555
N2 C10 1_555 1_555
O1 C7 1_555 1_555
N3 H1 1_555 1_555
H2 N3 1_555 1_555
O2 C14 1_555 1_555
N4 H3 1_555 1_555
H4 N4 1_555 1_555
C1 H5 1_555 1_555
C2 C1 1_555 1_555
C3 C2 1_555 1_555
H6 C3 1_555 1_555
C4 C3 1_555 1_555
H7 C4 1_555 1_555
C5 N1 1_555 1_555
H8 C5 1_555 1_555
C6 N1 1_555 1_555
H9 C6 1_555 1_555
H10 C6 1_555 1_555
C7 N3 1_555 1_555
C8 H11 1_555 1_555
C9 C8 1_555 1_555
C10 C9 1_555 1_555
H12 C10 1_555 1_555
C11 N2 1_555 1_555
H13 C11 1_555 1_555
C12 C8 1_555 1_555
H14 C12 1_555 1_555
C13 N2 1_555 1_555
H15 C13 1_555 1_555
H16 C13 1_555 1_555
C14 N4 1_555 1_555
O3 C15 1_555 1_555
O4 C15 1_555 1_555
C15 C2 1_555 1_555
C16 O3 1_555 1_555
H17 C16 1_555 1_555
H18 C16 1_555 1_555
C17 C16 1_555 1_555
H19 C17 1_555 1_555
H20 C17 1_555 1_555
H21 C17 1_555 1_555
O5 C18 1_555 1_555
O6 C18 1_555 1_555
C18 C9 1_555 1_555
C19 O6 1_555 1_555
H22 C19 1_555 1_555
H23 C19 1_555 1_555
C20 C19 1_555 1_555
H24 C20 1_555 1_555
H25 C20 1_555 1_555
H26 C20 1_555 1_555
C4 C5 1_555 1_555
C6 C7 1_555 1_555
C11 C12 1_555 1_555
C13 C14 1_555 1_555

#END
