
#######################################################################
#
#                 Cambridge Crystallographic Data Centre
#                                CCDC 
#
#######################################################################
#
# If this CIF has been generated from an entry in the Cambridge 
# Structural Database, then it will include bibliographic, chemical, 
# crystal, experimental, refinement or atomic coordinate data resulting 
# from the CCDC's data processing and validation procedures.
#
#######################################################################

data_TAPKIG
_chemical_formula_moiety         'C17 H26 N2 O7,2(C1 H1 Cl3)'
_chemical_name_systematic        
'2,3,5,6,8,9,11,12,14,15-Decahydro-1,4,7,10,13,16-benzohexaoxacyclooctadecine-18-carbohydrazide chloroform solvate'
_symmetry_cell_setting           triclinic
_symmetry_space_group_name_H-M   'P -1'
_symmetry_Int_Tables_number      2
_space_group_name_Hall           '-P 1'
loop_
_symmetry_equiv_pos_site_id
_symmetry_equiv_pos_as_xyz
1 x,y,z
2 -x,-y,-z
_cell_length_a                   10.1087(6)
_cell_length_b                   10.8879(4)
_cell_length_c                   14.3670(10)
_cell_angle_alpha                98.432(3)
_cell_angle_beta                 94.188(3)
_cell_angle_gamma                116.888(3)
_cell_volume                     1377.57
_exptl_crystal_colour            colorless
_exptl_crystal_description       prism
_cell_formula_units_Z            2
loop_
_atom_site_label
_atom_site_type_symbol
_atom_site_fract_x
_atom_site_fract_y
_atom_site_fract_z
C1 C 0.0081(3) 0.3566(3) 1.1073(2)
H1 H 0.0979 0.4354 1.1486
H2 H -0.0242 0.2733 1.1372
C2 C -0.1162(3) 0.3954(3) 1.0955(2)
H3 H -0.1364 0.4268 1.1587
H4 H -0.0876 0.4730 1.0602
C3 C -0.3850(3) 0.2757(3) 1.0513(3)
H5 H -0.3878 0.3053 1.1194
H6 H -0.4681 0.1789 1.0290
C4 C -0.4125(3) 0.3714(3) 0.9958(2)
H7 H -0.5082 0.3707 1.0072
H8 H -0.3304 0.4689 1.0171
C5 C -0.4553(4) 0.4041(3) 0.8397(3)
H9 H -0.3827 0.5052 0.8602
H10 H -0.5571 0.3920 0.8460
C6 C -0.4495(3) 0.3531(3) 0.7380(3)
H11 H -0.5139 0.2501 0.7197
H12 H -0.4874 0.3981 0.6956
C7 C -0.2865(4) 0.3308(4) 0.6354(3)
H13 H -0.3221 0.3698 0.5870
H14 H -0.3488 0.2273 0.6208
C8 C -0.1236(4) 0.3688(3) 0.6325(3)
H15 H -0.1089 0.3454 0.5661
H16 H -0.0594 0.4709 0.6568
C9 C 0.0620(4) 0.3072(3) 0.6853(2)
H17 H 0.1376 0.4066 0.7099
H18 H 0.0717 0.2808 0.6182
C10 C 0.0897(4) 0.2153(3) 0.7435(2)
H19 H 0.0095 0.1169 0.7226
H20 H 0.1872 0.2180 0.7349
C11 C 0.1297(3) 0.2033(3) 0.9071(2)
C12 C 0.1860(3) 0.1091(3) 0.8878(2)
H21 H 0.1970 0.0809 0.8243
C13 C 0.2266(3) 0.0556(3) 0.9605(2)
H22 H 0.2627 -0.0107 0.9462
C14 C 0.2149(3) 0.0983(3) 1.0533(2)
C15 C 0.1582(3) 0.1930(3) 1.0737(2)
H23 H 0.1524 0.2245 1.1378
C16 C 0.1103(3) 0.2412(3) 1.0012(2)
C17 C 0.2633(3) 0.0526(3) 1.1371(2)
N1 N 0.2687(3) -0.0687(3) 1.1185(2)
N2 N 0.3135(4) -0.1199(3) 1.1929(2)
O1 O 0.0431(2) 0.3258(2) 1.01396(16)
O2 O -0.2464(2) 0.27348(19) 1.04380(16)
O3 O -0.4191(2) 0.3252(2) 0.89764(17)
O4 O -0.2998(2) 0.3875(2) 0.72844(16)
O5 O -0.0837(2) 0.2916(2) 0.69019(17)
O6 O 0.0912(2) 0.2656(2) 0.84143(16)
O7 O 0.2949(3) 0.1230(3) 1.21836(18)
H26 H 0.345(4) -0.180(4) 1.166(3)
H27 H 0.250(4) -0.159(4) 1.215(3)
H28 H 0.239(4) -0.113(4) 1.074(3)
C18 C 0.4094(4) 0.8509(3) 0.6763(2)
H24 H 0.5180 0.9013 0.7050
Cl1 Cl 0.35769(15) 0.67343(10) 0.63359(9)
Cl2 Cl 0.30305(12) 0.86556(11) 0.76406(8)
Cl3 Cl 0.38262(12) 0.92790(10) 0.58265(7)
C19 C 0.7880(4) 0.7908(4) 0.5948(3)
H25 H 0.7420 0.8014 0.6528
Cl4 Cl 0.67560(13) 0.62508(11) 0.52526(11)
Cl5 Cl 0.96840(13) 0.81537(13) 0.63038(11)
Cl6 Cl 0.79695(18) 0.91783(14) 0.52970(13)
loop_
_geom_bond_atom_site_label_1
_geom_bond_atom_site_label_2
_geom_bond_site_symmetry_1
_geom_bond_site_symmetry_2
C1 H1 1_555 1_555
H2 C1 1_555 1_555
C2 C1 1_555 1_555
H3 C2 1_555 1_555
H4 C2 1_555 1_555
C3 H5 1_555 1_555
H6 C3 1_555 1_555
C4 C3 1_555 1_555
H7 C4 1_555 1_555
H8 C4 1_555 1_555
C5 H9 1_555 1_555
H10 C5 1_555 1_555
C6 C5 1_555 1_555
H11 C6 1_555 1_555
H12 C6 1_555 1_555
C7 H13 1_555 1_555
H14 C7 1_555 1_555
C8 C7 1_555 1_555
H15 C8 1_555 1_555
H16 C8 1_555 1_555
C9 H17 1_555 1_555
H18 C9 1_555 1_555
C10 C9 1_555 1_555
H19 C10 1_555 1_555
H20 C10 1_555 1_555
C11 C12 1_555 1_555
C12 H21 1_555 1_555
C13 C12 1_555 1_555
H22 C13 1_555 1_555
C14 C13 1_555 1_555
C15 C14 1_555 1_555
H23 C15 1_555 1_555
C16 C11 1_555 1_555
C17 C14 1_555 1_555
C18 H24 1_555 1_555
C19 H25 1_555 1_555
N1 C17 1_555 1_555
N2 N1 1_555 1_555
O1 C1 1_555 1_555
O2 C2 1_555 1_555
O3 C4 1_555 1_555
O4 C6 1_555 1_555
O5 C8 1_555 1_555
O6 C10 1_555 1_555
O7 C17 1_555 1_555
Cl1 C18 1_555 1_555
Cl2 C18 1_555 1_555
Cl3 C18 1_555 1_555
Cl4 C19 1_555 1_555
Cl5 C19 1_555 1_555
Cl6 C19 1_555 1_555
H26 N2 1_555 1_555
H27 N2 1_555 1_555
H28 N1 1_555 1_555
C3 O2 1_555 1_555
C5 O3 1_555 1_555
C7 O4 1_555 1_555
C9 O5 1_555 1_555
C11 O6 1_555 1_555
C15 C16 1_555 1_555
C16 O1 1_555 1_555

#END
