
#######################################################################
#
#                 Cambridge Crystallographic Data Centre
#                                CCDC 
#
#######################################################################
#
# If this CIF has been generated from an entry in the Cambridge 
# Structural Database, then it will include bibliographic, chemical, 
# crystal, experimental, refinement or atomic coordinate data resulting 
# from the CCDC's data processing and validation procedures.
#
#######################################################################

data_TAPMAB
_chemical_formula_moiety         'C16 H12 Br1 Cl1 N1 O2'
_chemical_name_systematic        
5-((2-bromophenoxy)methyl)-3-(4-chlorophenyl)-1,2-oxazole
_chemical_properties_biological  
'insecticidal activity against Aphis crassivora'
_symmetry_cell_setting           monoclinic
_symmetry_space_group_name_H-M   'P 21/c'
_symmetry_Int_Tables_number      14
_space_group_name_Hall           '-P 2ybc'
loop_
_symmetry_equiv_pos_site_id
_symmetry_equiv_pos_as_xyz
1 x,y,z
2 -x,1/2+y,1/2-z
3 -x,-y,-z
4 x,1/2-y,1/2+z
_cell_length_a                   12.38(2)
_cell_length_b                   12.06(2)
_cell_length_c                   10.85(2)
_cell_angle_alpha                90
_cell_angle_beta                 107.11(2)
_cell_angle_gamma                90
_cell_volume                     1548.24
_chemical_melting_point          '134.4-135.8 deg.C'
_cell_formula_units_Z            4
loop_
_atom_site_label
_atom_site_type_symbol
_atom_site_fract_x
_atom_site_fract_y
_atom_site_fract_z
Br1 Br 0.53179(6) 1.00872(4) 0.16486(6)
C1 C 0.8812(4) 0.2356(3) 0.3737(6)
C2 C 0.9331(4) 0.3082(3) 0.3106(6)
H1 H 0.9772 0.2816 0.2609
C3 C 0.9187(4) 0.4209(3) 0.3225(6)
H2 H 0.9533 0.4696 0.2794
C4 C 0.8537(4) 0.4638(3) 0.3971(5)
C5 C 0.8037(4) 0.3881(3) 0.4615(6)
H3 H 0.7602 0.4142 0.5121
C6 C 0.8181(5) 0.2728(3) 0.4509(7)
H4 H 0.7857 0.2230 0.4950
C7 C 0.8367(3) 0.5852(3) 0.4088(5)
C8 C 0.7845(4) 0.6428(3) 0.4912(5)
H5 H 0.7525 0.6121 0.5510
C9 C 0.7915(4) 0.7516(3) 0.4636(5)
C10 C 0.7560(4) 0.8571(3) 0.5150(5)
H6 H 0.7225 0.8404 0.5833
H7 H 0.8212 0.9045 0.5500
C11 C 0.6312(4) 1.0119(3) 0.4384(5)
C12 C 0.5622(4) 1.0707(3) 0.3345(5)
C13 C 0.5117(4) 1.1709(3) 0.3518(6)
H8 H 0.4652 1.2089 0.2816
C14 C 0.5325(4) 1.2127(3) 0.4766(6)
H9 H 0.5001 1.2796 0.4898
C15 C 0.6002(4) 1.1557(3) 0.5796(6)
H10 H 0.6133 1.1843 0.6622
C16 C 0.6503(4) 1.0546(3) 0.5624(5)
H11 H 0.6959 1.0165 0.6333
Cl1 Cl 0.89833(14) 0.09033(9) 0.3608(2)
N1 N 0.8725(4) 0.6558(3) 0.3385(4)
O1 O 0.8438(3) 0.7628(2) 0.3697(4)
O2 O 0.6750(3) 0.91221(19) 0.4104(3)
H12? H 0.8397 0.6420 0.2542
H13? H 0.9479 0.6499 0.3548
loop_
_geom_bond_atom_site_label_1
_geom_bond_atom_site_label_2
_geom_bond_site_symmetry_1
_geom_bond_site_symmetry_2
Br1 C12 1_555 1_555
C1 C2 1_555 1_555
C2 H1 1_555 1_555
C3 C2 1_555 1_555
H2 C3 1_555 1_555
C4 C3 1_555 1_555
C5 C4 1_555 1_555
H3 C5 1_555 1_555
C6 C1 1_555 1_555
H4 C6 1_555 1_555
C7 C4 1_555 1_555
C8 C7 1_555 1_555
H5 C8 1_555 1_555
C9 C8 1_555 1_555
C10 C9 1_555 1_555
H6 C10 1_555 1_555
H7 C10 1_555 1_555
C11 C12 1_555 1_555
C12 C13 1_555 1_555
C13 H8 1_555 1_555
C14 C13 1_555 1_555
H9 C14 1_555 1_555
C15 C14 1_555 1_555
H10 C15 1_555 1_555
C16 C11 1_555 1_555
H11 C16 1_555 1_555
Cl1 C1 1_555 1_555
N1 C7 1_555 1_555
O1 C9 1_555 1_555
O2 C10 1_555 1_555
C5 C6 1_555 1_555
C11 O2 1_555 1_555
C15 C16 1_555 1_555
N1 O1 1_555 1_555

#END
