
#######################################################################
#
#                 Cambridge Crystallographic Data Centre
#                                CCDC 
#
#######################################################################
#
# If this CIF has been generated from an entry in the Cambridge 
# Structural Database, then it will include bibliographic, chemical, 
# crystal, experimental, refinement or atomic coordinate data resulting 
# from the CCDC's data processing and validation procedures.
#
#######################################################################

data_TAPPIL
_chemical_formula_moiety         'C11 H27 N4 1+,0.5(C1 H2 Cl2),Cl1 1-'
_chemical_name_systematic        
'4,7,10-Trimethyl-4,7,10-triaza-1-azoniacyclododecane chloride dichloromethane solvate'
_symmetry_cell_setting           orthorhombic
_symmetry_space_group_name_H-M   'P b c n'
_symmetry_Int_Tables_number      60
_space_group_name_Hall           '-P 2n 2ab'
loop_
_symmetry_equiv_pos_site_id
_symmetry_equiv_pos_as_xyz
1 x,y,z
2 1/2-x,1/2-y,1/2+z
3 1/2+x,1/2-y,-z
4 -x,y,1/2-z
5 -x,-y,-z
6 1/2+x,1/2+y,1/2-z
7 1/2-x,1/2+y,z
8 x,-y,1/2+z
_cell_length_a                   15.147(3)
_cell_length_b                   19.473(4)
_cell_length_c                   10.882(2)
_cell_angle_alpha                90
_cell_angle_beta                 90
_cell_angle_gamma                90
_cell_volume                     3209.73
_exptl_crystal_colour            colorless
_exptl_crystal_description       rod
_cell_formula_units_Z            8
loop_
_atom_site_label
_atom_site_type_symbol
_atom_site_fract_x
_atom_site_fract_y
_atom_site_fract_z
N1 N 0.3409(2) 0.13713(15) 0.0805(3)
H1 H 0.338(2) 0.1235(17) 0.172(3)
H2 H 0.295(2) 0.1600(16) 0.068(3)
N2 N 0.17587(18) 0.07318(13) -0.0166(2)
N3 N 0.17601(17) 0.19928(13) 0.1227(2)
N4 N 0.32756(16) 0.28661(13) 0.0907(2)
C1 C 0.3378(2) 0.07491(16) 0.0020(3)
H3 H 0.3898 0.0455 0.0186
H4 H 0.3389 0.0882 -0.0858
C2 C 0.2539(2) 0.03603(16) 0.0302(3)
H5 H 0.2567 -0.0101 -0.0080
H6 H 0.2484 0.0299 0.1202
C3 C 0.1081(2) 0.08548(17) 0.0748(3)
H7 H 0.0935 0.0415 0.1158
H8 H 0.0541 0.1021 0.0331
C4 C 0.1352(2) 0.13741(16) 0.1716(3)
H9 H 0.0824 0.1507 0.2195
H10 H 0.1772 0.1152 0.2289
C5 C 0.2050(2) 0.24432(16) 0.2228(3)
H11 H 0.2407 0.2172 0.2815
H12 H 0.1524 0.2615 0.2672
C6 C 0.2595(2) 0.30551(17) 0.1791(3)
H13 H 0.2196 0.3397 0.1409
H14 H 0.2878 0.3275 0.2510
C7 C 0.4014(2) 0.24675(16) 0.1424(3)
H15 H 0.3873 0.2332 0.2279
H16 H 0.4553 0.2755 0.1442
C8 C 0.4181(2) 0.18325(16) 0.0657(3)
H17 H 0.4256 0.1960 -0.0217
H18 H 0.4726 0.1599 0.0938
C9 C 0.1400(2) 0.03984(19) -0.1257(3)
H19 H 0.0927 0.0682 -0.1603
H20 H 0.1163 -0.0053 -0.1033
H21 H 0.1869 0.0341 -0.1869
C10 C 0.1188(2) 0.23507(17) 0.0360(3)
H22 H 0.1484 0.2767 0.0068
H23 H 0.0634 0.2476 0.0769
H24 H 0.1061 0.2050 -0.0340
C11 C 0.3588(2) 0.34574(17) 0.0218(3)
H25 H 0.3844 0.3794 0.0785
H26 H 0.3092 0.3667 -0.0223
H27 H 0.4037 0.3310 -0.0374
Cl1 Cl 0.35176(6) 0.09949(4) 0.35176(8)
C12 C 0.5000 0.9725(3) 0.2500
H28 H 0.540(2) 0.9998(15) 0.208(3)
Cl2 Cl 0.56029(6) 0.92102(5) 0.35459(9)
H28C H 0.460(2) 0.9998(15) 0.292(3)
Cl2C Cl 0.43971(6) 0.92102(5) 0.14541(9)
loop_
_geom_bond_atom_site_label_1
_geom_bond_atom_site_label_2
_geom_bond_site_symmetry_1
_geom_bond_site_symmetry_2
N1 H1 1_555 1_555
H2 N1 1_555 1_555
N2 C2 1_555 1_555
N3 C4 1_555 1_555
N4 C6 1_555 1_555
C1 N1 1_555 1_555
H3 C1 1_555 1_555
H4 C1 1_555 1_555
C2 C1 1_555 1_555
H5 C2 1_555 1_555
H6 C2 1_555 1_555
C3 N2 1_555 1_555
H7 C3 1_555 1_555
H8 C3 1_555 1_555
C4 C3 1_555 1_555
H9 C4 1_555 1_555
H10 C4 1_555 1_555
C5 N3 1_555 1_555
H11 C5 1_555 1_555
H12 C5 1_555 1_555
C6 C5 1_555 1_555
H13 C6 1_555 1_555
H14 C6 1_555 1_555
C7 N4 1_555 1_555
H15 C7 1_555 1_555
H16 C7 1_555 1_555
C8 N1 1_555 1_555
H17 C8 1_555 1_555
H18 C8 1_555 1_555
C9 N2 1_555 1_555
H19 C9 1_555 1_555
H20 C9 1_555 1_555
H21 C9 1_555 1_555
C10 N3 1_555 1_555
H22 C10 1_555 1_555
H23 C10 1_555 1_555
H24 C10 1_555 1_555
C11 N4 1_555 1_555
H25 C11 1_555 1_555
H26 C11 1_555 1_555
H27 C11 1_555 1_555
C12 H28 1_555 1_555
Cl2 C12 1_555 1_555
H28C C12 1_555 1_555
Cl2C C12 1_555 1_555
C7 C8 1_555 1_555

#END
