
#######################################################################
#
#                 Cambridge Crystallographic Data Centre
#                                CCDC 
#
#######################################################################
#
# If this CIF has been generated from an entry in the Cambridge 
# Structural Database, then it will include bibliographic, chemical, 
# crystal, experimental, refinement or atomic coordinate data resulting 
# from the CCDC's data processing and validation procedures.
#
#######################################################################

data_TAPPEF
_chemical_formula_moiety         'C25 H42 O5,C3 H8 O1'
_chemical_name_systematic        'Methyl cholate 2-propanol clathrate'
_symmetry_cell_setting           monoclinic
_symmetry_space_group_name_H-M   'C 2'
_symmetry_Int_Tables_number      5
_space_group_name_Hall           'C 2y'
loop_
_symmetry_equiv_pos_site_id
_symmetry_equiv_pos_as_xyz
1 x,y,z
2 1/2+x,1/2+y,z
3 -x,y,-z
4 1/2-x,1/2+y,-z
_cell_length_a                   25.835(2)
_cell_length_b                   8.137(1)
_cell_length_c                   15.553(2)
_cell_angle_alpha                90
_cell_angle_beta                 121.08(1)
_cell_angle_gamma                90
_cell_volume                     2800.19
_exptl_crystal_colour            colorless
_cell_formula_units_Z            4
loop_
_atom_site_label
_atom_site_type_symbol
_atom_site_fract_x
_atom_site_fract_y
_atom_site_fract_z
C1 C 0.1517(3) -0.2027(9) 0.0961(5)
C2 C 0.0868(3) -0.1970(8) 0.0065(5)
C3 C 0.0744(3) -0.0388(9) -0.0500(4)
C4 C 0.0849(3) 0.1039(8) 0.0197(4)
C5 C 0.1494(3) 0.1055(9) 0.1108(4)
C6 C 0.1591(3) 0.2554(9) 0.1769(5)
C7 C 0.1305(3) 0.2383(8) 0.2414(4)
C8 C 0.1512(2) 0.0788(7) 0.3024(4)
C9 C 0.1360(2) -0.0716(8) 0.2310(4)
C10 C 0.1687(3) -0.0579(9) 0.1707(4)
C11 C 0.1458(3) -0.2350(8) 0.2853(5)
C12 C 0.1191(3) -0.2456(8) 0.3539(4)
C13 C 0.1408(2) -0.1017(7) 0.4288(4)
C14 C 0.1241(2) 0.0572(7) 0.3680(4)
C15 C 0.1366(3) 0.1935(8) 0.4453(4)
C16 C 0.1216(3) 0.1093(9) 0.5189(4)
C17 C 0.1095(2) -0.0744(8) 0.4904(4)
C18 C 0.2097(3) -0.1184(10) 0.5018(5)
C19 C 0.2384(3) -0.0594(13) 0.2410(5)
C20 C 0.1259(3) -0.1873(9) 0.5811(4)
C21 C 0.1173(4) -0.3666(10) 0.5562(5)
C22 C 0.0904(2) -0.1351(11) 0.6307(5)
C23 C 0.1200(4) -0.1858(12) 0.7410(5)
C24 C 0.1744(3) -0.0847(11) 0.8118(5)
O1 O 0.0135(2) -0.0362(6) -0.1356(3)
O2 O 0.0544(2) -0.2541(6) 0.2963(3)
O3 O 0.1864(4) 0.0484(11) 0.7968(5)
O4 O 0.2074(3) -0.1601(9) 0.8955(4)
O5 O 0.0660(2) 0.2455(5) 0.1804(3)
C25 C 0.2594(4) -0.0701(16) 0.9714(6)
H1 H 0.180(3) -0.194(7) 0.070(4)
H2 H 0.161(3) -0.302(8) 0.128(4)
H3 H 0.052(3) -0.210(8) 0.027(4)
H4 H 0.078(3) -0.279(8) -0.035(4)
H5 H 0.104(3) -0.017(7) -0.073(4)
H6 H 0.044(3) 0.101(8) 0.035(4)
H7 H 0.076(3) 0.210(8) -0.019(4)
H8 H 0.176(3) 0.126(8) 0.083(4)
H9 H 0.141(3) 0.360(7) 0.129(4)
H10 H 0.206(3) 0.268(8) 0.218(4)
H11 H 0.145(3) 0.347(7) 0.290(4)
H12 H 0.193(3) 0.095(7) 0.343(4)
H13 H 0.093(3) -0.069(8) 0.186(4)
H14 H 0.186(3) -0.251(8) 0.323(4)
H15 H 0.130(3) -0.324(8) 0.238(4)
H16 H 0.131(3) -0.347(7) 0.394(4)
H17 H 0.082(2) 0.051(7) 0.317(4)
H18 H 0.114(3) 0.291(8) 0.418(4)
H19 H 0.181(2) 0.225(7) 0.482(4)
H20 H 0.085(3) 0.174(8) 0.512(4)
H21 H 0.156(3) 0.119(7) 0.585(4)
H22 H 0.066(3) -0.092(8) 0.442(4)
H23 H 0.223(3) -0.031(8) 0.557(4)
H24 H 0.233(3) -0.100(8) 0.469(4)
H25 H 0.221(3) -0.234(8) 0.533(4)
H26 H 0.251(3) 0.013(9) 0.299(5)
H27 H 0.262(3) -0.034(8) 0.207(4)
H28 H 0.251(3) -0.156(9) 0.273(5)
H29 H 0.170(3) -0.183(8) 0.623(4)
H30 H 0.128(3) -0.435(8) 0.619(4)
H31 H 0.142(3) -0.397(10) 0.527(5)
H32 H 0.074(3) -0.386(9) 0.510(5)
H33 H 0.051(3) -0.173(8) 0.591(4)
H34 H 0.086(3) -0.018(7) 0.627(4)
H35 H 0.134(3) -0.326(9) 0.754(5)
H36 H 0.087(3) -0.177(8) 0.761(4)
H37 H -0.002(3) -0.080(11) -0.181(6)
H38 H 0.045(3) -0.328(9) 0.285(5)
H39 H 0.043(3) 0.150(9) 0.167(5)
H40 H 0.248(4) 0.040(10) 0.996(6)
H41 H 0.290(3) -0.029(10) 0.944(5)
H42 H 0.286(3) -0.158(10) 1.037(5)
C26 C 0.0370(4) 0.4115(14) 0.7305(7)
C27 C 0.0257(5) 0.3170(34) 0.6514(9)
C28 C 0.0910(5) 0.4051(21) 0.8203(7)
O6 O -0.0136(3) 0.4355(7) 0.7407(5)
H43 H 0.041(4) 0.517(12) 0.690(6)
H44 H -0.016 0.303 0.605
H45 H 0.050 0.218 0.676
H46 H 0.044 0.382 0.611
H47 H 0.102 0.516 0.858
H48 H 0.126 0.374 0.813
H49 H 0.088 0.323 0.865
H50 H -0.037(3) 0.387(11) 0.770(5)
loop_
_geom_bond_atom_site_label_1
_geom_bond_atom_site_label_2
_geom_bond_site_symmetry_1
_geom_bond_site_symmetry_2
C1 C2 1_555 1_555
C2 C3 1_555 1_555
C3 C4 1_555 1_555
C4 C5 1_555 1_555
C5 C6 1_555 1_555
C6 C7 1_555 1_555
C7 C8 1_555 1_555
C8 C9 1_555 1_555
C9 C10 1_555 1_555
C10 C1 1_555 1_555
C11 C9 1_555 1_555
C12 C11 1_555 1_555
C13 C12 1_555 1_555
C14 C8 1_555 1_555
C15 C14 1_555 1_555
C16 C15 1_555 1_555
C17 C13 1_555 1_555
C18 C13 1_555 1_555
C19 C10 1_555 1_555
C20 C17 1_555 1_555
C21 C20 1_555 1_555
C22 C20 1_555 1_555
C23 C22 1_555 1_555
C24 C23 1_555 1_555
O1 C3 1_555 1_555
O2 C12 1_555 1_555
O3 C24 1_555 1_555
O4 C24 1_555 1_555
O5 C7 1_555 1_555
C25 O4 1_555 1_555
H1 C1 1_555 1_555
H2 C1 1_555 1_555
H3 C2 1_555 1_555
H4 C2 1_555 1_555
H5 C3 1_555 1_555
H6 C4 1_555 1_555
H7 C4 1_555 1_555
H8 C5 1_555 1_555
H9 C6 1_555 1_555
H10 C6 1_555 1_555
H11 C7 1_555 1_555
H12 C8 1_555 1_555
H13 C9 1_555 1_555
H14 C11 1_555 1_555
H15 C11 1_555 1_555
H16 C12 1_555 1_555
H17 C14 1_555 1_555
H18 C15 1_555 1_555
H19 C15 1_555 1_555
H20 C16 1_555 1_555
H21 C16 1_555 1_555
H22 C17 1_555 1_555
H23 C18 1_555 1_555
H24 C18 1_555 1_555
H25 C18 1_555 1_555
H26 C19 1_555 1_555
H27 C19 1_555 1_555
H28 C19 1_555 1_555
H29 C20 1_555 1_555
H30 C21 1_555 1_555
H31 C21 1_555 1_555
H32 C21 1_555 1_555
H33 C22 1_555 1_555
H34 C22 1_555 1_555
H35 C23 1_555 1_555
H36 C23 1_555 1_555
H37 O1 1_555 1_555
H38 O2 1_555 1_555
H39 O5 1_555 1_555
H40 C25 1_555 1_555
H41 C25 1_555 1_555
H42 C25 1_555 1_555
C26 C27 1_555 1_555
C27 H44 1_555 1_555
C28 C26 1_555 1_555
O6 C26 1_555 1_555
H43 C26 1_555 1_555
H45 C27 1_555 1_555
H46 C27 1_555 1_555
H47 C28 1_555 1_555
H48 C28 1_555 1_555
H49 C28 1_555 1_555
H50 O6 1_555 1_555
C5 C10 1_555 1_555
C13 C14 1_555 1_555
C16 C17 1_555 1_555

#END
