
#######################################################################
#
#                 Cambridge Crystallographic Data Centre
#                                CCDC 
#
#######################################################################
#
# If this CIF has been generated from an entry in the Cambridge 
# Structural Database, then it will include bibliographic, chemical, 
# crystal, experimental, refinement or atomic coordinate data resulting 
# from the CCDC's data processing and validation procedures.
#
#######################################################################

data_TAPVAH
_chemical_formula_moiety         'C14 H12 O2'
_chemical_name_systematic        4-Methoxybenzophenone
_symmetry_cell_setting           triclinic
_symmetry_space_group_name_H-M   'P -1'
_symmetry_Int_Tables_number      2
_space_group_name_Hall           '-P 1'
loop_
_symmetry_equiv_pos_site_id
_symmetry_equiv_pos_as_xyz
1 x,y,z
2 -x,-y,-z
_cell_length_a                   9.636(5)
_cell_length_b                   13.906(4)
_cell_length_c                   9.293(4)
_cell_angle_alpha                108.25(2)
_cell_angle_beta                 109.91(2)
_cell_angle_gamma                88.17(3)
_cell_volume                     1108.02
_exptl_crystal_colour            colorless
_cell_formula_units_Z            4
loop_
_atom_site_label
_atom_site_type_symbol
_atom_site_fract_x
_atom_site_fract_y
_atom_site_fract_z
O1 O 0.5349(2) 0.2188(1) 0.4655(2)
O2 O 0.8409(2) 0.6636(1) 0.8488(2)
C1 C 0.6365(2) 0.2495(2) 0.5949(3)
C2 C 0.8134(3) 0.7256(2) 0.7472(3)
C3 C 0.6921(2) 0.3583(2) 0.6629(2)
C4 C 0.7691(2) 0.4068(2) 0.8274(3)
C5 C 0.8142(2) 0.5084(2) 0.8855(2)
C6 C 0.7869(2) 0.5648(2) 0.7806(2)
C7 C 0.7097(2) 0.5183(2) 0.6167(2)
C8 C 0.6633(2) 0.4168(2) 0.5605(2)
C9 C 0.7020(2) 0.1773(2) 0.6843(3)
C10 C 0.8531(2) 0.1800(2) 0.7631(3)
C11 C 0.9115(3) 0.1064(2) 0.8319(3)
C12 C 0.8192(3) 0.0306(2) 0.8255(3)
C13 C 0.6688(3) 0.0274(2) 0.7488(3)
C14 C 0.6102(3) 0.0996(2) 0.6770(3)
H1 H 0.7912 0.3682 0.9006
H2 H 0.8656 0.5416 0.9991
H3 H 0.6088 0.3834 0.4460
H16 H 0.6891 0.5574 0.5444
H17 H 0.8592 -0.0207 0.8745
H18 H 1.0162 0.1078 0.8873
H19 H 0.5037 0.0982 0.6221
H20 H 0.9187 0.2341 0.7687
H21 H 0.8571 0.7935 0.8081
H22 H 0.8550 0.6990 0.6636
H23 H 0.7096 0.7282 0.6971
H24 H 0.6057 -0.0277 0.7436
O3 O 0.0237(2) 0.2209(1) 0.5018(2)
O4 O 0.3527(2) 0.6601(1) 0.8501(2)
C15 C 0.1362(2) 0.2489(2) 0.6207(3)
C16 C 0.2547(3) 0.7379(2) 0.8366(4)
C17 C 0.1950(2) 0.3577(2) 0.6845(2)
C18 C 0.3459(2) 0.3887(2) 0.7547(3)
C19 C 0.3942(2) 0.4896(2) 0.8054(2)
C20 C 0.2937(2) 0.5619(2) 0.7913(2)
C21 C 0.1434(2) 0.5327(2) 0.7216(3)
C22 C 0.0955(2) 0.4309(2) 0.6666(3)
C23 C 0.2099(2) 0.1754(2) 0.7032(3)
C24 C 0.1838(3) 0.0721(2) 0.6161(3)
C25 C 0.2391(3) 0.0012(2) 0.6919(4)
C26 C 0.3205(3) 0.0317(2) 0.8545(4)
C27 C 0.3472(3) 0.1336(2) 0.9424(3)
C28 C 0.2932(2) 0.2055(2) 0.8673(3)
H4 H 0.4985 0.5113 0.8529
H5 H 0.4163 0.3389 0.7680
H6 H 0.0725 0.5828 0.7115
H7 H -0.0090 0.4092 0.6145
H8 H 0.3120 0.2773 0.9287
H9 H 0.2212 -0.0699 0.6325
H10 H 0.1259 0.0496 0.5023
H11 H 0.4036 0.1549 1.0574
H12 H 0.3093 0.8026 0.8823
H13 H 0.1967 0.7280 0.7269
H14 H 0.1892 0.7372 0.8948
H15 H 0.3628 -0.0185 0.9083
loop_
_geom_bond_atom_site_label_1
_geom_bond_atom_site_label_2
_geom_bond_site_symmetry_1
_geom_bond_site_symmetry_2
O1 C1 1_555 1_555
O2 C2 1_555 1_555
C1 C3 1_555 1_555
C2 H21 1_555 1_555
C3 C4 1_555 1_555
C4 C5 1_555 1_555
C5 C6 1_555 1_555
C6 O2 1_555 1_555
C7 C6 1_555 1_555
C8 C3 1_555 1_555
C9 C1 1_555 1_555
C10 C9 1_555 1_555
C11 C10 1_555 1_555
C12 C11 1_555 1_555
C13 C12 1_555 1_555
C14 C9 1_555 1_555
O3 C15 1_555 1_555
O4 C16 1_555 1_555
C15 C17 1_555 1_555
C16 H12 1_555 1_555
C17 C18 1_555 1_555
C18 C19 1_555 1_555
C19 C20 1_555 1_555
C20 O4 1_555 1_555
C21 C20 1_555 1_555
C22 C17 1_555 1_555
C23 C15 1_555 1_555
C24 C23 1_555 1_555
C25 C24 1_555 1_555
C26 C25 1_555 1_555
C27 C26 1_555 1_555
C28 C23 1_555 1_555
H1 C4 1_555 1_555
H2 C5 1_555 1_555
H3 C8 1_555 1_555
H4 C19 1_555 1_555
H5 C18 1_555 1_555
H6 C21 1_555 1_555
H7 C22 1_555 1_555
H8 C28 1_555 1_555
H9 C25 1_555 1_555
H10 C24 1_555 1_555
H11 C27 1_555 1_555
H13 C16 1_555 1_555
H14 C16 1_555 1_555
H15 C26 1_555 1_555
H16 C7 1_555 1_555
H17 C12 1_555 1_555
H18 C11 1_555 1_555
H19 C14 1_555 1_555
H20 C10 1_555 1_555
H22 C2 1_555 1_555
H23 C2 1_555 1_555
H24 C13 1_555 1_555
C7 C8 1_555 1_555
C13 C14 1_555 1_555
C21 C22 1_555 1_555
C27 C28 1_555 1_555

#END
