
#######################################################################
#
#                 Cambridge Crystallographic Data Centre
#                                CCDC 
#
#######################################################################
#
# If this CIF has been generated from an entry in the Cambridge 
# Structural Database, then it will include bibliographic, chemical, 
# crystal, experimental, refinement or atomic coordinate data resulting 
# from the CCDC's data processing and validation procedures.
#
#######################################################################

data_TAPYIV
_chemical_formula_moiety         'C7 H17 B10 N1 O2 S2'
_chemical_name_systematic        
7-(2-thienylsulfonylamino)-1-methyl-1,2-dicarba-closo-dodecaborane
_symmetry_cell_setting           monoclinic
_symmetry_space_group_name_H-M   'P 21/c'
_symmetry_Int_Tables_number      14
_space_group_name_Hall           '-P 2ybc'
loop_
_symmetry_equiv_pos_site_id
_symmetry_equiv_pos_as_xyz
1 x,y,z
2 -x,1/2+y,1/2-z
3 -x,-y,-z
4 x,1/2-y,1/2+z
_cell_length_a                   7.9271(7)
_cell_length_b                   23.258(2)
_cell_length_c                   9.1336(9)
_cell_angle_alpha                90
_cell_angle_beta                 97.967(2)
_cell_angle_gamma                90
_cell_volume                     1667.69
_exptl_crystal_colour            colorless
_exptl_crystal_description       block
_cell_formula_units_Z            4
loop_
_atom_site_label
_atom_site_type_symbol
_atom_site_fract_x
_atom_site_fract_y
_atom_site_fract_z
N1 N 0.2288(3) 0.45091(8) 0.0666(2)
H1 H 0.147(3) 0.4652(12) 0.100(3)
O1 O 0.3473(3) 0.44210(9) -0.1689(2)
O2 O 0.0908(3) 0.50097(8) -0.1517(2)
S1 S -0.14388(18) 0.38879(7) -0.12239(19)
S2 S 0.19040(8) 0.45012(2) -0.11084(7)
B1 B 0.4413(4) 0.43313(13) 0.3298(3)
H2 H 0.4375 0.4789 0.3590
B2 B 0.3253(3) 0.40709(11) 0.1616(3)
B3 B 0.4493(5) 0.34961(14) 0.1052(4)
H3 H 0.4505 0.3403 -0.0127
B4 B 0.6348(5) 0.34145(18) 0.2348(4)
H4 H 0.7561 0.3271 0.2013
B5 B 0.4543(4) 0.37950(15) 0.4653(3)
H5 H 0.4577 0.3895 0.5834
B6 B 0.2661(4) 0.38774(15) 0.3356(4)
H6 H 0.1460 0.4031 0.3690
B7 B 0.2702(5) 0.33481(13) 0.1963(4)
H7 H 0.1532 0.3152 0.1386
B8 B 0.4607(5) 0.29490(15) 0.2412(4)
H8 H 0.4670 0.2491 0.2124
B9 B 0.5742(4) 0.32229(14) 0.4058(4)
H9 H 0.6558 0.2949 0.4844
B10 B 0.3476(5) 0.31838(16) 0.3835(4)
H10 H 0.2799 0.2883 0.4479
C1 C 0.5457(3) 0.40792(13) 0.1950(3)
H11 H 0.603(4) 0.4358(14) 0.147(4)
C2 C 0.6192(3) 0.39198(12) 0.3694(3)
C3 C 0.7806(4) 0.42118(18) 0.4421(4)
H12 H 0.8627 0.4222 0.3741
H13 H 0.8266 0.4001 0.5289
H14 H 0.7547 0.4597 0.4693
C4 C 0.0612(3) 0.39070(11) -0.1621(3)
C5 C 0.101(3) 0.3403(7) -0.230(2)
H15 H 0.2052 0.3336 -0.2629
C6 C -0.0337(6) 0.30050(16) -0.2440(5)
H16 H -0.0305 0.2641 -0.2860
C7 C -0.1666(5) 0.32236(16) -0.1885(4)
H17 H -0.2666 0.3016 -0.1869
S3? S 0.1349(19) 0.3353(5) -0.2463(16)
C8? C -0.1037(19) 0.3736(6) -0.1212(18)
H18? H -0.1611 0.3947 -0.0570
loop_
_geom_bond_atom_site_label_1
_geom_bond_atom_site_label_2
_geom_bond_site_symmetry_1
_geom_bond_site_symmetry_2
N1 H1 1_555 1_555
O1 S2 1_555 1_555
O2 S2 1_555 1_555
S1 C4 1_555 1_555
S2 N1 1_555 1_555
B1 H2 1_555 1_555
B2 N1 1_555 1_555
B3 B2 1_555 1_555
H3 B3 1_555 1_555
B4 B3 1_555 1_555
H4 B4 1_555 1_555
B5 B1 1_555 1_555
H5 B5 1_555 1_555
B6 B1 1_555 1_555
H6 B6 1_555 1_555
B7 B2 1_555 1_555
H7 B7 1_555 1_555
B8 B3 1_555 1_555
H8 B8 1_555 1_555
B9 B4 1_555 1_555
H9 B9 1_555 1_555
B10 B5 1_555 1_555
H10 B10 1_555 1_555
C1 B1 1_555 1_555
H11 C1 1_555 1_555
C2 B1 1_555 1_555
C3 C2 1_555 1_555
H12 C3 1_555 1_555
H13 C3 1_555 1_555
H14 C3 1_555 1_555
C4 S2 1_555 1_555
C5 C4 1_555 1_555
H15 C5 1_555 1_555
C6 C5 1_555 1_555
H16 C6 1_555 1_555
C7 S1 1_555 1_555
H17 C7 1_555 1_555
B1 B2 1_555 1_555
B2 B6 1_555 1_555
B2 C1 1_555 1_555
B3 B7 1_555 1_555
B3 C1 1_555 1_555
B4 B8 1_555 1_555
B4 C1 1_555 1_555
B4 C2 1_555 1_555
B5 B6 1_555 1_555
B5 B9 1_555 1_555
B5 C2 1_555 1_555
B6 B7 1_555 1_555
B6 B10 1_555 1_555
B7 B8 1_555 1_555
B7 B10 1_555 1_555
B8 B9 1_555 1_555
B8 B10 1_555 1_555
B9 B10 1_555 1_555
B9 C2 1_555 1_555
C1 C2 1_555 1_555
C6 C7 1_555 1_555

#END
