
#######################################################################
#
#                 Cambridge Crystallographic Data Centre
#                                CCDC 
#
#######################################################################
#
# If this CIF has been generated from an entry in the Cambridge 
# Structural Database, then it will include bibliographic, chemical, 
# crystal, experimental, refinement or atomic coordinate data resulting 
# from the CCDC's data processing and validation procedures.
#
#######################################################################

data_TAPYER
_chemical_formula_moiety         'C11 H22 B10 N2 O3 S1'
_chemical_name_systematic        
2-methyl-4-(4-(acetylamino)phenylsulfonylamino)-1,2-dicarba-closo-dodecaborane
_symmetry_cell_setting           triclinic
_symmetry_space_group_name_H-M   'P -1'
_symmetry_Int_Tables_number      2
_space_group_name_Hall           '-P 1'
loop_
_symmetry_equiv_pos_site_id
_symmetry_equiv_pos_as_xyz
1 x,y,z
2 -x,-y,-z
_cell_length_a                   11.9457(13)
_cell_length_b                   13.2000(13)
_cell_length_c                   14.9674(16)
_cell_angle_alpha                102.184(3)
_cell_angle_beta                 106.206(3)
_cell_angle_gamma                113.041(3)
_cell_volume                     1943.72
_exptl_crystal_colour            colorless
_exptl_crystal_description       block
_cell_formula_units_Z            4
loop_
_atom_site_label
_atom_site_type_symbol
_atom_site_fract_x
_atom_site_fract_y
_atom_site_fract_z
C2 C 0.3120(7) 0.3645(9) 0.4673(6)
H4 H 0.3352 0.3676 0.5349
H5 H 0.3462 0.4434 0.4670
H6 H 0.3495 0.3240 0.4349
C3 C 0.1537(5) 0.2956(8) 0.4090(5)
B1 B 0.0968(4) 0.3084(5) 0.5000(4)
H7 H 0.1610 0.3405 0.5796
B2 B -0.0672(3) 0.1974(3) 0.4517(2)
B3 B -0.1088(7) 0.1142(4) 0.3268(3)
H8 H -0.1802 0.0192 0.2934
B4 B 0.0715(6) 0.3180(6) 0.3077(4)
H9 H 0.1207 0.3567 0.2620
B5 B 0.1096(5) 0.4017(5) 0.4297(4)
H10 H 0.1811 0.4966 0.4630
B6 B -0.0298(5) 0.3421(3) 0.4571(3)
H11 H -0.0507 0.3979 0.5085
B7 B -0.1568(4) 0.2209(4) 0.3499(3)
H12 H -0.2620 0.1965 0.3308
B8 B -0.0939(6) 0.2077(4) 0.2576(3)
H13 H -0.1561 0.1757 0.1776
B9 B -0.0466(4) 0.3478(3) 0.3368(3)
H14 H -0.0790 0.4068 0.3091
C4 C -0.0028(2) 0.2678(2) 0.70717(18)
C5 C 0.1255(3) 0.3329(2) 0.7795(2)
C6 C 0.1601(3) 0.4350(3) 0.8533(2)
C7 C 0.0682(2) 0.4728(2) 0.85672(19)
C8 C -0.0599(3) 0.4082(3) 0.7825(2)
C9 C -0.0946(3) 0.3059(3) 0.7085(2)
C10 C 0.0384(3) 0.6272(2) 0.9597(2)
C11 C 0.1166(3) 0.7430(3) 1.0463(2)
H15 H 0.1360 0.8068 1.0218
H16 H 0.1982 0.7488 1.0874
H17 H 0.0656 0.7475 1.0850
B10 B 0.0231(9) 0.1720(6) 0.2996(5)
H18 H 0.0592 0.1279 0.2527
C12 C 0.0431(5) 0.1732(5) 0.4153(3)
H19 H 0.0761 0.1132 0.4403
H20 H 0.248(3) 0.477(3) 0.907(2)
H21 H -0.118(4) 0.435(3) 0.789(3)
H22 H -0.177(4) 0.261(3) 0.660(3)
H23 H 0.190(3) 0.607(3) 0.974(2)
H24 H 0.189(3) 0.311(3) 0.777(2)
H25 H -0.2224(14) 0.116(3) 0.495(3)
N1 N -0.1287(2) 0.13303(18) 0.50887(16)
N2 N 0.1109(2) 0.5779(2) 0.93522(17)
O1 O 0.06526(18) 0.12684(16) 0.61614(14)
O2 O -0.14721(18) 0.04171(16) 0.63426(14)
O3 O -0.08147(19) 0.58287(18) 0.91454(15)
S1 S -0.05160(6) 0.13334(5) 0.61569(5)
B11 B 0.2936(5) 0.2215(3) 0.0124(3)
H26 H 0.2299 0.2110 -0.0617
B12 B 0.3623(3) 0.3509(3) 0.1204(2)
B13 B 0.5187(4) 0.3730(4) 0.1973(3)
H27 H 0.6014 0.4624 0.2439
B14 B 0.5453(7) 0.2597(6) 0.1381(5)
H28 H 0.6454 0.2754 0.1453
B15 B 0.2696(7) 0.1014(4) 0.0523(4)
H29 H 0.1884 0.0120 0.0039
B16 B 0.2396(4) 0.2141(3) 0.1104(3)
H30 H 0.1389 0.1991 0.1008
B17 B 0.3789(4) 0.3065(4) 0.2253(3)
H31 H 0.3696 0.3520 0.2912
B18 B 0.4926(5) 0.2502(5) 0.2360(4)
H32 H 0.5577 0.2589 0.3089
B19 B 0.4252(7) 0.1251(5) 0.1298(5)
H33 H 0.4455 0.0510 0.1321
B20 B 0.3211(5) 0.1531(4) 0.1832(4)
H34 H 0.2732 0.0982 0.2213
C13 C 0.4097(6) 0.1725(4) 0.0330(4)
C14 C 0.4842(2) 0.6548(2) 0.26112(18)
C15 C 0.3932(2) 0.6227(2) 0.30387(19)
C16 C 0.4217(2) 0.6950(2) 0.39797(19)
C17 C 0.5425(2) 0.7989(2) 0.44855(18)
C18 C 0.6365(2) 0.8265(2) 0.40758(19)
C19 C 0.6078(2) 0.7545(2) 0.3135(2)
C20 C 0.4893(3) 0.9130(2) 0.56601(19)
C21 C 0.5494(3) 1.0094(2) 0.6651(2)
H35 H 0.5654 1.0827 0.6558
H36 H 0.6318 1.0158 0.7054
H37 H 0.4895 0.9914 0.6980
C22 C 0.4592(4) 0.3138(3) 0.0713(3)
C23 C 0.4327(8) 0.1210(5) -0.0557(5)
H38 H 0.3982 0.1438 -0.1093
H39 H 0.3885 0.0364 -0.0767
H40 H 0.5263 0.1499 -0.0374
H41 H 0.257(4) 0.434(3) 0.085(3)
H42 H 0.650(3) 0.925(3) 0.575(2)
H43 H 0.363(3) 0.674(2) 0.4313(18)
H44 H 0.723(3) 0.900(3) 0.441(2)
H45 H 0.667(3) 0.775(2) 0.285(2)
H46 H 0.311(3) 0.551(3) 0.267(2)
N3 N 0.3338(2) 0.44494(19) 0.10356(17)
N4 N 0.5734(2) 0.8781(2) 0.54247(16)
O4 O 0.37023(18) 0.63165(16) 0.08019(14)
O5 O 0.55510(18) 0.58733(17) 0.12022(14)
O6 O 0.37301(18) 0.86918(18) 0.50968(14)
S2 S 0.43862(6) 0.58028(5) 0.13388(4)
H47 H 0.501(4) 0.355(3) 0.032(3)
C1? C -0.0065(9) 0.0549(7) 0.2131(6)
H1? H -0.0613 -0.0147 0.2222
H2? H 0.0760 0.0564 0.2176
H3? H -0.0515 0.0539 0.1486
loop_
_geom_bond_atom_site_label_1
_geom_bond_atom_site_label_2
_geom_bond_site_symmetry_1
_geom_bond_site_symmetry_2
C2 H4 1_555 1_555
H5 C2 1_555 1_555
H6 C2 1_555 1_555
C3 C2 1_555 1_555
B1 C3 1_555 1_555
H7 B1 1_555 1_555
B2 B1 1_555 1_555
B3 B2 1_555 1_555
H8 B3 1_555 1_555
B4 C3 1_555 1_555
H9 B4 1_555 1_555
B5 C3 1_555 1_555
H10 B5 1_555 1_555
B6 B1 1_555 1_555
H11 B6 1_555 1_555
B7 B2 1_555 1_555
H12 B7 1_555 1_555
B8 B3 1_555 1_555
H13 B8 1_555 1_555
B9 B4 1_555 1_555
H14 B9 1_555 1_555
C4 C5 1_555 1_555
C5 C6 1_555 1_555
C6 C7 1_555 1_555
C7 C8 1_555 1_555
C8 C9 1_555 1_555
C9 C4 1_555 1_555
C10 C11 1_555 1_555
C11 H15 1_555 1_555
H16 C11 1_555 1_555
H17 C11 1_555 1_555
B10 C3 1_555 1_555
H18 B10 1_555 1_555
C12 C3 1_555 1_555
H19 C12 1_555 1_555
H20 C6 1_555 1_555
H21 C8 1_555 1_555
H22 C9 1_555 1_555
H23 N2 1_555 1_555
H24 C5 1_555 1_555
H25 N1 1_555 1_555
N1 B2 1_555 1_555
N2 C7 1_555 1_555
O1 S1 1_555 1_555
O2 S1 1_555 1_555
O3 C10 1_555 1_555
S1 C4 1_555 1_555
B11 H26 1_555 1_555
B12 B11 1_555 1_555
B13 B12 1_555 1_555
H27 B13 1_555 1_555
B14 B13 1_555 1_555
H28 B14 1_555 1_555
B15 B11 1_555 1_555
H29 B15 1_555 1_555
B16 B11 1_555 1_555
H30 B16 1_555 1_555
B17 B12 1_555 1_555
H31 B17 1_555 1_555
B18 B13 1_555 1_555
H32 B18 1_555 1_555
B19 B14 1_555 1_555
H33 B19 1_555 1_555
B20 B15 1_555 1_555
H34 B20 1_555 1_555
C13 B11 1_555 1_555
C14 C15 1_555 1_555
C15 C16 1_555 1_555
C16 C17 1_555 1_555
C17 C18 1_555 1_555
C18 C19 1_555 1_555
C19 C14 1_555 1_555
C20 C21 1_555 1_555
C21 H35 1_555 1_555
H36 C21 1_555 1_555
H37 C21 1_555 1_555
C22 B11 1_555 1_555
C23 C13 1_555 1_555
H38 C23 1_555 1_555
H39 C23 1_555 1_555
H40 C23 1_555 1_555
H41 N3 1_555 1_555
H42 N4 1_555 1_555
H43 C16 1_555 1_555
H44 C18 1_555 1_555
H45 C19 1_555 1_555
H46 C15 1_555 1_555
N3 B12 1_555 1_555
N4 C17 1_555 1_555
O4 S2 1_555 1_555
O5 S2 1_555 1_555
O6 C20 1_555 1_555
S2 C14 1_555 1_555
H47 C22 1_555 1_555
B1 B5 1_555 1_555
B1 C12 1_555 1_555
B2 B6 1_555 1_555
B2 C12 1_555 1_555
B3 B7 1_555 1_555
B3 B10 1_555 1_555
B3 C12 1_555 1_555
B4 B5 1_555 1_555
B4 B8 1_555 1_555
B4 B10 1_555 1_555
B5 B6 1_555 1_555
B5 B9 1_555 1_555
B6 B7 1_555 1_555
B6 B9 1_555 1_555
B7 B8 1_555 1_555
B7 B9 1_555 1_555
B8 B9 1_555 1_555
B8 B10 1_555 1_555
C10 N2 1_555 1_555
B10 C12 1_555 1_555
N1 S1 1_555 1_555
B12 B16 1_555 1_555
B12 C22 1_555 1_555
B13 B17 1_555 1_555
B13 C22 1_555 1_555
B14 B18 1_555 1_555
B14 C13 1_555 1_555
B14 C22 1_555 1_555
B15 B16 1_555 1_555
B15 B19 1_555 1_555
B15 C13 1_555 1_555
B16 B17 1_555 1_555
B16 B20 1_555 1_555
B17 B18 1_555 1_555
B17 B20 1_555 1_555
B18 B19 1_555 1_555
B18 B20 1_555 1_555
B19 B20 1_555 1_555
B19 C13 1_555 1_555
C13 C22 1_555 1_555
C20 N4 1_555 1_555
N3 S2 1_555 1_555

#END
