
#######################################################################
#
#                 Cambridge Crystallographic Data Centre
#                                CCDC 
#
#######################################################################
#
# If this CIF has been generated from an entry in the Cambridge 
# Structural Database, then it will include bibliographic, chemical, 
# crystal, experimental, refinement or atomic coordinate data resulting 
# from the CCDC's data processing and validation procedures.
#
#######################################################################

data_TAPZIU
_chemical_name_common            '12-Crown-4 bis(triphenylmethanethiol)'
_chemical_formula_moiety         'C8 H16 O4,2(C19 H16 S1)'
_chemical_name_systematic        
'1,4,7,10-Tetraoxacyclododecane bis(triphenylmethanethiol)'
_symmetry_cell_setting           triclinic
_symmetry_space_group_name_H-M   'P -1'
_symmetry_Int_Tables_number      2
_space_group_name_Hall           '-P 1'
loop_
_symmetry_equiv_pos_site_id
_symmetry_equiv_pos_as_xyz
1 x,y,z
2 -x,-y,-z
_cell_length_a                   8.5960(10)
_cell_length_b                   9.8030(10)
_cell_length_c                   12.3530(10)
_cell_angle_alpha                84.350(10)
_cell_angle_beta                 89.180(10)
_cell_angle_gamma                73.610(10)
_cell_volume                     993.694
_exptl_crystal_colour            yellow
_exptl_crystal_description       prism
_chemical_melting_point          '341-343 K'
_cell_formula_units_Z            1
loop_
_atom_site_label
_atom_site_type_symbol
_atom_site_fract_x
_atom_site_fract_y
_atom_site_fract_z
S1 S 0.24659(7) 0.42993(7) 0.37779(4)
H1 H 0.226(3) 0.302(3) 0.410(2)
C1 C 0.1493(2) 0.45193(18) 0.24092(13)
C2 C -0.0065(2) 0.40525(18) 0.25076(14)
C3 C -0.1124(3) 0.4436(2) 0.33557(18)
H2 H -0.0852 0.4928 0.3896
C4 C -0.2582(3) 0.4093(3) 0.3406(2)
H3 H -0.3282 0.4363 0.3977
C5 C -0.2999(3) 0.3363(3) 0.2625(2)
H4 H -0.3978 0.3134 0.2664
C6 C -0.1967(3) 0.2969(2) 0.1781(2)
H5 H -0.2244 0.2468 0.1248
C7 C -0.0507(2) 0.3316(2) 0.17214(17)
H6 H 0.0183 0.3050 0.1145
C8 C 0.2703(2) 0.36263(19) 0.16457(14)
C9 C 0.3407(2) 0.2174(2) 0.19310(17)
H7 H 0.3152 0.1755 0.2593
C10 C 0.4473(3) 0.1348(2) 0.1253(2)
H8 H 0.4932 0.0381 0.1460
C11 C 0.4865(3) 0.1948(3) 0.0266(2)
H9 H 0.5593 0.1391 -0.0190
C12 C 0.4171(3) 0.3370(2) -0.00341(17)
H10 H 0.4425 0.3778 -0.0701
C13 C 0.3092(2) 0.4210(2) 0.06455(15)
H11 H 0.2625 0.5173 0.0428
C14 C 0.1108(2) 0.61228(18) 0.20430(13)
C15 C -0.0308(3) 0.6842(2) 0.14746(15)
H12 H -0.1053 0.6355 0.1328
C16 C -0.0627(3) 0.8289(2) 0.11203(19)
H13 H -0.1576 0.8757 0.0730
C17 C 0.0449(4) 0.9025(3) 0.1343(2)
H14 H 0.0220 0.9996 0.1119
C18 C 0.1854(4) 0.8331(3) 0.1895(2)
H15 H 0.2588 0.8829 0.2044
C19 C 0.2196(3) 0.6884(2) 0.22349(17)
H16 H 0.3170 0.6417 0.2597
O1 O 0.2470(2) 0.09805(19) 0.50275(13)
O2 O 0.4658(2) -0.09056(18) 0.36564(13)
C20 C 0.2523(3) 0.1012(3) 0.6174(2)
H17 H 0.2822 0.0043 0.6525
H18 H 0.1457 0.1505 0.6425
C21 C 0.2290(3) -0.0306(3) 0.4679(2)
H19 H 0.1706 -0.0091 0.3989
H20 H 0.1648 -0.0704 0.5205
C22 C 0.3858(3) -0.1378(3) 0.4553(2)
H21 H 0.4517 -0.1507 0.5207
H22 H 0.3681 -0.2288 0.4440
C23 C 0.3703(3) 0.1744(3) 0.6472(2)
H23 H 0.3543 0.1954 0.7223
H24 H 0.3515 0.2644 0.6020
O1A O 0.7530(2) -0.09805(19) 0.49725(13)
O2A O 0.5342(2) 0.09056(18) 0.63436(13)
C20A C 0.7477(3) -0.1012(3) 0.3826(2)
H17A H 0.7178 -0.0043 0.3475
H18A H 0.8543 -0.1505 0.3575
C21A C 0.7710(3) 0.0306(3) 0.5321(2)
H19A H 0.8294 0.0091 0.6011
H20A H 0.8352 0.0704 0.4795
C22A C 0.6142(3) 0.1378(3) 0.5447(2)
H21A H 0.5483 0.1507 0.4793
H22A H 0.6319 0.2288 0.5560
C23A C 0.6297(3) -0.1744(3) 0.3528(2)
H23A H 0.6457 -0.1954 0.2777
H24A H 0.6485 -0.2644 0.3980
loop_
_geom_bond_atom_site_label_1
_geom_bond_atom_site_label_2
_geom_bond_site_symmetry_1
_geom_bond_site_symmetry_2
S1 H1 1_555 1_555
O1 C20 1_555 1_555
O2 C22 1_555 1_555
C1 S1 1_555 1_555
C2 C1 1_555 1_555
C3 C2 1_555 1_555
H2 C3 1_555 1_555
C4 C3 1_555 1_555
H3 C4 1_555 1_555
C5 C4 1_555 1_555
H4 C5 1_555 1_555
C6 C5 1_555 1_555
H5 C6 1_555 1_555
C7 C2 1_555 1_555
H6 C7 1_555 1_555
C8 C1 1_555 1_555
C9 C8 1_555 1_555
H7 C9 1_555 1_555
C10 C9 1_555 1_555
H8 C10 1_555 1_555
C11 C10 1_555 1_555
H9 C11 1_555 1_555
C12 C11 1_555 1_555
H10 C12 1_555 1_555
C13 C8 1_555 1_555
H11 C13 1_555 1_555
C14 C1 1_555 1_555
C15 C14 1_555 1_555
H12 C15 1_555 1_555
C16 C15 1_555 1_555
H13 C16 1_555 1_555
C17 C16 1_555 1_555
H14 C17 1_555 1_555
C18 C17 1_555 1_555
H15 C18 1_555 1_555
C19 C14 1_555 1_555
H16 C19 1_555 1_555
C20 H17 1_555 1_555
H18 C20 1_555 1_555
C21 O1 1_555 1_555
H19 C21 1_555 1_555
H20 C21 1_555 1_555
C22 C21 1_555 1_555
H21 C22 1_555 1_555
H22 C22 1_555 1_555
C23 C20 1_555 1_555
H23 C23 1_555 1_555
H24 C23 1_555 1_555
O1A C20A 1_555 1_555
O2A C23 1_555 1_555
C20A H17A 1_555 1_555
H18A C20A 1_555 1_555
C21A O1A 1_555 1_555
H19A C21A 1_555 1_555
H20A C21A 1_555 1_555
C22A O2A 1_555 1_555
H21A C22A 1_555 1_555
H22A C22A 1_555 1_555
C23A O2 1_555 1_555
H23A C23A 1_555 1_555
H24A C23A 1_555 1_555
C6 C7 1_555 1_555
C12 C13 1_555 1_555
C18 C19 1_555 1_555
C20A C23A 1_555 1_555
C21A C22A 1_555 1_555

#END
