
#######################################################################
#
#                 Cambridge Crystallographic Data Centre
#                                CCDC 
#
#######################################################################
#
# If this CIF has been generated from an entry in the Cambridge 
# Structural Database, then it will include bibliographic, chemical, 
# crystal, experimental, refinement or atomic coordinate data resulting 
# from the CCDC's data processing and validation procedures.
#
#######################################################################

data_TAQBOE
_chemical_formula_moiety         'C27 H20 Br1 N1 O4'
_chemical_name_systematic        
'Benzyl 9-(4-bromophenyl)-4-oxo-2-phenyl-3-oxa-1-azaspiro[4.4]nona-1,6-diene-6-carboxylate'
_symmetry_cell_setting           monoclinic
_symmetry_space_group_name_H-M   'P 21'
_symmetry_Int_Tables_number      4
_space_group_name_Hall           'P 2yb'
loop_
_symmetry_equiv_pos_site_id
_symmetry_equiv_pos_as_xyz
1 x,y,z
2 -x,1/2+y,-z
_cell_length_a                   13.1287(16)
_cell_length_b                   5.9348(7)
_cell_length_c                   15.3288(19)
_cell_angle_alpha                90
_cell_angle_beta                 111.831(2)
_cell_angle_gamma                90
_cell_volume                     1108.71
_exptl_crystal_colour            colorless
_exptl_crystal_description       prismatic
_cell_formula_units_Z            2
loop_
_atom_site_label
_atom_site_type_symbol
_atom_site_fract_x
_atom_site_fract_y
_atom_site_fract_z
Br1 Br 1.13012(3) 1.57016(8) 0.05103(2)
N1 N 0.80223(18) 0.8696(4) 0.19184(14)
O1 O 0.73190(18) 1.3377(4) 0.29940(15)
O2 O 0.68377(15) 1.1641(3) 0.15897(12)
O3 O 0.63491(17) 0.8430(4) 0.30512(14)
O4 O 0.73130(16) 0.6649(3) 0.43974(12)
C1 C 0.7456(2) 1.1884(5) 0.25301(19)
C2 C 0.7215(2) 0.9683(5) 0.13114(19)
C3 C 0.8289(2) 1.0001(5) 0.27909(17)
C4 C 0.9498(2) 1.0859(6) 0.31957(16)
H1 H 0.9519 1.2047 0.3646
C5 C 1.0110(2) 0.8844(6) 0.37866(19)
H2 H 1.0333 0.7782 0.3410
H3 H 1.0753 0.9329 0.4314
C6 C 0.9273(3) 0.7848(6) 0.41086(19)
H4 H 0.9437 0.6876 0.4619
C7 C 0.8266(2) 0.8500(5) 0.35878(18)
C8 C 0.7211(2) 0.7871(5) 0.36397(19)
C9 C 0.6281(2) 0.5844(8) 0.44272(19)
H5 H 0.5874 0.5032 0.3854
H6 H 0.5839 0.7111 0.4477
C10 C 0.6512(2) 0.4328(6) 0.5253(2)
C11 C 0.6157(3) 0.4880(6) 0.5968(2)
H7 H 0.5794 0.6236 0.5947
C12 C 0.6342(3) 0.3415(8) 0.6717(2)
H8 H 0.6099 0.3795 0.7195
C13 C 0.6872(3) 0.1437(8) 0.6758(3)
H9 H 0.6991 0.0465 0.7262
C14 C 0.7234(3) 0.0870(8) 0.6053(2)
H10 H 0.7606 -0.0481 0.6084
C15 C 0.7048(3) 0.2299(6) 0.5302(2)
H11 H 0.7285 0.1896 0.4823
C16 C 0.6622(2) 0.9021(5) 0.03339(18)
C17 C 0.6830(3) 0.6932(6) 0.0038(2)
H12 H 0.7325 0.5956 0.0461
C18 C 0.6293(3) 0.6295(6) -0.0896(2)
H13 H 0.6431 0.4892 -0.1099
C19 C 0.5565(3) 0.7731(7) -0.1514(2)
H14 H 0.5213 0.7305 -0.2138
C20 C 0.5345(3) 0.9815(7) -0.1219(2)
H15 H 0.4847 1.0782 -0.1643
C21 C 0.5870(2) 1.0458(7) -0.02888(17)
H16 H 0.5717 1.1847 -0.0085
C22 C 0.9924(2) 1.1921(5) 0.25045(18)
C23 C 1.0781(2) 1.1016(6) 0.22946(19)
H17 H 1.1089 0.9649 0.2560
C24 C 1.1182(3) 1.2125(6) 0.1693(2)
H18 H 1.1751 1.1501 0.1551
C25 C 1.0737(2) 1.4136(6) 0.13139(19)
C26 C 0.9881(2) 1.5080(5) 0.1496(2)
H19 H 0.9570 1.6435 0.1219
C27 C 0.9494(2) 1.3956(5) 0.2103(2)
H20 H 0.8926 1.4595 0.2243
loop_
_geom_bond_atom_site_label_1
_geom_bond_atom_site_label_2
_geom_bond_site_symmetry_1
_geom_bond_site_symmetry_2
Br1 C25 1_555 1_555
N1 C2 1_555 1_555
O1 C1 1_555 1_555
O2 C1 1_555 1_555
O3 C8 1_555 1_555
O4 C8 1_555 1_555
C1 C3 1_555 1_555
C2 O2 1_555 1_555
C3 N1 1_555 1_555
C4 C3 1_555 1_555
H1 C4 1_555 1_555
C5 C4 1_555 1_555
H2 C5 1_555 1_555
H3 C5 1_555 1_555
C6 C5 1_555 1_555
H4 C6 1_555 1_555
C7 C3 1_555 1_555
C8 C7 1_555 1_555
C9 O4 1_555 1_555
H5 C9 1_555 1_555
H6 C9 1_555 1_555
C10 C9 1_555 1_555
C11 C10 1_555 1_555
H7 C11 1_555 1_555
C12 C11 1_555 1_555
H8 C12 1_555 1_555
C13 C12 1_555 1_555
H9 C13 1_555 1_555
C14 C13 1_555 1_555
H10 C14 1_555 1_555
C15 C10 1_555 1_555
H11 C15 1_555 1_555
C16 C2 1_555 1_555
C17 C16 1_555 1_555
H12 C17 1_555 1_555
C18 C17 1_555 1_555
H13 C18 1_555 1_555
C19 C18 1_555 1_555
H14 C19 1_555 1_555
C20 C19 1_555 1_555
H15 C20 1_555 1_555
C21 C16 1_555 1_555
H16 C21 1_555 1_555
C22 C4 1_555 1_555
C23 C22 1_555 1_555
H17 C23 1_555 1_555
C24 C23 1_555 1_555
H18 C24 1_555 1_555
C25 C24 1_555 1_555
C26 C25 1_555 1_555
H19 C26 1_555 1_555
C27 C22 1_555 1_555
H20 C27 1_555 1_555
C6 C7 1_555 1_555
C14 C15 1_555 1_555
C20 C21 1_555 1_555
C26 C27 1_555 1_555

#END
