
#######################################################################
#
#                 Cambridge Crystallographic Data Centre
#                                CCDC 
#
#######################################################################
#
# If this CIF has been generated from an entry in the Cambridge 
# Structural Database, then it will include bibliographic, chemical, 
# crystal, experimental, refinement or atomic coordinate data resulting 
# from the CCDC's data processing and validation procedures.
#
#######################################################################

data_TAQBIX
_chemical_formula_moiety         'C13 H9 I1 N2 O3'
_chemical_name_systematic        2-Iodo-N-(4-nitrophenyl)benzamide
_symmetry_cell_setting           monoclinic
_symmetry_space_group_name_H-M   'P 21/c'
_symmetry_Int_Tables_number      14
_space_group_name_Hall           '-P 2ybc'
loop_
_symmetry_equiv_pos_site_id
_symmetry_equiv_pos_as_xyz
1 x,y,z
2 -x,1/2+y,1/2-z
3 -x,-y,-z
4 x,1/2-y,1/2+z
_cell_length_a                   10.3792(4)
_cell_length_b                   13.6412(6)
_cell_length_c                   9.8265(4)
_cell_angle_alpha                90
_cell_angle_beta                 107.3830(11)
_cell_angle_gamma                90
_cell_volume                     1327.74
_exptl_crystal_colour            colorless
_exptl_crystal_description       prism
_cell_formula_units_Z            4
_exptl_crystal_recrystallization_method ethanol
loop_
_atom_site_label
_atom_site_type_symbol
_atom_site_fract_x
_atom_site_fract_y
_atom_site_fract_z
I1 I 0.54867(3) 0.23220(3) 0.54472(5)
O1 O 0.2184(4) 0.2891(2) 0.4439(3)
O2 O 0.0663(5) 0.7571(2) 0.7685(4)
O3 O 0.1173(8) 0.7759(2) 0.5753(5)
N1 N 0.2207(3) 0.3224(2) 0.6724(3)
N2 N 0.1031(4) 0.7254(2) 0.6709(4)
C1 C 0.1857(3) 0.4226(2) 0.6632(3)
C2 C 0.1528(4) 0.4633(3) 0.7792(4)
C3 C 0.1267(4) 0.5627(3) 0.7829(4)
C4 C 0.1306(4) 0.6199(2) 0.6685(4)
C5 C 0.1618(4) 0.5812(3) 0.5519(4)
C6 C 0.1904(4) 0.4819(3) 0.5492(4)
C7 C 0.2407(4) 0.2642(2) 0.5685(4)
C8 C 0.2943(4) 0.1647(2) 0.6181(3)
C9 C 0.4216(5) 0.1362(3) 0.6141(4)
C10 C 0.4691(8) 0.0421(4) 0.6559(6)
C11 C 0.3866(10) -0.0233(4) 0.6981(6)
C12 C 0.2598(9) 0.0037(3) 0.7003(6)
C13 C 0.2149(6) 0.0985(3) 0.6629(5)
H1 H 0.2376 0.2940 0.7529
H2 H 0.1485 0.4234 0.8544
H3 H 0.1069 0.5902 0.8609
H4 H 0.1636 0.6213 0.4760
H5 H 0.2124 0.4552 0.4720
H6 H 0.5551 0.0234 0.6556
H7 H 0.4174 -0.0864 0.7253
H8 H 0.2044 -0.0413 0.7268
H9 H 0.1305 0.1176 0.6680
loop_
_geom_bond_atom_site_label_1
_geom_bond_atom_site_label_2
_geom_bond_site_symmetry_1
_geom_bond_site_symmetry_2
I1 C9 1_555 1_555
O1 C7 1_555 1_555
O2 N2 1_555 1_555
O3 N2 1_555 1_555
N1 C1 1_555 1_555
N2 C4 1_555 1_555
C1 C2 1_555 1_555
C2 C3 1_555 1_555
C3 C4 1_555 1_555
C4 C5 1_555 1_555
C5 C6 1_555 1_555
C6 C1 1_555 1_555
C7 N1 1_555 1_555
C8 C7 1_555 1_555
C9 C8 1_555 1_555
C10 C9 1_555 1_555
C11 C10 1_555 1_555
C12 C11 1_555 1_555
C13 C8 1_555 1_555
H1 N1 1_555 1_555
H2 C2 1_555 1_555
H3 C3 1_555 1_555
H4 C5 1_555 1_555
H5 C6 1_555 1_555
H6 C10 1_555 1_555
H7 C11 1_555 1_555
H8 C12 1_555 1_555
H9 C13 1_555 1_555
C12 C13 1_555 1_555

#END
