
#######################################################################
#
#                 Cambridge Crystallographic Data Centre
#                                CCDC 
#
#######################################################################
#
# If this CIF has been generated from an entry in the Cambridge 
# Structural Database, then it will include bibliographic, chemical, 
# crystal, experimental, refinement or atomic coordinate data resulting 
# from the CCDC's data processing and validation procedures.
#
#######################################################################

data_TAQHOL
_chemical_formula_moiety         'C10 H9 N1 O2'
_chemical_name_systematic        5,7-dimethyl-1H-indole-2,3-dione
_symmetry_cell_setting           triclinic
_symmetry_space_group_name_H-M   'P -1'
_symmetry_Int_Tables_number      2
_space_group_name_Hall           '-P 1'
loop_
_symmetry_equiv_pos_site_id
_symmetry_equiv_pos_as_xyz
1 x,y,z
2 -x,-y,-z
_cell_length_a                   8.7148(9)
_cell_length_b                   13.5652(17)
_cell_length_c                   14.7832(19)
_cell_angle_alpha                91.562(5)
_cell_angle_beta                 96.341(4)
_cell_angle_gamma                103.776(4)
_cell_volume                     1684.39
_exptl_crystal_colour            orange
_exptl_crystal_description       plate
_cell_formula_units_Z            8
loop_
_atom_site_label
_atom_site_type_symbol
_atom_site_fract_x
_atom_site_fract_y
_atom_site_fract_z
N1 N 0.4016(2) 0.11027(16) 0.69510(15)
H1 H 0.353(3) 0.110(2) 0.6412(8)
O1 O 0.6533(2) 0.10964(16) 0.66010(14)
O2 O 0.7175(2) 0.10836(17) 0.86028(14)
C1 C 0.5564(3) 0.10994(19) 0.71358(19)
C2 C 0.5897(3) 0.10911(19) 0.81955(19)
C3 C 0.4366(3) 0.10900(18) 0.85238(18)
C4 C 0.3923(3) 0.10889(19) 0.93965(18)
H2 H 0.4675 0.1094 0.9914
C5 C 0.2352(3) 0.10795(19) 0.94964(19)
C6 C 0.1284(3) 0.10665(19) 0.87147(19)
H3 H 0.0214 0.1059 0.8792
C7 C 0.1693(3) 0.10639(18) 0.78225(18)
C8 C 0.3269(3) 0.10886(18) 0.77573(17)
C9 C 0.1800(4) 0.1088(2) 1.0429(2)
H4 H 0.2189 0.0584 1.0792
H5 H 0.0635 0.0921 1.0367
H6 H 0.2220 0.1765 1.0734
C10 C 0.0509(3) 0.1030(2) 0.7002(2)
H7 H 0.0857 0.1629 0.6652
H8 H -0.0532 0.1026 0.7196
H9 H 0.0425 0.0413 0.6620
N2 N 0.5531(3) 0.12309(17) 0.46883(15)
H10 H 0.595(3) 0.119(2) 0.5236(8)
O3 O 0.3010(2) 0.12231(16) 0.50270(13)
O4 O 0.2490(2) 0.14359(17) 0.30327(15)
C11 C 0.4008(3) 0.1263(2) 0.44925(19)
C12 C 0.3738(3) 0.1373(2) 0.34425(19)
C13 C 0.5289(3) 0.14013(19) 0.31343(18)
C14 C 0.5803(3) 0.1514(2) 0.22828(19)
H11 H 0.5083 0.1564 0.1764
C15 C 0.7394(3) 0.15539(19) 0.21970(19)
C16 C 0.8409(3) 0.14914(19) 0.2986(2)
H12 H 0.9495 0.1528 0.2926
C17 C 0.7926(3) 0.13796(19) 0.38523(19)
C18 C 0.6332(3) 0.13328(18) 0.39022(18)
C19 C 0.8017(4) 0.1678(2) 0.1285(2)
H13 H 0.7569 0.1056 0.0897
H14 H 0.9180 0.1805 0.1372
H15 H 0.7707 0.2253 0.0994
C20 C 0.9053(3) 0.1327(2) 0.4685(2)
H16 H 0.9159 0.1924 0.5097
H17 H 1.0097 0.1314 0.4504
H18 H 0.8638 0.0708 0.4996
N3 N 0.3688(2) 0.35893(17) 0.85114(15)
H19 H 0.318(3) 0.344(2) 0.7975(9)
O5 O 0.6154(2) 0.34703(15) 0.81535(13)
O6 O 0.6912(2) 0.37267(16) 1.01601(14)
C21 C 0.5233(3) 0.35717(19) 0.86965(18)
C22 C 0.5623(3) 0.36974(19) 0.97550(18)
C23 C 0.4129(3) 0.37657(18) 1.00930(17)
C24 C 0.3723(3) 0.3857(2) 1.09591(18)
H20 H 0.4497 0.3905 1.1475
C25 C 0.2169(3) 0.3880(2) 1.10712(19)
C26 C 0.1068(3) 0.3803(2) 1.02911(19)
H21 H 0.0009 0.3825 1.0371
C27 C 0.1434(3) 0.36965(19) 0.94057(18)
C28 C 0.3001(3) 0.36819(18) 0.93224(17)
C29 C 0.1678(4) 0.3968(3) 1.2013(2)
H22 H 0.1848 0.3388 1.2356
H23 H 0.0549 0.3974 1.1962
H24 H 0.2318 0.4600 1.2331
C30 C 0.0199(3) 0.3593(2) 0.8587(2)
H25 H 0.0486 0.4179 0.8213
H26 H -0.0843 0.3565 0.8791
H27 H 0.0151 0.2967 0.8226
N4 N 0.5103(2) 0.35401(17) 0.62544(15)
H28 H 0.554(3) 0.350(2) 0.6800(8)
O7 O 0.2527(2) 0.34008(15) 0.65678(13)
O8 O 0.2033(2) 0.37014(16) 0.45880(14)
C31 C 0.3544(3) 0.35165(19) 0.60458(18)
C32 C 0.3291(3) 0.36678(19) 0.50041(18)
C33 C 0.4871(3) 0.37722(18) 0.47077(17)
C34 C 0.5404(3) 0.39321(19) 0.38603(18)
H29 H 0.4687 0.3990 0.3342
C35 C 0.7010(3) 0.40072(19) 0.37810(18)
C36 C 0.8016(3) 0.39118(19) 0.45634(19)
H30 H 0.9104 0.3955 0.4506
C37 C 0.7510(3) 0.37566(19) 0.54253(18)
C38 C 0.5905(3) 0.36892(18) 0.54667(17)
C39 C 0.7648(4) 0.4188(2) 0.2880(2)
H31 H 0.7093 0.3631 0.2438
H32 H 0.8789 0.4217 0.2956
H33 H 0.7476 0.4832 0.2659
C40 C 0.8614(3) 0.3659(2) 0.6257(2)
H34 H 0.8644 0.4202 0.6714
H35 H 0.9686 0.3713 0.6088
H36 H 0.8232 0.2997 0.6511
loop_
_geom_bond_atom_site_label_1
_geom_bond_atom_site_label_2
_geom_bond_site_symmetry_1
_geom_bond_site_symmetry_2
N1 H1 1_555 1_555
O1 C1 1_555 1_555
O2 C2 1_555 1_555
C1 N1 1_555 1_555
C2 C1 1_555 1_555
C3 C2 1_555 1_555
C4 C3 1_555 1_555
H2 C4 1_555 1_555
C5 C4 1_555 1_555
C6 C5 1_555 1_555
H3 C6 1_555 1_555
C7 C6 1_555 1_555
C8 N1 1_555 1_555
C9 C5 1_555 1_555
H4 C9 1_555 1_555
H5 C9 1_555 1_555
H6 C9 1_555 1_555
C10 C7 1_555 1_555
H7 C10 1_555 1_555
H8 C10 1_555 1_555
H9 C10 1_555 1_555
N2 H10 1_555 1_555
O3 C11 1_555 1_555
O4 C12 1_555 1_555
C11 N2 1_555 1_555
C12 C11 1_555 1_555
C13 C12 1_555 1_555
C14 C13 1_555 1_555
H11 C14 1_555 1_555
C15 C14 1_555 1_555
C16 C15 1_555 1_555
H12 C16 1_555 1_555
C17 C16 1_555 1_555
C18 N2 1_555 1_555
C19 C15 1_555 1_555
H13 C19 1_555 1_555
H14 C19 1_555 1_555
H15 C19 1_555 1_555
C20 C17 1_555 1_555
H16 C20 1_555 1_555
H17 C20 1_555 1_555
H18 C20 1_555 1_555
N3 H19 1_555 1_555
O5 C21 1_555 1_555
O6 C22 1_555 1_555
C21 N3 1_555 1_555
C22 C21 1_555 1_555
C23 C22 1_555 1_555
C24 C23 1_555 1_555
H20 C24 1_555 1_555
C25 C24 1_555 1_555
C26 C25 1_555 1_555
H21 C26 1_555 1_555
C27 C26 1_555 1_555
C28 N3 1_555 1_555
C29 C25 1_555 1_555
H22 C29 1_555 1_555
H23 C29 1_555 1_555
H24 C29 1_555 1_555
C30 C27 1_555 1_555
H25 C30 1_555 1_555
H26 C30 1_555 1_555
H27 C30 1_555 1_555
N4 H28 1_555 1_555
O7 C31 1_555 1_555
O8 C32 1_555 1_555
C31 N4 1_555 1_555
C32 C31 1_555 1_555
C33 C32 1_555 1_555
C34 C33 1_555 1_555
H29 C34 1_555 1_555
C35 C34 1_555 1_555
C36 C35 1_555 1_555
H30 C36 1_555 1_555
C37 C36 1_555 1_555
C38 N4 1_555 1_555
C39 C35 1_555 1_555
H31 C39 1_555 1_555
H32 C39 1_555 1_555
H33 C39 1_555 1_555
C40 C37 1_555 1_555
H34 C40 1_555 1_555
H35 C40 1_555 1_555
H36 C40 1_555 1_555
C3 C8 1_555 1_555
C7 C8 1_555 1_555
C13 C18 1_555 1_555
C17 C18 1_555 1_555
C23 C28 1_555 1_555
C27 C28 1_555 1_555
C33 C38 1_555 1_555
C37 C38 1_555 1_555

#END
