
#######################################################################
#
#                 Cambridge Crystallographic Data Centre
#                                CCDC 
#
#######################################################################
#
# If this CIF has been generated from an entry in the Cambridge 
# Structural Database, then it will include bibliographic, chemical, 
# crystal, experimental, refinement or atomic coordinate data resulting 
# from the CCDC's data processing and validation procedures.
#
#######################################################################

data_TAQHUQ
_chemical_formula_moiety         'C26 H12 N4'
_chemical_name_systematic        
Naphtho[1',8':6,7,8]cinnolino[5,4,3-cde]naphtho[1,8-gh]cinnoline
_symmetry_cell_setting           monoclinic
_symmetry_space_group_name_H-M   'P 21/c'
_symmetry_Int_Tables_number      14
_space_group_name_Hall           '-P 2ybc'
loop_
_symmetry_equiv_pos_site_id
_symmetry_equiv_pos_as_xyz
1 x,y,z
2 -x,1/2+y,1/2-z
3 -x,-y,-z
4 x,1/2-y,1/2+z
_cell_length_a                   3.7429(8)
_cell_length_b                   15.815(3)
_cell_length_c                   13.990(3)
_cell_angle_alpha                90
_cell_angle_beta                 93.947(14)
_cell_angle_gamma                90
_cell_volume                     826.159
_exptl_crystal_colour            'dark red'
_exptl_crystal_description       needle
_cell_formula_units_Z            2
loop_
_atom_site_label
_atom_site_type_symbol
_atom_site_fract_x
_atom_site_fract_y
_atom_site_fract_z
C1 C 0.1888(3) 0.50576(7) 0.88221(7)
C2 C 0.2684(3) 0.57091(7) 0.81304(8)
C3 C 0.3987(3) 0.55075(7) 0.72590(8)
H1 H 0.4364 0.4932 0.7100
C4 C 0.4758(3) 0.61419(8) 0.66080(8)
H2 H 0.5627 0.5993 0.6008
C5 C 0.4269(3) 0.69771(8) 0.68282(8)
H3 H 0.4848 0.7402 0.6385
C6 C 0.2915(3) 0.72106(7) 0.77070(8)
C7 C 0.2391(3) 0.80699(7) 0.79400(9)
H4 H 0.2971 0.8498 0.7500
C8 C 0.1062(3) 0.82909(7) 0.87887(9)
H5 H 0.0739 0.8871 0.8937
C9 C 0.0172(3) 0.76695(7) 0.94425(8)
H6 H -0.0771 0.7832 1.0029
C10 C 0.0646(3) 0.68203(7) 0.92466(8)
C11 C 0.2069(3) 0.65719(7) 0.83696(8)
C12 C -0.0294(3) 0.61612(7) 0.99120(8)
C13 C 0.0406(3) 0.53108(7) 0.96788(7)
N1 N 0.2602(2) 0.42484(6) 0.86516(7)
N2 N 0.1794(3) 0.36393(6) 0.92835(7)
C1B C -0.1888(3) 0.49424(7) 1.11779(7)
C2B C -0.2684(3) 0.42909(7) 1.18696(8)
C3B C -0.3987(3) 0.44925(7) 1.27410(8)
H1B H -0.4364 0.5068 1.2900
C4B C -0.4758(3) 0.38581(8) 1.33920(8)
H2B H -0.5627 0.4007 1.3992
C5B C -0.4269(3) 0.30229(8) 1.31718(8)
H3B H -0.4848 0.2598 1.3615
C6B C -0.2915(3) 0.27894(7) 1.22930(8)
C7B C -0.2391(3) 0.19301(7) 1.20600(9)
H4B H -0.2971 0.1502 1.2500
C8B C -0.1062(3) 0.17091(7) 1.12113(9)
H5B H -0.0739 0.1129 1.1063
C9B C -0.0172(3) 0.23305(7) 1.05575(8)
H6B H 0.0771 0.2168 0.9971
C10B C -0.0646(3) 0.31797(7) 1.07534(8)
C11B C -0.2069(3) 0.34281(7) 1.16304(8)
C12B C 0.0294(3) 0.38388(7) 1.00880(8)
C13B C -0.0406(3) 0.46892(7) 1.03212(7)
N1B N -0.2602(2) 0.57516(6) 1.13484(7)
N2B N -0.1794(3) 0.63607(6) 1.07165(7)
loop_
_geom_bond_atom_site_label_1
_geom_bond_atom_site_label_2
_geom_bond_site_symmetry_1
_geom_bond_site_symmetry_2
C1 C2 1_555 1_555
C2 C3 1_555 1_555
C3 H1 1_555 1_555
C4 C3 1_555 1_555
H2 C4 1_555 1_555
C5 C4 1_555 1_555
H3 C5 1_555 1_555
C6 C5 1_555 1_555
C7 C6 1_555 1_555
H4 C7 1_555 1_555
C8 C7 1_555 1_555
H5 C8 1_555 1_555
C9 C8 1_555 1_555
H6 C9 1_555 1_555
C10 C9 1_555 1_555
C11 C2 1_555 1_555
C12 C10 1_555 1_555
C13 C1 1_555 1_555
N1 C1 1_555 1_555
N2 N1 1_555 1_555
C1B C2B 1_555 1_555
C2B C3B 1_555 1_555
C3B H1B 1_555 1_555
C4B C3B 1_555 1_555
H2B C4B 1_555 1_555
C5B C4B 1_555 1_555
H3B C5B 1_555 1_555
C6B C5B 1_555 1_555
C7B C6B 1_555 1_555
H4B C7B 1_555 1_555
C8B C7B 1_555 1_555
H5B C8B 1_555 1_555
C9B C8B 1_555 1_555
H6B C9B 1_555 1_555
C10B C9B 1_555 1_555
C11B C2B 1_555 1_555
C12B N2 1_555 1_555
C13B C13 1_555 1_555
N1B C1B 1_555 1_555
N2B C12 1_555 1_555
C6 C11 1_555 1_555
C10 C11 1_555 1_555
C12 C13 1_555 1_555
C1B C13B 1_555 1_555
C6B C11B 1_555 1_555
C10B C11B 1_555 1_555
C10B C12B 1_555 1_555
C12B C13B 1_555 1_555
N1B N2B 1_555 1_555

#END
