
#######################################################################
#
#                 Cambridge Crystallographic Data Centre
#                                CCDC 
#
#######################################################################
#
# If this CIF has been generated from an entry in the Cambridge 
# Structural Database, then it will include bibliographic, chemical, 
# crystal, experimental, refinement or atomic coordinate data resulting 
# from the CCDC's data processing and validation procedures.
#
#######################################################################

data_TAQNEG
_chemical_formula_moiety         'C15 H10 Br2 O3,C1 H4 O1'
_chemical_name_systematic        
'5-Bromo-2-(5-bromo-2-hydroxybenzyl)-1-benzofuran-3(2H)-one methanol solvate'
_symmetry_cell_setting           monoclinic
_symmetry_space_group_name_H-M   'P 21/n'
_symmetry_Int_Tables_number      14
_space_group_name_Hall           '-P 2yn'
loop_
_symmetry_equiv_pos_site_id
_symmetry_equiv_pos_as_xyz
1 x,y,z
2 1/2-x,1/2+y,1/2-z
3 -x,-y,-z
4 1/2+x,1/2-y,1/2+z
_cell_length_a                   17.325(10)
_cell_length_b                   4.393(3)
_cell_length_c                   20.866(12)
_cell_angle_alpha                90
_cell_angle_beta                 92.132(8)
_cell_angle_gamma                90
_cell_volume                     1586.99
_exptl_crystal_colour            yellow
_exptl_crystal_description       block
_cell_formula_units_Z            4
loop_
_atom_site_label
_atom_site_type_symbol
_atom_site_fract_x
_atom_site_fract_y
_atom_site_fract_z
Br1 Br 0.51539(4) 1.26142(18) 1.12133(3)
Br2 Br 1.09088(4) 0.5751(2) 0.93573(4)
O1 O 0.6539(2) 1.3472(9) 0.86844(17)
O2 O 0.8278(2) 0.9711(11) 0.75968(16)
H1 H 0.8327 0.9094 0.7230
O3 O 0.7691(2) 0.8192(9) 0.95804(17)
C1 C 0.8901(3) 0.8803(13) 0.7973(2)
C2 C 0.6839(3) 1.1762(12) 0.9085(2)
C3 C 0.6007(3) 1.2159(13) 1.0088(2)
H2 H 0.5646 1.3521 0.9913
C4 C 0.5958(3) 1.1165(14) 1.0699(2)
C5 C 0.8913(3) 0.9768(12) 0.8609(2)
C6 C 0.8262(3) 1.1673(12) 0.8833(2)
H3 H 0.8125 1.3162 0.8504
H4 H 0.8433 1.2771 0.9215
C7 C 0.7558(3) 0.9854(13) 0.8979(2)
H5 H 0.7449 0.8402 0.8630
C8 C 0.7140(3) 0.9062(13) 0.9991(2)
C9 C 0.9520(3) 0.8861(14) 0.9010(3)
H6 H 0.9542 0.9485 0.9436
C10 C 0.7089(3) 0.8036(14) 1.0615(3)
H7 H 0.7447 0.6669 1.0792
C11 C 0.6609(3) 1.1094(13) 0.9731(2)
C12 C 0.6489(3) 0.9120(15) 1.0962(3)
H8 H 0.6437 0.8465 1.1382
C13 C 1.0083(3) 0.6085(16) 0.8157(3)
H9 H 1.0478 0.4864 0.8011
C14 C 0.9479(3) 0.6957(15) 0.7746(3)
H10 H 0.9461 0.6312 0.7321
C15 C 1.0091(3) 0.7048(15) 0.8785(3)
C16? C 0.748(5) 0.25(3) 0.252(3)
O4? O 0.799(2) -0.044(15) 0.239(2)
loop_
_geom_bond_atom_site_label_1
_geom_bond_atom_site_label_2
_geom_bond_site_symmetry_1
_geom_bond_site_symmetry_2
Br1 C4 1_555 1_555
Br2 C15 1_555 1_555
O1 C2 1_555 1_555
O2 H1 1_555 1_555
O3 C7 1_555 1_555
C1 O2 1_555 1_555
C2 C7 1_555 1_555
C3 H2 1_555 1_555
C4 C3 1_555 1_555
C5 C1 1_555 1_555
C6 C5 1_555 1_555
H3 C6 1_555 1_555
H4 C6 1_555 1_555
C7 C6 1_555 1_555
H5 C7 1_555 1_555
C8 O3 1_555 1_555
C9 C5 1_555 1_555
H6 C9 1_555 1_555
C10 C8 1_555 1_555
H7 C10 1_555 1_555
C11 C2 1_555 1_555
C12 C4 1_555 1_555
H8 C12 1_555 1_555
C13 H9 1_555 1_555
C14 C1 1_555 1_555
H10 C14 1_555 1_555
C15 C9 1_555 1_555
C3 C11 1_555 1_555
C8 C11 1_555 1_555
C10 C12 1_555 1_555
C13 C14 1_555 1_555
C13 C15 1_555 1_555

#END
