
#######################################################################
#
#                 Cambridge Crystallographic Data Centre
#                                CCDC 
#
#######################################################################
#
# If this CIF has been generated from an entry in the Cambridge 
# Structural Database, then it will include bibliographic, chemical, 
# crystal, experimental, refinement or atomic coordinate data resulting 
# from the CCDC's data processing and validation procedures.
#
#######################################################################

data_TAQNUW
_chemical_formula_moiety         'C20 H16 N2 O2,3(H2 O1)'
_chemical_name_systematic        
"1,1'-Dimethyl-3,3'-biquinoline-4,4'(1H,1'H)-dione trihydrate"
_symmetry_cell_setting           orthorhombic
_symmetry_space_group_name_H-M   'P b c n'
_symmetry_Int_Tables_number      60
_space_group_name_Hall           '-P 2n 2ab'
loop_
_symmetry_equiv_pos_site_id
_symmetry_equiv_pos_as_xyz
1 x,y,z
2 1/2-x,1/2-y,1/2+z
3 -x,y,1/2-z
4 1/2+x,1/2-y,-z
5 -x,-y,-z
6 1/2+x,1/2+y,1/2-z
7 x,-y,1/2+z
8 1/2-x,1/2+y,z
_cell_length_a                   15.278(2)
_cell_length_b                   15.133(2)
_cell_length_c                   15.916(2)
_cell_angle_alpha                90
_cell_angle_beta                 90
_cell_angle_gamma                90
_cell_volume                     3679.81
_exptl_crystal_colour            green
_exptl_crystal_description       prismatic
_cell_formula_units_Z            8
loop_
_atom_site_label
_atom_site_type_symbol
_atom_site_fract_x
_atom_site_fract_y
_atom_site_fract_z
N1 N 0.09025(17) 0.90953(19) 0.32940(18)
N2 N 0.09415(16) 0.54417(18) 0.17959(16)
O1 O 0.18283(19) 0.79034(18) 0.11739(15)
O2 O 0.19895(18) 0.66845(17) 0.38403(15)
C1 C 0.1541(2) 0.8268(2) 0.1831(2)
C2 C 0.1240(2) 0.7770(2) 0.25363(19)
C3 C 0.0942(2) 0.8208(2) 0.3227(2)
H1 H 0.0754 0.7874 0.3682
C4 C 0.1181(2) 0.9620(2) 0.2644(2)
C5 C 0.1514(2) 0.9226(2) 0.1917(2)
C6 C 0.1826(3) 0.9762(3) 0.1262(3)
H2 H 0.2060 0.9499 0.0784
C7 C 0.1792(3) 1.0653(3) 0.1311(3)
H3 H 0.1999 1.0998 0.0870
C8 C 0.1450(3) 1.1047(3) 0.2019(3)
H4 H 0.1425 1.1660 0.2048
C9 C 0.1144(3) 1.0555(3) 0.2685(3)
H5 H 0.0915 1.0834 0.3157
C10 C 0.0581(3) 0.9483(3) 0.4086(2)
H6 H 0.1034 0.9837 0.4333
H7 H 0.0421 0.9019 0.4466
H8 H 0.0080 0.9846 0.3972
C11 C 0.1635(2) 0.6312(2) 0.3223(2)
C12 C 0.12654(18) 0.6783(2) 0.2534(2)
C13 C 0.0955(2) 0.6332(2) 0.1857(2)
H9 H 0.0738 0.6658 0.1407
C14 C 0.12447(19) 0.4935(2) 0.2457(2)
C15 C 0.1591(2) 0.5359(2) 0.3172(2)
C16 C 0.1904(2) 0.4832(3) 0.3836(2)
H10 H 0.2140 0.5105 0.4307
C17 C 0.1870(3) 0.3931(3) 0.3809(3)
H11 H 0.2073 0.3594 0.4256
C18 C 0.1526(3) 0.3530(3) 0.3097(3)
H12 H 0.1503 0.2917 0.3074
C19 C 0.1220(2) 0.4003(2) 0.2431(3)
H13 H 0.0995 0.3714 0.1963
C20 C 0.0618(2) 0.5039(2) 0.1020(2)
H14 H 0.0453 0.5495 0.0631
H15 H 0.0118 0.4677 0.1144
H16 H 0.1070 0.4681 0.0776
O3 O 0.1338(2) 0.1660(2) 0.4539(2)
H17 H 0.069(3) 0.158(10) 0.454(8)
H21 H 0.149(5) 0.192(5) 0.499(3)
O4 O 0.3390(3) 0.7694(5) 0.0385(3)
H18 H 0.313(5) 0.783(6) 0.081(3)
H19 H 0.326(4) 0.766(4) -0.0122(17)
O5 O 1.0082(3) 0.7026(3) 0.9967(3)
H20 H 0.955(2) 0.702(4) 0.969(4)
loop_
_geom_bond_atom_site_label_1
_geom_bond_atom_site_label_2
_geom_bond_site_symmetry_1
_geom_bond_site_symmetry_2
N1 C3 1_555 1_555
N2 C13 1_555 1_555
O1 C1 1_555 1_555
O2 C11 1_555 1_555
C1 C2 1_555 1_555
C2 C3 1_555 1_555
C3 H1 1_555 1_555
C4 N1 1_555 1_555
C5 C1 1_555 1_555
C6 C5 1_555 1_555
H2 C6 1_555 1_555
C7 C6 1_555 1_555
H3 C7 1_555 1_555
C8 C7 1_555 1_555
H4 C8 1_555 1_555
C9 C4 1_555 1_555
H5 C9 1_555 1_555
C10 N1 1_555 1_555
H6 C10 1_555 1_555
H7 C10 1_555 1_555
H8 C10 1_555 1_555
C11 C12 1_555 1_555
C12 C2 1_555 1_555
C13 C12 1_555 1_555
H9 C13 1_555 1_555
C14 N2 1_555 1_555
C15 C11 1_555 1_555
C16 C15 1_555 1_555
H10 C16 1_555 1_555
C17 C16 1_555 1_555
H11 C17 1_555 1_555
C18 C17 1_555 1_555
H12 C18 1_555 1_555
C19 C14 1_555 1_555
H13 C19 1_555 1_555
C20 N2 1_555 1_555
H14 C20 1_555 1_555
H15 C20 1_555 1_555
H16 C20 1_555 1_555
O3 H17 1_555 1_555
O4 H18 1_555 1_555
O5 H20 1_555 1_555
H19 O4 1_555 1_555
H21 O3 1_555 1_555
C4 C5 1_555 1_555
C8 C9 1_555 1_555
C14 C15 1_555 1_555
C18 C19 1_555 1_555

#END
