
#######################################################################
#
#                 Cambridge Crystallographic Data Centre
#                                CCDC 
#
#######################################################################
#
# If this CIF has been generated from an entry in the Cambridge 
# Structural Database, then it will include bibliographic, chemical, 
# crystal, experimental, refinement or atomic coordinate data resulting 
# from the CCDC's data processing and validation procedures.
#
#######################################################################

data_TAQPOS
_chemical_formula_moiety         'C20 H20 O2'
_chemical_name_systematic        
(3Z,4Z)-3-(1-Hydroxyethylidene)-4,6-diphenylhex-4-en-2-one
_symmetry_cell_setting           triclinic
_symmetry_space_group_name_H-M   'P -1'
_symmetry_Int_Tables_number      2
_space_group_name_Hall           '-P 1'
loop_
_symmetry_equiv_pos_site_id
_symmetry_equiv_pos_as_xyz
1 x,y,z
2 -x,-y,-z
_cell_length_a                   11.1927(15)
_cell_length_b                   11.6453(16)
_cell_length_c                   13.0994(18)
_cell_angle_alpha                89.867(2)
_cell_angle_beta                 75.200(2)
_cell_angle_gamma                89.933(2)
_cell_volume                     1650.76
_exptl_crystal_colour            colorless
_exptl_crystal_description       block
_cell_formula_units_Z            4
loop_
_atom_site_label
_atom_site_type_symbol
_atom_site_fract_x
_atom_site_fract_y
_atom_site_fract_z
C1 C 0.4995(2) 0.6270(2) 0.6390(2)
C2 C 0.3748(3) 0.6540(2) 0.6616(2)
H1 H 0.3218 0.6248 0.7228
C3 C 0.3271(3) 0.7230(3) 0.5958(3)
H2 H 0.2428 0.7386 0.6125
C4 C 0.4028(4) 0.7685(3) 0.5063(3)
H3 H 0.3706 0.8149 0.4619
C5 C 0.5271(4) 0.7449(3) 0.4826(3)
H4 H 0.5793 0.7760 0.4220
C6 C 0.5755(3) 0.6755(3) 0.5480(2)
H5 H 0.6600 0.6610 0.5310
C7 C 0.5483(2) 0.5494(2) 0.7090(2)
C8 C 0.4818(2) 0.5519(2) 0.82399(19)
C9 C 0.3975(2) 0.4664(3) 0.8682(2)
C10 C 0.3746(3) 0.3641(3) 0.8089(3)
H6 H 0.4201 0.2999 0.8258
H7 H 0.4010 0.3795 0.7345
H8 H 0.2880 0.3466 0.8281
C11 C 0.4986(2) 0.6444(2) 0.8884(2)
C12 C 0.5925(3) 0.7344(3) 0.8478(3)
H9 H 0.5991 0.7837 0.9048
H10 H 0.5683 0.7789 0.7947
H11 H 0.6711 0.6989 0.8178
C13 C 0.6443(2) 0.4801(2) 0.6711(2)
H12 H 0.6777 0.4824 0.5984
C14 C 0.7047(2) 0.3995(2) 0.7310(2)
H13 H 0.6898 0.3212 0.7125
H14 H 0.6682 0.4091 0.8060
C15 C 0.8428(2) 0.4203(2) 0.7075(2)
C16 C 0.8935(3) 0.4922(3) 0.7679(2)
H15 H 0.8421 0.5276 0.8265
C17 C 1.0190(3) 0.5134(3) 0.7439(3)
H16 H 1.0509 0.5619 0.7867
C18 C 1.0959(3) 0.4640(3) 0.6585(3)
H17 H 1.1802 0.4795 0.6410
C19 C 1.0473(3) 0.3917(4) 0.5994(3)
H18 H 1.0993 0.3562 0.5413
C20 C 0.9222(3) 0.3693(3) 0.6233(3)
H19 H 0.8916 0.3186 0.5814
O1 O 0.33236(19) 0.4712(2) 0.96559(16)
H39 H 0.3553 0.5259 0.9951
O2 O 0.43484(18) 0.65287(18) 0.98482(15)
C21 C 0.9928(2) 0.8537(2) 0.8753(2)
C22 C 1.1183(3) 0.8401(3) 0.8674(2)
H20 H 1.1747 0.8889 0.8236
C23 C 1.1609(3) 0.7561(3) 0.9230(3)
H21 H 1.2451 0.7503 0.9179
C24 C 1.0810(3) 0.6810(3) 0.9857(3)
H22 H 1.1103 0.6240 1.0230
C25 C 0.9570(3) 0.6905(3) 0.9930(2)
H23 H 0.9021 0.6390 1.0347
C26 C 0.9131(3) 0.7759(3) 0.9392(2)
H24 H 0.8286 0.7816 0.9458
C27 C 0.9483(2) 0.9470(2) 0.8165(2)
C28 C 1.0266(2) 0.9721(2) 0.7078(2)
C29 C 1.1057(3) 1.0650(3) 0.6880(3)
C30 C 1.1159(3) 1.1500(3) 0.7692(3)
H25 H 1.1995 1.1772 0.7550
H26 H 1.0933 1.1145 0.8376
H27 H 1.0615 1.2134 0.7675
C31 C 1.0234(3) 0.8959(3) 0.6238(2)
C32 C 0.9367(3) 0.7971(3) 0.6392(3)
H28 H 0.9051 0.7888 0.5780
H29 H 0.8694 0.8104 0.7001
H30 H 0.9795 0.7282 0.6493
C33 C 0.8452(3) 1.0052(2) 0.8591(2)
H31 H 0.8034 0.9846 0.9275
C34 C 0.7891(3) 1.0997(3) 0.8095(3)
H32 H 0.8460 1.1215 0.7432
H33 H 0.7765 1.1661 0.8556
C35 C 0.6671(2) 1.0654(2) 0.7892(2)
C36 C 0.6645(3) 1.0159(3) 0.6950(3)
H34 H 0.7386 1.0054 0.6441
C37 C 0.5574(5) 0.9817(3) 0.6732(4)
H35 H 0.5592 0.9483 0.6084
C38 C 0.4509(4) 0.9959(4) 0.7441(5)
H36 H 0.3783 0.9727 0.7283
C39 C 0.4454(4) 1.0438(4) 0.8399(4)
H37 H 0.3700 1.0530 0.8895
C40 C 0.5571(3) 1.0795(3) 0.8624(3)
H38 H 0.5553 1.1125 0.9273
O3 O 1.1778(2) 1.0837(2) 0.5940(2)
H40 H 1.1652 1.0347 0.5531
O4 O 1.0948(2) 0.9104(2) 0.53176(16)
loop_
_geom_bond_atom_site_label_1
_geom_bond_atom_site_label_2
_geom_bond_site_symmetry_1
_geom_bond_site_symmetry_2
C1 C2 1_555 1_555
C2 H1 1_555 1_555
C3 C2 1_555 1_555
H2 C3 1_555 1_555
C4 C3 1_555 1_555
H3 C4 1_555 1_555
C5 C4 1_555 1_555
H4 C5 1_555 1_555
C6 C1 1_555 1_555
H5 C6 1_555 1_555
C7 C1 1_555 1_555
C8 C7 1_555 1_555
C9 C8 1_555 1_555
C10 C9 1_555 1_555
H6 C10 1_555 1_555
H7 C10 1_555 1_555
H8 C10 1_555 1_555
C11 C8 1_555 1_555
C12 C11 1_555 1_555
H9 C12 1_555 1_555
H10 C12 1_555 1_555
H11 C12 1_555 1_555
C13 C7 1_555 1_555
H12 C13 1_555 1_555
C14 C13 1_555 1_555
H13 C14 1_555 1_555
H14 C14 1_555 1_555
C15 C14 1_555 1_555
C16 C15 1_555 1_555
H15 C16 1_555 1_555
C17 C16 1_555 1_555
H16 C17 1_555 1_555
C18 C17 1_555 1_555
H17 C18 1_555 1_555
C19 C18 1_555 1_555
H18 C19 1_555 1_555
C20 C15 1_555 1_555
H19 C20 1_555 1_555
C21 C22 1_555 1_555
C22 H20 1_555 1_555
C23 C22 1_555 1_555
H21 C23 1_555 1_555
C24 C23 1_555 1_555
H22 C24 1_555 1_555
C25 C24 1_555 1_555
H23 C25 1_555 1_555
C26 C21 1_555 1_555
H24 C26 1_555 1_555
C27 C21 1_555 1_555
C28 C27 1_555 1_555
C29 C28 1_555 1_555
C30 C29 1_555 1_555
H25 C30 1_555 1_555
H26 C30 1_555 1_555
H27 C30 1_555 1_555
C31 C28 1_555 1_555
C32 C31 1_555 1_555
H28 C32 1_555 1_555
H29 C32 1_555 1_555
H30 C32 1_555 1_555
C33 C27 1_555 1_555
H31 C33 1_555 1_555
C34 C33 1_555 1_555
H32 C34 1_555 1_555
H33 C34 1_555 1_555
C35 C34 1_555 1_555
C36 C35 1_555 1_555
H34 C36 1_555 1_555
C37 C36 1_555 1_555
H35 C37 1_555 1_555
C38 C37 1_555 1_555
H36 C38 1_555 1_555
C39 C38 1_555 1_555
H37 C39 1_555 1_555
C40 C35 1_555 1_555
H38 C40 1_555 1_555
O1 C9 1_555 1_555
H39 O1 1_555 1_555
O2 C11 1_555 1_555
O3 C29 1_555 1_555
H40 O3 1_555 1_555
O4 C31 1_555 1_555
C5 C6 1_555 1_555
C19 C20 1_555 1_555
C25 C26 1_555 1_555
C39 C40 1_555 1_555

#END
