
#######################################################################
#
#                 Cambridge Crystallographic Data Centre
#                                CCDC 
#
#######################################################################
#
# If this CIF has been generated from an entry in the Cambridge 
# Structural Database, then it will include bibliographic, chemical, 
# crystal, experimental, refinement or atomic coordinate data resulting 
# from the CCDC's data processing and validation procedures.
#
#######################################################################

data_TAQPOR
_chemical_formula_moiety         'C21 H21 N3 O3'
_chemical_name_systematic        
4-((1-(Methoxycarbonyl)ethylamino)(phenyl)methylidene)-3-methyl-1-phenylpyrazol-5-one
_symmetry_cell_setting           monoclinic
_symmetry_space_group_name_H-M   'P 21'
_symmetry_Int_Tables_number      4
_space_group_name_Hall           'P 2yb'
loop_
_symmetry_equiv_pos_site_id
_symmetry_equiv_pos_as_xyz
1 x,y,z
2 -x,1/2+y,-z
_cell_length_a                   8.8118(18)
_cell_length_b                   12.430(3)
_cell_length_c                   18.031(4)
_cell_angle_alpha                90
_cell_angle_beta                 97.749(2)
_cell_angle_gamma                90
_cell_volume                     1956.91
_exptl_crystal_colour            'pale yellow'
_exptl_crystal_description       block
_cell_formula_units_Z            4
_exptl_crystal_recrystallization_method ethanol
loop_
_atom_site_label
_atom_site_type_symbol
_atom_site_fract_x
_atom_site_fract_y
_atom_site_fract_z
O1 O 0.7418(4) 0.6456(3) 0.39995(19)
O2 O 0.5539(5) 0.8983(3) 0.4527(2)
O3 O 0.5837(4) 1.0731(3) 0.4333(2)
N1 N 0.9688(5) 0.5559(3) 0.3845(2)
N2 N 1.1069(5) 0.5800(3) 0.3584(2)
N3 N 0.7633(4) 0.8544(3) 0.3588(2)
H1 H 0.7179 0.8033 0.3793
C1 C 1.0678(7) 0.3802(5) 0.4208(3)
H3 H 1.1614 0.3998 0.4064
C2 C 1.0477(9) 0.2774(5) 0.4486(3)
H4 H 1.1282 0.2283 0.4526
C3 C 0.9112(10) 0.2481(5) 0.4699(3)
H5 H 0.8973 0.1790 0.4875
C4 C 0.7964(8) 0.3202(5) 0.4653(3)
H6 H 0.7041 0.3004 0.4810
C5 C 0.8124(7) 0.4239(4) 0.4377(3)
H7 H 0.7318 0.4727 0.4350
C6 C 0.9488(7) 0.4528(4) 0.4146(2)
C7 C 1.0980(5) 0.6807(4) 0.3363(2)
C8 C 1.2313(6) 0.7295(4) 0.3057(3)
H8 H 1.3110 0.6769 0.3059
H9 H 1.2689 0.7897 0.3362
H10 H 1.1997 0.7535 0.2554
C9 C 0.9534(5) 0.7273(4) 0.3476(2)
C10 C 0.8719(6) 0.6428(4) 0.3803(3)
C11 C 0.8967(5) 0.8301(4) 0.3374(2)
C12 C 0.9803(5) 0.9150(3) 0.3015(2)
C13 C 1.0778(5) 0.9850(4) 0.3428(3)
H11 H 1.0910 0.9817 0.3948
C14 C 1.1569(6) 1.0611(4) 0.3064(4)
H12 H 1.2226 1.1093 0.3341
C15 C 1.1385(6) 1.0653(4) 0.2301(4)
H13 H 1.1946 1.1146 0.2061
C16 C 1.0387(5) 0.9979(4) 0.1888(3)
H14 H 1.0244 1.0025 0.1369
C17 C 0.9588(5) 0.9228(3) 0.2245(3)
H15 H 0.8899 0.8771 0.1964
C18 C 0.6845(5) 0.9565(4) 0.3519(3)
H16 H 0.7602 1.0142 0.3516
C19 C 0.5713(6) 0.9635(5) 0.2807(3)
H17 H 0.6260 0.9667 0.2382
H18 H 0.5098 1.0271 0.2822
H19 H 0.5063 0.9012 0.2768
C20 C 0.6019(5) 0.9709(4) 0.4181(3)
C21 C 0.4987(9) 1.0981(6) 0.4945(4)
H20 H 0.4035 1.0594 0.4881
H21 H 0.4785 1.1739 0.4951
H22 H 0.5577 1.0774 0.5410
O4 O 0.2892(3) 0.6953(2) 0.11451(16)
O5 O 0.0729(4) 0.4449(3) 0.0422(2)
O6 O 0.1036(4) 0.2685(2) 0.06132(19)
N4 N 0.5313(4) 0.7738(2) 0.12058(19)
N5 N 0.6849(4) 0.7412(3) 0.1375(2)
N6 N 0.3183(4) 0.4833(3) 0.1498(2)
H2 H 0.2624 0.5398 0.1409
C22 C 0.3566(5) 0.9234(3) 0.0893(2)
H23 H 0.2777 0.8856 0.1069
C23 C 0.3325(6) 1.0260(3) 0.0609(3)
H24 H 0.2363 1.0573 0.0598
C24 C 0.4470(6) 1.0830(3) 0.0343(2)
H25 H 0.4291 1.1523 0.0157
C25 C 0.5864(6) 1.0369(4) 0.0355(2)
H26 H 0.6644 1.0750 0.0173
C26 C 0.6148(5) 0.9345(3) 0.0632(2)
H27 H 0.7109 0.9037 0.0629
C27 C 0.5007(5) 0.8776(3) 0.0911(2)
C28 C 0.4307(5) 0.6910(3) 0.1287(2)
C29 C 0.5272(4) 0.6008(3) 0.1534(2)
C30 C 0.6805(5) 0.6390(3) 0.1584(2)
C31 C 0.8291(5) 0.5815(4) 0.1785(3)
H28 H 0.9116 0.6325 0.1826
H29 H 0.8422 0.5298 0.1403
H30 H 0.8290 0.5452 0.2255
C32 C 0.4695(5) 0.4988(3) 0.1615(2)
C33 C 0.5680(4) 0.4040(3) 0.1815(2)
C34 C 0.5924(6) 0.3663(4) 0.2521(3)
H31 H 0.5472 0.4012 0.2892
C35 C 0.6832(8) 0.2769(5) 0.2709(4)
H32 H 0.6986 0.2518 0.3199
C36 C 0.7490(6) 0.2266(4) 0.2172(5)
H33 H 0.8103 0.1666 0.2294
C37 C 0.7268(6) 0.2624(4) 0.1454(4)
H34 H 0.7730 0.2273 0.1088
C38 C 0.6347(5) 0.3518(4) 0.1269(3)
H35 H 0.6183 0.3762 0.0777
C39 C 0.2379(4) 0.3814(3) 0.1505(2)
H36 H 0.3123 0.3225 0.1533
C40 C 0.1488(5) 0.3748(4) 0.2181(3)
H37 H 0.2196 0.3682 0.2633
H38 H 0.0824 0.3132 0.2129
H39 H 0.0887 0.4388 0.2204
C41 C 0.1296(5) 0.3717(4) 0.0793(3)
C42 C -0.0004(6) 0.2460(5) -0.0078(3)
H40 H -0.0913 0.2889 -0.0087
H41 H -0.0276 0.1712 -0.0093
H42 H 0.0496 0.2634 -0.0503
loop_
_geom_bond_atom_site_label_1
_geom_bond_atom_site_label_2
_geom_bond_site_symmetry_1
_geom_bond_site_symmetry_2
O1 C10 1_555 1_555
O2 C20 1_555 1_555
O3 C20 1_555 1_555
O4 C28 1_555 1_555
O5 C41 1_555 1_555
O6 C41 1_555 1_555
N1 N2 1_555 1_555
N2 C7 1_555 1_555
N3 H1 1_555 1_555
N4 N5 1_555 1_555
N5 C30 1_555 1_555
N6 H2 1_555 1_555
C1 H3 1_555 1_555
C2 C1 1_555 1_555
H4 C2 1_555 1_555
C3 C2 1_555 1_555
H5 C3 1_555 1_555
C4 C3 1_555 1_555
H6 C4 1_555 1_555
C5 C4 1_555 1_555
H7 C5 1_555 1_555
C6 N1 1_555 1_555
C7 C8 1_555 1_555
C8 H8 1_555 1_555
H9 C8 1_555 1_555
H10 C8 1_555 1_555
C9 C7 1_555 1_555
C10 N1 1_555 1_555
C11 N3 1_555 1_555
C12 C11 1_555 1_555
C13 C12 1_555 1_555
H11 C13 1_555 1_555
C14 C13 1_555 1_555
H12 C14 1_555 1_555
C15 C14 1_555 1_555
H13 C15 1_555 1_555
C16 C15 1_555 1_555
H14 C16 1_555 1_555
C17 C12 1_555 1_555
H15 C17 1_555 1_555
C18 N3 1_555 1_555
H16 C18 1_555 1_555
C19 C18 1_555 1_555
H17 C19 1_555 1_555
H18 C19 1_555 1_555
H19 C19 1_555 1_555
C20 C18 1_555 1_555
C21 O3 1_555 1_555
H20 C21 1_555 1_555
H21 C21 1_555 1_555
H22 C21 1_555 1_555
C22 H23 1_555 1_555
C23 C22 1_555 1_555
H24 C23 1_555 1_555
C24 C23 1_555 1_555
H25 C24 1_555 1_555
C25 C24 1_555 1_555
H26 C25 1_555 1_555
C26 C25 1_555 1_555
H27 C26 1_555 1_555
C27 N4 1_555 1_555
C28 N4 1_555 1_555
C29 C28 1_555 1_555
C30 C29 1_555 1_555
C31 C30 1_555 1_555
H28 C31 1_555 1_555
H29 C31 1_555 1_555
H30 C31 1_555 1_555
C32 N6 1_555 1_555
C33 C32 1_555 1_555
C34 C33 1_555 1_555
H31 C34 1_555 1_555
C35 C34 1_555 1_555
H32 C35 1_555 1_555
C36 C35 1_555 1_555
H33 C36 1_555 1_555
C37 C36 1_555 1_555
H34 C37 1_555 1_555
C38 C33 1_555 1_555
H35 C38 1_555 1_555
C39 N6 1_555 1_555
H36 C39 1_555 1_555
C40 C39 1_555 1_555
H37 C40 1_555 1_555
H38 C40 1_555 1_555
H39 C40 1_555 1_555
C41 C39 1_555 1_555
C42 O6 1_555 1_555
H40 C42 1_555 1_555
H41 C42 1_555 1_555
H42 C42 1_555 1_555
C1 C6 1_555 1_555
C5 C6 1_555 1_555
C9 C10 1_555 1_555
C9 C11 1_555 1_555
C16 C17 1_555 1_555
C22 C27 1_555 1_555
C26 C27 1_555 1_555
C29 C32 1_555 1_555
C37 C38 1_555 1_555

#END
