
#######################################################################
#
#                 Cambridge Crystallographic Data Centre
#                                CCDC 
#
#######################################################################
#
# If this CIF has been generated from an entry in the Cambridge 
# Structural Database, then it will include bibliographic, chemical, 
# crystal, experimental, refinement or atomic coordinate data resulting 
# from the CCDC's data processing and validation procedures.
#
#######################################################################

data_TAQSIN
_chemical_formula_moiety         'C56 H54 N4 O12,2(C7 H16)'
_chemical_name_systematic        
'meso-5,10,15,20-tetrakis(3,4,5-Trimethoxyphenyl)porphyrin heptane solvate'
_symmetry_cell_setting           triclinic
_symmetry_space_group_name_H-M   'P -1'
_symmetry_Int_Tables_number      2
_space_group_name_Hall           '-P 1'
loop_
_symmetry_equiv_pos_site_id
_symmetry_equiv_pos_as_xyz
1 x,y,z
2 -x,-y,-z
_cell_length_a                   8.749(6)
_cell_length_b                   15.129(6)
_cell_length_c                   16.449(3)
_cell_angle_alpha                60.07(3)
_cell_angle_beta                 70.64(4)
_cell_angle_gamma                81.70(5)
_cell_volume                     1779.6
_cell_formula_units_Z            1
loop_
_atom_site_label
_atom_site_type_symbol
_atom_site_fract_x
_atom_site_fract_y
_atom_site_fract_z
O1 O 0.5495(6) 0.1508(3) 0.4371(3)
O2 O 0.2423(6) 0.1091(4) 0.4746(3)
O3 O 0.1545(6) 0.0402(4) 0.3741(3)
O4 O 0.5278(6) 0.4145(4) -0.3733(3)
O5 O 0.7172(6) 0.5835(4) -0.4745(3)
O6 O 0.9856(6) 0.5878(4) -0.4366(4)
N1 N 0.8421(6) 0.1149(3) -0.0003(3)
N2 N 0.9246(6) -0.0759(3) 0.1516(3)
C1 C 0.713(1) 0.1657(6) 0.4257(5)
C2 C 0.8982(8) 0.2277(4) -0.1784(4)
C3 C 0.140(1) 0.1915(7) 0.4428(6)
C4 C 0.8228(8) 0.2005(4) -0.0804(4)
C5 C 0.103(1) 0.0035(8) 0.3248(6)
C6 C 0.7048(9) 0.2631(5) -0.0499(4)
C7 C 0.428(1) 0.3284(8) -0.3243(6)
C8 C 0.6557(9) 0.2132(5) 0.0499(4)
C9 C 0.584(1) 0.6344(7) -0.4439(7)
C10 C 0.7414(8) 0.1201(4) 0.0811(4)
C11 C 1.137(1) 0.5913(6) -0.4258(6)
C12 C 0.7217(8) 0.0457(4) 0.1801(4)
C13 C 0.8083(7) -0.0448(4) 0.2120(4)
C14 C 0.7917(8) -0.1191(4) 0.3126(4)
C15 C 0.8958(8) -0.1935(4) 0.3130(4)
C16 C 1.0232(7) 0.1657(4) -0.2115(4)
C17 C 0.5952(8) 0.0639(4) 0.2582(4)
C18 C 0.6398(8) 0.1002(4) 0.3087(4)
C19 C 0.5185(9) 0.1162(4) 0.3814(4)
C20 C 0.3583(8) 0.0970(5) 0.3995(4)
C21 C 0.3149(8) 0.0606(5) 0.3477(4)
C22 C 0.4353(8) 0.0435(5) 0.2769(4)
C23 C 0.8545(8) 0.3229(4) -0.2581(4)
C24 C 0.7113(8) 0.3206(5) -0.2768(4)
C25 C 0.6642(8) 0.4092(5) -0.3482(4)
C26 C 0.7569(8) 0.4961(5) -0.3988(4)
C27 C 0.9006(9) 0.4975(4) -0.3809(4)
C28 C 0.9483(8) 0.4100(5) -0.3101(4)
N2A N 1.0754(6) 0.0759(3) -0.1516(3)
C13A C 1.1917(7) 0.0448(4) -0.2120(4)
C12A C 1.2783(8) -0.0457(4) -0.1801(4)
C10A C 1.2586(8) -0.1201(4) -0.0811(4)
N1A N 1.1579(6) -0.1149(3) 0.0003(3)
C4A C 1.1772(8) -0.2005(4) 0.0804(4)
C2A C 1.1018(8) -0.2277(4) 0.1784(4)
C16A C 0.9768(7) -0.1657(4) 0.2115(4)
C23A C 1.1455(8) -0.3229(4) 0.2581(4)
C24A C 1.2887(8) -0.3206(5) 0.2768(4)
C25A C 1.3358(8) -0.4092(5) 0.3482(4)
O4A O 1.4722(6) -0.4145(4) 0.3733(3)
C7A C 1.572(1) -0.3284(8) 0.3243(6)
C26A C 1.2431(8) -0.4961(5) 0.3988(4)
O5A O 1.2828(6) -0.5835(4) 0.4745(3)
C9A C 1.416(1) -0.6344(7) 0.4439(7)
C27A C 1.0994(9) -0.4975(4) 0.3809(4)
O6A O 1.0144(6) -0.5878(4) 0.4366(4)
C11A C 0.863(1) -0.5913(6) 0.4258(6)
C28A C 1.0517(8) -0.4100(5) 0.3101(4)
C6A C 1.2952(9) -0.2631(5) 0.0499(4)
C8A C 1.3443(9) -0.2132(5) -0.0499(4)
C17A C 1.4048(8) -0.0639(4) -0.2582(4)
C18A C 1.3602(8) -0.1002(4) -0.3087(4)
C19A C 1.4815(9) -0.1162(4) -0.3814(4)
O1A O 1.4505(6) -0.1508(3) -0.4371(3)
C1A C 1.287(1) -0.1657(6) -0.4257(5)
C20A C 1.6417(8) -0.0970(5) -0.3995(4)
O2A O 1.7577(6) -0.1091(4) -0.4746(3)
C3A C 1.860(1) -0.1915(7) -0.4428(6)
C21A C 1.6851(8) -0.0606(5) -0.3477(4)
O3A O 1.8455(6) -0.0402(4) -0.3741(3)
C5A C 1.897(1) -0.0035(8) -0.3248(6)
C22A C 1.5647(8) -0.0435(5) -0.2769(4)
C14A C 1.2083(8) 0.1191(4) -0.3126(4)
C15A C 1.1042(8) 0.1935(4) -0.3130(4)
C29 C -0.2218(7) 0.6431(4) -0.1606(10)
C30 C -0.1844(9) 0.5370(6) -0.1471(4)
C31 C -0.010(4) 0.4997(8) -0.1248(7)
C32 C 0.0932(5) 0.5885(6) -0.1959(4)
C33 C 0.1781(6) 0.6151(3) -0.1471(4)
C34 C 0.3594(9) 0.6033(5) -0.1679(7)
C35 C 0.4160(3) 0.5001(3) -0.1679(3)
loop_
_geom_bond_atom_site_label_1
_geom_bond_atom_site_label_2
_geom_bond_site_symmetry_1
_geom_bond_site_symmetry_2
O1 C1 1_555 1_555
O2 C3 1_555 1_555
O3 C5 1_555 1_555
O4 C7 1_555 1_555
O5 C9 1_555 1_555
O6 C11 1_555 1_555
N1 C4 1_555 1_555
N2 C13 1_555 1_555
C2 C4 1_555 1_555
C4 C6 1_555 1_555
C6 C8 1_555 1_555
C8 C10 1_555 1_555
C10 N1 1_555 1_555
C12 C10 1_555 1_555
C13 C12 1_555 1_555
C14 C13 1_555 1_555
C15 C14 1_555 1_555
C16 C2 1_555 1_555
C17 C12 1_555 1_555
C18 C17 1_555 1_555
C19 O1 1_555 1_555
C20 O2 1_555 1_555
C21 O3 1_555 1_555
C22 C17 1_555 1_555
C23 C2 1_555 1_555
C24 C23 1_555 1_555
C25 O4 1_555 1_555
C26 O5 1_555 1_555
C27 O6 1_555 1_555
C28 C23 1_555 1_555
C29 C30 1_555 1_555
C30 C31 1_555 1_555
C31 C32 1_555 1_555
C32 C33 1_555 1_555
C33 C34 1_555 1_555
C34 C35 1_555 1_555
N2A C16 1_555 1_555
C13A N2A 1_555 1_555
C12A C13A 1_555 1_555
C10A C12A 1_555 1_555
N1A C10A 1_555 1_555
C4A N1A 1_555 1_555
C2A C4A 1_555 1_555
C16A N2 1_555 1_555
C23A C2A 1_555 1_555
C24A C23A 1_555 1_555
C25A C24A 1_555 1_555
O4A C25A 1_555 1_555
C7A O4A 1_555 1_555
C26A C25A 1_555 1_555
O5A C26A 1_555 1_555
C9A O5A 1_555 1_555
C27A C26A 1_555 1_555
O6A C27A 1_555 1_555
C11A O6A 1_555 1_555
C28A C23A 1_555 1_555
C6A C4A 1_555 1_555
C8A C10A 1_555 1_555
C17A C12A 1_555 1_555
C18A C17A 1_555 1_555
C19A C18A 1_555 1_555
O1A C19A 1_555 1_555
C1A O1A 1_555 1_555
C20A C19A 1_555 1_555
O2A C20A 1_555 1_555
C3A O2A 1_555 1_555
C21A C20A 1_555 1_555
O3A C21A 1_555 1_555
C5A O3A 1_555 1_555
C22A C17A 1_555 1_555
C14A C13A 1_555 1_555
C15A C16 1_555 1_555
C15 C16A 1_555 1_555
C18 C19 1_555 1_555
C19 C20 1_555 1_555
C20 C21 1_555 1_555
C21 C22 1_555 1_555
C24 C25 1_555 1_555
C25 C26 1_555 1_555
C26 C27 1_555 1_555
C27 C28 1_555 1_555
C2A C16A 1_555 1_555
C27A C28A 1_555 1_555
C6A C8A 1_555 1_555
C21A C22A 1_555 1_555
C14A C15A 1_555 1_555

#END
