
#######################################################################
#
#                 Cambridge Crystallographic Data Centre
#                                CCDC 
#
#######################################################################
#
# If this CIF has been generated from an entry in the Cambridge 
# Structural Database, then it will include bibliographic, chemical, 
# crystal, experimental, refinement or atomic coordinate data resulting 
# from the CCDC's data processing and validation procedures.
#
#######################################################################

data_TAQSOU
_chemical_formula_moiety         'C24 H48 N4 O8 4+,4(Cl1 1-),8(H2 O1)'
_chemical_name_systematic        
'1,4,8,11-tetrakis(Carboxymethyl)-5,5,7,12,12,14-hexamethyl-1,4,8,11-tetraazoniacyclotetradecane tetrachloride octahydrate'
_symmetry_cell_setting           triclinic
_symmetry_space_group_name_H-M   'P -1'
_symmetry_Int_Tables_number      2
_space_group_name_Hall           '-P 1'
loop_
_symmetry_equiv_pos_site_id
_symmetry_equiv_pos_as_xyz
1 x,y,z
2 -x,-y,-z
_cell_length_a                   8.6283(3)
_cell_length_b                   10.6995(4)
_cell_length_c                   11.0065(4)
_cell_angle_alpha                100.1610(10)
_cell_angle_beta                 94.4820(10)
_cell_angle_gamma                103.1680(10)
_cell_volume                     966.417
_exptl_crystal_colour            colorless
_exptl_crystal_description       Block
_cell_formula_units_Z            1
loop_
_atom_site_label
_atom_site_type_symbol
_atom_site_fract_x
_atom_site_fract_y
_atom_site_fract_z
Cl1 Cl 0.11305(7) 0.11797(7) 0.82315(7)
Cl2 Cl 0.33315(5) 0.50102(5) 0.64405(4)
O1 O 0.5550(2) 0.36970(10) 0.9693(2)
O2 O 0.7493(2) 0.30500(10) 0.87210(10)
O3 O 0.4001(2) 0.02550(10) 0.33130(10)
O4 O 0.5725(2) 0.15780(10) 0.24030(10)
N1 N 0.81870(10) 0.51710(10) 0.76650(10)
N2 N 0.77040(10) 0.26830(10) 0.46070(10)
C1 C 0.6725(2) 0.3838(2) 0.90250(10)
C2 C 0.7058(2) 0.5156(2) 0.86430(10)
C3 C 0.8961(2) 0.66030(10) 0.75030(10)
C4 C 0.7630(2) 0.7287(2) 0.7296(2)
C5 C 1.0092(3) 0.7278(2) 0.8689(2)
C6 C 0.7308(2) 0.42390(10) 0.64770(10)
C7 C 0.8344(2) 0.33470(10) 0.59370(10)
C8 C 0.6282(2) 0.1562(2) 0.45660(10)
C9 C 0.5319(2) 0.1135(2) 0.3288(2)
C10 C 0.9026(2) 0.22770(10) 0.38790(10)
C11 C 0.9892(2) 0.1493(2) 0.4596(2)
C12 C 0.9915(2) 0.64550(10) 0.63810(10)
H9 H 0.528(4) 0.2910(10) 0.979(3)
H10 H 0.351(3) 0.005(3) 0.2580(10)
H11 H 0.897(2) 0.488(2) 0.792(2)
H12 H 0.738(2) 0.3240(10) 0.424(2)
H13 H 0.6061 0.5317 0.8315
H14 H 0.7532 0.5843 0.9361
H15 H 0.6950 0.6837 0.6540
H16 H 0.8091 0.8176 0.7233
H17 H 0.7009 0.7281 0.7982
H18 H 1.0915 0.6819 0.8785
H19 H 0.9500 0.7275 0.9391
H20 H 1.0575 0.8166 0.8636
H21 H 0.7046 0.4739 0.5871
H22 H 0.6313 0.3709 0.6656
H23 H 0.9434 0.3861 0.5970
H24 H 0.8365 0.2687 0.6436
H25 H 0.5601 0.1822 0.5173
H26 H 0.6647 0.0829 0.4787
H27 H 0.8516 0.1715 0.3080
H28 H 0.9138 0.0725 0.4711
H29 H 1.0374 0.2021 0.5393
H30 H 1.0710 0.1239 0.4138
H31 H 0.9159 0.6035 0.5644
H32 H 1.0595 0.5870 0.6506
O1A O 1.4450(2) 0.63030(10) 0.0307(2)
O2A O 1.2507(2) 0.69500(10) 0.12790(10)
O3A O 1.5999(2) 0.97450(10) 0.66870(10)
O4A O 1.4275(2) 0.84220(10) 0.75970(10)
N1A N 1.18130(10) 0.48290(10) 0.23350(10)
N2A N 1.22960(10) 0.73170(10) 0.53930(10)
C1A C 1.3275(2) 0.6162(2) 0.09750(10)
C2A C 1.2942(2) 0.4844(2) 0.13570(10)
C3A C 1.1039(2) 0.33970(10) 0.24970(10)
C4A C 1.2370(2) 0.2713(2) 0.2704(2)
C5A C 0.9908(3) 0.2722(2) 0.1311(2)
C6A C 1.2692(2) 0.57610(10) 0.35230(10)
C7A C 1.1656(2) 0.66530(10) 0.40630(10)
C8A C 1.3718(2) 0.8438(2) 0.54340(10)
C9A C 1.4681(2) 0.8865(2) 0.6712(2)
C10A C 1.0974(2) 0.77230(10) 0.61210(10)
C11A C 1.0108(2) 0.8507(2) 0.5404(2)
C12A C 1.0085(2) 0.35450(10) 0.36190(10)
H9A H 1.472(4) 0.7090(10) 0.021(3)
H10A H 1.649(3) 0.995(3) 0.7420(10)
H11A H 1.103(2) 0.512(2) 0.208(2)
H12A H 1.262(2) 0.6760(10) 0.576(2)
H13A H 1.3939 0.4683 0.1685
H14A H 1.2468 0.4157 0.0639
H15A H 1.3050 0.3163 0.3460
H16A H 1.1909 0.1824 0.2767
H17A H 1.2991 0.2719 0.2018
H18A H 0.9085 0.3181 0.1215
H19A H 1.0500 0.2725 0.0609
H20A H 0.9425 0.1834 0.1364
H21A H 1.2954 0.5261 0.4129
H22A H 1.3687 0.6291 0.3344
H23A H 1.0566 0.6139 0.4030
H24A H 1.1635 0.7313 0.3564
H25A H 1.4399 0.8178 0.4827
H26A H 1.3353 0.9171 0.5213
H27A H 1.1484 0.8285 0.6920
H28A H 1.0862 0.9275 0.5289
H29A H 0.9626 0.7979 0.4607
H30A H 0.9290 0.8761 0.5862
H31A H 1.0841 0.3965 0.4356
H32A H 0.9405 0.4130 0.3494
O5 O 0.4483(2) 0.1343(2) 0.9836(2)
H1 H 0.438(6) 0.127(5) 1.058(2)
H2 H 0.351(2) 0.120(3) 0.952(3)
O6 O 0.2368(2) -0.05110(10) 1.11780(10)
H3 H 0.254(3) -0.126(2) 1.098(3)
H4 H 0.141(2) -0.070(3) 1.134(2)
O7 O 0.3759(2) 0.2107(2) 0.6470(2)
H5 H 0.318(4) 0.165(3) 0.690(3)
H6 H 0.344(4) 0.278(2) 0.638(3)
O8 O 1.0933(2) 0.4259(2) 0.83880(10)
H7 H 1.085(4) 0.3450(10) 0.833(3)
H8 H 1.177(3) 0.447(3) 0.805(3)
loop_
_geom_bond_atom_site_label_1
_geom_bond_atom_site_label_2
_geom_bond_site_symmetry_1
_geom_bond_site_symmetry_2
O1 C1 1_555 1_555
O2 C1 1_555 1_555
O3 C9 1_555 1_555
O4 C9 1_555 1_555
O5 H1 1_555 1_555
O6 H3 1_555 1_555
O7 H5 1_555 1_555
O8 H7 1_555 1_555
N1 C2 1_555 1_555
N2 C7 1_555 1_555
C1 C2 1_555 1_555
C2 H13 1_555 1_555
C3 N1 1_555 1_555
C4 C3 1_555 1_555
C5 C3 1_555 1_555
C6 N1 1_555 1_555
C7 C6 1_555 1_555
C8 N2 1_555 1_555
C9 C8 1_555 1_555
C10 N2 1_555 1_555
C11 C10 1_555 1_555
C12 C3 1_555 1_555
H2 O5 1_555 1_555
H4 O6 1_555 1_555
H6 O7 1_555 1_555
H8 O8 1_555 1_555
H9 O1 1_555 1_555
H10 O3 1_555 1_555
H11 N1 1_555 1_555
H12 N2 1_555 1_555
H14 C2 1_555 1_555
H15 C4 1_555 1_555
H16 C4 1_555 1_555
H17 C4 1_555 1_555
H18 C5 1_555 1_555
H19 C5 1_555 1_555
H20 C5 1_555 1_555
H21 C6 1_555 1_555
H22 C6 1_555 1_555
H23 C7 1_555 1_555
H24 C7 1_555 1_555
H25 C8 1_555 1_555
H26 C8 1_555 1_555
H27 C10 1_555 1_555
H28 C11 1_555 1_555
H29 C11 1_555 1_555
H30 C11 1_555 1_555
H31 C12 1_555 1_555
H32 C12 1_555 1_555
O1A C1A 1_555 1_555
O2A C1A 1_555 1_555
O3A C9A 1_555 1_555
O4A C9A 1_555 1_555
N1A C2A 1_555 1_555
N2A C7A 1_555 1_555
C1A C2A 1_555 1_555
C2A H13A 1_555 1_555
C3A N1A 1_555 1_555
C4A C3A 1_555 1_555
C5A C3A 1_555 1_555
C6A N1A 1_555 1_555
C7A C6A 1_555 1_555
C8A N2A 1_555 1_555
C9A C8A 1_555 1_555
C10A C12 1_555 1_555
C11A C10A 1_555 1_555
C12A C10 1_555 1_555
H9A O1A 1_555 1_555
H10A O3A 1_555 1_555
H11A N1A 1_555 1_555
H12A N2A 1_555 1_555
H14A C2A 1_555 1_555
H15A C4A 1_555 1_555
H16A C4A 1_555 1_555
H17A C4A 1_555 1_555
H18A C5A 1_555 1_555
H19A C5A 1_555 1_555
H20A C5A 1_555 1_555
H21A C6A 1_555 1_555
H22A C6A 1_555 1_555
H23A C7A 1_555 1_555
H24A C7A 1_555 1_555
H25A C8A 1_555 1_555
H26A C8A 1_555 1_555
H27A C10A 1_555 1_555
H28A C11A 1_555 1_555
H29A C11A 1_555 1_555
H30A C11A 1_555 1_555
H31A C12A 1_555 1_555
H32A C12A 1_555 1_555
N2A C10A 1_555 1_555
C3A C12A 1_555 1_555

#END
