
#######################################################################
#
#                 Cambridge Crystallographic Data Centre
#                                CCDC 
#
#######################################################################
#
# If this CIF has been generated from an entry in the Cambridge 
# Structural Database, then it will include bibliographic, chemical, 
# crystal, experimental, refinement or atomic coordinate data resulting 
# from the CCDC's data processing and validation procedures.
#
#######################################################################

data_TAQWOY
_chemical_formula_moiety         'C18 H18 N2 O2'
_chemical_name_systematic        N,N'-Dibenzoylpiperazine
_chemical_properties_biological  
'antifilarial, antiamoebic and spermicidal activity'
_symmetry_cell_setting           orthorhombic
_symmetry_space_group_name_H-M   'P b c a'
_symmetry_Int_Tables_number      61
_space_group_name_Hall           '-P 2ac 2ab'
loop_
_symmetry_equiv_pos_site_id
_symmetry_equiv_pos_as_xyz
1 x,y,z
2 1/2-x,-y,1/2+z
3 -x,1/2+y,1/2-z
4 1/2+x,1/2-y,-z
5 -x,-y,-z
6 1/2+x,y,1/2-z
7 x,1/2-y,1/2+z
8 1/2-x,1/2+y,z
_cell_length_a                   7.8486(13)
_cell_length_b                   6.8254(12)
_cell_length_c                   28.771(5)
_cell_angle_alpha                90
_cell_angle_beta                 90
_cell_angle_gamma                90
_cell_volume                     1541.26
_exptl_crystal_colour            colorless
_exptl_crystal_description       block
_chemical_melting_point          '471.0 K'
_cell_formula_units_Z            4
_exptl_crystal_recrystallization_method ethanol/cyclohexane
loop_
_atom_site_label
_atom_site_type_symbol
_atom_site_fract_x
_atom_site_fract_y
_atom_site_fract_z
O1 O 0.52685(16) 0.43277(15) 0.43666(4)
N1 N 0.54459(15) 0.11883(16) 0.46140(4)
C1 C 0.6320(2) 0.0725(2) 0.35815(5)
H1 H 0.7214 0.0240 0.3760
C2 C 0.6215(2) 0.0266(3) 0.31129(6)
H2 H 0.7040 -0.0528 0.2978
C3 C 0.4901(3) 0.0976(3) 0.28478(6)
H3 H 0.4834 0.0662 0.2534
C4 C 0.3690(3) 0.2147(3) 0.30467(6)
H4 H 0.2793 0.2618 0.2867
C5 C 0.3787(2) 0.2638(2) 0.35123(6)
H5 H 0.2973 0.3462 0.3643
C6 C 0.50911(18) 0.1906(2) 0.37843(5)
C7 C 0.52542(18) 0.2566(2) 0.42795(5)
C8 C 0.59471(19) 0.1745(2) 0.50852(4)
H6 H 0.5964 0.3163 0.5109
H7 H 0.7091 0.1272 0.5146
C9 C 0.52503(19) -0.0927(2) 0.45522(5)
H8 H 0.6353 -0.1559 0.4579
H9 H 0.4804 -0.1196 0.4244
O1D O 0.47315(16) -0.43277(15) 0.56334(4)
N1D N 0.45541(15) -0.11883(16) 0.53860(4)
C1D C 0.3680(2) -0.0725(2) 0.64185(5)
H1D H 0.2786 -0.0240 0.6240
C2D C 0.3785(2) -0.0266(3) 0.68871(6)
H2D H 0.2960 0.0528 0.7022
C3D C 0.5099(3) -0.0976(3) 0.71522(6)
H3D H 0.5166 -0.0662 0.7466
C4D C 0.6310(3) -0.2147(3) 0.69533(6)
H4D H 0.7207 -0.2618 0.7133
C5D C 0.6213(2) -0.2638(2) 0.64877(6)
H5D H 0.7027 -0.3462 0.6357
C6D C 0.49089(18) -0.1906(2) 0.62157(5)
C7D C 0.47458(18) -0.2566(2) 0.57205(5)
C8D C 0.40529(19) -0.1745(2) 0.49148(4)
H6D H 0.4036 -0.3163 0.4891
H7D H 0.2909 -0.1272 0.4854
C9D C 0.47497(19) 0.0927(2) 0.54478(5)
H8D H 0.3647 0.1559 0.5421
H9D H 0.5196 0.1196 0.5756
loop_
_geom_bond_atom_site_label_1
_geom_bond_atom_site_label_2
_geom_bond_site_symmetry_1
_geom_bond_site_symmetry_2
O1 C7 1_555 1_555
N1 C7 1_555 1_555
C1 H1 1_555 1_555
C2 C1 1_555 1_555
H2 C2 1_555 1_555
C3 C2 1_555 1_555
H3 C3 1_555 1_555
C4 C3 1_555 1_555
H4 C4 1_555 1_555
C5 C4 1_555 1_555
H5 C5 1_555 1_555
C6 C1 1_555 1_555
C7 C6 1_555 1_555
C8 N1 1_555 1_555
H6 C8 1_555 1_555
H7 C8 1_555 1_555
C9 N1 1_555 1_555
H8 C9 1_555 1_555
H9 C9 1_555 1_555
O1D C7D 1_555 1_555
N1D C7D 1_555 1_555
C1D H1D 1_555 1_555
C2D C1D 1_555 1_555
H2D C2D 1_555 1_555
C3D C2D 1_555 1_555
H3D C3D 1_555 1_555
C4D C3D 1_555 1_555
H4D C4D 1_555 1_555
C5D C4D 1_555 1_555
H5D C5D 1_555 1_555
C6D C1D 1_555 1_555
C7D C6D 1_555 1_555
C8D C9 1_555 1_555
H6D C8D 1_555 1_555
H7D C8D 1_555 1_555
C9D C8 1_555 1_555
H8D C9D 1_555 1_555
H9D C9D 1_555 1_555
C5 C6 1_555 1_555
N1D C8D 1_555 1_555
N1D C9D 1_555 1_555
C5D C6D 1_555 1_555

#END
