
#######################################################################
#
#                 Cambridge Crystallographic Data Centre
#                                CCDC 
#
#######################################################################
#
# If this CIF has been generated from an entry in the Cambridge 
# Structural Database, then it will include bibliographic, chemical, 
# crystal, experimental, refinement or atomic coordinate data resulting 
# from the CCDC's data processing and validation procedures.
#
#######################################################################

data_TARCAS
_chemical_formula_moiety         'C15 H17 N1 O2 S1'
_chemical_name_systematic        
3-((4-Methylphenyl)sulfonyl)-7-vinyl-3-azabicyclo[4.1.0]hept-4-ene
_symmetry_cell_setting           monoclinic
_symmetry_space_group_name_H-M   'P 21/n'
_symmetry_Int_Tables_number      14
_space_group_name_Hall           '-P 2yn'
loop_
_symmetry_equiv_pos_site_id
_symmetry_equiv_pos_as_xyz
1 x,y,z
2 1/2-x,1/2+y,1/2-z
3 -x,-y,-z
4 1/2+x,1/2-y,1/2+z
_cell_length_a                   11.4368(9)
_cell_length_b                   9.3232(4)
_cell_length_c                   13.8085(11)
_cell_angle_alpha                90
_cell_angle_beta                 103.023(3)
_cell_angle_gamma                90
_cell_volume                     1434.5
_exptl_crystal_colour            colorless
_exptl_crystal_description       prism
_cell_formula_units_Z            4
loop_
_atom_site_label
_atom_site_type_symbol
_atom_site_fract_x
_atom_site_fract_y
_atom_site_fract_z
S1 S 0.13736(7) 0.13336(7) 0.67726(5)
N1 N 0.0361(2) 0.2581(2) 0.64219(15)
O1 O 0.0829(2) 0.00096(19) 0.63813(15)
O2 O 0.1801(2) 0.1497(2) 0.78175(14)
C1 C 0.5446(4) 0.2723(5) 0.4797(4)
H1 H 0.5605 0.1919 0.4412
H2 H 0.6153 0.2946 0.5296
H3 H 0.5224 0.3537 0.4370
C2 C 0.4431(3) 0.2355(4) 0.5292(3)
C3 C 0.4324(3) 0.3040(4) 0.6150(3)
H4 H 0.4883 0.3735 0.6426
C4 C 0.3413(3) 0.2719(3) 0.6605(2)
H5 H 0.3363 0.3185 0.7190
C5 C 0.2570(3) 0.1705(3) 0.6198(2)
C6 C 0.2654(3) 0.1012(3) 0.5340(2)
H6 H 0.2084 0.0332 0.5056
C7 C 0.3592(3) 0.1336(4) 0.4903(3)
H7 H 0.3658 0.0851 0.4329
C8 C 0.0652(3) 0.4052(3) 0.6825(2)
H8 H 0.1274 0.4460 0.6534
H9 H 0.0962 0.3996 0.7538
C9 C -0.0432(3) 0.5025(3) 0.6608(2)
H10 H -0.0258 0.6043 0.6751
C10 C -0.1640(3) 0.4534(3) 0.6736(2)
H11 H -0.1680 0.3538 0.6952
C11 C -0.2433(3) 0.5550(4) 0.7098(3)
H12 H -0.2392 0.6511 0.6927
C12 C -0.3188(3) 0.5205(4) 0.7639(3)
H13 H -0.3255 0.4255 0.7825
H14 H -0.3660 0.5908 0.7840
C13 C -0.1395(3) 0.4735(3) 0.5700(2)
H15 H -0.1762 0.5571 0.5320
C14 C -0.1234(3) 0.3447(3) 0.5126(2)
H16 H -0.1735 0.3320 0.4500
C15 C -0.0411(2) 0.2466(3) 0.54620(18)
H17 H -0.0334 0.1683 0.5063
loop_
_geom_bond_atom_site_label_1
_geom_bond_atom_site_label_2
_geom_bond_site_symmetry_1
_geom_bond_site_symmetry_2
S1 N1 1_555 1_555
N1 C8 1_555 1_555
O1 S1 1_555 1_555
O2 S1 1_555 1_555
C1 H1 1_555 1_555
H2 C1 1_555 1_555
H3 C1 1_555 1_555
C2 C1 1_555 1_555
C3 C2 1_555 1_555
H4 C3 1_555 1_555
C4 C3 1_555 1_555
H5 C4 1_555 1_555
C5 S1 1_555 1_555
C6 C5 1_555 1_555
H6 C6 1_555 1_555
C7 C2 1_555 1_555
H7 C7 1_555 1_555
C8 H8 1_555 1_555
H9 C8 1_555 1_555
C9 C8 1_555 1_555
H10 C9 1_555 1_555
C10 C9 1_555 1_555
H11 C10 1_555 1_555
C11 C10 1_555 1_555
H12 C11 1_555 1_555
C12 C11 1_555 1_555
H13 C12 1_555 1_555
H14 C12 1_555 1_555
C13 C9 1_555 1_555
H15 C13 1_555 1_555
C14 C13 1_555 1_555
H16 C14 1_555 1_555
C15 N1 1_555 1_555
H17 C15 1_555 1_555
C4 C5 1_555 1_555
C6 C7 1_555 1_555
C10 C13 1_555 1_555
C14 C15 1_555 1_555

#END
