
#######################################################################
#
#                 Cambridge Crystallographic Data Centre
#                                CCDC 
#
#######################################################################
#
# If this CIF has been generated from an entry in the Cambridge 
# Structural Database, then it will include bibliographic, chemical, 
# crystal, experimental, refinement or atomic coordinate data resulting 
# from the CCDC's data processing and validation procedures.
#
#######################################################################

data_TARCUK
_chemical_formula_moiety         'C8 H10 O3 S1'
_chemical_name_systematic        '(S)-4-Methoxyphenyl methyl sulfoxide'
_symmetry_cell_setting           monoclinic
_symmetry_space_group_name_H-M   'P 21/c'
_symmetry_Int_Tables_number      14
_space_group_name_Hall           '-P 2ybc'
loop_
_symmetry_equiv_pos_site_id
_symmetry_equiv_pos_as_xyz
1 x,y,z
2 -x,1/2+y,1/2-z
3 -x,-y,-z
4 x,1/2-y,1/2+z
_cell_length_a                   5.638(3)
_cell_length_b                   7.828(2)
_cell_length_c                   20.045(3)
_cell_angle_alpha                90
_cell_angle_beta                 95.05(2)
_cell_angle_gamma                90
_cell_volume                     881.237
_cell_formula_units_Z            4
loop_
_atom_site_label
_atom_site_type_symbol
_atom_site_fract_x
_atom_site_fract_y
_atom_site_fract_z
S1 S 0.13480(10) 0.43946(8) 0.40044(3)
O1 O -0.1142(3) 0.4722(3) 0.40246(9)
O2 O 0.2317(4) 0.2877(2) 0.43275(9)
O3 O 0.3806(3) 0.4146(2) 0.12160(8)
C1 C 0.1996(3) 0.4334(2) 0.31610(9)
C2 C 0.4045(4) 0.3513(3) 0.29939(11)
C3 C 0.4570(4) 0.3471(3) 0.23422(11)
C4 C 0.3083(4) 0.4244(2) 0.18412(10)
C5 C 0.1007(4) 0.5063(3) 0.20048(10)
C6 C 0.0483(3) 0.5098(3) 0.26672(10)
C7 C 0.2965(5) 0.6143(3) 0.43536(11)
C8 C 0.2336(5) 0.4856(4) 0.06715(12)
H1 H 0.502(4) 0.297(3) 0.334(1)
H2 H 0.590(4) 0.294(3) 0.224(1)
H3 H 0.004(4) 0.558(3) 0.167(1)
H4 H -0.098(4) 0.568(3) 0.277(1)
H5 H 0.475(5) 0.600(4) 0.430(1)
H6 H 0.241(5) 0.706(4) 0.410(1)
H7 H 0.279(5) 0.621(4) 0.480(1)
H8 H 0.071(5) 0.439(3) 0.065(1)
H9 H 0.294(5) 0.454(3) 0.031(2)
H10 H 0.229(6) 0.618(5) 0.068(2)
loop_
_geom_bond_atom_site_label_1
_geom_bond_atom_site_label_2
_geom_bond_site_symmetry_1
_geom_bond_site_symmetry_2
S1 O1 1_555 1_555
O2 S1 1_555 1_555
O3 C4 1_555 1_555
C1 S1 1_555 1_555
C2 C1 1_555 1_555
C3 C2 1_555 1_555
C4 C3 1_555 1_555
C5 C4 1_555 1_555
C6 C1 1_555 1_555
C7 S1 1_555 1_555
C8 O3 1_555 1_555
H1 C2 1_555 1_555
H2 C3 1_555 1_555
H3 C5 1_555 1_555
H4 C6 1_555 1_555
H5 C7 1_555 1_555
H6 C7 1_555 1_555
H7 C7 1_555 1_555
H8 C8 1_555 1_555
H9 C8 1_555 1_555
H10 C8 1_555 1_555
C5 C6 1_555 1_555

#END
