
#######################################################################
#
#                 Cambridge Crystallographic Data Centre
#                                CCDC 
#
#######################################################################
#
# If this CIF has been generated from an entry in the Cambridge 
# Structural Database, then it will include bibliographic, chemical, 
# crystal, experimental, refinement or atomic coordinate data resulting 
# from the CCDC's data processing and validation procedures.
#
#######################################################################

data_TARNOQ
_chemical_formula_moiety         'C22 H17 N1 O3 S1,C1 H1 Cl3'
_chemical_name_systematic        
'7,9-Dimethyl-3-phenyl-6-acetamidonaphtho(1,2-b)thiophene-4,5-dione chloroform solvate'
_symmetry_cell_setting           monoclinic
_symmetry_space_group_name_H-M   'P 21/c'
_symmetry_Int_Tables_number      14
_space_group_name_Hall           '-P 2ybc'
loop_
_symmetry_equiv_pos_site_id
_symmetry_equiv_pos_as_xyz
1 x,y,z
2 -x,1/2+y,1/2-z
3 -x,-y,-z
4 x,1/2-y,1/2+z
_cell_length_a                   17.413(6)
_cell_length_b                   16.235(5)
_cell_length_c                   8.054(3)
_cell_angle_alpha                90
_cell_angle_beta                 95.706(6)
_cell_angle_gamma                90
_cell_volume                     2265.58
_exptl_crystal_colour            red
_exptl_crystal_description       plate
_cell_formula_units_Z            4
loop_
_atom_site_label
_atom_site_type_symbol
_atom_site_fract_x
_atom_site_fract_y
_atom_site_fract_z
S1 S 0.01872(5) 0.15321(5) 0.22984(12)
N1 N -0.20525(14) 0.45219(17) -0.0603(3)
H1 H -0.1815 0.4841 -0.1233
O1 O 0.07260(13) 0.44950(14) 0.1864(3)
O2 O -0.08029(14) 0.48396(14) 0.1561(3)
O3 O -0.30038(15) 0.43833(17) 0.1045(4)
C1 C 0.1853(2) 0.3876(2) 0.4651(4)
H2 H 0.1392 0.4132 0.4843
C2 C 0.2546(2) 0.4205(3) 0.5315(5)
H3 H 0.2551 0.4678 0.5968
C3 C 0.3228(2) 0.3840(3) 0.5018(6)
H4 H 0.3693 0.4068 0.5469
C4 C 0.3231(2) 0.3145(3) 0.4068(6)
H5 H 0.3696 0.2900 0.3869
C5 C 0.2536(2) 0.2807(2) 0.3400(5)
H6 H 0.2538 0.2335 0.2746
C6 C 0.18413(18) 0.3161(2) 0.3692(4)
C7 C 0.11175(17) 0.27393(19) 0.3042(4)
C8 C 0.04191(16) 0.30748(18) 0.2204(4)
C9 C 0.02563(16) 0.39385(18) 0.1794(4)
C10 C -0.05946(17) 0.41459(18) 0.1279(4)
C11 C -0.11070(16) 0.34928(17) 0.0518(3)
C12 C -0.18129(16) 0.36967(19) -0.0388(4)
C13 C -0.22896(18) 0.3077(2) -0.1149(4)
C14 C -0.2054(2) 0.2283(2) -0.0904(4)
H7 H -0.2371 0.1870 -0.1395
C15 C -0.13759(19) 0.2042(2) 0.0022(4)
C16 C -0.08796(16) 0.26595(17) 0.0728(4)
C17 C -0.01342(17) 0.24916(18) 0.1698(4)
C18 C 0.1038(2) 0.1914(2) 0.3166(5)
C19 C -0.3024(2) 0.3283(3) -0.2215(5)
H8 H -0.3270 0.2784 -0.2626
H9 H -0.2907 0.3619 -0.3138
H10 H -0.3365 0.3578 -0.1559
C20 C -0.1225(2) 0.1130(2) 0.0188(5)
H11 H -0.0743 0.1040 0.0850
H12 H -0.1203 0.0894 -0.0899
H13 H -0.1634 0.0875 0.0719
C21 C -0.26480(18) 0.4818(2) 0.0164(4)
C22 C -0.2845(2) 0.5702(2) -0.0144(6)
H14 H -0.3271 0.5851 0.0466
H15 H -0.2985 0.5787 -0.1315
H16 H -0.2407 0.6038 0.0218
H18 H 0.132(2) 0.158(2) 0.358(4)
Cl1 Cl -0.50218(11) 0.33114(12) -0.9030(3)
Cl2 Cl -0.42933(14) 0.36776(16) -0.5801(2)
Cl3 Cl -0.51724(9) 0.48972(10) -0.7621(2)
C23 C -0.4570(2) 0.4050(3) -0.7768(6)
H17 H -0.4107 0.4232 -0.8266
loop_
_geom_bond_atom_site_label_1
_geom_bond_atom_site_label_2
_geom_bond_site_symmetry_1
_geom_bond_site_symmetry_2
S1 C17 1_555 1_555
Cl1 C23 1_555 1_555
Cl2 C23 1_555 1_555
Cl3 C23 1_555 1_555
N1 H1 1_555 1_555
O1 C9 1_555 1_555
O2 C10 1_555 1_555
O3 C21 1_555 1_555
C1 H2 1_555 1_555
C2 C1 1_555 1_555
H3 C2 1_555 1_555
C3 C2 1_555 1_555
H4 C3 1_555 1_555
C4 C3 1_555 1_555
H5 C4 1_555 1_555
C5 C4 1_555 1_555
H6 C5 1_555 1_555
C6 C1 1_555 1_555
C7 C6 1_555 1_555
C8 C7 1_555 1_555
C9 C8 1_555 1_555
C10 C9 1_555 1_555
C11 C10 1_555 1_555
C12 N1 1_555 1_555
C13 C12 1_555 1_555
C14 C13 1_555 1_555
H7 C14 1_555 1_555
C15 C14 1_555 1_555
C16 C11 1_555 1_555
C17 C8 1_555 1_555
C18 S1 1_555 1_555
C19 C13 1_555 1_555
H8 C19 1_555 1_555
H9 C19 1_555 1_555
H10 C19 1_555 1_555
C20 C15 1_555 1_555
H11 C20 1_555 1_555
H12 C20 1_555 1_555
H13 C20 1_555 1_555
C21 N1 1_555 1_555
C22 C21 1_555 1_555
H14 C22 1_555 1_555
H15 C22 1_555 1_555
H16 C22 1_555 1_555
C23 H17 1_555 1_555
H18 C18 1_555 1_555
C5 C6 1_555 1_555
C7 C18 1_555 1_555
C11 C12 1_555 1_555
C15 C16 1_555 1_555
C16 C17 1_555 1_555

#END
