
#######################################################################
#
#                 Cambridge Crystallographic Data Centre
#                                CCDC 
#
#######################################################################
#
# If this CIF has been generated from an entry in the Cambridge 
# Structural Database, then it will include bibliographic, chemical, 
# crystal, experimental, refinement or atomic coordinate data resulting 
# from the CCDC's data processing and validation procedures.
#
#######################################################################

data_TARREK
_chemical_formula_moiety         'C15 H14 Cl1 N1 Se1'
_chemical_name_systematic        
Chloro-(o-((R)-(\a-methylbenzyl)iminomethyl)phenyl)-selenium
_symmetry_cell_setting           orthorhombic
_symmetry_space_group_name_H-M   'P 21 21 21'
_symmetry_Int_Tables_number      19
_space_group_name_Hall           'P 2ac 2ab'
loop_
_symmetry_equiv_pos_site_id
_symmetry_equiv_pos_as_xyz
1 x,y,z
2 1/2-x,-y,1/2+z
3 -x,1/2+y,1/2-z
4 1/2+x,1/2-y,-z
_cell_length_a                   10.9277(7)
_cell_length_b                   11.1710(8)
_cell_length_c                   11.3708(10)
_cell_angle_alpha                90
_cell_angle_beta                 90
_cell_angle_gamma                90
_cell_volume                     1388.07
_exptl_crystal_colour            colorless
_exptl_crystal_description       block
_cell_formula_units_Z            4
_exptl_crystal_recrystallization_method chloroform/pentane
loop_
_atom_site_label
_atom_site_type_symbol
_atom_site_fract_x
_atom_site_fract_y
_atom_site_fract_z
Se1 Se 0.83025(3) 0.34336(2) 0.13300(3)
Cl1 Cl 0.97569(9) 0.26573(7) 0.29828(8)
N1 N 0.7199(3) 0.3899(2) 0.0061(2)
C1 C 0.7912(3) 0.1870(2) 0.0821(3)
C2 C 0.8348(3) 0.0800(2) 0.1264(3)
H1 H 0.8901 0.0790 0.1886
C3 C 0.7945(3) -0.0250(3) 0.0767(4)
H2 H 0.8249 -0.0973 0.1048
C4 C 0.7106(3) -0.0260(3) -0.0135(4)
H3 H 0.6836 -0.0986 -0.0440
C5 C 0.6668(4) 0.0788(2) -0.0583(3)
H4 H 0.6102 0.0783 -0.1194
C6 C 0.7082(3) 0.1871(2) -0.0113(3)
C7 C 0.6730(4) 0.3026(2) -0.0503(3)
H5 H 0.6194 0.3139 -0.1128
C8 C 0.6979(3) 0.5182(2) -0.0219(3)
H6 H 0.6395 0.5214 -0.0873
C9 C 0.8170(4) 0.5734(3) -0.0641(4)
H7 H 0.8759 0.5717 -0.0015
H8 H 0.8028 0.6548 -0.0875
H9 H 0.8477 0.5286 -0.1299
C10 C 0.6385(3) 0.5785(2) 0.0834(3)
C11 C 0.5289(3) 0.5375(3) 0.1238(4)
H10 H 0.4944 0.4697 0.0899
C12 C 0.4683(4) 0.5947(4) 0.2138(4)
H11 H 0.3939 0.5651 0.2410
C13 C 0.5174(4) 0.6944(3) 0.2628(4)
H12 H 0.4754 0.7350 0.3217
C14 C 0.6270(4) 0.7345(3) 0.2263(4)
H13 H 0.6617 0.8015 0.2616
C15 C 0.6874(3) 0.6771(2) 0.1373(3)
H14 H 0.7633 0.7055 0.1129
loop_
_geom_bond_atom_site_label_1
_geom_bond_atom_site_label_2
_geom_bond_site_symmetry_1
_geom_bond_site_symmetry_2
Se1 Cl1 1_555 1_555
N1 Se1 1_555 1_555
C1 Se1 1_555 1_555
C2 C1 1_555 1_555
H1 C2 1_555 1_555
C3 C2 1_555 1_555
H2 C3 1_555 1_555
C4 C3 1_555 1_555
H3 C4 1_555 1_555
C5 C4 1_555 1_555
H4 C5 1_555 1_555
C6 C1 1_555 1_555
C7 N1 1_555 1_555
H5 C7 1_555 1_555
C8 N1 1_555 1_555
H6 C8 1_555 1_555
C9 C8 1_555 1_555
H7 C9 1_555 1_555
H8 C9 1_555 1_555
H9 C9 1_555 1_555
C10 C8 1_555 1_555
C11 C10 1_555 1_555
H10 C11 1_555 1_555
C12 C11 1_555 1_555
H11 C12 1_555 1_555
C13 C12 1_555 1_555
H12 C13 1_555 1_555
C14 C13 1_555 1_555
H13 C14 1_555 1_555
C15 C10 1_555 1_555
H14 C15 1_555 1_555
C5 C6 1_555 1_555
C6 C7 1_555 1_555
C14 C15 1_555 1_555

#END
