
#######################################################################
#
#                 Cambridge Crystallographic Data Centre
#                                CCDC 
#
#######################################################################
#
# If this CIF has been generated from an entry in the Cambridge 
# Structural Database, then it will include bibliographic, chemical, 
# crystal, experimental, refinement or atomic coordinate data resulting 
# from the CCDC's data processing and validation procedures.
#
#######################################################################

data_TASCIA
_chemical_formula_moiety         'C33 H44 O3'
_chemical_name_systematic        '4-Octylphenyl 6-octyloxy-2-naphthoate'
_symmetry_cell_setting           triclinic
_symmetry_space_group_name_H-M   'P -1'
_symmetry_Int_Tables_number      2
_space_group_name_Hall           '-P 1'
loop_
_symmetry_equiv_pos_site_id
_symmetry_equiv_pos_as_xyz
1 x,y,z
2 -x,-y,-z
_cell_length_a                   10.155(7)
_cell_length_b                   25.805(19)
_cell_length_c                   5.853(4)
_cell_angle_alpha                92.79(6)
_cell_angle_beta                 103.53(5)
_cell_angle_gamma                87.39(7)
_cell_volume                     1488.52
_exptl_crystal_colour            colorless
_exptl_crystal_description       plate
_chemical_melting_point          '345.5 K'
_cell_formula_units_Z            2
_exptl_crystal_recrystallization_method 'ethyl acetate/ethanol'
loop_
_atom_site_label
_atom_site_type_symbol
_atom_site_fract_x
_atom_site_fract_y
_atom_site_fract_z
O1 O 0.5750(3) 0.43163(11) 0.2321(4)
O2 O 0.6717(3) 0.41966(12) 0.6119(5)
O3 O 1.1491(3) 0.67601(13) 0.6262(5)
C1 C 0.9687(4) 0.62164(16) 0.4091(7)
H1 H 0.9576 0.6400 0.2728
C2 C 1.0637(5) 0.63634(18) 0.6079(8)
C3 C 1.0776(5) 0.60958(19) 0.8148(7)
H2 H 1.1414 0.6200 0.9489
C4 C 1.0002(4) 0.56902(18) 0.8230(7)
H3 H 1.0103 0.5521 0.9631
C5 C 0.8244(4) 0.50891(17) 0.6219(7)
H4 H 0.8349 0.4913 0.7604
C6 C 0.7312(4) 0.49178(16) 0.4239(7)
C7 C 0.7158(4) 0.51867(16) 0.2180(6)
H5 H 0.6545 0.5074 0.0824
C8 C 0.7896(4) 0.56127(17) 0.2127(6)
H6 H 0.7745 0.5793 0.0746
C9 C 0.8888(4) 0.57906(16) 0.4119(7)
C10 C 0.9034(4) 0.55176(17) 0.6208(7)
C11 C 0.4946(4) 0.38785(17) 0.2105(8)
C12 C 0.4113(4) 0.38059(17) 0.3567(7)
H7 H 0.4121 0.4030 0.4864
C13 C 0.3256(5) 0.33942(19) 0.3092(8)
H8 H 0.2682 0.3344 0.4083
C14 C 0.3227(5) 0.30550(18) 0.1189(8)
C15 C 0.4095(5) 0.31483(19) -0.0255(7)
H9 H 0.4089 0.2928 -0.1563
C16 C 0.4958(5) 0.35529(19) 0.0182(7)
H10 H 0.5536 0.3606 -0.0797
C17 C 0.6607(4) 0.44461(17) 0.4407(8)
C18 C 1.1599(5) 0.70030(17) 0.4199(8)
H11 H 1.0763 0.7196 0.3551
H12 H 1.1750 0.6742 0.3028
C19 C 1.2753(5) 0.73615(19) 0.4793(8)
H13 H 1.3581 0.7162 0.5418
H14 H 1.2607 0.7610 0.6015
C20 C 1.2932(5) 0.76516(19) 0.2733(9)
H15 H 1.2098 0.7846 0.2095
H16 H 1.3090 0.7403 0.1521
C21 C 1.4080(5) 0.8020(2) 0.3319(9)
H17 H 1.3931 0.8261 0.4565
H18 H 1.4914 0.7823 0.3929
C22 C 1.4271(6) 0.8325(2) 0.1330(11)
H19 H 1.4427 0.8084 0.0090
H20 H 1.3434 0.8520 0.0711
C23 C 1.5392(7) 0.8693(3) 0.1896(13)
H21 H 1.5249 0.8927 0.3169
H22 H 1.6231 0.8496 0.2477
C24 C 1.5569(9) 0.9004(3) -0.0022(17)
H23 H 1.5741 0.8769 -0.1270
H24 H 1.4716 0.9190 -0.0639
C25 C 1.6598(10) 0.9368(4) 0.049(2)
H25 H 1.6610 0.9546 -0.0909
H26 H 1.7458 0.9192 0.1050
H27 H 1.6428 0.9615 0.1677
C26 C 0.2248(7) 0.2625(2) 0.0647(9)
H28 H 0.1417 0.2763 -0.0348
H29 H 0.2615 0.2361 -0.0293
C27 C 0.1882(6) 0.2368(2) 0.2505(10)
H30 H 0.1494 0.2630 0.3424
H31 H 0.2713 0.2236 0.3521
C28 C 0.0934(6) 0.1936(2) 0.1950(10)
H32 H 0.0099 0.2069 0.0950
H33 H 0.1317 0.1676 0.1014
C29 C 0.0573(7) 0.1670(2) 0.3836(12)
H34 H 0.0187 0.1931 0.4764
H35 H 0.1411 0.1541 0.4841
C30 C -0.0352(7) 0.1240(2) 0.3336(12)
H36 H -0.1184 0.1366 0.2302
H37 H 0.0043 0.0974 0.2448
C31 C -0.0727(8) 0.0987(3) 0.5253(13)
H38 H 0.0105 0.0856 0.6269
H39 H -0.1103 0.1255 0.6159
C32 C -0.1640(10) 0.0577(3) 0.4793(17)
H40 H -0.1271 0.0311 0.3866
H41 H -0.2477 0.0710 0.3796
C33 C -0.1998(10) 0.0321(3) 0.6717(17)
H42 H -0.2624 0.0053 0.6088
H43 H -0.2412 0.0570 0.7628
H44 H -0.1195 0.0170 0.7702
loop_
_geom_bond_atom_site_label_1
_geom_bond_atom_site_label_2
_geom_bond_site_symmetry_1
_geom_bond_site_symmetry_2
O1 C11 1_555 1_555
O2 C17 1_555 1_555
O3 C2 1_555 1_555
C1 H1 1_555 1_555
C2 C1 1_555 1_555
C3 C2 1_555 1_555
H2 C3 1_555 1_555
C4 C3 1_555 1_555
H3 C4 1_555 1_555
C5 H4 1_555 1_555
C6 C5 1_555 1_555
C7 C6 1_555 1_555
H5 C7 1_555 1_555
C8 C7 1_555 1_555
H6 C8 1_555 1_555
C9 C1 1_555 1_555
C10 C4 1_555 1_555
C11 C12 1_555 1_555
C12 H7 1_555 1_555
C13 C12 1_555 1_555
H8 C13 1_555 1_555
C14 C13 1_555 1_555
C15 C14 1_555 1_555
H9 C15 1_555 1_555
C16 C11 1_555 1_555
H10 C16 1_555 1_555
C17 O1 1_555 1_555
C18 O3 1_555 1_555
H11 C18 1_555 1_555
H12 C18 1_555 1_555
C19 C18 1_555 1_555
H13 C19 1_555 1_555
H14 C19 1_555 1_555
C20 C19 1_555 1_555
H15 C20 1_555 1_555
H16 C20 1_555 1_555
C21 C20 1_555 1_555
H17 C21 1_555 1_555
H18 C21 1_555 1_555
C22 C21 1_555 1_555
H19 C22 1_555 1_555
H20 C22 1_555 1_555
C23 C22 1_555 1_555
H21 C23 1_555 1_555
H22 C23 1_555 1_555
C24 C23 1_555 1_555
H23 C24 1_555 1_555
H24 C24 1_555 1_555
C25 C24 1_555 1_555
H25 C25 1_555 1_555
H26 C25 1_555 1_555
H27 C25 1_555 1_555
C26 C14 1_555 1_555
H28 C26 1_555 1_555
H29 C26 1_555 1_555
C27 C26 1_555 1_555
H30 C27 1_555 1_555
H31 C27 1_555 1_555
C28 C27 1_555 1_555
H32 C28 1_555 1_555
H33 C28 1_555 1_555
C29 C28 1_555 1_555
H34 C29 1_555 1_555
H35 C29 1_555 1_555
C30 C29 1_555 1_555
H36 C30 1_555 1_555
H37 C30 1_555 1_555
C31 C30 1_555 1_555
H38 C31 1_555 1_555
H39 C31 1_555 1_555
C32 C31 1_555 1_555
H40 C32 1_555 1_555
H41 C32 1_555 1_555
C33 C32 1_555 1_555
H42 C33 1_555 1_555
H43 C33 1_555 1_555
H44 C33 1_555 1_555
C5 C10 1_555 1_555
C6 C17 1_555 1_555
C8 C9 1_555 1_555
C9 C10 1_555 1_555
C15 C16 1_555 1_555

#END
