
#######################################################################
#
#                 Cambridge Crystallographic Data Centre
#                                CCDC 
#
#######################################################################
#
# If this CIF has been generated from an entry in the Cambridge 
# Structural Database, then it will include bibliographic, chemical, 
# crystal, experimental, refinement or atomic coordinate data resulting 
# from the CCDC's data processing and validation procedures.
#
#######################################################################

data_TASLUX
_chemical_formula_moiety         'C23 H19 I1 O3 S1'
_chemical_name_systematic        
2-(iodomethyl)-2,5-diphenyl-4-(phenylsulfonyl)-2,3-dihydrofuran
_symmetry_cell_setting           monoclinic
_symmetry_space_group_name_H-M   'P 21/c'
_symmetry_Int_Tables_number      14
_space_group_name_Hall           '-P 2ybc'
loop_
_symmetry_equiv_pos_site_id
_symmetry_equiv_pos_as_xyz
1 x,y,z
2 -x,1/2+y,1/2-z
3 -x,-y,-z
4 x,1/2-y,1/2+z
_cell_length_a                   11.2812(4)
_cell_length_b                   15.9847(5)
_cell_length_c                   11.4574(4)
_cell_angle_alpha                90
_cell_angle_beta                 101.8480(10)
_cell_angle_gamma                90
_cell_volume                     2022.06
_exptl_crystal_colour            colorless
_cell_formula_units_Z            4
loop_
_atom_site_label
_atom_site_type_symbol
_atom_site_fract_x
_atom_site_fract_y
_atom_site_fract_z
I1 I 0.84341(3) 0.34235(2) 0.55084(3)
C1 C 0.8480(4) 0.4746(3) 0.5856(4)
H1 H 0.8135 0.4852 0.6570
H2 H 0.9334 0.4934 0.6038
C2 C 0.7781(3) 0.5260(2) 0.4818(3)
C3 C 0.6422(3) 0.5023(2) 0.4454(3)
H3 H 0.6210 0.4573 0.4968
H4 H 0.5895 0.5514 0.4491
C4 C 0.6323(3) 0.4726(2) 0.3188(3)
C5 C 0.7404(3) 0.4765(2) 0.2877(3)
C6 C 0.5158(3) 0.3194(2) 0.2846(3)
C7 C 0.4614(3) 0.2920(2) 0.3749(3)
H5 H 0.4165 0.3297 0.4131
C8 C 0.4732(4) 0.2079(2) 0.4098(4)
H6 H 0.4364 0.1880 0.4720
C9 C 0.5387(4) 0.1540(2) 0.3527(4)
H7 H 0.5468 0.0969 0.3761
C10 C 0.5929(4) 0.1824(2) 0.2616(4)
H8 H 0.6371 0.1446 0.2227
C11 C 0.5826(4) 0.2660(2) 0.2272(4)
H9 H 0.6204 0.2861 0.1659
C12 C 0.7847(3) 0.4533(2) 0.1794(3)
C13 C 0.8797(4) 0.3962(3) 0.1910(4)
H10 H 0.9116 0.3714 0.2663
C14 C 0.9277(4) 0.3756(3) 0.0926(4)
H11 H 0.9915 0.3359 0.1001
C15 C 0.8825(4) 0.4130(3) -0.0170(4)
H12 H 0.9170 0.4001 -0.0838
C16 C 0.7873(4) 0.4690(3) -0.0287(4)
H13 H 0.7555 0.4939 -0.1039
C17 C 0.7377(3) 0.4890(2) 0.0698(4)
H14 H 0.6718 0.5271 0.0615
C18 C 0.7972(3) 0.6195(2) 0.5044(3)
C19 C 0.7610(3) 0.6831(3) 0.4092(3)
H15 H 0.7237 0.6643 0.3316
C20 C 0.7769(3) 0.7601(3) 0.4254(3)
H16 H 0.7530 0.7973 0.3602
C21 C 0.8286(4) 0.7924(3) 0.5367(4)
H17 H 0.8402 0.8509 0.5475
C22 C 0.8633(4) 0.7380(3) 0.6322(4)
H18 H 0.8988 0.7595 0.7087
C23 C 0.8464(4) 0.6529(3) 0.6166(4)
H19 H 0.8685 0.6165 0.6831
O1 O 0.4023(2) 0.46034(16) 0.2884(2)
O2 O 0.4973(2) 0.43018(16) 0.1154(2)
O3 O 0.8301(2) 0.50684(17) 0.3764(2)
S1 S 0.50137(8) 0.42559(5) 0.24162(8)
loop_
_geom_bond_atom_site_label_1
_geom_bond_atom_site_label_2
_geom_bond_site_symmetry_1
_geom_bond_site_symmetry_2
I1 C1 1_555 1_555
C1 H1 1_555 1_555
H2 C1 1_555 1_555
C2 C1 1_555 1_555
C3 C2 1_555 1_555
H3 C3 1_555 1_555
H4 C3 1_555 1_555
C4 C3 1_555 1_555
C5 C4 1_555 1_555
C6 C7 1_555 1_555
C7 H5 1_555 1_555
C8 C7 1_555 1_555
H6 C8 1_555 1_555
C9 C8 1_555 1_555
H7 C9 1_555 1_555
C10 C9 1_555 1_555
H8 C10 1_555 1_555
C11 C6 1_555 1_555
H9 C11 1_555 1_555
C12 C5 1_555 1_555
C13 C12 1_555 1_555
H10 C13 1_555 1_555
C14 C13 1_555 1_555
H11 C14 1_555 1_555
C15 C14 1_555 1_555
H12 C15 1_555 1_555
C16 C15 1_555 1_555
H13 C16 1_555 1_555
C17 C12 1_555 1_555
H14 C17 1_555 1_555
C18 C2 1_555 1_555
C19 C18 1_555 1_555
H15 C19 1_555 1_555
C20 C19 1_555 1_555
H16 C20 1_555 1_555
C21 C20 1_555 1_555
H17 C21 1_555 1_555
C22 C21 1_555 1_555
H18 C22 1_555 1_555
C23 C18 1_555 1_555
H19 C23 1_555 1_555
O1 S1 1_555 1_555
O2 S1 1_555 1_555
O3 C2 1_555 1_555
S1 C4 1_555 1_555
C5 O3 1_555 1_555
C6 S1 1_555 1_555
C10 C11 1_555 1_555
C16 C17 1_555 1_555
C22 C23 1_555 1_555

#END
