
#######################################################################
#
#                 Cambridge Crystallographic Data Centre
#                                CCDC 
#
#######################################################################
#
# If this CIF has been generated from an entry in the Cambridge 
# Structural Database, then it will include bibliographic, chemical, 
# crystal, experimental, refinement or atomic coordinate data resulting 
# from the CCDC's data processing and validation procedures.
#
#######################################################################

data_TASMAE
_chemical_formula_moiety         'C21 H23 I1 O3 S1'
_chemical_name_systematic        
4-(butylsulfonyl)-2-(iodomethyl)-2,5-diphenyl-2,3-dihydrofuran
_symmetry_cell_setting           monoclinic
_symmetry_space_group_name_H-M   'P 21/c'
_symmetry_Int_Tables_number      14
_space_group_name_Hall           '-P 2ybc'
loop_
_symmetry_equiv_pos_site_id
_symmetry_equiv_pos_as_xyz
1 x,y,z
2 -x,1/2+y,1/2-z
3 -x,-y,-z
4 x,1/2-y,1/2+z
_cell_length_a                   9.7053(16)
_cell_length_b                   9.1264(16)
_cell_length_c                   23.180(4)
_cell_angle_alpha                90
_cell_angle_beta                 93.471(3)
_cell_angle_gamma                90
_cell_volume                     2049.39
_exptl_crystal_colour            colorless
_cell_formula_units_Z            4
loop_
_atom_site_label
_atom_site_type_symbol
_atom_site_fract_x
_atom_site_fract_y
_atom_site_fract_z
C1 C 0.7328(3) 0.5582(4) 0.60636(14)
C2 C 0.6377(3) 0.4746(4) 0.56124(14)
H1 H 0.5395 0.5003 0.5647
H2 H 0.6634 0.4951 0.5213
C3 C 0.6654(3) 0.3176(4) 0.57758(13)
C4 C 0.7483(3) 0.3101(4) 0.62623(13)
C5 C 0.6620(3) 0.6744(5) 0.64032(15)
H3 H 0.6315 0.7545 0.6137
H4 H 0.7296 0.7160 0.6695
C6 C 0.8560(3) 0.6268(4) 0.57879(13)
C7 C 0.9909(3) 0.5768(5) 0.59022(15)
H5 H 1.0083 0.4962 0.6156
C8 C 1.0996(4) 0.6449(5) 0.56446(16)
H6 H 1.1913 0.6110 0.5724
C9 C 1.0753(4) 0.7610(6) 0.52757(16)
H7 H 1.1502 0.8083 0.5107
C10 C 0.9410(4) 0.8094(5) 0.51495(16)
H8 H 0.9237 0.8884 0.4888
C11 C 0.8325(3) 0.7420(4) 0.54064(15)
H9 H 0.7408 0.7753 0.5320
C12 C 0.8068(3) 0.1901(4) 0.66261(14)
C13 C 0.8700(3) 0.0687(4) 0.63959(15)
H10 H 0.8722 0.0586 0.5989
C14 C 0.9298(3) -0.0381(5) 0.67572(16)
H11 H 0.9722 -0.1214 0.6598
C15 C 0.9275(3) -0.0228(5) 0.73499(17)
H12 H 0.9694 -0.0951 0.7598
C16 C 0.8646(4) 0.0970(5) 0.75825(15)
H13 H 0.8620 0.1060 0.7990
C17 C 0.8049(3) 0.2046(5) 0.72257(15)
H14 H 0.7630 0.2878 0.7388
C18 C 0.4212(3) 0.1541(4) 0.57474(14)
H15 H 0.3768 0.2508 0.5790
H16 H 0.3579 0.0929 0.5498
C19 C 0.4394(4) 0.0826(5) 0.63405(14)
H17 H 0.4995 0.1451 0.6599
H18 H 0.4855 -0.0135 0.6304
C20 C 0.3003(4) 0.0607(5) 0.66083(16)
H19 H 0.2376 0.0068 0.6330
H20 H 0.3146 -0.0007 0.6959
C21 C 0.2312(4) 0.2030(6) 0.6771(2)
H21 H 0.2958 0.2613 0.7018
H22 H 0.1488 0.1811 0.6979
H23 H 0.2046 0.2584 0.6419
I1 I 0.48621(2) 0.59537(4) 0.68344(2)
O1 O 0.7843(2) 0.4456(3) 0.64730(10)
O2 O 0.5411(2) 0.2388(3) 0.48281(9)
O3 O 0.6536(2) 0.0439(3) 0.54327(10)
S1 S 0.57694(8) 0.17904(10) 0.53945(3)
loop_
_geom_bond_atom_site_label_1
_geom_bond_atom_site_label_2
_geom_bond_site_symmetry_1
_geom_bond_site_symmetry_2
C1 C2 1_555 1_555
C2 H1 1_555 1_555
H2 C2 1_555 1_555
C3 C2 1_555 1_555
C4 C3 1_555 1_555
C5 C1 1_555 1_555
H3 C5 1_555 1_555
H4 C5 1_555 1_555
C6 C1 1_555 1_555
C7 C6 1_555 1_555
H5 C7 1_555 1_555
C8 C7 1_555 1_555
H6 C8 1_555 1_555
C9 C8 1_555 1_555
H7 C9 1_555 1_555
C10 C9 1_555 1_555
H8 C10 1_555 1_555
C11 C6 1_555 1_555
H9 C11 1_555 1_555
C12 C4 1_555 1_555
C13 C12 1_555 1_555
H10 C13 1_555 1_555
C14 C13 1_555 1_555
H11 C14 1_555 1_555
C15 C14 1_555 1_555
H12 C15 1_555 1_555
C16 C15 1_555 1_555
H13 C16 1_555 1_555
C17 C12 1_555 1_555
H14 C17 1_555 1_555
C18 H15 1_555 1_555
H16 C18 1_555 1_555
C19 C18 1_555 1_555
H17 C19 1_555 1_555
H18 C19 1_555 1_555
C20 C19 1_555 1_555
H19 C20 1_555 1_555
H20 C20 1_555 1_555
C21 C20 1_555 1_555
H21 C21 1_555 1_555
H22 C21 1_555 1_555
H23 C21 1_555 1_555
I1 C5 1_555 1_555
O1 C1 1_555 1_555
O2 S1 1_555 1_555
O3 S1 1_555 1_555
S1 C3 1_555 1_555
C4 O1 1_555 1_555
C10 C11 1_555 1_555
C16 C17 1_555 1_555
C18 S1 1_555 1_555

#END
