
#######################################################################
#
#                 Cambridge Crystallographic Data Centre
#                                CCDC 
#
#######################################################################
#
# If this CIF has been generated from an entry in the Cambridge 
# Structural Database, then it will include bibliographic, chemical, 
# crystal, experimental, refinement or atomic coordinate data resulting 
# from the CCDC's data processing and validation procedures.
#
#######################################################################

data_TASPUY
_chemical_formula_moiety         'C19 H24 N2 O4 S2,C4 H8 O2'
_chemical_name_systematic        
'3-(3-Phenyl-2-mercaptopropanoylamino)-1-aza-8-thiabicyclo(5.4.0)undecan-2-one-11-carboxylic acid ethyl acetate solvate'
_chemical_properties_biological  
'some activity versus ACE and neutral endopeptidase'
_symmetry_cell_setting           monoclinic
_symmetry_space_group_name_H-M   'P 21'
_symmetry_Int_Tables_number      4
_space_group_name_Hall           'P 2yb'
loop_
_symmetry_equiv_pos_site_id
_symmetry_equiv_pos_as_xyz
1 x,y,z
2 -x,1/2+y,-z
_cell_length_a                   10.095(2)
_cell_length_b                   9.844(1)
_cell_length_c                   12.894(3)
_cell_angle_alpha                90
_cell_angle_beta                 98.25(2)
_cell_angle_gamma                90
_cell_volume                     1268.08
_cell_formula_units_Z            2
loop_
_atom_site_label
_atom_site_type_symbol
_atom_site_fract_x
_atom_site_fract_y
_atom_site_fract_z
N1 N 0.4995(3) 0.838 0.2125(2)
C1 C 0.6341(4) 0.8502(5) 0.1835(3)
C2 C 0.7420(4) 0.8440(6) 0.2781(4)
C3 C 0.7384(5) 0.9627(7) 0.3553(4)
S1 S 0.5791(1) 1.0484(2) 0.33911(9)
C4 C 0.4661(4) 0.9079(5) 0.3069(3)
C5 C 0.4580(5) 0.8092(6) 0.3972(3)
C6 C 0.3272(5) 0.7276(7) 0.3854(4)
C7 C 0.2913(5) 0.6510(6) 0.2850(4)
C8 C 0.2738(4) 0.7382(5) 0.1846(3)
C9 C 0.4094(4) 0.7634(5) 0.1500(3)
C10 C 0.6458(4) 0.9737(5) 0.1152(3)
O1 O 0.7523(3) 1.0198(4) 0.1003(3)
O2 O 0.5306(3) 1.0211(4) 0.0672(2)
O3 O 0.4366(3) 0.7106(4) 0.0690(2)
N2 N 0.1870(3) 0.6760(4) 0.0983(3)
C11 C 0.0536(4) 0.6885(6) 0.0920(3)
O4 O 0.0017(3) 0.7451(5) 0.1609(3)
C12 C -0.0255(4) 0.6374(6) -0.0092(4)
S2 S -0.1865(1) 0.5757(2) 0.0174(1)
C13 C -0.0383(5) 0.7498(6) -0.0898(4)
C14 C -0.1093(5) 0.7100(6) -0.1972(4)
C15 C -0.0620(5) 0.6050(7) -0.2518(4)
C16 C -0.1251(6) 0.5725(9) -0.3512(4)
C17 C -0.2346(6) 0.6448(8) -0.3970(4)
C18 C -0.2847(6) 0.7467(7) -0.3422(5)
C19 C -0.2227(6) 0.7781(6) -0.2413(5)
H1 H 0.650 0.767 0.131
H2 H 0.841 0.846 0.250
H3 H 0.733 0.749 0.320
H4 H 0.818 1.035 0.344
H5 H 0.760 0.921 0.436
H6 H 0.362 0.947 0.290
H7 H 0.471 0.865 0.472
H8 H 0.543 0.736 0.400
H9 H 0.244 0.802 0.388
H10 H 0.327 0.657 0.450
H11 H 0.197 0.594 0.286
H12 H 0.370 0.576 0.278
H13 H 0.233 0.837 0.206
H14 H 0.547 1.071 -0.0006
H15 H 0.231 0.617 0.039
H16 H 0.031 0.552 -0.039
H17 H -0.182 0.558 0.102
H18 H 0.065 0.784 -0.098
H19 H -0.089 0.834 -0.058
H20 H 0.023 0.543 -0.217
H21 H -0.084 0.490 -0.397
H22 H -0.283 0.619 -0.477
H23 H -0.370 0.806 -0.377
H24 H -0.268 0.860 -0.196
C20 C 0.5905(7) 0.3665(8) 0.1743(5)
C21 C 0.6679(7) 0.4069(7) 0.2723(5)
O5 O 0.6324(6) 0.4806(8) 0.3389(5)
O6 O 0.7878(5) 0.3535(7) 0.2870(3)
C22 C 0.8748(8) 0.377(1) 0.3878(6)
C23 C 0.9614(8) 0.488(1) 0.3691(7)
H25 H 0.537 0.454 0.135
H26 H 0.660 0.328 0.120
H27 H 0.520 0.287 0.185
H28 H 0.820 0.400 0.452
H29 H 0.939 0.286 0.411
H30 H 0.902 0.583 0.355
H31 H 1.012 0.471 0.300
H32 H 1.039 0.508 0.437
loop_
_geom_bond_atom_site_label_1
_geom_bond_atom_site_label_2
_geom_bond_site_symmetry_1
_geom_bond_site_symmetry_2
N1 C1 1_555 1_555
C1 C2 1_555 1_555
C2 C3 1_555 1_555
C3 S1 1_555 1_555
S1 C4 1_555 1_555
C4 N1 1_555 1_555
C5 C4 1_555 1_555
C6 C5 1_555 1_555
C7 C6 1_555 1_555
C8 C7 1_555 1_555
C9 N1 1_555 1_555
C10 C1 1_555 1_555
O1 C10 1_555 1_555
O2 C10 1_555 1_555
O3 C9 1_555 1_555
N2 C8 1_555 1_555
C11 N2 1_555 1_555
O4 C11 1_555 1_555
C12 C11 1_555 1_555
S2 C12 1_555 1_555
C13 C12 1_555 1_555
C14 C13 1_555 1_555
C15 C14 1_555 1_555
C16 C15 1_555 1_555
C17 C16 1_555 1_555
C18 C17 1_555 1_555
C19 C14 1_555 1_555
C20 C21 1_555 1_555
C21 O5 1_555 1_555
O6 C21 1_555 1_555
C22 O6 1_555 1_555
C23 C22 1_555 1_555
H1 C1 1_555 1_555
H2 C2 1_555 1_555
H3 C2 1_555 1_555
H4 C3 1_555 1_555
H5 C3 1_555 1_555
H6 C4 1_555 1_555
H7 C5 1_555 1_555
H8 C5 1_555 1_555
H9 C6 1_555 1_555
H10 C6 1_555 1_555
H11 C7 1_555 1_555
H12 C7 1_555 1_555
H13 C8 1_555 1_555
H14 O2 1_555 1_555
H15 N2 1_555 1_555
H16 C12 1_555 1_555
H17 S2 1_555 1_555
H18 C13 1_555 1_555
H19 C13 1_555 1_555
H20 C15 1_555 1_555
H21 C16 1_555 1_555
H22 C17 1_555 1_555
H23 C18 1_555 1_555
H24 C19 1_555 1_555
H25 C20 1_555 1_555
H26 C20 1_555 1_555
H27 C20 1_555 1_555
H28 C22 1_555 1_555
H29 C22 1_555 1_555
H30 C23 1_555 1_555
H31 C23 1_555 1_555
H32 C23 1_555 1_555
C8 C9 1_555 1_555
C18 C19 1_555 1_555

#END
