
#######################################################################
#
#                 Cambridge Crystallographic Data Centre
#                                CCDC 
#
#######################################################################
#
# If this CIF has been generated from an entry in the Cambridge 
# Structural Database, then it will include bibliographic, chemical, 
# crystal, experimental, refinement or atomic coordinate data resulting 
# from the CCDC's data processing and validation procedures.
#
#######################################################################

data_TASRUC
_chemical_formula_moiety         'C19 H22 N2'
_chemical_name_systematic        
N-Isopropyl-1-(isopropylimino)-1H-phenalen-9-amine
_symmetry_cell_setting           monoclinic
_symmetry_space_group_name_H-M   'C c'
_symmetry_Int_Tables_number      9
_space_group_name_Hall           'C -2yc'
loop_
_symmetry_equiv_pos_site_id
_symmetry_equiv_pos_as_xyz
1 x,y,z
2 x,-y,1/2+z
3 1/2+x,1/2+y,z
4 1/2+x,1/2-y,1/2+z
_cell_length_a                   12.4793(5)
_cell_length_b                   12.6226(5)
_cell_length_c                   20.3908(8)
_cell_angle_alpha                90
_cell_angle_beta                 105.0560(10)
_cell_angle_gamma                90
_cell_volume                     3101.72
_exptl_crystal_colour            bronze
_exptl_crystal_description       plate
_cell_formula_units_Z            8
loop_
_atom_site_label
_atom_site_type_symbol
_atom_site_fract_x
_atom_site_fract_y
_atom_site_fract_z
N1 N 0.2216(5) 0.1132(5) 0.7928(3)
H1 H 0.193(16) 0.114(15) 0.824(10)
N2 N 0.0511(6) 0.1282(6) 0.8423(3)
C1 C 0.1580(6) 0.1457(6) 0.7332(4)
C2 C 0.2031(6) 0.1587(6) 0.6752(4)
H3 H 0.2792 0.1435 0.6796
C3 C 0.1385(6) 0.1921(6) 0.6147(4)
H4 H 0.1706 0.1992 0.5774
C4 C 0.0242(6) 0.2170(6) 0.6049(4)
C5 C -0.0413(7) 0.2530(6) 0.5423(4)
H5 H -0.0093 0.2599 0.5050
C6 C -0.1522(7) 0.2787(6) 0.5339(4)
H6 H -0.1954 0.3043 0.4914
C7 C -0.1996(6) 0.2665(6) 0.5882(4)
H7 H -0.2758 0.2830 0.5821
C8 C -0.1373(6) 0.2307(6) 0.6513(4)
C9 C -0.1855(6) 0.2188(6) 0.7073(4)
H8 H -0.2622 0.2338 0.7009
C10 C -0.1254(6) 0.1870(6) 0.7690(4)
H9 H -0.1606 0.1816 0.8049
C11 C -0.0081(6) 0.1606(6) 0.7823(4)
C12 C 0.0430(6) 0.1702(6) 0.7259(4)
C13 C -0.0227(6) 0.2055(6) 0.6615(4)
C14 C 0.3366(6) 0.0786(7) 0.8040(4)
H10 H 0.3757 0.1268 0.7788
C15 C 0.3410(8) -0.0348(7) 0.7785(5)
H11 H 0.3011 -0.0819 0.8021
H12 H 0.4186 -0.0576 0.7874
H13 H 0.3064 -0.0375 0.7295
C16 C 0.3910(8) 0.0871(11) 0.8796(5)
H14 H 0.3879 0.1607 0.8942
H15 H 0.4686 0.0644 0.8889
H16 H 0.3515 0.0416 0.9045
C17 C 0.0052(6) 0.1230(6) 0.9015(4)
H17 H -0.0734 0.0979 0.8866
C18 C 0.0729(7) 0.0438(7) 0.9520(4)
H18 H 0.0666 -0.0266 0.9311
H19 H 0.0447 0.0414 0.9925
H20 H 0.1509 0.0657 0.9648
C19 C 0.0076(8) 0.2329(7) 0.9334(4)
H21 H 0.0841 0.2591 0.9467
H22 H -0.0213 0.2284 0.9737
H23 H -0.0385 0.2816 0.9004
N3 N 0.5325(5) 0.2763(5) 0.7217(4)
N4 N 0.5227(5) 0.0883(5) 0.6719(3)
H2 H 0.516(15) 0.153(16) 0.669(9)
C20 C 0.5847(6) 0.2381(6) 0.7819(4)
C21 C 0.6175(7) 0.3039(6) 0.8423(4)
H24 H 0.5998 0.3772 0.8390
C22 C 0.6722(7) 0.2635(6) 0.9027(4)
H25 H 0.6923 0.3094 0.9409
C23 C 0.7014(6) 0.1537(6) 0.9116(4)
C24 C 0.7584(7) 0.1121(7) 0.9746(4)
H26 H 0.7776 0.1577 1.0130
C25 C 0.7875(7) 0.0062(7) 0.9823(4)
H27 H 0.8265 -0.0207 1.0255
C26 C 0.7591(7) -0.0601(7) 0.9264(4)
H28 H 0.7794 -0.1328 0.9316
C27 C 0.7011(6) -0.0224(6) 0.8624(4)
C28 C 0.6717(7) -0.0912(6) 0.8049(4)
H29 H 0.6918 -0.1639 0.8103
C29 C 0.6158(7) -0.0552(6) 0.7431(4)
H30 H 0.5985 -0.1031 0.7059
C30 C 0.5816(6) 0.0542(6) 0.7321(4)
C31 C 0.6113(6) 0.1262(6) 0.7890(4)
C32 C 0.6703(6) 0.0864(6) 0.8537(4)
C33 C 0.5054(7) 0.3888(6) 0.7085(4)
H31 H 0.5602 0.4329 0.7419
C34 C 0.3898(8) 0.4099(8) 0.7165(8)
H32 H 0.3363 0.3642 0.6854
H33 H 0.3703 0.4843 0.7059
H34 H 0.3881 0.3948 0.7633
C35 C 0.5154(11) 0.4131(7) 0.6368(5)
H35 H 0.5916 0.3995 0.6344
H36 H 0.4968 0.4876 0.6260
H37 H 0.4642 0.3677 0.6041
C36 C 0.4934(6) 0.0225(6) 0.6110(4)
H38 H 0.4744 -0.0503 0.6237
C37 C 0.3916(7) 0.0709(7) 0.5619(4)
H39 H 0.3287 0.0687 0.5823
H40 H 0.3734 0.0304 0.5194
H41 H 0.4073 0.1446 0.5525
C38 C 0.5903(7) 0.0151(7) 0.5784(5)
H42 H 0.6084 0.0860 0.5648
H43 H 0.5697 -0.0308 0.5383
H44 H 0.6551 -0.0147 0.6112
H45? H 0.12(2) 0.10(2) 0.845(13)
H46? H 0.53(2) 0.24(2) 0.691(14)
loop_
_geom_bond_atom_site_label_1
_geom_bond_atom_site_label_2
_geom_bond_site_symmetry_1
_geom_bond_site_symmetry_2
N1 H1 1_555 1_555
N2 C11 1_555 1_555
N3 C20 1_555 1_555
N4 H2 1_555 1_555
C1 N1 1_555 1_555
C2 C1 1_555 1_555
H3 C2 1_555 1_555
C3 C2 1_555 1_555
H4 C3 1_555 1_555
C4 C3 1_555 1_555
C5 C4 1_555 1_555
H5 C5 1_555 1_555
C6 C5 1_555 1_555
H6 C6 1_555 1_555
C7 C6 1_555 1_555
H7 C7 1_555 1_555
C8 C7 1_555 1_555
C9 C8 1_555 1_555
H8 C9 1_555 1_555
C10 C9 1_555 1_555
H9 C10 1_555 1_555
C11 C10 1_555 1_555
C12 C1 1_555 1_555
C13 C4 1_555 1_555
C14 N1 1_555 1_555
H10 C14 1_555 1_555
C15 C14 1_555 1_555
H11 C15 1_555 1_555
H12 C15 1_555 1_555
H13 C15 1_555 1_555
C16 C14 1_555 1_555
H14 C16 1_555 1_555
H15 C16 1_555 1_555
H16 C16 1_555 1_555
C17 N2 1_555 1_555
H17 C17 1_555 1_555
C18 C17 1_555 1_555
H18 C18 1_555 1_555
H19 C18 1_555 1_555
H20 C18 1_555 1_555
C19 C17 1_555 1_555
H21 C19 1_555 1_555
H22 C19 1_555 1_555
H23 C19 1_555 1_555
C20 C21 1_555 1_555
C21 H24 1_555 1_555
C22 C21 1_555 1_555
H25 C22 1_555 1_555
C23 C22 1_555 1_555
C24 C23 1_555 1_555
H26 C24 1_555 1_555
C25 C24 1_555 1_555
H27 C25 1_555 1_555
C26 C25 1_555 1_555
H28 C26 1_555 1_555
C27 C26 1_555 1_555
C28 C27 1_555 1_555
H29 C28 1_555 1_555
C29 C28 1_555 1_555
H30 C29 1_555 1_555
C30 N4 1_555 1_555
C31 C20 1_555 1_555
C32 C23 1_555 1_555
C33 N3 1_555 1_555
H31 C33 1_555 1_555
C34 C33 1_555 1_555
H32 C34 1_555 1_555
H33 C34 1_555 1_555
H34 C34 1_555 1_555
C35 C33 1_555 1_555
H35 C35 1_555 1_555
H36 C35 1_555 1_555
H37 C35 1_555 1_555
C36 N4 1_555 1_555
H38 C36 1_555 1_555
C37 C36 1_555 1_555
H39 C37 1_555 1_555
H40 C37 1_555 1_555
H41 C37 1_555 1_555
C38 C36 1_555 1_555
H42 C38 1_555 1_555
H43 C38 1_555 1_555
H44 C38 1_555 1_555
C8 C13 1_555 1_555
C11 C12 1_555 1_555
C12 C13 1_555 1_555
C27 C32 1_555 1_555
C29 C30 1_555 1_555
C30 C31 1_555 1_555
C31 C32 1_555 1_555

#END
