
#######################################################################
#
#                 Cambridge Crystallographic Data Centre
#                                CCDC 
#
#######################################################################
#
# If this CIF has been generated from an entry in the Cambridge 
# Structural Database, then it will include bibliographic, chemical, 
# crystal, experimental, refinement or atomic coordinate data resulting 
# from the CCDC's data processing and validation procedures.
#
#######################################################################

data_TASXES
_chemical_formula_moiety         
'C36 H52 O10 S12,C48 H40 N4 4+,0.5(C48 H40 N4 4+),6(F6 P1 1-),10(C1 H3 N1 O2)'
_chemical_name_systematic        
'[2]-(5,8,11,14,17,25,28,31,34,37-Decaoxa-2,20,22,40-tetrathia 1,21(2,6)-ditetrathiafulvalenacyclotetracontaphane)-(1,7(1,4),2,8(4,1)-tetrapyridinia-4,5,10,11(1,4)-tetrabenzenacyclododecaphane)-rotaxane hemikis(1,7(1,4),2,8(4,1)-tetrapyridinia-4,5,10,11(1,4)-tetrabenzenacyclododecaphane) hexakis(hexafluorophosphate) nitromethane solvate'
_symmetry_cell_setting           monoclinic
_symmetry_space_group_name_H-M   'P 21/c'
_symmetry_Int_Tables_number      14
_space_group_name_Hall           '-P 2ybc'
loop_
_symmetry_equiv_pos_site_id
_symmetry_equiv_pos_as_xyz
1 x,y,z
2 -x,1/2+y,1/2-z
3 -x,-y,-z
4 x,1/2-y,1/2+z
_cell_length_a                   35.6349(12)
_cell_length_b                   18.0403(6)
_cell_length_c                   22.6826(8)
_cell_angle_alpha                90
_cell_angle_beta                 94.353(2)
_cell_angle_gamma                90
_cell_volume                     14539.8
_exptl_crystal_colour            green
_exptl_crystal_description       plate
_cell_formula_units_Z            4
loop_
_atom_site_label
_atom_site_type_symbol
_atom_site_fract_x
_atom_site_fract_y
_atom_site_fract_z
N1 N 0.80266(19) 0.6639(4) 0.5967(3)
N2 N 0.83435(19) 0.9134(4) 0.3705(3)
N3 N 0.7984(2) 1.3310(4) 0.6881(3)
N4 N 0.8302(2) 1.0817(4) 0.9234(3)
C37 C 0.7742(2) 0.7017(5) 0.5697(4)
H53 H 0.7499 0.6968 0.5839
C38 C 0.7784(2) 0.7466(5) 0.5230(3)
H54 H 0.7575 0.7728 0.5049
C39 C 0.8141(2) 0.7539(4) 0.5017(3)
C40 C 0.8433(2) 0.7133(5) 0.5282(3)
H55 H 0.8677 0.7157 0.5141
C41 C 0.8365(3) 0.6688(5) 0.5758(4)
H56 H 0.8566 0.6406 0.5943
C42 C 0.8208(2) 0.8073(4) 0.4534(3)
C43 C 0.7911(2) 0.8379(5) 0.4157(4)
H57 H 0.7660 0.8210 0.4186
C44 C 0.7982(2) 0.8911(4) 0.3754(3)
H58 H 0.7782 0.9124 0.3510
C45 C 0.8628(2) 0.8845(5) 0.4039(3)
H59 H 0.8876 0.9013 0.3993
C46 C 0.8570(2) 0.8308(5) 0.4448(3)
H60 H 0.8778 0.8096 0.4674
C47 C 0.8398(2) 0.9821(4) 0.3330(3)
H61 H 0.8655 0.9822 0.3189
H62 H 0.8214 0.9821 0.2981
C48 C 0.8344(2) 1.0481(5) 0.3696(3)
C49 C 0.8007(2) 1.0850(4) 0.3661(3)
H63 H 0.7819 1.0716 0.3359
C50 C 0.7930(2) 1.1411(4) 0.4050(4)
H64 H 0.7695 1.1660 0.4014
C51 C 0.8212(2) 1.1612(4) 0.4511(3)
C52 C 0.8560(2) 1.1263(5) 0.4535(4)
H65 H 0.8752 1.1410 0.4824
C53 C 0.8630(2) 1.0701(5) 0.4140(4)
H66 H 0.8868 1.0461 0.4165
C54 C 0.8132(2) 1.2190(4) 0.4947(3)
C55 C 0.7778(2) 1.2236(5) 0.5162(3)
H67 H 0.7583 1.1910 0.5017
C56 C 0.7710(3) 1.2755(5) 0.5587(4)
H68 H 0.7467 1.2785 0.5734
C57 C 0.7991(2) 1.3234(5) 0.5800(3)
C58 C 0.8345(2) 1.3194(5) 0.5571(3)
H69 H 0.8540 1.3527 0.5705
C59 C 0.8409(2) 1.2675(4) 0.5156(3)
H70 H 0.8651 1.2646 0.5007
C60 C 0.7934(3) 1.3750(5) 0.6316(4)
H71 H 0.8119 1.4159 0.6324
H72 H 0.7678 1.3967 0.6272
C61 C 0.7700(3) 1.3037(5) 0.7145(4)
H73 H 0.7452 1.3156 0.6993
C62 C 0.7746(3) 1.2590(5) 0.7628(4)
H74 H 0.7534 1.2407 0.7813
C63 C 0.8108(3) 1.2408(4) 0.7843(4)
C64 C 0.8402(3) 1.2703(5) 0.7571(4)
H75 H 0.8654 1.2596 0.7714
C65 C 0.8332(3) 1.3147(5) 0.7098(4)
H76 H 0.8538 1.3352 0.6912
C66 C 0.8189(3) 1.1873(5) 0.8358(4)
C67 C 0.7888(3) 1.1655(5) 0.8691(4)
H77 H 0.7644 1.1860 0.8616
C68 C 0.7965(3) 1.1118(5) 0.9143(4)
H78 H 0.7770 1.0973 0.9383
C69 C 0.8580(3) 1.1038(5) 0.8923(4)
H79 H 0.8821 1.0818 0.9001
C70 C 0.8535(3) 1.1565(5) 0.8499(4)
H80 H 0.8745 1.1723 0.8297
C71 C 0.8349(3) 1.0184(5) 0.9655(4)
H81 H 0.8154 1.0202 0.9944
H82 H 0.8600 1.0199 0.9873
C72 C 0.8305(3) 0.9471(5) 0.9274(4)
C73 C 0.8602(3) 0.9166(6) 0.9012(4)
H83 H 0.8847 0.9358 0.9110
C74 C 0.8561(3) 0.8602(5) 0.8617(4)
H84 H 0.8776 0.8400 0.8451
C75 C 0.8206(3) 0.8317(5) 0.8457(4)
C76 C 0.7894(3) 0.8581(5) 0.8740(4)
H85 H 0.7651 0.8371 0.8658
C77 C 0.7953(3) 0.9167(5) 0.9148(4)
H86 H 0.7746 0.9357 0.9340
C78 C 0.8134(2) 0.7757(5) 0.7987(4)
C79 C 0.8424(3) 0.7306(5) 0.7839(3)
H87 H 0.8663 0.7343 0.8052
C80 C 0.8370(2) 0.6795(5) 0.7377(3)
H88 H 0.8573 0.6482 0.7288
C81 C 0.8025(3) 0.6731(5) 0.7040(4)
C82 C 0.7739(2) 0.7178(5) 0.7201(4)
H89 H 0.7499 0.7129 0.6994
C83 C 0.7782(3) 0.7695(5) 0.7647(4)
H90 H 0.7579 0.8009 0.7728
C84 C 0.7981(3) 0.6225(5) 0.6510(3)
H91 H 0.8171 0.5825 0.6552
H92 H 0.7729 0.5993 0.6489
N5 N 0.49241(18) 0.1485(3) 0.9475(3)
N6 N 0.4766(2) 0.4226(4) 0.7310(3)
C85 C 0.5216(2) 0.1619(5) 0.9150(4)
H93 H 0.5450 0.1382 0.9249
C86 C 0.5181(2) 0.2091(5) 0.8677(4)
H94 H 0.5388 0.2173 0.8444
C87 C 0.4847(2) 0.2444(5) 0.8540(4)
C88 C 0.4540(2) 0.2280(5) 0.8867(4)
H95 H 0.4300 0.2496 0.8768
C89 C 0.4595(2) 0.1797(5) 0.9336(4)
H96 H 0.4390 0.1686 0.9566
C90 C 0.4813(2) 0.3048(4) 0.8077(3)
C91 C 0.5140(2) 0.3360(5) 0.7877(4)
H97 H 0.5380 0.3164 0.8001
C92 C 0.5107(2) 0.3957(5) 0.7497(4)
H98 H 0.5327 0.4181 0.7366
C93 C 0.4452(2) 0.3924(5) 0.7480(4)
H99 H 0.4215 0.4128 0.7344
C94 C 0.4467(2) 0.3316(5) 0.7852(4)
H100 H 0.4241 0.3083 0.7953
C95 C 0.4752(2) 0.4913(5) 0.6932(3)
H101 H 0.4959 0.4899 0.6665
H102 H 0.4511 0.4927 0.6685
C96 C 0.4787(2) 0.5592(5) 0.7302(3)
C97 C 0.4468(2) 0.5961(5) 0.7477(4)
H103 H 0.4225 0.5788 0.7337
C98 C 0.4495(2) 0.6558(5) 0.7840(3)
H104 H 0.4274 0.6805 0.7940
C99 C 0.4853(2) 0.6816(4) 0.8070(3)
C100 C 0.5171(2) 0.6466(5) 0.7864(4)
H105 H 0.5414 0.6656 0.7982
C101 C 0.5141(2) 0.5862(5) 0.7501(4)
H106 H 0.5361 0.5625 0.7384
C102 C 0.4896(2) 0.7420(4) 0.8522(3)
C103 C 0.5241(2) 0.7740(4) 0.8679(3)
H107 H 0.5453 0.7607 0.8472
C104 C 0.5283(2) 0.8252(4) 0.9135(3)
H108 H 0.5522 0.8471 0.9230
C105 C 0.4984(2) 0.8448(5) 0.9450(4)
C106 C 0.4635(3) 0.8149(5) 0.9268(4)
H109 H 0.4421 0.8310 0.9459
C107 C 0.4586(3) 0.7632(5) 0.8825(4)
H110 H 0.4345 0.7421 0.8726
C108 C 0.4969(2) 0.1042(5) 1.0031(4)
H111 H 0.5192 0.0715 1.0024
H112 H 0.4744 0.0725 1.0065
N5B N 0.50759(18) 0.8515(3) 1.0525(3)
N6B N 0.5234(2) 0.5774(4) 1.2690(3)
C85B C 0.4784(2) 0.8381(5) 1.0850(4)
H93B H 0.4550 0.8618 1.0751
C86B C 0.4819(2) 0.7909(5) 1.1323(4)
H94B H 0.4612 0.7827 1.1556
C87B C 0.5153(2) 0.7556(5) 1.1460(4)
C88B C 0.5460(2) 0.7720(5) 1.1133(4)
H95B H 0.5700 0.7504 1.1232
C89B C 0.5405(2) 0.8203(5) 1.0664(4)
H96B H 0.5610 0.8314 1.0434
C90B C 0.5187(2) 0.6952(4) 1.1923(3)
C91B C 0.4860(2) 0.6640(5) 1.2123(4)
H97B H 0.4620 0.6836 1.1999
C92B C 0.4893(2) 0.6043(5) 1.2503(4)
H98B H 0.4673 0.5819 1.2634
C93B C 0.5548(2) 0.6076(5) 1.2520(4)
H99B H 0.5785 0.5872 1.2656
C94B C 0.5533(2) 0.6684(5) 1.2148(4)
H100B H 0.5759 0.6917 1.2047
C95B C 0.5248(2) 0.5087(5) 1.3068(3)
H101B H 0.5041 0.5101 1.3335
H102B H 0.5489 0.5073 1.3315
C96B C 0.5213(2) 0.4408(5) 1.2698(3)
C97B C 0.5532(2) 0.4039(5) 1.2523(4)
H103B H 0.5775 0.4212 1.2663
C98B C 0.5505(2) 0.3442(5) 1.2160(3)
H104B H 0.5726 0.3195 1.2060
C99B C 0.5147(2) 0.3184(4) 1.1930(3)
C100B C 0.4829(2) 0.3534(5) 1.2136(4)
H105B H 0.4586 0.3344 1.2018
C101B C 0.4859(2) 0.4138(5) 1.2499(4)
H106B H 0.4639 0.4375 1.2616
C102B C 0.5104(2) 0.2580(4) 1.1478(3)
C103B C 0.4759(2) 0.2260(4) 1.1321(3)
H107B H 0.4547 0.2393 1.1528
C104B C 0.4717(2) 0.1748(4) 1.0865(3)
H108B H 0.4478 0.1529 1.0770
C105B C 0.5016(2) 0.1552(5) 1.0550(4)
C106B C 0.5365(3) 0.1851(5) 1.0732(4)
H109B H 0.5579 0.1690 1.0541
C107B C 0.5414(3) 0.2368(5) 1.1175(4)
H110B H 0.5655 0.2579 1.1274
C108B C 0.5031(2) 0.8958(5) 0.9969(4)
H111B H 0.4808 0.9285 0.9976
H112B H 0.5256 0.9275 0.9935
P1 P 0.60364(6) 0.00384(12) 0.93678(9)
F1 F 0.60538(13) 0.0650(3) 0.98766(19)
F2 F 0.59872(12) 0.0677(2) 0.88728(18)
F3 F 0.64844(12) 0.0065(3) 0.93430(19)
F4 F 0.60122(12) -0.0589(2) 0.88581(18)
F5 F 0.60752(13) -0.0604(3) 0.98571(19)
F6 F 0.55851(11) 0.0007(2) 0.93810(18)
P2 P 0.65582(7) 0.26313(16) 0.60552(12)
F7 F 0.68051(17) 0.2126(4) 0.5682(3)
F8 F 0.68886(16) 0.2641(4) 0.6578(3)
F9 F 0.63481(19) 0.1996(4) 0.6356(3)
F10 F 0.63052(18) 0.3196(4) 0.6407(3)
F11 F 0.62373(14) 0.2631(3) 0.5537(2)
F12 F 0.67500(17) 0.3348(3) 0.5784(3)
P3 P 0.90024(8) 0.49505(17) 0.65037(15)
F13 F 0.9357(3) 0.4880(4) 0.6964(5)
F14 F 0.9277(2) 0.5029(5) 0.6002(5)
F15 F 0.89782(18) 0.4089(3) 0.6458(3)
F16 F 0.8704(3) 0.4882(4) 0.7008(3)
F17 F 0.89936(19) 0.5799(3) 0.6607(3)
F18 F 0.86470(18) 0.5022(3) 0.6020(2)
P4 P 0.96459(9) 0.7167(2) 0.94894(18)
F19 F 0.9983(3) 0.6730(7) 0.9278(7)
F20 F 0.94163(15) 0.6406(4) 0.9541(3)
F21 F 0.9404(4) 0.7327(6) 0.8898(4)
F22 F 0.9330(2) 0.7590(5) 0.9792(5)
F23 F 0.9892(2) 0.7880(6) 0.9478(5)
F24 F 0.9874(3) 0.6940(8) 1.0142(5)
P5 P 0.66075(6) 0.75316(13) 0.59763(10)
F25 F 0.63037(16) 0.7035(4) 0.5613(3)
F26 F 0.68824(14) 0.7493(3) 0.5445(2)
F27 F 0.6803(2) 0.6838(4) 0.6268(3)
F28 F 0.63341(13) 0.7594(3) 0.6507(2)
F29 F 0.6416(2) 0.8241(4) 0.5686(2)
F30 F 0.69087(16) 0.8033(4) 0.6353(2)
P6 P 0.72179(6) 0.49387(13) 0.73339(9)
F31 F 0.73305(13) 0.5483(3) 0.7882(2)
F32 F 0.72512(13) 0.4242(3) 0.7773(2)
F33 F 0.67831(13) 0.5022(3) 0.74529(19)
F34 F 0.71083(13) 0.4397(3) 0.6795(2)
F35 F 0.71844(13) 0.5639(3) 0.6906(2)
F36 F 0.76620(12) 0.4853(3) 0.72245(19)
S1 S 0.76956(9) 0.01938(15) 0.76908(11)
S2 S 0.75260(7) 0.11550(14) 0.66607(10)
S3 S 0.69370(10) 0.04764(18) 0.81755(13)
S4 S 0.70646(7) 0.05146(14) 0.49653(11)
S5 S 0.78642(6) 0.00226(13) 0.52901(10)
S6 S 0.76302(7) -0.10710(13) 0.61611(10)
O1 O 0.63704(18) -0.0312(4) 0.7229(3)
O2 O 0.56624(17) -0.0216(3) 0.6518(3)
O3 O 0.54902(17) -0.0489(3) 0.5267(2)
O4 O 0.56976(17) -0.0398(4) 0.4103(2)
O5 O 0.65264(17) -0.0616(4) 0.4133(3)
C1 C 0.7869(2) 0.0685(5) 0.7091(3)
C2 C 0.7251(3) 0.0595(5) 0.7613(4)
C3 C 0.7164(2) 0.1043(5) 0.7158(4)
H1 H 0.6927 0.1285 0.7101
C4 C 0.6825(3) -0.0501(5) 0.8060(4)
H2 H 0.7047 -0.0800 0.8199
H3 H 0.6617 -0.0635 0.8307
C5 C 0.6713(3) -0.0704(5) 0.7440(4)
H4 H 0.6918 -0.0575 0.7187
H5 H 0.6670 -0.1245 0.7411
C6 C 0.6327(3) -0.0313(6) 0.6624(4)
H6 H 0.6308 -0.0833 0.6485
H7 H 0.6555 -0.0096 0.6470
C7 C 0.5998(2) 0.0092(6) 0.6371(4)
H8 H 0.6013 0.0611 0.6513
H9 H 0.6003 0.0101 0.5935
C8 C 0.5331(2) 0.0028(5) 0.6181(3)
H10 H 0.5381 0.0518 0.6007
H11 H 0.5127 0.0092 0.6450
C9 C 0.5200(2) -0.0492(5) 0.5696(3)
H12 H 0.5168 -0.0998 0.5855
H13 H 0.4955 -0.0325 0.5505
C10 C 0.5456(3) -0.1078(5) 0.4865(4)
H14 H 0.5205 -0.1061 0.4644
H15 H 0.5478 -0.1554 0.5081
C11 C 0.5755(3) -0.1024(5) 0.4446(4)
H16 H 0.6005 -0.0999 0.4668
H17 H 0.5750 -0.1470 0.4190
C12 C 0.5924(2) -0.0401(6) 0.3604(4)
H18 H 0.5797 -0.0098 0.3285
H19 H 0.5939 -0.0915 0.3455
C13 C 0.6318(2) -0.0110(6) 0.3738(4)
H20 H 0.6445 -0.0059 0.3367
H21 H 0.6308 0.0386 0.3924
C14 C 0.6913(2) -0.0581(5) 0.4111(4)
H22 H 0.6974 -0.0747 0.3714
H23 H 0.7027 -0.0942 0.4401
C15 C 0.7099(2) 0.0157(5) 0.4232(3)
H24 H 0.6985 0.0522 0.3945
H25 H 0.7369 0.0111 0.4160
C16 C 0.7374(2) -0.0085(5) 0.5365(4)
C17 C 0.7284(2) -0.0609(5) 0.5755(4)
H26 H 0.7027 -0.0720 0.5802
C18 C 0.8002(2) -0.0678(4) 0.5807(3)
S7 S 0.84884(8) -0.15708(14) 0.64521(11)
S8 S 0.87441(7) -0.04895(15) 0.55883(11)
S9 S 0.92892(13) -0.2148(2) 0.6717(2)
S10 S 0.92526(9) 0.1316(2) 0.6201(2)
S11 S 0.84244(7) 0.12033(15) 0.64146(11)
S12 S 0.85851(10) 0.02256(16) 0.74503(14)
O6 O 0.9427(4) -0.0600(9) 0.7974(6)
O7 O 0.9479(5) 0.0219(11) 0.9145(8)
O8 O 0.9350(5) 0.1673(7) 0.9242(7)
O9 O 0.9198(3) 0.2816(8) 0.8441(4)
O10 O 0.9311(3) 0.2720(8) 0.7199(4)
C19 C 0.8362(2) -0.0872(4) 0.5923(3)
C20 C 0.8962(3) -0.1570(6) 0.6311(4)
C21 C 0.9093(3) -0.1082(6) 0.5937(5)
H27 H 0.9351 -0.1053 0.5862
C22 C 0.9319(5) -0.1690(9) 0.7441(5)
H28 H 0.9061 -0.1579 0.7551
H29 H 0.9436 -0.2035 0.7740
C23 C 0.9541(5) -0.0990(9) 0.7455(6)
H30 H 0.9814 -0.1094 0.7492
H31 H 0.9480 -0.0695 0.7092
C24 C 0.9653(5) -0.0697(10) 0.8467(6)
H32 H 0.9890 -0.0933 0.8365
H33 H 0.9530 -0.1034 0.8738
C25 C 0.9740(6) 0.0017(15) 0.8772(10)
H34 H 0.9988 -0.0024 0.8998
H35 H 0.9759 0.0410 0.8471
C26 C 0.9546(7) 0.0543(11) 0.9713(8)
H36 H 0.9820 0.0622 0.9786
H37 H 0.9472 0.0177 1.0009
C27 C 0.9354(6) 0.1255(9) 0.9829(7)
H38 H 0.9495 0.1535 1.0149
H39 H 0.9095 0.1167 0.9941
C28 C 0.9352(4) 0.2416(8) 0.9393(5)
H40 H 0.9544 0.2490 0.9726
H41 H 0.9105 0.2537 0.9539
C29 C 0.9425(5) 0.2943(9) 0.8936(6)
H42 H 0.9382 0.3452 0.9080
H43 H 0.9691 0.2904 0.8843
C30 C 0.9267(5) 0.3450(9) 0.8071(6)
H44 H 0.9379 0.3859 0.8316
H45 H 0.9028 0.3627 0.7869
C31 C 0.9539(5) 0.3208(12) 0.7614(6)
H46 H 0.9633 0.3643 0.7404
H47 H 0.9756 0.2935 0.7806
C32 C 0.9480(3) 0.2678(7) 0.6670(5)
H48 H 0.9719 0.2397 0.6731
H49 H 0.9541 0.3184 0.6537
C33 C 0.9227(3) 0.2304(5) 0.6202(4)
H50 H 0.9290 0.2488 0.5811
H51 H 0.8964 0.2452 0.6255
C34 C 0.8904(2) 0.1048(5) 0.6657(5)
C35 C 0.8957(3) 0.0592(6) 0.7136(5)
H52 H 0.9206 0.0479 0.7293
C36 C 0.8243(2) 0.0721(5) 0.7005(4)
loop_
_geom_bond_atom_site_label_1
_geom_bond_atom_site_label_2
_geom_bond_site_symmetry_1
_geom_bond_site_symmetry_2
S1 C1 1_555 1_555
S2 C1 1_555 1_555
S3 C2 1_555 1_555
S4 C15 1_555 1_555
S5 C16 1_555 1_555
S6 C17 1_555 1_555
O1 C5 1_555 1_555
O2 C7 1_555 1_555
O3 C9 1_555 1_555
O4 C11 1_555 1_555
O5 C13 1_555 1_555
C1 C36 1_555 1_555
C2 S1 1_555 1_555
C3 S2 1_555 1_555
H1 C3 1_555 1_555
C4 S3 1_555 1_555
H2 C4 1_555 1_555
H3 C4 1_555 1_555
C5 C4 1_555 1_555
H4 C5 1_555 1_555
H5 C5 1_555 1_555
C6 O1 1_555 1_555
H6 C6 1_555 1_555
H7 C6 1_555 1_555
C7 C6 1_555 1_555
H8 C7 1_555 1_555
H9 C7 1_555 1_555
C8 O2 1_555 1_555
H10 C8 1_555 1_555
H11 C8 1_555 1_555
C9 C8 1_555 1_555
H12 C9 1_555 1_555
H13 C9 1_555 1_555
C10 O3 1_555 1_555
H14 C10 1_555 1_555
H15 C10 1_555 1_555
C11 C10 1_555 1_555
H16 C11 1_555 1_555
H17 C11 1_555 1_555
C12 O4 1_555 1_555
H18 C12 1_555 1_555
H19 C12 1_555 1_555
C13 C12 1_555 1_555
H20 C13 1_555 1_555
H21 C13 1_555 1_555
C14 O5 1_555 1_555
H22 C14 1_555 1_555
H23 C14 1_555 1_555
C15 C14 1_555 1_555
H24 C15 1_555 1_555
H25 C15 1_555 1_555
C16 S4 1_555 1_555
C17 C16 1_555 1_555
H26 C17 1_555 1_555
C18 S5 1_555 1_555
S7 C19 1_555 1_555
S8 C19 1_555 1_555
S9 C20 1_555 1_555
S10 C33 1_555 1_555
S11 C34 1_555 1_555
S12 C35 1_555 1_555
O6 C23 1_555 1_555
O7 C25 1_555 1_555
O8 C27 1_555 1_555
O9 C29 1_555 1_555
O10 C31 1_555 1_555
C19 C18 1_555 1_555
C20 S7 1_555 1_555
C21 S8 1_555 1_555
H27 C21 1_555 1_555
C22 S9 1_555 1_555
H28 C22 1_555 1_555
H29 C22 1_555 1_555
C23 C22 1_555 1_555
H30 C23 1_555 1_555
H31 C23 1_555 1_555
C24 O6 1_555 1_555
H32 C24 1_555 1_555
H33 C24 1_555 1_555
C25 C24 1_555 1_555
H34 C25 1_555 1_555
H35 C25 1_555 1_555
C26 O7 1_555 1_555
H36 C26 1_555 1_555
H37 C26 1_555 1_555
C27 C26 1_555 1_555
H38 C27 1_555 1_555
H39 C27 1_555 1_555
C28 O8 1_555 1_555
H40 C28 1_555 1_555
H41 C28 1_555 1_555
C29 C28 1_555 1_555
H42 C29 1_555 1_555
H43 C29 1_555 1_555
C30 O9 1_555 1_555
H44 C30 1_555 1_555
H45 C30 1_555 1_555
C31 C30 1_555 1_555
H46 C31 1_555 1_555
H47 C31 1_555 1_555
C32 O10 1_555 1_555
H48 C32 1_555 1_555
H49 C32 1_555 1_555
C33 C32 1_555 1_555
H50 C33 1_555 1_555
H51 C33 1_555 1_555
C34 S10 1_555 1_555
C35 C34 1_555 1_555
H52 C35 1_555 1_555
C36 S11 1_555 1_555
N1 C37 1_555 1_555
N2 C44 1_555 1_555
N3 C60 1_555 1_555
N4 C68 1_555 1_555
C37 H53 1_555 1_555
C38 C37 1_555 1_555
H54 C38 1_555 1_555
C39 C38 1_555 1_555
C40 C39 1_555 1_555
H55 C40 1_555 1_555
C41 N1 1_555 1_555
H56 C41 1_555 1_555
C42 C39 1_555 1_555
C43 C42 1_555 1_555
H57 C43 1_555 1_555
C44 C43 1_555 1_555
H58 C44 1_555 1_555
C45 N2 1_555 1_555
H59 C45 1_555 1_555
C46 C42 1_555 1_555
H60 C46 1_555 1_555
C47 N2 1_555 1_555
H61 C47 1_555 1_555
H62 C47 1_555 1_555
C48 C47 1_555 1_555
C49 C48 1_555 1_555
H63 C49 1_555 1_555
C50 C49 1_555 1_555
H64 C50 1_555 1_555
C51 C50 1_555 1_555
C52 C51 1_555 1_555
H65 C52 1_555 1_555
C53 C48 1_555 1_555
H66 C53 1_555 1_555
C54 C51 1_555 1_555
C55 C54 1_555 1_555
H67 C55 1_555 1_555
C56 C55 1_555 1_555
H68 C56 1_555 1_555
C57 C56 1_555 1_555
C58 C57 1_555 1_555
H69 C58 1_555 1_555
C59 C54 1_555 1_555
H70 C59 1_555 1_555
C60 C57 1_555 1_555
H71 C60 1_555 1_555
H72 C60 1_555 1_555
C61 N3 1_555 1_555
H73 C61 1_555 1_555
C62 C61 1_555 1_555
H74 C62 1_555 1_555
C63 C62 1_555 1_555
C64 C63 1_555 1_555
H75 C64 1_555 1_555
C65 N3 1_555 1_555
H76 C65 1_555 1_555
C66 C63 1_555 1_555
C67 C66 1_555 1_555
H77 C67 1_555 1_555
C68 C67 1_555 1_555
H78 C68 1_555 1_555
C69 N4 1_555 1_555
H79 C69 1_555 1_555
C70 C66 1_555 1_555
H80 C70 1_555 1_555
C71 N4 1_555 1_555
H81 C71 1_555 1_555
H82 C71 1_555 1_555
C72 C71 1_555 1_555
C73 C72 1_555 1_555
H83 C73 1_555 1_555
C74 C73 1_555 1_555
H84 C74 1_555 1_555
C75 C74 1_555 1_555
C76 C75 1_555 1_555
H85 C76 1_555 1_555
C77 C72 1_555 1_555
H86 C77 1_555 1_555
C78 C75 1_555 1_555
C79 C78 1_555 1_555
H87 C79 1_555 1_555
C80 C79 1_555 1_555
H88 C80 1_555 1_555
C81 C80 1_555 1_555
C82 C81 1_555 1_555
H89 C82 1_555 1_555
C83 C78 1_555 1_555
H90 C83 1_555 1_555
C84 N1 1_555 1_555
H91 C84 1_555 1_555
H92 C84 1_555 1_555
N5 C85 1_555 1_555
N6 C92 1_555 1_555
C85 H93 1_555 1_555
C86 C85 1_555 1_555
H94 C86 1_555 1_555
C87 C86 1_555 1_555
C88 C87 1_555 1_555
H95 C88 1_555 1_555
C89 N5 1_555 1_555
H96 C89 1_555 1_555
C90 C87 1_555 1_555
C91 C90 1_555 1_555
H97 C91 1_555 1_555
C92 C91 1_555 1_555
H98 C92 1_555 1_555
C93 N6 1_555 1_555
H99 C93 1_555 1_555
C94 C90 1_555 1_555
H100 C94 1_555 1_555
C95 N6 1_555 1_555
H101 C95 1_555 1_555
H102 C95 1_555 1_555
C96 C95 1_555 1_555
C97 C96 1_555 1_555
H103 C97 1_555 1_555
C98 C97 1_555 1_555
H104 C98 1_555 1_555
C99 C98 1_555 1_555
C100 C99 1_555 1_555
H105 C100 1_555 1_555
C101 C96 1_555 1_555
H106 C101 1_555 1_555
C102 C99 1_555 1_555
C103 C102 1_555 1_555
H107 C103 1_555 1_555
C104 C103 1_555 1_555
H108 C104 1_555 1_555
C105 C104 1_555 1_555
C106 C105 1_555 1_555
H109 C106 1_555 1_555
C107 C102 1_555 1_555
H110 C107 1_555 1_555
C108 N5 1_555 1_555
H111 C108 1_555 1_555
H112 C108 1_555 1_555
P1 F1 1_555 1_555
F2 P1 1_555 1_555
F3 P1 1_555 1_555
F4 P1 1_555 1_555
F5 P1 1_555 1_555
F6 P1 1_555 1_555
P2 F7 1_555 1_555
F8 P2 1_555 1_555
F9 P2 1_555 1_555
F10 P2 1_555 1_555
F11 P2 1_555 1_555
F12 P2 1_555 1_555
P3 F13 1_555 1_555
F14 P3 1_555 1_555
F15 P3 1_555 1_555
F16 P3 1_555 1_555
F17 P3 1_555 1_555
F18 P3 1_555 1_555
P4 F19 1_555 1_555
F20 P4 1_555 1_555
F21 P4 1_555 1_555
F22 P4 1_555 1_555
F23 P4 1_555 1_555
F24 P4 1_555 1_555
P5 F25 1_555 1_555
F26 P5 1_555 1_555
F27 P5 1_555 1_555
F28 P5 1_555 1_555
F29 P5 1_555 1_555
F30 P5 1_555 1_555
P6 F31 1_555 1_555
F32 P6 1_555 1_555
F33 P6 1_555 1_555
F34 P6 1_555 1_555
F35 P6 1_555 1_555
F36 P6 1_555 1_555
N5B C85B 1_555 1_555
N6B C92B 1_555 1_555
C85B H93B 1_555 1_555
C86B C85B 1_555 1_555
H94B C86B 1_555 1_555
C87B C86B 1_555 1_555
C88B C87B 1_555 1_555
H95B C88B 1_555 1_555
C89B N5B 1_555 1_555
H96B C89B 1_555 1_555
C90B C87B 1_555 1_555
C91B C90B 1_555 1_555
H97B C91B 1_555 1_555
C92B C91B 1_555 1_555
H98B C92B 1_555 1_555
C93B N6B 1_555 1_555
H99B C93B 1_555 1_555
C94B C90B 1_555 1_555
H100B C94B 1_555 1_555
C95B N6B 1_555 1_555
H101B C95B 1_555 1_555
H102B C95B 1_555 1_555
C96B C95B 1_555 1_555
C97B C96B 1_555 1_555
H103B C97B 1_555 1_555
C98B C97B 1_555 1_555
H104B C98B 1_555 1_555
C99B C98B 1_555 1_555
C100B C99B 1_555 1_555
H105B C100B 1_555 1_555
C101B C96B 1_555 1_555
H106B C101B 1_555 1_555
C102B C99B 1_555 1_555
C103B C102B 1_555 1_555
H107B C103B 1_555 1_555
C104B C103B 1_555 1_555
H108B C104B 1_555 1_555
C105B C108 1_555 1_555
C106B C105B 1_555 1_555
H109B C106B 1_555 1_555
C107B C102B 1_555 1_555
H110B C107B 1_555 1_555
C108B C105 1_555 1_555
H111B C108B 1_555 1_555
H112B C108B 1_555 1_555
S6 C18 1_555 1_555
C2 C3 1_555 1_555
S12 C36 1_555 1_555
C20 C21 1_555 1_555
C40 C41 1_555 1_555
C45 C46 1_555 1_555
C52 C53 1_555 1_555
C58 C59 1_555 1_555
C64 C65 1_555 1_555
C69 C70 1_555 1_555
C76 C77 1_555 1_555
C81 C84 1_555 1_555
C82 C83 1_555 1_555
C88 C89 1_555 1_555
C93 C94 1_555 1_555
C100 C101 1_555 1_555
C106 C107 1_555 1_555
N5B C108B 1_555 1_555
C88B C89B 1_555 1_555
C93B C94B 1_555 1_555
C100B C101B 1_555 1_555
C104B C105B 1_555 1_555
C106B C107B 1_555 1_555

#END
