
#######################################################################
#
#                 Cambridge Crystallographic Data Centre
#                                CCDC 
#
#######################################################################
#
# If this CIF has been generated from an entry in the Cambridge 
# Structural Database, then it will include bibliographic, chemical, 
# crystal, experimental, refinement or atomic coordinate data resulting 
# from the CCDC's data processing and validation procedures.
#
#######################################################################

data_TASYER
_chemical_formula_moiety         'C28 H46 O1 Si3'
_chemical_name_systematic        
4,4a-Dihydro-3,3-di-t-butyl-1-phenyl-4,4-bis(trimethylsilyl)-3H-2-oxa-3-silanaphthalene
_symmetry_cell_setting           orthorhombic
_symmetry_space_group_name_H-M   'P 21 21 21'
_symmetry_Int_Tables_number      19
_space_group_name_Hall           'P 2ac 2ab'
loop_
_symmetry_equiv_pos_site_id
_symmetry_equiv_pos_as_xyz
1 x,y,z
2 1/2-x,-y,1/2+z
3 1/2+x,1/2-y,-z
4 -x,1/2+y,1/2-z
_cell_length_a                   9.541(4)
_cell_length_b                   16.727(5)
_cell_length_c                   18.074(6)
_cell_angle_alpha                90
_cell_angle_beta                 90
_cell_angle_gamma                90
_cell_volume                     2884.47
_exptl_crystal_colour            yellow
_chemical_melting_point          50deg.C(dec.)
_cell_formula_units_Z            4
loop_
_atom_site_label
_atom_site_type_symbol
_atom_site_fract_x
_atom_site_fract_y
_atom_site_fract_z
Si1 Si 0.2737(5) 0.0717(1) 0.3853(1)
Si2 Si 0.3148(6) -0.1095(2) 0.3190(2)
Si3 Si 0.0151(6) -0.0288(2) 0.3181(2)
O1 O 0.3932(9) 0.0496(3) 0.4488(3)
C1 C 0.1709(16) -0.0639(5) 0.4533(5)
C2 C 0.3091(17) -0.0723(6) 0.4971(5)
C3 C 0.3159(15) -0.1378(5) 0.5513(5)
C4 C 0.2110(17) -0.1936(6) 0.5570(6)
C5 C 0.0919(16) -0.1923(6) 0.5112(6)
C6 C 0.0741(16) -0.1359(5) 0.4611(6)
C7 C 0.1904(14) -0.0342(5) 0.3684(4)
C8 C -0.0443(15) -0.1275(5) 0.2768(5)
C9 C -0.1336(13) 0.0015(5) 0.3798(5)
C10 C 0.0207(14) 0.0436(5) 0.2385(5)
C11 C 0.5086(15) -0.1002(5) 0.3405(5)
C12 C 0.2967(14) -0.1129(6) 0.2143(4)
C13 C 0.2770(13) -0.2163(4) 0.3491(5)
C14 C 0.3788(16) 0.1247(6) 0.3079(5)
C15 C 0.5229(16) 0.1479(6) 0.3410(6)
C16 C 0.4163(13) 0.0742(5) 0.2394(5)
C17 C 0.3110(12) 0.2021(5) 0.2764(5)
C18 C 0.1622(12) 0.1513(5) 0.4389(5)
C19 C 0.0918(13) 0.1172(5) 0.5098(4)
C20 C 0.2713(13) 0.2143(5) 0.4679(5)
C21 C 0.0475(13) 0.1941(6) 0.3933(5)
C22 C 0.4102(16) -0.0168(5) 0.4934(5)
C23 C 0.5957(8) 0.0593(3) 0.5589(3)
C24 C 0.7255 0.0647 0.5942
C25 C 0.8085 -0.0033 0.6025
C26 C 0.7618 -0.0768 0.5755
C27 C 0.6321 -0.0822 0.5402
C28 C 0.5491 -0.0142 0.5319
H1 H 0.1232 -0.0204 0.4772
H2 H 0.3963 -0.1415 0.5832
H3 H 0.2178 -0.2338 0.5947
H4 H 0.0253 -0.2351 0.5160
H5 H -0.0054 -0.1387 0.4284
H6 H -0.0519 -0.1670 0.3152
H7 H -0.1337 -0.1209 0.2531
H8 H 0.0237 -0.1445 0.2411
H9 H -0.1406 -0.0345 0.4210
H10 H -0.1171 0.0548 0.3975
H11 H -0.2194 0.0002 0.3519
H12 H -0.0685 0.0459 0.2139
H13 H 0.0451 0.0958 0.2564
H14 H 0.0909 0.0256 0.2045
H15 H 0.5618 -0.1390 0.3134
H16 H 0.5397 -0.0474 0.3276
H17 H 0.5217 -0.1086 0.3927
H18 H 0.3646 -0.1499 0.1954
H19 H 0.2042 -0.1306 0.2012
H20 H 0.3131 -0.0609 0.1933
H21 H 0.3399 -0.2533 0.3259
H22 H 0.2857 -0.2206 0.4019
H23 H 0.1824 -0.2285 0.3346
H24 H 0.5793 0.1736 0.3040
H25 H 0.5083 0.1839 0.3816
H26 H 0.5698 0.1007 0.3584
H27 H 0.4734 0.1019 0.2039
H28 H 0.4621 0.0256 0.2540
H29 H 0.3271 0.0619 0.2176
H30 H 0.3673 0.2281 0.2395
H31 H 0.2247 0.1843 0.2544
H32 H 0.2910 0.2392 0.3155
H33 H 0.0371 0.1575 0.5340
H34 H 0.0325 0.0730 0.4967
H35 H 0.1644 0.0990 0.5426
H36 H 0.2253 0.2558 0.4954
H37 H 0.3381 0.1877 0.4991
H38 H 0.3187 0.2373 0.4262
H39 H -0.0031 0.2310 0.4238
H40 H 0.0906 0.2225 0.3531
H41 H -0.0160 0.1548 0.3739
H42 H 0.5386 0.1061 0.5532
H43 H 0.7576 0.1153 0.6127
H44 H 0.8978 0.0004 0.6268
H45 H 0.8190 -0.1237 0.5812
H46 H 0.6000 -0.1328 0.5217
loop_
_geom_bond_atom_site_label_1
_geom_bond_atom_site_label_2
_geom_bond_site_symmetry_1
_geom_bond_site_symmetry_2
Si1 O1 1_555 1_555
Si2 C7 1_555 1_555
Si3 C7 1_555 1_555
O1 C22 1_555 1_555
C1 C2 1_555 1_555
C2 C3 1_555 1_555
C3 C4 1_555 1_555
C4 C5 1_555 1_555
C5 C6 1_555 1_555
C6 C1 1_555 1_555
C7 Si1 1_555 1_555
C8 Si3 1_555 1_555
C9 Si3 1_555 1_555
C10 Si3 1_555 1_555
C11 Si2 1_555 1_555
C12 Si2 1_555 1_555
C13 Si2 1_555 1_555
C14 Si1 1_555 1_555
C15 C14 1_555 1_555
C16 C14 1_555 1_555
C17 C14 1_555 1_555
C18 Si1 1_555 1_555
C19 C18 1_555 1_555
C20 C18 1_555 1_555
C21 C18 1_555 1_555
C22 C2 1_555 1_555
C23 C24 1_555 1_555
C24 C25 1_555 1_555
C25 C26 1_555 1_555
C26 C27 1_555 1_555
C27 C28 1_555 1_555
C28 C22 1_555 1_555
H1 C1 1_555 1_555
H2 C3 1_555 1_555
H3 C4 1_555 1_555
H4 C5 1_555 1_555
H5 C6 1_555 1_555
H6 C8 1_555 1_555
H7 C8 1_555 1_555
H8 C8 1_555 1_555
H9 C9 1_555 1_555
H10 C9 1_555 1_555
H11 C9 1_555 1_555
H12 C10 1_555 1_555
H13 C10 1_555 1_555
H14 C10 1_555 1_555
H15 C11 1_555 1_555
H16 C11 1_555 1_555
H17 C11 1_555 1_555
H18 C12 1_555 1_555
H19 C12 1_555 1_555
H20 C12 1_555 1_555
H21 C13 1_555 1_555
H22 C13 1_555 1_555
H23 C13 1_555 1_555
H24 C15 1_555 1_555
H25 C15 1_555 1_555
H26 C15 1_555 1_555
H27 C16 1_555 1_555
H28 C16 1_555 1_555
H29 C16 1_555 1_555
H30 C17 1_555 1_555
H31 C17 1_555 1_555
H32 C17 1_555 1_555
H33 C19 1_555 1_555
H34 C19 1_555 1_555
H35 C19 1_555 1_555
H36 C20 1_555 1_555
H37 C20 1_555 1_555
H38 C20 1_555 1_555
H39 C21 1_555 1_555
H40 C21 1_555 1_555
H41 C21 1_555 1_555
H42 C23 1_555 1_555
H43 C24 1_555 1_555
H44 C25 1_555 1_555
H45 C26 1_555 1_555
H46 C27 1_555 1_555
C1 C7 1_555 1_555
C23 C28 1_555 1_555

#END
