
#######################################################################
#
#                 Cambridge Crystallographic Data Centre
#                                CCDC 
#
#######################################################################
#
# If this CIF has been generated from an entry in the Cambridge 
# Structural Database, then it will include bibliographic, chemical, 
# crystal, experimental, refinement or atomic coordinate data resulting 
# from the CCDC's data processing and validation procedures.
#
#######################################################################

data_TASZIX
_chemical_formula_moiety         'C7 H17 B1 N3 1+,C2 F6 N1 O4 S2 1-'
_chemical_name_systematic        
'(3-Methylimidazolyl)-(trimethylamine)boronium bis(trifluoromethanesulfonyl)imide'
_symmetry_cell_setting           triclinic
_symmetry_space_group_name_H-M   'P -1'
_symmetry_Int_Tables_number      2
_space_group_name_Hall           '-P 1'
loop_
_symmetry_equiv_pos_site_id
_symmetry_equiv_pos_as_xyz
1 x,y,z
2 -x,-y,-z
_cell_length_a                   9.1544(14)
_cell_length_b                   10.1383(16)
_cell_length_c                   10.7424(17)
_cell_angle_alpha                77.628(3)
_cell_angle_beta                 72.260(3)
_cell_angle_gamma                80.393(3)
_cell_volume                     921.994
_exptl_crystal_colour            colorless
_exptl_crystal_description       Rectangular
_cell_formula_units_Z            2
loop_
_atom_site_label
_atom_site_type_symbol
_atom_site_fract_x
_atom_site_fract_y
_atom_site_fract_z
S2 S 0.41368(7) 0.11648(6) 0.95353(6)
O3 O 0.4198(4) 0.1863(3) 0.8171(3)
O4 O 0.4469(4) 0.1842(3) 1.0364(3)
F4 F 0.1393(4) 0.0931(5) 1.1375(3)
F5 F 0.2118(4) -0.0622(3) 1.0201(3)
F6 F 0.1320(4) 0.1380(4) 0.9375(4)
N2 N 0.5145(4) -0.0291(4) 0.9320(3)
C2 C 0.2163(3) 0.0721(3) 1.0184(3)
S2A S 0.58632(7) -0.11648(6) 1.04647(6)
O3A O 0.5802(4) -0.1863(3) 1.1829(3)
O4A O 0.5531(4) -0.1842(3) 0.9636(3)
F4A F 0.8607(4) -0.0931(5) 0.8625(3)
F5A F 0.7882(4) 0.0622(3) 0.9799(3)
F6A F 0.8680(4) -0.1380(4) 1.0625(4)
N2A N 0.4855(4) 0.0291(4) 1.0680(3)
C2A C 0.7837(3) -0.0721(3) 0.9816(3)
B1 B 0.7116(3) 0.2397(3) 0.2863(3)
H1 H 0.789(3) 0.230(2) 0.349(2)
H2 H 0.747(2) 0.180(2) 0.205(2)
N3 N 0.55147(19) 0.20138(17) 0.37831(16)
N4 N 0.3265(2) 0.12586(17) 0.44703(17)
N5 N 0.69765(18) 0.39565(18) 0.21531(16)
C3 C 0.1876(3) 0.0743(3) 0.4445(3)
H3 H 0.1948 0.0675 0.3531
H4 H 0.0968 0.1366 0.4782
H5 H 0.1781 -0.0157 0.5004
C4 C 0.4448(2) 0.1570(2) 0.3423(2)
H6 H 0.4521 0.1486 0.2541
C5 C 0.3578(3) 0.1504(2) 0.5562(2)
H7 H 0.2937 0.1368 0.6450
C6 C 0.4968(3) 0.1973(2) 0.5137(2)
H8 H 0.5485 0.2232 0.5676
C7 C 0.8546(3) 0.4252(3) 0.1284(2)
H9 H 0.8502 0.5200 0.0831
H10 H 0.8898 0.3650 0.0623
H11 H 0.9266 0.4099 0.1827
C8 C 0.5906(3) 0.4223(3) 0.1303(2)
H12 H 0.5846 0.5185 0.0894
H13 H 0.4878 0.3997 0.1848
H14 H 0.6291 0.3663 0.0607
C9 C 0.6460(3) 0.4892(2) 0.3136(2)
H15 H 0.6377 0.5833 0.2670
H16 H 0.7212 0.4776 0.3645
H17 H 0.5452 0.4683 0.3741
S1 S 0.11336(11) 0.49208(11) 0.41088(11)
O1 O 0.0300(4) 0.4131(4) 0.3681(3)
O2 O 0.2688(3) 0.4517(3) 0.3995(3)
F1 F -0.0347(4) 0.7111(4) 0.3092(3)
F2 F 0.1768(5) 0.7424(3) 0.3412(4)
F3 F 0.1805(4) 0.6448(4) 0.1805(3)
N1 N 0.0358(4) 0.5275(4) 0.5550(3)
C1 C 0.1220(3) 0.6593(3) 0.2898(3)
S1A S -0.11336(11) 0.50792(11) 0.58912(11)
O1A O -0.0300(4) 0.5869(4) 0.6319(3)
O2A O -0.2688(3) 0.5483(3) 0.6005(3)
F1A F 0.0347(4) 0.2889(4) 0.6908(3)
F2A F -0.1768(5) 0.2576(3) 0.6588(4)
F3A F -0.1805(4) 0.3552(4) 0.8195(3)
N1A N -0.0358(4) 0.4725(4) 0.4450(3)
C1A C -0.1220(3) 0.3407(3) 0.7102(3)
S3? S -0.13653(12) 0.51539(11) 0.63677(11)
O5? O -0.2471(4) 0.5247(4) 0.5656(3)
O6? O -0.1737(3) 0.5925(3) 0.7414(3)
O7? O 0.4660(4) 0.0919(3) 0.8294(3)
O8? O 0.3844(5) 0.2548(3) 0.9840(4)
F7? F -0.2732(4) 0.3194(3) 0.8069(3)
F8? F -0.0345(4) 0.3132(4) 0.7958(3)
F9? F -0.0956(5) 0.2519(3) 0.6452(3)
F10? F 0.2022(4) -0.0031(4) 1.1360(4)
F11? F 0.1768(4) 0.0167(4) 0.9398(4)
F12? F 0.1286(4) 0.1878(4) 1.0347(4)
loop_
_geom_bond_atom_site_label_1
_geom_bond_atom_site_label_2
_geom_bond_site_symmetry_1
_geom_bond_site_symmetry_2
S1 O1 1_555 1_555
O1 N1A 1_555 1_555
O2 S1 1_555 1_555
F1 C1 1_555 1_555
F2 C1 1_555 1_555
F3 C1 1_555 1_555
N1 S1 1_555 1_555
C1 S1 1_555 1_555
S2 O3 1_555 1_555
O4 S2 1_555 1_555
F4 C2 1_555 1_555
F5 C2 1_555 1_555
F6 C2 1_555 1_555
N2 S2 1_555 1_555
C2 S2 1_555 1_555
B1 H1 1_555 1_555
H2 B1 1_555 1_555
N3 B1 1_555 1_555
N4 C3 1_555 1_555
N5 B1 1_555 1_555
C3 H3 1_555 1_555
H4 C3 1_555 1_555
H5 C3 1_555 1_555
C4 N3 1_555 1_555
H6 C4 1_555 1_555
C5 N4 1_555 1_555
H7 C5 1_555 1_555
C6 N3 1_555 1_555
H8 C6 1_555 1_555
C7 N5 1_555 1_555
H9 C7 1_555 1_555
H10 C7 1_555 1_555
H11 C7 1_555 1_555
C8 N5 1_555 1_555
H12 C8 1_555 1_555
H13 C8 1_555 1_555
H14 C8 1_555 1_555
C9 N5 1_555 1_555
H15 C9 1_555 1_555
H16 C9 1_555 1_555
H17 C9 1_555 1_555
S1A S1 1_555 1_555
O1A N1 1_555 1_555
O2A S1A 1_555 1_555
F1A C1A 1_555 1_555
F2A C1A 1_555 1_555
F3A C1A 1_555 1_555
N1A S1 1_555 1_555
C1A S1A 1_555 1_555
S2A N2 1_555 1_555
O3A S2A 1_555 1_555
O4A N2 1_555 1_555
F4A C2A 1_555 1_555
F5A C2A 1_555 1_555
F6A C2A 1_555 1_555
N2A S2 1_555 1_555
C2A S2A 1_555 1_555
N1 S1A 1_555 1_555
N1 N1A 1_555 1_555
O4 N2A 1_555 1_555
N2 N2A 1_555 1_555
N4 C4 1_555 1_555
C5 C6 1_555 1_555
S1A O1A 1_555 1_555
S1A N1A 1_555 1_555
S2A O4A 1_555 1_555
S2A N2A 1_555 1_555

#END
