
#######################################################################
#
#                 Cambridge Crystallographic Data Centre
#                                CCDC 
#
#######################################################################
#
# If this CIF has been generated from an entry in the Cambridge 
# Structural Database, then it will include bibliographic, chemical, 
# crystal, experimental, refinement or atomic coordinate data resulting 
# from the CCDC's data processing and validation procedures.
#
#######################################################################

data_TATBUL
_chemical_formula_moiety         'C19 H28 O4 S1'
_chemical_name_systematic        
3R-((1'R,2'R,4'R)-Methoxycarbonylbicyclo(2.2.1)hept-5'-en-2'-yl-(SR)-sulfinyl)-2S-hydroxy-1R,7,7-trimethylbicyclo(2.2.1)heptane
_symmetry_cell_setting           orthorhombic
_symmetry_space_group_name_H-M   'P 21 21 21'
_symmetry_Int_Tables_number      19
_space_group_name_Hall           'P 2ac 2ab'
loop_
_symmetry_equiv_pos_site_id
_symmetry_equiv_pos_as_xyz
1 x,y,z
2 1/2-x,-y,1/2+z
3 1/2+x,1/2-y,-z
4 -x,1/2+y,1/2-z
_cell_length_a                   13.529(6)
_cell_length_b                   13.946(4)
_cell_length_c                   19.804(6)
_cell_angle_alpha                90
_cell_angle_beta                 90
_cell_angle_gamma                90
_cell_volume                     3736.53
_exptl_crystal_colour            colorless
_cell_formula_units_Z            8
loop_
_atom_site_label
_atom_site_type_symbol
_atom_site_fract_x
_atom_site_fract_y
_atom_site_fract_z
S1 S 0.7126(1) 1.0243(1) 0.1806(1)
O1 O 0.7762(3) 0.9407(2) 0.1614(2)
O2 O 0.6112(3) 0.9798(2) 0.0605(2)
O3 O 0.8665(4) 1.2370(3) 0.2261(2)
O4 O 0.9338(3) 1.1035(3) 0.1896(2)
C1 C 0.6111(4) 1.1462(4) 0.0193(3)
C2 C 0.6713(3) 1.0592(3) 0.0453(3)
C3 C 0.7259(3) 1.1034(3) 0.1081(2)
C4 C 0.6834(4) 1.2057(3) 0.1124(2)
C5 C 0.7354(5) 1.2615(4) 0.0568(3)
C6 C 0.6877(5) 1.2172(4) -0.0084(3)
C7 C 0.5762(4) 1.1960(3) 0.0852(3)
C8 C 0.5077(4) 1.1395(4) 0.1301(3)
C9 C 0.5269(5) 1.2956(5) 0.0731(3)
C10 C 0.5303(5) 1.1194(5) -0.0312(3)
C11 C 0.7808(4) 1.0900(3) 0.2474(2)
C12 C 0.8683(5) 1.1447(5) 0.2182(3)
C13 C 0.9697(7) 1.2510(14) 0.1924(7)
C14 C 0.8219(4) 1.0134(4) 0.2978(3)
C15 C 0.7371(6) 0.9520(4) 0.3213(3)
C16 C 0.6797(5) 1.0064(6) 0.3599(3)
C17 C 0.7267(5) 1.1027(5) 0.3638(3)
C18 C 0.7101(4) 1.1486(3) 0.2923(3)
C19 C 0.8344(5) 1.0772(4) 0.3607(3)
H1 H 0.6393 0.9287 0.0471
H2 H 0.7196 1.0412 0.0121
H3 H 0.7950 1.1086 0.0977
H4 H 0.6885 1.2348 0.1562
H5 H 0.8057 1.2525 0.0581
H6 H 0.7210 1.3288 0.0596
H7 H 0.6569 1.2653 -0.0359
H8 H 0.7373 1.1848 -0.0345
H9 H 0.5367 1.0782 0.1396
H10 H 0.4964 1.1732 0.1717
H11 H 0.4459 1.1306 0.1071
H12 H 0.5068 1.3233 0.1153
H13 H 0.5722 1.3381 0.0508
H14 H 0.4700 1.2859 0.0450
H15 H 0.5594 1.0895 -0.0700
H16 H 0.4858 1.0753 -0.0097
H17 H 0.4947 1.1756 -0.0449
H18 H 0.9774 1.3192 0.1963
H19 H 1.0224 1.2195 0.2161
H20 H 0.9715 1.2331 0.1456
H21 H 0.8800 0.9801 0.2829
H22 H 0.7267 0.8855 0.3108
H23 H 0.6200 0.9863 0.3819
H24 H 0.7061 1.1415 0.4013
H25 H 0.6430 1.1416 0.2773
H26 H 0.7275 1.2153 0.2921
H27 H 0.8753 1.1321 0.3521
H28 H 0.8573 1.0432 0.3998
S2 S 0.6499(1) 0.7068(1) 0.0444(1)
O5 O 0.6913(2) 0.8000(2) 0.0199(2)
O6 O 0.6807(3) 0.7712(2) 0.1756(2)
O7 O 0.7745(3) 0.5048(3) -0.0451(2)
O8 O 0.8045(3) 0.6579(3) -0.0707(2)
C20 C 0.7699(4) 0.6270(3) 0.2138(2)
C21 C 0.7612(3) 0.7092(3) 0.1624(2)
C22 C 0.7496(3) 0.6535(3) 0.0939(2)
C23 C 0.7433(4) 0.5480(3) 0.1158(2)
C24 C 0.8509(4) 0.5217(4) 0.1322(3)
C25 C 0.8696(4) 0.5792(4) 0.1983(3)
C26 C 0.6959(4) 0.5510(3) 0.1865(3)
C27 C 0.5885(4) 0.5810(4) 0.1865(3)
C28 C 0.7029(6) 0.4550(4) 0.2244(3)
C29 C 0.7572(5) 0.6596(4) 0.2869(3)
C30 C 0.6458(3) 0.6234(3) -0.0284(2)
C31 C 0.7474(4) 0.5867(4) -0.0485(2)
C32 C 0.9053(4) 0.6338(5) -0.0892(3)
C33 C 0.5956(4) 0.6753(4) -0.0898(3)
C34 C 0.5026(4) 0.7195(4) -0.0637(3)
C35 C 0.4399(4) 0.6510(5) -0.0499(3)
C36 C 0.4909(5) 0.5567(5) -0.0668(3)
C37 C 0.5712(4) 0.5421(3) -0.0124(3)
C38 C 0.5523(5) 0.5883(5) -0.1263(3)
H29 H 0.7001 0.8291 0.1730
H30 H 0.8214 0.7456 0.1617
H31 H 0.8097 0.6616 0.0688
H32 H 0.7112 0.5060 0.0843
H33 H 0.8947 0.5415 0.0967
H34 H 0.8586 0.4541 0.1397
H35 H 0.8894 0.5375 0.2344
H36 H 0.9203 0.6265 0.1914
H37 H 0.5482 0.5302 0.1689
H38 H 0.5680 0.5958 0.2317
H39 H 0.5814 0.6369 0.1586
H40 H 0.6562 0.4103 0.2059
H41 H 0.7685 0.4296 0.2197
H42 H 0.6886 0.4652 0.2713
H43 H 0.8071 0.7061 0.2976
H44 H 0.6931 0.6881 0.2918
H45 H 0.7630 0.6058 0.3169
H46 H 0.9384 0.6906 -0.1047
H47 H 0.9394 0.6085 -0.0506
H48 H 0.9049 0.5868 -0.1246
H49 H 0.6375 0.7157 -0.1167
H50 H 0.4908 0.7868 -0.0576
H51 H 0.3742 0.6585 -0.0322
H52 H 0.4488 0.5025 -0.0749
H53 H 0.5436 0.5487 0.0320
H54 H 0.6022 0.4804 -0.0163
H55 H 0.6017 0.5425 -0.1395
H56 H 0.5118 0.6049 -0.1644
loop_
_geom_bond_atom_site_label_1
_geom_bond_atom_site_label_2
_geom_bond_site_symmetry_1
_geom_bond_site_symmetry_2
S1 O1 1_555 1_555
O2 C2 1_555 1_555
O3 C12 1_555 1_555
O4 C12 1_555 1_555
C1 C2 1_555 1_555
C2 C3 1_555 1_555
C3 S1 1_555 1_555
C4 C3 1_555 1_555
C5 C4 1_555 1_555
C6 C1 1_555 1_555
C7 C1 1_555 1_555
C8 C7 1_555 1_555
C9 C7 1_555 1_555
C10 C1 1_555 1_555
C11 S1 1_555 1_555
C12 C11 1_555 1_555
C13 O3 1_555 1_555
C14 C11 1_555 1_555
C15 C14 1_555 1_555
C16 C15 1_555 1_555
C17 C16 1_555 1_555
C18 C11 1_555 1_555
C19 C14 1_555 1_555
S2 O5 1_555 1_555
O6 C21 1_555 1_555
O7 C31 1_555 1_555
O8 C31 1_555 1_555
C20 C21 1_555 1_555
C21 C22 1_555 1_555
C22 S2 1_555 1_555
C23 C22 1_555 1_555
C24 C23 1_555 1_555
C25 C20 1_555 1_555
C26 C20 1_555 1_555
C27 C26 1_555 1_555
C28 C26 1_555 1_555
C29 C20 1_555 1_555
C30 S2 1_555 1_555
C31 C30 1_555 1_555
C32 O8 1_555 1_555
C33 C30 1_555 1_555
C34 C33 1_555 1_555
C35 C34 1_555 1_555
C36 C35 1_555 1_555
C37 C30 1_555 1_555
C38 C33 1_555 1_555
H1 O2 1_555 1_555
H2 C2 1_555 1_555
H3 C3 1_555 1_555
H4 C4 1_555 1_555
H5 C5 1_555 1_555
H6 C5 1_555 1_555
H7 C6 1_555 1_555
H8 C6 1_555 1_555
H9 C8 1_555 1_555
H10 C8 1_555 1_555
H11 C8 1_555 1_555
H12 C9 1_555 1_555
H13 C9 1_555 1_555
H14 C9 1_555 1_555
H15 C10 1_555 1_555
H16 C10 1_555 1_555
H17 C10 1_555 1_555
H18 C13 1_555 1_555
H19 C13 1_555 1_555
H20 C13 1_555 1_555
H21 C14 1_555 1_555
H22 C15 1_555 1_555
H23 C16 1_555 1_555
H24 C17 1_555 1_555
H25 C18 1_555 1_555
H26 C18 1_555 1_555
H27 C19 1_555 1_555
H28 C19 1_555 1_555
H29 O6 1_555 1_555
H30 C21 1_555 1_555
H31 C22 1_555 1_555
H32 C23 1_555 1_555
H33 C24 1_555 1_555
H34 C24 1_555 1_555
H35 C25 1_555 1_555
H36 C25 1_555 1_555
H37 C27 1_555 1_555
H38 C27 1_555 1_555
H39 C27 1_555 1_555
H40 C28 1_555 1_555
H41 C28 1_555 1_555
H42 C28 1_555 1_555
H43 C29 1_555 1_555
H44 C29 1_555 1_555
H45 C29 1_555 1_555
H46 C32 1_555 1_555
H47 C32 1_555 1_555
H48 C32 1_555 1_555
H49 C33 1_555 1_555
H50 C34 1_555 1_555
H51 C35 1_555 1_555
H52 C36 1_555 1_555
H53 C37 1_555 1_555
H54 C37 1_555 1_555
H55 C38 1_555 1_555
H56 C38 1_555 1_555
C4 C7 1_555 1_555
C5 C6 1_555 1_555
C17 C18 1_555 1_555
C17 C19 1_555 1_555
C23 C26 1_555 1_555
C24 C25 1_555 1_555
C36 C37 1_555 1_555
C36 C38 1_555 1_555

#END
