
#######################################################################
#
#                 Cambridge Crystallographic Data Centre
#                                CCDC 
#
#######################################################################
#
# If this CIF has been generated from an entry in the Cambridge 
# Structural Database, then it will include bibliographic, chemical, 
# crystal, experimental, refinement or atomic coordinate data resulting 
# from the CCDC's data processing and validation procedures.
#
#######################################################################

data_TATBOF
_chemical_formula_moiety         'C19 H28 O4 S1'
_chemical_name_systematic        
3R-((1'S,2'R,4'S)-Methoxycarbonylbicyclo(2.2.1)hept-5'-en-2'-yl-(SR)-sulfinyl)-2S-hydroxy-1R,7,7-trimethylbicyclo(2.2.1)heptane
_symmetry_cell_setting           monoclinic
_symmetry_space_group_name_H-M   'P 21'
_symmetry_Int_Tables_number      4
_space_group_name_Hall           'P 2yb'
loop_
_symmetry_equiv_pos_site_id
_symmetry_equiv_pos_as_xyz
1 x,y,z
2 -x,1/2+y,-z
_cell_length_a                   11.425(7)
_cell_length_b                   6.781(3)
_cell_length_c                   13.004(7)
_cell_angle_alpha                90
_cell_angle_beta                 113.160
_cell_angle_gamma                90
_cell_volume                     926.267
_exptl_crystal_colour            colorless
_cell_formula_units_Z            2
loop_
_atom_site_label
_atom_site_type_symbol
_atom_site_fract_x
_atom_site_fract_y
_atom_site_fract_z
S1 S 0.2286(1) 0.0000 0.1244(1)
O1 O 0.1645(1) 0.0282(3) 0.0(1)
O2 O 0.0367(2) -0.2398(3) 0.1266(2)
O3 O 0.4725(3) 0.2244(6) 0.3762(2)
O4 O 0.4889(2) -0.0550(4) 0.2937(2)
C1 C -0.0166(2) -0.0451(3) 0.2652(2)
C2 C 0.0022(2) -0.0520(3) 0.1534(2)
C3 C 0.1131(2) 0.0985(3) 0.1756(2)
C4 C 0.1528(2) 0.1556(3) 0.2996(2)
C5 C 0.0486(3) 0.3009(7) 0.2978(3)
C6 C -0.0689(3) 0.1654(5) 0.2676(3)
C7 C 0.1225(2) -0.0297(3) 0.3535(2)
C8 C 0.2111(3) -0.2030(4) 0.3616(2)
C9 C 0.1271(4) 0.0070(8) 0.4721(2)
C10 C -0.1005(3) -0.2064(5) 0.2798(3)
C11 C 0.3583(2) 0.1890(3) 0.1766(2)
C12 C 0.4452(2) 0.1265(6) 0.2942(2)
C13 C 0.5769(6) -0.1314(15) 0.4010(5)
C14 C 0.4339(2) 0.1766(5) 0.0974(2)
C15 C 0.5581(3) 0.2847(7) 0.1615(3)
C16 C 0.5299(4) 0.4725(8) 0.1592(4)
C17 C 0.3881(3) 0.4948(6) 0.0944(3)
C18 C 0.3192(3) 0.4085(4) 0.1662(3)
C19 C 0.3647(3) 0.3310(6) 0.0095(3)
H1 H -0.0398(34) -0.3077(67) 0.0841(30)
H2 H -0.0758(23) -0.0069(53) 0.0936(20)
H3 H 0.0906(30) 0.2186(56) 0.1245(25)
H4 H 0.2344(30) 0.2114(55) 0.3308(27)
H5 H 0.0278(33) 0.4139(62) 0.2403(31)
H6 H 0.0792(32) 0.3654(65) 0.3765(32)
H7 H -0.1117(37) 0.1728(72) 0.3282(33)
H8 H -0.1363(35) 0.2030(75) 0.1944(2)
H9 H 0.2837(37) -0.1855(72) 0.4116(35)
H10 H 0.1797(37) -0.3241(73) 0.3835(33)
H11 H 0.2264(30) -0.2225(55) 0.2951(30)
H12 H 0.1974(41) 0.0389(74) 0.5096(35)
H13 H 0.0863(74) 0.097(13) 0.4856(63)
H14 H 0.0958(48) -0.1168(89) 0.5006(41)
H15 H -0.1910(34) -0.1867(62) 0.2336(29)
H16 H -0.0754(39) -0.3316(80) 0.2649(34)
H17 H -0.1030(37) -0.1884(71) 0.3580(34)
H18 H 0.5640(47) -0.2460(83) 0.3894(38)
H19 H 0.6513(52) -0.0887(92) 0.4120(45)
H20 H 0.5486(48) -0.1125(93) 0.4508(47)
H21 H 0.4342(25) 0.0502(43) 0.0729(22)
H22 H 0.6404(34) 0.2105(67) 0.2119(30)
H23 H 0.5925(51) 0.5729(92) 0.2060(45)
H24 H 0.3776(41) 0.6314(72) 0.0651(35)
H25 H 0.3482(26) 0.4551(51) 0.2339(26)
H26 H 0.2311(32) 0.4254(57) 0.1315(27)
H27 H 0.2721(27) 0.3123(51) -0.0285(25)
H28 H 0.4034(34) 0.3458(78) -0.0495(34)
loop_
_geom_bond_atom_site_label_1
_geom_bond_atom_site_label_2
_geom_bond_site_symmetry_1
_geom_bond_site_symmetry_2
S1 O1 1_555 1_555
O2 C2 1_555 1_555
O3 C12 1_555 1_555
O4 C12 1_555 1_555
C1 C2 1_555 1_555
C2 C3 1_555 1_555
C3 S1 1_555 1_555
C4 C3 1_555 1_555
C5 C4 1_555 1_555
C6 C1 1_555 1_555
C7 C1 1_555 1_555
C8 C7 1_555 1_555
C9 C7 1_555 1_555
C10 C1 1_555 1_555
C11 S1 1_555 1_555
C12 C11 1_555 1_555
C13 O4 1_555 1_555
C14 C11 1_555 1_555
C15 C14 1_555 1_555
C16 C15 1_555 1_555
C17 C16 1_555 1_555
C18 C11 1_555 1_555
C19 C14 1_555 1_555
H1 O2 1_555 1_555
H2 C2 1_555 1_555
H3 C3 1_555 1_555
H4 C4 1_555 1_555
H5 C5 1_555 1_555
H6 C5 1_555 1_555
H7 C6 1_555 1_555
H8 C6 1_555 1_555
H9 C8 1_555 1_555
H10 C8 1_555 1_555
H11 C8 1_555 1_555
H12 C9 1_555 1_555
H13 C9 1_555 1_555
H14 C9 1_555 1_555
H15 C10 1_555 1_555
H16 C10 1_555 1_555
H17 C10 1_555 1_555
H18 C13 1_555 1_555
H19 C13 1_555 1_555
H20 C13 1_555 1_555
H21 C14 1_555 1_555
H22 C15 1_555 1_555
H23 C16 1_555 1_555
H24 C17 1_555 1_555
H25 C18 1_555 1_555
H26 C18 1_555 1_555
H27 C19 1_555 1_555
H28 C19 1_555 1_555
C4 C7 1_555 1_555
C5 C6 1_555 1_555
C17 C18 1_555 1_555
C17 C19 1_555 1_555

#END
