
#######################################################################
#
#                 Cambridge Crystallographic Data Centre
#                                CCDC 
#
#######################################################################
#
# If this CIF has been generated from an entry in the Cambridge 
# Structural Database, then it will include bibliographic, chemical, 
# crystal, experimental, refinement or atomic coordinate data resulting 
# from the CCDC's data processing and validation procedures.
#
#######################################################################

data_TATNUA
_chemical_formula_moiety         'C35 H33 N1 O4,C2 H6 O1'
_chemical_name_systematic        
'(S)-4,5-bis(benzhydryloxy)-2-(1-hydroxy-2-methylpropyl)pyridine N-oxide ethanol solvate'
_symmetry_cell_setting           orthorhombic
_symmetry_space_group_name_H-M   'P 21 21 21'
_symmetry_Int_Tables_number      19
_space_group_name_Hall           'P 2ac 2ab'
loop_
_symmetry_equiv_pos_site_id
_symmetry_equiv_pos_as_xyz
1 x,y,z
2 1/2+x,1/2-y,-z
3 -x,1/2+y,1/2-z
4 1/2-x,-y,1/2+z
_cell_length_a                   9.0661(8)
_cell_length_b                   10.4931(9)
_cell_length_c                   34.221(3)
_cell_angle_alpha                90
_cell_angle_beta                 90
_cell_angle_gamma                90
_cell_volume                     3255.49
_exptl_crystal_colour            colorless
_exptl_crystal_description       block
_cell_formula_units_Z            4
loop_
_atom_site_label
_atom_site_type_symbol
_atom_site_fract_x
_atom_site_fract_y
_atom_site_fract_z
O1 O 0.6253(4) 0.6534(4) 0.01009(11)
O2 O 0.3798(4) 0.9458(4) -0.03346(11)
H1 H 0.2990 0.9162 -0.0276
C1 C 0.6389(10) 0.8907(13) -0.0839(2)
H2 H 0.5611 0.9408 -0.0951
H3 H 0.6248 0.8027 -0.0906
H4 H 0.7322 0.9193 -0.0939
C2 C 0.6598(13) 1.0473(13) -0.0286(3)
H5 H 0.7529 1.0762 -0.0386
H6 H 0.6591 1.0557 -0.0006
H7 H 0.5818 1.0977 -0.0395
O3 O 0.4815(4) 0.7620(4) 0.13897(10)
O4 O 0.3705(4) 0.9700(3) 0.11567(10)
C3 C 0.2463(8) 1.0809(8) 0.1783(2)
H8 H 0.3056 1.0091 0.1811
C4 C 0.4868(8) 1.2490(6) 0.06809(19)
H9 H 0.4191 1.2435 0.0477
C5 C 0.3116(9) 0.5974(10) 0.2624(3)
H10 H 0.2579 0.5846 0.2853
C6 C 0.3252(9) 0.5016(9) 0.2353(3)
H11 H 0.2783 0.4240 0.2397
C7 C 0.4088(8) 0.5184(7) 0.2011(2)
H12 H 0.4182 0.4523 0.1832
C8 C 0.4762(6) 0.6337(5) 0.19439(16)
C9 C 0.5613(6) 0.6609(5) 0.15732(15)
H13 H 0.5584 0.5854 0.1405
C10 C 0.4949(5) 0.7841(4) 0.09982(13)
C11 C 0.4303(5) 0.8979(4) 0.08674(13)
C12 C 0.3292(6) 1.0995(5) 0.10760(15)
H14 H 0.2679 1.1027 0.0840
C13 C 0.2396(5) 1.1419(5) 0.14279(17)
C14 C 0.1529(7) 1.2492(8) 0.1388(3)
H15 H 0.1489 1.2929 0.1152
C15 C 0.0706(9) 1.2912(12) 0.1712(5)
H16 H 0.0104 1.3625 0.1688
C16 C 0.0777(10) 1.2293(14) 0.2060(4)
H17 H 0.0223 1.2583 0.2270
C17 C 0.1658(11) 1.1246(11) 0.2101(3)
H18 H 0.1718 1.0830 0.2341
C18 C 0.3769(10) 0.7097(10) 0.2555(2)
H19 H 0.3649 0.7762 0.2731
C19 C 0.4617(8) 0.7284(7) 0.22242(18)
H20 H 0.5099 0.8057 0.2189
C20 C 0.7202(6) 0.6981(5) 0.16429(15)
C21 C 0.8211(8) 0.6075(7) 0.1754(3)
H21 H 0.7910 0.5231 0.1777
C22 C 0.9650(9) 0.6384(11) 0.1832(3)
H22 H 1.0320 0.5752 0.1902
C23 C 1.0095(9) 0.7622(12) 0.1808(3)
H23 H 1.1064 0.7839 0.1868
C24 C 0.9111(10) 0.8554(10) 0.1695(3)
H24 H 0.9417 0.9396 0.1672
C25 C 0.7671(8) 0.8225(7) 0.1617(2)
H25 H 0.7003 0.8855 0.1545
C26 C 0.5606(5) 0.7055(5) 0.07365(15)
H26 H 0.6065 0.6314 0.0823
N1 N 0.5601(4) 0.7343(4) 0.03472(11)
C27 C 0.4944(5) 0.8404(4) 0.02084(13)
C28 C 0.4909(5) 0.8585(5) -0.02331(14)
H27 H 0.4677 0.7763 -0.0354
C29 C 0.6367(7) 0.9053(9) -0.0398(2)
H28 H 0.7170 0.8545 -0.0286
C30 C 0.4298(5) 0.9229(4) 0.04740(14)
H29 H 0.3851 0.9970 0.0383
C31 C 0.4643(5) 1.1817(4) 0.10224(15)
C32 C 0.6138(11) 1.3265(7) 0.0643(3)
H30 H 0.6298 1.3715 0.0413
C33 C 0.7120(9) 1.3356(8) 0.0940(3)
H31 H 0.7942 1.3880 0.0915
C34 C 0.6902(8) 1.2682(9) 0.1272(3)
H32 H 0.7589 1.2735 0.1474
C35 C 0.5670(6) 1.1916(7) 0.13172(19)
H33 H 0.5536 1.1464 0.1548
C36 C 0.9543(10) 0.0951(13) 0.0497(4)
H34 H 0.9040 0.1355 0.0280
H35 H 0.9689 0.1595 0.0697
C37 C 0.8576(16) -0.0052(18) 0.0657(6)
H36 H 0.8386 -0.0678 0.0459
H37 H 0.7661 0.0320 0.0740
H38 H 0.9052 -0.0451 0.0876
O5 O 1.0881(7) 0.0549(9) 0.0373(3)
H39 H 1.0907 -0.0232 0.0376
loop_
_geom_bond_atom_site_label_1
_geom_bond_atom_site_label_2
_geom_bond_site_symmetry_1
_geom_bond_site_symmetry_2
O1 N1 1_555 1_555
O2 H1 1_555 1_555
C1 H2 1_555 1_555
H3 C1 1_555 1_555
H4 C1 1_555 1_555
C2 H5 1_555 1_555
H6 C2 1_555 1_555
H7 C2 1_555 1_555
O3 C9 1_555 1_555
O4 C11 1_555 1_555
C3 H8 1_555 1_555
C4 H9 1_555 1_555
C5 H10 1_555 1_555
C6 C5 1_555 1_555
H11 C6 1_555 1_555
C7 C6 1_555 1_555
H12 C7 1_555 1_555
C8 C7 1_555 1_555
C9 C8 1_555 1_555
H13 C9 1_555 1_555
C10 O3 1_555 1_555
C11 C10 1_555 1_555
C12 O4 1_555 1_555
H14 C12 1_555 1_555
C13 C3 1_555 1_555
C14 C13 1_555 1_555
H15 C14 1_555 1_555
C15 C14 1_555 1_555
H16 C15 1_555 1_555
C16 C15 1_555 1_555
H17 C16 1_555 1_555
C17 C3 1_555 1_555
H18 C17 1_555 1_555
C18 C5 1_555 1_555
H19 C18 1_555 1_555
C19 C8 1_555 1_555
H20 C19 1_555 1_555
C20 C9 1_555 1_555
C21 C20 1_555 1_555
H21 C21 1_555 1_555
C22 C21 1_555 1_555
H22 C22 1_555 1_555
C23 C22 1_555 1_555
H23 C23 1_555 1_555
C24 C23 1_555 1_555
H24 C24 1_555 1_555
C25 C20 1_555 1_555
H25 C25 1_555 1_555
C26 C10 1_555 1_555
H26 C26 1_555 1_555
N1 C26 1_555 1_555
C27 N1 1_555 1_555
C28 O2 1_555 1_555
H27 C28 1_555 1_555
C29 C1 1_555 1_555
H28 C29 1_555 1_555
C30 C11 1_555 1_555
H29 C30 1_555 1_555
C31 C4 1_555 1_555
C32 C4 1_555 1_555
H30 C32 1_555 1_555
C33 C32 1_555 1_555
H31 C33 1_555 1_555
C34 C33 1_555 1_555
H32 C34 1_555 1_555
C35 C31 1_555 1_555
H33 C35 1_555 1_555
C36 H34 1_555 1_555
H35 C36 1_555 1_555
C37 C36 1_555 1_555
H36 C37 1_555 1_555
H37 C37 1_555 1_555
H38 C37 1_555 1_555
O5 C36 1_555 1_555
H39 O5 1_555 1_555
C2 C29 1_555 1_555
C12 C13 1_555 1_555
C12 C31 1_555 1_555
C16 C17 1_555 1_555
C18 C19 1_555 1_555
C24 C25 1_555 1_555
C27 C28 1_555 1_555
C27 C30 1_555 1_555
C28 C29 1_555 1_555
C34 C35 1_555 1_555

#END
