
#######################################################################
#
#                 Cambridge Crystallographic Data Centre
#                                CCDC 
#
#######################################################################
#
# If this CIF has been generated from an entry in the Cambridge 
# Structural Database, then it will include bibliographic, chemical, 
# crystal, experimental, refinement or atomic coordinate data resulting 
# from the CCDC's data processing and validation procedures.
#
#######################################################################

data_TATVER
_chemical_formula_moiety         'C134 H92 N12 O6,18.5(C4 H8 O1)'
_chemical_name_systematic        
"2,2':7',2'':7'',2''':7,7''':12,12'':12',12'''-hexakis((5-methyl-2-hydroxy-1,3-phenylene)bis(methylylidenenitrilo))-tetrakis(triptycene) tetrahydrofuran solvate"
_symmetry_cell_setting           triclinic
_symmetry_space_group_name_H-M   'P -1'
_symmetry_Int_Tables_number      2
_space_group_name_Hall           '-P 1'
loop_
_symmetry_equiv_pos_site_id
_symmetry_equiv_pos_as_xyz
1 x,y,z
2 -x,-y,-z
_cell_length_a                   19.6680(10)
_cell_length_b                   21.6239(11)
_cell_length_c                   22.8285(13)
_cell_angle_alpha                89.766(3)
_cell_angle_beta                 71.390(2)
_cell_angle_gamma                84.828(2)
_cell_volume                     9160.68
_exptl_crystal_colour            orange
_exptl_crystal_description       prism
_cell_formula_units_Z            2
loop_
_atom_site_label
_atom_site_type_symbol
_atom_site_fract_x
_atom_site_fract_y
_atom_site_fract_z
O1 O 0.56959(12) 0.46918(10) 0.38639(10)
H1 H 0.5737 0.4370 0.4062
C1 C 0.50230(18) 0.49720(14) 0.40988(14)
C2 C 0.45019(17) 0.47221(14) 0.45955(15)
C3 C 0.38144(19) 0.50372(15) 0.48299(16)
H2 H 0.3468 0.4868 0.5168
C4 C 0.36196(19) 0.55914(15) 0.45847(17)
C5 C 0.41381(18) 0.58246(15) 0.40871(15)
H3 H 0.4016 0.6200 0.3911
C6 C 0.48316(17) 0.55263(14) 0.38372(14)
C7 C 0.2887(2) 0.59361(18) 0.4861(2)
H4 H 0.2558 0.5658 0.5125
H5 H 0.2701 0.6082 0.4529
H6 H 0.2923 0.6293 0.5109
C8 C 0.46656(18) 0.41355(14) 0.48595(15)
H7 H 0.4300 0.3971 0.5187
C9 C 0.53814(18) 0.57849(14) 0.33231(14)
H8 H 0.5858 0.5586 0.3192
N1 N 0.52915(15) 0.38355(11) 0.46597(12)
N2 N 0.52382(15) 0.62699(12) 0.30472(12)
O2 O 0.98565(11) 0.06273(9) 0.39219(9)
H9 H 0.9405 0.0679 0.4029
C10 C 1.00594(16) 0.00832(13) 0.41334(13)
C11 C 1.07946(16) -0.01045(14) 0.39937(12)
C12 C 1.10091(17) -0.06733(13) 0.42073(13)
H10 H 1.1509 -0.0800 0.4107
C13 C 1.05147(17) -0.10566(13) 0.45608(13)
C14 C 0.97871(17) -0.08588(13) 0.47065(13)
H11 H 0.9442 -0.1111 0.4957
C15 C 0.95469(16) -0.03002(13) 0.44958(12)
C16 C 1.07571(19) -0.16653(15) 0.47967(17)
H12 H 1.0395 -0.1761 0.5186
H13 H 1.1218 -0.1630 0.4867
H14 H 1.0815 -0.1998 0.4490
C17 C 1.13107(16) 0.03263(14) 0.36642(13)
H15 H 1.1133 0.0712 0.3543
C18 C 0.87880(16) -0.00993(13) 0.46802(13)
H16 H 0.8452 -0.0364 0.4923
N3 N 1.19964(14) 0.02027(12) 0.35323(11)
N4 N 0.85538(13) 0.04323(11) 0.45229(10)
O3 O 1.06222(14) 0.48957(11) 0.19801(11)
H17 H 1.0322 0.5088 0.1838
C19 C 1.07215(18) 0.52446(14) 0.24261(14)
C20 C 1.03471(18) 0.58386(14) 0.26000(15)
C21 C 1.04664(18) 0.61823(15) 0.30693(15)
H18 H 1.0210 0.6580 0.3186
C22 C 1.09442(19) 0.59634(15) 0.33681(15)
C23 C 1.13142(18) 0.53783(14) 0.31861(14)
H19 H 1.1650 0.5222 0.3384
C24 C 1.12105(18) 0.50159(14) 0.27263(14)
C25 C 1.1090(2) 0.63496(16) 0.38580(18)
H20 H 1.0808 0.6754 0.3907
H21 H 1.1604 0.6410 0.3733
H22 H 1.0953 0.6135 0.4252
C26 C 0.98494(18) 0.61133(15) 0.22997(15)
H23 H 0.9608 0.6511 0.2441
C27 C 1.16414(17) 0.44153(14) 0.25402(14)
H24 H 1.1633 0.4197 0.2182
N5 N 0.97191(15) 0.58437(13) 0.18502(12)
N6 N 1.20228(15) 0.41880(12) 0.28565(12)
O4 O 0.80132(13) 0.40705(11) -0.13519(10)
H25 H 0.8191 0.3711 -0.1489
C28 C 0.75167(18) 0.42720(15) -0.16178(14)
C29 C 0.73582(19) 0.39015(15) -0.20597(15)
C30 C 0.68399(19) 0.41300(16) -0.23194(16)
H26 H 0.6737 0.3880 -0.2616
C31 C 0.64652(19) 0.47181(16) -0.21569(17)
C32 C 0.66304(19) 0.50732(16) -0.17270(15)
H27 H 0.6384 0.5475 -0.1615
C33 C 0.71450(18) 0.48628(15) -0.14527(14)
C34 C 0.5902(2) 0.49472(18) -0.2454(2)
H28 H 0.6120 0.4930 -0.2905
H29 H 0.5720 0.5376 -0.2315
H30 H 0.5503 0.4683 -0.2334
C35 C 0.77298(18) 0.32908(15) -0.22423(15)
H31 H 0.7598 0.3045 -0.2525
C36 C 0.73276(19) 0.52484(15) -0.10062(14)
H32 H 0.7681 0.5084 -0.0830
N7 N 0.82360(15) 0.30694(12) -0.20321(12)
N8 N 0.70294(16) 0.57936(13) -0.08480(12)
O5 O 1.27155(11) 0.11351(9) -0.07473(9)
H33 H 1.2864 0.1227 -0.0455
C37 C 1.32658(16) 0.11137(13) -0.12843(13)
C38 C 1.31345(16) 0.09724(13) -0.18370(13)
C39 C 1.37090(16) 0.09380(13) -0.23915(13)
H34 H 1.3622 0.0837 -0.2764
C40 C 1.44042(16) 0.10465(13) -0.24151(13)
C41 C 1.45237(16) 0.11995(13) -0.18674(13)
H35 H 1.4994 0.1281 -0.1877
C42 C 1.39622(16) 0.12361(13) -0.13007(13)
C43 C 1.50208(17) 0.09823(15) -0.30148(13)
H36 H 1.5314 0.1332 -0.3050
H37 H 1.4830 0.0980 -0.3362
H38 H 1.5319 0.0592 -0.3022
C44 C 1.24044(16) 0.08638(13) -0.18195(13)
H39 H 1.2029 0.0878 -0.1434
C45 C 1.41154(17) 0.13925(13) -0.07375(13)
H40 H 1.4581 0.1501 -0.0764
N9 N 1.22642(13) 0.07502(12) -0.23150(11)
N10 N 1.36293(13) 0.13851(11) -0.02079(10)
O6 O 0.70114(11) 0.04503(10) 0.12364(9)
H41 H 0.7315 0.0412 0.0881
C46 C 0.63546(16) 0.03553(13) 0.12061(13)
C47 C 0.57637(16) 0.03970(13) 0.17512(13)
C48 C 0.50886(16) 0.02862(13) 0.17208(13)
H42 H 0.4691 0.0311 0.2092
C49 C 0.49717(16) 0.01412(13) 0.11713(13)
C50 C 0.55612(16) 0.01133(14) 0.06336(13)
H43 H 0.5494 0.0021 0.0250
C51 C 0.62491(16) 0.02167(13) 0.06412(13)
C52 C 0.42321(17) 0.00151(17) 0.11705(14)
H44 H 0.3974 0.0401 0.1096
H45 H 0.3965 -0.0146 0.1572
H46 H 0.4275 -0.0292 0.0843
C53 C 0.58544(16) 0.05380(13) 0.23489(13)
H47 H 0.6319 0.0596 0.2370
C54 C 0.68431(16) 0.01746(13) 0.00646(13)
H48 H 0.6746 0.0085 -0.0307
N11 N 0.53119(13) 0.05825(11) 0.28389(11)
N12 N 0.74955(14) 0.02536(12) 0.00325(11)
C55 C 0.68369(16) 0.12667(13) 0.45408(12)
C56 C 0.75656(16) 0.10669(13) 0.43678(12)
H49 H 0.7892 0.1211 0.4001
C57 C 0.78123(16) 0.06512(14) 0.47411(13)
C58 C 0.73426(16) 0.04729(14) 0.53035(13)
H50 H 0.7521 0.0215 0.5570
C59 C 0.66161(16) 0.06746(13) 0.54704(12)
H51 H 0.6295 0.0550 0.5850
C60 C 0.63562(16) 0.10564(13) 0.50859(12)
C61 C 0.55737(16) 0.12735(13) 0.51674(12)
H52 H 0.5229 0.1116 0.5550
C62 C 0.54538(16) 0.10555(13) 0.45741(12)
C63 C 0.49322(15) 0.06914(12) 0.45268(13)
H53 H 0.4598 0.0544 0.4888
C64 C 0.49016(16) 0.05418(13) 0.39445(13)
H54 H 0.4537 0.0297 0.3911
C65 C 0.53968(16) 0.07448(13) 0.34077(13)
C66 C 0.59178(15) 0.11238(12) 0.34587(12)
H55 H 0.6251 0.1274 0.3099
C67 C 0.59392(15) 0.12751(12) 0.40372(12)
C68 C 0.64641(16) 0.16841(13) 0.41703(12)
H56 H 0.6808 0.1843 0.3788
C69 C 0.59878(16) 0.21997(13) 0.46013(13)
C70 C 0.59376(16) 0.28233(13) 0.44664(13)
H57 H 0.6263 0.2975 0.4102
C71 C 0.54012(17) 0.32275(13) 0.48738(14)
C72 C 0.49763(17) 0.30154(14) 0.54394(14)
H58 H 0.4649 0.3300 0.5734
C73 C 0.50315(16) 0.23890(13) 0.55722(13)
H59 H 0.4738 0.2243 0.5954
C74 C 0.55180(16) 0.19782(13) 0.51427(13)
C75 C 1.32225(16) 0.18002(13) 0.14263(13)
C76 C 1.31484(16) 0.16583(12) 0.08668(13)
H60 H 1.2682 0.1652 0.0830
C77 C 1.37605(16) 0.15230(13) 0.03499(13)
C78 C 1.44430(17) 0.15182(14) 0.04120(13)
H61 H 1.4860 0.1420 0.0064
C79 C 1.45145(17) 0.16572(14) 0.09854(13)
H62 H 1.4980 0.1657 0.1026
C80 C 1.39091(16) 0.17955(13) 0.14927(13)
C81 C 1.38821(16) 0.19391(13) 0.21510(13)
H63 H 1.4371 0.1933 0.2199
C82 C 1.34211(16) 0.14691(13) 0.25520(13)
C83 C 1.36118(16) 0.10553(14) 0.29475(13)
H64 H 1.4071 0.1053 0.3002
C84 C 1.31298(16) 0.06421(14) 0.32655(13)
H65 H 1.3266 0.0354 0.3533
C85 C 1.24475(16) 0.06435(14) 0.31976(13)
C86 C 1.22572(16) 0.10641(13) 0.27923(13)
H66 H 1.1801 0.1065 0.2732
C87 C 1.27364(16) 0.14748(13) 0.24833(12)
C88 C 1.26083(16) 0.19581(13) 0.20293(13)
H67 H 1.2120 0.1964 0.1982
C89 C 1.27515(17) 0.25773(14) 0.22667(13)
C90 C 1.22745(17) 0.31057(14) 0.24221(13)
H68 H 1.1815 0.3114 0.2367
C91 C 1.24761(18) 0.36287(14) 0.26624(14)
C92 C 1.31527(18) 0.36062(14) 0.27446(14)
H69 H 1.3282 0.3956 0.2922
C93 C 1.36372(18) 0.30811(14) 0.25703(14)
H70 H 1.4103 0.3075 0.2613
C94 C 1.34350(17) 0.25656(14) 0.23338(13)
C95 C 0.68792(18) 0.63327(14) 0.16785(14)
C96 C 0.63391(18) 0.60863(14) 0.21416(14)
H71 H 0.6329 0.5649 0.2175
C97 C 0.58064(17) 0.64845(14) 0.25614(14)
C98 C 0.58225(19) 0.71266(14) 0.24992(14)
H72 H 0.5452 0.7398 0.2774
C99 C 0.63745(18) 0.73725(14) 0.20393(14)
H73 H 0.6393 0.7810 0.2012
C100 C 0.68956(18) 0.69792(14) 0.16231(14)
C101 C 0.75248(18) 0.71646(14) 0.10818(14)
H74 H 0.7531 0.7625 0.1040
C102 C 0.74614(18) 0.68404(14) 0.05165(14)
C103 C 0.73588(18) 0.71244(15) 0.00008(14)
H75 H 0.7380 0.7560 -0.0045
C104 C 0.7225(2) 0.67660(15) -0.04487(15)
H76 H 0.7142 0.6960 -0.0797
C105 C 0.72109(19) 0.61251(15) -0.03924(15)
C106 C 0.73228(18) 0.58353(15) 0.01274(14)
H77 H 0.7314 0.5399 0.0169
C107 C 0.74455(18) 0.61971(14) 0.05761(14)
C108 C 0.75073(18) 0.59688(14) 0.11942(14)
H78 H 0.7501 0.5509 0.1235
C109 C 0.81830(18) 0.62117(14) 0.12741(13)
C110 C 0.87061(18) 0.58741(15) 0.14599(14)
H79 H 0.8706 0.5436 0.1496
C111 C 0.92315(19) 0.61815(15) 0.15931(14)
C112 C 0.92667(19) 0.68216(16) 0.14859(15)
H80 H 0.9649 0.7025 0.1546
C113 C 0.87443(19) 0.71556(15) 0.12930(15)
H81 H 0.8766 0.7588 0.1221
C114 C 0.81924(18) 0.68557(14) 0.12063(14)
C115 C 0.92076(16) 0.15828(14) -0.18951(13)
C116 C 0.89224(17) 0.21908(15) -0.17972(14)
H82 H 0.8956 0.2425 -0.1458
C117 C 0.85822(17) 0.24643(14) -0.21987(14)
C118 C 0.85831(17) 0.21277(15) -0.27248(14)
H83 H 0.8388 0.2323 -0.3017
C119 C 0.88687(17) 0.15098(15) -0.28175(13)
H84 H 0.8864 0.1282 -0.3171
C120 C 0.91578(16) 0.12295(15) -0.23957(13)
C121 C 0.94206(16) 0.05428(14) -0.23793(13)
H85 H 0.9375 0.0290 -0.2728
C122 C 1.01896(16) 0.05312(14) -0.23763(13)
C123 C 1.07935(17) 0.02427(14) -0.28140(13)
H86 H 1.0747 -0.0007 -0.3138
C124 C 1.14712(17) 0.03239(15) -0.27710(13)
H87 H 1.1889 0.0135 -0.3076
C125 C 1.15484(16) 0.06739(14) -0.22936(13)
C126 C 1.09329(16) 0.09622(14) -0.18475(13)
H88 H 1.0978 0.1205 -0.1519
C127 C 1.02579(17) 0.08878(14) -0.18929(13)
C128 C 0.95350(16) 0.12021(14) -0.14705(13)
H89 H 0.9584 0.1453 -0.1122
C129 C 0.90155(16) 0.07033(14) -0.12575(13)
C130 C 0.85521(16) 0.06496(14) -0.06674(13)
H90 H 0.8587 0.0896 -0.0337
C131 C 0.80287(17) 0.02282(14) -0.05591(13)
C132 C 0.80215(17) -0.01755(14) -0.10318(14)
H91 H 0.7695 -0.0487 -0.0948
C133 C 0.84967(17) -0.01193(15) -0.16279(14)
H92 H 0.8496 -0.0395 -0.1951
C134 C 0.89666(16) 0.03356(14) -0.17478(14)
O7 O -0.03215(19) 0.43112(18) 0.12443(16)
C135 C 0.0109(4) 0.3747(3) 0.1269(3)
H93 H -0.0170 0.3385 0.1284
H94 H 0.0263 0.3750 0.1641
C136 C 0.0745(5) 0.3710(4) 0.0702(5)
H95 H 0.1194 0.3652 0.0812
H96 H 0.0734 0.3354 0.0435
C137 C 0.0724(4) 0.4247(5) 0.0400(4)
H97 H 0.0790 0.4157 -0.0041
H98 H 0.1117 0.4492 0.0421
C138 C 0.0029(3) 0.4600(3) 0.0687(2)
H99 H 0.0099 0.5034 0.0773
H100 H -0.0266 0.4606 0.0408
O8 O 0.47895(17) 0.74599(14) 0.08151(15)
C139 C 0.4713(6) 0.7154(3) 0.1372(3)
H101 H 0.4203 0.7213 0.1640
H102 H 0.5011 0.7335 0.1592
C140 C 0.4937(5) 0.6482(3) 0.1253(3)
H103 H 0.5222 0.6323 0.1518
H104 H 0.4515 0.6241 0.1324
C141 C 0.5343(6) 0.6458(3) 0.0650(5)
H105 H 0.5241 0.6092 0.0444
H106 H 0.5860 0.6410 0.0617
C142 C 0.5186(4) 0.7039(3) 0.0332(3)
H107 H 0.5638 0.7205 0.0082
H108 H 0.4900 0.6955 0.0059
O9 O 0.0854(3) 0.4254(2) 0.5160(2)
C143 C 0.1518(4) 0.4224(3) 0.5379(4)
H109 H 0.1365 0.4317 0.5829
H110 H 0.1770 0.3800 0.5302
C144 C 0.1956(3) 0.4626(2) 0.5083(2)
H111 H 0.2451 0.4510 0.5093
H112 H 0.1792 0.5048 0.5271
C145 C 0.1938(4) 0.4608(4) 0.4482(2)
H113 H 0.2240 0.4240 0.4252
H114 H 0.2117 0.4986 0.4263
C146 C 0.1129(3) 0.4569(3) 0.4539(3)
H115 H 0.0874 0.4986 0.4546
H116 H 0.1080 0.4314 0.4198
O10 O 0.7457(2) 0.16048(17) 0.23176(19)
C147 C 0.7866(2) 0.1027(2) 0.2329(2)
H117 H 0.7548 0.0685 0.2411
H118 H 0.8089 0.1040 0.2660
C148 C 0.8443(3) 0.0918(3) 0.1711(2)
H119 H 0.8371 0.0546 0.1494
H120 H 0.8928 0.0867 0.1756
C149 C 0.8342(3) 0.1500(3) 0.1372(3)
H121 H 0.8754 0.1752 0.1315
H122 H 0.8311 0.1395 0.0961
C150 C 0.7704(4) 0.1829(3) 0.1733(3)
H123 H 0.7786 0.2271 0.1760
H124 H 0.7332 0.1804 0.1529
O11 O 0.5742(4) 0.2370(3) 0.2343(3)
C151 C 0.5945(4) 0.2753(3) 0.2782(3)
H125 H 0.5708 0.2618 0.3208
H126 H 0.6473 0.2687 0.2697
C152 C 0.5738(4) 0.3408(4) 0.2740(5)
H127 H 0.5415 0.3580 0.3144
H128 H 0.6169 0.3643 0.2609
C153 C 0.5381(4) 0.3442(3) 0.2297(3)
H129 H 0.5525 0.3800 0.2028
H130 H 0.4853 0.3499 0.2503
C154 C 0.5583(4) 0.2846(6) 0.1915(3)
H131 H 0.5180 0.2737 0.1776
H132 H 0.6012 0.2882 0.1548
O12 O 0.7104(2) 0.2457(2) 0.0444(2)
C155 C 0.7415(7) 0.2586(7) -0.0200(4)
H133 H 0.7473 0.3036 -0.0246
H134 H 0.7899 0.2357 -0.0364
C156 C 0.6988(3) 0.2416(3) -0.0541(2)
H135 H 0.7286 0.2251 -0.0956
H136 H 0.6657 0.2772 -0.0587
C157 C 0.6571(3) 0.1910(3) -0.0152(3)
H137 H 0.6056 0.1963 -0.0126
H138 H 0.6779 0.1491 -0.0327
C158 C 0.6655(4) 0.2004(3) 0.0462(3)
H139 H 0.6177 0.2125 0.0770
H140 H 0.6854 0.1610 0.0592
O13 O 0.4059(3) 0.2250(2) 0.3894(2)
C159 C 0.3584(2) 0.1960(2) 0.44660(19)
H141 H 0.3326 0.1634 0.4348
H142 H 0.3880 0.1768 0.4709
C160 C 0.30854(16) 0.24383(14) 0.48200(13)
H143 H 0.2622 0.2440 0.4735
H144 H 0.2995 0.2369 0.5266
C161 C 0.3375(3) 0.3009(2) 0.4659(3)
H145 H 0.3501 0.3179 0.5009
H146 H 0.3013 0.3309 0.4569
C162 C 0.4016(3) 0.2922(2) 0.4118(2)
H147 H 0.4450 0.2996 0.4227
H148 H 0.3976 0.3213 0.3792
O14 O 0.61414(12) 0.91246(11) 0.39317(10)
C163 C 0.66100(18) 0.95754(15) 0.39815(15)
H149 H 0.6338 0.9920 0.4268
H150 H 0.6848 0.9748 0.3572
C164 C 0.71588(19) 0.92319(16) 0.42280(16)
H151 H 0.6970 0.9196 0.4683
H152 H 0.7612 0.9437 0.4116
C165 C 0.7269(2) 0.86034(16) 0.39010(17)
H153 H 0.7623 0.8606 0.3481
H154 H 0.7431 0.8271 0.4139
C166 C 0.6521(2) 0.85223(16) 0.38759(16)
H155 H 0.6553 0.8318 0.3479
H156 H 0.6266 0.8260 0.4218
O15 O 0.89667(15) 0.73300(11) 0.33410(11)
C167 C 0.8919(2) 0.72919(17) 0.39768(17)
H157 H 0.9103 0.6872 0.4065
H158 H 0.8413 0.7379 0.4245
C168 C 0.9377(2) 0.77746(18) 0.40883(17)
H159 H 0.9892 0.7617 0.3963
H160 H 0.9215 0.7916 0.4527
C169 C 0.9238(2) 0.82890(16) 0.36694(16)
H161 H 0.8780 0.8546 0.3873
H162 H 0.9637 0.8560 0.3547
C170 C 0.9198(2) 0.79262(17) 0.31226(16)
H163 H 0.8850 0.8147 0.2944
H164 H 0.9676 0.7874 0.2800
O16 O 0.36640(14) 0.86524(13) 0.21917(13)
C171 C 0.3100(2) 0.9032(2) 0.2627(2)
H165 H 0.3300 0.9348 0.2820
H166 H 0.2808 0.8775 0.2957
C172 C 0.2643(2) 0.93389(17) 0.22639(16)
H167 H 0.2780 0.9762 0.2144
H168 H 0.2125 0.9366 0.2509
C173 C 0.28045(19) 0.89111(17) 0.16894(16)
H169 H 0.2361 0.8743 0.1668
H170 H 0.3021 0.9136 0.1306
C174 C 0.3335(2) 0.83960(18) 0.17841(18)
H171 H 0.3081 0.8032 0.1970
H172 H 0.3702 0.8263 0.1385
O17 O 0.12057(15) 0.17764(13) 0.41706(13)
C175 C 0.0932(2) 0.2203(2) 0.3805(2)
H173 H 0.0414 0.2164 0.3874
H174 H 0.1201 0.2133 0.3360
C176 C 0.1041(3) 0.2832(2) 0.4027(2)
H175 H 0.1072 0.3146 0.3705
H176 H 0.0646 0.2974 0.4407
C177 C 0.1749(3) 0.2713(2) 0.4155(2)
H177 H 0.1729 0.2924 0.4544
H178 H 0.2149 0.2859 0.3812
C178 C 0.1845(2) 0.20097(18) 0.42062(18)
H179 H 0.2268 0.1830 0.3865
H180 H 0.1920 0.1900 0.4604
O18 O 0.67488(16) 0.62497(14) 0.38705(14)
C179 C 0.7270(2) 0.5756(2) 0.3602(2)
H181 H 0.7078 0.5464 0.3376
H182 H 0.7420 0.5526 0.3923
C180 C 0.7913(3) 0.6058(3) 0.3153(2)
H183 H 0.8286 0.6113 0.3349
H184 H 0.8132 0.5801 0.2770
C181 C 0.7604(3) 0.6645(2) 0.3024(2)
H185 H 0.7420 0.6609 0.2671
H186 H 0.7961 0.6956 0.2930
C182 C 0.7008(3) 0.6816(2) 0.3602(2)
H187 H 0.7184 0.7048 0.3890
H188 H 0.6618 0.7081 0.3512
O19 O 0.08152(15) 0.16613(14) 0.22215(15)
C183 C 0.0560(3) 0.2282(2) 0.2145(3)
H189 H 0.0811 0.2419 0.1723
H190 H 0.0650 0.2564 0.2447
C184 C -0.0238(3) 0.2292(2) 0.2249(3)
H191 H -0.0338 0.2197 0.1863
H192 H -0.0496 0.2698 0.2424
C185 C -0.0434(3) 0.1780(3) 0.2711(3)
H193 H -0.0499 0.1931 0.3136
H194 H -0.0879 0.1604 0.2704
C186 C 0.0204(2) 0.1318(2) 0.2484(2)
H195 H 0.0268 0.1067 0.2829
H196 H 0.0143 0.1036 0.2168
O20 O 0.28564(17) 0.70889(19) 0.34312(16)
C187 C 0.3545(2) 0.7316(2) 0.31577(18)
H197 H 0.3552 0.7554 0.2785
H198 H 0.3927 0.6966 0.3037
C188 C 0.3663(2) 0.7726(2) 0.3635(2)
H199 H 0.3660 0.8164 0.3509
H200 H 0.4129 0.7597 0.3700
C189 C 0.3045(2) 0.76458(19) 0.42137(18)
H201 H 0.3182 0.7329 0.4481
H202 H 0.2875 0.8043 0.4452
C190 C 0.2490(2) 0.7437(2) 0.3965(2)
H203 H 0.2163 0.7181 0.4270
H204 H 0.2201 0.7799 0.3871
O21 O 0.9280(2) 0.85252(17) 0.03710(15)
C191 C 0.9062(3) 0.8205(3) -0.0069(2)
H205 H 0.9344 0.7796 -0.0182
H206 H 0.8544 0.8139 0.0099
C192 C 0.9186(9) 0.8573(4) -0.0566(5)
H207 H 0.8719 0.8730 -0.0614
H208 H 0.9463 0.8321 -0.0941
C193 C 0.9575(3) 0.9091(3) -0.0518(3)
H209 H 0.9393 0.9472 -0.0684
H210 H 1.0098 0.9003 -0.0733
C194 C 0.9413(5) 0.9141(3) 0.0151(3)
H211 H 0.9825 0.9285 0.0255
H212 H 0.8982 0.9437 0.0337
O22 O 0.9533(2) 0.3272(2) 0.3475(2)
C195 C 0.9432(4) 0.4355(3) 0.3650(3)
H213 H 0.8986 0.4543 0.3584
H214 H 0.9762 0.4682 0.3626
C196 C 0.9785(4) 0.3835(3) 0.3195(3)
H215 H 0.9660 0.3898 0.2811
H216 H 1.0316 0.3818 0.3090
C197 C 0.9268(3) 0.4029(3) 0.4265(3)
H217 H 0.9689 0.3999 0.4416
H218 H 0.8849 0.4248 0.4583
C198 C 0.9102(3) 0.3400(3) 0.4108(3)
H219 H 0.9229 0.3083 0.4380
H220 H 0.8583 0.3400 0.4157
O23 O 0.7342(4) 0.3436(4) 0.3387(5)
C199 C 0.7432(5) 0.4049(4) 0.3210(7)
H221 H 0.7755 0.4208 0.3418
H222 H 0.6957 0.4290 0.3386
C200 C 0.7702(10) 0.4201(7) 0.2582(7)
H223 H 0.8082 0.4490 0.2507
H224 H 0.7315 0.4378 0.2423
C201 C 0.8022(6) 0.3512(6) 0.2297(6)
H225 H 0.7763 0.3360 0.2027
H226 H 0.8545 0.3488 0.2069
C202 C 0.7866(5) 0.3191(8) 0.2876(7)
H227 H 0.7743 0.2771 0.2800
H228 H 0.8319 0.3134 0.2980
O26 O 0.6608(2) 0.44529(17) 0.0706(2)
C211 C 0.5420(2) 0.46169(17) 0.0828(2)
H245 H 0.5200 0.4228 0.0978
H246 H 0.5042 0.4963 0.0865
C212 C 0.5969(2) 0.47649(17) 0.1113(2)
H247 H 0.6004 0.5218 0.1127
H248 H 0.5860 0.4604 0.1536
C213 C 0.5959(2) 0.45469(17) 0.0204(2)
H249 H 0.5734 0.4404 -0.0096
H250 H 0.6148 0.4951 0.0069
C214 C 0.6465(2) 0.41549(17) 0.0225(2)
H251 H 0.6878 0.4130 -0.0163
H252 H 0.6304 0.3737 0.0335
O24? O 0.0982(3) 0.6901(3) 0.0598(3)
C203? C 0.0996(16) 0.6297(12) 0.0331(13)
H229? H 0.0501 0.6203 0.0368
H230? H 0.1207 0.5975 0.0548
C204? C 0.1429(7) 0.6305(10) -0.0311(8)
H231? H 0.1951 0.6244 -0.0368
H232? H 0.1301 0.5994 -0.0566
C205? C 0.1209(9) 0.6924(7) -0.0434(6)
H233? H 0.0875 0.6886 -0.0675
H234? H 0.1644 0.7087 -0.0721
C206? C 0.0751(7) 0.7595(14) 0.0188(5)
H235? H 0.1032 0.7955 0.0178
H236? H 0.0232 0.7713 0.0263
O25? O 0.1026(5) 0.6277(5) 0.0347(6)
C207? C 0.1635(11) 0.5766(11) -0.0122(10)
H237? H 0.2087 0.5746 -0.0017
H238? H 0.1457 0.5349 -0.0068
C208? C 0.1778(10) 0.5955(9) -0.0782(8)
H239? H 0.2289 0.5845 -0.1027
H240? H 0.1470 0.5747 -0.0974
C209? C 0.1613(11) 0.6592(10) -0.0756(9)
H241? H 0.1462 0.6731 -0.1113
H242? H 0.2034 0.6810 -0.0753
C210? C 0.0994(2) 0.67163(17) -0.0149(2)
H243? H 0.0999 0.7144 0.0001
H244? H 0.0532 0.6692 -0.0231
loop_
_geom_bond_atom_site_label_1
_geom_bond_atom_site_label_2
_geom_bond_site_symmetry_1
_geom_bond_site_symmetry_2
O1 H1 1_555 1_555
C1 O1 1_555 1_555
C2 C1 1_555 1_555
C3 C2 1_555 1_555
H2 C3 1_555 1_555
C4 C3 1_555 1_555
C5 C4 1_555 1_555
H3 C5 1_555 1_555
C6 C1 1_555 1_555
C7 C4 1_555 1_555
H4 C7 1_555 1_555
H5 C7 1_555 1_555
H6 C7 1_555 1_555
C8 C2 1_555 1_555
H7 C8 1_555 1_555
C9 C6 1_555 1_555
H8 C9 1_555 1_555
N1 C8 1_555 1_555
N2 C9 1_555 1_555
O2 H9 1_555 1_555
C10 O2 1_555 1_555
C11 C10 1_555 1_555
C12 C11 1_555 1_555
H10 C12 1_555 1_555
C13 C12 1_555 1_555
C14 C13 1_555 1_555
H11 C14 1_555 1_555
C15 C10 1_555 1_555
C16 C13 1_555 1_555
H12 C16 1_555 1_555
H13 C16 1_555 1_555
H14 C16 1_555 1_555
C17 C11 1_555 1_555
H15 C17 1_555 1_555
C18 C15 1_555 1_555
H16 C18 1_555 1_555
N3 C17 1_555 1_555
N4 C18 1_555 1_555
O3 H17 1_555 1_555
C19 O3 1_555 1_555
C20 C19 1_555 1_555
C21 C20 1_555 1_555
H18 C21 1_555 1_555
C22 C21 1_555 1_555
C23 C22 1_555 1_555
H19 C23 1_555 1_555
C24 C19 1_555 1_555
C25 C22 1_555 1_555
H20 C25 1_555 1_555
H21 C25 1_555 1_555
H22 C25 1_555 1_555
C26 C20 1_555 1_555
H23 C26 1_555 1_555
C27 C24 1_555 1_555
H24 C27 1_555 1_555
N5 C26 1_555 1_555
N6 C27 1_555 1_555
O4 H25 1_555 1_555
C28 O4 1_555 1_555
C29 C28 1_555 1_555
C30 C29 1_555 1_555
H26 C30 1_555 1_555
C31 C30 1_555 1_555
C32 C31 1_555 1_555
H27 C32 1_555 1_555
C33 C28 1_555 1_555
C34 C31 1_555 1_555
H28 C34 1_555 1_555
H29 C34 1_555 1_555
H30 C34 1_555 1_555
C35 C29 1_555 1_555
H31 C35 1_555 1_555
C36 C33 1_555 1_555
H32 C36 1_555 1_555
N7 C35 1_555 1_555
N8 C36 1_555 1_555
O5 H33 1_555 1_555
C37 O5 1_555 1_555
C38 C37 1_555 1_555
C39 C38 1_555 1_555
H34 C39 1_555 1_555
C40 C39 1_555 1_555
C41 C40 1_555 1_555
H35 C41 1_555 1_555
C42 C37 1_555 1_555
C43 C40 1_555 1_555
H36 C43 1_555 1_555
H37 C43 1_555 1_555
H38 C43 1_555 1_555
C44 C38 1_555 1_555
H39 C44 1_555 1_555
C45 C42 1_555 1_555
H40 C45 1_555 1_555
N9 C44 1_555 1_555
N10 C45 1_555 1_555
O6 H41 1_555 1_555
C46 O6 1_555 1_555
C47 C46 1_555 1_555
C48 C47 1_555 1_555
H42 C48 1_555 1_555
C49 C48 1_555 1_555
C50 C49 1_555 1_555
H43 C50 1_555 1_555
C51 C46 1_555 1_555
C52 C49 1_555 1_555
H44 C52 1_555 1_555
H45 C52 1_555 1_555
H46 C52 1_555 1_555
C53 C47 1_555 1_555
H47 C53 1_555 1_555
C54 C51 1_555 1_555
H48 C54 1_555 1_555
N11 C53 1_555 1_555
N12 C54 1_555 1_555
C55 C56 1_555 1_555
C56 H49 1_555 1_555
C57 N4 1_555 1_555
C58 C57 1_555 1_555
H50 C58 1_555 1_555
C59 C58 1_555 1_555
H51 C59 1_555 1_555
C60 C55 1_555 1_555
C61 C60 1_555 1_555
H52 C61 1_555 1_555
C62 C61 1_555 1_555
C63 C62 1_555 1_555
H53 C63 1_555 1_555
C64 C63 1_555 1_555
H54 C64 1_555 1_555
C65 N11 1_555 1_555
C66 C65 1_555 1_555
H55 C66 1_555 1_555
C67 C62 1_555 1_555
C68 C55 1_555 1_555
H56 C68 1_555 1_555
C69 C68 1_555 1_555
C70 C69 1_555 1_555
H57 C70 1_555 1_555
C71 N1 1_555 1_555
C72 C71 1_555 1_555
H58 C72 1_555 1_555
C73 C72 1_555 1_555
H59 C73 1_555 1_555
C74 C61 1_555 1_555
C75 C76 1_555 1_555
C76 H60 1_555 1_555
C77 N10 1_555 1_555
C78 C77 1_555 1_555
H61 C78 1_555 1_555
C79 C78 1_555 1_555
H62 C79 1_555 1_555
C80 C75 1_555 1_555
C81 C80 1_555 1_555
H63 C81 1_555 1_555
C82 C81 1_555 1_555
C83 C82 1_555 1_555
H64 C83 1_555 1_555
C84 C83 1_555 1_555
H65 C84 1_555 1_555
C85 N3 1_555 1_555
C86 C85 1_555 1_555
H66 C86 1_555 1_555
C87 C82 1_555 1_555
C88 C75 1_555 1_555
H67 C88 1_555 1_555
C89 C88 1_555 1_555
C90 C89 1_555 1_555
H68 C90 1_555 1_555
C91 N6 1_555 1_555
C92 C91 1_555 1_555
H69 C92 1_555 1_555
C93 C92 1_555 1_555
H70 C93 1_555 1_555
C94 C81 1_555 1_555
C95 C96 1_555 1_555
C96 H71 1_555 1_555
C97 N2 1_555 1_555
C98 C97 1_555 1_555
H72 C98 1_555 1_555
C99 C98 1_555 1_555
H73 C99 1_555 1_555
C100 C95 1_555 1_555
C101 C100 1_555 1_555
H74 C101 1_555 1_555
C102 C101 1_555 1_555
C103 C102 1_555 1_555
H75 C103 1_555 1_555
C104 C103 1_555 1_555
H76 C104 1_555 1_555
C105 N8 1_555 1_555
C106 C105 1_555 1_555
H77 C106 1_555 1_555
C107 C102 1_555 1_555
C108 C95 1_555 1_555
H78 C108 1_555 1_555
C109 C108 1_555 1_555
C110 C109 1_555 1_555
H79 C110 1_555 1_555
C111 N5 1_555 1_555
C112 C111 1_555 1_555
H80 C112 1_555 1_555
C113 C112 1_555 1_555
H81 C113 1_555 1_555
C114 C101 1_555 1_555
C115 C116 1_555 1_555
C116 H82 1_555 1_555
C117 N7 1_555 1_555
C118 C117 1_555 1_555
H83 C118 1_555 1_555
C119 C118 1_555 1_555
H84 C119 1_555 1_555
C120 C115 1_555 1_555
C121 C120 1_555 1_555
H85 C121 1_555 1_555
C122 C121 1_555 1_555
C123 C122 1_555 1_555
H86 C123 1_555 1_555
C124 C123 1_555 1_555
H87 C124 1_555 1_555
C125 N9 1_555 1_555
C126 C125 1_555 1_555
H88 C126 1_555 1_555
C127 C122 1_555 1_555
C128 C115 1_555 1_555
H89 C128 1_555 1_555
C129 C128 1_555 1_555
C130 C129 1_555 1_555
H90 C130 1_555 1_555
C131 N12 1_555 1_555
C132 C131 1_555 1_555
H91 C132 1_555 1_555
C133 C132 1_555 1_555
H92 C133 1_555 1_555
C134 C121 1_555 1_555
O7 C135 1_555 1_555
C135 H93 1_555 1_555
H94 C135 1_555 1_555
C136 C135 1_555 1_555
H95 C136 1_555 1_555
H96 C136 1_555 1_555
C137 C136 1_555 1_555
H97 C137 1_555 1_555
H98 C137 1_555 1_555
C138 O7 1_555 1_555
H99 C138 1_555 1_555
H100 C138 1_555 1_555
O8 C139 1_555 1_555
C139 H101 1_555 1_555
H102 C139 1_555 1_555
C140 C139 1_555 1_555
H103 C140 1_555 1_555
H104 C140 1_555 1_555
C141 C140 1_555 1_555
H105 C141 1_555 1_555
H106 C141 1_555 1_555
C142 O8 1_555 1_555
H107 C142 1_555 1_555
H108 C142 1_555 1_555
O9 C143 1_555 1_555
C143 H109 1_555 1_555
H110 C143 1_555 1_555
C144 C143 1_555 1_555
H111 C144 1_555 1_555
H112 C144 1_555 1_555
C145 C144 1_555 1_555
H113 C145 1_555 1_555
H114 C145 1_555 1_555
C146 O9 1_555 1_555
H115 C146 1_555 1_555
H116 C146 1_555 1_555
O10 C147 1_555 1_555
C147 H117 1_555 1_555
H118 C147 1_555 1_555
C148 C147 1_555 1_555
H119 C148 1_555 1_555
H120 C148 1_555 1_555
C149 C148 1_555 1_555
H121 C149 1_555 1_555
H122 C149 1_555 1_555
C150 O10 1_555 1_555
H123 C150 1_555 1_555
H124 C150 1_555 1_555
O11 C151 1_555 1_555
C151 H125 1_555 1_555
H126 C151 1_555 1_555
C152 C151 1_555 1_555
H127 C152 1_555 1_555
H128 C152 1_555 1_555
C153 C152 1_555 1_555
H129 C153 1_555 1_555
H130 C153 1_555 1_555
C154 O11 1_555 1_555
H131 C154 1_555 1_555
H132 C154 1_555 1_555
O12 C155 1_555 1_555
C155 H133 1_555 1_555
H134 C155 1_555 1_555
C156 C155 1_555 1_555
H135 C156 1_555 1_555
H136 C156 1_555 1_555
C157 C156 1_555 1_555
H137 C157 1_555 1_555
H138 C157 1_555 1_555
C158 O12 1_555 1_555
H139 C158 1_555 1_555
H140 C158 1_555 1_555
O13 C159 1_555 1_555
C159 H141 1_555 1_555
H142 C159 1_555 1_555
C160 C159 1_555 1_555
H143 C160 1_555 1_555
H144 C160 1_555 1_555
C161 C160 1_555 1_555
H145 C161 1_555 1_555
H146 C161 1_555 1_555
C162 O13 1_555 1_555
H147 C162 1_555 1_555
H148 C162 1_555 1_555
O14 C163 1_555 1_555
C163 H149 1_555 1_555
H150 C163 1_555 1_555
C164 C163 1_555 1_555
H151 C164 1_555 1_555
H152 C164 1_555 1_555
C165 C164 1_555 1_555
H153 C165 1_555 1_555
H154 C165 1_555 1_555
C166 O14 1_555 1_555
H155 C166 1_555 1_555
H156 C166 1_555 1_555
O15 C167 1_555 1_555
C167 H157 1_555 1_555
H158 C167 1_555 1_555
C168 C167 1_555 1_555
H159 C168 1_555 1_555
H160 C168 1_555 1_555
C169 C168 1_555 1_555
H161 C169 1_555 1_555
H162 C169 1_555 1_555
C170 O15 1_555 1_555
H163 C170 1_555 1_555
H164 C170 1_555 1_555
O16 C171 1_555 1_555
C171 H165 1_555 1_555
H166 C171 1_555 1_555
C172 C171 1_555 1_555
H167 C172 1_555 1_555
H168 C172 1_555 1_555
C173 C172 1_555 1_555
H169 C173 1_555 1_555
H170 C173 1_555 1_555
C174 O16 1_555 1_555
H171 C174 1_555 1_555
H172 C174 1_555 1_555
O17 C175 1_555 1_555
C175 H173 1_555 1_555
H174 C175 1_555 1_555
C176 C175 1_555 1_555
H175 C176 1_555 1_555
H176 C176 1_555 1_555
C177 C176 1_555 1_555
H177 C177 1_555 1_555
H178 C177 1_555 1_555
C178 O17 1_555 1_555
H179 C178 1_555 1_555
H180 C178 1_555 1_555
O18 C179 1_555 1_555
C179 H181 1_555 1_555
H182 C179 1_555 1_555
C180 C179 1_555 1_555
H183 C180 1_555 1_555
H184 C180 1_555 1_555
C181 C180 1_555 1_555
H185 C181 1_555 1_555
H186 C181 1_555 1_555
C182 O18 1_555 1_555
H187 C182 1_555 1_555
H188 C182 1_555 1_555
O19 C183 1_555 1_555
C183 H189 1_555 1_555
H190 C183 1_555 1_555
C184 C183 1_555 1_555
H191 C184 1_555 1_555
H192 C184 1_555 1_555
C185 C184 1_555 1_555
H193 C185 1_555 1_555
H194 C185 1_555 1_555
C186 O19 1_555 1_555
H195 C186 1_555 1_555
H196 C186 1_555 1_555
O20 C187 1_555 1_555
C187 H197 1_555 1_555
H198 C187 1_555 1_555
C188 C187 1_555 1_555
H199 C188 1_555 1_555
H200 C188 1_555 1_555
C189 C188 1_555 1_555
H201 C189 1_555 1_555
H202 C189 1_555 1_555
C190 O20 1_555 1_555
H203 C190 1_555 1_555
H204 C190 1_555 1_555
O21 C191 1_555 1_555
C191 H205 1_555 1_555
H206 C191 1_555 1_555
C192 C191 1_555 1_555
H207 C192 1_555 1_555
H208 C192 1_555 1_555
C193 C192 1_555 1_555
H209 C193 1_555 1_555
H210 C193 1_555 1_555
C194 O21 1_555 1_555
H211 C194 1_555 1_555
H212 C194 1_555 1_555
O22 C196 1_555 1_555
C195 H213 1_555 1_555
H214 C195 1_555 1_555
C196 C195 1_555 1_555
H215 C196 1_555 1_555
H216 C196 1_555 1_555
C197 C195 1_555 1_555
H217 C197 1_555 1_555
H218 C197 1_555 1_555
C198 O22 1_555 1_555
H219 C198 1_555 1_555
H220 C198 1_555 1_555
O23 C199 1_555 1_555
C199 H221 1_555 1_555
H222 C199 1_555 1_555
C200 C199 1_555 1_555
H223 C200 1_555 1_555
H224 C200 1_555 1_555
C201 C200 1_555 1_555
H225 C201 1_555 1_555
H226 C201 1_555 1_555
C202 O23 1_555 1_555
H227 C202 1_555 1_555
H228 C202 1_555 1_555
O26 C212 1_555 1_555
C211 H245 1_555 1_555
H246 C211 1_555 1_555
C212 C211 1_555 1_555
H247 C212 1_555 1_555
H248 C212 1_555 1_555
C213 C211 1_555 1_555
H249 C213 1_555 1_555
H250 C213 1_555 1_555
C214 O26 1_555 1_555
H251 C214 1_555 1_555
H252 C214 1_555 1_555
C5 C6 1_555 1_555
C14 C15 1_555 1_555
C23 C24 1_555 1_555
C32 C33 1_555 1_555
C41 C42 1_555 1_555
C50 C51 1_555 1_555
C56 C57 1_555 1_555
C59 C60 1_555 1_555
C64 C65 1_555 1_555
C66 C67 1_555 1_555
C67 C68 1_555 1_555
C69 C74 1_555 1_555
C70 C71 1_555 1_555
C73 C74 1_555 1_555
C76 C77 1_555 1_555
C79 C80 1_555 1_555
C84 C85 1_555 1_555
C86 C87 1_555 1_555
C87 C88 1_555 1_555
C89 C94 1_555 1_555
C90 C91 1_555 1_555
C93 C94 1_555 1_555
C96 C97 1_555 1_555
C99 C100 1_555 1_555
C104 C105 1_555 1_555
C106 C107 1_555 1_555
C107 C108 1_555 1_555
C109 C114 1_555 1_555
C110 C111 1_555 1_555
C113 C114 1_555 1_555
C116 C117 1_555 1_555
C119 C120 1_555 1_555
C124 C125 1_555 1_555
C126 C127 1_555 1_555
C127 C128 1_555 1_555
C129 C134 1_555 1_555
C130 C131 1_555 1_555
C133 C134 1_555 1_555
C137 C138 1_555 1_555
C141 C142 1_555 1_555
C145 C146 1_555 1_555
C149 C150 1_555 1_555
C153 C154 1_555 1_555
C157 C158 1_555 1_555
C161 C162 1_555 1_555
C165 C166 1_555 1_555
C169 C170 1_555 1_555
C173 C174 1_555 1_555
C177 C178 1_555 1_555
C181 C182 1_555 1_555
C185 C186 1_555 1_555
C189 C190 1_555 1_555
C193 C194 1_555 1_555
C197 C198 1_555 1_555
C201 C202 1_555 1_555
C213 C214 1_555 1_555

#END
