
#######################################################################
#
#                 Cambridge Crystallographic Data Centre
#                                CCDC 
#
#######################################################################
#
# If this CIF has been generated from an entry in the Cambridge 
# Structural Database, then it will include bibliographic, chemical, 
# crystal, experimental, refinement or atomic coordinate data resulting 
# from the CCDC's data processing and validation procedures.
#
#######################################################################

data_TATXUJ
_chemical_formula_moiety         '2(C2 H7 N6 1+),C3 N6 O6 2-'
_chemical_name_systematic        
'bis(3,4,5-Triamino-4H-1,2,4-triazol-1-ium) 3,5-dinitro-4-(nitroazanidyl)pyrazol-1-ide'
_symmetry_cell_setting           monoclinic
_symmetry_space_group_name_H-M   'P c'
_symmetry_Int_Tables_number      7
_space_group_name_Hall           'P -2yc'
loop_
_symmetry_equiv_pos_site_id
_symmetry_equiv_pos_as_xyz
1 x,y,z
2 x,-y,1/2+z
_cell_length_a                   6.7584(3)
_cell_length_b                   11.2956(5)
_cell_length_c                   21.8772(9)
_cell_angle_alpha                90
_cell_angle_beta                 92.0120(10)
_cell_angle_gamma                90
_cell_volume                     1669.08
_exptl_crystal_colour            orange
_exptl_crystal_description       prism
_cell_formula_units_Z            4
loop_
_atom_site_label
_atom_site_type_symbol
_atom_site_fract_x
_atom_site_fract_y
_atom_site_fract_z
N1 N 1.0989(2) 0.50683(12) 0.23161(6)
N2 N 1.0803(2) 0.39822(12) 0.25542(6)
C1 C 1.0227(2) 0.41134(14) 0.31320(7)
C2 C 1.0006(3) 0.53003(13) 0.32999(7)
C3 C 1.0539(3) 0.58527(14) 0.27585(7)
N3 N 0.9921(2) 0.30745(11) 0.34970(6)
O1 O 1.0258(2) 0.21046(10) 0.32612(6)
O2 O 0.93644(18) 0.31933(10) 0.40220(5)
N4 N 0.9587(2) 0.58088(11) 0.38663(6)
N5 N 0.7845(2) 0.55041(11) 0.40492(6)
O3 O 0.74125(18) 0.58035(9) 0.45947(5)
O4 O 0.65867(18) 0.49605(9) 0.37212(5)
N6 N 1.0587(2) 0.70919(12) 0.26310(6)
O5 O 1.00524(19) 0.77810(10) 0.30295(5)
O6 O 1.1176(2) 0.74218(11) 0.21305(5)
N7 N 0.6257(2) -0.01442(12) 0.24110(6)
N8 N 0.5767(2) -0.12148(12) 0.26236(6)
C4 C 0.5068(2) -0.10687(14) 0.31877(7)
C5 C 0.5043(2) 0.01229(13) 0.33661(7)
C6 C 0.5836(2) 0.06449(14) 0.28517(7)
N9 N 0.4488(2) -0.20951(11) 0.35212(6)
O7 O 0.45146(19) -0.30565(10) 0.32521(5)
O8 O 0.39913(18) -0.19780(10) 0.40535(5)
N10 N 0.4489(2) 0.06273(11) 0.39208(6)
N11 N 0.2690(2) 0.03406(10) 0.40535(6)
O9 O 0.21558(17) 0.05561(9) 0.46014(5)
O10 O 0.14665(17) -0.01235(9) 0.36834(5)
N12 N 0.6101(2) 0.18766(12) 0.27312(6)
O11 O 0.5628(2) 0.25940(10) 0.31261(5)
O12 O 0.67696(19) 0.21749(10) 0.22357(5)
N13 N 0.6534(2) 0.52900(11) 0.13297(6)
C7 C 0.6203(3) 0.56383(14) 0.19127(7)
N14 N 0.6248(2) 0.68048(11) 0.19070(6)
H1 H 0.6067 0.7251 0.2230
N15 N 0.6619(2) 0.72484(12) 0.13229(6)
C8 C 0.6802(2) 0.63055(13) 0.09900(7)
N16 N 0.6659(2) 0.41310(12) 0.11021(6)
H2 H 0.560(2) 0.3749(15) 0.1190(8)
H3 H 0.768(2) 0.3790(16) 0.1281(8)
N17 N 0.5892(2) 0.49022(12) 0.23733(6)
H4 H 0.613(3) 0.4165(9) 0.2319(8)
H5 H 0.586(3) 0.5156(16) 0.2745(5)
N18 N 0.7121(2) 0.62746(12) 0.03829(6)
H6 H 0.762(3) 0.6905(11) 0.0235(8)
H7 H 0.746(3) 0.5627(11) 0.0215(8)
N19 N 0.2475(2) 0.04608(11) 0.13328(6)
C9 C 0.1901(2) 0.08486(13) 0.18882(7)
N20 N 0.2125(2) 0.20127(11) 0.18840(6)
H8 H 0.1883 0.2478 0.2195
N21 N 0.2800(2) 0.24101(11) 0.13179(6)
C10 C 0.2966(2) 0.14472(14) 0.09959(7)
N22 N 0.2524(2) -0.07039(12) 0.11092(6)
H9 H 0.1383(19) -0.1056(16) 0.1165(9)
H10 H 0.345(2) -0.1075(15) 0.1318(8)
N23 N 0.1256(2) 0.01548(12) 0.23248(6)
H11 H 0.108(3) 0.0426(15) 0.2686(5)
H12 H 0.122(3) -0.0590(9) 0.2238(8)
N24 N 0.3575(2) 0.13586(12) 0.04157(6)
H13 H 0.320(3) 0.0727(12) 0.0216(7)
H14 H 0.346(3) 0.1980(11) 0.0198(7)
N25 N 0.8215(2) 0.03665(11) 0.01431(6)
C11 C 0.8496(2) 0.14125(14) -0.01488(7)
N26 N 0.8498(2) 0.22286(11) 0.02791(6)
H15 H 0.8668 0.2988 0.0207
N27 N 0.8197(2) 0.17588(12) 0.08636(6)
C12 C 0.8045(2) 0.06238(14) 0.07591(7)
N28 N 0.7985(2) -0.07701(12) -0.01141(6)
H16 H 0.904(2) -0.0904(17) -0.0321(8)
H17 H 0.697(2) -0.0726(16) -0.0363(7)
N29 N 0.8684(2) 0.15532(12) -0.07501(6)
H18 H 0.922(3) 0.0972(12) -0.0932(8)
H19 H 0.899(3) 0.2230(11) -0.0894(8)
N30 N 0.7864(2) -0.02364(11) 0.11802(6)
H20 H 0.750(3) -0.0045(16) 0.1538(5)
H21 H 0.752(3) -0.0925(10) 0.1051(8)
N31 N 0.2712(2) 0.45954(11) 0.50466(6)
C13 C 0.3115(2) 0.35522(14) 0.47625(7)
N32 N 0.2605(2) 0.27189(12) 0.51435(6)
H22 H 0.2719 0.1958 0.5066
N33 N 0.1857(2) 0.31681(11) 0.56872(6)
C14 C 0.1974(2) 0.43130(14) 0.56116(7)
N34 N 0.3040(2) 0.57576(12) 0.48389(6)
H23 H 0.4202(18) 0.5825(17) 0.4688(8)
H24 H 0.219(2) 0.5892(16) 0.4548(7)
N35 N 0.3826(2) 0.34352(12) 0.42058(6)
H25 H 0.447(3) 0.4020(12) 0.4064(8)
H26 H 0.415(3) 0.2731(10) 0.4092(8)
N36 N 0.1364(2) 0.51540(12) 0.60015(6)
H27 H 0.132(3) 0.4955(16) 0.6383(5)
H28 H 0.182(3) 0.5856(10) 0.5922(8)
loop_
_geom_bond_atom_site_label_1
_geom_bond_atom_site_label_2
_geom_bond_site_symmetry_1
_geom_bond_site_symmetry_2
N1 N2 1_555 1_555
N2 C1 1_555 1_555
C1 C2 1_555 1_555
C2 C3 1_555 1_555
C3 N1 1_555 1_555
N3 C1 1_555 1_555
O1 N3 1_555 1_555
O2 N3 1_555 1_555
N4 C2 1_555 1_555
N5 N4 1_555 1_555
O3 N5 1_555 1_555
O4 N5 1_555 1_555
N6 C3 1_555 1_555
O5 N6 1_555 1_555
O6 N6 1_555 1_555
N7 N8 1_555 1_555
N8 C4 1_555 1_555
C4 C5 1_555 1_555
C5 C6 1_555 1_555
C6 N7 1_555 1_555
N9 C4 1_555 1_555
O7 N9 1_555 1_555
O8 N9 1_555 1_555
N10 C5 1_555 1_555
N11 N10 1_555 1_555
O9 N11 1_555 1_555
O10 N11 1_555 1_555
N12 C6 1_555 1_555
O11 N12 1_555 1_555
O12 N12 1_555 1_555
N13 C7 1_555 1_555
C7 N14 1_555 1_555
N14 H1 1_555 1_555
N15 N14 1_555 1_555
C8 N13 1_555 1_555
N16 N13 1_555 1_555
H2 N16 1_555 1_555
H3 N16 1_555 1_555
N17 C7 1_555 1_555
H4 N17 1_555 1_555
H5 N17 1_555 1_555
N18 C8 1_555 1_555
H6 N18 1_555 1_555
H7 N18 1_555 1_555
N19 C9 1_555 1_555
C9 N20 1_555 1_555
N20 H8 1_555 1_555
N21 N20 1_555 1_555
C10 N19 1_555 1_555
N22 N19 1_555 1_555
H9 N22 1_555 1_555
H10 N22 1_555 1_555
N23 C9 1_555 1_555
H11 N23 1_555 1_555
H12 N23 1_555 1_555
N24 C10 1_555 1_555
H13 N24 1_555 1_555
H14 N24 1_555 1_555
N25 C11 1_555 1_555
C11 N26 1_555 1_555
N26 H15 1_555 1_555
N27 N26 1_555 1_555
C12 N25 1_555 1_555
N28 N25 1_555 1_555
H16 N28 1_555 1_555
H17 N28 1_555 1_555
N29 C11 1_555 1_555
H18 N29 1_555 1_555
H19 N29 1_555 1_555
N30 C12 1_555 1_555
H20 N30 1_555 1_555
H21 N30 1_555 1_555
N31 C13 1_555 1_555
C13 N32 1_555 1_555
N32 H22 1_555 1_555
N33 N32 1_555 1_555
C14 N31 1_555 1_555
N34 N31 1_555 1_555
H23 N34 1_555 1_555
H24 N34 1_555 1_555
N35 C13 1_555 1_555
H25 N35 1_555 1_555
H26 N35 1_555 1_555
N36 C14 1_555 1_555
H27 N36 1_555 1_555
H28 N36 1_555 1_555
N15 C8 1_555 1_555
N21 C10 1_555 1_555
N27 C12 1_555 1_555
N33 C14 1_555 1_555

#END
