
#######################################################################
#
#                 Cambridge Crystallographic Data Centre
#                                CCDC 
#
#######################################################################
#
# If this CIF has been generated from an entry in the Cambridge 
# Structural Database, then it will include bibliographic, chemical, 
# crystal, experimental, refinement or atomic coordinate data resulting 
# from the CCDC's data processing and validation procedures.
#
#######################################################################

data_TATYEU
_chemical_formula_moiety         'C17 H14 N2 O2'
_chemical_name_systematic        
5,13-Dimethyl-1,9-diazatetracyclo[7.7.1.0^2,7^.0^10,15^]-heptadeca-2,4,6,10,12,14-hexaene-8,16-dione
_symmetry_cell_setting           monoclinic
_symmetry_space_group_name_H-M   'P 21/n'
_symmetry_Int_Tables_number      14
_space_group_name_Hall           '-P 2yn'
loop_
_symmetry_equiv_pos_site_id
_symmetry_equiv_pos_as_xyz
1 x,y,z
2 1/2-x,1/2+y,1/2-z
3 -x,-y,-z
4 1/2+x,1/2-y,1/2+z
_cell_length_a                   12.5717(2)
_cell_length_b                   17.3223(2)
_cell_length_c                   12.7339(2)
_cell_angle_alpha                90
_cell_angle_beta                 100.7020(10)
_cell_angle_gamma                90
_cell_volume                     2724.84
_exptl_crystal_colour            colorless
_exptl_crystal_description       prism
_cell_formula_units_Z            8
loop_
_atom_site_label
_atom_site_type_symbol
_atom_site_fract_x
_atom_site_fract_y
_atom_site_fract_z
O1 O 0.03052(8) 0.50339(7) 0.24657(9)
O2 O 0.44604(8) 0.48882(8) 0.29605(9)
N1 N 0.14685(10) 0.40391(7) 0.23083(10)
N2 N 0.31988(10) 0.40803(7) 0.34732(10)
C1 C 0.14635(13) 0.60828(9) 0.63404(13)
H1 H 0.0862 0.6380 0.5933
H2 H 0.2026 0.6437 0.6694
H3 H 0.1199 0.5770 0.6880
C2 C 0.19279(12) 0.55634(8) 0.55960(12)
C3 C 0.12939(11) 0.53032(8) 0.46511(12)
H4 H 0.0560 0.5464 0.4472
C4 C 0.17066(11) 0.48131(8) 0.39622(11)
C5 C 0.10694(11) 0.46428(8) 0.28789(12)
C6 C 0.19005(11) 0.43261(7) 0.14118(11)
C7 C 0.12599(12) 0.44616(8) 0.04258(12)
H5 H 0.0508 0.4348 0.0308
C8 C 0.17195(13) 0.47638(9) -0.03885(12)
H6 H 0.1272 0.4862 -0.1063
C9 C 0.28206(13) 0.49288(9) -0.02491(12)
C10 C 0.33021(16) 0.52561(12) -0.11538(14)
H7 H 0.3922 0.5584 -0.0863
H8 H 0.2755 0.5564 -0.1622
H9 H 0.3542 0.4833 -0.1564
C11 C 0.30099(12) 0.53252(9) 0.58252(12)
H10 H 0.3460 0.5500 0.6464
C12 C 0.34429(11) 0.48428(9) 0.51494(12)
H11 H 0.4181 0.4692 0.5323
C13 C 0.27958(11) 0.45803(8) 0.42189(11)
C14 C 0.36547(11) 0.45027(9) 0.26979(12)
C15 C 0.30107(11) 0.44997(8) 0.15859(11)
C16 C 0.34541(12) 0.47968(9) 0.07487(12)
H12 H 0.4206 0.4912 0.0862
C17 C 0.23090(13) 0.35840(8) 0.29821(13)
H13 H 0.1999 0.3321 0.3546
H14 H 0.2582 0.3184 0.2544
O3 O -0.02395(8) 0.20126(7) 0.67580(9)
O4 O 0.39615(8) 0.27591(7) 0.73319(9)
N3 N 0.07678(9) 0.29993(7) 0.62254(10)
N4 N 0.23740(9) 0.33933(7) 0.74306(10)
C18 C 0.10010(15) 0.17782(11) 1.08903(13)
H15 H 0.0321 0.1505 1.0626
H16 H 0.0891 0.2151 1.1439
H17 H 0.1559 0.1406 1.1198
C19 C 0.13558(12) 0.21971(8) 0.99806(12)
C20 C 0.07124(12) 0.22187(8) 0.89689(12)
H18 H 0.0032 0.1964 0.8847
C21 C 0.10463(11) 0.26073(8) 0.81285(11)
C22 C 0.04379(11) 0.25070(8) 0.70123(12)
C23 C 0.13881(11) 0.25934(8) 0.55535(11)
C24 C 0.08959(12) 0.21934(8) 0.46541(12)
H19 H 0.0129 0.2174 0.4467
C25 C 0.15272(12) 0.18206(8) 0.40270(12)
H20 H 0.1183 0.1543 0.3414
C26 C 0.26564(12) 0.18433(8) 0.42725(12)
C27 C 0.33237(13) 0.14614(9) 0.35536(13)
H21 H 0.3463 0.1831 0.3012
H22 H 0.2929 0.1016 0.3201
H23 H 0.4013 0.1289 0.3979
C28 C 0.23585(12) 0.25678(9) 1.01273(12)
H24 H 0.2818 0.2546 1.0809
C29 C 0.27028(11) 0.29652(8) 0.93126(12)
H25 H 0.3385 0.3218 0.9438
C30 C 0.20492(11) 0.29927(8) 0.83129(11)
C31 C 0.30527(11) 0.29286(8) 0.68981(12)
C32 C 0.25238(11) 0.26111(8) 0.58365(11)
C33 C 0.31385(12) 0.22360(8) 0.51883(12)
H26 H 0.3906 0.2249 0.5377
C34 C 0.14049(12) 0.36563(8) 0.67084(13)
H27 H 0.1614 0.3981 0.6140
H28 H 0.0962 0.3975 0.7108
loop_
_geom_bond_atom_site_label_1
_geom_bond_atom_site_label_2
_geom_bond_site_symmetry_1
_geom_bond_site_symmetry_2
O1 C5 1_555 1_555
O2 C14 1_555 1_555
N1 C5 1_555 1_555
N2 C13 1_555 1_555
C1 H1 1_555 1_555
H2 C1 1_555 1_555
H3 C1 1_555 1_555
C2 C1 1_555 1_555
C3 C2 1_555 1_555
H4 C3 1_555 1_555
C4 C3 1_555 1_555
C5 C4 1_555 1_555
C6 N1 1_555 1_555
C7 C6 1_555 1_555
H5 C7 1_555 1_555
C8 C7 1_555 1_555
H6 C8 1_555 1_555
C9 C8 1_555 1_555
C10 C9 1_555 1_555
H7 C10 1_555 1_555
H8 C10 1_555 1_555
H9 C10 1_555 1_555
C11 C2 1_555 1_555
H10 C11 1_555 1_555
C12 C11 1_555 1_555
H11 C12 1_555 1_555
C13 C4 1_555 1_555
C14 N2 1_555 1_555
C15 C6 1_555 1_555
C16 C9 1_555 1_555
H12 C16 1_555 1_555
C17 N1 1_555 1_555
H13 C17 1_555 1_555
H14 C17 1_555 1_555
O3 C22 1_555 1_555
O4 C31 1_555 1_555
N3 C22 1_555 1_555
N4 C30 1_555 1_555
C18 H15 1_555 1_555
H16 C18 1_555 1_555
H17 C18 1_555 1_555
C19 C18 1_555 1_555
C20 C19 1_555 1_555
H18 C20 1_555 1_555
C21 C20 1_555 1_555
C22 C21 1_555 1_555
C23 N3 1_555 1_555
C24 C23 1_555 1_555
H19 C24 1_555 1_555
C25 C24 1_555 1_555
H20 C25 1_555 1_555
C26 C25 1_555 1_555
C27 C26 1_555 1_555
H21 C27 1_555 1_555
H22 C27 1_555 1_555
H23 C27 1_555 1_555
C28 C19 1_555 1_555
H24 C28 1_555 1_555
C29 C28 1_555 1_555
H25 C29 1_555 1_555
C30 C21 1_555 1_555
C31 N4 1_555 1_555
C32 C23 1_555 1_555
C33 C26 1_555 1_555
H26 C33 1_555 1_555
C34 N3 1_555 1_555
H27 C34 1_555 1_555
H28 C34 1_555 1_555
N2 C17 1_555 1_555
C12 C13 1_555 1_555
C14 C15 1_555 1_555
C15 C16 1_555 1_555
N4 C34 1_555 1_555
C29 C30 1_555 1_555
C31 C32 1_555 1_555
C32 C33 1_555 1_555

#END
