
#######################################################################
#
#                 Cambridge Crystallographic Data Centre
#                                CCDC 
#
#######################################################################
#
# If this CIF has been generated from an entry in the Cambridge 
# Structural Database, then it will include bibliographic, chemical, 
# crystal, experimental, refinement or atomic coordinate data resulting 
# from the CCDC's data processing and validation procedures.
#
#######################################################################

data_TATYEV
_chemical_formula_moiety         'C20 H18 F6 N2 O2 S1'
_chemical_name_systematic        
N-((3-fluoro-1-methyl-2-oxo-2,3-dihydro-1H-indol-3-yl)(pentafluorophenyl)methyl)-2-methylpropane-2-sulfinamide
_symmetry_cell_setting           triclinic
_symmetry_space_group_name_H-M   'P 1'
_symmetry_Int_Tables_number      1
_space_group_name_Hall           'P 1'
loop_
_symmetry_equiv_pos_site_id
_symmetry_equiv_pos_as_xyz
1 x,y,z
_cell_length_a                   5.803(11)
_cell_length_b                   9.424(18)
_cell_length_c                   9.499(18)
_cell_angle_alpha                101.64(2)
_cell_angle_beta                 100.97(3)
_cell_angle_gamma                96.75(3)
_cell_volume                     492.884
_cell_formula_units_Z            1
loop_
_atom_site_label
_atom_site_type_symbol
_atom_site_fract_x
_atom_site_fract_y
_atom_site_fract_z
C1 C 0.446(3) 0.4328(18) 0.9692(16)
H1 H 0.4976 0.4848 1.0705
H2 H 0.5133 0.3443 0.9543
H3 H 0.2751 0.4086 0.9447
C2 C 0.525(2) 0.5289(15) 0.8712(14)
C3 C 0.775(3) 0.511(2) 0.8568(16)
H4 H 0.8449 0.5930 0.8250
H5 H 0.7708 0.4219 0.7858
H6 H 0.8678 0.5067 0.9505
C4 C 0.492(3) 0.6823(16) 0.9199(17)
H7 H 0.5371 0.7118 1.0255
H8 H 0.3276 0.6903 0.8879
H9 H 0.5887 0.7448 0.8782
C5 C 0.563(2) 0.5123(13) 0.4903(12)
H10 H 0.7039 0.4917 0.5532
C6 C 0.468(2) 0.3750(12) 0.3707(12)
C7 C 0.613(2) 0.2694(12) 0.3467(13)
C8 C 0.549(2) 0.1467(12) 0.2391(13)
C9 C 0.345(2) 0.1242(12) 0.1420(13)
C10 C 0.187(2) 0.2221(14) 0.1611(13)
C11 C 0.255(2) 0.3435(12) 0.2723(13)
C12 C 0.644(2) 0.6490(11) 0.4399(12)
C13 C 0.836(2) 0.7470(13) 0.5651(13)
C14 C 0.891(3) 0.9967(15) 0.7191(16)
H11 H 0.9271 1.0791 0.6773
H12 H 1.0365 0.9692 0.7643
H13 H 0.8001 1.0231 0.7921
C15 C 0.550(2) 0.8831(12) 0.5122(14)
C16 C 0.419(3) 0.9936(13) 0.5198(14)
H14 H 0.4621 1.0773 0.5962
C17 C 0.219(3) 0.9764(14) 0.4095(17)
H15 H 0.1269 1.0508 0.4099
C18 C 0.155(2) 0.8532(15) 0.3005(15)
H16 H 0.0228 0.8467 0.2252
C19 C 0.281(2) 0.7346(14) 0.2971(15)
H17 H 0.2330 0.6492 0.2230
C20 C 0.479(2) 0.7504(12) 0.4077(11)
F1 F 0.8216(13) 0.2865(8) 0.4409(8)
F2 F 0.6970(16) 0.0470(8) 0.2257(9)
F3 F 0.2819(18) 0.0049(9) 0.0315(9)
F4 F -0.0222(15) 0.2004(8) 0.0656(9)
F5 F 0.0947(13) 0.4348(7) 0.2849(8)
F6 F 0.7525(12) 0.6014(7) 0.3253(7)
N1 N 0.3975(17) 0.5553(10) 0.5888(10)
H18 H 0.3442 0.6368 0.5899
N2 N 0.761(2) 0.8796(11) 0.6091(11)
O1 O 0.366(2) 0.3005(9) 0.6442(10)
O2 O 1.0221(17) 0.7150(11) 0.6218(11)
S1 S 0.3154(4) 0.4495(3) 0.6953(3)
loop_
_geom_bond_atom_site_label_1
_geom_bond_atom_site_label_2
_geom_bond_site_symmetry_1
_geom_bond_site_symmetry_2
C1 H1 1_555 1_555
H2 C1 1_555 1_555
H3 C1 1_555 1_555
C2 C1 1_555 1_555
C3 C2 1_555 1_555
H4 C3 1_555 1_555
H5 C3 1_555 1_555
H6 C3 1_555 1_555
C4 C2 1_555 1_555
H7 C4 1_555 1_555
H8 C4 1_555 1_555
H9 C4 1_555 1_555
C5 H10 1_555 1_555
C6 C5 1_555 1_555
C7 C6 1_555 1_555
C8 C7 1_555 1_555
C9 C8 1_555 1_555
C10 C9 1_555 1_555
C11 C6 1_555 1_555
C12 C5 1_555 1_555
C13 C12 1_555 1_555
C14 H11 1_555 1_555
H12 C14 1_555 1_555
H13 C14 1_555 1_555
C15 C16 1_555 1_555
C16 H14 1_555 1_555
C17 C16 1_555 1_555
H15 C17 1_555 1_555
C18 C17 1_555 1_555
H16 C18 1_555 1_555
C19 C18 1_555 1_555
H17 C19 1_555 1_555
C20 C12 1_555 1_555
F1 C7 1_555 1_555
F2 C8 1_555 1_555
F3 C9 1_555 1_555
F4 C10 1_555 1_555
F5 C11 1_555 1_555
F6 C12 1_555 1_555
N1 C5 1_555 1_555
H18 N1 1_555 1_555
N2 C13 1_555 1_555
O1 S1 1_555 1_555
O2 C13 1_555 1_555
S1 C2 1_555 1_555
C10 C11 1_555 1_555
C14 N2 1_555 1_555
C15 C20 1_555 1_555
C15 N2 1_555 1_555
C19 C20 1_555 1_555
N1 S1 1_555 1_555

#END
