
#######################################################################
#
#                 Cambridge Crystallographic Data Centre
#                                CCDC 
#
#######################################################################
#
# If this CIF has been generated from an entry in the Cambridge 
# Structural Database, then it will include bibliographic, chemical, 
# crystal, experimental, refinement or atomic coordinate data resulting 
# from the CCDC's data processing and validation procedures.
#
#######################################################################

data_TATYAQ
_chemical_formula_moiety         'C2 H9 N5 2+,C3 N6 O6 2-,H2 O1'
_chemical_name_systematic        
'biguanidinium 3,5-dinitro-4-(nitroazanidyl)pyrazol-1-ide monohydrate'
_symmetry_cell_setting           monoclinic
_symmetry_space_group_name_H-M   'P 21/n'
_symmetry_Int_Tables_number      14
_space_group_name_Hall           '-P 2yn'
loop_
_symmetry_equiv_pos_site_id
_symmetry_equiv_pos_as_xyz
1 x,y,z
2 1/2-x,1/2+y,1/2-z
3 -x,-y,-z
4 1/2+x,1/2-y,1/2+z
_cell_length_a                   9.6884(4)
_cell_length_b                   7.1543(3)
_cell_length_c                   18.3171(8)
_cell_angle_alpha                90
_cell_angle_beta                 98.0130(10)
_cell_angle_gamma                90
_cell_volume                     1257.23
_exptl_crystal_colour            yellow
_exptl_crystal_description       irregular
_cell_formula_units_Z            4
loop_
_atom_site_label
_atom_site_type_symbol
_atom_site_fract_x
_atom_site_fract_y
_atom_site_fract_z
N1 N 0.75239(10) 0.49652(14) 1.06818(6)
N2 N 0.64989(10) 0.59809(14) 1.08980(6)
C1 C 0.58361(12) 0.68870(16) 1.03045(7)
C2 C 0.64188(12) 0.65056(16) 0.96661(7)
C3 C 0.74785(12) 0.52567(16) 0.99523(7)
N3 N 0.46670(10) 0.80330(14) 1.04091(6)
O1 O 0.44339(10) 0.82990(13) 1.10426(5)
O2 O 0.39454(9) 0.86822(12) 0.98602(5)
N4 N 0.59679(10) 0.70992(15) 0.89417(6)
N5 N 0.69175(10) 0.80520(14) 0.86575(6)
O3 O 0.66370(9) 0.84832(13) 0.79797(5)
O4 O 0.80609(9) 0.85380(12) 0.90201(5)
N6 N 0.84052(10) 0.42250(14) 0.95558(6)
O5 O 0.83237(9) 0.44774(13) 0.88863(5)
O6 O 0.92188(9) 0.31112(13) 0.99053(5)
N7 N -0.07910(11) 0.90756(16) 0.73924(6)
H1 H -0.1581(17) 0.895(2) 0.7575(9)
H2 H -0.0750(16) 0.968(2) 0.6997(9)
C4 C 0.03271(12) 0.81950(16) 0.77082(7)
N8 N 0.03304(12) 0.72661(15) 0.83242(6)
H3 H -0.0380(17) 0.745(2) 0.8560(9)
H4 H 0.1011(18) 0.667(2) 0.8515(9)
N9 N 0.14848(10) 0.82679(15) 0.73479(6)
H5 H 0.1338 0.8350 0.6864
C5 C 0.28407(12) 0.82237(16) 0.76767(7)
N10 N 0.38032(11) 0.78695(16) 0.72517(6)
H6 H 0.4674(18) 0.801(2) 0.7427(9)
H7 H 0.3593(16) 0.755(2) 0.6821(10)
N11 N 0.31790(11) 0.85765(16) 0.83808(6)
H8 H 0.3999(18) 0.828(2) 0.8580(9)
H9 H 0.2562(17) 0.895(2) 0.8645(9)
O7 O 0.87233(10) 0.91693(13) 1.07859(6)
H10 H 0.9574(19) 0.888(3) 1.0715(10)
H11 H 0.8306(19) 0.927(3) 1.0356(11)
loop_
_geom_bond_atom_site_label_1
_geom_bond_atom_site_label_2
_geom_bond_site_symmetry_1
_geom_bond_site_symmetry_2
N1 N2 1_555 1_555
N2 C1 1_555 1_555
C1 C2 1_555 1_555
C2 C3 1_555 1_555
C3 N1 1_555 1_555
N3 C1 1_555 1_555
O1 N3 1_555 1_555
O2 N3 1_555 1_555
N4 C2 1_555 1_555
N5 N4 1_555 1_555
O3 N5 1_555 1_555
O4 N5 1_555 1_555
N6 C3 1_555 1_555
O5 N6 1_555 1_555
O6 N6 1_555 1_555
N7 H1 1_555 1_555
H2 N7 1_555 1_555
C4 N7 1_555 1_555
N8 C4 1_555 1_555
H3 N8 1_555 1_555
H4 N8 1_555 1_555
N9 C4 1_555 1_555
H5 N9 1_555 1_555
C5 N9 1_555 1_555
N10 C5 1_555 1_555
H6 N10 1_555 1_555
H7 N10 1_555 1_555
N11 C5 1_555 1_555
H8 N11 1_555 1_555
H9 N11 1_555 1_555
O7 H10 1_555 1_555
H11 O7 1_555 1_555

#END
