
#######################################################################
#
#                 Cambridge Crystallographic Data Centre
#                                CCDC 
#
#######################################################################
#
# If this CIF has been generated from an entry in the Cambridge 
# Structural Database, then it will include bibliographic, chemical, 
# crystal, experimental, refinement or atomic coordinate data resulting 
# from the CCDC's data processing and validation procedures.
#
#######################################################################

data_TATZOE
_chemical_formula_moiety         'C22 H17 N2 1+,C1 H3 O3 S1 1-'
_chemical_name_systematic        
'2-Amino-12-phenyl-7H-indeno(1,2-b)quinolizin-5-ium methanesulfonate'
_symmetry_cell_setting           monoclinic
_symmetry_space_group_name_H-M   'P 21/c'
_symmetry_Int_Tables_number      14
_space_group_name_Hall           '-P 2ybc'
loop_
_symmetry_equiv_pos_site_id
_symmetry_equiv_pos_as_xyz
1 x,y,z
2 -x,1/2+y,1/2-z
3 -x,-y,-z
4 x,1/2-y,1/2+z
_cell_length_a                   9.6126(6)
_cell_length_b                   25.3430(17)
_cell_length_c                   8.5716(6)
_cell_angle_alpha                90
_cell_angle_beta                 107.9370(10)
_cell_angle_gamma                90
_cell_volume                     1986.65
_exptl_crystal_colour            yellow
_cell_formula_units_Z            4
_exptl_crystal_recrystallization_method chloroform/methanol
loop_
_atom_site_label
_atom_site_type_symbol
_atom_site_fract_x
_atom_site_fract_y
_atom_site_fract_z
S1 S 0.06051(6) 0.37627(2) 0.53662(7)
O1 O 0.15806(18) 0.36660(7) 0.6981(2)
O2 O -0.08891(17) 0.38183(8) 0.5330(3)
O3 O 0.1094(3) 0.41903(8) 0.4570(3)
C23 C 0.0627(3) 0.32035(11) 0.4185(4)
H18 H 0.1600 0.3146 0.4137
H19 H -0.0027 0.3255 0.3097
H20 H 0.0319 0.2902 0.4673
N1 N 0.43273(17) 0.48545(7) 0.7620(2)
N2 N 0.79729(19) 0.48074(8) 0.6048(2)
H1 H 0.8415 0.5093 0.5934
H2 H 0.8277 0.4508 0.5810
C1 C 0.1443(2) 0.59427(10) 0.9689(3)
C2 C 0.0675(2) 0.62209(12) 1.0536(3)
H3 H -0.0087 0.6061 1.0816
C3 C 0.1041(3) 0.67291(14) 1.0957(4)
H4 H 0.0542 0.6914 1.1558
C4 C 0.2143(3) 0.69792(12) 1.0511(4)
H5 H 0.2361 0.7331 1.0787
C5 C 0.2924(2) 0.67046(11) 0.9655(3)
H6 H 0.3664 0.6871 0.9350
C6 C 0.2590(2) 0.61845(9) 0.9262(3)
C7 C 0.33094(19) 0.57841(8) 0.8544(2)
C8 C 0.45053(18) 0.58048(8) 0.7992(2)
C9 C 0.50542(19) 0.53234(8) 0.7519(2)
C10 C 0.62793(19) 0.53013(8) 0.6992(2)
H7 H 0.6758 0.5614 0.6905
C11 C 0.6817(2) 0.48289(8) 0.6591(3)
C12 C 0.6063(2) 0.43611(9) 0.6787(3)
H8 H 0.6415 0.4034 0.6589
C13 C 0.4868(2) 0.43845(9) 0.7248(3)
H9 H 0.4380 0.4073 0.7323
C14 C 0.3067(2) 0.48495(9) 0.8094(3)
H10 H 0.2569 0.4534 0.8086
C15 C 0.2575(2) 0.52921(9) 0.8558(3)
C16 C 0.1287(2) 0.53746(10) 0.9182(3)
H11 H 0.0371 0.5312 0.8326
H12 H 0.1342 0.5146 1.0105
C17 C 0.52284(18) 0.63142(7) 0.7851(3)
C18 C 0.4622(2) 0.66412(9) 0.6526(3)
H13 H 0.3776 0.6540 0.5712
C19 C 0.5277(3) 0.71199(9) 0.6413(4)
H14 H 0.4886 0.7334 0.5502
C20 C 0.6500(3) 0.72830(9) 0.7636(4)
H15 H 0.6924 0.7608 0.7563
C21 C 0.7084(2) 0.69649(10) 0.8949(3)
H16 H 0.7908 0.7075 0.9780
C22 C 0.6472(2) 0.64817(9) 0.9065(3)
H17 H 0.6895 0.6266 0.9964
loop_
_geom_bond_atom_site_label_1
_geom_bond_atom_site_label_2
_geom_bond_site_symmetry_1
_geom_bond_site_symmetry_2
S1 O1 1_555 1_555
O2 S1 1_555 1_555
O3 S1 1_555 1_555
N1 C9 1_555 1_555
N2 H1 1_555 1_555
H2 N2 1_555 1_555
C1 C2 1_555 1_555
C2 H3 1_555 1_555
C3 C2 1_555 1_555
H4 C3 1_555 1_555
C4 C3 1_555 1_555
H5 C4 1_555 1_555
C5 C4 1_555 1_555
H6 C5 1_555 1_555
C6 C1 1_555 1_555
C7 C6 1_555 1_555
C8 C7 1_555 1_555
C9 C8 1_555 1_555
C10 C9 1_555 1_555
H7 C10 1_555 1_555
C11 N2 1_555 1_555
C12 C11 1_555 1_555
H8 C12 1_555 1_555
C13 N1 1_555 1_555
H9 C13 1_555 1_555
C14 N1 1_555 1_555
H10 C14 1_555 1_555
C15 C7 1_555 1_555
C16 C1 1_555 1_555
H11 C16 1_555 1_555
H12 C16 1_555 1_555
C17 C8 1_555 1_555
C18 C17 1_555 1_555
H13 C18 1_555 1_555
C19 C18 1_555 1_555
H14 C19 1_555 1_555
C20 C19 1_555 1_555
H15 C20 1_555 1_555
C21 C20 1_555 1_555
H16 C21 1_555 1_555
C22 C17 1_555 1_555
H17 C22 1_555 1_555
C23 S1 1_555 1_555
H18 C23 1_555 1_555
H19 C23 1_555 1_555
H20 C23 1_555 1_555
C5 C6 1_555 1_555
C10 C11 1_555 1_555
C12 C13 1_555 1_555
C14 C15 1_555 1_555
C15 C16 1_555 1_555
C21 C22 1_555 1_555

#END
