
#######################################################################
#
#                 Cambridge Crystallographic Data Centre
#                                CCDC 
#
#######################################################################
#
# If this CIF has been generated from an entry in the Cambridge 
# Structural Database, then it will include bibliographic, chemical, 
# crystal, experimental, refinement or atomic coordinate data resulting 
# from the CCDC's data processing and validation procedures.
#
#######################################################################

data_TATZUK
_chemical_formula_moiety         'C24 H21 N2 1+,C1 H3 O3 S1 1-,H2 O1'
_chemical_name_systematic        
'2-(Dimethylamino)-12-phenyl-7H-indeno(1,2-b)quinolizin-5-ium methanesulfonate monohydrate'
_symmetry_cell_setting           monoclinic
_symmetry_space_group_name_H-M   'P 21/n'
_symmetry_Int_Tables_number      14
_space_group_name_Hall           '-P 2yn'
loop_
_symmetry_equiv_pos_site_id
_symmetry_equiv_pos_as_xyz
1 x,y,z
2 1/2-x,1/2+y,1/2-z
3 -x,-y,-z
4 1/2+x,1/2-y,1/2+z
_cell_length_a                   11.7418(12)
_cell_length_b                   7.5791(7)
_cell_length_c                   25.423(3)
_cell_angle_alpha                90
_cell_angle_beta                 97.206(2)
_cell_angle_gamma                90
_cell_volume                     2244.58
_exptl_crystal_colour            yellow
_cell_formula_units_Z            4
_exptl_crystal_recrystallization_method dichloromethane/hexanes
loop_
_atom_site_label
_atom_site_type_symbol
_atom_site_fract_x
_atom_site_fract_y
_atom_site_fract_z
S1 S 0.84634(10) 0.85300(12) 0.06589(4)
O1 O 0.8625(3) 1.0211(3) 0.09296(11)
O2 O 0.7295(2) 0.7997(4) 0.05823(11)
O3 O 0.8996(3) 0.8438(4) 0.01823(13)
C1 C 0.9182(4) 0.7005(5) 0.10940(17)
H1 H 0.8777 0.6865 0.1397
H2 H 0.9946 0.7420 0.1207
H3 H 0.9219 0.5891 0.0917
N1 N 0.3033(2) 0.7365(3) 0.07954(9)
N2 N 0.5412(2) 0.3364(3) 0.06870(10)
C2 C 0.2439(3) 1.2730(4) 0.15920(12)
C3 C 0.2213(3) 1.4358(4) 0.18015(15)
H4 H 0.1534 1.4948 0.1684
C4 C 0.3000(3) 1.5097(4) 0.21857(15)
H5 H 0.2851 1.6192 0.2328
C5 C 0.4009(3) 1.4223(4) 0.23619(14)
H6 H 0.4527 1.4729 0.2626
C6 C 0.4257(3) 1.2622(3) 0.21540(12)
H7 H 0.4948 1.2059 0.2268
C7 C 0.3467(3) 1.1849(3) 0.17715(11)
C8 C 0.3469(3) 1.0166(4) 0.14790(11)
C9 C 0.4270(3) 0.8831(3) 0.14953(10)
C10 C 0.4058(2) 0.7380(4) 0.11295(10)
C11 C 0.4834(3) 0.6025(3) 0.10970(10)
H8 H 0.5521 0.6042 0.1323
C12 C 0.4628(3) 0.4624(4) 0.07372(11)
C13 C 0.3544(3) 0.4637(4) 0.04246(12)
H9 H 0.3347 0.3706 0.0193
C14 C 0.2799(3) 0.5944(4) 0.04527(12)
H10 H 0.2099 0.5908 0.0236
C15 C 0.2241(3) 0.8721(4) 0.07939(13)
H11 H 0.1564 0.8674 0.0561
C16 C 0.2433(3) 1.0078(4) 0.11187(12)
C17 C 0.1712(3) 1.1688(4) 0.11740(14)
H12 H 0.1578 1.2337 0.0843
H13 H 0.0979 1.1378 0.1288
C18 C 0.5137(3) 0.1850(4) 0.03413(13)
H14 H 0.4494 0.1231 0.0451
H15 H 0.5788 0.1075 0.0363
H16 H 0.4949 0.2248 -0.0018
C19 C 0.6537(3) 0.3455(4) 0.09832(14)
H17 H 0.6837 0.4627 0.0960
H18 H 0.7035 0.2630 0.0839
H19 H 0.6489 0.3170 0.1348
C20 C 0.5347(3) 0.8873(3) 0.18738(11)
C21 C 0.6384(3) 0.9274(3) 0.17003(12)
H20 H 0.6422 0.9419 0.1340
C22 C 0.7362(3) 0.9461(4) 0.20546(14)
H21 H 0.8053 0.9754 0.1934
C23 C 0.7320(3) 0.9221(4) 0.25765(15)
H22 H 0.7983 0.9368 0.2814
C24 C 0.6312(3) 0.8763(4) 0.27637(12)
H23 H 0.6295 0.8569 0.3124
C25 C 0.5321(3) 0.8595(3) 0.24084(12)
H24 H 0.4633 0.8292 0.2531
O4 O 0.0618(3) 0.6875(4) 0.96314(14)
H25 H 0.002(4) 0.712(6) 0.9866(16)
H26 H 0.093(3) 0.799(6) 0.9398(16)
loop_
_geom_bond_atom_site_label_1
_geom_bond_atom_site_label_2
_geom_bond_site_symmetry_1
_geom_bond_site_symmetry_2
S1 O1 1_555 1_555
O2 S1 1_555 1_555
O3 S1 1_555 1_555
C1 S1 1_555 1_555
H1 C1 1_555 1_555
H2 C1 1_555 1_555
H3 C1 1_555 1_555
N1 C10 1_555 1_555
N2 C12 1_555 1_555
C2 C3 1_555 1_555
C3 H4 1_555 1_555
C4 C3 1_555 1_555
H5 C4 1_555 1_555
C5 C4 1_555 1_555
H6 C5 1_555 1_555
C6 C5 1_555 1_555
H7 C6 1_555 1_555
C7 C2 1_555 1_555
C8 C7 1_555 1_555
C9 C8 1_555 1_555
C10 C9 1_555 1_555
C11 C10 1_555 1_555
H8 C11 1_555 1_555
C12 C11 1_555 1_555
C13 C12 1_555 1_555
H9 C13 1_555 1_555
C14 N1 1_555 1_555
H10 C14 1_555 1_555
C15 N1 1_555 1_555
H11 C15 1_555 1_555
C16 C8 1_555 1_555
C17 C2 1_555 1_555
H12 C17 1_555 1_555
H13 C17 1_555 1_555
C18 N2 1_555 1_555
H14 C18 1_555 1_555
H15 C18 1_555 1_555
H16 C18 1_555 1_555
C19 N2 1_555 1_555
H17 C19 1_555 1_555
H18 C19 1_555 1_555
H19 C19 1_555 1_555
C20 C9 1_555 1_555
C21 C20 1_555 1_555
H20 C21 1_555 1_555
C22 C21 1_555 1_555
H21 C22 1_555 1_555
C23 C22 1_555 1_555
H22 C23 1_555 1_555
C24 C23 1_555 1_555
H23 C24 1_555 1_555
C25 C20 1_555 1_555
H24 C25 1_555 1_555
O4 H25 1_555 1_555
H26 O4 1_555 1_555
C6 C7 1_555 1_555
C13 C14 1_555 1_555
C15 C16 1_555 1_555
C16 C17 1_555 1_555
C24 C25 1_555 1_555

#END
