
#######################################################################
#
#                 Cambridge Crystallographic Data Centre
#                                CCDC 
#
#######################################################################
#
# If this CIF has been generated from an entry in the Cambridge 
# Structural Database, then it will include bibliographic, chemical, 
# crystal, experimental, refinement or atomic coordinate data resulting 
# from the CCDC's data processing and validation procedures.
#
#######################################################################

data_TAURIN08
_chemical_compound_source        'Turkish marine sponge Agelas oroides'
_chemical_formula_moiety         'C2 H7 N1 O3 S1'
_chemical_name_systematic        Taurine
_chemical_properties_biological  
'some Plasmodium falciparum enoyl-ACP reductase inhibition and antiprotozoal activity'
_symmetry_cell_setting           monoclinic
_symmetry_space_group_name_H-M   'P 21/c'
_symmetry_Int_Tables_number      14
_space_group_name_Hall           '-P 2ybc'
loop_
_symmetry_equiv_pos_site_id
_symmetry_equiv_pos_as_xyz
1 x,y,z
2 -x,1/2+y,1/2-z
3 -x,-y,-z
4 x,1/2-y,1/2+z
_cell_length_a                   5.26510(10)
_cell_length_b                   11.6301(3)
_cell_length_c                   7.8283(2)
_cell_angle_alpha                90
_cell_angle_beta                 94.0521(18)
_cell_angle_gamma                90
_cell_volume                     478.157
_exptl_crystal_colour            colorless
_exptl_crystal_description       prism
_cell_formula_units_Z            4
loop_
_atom_site_label
_atom_site_type_symbol
_atom_site_fract_x
_atom_site_fract_y
_atom_site_fract_z
S1 S 0.79799(6) 0.15048(3) 0.14977(4)
O1 O 0.6589(2) 0.25808(10) 0.14638(15)
O2 O 1.0669(2) 0.16189(9) 0.20851(16)
O3 O 0.7698(2) 0.08815(9) -0.01303(13)
N1 N 0.7339(3) -0.13029(12) 0.16730(17)
H1 H 0.580(5) -0.1325(18) 0.142(3)
H2 H 0.804(5) -0.107(2) 0.088(3)
H3 H 0.800(4) -0.194(2) 0.187(3)
C1 C 0.6613(3) 0.06053(13) 0.30245(19)
H4 H 0.6734 0.0995 0.4152
H5 H 0.4785 0.0492 0.2678
C2 C 0.7901(3) -0.05602(13) 0.32051(18)
H6 H 0.9765 -0.0448 0.3383
H7 H 0.7321 -0.0955 0.4229
loop_
_geom_bond_atom_site_label_1
_geom_bond_atom_site_label_2
_geom_bond_site_symmetry_1
_geom_bond_site_symmetry_2
S1 O1 1_555 1_555
O2 S1 1_555 1_555
O3 S1 1_555 1_555
N1 H1 1_555 1_555
H2 N1 1_555 1_555
H3 N1 1_555 1_555
C1 S1 1_555 1_555
H4 C1 1_555 1_555
H5 C1 1_555 1_555
C2 N1 1_555 1_555
H6 C2 1_555 1_555
H7 C2 1_555 1_555
C1 C2 1_555 1_555

#END
