
#######################################################################
#
#                 Cambridge Crystallographic Data Centre
#                                CCDC 
#
#######################################################################
#
# If this CIF has been generated from an entry in the Cambridge 
# Structural Database, then it will include bibliographic, chemical, 
# crystal, experimental, refinement or atomic coordinate data resulting 
# from the CCDC's data processing and validation procedures.
#
#######################################################################

data_TAVBEY
_chemical_formula_moiety         'C22 H15 N1 O1'
_chemical_name_systematic        
4,7-Dihydro-12-phenylindeno(2,1-g)quinolizin-4-one
_symmetry_cell_setting           monoclinic
_symmetry_space_group_name_H-M   'P 21/c'
_symmetry_Int_Tables_number      14
_space_group_name_Hall           '-P 2ybc'
loop_
_symmetry_equiv_pos_site_id
_symmetry_equiv_pos_as_xyz
1 x,y,z
2 -x,1/2+y,1/2-z
3 -x,-y,-z
4 x,1/2-y,1/2+z
_cell_length_a                   9.2246(8)
_cell_length_b                   11.6340(11)
_cell_length_c                   14.7700(14)
_cell_angle_alpha                90
_cell_angle_beta                 91.058(2)
_cell_angle_gamma                90
_cell_volume                     1584.83
_exptl_crystal_colour            'pale yellow'
_chemical_melting_point          205-207deg.C
_cell_formula_units_Z            4
_exptl_crystal_recrystallization_method dichloromethane/hexanes
loop_
_atom_site_label
_atom_site_type_symbol
_atom_site_fract_x
_atom_site_fract_y
_atom_site_fract_z
O1 O 0.48032(19) -0.17319(15) 1.14977(12)
N1 N 0.38556(17) -0.00646(15) 1.09190(11)
C1 C 0.3102(2) -0.07308(19) 1.02925(15)
H1 H 0.3230 -0.1524 1.0291
C2 C 0.2197(2) -0.02480(19) 0.96918(14)
C3 C 0.1248(2) -0.0804(2) 0.89864(16)
H2 H 0.1820 -0.1192 0.8534
H3 H 0.0591 -0.1353 0.9255
C4 C 0.0440(2) 0.0192(2) 0.85853(15)
C5 C -0.0650(3) 0.0173(3) 0.79292(17)
H4 H -0.0943 -0.0515 0.7663
C6 C -0.1293(3) 0.1201(3) 0.76776(17)
H5 H -0.2026 0.1202 0.7237
C7 C -0.0865(3) 0.2224(3) 0.80689(17)
H6 H -0.1320 0.2904 0.7894
C8 C 0.0225(2) 0.2252(2) 0.87135(16)
H7 H 0.0519 0.2945 0.8971
C9 C 0.0883(2) 0.1225(2) 0.89762(14)
C10 C 0.1993(2) 0.09714(19) 0.96732(14)
C11 C 0.2740(2) 0.16539(19) 1.02686(14)
C12 C 0.3698(2) 0.11315(18) 1.09262(14)
C13 C 0.4456(2) 0.1736(2) 1.15843(15)
H8 H 0.4395 0.2533 1.1598
C14 C 0.5306(2) 0.1171(2) 1.22250(17)
H9 H 0.5781 0.1593 1.2675
C15 C 0.5459(2) 0.0015(2) 1.22079(17)
H10 H 0.6059 -0.0334 1.2640
C16 C 0.4752(2) -0.0673(2) 1.15665(16)
C17 C 0.2595(2) 0.29371(18) 1.02618(15)
C18 C 0.1733(2) 0.34941(19) 1.08706(16)
H11 H 0.1247 0.3072 1.1305
C19 C 0.1583(3) 0.4672(2) 1.08433(19)
H12 H 0.0992 0.5040 1.1256
C20 C 0.2298(3) 0.5298(2) 1.0213(2)
H13 H 0.2196 0.6093 1.0197
C21 C 0.3162(3) 0.4760(2) 0.9605(2)
H14 H 0.3654 0.5189 0.9177
C22 C 0.3307(2) 0.3577(2) 0.96246(17)
H15 H 0.3889 0.3212 0.9205
loop_
_geom_bond_atom_site_label_1
_geom_bond_atom_site_label_2
_geom_bond_site_symmetry_1
_geom_bond_site_symmetry_2
O1 C16 1_555 1_555
N1 C1 1_555 1_555
C1 H1 1_555 1_555
C2 C1 1_555 1_555
C3 C2 1_555 1_555
H2 C3 1_555 1_555
H3 C3 1_555 1_555
C4 C3 1_555 1_555
C5 C4 1_555 1_555
H4 C5 1_555 1_555
C6 C5 1_555 1_555
H5 C6 1_555 1_555
C7 C6 1_555 1_555
H6 C7 1_555 1_555
C8 C7 1_555 1_555
H7 C8 1_555 1_555
C9 C4 1_555 1_555
C10 C2 1_555 1_555
C11 C10 1_555 1_555
C12 N1 1_555 1_555
C13 C12 1_555 1_555
H8 C13 1_555 1_555
C14 C13 1_555 1_555
H9 C14 1_555 1_555
C15 C14 1_555 1_555
H10 C15 1_555 1_555
C16 N1 1_555 1_555
C17 C11 1_555 1_555
C18 C17 1_555 1_555
H11 C18 1_555 1_555
C19 C18 1_555 1_555
H12 C19 1_555 1_555
C20 C19 1_555 1_555
H13 C20 1_555 1_555
C21 C20 1_555 1_555
H14 C21 1_555 1_555
C22 C17 1_555 1_555
H15 C22 1_555 1_555
C8 C9 1_555 1_555
C9 C10 1_555 1_555
C11 C12 1_555 1_555
C15 C16 1_555 1_555
C21 C22 1_555 1_555

#END
