
#######################################################################
#
#                 Cambridge Crystallographic Data Centre
#                                CCDC 
#
#######################################################################
#
# If this CIF has been generated from an entry in the Cambridge 
# Structural Database, then it will include bibliographic, chemical, 
# crystal, experimental, refinement or atomic coordinate data resulting 
# from the CCDC's data processing and validation procedures.
#
#######################################################################

data_TAVDIE
_chemical_formula_moiety         'C25 H32 N2 O6'
_chemical_name_systematic        
'(E)-5-(2-(Ethoxycarbonyl)-3-methylaminoallyl)-3H-benzo(cd)indole-1,2a-dicarboxylic acid 1-t-butyl ester 2a-methyl ester'
_symmetry_cell_setting           triclinic
_symmetry_space_group_name_H-M   'P -1'
_symmetry_Int_Tables_number      2
_space_group_name_Hall           '-P 1'
loop_
_symmetry_equiv_pos_site_id
_symmetry_equiv_pos_as_xyz
1 x,y,z
2 -x,-y,-z
_cell_length_a                   9.1492(4)
_cell_length_b                   10.8893(4)
_cell_length_c                   13.6216(6)
_cell_angle_alpha                69.105(3)
_cell_angle_beta                 79.378(3)
_cell_angle_gamma                71.933(3)
_cell_volume                     1201.18
_exptl_crystal_colour            colorless
_exptl_crystal_description       irregular
_cell_formula_units_Z            2
loop_
_atom_site_label
_atom_site_type_symbol
_atom_site_fract_x
_atom_site_fract_y
_atom_site_fract_z
C1 C 0.6555(3) 0.0982(3) 0.1918(2)
C2 C 0.5414(3) 0.0688(3) 0.1564(2)
H1 H 0.5002 -0.0059 0.1970
C3 C 0.4904(3) 0.1544(3) 0.0584(2)
H2 H 0.4143 0.1351 0.0315
C4 C 0.5450(3) 0.2662(3) -0.0017(2)
H3 H 0.5049 0.3227 -0.0674
C5 C 0.6596(3) 0.2956(3) 0.0346(2)
C6 C 0.7208(3) 0.4168(3) -0.0137(2)
C7 C 0.7909(3) 0.4506(3) 0.0469(2)
H4 H 0.8274 0.5300 0.0158
C8 C 0.8162(3) 0.3708(3) 0.1619(2)
H5 H 0.7254 0.4034 0.2072
H6 H 0.9078 0.3849 0.1809
C9 C 0.8404(3) 0.2189(3) 0.1801(2)
C10 C 0.7144(3) 0.2060(3) 0.1299(2)
C11 C 0.8178(3) 0.1259(3) 0.2949(2)
H7 H 0.9185 0.0705 0.3230
H8 H 0.7606 0.1809 0.3411
C12 C 0.7008(3) -0.0728(3) 0.3672(2)
C13 C 0.7744(4) -0.2195(3) 0.5438(2)
C14 C 0.8450(5) -0.3466(4) 0.5120(3)
H9 H 0.7751 -0.3542 0.4692
H10 H 0.8616 -0.4269 0.5754
H11 H 0.9440 -0.3410 0.4709
C15 C 0.8755(5) -0.2096(5) 0.6155(3)
H12 H 0.9778 -0.2070 0.5788
H13 H 0.8854 -0.2891 0.6795
H14 H 0.8287 -0.1263 0.6345
C16 C 0.6125(4) -0.2109(4) 0.5950(3)
H15 H 0.5702 -0.1241 0.6096
H16 H 0.6139 -0.2866 0.6613
H17 H 0.5479 -0.2164 0.5476
C17 C 0.9989(3) 0.1616(3) 0.1295(2)
C18 C 1.1610(4) -0.0301(3) 0.0852(3)
H18 H 1.1759 0.0227 0.0107
H19 H 1.1606 -0.1223 0.0911
H20 H 1.2452 -0.0352 0.1231
C19 C 0.6982(3) 0.4997(3) -0.1286(2)
H21 H 0.5863 0.5360 -0.1375
H22 H 0.7422 0.5783 -0.1477
C20 C 0.7717(4) 0.4194(3) -0.2029(2)
C21 C 0.9266(4) 0.3617(3) -0.2136(3)
H23 H 0.9616 0.3147 -0.2640
C22 C 1.1982(4) 0.3003(4) -0.1817(3)
H24 H 1.2098 0.2321 -0.2159
H25 H 1.2459 0.2561 -0.1147
H26 H 1.2487 0.3704 -0.2278
C23 C 0.6699(4) 0.4021(4) -0.2660(3)
C24 C 0.6548(6) 0.2907(6) -0.3859(4)
H27 H 0.5933 0.3889 -0.4253
H28 H 0.5305 0.2767 -0.3464
N1 N 0.7275(3) 0.0377(2) 0.28799(18)
N2 N 1.0318(3) 0.3644(3) -0.1619(3)
H29 H 0.986(5) 0.404(4) -0.094(4)
O1 O 0.6192(2) -0.1392(2) 0.36168(17)
O2 O 0.7775(2) -0.0972(2) 0.45053(15)
O3 O 1.0148(2) 0.0360(2) 0.13084(18)
O4 O 1.0971(2) 0.2209(2) 0.0937(2)
O5 O 0.7468(3) 0.3201(3) -0.3248(2)
O6 O 0.5329(3) 0.4539(3) -0.2666(2)
C25 C 0.7431(8) 0.1583(8) -0.4016(6)
H30 H 0.8449 0.1652 -0.4373
H31 H 0.6871 0.1360 -0.4449
H32 H 0.7554 0.0865 -0.3330
C26? C 0.6718(18) 0.372(2) -0.4966(11)
H33? H 0.6050 0.4644 -0.5075
H34? H 0.6424 0.3299 -0.5403
H35? H 0.7794 0.3748 -0.5164
loop_
_geom_bond_atom_site_label_1
_geom_bond_atom_site_label_2
_geom_bond_site_symmetry_1
_geom_bond_site_symmetry_2
C1 C2 1_555 1_555
C2 H1 1_555 1_555
C3 C2 1_555 1_555
H2 C3 1_555 1_555
C4 C3 1_555 1_555
H3 C4 1_555 1_555
C5 C4 1_555 1_555
C6 C5 1_555 1_555
C7 C6 1_555 1_555
H4 C7 1_555 1_555
C8 C7 1_555 1_555
H5 C8 1_555 1_555
H6 C8 1_555 1_555
C9 C8 1_555 1_555
C10 C1 1_555 1_555
C11 C9 1_555 1_555
H7 C11 1_555 1_555
H8 C11 1_555 1_555
C12 N1 1_555 1_555
C13 C14 1_555 1_555
C14 H9 1_555 1_555
H10 C14 1_555 1_555
H11 C14 1_555 1_555
C15 C13 1_555 1_555
H12 C15 1_555 1_555
H13 C15 1_555 1_555
H14 C15 1_555 1_555
C16 C13 1_555 1_555
H15 C16 1_555 1_555
H16 C16 1_555 1_555
H17 C16 1_555 1_555
C17 C9 1_555 1_555
C18 H18 1_555 1_555
H19 C18 1_555 1_555
H20 C18 1_555 1_555
C19 C6 1_555 1_555
H21 C19 1_555 1_555
H22 C19 1_555 1_555
C20 C19 1_555 1_555
C21 C20 1_555 1_555
H23 C21 1_555 1_555
C22 H24 1_555 1_555
H25 C22 1_555 1_555
H26 C22 1_555 1_555
C23 C20 1_555 1_555
C24 H27 1_555 1_555
H28 C24 1_555 1_555
N1 C1 1_555 1_555
N2 C21 1_555 1_555
H29 N2 1_555 1_555
O1 C12 1_555 1_555
O2 C12 1_555 1_555
O3 C17 1_555 1_555
O4 C17 1_555 1_555
O5 C23 1_555 1_555
O6 C23 1_555 1_555
C25 C24 1_555 1_555
H30 C25 1_555 1_555
H31 C25 1_555 1_555
H32 C25 1_555 1_555
C5 C10 1_555 1_555
C9 C10 1_555 1_555
C11 N1 1_555 1_555
C13 O2 1_555 1_555
C18 O3 1_555 1_555
C22 N2 1_555 1_555
C24 O5 1_555 1_555

#END
