
#######################################################################
#
#                 Cambridge Crystallographic Data Centre
#                                CCDC 
#
#######################################################################
#
# If this CIF has been generated from an entry in the Cambridge 
# Structural Database, then it will include bibliographic, chemical, 
# crystal, experimental, refinement or atomic coordinate data resulting 
# from the CCDC's data processing and validation procedures.
#
#######################################################################

data_TAVGEE
_chemical_formula_moiety         'C14 H13 Cl3 O2'
_chemical_name_systematic        
syn-2-Chloro-3-((2,4-dichlorophenyl)(hydroxy)methyl)cyclohex-1-ene-1-carbaldehyde
_symmetry_cell_setting           triclinic
_symmetry_space_group_name_H-M   'P -1'
_symmetry_Int_Tables_number      2
_space_group_name_Hall           '-P 1'
loop_
_symmetry_equiv_pos_site_id
_symmetry_equiv_pos_as_xyz
1 x,y,z
2 -x,-y,-z
_cell_length_a                   7.4890(18)
_cell_length_b                   8.016(2)
_cell_length_c                   11.863(3)
_cell_angle_alpha                87.034(4)
_cell_angle_beta                 78.572(4)
_cell_angle_gamma                89.652(4)
_cell_volume                     697.097
_exptl_crystal_colour            'light yellow'
_chemical_melting_point          '149-151 deg.C'
_cell_formula_units_Z            2
loop_
_atom_site_label
_atom_site_type_symbol
_atom_site_fract_x
_atom_site_fract_y
_atom_site_fract_z
C1 C 0.5782(4) 0.2034(3) 0.7059(2)
C2 C 0.4499(4) 0.1963(3) 0.6382(2)
H1 H 0.3331 0.1565 0.6690
C3 C 0.4970(3) 0.2492(3) 0.5242(2)
C4 C 0.6715(3) 0.3123(3) 0.4754(2)
C5 C 0.7949(4) 0.3170(4) 0.5480(2)
H2 H 0.9114 0.3586 0.5185
C6 C 0.7520(4) 0.2625(4) 0.6620(2)
H3 H 0.8383 0.2655 0.7085
C7 C 0.7204(3) 0.3759(3) 0.3510(2)
H4 H 0.6171 0.4390 0.3317
C8 C 0.7633(3) 0.2289(3) 0.2688(2)
H5 H 0.6587 0.1525 0.2876
C9 C 0.7788(3) 0.2872(3) 0.1456(2)
C10 C 0.9248(4) 0.2707(3) 0.0606(2)
C11 C 1.0989(4) 0.1945(4) 0.0855(3)
H6 H 1.2020 0.2571 0.0412
H7 H 1.1084 0.0807 0.0608
C12 C 1.1076(4) 0.1934(5) 0.2120(3)
H8 H 1.2082 0.1241 0.2264
H9 H 1.1289 0.3060 0.2327
C13 C 0.9317(4) 0.1267(4) 0.2851(3)
H10 H 0.9413 0.1257 0.3655
H11 H 0.9148 0.0123 0.2664
C14 C 0.9254(4) 0.3245(4) -0.0582(3)
H12 H 0.8226 0.3774 -0.0755
Cl1 Cl 0.51869(12) 0.13518(11) 0.85088(7)
Cl2 Cl 0.33233(9) 0.23550(11) 0.44028(7)
Cl3 Cl 0.58002(11) 0.38039(12) 0.11585(7)
O1 O 0.8708(3) 0.4846(2) 0.33927(17)
H13 H 0.8751 0.5474 0.2820
O2 O 1.0548(3) 0.3035(3) -0.13612(18)
loop_
_geom_bond_atom_site_label_1
_geom_bond_atom_site_label_2
_geom_bond_site_symmetry_1
_geom_bond_site_symmetry_2
C1 C2 1_555 1_555
C2 H1 1_555 1_555
C3 C2 1_555 1_555
C4 C3 1_555 1_555
C5 C4 1_555 1_555
H2 C5 1_555 1_555
C6 C1 1_555 1_555
H3 C6 1_555 1_555
C7 C4 1_555 1_555
H4 C7 1_555 1_555
C8 C7 1_555 1_555
H5 C8 1_555 1_555
C9 C8 1_555 1_555
C10 C9 1_555 1_555
C11 C10 1_555 1_555
H6 C11 1_555 1_555
H7 C11 1_555 1_555
C12 C11 1_555 1_555
H8 C12 1_555 1_555
H9 C12 1_555 1_555
C13 C8 1_555 1_555
H10 C13 1_555 1_555
H11 C13 1_555 1_555
C14 C10 1_555 1_555
H12 C14 1_555 1_555
Cl1 C1 1_555 1_555
Cl2 C3 1_555 1_555
Cl3 C9 1_555 1_555
O1 C7 1_555 1_555
H13 O1 1_555 1_555
O2 C14 1_555 1_555
C5 C6 1_555 1_555
C12 C13 1_555 1_555

#END
