
#######################################################################
#
#                 Cambridge Crystallographic Data Centre
#                                CCDC 
#
#######################################################################
#
# If this CIF has been generated from an entry in the Cambridge 
# Structural Database, then it will include bibliographic, chemical, 
# crystal, experimental, refinement or atomic coordinate data resulting 
# from the CCDC's data processing and validation procedures.
#
#######################################################################

data_TAVKOT
_chemical_formula_moiety         'C27 H25 N1 O6'
_chemical_name_systematic        
'dimethyl 4-(4-nitrophenyl)-2,2-diphenylcyclopentane-1,1-dicarboxylate'
_symmetry_cell_setting           triclinic
_symmetry_space_group_name_H-M   'P -1'
_symmetry_Int_Tables_number      2
_space_group_name_Hall           '-P 1'
loop_
_symmetry_equiv_pos_site_id
_symmetry_equiv_pos_as_xyz
1 x,y,z
2 -x,-y,-z
_cell_length_a                   10.1298(11)
_cell_length_b                   15.0127(16)
_cell_length_c                   15.1065(16)
_cell_angle_alpha                86.442(2)
_cell_angle_beta                 84.339(3)
_cell_angle_gamma                88.611(3)
_cell_volume                     2281.34
_exptl_crystal_colour            colorless
_exptl_crystal_description       prismatic
_cell_formula_units_Z            4
loop_
_atom_site_label
_atom_site_type_symbol
_atom_site_fract_x
_atom_site_fract_y
_atom_site_fract_z
N1 N 1.2724(3) 0.01162(16) -0.21101(18)
O1 O 0.78488(16) 0.27957(10) 0.32950(10)
O2 O 0.91289(15) 0.15713(10) 0.33944(9)
O3 O 1.19553(16) 0.24881(11) 0.18166(11)
O4 O 1.09646(15) 0.30753(11) 0.30453(10)
O5 O 1.3643(2) -0.03641(14) -0.18759(16)
O6 O 1.2453(3) 0.02235(15) -0.28787(15)
C1 C 0.9574(2) 0.16173(13) 0.15499(13)
H1 H 1.0392 0.1278 0.1605
H2 H 0.8835 0.1240 0.1773
C2 C 0.9462(2) 0.19237(14) 0.05743(13)
H3 H 0.8536 0.1865 0.0455
C3 C 0.9768(2) 0.29183(13) 0.05328(13)
H4 H 0.9393 0.3229 0.0031
H5 H 1.0719 0.3007 0.0472
C4 C 0.9126(2) 0.32645(13) 0.14219(13)
C5 C 0.9559(2) 0.24678(13) 0.20904(13)
C6 C 0.8726(2) 0.23320(14) 0.29875(14)
C7 C 0.8451(3) 0.13341(16) 0.42583(14)
H6 H 0.8370 0.1849 0.4607
H7 H 0.8948 0.0874 0.4555
H8 H 0.7584 0.1122 0.4188
C8 C 1.0976(2) 0.26587(14) 0.22908(15)
C9 C 1.2205(3) 0.34463(19) 0.32272(18)
H9 H 1.2827 0.2971 0.3343
H10 H 1.2059 0.3798 0.3738
H11 H 1.2553 0.3816 0.2721
C10 C 0.9687(2) 0.41592(13) 0.16448(14)
C11 C 0.9127(2) 0.45875(15) 0.23878(15)
H12 H 0.8400 0.4339 0.2731
C12 C 0.9631(3) 0.53702(17) 0.26223(18)
H13 H 0.9242 0.5644 0.3121
C13 C 1.0700(3) 0.57515(17) 0.21283(19)
H14 H 1.1046 0.6277 0.2295
C14 C 1.1255(3) 0.53522(16) 0.13884(18)
H15 H 1.1976 0.5611 0.1047
C15 C 1.0748(2) 0.45642(15) 0.11442(16)
H16 H 1.1127 0.4304 0.0635
C16 C 0.7619(2) 0.33645(13) 0.13625(13)
C17 C 0.7131(2) 0.41705(15) 0.10105(15)
H17 H 0.7718 0.4630 0.0836
C18 C 0.5797(3) 0.43074(18) 0.09132(16)
H18 H 0.5499 0.4858 0.0688
C19 C 0.4907(3) 0.36336(19) 0.11474(16)
H19 H 0.4009 0.3724 0.1084
C20 C 0.5374(2) 0.28262(18) 0.14755(15)
H20 H 0.4785 0.2363 0.1629
C21 C 0.6708(2) 0.26907(15) 0.15812(13)
H21 H 0.7000 0.2137 0.1803
C22 C 1.0327(2) 0.14223(14) -0.01145(14)
C23 C 0.9889(3) 0.13146(17) -0.09391(15)
H22 H 0.9048 0.1527 -0.1051
C24 C 1.0665(3) 0.09003(18) -0.16003(17)
H23 H 1.0363 0.0845 -0.2156
C25 C 1.1882(3) 0.05739(15) -0.14221(16)
C26 C 1.2357(3) 0.06607(17) -0.06177(17)
H24 H 1.3191 0.0433 -0.0508
C27 C 1.1577(3) 0.10920(17) 0.00273(16)
H25 H 1.1900 0.1163 0.0573
N2 N 0.8270(2) 0.97446(13) 0.66625(15)
O7 O 0.39423(17) 0.55473(10) 0.28709(11)
O8 O 0.57229(16) 0.52238(10) 0.36003(10)
O9 O 0.71151(18) 0.75887(12) 0.27930(11)
O10 O 0.64262(16) 0.65126(10) 0.20027(10)
O11 O 0.9178(2) 1.01556(12) 0.62425(14)
O12 O 0.8019(2) 0.97480(13) 0.74712(13)
C28 C 0.5634(2) 0.68482(15) 0.43467(14)
H26 H 0.5376 0.6330 0.4735
H27 H 0.6590 0.6900 0.4316
C29 C 0.4951(2) 0.76943(14) 0.47112(14)
H28 H 0.4158 0.7518 0.5101
C30 C 0.4512(2) 0.82060(14) 0.38795(14)
H29 H 0.5244 0.8539 0.3568
H30 H 0.3789 0.8619 0.4039
C31 C 0.4055(2) 0.74856(14) 0.32906(13)
C32 C 0.5195(2) 0.67454(14) 0.33965(13)
C33 C 0.4837(2) 0.57925(14) 0.32501(14)
C34 C 0.5564(3) 0.42974(15) 0.34417(16)
H31 H 0.4695 0.4111 0.3683
H32 H 0.6221 0.3942 0.3725
H33 H 0.5670 0.4222 0.2812
C35 C 0.6365(2) 0.70109(15) 0.27087(15)
C36 C 0.7381(3) 0.67733(18) 0.12704(17)
H34 H 0.7138 0.7350 0.1020
H35 H 0.7399 0.6345 0.0823
H36 H 0.8243 0.6799 0.1479
C37 C 0.3994(2) 0.78449(14) 0.23128(13)
C38 C 0.3699(2) 0.72769(15) 0.16712(14)
H37 H 0.3525 0.6681 0.1837
C39 C 0.3659(3) 0.75786(17) 0.07931(15)
H38 H 0.3491 0.7182 0.0370
C40 C 0.3866(3) 0.84642(18) 0.05417(16)
H39 H 0.3840 0.8671 -0.0049
C41 C 0.4111(3) 0.90336(17) 0.11725(16)
H40 H 0.4228 0.9637 0.1011
C42 C 0.4187(2) 0.87289(15) 0.20435(15)
H41 H 0.4373 0.9128 0.2459
C43 C 0.2660(2) 0.71898(14) 0.36934(14)
C44 C 0.1566(2) 0.76700(16) 0.34354(16)
H42 H 0.1690 0.8128 0.2993
C45 C 0.0303(3) 0.7494(2) 0.38106(18)
H43 H -0.0410 0.7829 0.3619
C46 C 0.0089(3) 0.6829(2) 0.44647(19)
H44 H -0.0766 0.6709 0.4721
C47 C 0.1153(3) 0.63406(19) 0.47379(17)
H45 H 0.1016 0.5887 0.5183
C48 C 0.2432(2) 0.65155(16) 0.43586(15)
H46 H 0.3142 0.6178 0.4552
C49 C 0.5817(2) 0.82352(14) 0.52324(14)
C50 C 0.5429(2) 0.84203(15) 0.61081(14)
H47 H 0.4622 0.8213 0.6381
C51 C 0.6230(3) 0.89132(16) 0.65840(15)
H48 H 0.5969 0.9035 0.7172
C52 C 0.7414(2) 0.92158(14) 0.61679(15)
C53 C 0.7827(2) 0.90464(15) 0.53021(15)
H49 H 0.8634 0.9257 0.5033
C54 C 0.7023(2) 0.85578(16) 0.48385(15)
H50 H 0.7293 0.8441 0.4250
loop_
_geom_bond_atom_site_label_1
_geom_bond_atom_site_label_2
_geom_bond_site_symmetry_1
_geom_bond_site_symmetry_2
N1 O5 1_555 1_555
O1 C6 1_555 1_555
O2 C6 1_555 1_555
O3 C8 1_555 1_555
O4 C8 1_555 1_555
O6 N1 1_555 1_555
C1 H1 1_555 1_555
H2 C1 1_555 1_555
C2 C1 1_555 1_555
H3 C2 1_555 1_555
C3 C2 1_555 1_555
H4 C3 1_555 1_555
H5 C3 1_555 1_555
C4 C3 1_555 1_555
C5 C1 1_555 1_555
C6 C5 1_555 1_555
C7 O2 1_555 1_555
H6 C7 1_555 1_555
H7 C7 1_555 1_555
H8 C7 1_555 1_555
C8 C5 1_555 1_555
C9 O4 1_555 1_555
H9 C9 1_555 1_555
H10 C9 1_555 1_555
H11 C9 1_555 1_555
C10 C4 1_555 1_555
C11 C10 1_555 1_555
H12 C11 1_555 1_555
C12 C11 1_555 1_555
H13 C12 1_555 1_555
C13 C12 1_555 1_555
H14 C13 1_555 1_555
C14 C13 1_555 1_555
H15 C14 1_555 1_555
C15 C10 1_555 1_555
H16 C15 1_555 1_555
C16 C4 1_555 1_555
C17 C16 1_555 1_555
H17 C17 1_555 1_555
C18 C17 1_555 1_555
H18 C18 1_555 1_555
C19 C18 1_555 1_555
H19 C19 1_555 1_555
C20 C19 1_555 1_555
H20 C20 1_555 1_555
C21 C16 1_555 1_555
H21 C21 1_555 1_555
C22 C2 1_555 1_555
C23 C22 1_555 1_555
H22 C23 1_555 1_555
C24 C23 1_555 1_555
H23 C24 1_555 1_555
C25 N1 1_555 1_555
C26 C25 1_555 1_555
H24 C26 1_555 1_555
C27 C22 1_555 1_555
H25 C27 1_555 1_555
N2 O11 1_555 1_555
O7 C33 1_555 1_555
O8 C33 1_555 1_555
O9 C35 1_555 1_555
O10 C35 1_555 1_555
O12 N2 1_555 1_555
C28 H26 1_555 1_555
H27 C28 1_555 1_555
C29 C28 1_555 1_555
H28 C29 1_555 1_555
C30 C29 1_555 1_555
H29 C30 1_555 1_555
H30 C30 1_555 1_555
C31 C30 1_555 1_555
C32 C28 1_555 1_555
C33 C32 1_555 1_555
C34 O8 1_555 1_555
H31 C34 1_555 1_555
H32 C34 1_555 1_555
H33 C34 1_555 1_555
C35 C32 1_555 1_555
C36 O10 1_555 1_555
H34 C36 1_555 1_555
H35 C36 1_555 1_555
H36 C36 1_555 1_555
C37 C31 1_555 1_555
C38 C37 1_555 1_555
H37 C38 1_555 1_555
C39 C38 1_555 1_555
H38 C39 1_555 1_555
C40 C39 1_555 1_555
H39 C40 1_555 1_555
C41 C40 1_555 1_555
H40 C41 1_555 1_555
C42 C37 1_555 1_555
H41 C42 1_555 1_555
C43 C31 1_555 1_555
C44 C43 1_555 1_555
H42 C44 1_555 1_555
C45 C44 1_555 1_555
H43 C45 1_555 1_555
C46 C45 1_555 1_555
H44 C46 1_555 1_555
C47 C46 1_555 1_555
H45 C47 1_555 1_555
C48 C43 1_555 1_555
H46 C48 1_555 1_555
C49 C29 1_555 1_555
C50 C49 1_555 1_555
H47 C50 1_555 1_555
C51 C50 1_555 1_555
H48 C51 1_555 1_555
C52 N2 1_555 1_555
C53 C52 1_555 1_555
H49 C53 1_555 1_555
C54 C49 1_555 1_555
H50 C54 1_555 1_555
C4 C5 1_555 1_555
C14 C15 1_555 1_555
C20 C21 1_555 1_555
C24 C25 1_555 1_555
C26 C27 1_555 1_555
C31 C32 1_555 1_555
C41 C42 1_555 1_555
C47 C48 1_555 1_555
C51 C52 1_555 1_555
C53 C54 1_555 1_555

#END
