
#######################################################################
#
#                 Cambridge Crystallographic Data Centre
#                                CCDC 
#
#######################################################################
#
# If this CIF has been generated from an entry in the Cambridge 
# Structural Database, then it will include bibliographic, chemical, 
# crystal, experimental, refinement or atomic coordinate data resulting 
# from the CCDC's data processing and validation procedures.
#
#######################################################################

data_TAVLUA
_chemical_formula_moiety         'C10 H11 Cl1 N2 O1'
_chemical_name_systematic        
1-(2-chloroethyl)-3-methyl-1,3-dihydro-2H-benzimidazol-2-one
_symmetry_cell_setting           monoclinic
_symmetry_space_group_name_H-M   'P 21/c'
_symmetry_Int_Tables_number      14
_space_group_name_Hall           '-P 2ybc'
loop_
_symmetry_equiv_pos_site_id
_symmetry_equiv_pos_as_xyz
1 x,y,z
2 -x,1/2+y,1/2-z
3 -x,-y,-z
4 x,1/2-y,1/2+z
_cell_length_a                   8.603(4)
_cell_length_b                   4.480(2)
_cell_length_c                   26.119(12)
_cell_angle_alpha                90
_cell_angle_beta                 91.916(12)
_cell_angle_gamma                90
_cell_volume                     1006.1
_exptl_crystal_description       rod
_cell_formula_units_Z            4
loop_
_atom_site_label
_atom_site_type_symbol
_atom_site_fract_x
_atom_site_fract_y
_atom_site_fract_z
Cl1 Cl 0.7351(2) 0.2991(6) 0.63192(8)
O1 O 0.2930(5) 0.3461(12) 0.51513(17)
N1 N 0.1723(6) 0.5267(14) 0.5878(2)
N2 N 0.3690(6) 0.2162(13) 0.5988(2)
C1 C 0.2797(7) 0.3606(16) 0.5619(3)
C2 C 0.1916(7) 0.4796(15) 0.6404(2)
C3 C 0.3169(7) 0.2846(16) 0.6478(2)
C4 C 0.4885(8) 0.0045(19) 0.5860(3)
H1 H 0.4528 -0.1066 0.5559
H2 H 0.5012 -0.1365 0.6140
C5 C 0.6445(8) 0.137(2) 0.5755(3)
H3 H 0.6320 0.2898 0.5493
H4 H 0.7117 -0.0169 0.5624
C6 C 0.1128(8) 0.5918(19) 0.6814(3)
H5 H 0.0296 0.7221 0.6762
C7 C 0.3642(9) 0.192(2) 0.6965(3)
H6 H 0.4451 0.0563 0.7018
C8 C 0.0574(8) 0.723(2) 0.5619(3)
H7 H 0.0928 0.7751 0.5286
H8 H 0.0451 0.9014 0.5818
H9 H -0.0406 0.6215 0.5585
C9 C 0.2830(10) 0.314(2) 0.7373(3)
H10 H 0.3136 0.2623 0.7706
C10 C 0.1598(9) 0.507(2) 0.7299(3)
H11 H 0.1082 0.5810 0.7580
loop_
_geom_bond_atom_site_label_1
_geom_bond_atom_site_label_2
_geom_bond_site_symmetry_1
_geom_bond_site_symmetry_2
Cl1 C5 1_555 1_555
O1 C1 1_555 1_555
N1 C1 1_555 1_555
N2 C1 1_555 1_555
C2 N1 1_555 1_555
C3 N2 1_555 1_555
C4 N2 1_555 1_555
H1 C4 1_555 1_555
H2 C4 1_555 1_555
C5 C4 1_555 1_555
H3 C5 1_555 1_555
H4 C5 1_555 1_555
C6 C2 1_555 1_555
H5 C6 1_555 1_555
C7 C3 1_555 1_555
H6 C7 1_555 1_555
C8 N1 1_555 1_555
H7 C8 1_555 1_555
H8 C8 1_555 1_555
H9 C8 1_555 1_555
C9 C7 1_555 1_555
H10 C9 1_555 1_555
C10 C6 1_555 1_555
H11 C10 1_555 1_555
C2 C3 1_555 1_555
C9 C10 1_555 1_555

#END
