
#######################################################################
#
#                 Cambridge Crystallographic Data Centre
#                                CCDC 
#
#######################################################################
#
# If this CIF has been generated from an entry in the Cambridge 
# Structural Database, then it will include bibliographic, chemical, 
# crystal, experimental, refinement or atomic coordinate data resulting 
# from the CCDC's data processing and validation procedures.
#
#######################################################################

data_TAVLUZ
_chemical_formula_moiety         'C22 H23 Br1 N2 O4,0.5(C4 H8 O2)'
_chemical_name_systematic        
'Methyl (R)-2-(6-bromo-1H-indol-3-yl)2-((t-butoxycarbonyl)amino)-2-phenylacetate ethyl acetate solvate'
_symmetry_cell_setting           triclinic
_symmetry_space_group_name_H-M   'P 1'
_symmetry_Int_Tables_number      1
_space_group_name_Hall           'P 1'
loop_
_symmetry_equiv_pos_site_id
_symmetry_equiv_pos_as_xyz
1 x,y,z
_cell_length_a                   10.7199(5)
_cell_length_b                   11.4878(6)
_cell_length_c                   11.8139(6)
_cell_angle_alpha                69.346(1)
_cell_angle_beta                 86.124(1)
_cell_angle_gamma                63.647(1)
_cell_volume                     1212.99
_exptl_crystal_colour            colorless
_exptl_crystal_description       block
_cell_formula_units_Z            2
_exptl_crystal_recrystallization_method 'ethyl acetate/n-hexane'
loop_
_atom_site_label
_atom_site_type_symbol
_atom_site_fract_x
_atom_site_fract_y
_atom_site_fract_z
Br1 Br 0.61999(3) 0.22590(3) 0.64039(3)
O1 O 0.3893(3) 0.5195(3) -0.2086(2)
O2 O 0.5930(2) 0.5067(2) -0.15809(19)
O3 O 0.1491(2) 0.4193(2) 0.0248(2)
O4 O 0.2210(2) 0.5866(2) -0.01056(18)
N1 N 0.5629(2) 0.5593(2) 0.1812(2)
H1 H 0.5758 0.6260 0.1907
N2 N 0.3742(2) 0.3611(2) 0.0195(2)
H2 H 0.3826 0.2763 0.0398
C1 C 0.5632(3) 0.4460(3) 0.2730(3)
C2 C 0.5834(3) 0.4092(3) 0.3985(3)
H3 H 0.5978 0.4659 0.4333
C3 C 0.5814(3) 0.2863(3) 0.4688(2)
C4 C 0.5571(3) 0.2025(3) 0.4208(3)
H4 H 0.5543 0.1195 0.4738
C5 C 0.5372(3) 0.2399(3) 0.2966(3)
H5 H 0.5216 0.1828 0.2633
C6 C 0.5405(3) 0.3635(3) 0.2201(2)
C7 C 0.5259(3) 0.4339(3) 0.0903(2)
C8 C 0.5393(3) 0.5518(3) 0.0724(3)
H6 H 0.5331 0.6192 -0.0050
C9 C 0.5000(3) 0.3815(3) -0.0014(2)
C10 C 0.6234(3) 0.2429(3) 0.0025(2)
C11 C 0.7572(3) 0.2046(3) 0.0498(3)
H7 H 0.7712 0.2599 0.0865
C12 C 0.8700(3) 0.0860(3) 0.0433(3)
H8 H 0.9609 0.0607 0.0759
C13 C 0.8522(3) 0.0046(3) -0.0094(3)
H9 H 0.9302 -0.0762 -0.0137
C14 C 0.7194(3) 0.0415(3) -0.0565(3)
H10 H 0.7059 -0.0151 -0.0920
C15 C 0.6061(3) 0.1610(3) -0.0517(3)
H11 H 0.5157 0.1870 -0.0860
C16 C 0.4838(3) 0.4801(3) -0.1343(3)
C17 C 0.6050(5) 0.5682(4) -0.2850(3)
H12 H 0.6882 0.5842 -0.2934
H13 H 0.5215 0.6571 -0.3215
H14 H 0.6134 0.5051 -0.3265
C18 C 0.2455(3) 0.4668(3) 0.0090(2)
C19 C -0.0019(3) 0.5169(3) -0.0016(3)
C20 C -0.0326(5) 0.6151(5) -0.1326(4)
H15 H -0.0021 0.5611 -0.1862
H16 H 0.0178 0.6712 -0.1454
H17 H -0.1334 0.6765 -0.1512
C21 C -0.0470(4) 0.5920(4) 0.0874(4)
H18 H -0.0038 0.6547 0.0729
H19 H -0.0172 0.5237 0.1707
H20 H -0.1491 0.6462 0.0763
C22 C -0.0686(4) 0.4193(4) 0.0206(4)
H21 H -0.0396 0.3711 -0.0375
H22 H -0.1708 0.4732 0.0099
H23 H -0.0384 0.3506 0.1037
Br2 Br 0.21821(3) 0.31892(3) 0.60201(2)
O5 O 0.2127(2) 1.0740(2) 0.04816(18)
O6 O 0.3933(2) 1.0808(2) 0.12556(19)
O7 O 0.6285(2) 0.8007(2) 0.41106(18)
O8 O 0.5715(2) 0.7753(2) 0.24186(18)
N3 N 0.2288(2) 0.6863(2) 0.1774(2)
H24 H 0.2159 0.6520 0.1258
N4 N 0.4069(2) 0.8899(2) 0.3469(2)
H25 H 0.3933 0.9040 0.4162
C23 C 0.2333(3) 0.6310(3) 0.3008(2)
C24 C 0.2228(3) 0.5110(3) 0.3735(3)
H26 H 0.2100 0.4528 0.3396
C25 C 0.2318(3) 0.4815(3) 0.4961(3)
C26 C 0.2506(3) 0.5643(3) 0.5490(3)
H27 H 0.2554 0.5396 0.6348
C27 C 0.2621(3) 0.6821(3) 0.4763(3)
H28 H 0.2755 0.7389 0.5115
C28 C 0.2540(3) 0.7171(3) 0.3497(2)
C29 C 0.2619(3) 0.8287(3) 0.2482(2)
C30 C 0.2474(3) 0.8035(3) 0.1468(2)
H29 H 0.2499 0.8595 0.0661
C31 C 0.2853(3) 0.9451(3) 0.2603(3)
C32 C 0.1603(3) 1.0460(3) 0.3051(2)
C33 C 0.1731(3) 1.1513(3) 0.3282(3)
H30 H 0.2575 1.1601 0.3152
C34 C 0.0642(3) 1.2433(3) 0.3697(3)
H31 H 0.0738 1.3144 0.3859
C35 C -0.0588(3) 1.2310(4) 0.3875(3)
H32 H -0.1332 1.2929 0.4174
C36 C -0.0745(3) 1.1302(4) 0.3622(4)
H33 H -0.1602 1.1238 0.3726
C37 C 0.0355(3) 1.0374(3) 0.3211(3)
H34 H 0.0246 0.9674 0.3039
C38 C 0.3068(3) 1.0391(3) 0.1379(3)
C39 C 0.2284(4) 1.1549(3) -0.0713(3)
H35 H 0.1544 1.1745 -0.1296
H36 H 0.3200 1.1025 -0.0948
H37 H 0.2213 1.2428 -0.0709
C40 C 0.5393(3) 0.8182(3) 0.3248(2)
C41 C 0.7802(3) 0.7396(3) 0.4034(3)
C42 C 0.8138(3) 0.8229(3) 0.2855(3)
H38 H 0.7763 0.8143 0.2171
H39 H 0.9156 0.7873 0.2858
H40 H 0.7714 0.9211 0.2770
C43 C 0.8363(3) 0.7513(4) 0.5109(3)
H41 H 0.8002 0.8498 0.4998
H42 H 0.9388 0.7080 0.5169
H43 H 0.8062 0.7038 0.5857
C44 C 0.8345(4) 0.5876(3) 0.4176(3)
H44 H 0.7969 0.5825 0.3471
H45 H 0.8044 0.5390 0.4918
H46 H 0.9370 0.5435 0.4230
O9 O 0.3898(6) 0.9355(4) -0.4155(3)
O10 O 0.3033(5) 0.9221(6) -0.2412(4)
C45 C 0.5151(7) 0.9184(6) -0.2494(6)
H47 H 0.5867 0.9212 -0.3050
H48 H 0.5550 0.8311 -0.1789
H49 H 0.4827 0.9974 -0.2221
C46 C 0.3979(7) 0.9265(4) -0.3121(5)
C47 C 0.1942(10) 0.9129(16) -0.2999(14)
H50 H 0.1907 0.9543 -0.3894
H51 H 0.2154 0.8140 -0.2778
C48 C 0.0645(10) 0.9846(14) -0.2619(10)
H52 H -0.0046 0.9607 -0.2851
H53 H 0.0332 1.0851 -0.3007
H54 H 0.0744 0.9579 -0.1733
loop_
_geom_bond_atom_site_label_1
_geom_bond_atom_site_label_2
_geom_bond_site_symmetry_1
_geom_bond_site_symmetry_2
Br1 C3 1_555 1_555
O1 C16 1_555 1_555
O2 C16 1_555 1_555
O3 C18 1_555 1_555
O4 C18 1_555 1_555
N1 H1 1_555 1_555
N2 H2 1_555 1_555
C1 N1 1_555 1_555
C2 C1 1_555 1_555
H3 C2 1_555 1_555
C3 C2 1_555 1_555
C4 C3 1_555 1_555
H4 C4 1_555 1_555
C5 C4 1_555 1_555
H5 C5 1_555 1_555
C6 C1 1_555 1_555
C7 C6 1_555 1_555
C8 N1 1_555 1_555
H6 C8 1_555 1_555
C9 N2 1_555 1_555
C10 C9 1_555 1_555
C11 C10 1_555 1_555
H7 C11 1_555 1_555
C12 C11 1_555 1_555
H8 C12 1_555 1_555
C13 C12 1_555 1_555
H9 C13 1_555 1_555
C14 C13 1_555 1_555
H10 C14 1_555 1_555
C15 C10 1_555 1_555
H11 C15 1_555 1_555
C16 C9 1_555 1_555
C17 O2 1_555 1_555
H12 C17 1_555 1_555
H13 C17 1_555 1_555
H14 C17 1_555 1_555
C18 N2 1_555 1_555
C19 O3 1_555 1_555
C20 C19 1_555 1_555
H15 C20 1_555 1_555
H16 C20 1_555 1_555
H17 C20 1_555 1_555
C21 C19 1_555 1_555
H18 C21 1_555 1_555
H19 C21 1_555 1_555
H20 C21 1_555 1_555
C22 C19 1_555 1_555
H21 C22 1_555 1_555
H22 C22 1_555 1_555
H23 C22 1_555 1_555
Br2 C25 1_555 1_555
O5 C38 1_555 1_555
O6 C38 1_555 1_555
O7 C40 1_555 1_555
O8 C40 1_555 1_555
N3 H24 1_555 1_555
N4 H25 1_555 1_555
C23 N3 1_555 1_555
C24 C23 1_555 1_555
H26 C24 1_555 1_555
C25 C24 1_555 1_555
C26 C25 1_555 1_555
H27 C26 1_555 1_555
C27 C26 1_555 1_555
H28 C27 1_555 1_555
C28 C23 1_555 1_555
C29 C28 1_555 1_555
C30 N3 1_555 1_555
H29 C30 1_555 1_555
C31 N4 1_555 1_555
C32 C31 1_555 1_555
C33 C32 1_555 1_555
H30 C33 1_555 1_555
C34 C33 1_555 1_555
H31 C34 1_555 1_555
C35 C34 1_555 1_555
H32 C35 1_555 1_555
C36 C35 1_555 1_555
H33 C36 1_555 1_555
C37 C32 1_555 1_555
H34 C37 1_555 1_555
C38 C31 1_555 1_555
C39 O5 1_555 1_555
H35 C39 1_555 1_555
H36 C39 1_555 1_555
H37 C39 1_555 1_555
C40 N4 1_555 1_555
C41 O7 1_555 1_555
C42 C41 1_555 1_555
H38 C42 1_555 1_555
H39 C42 1_555 1_555
H40 C42 1_555 1_555
C43 C41 1_555 1_555
H41 C43 1_555 1_555
H42 C43 1_555 1_555
H43 C43 1_555 1_555
C44 C41 1_555 1_555
H44 C44 1_555 1_555
H45 C44 1_555 1_555
H46 C44 1_555 1_555
O9 C46 1_555 1_555
O10 C46 1_555 1_555
C45 H47 1_555 1_555
H48 C45 1_555 1_555
H49 C45 1_555 1_555
C46 C45 1_555 1_555
C47 O10 1_555 1_555
H50 C47 1_555 1_555
H51 C47 1_555 1_555
C48 C47 1_555 1_555
H52 C48 1_555 1_555
H53 C48 1_555 1_555
H54 C48 1_555 1_555
C5 C6 1_555 1_555
C7 C8 1_555 1_555
C7 C9 1_555 1_555
C14 C15 1_555 1_555
C27 C28 1_555 1_555
C29 C30 1_555 1_555
C29 C31 1_555 1_555
C36 C37 1_555 1_555

#END
