
#######################################################################
#
#                 Cambridge Crystallographic Data Centre
#                                CCDC 
#
#######################################################################
#
# If this CIF has been generated from an entry in the Cambridge 
# Structural Database, then it will include bibliographic, chemical, 
# crystal, experimental, refinement or atomic coordinate data resulting 
# from the CCDC's data processing and validation procedures.
#
#######################################################################

data_TAVMAG
_chemical_formula_moiety         'C31 H30 N2 O1'
_chemical_name_systematic        
(S)-N-(((S)-2-Benzyl-3,5-diphenyl-2,3-dihydro-1,2-oxazol-4-yl)methyl)-1-phenylethanamine
_symmetry_cell_setting           monoclinic
_symmetry_space_group_name_H-M   'P 21'
_symmetry_Int_Tables_number      4
_space_group_name_Hall           'P 2yb'
loop_
_symmetry_equiv_pos_site_id
_symmetry_equiv_pos_as_xyz
1 x,y,z
2 -x,1/2+y,-z
_cell_length_a                   14.962(3)
_cell_length_b                   5.6304(11)
_cell_length_c                   16.099(3)
_cell_angle_alpha                90
_cell_angle_beta                 114.56(3)
_cell_angle_gamma                90
_cell_volume                     1233.51
_exptl_crystal_colour            colorless
_exptl_crystal_description       block
_cell_formula_units_Z            2
_chemical_properties_physical    'air- and moisture-sensitive'
_exptl_crystal_recrystallization_method ethanol
loop_
_atom_site_label
_atom_site_type_symbol
_atom_site_fract_x
_atom_site_fract_y
_atom_site_fract_z
O1 O 0.33610(16) 0.8325(4) 0.67697(15)
N1 N 0.15512(18) 0.7272(5) 0.83689(17)
H1 H 0.1110 0.7459 0.7796
N2 N 0.25491(18) 1.0048(5) 0.62973(18)
C1 C 0.1493(2) 0.6934(7) 0.9867(2)
C2 C 0.2046(2) 0.4871(7) 1.0097(3)
H2 H 0.2143 0.4012 0.9633
C3 C 0.2458(3) 0.4037(8) 1.0979(3)
H3 H 0.2832 0.2614 1.1116
C4 C 0.2331(3) 0.5249(9) 1.1663(3)
H4 H 0.2613 0.4669 1.2272
C5 C 0.1791(3) 0.7315(9) 1.1453(3)
H5 H 0.1701 0.8174 1.1920
C6 C 0.1381(3) 0.8143(8) 1.0566(2)
H6 H 0.1012 0.9576 1.0432
C7 C 0.0992(2) 0.7819(7) 0.8901(2)
H7 H 0.0912 0.9580 0.8912
C8 C -0.0024(2) 0.6683(9) 0.8430(2)
H8 H 0.0041 0.4950 0.8466
H9 H -0.0327 0.7173 0.7788
H10 H -0.0438 0.7198 0.8735
C9 C 0.2372(2) 0.8911(6) 0.8537(2)
H11 H 0.2949 0.8396 0.9089
H12 H 0.2186 1.0524 0.8653
C10 C 0.2642(2) 0.8988(6) 0.7741(2)
C11 C 0.3320(2) 0.7771(6) 0.7586(2)
C12 C 0.4035(2) 0.5953(6) 0.8119(2)
C13 C 0.3830(2) 0.4443(6) 0.8693(2)
H13 H 0.3232 0.4615 0.8760
C14 C 0.4491(2) 0.2673(7) 0.9174(2)
H14 H 0.4350 0.1658 0.9575
C15 C 0.5355(2) 0.2398(7) 0.9065(2)
H15 H 0.5803 0.1172 0.9383
C16 C 0.5568(2) 0.3905(7) 0.8494(3)
H16 H 0.6162 0.3717 0.8421
C17 C 0.4919(2) 0.5677(7) 0.8030(2)
H17 H 0.5073 0.6723 0.7645
C18 C 0.2126(2) 1.0659(6) 0.6958(2)
H18 H 0.2310 1.2329 0.7173
C19 C 0.1018(2) 1.0420(6) 0.6550(2)
C20 C 0.0469(2) 1.2033(7) 0.6791(2)
H19 H 0.0779 1.3384 0.7148
C21 C -0.0534(2) 1.1685(7) 0.6514(2)
H20 H -0.0904 1.2787 0.6689
C22 C -0.0992(2) 0.9758(7) 0.5987(2)
H21 H -0.1677 0.9528 0.5799
C23 C -0.0455(2) 0.8152(7) 0.5731(2)
H22 H -0.0772 0.6818 0.5366
C24 C 0.0548(2) 0.8487(6) 0.6006(2)
H23 H 0.0913 0.7392 0.5821
C25 C 0.3032(2) 1.2073(7) 0.6088(2)
H24 H 0.3636 1.2467 0.6635
H25 H 0.2589 1.3466 0.5944
C26 C 0.3301(2) 1.1621(6) 0.5298(2)
C27 C 0.2971(2) 0.9631(7) 0.4743(2)
H26 H 0.2592 0.8460 0.4876
C28 C 0.3194(3) 0.9355(8) 0.3997(2)
H27 H 0.2963 0.7998 0.3617
C29 C 0.3747(3) 1.1030(8) 0.3800(2)
H28 H 0.3893 1.0830 0.3284
C30 C 0.4087(3) 1.2985(8) 0.4349(3)
H29 H 0.4475 1.4135 0.4218
C31 C 0.3862(2) 1.3278(7) 0.5094(2)
H30 H 0.4097 1.4639 0.5471
loop_
_geom_bond_atom_site_label_1
_geom_bond_atom_site_label_2
_geom_bond_site_symmetry_1
_geom_bond_site_symmetry_2
O1 N2 1_555 1_555
N1 H1 1_555 1_555
N2 C18 1_555 1_555
C1 C2 1_555 1_555
C2 H2 1_555 1_555
C3 C2 1_555 1_555
H3 C3 1_555 1_555
C4 C3 1_555 1_555
H4 C4 1_555 1_555
C5 C4 1_555 1_555
H5 C5 1_555 1_555
C6 C1 1_555 1_555
H6 C6 1_555 1_555
C7 N1 1_555 1_555
H7 C7 1_555 1_555
C8 C7 1_555 1_555
H8 C8 1_555 1_555
H9 C8 1_555 1_555
H10 C8 1_555 1_555
C9 N1 1_555 1_555
H11 C9 1_555 1_555
H12 C9 1_555 1_555
C10 C9 1_555 1_555
C11 O1 1_555 1_555
C12 C11 1_555 1_555
C13 C12 1_555 1_555
H13 C13 1_555 1_555
C14 C13 1_555 1_555
H14 C14 1_555 1_555
C15 C14 1_555 1_555
H15 C15 1_555 1_555
C16 C15 1_555 1_555
H16 C16 1_555 1_555
C17 C12 1_555 1_555
H17 C17 1_555 1_555
C18 C10 1_555 1_555
H18 C18 1_555 1_555
C19 C18 1_555 1_555
C20 C19 1_555 1_555
H19 C20 1_555 1_555
C21 C20 1_555 1_555
H20 C21 1_555 1_555
C22 C21 1_555 1_555
H21 C22 1_555 1_555
C23 C22 1_555 1_555
H22 C23 1_555 1_555
C24 C19 1_555 1_555
H23 C24 1_555 1_555
C25 N2 1_555 1_555
H24 C25 1_555 1_555
H25 C25 1_555 1_555
C26 C25 1_555 1_555
C27 C26 1_555 1_555
H26 C27 1_555 1_555
C28 C27 1_555 1_555
H27 C28 1_555 1_555
C29 C28 1_555 1_555
H28 C29 1_555 1_555
C30 C29 1_555 1_555
H29 C30 1_555 1_555
C31 C26 1_555 1_555
H30 C31 1_555 1_555
C1 C7 1_555 1_555
C5 C6 1_555 1_555
C10 C11 1_555 1_555
C16 C17 1_555 1_555
C23 C24 1_555 1_555
C30 C31 1_555 1_555

#END
