
#######################################################################
#
#                 Cambridge Crystallographic Data Centre
#                                CCDC 
#
#######################################################################
#
# If this CIF has been generated from an entry in the Cambridge 
# Structural Database, then it will include bibliographic, chemical, 
# crystal, experimental, refinement or atomic coordinate data resulting 
# from the CCDC's data processing and validation procedures.
#
#######################################################################

data_TAVMEL
_chemical_formula_moiety         'C10 H12 N2 O2'
_chemical_name_systematic        
1-(2-hydroxyethyl)-3-methyl-1,3-dihydro-2H-benzimidazol-2-one
_symmetry_cell_setting           orthorhombic
_symmetry_space_group_name_H-M   'P b c a'
_symmetry_Int_Tables_number      61
_space_group_name_Hall           '-P 2ac 2ab'
loop_
_symmetry_equiv_pos_site_id
_symmetry_equiv_pos_as_xyz
1 x,y,z
2 1/2-x,-y,1/2+z
3 -x,1/2+y,1/2-z
4 1/2+x,1/2-y,-z
5 -x,-y,-z
6 1/2+x,y,1/2-z
7 x,1/2-y,1/2+z
8 1/2-x,1/2+y,z
_cell_length_a                   7.1994(4)
_cell_length_b                   16.2551(10)
_cell_length_c                   16.4466(8)
_cell_angle_alpha                90
_cell_angle_beta                 90
_cell_angle_gamma                90
_cell_volume                     1924.7
_exptl_crystal_colour            white
_exptl_crystal_description       Prism
_cell_formula_units_Z            8
loop_
_atom_site_label
_atom_site_type_symbol
_atom_site_fract_x
_atom_site_fract_y
_atom_site_fract_z
O1 O 0.6321(2) 0.34208(10) 0.17835(10)
N1 N 0.5714(2) 0.21043(11) 0.22507(9)
N2 N 0.6231(2) 0.30724(11) 0.31641(10)
O2 O 0.3918(3) 0.46102(11) 0.34722(14)
H1 H 0.3201 0.4243 0.3336
C1 C 0.5623(3) 0.17313(12) 0.30048(12)
C2 C 0.5952(3) 0.23402(13) 0.35800(12)
C3 C 0.6113(3) 0.29249(14) 0.23407(13)
C4 C 0.5332(3) 0.09188(14) 0.32245(14)
H2 H 0.5114 0.0511 0.2839
C5 C 0.6806(3) 0.38513(15) 0.35248(15)
H3 H 0.7254 0.4211 0.3097
H4 H 0.7833 0.3749 0.3893
C6 C 0.5623(3) 0.16968(15) 0.14691(13)
H5 H 0.4956 0.2037 0.1092
H6 H 0.4994 0.1179 0.1527
H7 H 0.6858 0.1604 0.1270
C7 C 0.5287(4) 0.42857(16) 0.39819(16)
H8 H 0.4715 0.3902 0.4357
H9 H 0.5827 0.4728 0.4299
C8 C 0.5384(4) 0.07457(17) 0.40504(16)
H10 H 0.5186 0.0208 0.4223
C9 C 0.6015(3) 0.21561(17) 0.43964(13)
H11 H 0.6248 0.2560 0.4783
C10 C 0.5719(4) 0.13452(19) 0.46184(15)
H12 H 0.5748 0.1203 0.5166
loop_
_geom_bond_atom_site_label_1
_geom_bond_atom_site_label_2
_geom_bond_site_symmetry_1
_geom_bond_site_symmetry_2
O1 C3 1_555 1_555
N1 C1 1_555 1_555
N2 C2 1_555 1_555
O2 H1 1_555 1_555
C1 C2 1_555 1_555
C2 C9 1_555 1_555
C3 N1 1_555 1_555
C4 C1 1_555 1_555
H2 C4 1_555 1_555
C5 N2 1_555 1_555
H3 C5 1_555 1_555
H4 C5 1_555 1_555
C6 N1 1_555 1_555
H5 C6 1_555 1_555
H6 C6 1_555 1_555
H7 C6 1_555 1_555
C7 O2 1_555 1_555
H8 C7 1_555 1_555
H9 C7 1_555 1_555
C8 C4 1_555 1_555
H10 C8 1_555 1_555
C9 H11 1_555 1_555
C10 C8 1_555 1_555
H12 C10 1_555 1_555
N2 C3 1_555 1_555
C5 C7 1_555 1_555
C9 C10 1_555 1_555

#END
