
#######################################################################
#
#                 Cambridge Crystallographic Data Centre
#                                CCDC 
#
#######################################################################
#
# If this CIF has been generated from an entry in the Cambridge 
# Structural Database, then it will include bibliographic, chemical, 
# crystal, experimental, refinement or atomic coordinate data resulting 
# from the CCDC's data processing and validation procedures.
#
#######################################################################

data_TAVMIP
_chemical_formula_moiety         'C10 H12 N2 O1 S1'
_chemical_name_systematic        
1-(2-hydroxyethyl)-3-methyl-1,3-dihydro-2H-benzimidazole-2-thione
_symmetry_cell_setting           monoclinic
_symmetry_space_group_name_H-M   'P 21/n'
_symmetry_Int_Tables_number      14
_space_group_name_Hall           '-P 2yn'
loop_
_symmetry_equiv_pos_site_id
_symmetry_equiv_pos_as_xyz
1 x,y,z
2 1/2-x,1/2+y,1/2-z
3 -x,-y,-z
4 1/2+x,1/2-y,1/2+z
_cell_length_a                   7.0736(5)
_cell_length_b                   16.2384(11)
_cell_length_c                   9.0772(6)
_cell_angle_alpha                90
_cell_angle_beta                 96.072(3)
_cell_angle_gamma                90
_cell_volume                     1036.79
_exptl_crystal_colour            white
_exptl_crystal_description       Prism
_cell_formula_units_Z            4
loop_
_atom_site_label
_atom_site_type_symbol
_atom_site_fract_x
_atom_site_fract_y
_atom_site_fract_z
S1 S 0.66703(13) 0.64550(6) 0.12879(10)
N1 N 0.7491(3) 0.63146(14) 0.4288(3)
N2 N 0.6952(3) 0.51446(14) 0.3135(3)
O1 O 0.5407(5) 0.73951(15) 0.6148(3)
H1 H 0.4576 0.7710 0.6370
C1 C 0.7048(4) 0.59687(18) 0.2929(3)
C2 C 0.7698(4) 0.57051(18) 0.5353(3)
C3 C 0.7368(4) 0.49609(17) 0.4627(3)
C4 C 0.7796(6) 0.7195(2) 0.4559(4)
H2 H 0.8333 0.7436 0.3719
H3 H 0.8711 0.7265 0.5424
C5 C 0.6578(5) 0.4539(2) 0.1970(4)
H4 H 0.5791 0.4779 0.1155
H5 H 0.5937 0.4074 0.2343
H6 H 0.7758 0.4362 0.1641
C6 C 0.7487(5) 0.4219(2) 0.5371(5)
H7 H 0.7265 0.3722 0.4874
C7 C 0.8143(5) 0.5732(3) 0.6882(4)
H8 H 0.8346 0.6227 0.7388
C8 C 0.6021(7) 0.7641(2) 0.4799(5)
H9 H 0.6253 0.8230 0.4812
H10 H 0.5044 0.7521 0.3995
C9 C 0.7947(5) 0.4246(3) 0.6876(5)
H11 H 0.8045 0.3757 0.7411
C10 C 0.8267(5) 0.4980(4) 0.7610(5)
H12 H 0.8577 0.4973 0.8632
loop_
_geom_bond_atom_site_label_1
_geom_bond_atom_site_label_2
_geom_bond_site_symmetry_1
_geom_bond_site_symmetry_2
S1 C1 1_555 1_555
N1 C1 1_555 1_555
N2 C1 1_555 1_555
O1 H1 1_555 1_555
C2 N1 1_555 1_555
C3 N2 1_555 1_555
C4 N1 1_555 1_555
H2 C4 1_555 1_555
H3 C4 1_555 1_555
C5 N2 1_555 1_555
H4 C5 1_555 1_555
H5 C5 1_555 1_555
H6 C5 1_555 1_555
C6 C3 1_555 1_555
H7 C6 1_555 1_555
C7 C2 1_555 1_555
H8 C7 1_555 1_555
C8 O1 1_555 1_555
H9 C8 1_555 1_555
H10 C8 1_555 1_555
C9 C6 1_555 1_555
H11 C9 1_555 1_555
C10 C7 1_555 1_555
H12 C10 1_555 1_555
C2 C3 1_555 1_555
C4 C8 1_555 1_555
C9 C10 1_555 1_555

#END
