
#######################################################################
#
#                 Cambridge Crystallographic Data Centre
#                                CCDC 
#
#######################################################################
#
# If this CIF has been generated from an entry in the Cambridge 
# Structural Database, then it will include bibliographic, chemical, 
# crystal, experimental, refinement or atomic coordinate data resulting 
# from the CCDC's data processing and validation procedures.
#
#######################################################################

data_TAVROA
_chemical_formula_moiety         'C10 H12 N2 O1 Se1'
_chemical_name_systematic        
1-(2-hydroxyethyl)-3-methyl-1,3-dihydro-2H-benzimidazole-2-selenone
_symmetry_cell_setting           monoclinic
_symmetry_space_group_name_H-M   'P 21/c'
_symmetry_Int_Tables_number      14
_space_group_name_Hall           '-P 2ybc'
loop_
_symmetry_equiv_pos_site_id
_symmetry_equiv_pos_as_xyz
1 x,y,z
2 -x,1/2+y,1/2-z
3 -x,-y,-z
4 x,1/2-y,1/2+z
_cell_length_a                   7.0310(3)
_cell_length_b                   8.9908(4)
_cell_length_c                   16.7148(7)
_cell_angle_alpha                90
_cell_angle_beta                 94.577(2)
_cell_angle_gamma                90
_cell_volume                     1053.25
_exptl_crystal_colour            white
_exptl_crystal_description       Prism
_cell_formula_units_Z            4
loop_
_atom_site_label
_atom_site_type_symbol
_atom_site_fract_x
_atom_site_fract_y
_atom_site_fract_z
Se1 Se 0.75115(5) 0.10979(4) 0.64735(3)
N1 N 0.7912(3) 0.4241(3) 0.62398(15)
N2 N 0.7106(3) 0.3050(3) 0.51276(14)
O1 O 0.6137(5) 0.6296(3) 0.73253(18)
H1 H 0.5224 0.6479 0.7585
C1 C 0.7842(4) 0.5287(3) 0.56283(17)
C2 C 0.7350(4) 0.4521(4) 0.49220(18)
C3 C 0.7490(4) 0.2880(3) 0.59272(17)
C4 C 0.7186(4) 0.5241(4) 0.4182(2)
H2 H 0.6825 0.4736 0.3709
C5 C 0.8208(5) 0.6801(4) 0.5627(2)
H3 H 0.8523 0.7318 0.6101
C6 C 0.8556(5) 0.4540(4) 0.70762(19)
H4 H 0.9471 0.5350 0.7095
H5 H 0.9207 0.3667 0.7302
C7 C 0.6658(5) 0.1861(4) 0.4556(2)
H6 H 0.7816 0.1490 0.4361
H7 H 0.5839 0.2235 0.4114
H8 H 0.6023 0.1071 0.4814
C8 C 0.6968(6) 0.4941(4) 0.7586(2)
H9 H 0.6010 0.4163 0.7551
H10 H 0.7465 0.5028 0.8142
C9 C 0.8087(5) 0.7504(4) 0.4896(3)
H11 H 0.8346 0.8517 0.4874
C10 C 0.7587(5) 0.6738(5) 0.4188(3)
H12 H 0.7521 0.7254 0.3704
loop_
_geom_bond_atom_site_label_1
_geom_bond_atom_site_label_2
_geom_bond_site_symmetry_1
_geom_bond_site_symmetry_2
Se1 C3 1_555 1_555
N1 C1 1_555 1_555
N2 C2 1_555 1_555
O1 H1 1_555 1_555
C1 C2 1_555 1_555
C2 C4 1_555 1_555
C3 N1 1_555 1_555
C4 H2 1_555 1_555
C5 C1 1_555 1_555
H3 C5 1_555 1_555
C6 N1 1_555 1_555
H4 C6 1_555 1_555
H5 C6 1_555 1_555
C7 N2 1_555 1_555
H6 C7 1_555 1_555
H7 C7 1_555 1_555
H8 C7 1_555 1_555
C8 O1 1_555 1_555
H9 C8 1_555 1_555
H10 C8 1_555 1_555
C9 C5 1_555 1_555
H11 C9 1_555 1_555
C10 C4 1_555 1_555
H12 C10 1_555 1_555
N2 C3 1_555 1_555
C6 C8 1_555 1_555
C9 C10 1_555 1_555

#END
