
#######################################################################
#
#                 Cambridge Crystallographic Data Centre
#                                CCDC 
#
#######################################################################
#
# If this CIF has been generated from an entry in the Cambridge 
# Structural Database, then it will include bibliographic, chemical, 
# crystal, experimental, refinement or atomic coordinate data resulting 
# from the CCDC's data processing and validation procedures.
#
#######################################################################

data_TAWBUQ
_chemical_compound_source        
'endophytic fungus Cytospora sp. (from Ilex canariensis)'
_chemical_name_common            'Cytospolide P'
_chemical_formula_moiety         'C17 H28 O6'
_chemical_name_systematic        
'(3S,6R,9S,10R)-9-hydroxy-3-methyl-2,4-dioxo-10-pentyloxecan-6-yl acetate'
_symmetry_cell_setting           orthorhombic
_symmetry_space_group_name_H-M   'C 2 2 21'
_symmetry_Int_Tables_number      20
_space_group_name_Hall           'C 2n 2'
loop_
_symmetry_equiv_pos_site_id
_symmetry_equiv_pos_as_xyz
1 x,y,z
2 -x,-y,1/2+z
3 -x,y,1/2-z
4 x,-y,-z
5 1/2+x,1/2+y,z
6 1/2-x,1/2-y,1/2+z
7 1/2-x,1/2+y,1/2-z
8 1/2+x,1/2-y,-z
_cell_length_a                   5.1842(1)
_cell_length_b                   22.7750(4)
_cell_length_c                   30.4741(4)
_cell_angle_alpha                90
_cell_angle_beta                 90
_cell_angle_gamma                90
_cell_volume                     3598.08
_exptl_crystal_colour            colorless
_exptl_crystal_description       block
_chemical_melting_point          '103-104 deg.C'
_cell_formula_units_Z            8
loop_
_atom_site_label
_atom_site_type_symbol
_atom_site_fract_x
_atom_site_fract_y
_atom_site_fract_z
O1 O 0.8357(3) 0.87275(6) 0.37367(4)
O2 O 1.2527(3) 0.89441(9) 0.38223(5)
O3 O 0.6191(4) 0.83158(8) 0.47491(5)
O4 O 0.8819(4) 0.67532(7) 0.41452(5)
O5 O 0.5829(5) 0.62285(9) 0.44766(10)
O6 O 0.7459(4) 0.80231(9) 0.26795(4)
H1 H 0.9008 0.8007 0.2626
C1 C 1.0468(4) 0.88459(10) 0.39730(6)
C2 C 0.9785(5) 0.88414(10) 0.44592(6)
H2 H 1.1395 0.8827 0.4627
C3 C 0.8252(5) 0.82917(10) 0.45625(6)
C4 C 0.9422(5) 0.77113(10) 0.44323(7)
H3 H 1.0778 0.7780 0.4219
H4 H 1.0199 0.7531 0.4688
C5 C 0.7459(4) 0.72948(9) 0.42389(7)
H5 H 0.6135 0.7215 0.4461
C6 C 0.6142(4) 0.75131(10) 0.38243(7)
H6 H 0.5318 0.7885 0.3890
H7 H 0.4789 0.7237 0.3748
C7 C 0.7869(4) 0.75997(10) 0.34173(6)
H8 H 0.9641 0.7649 0.3512
H9 H 0.7789 0.7249 0.3237
C8 C 0.7089(4) 0.81284(9) 0.31395(6)
H10 H 0.5246 0.8200 0.3188
C9 C 0.8533(4) 0.86848(9) 0.32628(6)
H11 H 1.0347 0.8647 0.3177
C10 C 0.8370(7) 0.93979(11) 0.45820(8)
H12 H 0.7959 0.9390 0.4889
H13 H 0.6808 0.9426 0.4414
H14 H 0.9444 0.9731 0.4521
C11 C 0.7413(5) 0.92401(10) 0.30643(7)
H15 H 0.5639 0.9280 0.3161
H16 H 0.7391 0.9198 0.2748
C12 C 0.8858(5) 0.98010(11) 0.31797(8)
H17 H 0.8989 0.9830 0.3496
H18 H 1.0596 0.9775 0.3063
C13 C 0.7602(5) 1.03526(11) 0.30058(7)
H19 H 0.7499 1.0325 0.2689
H20 H 0.5853 1.0373 0.3118
C14 C 0.8981(6) 1.09126(11) 0.31240(9)
H21 H 0.9188 1.0930 0.3440
H22 H 1.0689 1.0907 0.2994
C15 C 0.7587(7) 1.14551(13) 0.29727(12)
H23 H 0.8565 1.1797 0.3053
H24 H 0.5919 1.1472 0.3109
H25 H 0.7387 1.1443 0.2660
C16 C 0.7819(5) 0.62525(11) 0.42847(7)
C17 C 0.9499(7) 0.57464(11) 0.41852(12)
H26 H 0.8705 0.5393 0.4291
H27 H 1.1138 0.5799 0.4327
H28 H 0.9747 0.5719 0.3874
loop_
_geom_bond_atom_site_label_1
_geom_bond_atom_site_label_2
_geom_bond_site_symmetry_1
_geom_bond_site_symmetry_2
O1 C1 1_555 1_555
O2 C1 1_555 1_555
O3 C3 1_555 1_555
O4 C5 1_555 1_555
O5 C16 1_555 1_555
O6 H1 1_555 1_555
C1 C2 1_555 1_555
C2 H2 1_555 1_555
C3 C2 1_555 1_555
C4 C3 1_555 1_555
H3 C4 1_555 1_555
H4 C4 1_555 1_555
C5 C4 1_555 1_555
H5 C5 1_555 1_555
C6 C5 1_555 1_555
H6 C6 1_555 1_555
H7 C6 1_555 1_555
C7 C6 1_555 1_555
H8 C7 1_555 1_555
H9 C7 1_555 1_555
C8 O6 1_555 1_555
H10 C8 1_555 1_555
C9 O1 1_555 1_555
H11 C9 1_555 1_555
C10 C2 1_555 1_555
H12 C10 1_555 1_555
H13 C10 1_555 1_555
H14 C10 1_555 1_555
C11 C9 1_555 1_555
H15 C11 1_555 1_555
H16 C11 1_555 1_555
C12 C11 1_555 1_555
H17 C12 1_555 1_555
H18 C12 1_555 1_555
C13 C12 1_555 1_555
H19 C13 1_555 1_555
H20 C13 1_555 1_555
C14 C13 1_555 1_555
H21 C14 1_555 1_555
H22 C14 1_555 1_555
C15 C14 1_555 1_555
H23 C15 1_555 1_555
H24 C15 1_555 1_555
H25 C15 1_555 1_555
C16 O4 1_555 1_555
C17 C16 1_555 1_555
H26 C17 1_555 1_555
H27 C17 1_555 1_555
H28 C17 1_555 1_555
C7 C8 1_555 1_555
C8 C9 1_555 1_555

#END
