
#######################################################################
#
#                 Cambridge Crystallographic Data Centre
#                                CCDC 
#
#######################################################################
#
# If this CIF has been generated from an entry in the Cambridge 
# Structural Database, then it will include bibliographic, chemical, 
# crystal, experimental, refinement or atomic coordinate data resulting 
# from the CCDC's data processing and validation procedures.
#
#######################################################################

data_TAWLUA
_chemical_formula_moiety         'C28 H22 N2 O4'
_chemical_name_systematic        
1,5-bis((2-Methoxyphenyl)amino)-9,10-anthraquinone
_symmetry_cell_setting           monoclinic
_symmetry_space_group_name_H-M   'P 21/c'
_symmetry_Int_Tables_number      14
_space_group_name_Hall           '-P 2ybc'
loop_
_symmetry_equiv_pos_site_id
_symmetry_equiv_pos_as_xyz
1 x,y,z
2 -x,1/2+y,1/2-z
3 -x,-y,-z
4 x,1/2-y,1/2+z
_cell_length_a                   7.3643(6)
_cell_length_b                   11.2230(9)
_cell_length_c                   13.6806(11)
_cell_angle_alpha                90
_cell_angle_beta                 103.139(6)
_cell_angle_gamma                90
_cell_volume                     1101.1
_cell_formula_units_Z            2
loop_
_atom_site_label
_atom_site_type_symbol
_atom_site_fract_x
_atom_site_fract_y
_atom_site_fract_z
O1 O 0.65980(14) 0.00067(9) 0.11632(8)
O2 O 0.46541(14) 0.32387(9) 0.12779(8)
N1 N 0.77219(17) 0.22200(10) 0.09999(9)
H1 H 0.6787 0.2208 0.1279
C1 C 0.5912(3) -0.11824(15) 0.10668(15)
H2 H 0.4573 -0.1171 0.0892
H3 H 0.6331 -0.1594 0.1693
H4 H 0.6367 -0.1585 0.0551
C2 C 0.8483(2) 0.01659(12) 0.14089(10)
C3 C 0.9766(2) -0.07176(13) 0.17620(12)
H5 H 0.9366 -0.1491 0.1837
C4 C 1.1651(2) -0.04507(16) 0.20049(13)
H6 H 1.2512 -0.1049 0.2242
C5 C 1.2257(2) 0.06819(16) 0.18996(13)
H7 H 1.3527 0.0852 0.2055
C6 C 1.0975(2) 0.15745(14) 0.15612(11)
H8 H 1.1390 0.2349 0.1504
C7 C 0.90875(19) 0.13330(12) 0.13073(10)
C8 C 0.77230(18) 0.30960(11) 0.03071(10)
C9 C 0.9033(2) 0.30936(13) -0.02985(11)
H9 H 0.9924 0.2493 -0.0217
C10 C 0.63603(17) 0.40190(11) 0.01570(9)
C11 C 0.48822(18) 0.40504(11) 0.07062(10)
C12 C 0.35763(18) 0.50816(11) 0.05593(9)
C13 C 0.2263(2) 0.51217(13) 0.11341(10)
H10 H 0.2240 0.4532 0.1608
C14 C 0.0980(2) 0.60434(14) 0.10033(11)
H11 H 0.0113 0.6075 0.1402
O1B O 0.34020(14) 0.99933(9) -0.11632(8)
O2B O 0.53459(14) 0.67613(9) -0.12779(8)
N1B N 0.22781(17) 0.77800(10) -0.09999(9)
H1B H 0.3213 0.7792 -0.1279
C1B C 0.4088(3) 1.11824(15) -0.10668(15)
H2B H 0.5427 1.1171 -0.0892
H3B H 0.3669 1.1594 -0.1693
H4B H 0.3633 1.1585 -0.0551
C2B C 0.1517(2) 0.98341(12) -0.14089(10)
C3B C 0.0234(2) 1.07176(13) -0.17620(12)
H5B H 0.0634 1.1491 -0.1837
C4B C -0.1651(2) 1.04507(16) -0.20049(13)
H6B H -0.2512 1.1049 -0.2242
C5B C -0.2257(2) 0.93181(16) -0.18996(13)
H7B H -0.3527 0.9148 -0.2055
C6B C -0.0975(2) 0.84255(14) -0.15612(11)
H8B H -0.1390 0.7651 -0.1504
C7B C 0.09125(19) 0.86670(12) -0.13073(10)
C8B C 0.22770(18) 0.69040(11) -0.03071(10)
C9B C 0.0967(2) 0.69064(13) 0.02985(11)
H9B H 0.0076 0.7507 0.0217
C10B C 0.36397(17) 0.59810(11) -0.01570(9)
C11B C 0.51178(18) 0.59496(11) -0.07062(10)
C12B C 0.64237(18) 0.49184(11) -0.05593(9)
C13B C 0.7737(2) 0.48783(13) -0.11341(10)
H10B H 0.7760 0.5468 -0.1608
C14B C 0.9020(2) 0.39566(14) -0.10033(11)
H11B H 0.9887 0.3925 -0.1402
loop_
_geom_bond_atom_site_label_1
_geom_bond_atom_site_label_2
_geom_bond_site_symmetry_1
_geom_bond_site_symmetry_2
O1 C1 1_555 1_555
O2 C11 1_555 1_555
N1 H1 1_555 1_555
C1 H2 1_555 1_555
H3 C1 1_555 1_555
H4 C1 1_555 1_555
C2 O1 1_555 1_555
C3 C2 1_555 1_555
H5 C3 1_555 1_555
C4 C3 1_555 1_555
H6 C4 1_555 1_555
C5 C4 1_555 1_555
H7 C5 1_555 1_555
C6 C5 1_555 1_555
H8 C6 1_555 1_555
C7 N1 1_555 1_555
C8 N1 1_555 1_555
C9 C8 1_555 1_555
H9 C9 1_555 1_555
C10 C8 1_555 1_555
C11 C10 1_555 1_555
C12 C11 1_555 1_555
C13 C12 1_555 1_555
H10 C13 1_555 1_555
C14 C13 1_555 1_555
H11 C14 1_555 1_555
O1B C1B 1_555 1_555
O2B C11B 1_555 1_555
N1B H1B 1_555 1_555
C1B H2B 1_555 1_555
H3B C1B 1_555 1_555
H4B C1B 1_555 1_555
C2B O1B 1_555 1_555
C3B C2B 1_555 1_555
H5B C3B 1_555 1_555
C4B C3B 1_555 1_555
H6B C4B 1_555 1_555
C5B C4B 1_555 1_555
H7B C5B 1_555 1_555
C6B C5B 1_555 1_555
H8B C6B 1_555 1_555
C7B N1B 1_555 1_555
C8B N1B 1_555 1_555
C9B C14 1_555 1_555
H9B C9B 1_555 1_555
C10B C12 1_555 1_555
C11B C10B 1_555 1_555
C12B C10 1_555 1_555
C13B C12B 1_555 1_555
H10B C13B 1_555 1_555
C14B C9 1_555 1_555
H11B C14B 1_555 1_555
C2 C7 1_555 1_555
C6 C7 1_555 1_555
C2B C7B 1_555 1_555
C6B C7B 1_555 1_555
C8B C9B 1_555 1_555
C8B C10B 1_555 1_555
C11B C12B 1_555 1_555
C13B C14B 1_555 1_555

#END
