
#######################################################################
#
#                 Cambridge Crystallographic Data Centre
#                                CCDC 
#
#######################################################################
#
# If this CIF has been generated from an entry in the Cambridge 
# Structural Database, then it will include bibliographic, chemical, 
# crystal, experimental, refinement or atomic coordinate data resulting 
# from the CCDC's data processing and validation procedures.
#
#######################################################################

data_TAWXOH
_chemical_formula_moiety         'C98 H96 O2,4(C2 H3 N1),1.5(C1 H2 Cl2)'
_chemical_name_systematic        
'5,8,14,17-tetra-t-butyl-1,3,10,12-tetrakis(4-t-butylphenyl)hexabenzo[bc,ef,hi,kl,no,qr]coronene-2,11-dione acetonitrile dichloromethane solvate'
_symmetry_cell_setting           triclinic
_symmetry_space_group_name_H-M   'P -1'
_symmetry_Int_Tables_number      2
_space_group_name_Hall           '-P 1'
loop_
_symmetry_equiv_pos_site_id
_symmetry_equiv_pos_as_xyz
1 x,y,z
2 -x,-y,-z
_cell_length_a                   14.6254(6)
_cell_length_b                   17.2301(7)
_cell_length_c                   19.4454(8)
_cell_angle_alpha                83.818(2)
_cell_angle_beta                 74.678(2)
_cell_angle_gamma                69.172(2)
_cell_volume                     4416.66
_exptl_crystal_colour            'dark green'
_exptl_crystal_description       Rod
_cell_formula_units_Z            2
loop_
_atom_site_label
_atom_site_type_symbol
_atom_site_fract_x
_atom_site_fract_y
_atom_site_fract_z
O1 O 0.5592(2) 0.87907(14) 0.37941(14)
O2 O 0.7828(2) 0.59369(14) 0.97622(12)
C1 C 0.6246(2) 0.84333(19) 0.41294(17)
C2 C 0.6746(2) 0.89169(18) 0.43732(16)
C3 C 0.7340(2) 0.85635(18) 0.48488(16)
C4 C 0.7520(2) 0.76933(18) 0.50430(16)
C5 C 0.7230(2) 0.71728(18) 0.46641(15)
C6 C 0.6520(2) 0.75387(18) 0.42796(16)
C7 C 0.8094(2) 0.78750(18) 0.60815(16)
C8 C 0.8314(2) 0.75742(17) 0.67339(16)
C9 C 0.8390(2) 0.67362(18) 0.69655(16)
C10 C 0.8345(2) 0.61885(18) 0.64751(16)
C11 C 0.8104(2) 0.64943(18) 0.58302(16)
C12 C 0.7910(2) 0.73570(18) 0.56383(16)
C13 C 0.8546(2) 0.56139(18) 0.78798(16)
C14 C 0.8512(2) 0.64529(18) 0.76456(16)
C15 C 0.8519(2) 0.70234(18) 0.81421(16)
C16 C 0.8288(2) 0.68581(18) 0.88592(17)
C17 C 0.8129(2) 0.60689(19) 0.91160(17)
C18 C 0.8331(2) 0.54322(18) 0.85918(17)
C19 C 0.6493(2) 0.97878(18) 0.40910(16)
C20 C 0.6900(2) 0.99345(18) 0.33771(17)
H1 H 0.7365 0.9482 0.3088
C21 C 0.6641(2) 1.07297(19) 0.30783(17)
H2 H 0.6933 1.0808 0.2590
C22 C 0.5965(2) 1.14115(18) 0.34782(17)
C23 C 0.5568(2) 1.12623(19) 0.42006(17)
H3 H 0.5112 1.1717 0.4491
C24 C 0.5822(2) 1.04697(18) 0.45016(17)
H4 H 0.5537 1.0391 0.4992
C25 C 0.5669(2) 1.23006(19) 0.31665(17)
C26 C 0.6032(3) 1.2309(2) 0.23526(19)
H5 H 0.5742 1.1982 0.2150
H6 H 0.6769 1.2069 0.2215
H7 H 0.5816 1.2883 0.2173
C27 C 0.4522(3) 1.2720(2) 0.33675(19)
H8 H 0.4281 1.2755 0.3888
H9 H 0.4208 1.2394 0.3187
H10 H 0.4341 1.3280 0.3157
C28 C 0.6162(3) 1.2791(2) 0.3475(2)
H11 H 0.5961 1.3366 0.3296
H12 H 0.6897 1.2534 0.3328
H13 H 0.5942 1.2786 0.3996
C29 C 0.7786(2) 0.90199(18) 0.51913(16)
C30 C 0.7913(2) 0.97688(18) 0.49220(16)
H14 H 0.7778 0.9966 0.4471
C31 C 0.8231(2) 1.02428(17) 0.52915(16)
C32 C 0.8454(2) 0.99382(18) 0.59358(17)
H15 H 0.8641 1.0264 0.6201
C33 C 0.8412(2) 0.91580(17) 0.62117(16)
C34 C 0.8092(2) 0.86901(17) 0.58276(16)
C35 C 0.8264(3) 1.11006(19) 0.49969(17)
C36 C 0.8622(3) 1.1091(2) 0.41788(19)
H16 H 0.9269 1.0641 0.4034
H17 H 0.8703 1.1623 0.4005
H18 H 0.8121 1.1001 0.3976
C37 C 0.7196(3) 1.1734(2) 0.5225(2)
H19 H 0.6731 1.1572 0.5038
H20 H 0.7196 1.2285 0.5036
H21 H 0.6980 1.1750 0.5747
C38 C 0.8981(3) 1.1366(2) 0.5294(2)
H22 H 0.8736 1.1418 0.5813
H23 H 0.9006 1.1903 0.5081
H24 H 0.9658 1.0948 0.5176
C39 C 0.8681(2) 0.88263(18) 0.68810(16)
C40 C 0.9082(2) 0.92290(18) 0.72540(17)
H25 H 0.9150 0.9747 0.7078
C41 C 0.9383(2) 0.88904(18) 0.78730(17)
C42 C 0.9207(2) 0.81587(18) 0.81535(17)
H26 H 0.9398 0.7925 0.8581
C43 C 0.8762(2) 0.77662(18) 0.78246(16)
C44 C 0.8564(2) 0.80656(18) 0.71547(16)
C45 C 0.9919(3) 0.92753(19) 0.82453(17)
C46 C 0.9967(3) 1.0108(2) 0.7906(2)
H27 H 1.0354 1.0024 0.7408
H28 H 1.0297 1.0339 0.8168
H29 H 0.9282 1.0494 0.7924
C47 C 0.9364(3) 0.9414(2) 0.90351(18)
H30 H 0.8670 0.9794 0.9073
H31 H 0.9713 0.9655 0.9271
H32 H 0.9353 0.8881 0.9265
C48 C 1.0996(3) 0.8670(2) 0.8185(2)
H33 H 1.0975 0.8129 0.8387
H34 H 1.1339 0.8886 0.8448
H35 H 1.1363 0.8608 0.7682
C49 C 0.7561(3) 0.8637(2) 1.05029(17)
C50 C 0.7077(3) 0.8820(2) 0.99465(17)
H36 H 0.6567 0.9346 0.9929
C51 C 0.7327(3) 0.82460(19) 0.94158(17)
H37 H 0.6986 0.8389 0.9042
C52 C 0.8064(2) 0.74691(18) 0.94215(16)
C53 C 0.8547(3) 0.72812(19) 0.99796(17)
H38 H 0.9046 0.6751 1.0002
C54 C 0.8306(3) 0.7859(2) 1.05024(17)
H39 H 0.8659 0.7721 1.0869
C55 C 0.7274(3) 0.9246(2) 1.11091(18)
C56 C 0.6567(4) 1.0109(2) 1.0951(2)
H40 H 0.5933 1.0068 1.0909
H41 H 0.6888 1.0328 1.0503
H42 H 0.6429 1.0483 1.1340
C57 C 0.8228(3) 0.9337(3) 1.1229(2)
H43 H 0.8041 0.9712 1.1627
H44 H 0.8569 0.9567 1.0796
H45 H 0.8683 0.8792 1.1340
C58 C 0.6741(3) 0.8892(2) 1.17927(19)
H46 H 0.6551 0.9272 1.2187
H47 H 0.7197 0.8350 1.1908
H48 H 0.6134 0.8829 1.1719
C59 C 0.5939(2) 0.71057(18) 0.40455(17)
C60 C 0.5803(3) 0.7177(2) 0.33532(19)
H49 H 0.6093 0.7513 0.3010
C61 C 0.5255(3) 0.6767(2) 0.3163(2)
H50 H 0.5181 0.6825 0.2687
C62 C 0.4801(3) 0.6267(2) 0.3643(2)
C63 C 0.4925(2) 0.6212(2) 0.43336(18)
H51 H 0.4620 0.5888 0.4680
C64 C 0.5482(2) 0.66167(19) 0.45305(17)
H52 H 0.5553 0.6559 0.5007
C65 C 0.4209(3) 0.5812(2) 0.3401(2)
C66 C 0.3223(5) 0.6442(3) 0.3284(5)
H53 H 0.2818 0.6722 0.3732
H54 H 0.2849 0.6156 0.3120
H55 H 0.3369 0.6853 0.2923
C67 C 0.4853(4) 0.5337(3) 0.2711(2)
H56 H 0.4486 0.5029 0.2567
H57 H 0.5491 0.4947 0.2796
H58 H 0.4991 0.5732 0.2332
C68 C 0.3980(4) 0.5158(3) 0.3951(2)
H59 H 0.3571 0.5429 0.4403
H60 H 0.4613 0.4749 0.4024
H61 H 0.3608 0.4879 0.3777
C69 C 0.8254(2) 0.48612(18) 0.42864(16)
C70 C 0.7823(2) 0.57217(19) 0.42123(16)
H62 H 0.7597 0.5942 0.3794
C71 C 0.7713(2) 0.62632(18) 0.47294(16)
C72 C 0.8103(2) 0.59355(18) 0.53341(16)
C73 C 0.8521(2) 0.50713(18) 0.54299(16)
C74 C 0.8592(2) 0.45461(18) 0.48947(16)
H63 H 0.8878 0.3962 0.4953
C75 C 0.8307(2) 0.42994(18) 0.37027(16)
C76 C 0.8849(3) 0.4564(2) 0.29780(18)
H64 H 0.8440 0.5122 0.2851
H65 H 0.8945 0.4172 0.2614
H66 H 0.9506 0.4568 0.3006
C77 C 0.7236(3) 0.4396(2) 0.3683(2)
H67 H 0.6887 0.4228 0.4146
H68 H 0.7262 0.4043 0.3310
H69 H 0.6872 0.4977 0.3581
C78 C 0.8870(3) 0.33831(19) 0.38357(19)
H70 H 0.9553 0.3314 0.3867
H71 H 0.8910 0.3053 0.3441
H72 H 0.8509 0.3195 0.4283
C79 C 0.8832(2) 0.47473(18) 0.60872(16)
C80 C 0.8640(2) 0.53141(18) 0.66282(16)
C81 C 0.8821(2) 0.50127(18) 0.73041(16)
C82 C 0.9299(2) 0.41678(18) 0.73956(16)
H73 H 0.9458 0.3969 0.7839
C83 C 0.9554(2) 0.35971(18) 0.68517(16)
C84 C 0.9292(2) 0.38953(18) 0.62151(16)
H74 H 0.9427 0.3512 0.5853
C85 C 1.0090(2) 0.26799(18) 0.69977(16)
C86 C 1.0270(3) 0.21356(19) 0.63715(18)
H75 H 1.0663 0.2327 0.5941
H76 H 0.9620 0.2173 0.6293
H77 H 1.0642 0.1558 0.6478
C87 C 0.9442(3) 0.2383(2) 0.76576(19)
H78 H 0.8796 0.2438 0.7564
H79 H 0.9322 0.2723 0.8067
H80 H 0.9796 0.1801 0.7762
C88 C 1.1112(3) 0.2578(2) 0.7140(2)
H81 H 1.1469 0.1990 0.7225
H82 H 1.1001 0.2897 0.7561
H83 H 1.1517 0.2783 0.6726
C89 C 0.8196(2) 0.46376(18) 0.88963(16)
C90 C 0.7472(2) 0.43807(19) 0.87476(18)
H84 H 0.7050 0.4722 0.8457
C91 C 0.7353(3) 0.3633(2) 0.90165(18)
H85 H 0.6851 0.3473 0.8906
C92 C 0.7955(3) 0.31128(19) 0.94448(17)
C93 C 0.8659(3) 0.3384(2) 0.96072(18)
H86 H 0.9071 0.3049 0.9907
C94 C 0.8777(3) 0.4134(2) 0.93409(18)
H87 H 0.9263 0.4304 0.9465
C95 C 0.7829(3) 0.2284(2) 0.97521(18)
C96 C 0.7259(4) 0.1983(2) 0.9343(2)
H88 H 0.7615 0.1928 0.8838
H89 H 0.6576 0.2386 0.9392
H90 H 0.7222 0.1443 0.9538
C97 C 0.8859(3) 0.1612(2) 0.9715(2)
H91 H 0.8767 0.1089 0.9908
H92 H 0.9222 0.1781 0.9996
H93 H 0.9248 0.1537 0.9218
C98 C 0.7243(3) 0.2422(2) 1.05343(19)
H94 H 0.7153 0.1902 1.0744
H95 H 0.6581 0.2852 1.0562
H96 H 0.7620 0.2598 1.0797
N1 N 0.3952(3) 0.1145(3) 0.2047(2)
C99 C 0.4097(3) 0.0796(2) 0.2556(2)
C100 C 0.4286(3) 0.0351(3) 0.3200(2)
H97 H 0.4969 -0.0059 0.3099
H98 H 0.3795 0.0068 0.3386
H99 H 0.4224 0.0742 0.3554
N2 N 0.5594(6) 0.6104(4) 0.8571(6)
C101 C 0.5599(5) 0.6663(4) 0.8839(5)
C102 C 0.5566(4) 0.7366(4) 0.9180(4)
H100 H 0.4882 0.7634 0.9469
H101 H 0.5754 0.7760 0.8818
H102 H 0.6040 0.7188 0.9488
C103 C 0.6958(15) 0.0447(11) 0.8314(9)
H103 H 0.7512 0.0542 0.8455
H104 H 0.7159 -0.0143 0.8191
Cl1 Cl 0.55835(15) 0.08436(12) 0.90986(12)
Cl2 Cl 0.6569(3) 0.11137(17) 0.76388(14)
N3 N 0.5135(8) 0.6074(7) 0.0435(6)
C104 C 0.5671(11) 0.5508(10) 0.0599(7)
C105 C 0.6465(9) 0.4762(7) 0.0818(6)
H105 H 0.6553 0.4864 0.1278
H106 H 0.7105 0.4660 0.0458
H107 H 0.6254 0.4275 0.0861
N4 N 0.7784(8) 0.6387(5) 0.1885(5)
C106 C 0.6383(7) 0.7063(5) 0.1193(4)
H108 H 0.6686 0.6915 0.0690
H109 H 0.6143 0.7668 0.1237
H110 H 0.5814 0.6861 0.1374
C107 C 0.7142(8) 0.6679(5) 0.1610(5)
C108? C 0.5989(14) 0.1508(12) 0.8011(12)
H111? H 0.5714 0.1998 0.8322
H112? H 0.5493 0.1514 0.7746
Cl3? Cl 0.7232(7) 0.1411(4) 0.7421(4)
Cl4? Cl 0.6409(7) 0.0554(5) 0.8486(5)
N5? N 0.5864(10) 0.5073(9) 0.0532(7)
C109? C 0.5457(10) 0.5966(10) 0.0807(7)
C110? C 0.5178(9) 0.6604(7) 0.1036(6)
H113? H 0.5747 0.6728 0.1114
H114? H 0.4682 0.6625 0.1491
H115? H 0.4863 0.7015 0.0703
Cl5? Cl 0.2268(4) 0.6027(4) 0.8436(3)
Cl6? Cl 0.0695(2) 0.5277(2) 0.90395(16)
C111? C 0.1999(12) 0.5098(11) 0.8772(8)
H116? H 0.2316 0.4673 0.8397
H117? H 0.2300 0.4879 0.9184
N6? N 0.1203(9) 0.6551(8) 0.8645(6)
C112? C 0.0987(11) 0.5945(10) 0.8844(7)
C113? C 0.1242(13) 0.4744(10) 0.8862(8)
H118? H 0.0798 0.4634 0.8615
H119? H 0.1107 0.4546 0.9357
H120? H 0.1947 0.4455 0.8622
loop_
_geom_bond_atom_site_label_1
_geom_bond_atom_site_label_2
_geom_bond_site_symmetry_1
_geom_bond_site_symmetry_2
O1 C1 1_555 1_555
O2 C17 1_555 1_555
C1 C2 1_555 1_555
C2 C3 1_555 1_555
C3 C4 1_555 1_555
C4 C5 1_555 1_555
C5 C6 1_555 1_555
C6 C1 1_555 1_555
C7 C8 1_555 1_555
C8 C9 1_555 1_555
C9 C10 1_555 1_555
C10 C11 1_555 1_555
C11 C12 1_555 1_555
C12 C4 1_555 1_555
C13 C14 1_555 1_555
C14 C9 1_555 1_555
C15 C14 1_555 1_555
C16 C15 1_555 1_555
C17 C16 1_555 1_555
C18 C13 1_555 1_555
C19 C2 1_555 1_555
C20 C19 1_555 1_555
H1 C20 1_555 1_555
C21 C20 1_555 1_555
H2 C21 1_555 1_555
C22 C21 1_555 1_555
C23 C22 1_555 1_555
H3 C23 1_555 1_555
C24 C19 1_555 1_555
H4 C24 1_555 1_555
C25 C22 1_555 1_555
C26 C25 1_555 1_555
H5 C26 1_555 1_555
H6 C26 1_555 1_555
H7 C26 1_555 1_555
C27 C25 1_555 1_555
H8 C27 1_555 1_555
H9 C27 1_555 1_555
H10 C27 1_555 1_555
C28 C25 1_555 1_555
H11 C28 1_555 1_555
H12 C28 1_555 1_555
H13 C28 1_555 1_555
C29 C3 1_555 1_555
C30 C29 1_555 1_555
H14 C30 1_555 1_555
C31 C30 1_555 1_555
C32 C31 1_555 1_555
H15 C32 1_555 1_555
C33 C32 1_555 1_555
C34 C7 1_555 1_555
C35 C31 1_555 1_555
C36 C35 1_555 1_555
H16 C36 1_555 1_555
H17 C36 1_555 1_555
H18 C36 1_555 1_555
C37 C35 1_555 1_555
H19 C37 1_555 1_555
H20 C37 1_555 1_555
H21 C37 1_555 1_555
C38 C35 1_555 1_555
H22 C38 1_555 1_555
H23 C38 1_555 1_555
H24 C38 1_555 1_555
C39 C33 1_555 1_555
C40 C39 1_555 1_555
H25 C40 1_555 1_555
C41 C40 1_555 1_555
C42 C41 1_555 1_555
H26 C42 1_555 1_555
C43 C15 1_555 1_555
C44 C8 1_555 1_555
C45 C41 1_555 1_555
C46 C45 1_555 1_555
H27 C46 1_555 1_555
H28 C46 1_555 1_555
H29 C46 1_555 1_555
C47 C45 1_555 1_555
H30 C47 1_555 1_555
H31 C47 1_555 1_555
H32 C47 1_555 1_555
C48 C45 1_555 1_555
H33 C48 1_555 1_555
H34 C48 1_555 1_555
H35 C48 1_555 1_555
C49 C50 1_555 1_555
C50 H36 1_555 1_555
C51 C50 1_555 1_555
H37 C51 1_555 1_555
C52 C16 1_555 1_555
C53 C52 1_555 1_555
H38 C53 1_555 1_555
C54 C49 1_555 1_555
H39 C54 1_555 1_555
C55 C49 1_555 1_555
C56 C55 1_555 1_555
H40 C56 1_555 1_555
H41 C56 1_555 1_555
H42 C56 1_555 1_555
C57 C55 1_555 1_555
H43 C57 1_555 1_555
H44 C57 1_555 1_555
H45 C57 1_555 1_555
C58 C55 1_555 1_555
H46 C58 1_555 1_555
H47 C58 1_555 1_555
H48 C58 1_555 1_555
C59 C6 1_555 1_555
C60 C59 1_555 1_555
H49 C60 1_555 1_555
C61 C60 1_555 1_555
H50 C61 1_555 1_555
C62 C61 1_555 1_555
C63 C62 1_555 1_555
H51 C63 1_555 1_555
C64 C59 1_555 1_555
H52 C64 1_555 1_555
C65 C62 1_555 1_555
C66 C65 1_555 1_555
H53 C66 1_555 1_555
H54 C66 1_555 1_555
H55 C66 1_555 1_555
C67 C65 1_555 1_555
H56 C67 1_555 1_555
H57 C67 1_555 1_555
H58 C67 1_555 1_555
C68 C65 1_555 1_555
H59 C68 1_555 1_555
H60 C68 1_555 1_555
H61 C68 1_555 1_555
C69 C70 1_555 1_555
C70 H62 1_555 1_555
C71 C5 1_555 1_555
C72 C11 1_555 1_555
C73 C72 1_555 1_555
C74 C69 1_555 1_555
H63 C74 1_555 1_555
C75 C69 1_555 1_555
C76 C75 1_555 1_555
H64 C76 1_555 1_555
H65 C76 1_555 1_555
H66 C76 1_555 1_555
C77 C75 1_555 1_555
H67 C77 1_555 1_555
H68 C77 1_555 1_555
H69 C77 1_555 1_555
C78 C75 1_555 1_555
H70 C78 1_555 1_555
H71 C78 1_555 1_555
H72 C78 1_555 1_555
C79 C73 1_555 1_555
C80 C10 1_555 1_555
C81 C13 1_555 1_555
C82 C81 1_555 1_555
H73 C82 1_555 1_555
C83 C82 1_555 1_555
C84 C79 1_555 1_555
H74 C84 1_555 1_555
C85 C83 1_555 1_555
C86 C85 1_555 1_555
H75 C86 1_555 1_555
H76 C86 1_555 1_555
H77 C86 1_555 1_555
C87 C85 1_555 1_555
H78 C87 1_555 1_555
H79 C87 1_555 1_555
H80 C87 1_555 1_555
C88 C85 1_555 1_555
H81 C88 1_555 1_555
H82 C88 1_555 1_555
H83 C88 1_555 1_555
C89 C18 1_555 1_555
C90 C89 1_555 1_555
H84 C90 1_555 1_555
C91 C90 1_555 1_555
H85 C91 1_555 1_555
C92 C91 1_555 1_555
C93 C92 1_555 1_555
H86 C93 1_555 1_555
C94 C89 1_555 1_555
H87 C94 1_555 1_555
C95 C92 1_555 1_555
C96 C95 1_555 1_555
H88 C96 1_555 1_555
H89 C96 1_555 1_555
H90 C96 1_555 1_555
C97 C95 1_555 1_555
H91 C97 1_555 1_555
H92 C97 1_555 1_555
H93 C97 1_555 1_555
C98 C95 1_555 1_555
H94 C98 1_555 1_555
H95 C98 1_555 1_555
H96 C98 1_555 1_555
N1 C99 1_555 1_555
C99 C100 1_555 1_555
C100 H97 1_555 1_555
H98 C100 1_555 1_555
H99 C100 1_555 1_555
N2 C101 1_555 1_555
C101 C102 1_555 1_555
C102 H100 1_555 1_555
H101 C102 1_555 1_555
H102 C102 1_555 1_555
C103 H103 1_555 1_555
H104 C103 1_555 1_555
Cl1 C103 1_555 1_555
Cl2 C103 1_555 1_555
N3 C104 1_555 1_555
C104 C105 1_555 1_555
C105 H105 1_555 1_555
H106 C105 1_555 1_555
H107 C105 1_555 1_555
N4 C107 1_555 1_555
C106 H108 1_555 1_555
H109 C106 1_555 1_555
H110 C106 1_555 1_555
C107 C106 1_555 1_555
C7 C12 1_555 1_555
C17 C18 1_555 1_555
C23 C24 1_555 1_555
C29 C34 1_555 1_555
C33 C34 1_555 1_555
C39 C44 1_555 1_555
C42 C43 1_555 1_555
C43 C44 1_555 1_555
C51 C52 1_555 1_555
C53 C54 1_555 1_555
C63 C64 1_555 1_555
C70 C71 1_555 1_555
C71 C72 1_555 1_555
C73 C74 1_555 1_555
C79 C80 1_555 1_555
C80 C81 1_555 1_555
C83 C84 1_555 1_555
C93 C94 1_555 1_555

#END
