
#######################################################################
#
#                 Cambridge Crystallographic Data Centre
#                                CCDC 
#
#######################################################################
#
# If this CIF has been generated from an entry in the Cambridge 
# Structural Database, then it will include bibliographic, chemical, 
# crystal, experimental, refinement or atomic coordinate data resulting 
# from the CCDC's data processing and validation procedures.
#
#######################################################################

data_TAWZEY
_chemical_formula_moiety         'C9 H10 N4 S1'
_chemical_name_systematic        
1-(1-Phenylethyl)-1,4-dihydro-5H-tetrazole-5-thione
_symmetry_cell_setting           orthorhombic
_symmetry_space_group_name_H-M   'P 21 21 21'
_symmetry_Int_Tables_number      19
_space_group_name_Hall           'P 2ac 2ab'
loop_
_symmetry_equiv_pos_site_id
_symmetry_equiv_pos_as_xyz
1 x,y,z
2 1/2-x,-y,1/2+z
3 -x,1/2+y,1/2-z
4 1/2+x,1/2-y,-z
_cell_length_a                   7.4286(12)
_cell_length_b                   9.3432(15)
_cell_length_c                   30.583(5)
_cell_angle_alpha                90
_cell_angle_beta                 90
_cell_angle_gamma                90
_cell_volume                     2122.67
_exptl_crystal_colour            colorless
_exptl_crystal_description       block
_cell_formula_units_Z            8
loop_
_atom_site_label
_atom_site_type_symbol
_atom_site_fract_x
_atom_site_fract_y
_atom_site_fract_z
S1 S 0.69566(7) 0.58589(6) 0.190173(16)
N1 N 0.9283(2) 0.5193(2) 0.12432(5)
N2 N 1.0972(3) 0.5474(2) 0.11107(5)
N3 N 1.1662(2) 0.6332(2) 0.13875(5)
N4 N 1.03936(19) 0.66027(18) 0.17005(4)
C1 C 0.8863(2) 0.5879(2) 0.16134(5)
C2 C 1.0754(2) 0.7533(2) 0.20787(6)
H1 H 0.9612 0.7978 0.2164
C3 C 1.2036(3) 0.8721(2) 0.19492(6)
H2 H 1.1549 0.9236 0.1705
H3 H 1.3178 0.8317 0.1870
H4 H 1.2194 0.9364 0.2191
C4 C 1.1429(2) 0.66830(19) 0.24630(5)
C5 C 1.0901(3) 0.7059(3) 0.28800(6)
H5 H 1.0071 0.7792 0.2921
C6 C 1.1609(4) 0.6343(3) 0.32367(7)
H6 H 1.1267 0.6611 0.3518
C7 C 1.2803(3) 0.5251(3) 0.31810(8)
H7 H 1.3272 0.4778 0.3423
C8 C 1.3313(3) 0.4847(3) 0.27670(9)
H8 H 1.4113 0.4092 0.2728
C9 C 1.2634(3) 0.5565(2) 0.24130(6)
H9 H 1.2990 0.5296 0.2133
H19 H 0.857(3) 0.468(3) 0.1068(7)
S2 S 0.65627(8) 0.34342(7) 0.062753(15)
N5 N 0.4749(2) 0.33556(18) 0.14014(5)
N6 N 0.3325(3) 0.2712(2) 0.15857(5)
N7 N 0.2630(2) 0.1887(2) 0.13000(5)
N8 N 0.36080(19) 0.20111(16) 0.09273(4)
C10 C 0.4984(3) 0.2942(2) 0.09848(5)
C11 C 0.3175(2) 0.1190(2) 0.05262(5)
H10 H 0.3291 0.1841 0.0276
C12 C 0.1235(3) 0.0684(3) 0.05444(7)
H11 H 0.0454 0.1492 0.0584
H12 H 0.1089 0.0033 0.0785
H13 H 0.0936 0.0207 0.0276
C13 C 0.4508(3) -0.0008(2) 0.04644(5)
C14 C 0.4621(3) -0.1127(2) 0.07576(6)
H14 H 0.3865 -0.1138 0.1000
C15 C 0.5832(4) -0.2231(3) 0.06990(8)
H15 H 0.5899 -0.2973 0.0901
C16 C 0.6940(5) -0.2225(3) 0.03387(10)
H16 H 0.7757 -0.2966 0.0296
C17 C 0.6839(4) -0.1124(3) 0.00431(9)
H17 H 0.7587 -0.1125 -0.0201
C18 C 0.5634(3) -0.0011(3) 0.01044(6)
H18 H 0.5583 0.0735 -0.0097
H20 H 0.539(3) 0.397(2) 0.1560(6)
loop_
_geom_bond_atom_site_label_1
_geom_bond_atom_site_label_2
_geom_bond_site_symmetry_1
_geom_bond_site_symmetry_2
S1 C1 1_555 1_555
S2 C10 1_555 1_555
N1 N2 1_555 1_555
N2 N3 1_555 1_555
N3 N4 1_555 1_555
N4 C1 1_555 1_555
N5 N6 1_555 1_555
N6 N7 1_555 1_555
N7 N8 1_555 1_555
N8 C10 1_555 1_555
C1 N1 1_555 1_555
C2 N4 1_555 1_555
H1 C2 1_555 1_555
C3 C2 1_555 1_555
H2 C3 1_555 1_555
H3 C3 1_555 1_555
H4 C3 1_555 1_555
C4 C2 1_555 1_555
C5 C4 1_555 1_555
H5 C5 1_555 1_555
C6 C5 1_555 1_555
H6 C6 1_555 1_555
C7 C6 1_555 1_555
H7 C7 1_555 1_555
C8 C7 1_555 1_555
H8 C8 1_555 1_555
C9 C4 1_555 1_555
H9 C9 1_555 1_555
C10 N5 1_555 1_555
C11 N8 1_555 1_555
H10 C11 1_555 1_555
C12 C11 1_555 1_555
H11 C12 1_555 1_555
H12 C12 1_555 1_555
H13 C12 1_555 1_555
C13 C11 1_555 1_555
C14 C13 1_555 1_555
H14 C14 1_555 1_555
C15 C14 1_555 1_555
H15 C15 1_555 1_555
C16 C15 1_555 1_555
H16 C16 1_555 1_555
C17 C16 1_555 1_555
H17 C17 1_555 1_555
C18 C13 1_555 1_555
H18 C18 1_555 1_555
H19 N1 1_555 1_555
H20 N5 1_555 1_555
C8 C9 1_555 1_555
C17 C18 1_555 1_555

#END
