
#######################################################################
#
#                 Cambridge Crystallographic Data Centre
#                                CCDC 
#
#######################################################################
#
# If this CIF has been generated from an entry in the Cambridge 
# Structural Database, then it will include bibliographic, chemical, 
# crystal, experimental, refinement or atomic coordinate data resulting 
# from the CCDC's data processing and validation procedures.
#
#######################################################################

data_TAXGOR
_chemical_formula_moiety         'C24 H48 Cs2 F12 O12 P2'
_chemical_name_systematic        
bis(\m-hexafluorophosphato)-bis(18-crown-6)-di-cesium
_symmetry_cell_setting           monoclinic
_symmetry_space_group_name_H-M   'C 2/c'
_symmetry_Int_Tables_number      15
_space_group_name_Hall           '-C 2yn'
loop_
_symmetry_equiv_pos_site_id
_symmetry_equiv_pos_as_xyz
1 x,y,z
2 -x,y,1/2-z
3 1/2+x,1/2+y,z
4 1/2-x,1/2+y,1/2-z
5 -x,-y,-z
6 x,-y,1/2+z
7 1/2-x,1/2-y,-z
8 1/2+x,1/2-y,1/2+z
_cell_length_a                   25.2084(17)
_cell_length_b                   8.5402(6)
_cell_length_c                   21.4061(14)
_cell_angle_alpha                90
_cell_angle_beta                 117.576(2)
_cell_angle_gamma                90
_cell_volume                     4084.88
_cell_formula_units_Z            4
loop_
_atom_site_label
_atom_site_type_symbol
_atom_site_fract_x
_atom_site_fract_y
_atom_site_fract_z
Cs1 Cs 0.60315(2) 0.64187(4) 0.23380(2)
P1 P 0.43571(9) 0.8595(3) 0.10522(12)
O1 O 0.6009(2) 0.2757(6) 0.1961(3)
O2 O 0.70738(18) 0.8689(5) 0.2696(2)
O3 O 0.7314(2) 0.6348(5) 0.3729(2)
O4 O 0.65378(18) 0.7663(5) 0.1273(2)
O5 O 0.5791(2) 0.5003(6) 0.0900(2)
O6 O 0.6573(3) 0.3680(5) 0.3400(3)
C1 C 0.7175(3) 0.9397(8) 0.2168(4)
H1 H 0.7511 0.8898 0.2145
H2 H 0.7269 1.0496 0.2276
C2 C 0.6623(3) 0.9233(8) 0.1473(4)
H3 H 0.6278 0.9620 0.1513
H4 H 0.6666 0.9850 0.1118
C3 C 0.5907(4) 0.2051(9) 0.2485(5)
H5 H 0.5793 0.0966 0.2361
H6 H 0.5581 0.2581 0.2518
C4 C 0.5510(3) 0.2703(9) 0.1280(5)
H7 H 0.5179 0.3287 0.1278
H8 H 0.5382 0.1627 0.1153
C5 C 0.5960(3) 0.5753(10) 0.0430(3)
H9 H 0.5653 0.5598 -0.0051
H10 H 0.6331 0.5305 0.0478
C6 C 0.7217(4) 0.5557(10) 0.4248(3)
H11 H 0.6878 0.6015 0.4279
H12 H 0.7567 0.5659 0.4704
C7 C 0.5678(3) 0.3377(8) 0.0774(4)
H13 H 0.6035 0.2859 0.0812
H14 H 0.5359 0.3214 0.0300
C8 C 0.7599(3) 0.8681(7) 0.3357(4)
H15 H 0.7738 0.9746 0.3493
H16 H 0.7912 0.8098 0.3317
C9 C 0.6449(5) 0.2122(9) 0.3174(5)
H17 H 0.6388 0.1510 0.3517
H18 H 0.6786 0.1679 0.3133
C10 C 0.7097(4) 0.3858(9) 0.4050(4)
H19 H 0.7436 0.3412 0.4013
H20 H 0.7051 0.3297 0.4416
C11 C 0.6041(3) 0.7447(9) 0.0595(3)
H21 H 0.6112 0.7993 0.0242
H22 H 0.5682 0.7875 0.0589
C12 C 0.7475(3) 0.7966(9) 0.3896(3)
H23 H 0.7826 0.8043 0.4352
H24 H 0.7150 0.8522 0.3922
F1 F 0.4004(4) 0.8501(7) 0.1471(4)
F2 F 0.4315(5) 1.0433(10) 0.1055(7)
F3 F 0.3830(5) 0.816(2) 0.0417(5)
F4 F 0.4697(6) 0.8836(17) 0.0635(8)
F5 F 0.4954(5) 0.8896(14) 0.1647(8)
F6 F 0.4491(7) 0.6824(11) 0.1174(10)
Cs1A Cs 0.39685(2) 0.64187(4) 0.26620(2)
P1A P 0.56429(9) 0.8595(3) 0.39478(12)
O1A O 0.3991(2) 0.2757(6) 0.3039(3)
O2A O 0.29262(18) 0.8689(5) 0.2304(2)
O3A O 0.2686(2) 0.6348(5) 0.1271(2)
O4A O 0.34622(18) 0.7663(5) 0.3727(2)
O5A O 0.4209(2) 0.5003(6) 0.4100(2)
O6A O 0.3427(3) 0.3680(5) 0.1600(3)
C1A C 0.2825(3) 0.9397(8) 0.2832(4)
H1A H 0.2489 0.8898 0.2855
H2A H 0.2731 1.0496 0.2724
C2A C 0.3377(3) 0.9233(8) 0.3527(4)
H3A H 0.3722 0.9620 0.3487
H4A H 0.3334 0.9850 0.3882
C3A C 0.4093(4) 0.2051(9) 0.2515(5)
H5A H 0.4207 0.0966 0.2639
H6A H 0.4419 0.2581 0.2482
C4A C 0.4490(3) 0.2703(9) 0.3720(5)
H7A H 0.4821 0.3287 0.3722
H8A H 0.4618 0.1627 0.3847
C5A C 0.4040(3) 0.5753(10) 0.4570(3)
H9A H 0.4347 0.5598 0.5051
H10A H 0.3669 0.5305 0.4522
C6A C 0.2783(4) 0.5557(10) 0.0752(3)
H11A H 0.3122 0.6015 0.0721
H12A H 0.2433 0.5659 0.0296
C7A C 0.4322(3) 0.3377(8) 0.4226(4)
H13A H 0.3965 0.2859 0.4188
H14A H 0.4641 0.3214 0.4700
C8A C 0.2401(3) 0.8681(7) 0.1643(4)
H15A H 0.2262 0.9746 0.1507
H16A H 0.2088 0.8098 0.1683
C9A C 0.3551(5) 0.2122(9) 0.1826(5)
H17A H 0.3612 0.1510 0.1483
H18A H 0.3214 0.1679 0.1867
C10A C 0.2903(4) 0.3858(9) 0.0950(4)
H19A H 0.2564 0.3412 0.0987
H20A H 0.2949 0.3297 0.0584
C11A C 0.3959(3) 0.7447(9) 0.4405(3)
H21A H 0.3888 0.7993 0.4758
H22A H 0.4318 0.7875 0.4411
C12A C 0.2525(3) 0.7966(9) 0.1104(3)
H23A H 0.2174 0.8043 0.0648
H24A H 0.2850 0.8522 0.1078
F1A F 0.5996(4) 0.8501(7) 0.3529(4)
F2A F 0.5685(5) 1.0433(10) 0.3945(7)
F3A F 0.6170(5) 0.816(2) 0.4583(5)
F4A F 0.5303(6) 0.8836(17) 0.4365(8)
F5A F 0.5046(5) 0.8896(14) 0.3353(8)
F6A F 0.5509(7) 0.6824(11) 0.3826(10)
loop_
_geom_bond_atom_site_label_1
_geom_bond_atom_site_label_2
_geom_bond_site_symmetry_1
_geom_bond_site_symmetry_2
Cs1 O1 1_555 1_555
P1 F1 1_555 1_555
O1 C3 1_555 1_555
O2 Cs1 1_555 1_555
O3 Cs1 1_555 1_555
O4 Cs1 1_555 1_555
O5 Cs1 1_555 1_555
O6 Cs1 1_555 1_555
C1 O2 1_555 1_555
H1 C1 1_555 1_555
H2 C1 1_555 1_555
C2 O4 1_555 1_555
H3 C2 1_555 1_555
H4 C2 1_555 1_555
C3 H5 1_555 1_555
H6 C3 1_555 1_555
C4 O1 1_555 1_555
H7 C4 1_555 1_555
H8 C4 1_555 1_555
C5 O5 1_555 1_555
H9 C5 1_555 1_555
H10 C5 1_555 1_555
C6 O3 1_555 1_555
H11 C6 1_555 1_555
H12 C6 1_555 1_555
C7 O5 1_555 1_555
H13 C7 1_555 1_555
H14 C7 1_555 1_555
C8 O2 1_555 1_555
H15 C8 1_555 1_555
H16 C8 1_555 1_555
C9 O6 1_555 1_555
H17 C9 1_555 1_555
H18 C9 1_555 1_555
C10 O6 1_555 1_555
H19 C10 1_555 1_555
H20 C10 1_555 1_555
C11 O4 1_555 1_555
H21 C11 1_555 1_555
H22 C11 1_555 1_555
C12 O3 1_555 1_555
H23 C12 1_555 1_555
H24 C12 1_555 1_555
F1 Cs1A 1_555 1_555
F2 P1 1_555 1_555
F3 P1 1_555 1_555
F4 P1 1_555 1_555
F5 Cs1 1_555 1_555
F6 Cs1 1_555 1_555
Cs1A O1A 1_555 1_555
P1A F1A 1_555 1_555
O1A C3A 1_555 1_555
O2A Cs1A 1_555 1_555
O3A Cs1A 1_555 1_555
O4A Cs1A 1_555 1_555
O5A Cs1A 1_555 1_555
O6A Cs1A 1_555 1_555
C1A O2A 1_555 1_555
H1A C1A 1_555 1_555
H2A C1A 1_555 1_555
C2A O4A 1_555 1_555
H3A C2A 1_555 1_555
H4A C2A 1_555 1_555
C3A H5A 1_555 1_555
H6A C3A 1_555 1_555
C4A O1A 1_555 1_555
H7A C4A 1_555 1_555
H8A C4A 1_555 1_555
C5A O5A 1_555 1_555
H9A C5A 1_555 1_555
H10A C5A 1_555 1_555
C6A O3A 1_555 1_555
H11A C6A 1_555 1_555
H12A C6A 1_555 1_555
C7A O5A 1_555 1_555
H13A C7A 1_555 1_555
H14A C7A 1_555 1_555
C8A O2A 1_555 1_555
H15A C8A 1_555 1_555
H16A C8A 1_555 1_555
C9A O6A 1_555 1_555
H17A C9A 1_555 1_555
H18A C9A 1_555 1_555
C10A O6A 1_555 1_555
H19A C10A 1_555 1_555
H20A C10A 1_555 1_555
C11A O4A 1_555 1_555
H21A C11A 1_555 1_555
H22A C11A 1_555 1_555
C12A O3A 1_555 1_555
H23A C12A 1_555 1_555
H24A C12A 1_555 1_555
F1A Cs1 1_555 1_555
F2A P1A 1_555 1_555
F3A P1A 1_555 1_555
F4A P1A 1_555 1_555
F5A Cs1A 1_555 1_555
F6A Cs1A 1_555 1_555
P1 F5 1_555 1_555
P1 F6 1_555 1_555
C1 C2 1_555 1_555
C3 C9 1_555 1_555
C4 C7 1_555 1_555
C5 C11 1_555 1_555
C6 C10 1_555 1_555
C8 C12 1_555 1_555
P1A F5A 1_555 1_555
P1A F6A 1_555 1_555
C1A C2A 1_555 1_555
C3A C9A 1_555 1_555
C4A C7A 1_555 1_555
C5A C11A 1_555 1_555
C6A C10A 1_555 1_555
C8A C12A 1_555 1_555

#END
