
#######################################################################
#
#                 Cambridge Crystallographic Data Centre
#                                CCDC 
#
#######################################################################
#
# If this CIF has been generated from an entry in the Cambridge 
# Structural Database, then it will include bibliographic, chemical, 
# crystal, experimental, refinement or atomic coordinate data resulting 
# from the CCDC's data processing and validation procedures.
#
#######################################################################

data_TAXHOS
_chemical_formula_moiety         'C16 H18 F3 N1 O5 S1'
_chemical_name_systematic        
'methyl 3-(6-methoxy-3-((((trifluoromethyl)sulfonyl)amino)methyl)-2,3-dihydro-1H-inden-4-yl)prop-2-enoate'
_symmetry_cell_setting           orthorhombic
_symmetry_space_group_name_H-M   'P 21 21 21'
_symmetry_Int_Tables_number      19
_space_group_name_Hall           'P 2ac 2ab'
loop_
_symmetry_equiv_pos_site_id
_symmetry_equiv_pos_as_xyz
1 x,y,z
2 1/2-x,-y,1/2+z
3 -x,1/2+y,1/2-z
4 1/2+x,1/2-y,-z
_cell_length_a                   6.6354(10)
_cell_length_b                   15.269(2)
_cell_length_c                   17.849(3)
_cell_angle_alpha                90
_cell_angle_beta                 90
_cell_angle_gamma                90
_cell_volume                     1808.39
_exptl_crystal_colour            colorless
_exptl_crystal_description       prismatic
_chemical_melting_point          '154-156 deg.C'
_cell_formula_units_Z            4
loop_
_atom_site_label
_atom_site_type_symbol
_atom_site_fract_x
_atom_site_fract_y
_atom_site_fract_z
S1 S -0.0744(2) 1.14167(10) 0.14119(7)
F1 F -0.0294(10) 1.2594(3) 0.0387(3)
F2 F -0.0652(11) 1.3095(3) 0.1482(4)
F3 F 0.2076(8) 1.2536(3) 0.1139(3)
N1 N 0.0395(7) 1.0727(3) 0.0927(2)
O1 O -0.0635(6) 0.7782(2) -0.14529(19)
O2 O 0.8604(5) 1.0469(2) -0.0497(2)
O3 O 0.8546(6) 1.0246(3) -0.1719(2)
O4 O -0.2806(6) 1.1397(4) 0.1231(2)
O5 O -0.0038(6) 1.1385(3) 0.21562(18)
C1 C 0.2457(7) 1.0444(3) 0.1066(3)
H1 H 0.2913 1.0673 0.1544
H2 H 0.3334 1.0673 0.0678
C2 C 0.2584(7) 0.9453(3) 0.1076(2)
H3 H 0.3971 0.9283 0.1196
C3 C 0.1158(8) 0.9009(4) 0.1640(3)
H4 H 0.1850 0.8539 0.1900
H5 H 0.0692 0.9430 0.2008
C4 C -0.0604(8) 0.8650(4) 0.1198(3)
H6 H -0.1751 0.9043 0.1225
H7 H -0.1002 0.8079 0.1384
C5 C 0.0187(6) 0.8587(3) 0.0403(2)
C6 C 0.2002(7) 0.9033(3) 0.0344(2)
C7 C -0.0666(7) 0.8173(3) -0.0195(2)
H8 H -0.1878 0.7873 -0.0142
C8 C 0.0302(8) 0.8207(3) -0.0880(2)
C9 C 0.2112(7) 0.8640(3) -0.0956(2)
H9 H 0.2750 0.8650 -0.1420
C10 C 0.3003(6) 0.9064(3) -0.0350(2)
C11 C 0.4918(6) 0.9527(3) -0.0423(2)
H10 H 0.5489 0.9735 0.0019
C12 C 0.5927(7) 0.9683(3) -0.1043(2)
H11 H 0.5422 0.9479 -0.1497
C13 C 0.7808(7) 1.0165(3) -0.1034(3)
C14 C 1.0388(11) 1.0723(5) -0.1777(5)
H12 H 1.0317 1.1238 -0.1469
H13 H 1.0603 1.0892 -0.2289
H14 H 1.1485 1.0361 -0.1612
C15 C 0.0061(9) 0.7931(4) -0.2186(3)
H15 H 0.0032 0.8547 -0.2291
H16 H -0.0791 0.7628 -0.2536
H17 H 0.1417 0.7718 -0.2233
C16 C 0.0113(12) 1.2468(4) 0.1079(4)
H18 H -0.021(7) 1.066(3) 0.049(3)
loop_
_geom_bond_atom_site_label_1
_geom_bond_atom_site_label_2
_geom_bond_site_symmetry_1
_geom_bond_site_symmetry_2
S1 N1 1_555 1_555
F1 C16 1_555 1_555
F2 C16 1_555 1_555
F3 C16 1_555 1_555
N1 C1 1_555 1_555
O1 C8 1_555 1_555
O2 C13 1_555 1_555
O3 C13 1_555 1_555
O4 S1 1_555 1_555
O5 S1 1_555 1_555
C1 H1 1_555 1_555
H2 C1 1_555 1_555
C2 C1 1_555 1_555
H3 C2 1_555 1_555
C3 C2 1_555 1_555
H4 C3 1_555 1_555
H5 C3 1_555 1_555
C4 C3 1_555 1_555
H6 C4 1_555 1_555
H7 C4 1_555 1_555
C5 C4 1_555 1_555
C6 C2 1_555 1_555
C7 C5 1_555 1_555
H8 C7 1_555 1_555
C8 C7 1_555 1_555
C9 C8 1_555 1_555
H9 C9 1_555 1_555
C10 C6 1_555 1_555
C11 C10 1_555 1_555
H10 C11 1_555 1_555
C12 C11 1_555 1_555
H11 C12 1_555 1_555
C13 C12 1_555 1_555
C14 O3 1_555 1_555
H12 C14 1_555 1_555
H13 C14 1_555 1_555
H14 C14 1_555 1_555
C15 O1 1_555 1_555
H15 C15 1_555 1_555
H16 C15 1_555 1_555
H17 C15 1_555 1_555
C16 S1 1_555 1_555
H18 N1 1_555 1_555
C5 C6 1_555 1_555
C9 C10 1_555 1_555

#END
