
#######################################################################
#
#                 Cambridge Crystallographic Data Centre
#                                CCDC 
#
#######################################################################
#
# If this CIF has been generated from an entry in the Cambridge 
# Structural Database, then it will include bibliographic, chemical, 
# crystal, experimental, refinement or atomic coordinate data resulting 
# from the CCDC's data processing and validation procedures.
#
#######################################################################

data_TAXHEI
_chemical_formula_moiety         'C16 H17 F4 N1 O4 S1'
_chemical_name_systematic        
'methyl 3-(3-fluoro-8-((((trifluoromethyl)sulfonyl)amino)methyl)-5,6,7,8-tetrahydronaphthalen-1-yl)prop-2-enoate'
_symmetry_cell_setting           orthorhombic
_symmetry_space_group_name_H-M   'P 21 21 21'
_symmetry_Int_Tables_number      19
_space_group_name_Hall           'P 2ac 2ab'
loop_
_symmetry_equiv_pos_site_id
_symmetry_equiv_pos_as_xyz
1 x,y,z
2 1/2-x,-y,1/2+z
3 1/2+x,1/2-y,-z
4 -x,1/2+y,1/2-z
_cell_length_a                   5.1711(2)
_cell_length_b                   8.6014(2)
_cell_length_c                   38.2861(12)
_cell_angle_alpha                90
_cell_angle_beta                 90
_cell_angle_gamma                90
_cell_volume                     1702.92
_exptl_crystal_description       block
_chemical_melting_point          '139-141 deg.C'
_cell_formula_units_Z            4
loop_
_atom_site_label
_atom_site_type_symbol
_atom_site_fract_x
_atom_site_fract_y
_atom_site_fract_z
S1 S -0.01149(19) 0.53772(11) 0.18456(3)
N1 N 0.2134(7) 0.5396(4) 0.15681(8)
H1 H 0.2988 0.6246 0.1541
F1 F 0.5016(7) -0.0934(3) 0.01600(7)
F2 F 0.2731(9) 0.3644(4) 0.22513(9)
F3 F 0.3202(8) 0.6080(4) 0.23292(9)
F4 F -0.0184(9) 0.4934(5) 0.25162(9)
O1 O -0.4130(6) 0.0373(3) 0.16101(8)
O2 O -0.5296(7) -0.1848(3) 0.13543(7)
O3 O -0.1723(7) 0.4072(5) 0.17868(10)
O4 O -0.1093(9) 0.6891(5) 0.18901(10)
C1 C 0.1419(8) 0.1230(4) 0.08127(9)
C2 C 0.2495(8) 0.2736(4) 0.07675(9)
C3 C 0.4419(7) 0.2954(4) 0.05128(9)
C4 C 0.1584(7) 0.4096(4) 0.09888(9)
H2 H -0.0288 0.3994 0.1021
C5 C 0.4932(8) 0.5787(4) 0.06962(10)
H3 H 0.5256 0.6805 0.0596
H4 H 0.6033 0.5664 0.0899
C6 C 0.4174(8) 0.0269(5) 0.03596(10)
C7 C -0.3969(8) -0.0703(4) 0.13624(10)
C8 C 0.2864(8) 0.4051(4) 0.13527(9)
H5 H 0.2355 0.3103 0.1472
H6 H 0.4728 0.4033 0.1325
C9 C -0.0600(7) 0.0919(4) 0.10754(10)
H7 H -0.0912 0.1688 0.1241
C10 C 0.5261(9) 0.1711(5) 0.03102(10)
H8 H 0.6545 0.1854 0.0143
C11 C 0.1509(11) 0.4981(5) 0.22642(12)
C12 C 0.2103(7) 0.5657(4) 0.08039(10)
H9 H 0.1013 0.5738 0.0599
H10 H 0.1669 0.6507 0.0960
C13 C 0.5553(8) 0.4534(5) 0.04291(10)
H11 H 0.4912 0.4865 0.0203
H12 H 0.7417 0.4434 0.0411
C14 C 0.2294(9) 0.0003(4) 0.06016(10)
H13 H 0.1593 -0.0987 0.0627
C15 C -0.2009(8) -0.0368(4) 0.10952(11)
H14 H -0.1732 -0.1122 0.0925
C16 C -0.5951(11) 0.0058(6) 0.18864(12)
H15 H -0.7634 -0.0118 0.1788
H16 H -0.6021 0.0931 0.2042
H17 H -0.5412 -0.0850 0.2013
loop_
_geom_bond_atom_site_label_1
_geom_bond_atom_site_label_2
_geom_bond_site_symmetry_1
_geom_bond_site_symmetry_2
S1 N1 1_555 1_555
N1 H1 1_555 1_555
F1 C6 1_555 1_555
F2 C11 1_555 1_555
F3 C11 1_555 1_555
F4 C11 1_555 1_555
O1 C7 1_555 1_555
O2 C7 1_555 1_555
O3 S1 1_555 1_555
O4 S1 1_555 1_555
C1 C2 1_555 1_555
C2 C3 1_555 1_555
C3 C10 1_555 1_555
C4 C2 1_555 1_555
H2 C4 1_555 1_555
C5 H3 1_555 1_555
H4 C5 1_555 1_555
C6 C10 1_555 1_555
C7 C15 1_555 1_555
C8 N1 1_555 1_555
H5 C8 1_555 1_555
H6 C8 1_555 1_555
C9 C1 1_555 1_555
H7 C9 1_555 1_555
C10 H8 1_555 1_555
C11 S1 1_555 1_555
C12 C4 1_555 1_555
H9 C12 1_555 1_555
H10 C12 1_555 1_555
C13 C3 1_555 1_555
H11 C13 1_555 1_555
H12 C13 1_555 1_555
C14 C1 1_555 1_555
H13 C14 1_555 1_555
C15 C9 1_555 1_555
H14 C15 1_555 1_555
C16 O1 1_555 1_555
H15 C16 1_555 1_555
H16 C16 1_555 1_555
H17 C16 1_555 1_555
C4 C8 1_555 1_555
C5 C12 1_555 1_555
C5 C13 1_555 1_555
C6 C14 1_555 1_555

#END
