
#######################################################################
#
#                 Cambridge Crystallographic Data Centre
#                                CCDC 
#
#######################################################################
#
# If this CIF has been generated from an entry in the Cambridge 
# Structural Database, then it will include bibliographic, chemical, 
# crystal, experimental, refinement or atomic coordinate data resulting 
# from the CCDC's data processing and validation procedures.
#
#######################################################################

data_TAXPIT
_chemical_compound_source        
'the leaves of Isodon japonica Hara var. glaucocalyx'
_chemical_name_common            'Glaucocalyxin J'
_chemical_formula_moiety         'C20 H32 O4'
_chemical_name_systematic        3,7,14-Trihydroxykauran-15-one
_symmetry_cell_setting           monoclinic
_symmetry_space_group_name_H-M   'P 21'
_symmetry_Int_Tables_number      4
_space_group_name_Hall           'P 2yb'
loop_
_symmetry_equiv_pos_site_id
_symmetry_equiv_pos_as_xyz
1 x,y,z
2 -x,1/2+y,-z
_cell_length_a                   6.394(2)
_cell_length_b                   15.400(5)
_cell_length_c                   9.349(3)
_cell_angle_alpha                90
_cell_angle_beta                 104.931(6)
_cell_angle_gamma                90
_cell_volume                     889.492
_exptl_crystal_colour            colorless
_exptl_crystal_description       block
_cell_formula_units_Z            2
loop_
_atom_site_label
_atom_site_type_symbol
_atom_site_fract_x
_atom_site_fract_y
_atom_site_fract_z
O1 O 0.2596(2) 0.63978(7) 0.72437(12)
O2 O 0.08380(18) 0.73329(7) -0.07360(11)
O3 O -0.11213(17) 0.88612(7) -0.10163(11)
O4 O 0.53956(15) 0.85487(7) 0.00542(11)
C1 C 0.3928(2) 0.84242(10) 0.53342(15)
H1 H 0.5371 0.8246 0.5234
H2 H 0.4026 0.9039 0.5654
C2 C 0.3331(3) 0.78660(10) 0.65248(16)
H3 H 0.4477 0.7922 0.7461
H4 H 0.1964 0.8085 0.6703
C3 C 0.3060(2) 0.69168(10) 0.60935(16)
H5 H 0.4484 0.6714 0.5963
C4 C 0.1363(2) 0.67611(9) 0.45966(15)
C5 C 0.1987(2) 0.73614(9) 0.34360(14)
H6 H 0.3472 0.7164 0.3422
C6 C 0.0630(2) 0.72158(9) 0.18420(14)
H7 H 0.0354 0.6588 0.1662
H8 H -0.0781 0.7515 0.1688
C7 C 0.1851(2) 0.75725(8) 0.07690(14)
H9 H 0.3322 0.7301 0.1035
C8 C 0.2173(2) 0.85521(9) 0.09695(14)
C9 C 0.3333(2) 0.87604(8) 0.26310(14)
H10 H 0.4777 0.8471 0.2808
C10 C 0.2267(2) 0.83477(8) 0.38076(15)
C11 C 0.3859(2) 0.97464(9) 0.28029(16)
H11 H 0.4032 0.9906 0.3853
H12 H 0.5271 0.9844 0.2578
C12 C 0.2192(3) 1.03695(9) 0.18346(17)
H13 H 0.1013 1.0476 0.2323
H14 H 0.2903 1.0933 0.1761
C13 C 0.1215(2) 1.00189(9) 0.02746(16)
H15 H 0.0124 1.0434 -0.0313
C14 C 0.0169(2) 0.91399(9) 0.04098(15)
H16 H -0.0718 0.9166 0.1147
C15 C 0.3724(2) 0.89091(9) 0.01086(14)
C16 C 0.2901(2) 0.97759(10) -0.05766(16)
H17 H 0.2073 0.9653 -0.1619
C17 C 0.4631(3) 1.04380(11) -0.06656(18)
H18 H 0.5524 1.0564 0.0333
H19 H 0.3938 1.0974 -0.1119
H20 H 0.5546 1.0202 -0.1268
C18 C 0.0171(2) 0.88121(10) 0.38872(16)
H21 H -0.0117 0.8698 0.4850
H22 H -0.1038 0.8596 0.3097
H23 H 0.0331 0.9439 0.3765
C19 C 0.1606(3) 0.58092(9) 0.41696(17)
H24 H 0.1636 0.5434 0.5021
H25 H 0.2957 0.5740 0.3870
H26 H 0.0379 0.5647 0.3345
C20 C -0.0953(2) 0.68826(11) 0.47573(18)
H27 H -0.1967 0.6903 0.3773
H28 H -0.1040 0.7427 0.5283
H29 H -0.1327 0.6395 0.5318
H30 H -0.236(3) 0.8797(12) -0.091(2)
H31 H -0.009(3) 0.7724(13) -0.105(2)
H32 H 0.206(3) 0.6709(12) 0.777(2)
loop_
_geom_bond_atom_site_label_1
_geom_bond_atom_site_label_2
_geom_bond_site_symmetry_1
_geom_bond_site_symmetry_2
O1 C3 1_555 1_555
O2 C7 1_555 1_555
O3 C14 1_555 1_555
O4 C15 1_555 1_555
C1 H1 1_555 1_555
H2 C1 1_555 1_555
C2 C1 1_555 1_555
H3 C2 1_555 1_555
H4 C2 1_555 1_555
C3 C2 1_555 1_555
H5 C3 1_555 1_555
C4 C3 1_555 1_555
C5 C4 1_555 1_555
H6 C5 1_555 1_555
C6 C5 1_555 1_555
H7 C6 1_555 1_555
H8 C6 1_555 1_555
C7 C6 1_555 1_555
H9 C7 1_555 1_555
C8 C7 1_555 1_555
C9 C8 1_555 1_555
H10 C9 1_555 1_555
C10 C1 1_555 1_555
C11 C9 1_555 1_555
H11 C11 1_555 1_555
H12 C11 1_555 1_555
C12 C11 1_555 1_555
H13 C12 1_555 1_555
H14 C12 1_555 1_555
C13 C12 1_555 1_555
H15 C13 1_555 1_555
C14 C8 1_555 1_555
H16 C14 1_555 1_555
C15 C8 1_555 1_555
C16 C13 1_555 1_555
H17 C16 1_555 1_555
C17 C16 1_555 1_555
H18 C17 1_555 1_555
H19 C17 1_555 1_555
H20 C17 1_555 1_555
C18 C10 1_555 1_555
H21 C18 1_555 1_555
H22 C18 1_555 1_555
H23 C18 1_555 1_555
C19 C4 1_555 1_555
H24 C19 1_555 1_555
H25 C19 1_555 1_555
H26 C19 1_555 1_555
C20 C4 1_555 1_555
H27 C20 1_555 1_555
H28 C20 1_555 1_555
H29 C20 1_555 1_555
H30 O3 1_555 1_555
H31 O2 1_555 1_555
H32 O1 1_555 1_555
C5 C10 1_555 1_555
C9 C10 1_555 1_555
C13 C14 1_555 1_555
C15 C16 1_555 1_555

#END
