
#######################################################################
#
#                 Cambridge Crystallographic Data Centre
#                                CCDC 
#
#######################################################################
#
# If this CIF has been generated from an entry in the Cambridge 
# Structural Database, then it will include bibliographic, chemical, 
# crystal, experimental, refinement or atomic coordinate data resulting 
# from the CCDC's data processing and validation procedures.
#
#######################################################################

data_TAXRES
_chemical_name_common            
"4,4'-[(4-nitrophenyl)azanediyl]bis(benzo-18-crown-6) (4,4'-[(4-nitrophenyl)azanediyl]bis(benzo-18-crown-6))-diaqua-potassium trifluoromethanesulfonate acetonitrile solvate dihydrate"
_chemical_formula_moiety         
'C38 H54 K1 N2 O16 1+,C38 H50 N2 O14,2(C2 H3 N1),2(H2 O1),C1 F3 O3 S1 1-'
_chemical_name_systematic        
'(N-(2,3,5,6,8,9,11,12,14,15-decahydro-1,4,7,10,13,16-benzohexaoxacyclooctadecin-18-yl)-N-(4-nitrophenyl)-2,3,5,6,8,9,11,12,14,15-decahydro-1,4,7,10,13,16-benzohexaoxacyclooctadecin-18-amine)-diaqua-potassium N-(2,3,5,6,8,9,11,12,14,15-decahydro-1,4,7,10,13,16-benzohexaoxacyclooctadecin-18-yl)-N-(4-nitrophenyl)-2,3,5,6,8,9,11,12,14,15-decahydro-1,4,7,10,13,16-benzohexaoxacyclooctadecin-18-amine trifluoromethanesulfonate acetonitrile solvate dihydrate'
_symmetry_cell_setting           triclinic
_symmetry_space_group_name_H-M   'P -1'
_symmetry_Int_Tables_number      2
_space_group_name_Hall           '-P 1'
loop_
_symmetry_equiv_pos_site_id
_symmetry_equiv_pos_as_xyz
1 x,y,z
2 -x,-y,-z
_cell_length_a                   9.1272(3)
_cell_length_b                   21.5044(7)
_cell_length_c                   23.2601(8)
_cell_angle_alpha                88.205(2)
_cell_angle_beta                 88.653(2)
_cell_angle_gamma                88.317(2)
_cell_volume                     4560
_exptl_crystal_colour            yellow
_exptl_crystal_description       plate
_cell_formula_units_Z            2
loop_
_atom_site_label
_atom_site_type_symbol
_atom_site_fract_x
_atom_site_fract_y
_atom_site_fract_z
C39 C 0.6616(3) 0.39027(12) 0.05486(11)
C40 C 0.6045(3) 0.42574(13) 0.10080(12)
H55 H 0.6590 0.4282 0.1349
C41 C 0.4718(3) 0.45651(14) 0.09667(13)
H56 H 0.4350 0.4805 0.1277
C42 C 0.3906(3) 0.45277(13) 0.04704(12)
C43 C 0.4415(3) 0.41700(14) 0.00205(12)
H57 H 0.3843 0.4138 -0.0313
C44 C 0.5756(3) 0.38589(14) 0.00562(12)
H58 H 0.6102 0.3613 -0.0254
C45 C 0.8819(3) 0.36747(13) 0.10891(11)
C46 C 0.8805(3) 0.32026(13) 0.15143(11)
H59 H 0.8298 0.2831 0.1458
C47 C 0.9542(3) 0.32826(12) 0.20201(11)
C48 C 1.0271(3) 0.38387(12) 0.21000(11)
C49 C 1.0291(3) 0.42971(13) 0.16699(12)
H60 H 1.0799 0.4670 0.1723
C50 C 0.9563(3) 0.42121(13) 0.11572(12)
H61 H 0.9584 0.4523 0.0859
C51 C 0.8877(3) 0.22847(13) 0.24046(12)
H62 H 0.9368 0.2039 0.2099
H63 H 0.7842 0.2365 0.2301
C52 C 0.8960(3) 0.19371(13) 0.29734(12)
H64 H 0.8663 0.1502 0.2933
H65 H 0.9975 0.1932 0.3114
C53 C 0.7990(4) 0.19421(14) 0.39144(13)
H66 H 0.8991 0.1925 0.4070
H67 H 0.7658 0.1510 0.3884
C54 C 0.6975(4) 0.22950(17) 0.43064(14)
H68 H 0.6027 0.2368 0.4113
H69 H 0.6787 0.2034 0.4657
C55 C 0.8388(4) 0.28355(17) 0.49565(14)
H70 H 0.9223 0.2541 0.4888
H71 H 0.7817 0.2679 0.5295
C56 C 0.8941(4) 0.34591(18) 0.50692(14)
H72 H 0.8132 0.3774 0.5037
H73 H 0.9319 0.3464 0.5464
C57 C 1.0273(7) 0.4270(3) 0.4698(2)
H74 H 1.0505 0.4384 0.5094
H75 H 0.9377 0.4505 0.4579
C58 C 1.1530(6) 0.4412(3) 0.4292(2)
H76 H 1.1937 0.4821 0.4372
H77 H 1.2319 0.4088 0.4329
C59 C 1.2120(5) 0.44002(16) 0.33408(15)
H78 H 1.2690 0.4007 0.3407
H79 H 1.2761 0.4751 0.3416
C60 C 1.1628(4) 0.44438(14) 0.27341(13)
H80 H 1.0935 0.4802 0.2680
H81 H 1.2479 0.4501 0.2468
C61 C 0.8548(3) 0.32092(13) 0.01409(11)
C62 C 0.9405(3) 0.34741(13) -0.03042(11)
H82 H 0.9576 0.3908 -0.0315
C63 C 1.0002(3) 0.31007(13) -0.07294(11)
C64 C 0.9764(3) 0.24550(13) -0.07067(11)
C65 C 0.8935(3) 0.22001(14) -0.02590(12)
H83 H 0.8787 0.1764 -0.0239
C66 C 0.8311(3) 0.25803(14) 0.01647(12)
H84 H 0.7727 0.2404 0.0468
C67 C 1.0945(3) 0.39726(14) -0.12619(13)
H85 H 1.1476 0.4138 -0.0936
H86 H 0.9957 0.4175 -0.1272
C68 C 1.1766(3) 0.41048(14) -0.18162(13)
H87 H 1.2095 0.4540 -0.1828
H88 H 1.2643 0.3825 -0.1844
C69 C 1.1569(4) 0.41296(15) -0.28201(13)
H89 H 1.2468 0.3863 -0.2849
H90 H 1.1856 0.4570 -0.2850
C70 C 1.0551(4) 0.39929(15) -0.32981(14)
H91 H 0.9594 0.4208 -0.3225
H92 H 1.0962 0.4165 -0.3665
C71 C 1.1455(3) 0.30449(15) -0.36845(13)
H93 H 1.2399 0.3072 -0.3487
H94 H 1.1553 0.3253 -0.4068
C72 C 1.1088(3) 0.23740(15) -0.37488(13)
H95 H 1.0036 0.2343 -0.3836
H96 H 1.1673 0.2196 -0.4071
C73 C 1.0869(4) 0.14226(15) -0.32229(14)
H97 H 1.1347 0.1185 -0.3537
H98 H 0.9798 0.1436 -0.3282
C74 C 1.1201(4) 0.11118(15) -0.26535(14)
H99 H 1.0912 0.0672 -0.2653
H100 H 1.2266 0.1120 -0.2585
C75 C 1.0819(4) 0.11874(15) -0.16564(14)
H101 H 1.1875 0.1253 -0.1602
H102 H 1.0660 0.0734 -0.1635
C76 C 0.9954(4) 0.14919(14) -0.11870(14)
H103 H 0.8895 0.1481 -0.1268
H104 H 1.0127 0.1265 -0.0817
N3 N 0.7962(2) 0.36045(11) 0.05840(9)
N4 N 0.2530(3) 0.48698(12) 0.04262(12)
O17 O 0.2151(2) 0.52148(11) 0.08203(11)
O18 O 0.1784(2) 0.48090(12) 0.00005(11)
O19 O 0.9605(2) 0.28611(9) 0.24675(8)
O20 O 0.8003(2) 0.22447(9) 0.33637(8)
O21 O 0.7495(3) 0.28741(11) 0.44718(10)
O22 O 1.0060(3) 0.36042(13) 0.46725(11)
O23 O 1.0904(4) 0.44187(13) 0.37101(11)
O24 O 1.0925(2) 0.38759(9) 0.26212(8)
O25 O 1.0824(2) 0.33082(9) -0.11910(8)
O26 O 1.0834(2) 0.40111(10) -0.22847(8)
O27 O 1.0318(2) 0.33435(10) -0.33583(9)
O28 O 1.1401(2) 0.20356(10) -0.32293(9)
O29 O 1.0414(2) 0.14288(9) -0.22087(9)
O30 O 1.0388(2) 0.21259(9) -0.11481(9)
C77 C 0.6454(5) 0.41568(19) 0.29088(19)
C78 C 0.7346(6) 0.3841(2) 0.3339(2)
H105 H 0.7473 0.3401 0.3248
H106 H 0.6863 0.3877 0.3718
H107 H 0.8307 0.4032 0.3344
N5 N 0.5751(5) 0.4402(2) 0.2567(2)
C79 C 0.1636(5) 0.0766(2) 0.2134(2)
C80 C 0.2409(6) 0.1129(2) 0.1707(2)
H108 H 0.1986 0.1072 0.1330
H109 H 0.3445 0.0996 0.1697
H110 H 0.2325 0.1570 0.1802
N6 N 0.1005(5) 0.0476(2) 0.2475(2)
O31 O 0.6135(2) 0.20350(11) 0.13105(9)
H111 H 0.5614 0.2093 0.1010
H112 H 0.5531 0.2014 0.1597
O32 O 0.1099(2) 0.29115(10) 0.36822(9)
H113 H 0.0775 0.3109 0.3975
H114 H 0.0712 0.3091 0.3387
O33 O 0.8448(4) -0.0522(2) 0.0128(3)
O34 O 0.8669(5) 0.0201(2) -0.0578(2)
O35 O 1.0233(5) -0.0637(2) -0.0539(3)
S1 S 0.9337(2) -0.01783(9) -0.01678(11)
O33A O 1.1552(4) 0.0522(2) -0.0128(3)
O34A O 1.1331(5) -0.0201(2) 0.0578(2)
O35A O 0.9767(5) 0.0637(2) 0.0539(3)
S1A S 1.0663(2) 0.01783(9) 0.01678(11)
F1 F 0.6683(5) 0.5176(3) 0.4586(2)
F2 F 0.4584(5) 0.50595(19) 0.42097(17)
F3 F 0.5496(7) 0.42451(18) 0.4679(2)
C81 C 0.5345(3) 0.49164(9) 0.47012(8)
F1A F 0.3317(5) 0.4824(3) 0.5414(2)
F2A F 0.5416(5) 0.49405(19) 0.57903(17)
F3A F 0.4504(7) 0.57549(18) 0.5321(2)
C81A C 0.4655(3) 0.50836(9) 0.52988(8)
C1 C 0.1552(3) 0.11237(12) 0.44924(11)
C2 C 0.0629(3) 0.11784(13) 0.49851(11)
H1 H 0.0912 0.1430 0.5290
C3 C -0.0669(3) 0.08739(13) 0.50303(12)
H2 H -0.1283 0.0916 0.5363
C4 C -0.1083(3) 0.05033(12) 0.45878(12)
C5 C -0.0210(3) 0.04435(13) 0.40975(12)
H3 H -0.0507 0.0190 0.3796
C6 C 0.1088(3) 0.07503(13) 0.40460(12)
H4 H 0.1680 0.0711 0.3707
C7 C 0.3408(3) 0.17973(12) 0.48867(11)
C8 C 0.4102(3) 0.15078(12) 0.53551(11)
H5 H 0.4142 0.1067 0.5395
C9 C 0.4734(3) 0.18660(12) 0.57618(11)
C10 C 0.4701(3) 0.25184(12) 0.56930(11)
C11 C 0.4015(3) 0.27992(12) 0.52254(12)
H6 H 0.3995 0.3240 0.5178
C12 C 0.3350(3) 0.24383(13) 0.48219(11)
H7 H 0.2860 0.2632 0.4505
C13 C 0.5411(4) 0.09718(13) 0.63444(12)
H8 H 0.5834 0.0756 0.6006
H9 H 0.4391 0.0837 0.6409
C14 C 0.6303(3) 0.08119(14) 0.68670(13)
H10 H 0.6381 0.0354 0.6925
H11 H 0.7305 0.0971 0.6810
C15 C 0.6361(4) 0.08804(16) 0.78751(14)
H12 H 0.7433 0.0922 0.7820
H13 H 0.6160 0.0438 0.7966
C16 C 0.5813(4) 0.12765(18) 0.83597(14)
H14 H 0.4728 0.1284 0.8379
H15 H 0.6182 0.1104 0.8730
C17 C 0.5987(4) 0.23027(19) 0.87102(14)
H16 H 0.6373 0.2128 0.9077
H17 H 0.4911 0.2363 0.8755
C18 C 0.6673(4) 0.29098(19) 0.85643(15)
H18 H 0.6705 0.3162 0.8912
H19 H 0.7690 0.2838 0.8419
C19 C 0.6750(6) 0.3747(3) 0.7893(2)
H20 H 0.7039 0.4027 0.8198
H21 H 0.7647 0.3579 0.7698
C20 C 0.5783(6) 0.4083(2) 0.7473(2)
H22 H 0.4842 0.4205 0.7665
H23 H 0.6258 0.4466 0.7326
C21 C 0.6392(4) 0.37234(14) 0.65071(14)
H24 H 0.7298 0.3464 0.6554
H25 H 0.6673 0.4158 0.6422
C22 C 0.5522(3) 0.34914(12) 0.60266(13)
H26 H 0.4542 0.3701 0.6022
H27 H 0.6027 0.3581 0.5653
C23 C 0.3779(3) 0.13430(12) 0.39378(11)
C24 C 0.3688(3) 0.17884(12) 0.34893(11)
H28 H 0.3057 0.2145 0.3525
C25 C 0.4525(3) 0.17056(12) 0.29932(11)
C26 C 0.5423(3) 0.11660(12) 0.29397(11)
C27 C 0.5521(3) 0.07393(12) 0.33946(12)
H29 H 0.6159 0.0384 0.3364
C28 C 0.4694(3) 0.08250(12) 0.38978(11)
H30 H 0.4760 0.0530 0.4209
C29 C 0.3731(4) 0.26889(13) 0.25939(12)
H31 H 0.4140 0.2930 0.2905
H32 H 0.2691 0.2608 0.2691
C30 C 0.3850(4) 0.30450(13) 0.20330(13)
H33 H 0.3468 0.3477 0.2078
H34 H 0.4888 0.3060 0.1902
C31 C 0.2940(4) 0.30902(15) 0.10989(13)
H35 H 0.3924 0.3238 0.0983
H36 H 0.2276 0.3458 0.1146
C32 C 0.2383(4) 0.26928(18) 0.06507(15)
H37 H 0.1501 0.2475 0.0795
H38 H 0.2120 0.2948 0.0305
C33 C 0.3211(5) 0.1868(2) 0.00734(16)
H39 H 0.3060 0.2119 -0.0286
H40 H 0.2296 0.1647 0.0170
C34 C 0.4435(5) 0.14118(18) -0.00100(14)
H41 H 0.4284 0.1180 -0.0364
H42 H 0.5367 0.1634 -0.0058
C35 C 0.5861(6) 0.0641(2) 0.04581(17)
H43 H 0.6684 0.0907 0.0551
H44 H 0.6057 0.0467 0.0074
C36 C 0.5708(8) 0.0127(2) 0.09007(19)
H45 H 0.4789 -0.0090 0.0835
H46 H 0.6533 -0.0177 0.0849
C37 C 0.7080(5) 0.04922(17) 0.16703(15)
H47 H 0.7373 0.0895 0.1491
H48 H 0.7831 0.0169 0.1570
C38 C 0.6930(4) 0.05420(14) 0.23124(13)
H49 H 0.6389 0.0185 0.2480
H50 H 0.7909 0.0543 0.2487
N1 N 0.2853(2) 0.14194(10) 0.44434(9)
N2 N -0.2427(3) 0.01709(11) 0.46413(11)
O1 O -0.3224(2) 0.02430(12) 0.50706(11)
O2 O -0.2732(2) -0.01792(10) 0.42539(10)
O3 O 0.5429(2) 0.16321(8) 0.62436(8)
O4 O 0.5627(2) 0.10811(10) 0.73603(8)
O5 O 0.6323(3) 0.18884(11) 0.82575(9)
O6 O 0.5837(3) 0.32305(12) 0.81390(10)
O7 O 0.5524(3) 0.36923(11) 0.70152(10)
O8 O 0.5374(2) 0.28293(8) 0.61146(8)
O9 O 0.4548(2) 0.21107(9) 0.25316(8)
O10 O 0.3022(2) 0.27414(9) 0.16279(8)
O11 O 0.3540(3) 0.22507(13) 0.05140(11)
O12 O 0.4524(4) 0.09933(14) 0.04609(11)
O13 O 0.5688(4) 0.03282(14) 0.14768(11)
O14 O 0.6140(2) 0.11136(9) 0.24199(8)
O15 O 0.2619(3) 0.25280(13) 0.78206(11)
O16 O 0.8337(3) 0.24567(12) 0.72751(11)
K1 K 0.52979(7) 0.24065(3) 0.72561(3)
H51 H 0.2300 0.2362 0.7519
H52 H 0.1931 0.2501 0.8077
H53 H 0.8894 0.2704 0.7081
H54 H 0.8907 0.2191 0.7448
C82? C 0.5984(12) 0.3864(5) 0.8008(5)
H115? H 0.6531 0.4066 0.8310
H116? H 0.5010 0.4075 0.7973
C83? C 0.6797(11) 0.3891(4) 0.7456(4)
H117? H 0.7643 0.3593 0.7453
H118? H 0.7143 0.4316 0.7364
C84? C 1.1110(16) 0.4105(6) 0.4664(5)
H119? H 1.1231 0.4261 0.5056
H120? H 1.2077 0.3959 0.4512
C85? C 1.0496(15) 0.4576(6) 0.4298(5)
H121? H 1.0881 0.4987 0.4389
H122? H 0.9415 0.4595 0.4348
O36? O 0.6683(5) 0.5176(3) 0.4586(2)
O37? O 0.4584(5) 0.50595(19) 0.42097(17)
O38? O 0.5496(7) 0.42451(18) 0.4679(2)
S2? S 0.5345(3) 0.49164(9) 0.47012(8)
F4? F 0.8448(4) -0.0522(2) 0.0128(3)
F5? F 0.8669(5) 0.0201(2) -0.0578(2)
F6? F 1.0233(5) -0.0637(2) -0.0539(3)
C86? C 0.9337(2) -0.01783(9) -0.01678(11)
loop_
_geom_bond_atom_site_label_1
_geom_bond_atom_site_label_2
_geom_bond_site_symmetry_1
_geom_bond_site_symmetry_2
C1 C2 1_555 1_555
C2 H1 1_555 1_555
C3 C2 1_555 1_555
H2 C3 1_555 1_555
C4 C3 1_555 1_555
C5 C4 1_555 1_555
H3 C5 1_555 1_555
C6 C1 1_555 1_555
H4 C6 1_555 1_555
C7 C8 1_555 1_555
C8 H5 1_555 1_555
C9 C8 1_555 1_555
C10 C9 1_555 1_555
C11 C10 1_555 1_555
H6 C11 1_555 1_555
C12 C7 1_555 1_555
H7 C12 1_555 1_555
C13 H8 1_555 1_555
H9 C13 1_555 1_555
C14 C13 1_555 1_555
H10 C14 1_555 1_555
H11 C14 1_555 1_555
C15 H12 1_555 1_555
H13 C15 1_555 1_555
C16 C15 1_555 1_555
H14 C16 1_555 1_555
H15 C16 1_555 1_555
C17 H16 1_555 1_555
H17 C17 1_555 1_555
C18 C17 1_555 1_555
H18 C18 1_555 1_555
H19 C18 1_555 1_555
C19 H20 1_555 1_555
H21 C19 1_555 1_555
C20 C19 1_555 1_555
H22 C20 1_555 1_555
H23 C20 1_555 1_555
C21 H24 1_555 1_555
H25 C21 1_555 1_555
C22 C21 1_555 1_555
H26 C22 1_555 1_555
H27 C22 1_555 1_555
C23 C24 1_555 1_555
C24 H28 1_555 1_555
C25 C24 1_555 1_555
C26 C25 1_555 1_555
C27 C26 1_555 1_555
H29 C27 1_555 1_555
C28 C23 1_555 1_555
H30 C28 1_555 1_555
C29 H31 1_555 1_555
H32 C29 1_555 1_555
C30 C29 1_555 1_555
H33 C30 1_555 1_555
H34 C30 1_555 1_555
C31 H35 1_555 1_555
H36 C31 1_555 1_555
C32 C31 1_555 1_555
H37 C32 1_555 1_555
H38 C32 1_555 1_555
C33 H39 1_555 1_555
H40 C33 1_555 1_555
C34 C33 1_555 1_555
H41 C34 1_555 1_555
H42 C34 1_555 1_555
C35 H43 1_555 1_555
H44 C35 1_555 1_555
C36 C35 1_555 1_555
H45 C36 1_555 1_555
H46 C36 1_555 1_555
C37 H47 1_555 1_555
H48 C37 1_555 1_555
C38 C37 1_555 1_555
H49 C38 1_555 1_555
H50 C38 1_555 1_555
N1 C1 1_555 1_555
N2 C4 1_555 1_555
O1 N2 1_555 1_555
O2 N2 1_555 1_555
O3 C9 1_555 1_555
O4 C14 1_555 1_555
O5 C16 1_555 1_555
O6 C18 1_555 1_555
O7 C20 1_555 1_555
O8 C10 1_555 1_555
O9 C25 1_555 1_555
O10 C30 1_555 1_555
O11 C32 1_555 1_555
O12 C34 1_555 1_555
O13 C36 1_555 1_555
O14 C26 1_555 1_555
O15 K1 1_555 1_555
O16 K1 1_555 1_555
K1 O3 1_555 1_555
H51 O15 1_555 1_555
H52 O15 1_555 1_555
H53 O16 1_555 1_555
H54 O16 1_555 1_555
C39 C40 1_555 1_555
C40 H55 1_555 1_555
C41 C40 1_555 1_555
H56 C41 1_555 1_555
C42 C41 1_555 1_555
C43 C42 1_555 1_555
H57 C43 1_555 1_555
C44 C39 1_555 1_555
H58 C44 1_555 1_555
C45 C46 1_555 1_555
C46 H59 1_555 1_555
C47 C46 1_555 1_555
C48 C47 1_555 1_555
C49 C48 1_555 1_555
H60 C49 1_555 1_555
C50 C45 1_555 1_555
H61 C50 1_555 1_555
C51 H62 1_555 1_555
H63 C51 1_555 1_555
C52 C51 1_555 1_555
H64 C52 1_555 1_555
H65 C52 1_555 1_555
C53 H66 1_555 1_555
H67 C53 1_555 1_555
C54 C53 1_555 1_555
H68 C54 1_555 1_555
H69 C54 1_555 1_555
C55 H70 1_555 1_555
H71 C55 1_555 1_555
C56 C55 1_555 1_555
H72 C56 1_555 1_555
H73 C56 1_555 1_555
C57 H74 1_555 1_555
H75 C57 1_555 1_555
C58 C57 1_555 1_555
H76 C58 1_555 1_555
H77 C58 1_555 1_555
C59 H78 1_555 1_555
H79 C59 1_555 1_555
C60 C59 1_555 1_555
H80 C60 1_555 1_555
H81 C60 1_555 1_555
C61 C62 1_555 1_555
C62 H82 1_555 1_555
C63 C62 1_555 1_555
C64 C63 1_555 1_555
C65 C64 1_555 1_555
H83 C65 1_555 1_555
C66 C61 1_555 1_555
H84 C66 1_555 1_555
C67 H85 1_555 1_555
H86 C67 1_555 1_555
C68 C67 1_555 1_555
H87 C68 1_555 1_555
H88 C68 1_555 1_555
C69 H89 1_555 1_555
H90 C69 1_555 1_555
C70 C69 1_555 1_555
H91 C70 1_555 1_555
H92 C70 1_555 1_555
C71 H93 1_555 1_555
H94 C71 1_555 1_555
C72 C71 1_555 1_555
H95 C72 1_555 1_555
H96 C72 1_555 1_555
C73 H97 1_555 1_555
H98 C73 1_555 1_555
C74 C73 1_555 1_555
H99 C74 1_555 1_555
H100 C74 1_555 1_555
C75 H101 1_555 1_555
H102 C75 1_555 1_555
C76 C75 1_555 1_555
H103 C76 1_555 1_555
H104 C76 1_555 1_555
N3 C39 1_555 1_555
N4 C42 1_555 1_555
O17 N4 1_555 1_555
O18 N4 1_555 1_555
O19 C47 1_555 1_555
O20 C52 1_555 1_555
O21 C54 1_555 1_555
O22 C56 1_555 1_555
O23 C58 1_555 1_555
O24 C48 1_555 1_555
O25 C63 1_555 1_555
O26 C68 1_555 1_555
O27 C70 1_555 1_555
O28 C72 1_555 1_555
O29 C74 1_555 1_555
O30 C64 1_555 1_555
C77 C78 1_555 1_555
C78 H105 1_555 1_555
H106 C78 1_555 1_555
H107 C78 1_555 1_555
N5 C77 1_555 1_555
C79 C80 1_555 1_555
C80 H108 1_555 1_555
H109 C80 1_555 1_555
H110 C80 1_555 1_555
N6 C79 1_555 1_555
O31 H111 1_555 1_555
H112 O31 1_555 1_555
O32 H113 1_555 1_555
H114 O32 1_555 1_555
O33 S1 1_555 1_555
O34 S1 1_555 1_555
O35 S1 1_555 1_555
S1 S1A 1_555 1_555
F1 C81 1_555 1_555
F2 C81 1_555 1_555
F3 C81 1_555 1_555
C81 C81A 1_555 1_555
O33A S1A 1_555 1_555
O34A S1A 1_555 1_555
O35A S1A 1_555 1_555
F1A C81A 1_555 1_555
F2A C81A 1_555 1_555
F3A C81A 1_555 1_555
C5 C6 1_555 1_555
C7 N1 1_555 1_555
C11 C12 1_555 1_555
C13 O3 1_555 1_555
C15 O4 1_555 1_555
C17 O5 1_555 1_555
C19 O6 1_555 1_555
C21 O7 1_555 1_555
C22 O8 1_555 1_555
C23 N1 1_555 1_555
C27 C28 1_555 1_555
C29 O9 1_555 1_555
C31 O10 1_555 1_555
C33 O11 1_555 1_555
C35 O12 1_555 1_555
C37 O13 1_555 1_555
C38 O14 1_555 1_555
O4 K1 1_555 1_555
O5 K1 1_555 1_555
O6 K1 1_555 1_555
O7 K1 1_555 1_555
O8 K1 1_555 1_555
C43 C44 1_555 1_555
C45 N3 1_555 1_555
C49 C50 1_555 1_555
C51 O19 1_555 1_555
C53 O20 1_555 1_555
C55 O21 1_555 1_555
C57 O22 1_555 1_555
C59 O23 1_555 1_555
C60 O24 1_555 1_555
C61 N3 1_555 1_555
C65 C66 1_555 1_555
C67 O25 1_555 1_555
C69 O26 1_555 1_555
C71 O27 1_555 1_555
C73 O28 1_555 1_555
C75 O29 1_555 1_555
C76 O30 1_555 1_555

#END
