
#######################################################################
#
#                 Cambridge Crystallographic Data Centre
#                                CCDC 
#
#######################################################################
#
# If this CIF has been generated from an entry in the Cambridge 
# Structural Database, then it will include bibliographic, chemical, 
# crystal, experimental, refinement or atomic coordinate data resulting 
# from the CCDC's data processing and validation procedures.
#
#######################################################################

data_TAXRER
_chemical_formula_moiety         'C12 H17 N3 O7'
_chemical_name_systematic        
'3-Azido-6-methyltetrahydro-2H-pyran-2,4,5-triyl triacetate'
_symmetry_cell_setting           monoclinic
_symmetry_space_group_name_H-M   'P 21'
_symmetry_Int_Tables_number      4
_space_group_name_Hall           'P 2yb'
loop_
_symmetry_equiv_pos_site_id
_symmetry_equiv_pos_as_xyz
1 x,y,z
2 -x,1/2+y,-z
_cell_length_a                   8.6446(4)
_cell_length_b                   7.0539(4)
_cell_length_c                   12.2080(6)
_cell_angle_alpha                90
_cell_angle_beta                 97.9890(10)
_cell_angle_gamma                90
_cell_volume                     737.196
_exptl_crystal_colour            colorless
_exptl_crystal_description       block
_cell_formula_units_Z            2
loop_
_atom_site_label
_atom_site_type_symbol
_atom_site_fract_x
_atom_site_fract_y
_atom_site_fract_z
C1 C 0.5622(2) 0.6169(2) 0.71535(13)
H1 H 0.545(3) 0.733(5) 0.684(2)
C2 C 0.7376(2) 0.5783(3) 0.73367(14)
H2 H 0.777(3) 0.595(4) 0.663(2)
C3 C 0.76821(19) 0.3746(3) 0.77093(14)
H3 H 0.741(3) 0.355(4) 0.842(2)
C4 C 0.6776(2) 0.2374(3) 0.69020(13)
H4 H 0.693(3) 0.109(4) 0.719(2)
C5 C 0.5050(2) 0.2890(2) 0.67743(14)
H5 H 0.471(3) 0.268(4) 0.751(2)
C6 C 0.4041(2) 0.1737(3) 0.59091(15)
H6 H 0.2946 0.2111 0.5891
H7 H 0.4155 0.0387 0.6092
H8 H 0.4367 0.1965 0.5183
C7 C 0.45954(19) 0.7746(3) 0.86336(14)
C8 C 0.4063(2) 0.7451(3) 0.97352(14)
H9 H 0.3964 0.8681 1.0092
H10 H 0.4828 0.6670 1.0201
H11 H 0.3048 0.6809 0.9634
C9 C 1.0030(2) 0.2472(3) 0.86898(16)
C10 C 1.1780(2) 0.2541(4) 0.8768(2)
H12 H 1.2095 0.3748 0.8468
H13 H 1.2141 0.1491 0.8342
H14 H 1.2246 0.2428 0.9544
C11 C 0.8091(2) 0.1052(3) 0.54777(15)
C12 C 0.8702(2) 0.1535(3) 0.44187(16)
H15 H 0.8996 0.0367 0.4064
H16 H 0.9620 0.2356 0.4580
H17 H 0.7890 0.2196 0.3922
N1 N 0.8099(2) 0.7133(3) 0.82016(13)
N2 N 0.9441(2) 0.7554(3) 0.81038(13)
N3 N 1.0680(2) 0.8052(3) 0.80929(16)
O1 O 0.48104(15) 0.48523(18) 0.64470(10)
O2 O 0.50549(15) 0.60880(18) 0.82151(10)
O3 O 0.4623(2) 0.9243(2) 0.81678(13)
O4 O 0.93463(15) 0.3461(2) 0.77910(11)
O5 O 0.93082(17) 0.1677(3) 0.93188(13)
O6 O 0.73373(16) 0.2563(2) 0.58441(10)
O7 O 0.82331(19) -0.0445(2) 0.59459(13)
loop_
_geom_bond_atom_site_label_1
_geom_bond_atom_site_label_2
_geom_bond_site_symmetry_1
_geom_bond_site_symmetry_2
C1 H1 1_555 1_555
C2 C1 1_555 1_555
H2 C2 1_555 1_555
C3 C2 1_555 1_555
H3 C3 1_555 1_555
C4 C3 1_555 1_555
H4 C4 1_555 1_555
C5 C4 1_555 1_555
H5 C5 1_555 1_555
C6 C5 1_555 1_555
H6 C6 1_555 1_555
H7 C6 1_555 1_555
H8 C6 1_555 1_555
C7 C8 1_555 1_555
C8 H9 1_555 1_555
H10 C8 1_555 1_555
H11 C8 1_555 1_555
C9 C10 1_555 1_555
C10 H12 1_555 1_555
H13 C10 1_555 1_555
H14 C10 1_555 1_555
C11 C12 1_555 1_555
C12 H15 1_555 1_555
H16 C12 1_555 1_555
H17 C12 1_555 1_555
N1 C2 1_555 1_555
N2 N1 1_555 1_555
N3 N2 1_555 1_555
O1 C1 1_555 1_555
O2 C1 1_555 1_555
O3 C7 1_555 1_555
O4 C3 1_555 1_555
O5 C9 1_555 1_555
O6 C4 1_555 1_555
O7 C11 1_555 1_555
C5 O1 1_555 1_555
C7 O2 1_555 1_555
C9 O4 1_555 1_555
C11 O6 1_555 1_555

#END
