
#######################################################################
#
#                 Cambridge Crystallographic Data Centre
#                                CCDC 
#
#######################################################################
#
# If this CIF has been generated from an entry in the Cambridge 
# Structural Database, then it will include bibliographic, chemical, 
# crystal, experimental, refinement or atomic coordinate data resulting 
# from the CCDC's data processing and validation procedures.
#
#######################################################################

data_TAXRAO
_chemical_name_common            
"4,4'-[(4-nitrophenyl)azanediyl]bis(benzo-18-crown-6) tridecahydrate"
_chemical_formula_moiety         'C38 H50 N2 O14,13(H2 O1)'
_chemical_name_systematic        
'N-(2,3,5,6,8,9,11,12,14,15-decahydro-1,4,7,10,13,16-benzohexaoxacyclooctadecin-18-yl)-N-(4-nitrophenyl)-2,3,5,6,8,9,11,12,14,15-decahydro-1,4,7,10,13,16-benzohexaoxacyclooctadecin-18-amine tridecahydrate'
_symmetry_cell_setting           monoclinic
_symmetry_space_group_name_H-M   'P 21/c'
_symmetry_Int_Tables_number      14
_space_group_name_Hall           '-P 2ybc'
loop_
_symmetry_equiv_pos_site_id
_symmetry_equiv_pos_as_xyz
1 x,y,z
2 -x,1/2+y,1/2-z
3 -x,-y,-z
4 x,1/2-y,1/2+z
_cell_length_a                   24.6495(14)
_cell_length_b                   8.8435(5)
_cell_length_c                   32.1542(13)
_cell_angle_alpha                90
_cell_angle_beta                 130.301(3)
_cell_angle_gamma                90
_cell_volume                     5345.63
_exptl_crystal_colour            yellow
_exptl_crystal_description       prism
_cell_formula_units_Z            4
loop_
_atom_site_label
_atom_site_type_symbol
_atom_site_fract_x
_atom_site_fract_y
_atom_site_fract_z
C1 C 0.54590(14) 0.6660(3) 0.10602(10)
C2 C 0.47860(14) 0.6041(3) 0.08208(12)
H1 H 0.4479 0.6556 0.0855
C3 C 0.45721(15) 0.4707(3) 0.05394(11)
H2 H 0.4119 0.4299 0.0383
C4 C 0.50104(14) 0.3946(3) 0.04813(11)
C5 C 0.56909(14) 0.4491(3) 0.07304(11)
H3 H 0.5998 0.3949 0.0701
C6 C 0.59121(14) 0.5833(3) 0.10205(11)
H4 H 0.6377 0.6201 0.1196
C7 C 0.51518(14) 0.8919(3) 0.13055(11)
C8 C 0.46391(15) 0.9728(3) 0.08422(11)
H5 H 0.4634 0.9740 0.0544
C9 C 0.41284(15) 1.0529(3) 0.08118(11)
H6 H 0.3769 1.1072 0.0489
C10 C 0.41417(14) 1.0540(3) 0.12514(11)
C11 C 0.46728(13) 0.9717(3) 0.17229(10)
C12 C 0.51771(14) 0.8905(3) 0.17519(11)
H7 H 0.5535 0.8347 0.2071
C13 C 0.31124(15) 1.2123(4) 0.07968(11)
H8 H 0.2778 1.1424 0.0491
H9 H 0.3313 1.2815 0.0684
C14 C 0.27307(16) 1.3010(4) 0.09362(13)
H10 H 0.3080 1.3595 0.1274
H11 H 0.2400 1.3734 0.0639
C15 C 0.19905(17) 1.2860(4) 0.11608(14)
H12 H 0.1617 1.3510 0.0853
H13 H 0.2338 1.3520 0.1477
C16 C 0.16608(16) 1.1788(4) 0.13056(13)
H14 H 0.1380 1.2362 0.1373
H15 H 0.1338 1.1080 0.1000
C17 C 0.19535(18) 1.0075(4) 0.19920(15)
H16 H 0.1602 0.9331 0.1715
H17 H 0.1716 1.0733 0.2081
C18 C 0.25657(19) 0.9269(4) 0.24947(15)
H18 H 0.2946 1.0001 0.2752
H19 H 0.2407 0.8779 0.2677
C19 C 0.34473(17) 0.7367(4) 0.27982(13)
H20 H 0.3473 0.6375 0.2669
H21 H 0.3392 0.7173 0.3072
C20 C 0.41341(17) 0.8195(4) 0.30687(12)
H22 H 0.4084 0.9260 0.3134
H23 H 0.4517 0.7722 0.3425
C21 C 0.49537(15) 0.8961(4) 0.29666(11)
H24 H 0.5346 0.8541 0.3331
H25 H 0.4889 1.0036 0.3011
C22 C 0.51355(14) 0.8840(3) 0.26049(11)
H26 H 0.5626 0.9204 0.2799
H27 H 0.5104 0.7774 0.2497
C23 C 0.63539(14) 0.8660(3) 0.15974(11)
C24 C 0.68838(15) 0.8504(3) 0.21512(11)
H28 H 0.6800 0.7939 0.2356
C25 C 0.75452(15) 0.9176(3) 0.24123(11)
H29 H 0.7912 0.9063 0.2795
C26 C 0.76691(13) 1.0005(3) 0.21174(10)
C27 C 0.71290(14) 1.0143(3) 0.15497(10)
C28 C 0.64755(14) 0.9478(3) 0.12888(10)
H30 H 0.6111 0.9569 0.0905
C29 C 0.88825(15) 1.0567(4) 0.29013(12)
H31 H 0.9029 0.9494 0.2992
H32 H 0.8745 1.0915 0.3115
C30 C 0.94809(16) 1.1504(4) 0.30356(13)
H33 H 0.9934 1.1173 0.3388
H34 H 0.9520 1.1378 0.2750
C31 C 0.98349(17) 1.4046(4) 0.31006(14)
H35 H 0.9780 1.3946 0.2768
H36 H 1.0331 1.3785 0.3420
C32 C 0.9673(2) 1.5643(5) 0.31523(17)
H37 H 0.9647 1.5679 0.3447
H38 H 1.0070 1.6305 0.3261
C33 C 0.9122(3) 1.7018(4) 0.23375(18)
H39 H 0.9433 1.6433 0.2303
H40 H 0.9355 1.8001 0.2509
C34 C 0.8426(3) 1.7278(4) 0.17911(19)
H41 H 0.8072 1.7566 0.1829
H42 H 0.8468 1.8126 0.1612
C35 C 0.75456(19) 1.6195(4) 0.09141(17)
H43 H 0.7606 1.7045 0.0747
H44 H 0.7153 1.6450 0.0912
C36 C 0.73691(17) 1.4779(4) 0.05931(14)
H45 H 0.7012 1.5001 0.0198
H46 H 0.7802 1.4377 0.0671
C37 C 0.70549(17) 1.2247(4) 0.05371(12)
H47 H 0.7532 1.1937 0.0675
H48 H 0.6731 1.2274 0.0134
C38 C 0.67874(15) 1.1132(4) 0.07157(11)
H49 H 0.6339 1.1502 0.0619
H50 H 0.6691 1.0151 0.0531
N1 N 0.56611(12) 0.8018(3) 0.13264(9)
N2 N 0.47480(13) 0.2599(3) 0.01500(9)
O1 O 0.41259(11) 0.2217(2) -0.00878(8)
O2 O 0.51368(12) 0.1907(3) 0.01014(9)
O3 O 0.36712(10) 1.1285(2) 0.12692(7)
O4 O 0.23418(10) 1.2030(2) 0.10120(8)
O5 O 0.22122(11) 1.0968(3) 0.17824(9)
O6 O 0.28315(12) 0.8159(3) 0.23466(9)
O7 O 0.43154(10) 0.8144(2) 0.27283(8)
O8 O 0.46343(10) 0.9758(2) 0.21300(7)
O9 O 0.82966(10) 1.0724(2) 0.23313(8)
O10 O 0.93517(11) 1.3045(3) 0.30692(9)
O11 O 0.90318(14) 1.6219(3) 0.26688(12)
O12 O 0.81870(13) 1.5970(3) 0.14607(11)
O13 O 0.70942(11) 1.3696(3) 0.07389(9)
O14 O 0.73188(10) 1.0944(2) 0.12964(8)
O15 O 0.63376(10) 0.6483(3) 0.27535(8)
H51 H 0.6191 0.5988 0.2900
H52 H 0.6783 0.6210 0.2941
O16 O 0.35072(13) 0.6453(3) 0.17226(10)
H53 H 0.3014 0.6610 0.1551
H54 H 0.3765 0.7077 0.2044
O17 O 0.17386(12) 0.9234(3) 0.05678(10)
H55 H 0.1971 1.0215 0.0747
H56 H 0.1864 0.8644 0.0839
O18 O 0.20833(13) 0.7111(3) 0.50053(10)
H57 H 0.1910 0.6517 0.5143
H58 H 0.2523 0.7225 0.5253
O19 O 0.99166(14) 0.3113(3) 0.41552(9)
H59 H 0.9636 0.3172 0.3762
H60 H 1.0065 0.4053 0.4373
O20 O 0.08042(13) 0.8885(3) 0.33439(10)
H61 H 0.1119 0.9486 0.3357
H62 H 0.0984 0.8060 0.3320
O21 O 0.10183(13) 0.9144(3) 0.42855(11)
H63 H 0.0919 0.8969 0.3921
H64 H 0.1398 0.8615 0.4539
O22 O 0.12942(14) 0.2139(3) 0.45458(11)
H65 H 0.1199 0.1004 0.4413
H66 H 0.0885 0.2529 0.4483
O23 O 0.21168(13) 0.7975(3) 0.63200(10)
H67 H 0.2278 0.7538 0.6642
H68 H 0.1622 0.8301 0.6103
O24 O 0.11924(12) 0.5982(3) 0.33178(10)
H69 H 0.1399 0.5395 0.3623
H70 H 0.1513 0.5941 0.3277
O25 O 0.34689(14) 0.7948(3) 0.58601(11)
H71 H 0.3620 0.6826 0.5894
H72 H 0.3506 0.7990 0.6145
O26 O 0.18028(16) 0.0387(3) 0.93240(11)
H73 H 0.1893 -0.0329 0.9568
H74 H 0.1627 0.1057 0.9426
O27 O 0.07681(18) 0.9181(4) 0.5746(2)
H75 H 0.0589 0.8587 0.5867
H76 H 0.0510 1.0180 0.5692
loop_
_geom_bond_atom_site_label_1
_geom_bond_atom_site_label_2
_geom_bond_site_symmetry_1
_geom_bond_site_symmetry_2
C1 C2 1_555 1_555
C2 H1 1_555 1_555
C3 C2 1_555 1_555
H2 C3 1_555 1_555
C4 C3 1_555 1_555
C5 C4 1_555 1_555
H3 C5 1_555 1_555
C6 C1 1_555 1_555
H4 C6 1_555 1_555
C7 C8 1_555 1_555
C8 H5 1_555 1_555
C9 C8 1_555 1_555
H6 C9 1_555 1_555
C10 C9 1_555 1_555
C11 C10 1_555 1_555
C12 C7 1_555 1_555
H7 C12 1_555 1_555
C13 H8 1_555 1_555
H9 C13 1_555 1_555
C14 C13 1_555 1_555
H10 C14 1_555 1_555
H11 C14 1_555 1_555
C15 H12 1_555 1_555
H13 C15 1_555 1_555
C16 C15 1_555 1_555
H14 C16 1_555 1_555
H15 C16 1_555 1_555
C17 H16 1_555 1_555
H17 C17 1_555 1_555
C18 C17 1_555 1_555
H18 C18 1_555 1_555
H19 C18 1_555 1_555
C19 H20 1_555 1_555
H21 C19 1_555 1_555
C20 C19 1_555 1_555
H22 C20 1_555 1_555
H23 C20 1_555 1_555
C21 H24 1_555 1_555
H25 C21 1_555 1_555
C22 C21 1_555 1_555
H26 C22 1_555 1_555
H27 C22 1_555 1_555
C23 C24 1_555 1_555
C24 H28 1_555 1_555
C25 C24 1_555 1_555
H29 C25 1_555 1_555
C26 C25 1_555 1_555
C27 C26 1_555 1_555
C28 C23 1_555 1_555
H30 C28 1_555 1_555
C29 H31 1_555 1_555
H32 C29 1_555 1_555
C30 C29 1_555 1_555
H33 C30 1_555 1_555
H34 C30 1_555 1_555
C31 H35 1_555 1_555
H36 C31 1_555 1_555
C32 C31 1_555 1_555
H37 C32 1_555 1_555
H38 C32 1_555 1_555
C33 H39 1_555 1_555
H40 C33 1_555 1_555
C34 C33 1_555 1_555
H41 C34 1_555 1_555
H42 C34 1_555 1_555
C35 H43 1_555 1_555
H44 C35 1_555 1_555
C36 C35 1_555 1_555
H45 C36 1_555 1_555
H46 C36 1_555 1_555
C37 H47 1_555 1_555
H48 C37 1_555 1_555
C38 C37 1_555 1_555
H49 C38 1_555 1_555
H50 C38 1_555 1_555
N1 C1 1_555 1_555
N2 C4 1_555 1_555
O1 N2 1_555 1_555
O2 N2 1_555 1_555
O3 C10 1_555 1_555
O4 C14 1_555 1_555
O5 C16 1_555 1_555
O6 C18 1_555 1_555
O7 C20 1_555 1_555
O8 C11 1_555 1_555
O9 C26 1_555 1_555
O10 C30 1_555 1_555
O11 C32 1_555 1_555
O12 C34 1_555 1_555
O13 C36 1_555 1_555
O14 C27 1_555 1_555
O15 H51 1_555 1_555
H52 O15 1_555 1_555
O16 H53 1_555 1_555
H54 O16 1_555 1_555
O17 H55 1_555 1_555
H56 O17 1_555 1_555
O18 H57 1_555 1_555
H58 O18 1_555 1_555
O19 H59 1_555 1_555
H60 O19 1_555 1_555
O20 H61 1_555 1_555
H62 O20 1_555 1_555
O21 H63 1_555 1_555
H64 O21 1_555 1_555
O22 H65 1_555 1_555
H66 O22 1_555 1_555
O23 H67 1_555 1_555
H68 O23 1_555 1_555
O24 H69 1_555 1_555
H70 O24 1_555 1_555
O25 H71 1_555 1_555
H72 O25 1_555 1_555
O26 H73 1_555 1_555
H74 O26 1_555 1_555
O27 H75 1_555 1_555
H76 O27 1_555 1_555
C5 C6 1_555 1_555
C7 N1 1_555 1_555
C11 C12 1_555 1_555
C13 O3 1_555 1_555
C15 O4 1_555 1_555
C17 O5 1_555 1_555
C19 O6 1_555 1_555
C21 O7 1_555 1_555
C22 O8 1_555 1_555
C23 N1 1_555 1_555
C27 C28 1_555 1_555
C29 O9 1_555 1_555
C31 O10 1_555 1_555
C33 O11 1_555 1_555
C35 O12 1_555 1_555
C37 O13 1_555 1_555
C38 O14 1_555 1_555

#END
