
#######################################################################
#
#                 Cambridge Crystallographic Data Centre
#                                CCDC 
#
#######################################################################
#
# If this CIF has been generated from an entry in the Cambridge 
# Structural Database, then it will include bibliographic, chemical, 
# crystal, experimental, refinement or atomic coordinate data resulting 
# from the CCDC's data processing and validation procedures.
#
#######################################################################

data_TAXRUI
_chemical_formula_moiety         'C21 H17 N3 O4'
_chemical_name_systematic        
2-hydroxy-N'-(2-hydroxybenzylidene)-4-((2-hydroxybenzylidene)amino)benzohydrazide
_symmetry_cell_setting           monoclinic
_symmetry_space_group_name_H-M   'P 21/n'
_symmetry_Int_Tables_number      14
_space_group_name_Hall           '-P 2yn'
loop_
_symmetry_equiv_pos_site_id
_symmetry_equiv_pos_as_xyz
1 x,y,z
2 1/2-x,1/2+y,1/2-z
3 -x,-y,-z
4 1/2+x,1/2-y,1/2+z
_cell_length_a                   6.6135(9)
_cell_length_b                   36.548(3)
_cell_length_c                   7.6248(13)
_cell_angle_alpha                90
_cell_angle_beta                 109.106(17)
_cell_angle_gamma                90
_cell_volume                     1741.47
_cell_formula_units_Z            4
loop_
_atom_site_label
_atom_site_type_symbol
_atom_site_fract_x
_atom_site_fract_y
_atom_site_fract_z
C1 C 0.5830(5) 0.03726(9) 0.6651(5)
N1 N 0.9995(5) -0.05226(8) 0.8612(4)
N2 N 0.4671(5) 0.09328(9) 0.4939(5)
C2 C 0.9114(5) 0.00454(9) 0.7008(5)
H1 H 1.0411 0.0029 0.6783
N3 N 0.3269(5) 0.12151(8) 0.4318(5)
C3 C 0.8548(6) -0.02269(9) 0.8020(5)
C4 C 0.4245(5) 0.06695(9) 0.5988(5)
C5 C 1.1150(6) -0.10641(10) 1.0387(5)
C6 C 0.3804(7) 0.14724(10) 0.3420(6)
H2 H 0.5109 0.1461 0.3208
C7 C 0.7787(6) 0.03419(9) 0.6325(5)
C8 C 0.9713(6) -0.07601(10) 0.9735(5)
H3 H 0.8541 -0.0736 1.0145
C9 C 0.5302(6) 0.00975(10) 0.7682(5)
H4 H 0.4020 0.0115 0.7932
O1 O 1.3468(5) -0.08749(8) 0.8701(5)
O2 O 0.2578(4) 0.06746(7) 0.6395(4)
C10 C 0.6607(6) -0.01988(10) 0.8345(6)
H5 H 0.6191 -0.0380 0.9011
C11 C 0.0477(7) 0.18244(12) 0.3092(6)
O3 O -0.0202(5) 0.15788(10) 0.4086(6)
H6 H 0.0653 0.1409 0.4382
C12 C 0.2409(7) 0.17798(10) 0.2735(6)
C13 C 1.4374(7) -0.13972(11) 1.0597(6)
H7 H 1.5618 -0.1422 1.0291
C14 C 1.3004(6) -0.11109(10) 0.9888(6)
C15 C 1.3911(8) -0.16464(12) 1.1754(7)
H8 H 1.4836 -0.1842 1.2212
C16 C 1.0766(7) -0.13207(11) 1.1595(6)
H9 H 0.9569 -0.1293 1.1968
C17 C 1.2096(8) -0.16114(12) 1.2246(7)
H10 H 1.1779 -0.1784 1.3013
C18 C -0.0784(9) 0.21255(14) 0.2410(8)
H11 H -0.2052 0.2156 0.2672
C19 C -0.0208(11) 0.23774(14) 0.1368(9)
H12 H -0.1098 0.2576 0.0899
C20 C 0.2954(8) 0.20462(12) 0.1670(7)
H13 H 0.4226 0.2023 0.1408
C21 C 0.1669(11) 0.23430(14) 0.0996(9)
H14 H 0.2069 0.2519 0.0293
O4 O 0.8366(4) 0.06064(7) 0.5319(4)
H15 H 0.979(8) 0.0613(11) 0.580(6)
H16 H 1.227(8) -0.0675(13) 0.835(7)
H17 H 0.579(6) 0.0919(10) 0.469(6)
loop_
_geom_bond_atom_site_label_1
_geom_bond_atom_site_label_2
_geom_bond_site_symmetry_1
_geom_bond_site_symmetry_2
C1 C4 1_555 1_555
N1 C3 1_555 1_555
N2 N3 1_555 1_555
C2 H1 1_555 1_555
N3 C6 1_555 1_555
C3 C2 1_555 1_555
C4 N2 1_555 1_555
C5 C8 1_555 1_555
C6 H2 1_555 1_555
C7 C1 1_555 1_555
C8 N1 1_555 1_555
H3 C8 1_555 1_555
C9 C1 1_555 1_555
H4 C9 1_555 1_555
O1 C14 1_555 1_555
O2 C4 1_555 1_555
C10 C3 1_555 1_555
H5 C10 1_555 1_555
C11 O3 1_555 1_555
O3 H6 1_555 1_555
C12 C6 1_555 1_555
C13 H7 1_555 1_555
C14 C5 1_555 1_555
C15 C13 1_555 1_555
H8 C15 1_555 1_555
C16 C5 1_555 1_555
H9 C16 1_555 1_555
C17 C15 1_555 1_555
H10 C17 1_555 1_555
C18 C11 1_555 1_555
H11 C18 1_555 1_555
C19 C18 1_555 1_555
H12 C19 1_555 1_555
C20 C12 1_555 1_555
H13 C20 1_555 1_555
C21 C19 1_555 1_555
H14 C21 1_555 1_555
O4 C7 1_555 1_555
H15 O4 1_555 1_555
H16 O1 1_555 1_555
H17 N2 1_555 1_555
C2 C7 1_555 1_555
C9 C10 1_555 1_555
C11 C12 1_555 1_555
C13 C14 1_555 1_555
C16 C17 1_555 1_555
C20 C21 1_555 1_555

#END
