
#######################################################################
#
#                 Cambridge Crystallographic Data Centre
#                                CCDC 
#
#######################################################################
#
# If this CIF has been generated from an entry in the Cambridge 
# Structural Database, then it will include bibliographic, chemical, 
# crystal, experimental, refinement or atomic coordinate data resulting 
# from the CCDC's data processing and validation procedures.
#
#######################################################################

data_TAXTUJ
_chemical_formula_moiety         'C16 H19 N1 O5'
_chemical_name_systematic        
'Ethyl 4-(4-methoxyphenyl)-5-nitrocyclohex-1-ene-1-carboxylate'
_symmetry_cell_setting           orthorhombic
_symmetry_space_group_name_H-M   'P 21 21 21'
_symmetry_Int_Tables_number      19
_space_group_name_Hall           'P 2ac 2ab'
loop_
_symmetry_equiv_pos_site_id
_symmetry_equiv_pos_as_xyz
1 x,y,z
2 1/2-x,-y,1/2+z
3 -x,1/2+y,1/2-z
4 1/2+x,1/2-y,-z
_cell_length_a                   8.8799(3)
_cell_length_b                   17.7248(5)
_cell_length_c                   19.2543(5)
_cell_angle_alpha                90
_cell_angle_beta                 90
_cell_angle_gamma                90
_cell_volume                     3030.52
_exptl_crystal_colour            white
_exptl_crystal_description       block
_cell_formula_units_Z            8
loop_
_atom_site_label
_atom_site_type_symbol
_atom_site_fract_x
_atom_site_fract_y
_atom_site_fract_z
C1 C 1.12598(18) 0.76853(8) 0.49591(7)
H1 H 1.2235 0.7533 0.4767
H2 H 1.1319 0.7691 0.5467
H3 H 1.1003 0.8191 0.4791
C2 C 0.99959(14) 0.70330(7) 0.40455(7)
C3 C 1.08086(15) 0.74169(7) 0.35407(7)
H4 H 1.1513 0.7795 0.3671
C4 C 1.05847(14) 0.72451(7) 0.28436(7)
H5 H 1.1153 0.7506 0.2501
C5 C 0.95515(14) 0.67028(7) 0.26351(6)
C6 C 0.87393(14) 0.63224(7) 0.31512(6)
H6 H 0.8029 0.5947 0.3021
C7 C 0.89542(15) 0.64843(7) 0.38479(7)
H7 H 0.8392 0.6222 0.4191
C8 C 0.93367(14) 0.65210(7) 0.18719(6)
H8 H 1.0018 0.6856 0.1596
C9 C 0.97353(14) 0.56967(7) 0.17034(6)
H9 H 0.8991 0.5358 0.1937
C10 C 0.97202(15) 0.55358(7) 0.09266(7)
H10 H 1.0596 0.5782 0.0704
H11 H 0.9798 0.4985 0.0847
C11 C 0.82809(15) 0.58302(7) 0.06081(6)
C12 C 0.73909(15) 0.63280(7) 0.09224(6)
H12 H 0.6503 0.6485 0.0688
C13 C 0.77106(15) 0.66556(7) 0.16263(6)
H13 H 0.7009 0.6430 0.1968
H14 H 0.7516 0.7205 0.1613
C14 C 0.79035(16) 0.55130(7) -0.00881(6)
C15 C 0.65485(17) 0.56728(8) -0.11337(7)
H15 H 0.6086 0.5165 -0.1108
H16 H 0.7461 0.5642 -0.1428
C16 C 0.54562(18) 0.62277(8) -0.14316(7)
H17 H 0.4519 0.6215 -0.1163
H18 H 0.5245 0.6096 -0.1916
H19 H 0.5890 0.6736 -0.1410
N1 N 1.12812(13) 0.55358(6) 0.19896(6)
O1 O 1.01250(11) 0.71614(5) 0.47438(5)
O2 O 1.23638(10) 0.58630(6) 0.17324(6)
O3 O 1.13753(12) 0.50989(6) 0.24811(5)
O4 O 0.84387(12) 0.49277(6) -0.03062(5)
O5 O 0.69379(10) 0.59396(5) -0.04412(4)
C17 C 0.66103(19) 0.21612(9) 0.47925(9)
H20 H 0.6363 0.1689 0.4553
H21 H 0.6735 0.2062 0.5290
H22 H 0.7549 0.2367 0.4603
C18 C 0.51703(15) 0.29432(8) 0.40322(7)
C19 C 0.58172(15) 0.26382(7) 0.34376(7)
H23 H 0.6506 0.2230 0.3472
C20 C 0.54432(15) 0.29387(8) 0.27896(7)
H24 H 0.5888 0.2730 0.2384
C21 C 0.44393(14) 0.35339(7) 0.27232(7)
C22 C 0.38001(14) 0.38247(7) 0.33275(7)
H25 H 0.3099 0.4228 0.3294
C23 C 0.41627(15) 0.35403(7) 0.39735(7)
H26 H 0.3723 0.3753 0.4379
C24 C 0.39727(14) 0.38814(7) 0.20382(6)
H27 H 0.3565 0.4395 0.2142
C25 C 0.52384(15) 0.39794(7) 0.15110(7)
H28 H 0.5557 0.3473 0.1335
C26 C 0.47282(16) 0.44699(8) 0.09006(7)
H29 H 0.4594 0.4997 0.1058
H30 H 0.5506 0.4464 0.0532
C27 C 0.32616(15) 0.41719(7) 0.06150(7)
C28 C 0.23684(15) 0.37053(8) 0.09673(7)
H31 H 0.1468 0.3537 0.0750
C29 C 0.27044(15) 0.34299(8) 0.16875(7)
H32 H 0.2998 0.2892 0.1666
H33 H 0.1781 0.3468 0.1973
C30 C 0.28699(17) 0.44563(8) -0.00890(7)
C31 C 0.15062(17) 0.42720(8) -0.11235(7)
H34 H 0.2433 0.4334 -0.1404
H35 H 0.0984 0.4765 -0.1100
C32 C 0.05075(18) 0.36978(9) -0.14481(7)
H36 H 0.0986 0.3200 -0.1419
H37 H 0.0337 0.3828 -0.1936
H38 H -0.0459 0.3686 -0.1202
N2 N 0.65647(13) 0.43653(6) 0.18523(6)
O6 O 0.54225(11) 0.26921(6) 0.46924(5)
O7 O 0.63372(12) 0.49297(6) 0.22011(5)
O8 O 0.78079(12) 0.40947(6) 0.17564(7)
O9 O 0.34008(13) 0.50279(6) -0.03279(6)
O10 O 0.18887(11) 0.40146(5) -0.04251(4)
loop_
_geom_bond_atom_site_label_1
_geom_bond_atom_site_label_2
_geom_bond_site_symmetry_1
_geom_bond_site_symmetry_2
C1 H1 1_555 1_555
H2 C1 1_555 1_555
H3 C1 1_555 1_555
C2 C3 1_555 1_555
C3 H4 1_555 1_555
C4 C3 1_555 1_555
H5 C4 1_555 1_555
C5 C4 1_555 1_555
C6 C5 1_555 1_555
H6 C6 1_555 1_555
C7 C2 1_555 1_555
H7 C7 1_555 1_555
C8 C5 1_555 1_555
H8 C8 1_555 1_555
C9 C8 1_555 1_555
H9 C9 1_555 1_555
C10 C9 1_555 1_555
H10 C10 1_555 1_555
H11 C10 1_555 1_555
C11 C10 1_555 1_555
C12 C11 1_555 1_555
H12 C12 1_555 1_555
C13 C8 1_555 1_555
H13 C13 1_555 1_555
H14 C13 1_555 1_555
C14 C11 1_555 1_555
C15 H15 1_555 1_555
H16 C15 1_555 1_555
C16 C15 1_555 1_555
H17 C16 1_555 1_555
H18 C16 1_555 1_555
H19 C16 1_555 1_555
C17 H20 1_555 1_555
H21 C17 1_555 1_555
H22 C17 1_555 1_555
C18 C19 1_555 1_555
C19 H23 1_555 1_555
C20 C19 1_555 1_555
H24 C20 1_555 1_555
C21 C20 1_555 1_555
C22 C21 1_555 1_555
H25 C22 1_555 1_555
C23 C18 1_555 1_555
H26 C23 1_555 1_555
C24 C21 1_555 1_555
H27 C24 1_555 1_555
C25 C24 1_555 1_555
H28 C25 1_555 1_555
C26 C25 1_555 1_555
H29 C26 1_555 1_555
H30 C26 1_555 1_555
C27 C26 1_555 1_555
C28 C27 1_555 1_555
H31 C28 1_555 1_555
C29 C24 1_555 1_555
H32 C29 1_555 1_555
H33 C29 1_555 1_555
C30 C27 1_555 1_555
C31 H34 1_555 1_555
H35 C31 1_555 1_555
C32 C31 1_555 1_555
H36 C32 1_555 1_555
H37 C32 1_555 1_555
H38 C32 1_555 1_555
N1 C9 1_555 1_555
N2 C25 1_555 1_555
O1 C1 1_555 1_555
O2 N1 1_555 1_555
O3 N1 1_555 1_555
O4 C14 1_555 1_555
O5 C14 1_555 1_555
O6 C17 1_555 1_555
O7 N2 1_555 1_555
O8 N2 1_555 1_555
O9 C30 1_555 1_555
O10 C30 1_555 1_555
C2 O1 1_555 1_555
C6 C7 1_555 1_555
C12 C13 1_555 1_555
C15 O5 1_555 1_555
C18 O6 1_555 1_555
C22 C23 1_555 1_555
C28 C29 1_555 1_555
C31 O10 1_555 1_555

#END
