
#######################################################################
#
#                 Cambridge Crystallographic Data Centre
#                                CCDC 
#
#######################################################################
#
# If this CIF has been generated from an entry in the Cambridge 
# Structural Database, then it will include bibliographic, chemical, 
# crystal, experimental, refinement or atomic coordinate data resulting 
# from the CCDC's data processing and validation procedures.
#
#######################################################################

data_TAXTIX
_chemical_formula_moiety         'C44 H42 N2 O4 P2'
_chemical_name_systematic        
cis-N,N,N',N'-tetrakis(1-phenylethyl)[1,3,2]benzodioxaphosphepino[6,5,4-def][1,3,2]benzodioxaphosphepine-5,11-diamine
_symmetry_cell_setting           orthorhombic
_symmetry_space_group_name_H-M   'P 21 21 21'
_symmetry_Int_Tables_number      19
_space_group_name_Hall           'P 2ac 2ab'
loop_
_symmetry_equiv_pos_site_id
_symmetry_equiv_pos_as_xyz
1 x,y,z
2 1/2-x,-y,1/2+z
3 1/2+x,1/2-y,-z
4 -x,1/2+y,1/2-z
_cell_length_a                   12.2790(3)
_cell_length_b                   12.6968(3)
_cell_length_c                   24.4226(6)
_cell_angle_alpha                90
_cell_angle_beta                 90
_cell_angle_gamma                90
_cell_volume                     3807.58
_cell_formula_units_Z            4
loop_
_atom_site_label
_atom_site_type_symbol
_atom_site_fract_x
_atom_site_fract_y
_atom_site_fract_z
P1 P -0.59704(4) -0.37656(4) -0.01934(2)
P2 P -0.36254(5) -0.35538(4) -0.26017(2)
O1 O -0.55476(13) -0.27095(12) -0.05296(6)
O2 O -0.31281(12) -0.34447(12) -0.19700(6)
O3 O -0.58728(12) -0.46154(11) -0.07078(6)
O4 O -0.49194(14) -0.33203(15) -0.24493(6)
C1 C -0.45301(16) -0.39923(16) -0.13422(8)
N1 N -0.73104(15) -0.37646(15) -0.01508(7)
C2 C -0.2844(2) -0.14635(18) -0.25704(10)
H1 H -0.3070 -0.1556 -0.2189
N2 N -0.30647(15) -0.24772(15) -0.28562(7)
C3 C -0.28698(19) -0.24930(18) -0.34602(8)
H2 H -0.2459 -0.1852 -0.3544
C4 C -0.32024(18) -0.57077(18) -0.10465(10)
H3 H -0.2761 -0.6271 -0.0947
C5 C -0.42014(18) -0.55570(16) -0.07868(9)
H4 H -0.4430 -0.6017 -0.0513
C6 C -0.48486(16) -0.47162(16) -0.09404(8)
C7 C -0.78087(17) -0.36243(19) 0.04003(8)
H5 H -0.8564 -0.3408 0.0336
C8 C -0.51956(16) -0.30698(16) -0.14850(8)
C9 C -0.35145(17) -0.41743(16) -0.15915(8)
C10 C -0.28670(18) -0.50193(18) -0.14525(10)
H6 H -0.2207 -0.5127 -0.1631
C11 C -0.57156(17) -0.24691(17) -0.10764(9)
C12 C -0.88795(19) -0.4789(2) -0.04983(8)
C13 C -0.2366(2) -0.4003(2) -0.41002(10)
H7 H -0.3000 -0.3885 -0.4298
C14 C -0.21490(19) -0.34093(19) -0.36318(9)
C15 C -0.6311(2) -0.15777(19) -0.11959(11)
H8 H -0.6620 -0.1182 -0.0916
C16 C -0.7112(2) -0.5433(2) 0.07168(11)
H9 H -0.6550 -0.5406 0.0462
C17 C -0.6444(2) -0.1277(2) -0.17327(12)
H10 H -0.6861 -0.0686 -0.1815
C18 C -0.8705(2) -0.4699(2) 0.11239(10)
H11 H -0.9223 -0.4166 0.1147
C19 C -0.8481(2) -0.5815(2) -0.04931(10)
H12 H -0.7747 -0.5935 -0.0563
C20 C -0.78672(18) -0.46158(19) 0.07417(8)
C21 C -0.9981(2) -0.4634(2) -0.03945(10)
H13 H -1.0264 -0.3954 -0.0396
C22 C -0.5966(2) -0.1844(2) -0.21497(11)
H14 H -0.6060 -0.1636 -0.2512
C23 C -0.81051(18) -0.3873(2) -0.06104(9)
H15 H -0.7686 -0.4056 -0.0938
C24 C -0.1203(2) -0.3626(2) -0.33511(12)
H16 H -0.1038 -0.3241 -0.3038
C25 C -0.0963(2) -0.1850(2) -0.22135(10)
H17 H -0.1280 -0.2307 -0.1962
C26 C -0.1627(2) -0.1269(2) -0.25650(10)
C27 C -0.8686(2) -0.2841(2) -0.07300(11)
H18 H -0.8158 -0.2299 -0.0799
H19 H -0.9125 -0.2646 -0.0421
H20 H -0.9143 -0.2924 -0.1046
C28 C -1.0660(2) -0.5477(3) -0.02899(11)
H21 H -1.1394 -0.5362 -0.0219
C29 C -0.7194(3) -0.6291(2) 0.10718(13)
H22 H -0.6676 -0.6826 0.1055
C30 C -0.0007(3) -0.0475(5) -0.29386(19)
H23 H 0.0317 -0.0017 -0.3187
C31 C -0.7277(2) -0.2727(2) 0.07236(10)
H24 H -0.7247 -0.2106 0.0500
H25 H -0.6552 -0.2928 0.0827
H26 H -0.7698 -0.2585 0.1046
C32 C -0.3936(2) -0.2407(2) -0.37735(11)
H27 H -0.4340 -0.1811 -0.3642
H28 H -0.4355 -0.3036 -0.3720
H29 H -0.3785 -0.2318 -0.4157
C33 C -0.3504(2) -0.0553(2) -0.27995(13)
H30 H -0.4264 -0.0729 -0.2790
H31 H -0.3286 -0.0421 -0.3171
H32 H -0.3378 0.0065 -0.2582
C34 C -0.8023(3) -0.6358(2) 0.14437(11)
H33 H -0.8074 -0.6935 0.1676
C35 C -0.8781(3) -0.5561(2) 0.14704(11)
H34 H -0.9347 -0.5601 0.1722
C36 C -0.53412(17) -0.27279(18) -0.20268(9)
C37 C -0.9156(3) -0.6656(2) -0.03867(12)
H35 H -0.8873 -0.7335 -0.0380
C38 C -1.0252(3) -0.6496(3) -0.02894(11)
H36 H -1.0712 -0.7065 -0.0224
C39 C 0.0154(3) -0.1757(4) -0.22322(12)
H37 H 0.0588 -0.2166 -0.2004
C40 C 0.0625(3) -0.1050(5) -0.25924(17)
H38 H 0.1377 -0.0967 -0.2598
C41 C -0.1134(3) -0.0570(3) -0.29234(14)
H39 H -0.1561 -0.0162 -0.3156
C42 C -0.0726(3) -0.4977(3) -0.39913(18)
H40 H -0.0251 -0.5501 -0.4108
C43 C -0.1632(3) -0.4775(2) -0.42716(12)
H41 H -0.1779 -0.5156 -0.4588
C44 C -0.0497(3) -0.4401(3) -0.35236(18)
H42 H 0.0135 -0.4537 -0.3326
loop_
_geom_bond_atom_site_label_1
_geom_bond_atom_site_label_2
_geom_bond_site_symmetry_1
_geom_bond_site_symmetry_2
P1 O1 1_555 1_555
P2 O2 1_555 1_555
O1 C11 1_555 1_555
O2 C9 1_555 1_555
O3 P1 1_555 1_555
O4 P2 1_555 1_555
C1 C6 1_555 1_555
N1 P1 1_555 1_555
C2 H1 1_555 1_555
N2 P2 1_555 1_555
C3 N2 1_555 1_555
H2 C3 1_555 1_555
C4 H3 1_555 1_555
C5 C4 1_555 1_555
H4 C5 1_555 1_555
C6 O3 1_555 1_555
C7 N1 1_555 1_555
H5 C7 1_555 1_555
C8 C1 1_555 1_555
C9 C1 1_555 1_555
C10 C4 1_555 1_555
H6 C10 1_555 1_555
C11 C8 1_555 1_555
C12 C19 1_555 1_555
C13 H7 1_555 1_555
C14 C3 1_555 1_555
C15 C11 1_555 1_555
H8 C15 1_555 1_555
C16 H9 1_555 1_555
C17 C15 1_555 1_555
H10 C17 1_555 1_555
C18 H11 1_555 1_555
C19 H12 1_555 1_555
C20 C7 1_555 1_555
C21 C12 1_555 1_555
H13 C21 1_555 1_555
C22 C17 1_555 1_555
H14 C22 1_555 1_555
C23 N1 1_555 1_555
H15 C23 1_555 1_555
C24 C14 1_555 1_555
H16 C24 1_555 1_555
C25 H17 1_555 1_555
C26 C2 1_555 1_555
C27 C23 1_555 1_555
H18 C27 1_555 1_555
H19 C27 1_555 1_555
H20 C27 1_555 1_555
C28 C21 1_555 1_555
H21 C28 1_555 1_555
C29 C16 1_555 1_555
H22 C29 1_555 1_555
C30 H23 1_555 1_555
C31 C7 1_555 1_555
H24 C31 1_555 1_555
H25 C31 1_555 1_555
H26 C31 1_555 1_555
C32 C3 1_555 1_555
H27 C32 1_555 1_555
H28 C32 1_555 1_555
H29 C32 1_555 1_555
C33 C2 1_555 1_555
H30 C33 1_555 1_555
H31 C33 1_555 1_555
H32 C33 1_555 1_555
C34 C29 1_555 1_555
H33 C34 1_555 1_555
C35 C18 1_555 1_555
H34 C35 1_555 1_555
C36 O4 1_555 1_555
C37 C19 1_555 1_555
H35 C37 1_555 1_555
C38 C28 1_555 1_555
H36 C38 1_555 1_555
C39 C25 1_555 1_555
H37 C39 1_555 1_555
C40 C30 1_555 1_555
H38 C40 1_555 1_555
C41 C26 1_555 1_555
H39 C41 1_555 1_555
C42 H40 1_555 1_555
C43 C13 1_555 1_555
H41 C43 1_555 1_555
C44 C24 1_555 1_555
H42 C44 1_555 1_555
C2 N2 1_555 1_555
C5 C6 1_555 1_555
C8 C36 1_555 1_555
C9 C10 1_555 1_555
C12 C23 1_555 1_555
C13 C14 1_555 1_555
C16 C20 1_555 1_555
C18 C20 1_555 1_555
C22 C36 1_555 1_555
C25 C26 1_555 1_555
C30 C41 1_555 1_555
C34 C35 1_555 1_555
C37 C38 1_555 1_555
C39 C40 1_555 1_555
C42 C43 1_555 1_555
C42 C44 1_555 1_555

#END
