
#######################################################################
#
#                 Cambridge Crystallographic Data Centre
#                                CCDC 
#
#######################################################################
#
# If this CIF has been generated from an entry in the Cambridge 
# Structural Database, then it will include bibliographic, chemical, 
# crystal, experimental, refinement or atomic coordinate data resulting 
# from the CCDC's data processing and validation procedures.
#
#######################################################################

data_TAXVAR
_chemical_formula_moiety         'C15 H20 B1 Br1 O2'
_chemical_name_systematic        
2-(3-(4-Bromophenyl)prop-1-en-2-yl)-4,4,5,5-tetramethyl-1,3,2-dioxaborolane
_symmetry_cell_setting           orthorhombic
_symmetry_space_group_name_H-M   'P b c a'
_symmetry_Int_Tables_number      61
_space_group_name_Hall           '-P 2ac 2ab'
loop_
_symmetry_equiv_pos_site_id
_symmetry_equiv_pos_as_xyz
1 x,y,z
2 1/2-x,-y,1/2+z
3 -x,1/2+y,1/2-z
4 1/2+x,1/2-y,-z
5 -x,-y,-z
6 1/2+x,y,1/2-z
7 x,1/2-y,1/2+z
8 1/2-x,1/2+y,z
_cell_length_a                   19.691(3)
_cell_length_b                   6.1598(10)
_cell_length_c                   24.966(4)
_cell_angle_alpha                90
_cell_angle_beta                 90
_cell_angle_gamma                90
_cell_volume                     3028.19
_exptl_crystal_colour            colorless
_exptl_crystal_description       needle
_cell_formula_units_Z            8
loop_
_atom_site_label
_atom_site_type_symbol
_atom_site_fract_x
_atom_site_fract_y
_atom_site_fract_z
Br1 Br 0.139409(13) 0.51970(4) 0.046445(9)
B1 B 0.10685(12) 1.3066(4) 0.32305(9)
O1 O 0.16374(7) 1.3586(2) 0.35164(5)
O2 O 0.04846(7) 1.3849(2) 0.34560(6)
C1 C 0.14208(10) 0.7448(3) 0.20229(8)
H1 H 0.1303 0.6891 0.2365
C2 C 0.13266(10) 0.6164(3) 0.15764(9)
H2 H 0.1143 0.4744 0.1609
C3 C 0.15049(11) 0.6986(3) 0.10822(8)
C4 C 0.17704(11) 0.9046(3) 0.10260(8)
H3 H 0.1892 0.9587 0.0683
C5 C 0.18555(11) 1.0309(3) 0.14815(9)
H4 H 0.2036 1.1733 0.1447
C6 C 0.16849(10) 0.9549(3) 0.19841(8)
C7 C 0.17486(10) 1.0971(3) 0.24737(8)
H5 H 0.2034 1.2242 0.2383
H6 H 0.1986 1.0144 0.2757
C8 C 0.10744(10) 1.1780(3) 0.26957(8)
C9 C 0.04884(12) 1.1488(4) 0.24425(10)
C10 C 0.14325(11) 1.5179(3) 0.39207(9)
C11 C 0.15859(13) 1.7393(4) 0.36864(10)
H7 H 0.2079 1.7580 0.3656
H8 H 0.1400 1.8522 0.3921
H9 H 0.1379 1.7511 0.3331
C12 C 0.18497(14) 1.4812(4) 0.44213(10)
H10 H 0.2328 1.5125 0.4346
H11 H 0.1803 1.3298 0.4536
H12 H 0.1688 1.5776 0.4706
C13 C 0.06562(11) 1.4727(3) 0.39799(9)
C14 C 0.02211(12) 1.6714(4) 0.40809(10)
H13 H -0.0256 1.6276 0.4114
H14 H 0.0269 1.7728 0.3781
H15 H 0.0368 1.7423 0.4413
C15 C 0.04956(14) 1.2963(4) 0.43855(10)
H16 H 0.0003 1.2762 0.4407
H17 H 0.0671 1.3389 0.4738
H18 H 0.0710 1.1600 0.4274
H19 H 0.0065(12) 1.208(4) 0.2596(9)
H20 H 0.0444(12) 1.076(4) 0.2101(10)
loop_
_geom_bond_atom_site_label_1
_geom_bond_atom_site_label_2
_geom_bond_site_symmetry_1
_geom_bond_site_symmetry_2
Br1 C3 1_555 1_555
B1 O1 1_555 1_555
O1 C10 1_555 1_555
O2 B1 1_555 1_555
C1 H1 1_555 1_555
C2 C1 1_555 1_555
H2 C2 1_555 1_555
C3 C2 1_555 1_555
C4 C3 1_555 1_555
H3 C4 1_555 1_555
C5 C4 1_555 1_555
H4 C5 1_555 1_555
C6 C1 1_555 1_555
C7 C6 1_555 1_555
H5 C7 1_555 1_555
H6 C7 1_555 1_555
C8 B1 1_555 1_555
C9 C8 1_555 1_555
C10 C11 1_555 1_555
C11 H7 1_555 1_555
H8 C11 1_555 1_555
H9 C11 1_555 1_555
C12 C10 1_555 1_555
H10 C12 1_555 1_555
H11 C12 1_555 1_555
H12 C12 1_555 1_555
C13 O2 1_555 1_555
C14 C13 1_555 1_555
H13 C14 1_555 1_555
H14 C14 1_555 1_555
H15 C14 1_555 1_555
C15 C13 1_555 1_555
H16 C15 1_555 1_555
H17 C15 1_555 1_555
H18 C15 1_555 1_555
H19 C9 1_555 1_555
H20 C9 1_555 1_555
C5 C6 1_555 1_555
C7 C8 1_555 1_555
C10 C13 1_555 1_555

#END
