
#######################################################################
#
#                 Cambridge Crystallographic Data Centre
#                                CCDC 
#
#######################################################################
#
# If this CIF has been generated from an entry in the Cambridge 
# Structural Database, then it will include bibliographic, chemical, 
# crystal, experimental, refinement or atomic coordinate data resulting 
# from the CCDC's data processing and validation procedures.
#
#######################################################################

data_TAXVUJ
_chemical_formula_moiety         'C16 H44 B8 Si4'
_chemical_name_systematic        
nido-2,4,7,9-tetrakis(Trimethylsilyl)-2,4,7,9-tetracarbadodecaborane
_symmetry_cell_setting           monoclinic
_symmetry_space_group_name_H-M   'P 21/n'
_symmetry_Int_Tables_number      14
_space_group_name_Hall           '-P 2yn'
loop_
_symmetry_equiv_pos_site_id
_symmetry_equiv_pos_as_xyz
1 x,y,z
2 1/2-x,1/2+y,1/2-z
3 -x,-y,-z
4 1/2+x,1/2-y,1/2+z
_cell_length_a                   9.628(2)
_cell_length_b                   7.332(2)
_cell_length_c                   19.924(5)
_cell_angle_alpha                90
_cell_angle_beta                 93.36(2)
_cell_angle_gamma                90
_cell_volume                     1404.07
_exptl_crystal_colour            colorless
_chemical_melting_point          94-95deg.C
_cell_formula_units_Z            2
loop_
_atom_site_label
_atom_site_type_symbol
_atom_site_fract_x
_atom_site_fract_y
_atom_site_fract_z
Si1 Si 0.7655(1) 0.5600(1) 0.8783(1)
Si2 Si 0.3531(1) 0.2102(1) 0.8643(1)
C1 C 0.6363(2) 0.5414(3) 0.9441(1)
B1 B 0.5820(2) 0.3398(3) 0.9716(1)
B2 B 0.5831(2) 0.7112(3) 0.9863(1)
B3 B 0.6818(2) 0.5231(3) 1.0221(1)
B4 B 0.4639(2) 0.5719(3) 0.9287(1)
C2 C 0.4187(2) 0.3536(2) 0.9370(1)
C3 C 0.8792(3) 0.3572(5) 0.8832(2)
C4 C 0.6745(3) 0.5768(5) 0.7938(1)
C5 C 0.8715(4) 0.7685(5) 0.8947(2)
C6 C 0.2685(3) 0.3626(4) 0.7997(1)
C7 C 0.4990(3) 0.0862(4) 0.8287(1)
C8 C 0.2247(3) 0.0451(4) 0.8938(2)
H1 H 0.6423(18) 0.2193(26) 0.9653(9)
H2 H 0.6049(19) 0.8516(26) 0.9723(9)
H3 H 0.7870(21) 0.4878(27) 1.0401(10)
H4 H 0.4280(19) 0.6494(27) 0.8842(10)
H5 H 0.9438(30) 0.3634(39) 0.8530(14)
H6 H 0.9197(29) 0.3567(42) 0.9249(16)
H7 H 0.8338(30) 0.2521(46) 0.8766(14)
H8 H 0.6126(44) 0.4692(57) 0.7823(19)
H9 H 0.6108(42) 0.6894(53) 0.7869(17)
H10 H 0.8199(39) 0.8849(55) 0.8949(21)
H11 H 0.9222(31) 0.7647(41) 0.9348(16)
H12 H 0.9324(33) 0.7811(42) 0.8628(15)
H13 H 0.2207(30) 0.2938(42) 0.7697(15)
H14 H 0.3363(29) 0.4335(38) 0.7798(14)
H15 H 0.1964(30) 0.4419(44) 0.8165(15)
H16 H 0.5611(36) 0.1578(47) 0.8171(18)
H17 H 0.4764(31) 0.0294(48) 0.7874(19)
H18 H 0.5322(22) 0.0062(49) 0.8565(16)
H19 H 0.1957(29) -0.0235(44) 0.8601(16)
H20 H 0.1575(34) 0.0977(45) 0.9163(17)
H21 H 0.2647(29) -0.0365(38) 0.9253(15)
B2B B 0.4169(2) 0.2888(3) 1.0137(1)
C1B C 0.3637(2) 0.4586(3) 1.0559(1)
Si1B Si 0.2345(1) 0.4400(1) 1.1217(1)
C3B C 0.1208(3) 0.6428(5) 1.1168(2)
H5B H 0.0562(30) 0.6366(39) 1.1470(14)
H6B H 0.0803(29) 0.6433(42) 1.0751(16)
H7B H 0.1662(30) 0.7479(46) 1.1234(14)
C4B C 0.3255(3) 0.4232(5) 1.2062(1)
H8B H 0.3874(44) 0.5308(57) 1.2177(19)
H9B H 0.3892(42) 0.3106(53) 1.2131(17)
C5B C 0.1285(4) 0.2315(5) 1.1053(2)
H10B H 0.1801(39) 0.1151(55) 1.1051(21)
H11B H 0.0778(31) 0.2353(41) 1.0652(16)
H12B H 0.0676(33) 0.2189(42) 1.1372(15)
B1B B 0.4180(2) 0.6602(3) 1.0284(1)
B3B B 0.3182(2) 0.4769(3) 0.9779(1)
B4B B 0.5361(2) 0.4281(3) 1.0713(1)
H2B H 0.3951(19) 0.1484(26) 1.0277(9)
C2B C 0.5813(2) 0.6464(2) 1.0630(1)
Si2B Si 0.6469(1) 0.7898(1) 1.1357(1)
C6B C 0.7315(3) 0.6374(4) 1.2003(1)
H13B H 0.7793(30) 0.7062(42) 1.2303(15)
H14B H 0.6637(29) 0.5665(38) 1.2202(14)
H15B H 0.8036(30) 0.5581(44) 1.1835(15)
C7B C 0.5010(3) 0.9138(4) 1.1713(1)
H16B H 0.4389(36) 0.8422(47) 1.1829(18)
H17B H 0.5236(31) 0.9706(48) 1.2126(19)
H18B H 0.4678(22) 0.9938(49) 1.1435(16)
C8B C 0.7753(3) 0.9549(4) 1.1062(2)
H19B H 0.8043(29) 1.0235(44) 1.1399(16)
H20B H 0.8425(34) 0.9023(45) 1.0837(17)
H21B H 0.7353(29) 1.0365(38) 1.0747(15)
H4B H 0.5720(19) 0.3506(27) 1.1158(10)
H1B H 0.3577(18) 0.7807(26) 1.0347(9)
H3B H 0.2130(21) 0.5122(27) 0.9599(10)
loop_
_geom_bond_atom_site_label_1
_geom_bond_atom_site_label_2
_geom_bond_site_symmetry_1
_geom_bond_site_symmetry_2
Si1 C1 1_555 1_555
Si2 C2 1_555 1_555
C1 B1 1_555 1_555
B1 B3 1_555 1_555
B2 C1 1_555 1_555
B3 C1 1_555 1_555
B4 C1 1_555 1_555
C2 B1 1_555 1_555
C3 Si1 1_555 1_555
C4 Si1 1_555 1_555
C5 Si1 1_555 1_555
C6 Si2 1_555 1_555
C7 Si2 1_555 1_555
C8 Si2 1_555 1_555
H1 B1 1_555 1_555
H2 B2 1_555 1_555
H3 B3 1_555 1_555
H4 B4 1_555 1_555
H5 C3 1_555 1_555
H6 C3 1_555 1_555
H7 C3 1_555 1_555
H8 C4 1_555 1_555
H9 C4 1_555 1_555
H10 C5 1_555 1_555
H11 C5 1_555 1_555
H12 C5 1_555 1_555
H13 C6 1_555 1_555
H14 C6 1_555 1_555
H15 C6 1_555 1_555
H16 C7 1_555 1_555
H17 C7 1_555 1_555
H18 C7 1_555 1_555
H19 C8 1_555 1_555
H20 C8 1_555 1_555
H21 C8 1_555 1_555
B2B B1 1_555 1_555
C1B B2B 1_555 1_555
Si1B C1B 1_555 1_555
C3B Si1B 1_555 1_555
H5B C3B 1_555 1_555
H6B C3B 1_555 1_555
H7B C3B 1_555 1_555
C4B Si1B 1_555 1_555
H8B C4B 1_555 1_555
H9B C4B 1_555 1_555
C5B Si1B 1_555 1_555
H10B C5B 1_555 1_555
H11B C5B 1_555 1_555
H12B C5B 1_555 1_555
B1B B2 1_555 1_555
B3B B4 1_555 1_555
B4B B3 1_555 1_555
H2B B2B 1_555 1_555
C2B B2 1_555 1_555
Si2B C2B 1_555 1_555
C6B Si2B 1_555 1_555
H13B C6B 1_555 1_555
H14B C6B 1_555 1_555
H15B C6B 1_555 1_555
C7B Si2B 1_555 1_555
H16B C7B 1_555 1_555
H17B C7B 1_555 1_555
H18B C7B 1_555 1_555
C8B Si2B 1_555 1_555
H19B C8B 1_555 1_555
H20B C8B 1_555 1_555
H21B C8B 1_555 1_555
H4B B4B 1_555 1_555
H1B B1B 1_555 1_555
H3B B3B 1_555 1_555
B2 B4 1_555 1_555
B2 B3 1_555 1_555
B3 C2B 1_555 1_555
B4 C2 1_555 1_555
C2 B2B 1_555 1_555
C2 B3B 1_555 1_555
B2B B3B 1_555 1_555
B2B B4B 1_555 1_555
C1B B1B 1_555 1_555
C1B B4B 1_555 1_555
C1B B3B 1_555 1_555
B1B C2B 1_555 1_555
B1B B3B 1_555 1_555
B4B C2B 1_555 1_555

#END
