
#######################################################################
#
#                 Cambridge Crystallographic Data Centre
#                                CCDC 
#
#######################################################################
#
# If this CIF has been generated from an entry in the Cambridge 
# Structural Database, then it will include bibliographic, chemical, 
# crystal, experimental, refinement or atomic coordinate data resulting 
# from the CCDC's data processing and validation procedures.
#
#######################################################################

data_TAXXIB
_chemical_formula_moiety         'C12 H14 N2 O1'
_chemical_name_systematic        7-(Pyrrolidin-1-ylmethyl)-1,3-benzoxazole
_symmetry_cell_setting           monoclinic
_symmetry_space_group_name_H-M   'P 21/c'
_symmetry_Int_Tables_number      14
_space_group_name_Hall           '-P 2ybc'
loop_
_symmetry_equiv_pos_site_id
_symmetry_equiv_pos_as_xyz
1 x,y,z
2 -x,1/2+y,1/2-z
3 -x,-y,-z
4 x,1/2-y,1/2+z
_cell_length_a                   10.7203(17)
_cell_length_b                   10.3092(17)
_cell_length_c                   9.8658(17)
_cell_angle_alpha                90
_cell_angle_beta                 108.390(4)
_cell_angle_gamma                90
_cell_volume                     1034.66
_exptl_crystal_colour            colorless
_exptl_crystal_description       block
_cell_formula_units_Z            4
loop_
_atom_site_label
_atom_site_type_symbol
_atom_site_fract_x
_atom_site_fract_y
_atom_site_fract_z
O1 O 0.03984(8) 0.10606(9) 0.09905(9)
N1 N -0.01713(11) 0.30510(10) 0.00448(12)
N2 N 0.27046(10) -0.05348(10) 0.29597(11)
C1 C -0.03324(12) 0.18142(12) -0.01146(14)
H1 H -0.0927 0.1447 -0.0954
C2 C 0.11197(12) 0.19494(12) 0.19695(13)
C3 C 0.07780(12) 0.31784(12) 0.13982(14)
C4 C 0.13506(13) 0.42796(12) 0.21744(14)
H2 H 0.1130 0.5130 0.1806
C5 C 0.22552(13) 0.40634(13) 0.35076(15)
H3 H 0.2664 0.4787 0.4070
C6 C 0.25871(12) 0.28069(13) 0.40546(14)
H4 H 0.3221 0.2710 0.4971
C7 C 0.20201(12) 0.16970(12) 0.33014(13)
C8 C 0.23208(12) 0.03524(12) 0.39137(13)
H5 H 0.3041 0.0402 0.4834
H6 H 0.1535 0.0002 0.4109
C9 C 0.30049(14) -0.18333(13) 0.35810(15)
H7 H 0.2191 -0.2301 0.3554
H8 H 0.3589 -0.1785 0.4582
C10 C 0.36941(13) -0.24984(13) 0.26337(15)
H9 H 0.3053 -0.2950 0.1825
H10 H 0.4351 -0.3134 0.3187
C11 C 0.43681(14) -0.13720(14) 0.20959(15)
H11 H 0.5337 -0.1457 0.2467
H12 H 0.4090 -0.1357 0.1039
C12 C 0.39138(12) -0.01430(13) 0.26767(14)
H13 H 0.4586 0.0152 0.3564
H14 H 0.3738 0.0566 0.1964
loop_
_geom_bond_atom_site_label_1
_geom_bond_atom_site_label_2
_geom_bond_site_symmetry_1
_geom_bond_site_symmetry_2
O1 C1 1_555 1_555
N1 C1 1_555 1_555
N2 C8 1_555 1_555
C1 H1 1_555 1_555
C2 O1 1_555 1_555
C3 N1 1_555 1_555
C4 C3 1_555 1_555
H2 C4 1_555 1_555
C5 C4 1_555 1_555
H3 C5 1_555 1_555
C6 C5 1_555 1_555
H4 C6 1_555 1_555
C7 C2 1_555 1_555
C8 C7 1_555 1_555
H5 C8 1_555 1_555
H6 C8 1_555 1_555
C9 N2 1_555 1_555
H7 C9 1_555 1_555
H8 C9 1_555 1_555
C10 C9 1_555 1_555
H9 C10 1_555 1_555
H10 C10 1_555 1_555
C11 C10 1_555 1_555
H11 C11 1_555 1_555
H12 C11 1_555 1_555
C12 N2 1_555 1_555
H13 C12 1_555 1_555
H14 C12 1_555 1_555
C2 C3 1_555 1_555
C6 C7 1_555 1_555
C11 C12 1_555 1_555

#END
