
#######################################################################
#
#                 Cambridge Crystallographic Data Centre
#                                CCDC 
#
#######################################################################
#
# If this CIF has been generated from an entry in the Cambridge 
# Structural Database, then it will include bibliographic, chemical, 
# crystal, experimental, refinement or atomic coordinate data resulting 
# from the CCDC's data processing and validation procedures.
#
#######################################################################

data_TAXYUO
_chemical_formula_moiety         'C28 H23 N1 O1'
_chemical_name_systematic        
2-(1,2,3-Triphenylpropan-2-yl)-1,3-benzoxazole
_symmetry_cell_setting           monoclinic
_symmetry_space_group_name_H-M   'P 21/c'
_symmetry_Int_Tables_number      14
_space_group_name_Hall           '-P 2ybc'
loop_
_symmetry_equiv_pos_site_id
_symmetry_equiv_pos_as_xyz
1 x,y,z
2 -x,1/2+y,1/2-z
3 -x,-y,-z
4 x,1/2-y,1/2+z
_cell_length_a                   9.789(4)
_cell_length_b                   20.796(8)
_cell_length_c                   13.498(4)
_cell_angle_alpha                90
_cell_angle_beta                 129.757(18)
_cell_angle_gamma                90
_cell_volume                     2112.42
_cell_formula_units_Z            4
loop_
_atom_site_label
_atom_site_type_symbol
_atom_site_fract_x
_atom_site_fract_y
_atom_site_fract_z
O1 O 0.25249(19) 0.82672(7) 0.21252(15)
N1 N 0.46528(15) 0.85039(6) 0.42107(12)
C1 C 0.2912(3) 0.92769(10) 0.1279(2)
H1 H 0.2040 0.9184 0.0408
C2 C 0.3904(3) 0.98313(10) 0.1690(2)
H2 H 0.3714 1.0114 0.1079
C3 C 0.5170(3) 0.99808(9) 0.2978(2)
H3 H 0.5795 1.0365 0.3213
C4 C 0.5528(2) 0.95753(9) 0.3918(2)
H4 H 0.6374 0.9675 0.4788
C5 C 0.4561(2) 0.90062(8) 0.35026(19)
C6 C 0.3271(2) 0.88653(8) 0.2220(2)
C7 C 0.3389(2) 0.80869(8) 0.33128(18)
C8 C 0.3203(2) 0.74527(8) 0.37482(17)
C9 C 0.1482(2) 0.71213(8) 0.25659(18)
H5 H 0.0489 0.7401 0.2260
H6 H 0.1563 0.7097 0.1887
C10 C 0.1032(2) 0.64564(8) 0.27371(18)
C11 C -0.0579(3) 0.63496(10) 0.2457(2)
H7 H -0.1341 0.6694 0.2215
C12 C -0.1079(3) 0.57370(12) 0.2529(2)
H8 H -0.2164 0.5678 0.2342
C13 C 0.0012(3) 0.52181(11) 0.2873(2)
H9 H -0.0321 0.4809 0.2928
C14 C 0.1586(3) 0.53137(10) 0.3133(2)
H10 H 0.2326 0.4965 0.3351
C15 C 0.2104(3) 0.59238(9) 0.3076(2)
H11 H 0.3196 0.5977 0.3271
C16 C 0.3163(2) 0.75650(9) 0.48644(17)
H12 H 0.3051 0.7150 0.5136
H13 H 0.4297 0.7746 0.5587
C17 C 0.1707(2) 0.79985(9) 0.45747(17)
C18 C 0.0185(2) 0.77459(10) 0.4298(2)
H14 H 0.0038 0.7302 0.4257
C19 C -0.1119(3) 0.81415(11) 0.4082(2)
H15 H -0.2132 0.7962 0.3893
C20 C -0.0929(3) 0.87908(11) 0.4145(2)
H16 H -0.1813 0.9055 0.3992
C21 C 0.0580(3) 0.90580(10) 0.4435(2)
H17 H 0.0719 0.9502 0.4484
C22 C 0.1884(3) 0.86627(9) 0.4652(2)
H18 H 0.2902 0.8846 0.4854
C23 C 0.4883(2) 0.70672(8) 0.42012(18)
C24 C 0.6134(2) 0.68321(9) 0.54432(19)
H19 H 0.5976 0.6891 0.6047
C25 C 0.7617(3) 0.65088(10) 0.5785(2)
H20 H 0.8459 0.6357 0.6622
C26 C 0.7858(3) 0.64101(10) 0.4897(3)
H21 H 0.8855 0.6191 0.5132
C27 C 0.6621(3) 0.66367(9) 0.3665(2)
H22 H 0.6769 0.6568 0.3059
C28 C 0.5151(2) 0.69678(9) 0.3326(2)
H23 H 0.4328 0.7127 0.2493
loop_
_geom_bond_atom_site_label_1
_geom_bond_atom_site_label_2
_geom_bond_site_symmetry_1
_geom_bond_site_symmetry_2
O1 C6 1_555 1_555
N1 C5 1_555 1_555
C1 H1 1_555 1_555
C2 C1 1_555 1_555
H2 C2 1_555 1_555
C3 C2 1_555 1_555
H3 C3 1_555 1_555
C4 C3 1_555 1_555
H4 C4 1_555 1_555
C5 C4 1_555 1_555
C6 C1 1_555 1_555
C7 O1 1_555 1_555
C8 C7 1_555 1_555
C9 C8 1_555 1_555
H5 C9 1_555 1_555
H6 C9 1_555 1_555
C10 C9 1_555 1_555
C11 C10 1_555 1_555
H7 C11 1_555 1_555
C12 C11 1_555 1_555
H8 C12 1_555 1_555
C13 C12 1_555 1_555
H9 C13 1_555 1_555
C14 C13 1_555 1_555
H10 C14 1_555 1_555
C15 C10 1_555 1_555
H11 C15 1_555 1_555
C16 C8 1_555 1_555
H12 C16 1_555 1_555
H13 C16 1_555 1_555
C17 C16 1_555 1_555
C18 C17 1_555 1_555
H14 C18 1_555 1_555
C19 C18 1_555 1_555
H15 C19 1_555 1_555
C20 C19 1_555 1_555
H16 C20 1_555 1_555
C21 C20 1_555 1_555
H17 C21 1_555 1_555
C22 C17 1_555 1_555
H18 C22 1_555 1_555
C23 C8 1_555 1_555
C24 C23 1_555 1_555
H19 C24 1_555 1_555
C25 C24 1_555 1_555
H20 C25 1_555 1_555
C26 C25 1_555 1_555
H21 C26 1_555 1_555
C27 C26 1_555 1_555
H22 C27 1_555 1_555
C28 C23 1_555 1_555
H23 C28 1_555 1_555
N1 C7 1_555 1_555
C5 C6 1_555 1_555
C14 C15 1_555 1_555
C21 C22 1_555 1_555
C27 C28 1_555 1_555

#END
