
#######################################################################
#
#                 Cambridge Crystallographic Data Centre
#                                CCDC 
#
#######################################################################
#
# If this CIF has been generated from an entry in the Cambridge 
# Structural Database, then it will include bibliographic, chemical, 
# crystal, experimental, refinement or atomic coordinate data resulting 
# from the CCDC's data processing and validation procedures.
#
#######################################################################

data_TAXYIC
_chemical_formula_moiety         'C22 H26 N2 O4 S2'
_chemical_name_systematic        
N,4-Dimethyl-N-((3-methylene-2-(methyl((4-methylphenyl)sulfonyl)amino)cyclobutylidene)methyl)benzenesulfonamide
_symmetry_cell_setting           triclinic
_symmetry_space_group_name_H-M   'P -1'
_symmetry_Int_Tables_number      2
_space_group_name_Hall           '-P 1'
loop_
_symmetry_equiv_pos_site_id
_symmetry_equiv_pos_as_xyz
1 x,y,z
2 -x,-y,-z
_cell_length_a                   7.4182(5)
_cell_length_b                   12.9640(9)
_cell_length_c                   13.4688(7)
_cell_angle_alpha                63.181(6)
_cell_angle_beta                 85.175(5)
_cell_angle_gamma                83.886(6)
_cell_volume                     1148.44
_exptl_crystal_colour            colorless
_exptl_crystal_description       prism
_cell_formula_units_Z            2
loop_
_atom_site_label
_atom_site_type_symbol
_atom_site_fract_x
_atom_site_fract_y
_atom_site_fract_z
S1 S 0.85824(6) 0.20199(4) 1.00110(3)
S2 S 1.25233(8) 0.22652(4) 1.37458(4)
O1 O 0.8611(2) 0.07849(11) 1.04863(12)
O2 O 0.72408(18) 0.26534(12) 1.03964(11)
N1 N 1.0560(2) 0.23163(12) 1.02252(12)
O3 O 1.3909(3) 0.29921(14) 1.36586(15)
N2 N 1.1364(2) 0.29592(14) 1.25958(13)
O4 O 1.1212(3) 0.19348(16) 1.46552(12)
C1 C 1.2816(3) -0.00389(18) 1.43101(16)
H1 H 1.1834 -0.0097 1.4804
C2 C 0.9152(2) 0.19663(16) 0.79961(16)
H2 H 0.9695 0.1222 0.8386
C3 C 1.5007(3) -0.09413(19) 1.34651(18)
C4 C 0.7563(3) 0.36935(16) 0.79777(17)
H3 H 0.705 0.4108 0.8356
C5 C 1.2123(2) 0.37984(14) 1.05686(15)
C6 C 1.2176(3) 0.15602(19) 1.0204(2)
H4 H 1.1833 0.0788 1.044
H5 H 1.3046 0.155 1.0697
H6 H 1.2701 0.185 0.9461
C7 C 0.8385(2) 0.25934(14) 0.85589(14)
C8 C 1.3248(3) 0.45196(17) 0.95348(17)
H7 H 1.3119 0.5344 0.9326
H8 H 1.4516 0.4238 0.9556
C9 C 1.0842(2) 0.35310(14) 0.98878(14)
H9 H 0.9674 0.3985 0.9817
C10 C 0.9093(3) 0.24666(17) 0.68521(16)
H10 H 0.9615 0.2054 0.6473
C11 C 1.3566(3) -0.10017(18) 1.41996(19)
H11 H 1.3087 -0.1712 1.4633
C12 C 0.8271(3) 0.35720(17) 0.62514(16)
C13 C 0.7504(3) 0.41756(17) 0.68341(17)
H12 H 0.6942 0.4915 0.6447
C14 C 1.3539(3) 0.10107(16) 1.36804(14)
C15 C 1.2383(3) 0.35771(16) 1.16124(16)
H13 H 1.3403 0.3879 1.1706
C16 C 1.2104(3) 0.41613(17) 0.88758(16)
C17 C 0.9696(3) 0.2480(2) 1.25631(17)
H14 H 0.9183 0.2085 1.3305
H15 H 0.9957 0.1943 1.225
H16 H 0.8848 0.3096 1.2112
C18 C 0.8178(4) 0.4102(2) 0.50085(19)
H17 H 0.7558 0.4862 0.4742
H18 H 0.7531 0.3625 0.4809
H19 H 0.9385 0.4161 0.4679
C19 C 1.5004(3) 0.10987(19) 1.29401(18)
H20 H 1.5497 0.1806 1.2517
C20 C 1.5714(3) 0.0124(2) 1.28419(19)
H21 H 1.6693 0.0181 1.2345
C21 C 1.5802(3) -0.2002(2) 1.3345(3)
H22 H 1.5153 -0.2658 1.384
H23 H 1.7057 -0.2148 1.3528
H24 H 1.5703 -0.1874 1.2592
C22 C 1.2240(4) 0.4285(3) 0.78558(19)
H25 H 1.3198 0.466 0.7383
H26 H 1.138 0.3997 0.7602
loop_
_geom_bond_atom_site_label_1
_geom_bond_atom_site_label_2
_geom_bond_site_symmetry_1
_geom_bond_site_symmetry_2
S1 O1 1_555 1_555
S2 O3 1_555 1_555
O2 S1 1_555 1_555
N1 S1 1_555 1_555
N2 S2 1_555 1_555
O4 S2 1_555 1_555
C1 H1 1_555 1_555
C2 H2 1_555 1_555
C3 C11 1_555 1_555
C4 H3 1_555 1_555
C5 C8 1_555 1_555
C6 N1 1_555 1_555
H4 C6 1_555 1_555
H5 C6 1_555 1_555
H6 C6 1_555 1_555
C7 S1 1_555 1_555
C8 H7 1_555 1_555
H8 C8 1_555 1_555
C9 N1 1_555 1_555
H9 C9 1_555 1_555
C10 C2 1_555 1_555
H10 C10 1_555 1_555
C11 C1 1_555 1_555
H11 C11 1_555 1_555
C12 C10 1_555 1_555
C13 C4 1_555 1_555
H12 C13 1_555 1_555
C14 S2 1_555 1_555
C15 N2 1_555 1_555
H13 C15 1_555 1_555
C16 C8 1_555 1_555
C17 N2 1_555 1_555
H14 C17 1_555 1_555
H15 C17 1_555 1_555
H16 C17 1_555 1_555
C18 C12 1_555 1_555
H17 C18 1_555 1_555
H18 C18 1_555 1_555
H19 C18 1_555 1_555
C19 C14 1_555 1_555
H20 C19 1_555 1_555
C20 C3 1_555 1_555
H21 C20 1_555 1_555
C21 C3 1_555 1_555
H22 C21 1_555 1_555
H23 C21 1_555 1_555
H24 C21 1_555 1_555
C22 C16 1_555 1_555
H25 C22 1_555 1_555
H26 C22 1_555 1_555
C1 C14 1_555 1_555
C2 C7 1_555 1_555
C4 C7 1_555 1_555
C5 C9 1_555 1_555
C5 C15 1_555 1_555
C9 C16 1_555 1_555
C12 C13 1_555 1_555
C19 C20 1_555 1_555

#END
