
#######################################################################
#
#                 Cambridge Crystallographic Data Centre
#                                CCDC 
#
#######################################################################
#
# If this CIF has been generated from an entry in the Cambridge 
# Structural Database, then it will include bibliographic, chemical, 
# crystal, experimental, refinement or atomic coordinate data resulting 
# from the CCDC's data processing and validation procedures.
#
#######################################################################

data_TAYBOK
_chemical_formula_moiety         'C34 H20 O6'
_chemical_name_systematic        
4-Benzoyl-3-(4-benzoyl-5-phenyl-2(3H)-furanon-3-ylidene)-5-phenyl-2(3H)furanone
_symmetry_cell_setting           triclinic
_symmetry_space_group_name_H-M   'P -1'
_symmetry_Int_Tables_number      2
_space_group_name_Hall           '-P 1'
loop_
_symmetry_equiv_pos_site_id
_symmetry_equiv_pos_as_xyz
1 x,y,z
2 -x,-y,-z
_cell_length_a                   10.941(2)
_cell_length_b                   10.989(1)
_cell_length_c                   11.981(2)
_cell_angle_alpha                86.48(10)
_cell_angle_beta                 73.18(10)
_cell_angle_gamma                68.52(10)
_cell_volume                     1281.48
_exptl_crystal_colour            'dark violet'
_chemical_melting_point          290deg.C
_cell_formula_units_Z            2
loop_
_atom_site_label
_atom_site_type_symbol
_atom_site_fract_x
_atom_site_fract_y
_atom_site_fract_z
O1 O 0.25478(19) 0.44305(18) 0.48106(16)
C1 C 0.39108(29) 0.36581(28) 0.43507(24)
O2 O 0.45254(21) 0.37632(22) 0.33662(17)
C2 C 0.43111(27) 0.27107(26) 0.52349(22)
C3 C 0.30811(28) 0.29878(26) 0.61970(23)
C4 C 0.20861(28) 0.40205(26) 0.59149(23)
C5 C 0.55875(27) 0.17623(25) 0.50350(23)
C6 C 0.58681(30) 0.05255(27) 0.56568(24)
O3 O 0.51505(22) 0.01412(20) 0.64324(18)
O4 O 0.72101(19) -0.02686(17) 0.51315(16)
C7 C 0.77972(29) 0.04300(26) 0.42743(22)
C8 C 0.68547(27) 0.16135(25) 0.41606(22)
C9 C 0.06808(28) 0.48361(27) 0.65348(24)
C10 C -0.00705(35) 0.44700(34) 0.75495(30)
H1 H 0.03366(35) 0.36406(34) 0.78573(30)
C11 C -0.13958(38) 0.52977(39) 0.81057(33)
H2 H -0.19025(38) 0.50485(39) 0.88194(33)
C12 C -0.19902(35) 0.64617(35) 0.76543(31)
H3 H -0.29122(35) 0.70232(35) 0.80407(31)
C13 C -0.12631(33) 0.68221(32) 0.66456(28)
H4 H -0.16709(33) 0.76421(32) 0.63244(28)
C14 C 0.00556(31) 0.60229(29) 0.60874(26)
H5 H 0.05630(31) 0.62789(29) 0.53781(26)
C15 C 0.29746(30) 0.23883(28) 0.73685(25)
O5 O 0.22340(23) 0.17685(23) 0.77192(21)
C16 C 0.37659(30) 0.26505(28) 0.80911(23)
C17 C 0.41623(32) 0.37154(30) 0.79273(26)
H6 H 0.39707(32) 0.42785(30) 0.73049(26)
C18 C 0.48168(40) 0.39806(36) 0.86652(30)
H7 H 0.50852(40) 0.47292(36) 0.85567(30)
C19 C 0.50963(42) 0.31420(40) 0.95442(32)
H8 H 0.55474(42) 0.33152(40) 1.00601(32)
C20 C 0.47315(40) 0.20734(40) 0.96980(30)
H9 H 0.49575(40) 0.14931(40) 1.03013(30)
C21 C 0.40471(36) 0.18259(34) 0.89882(26)
H10 H 0.37676(36) 0.10842(34) 0.91172(26)
C22 C 0.92749(29) -0.02050(28) 0.37749(22)
C23 C 1.00944(30) 0.05109(30) 0.32902(25)
H11 H 0.96744(30) 0.14429(30) 0.32601(25)
C24 C 1.14972(32) -0.01103(34) 0.28541(28)
H12 H 1.20595(32) 0.03859(34) 0.25010(28)
C25 C 1.21008(33) -0.14439(35) 0.29198(28)
H13 H 1.30771(33) -0.18713(35) 0.26213(28)
C26 C 1.13026(36) -0.21578(34) 0.34033(29)
H14 H 1.17281(36) -0.30855(34) 0.34562(29)
C27 C 0.98912(32) -0.15523(29) 0.38275(25)
H15 H 0.93313(32) -0.20566(29) 0.41609(25)
C28 C 0.71677(27) 0.26620(27) 0.34001(24)
O6 O 0.69816(22) 0.36983(20) 0.38483(17)
C29 C 0.77662(28) 0.23560(28) 0.21197(24)
C30 C 0.75909(33) 0.13865(31) 0.15747(24)
H16 H 0.70430(33) 0.09170(31) 0.20248(24)
C31 C 0.82034(40) 0.11058(40) 0.03816(30)
H17 H 0.80701(40) 0.04533(40) -0.00165(30)
C32 C 0.90092(43) 0.17679(43) -0.02344(30)
H18 H 0.94492(43) 0.15736(43) -0.10555(30)
C33 C 0.92002(42) 0.27170(42) 0.03064(32)
H19 H 0.97853(42) 0.31553(42) -0.01373(32)
C34 C 0.85639(34) 0.30407(33) 0.14842(28)
H20 H 0.86601(34) 0.37317(33) 0.18625(28)
loop_
_geom_bond_atom_site_label_1
_geom_bond_atom_site_label_2
_geom_bond_site_symmetry_1
_geom_bond_site_symmetry_2
O1 C1 1_555 1_555
C1 O2 1_555 1_555
C2 C1 1_555 1_555
C3 C2 1_555 1_555
C4 O1 1_555 1_555
C5 C2 1_555 1_555
C6 C5 1_555 1_555
O3 C6 1_555 1_555
O4 C6 1_555 1_555
C7 O4 1_555 1_555
C8 C5 1_555 1_555
C9 C4 1_555 1_555
C10 C9 1_555 1_555
H1 C10 1_555 1_555
C11 C10 1_555 1_555
H2 C11 1_555 1_555
C12 C11 1_555 1_555
H3 C12 1_555 1_555
C13 C12 1_555 1_555
H4 C13 1_555 1_555
C14 C9 1_555 1_555
H5 C14 1_555 1_555
C15 C3 1_555 1_555
O5 C15 1_555 1_555
C16 C15 1_555 1_555
C17 C16 1_555 1_555
H6 C17 1_555 1_555
C18 C17 1_555 1_555
H7 C18 1_555 1_555
C19 C18 1_555 1_555
H8 C19 1_555 1_555
C20 C19 1_555 1_555
H9 C20 1_555 1_555
C21 C16 1_555 1_555
H10 C21 1_555 1_555
C22 C7 1_555 1_555
C23 C22 1_555 1_555
H11 C23 1_555 1_555
C24 C23 1_555 1_555
H12 C24 1_555 1_555
C25 C24 1_555 1_555
H13 C25 1_555 1_555
C26 C25 1_555 1_555
H14 C26 1_555 1_555
C27 C22 1_555 1_555
H15 C27 1_555 1_555
C28 C8 1_555 1_555
O6 C28 1_555 1_555
C29 C28 1_555 1_555
C30 C29 1_555 1_555
H16 C30 1_555 1_555
C31 C30 1_555 1_555
H17 C31 1_555 1_555
C32 C31 1_555 1_555
H18 C32 1_555 1_555
C33 C32 1_555 1_555
H19 C33 1_555 1_555
C34 C29 1_555 1_555
H20 C34 1_555 1_555
C3 C4 1_555 1_555
C7 C8 1_555 1_555
C13 C14 1_555 1_555
C20 C21 1_555 1_555
C26 C27 1_555 1_555
C33 C34 1_555 1_555

#END
