
#######################################################################
#
#                 Cambridge Crystallographic Data Centre
#                                CCDC 
#
#######################################################################
#
# If this CIF has been generated from an entry in the Cambridge 
# Structural Database, then it will include bibliographic, chemical, 
# crystal, experimental, refinement or atomic coordinate data resulting 
# from the CCDC's data processing and validation procedures.
#
#######################################################################

data_TAYDOO
_chemical_compound_source        
'cultures of the Cordyceps-colonizing fungus Fimetariella sp'
_chemical_name_common            'Fimetarone A dihydrate'
_chemical_formula_moiety         'C32 H28 O14,2(H2 O1)'
_chemical_name_systematic        
"Methyl 5'-acetyl-1'-(2,3-dihydroxy-4-methoxy-6-(methoxycarbonyl)phenyl)-8-hydroxy-7-methoxy-3'-methyl-4,6'-dioxo-4H,6'H,8'H-spiro[chromene-3,7'-isochromene]-5-carboxylate dihydrate"
_symmetry_cell_setting           monoclinic
_symmetry_space_group_name_H-M   'C 2/c'
_symmetry_Int_Tables_number      15
_space_group_name_Hall           '-C 2yn'
loop_
_symmetry_equiv_pos_site_id
_symmetry_equiv_pos_as_xyz
1 x,y,z
2 -x,y,1/2-z
3 1/2+x,1/2+y,z
4 1/2-x,1/2+y,1/2-z
5 -x,-y,-z
6 x,-y,1/2+z
7 1/2-x,1/2-y,-z
8 1/2+x,1/2-y,1/2+z
_cell_length_a                   28.067(3)
_cell_length_b                   10.0691(8)
_cell_length_c                   26.044(4)
_cell_angle_alpha                90
_cell_angle_beta                 111.161(13)
_cell_angle_gamma                90
_cell_volume                     6863.97
_cell_formula_units_Z            8
loop_
_atom_site_label
_atom_site_type_symbol
_atom_site_fract_x
_atom_site_fract_y
_atom_site_fract_z
O1 O 0.12227(8) 1.1849(2) 0.13437(8)
O2 O 0.02597(8) 0.7009(2) -0.02712(9)
O3 O 0.11255(8) 0.7697(2) -0.03433(9)
H1 H 0.1422 0.7942 -0.0308
O4 O 0.17169(7) 0.9639(2) 0.03065(8)
O5 O 0.12683(8) 1.2538(2) 0.01448(9)
O6 O 0.35986(8) 1.3061(2) 0.16094(8)
O7 O 0.34804(9) 0.9969(2) 0.18430(9)
H2 H 0.3584 0.9186 0.1920
O8 O 0.37118(9) 0.8629(2) 0.28319(9)
H3 H 0.3720 0.8309 0.3133
O9 O 0.36614(8) 0.9875(2) 0.37222(8)
O10 O 0.00693(8) 1.0755(2) 0.11361(9)
O11 O 0.07634(8) 0.9789(2) 0.17447(8)
O12 O 0.22661(8) 1.5429(2) 0.00287(8)
O13 O 0.29459(9) 1.4456(2) 0.30224(9)
O14 O 0.31323(8) 1.4674(2) 0.22551(8)
C1 C 0.13812(11) 1.1158(3) 0.10514(12)
C2 C 0.11060(11) 0.9979(3) 0.07626(12)
C3 C 0.06436(11) 0.9580(3) 0.08098(12)
C4 C 0.03405(11) 0.8617(3) 0.04577(12)
H4 H 0.0023 0.8371 0.0483
C5 C 0.05063(11) 0.8014(3) 0.00664(12)
C6 C 0.09718(12) 0.8360(3) 0.00262(12)
C7 C 0.12670(11) 0.9335(3) 0.03739(12)
C8 C 0.20847(11) 1.0277(3) 0.07820(12)
H5 H 0.2392 1.0510 0.0700
H6 H 0.2189 0.9648 0.1095
C9 C 0.18688(11) 1.1528(3) 0.09443(12)
C10 C 0.17147(12) 1.2543(3) 0.04656(12)
C11 C 0.21072(11) 1.3446(3) 0.04222(12)
C12 C 0.26128(11) 1.3355(3) 0.08186(12)
C13 C 0.30561(11) 1.3910(3) 0.07500(12)
H7 H 0.3019 1.4410 0.0428
C14 C 0.35243(12) 1.3734(3) 0.11352(12)
C15 C 0.31864(11) 1.2548(3) 0.17013(12)
C16 C 0.27070(11) 1.2656(3) 0.13251(12)
C17 C 0.22594(11) 1.2153(3) 0.14562(12)
H8 H 0.2100 1.2896 0.1584
H9 H 0.2377 1.1485 0.1755
C18 C 0.33265(11) 1.1930(3) 0.22559(12)
C19 C 0.34681(12) 1.0580(3) 0.23028(12)
C20 C 0.35785(11) 0.9939(3) 0.28052(13)
C21 C 0.35499(11) 1.0628(3) 0.32555(12)
C22 C 0.34036(11) 1.1944(3) 0.32106(12)
H10 H 0.3381 1.2400 0.3520
C23 C 0.32884(11) 1.2606(3) 0.27081(12)
C24 C 0.04586(12) 1.0135(3) 0.12390(13)
C25 C 0.19821(11) 1.4453(3) -0.00126(12)
C26 C 0.15036(11) 1.4399(3) -0.05196(12)
H11 H 0.1229 1.4878 -0.0451
H12 H 0.1402 1.3471 -0.0609
H13 H 0.1569 1.4811 -0.0829
C27 C 0.40148(12) 1.4218(3) 0.11018(13)
H14 H 0.4162 1.4898 0.1384
H15 H 0.3950 1.4599 0.0737
H16 H 0.4254 1.3473 0.1163
C28 C 0.31069(12) 1.3991(3) 0.26891(13)
C29 C 0.06354(13) 1.0351(4) 0.21916(13)
H17 H 0.0275 1.0178 0.2127
H18 H 0.0695 1.1312 0.2209
H19 H 0.0849 0.9943 0.2540
C30 C -0.02409(12) 0.6677(3) -0.02887(15)
H20 H -0.0393 0.6017 -0.0578
H21 H -0.0454 0.7477 -0.0367
H22 H -0.0219 0.6309 0.0067
C31 C 0.36873(13) 1.0554(3) 0.42138(12)
H23 H 0.3349 1.0899 0.4171
H24 H 0.3930 1.1292 0.4282
H25 H 0.3801 0.9935 0.4525
C32 C 0.29296(13) 1.6019(3) 0.21938(14)
H26 H 0.2915 1.6383 0.1839
H27 H 0.3152 1.6575 0.2493
H28 H 0.2585 1.6004 0.2208
O15 O 0.19809(11) 0.7729(3) -0.06058(11)
H29 H 0.2162(13) 0.750(4) -0.0809(15)
H30 H 0.2202(12) 0.822(4) -0.0360(13)
O16 O 0.37429(10) 0.7516(2) 0.16863(11)
H31 H 0.3726(14) 0.6737(18) 0.1796(16)
H32 H 0.4025(9) 0.765(3) 0.1641(17)
loop_
_geom_bond_atom_site_label_1
_geom_bond_atom_site_label_2
_geom_bond_site_symmetry_1
_geom_bond_site_symmetry_2
O1 C1 1_555 1_555
O2 C5 1_555 1_555
O3 H1 1_555 1_555
O4 C7 1_555 1_555
O5 C10 1_555 1_555
O6 C14 1_555 1_555
O7 H2 1_555 1_555
O8 H3 1_555 1_555
O9 C21 1_555 1_555
O10 C24 1_555 1_555
O11 C24 1_555 1_555
O12 C25 1_555 1_555
O13 C28 1_555 1_555
O14 C28 1_555 1_555
C1 C2 1_555 1_555
C2 C3 1_555 1_555
C3 C4 1_555 1_555
C4 H4 1_555 1_555
C5 C4 1_555 1_555
C6 O3 1_555 1_555
C7 C2 1_555 1_555
C8 O4 1_555 1_555
H5 C8 1_555 1_555
H6 C8 1_555 1_555
C9 C1 1_555 1_555
C10 C9 1_555 1_555
C11 C10 1_555 1_555
C12 C11 1_555 1_555
C13 C12 1_555 1_555
H7 C13 1_555 1_555
C14 C13 1_555 1_555
C15 O6 1_555 1_555
C16 C12 1_555 1_555
C17 C9 1_555 1_555
H8 C17 1_555 1_555
H9 C17 1_555 1_555
C18 C15 1_555 1_555
C19 O7 1_555 1_555
C20 O8 1_555 1_555
C21 C20 1_555 1_555
C22 C21 1_555 1_555
H10 C22 1_555 1_555
C23 C18 1_555 1_555
C24 C3 1_555 1_555
C25 C11 1_555 1_555
C26 C25 1_555 1_555
H11 C26 1_555 1_555
H12 C26 1_555 1_555
H13 C26 1_555 1_555
C27 C14 1_555 1_555
H14 C27 1_555 1_555
H15 C27 1_555 1_555
H16 C27 1_555 1_555
C28 C23 1_555 1_555
C29 O11 1_555 1_555
H17 C29 1_555 1_555
H18 C29 1_555 1_555
H19 C29 1_555 1_555
C30 O2 1_555 1_555
H20 C30 1_555 1_555
H21 C30 1_555 1_555
H22 C30 1_555 1_555
C31 O9 1_555 1_555
H23 C31 1_555 1_555
H24 C31 1_555 1_555
H25 C31 1_555 1_555
C32 O14 1_555 1_555
H26 C32 1_555 1_555
H27 C32 1_555 1_555
H28 C32 1_555 1_555
O15 H29 1_555 1_555
H30 O15 1_555 1_555
O16 H31 1_555 1_555
H32 O16 1_555 1_555
C5 C6 1_555 1_555
C6 C7 1_555 1_555
C8 C9 1_555 1_555
C15 C16 1_555 1_555
C16 C17 1_555 1_555
C18 C19 1_555 1_555
C19 C20 1_555 1_555
C22 C23 1_555 1_555

#END
