
#######################################################################
#
#                 Cambridge Crystallographic Data Centre
#                                CCDC 
#
#######################################################################
#
# If this CIF has been generated from an entry in the Cambridge 
# Structural Database, then it will include bibliographic, chemical, 
# crystal, experimental, refinement or atomic coordinate data resulting 
# from the CCDC's data processing and validation procedures.
#
#######################################################################

data_TAYFEF
_chemical_formula_moiety         'C16 H23 N1 S2'
_chemical_name_systematic        
2,11-Dithia-14-amino-4,5,6,7,8,9-hexahydro(3.3)paracyclophane
_symmetry_cell_setting           monoclinic
_symmetry_space_group_name_H-M   'P 21/n'
_symmetry_Int_Tables_number      14
_space_group_name_Hall           '-P 2yn'
loop_
_symmetry_equiv_pos_site_id
_symmetry_equiv_pos_as_xyz
1 x,y,z
2 1/2-x,1/2+y,1/2-z
3 -x,-y,-z
4 1/2+x,1/2-y,1/2+z
_cell_length_a                   12.689(2)
_cell_length_b                   9.1690(16)
_cell_length_c                   13.753(2)
_cell_angle_alpha                90
_cell_angle_beta                 105.935(3)
_cell_angle_gamma                90
_cell_volume                     1538.61
_exptl_crystal_colour            yellow
_chemical_melting_point          '108-110 deg.C'
_cell_formula_units_Z            4
_exptl_crystal_recrystallization_method n-hexane/dichloromethane
loop_
_atom_site_label
_atom_site_type_symbol
_atom_site_fract_x
_atom_site_fract_y
_atom_site_fract_z
S1 S 0.36625(7) 0.03885(7) 0.07717(5)
S2 S 0.12369(7) 0.68885(8) -0.02656(6)
N1 N 0.0900(2) 0.0954(3) -0.0628(2)
H1 H 0.0257 0.1125 -0.0560
H2 H 0.1188 0.0103 -0.0491
C1 C 0.3193(3) 0.0477(3) -0.0614(2)
H3 H 0.3826 0.0431 -0.0878
H4 H 0.2742 -0.0371 -0.0861
C2 C 0.2549(2) 0.1822(3) -0.10187(17)
C3 C 0.1469(2) 0.2044(3) -0.09549(17)
C4 C 0.1005(2) 0.3413(3) -0.11742(18)
H5 H 0.0294 0.3561 -0.1130
C5 C 0.1551(2) 0.4561(3) -0.14540(17)
C6 C 0.2584(2) 0.4309(3) -0.15914(18)
H6 H 0.2950 0.5050 -0.1827
C7 C 0.3057(2) 0.2955(3) -0.13753(18)
H7 H 0.3745 0.2796 -0.1473
C8 C 0.1121(3) 0.6089(3) -0.1509(2)
H8 H 0.0356 0.6090 -0.1897
H9 H 0.1521 0.6692 -0.1865
C9 C 0.2657(2) 0.6571(3) 0.0425(2)
H10 H 0.2952 0.5806 0.0088
H11 H 0.3075 0.7452 0.0406
C10 C 0.2808(3) 0.6135(3) 0.1521(2)
H12 H 0.2511 0.6918 0.1854
C11 C 0.2224(2) 0.4725(3) 0.16430(19)
H13 H 0.2292 0.4560 0.2354
H14 H 0.1451 0.4813 0.1295
C12 C 0.27009(17) 0.3441(2) 0.12193(16)
H15 H 0.2557 0.3569 0.0495
H16 H 0.2325 0.2562 0.1331
C13 C 0.3920(2) 0.3225(3) 0.16690(17)
H17 H 0.4042 0.2898 0.2370
C14 C 0.4538(2) 0.4662(3) 0.1681(2)
H18 H 0.4578 0.4869 0.1000
H19 H 0.5282 0.4544 0.2106
C15 C 0.4016(3) 0.5967(3) 0.2064(3)
H20 H 0.4102 0.5851 0.2782
H21 H 0.4400 0.6849 0.1971
C16 C 0.4412(2) 0.2084(3) 0.1108(2)
H22 H 0.5142 0.1849 0.1525
H23 H 0.4492 0.2527 0.0492
loop_
_geom_bond_atom_site_label_1
_geom_bond_atom_site_label_2
_geom_bond_site_symmetry_1
_geom_bond_site_symmetry_2
S1 C1 1_555 1_555
S2 C8 1_555 1_555
N1 H1 1_555 1_555
H2 N1 1_555 1_555
C1 H3 1_555 1_555
H4 C1 1_555 1_555
C2 C1 1_555 1_555
C3 N1 1_555 1_555
C4 C3 1_555 1_555
H5 C4 1_555 1_555
C5 C4 1_555 1_555
C6 C5 1_555 1_555
H6 C6 1_555 1_555
C7 C2 1_555 1_555
H7 C7 1_555 1_555
C8 C5 1_555 1_555
H8 C8 1_555 1_555
H9 C8 1_555 1_555
C9 S2 1_555 1_555
H10 C9 1_555 1_555
H11 C9 1_555 1_555
C10 C9 1_555 1_555
H12 C10 1_555 1_555
C11 C10 1_555 1_555
H13 C11 1_555 1_555
H14 C11 1_555 1_555
C12 C11 1_555 1_555
H15 C12 1_555 1_555
H16 C12 1_555 1_555
C13 C12 1_555 1_555
H17 C13 1_555 1_555
C14 C13 1_555 1_555
H18 C14 1_555 1_555
H19 C14 1_555 1_555
C15 C10 1_555 1_555
H20 C15 1_555 1_555
H21 C15 1_555 1_555
C16 S1 1_555 1_555
H22 C16 1_555 1_555
H23 C16 1_555 1_555
C2 C3 1_555 1_555
C6 C7 1_555 1_555
C13 C16 1_555 1_555
C14 C15 1_555 1_555

#END
