
#######################################################################
#
#                 Cambridge Crystallographic Data Centre
#                                CCDC 
#
#######################################################################
#
# If this CIF has been generated from an entry in the Cambridge 
# Structural Database, then it will include bibliographic, chemical, 
# crystal, experimental, refinement or atomic coordinate data resulting 
# from the CCDC's data processing and validation procedures.
#
#######################################################################

data_TAYHAE
_chemical_formula_moiety         'C23 H17 Cl2 N3 O2,C1 H1 Cl3'
_chemical_name_systematic        
"Methyl 5,8'-dichloro-1-methyl-1,2,2',5'-tetrahydrospiro[indole-3,4'-pyrrolo[3',4':3,4]cyclopenta[1,2-b]indole]-3'-carboxylate chloroform solvate"
_symmetry_cell_setting           orthorhombic
_symmetry_space_group_name_H-M   'P 21 21 21'
_symmetry_Int_Tables_number      19
_space_group_name_Hall           'P 2ac 2ab'
loop_
_symmetry_equiv_pos_site_id
_symmetry_equiv_pos_as_xyz
1 x,y,z
2 1/2-x,-y,1/2+z
3 -x,1/2+y,1/2-z
4 1/2+x,1/2-y,-z
_cell_length_a                   9.2005(5)
_cell_length_b                   11.2541(6)
_cell_length_c                   23.7803(13)
_cell_angle_alpha                90
_cell_angle_beta                 90
_cell_angle_gamma                90
_cell_volume                     2462.29
_exptl_crystal_colour            brown
_exptl_crystal_description       block
_cell_formula_units_Z            4
_exptl_crystal_recrystallization_method Chloroform
loop_
_atom_site_label
_atom_site_type_symbol
_atom_site_fract_x
_atom_site_fract_y
_atom_site_fract_z
N1 N 0.9152(3) 0.38605(19) 0.16033(9)
H1 H 0.9858 0.3333 0.1601
C1 C 0.8897(3) 0.4656(2) 0.11848(11)
H2 H 0.9435 0.4735 0.0846
C2 C 0.7723(3) 0.5320(2) 0.13423(10)
C3 C 0.7245(3) 0.4899(2) 0.18732(11)
C4 C 0.8155(3) 0.3992(2) 0.20345(10)
C5 C 0.8237(3) 0.3322(2) 0.25521(12)
C6 C 0.9518(4) 0.1854(3) 0.30567(13)
H3 H 1.0246 0.1231 0.2995
H4 H 0.8593 0.1488 0.3166
H5 H 0.9849 0.2386 0.3357
O1 O 0.7440(2) 0.34772(16) 0.29472(8)
O2 O 0.9321(2) 0.25260(17) 0.25437(8)
N2 N 0.3537(2) 0.5350(2) 0.24813(10)
C7 C 0.4529(3) 0.4740(2) 0.20992(11)
H6 H 0.4092 0.4658 0.1721
H7 H 0.4777 0.3941 0.2244
C8 C 0.5891(3) 0.5545(2) 0.20796(11)
C9 C 0.5829(3) 0.6076(2) 0.26675(10)
C10 C 0.6881(3) 0.6645(2) 0.29791(11)
H8 H 0.7848 0.6727 0.2845
C11 C 0.6460(3) 0.7098(2) 0.35020(11)
C12 C 0.5073(3) 0.6985(2) 0.37053(12)
H9 H 0.4834 0.7300 0.4064
C13 C 0.4013(3) 0.6410(2) 0.33873(12)
H10 H 0.3044 0.6336 0.3521
C14 C 0.4414(3) 0.5949(2) 0.28707(11)
C15 C 0.2337(3) 0.4640(3) 0.26987(14)
H11 H 0.1679 0.5150 0.2915
H12 H 0.2719 0.4012 0.2943
H13 H 0.1805 0.4281 0.2385
Cl1 Cl 0.77359(9) 0.78514(7) 0.39108(3)
N3 N 0.4950(2) 0.74434(19) 0.15186(9)
H14 H 0.4239 0.7697 0.1735
C16 C 0.5808(3) 0.6475(2) 0.16119(11)
C17 C 0.6796(3) 0.6336(2) 0.11923(10)
C18 C 0.6578(3) 0.7275(2) 0.07972(10)
C19 C 0.7218(3) 0.7626(2) 0.02861(10)
H15 H 0.7991 0.7186 0.0123
C20 C 0.6684(3) 0.8625(2) 0.00345(11)
C21 C 0.5553(3) 0.9310(3) 0.02604(12)
H16 H 0.5240 1.0009 0.0072
C22 C 0.4896(3) 0.8971(3) 0.07565(11)
H17 H 0.4120 0.9419 0.0913
C23 C 0.5408(3) 0.7951(2) 0.10197(11)
Cl2 Cl 0.74605(9) 0.90819(7) -0.06053(3)
C24 C 0.0029(4) 0.0320(3) 0.03734(15)
H18 H -0.0538 -0.0331 0.0190
Cl3 Cl 0.14710(12) 0.06981(9) -0.00689(4)
Cl4 Cl -0.11299(12) 0.15480(11) 0.04638(5)
Cl5 Cl 0.06848(13) -0.02082(11) 0.10177(5)
loop_
_geom_bond_atom_site_label_1
_geom_bond_atom_site_label_2
_geom_bond_site_symmetry_1
_geom_bond_site_symmetry_2
N1 H1 1_555 1_555
C1 N1 1_555 1_555
H2 C1 1_555 1_555
C2 C1 1_555 1_555
C3 C2 1_555 1_555
C4 N1 1_555 1_555
C5 C4 1_555 1_555
C6 H3 1_555 1_555
H4 C6 1_555 1_555
H5 C6 1_555 1_555
O1 C5 1_555 1_555
O2 C5 1_555 1_555
N2 C7 1_555 1_555
C7 H6 1_555 1_555
H7 C7 1_555 1_555
C8 C3 1_555 1_555
C9 C8 1_555 1_555
C10 C9 1_555 1_555
H8 C10 1_555 1_555
C11 C10 1_555 1_555
C12 C11 1_555 1_555
H9 C12 1_555 1_555
C13 C12 1_555 1_555
H10 C13 1_555 1_555
C14 N2 1_555 1_555
C15 N2 1_555 1_555
H11 C15 1_555 1_555
H12 C15 1_555 1_555
H13 C15 1_555 1_555
Cl1 C11 1_555 1_555
N3 H14 1_555 1_555
C16 C8 1_555 1_555
C17 C2 1_555 1_555
C18 C17 1_555 1_555
C19 C18 1_555 1_555
H15 C19 1_555 1_555
C20 C19 1_555 1_555
C21 C20 1_555 1_555
H16 C21 1_555 1_555
C22 C21 1_555 1_555
H17 C22 1_555 1_555
C23 N3 1_555 1_555
Cl2 C20 1_555 1_555
C24 H18 1_555 1_555
Cl3 C24 1_555 1_555
Cl4 C24 1_555 1_555
Cl5 C24 1_555 1_555
C3 C4 1_555 1_555
C6 O2 1_555 1_555
C7 C8 1_555 1_555
C9 C14 1_555 1_555
C13 C14 1_555 1_555
N3 C16 1_555 1_555
C16 C17 1_555 1_555
C18 C23 1_555 1_555
C22 C23 1_555 1_555

#END
