
#######################################################################
#
#                 Cambridge Crystallographic Data Centre
#                                CCDC 
#
#######################################################################
#
# If this CIF has been generated from an entry in the Cambridge 
# Structural Database, then it will include bibliographic, chemical, 
# crystal, experimental, refinement or atomic coordinate data resulting 
# from the CCDC's data processing and validation procedures.
#
#######################################################################

data_TAYHIM
_chemical_formula_moiety         'C27 H24 N2 O2'
_chemical_name_systematic        
1-(4-Methoxyphenyl)-2,2-bis(1-methyl-1H-indol-3-yl)ethanone
_symmetry_cell_setting           monoclinic
_symmetry_space_group_name_H-M   'P 21/c'
_symmetry_Int_Tables_number      14
_space_group_name_Hall           '-P 2ybc'
loop_
_symmetry_equiv_pos_site_id
_symmetry_equiv_pos_as_xyz
1 x,y,z
2 -x,1/2+y,1/2-z
3 -x,-y,-z
4 x,1/2-y,1/2+z
_cell_length_a                   11.290(2)
_cell_length_b                   24.184(5)
_cell_length_c                   8.2547(16)
_cell_angle_alpha                90
_cell_angle_beta                 110.166(3)
_cell_angle_gamma                90
_cell_volume                     2115.68
_exptl_crystal_colour            colorless
_exptl_crystal_description       plate
_cell_formula_units_Z            4
loop_
_atom_site_label
_atom_site_type_symbol
_atom_site_fract_x
_atom_site_fract_y
_atom_site_fract_z
C1 C 0.2109(2) 1.04000(12) 0.2597(3)
H1 H 0.1369 1.0208 0.2616
H2 H 0.1899 1.0622 0.1573
H3 H 0.2420 1.0633 0.3595
C2 C 0.3511(2) 0.96749(9) 0.4015(3)
C3 C 0.4427(2) 0.92963(10) 0.3993(3)
H4 H 0.4685 0.9277 0.3039
C4 C 0.4953(2) 0.89517(9) 0.5364(3)
H5 H 0.5564 0.8699 0.5328
C5 C 0.45896(19) 0.89716(9) 0.6822(3)
C6 C 0.3664(2) 0.93505(10) 0.6809(3)
H6 H 0.3402 0.9371 0.7760
C7 C 0.3120(2) 0.96980(10) 0.5429(3)
H7 H 0.2496 0.9946 0.5447
C8 C 0.5217(2) 0.85944(9) 0.8278(3)
C9 C 0.48692(19) 0.86246(9) 0.9923(3)
H8 H 0.4602 0.9005 1.0023
C10 C 0.59979(19) 0.85053(9) 1.1516(3)
C11 C 0.61748(19) 0.80812(9) 1.2651(3)
H9 H 0.5590 0.7802 1.2568
C12 C 0.7927(2) 0.85821(9) 1.3631(3)
C13 C 0.71167(19) 0.88338(9) 1.2117(3)
C14 C 0.7515(2) 0.93208(10) 1.1529(3)
H10 H 0.6994 0.9497 1.0539
C15 C 0.8682(2) 0.95319(11) 1.2440(4)
H11 H 0.8953 0.9853 1.2054
C16 C 0.9468(2) 0.92752(12) 1.3928(4)
H12 H 1.0256 0.9428 1.4513
C17 C 0.9114(2) 0.88002(11) 1.4562(3)
H13 H 0.9641 0.8632 1.5564
C18 C 0.7767(2) 0.77699(11) 1.5456(3)
H14 H 0.7584 0.7945 1.6386
H15 H 0.8661 0.7715 1.5780
H16 H 0.7345 0.7419 1.5207
C19 C 0.37415(19) 0.82522(9) 0.9693(3)
C20 C 0.3669(2) 0.76959(10) 0.9412(3)
H17 H 0.4326 0.7479 0.9330
C21 C 0.1787(2) 0.79349(9) 0.9468(3)
C22 C 0.25347(19) 0.84174(9) 0.9730(3)
C23 C 0.2008(2) 0.89193(10) 0.9993(3)
H18 H 0.2474 0.9245 1.0158
C24 C 0.0799(2) 0.89251(11) 1.0005(3)
H19 H 0.0451 0.9257 1.0192
C25 C 0.0075(2) 0.84425(12) 0.9741(4)
H20 H -0.0745 0.8459 0.9753
C26 C 0.0556(2) 0.79428(11) 0.9464(3)
H21 H 0.0074 0.7622 0.9281
C27 C 0.2120(2) 0.69211(10) 0.9149(4)
H22 H 0.2666 0.6705 0.8727
H23 H 0.1266 0.6887 0.8372
H24 H 0.2176 0.6790 1.0271
N1 N 0.25019(17) 0.74985(8) 0.9266(2)
N2 N 0.73302(16) 0.81185(7) 1.3935(2)
O1 O 0.30559(15) 1.00081(7) 0.26081(19)
O2 O 0.59946(17) 0.82609(7) 0.8187(2)
loop_
_geom_bond_atom_site_label_1
_geom_bond_atom_site_label_2
_geom_bond_site_symmetry_1
_geom_bond_site_symmetry_2
C1 H1 1_555 1_555
H2 C1 1_555 1_555
H3 C1 1_555 1_555
C2 C3 1_555 1_555
C3 H4 1_555 1_555
C4 C3 1_555 1_555
H5 C4 1_555 1_555
C5 C4 1_555 1_555
C6 C5 1_555 1_555
H6 C6 1_555 1_555
C7 C2 1_555 1_555
H7 C7 1_555 1_555
C8 C5 1_555 1_555
C9 C8 1_555 1_555
H8 C9 1_555 1_555
C10 C9 1_555 1_555
C11 C10 1_555 1_555
H9 C11 1_555 1_555
C12 C13 1_555 1_555
C13 C10 1_555 1_555
C14 C13 1_555 1_555
H10 C14 1_555 1_555
C15 C14 1_555 1_555
H11 C15 1_555 1_555
C16 C15 1_555 1_555
H12 C16 1_555 1_555
C17 C12 1_555 1_555
H13 C17 1_555 1_555
C18 H14 1_555 1_555
H15 C18 1_555 1_555
H16 C18 1_555 1_555
C19 C9 1_555 1_555
C20 C19 1_555 1_555
H17 C20 1_555 1_555
C21 C22 1_555 1_555
C22 C19 1_555 1_555
C23 C22 1_555 1_555
H18 C23 1_555 1_555
C24 C23 1_555 1_555
H19 C24 1_555 1_555
C25 C24 1_555 1_555
H20 C25 1_555 1_555
C26 C21 1_555 1_555
H21 C26 1_555 1_555
C27 H22 1_555 1_555
H23 C27 1_555 1_555
H24 C27 1_555 1_555
N1 C20 1_555 1_555
N2 C11 1_555 1_555
O1 C1 1_555 1_555
O2 C8 1_555 1_555
C2 O1 1_555 1_555
C6 C7 1_555 1_555
C12 N2 1_555 1_555
C16 C17 1_555 1_555
C18 N2 1_555 1_555
C21 N1 1_555 1_555
C25 C26 1_555 1_555
C27 N1 1_555 1_555

#END
