
#######################################################################
#
#                 Cambridge Crystallographic Data Centre
#                                CCDC 
#
#######################################################################
#
# If this CIF has been generated from an entry in the Cambridge 
# Structural Database, then it will include bibliographic, chemical, 
# crystal, experimental, refinement or atomic coordinate data resulting 
# from the CCDC's data processing and validation procedures.
#
#######################################################################

data_TAYKEL
_chemical_formula_moiety         'C18 H28 N2 O3'
_chemical_name_systematic        
N,N-Diethyl-N^2^-(3-methoxybenzoyl)leucinamide
_symmetry_cell_setting           orthorhombic
_symmetry_space_group_name_H-M   'P b c n'
_symmetry_Int_Tables_number      60
_space_group_name_Hall           '-P 2n 2ab'
loop_
_symmetry_equiv_pos_site_id
_symmetry_equiv_pos_as_xyz
1 x,y,z
2 1/2-x,1/2-y,1/2+z
3 -x,y,1/2-z
4 1/2+x,1/2-y,-z
5 -x,-y,-z
6 1/2+x,1/2+y,1/2-z
7 x,-y,1/2+z
8 1/2-x,1/2+y,z
_cell_length_a                   18.1522(12)
_cell_length_b                   11.5989(8)
_cell_length_c                   18.6030(13)
_cell_angle_alpha                90
_cell_angle_beta                 90
_cell_angle_gamma                90
_cell_volume                     3916.78
_exptl_crystal_colour            colorless
_exptl_crystal_description       parallelepiped
_cell_formula_units_Z            8
loop_
_atom_site_label
_atom_site_type_symbol
_atom_site_fract_x
_atom_site_fract_y
_atom_site_fract_z
O1 O 0.17215(9) -0.06315(13) 0.25866(10)
O2 O 0.03995(7) 0.17009(12) 0.34293(7)
O3 O -0.07560(12) -0.1745(2) 0.05350(11)
N1 N 0.09258(8) 0.07077(12) 0.21973(8)
H1 H 0.0474(11) 0.0868(15) 0.2035(10)
N2 N 0.15190(9) 0.23137(16) 0.37714(8)
C1 C 0.08894(14) -0.24326(19) 0.20184(15)
H2 H 0.1251 -0.2617 0.2354
C2 C 0.05001(18) -0.3303(2) 0.1661(2)
H3 H 0.0611 -0.4070 0.1756
C3 C -0.00375(17) -0.3045(2) 0.11775(19)
H4 H -0.0292 -0.3635 0.0948
C4 C -0.02043(13) -0.1917(2) 0.10275(14)
C5 C 0.01765(11) -0.10332(17) 0.13709(11)
H5 H 0.0062 -0.0268 0.1270
C6 C 0.07276(10) -0.12913(16) 0.18644(11)
C7 C 0.11653(10) -0.03824(16) 0.22476(10)
C8 C 0.13309(9) 0.16518(15) 0.25210(9)
H6 H 0.1854 0.1445 0.2544
C9 C 0.10503(10) 0.18775(15) 0.32833(9)
C10 C 0.12294(15) 0.2631(2) 0.44812(11)
H7 H 0.1597 0.2458 0.4844
H8 H 0.0796 0.2170 0.4583
C11 C 0.1031(3) 0.3882(3) 0.4524(2)
H9 H 0.0841 0.4052 0.4994
H10 H 0.0663 0.4055 0.4169
H11 H 0.1461 0.4342 0.4436
C12 C 0.23087(12) 0.2478(2) 0.36476(13)
H12 H 0.2483 0.3107 0.3946
H13 H 0.2388 0.2691 0.3149
C13 C 0.27489(14) 0.1407(3) 0.38151(19)
H14 H 0.3262 0.1553 0.3726
H15 H 0.2584 0.0786 0.3515
H16 H 0.2681 0.1203 0.4311
C14 C 0.12470(11) 0.27495(16) 0.20765(9)
H17 H 0.1551 0.3346 0.2290
H18 H 0.0739 0.3003 0.2107
C15 C 0.14549(13) 0.2638(2) 0.12817(10)
H19 H 0.1121 0.2071 0.1066
C16 C 0.1329(2) 0.3781(3) 0.08997(14)
H20 H 0.0829 0.4024 0.0971
H21 H 0.1422 0.3688 0.0395
H22 H 0.1658 0.4351 0.1092
C17 C 0.22263(16) 0.2206(3) 0.11775(15)
H23 H 0.2287 0.1489 0.1428
H24 H 0.2569 0.2762 0.1363
H25 H 0.2317 0.2090 0.0674
C18 C -0.10353(16) -0.0616(3) 0.04468(17)
H26 H -0.1410 -0.0618 0.0082
H27 H -0.0643 -0.0109 0.0306
H28 H -0.1243 -0.0355 0.0892
loop_
_geom_bond_atom_site_label_1
_geom_bond_atom_site_label_2
_geom_bond_site_symmetry_1
_geom_bond_site_symmetry_2
O1 C7 1_555 1_555
O2 C9 1_555 1_555
O3 C4 1_555 1_555
N1 H1 1_555 1_555
N2 C9 1_555 1_555
C1 H2 1_555 1_555
C2 C1 1_555 1_555
H3 C2 1_555 1_555
C3 C2 1_555 1_555
H4 C3 1_555 1_555
C4 C3 1_555 1_555
C5 C4 1_555 1_555
H5 C5 1_555 1_555
C6 C1 1_555 1_555
C7 N1 1_555 1_555
C8 N1 1_555 1_555
H6 C8 1_555 1_555
C9 C8 1_555 1_555
C10 N2 1_555 1_555
H7 C10 1_555 1_555
H8 C10 1_555 1_555
C11 C10 1_555 1_555
H9 C11 1_555 1_555
H10 C11 1_555 1_555
H11 C11 1_555 1_555
C12 N2 1_555 1_555
H12 C12 1_555 1_555
H13 C12 1_555 1_555
C13 C12 1_555 1_555
H14 C13 1_555 1_555
H15 C13 1_555 1_555
H16 C13 1_555 1_555
C14 C8 1_555 1_555
H17 C14 1_555 1_555
H18 C14 1_555 1_555
C15 C14 1_555 1_555
H19 C15 1_555 1_555
C16 C15 1_555 1_555
H20 C16 1_555 1_555
H21 C16 1_555 1_555
H22 C16 1_555 1_555
C17 C15 1_555 1_555
H23 C17 1_555 1_555
H24 C17 1_555 1_555
H25 C17 1_555 1_555
C18 O3 1_555 1_555
H26 C18 1_555 1_555
H27 C18 1_555 1_555
H28 C18 1_555 1_555
C5 C6 1_555 1_555
C6 C7 1_555 1_555

#END
