
#######################################################################
#
#                 Cambridge Crystallographic Data Centre
#                                CCDC 
#
#######################################################################
#
# If this CIF has been generated from an entry in the Cambridge 
# Structural Database, then it will include bibliographic, chemical, 
# crystal, experimental, refinement or atomic coordinate data resulting 
# from the CCDC's data processing and validation procedures.
#
#######################################################################

data_TAYKAH
_chemical_formula_moiety         'C18 H28 N2 O2'
_chemical_name_systematic        N,N-Diethyl-N^2^-(3-methylbenzoyl)leucinamide
_symmetry_cell_setting           monoclinic
_symmetry_space_group_name_H-M   'C 2/c'
_symmetry_Int_Tables_number      15
_space_group_name_Hall           '-C 2yn'
loop_
_symmetry_equiv_pos_site_id
_symmetry_equiv_pos_as_xyz
1 x,y,z
2 -x,y,1/2-z
3 1/2+x,1/2+y,z
4 1/2-x,1/2+y,1/2-z
5 -x,-y,-z
6 x,-y,1/2+z
7 1/2-x,1/2-y,-z
8 1/2+x,1/2-y,1/2+z
_cell_length_a                   19.5529(9)
_cell_length_b                   10.7474(4)
_cell_length_c                   19.5495(10)
_cell_angle_alpha                90
_cell_angle_beta                 117.843(6)
_cell_angle_gamma                90
_cell_volume                     3632.59
_exptl_crystal_colour            colorless
_exptl_crystal_description       parallelepiped
_cell_formula_units_Z            8
loop_
_atom_site_label
_atom_site_type_symbol
_atom_site_fract_x
_atom_site_fract_y
_atom_site_fract_z
O1 O 0.17046(7) 0.39258(12) 0.32430(8)
O2 O 0.03080(6) 0.09430(11) 0.17642(7)
N1 N 0.09509(8) 0.22818(13) 0.31414(8)
H1 H 0.0546(11) 0.2004(17) 0.3148(10)
N2 N 0.14640(7) 0.08595(13) 0.17709(8)
C1 C 0.01320(9) 0.38246(18) 0.37352(10)
H2 H 0.0099 0.2950 0.3783
C2 C -0.03241(11) 0.4605(2) 0.39212(13)
C3 C -0.02708(15) 0.5864(2) 0.38443(17)
H3 H -0.0583 0.6404 0.3966
C4 C 0.02188(17) 0.6364(2) 0.35983(19)
C5 C 0.06818(14) 0.5563(2) 0.34220(15)
H4 H 0.1032 0.5900 0.3260
C6 C 0.06321(10) 0.42929(17) 0.34825(10)
C7 C 0.11383(9) 0.34879(16) 0.32764(10)
C8 C 0.14194(9) 0.14174(15) 0.29680(9)
H5 H 0.1922 0.1829 0.3090
C9 C 0.10177(9) 0.10615(15) 0.21159(9)
C10 C 0.10969(11) 0.0520(2) 0.09491(11)
H6 H 0.1361 0.0966 0.0696
H7 H 0.0551 0.0799 0.0702
C11 C 0.11186(14) -0.0849(2) 0.08158(15)
H8 H 0.0866 -0.1016 0.0259
H9 H 0.0846 -0.1296 0.1053
H10 H 0.1657 -0.1129 0.1048
C12 C 0.23108(9) 0.09720(18) 0.21610(11)
H11 H 0.2526 0.0363 0.1933
H12 H 0.2512 0.0760 0.2715
C13 C 0.25876(12) 0.2262(2) 0.20980(12)
H13 H 0.3154 0.2285 0.2374
H14 H 0.2381 0.2870 0.2327
H15 H 0.2407 0.2466 0.1552
C14 C 0.15866(10) 0.02371(16) 0.34654(10)
H16 H 0.1089 -0.0157 0.3357
H17 H 0.1875 -0.0357 0.3309
C15 C 0.20478(11) 0.04653(19) 0.43312(10)
H18 H 0.1720 0.0980 0.4490
C16 C 0.27902(14) 0.1177(3) 0.45490(15)
H19 H 0.2670 0.1966 0.4265
H20 H 0.3132 0.0681 0.4416
H21 H 0.3048 0.1345 0.5106
C17 C 0.22108(14) -0.0762(2) 0.47676(12)
H22 H 0.1723 -0.1200 0.4622
H23 H 0.2469 -0.0599 0.5325
H24 H 0.2546 -0.1277 0.4636
C18 C -0.0858(2) 0.4146(5) 0.4154(3)
H25 H -0.1385 0.4273 0.3737
H26 H -0.0793 0.4590 0.4618
H27 H -0.0768 0.3255 0.4268
C19? C 0.0123(3) 0.7666(4) 0.3337(4)
H28? H 0.0436 0.7821 0.3074
H29? H 0.0292 0.8221 0.3785
H30? H -0.0423 0.7825 0.2978
loop_
_geom_bond_atom_site_label_1
_geom_bond_atom_site_label_2
_geom_bond_site_symmetry_1
_geom_bond_site_symmetry_2
O1 C7 1_555 1_555
O2 C9 1_555 1_555
N1 H1 1_555 1_555
N2 C9 1_555 1_555
C1 H2 1_555 1_555
C2 C1 1_555 1_555
C3 C2 1_555 1_555
H3 C3 1_555 1_555
C4 C3 1_555 1_555
C5 C4 1_555 1_555
H4 C5 1_555 1_555
C6 C1 1_555 1_555
C7 N1 1_555 1_555
C8 N1 1_555 1_555
H5 C8 1_555 1_555
C9 C8 1_555 1_555
C10 N2 1_555 1_555
H6 C10 1_555 1_555
H7 C10 1_555 1_555
C11 C10 1_555 1_555
H8 C11 1_555 1_555
H9 C11 1_555 1_555
H10 C11 1_555 1_555
C12 N2 1_555 1_555
H11 C12 1_555 1_555
H12 C12 1_555 1_555
C13 C12 1_555 1_555
H13 C13 1_555 1_555
H14 C13 1_555 1_555
H15 C13 1_555 1_555
C14 C8 1_555 1_555
H16 C14 1_555 1_555
H17 C14 1_555 1_555
C15 C14 1_555 1_555
H18 C15 1_555 1_555
C16 C15 1_555 1_555
H19 C16 1_555 1_555
H20 C16 1_555 1_555
H21 C16 1_555 1_555
C17 C15 1_555 1_555
H22 C17 1_555 1_555
H23 C17 1_555 1_555
H24 C17 1_555 1_555
C18 C2 1_555 1_555
H25 C18 1_555 1_555
H26 C18 1_555 1_555
H27 C18 1_555 1_555
C5 C6 1_555 1_555
C6 C7 1_555 1_555

#END
