
#######################################################################
#
#                 Cambridge Crystallographic Data Centre
#                                CCDC 
#
#######################################################################
#
# If this CIF has been generated from an entry in the Cambridge 
# Structural Database, then it will include bibliographic, chemical, 
# crystal, experimental, refinement or atomic coordinate data resulting 
# from the CCDC's data processing and validation procedures.
#
#######################################################################

data_TAYLAI
_chemical_formula_moiety         'C19 H30 N2 O4'
_chemical_name_systematic        
N^2^-(3,5-Dimethoxybenzoyl)-N,N-diethylleucinamide
_symmetry_cell_setting           monoclinic
_symmetry_space_group_name_H-M   'P 21/c'
_symmetry_Int_Tables_number      14
_space_group_name_Hall           '-P 2ybc'
loop_
_symmetry_equiv_pos_site_id
_symmetry_equiv_pos_as_xyz
1 x,y,z
2 -x,1/2+y,1/2-z
3 -x,-y,-z
4 x,1/2-y,1/2+z
_cell_length_a                   17.7595(10)
_cell_length_b                   18.1000(5)
_cell_length_c                   12.1792(4)
_cell_angle_alpha                90
_cell_angle_beta                 94.101(3)
_cell_angle_gamma                90
_cell_volume                     3904.94
_exptl_crystal_colour            colorless
_exptl_crystal_description       parallelepiped
_cell_formula_units_Z            8
loop_
_atom_site_label
_atom_site_type_symbol
_atom_site_fract_x
_atom_site_fract_y
_atom_site_fract_z
O1 O 0.74449(5) -0.16704(5) 0.58276(7)
O2 O 0.83080(5) -0.00876(5) 0.91301(7)
O3 O 0.95536(5) 0.09603(5) 0.62730(7)
O4 O 0.65048(5) -0.07249(4) 0.33503(7)
N1 N 0.78771(6) -0.10890(6) 0.43547(8)
H1 H 0.8062(8) -0.0695(8) 0.4091(10)
N2 N 0.61727(6) -0.19158(5) 0.30538(8)
C1 C 0.78072(7) -0.11602(6) 0.54471(9)
C2 C 0.82087(7) -0.05957(6) 0.61889(9)
C3 C 0.80568(7) -0.06201(7) 0.72979(9)
H2 H 0.7714 -0.0973 0.7551
C4 C 0.84155(7) -0.01200(7) 0.80242(9)
C5 C 0.89171(7) 0.03972(7) 0.76591(10)
H3 H 0.9166 0.0731 0.8165
C6 C 0.90547(7) 0.04251(7) 0.65526(10)
C7 C 0.87043(7) -0.00713(6) 0.58047(10)
H4 H 0.8801 -0.0053 0.5048
C8 C 0.77505(8) -0.05622(8) 0.95327(10)
H5 H 0.7730 -0.0488 1.0327
H6 H 0.7881 -0.1078 0.9389
H7 H 0.7257 -0.0448 0.9159
C9 C 0.95918(8) 0.11228(8) 0.51329(11)
H8 H 0.9970 0.1508 0.5046
H9 H 0.9098 0.1296 0.4826
H10 H 0.9734 0.0676 0.4743
C10 C 0.75113(7) -0.16071(6) 0.35783(9)
H11 H 0.7536 -0.2115 0.3902
C11 C 0.66831(7) -0.13869(7) 0.33302(9)
C12 C 0.53798(7) -0.17045(7) 0.27989(10)
H12 H 0.5299 -0.1198 0.3074
H13 H 0.5050 -0.2043 0.3186
C13 C 0.51586(8) -0.17310(8) 0.15731(11)
H14 H 0.4628 -0.1587 0.1439
H15 H 0.5228 -0.2234 0.1300
H16 H 0.5477 -0.1389 0.1188
C14 C 0.63404(7) -0.27118(7) 0.30581(10)
H17 H 0.6869 -0.2788 0.2876
H18 H 0.6007 -0.2960 0.2485
C15 C 0.62275(8) -0.30583(8) 0.41682(12)
H19 H 0.6345 -0.3587 0.4143
H20 H 0.5702 -0.2993 0.4344
H21 H 0.6563 -0.2819 0.4735
C16 C 0.79064(7) -0.16037(7) 0.24924(9)
H22 H 0.7670 -0.1987 0.2000
H23 H 0.7816 -0.1119 0.2129
C17 C 0.87597(7) -0.17428(7) 0.26170(10)
H24 H 0.8994 -0.1343 0.3094
C18 C 0.90848(8) -0.16882(10) 0.14923(11)
H25 H 0.9631 -0.1775 0.1574
H26 H 0.8986 -0.1195 0.1184
H27 H 0.8846 -0.2060 0.0997
C19 C 0.89554(8) -0.24803(7) 0.31673(12)
H28 H 0.9505 -0.2544 0.3234
H29 H 0.8724 -0.2882 0.2721
H30 H 0.8763 -0.2490 0.3901
O5 O 0.75964(5) 0.16604(5) 0.49477(7)
O6 O 0.67465(5) 0.11069(5) 0.87819(6)
O7 O 0.55059(5) -0.06755(5) 0.65828(7)
O8 O 0.85014(5) 0.00905(4) 0.30912(7)
N3 N 0.72206(6) 0.06701(6) 0.39187(8)
H31 H 0.7020(8) 0.0226(8) 0.3871(11)
N4 N 0.87546(6) 0.11504(5) 0.22018(8)
C20 C 0.72622(7) 0.10621(6) 0.48630(9)
C21 C 0.68672(7) 0.07439(6) 0.58149(9)
C22 C 0.70118(7) 0.10827(7) 0.68338(9)
H32 H 0.7352 0.1488 0.6913
C23 C 0.66526(7) 0.08210(7) 0.77343(9)
C24 C 0.61487(7) 0.02344(7) 0.76242(10)
H33 H 0.5899 0.0064 0.8241
C25 C 0.60129(7) -0.01011(7) 0.66033(10)
C26 C 0.63672(7) 0.01494(6) 0.56915(9)
H34 H 0.6270 -0.0081 0.4995
C27 C 0.72816(9) 0.16887(7) 0.89630(10)
H35 H 0.7300 0.1841 0.9737
H36 H 0.7131 0.2110 0.8492
H37 H 0.7781 0.1515 0.8785
C28 C 0.53765(8) -0.10671(7) 0.55683(10)
H38 H 0.5005 -0.1459 0.5656
H39 H 0.5851 -0.1286 0.5363
H40 H 0.5185 -0.0725 0.4991
C29 C 0.74898(7) 0.09660(7) 0.29057(9)
H41 H 0.7477 0.1518 0.2932
C30 C 0.82995(7) 0.07087(7) 0.27521(9)
C31 C 0.85693(8) 0.19146(7) 0.18788(11)
H42 H 0.8017 0.1958 0.1709
H43 H 0.8821 0.2038 0.1203
C32 C 0.88158(9) 0.24601(8) 0.27786(14)
H44 H 0.8680 0.2962 0.2536
H45 H 0.9364 0.2428 0.2935
H46 H 0.8563 0.2343 0.3446
C33 C 0.95313(7) 0.09049(7) 0.20348(10)
H47 H 0.9621 0.0423 0.2405
H48 H 0.9892 0.1265 0.2386
C34 C 0.96827(8) 0.08276(9) 0.08374(11)
H49 H 1.0204 0.0663 0.0779
H50 H 0.9607 0.1306 0.0469
H51 H 0.9335 0.0463 0.0487
C35 C 0.69822(7) 0.06958(7) 0.19144(9)
H52 H 0.7155 0.0927 0.1240
H53 H 0.7047 0.0155 0.1844
C36 C 0.61390(7) 0.08621(7) 0.19731(10)
H54 H 0.5968 0.0619 0.2649
C37 C 0.59812(9) 0.16833(8) 0.20555(15)
H55 H 0.6275 0.1888 0.2696
H56 H 0.5442 0.1761 0.2137
H57 H 0.6125 0.1931 0.1386
C38 C 0.56981(8) 0.05227(8) 0.09784(11)
H58 H 0.5159 0.0627 0.1016
H59 H 0.5779 -0.0013 0.0977
H60 H 0.5873 0.0736 0.0302
loop_
_geom_bond_atom_site_label_1
_geom_bond_atom_site_label_2
_geom_bond_site_symmetry_1
_geom_bond_site_symmetry_2
O1 C1 1_555 1_555
O2 C4 1_555 1_555
O3 C6 1_555 1_555
O4 C11 1_555 1_555
N1 H1 1_555 1_555
N2 C11 1_555 1_555
C1 N1 1_555 1_555
C2 C1 1_555 1_555
C3 C2 1_555 1_555
H2 C3 1_555 1_555
C4 C3 1_555 1_555
C5 C4 1_555 1_555
H3 C5 1_555 1_555
C6 C5 1_555 1_555
C7 C2 1_555 1_555
H4 C7 1_555 1_555
C8 O2 1_555 1_555
H5 C8 1_555 1_555
H6 C8 1_555 1_555
H7 C8 1_555 1_555
C9 O3 1_555 1_555
H8 C9 1_555 1_555
H9 C9 1_555 1_555
H10 C9 1_555 1_555
C10 N1 1_555 1_555
H11 C10 1_555 1_555
C11 C10 1_555 1_555
C12 N2 1_555 1_555
H12 C12 1_555 1_555
H13 C12 1_555 1_555
C13 C12 1_555 1_555
H14 C13 1_555 1_555
H15 C13 1_555 1_555
H16 C13 1_555 1_555
C14 N2 1_555 1_555
H17 C14 1_555 1_555
H18 C14 1_555 1_555
C15 C14 1_555 1_555
H19 C15 1_555 1_555
H20 C15 1_555 1_555
H21 C15 1_555 1_555
C16 C10 1_555 1_555
H22 C16 1_555 1_555
H23 C16 1_555 1_555
C17 C16 1_555 1_555
H24 C17 1_555 1_555
C18 C17 1_555 1_555
H25 C18 1_555 1_555
H26 C18 1_555 1_555
H27 C18 1_555 1_555
C19 C17 1_555 1_555
H28 C19 1_555 1_555
H29 C19 1_555 1_555
H30 C19 1_555 1_555
O5 C20 1_555 1_555
O6 C23 1_555 1_555
O7 C25 1_555 1_555
O8 C30 1_555 1_555
N3 H31 1_555 1_555
N4 C30 1_555 1_555
C20 N3 1_555 1_555
C21 C20 1_555 1_555
C22 C21 1_555 1_555
H32 C22 1_555 1_555
C23 C22 1_555 1_555
C24 C23 1_555 1_555
H33 C24 1_555 1_555
C25 C24 1_555 1_555
C26 C21 1_555 1_555
H34 C26 1_555 1_555
C27 O6 1_555 1_555
H35 C27 1_555 1_555
H36 C27 1_555 1_555
H37 C27 1_555 1_555
C28 O7 1_555 1_555
H38 C28 1_555 1_555
H39 C28 1_555 1_555
H40 C28 1_555 1_555
C29 N3 1_555 1_555
H41 C29 1_555 1_555
C30 C29 1_555 1_555
C31 N4 1_555 1_555
H42 C31 1_555 1_555
H43 C31 1_555 1_555
C32 C31 1_555 1_555
H44 C32 1_555 1_555
H45 C32 1_555 1_555
H46 C32 1_555 1_555
C33 N4 1_555 1_555
H47 C33 1_555 1_555
H48 C33 1_555 1_555
C34 C33 1_555 1_555
H49 C34 1_555 1_555
H50 C34 1_555 1_555
H51 C34 1_555 1_555
C35 C29 1_555 1_555
H52 C35 1_555 1_555
H53 C35 1_555 1_555
C36 C35 1_555 1_555
H54 C36 1_555 1_555
C37 C36 1_555 1_555
H55 C37 1_555 1_555
H56 C37 1_555 1_555
H57 C37 1_555 1_555
C38 C36 1_555 1_555
H58 C38 1_555 1_555
H59 C38 1_555 1_555
H60 C38 1_555 1_555
C6 C7 1_555 1_555
C25 C26 1_555 1_555

#END
