
#######################################################################
#
#                 Cambridge Crystallographic Data Centre
#                                CCDC 
#
#######################################################################
#
# If this CIF has been generated from an entry in the Cambridge 
# Structural Database, then it will include bibliographic, chemical, 
# crystal, experimental, refinement or atomic coordinate data resulting 
# from the CCDC's data processing and validation procedures.
#
#######################################################################

data_TAYLOW
_chemical_formula_moiety         'C17 H26 N2 O2'
_chemical_name_systematic        N^2^-Benzoyl-N,N-diethylleucinamide
_symmetry_cell_setting           monoclinic
_symmetry_space_group_name_H-M   'P 21/c'
_symmetry_Int_Tables_number      14
_space_group_name_Hall           '-P 2ybc'
loop_
_symmetry_equiv_pos_site_id
_symmetry_equiv_pos_as_xyz
1 x,y,z
2 -x,1/2+y,1/2-z
3 -x,-y,-z
4 x,1/2-y,1/2+z
_cell_length_a                   10.3265(5)
_cell_length_b                   9.9356(5)
_cell_length_c                   19.3787(8)
_cell_angle_alpha                90
_cell_angle_beta                 118.669(4)
_cell_angle_gamma                90
_cell_volume                     1744.51
_exptl_crystal_colour            colorless
_exptl_crystal_description       parallelepiped
_cell_formula_units_Z            4
loop_
_atom_site_label
_atom_site_type_symbol
_atom_site_fract_x
_atom_site_fract_y
_atom_site_fract_z
O1 O 0.1645(4) 0.1565(3) 0.16659(16)
O2 O -0.1354(3) 0.4910(3) 0.03646(14)
N1 N 0.1259(3) 0.3365(3) 0.08935(14)
H1 H 0.125(3) 0.369(3) 0.0526(17)
N2 N -0.1198(4) 0.4709(5) 0.1544(2)
C1 C 0.1843(4) -0.0133(4) 0.0544(2)
H2 H 0.1461 -0.0532 0.0842
C2 C 0.2216(6) -0.0924(5) 0.0088(3)
H3 H 0.2048 -0.1847 0.0058
C3 C 0.2842(7) -0.0343(6) -0.0324(3)
H4 H 0.3116 -0.0883 -0.0625
C4 C 0.3071(7) 0.1022(6) -0.0301(3)
H5 H 0.3506 0.1402 -0.0578
C5 C 0.2643(5) 0.1834(4) 0.0144(2)
H6 H 0.2774 0.2762 0.0154
C6 C 0.2027(3) 0.1263(3) 0.05693(17)
C7 C 0.1622(3) 0.2076(3) 0.10830(17)
C8 C 0.0994(4) 0.4276(3) 0.13971(17)
H7 H 0.1333 0.3846 0.1910
C9 C 0.1859(4) 0.5588(4) 0.1516(2)
H8 H 0.1647 0.5939 0.1005
H9 H 0.1515 0.6245 0.1762
C10 C 0.3522(5) 0.5433(5) 0.2017(3)
H10 H 0.3841 0.4704 0.1792
C11 C 0.3966(6) 0.5059(6) 0.2868(3)
H11 H 0.3491 0.4233 0.2876
H12 H 0.3669 0.5762 0.3102
H13 H 0.5017 0.4946 0.3160
C12 C 0.4277(7) 0.6746(7) 0.1966(4)
H14 H 0.3993 0.6933 0.1426
H15 H 0.5329 0.6642 0.2260
H16 H 0.3976 0.7477 0.2181
C13 C -0.0640(4) 0.4607(3) 0.10532(18)
C14 C -0.0316(8) 0.4668(5) 0.2415(4)
H17 H 0.0692 0.4958 0.2593
H18 H -0.0754 0.5224 0.2660
C15 C -0.0385(10) 0.3191(6) 0.2584(6)
H19 H 0.0155 0.3039 0.3141
H20 H 0.0042 0.2667 0.2328
H21 H -0.1395 0.2929 0.2390
C16 C -0.2702(6) 0.5179(7) 0.1265(3)
H22 H -0.2778 0.5605 0.1694
H23 H -0.2942 0.5846 0.0856
C17 C -0.3711(10) 0.4115(9) 0.0968(6)
H24 H -0.4693 0.4453 0.0782
H25 H -0.3491 0.3466 0.1376
H26 H -0.3639 0.3695 0.0541
loop_
_geom_bond_atom_site_label_1
_geom_bond_atom_site_label_2
_geom_bond_site_symmetry_1
_geom_bond_site_symmetry_2
O1 C7 1_555 1_555
O2 C13 1_555 1_555
N1 H1 1_555 1_555
N2 C13 1_555 1_555
C1 H2 1_555 1_555
C2 C1 1_555 1_555
H3 C2 1_555 1_555
C3 C2 1_555 1_555
H4 C3 1_555 1_555
C4 C3 1_555 1_555
H5 C4 1_555 1_555
C5 C4 1_555 1_555
H6 C5 1_555 1_555
C6 C1 1_555 1_555
C7 N1 1_555 1_555
C8 N1 1_555 1_555
H7 C8 1_555 1_555
C9 C8 1_555 1_555
H8 C9 1_555 1_555
H9 C9 1_555 1_555
C10 C9 1_555 1_555
H10 C10 1_555 1_555
C11 C10 1_555 1_555
H11 C11 1_555 1_555
H12 C11 1_555 1_555
H13 C11 1_555 1_555
C12 C10 1_555 1_555
H14 C12 1_555 1_555
H15 C12 1_555 1_555
H16 C12 1_555 1_555
C13 C8 1_555 1_555
C14 N2 1_555 1_555
H17 C14 1_555 1_555
H18 C14 1_555 1_555
C15 C14 1_555 1_555
H19 C15 1_555 1_555
H20 C15 1_555 1_555
H21 C15 1_555 1_555
C16 N2 1_555 1_555
H22 C16 1_555 1_555
H23 C16 1_555 1_555
C17 C16 1_555 1_555
H24 C17 1_555 1_555
H25 C17 1_555 1_555
H26 C17 1_555 1_555
C5 C6 1_555 1_555
C6 C7 1_555 1_555

#END
