
#######################################################################
#
#                 Cambridge Crystallographic Data Centre
#                                CCDC 
#
#######################################################################
#
# If this CIF has been generated from an entry in the Cambridge 
# Structural Database, then it will include bibliographic, chemical, 
# crystal, experimental, refinement or atomic coordinate data resulting 
# from the CCDC's data processing and validation procedures.
#
#######################################################################

data_TAYLEM
_chemical_formula_moiety         'C19 H30 N2 O2'
_chemical_name_systematic        
N^2^-(3,5-Dimethylbenzoyl)-N,N-diethylleucinamide
_symmetry_cell_setting           monoclinic
_symmetry_space_group_name_H-M   'C 2/c'
_symmetry_Int_Tables_number      15
_space_group_name_Hall           '-C 2yn'
loop_
_symmetry_equiv_pos_site_id
_symmetry_equiv_pos_as_xyz
1 x,y,z
2 -x,y,1/2-z
3 1/2+x,1/2+y,z
4 1/2-x,1/2+y,1/2-z
5 -x,-y,-z
6 x,-y,1/2+z
7 1/2-x,1/2-y,-z
8 1/2+x,1/2-y,1/2+z
_cell_length_a                   19.2323(8)
_cell_length_b                   11.2976(3)
_cell_length_c                   19.2695(9)
_cell_angle_alpha                90
_cell_angle_beta                 117.304(5)
_cell_angle_gamma                90
_cell_volume                     3720.38
_exptl_crystal_colour            colorless
_exptl_crystal_description       parallelepiped
_cell_formula_units_Z            8
loop_
_atom_site_label
_atom_site_type_symbol
_atom_site_fract_x
_atom_site_fract_y
_atom_site_fract_z
O1 O 0.17004(6) 0.84411(9) 0.31781(7)
O2 O 0.03198(6) 0.55661(9) 0.17562(6)
N1 N 0.09523(7) 0.68709(10) 0.31270(7)
H1 H 0.0532(11) 0.6610(16) 0.3132(10)
N2 N 0.15001(7) 0.54568(11) 0.17694(7)
C1 C 0.07191(8) 1.00316(13) 0.34125(8)
H2 H 0.1080 1.0331 0.3247
C2 C 0.02850(9) 1.08139(13) 0.36125(9)
C3 C -0.02442(9) 1.03550(14) 0.38483(10)
H3 H -0.0549 1.0884 0.3980
C4 C -0.03390(8) 0.91421(13) 0.38964(9)
C5 C 0.01103(8) 0.83778(12) 0.37009(8)
H4 H 0.0059 0.7547 0.3739
C6 C 0.06335(8) 0.88115(12) 0.34514(8)
C7 C 0.11357(8) 0.80320(12) 0.32381(8)
C8 C 0.14401(8) 0.60494(12) 0.29677(8)
H5 H 0.1943 0.6454 0.3080
C9 C 0.10396(8) 0.56737(12) 0.21096(8)
C10 C 0.11397(9) 0.50903(15) 0.09473(9)
H6 H 0.1421 0.5472 0.0687
H7 H 0.0590 0.5367 0.0685
C11 C 0.11551(11) 0.37606(16) 0.08549(11)
H8 H 0.0908 0.3559 0.0298
H9 H 0.0869 0.3379 0.1103
H10 H 0.1699 0.3484 0.1103
C12 C 0.23619(8) 0.55460(14) 0.21676(9)
H11 H 0.2579 0.4959 0.1938
H12 H 0.2557 0.5344 0.2726
C13 C 0.26572(9) 0.67691(14) 0.21062(10)
H13 H 0.3230 0.6776 0.2380
H14 H 0.2454 0.7353 0.2344
H15 H 0.2477 0.6967 0.1555
C14 C 0.16254(8) 0.49588(12) 0.34959(8)
H16 H 0.1130 0.4548 0.3381
H17 H 0.1951 0.4408 0.3369
C15 C 0.20533(9) 0.52453(14) 0.43690(9)
H18 H 0.1674 0.5645 0.4514
C16 C 0.23213(10) 0.40949(16) 0.48383(10)
H19 H 0.1871 0.3569 0.4694
H20 H 0.2553 0.4275 0.5397
H21 H 0.2712 0.3705 0.4723
C17 C 0.27475(10) 0.60700(15) 0.45834(10)
H22 H 0.2571 0.6801 0.4278
H23 H 0.3139 0.5681 0.4469
H24 H 0.2980 0.6258 0.5141
C18 C 0.03852(12) 1.21332(14) 0.35783(12)
H25 H 0.0780 1.2294 0.3402
H26 H 0.0555 1.2474 0.4099
H27 H -0.0114 1.2488 0.3212
C19 C -0.09242(10) 0.86634(15) 0.41413(11)
H28 H -0.0909 0.7796 0.4142
H29 H -0.1450 0.8934 0.3774
H30 H -0.0794 0.8948 0.4667
loop_
_geom_bond_atom_site_label_1
_geom_bond_atom_site_label_2
_geom_bond_site_symmetry_1
_geom_bond_site_symmetry_2
O1 C7 1_555 1_555
O2 C9 1_555 1_555
N1 H1 1_555 1_555
N2 C9 1_555 1_555
C1 H2 1_555 1_555
C2 C1 1_555 1_555
C3 C2 1_555 1_555
H3 C3 1_555 1_555
C4 C3 1_555 1_555
C5 C4 1_555 1_555
H4 C5 1_555 1_555
C6 C1 1_555 1_555
C7 N1 1_555 1_555
C8 N1 1_555 1_555
H5 C8 1_555 1_555
C9 C8 1_555 1_555
C10 N2 1_555 1_555
H6 C10 1_555 1_555
H7 C10 1_555 1_555
C11 C10 1_555 1_555
H8 C11 1_555 1_555
H9 C11 1_555 1_555
H10 C11 1_555 1_555
C12 N2 1_555 1_555
H11 C12 1_555 1_555
H12 C12 1_555 1_555
C13 C12 1_555 1_555
H13 C13 1_555 1_555
H14 C13 1_555 1_555
H15 C13 1_555 1_555
C14 C8 1_555 1_555
H16 C14 1_555 1_555
H17 C14 1_555 1_555
C15 C14 1_555 1_555
H18 C15 1_555 1_555
C16 C15 1_555 1_555
H19 C16 1_555 1_555
H20 C16 1_555 1_555
H21 C16 1_555 1_555
C17 C15 1_555 1_555
H22 C17 1_555 1_555
H23 C17 1_555 1_555
H24 C17 1_555 1_555
C18 C2 1_555 1_555
H25 C18 1_555 1_555
H26 C18 1_555 1_555
H27 C18 1_555 1_555
C19 C4 1_555 1_555
H28 C19 1_555 1_555
H29 C19 1_555 1_555
H30 C19 1_555 1_555
C5 C6 1_555 1_555
C6 C7 1_555 1_555

#END
