
#######################################################################
#
#                 Cambridge Crystallographic Data Centre
#                                CCDC 
#
#######################################################################
#
# If this CIF has been generated from an entry in the Cambridge 
# Structural Database, then it will include bibliographic, chemical, 
# crystal, experimental, refinement or atomic coordinate data resulting 
# from the CCDC's data processing and validation procedures.
#
#######################################################################

data_TAYMEN
_chemical_formula_moiety         'C23 H17 N3 O3 S2,C3 H7 N1 O1'
_chemical_name_systematic        
'5-(4-Methoxyphenyl)-9-(methylsulfanyl)-2,6-dioxo-1,2,3,5-tetrahydro-6H-imidazo[1,2-a]thiochromeno[3,2-e]pyridine-4-carbonitrile N,N-dimethylformamide solvate'
_symmetry_cell_setting           triclinic
_symmetry_space_group_name_H-M   'P -1'
_symmetry_Int_Tables_number      2
_space_group_name_Hall           '-P 1'
loop_
_symmetry_equiv_pos_site_id
_symmetry_equiv_pos_as_xyz
1 x,y,z
2 -x,-y,-z
_cell_length_a                   10.776(2)
_cell_length_b                   10.992(2)
_cell_length_c                   11.889(2)
_cell_angle_alpha                72.81(3)
_cell_angle_beta                 70.62(3)
_cell_angle_gamma                67.65(3)
_cell_volume                     1205.29
_exptl_crystal_colour            'light yellow'
_exptl_crystal_description       block
_cell_formula_units_Z            2
loop_
_atom_site_label
_atom_site_type_symbol
_atom_site_fract_x
_atom_site_fract_y
_atom_site_fract_z
S1 S 0.24613(7) 0.79048(7) 0.32135(6)
S2 S 0.76127(7) 0.58171(8) 0.40038(7)
O1 O -0.1825(2) 0.9879(2) 0.1111(2)
O2 O 0.10304(19) 0.81399(19) 0.71162(18)
O3 O -0.1649(3) 0.3526(2) 0.91246(19)
N1 N -0.4662(2) 0.9726(3) 0.6309(2)
N2 N -0.0203(2) 0.8665(2) 0.3501(2)
N3 N -0.2316(2) 0.9512(2) 0.3203(2)
H1 H -0.3225 0.9756 0.3364
C1 C -0.1472(3) 0.9528(3) 0.2048(3)
C2 C 0.0010(3) 0.9027(3) 0.2179(3)
H2 H 0.0578 0.8241 0.1792
H3 H 0.0456 0.9741 0.1825
C3 C -0.1595(3) 0.9076(2) 0.4080(3)
C4 C -0.2060(3) 0.9024(2) 0.5283(3)
C5 C -0.3509(3) 0.9422(3) 0.5843(3)
C6 C -0.1069(2) 0.8460(2) 0.6104(2)
H4 H -0.1295 0.9129 0.6616
C7 C 0.0434(2) 0.8233(2) 0.5365(2)
C8 C 0.0787(2) 0.8294(2) 0.4143(2)
C9 C 0.3474(3) 0.7391(3) 0.4258(3)
C10 C 0.2935(3) 0.7516(3) 0.5470(2)
C11 C 0.1433(3) 0.7987(2) 0.6044(2)
C12 C 0.4907(3) 0.6881(3) 0.3772(3)
H5 H 0.5256 0.6802 0.2942
C13 C 0.5805(3) 0.6497(3) 0.4500(3)
C14 C 0.5279(3) 0.6643(3) 0.5720(3)
H6 H 0.5895 0.6398 0.6223
C15 C 0.3879(3) 0.7138(3) 0.6186(3)
H7 H 0.3537 0.7228 0.7013
C16 C 0.7847(3) 0.5626(4) 0.2499(3)
H8 H 0.7573 0.6511 0.1983
H9 H 0.7272 0.5106 0.2521
H10 H 0.8823 0.5155 0.2169
C17 C -0.1242(2) 0.7152(2) 0.6955(2)
C18 C -0.1167(3) 0.6113(3) 0.6479(2)
H11 H -0.1004 0.6221 0.5624
C19 C -0.1325(3) 0.4925(3) 0.7218(3)
H12 H -0.1289 0.4230 0.6875
C20 C -0.1536(3) 0.4746(3) 0.8467(3)
C21 C -0.1621(3) 0.5779(3) 0.8970(3)
H13 H -0.1772 0.5668 0.9823
C22 C -0.1481(3) 0.6974(3) 0.8203(3)
H14 H -0.1551 0.7686 0.8543
C23 C -0.1497(6) 0.3173(4) 1.0350(3)
H15 H -0.0663 0.3334 1.0352
H16 H -0.1414 0.2223 1.0673
H17 H -0.2310 0.3722 1.0859
loop_
_geom_bond_atom_site_label_1
_geom_bond_atom_site_label_2
_geom_bond_site_symmetry_1
_geom_bond_site_symmetry_2
S1 C8 1_555 1_555
S2 C13 1_555 1_555
O1 C1 1_555 1_555
O2 C11 1_555 1_555
O3 C20 1_555 1_555
N1 C5 1_555 1_555
N2 C2 1_555 1_555
N3 H1 1_555 1_555
C1 N3 1_555 1_555
C2 C1 1_555 1_555
H2 C2 1_555 1_555
H3 C2 1_555 1_555
C3 N2 1_555 1_555
C4 C3 1_555 1_555
C5 C4 1_555 1_555
C6 C4 1_555 1_555
H4 C6 1_555 1_555
C7 C6 1_555 1_555
C8 N2 1_555 1_555
C9 S1 1_555 1_555
C10 C9 1_555 1_555
C11 C7 1_555 1_555
C12 C9 1_555 1_555
H5 C12 1_555 1_555
C13 C12 1_555 1_555
C14 C13 1_555 1_555
H6 C14 1_555 1_555
C15 C10 1_555 1_555
H7 C15 1_555 1_555
C16 S2 1_555 1_555
H8 C16 1_555 1_555
H9 C16 1_555 1_555
H10 C16 1_555 1_555
C17 C6 1_555 1_555
C18 C17 1_555 1_555
H11 C18 1_555 1_555
C19 C18 1_555 1_555
H12 C19 1_555 1_555
C20 C19 1_555 1_555
C21 C20 1_555 1_555
H13 C21 1_555 1_555
C22 C17 1_555 1_555
H14 C22 1_555 1_555
C23 O3 1_555 1_555
H15 C23 1_555 1_555
H16 C23 1_555 1_555
H17 C23 1_555 1_555
N3 C3 1_555 1_555
C7 C8 1_555 1_555
C10 C11 1_555 1_555
C14 C15 1_555 1_555
C21 C22 1_555 1_555

#END
