
#######################################################################
#
#                 Cambridge Crystallographic Data Centre
#                                CCDC 
#
#######################################################################
#
# If this CIF has been generated from an entry in the Cambridge 
# Structural Database, then it will include bibliographic, chemical, 
# crystal, experimental, refinement or atomic coordinate data resulting 
# from the CCDC's data processing and validation procedures.
#
#######################################################################

data_TAYPIU
_chemical_formula_moiety         'C25 H19 N1 O1'
_chemical_name_systematic        
7-Methyl-3-(4-methylphenyl)-4'H-spiro[isoindole-1,1'-naphthalen]-4'-one
_symmetry_cell_setting           monoclinic
_symmetry_space_group_name_H-M   'P 21/c'
_symmetry_Int_Tables_number      14
_space_group_name_Hall           '-P 2ybc'
loop_
_symmetry_equiv_pos_site_id
_symmetry_equiv_pos_as_xyz
1 x,y,z
2 -x,1/2+y,1/2-z
3 -x,-y,-z
4 x,1/2-y,1/2+z
_cell_length_a                   13.0287(8)
_cell_length_b                   11.1799(7)
_cell_length_c                   12.7282(7)
_cell_angle_alpha                90
_cell_angle_beta                 105.5770(10)
_cell_angle_gamma                90
_cell_volume                     1785.89
_exptl_crystal_colour            colorless
_exptl_crystal_description       block
_cell_formula_units_Z            4
loop_
_atom_site_label
_atom_site_type_symbol
_atom_site_fract_x
_atom_site_fract_y
_atom_site_fract_z
C1 C 0.25769(7) 0.36411(8) 0.46398(7)
C2 C 0.31063(7) 0.30779(8) 0.57221(8)
H1 H 0.3724 0.3456 0.6167
C3 C 0.27647(8) 0.20798(9) 0.61004(8)
H2 H 0.3128 0.1801 0.6807
C4 C 0.18435(8) 0.14021(9) 0.54547(8)
C5 C 0.12507(7) 0.19132(8) 0.43849(8)
C6 C 0.03507(8) 0.13107(9) 0.37505(9)
H3 H 0.0112 0.0600 0.4020
C7 C -0.01904(8) 0.17452(10) 0.27367(9)
H4 H -0.0803 0.1339 0.2313
C8 C 0.01677(8) 0.27860(10) 0.23373(9)
H5 H -0.0197 0.3081 0.1636
C9 C 0.10529(8) 0.33893(9) 0.29611(8)
H6 H 0.1291 0.4096 0.2685
C10 C 0.15965(7) 0.29664(8) 0.39915(8)
C11 C 0.23567(7) 0.49608(8) 0.47785(7)
C12 C 0.17389(7) 0.55157(9) 0.53786(8)
C13 C 0.11445(9) 0.48161(10) 0.60386(9)
H7 H 0.0733 0.4179 0.5587
H8 H 0.0660 0.5351 0.6285
H9 H 0.1654 0.4463 0.6673
C14 C 0.17347(8) 0.67699(9) 0.53743(9)
H10 H 0.1309 0.7181 0.5758
C15 C 0.23364(8) 0.74346(9) 0.48249(8)
H11 H 0.2317 0.8283 0.4847
C16 C 0.29652(8) 0.68690(8) 0.42437(8)
H12 H 0.3383 0.7316 0.3876
C17 C 0.29584(7) 0.56216(8) 0.42231(7)
C18 C 0.35557(7) 0.47365(8) 0.37589(7)
C19 C 0.43038(7) 0.49789(8) 0.30965(8)
C20 C 0.41124(8) 0.58657(9) 0.22943(8)
H13 H 0.3514 0.6379 0.2200
C21 C 0.47983(9) 0.59952(9) 0.16345(9)
H14 H 0.4656 0.6593 0.1084
C22 C 0.56952(8) 0.52642(9) 0.17633(8)
C23 C 0.64486(10) 0.54474(11) 0.10656(10)
H15 H 0.7022 0.4853 0.1259
H16 H 0.6754 0.6253 0.1187
H17 H 0.6061 0.5355 0.0296
C24 C 0.58750(7) 0.43805(9) 0.25606(8)
H18 H 0.6475 0.3868 0.2656
C25 C 0.51901(7) 0.42368(8) 0.32197(8)
H19 H 0.5326 0.3627 0.3760
N1 N 0.33689(6) 0.36393(7) 0.39844(7)
O1 O 0.15895(7) 0.04413(7) 0.57790(7)
loop_
_geom_bond_atom_site_label_1
_geom_bond_atom_site_label_2
_geom_bond_site_symmetry_1
_geom_bond_site_symmetry_2
C1 C2 1_555 1_555
C2 H1 1_555 1_555
C3 C2 1_555 1_555
H2 C3 1_555 1_555
C4 C3 1_555 1_555
C5 C4 1_555 1_555
C6 C5 1_555 1_555
H3 C6 1_555 1_555
C7 C6 1_555 1_555
H4 C7 1_555 1_555
C8 C7 1_555 1_555
H5 C8 1_555 1_555
C9 C8 1_555 1_555
H6 C9 1_555 1_555
C10 C1 1_555 1_555
C11 C1 1_555 1_555
C12 C11 1_555 1_555
C13 C12 1_555 1_555
H7 C13 1_555 1_555
H8 C13 1_555 1_555
H9 C13 1_555 1_555
C14 C12 1_555 1_555
H10 C14 1_555 1_555
C15 C14 1_555 1_555
H11 C15 1_555 1_555
C16 C15 1_555 1_555
H12 C16 1_555 1_555
C17 C11 1_555 1_555
C18 C17 1_555 1_555
C19 C18 1_555 1_555
C20 C19 1_555 1_555
H13 C20 1_555 1_555
C21 C20 1_555 1_555
H14 C21 1_555 1_555
C22 C21 1_555 1_555
C23 C22 1_555 1_555
H15 C23 1_555 1_555
H16 C23 1_555 1_555
H17 C23 1_555 1_555
C24 C22 1_555 1_555
H18 C24 1_555 1_555
C25 C19 1_555 1_555
H19 C25 1_555 1_555
N1 C1 1_555 1_555
O1 C4 1_555 1_555
C5 C10 1_555 1_555
C9 C10 1_555 1_555
C16 C17 1_555 1_555
C18 N1 1_555 1_555
C24 C25 1_555 1_555

#END
