
#######################################################################
#
#                 Cambridge Crystallographic Data Centre
#                                CCDC 
#
#######################################################################
#
# If this CIF has been generated from an entry in the Cambridge 
# Structural Database, then it will include bibliographic, chemical, 
# crystal, experimental, refinement or atomic coordinate data resulting 
# from the CCDC's data processing and validation procedures.
#
#######################################################################

data_TAYPEQ
_chemical_formula_moiety         'C21 H13 N1'
_chemical_name_systematic        1,1'-Binaphthalene-2-carbonitrile
_symmetry_cell_setting           tetragonal
_symmetry_space_group_name_H-M   'P 43'
_symmetry_Int_Tables_number      78
_space_group_name_Hall           'P 4cw'
loop_
_symmetry_equiv_pos_site_id
_symmetry_equiv_pos_as_xyz
1 x,y,z
2 -x,-y,1/2+z
3 -y,x,3/4+z
4 y,-x,1/4+z
_cell_length_a                   9.1152(2)
_cell_length_b                   9.1152(2)
_cell_length_c                   36.0783(11)
_cell_angle_alpha                90
_cell_angle_beta                 90
_cell_angle_gamma                90
_cell_volume                     2997.63
_exptl_crystal_colour            colorless
_exptl_crystal_description       block
_cell_formula_units_Z            8
loop_
_atom_site_label
_atom_site_type_symbol
_atom_site_fract_x
_atom_site_fract_y
_atom_site_fract_z
C1 C 0.4319(3) 0.3982(2) 0.03584(7)
C2 C 0.2807(2) 0.3498(2) 0.03761(6)
C3 C 0.1804(3) 0.4099(2) 0.01148(7)
H1 H 0.2119 0.4825 -0.0056
C4 C 0.0391(2) 0.3626(2) 0.01125(7)
H2 H -0.0281 0.4029 -0.0061
C5 C -0.0093(2) 0.2543(2) 0.03644(6)
C6 C -0.1565(2) 0.2031(3) 0.03608(7)
H3 H -0.2239 0.2422 0.0186
C7 C -0.2023(3) 0.0982(3) 0.06062(8)
H4 H -0.3005 0.0634 0.0597
C8 C -0.1037(3) 0.0416(3) 0.08729(8)
H5 H -0.1368 -0.0303 0.1044
C9 C 0.0375(3) 0.0887(3) 0.08873(7)
H6 H 0.1018 0.0504 0.1070
C10 C 0.0901(2) 0.1950(2) 0.06302(6)
C11 C 0.2385(2) 0.2451(2) 0.06335(6)
C12 C 0.3446(2) 0.1901(2) 0.09159(6)
C13 C 0.3857(3) 0.2818(3) 0.12026(7)
H7 H 0.3485 0.3791 0.1211
C14 C 0.4817(3) 0.2336(3) 0.14830(7)
H8 H 0.5090 0.2989 0.1676
C15 C 0.5357(3) 0.0949(3) 0.14801(7)
H9 H 0.5988 0.0634 0.1674
C16 C 0.4986(2) -0.0037(3) 0.11894(7)
C17 C 0.5565(3) -0.1482(3) 0.11726(8)
H10 H 0.6194 -0.1817 0.1365
C18 C 0.5233(3) -0.2398(3) 0.08849(9)
H11 H 0.5629 -0.3361 0.0878
C19 C 0.4302(3) -0.1914(3) 0.05971(8)
H12 H 0.4085 -0.2552 0.0396
C20 C 0.3707(2) -0.0529(2) 0.06044(7)
H13 H 0.3075 -0.0223 0.0410
C21 C 0.4027(2) 0.0448(2) 0.09005(6)
N1 N 0.5500(2) 0.4380(2) 0.03272(7)
C22 C 0.7471(3) 0.5076(3) 0.21302(7)
C23 C 0.7985(2) 0.3579(2) 0.21694(7)
C24 C 0.7022(3) 0.2583(3) 0.23490(7)
H14 H 0.6117 0.2917 0.2449
C25 C 0.7409(3) 0.1138(3) 0.23765(7)
H15 H 0.6769 0.0472 0.2499
C26 C 0.8740(2) 0.0618(2) 0.22266(6)
C27 C 0.9122(3) -0.0885(3) 0.22442(7)
H16 H 0.8488 -0.1552 0.2367
C28 C 1.0383(3) -0.1389(3) 0.20877(7)
H17 H 1.0620 -0.2403 0.2101
C29 C 1.1339(3) -0.0406(3) 0.19059(7)
H18 H 1.2212 -0.0766 0.1794
C30 C 1.1024(2) 0.1061(2) 0.18885(6)
H19 H 1.1687 0.1710 0.1768
C31 C 0.9712(2) 0.1622(2) 0.20486(6)
C32 C 0.9330(2) 0.3142(2) 0.20265(6)
C33 C 1.036(4) 0.418(7) 0.1844(10)
C34 C 1.164(3) 0.461(4) 0.2017(7)
H20 H 1.1873 0.4231 0.2255
C35 C 1.2607(13) 0.5614(18) 0.1846(4)
H21 H 1.3518 0.5852 0.1959
C36 C 1.2220(16) 0.6236(18) 0.1516(4)
H22 H 1.2862 0.6930 0.1405
C37 C 1.0900(16) 0.5881(18) 0.1335(3)
C38 C 1.0459(18) 0.6552(13) 0.0995(3)
H23 H 1.1067 0.7273 0.0883
C39 C 0.9175(18) 0.6162(15) 0.0833(3)
H24 H 0.8855 0.6675 0.0619
C40 C 0.8295(15) 0.5005(16) 0.0976(3)
H25 H 0.7455 0.4679 0.0844
C41 C 0.8663(16) 0.4362(18) 0.1307(3)
H26 H 0.8055 0.3618 0.1408
C42 C 0.9949(18) 0.480(2) 0.1497(4)
N2 N 0.6957(2) 0.6213(2) 0.21046(7)
C43? C 1.036(5) 0.425(8) 0.1865(14)
C44? C 1.165(3) 0.448(5) 0.2058(9)
C45? C 1.272(2) 0.545(2) 0.1925(5)
C46? C 1.2512(19) 0.618(2) 0.1596(6)
C47? C 1.122(2) 0.596(2) 0.1390(5)
C48? C 1.092(2) 0.6734(18) 0.1058(4)
C49? C 0.973(3) 0.6438(17) 0.0852(3)
C50? C 0.868(2) 0.538(2) 0.0961(4)
C51? C 0.892(2) 0.462(2) 0.1286(5)
C52? C 1.016(2) 0.493(3) 0.1516(6)
H27? H 1.1816 0.3979 0.2285
H28? H 1.3590 0.5604 0.2063
H29? H 1.3242 0.6842 0.1508
H30? H 1.1570 0.7484 0.0979
H31? H 0.9587 0.6953 0.0626
H32? H 0.7834 0.5202 0.0815
H33? H 0.8247 0.3877 0.1358
loop_
_geom_bond_atom_site_label_1
_geom_bond_atom_site_label_2
_geom_bond_site_symmetry_1
_geom_bond_site_symmetry_2
C1 C2 1_555 1_555
C2 C3 1_555 1_555
C3 H1 1_555 1_555
C4 C3 1_555 1_555
H2 C4 1_555 1_555
C5 C4 1_555 1_555
C6 C5 1_555 1_555
H3 C6 1_555 1_555
C7 C6 1_555 1_555
H4 C7 1_555 1_555
C8 C7 1_555 1_555
H5 C8 1_555 1_555
C9 C8 1_555 1_555
H6 C9 1_555 1_555
C10 C5 1_555 1_555
C11 C2 1_555 1_555
C12 C11 1_555 1_555
C13 C12 1_555 1_555
H7 C13 1_555 1_555
C14 C13 1_555 1_555
H8 C14 1_555 1_555
C15 C14 1_555 1_555
H9 C15 1_555 1_555
C16 C15 1_555 1_555
C17 C16 1_555 1_555
H10 C17 1_555 1_555
C18 C17 1_555 1_555
H11 C18 1_555 1_555
C19 C18 1_555 1_555
H12 C19 1_555 1_555
C20 C19 1_555 1_555
H13 C20 1_555 1_555
C21 C12 1_555 1_555
C22 C23 1_555 1_555
C23 C24 1_555 1_555
C24 H14 1_555 1_555
C25 C24 1_555 1_555
H15 C25 1_555 1_555
C26 C25 1_555 1_555
C27 C26 1_555 1_555
H16 C27 1_555 1_555
C28 C27 1_555 1_555
H17 C28 1_555 1_555
C29 C28 1_555 1_555
H18 C29 1_555 1_555
C30 C29 1_555 1_555
H19 C30 1_555 1_555
C31 C26 1_555 1_555
C32 C23 1_555 1_555
C33 C32 1_555 1_555
C34 C33 1_555 1_555
H20 C34 1_555 1_555
C35 C34 1_555 1_555
H21 C35 1_555 1_555
C36 C35 1_555 1_555
H22 C36 1_555 1_555
C37 C36 1_555 1_555
C38 C37 1_555 1_555
H23 C38 1_555 1_555
C39 C38 1_555 1_555
H24 C39 1_555 1_555
C40 C39 1_555 1_555
H25 C40 1_555 1_555
C41 C40 1_555 1_555
H26 C41 1_555 1_555
C42 C33 1_555 1_555
N1 C1 1_555 1_555
N2 C22 1_555 1_555
C9 C10 1_555 1_555
C10 C11 1_555 1_555
C16 C21 1_555 1_555
C20 C21 1_555 1_555
C30 C31 1_555 1_555
C31 C32 1_555 1_555
C37 C42 1_555 1_555
C41 C42 1_555 1_555

#END
