
#######################################################################
#
#                 Cambridge Crystallographic Data Centre
#                                CCDC 
#
#######################################################################
#
# If this CIF has been generated from an entry in the Cambridge 
# Structural Database, then it will include bibliographic, chemical, 
# crystal, experimental, refinement or atomic coordinate data resulting 
# from the CCDC's data processing and validation procedures.
#
#######################################################################

data_TAYRAP
_chemical_formula_moiety         'C48 H36 N6 O12,1.5(C5 H9 N1 O1)'
_chemical_name_systematic        
'3,10,18,25,33,40-hexaazatridecacyclo[40.3.1.1^3,45^.1^10,13^.1^12,16^.1^15,18^.1^25,28^.1^27,31^.1^30,33^.1^40,43^.0^4,9^.0^19,24^.0^34,39^]tetrapentaconta-1(46),12(53),13,15,27(50),28,30,42,44-nonaene-2,11,17,26,32,41,47,48,49,51,52,54-dodecone 1-methylpyrrolidin-2-one unknown solvate'
_symmetry_cell_setting           triclinic
_symmetry_space_group_name_H-M   'P 1'
_symmetry_Int_Tables_number      1
_space_group_name_Hall           'P 1'
loop_
_symmetry_equiv_pos_site_id
_symmetry_equiv_pos_as_xyz
1 x,y,z
_cell_length_a                   10.9086(2)
_cell_length_b                   15.7319(3)
_cell_length_c                   17.5116(4)
_cell_angle_alpha                83.6115(16)
_cell_angle_beta                 79.6903(15)
_cell_angle_gamma                70.5894(15)
_cell_volume                     2784.3
_exptl_crystal_colour            colorless
_exptl_crystal_description       plate
_cell_formula_units_Z            2
loop_
_atom_site_label
_atom_site_type_symbol
_atom_site_fract_x
_atom_site_fract_y
_atom_site_fract_z
O1 O 0.6899(6) 0.6698(4) 0.8433(4)
O2 O 0.6313(5) 0.3231(4) 0.9851(3)
O3 O 1.0307(7) 0.2448(4) 1.0696(4)
O4 O 1.1016(6) 0.5926(4) 0.9105(3)
O5 O 0.6886(6) 0.1216(4) 0.9357(3)
O6 O 0.6693(7) 0.2031(6) 0.5962(3)
O7 O 1.1030(6) 0.1770(5) 0.5518(4)
O8 O 1.1112(6) 0.1228(7) 0.8979(4)
O9 O 0.7080(6) 0.4227(4) 0.4942(3)
O10 O 0.6662(6) 0.7351(4) 0.6778(4)
O11 O 1.1085(5) 0.6263(4) 0.6831(3)
O12 O 1.1577(6) 0.3426(4) 0.4644(3)
N1 N 0.9036(6) 0.6499(5) 0.8617(4)
N2 N 0.8281(6) 0.2615(4) 1.0344(4)
N3 N 0.9037(6) 0.1141(4) 0.9355(4)
N4 N 0.8816(6) 0.2053(5) 0.5534(4)
N5 N 0.9351(7) 0.3616(5) 0.4727(4)
N6 N 0.8818(6) 0.6945(5) 0.6990(4)
C1 C 0.8622(9) 0.7644(6) 0.7516(5)
H1 H 0.7656 0.7894 0.7702
C2 C 0.9079(9) 0.8430(6) 0.7081(5)
H2 H 1.0036 0.8205 0.6895
H3 H 0.8621 0.8659 0.6624
C3 C 0.8779(8) 0.9191(6) 0.7622(5)
H4 H 0.7814 0.9474 0.7742
H5 H 0.9152 0.9658 0.7353
C4 C 0.9341(10) 0.8860(6) 0.8381(5)
H6 H 1.0312 0.8690 0.8269
H7 H 0.9022 0.9360 0.8737
C5 C 0.8966(9) 0.8063(6) 0.8779(5)
H8 H 0.8010 0.8258 0.8973
H9 H 0.9436 0.7837 0.9232
C6 C 0.9303(8) 0.7304(6) 0.8229(5)
H10 H 1.0271 0.7129 0.8044
C7 C 0.7882(9) 0.6262(6) 0.8685(5)
C8 C 0.8161(8) 0.5357(6) 0.9119(5)
C9 C 0.7383(8) 0.4800(6) 0.9285(5)
H11 H 0.6540 0.4956 0.9131
C10 C 0.7922(8) 0.4020(6) 0.9684(5)
C11 C 0.7331(8) 0.3269(6) 0.9953(5)
C12 C 0.9370(9) 0.2871(6) 1.0377(5)
C13 C 0.9137(8) 0.3787(6) 0.9938(5)
C14 C 0.9928(9) 0.4330(6) 0.9783(5)
H12 H 1.0755 0.4177 0.9957
C15 C 0.9402(8) 0.5123(6) 0.9347(5)
C16 C 0.9982(8) 0.5857(6) 0.9042(5)
C17 C 0.8090(8) 0.1753(6) 1.0647(5)
H13 H 0.7201 0.1783 1.0549
C18 C 0.8092(10) 0.1574(7) 1.1519(5)
H14 H 0.7412 0.2077 1.1797
H15 H 0.8958 0.1540 1.1644
C19 C 0.7815(10) 0.0680(7) 1.1789(5)
H16 H 0.7833 0.0564 1.2355
H17 H 0.6928 0.0726 1.1691
C20 C 0.8808(9) -0.0073(7) 1.1370(5)
H18 H 0.8599 -0.0637 1.1543
H19 H 0.9680 -0.0147 1.1508
C21 C 0.8883(8) 0.0061(6) 1.0491(5)
H20 H 0.8061 0.0040 1.0341
H21 H 0.9623 -0.0435 1.0243
C22 C 0.9083(8) 0.0973(6) 1.0201(5)
H22 H 0.9979 0.0940 1.0288
C23 C 0.7938(8) 0.1248(5) 0.9014(4)
C24 C 0.8307(7) 0.1423(6) 0.8159(5)
C25 C 0.7583(8) 0.1595(6) 0.7595(5)
H23 H 0.6687 0.1621 0.7688
C26 C 0.8234(8) 0.1737(6) 0.6852(5)
C27 C 0.7776(9) 0.1954(6) 0.6087(5)
C28 C 0.9953(9) 0.1835(6) 0.5856(5)
C29 C 0.9560(8) 0.1677(6) 0.6709(5)
C30 C 1.0275(8) 0.1520(7) 0.7315(5)
H24 H 1.1171 0.1494 0.7235
C31 C 0.9598(8) 0.1402(6) 0.8054(5)
C32 C 1.0068(9) 0.1242(7) 0.8828(6)
C33 C 0.8662(9) 0.2265(6) 0.4717(5)
H25 H 0.7722 0.2633 0.4698
C34 C 0.8942(11) 0.1421(8) 0.4284(6)
H26 H 0.8392 0.1060 0.4561
H27 H 0.9876 0.1051 0.4279
C35 C 0.8659(13) 0.1653(9) 0.3448(5)
H28 H 0.8900 0.1090 0.3172
H29 H 0.7707 0.1968 0.3451
C36 C 0.9439(13) 0.2254(9) 0.3020(6)
H30 H 0.9205 0.2431 0.2491
H31 H 1.0392 0.1918 0.2970
C37 C 0.9124(11) 0.3104(8) 0.3477(5)
H32 H 0.9624 0.3499 0.3201
H33 H 0.8175 0.3447 0.3518
C38 C 0.9502(9) 0.2816(6) 0.4290(5)
H34 H 1.0444 0.2427 0.4235
C39 C 0.8171(9) 0.4234(6) 0.5015(5)
C40 C 0.8512(8) 0.4889(6) 0.5431(5)
C41 C 0.7703(8) 0.5639(6) 0.5823(5)
H35 H 0.6776 0.5852 0.5838
C42 C 0.8343(8) 0.6041(6) 0.6184(5)
C43 C 0.7776(9) 0.6860(6) 0.6668(5)
C44 C 1.0038(9) 0.6309(6) 0.6692(5)
C45 C 0.9682(7) 0.5738(5) 0.6178(4)
C46 C 1.0526(8) 0.5024(6) 0.5756(4)
H36 H 1.1454 0.4835 0.5730
C47 C 0.9883(8) 0.4605(5) 0.5373(4)
C48 C 1.0438(9) 0.3811(6) 0.4889(4)
O13 O 0.1086(5) 0.7500(4) 0.5209(3)
O14 O 0.0863(5) 0.4781(4) 0.3128(3)
O15 O 0.5299(6) 0.3373(4) 0.3034(3)
O16 O 0.5588(5) 0.6406(4) 0.4743(3)
O17 O 0.6069(5) 0.4102(4) 0.1399(3)
O18 O 0.6136(5) 0.7708(4) -0.0085(3)
O19 O 0.1946(6) 0.8311(4) -0.0584(4)
O20 O 0.1860(5) 0.4697(4) 0.0910(3)
O21 O 0.6310(5) 0.9381(4) 0.0845(3)
O22 O 0.5222(6) 0.8822(4) 0.4327(3)
O23 O 0.0889(6) 0.9314(5) 0.4185(4)
O24 O 0.2000(5) 0.9770(4) 0.0715(3)
N7 N 0.3361(6) 0.7157(4) 0.5069(3)
N8 N 0.3081(6) 0.3971(4) 0.2889(3)
N9 N 0.3969(6) 0.4180(4) 0.1260(4)
N10 N 0.4219(6) 0.9583(4) 0.0558(4)
N11 N 0.4015(6) 0.8264(5) -0.0378(4)
N12 N 0.2992(6) 0.8999(5) 0.4451(4)
C49 C 0.2694(8) 0.8781(6) 0.5290(5)
H37 H 0.1742 0.8833 0.5409
C50 C 0.2921(9) 0.9454(7) 0.5792(5)
H38 H 0.3861 0.9412 0.5694
H39 H 0.2397 1.0078 0.5645
C51 C 0.2515(9) 0.9239(7) 0.6656(5)
H40 H 0.2691 0.9662 0.6968
H41 H 0.1559 0.9331 0.6758
C52 C 0.3249(8) 0.8277(7) 0.6912(5)
H42 H 0.2896 0.8149 0.7458
H43 H 0.4191 0.8207 0.6886
C53 C 0.3108(8) 0.7607(7) 0.6395(4)
H44 H 0.3669 0.6994 0.6540
H45 H 0.2185 0.7610 0.6490
C54 C 0.3487(8) 0.7816(6) 0.5537(4)
H46 H 0.4434 0.7777 0.5450
C55 C 0.2197(8) 0.7035(6) 0.4941(5)
C56 C 0.2592(7) 0.6240(6) 0.4448(4)
C57 C 0.1793(8) 0.5919(6) 0.4117(4)
H47 H 0.0865 0.6190 0.4171
C58 C 0.2477(8) 0.5155(6) 0.3692(4)
C59 C 0.1989(8) 0.4643(6) 0.3216(4)
C60 C 0.4234(8) 0.3955(6) 0.3159(4)
C61 C 0.3852(7) 0.4754(6) 0.3615(4)
C62 C 0.4621(7) 0.5103(6) 0.3964(5)
H48 H 0.5546 0.4829 0.3933
C63 C 0.3931(8) 0.5886(6) 0.4363(4)
C64 C 0.4451(8) 0.6472(6) 0.4736(4)
C65 C 0.2991(8) 0.3345(5) 0.2351(4)
H49 H 0.2097 0.3594 0.2192
C66 C 0.3120(9) 0.2407(6) 0.2733(5)
H50 H 0.3998 0.2137 0.2896
H51 H 0.2448 0.2453 0.3202
C67 C 0.2940(9) 0.1813(6) 0.2173(5)
H52 H 0.3062 0.1200 0.2423
H53 H 0.2030 0.2056 0.2053
C68 C 0.3878(9) 0.1747(6) 0.1434(5)
H54 H 0.3683 0.1380 0.1076
H55 H 0.4785 0.1438 0.1544
C69 C 0.3786(9) 0.2687(6) 0.1038(5)
H56 H 0.2910 0.2972 0.0875
H57 H 0.4460 0.2626 0.0569
C70 C 0.4002(8) 0.3288(5) 0.1606(5)
H58 H 0.4896 0.2984 0.1755
C71 C 0.5008(8) 0.4508(6) 0.1182(5)
C72 C 0.4613(8) 0.5414(6) 0.0782(5)
C73 C 0.5307(8) 0.6011(6) 0.0582(5)
H59 H 0.6175 0.5884 0.0691
C74 C 0.4630(8) 0.6833(6) 0.0199(5)
C75 C 0.5059(8) 0.7615(6) -0.0087(5)
C76 C 0.2934(8) 0.7921(6) -0.0340(5)
C77 C 0.3364(8) 0.7009(6) 0.0041(5)
C78 C 0.2686(8) 0.6390(6) 0.0242(5)
H60 H 0.1821 0.6512 0.0132
C79 C 0.3348(7) 0.5584(6) 0.0613(5)
C80 C 0.2923(8) 0.4794(6) 0.0920(4)
C81 C 0.3947(9) 0.9165(6) -0.0730(5)
H61 H 0.2996 0.9528 -0.0703
C82 C 0.4545(9) 0.9140(6) -0.1569(5)
H62 H 0.4162 0.8800 -0.1849
H63 H 0.5505 0.8829 -0.1617
C83 C 0.4277(10) 1.0109(7) -0.1931(5)
H64 H 0.4721 1.0092 -0.2477
H65 H 0.3320 1.0395 -0.1933
C84 C 0.4774(9) 1.0673(7) -0.1477(5)
H66 H 0.5747 1.0447 -0.1553
H67 H 0.4497 1.1308 -0.1685
C85 C 0.4250(8) 1.0637(6) -0.0608(5)
H68 H 0.4647 1.0971 -0.0331
H69 H 0.3285 1.0930 -0.0523
C86 C 0.4584(8) 0.9660(5) -0.0286(5)
H70 H 0.5559 0.9376 -0.0407
C87 C 0.5160(8) 0.9446(5) 0.1063(5)
C88 C 0.4462(7) 0.9391(5) 0.1869(5)
C89 C 0.4953(8) 0.9222(6) 0.2562(5)
H71 H 0.5850 0.9129 0.2591
C90 C 0.4050(8) 0.9198(5) 0.3203(5)
C91 C 0.4202(8) 0.8973(6) 0.4045(5)
C92 C 0.2029(8) 0.9215(6) 0.3959(5)
C93 C 0.2730(8) 0.9338(6) 0.3167(5)
C94 C 0.2257(8) 0.9505(7) 0.2473(5)
H72 H 0.1360 0.9601 0.2444
C95 C 0.3161(7) 0.9527(6) 0.1818(5)
C96 C 0.3002(8) 0.9634(6) 0.0979(5)
O25 O 0.6997(9) 0.3564(7) 0.7801(6)
N13 N 0.5113(9) 0.4764(7) 0.8012(5)
C97 C 0.3733(11) 0.4942(9) 0.8302(8)
H73 H 0.3215 0.5046 0.7870
H74 H 0.3386 0.5473 0.8625
C98 C 0.3703(12) 0.4097(9) 0.8778(8)
H75 H 0.3775 0.4150 0.9325
H76 H 0.2875 0.3972 0.8765
C99 C 0.4853(11) 0.3371(8) 0.8417(7)
H77 H 0.4602 0.3069 0.8032
H78 H 0.5251 0.2914 0.8815
C100 C 0.5800(13) 0.3881(9) 0.8022(8)
C101 C 0.5577(14) 0.5466(10) 0.7589(8)
H79 H 0.5074 0.5724 0.7160
H80 H 0.6511 0.5212 0.7379
H81 H 0.5463 0.5940 0.7939
O26 O 0.5751(9) 0.7319(7) 0.1909(7)
N14 N 0.7463(11) 0.6072(8) 0.1892(6)
C102 C 0.8912(11) 0.5701(10) 0.1656(7)
H82 H 0.9163 0.5154 0.1358
H83 H 0.9390 0.5567 0.2108
C103 C 0.9124(16) 0.6500(12) 0.1151(11)
H84 H 0.9900 0.6621 0.1273
H85 H 0.9300 0.6358 0.0597
C104 C 0.7978(14) 0.7296(11) 0.1277(9)
H86 H 0.7720 0.7598 0.0777
H87 H 0.8150 0.7731 0.1577
C105 C 0.6930(14) 0.6938(11) 0.1730(8)
C106 C 0.683(2) 0.5548(14) 0.2447(8)
H88 H 0.5876 0.5845 0.2513
H89 H 0.7140 0.5498 0.2947
H90 H 0.7040 0.4944 0.2260
O27 O 0.8452(14) 0.8454(10) 0.2834(7)
N15 N 0.8239(19) 0.7699(14) 0.4036(15)
C107 C 0.8225(19) 0.8453(15) 0.3540(11)
C108 C 0.790(2) 0.9222(15) 0.4020(10)
H91 H 0.7001 0.9633 0.3969
H92 H 0.8526 0.9561 0.3851
C109 C 0.7968(18) 0.8849(15) 0.4904(11)
H93 H 0.8793 0.8842 0.5069
H94 H 0.7208 0.9210 0.5260
C110 C 0.793(3) 0.790(2) 0.4868(15)
H95 H 0.8579 0.7461 0.5166
H96 H 0.7041 0.7864 0.5090
C111 C 0.821(3) 0.6878(19) 0.3753(19)
H97 H 0.7294 0.6893 0.3793
H98 H 0.8686 0.6357 0.4065
H99 H 0.8625 0.6828 0.3208
O28? O 0.9666(17) 0.7472(14) 0.2503(10)
N16? N 0.852(3) 0.739(2) 0.3700(15)
C112? C 0.933(2) 0.774(2) 0.3157(15)
C113? C 0.952(2) 0.850(2) 0.3448(15)
H100? H 0.9313 0.9037 0.3078
H101? H 1.0434 0.8361 0.3548
C114? C 0.846(3) 0.868(2) 0.4271(18)
H102? H 0.8847 0.8840 0.4683
H103? H 0.7639 0.9171 0.4192
C115? C 0.820(3) 0.778(2) 0.449(2)
H104? H 0.8784 0.7391 0.4848
H105? H 0.7272 0.7866 0.4716
C116? C 0.827(4) 0.657(3) 0.358(2)
H106? H 0.8812 0.6067 0.3874
H107? H 0.8486 0.6459 0.3024
H108? H 0.7338 0.6644 0.3756
loop_
_geom_bond_atom_site_label_1
_geom_bond_atom_site_label_2
_geom_bond_site_symmetry_1
_geom_bond_site_symmetry_2
O1 C7 1_555 1_555
O2 C11 1_555 1_555
O3 C12 1_555 1_555
O4 C16 1_555 1_555
O5 C23 1_555 1_555
O6 C27 1_555 1_555
O7 C28 1_555 1_555
O8 C32 1_555 1_555
O9 C39 1_555 1_555
O10 C43 1_555 1_555
O11 C44 1_555 1_555
O12 C48 1_555 1_555
N1 C6 1_555 1_555
N2 C11 1_555 1_555
N3 C22 1_555 1_555
N4 C27 1_555 1_555
N5 C38 1_555 1_555
N6 C1 1_555 1_555
C1 H1 1_555 1_555
C2 C1 1_555 1_555
H2 C2 1_555 1_555
H3 C2 1_555 1_555
C3 C2 1_555 1_555
H4 C3 1_555 1_555
H5 C3 1_555 1_555
C4 C3 1_555 1_555
H6 C4 1_555 1_555
H7 C4 1_555 1_555
C5 C4 1_555 1_555
H8 C5 1_555 1_555
H9 C5 1_555 1_555
C6 C1 1_555 1_555
H10 C6 1_555 1_555
C7 N1 1_555 1_555
C8 C7 1_555 1_555
C9 C8 1_555 1_555
H11 C9 1_555 1_555
C10 C9 1_555 1_555
C11 C10 1_555 1_555
C12 N2 1_555 1_555
C13 C10 1_555 1_555
C14 C13 1_555 1_555
H12 C14 1_555 1_555
C15 C8 1_555 1_555
C16 N1 1_555 1_555
C17 N2 1_555 1_555
H13 C17 1_555 1_555
C18 C17 1_555 1_555
H14 C18 1_555 1_555
H15 C18 1_555 1_555
C19 C18 1_555 1_555
H16 C19 1_555 1_555
H17 C19 1_555 1_555
C20 C19 1_555 1_555
H18 C20 1_555 1_555
H19 C20 1_555 1_555
C21 C20 1_555 1_555
H20 C21 1_555 1_555
H21 C21 1_555 1_555
C22 C17 1_555 1_555
H22 C22 1_555 1_555
C23 N3 1_555 1_555
C24 C23 1_555 1_555
C25 C24 1_555 1_555
H23 C25 1_555 1_555
C26 C25 1_555 1_555
C27 C26 1_555 1_555
C28 N4 1_555 1_555
C29 C26 1_555 1_555
C30 C29 1_555 1_555
H24 C30 1_555 1_555
C31 C24 1_555 1_555
C32 N3 1_555 1_555
C33 N4 1_555 1_555
H25 C33 1_555 1_555
C34 C33 1_555 1_555
H26 C34 1_555 1_555
H27 C34 1_555 1_555
C35 C34 1_555 1_555
H28 C35 1_555 1_555
H29 C35 1_555 1_555
C36 C35 1_555 1_555
H30 C36 1_555 1_555
H31 C36 1_555 1_555
C37 C36 1_555 1_555
H32 C37 1_555 1_555
H33 C37 1_555 1_555
C38 C33 1_555 1_555
H34 C38 1_555 1_555
C39 N5 1_555 1_555
C40 C39 1_555 1_555
C41 C40 1_555 1_555
H35 C41 1_555 1_555
C42 C41 1_555 1_555
C43 N6 1_555 1_555
C44 N6 1_555 1_555
C45 C42 1_555 1_555
C46 C45 1_555 1_555
H36 C46 1_555 1_555
C47 C40 1_555 1_555
C48 N5 1_555 1_555
O13 C55 1_555 1_555
O14 C59 1_555 1_555
O15 C60 1_555 1_555
O16 C64 1_555 1_555
O17 C71 1_555 1_555
O18 C75 1_555 1_555
O19 C76 1_555 1_555
O20 C80 1_555 1_555
O21 C87 1_555 1_555
O22 C91 1_555 1_555
O23 C92 1_555 1_555
O24 C96 1_555 1_555
N7 C54 1_555 1_555
N8 C59 1_555 1_555
N9 C70 1_555 1_555
N10 C86 1_555 1_555
N11 C75 1_555 1_555
N12 C49 1_555 1_555
C49 H37 1_555 1_555
C50 C49 1_555 1_555
H38 C50 1_555 1_555
H39 C50 1_555 1_555
C51 C50 1_555 1_555
H40 C51 1_555 1_555
H41 C51 1_555 1_555
C52 C51 1_555 1_555
H42 C52 1_555 1_555
H43 C52 1_555 1_555
C53 C52 1_555 1_555
H44 C53 1_555 1_555
H45 C53 1_555 1_555
C54 C49 1_555 1_555
H46 C54 1_555 1_555
C55 N7 1_555 1_555
C56 C55 1_555 1_555
C57 C56 1_555 1_555
H47 C57 1_555 1_555
C58 C57 1_555 1_555
C59 C58 1_555 1_555
C60 N8 1_555 1_555
C61 C58 1_555 1_555
C62 C61 1_555 1_555
H48 C62 1_555 1_555
C63 C56 1_555 1_555
C64 N7 1_555 1_555
C65 N8 1_555 1_555
H49 C65 1_555 1_555
C66 C65 1_555 1_555
H50 C66 1_555 1_555
H51 C66 1_555 1_555
C67 C66 1_555 1_555
H52 C67 1_555 1_555
H53 C67 1_555 1_555
C68 C67 1_555 1_555
H54 C68 1_555 1_555
H55 C68 1_555 1_555
C69 C68 1_555 1_555
H56 C69 1_555 1_555
H57 C69 1_555 1_555
C70 C65 1_555 1_555
H58 C70 1_555 1_555
C71 N9 1_555 1_555
C72 C71 1_555 1_555
C73 C72 1_555 1_555
H59 C73 1_555 1_555
C74 C73 1_555 1_555
C75 C74 1_555 1_555
C76 N11 1_555 1_555
C77 C74 1_555 1_555
C78 C77 1_555 1_555
H60 C78 1_555 1_555
C79 C72 1_555 1_555
C80 N9 1_555 1_555
C81 N11 1_555 1_555
H61 C81 1_555 1_555
C82 C81 1_555 1_555
H62 C82 1_555 1_555
H63 C82 1_555 1_555
C83 C82 1_555 1_555
H64 C83 1_555 1_555
H65 C83 1_555 1_555
C84 C83 1_555 1_555
H66 C84 1_555 1_555
H67 C84 1_555 1_555
C85 C84 1_555 1_555
H68 C85 1_555 1_555
H69 C85 1_555 1_555
C86 C81 1_555 1_555
H70 C86 1_555 1_555
C87 N10 1_555 1_555
C88 C87 1_555 1_555
C89 C88 1_555 1_555
H71 C89 1_555 1_555
C90 C89 1_555 1_555
C91 N12 1_555 1_555
C92 N12 1_555 1_555
C93 C90 1_555 1_555
C94 C93 1_555 1_555
H72 C94 1_555 1_555
C95 C88 1_555 1_555
C96 N10 1_555 1_555
O25 C100 1_555 1_555
N13 C97 1_555 1_555
C97 H73 1_555 1_555
H74 C97 1_555 1_555
C98 C97 1_555 1_555
H75 C98 1_555 1_555
H76 C98 1_555 1_555
C99 C98 1_555 1_555
H77 C99 1_555 1_555
H78 C99 1_555 1_555
C100 N13 1_555 1_555
C101 N13 1_555 1_555
H79 C101 1_555 1_555
H80 C101 1_555 1_555
H81 C101 1_555 1_555
O26 C105 1_555 1_555
N14 C102 1_555 1_555
C102 H82 1_555 1_555
H83 C102 1_555 1_555
C103 C102 1_555 1_555
H84 C103 1_555 1_555
H85 C103 1_555 1_555
C104 C103 1_555 1_555
H86 C104 1_555 1_555
H87 C104 1_555 1_555
C105 N14 1_555 1_555
C106 N14 1_555 1_555
H88 C106 1_555 1_555
H89 C106 1_555 1_555
H90 C106 1_555 1_555
O27 C107 1_555 1_555
N15 C107 1_555 1_555
C107 C108 1_555 1_555
C108 H91 1_555 1_555
H92 C108 1_555 1_555
C109 C108 1_555 1_555
H93 C109 1_555 1_555
H94 C109 1_555 1_555
C110 N15 1_555 1_555
H95 C110 1_555 1_555
H96 C110 1_555 1_555
C111 N15 1_555 1_555
H97 C111 1_555 1_555
H98 C111 1_555 1_555
H99 C111 1_555 1_555
C5 C6 1_555 1_555
C12 C13 1_555 1_555
C14 C15 1_555 1_555
C15 C16 1_555 1_555
C21 C22 1_555 1_555
C28 C29 1_555 1_555
C30 C31 1_555 1_555
C31 C32 1_555 1_555
C37 C38 1_555 1_555
C42 C43 1_555 1_555
C44 C45 1_555 1_555
C46 C47 1_555 1_555
C47 C48 1_555 1_555
C53 C54 1_555 1_555
C60 C61 1_555 1_555
C62 C63 1_555 1_555
C63 C64 1_555 1_555
C69 C70 1_555 1_555
C76 C77 1_555 1_555
C78 C79 1_555 1_555
C79 C80 1_555 1_555
C85 C86 1_555 1_555
C90 C91 1_555 1_555
C92 C93 1_555 1_555
C94 C95 1_555 1_555
C95 C96 1_555 1_555
C99 C100 1_555 1_555
C104 C105 1_555 1_555
C109 C110 1_555 1_555

#END
