
#######################################################################
#
#                 Cambridge Crystallographic Data Centre
#                                CCDC 
#
#######################################################################
#
# If this CIF has been generated from an entry in the Cambridge 
# Structural Database, then it will include bibliographic, chemical, 
# crystal, experimental, refinement or atomic coordinate data resulting 
# from the CCDC's data processing and validation procedures.
#
#######################################################################

data_TAYRIX
_chemical_formula_moiety         'C31 H30 Br1 N1 O2'
_chemical_name_systematic        
'(aR,E)-methyl 5-(3-bromophenyl)-1-(2-t-butyl-4-(2-phenylvinyl)phenyl)-2-methyl-1H-pyrrole-3-carboxylate'
_symmetry_cell_setting           orthorhombic
_symmetry_space_group_name_H-M   'P 21 21 21'
_symmetry_Int_Tables_number      19
_space_group_name_Hall           'P 2ac 2ab'
loop_
_symmetry_equiv_pos_site_id
_symmetry_equiv_pos_as_xyz
1 x,y,z
2 1/2-x,-y,1/2+z
3 -x,1/2+y,1/2-z
4 1/2+x,1/2-y,-z
_cell_length_a                   11.6613(19)
_cell_length_b                   11.813(2)
_cell_length_c                   24.565(6)
_cell_angle_alpha                90
_cell_angle_beta                 90
_cell_angle_gamma                90
_cell_volume                     3383.95
_cell_formula_units_Z            4
loop_
_atom_site_label
_atom_site_type_symbol
_atom_site_fract_x
_atom_site_fract_y
_atom_site_fract_z
Br1 Br 0.05514(8) 0.29153(10) 0.09509(6)
C1 C -0.5546(4) 0.2905(4) 0.1033(2)
C2 C -0.7430(5) 0.5964(5) 0.0926(3)
H1 H -0.7207 0.6524 0.1171
N1 N -0.4940(4) 0.1840(3) 0.10077(16)
C3 C -0.1849(6) 0.2427(5) 0.0903(3)
H2 H -0.1665 0.1777 0.1098
C4 C -0.3776(5) 0.1684(4) 0.0874(2)
O1 O -0.5653(4) -0.1695(3) 0.1211(2)
C5 C -0.6786(4) 0.4911(4) 0.0937(2)
C6 C -0.5417(4) 0.0818(4) 0.1105(2)
C7 C -0.8982(5) 0.7235(5) 0.0576(3)
C8 C -0.3576(5) 0.0527(4) 0.0882(2)
H3 H -0.2886 0.0165 0.0806
C9 C -0.6206(5) 0.3127(5) 0.0573(2)
H4 H -0.6219 0.2600 0.0292
O2 O -0.3811(5) -0.1788(3) 0.0988(2)
C10 C -0.5497(5) 0.3644(4) 0.14698(19)
C11 C -0.6125(5) 0.4656(5) 0.1403(2)
H5 H -0.6102 0.5187 0.1683
C12 C -0.4636(5) -0.0004(4) 0.1030(2)
C13 C -0.8320(5) 0.6206(5) 0.0596(3)
H6 H -0.8531 0.5642 0.0352
C14 C -0.6836(5) 0.4095(5) 0.0524(2)
H7 H -0.7293 0.4212 0.0219
C15 C -0.4892(6) 0.3483(5) 0.2020(2)
C16 C -1.0648(8) 0.8244(9) 0.0287(4)
H8 H -1.1343 0.8243 0.0102
C17 C -1.0009(7) 0.7270(7) 0.0307(4)
H9 H -1.0279 0.6622 0.0135
C18 C -0.4381(11) 0.2347(7) 0.2136(3)
H10 H -0.3805 0.2180 0.1868
H11 H -0.4970 0.1781 0.2122
H12 H -0.4038 0.2352 0.2491
C19 C -0.2966(5) 0.2579(4) 0.0743(2)
C20 C -0.6675(5) 0.0730(5) 0.1258(3)
H13 H -0.6874 -0.0051 0.1310
H14 H -0.7135 0.1042 0.0971
H15 H -0.6811 0.1142 0.1588
C21 C -0.2406(7) 0.4364(5) 0.0358(3)
H16 H -0.2601 0.5032 0.0180
C22 C -1.0276(7) 0.9232(7) 0.0539(4)
H17 H -1.0703 0.9897 0.0523
C23 C -0.9301(7) 0.9184(6) 0.0797(5)
H18 H -0.9058 0.9825 0.0984
C24 C -0.1270(8) 0.4184(6) 0.0514(4)
H19 H -0.0716 0.4724 0.0433
C25 C -0.3230(6) 0.3586(5) 0.0459(3)
H20 H -0.3976 0.3715 0.0341
C26 C -0.4800(6) -0.1217(5) 0.1089(2)
C27 C -0.5810(12) 0.3724(15) 0.2471(3)
H21 H -0.6430 0.3194 0.2437
H22 H -0.6099 0.4480 0.2429
H23 H -0.5464 0.3647 0.2824
C28 C -0.3893(11) -0.3020(5) 0.1035(4)
H24 H -0.3160 -0.3353 0.0957
H25 H -0.4451 -0.3299 0.0781
H26 H -0.4122 -0.3217 0.1399
C29 C -0.8616(6) 0.8243(5) 0.0810(4)
H27 H -0.7901 0.8278 0.0976
C30 C -0.0964(6) 0.3206(6) 0.0787(4)
C31 C -0.3875(13) 0.4308(10) 0.2050(5)
H28 H -0.3332 0.4126 0.1770
H29 H -0.3513 0.4245 0.2399
H30 H -0.4146 0.5068 0.1999
loop_
_geom_bond_atom_site_label_1
_geom_bond_atom_site_label_2
_geom_bond_site_symmetry_1
_geom_bond_site_symmetry_2
Br1 C30 1_555 1_555
C1 N1 1_555 1_555
C2 H1 1_555 1_555
N1 C4 1_555 1_555
C3 H2 1_555 1_555
C4 C8 1_555 1_555
O1 C26 1_555 1_555
C5 C2 1_555 1_555
C6 N1 1_555 1_555
C7 C13 1_555 1_555
C8 H3 1_555 1_555
C9 C1 1_555 1_555
H4 C9 1_555 1_555
O2 C26 1_555 1_555
C10 C1 1_555 1_555
C11 C5 1_555 1_555
H5 C11 1_555 1_555
C12 C6 1_555 1_555
C13 C2 1_555 1_555
H6 C13 1_555 1_555
C14 C5 1_555 1_555
H7 C14 1_555 1_555
C15 C10 1_555 1_555
C16 H8 1_555 1_555
C17 C7 1_555 1_555
H9 C17 1_555 1_555
C18 C15 1_555 1_555
H10 C18 1_555 1_555
H11 C18 1_555 1_555
H12 C18 1_555 1_555
C19 C3 1_555 1_555
C20 C6 1_555 1_555
H13 C20 1_555 1_555
H14 C20 1_555 1_555
H15 C20 1_555 1_555
C21 H16 1_555 1_555
C22 C16 1_555 1_555
H17 C22 1_555 1_555
C23 C22 1_555 1_555
H18 C23 1_555 1_555
C24 C21 1_555 1_555
H19 C24 1_555 1_555
C25 C19 1_555 1_555
H20 C25 1_555 1_555
C26 C12 1_555 1_555
C27 C15 1_555 1_555
H21 C27 1_555 1_555
H22 C27 1_555 1_555
H23 C27 1_555 1_555
C28 O2 1_555 1_555
H24 C28 1_555 1_555
H25 C28 1_555 1_555
H26 C28 1_555 1_555
C29 C7 1_555 1_555
H27 C29 1_555 1_555
C30 C3 1_555 1_555
C31 C15 1_555 1_555
H28 C31 1_555 1_555
H29 C31 1_555 1_555
H30 C31 1_555 1_555
C4 C19 1_555 1_555
C8 C12 1_555 1_555
C9 C14 1_555 1_555
C10 C11 1_555 1_555
C16 C17 1_555 1_555
C21 C25 1_555 1_555
C23 C29 1_555 1_555
C24 C30 1_555 1_555

#END
