
#######################################################################
#
#                 Cambridge Crystallographic Data Centre
#                                CCDC 
#
#######################################################################
#
# If this CIF has been generated from an entry in the Cambridge 
# Structural Database, then it will include bibliographic, chemical, 
# crystal, experimental, refinement or atomic coordinate data resulting 
# from the CCDC's data processing and validation procedures.
#
#######################################################################

data_TAYTUI01
_chemical_formula_moiety         'C18 H16 N1 P1'
_chemical_name_systematic        Imino(triphenyl)phosphorane
_symmetry_cell_setting           monoclinic
_symmetry_space_group_name_H-M   'P 21/c'
_symmetry_Int_Tables_number      14
_space_group_name_Hall           '-P 2ybc'
loop_
_symmetry_equiv_pos_site_id
_symmetry_equiv_pos_as_xyz
1 x,y,z
2 -x,1/2+y,1/2-z
3 -x,-y,-z
4 x,1/2-y,1/2+z
_cell_length_a                   14.587(9)
_cell_length_b                   9.597(6)
_cell_length_c                   10.965(7)
_cell_angle_alpha                90
_cell_angle_beta                 90.428(6)
_cell_angle_gamma                90
_cell_volume                     1534.96
_exptl_crystal_colour            colorless
_cell_formula_units_Z            4
_chemical_properties_physical    'crystals are air-sensitive'
loop_
_atom_site_label
_atom_site_type_symbol
_atom_site_fract_x
_atom_site_fract_y
_atom_site_fract_z
P1 P 0.2685(1) 0.1272(1) 0.7490(1)
N1 N 0.2877(2) 0.0670(3) 0.6193(2)
C1 C 0.3622(2) 0.2219(3) 0.8211(2)
C2 C 0.3880(2) 0.3502(3) 0.7736(3)
C3 C 0.4671(3) 0.4166(4) 0.8178(4)
C4 C 0.5189(2) 0.3555(4) 0.9079(4)
C5 C 0.4930(2) 0.2315(4) 0.9562(3)
C6 C 0.4150(2) 0.1645(3) 0.9138(3)
C7 C 0.1696(2) 0.2420(2) 0.7563(2)
C8 C 0.1014(2) 0.2215(3) 0.6688(3)
C9 C 0.0226(2) 0.3018(4) 0.6700(4)
C10 C 0.0117(2) 0.4029(4) 0.7565(4)
C11 C 0.0785(2) 0.4261(3) 0.8428(3)
C12 C 0.1579(2) 0.3463(3) 0.8433(2)
C13 C 0.2438(2) -0.0166(2) 0.8504(2)
C14 C 0.1984(2) 0.0010(3) 0.9591(3)
C15 C 0.1842(3) -0.1117(4) 1.0361(3)
C16 C 0.2144(3) -0.2417(4) 1.0046(4)
C17 C 0.2589(2) -0.2611(3) 0.8975(4)
C18 C 0.2744(2) -0.1493(3) 0.8200(3)
H1 H 0.3150(25) 0.1147(35) 0.5838(33)
H2 H 0.3522(2) 0.3928(3) 0.7112(3)
H3 H 0.4849(3) 0.5041(4) 0.7852(4)
H4 H 0.5730(2) 0.4000(4) 0.9366(4)
H5 H 0.5286(2) 0.1904(4) 1.0195(3)
H6 H 0.3975(2) 0.0780(3) 0.9488(3)
H7 H 0.1090(2) 0.1521(3) 0.6079(3)
H8 H -0.0241(2) 0.2866(4) 0.6106(4)
H9 H -0.0427(2) 0.4575(4) 0.7569(4)
H10 H 0.0705(2) 0.4969(3) 0.9024(3)
H11 H 0.2043(2) 0.3628(3) 0.9028(2)
H12 H 0.1767(2) 0.0907(3) 0.9815(3)
H13 H 0.1534(3) -0.0984(4) 1.1112(3)
H14 H 0.2043(3) -0.3184(4) 1.0576(4)
H15 H 0.2795(2) -0.3516(3) 0.8755(4)
H16 H 0.3061(2) -0.1636(3) 0.7456(3)
loop_
_geom_bond_atom_site_label_1
_geom_bond_atom_site_label_2
_geom_bond_site_symmetry_1
_geom_bond_site_symmetry_2
P1 N1 1_555 1_555
N1 H1 1_555 1_555
C1 P1 1_555 1_555
C2 C1 1_555 1_555
C3 C2 1_555 1_555
C4 C3 1_555 1_555
C5 C4 1_555 1_555
C6 C1 1_555 1_555
C7 P1 1_555 1_555
C8 C7 1_555 1_555
C9 C8 1_555 1_555
C10 C9 1_555 1_555
C11 C10 1_555 1_555
C12 C7 1_555 1_555
C13 P1 1_555 1_555
C14 C13 1_555 1_555
C15 C14 1_555 1_555
C16 C15 1_555 1_555
C17 C16 1_555 1_555
C18 C13 1_555 1_555
H2 C2 1_555 1_555
H3 C3 1_555 1_555
H4 C4 1_555 1_555
H5 C5 1_555 1_555
H6 C6 1_555 1_555
H7 C8 1_555 1_555
H8 C9 1_555 1_555
H9 C10 1_555 1_555
H10 C11 1_555 1_555
H11 C12 1_555 1_555
H12 C14 1_555 1_555
H13 C15 1_555 1_555
H14 C16 1_555 1_555
H15 C17 1_555 1_555
H16 C18 1_555 1_555
C5 C6 1_555 1_555
C11 C12 1_555 1_555
C17 C18 1_555 1_555

#END
