
#######################################################################
#
#                 Cambridge Crystallographic Data Centre
#                                CCDC 
#
#######################################################################
#
# If this CIF has been generated from an entry in the Cambridge 
# Structural Database, then it will include bibliographic, chemical, 
# crystal, experimental, refinement or atomic coordinate data resulting 
# from the CCDC's data processing and validation procedures.
#
#######################################################################

data_TAYXEY
_chemical_formula_moiety         'C34 H30 Si1'
_chemical_name_systematic        
1,1-Dimethyl-3,4-diphenyl-2,5-bis(4-vinylphenyl)-1H-silole
_symmetry_cell_setting           triclinic
_symmetry_space_group_name_H-M   'P -1'
_symmetry_Int_Tables_number      2
_space_group_name_Hall           '-P 1'
loop_
_symmetry_equiv_pos_site_id
_symmetry_equiv_pos_as_xyz
1 x,y,z
2 -x,-y,-z
_cell_length_a                   9.6793(5)
_cell_length_b                   11.3806(6)
_cell_length_c                   13.5453(7)
_cell_angle_alpha                72.677(1)
_cell_angle_beta                 76.639(1)
_cell_angle_gamma                76.293(1)
_cell_volume                     1362.97
_exptl_crystal_colour            colorless
_exptl_crystal_description       block
_cell_formula_units_Z            2
loop_
_atom_site_label
_atom_site_type_symbol
_atom_site_fract_x
_atom_site_fract_y
_atom_site_fract_z
Si1 Si 0.30356(7) 0.84340(6) 0.50567(5)
C1 C 0.6450(2) 0.6017(2) 0.62979(17)
C2 C 0.4000(2) 0.7386(2) 0.68327(17)
C3 C 0.4857(2) 0.7383(2) 0.49995(18)
C4 C 0.5133(2) 0.6931(2) 0.59905(17)
C5 C 0.6319(3) 0.4875(2) 0.70177(17)
H1 H 0.5408 0.4683 0.7323
C6 C 0.5751(2) 0.7040(2) 0.40494(17)
C7 C 0.2768(3) 0.8104(2) 0.65145(19)
C8 C 0.7826(3) 0.6282(2) 0.5859(2)
H2 H 0.7936 0.7041 0.5372
C9 C 0.6489(3) 0.5830(2) 0.40341(19)
H3 H 0.6407 0.5189 0.4647
C10 C 0.4282(3) 0.7085(2) 0.79287(18)
C11 C 0.1539(3) 0.8724(2) 0.7170(2)
C12 C 0.3257(3) 0.6630(2) 0.8781(2)
H4 H 0.2411 0.6479 0.8667
C13 C 0.7539(3) 0.4019(3) 0.72845(19)
H5 H 0.7442 0.3250 0.7761
C14 C 0.5531(3) 0.7292(2) 0.8129(2)
H6 H 0.6233 0.7588 0.7571
C15 C 0.7337(3) 0.5563(3) 0.3132(2)
H7 H 0.7809 0.4746 0.3150
C16 C 0.7503(3) 0.6485(3) 0.2199(2)
C17 C 0.9030(3) 0.5422(3) 0.6146(2)
H8 H 0.9945 0.5611 0.5856
C18 C 0.3495(4) 0.6399(3) 0.9801(2)
H9 H 0.2808 0.6094 1.0366
C19 C -0.0855(3) 0.9910(3) 0.8390(2)
C20 C 0.5862(3) 0.7945(3) 0.3089(2)
H10 H 0.5344 0.8753 0.3053
C21 C 0.5747(4) 0.7062(3) 0.9146(2)
H11 H 0.6590 0.7210 0.9269
C22 C 0.0155(3) 0.8501(3) 0.7272(2)
H12 H 0.0010 0.7957 0.6927
C23 C -0.1012(3) 0.9073(3) 0.7879(2)
H13 H -0.1921 0.8891 0.7946
C24 C 0.8892(3) 0.4295(3) 0.6852(2)
H14 H 0.9708 0.3719 0.7038
C25 C 0.6725(4) 0.7666(3) 0.2191(2)
H15 H 0.6781 0.8293 0.1567
C26 C 0.4728(4) 0.6618(3) 0.9977(2)
H16 H 0.4880 0.6467 1.0661
C27 C 0.1685(3) 0.9565(3) 0.7673(3)
H17 H 0.2593 0.9744 0.7617
C28 C 0.8519(4) 0.6195(5) 0.1269(3)
H18 H 0.8779 0.5336 0.1348
C29 C 0.9059(6) 0.6716(9) 0.0504(5)
H19 H 0.8892 0.7586 0.0324
H20 H 0.9678 0.6283 0.0041
C30 C 0.0504(4) 1.0148(3) 0.8260(3)
H21 H 0.0639 1.0723 0.8578
C31 C 0.1729(3) 0.7952(3) 0.4513(2)
H22 H 0.1729 0.7073 0.4806
H23 H 0.2001 0.8119 0.3763
H24 H 0.0779 0.8414 0.4688
C32 C 0.3058(4) 1.0133(3) 0.4492(3)
H25 H 0.3374 1.0295 0.3746
H26 H 0.3706 1.0381 0.4799
H27 H 0.2103 1.0601 0.4639
C33 C -0.2081(4) 1.0528(3) 0.9041(3)
H28 H -0.1853 1.1063 0.9357
C34 C -0.3362(5) 1.0439(5) 0.9226(5)
H29 H -0.3667 0.9921 0.8935
H30 H -0.4025 1.0890 0.9656
loop_
_geom_bond_atom_site_label_1
_geom_bond_atom_site_label_2
_geom_bond_site_symmetry_1
_geom_bond_site_symmetry_2
Si1 C3 1_555 1_555
C1 C4 1_555 1_555
C2 C4 1_555 1_555
C3 C4 1_555 1_555
C5 C1 1_555 1_555
H1 C5 1_555 1_555
C6 C3 1_555 1_555
C7 Si1 1_555 1_555
C8 C1 1_555 1_555
H2 C8 1_555 1_555
C9 C6 1_555 1_555
H3 C9 1_555 1_555
C10 C2 1_555 1_555
C11 C7 1_555 1_555
C12 C10 1_555 1_555
H4 C12 1_555 1_555
C13 C5 1_555 1_555
H5 C13 1_555 1_555
C14 C10 1_555 1_555
H6 C14 1_555 1_555
C15 C9 1_555 1_555
H7 C15 1_555 1_555
C16 C15 1_555 1_555
C17 C8 1_555 1_555
H8 C17 1_555 1_555
C18 C12 1_555 1_555
H9 C18 1_555 1_555
C19 C23 1_555 1_555
C20 C6 1_555 1_555
H10 C20 1_555 1_555
C21 C14 1_555 1_555
H11 C21 1_555 1_555
C22 C11 1_555 1_555
H12 C22 1_555 1_555
C23 C22 1_555 1_555
H13 C23 1_555 1_555
C24 C13 1_555 1_555
H14 C24 1_555 1_555
C25 C16 1_555 1_555
H15 C25 1_555 1_555
C26 C18 1_555 1_555
H16 C26 1_555 1_555
C27 C11 1_555 1_555
H17 C27 1_555 1_555
C28 C16 1_555 1_555
H18 C28 1_555 1_555
C29 C28 1_555 1_555
H19 C29 1_555 1_555
H20 C29 1_555 1_555
C30 C19 1_555 1_555
H21 C30 1_555 1_555
C31 Si1 1_555 1_555
H22 C31 1_555 1_555
H23 C31 1_555 1_555
H24 C31 1_555 1_555
C32 Si1 1_555 1_555
H25 C32 1_555 1_555
H26 C32 1_555 1_555
H27 C32 1_555 1_555
C33 C19 1_555 1_555
H28 C33 1_555 1_555
C34 C33 1_555 1_555
H29 C34 1_555 1_555
H30 C34 1_555 1_555
C2 C7 1_555 1_555
C17 C24 1_555 1_555
C20 C25 1_555 1_555
C21 C26 1_555 1_555
C27 C30 1_555 1_555

#END
