
#######################################################################
#
#                 Cambridge Crystallographic Data Centre
#                                CCDC 
#
#######################################################################
#
# If this CIF has been generated from an entry in the Cambridge 
# Structural Database, then it will include bibliographic, chemical, 
# crystal, experimental, refinement or atomic coordinate data resulting 
# from the CCDC's data processing and validation procedures.
#
#######################################################################

data_TAYYIE01
_chemical_formula_moiety         'C14 H18 N2 O2 2+,2(C7 H7 O3 S1 1-)'
_chemical_name_systematic        
"3,3'-dimethoxy[1,1'-biphenyl]-4,4'-diaminium bis(4-methylbenzene-1-sulfonate)"
_symmetry_cell_setting           monoclinic
_symmetry_space_group_name_H-M   'C 2/c'
_symmetry_Int_Tables_number      15
_space_group_name_Hall           '-C 2yn'
loop_
_symmetry_equiv_pos_site_id
_symmetry_equiv_pos_as_xyz
1 x,y,z
2 -x,y,1/2-z
3 1/2+x,1/2+y,z
4 1/2-x,1/2+y,1/2-z
5 -x,-y,-z
6 x,-y,1/2+z
7 1/2-x,1/2-y,-z
8 1/2+x,1/2-y,1/2+z
_cell_length_a                   21.8681(14)
_cell_length_b                   5.6881(3)
_cell_length_c                   23.3203(15)
_cell_angle_alpha                90
_cell_angle_beta                 101.161(6)
_cell_angle_gamma                90
_cell_volume                     2845.9
_exptl_crystal_colour            colorless
_exptl_crystal_description       block
_cell_formula_units_Z            4
loop_
_atom_site_label
_atom_site_type_symbol
_atom_site_fract_x
_atom_site_fract_y
_atom_site_fract_z
C1 C 0.5933(2) 0.2422(11) 0.2868(2)
H1 H 0.574085 0.393875 0.279650
H2 H 0.561557 0.123553 0.283604
H3 H 0.618430 0.238746 0.325421
C2 C 0.63360(18) 0.1956(7) 0.24263(17)
C3 C 0.63890(19) 0.3596(7) 0.19970(18)
H4 H 0.617067 0.500487 0.198359
C4 C 0.67566(18) 0.3184(6) 0.15919(16)
H5 H 0.679398 0.431890 0.131355
C5 C 0.70699(17) 0.1075(6) 0.16009(15)
C6 C 0.7030(2) -0.0571(6) 0.20278(17)
H6 H 0.724805 -0.198006 0.204098
C7 C 0.6665(2) -0.0110(8) 0.24327(18)
H7 H 0.663976 -0.122493 0.271899
O1 O 0.75465(13) -0.2005(4) 0.10099(13)
O2 O 0.72442(13) 0.1760(5) 0.05517(10)
O3 O 0.81577(12) 0.1464(5) 0.13135(12)
S1 S 0.75449(4) 0.05377(14) 0.10813(4)
C8 C 0.61982(16) -0.1540(6) -0.03829(15)
C9 C 0.63437(17) -0.3456(7) -0.00256(18)
H8 H 0.675826 -0.383531 0.012049
C10 C 0.58735(18) -0.4817(7) 0.01159(18)
H9 H 0.597635 -0.612305 0.035504
C11 C 0.52555(16) -0.4293(5) -0.00875(16)
C12 C 0.51152(17) -0.2374(6) -0.04628(16)
H10 H 0.470089 -0.200848 -0.061418
C13 C 0.55806(16) -0.1014(6) -0.06123(15)
C14 C 0.4881(2) 0.1388(8) -0.1282(2)
H11 H 0.488552 0.276611 -0.151883
H12 H 0.472943 0.007489 -0.152738
H13 H 0.461313 0.164896 -0.100716
N1 N 0.66951(15) -0.0097(6) -0.05257(15)
O4 O 0.54956(13) 0.0905(4) -0.09752(14)
H14 H 0.689(2) 0.059(6) -0.019(2)
H15 H 0.6916(18) -0.107(7) -0.0688(17)
H16 H 0.6531(17) 0.107(5) -0.0790(13)
C8D C 0.38018(16) -0.8460(6) 0.03829(15)
C9D C 0.36563(17) -0.6544(7) 0.00256(18)
H8D H 0.324174 -0.616469 -0.012049
C10D C 0.41265(18) -0.5183(7) -0.01159(18)
H9D H 0.402365 -0.387695 -0.035504
C11D C 0.47445(16) -0.5707(5) 0.00875(16)
C12D C 0.48848(17) -0.7626(6) 0.04628(16)
H10D H 0.529911 -0.799152 0.061418
C13D C 0.44194(16) -0.8986(6) 0.06123(15)
C14D C 0.5119(2) -1.1388(8) 0.1282(2)
H11D H 0.511448 -1.276611 0.151883
H12D H 0.527057 -1.007489 0.152738
H13D H 0.538687 -1.164896 0.100716
N1D N 0.33049(15) -0.9903(6) 0.05257(15)
O4D O 0.45044(13) -1.0905(4) 0.09752(14)
H14D H 0.311(2) -1.059(6) 0.019(2)
H15D H 0.3084(18) -0.893(7) 0.0688(17)
H16D H 0.3469(17) -1.107(5) 0.0790(13)
loop_
_geom_bond_atom_site_label_1
_geom_bond_atom_site_label_2
_geom_bond_site_symmetry_1
_geom_bond_site_symmetry_2
C1 H1 1_555 1_555
H2 C1 1_555 1_555
H3 C1 1_555 1_555
C2 C1 1_555 1_555
C3 C2 1_555 1_555
H4 C3 1_555 1_555
C4 C3 1_555 1_555
H5 C4 1_555 1_555
C5 C4 1_555 1_555
C6 C5 1_555 1_555
H6 C6 1_555 1_555
C7 C2 1_555 1_555
H7 C7 1_555 1_555
O1 S1 1_555 1_555
O2 S1 1_555 1_555
O3 S1 1_555 1_555
S1 C5 1_555 1_555
C8 C9 1_555 1_555
C9 H8 1_555 1_555
C10 C9 1_555 1_555
H9 C10 1_555 1_555
C11 C10 1_555 1_555
C12 C11 1_555 1_555
H10 C12 1_555 1_555
C13 C8 1_555 1_555
C14 H11 1_555 1_555
H12 C14 1_555 1_555
H13 C14 1_555 1_555
N1 C8 1_555 1_555
O4 C13 1_555 1_555
H14 N1 1_555 1_555
H15 N1 1_555 1_555
H16 N1 1_555 1_555
C8D C9D 1_555 1_555
C9D H8D 1_555 1_555
C10D C9D 1_555 1_555
H9D C10D 1_555 1_555
C11D C11 1_555 1_555
C12D C11D 1_555 1_555
H10D C12D 1_555 1_555
C13D C8D 1_555 1_555
C14D H11D 1_555 1_555
H12D C14D 1_555 1_555
H13D C14D 1_555 1_555
N1D C8D 1_555 1_555
O4D C13D 1_555 1_555
H14D N1D 1_555 1_555
H15D N1D 1_555 1_555
H16D N1D 1_555 1_555
C6 C7 1_555 1_555
C12 C13 1_555 1_555
C14 O4 1_555 1_555
C10D C11D 1_555 1_555
C12D C13D 1_555 1_555
C14D O4D 1_555 1_555

#END
