
#######################################################################
#
#                 Cambridge Crystallographic Data Centre
#                                CCDC 
#
#######################################################################
#
# If this CIF has been generated from an entry in the Cambridge 
# Structural Database, then it will include bibliographic, chemical, 
# crystal, experimental, refinement or atomic coordinate data resulting 
# from the CCDC's data processing and validation procedures.
#
#######################################################################

data_TAZDIJ
_chemical_formula_moiety         'C24 H21 Cl1 N1 O4 P1'
_chemical_name_systematic        
'(S)-3-(3-(4-Chlorophenyl)-3-(diphenylphosphoryl)propanoyl)-1,3-oxazolidin-2-one unknown solvate'
_symmetry_cell_setting           orthorhombic
_symmetry_space_group_name_H-M   'P 21 21 21'
_symmetry_Int_Tables_number      19
_space_group_name_Hall           'P 2ac 2ab'
loop_
_symmetry_equiv_pos_site_id
_symmetry_equiv_pos_as_xyz
1 x,y,z
2 1/2-x,-y,1/2+z
3 1/2+x,1/2-y,-z
4 -x,1/2+y,1/2-z
_cell_length_a                   5.668(8)
_cell_length_b                   19.43(3)
_cell_length_c                   24.55(4)
_cell_angle_alpha                90
_cell_angle_beta                 90
_cell_angle_gamma                90
_cell_volume                     2703.67
_exptl_crystal_colour            colorless
_exptl_crystal_description       block
_cell_formula_units_Z            4
loop_
_atom_site_label
_atom_site_type_symbol
_atom_site_fract_x
_atom_site_fract_y
_atom_site_fract_z
C1 C 0.3686(15) 0.2784(5) 0.8952(4)
H1 H 0.5179 0.2720 0.9139
H2 H 0.3942 0.3039 0.8618
C2 C 0.247(2) 0.2115(5) 0.8849(5)
H3 H 0.1985 0.2086 0.8471
H4 H 0.3533 0.1736 0.8925
C3 C 0.0144(14) 0.2676(3) 0.9443(4)
C4 C 0.2255(13) 0.3781(4) 0.9477(3)
C5 C 0.0501(12) 0.4091(4) 0.9856(3)
H5 H 0.0547 0.3845 1.0200
H6 H -0.1067 0.4037 0.9704
C6 C 0.0972(12) 0.4862(3) 0.9961(3)
H7 H 0.2635 0.4917 1.0061
C7 C 0.0496(12) 0.5295(3) 0.9467(3)
C8 C 0.2157(14) 0.5775(4) 0.9297(3)
H8 H 0.3574 0.5807 0.9487
C9 C 0.1807(16) 0.6196(4) 0.8871(3)
H9 H 0.2937 0.6518 0.8768
C10 C -0.0311(14) 0.6132(4) 0.8589(3)
C11 C -0.1931(17) 0.5639(4) 0.8735(3)
H10 H -0.3291 0.5574 0.8529
C12 C -0.1508(12) 0.5237(4) 0.9194(3)
H11 H -0.2646 0.4925 0.9310
C13 C 0.0082(12) 0.6064(3) 1.0606(3)
C14 C -0.1324(14) 0.6574(4) 1.0441(4)
H12 H -0.2776 0.6463 1.0288
C15 C -0.0710(17) 0.7264(4) 1.0488(4)
H13 H -0.1662 0.7608 1.0344
C16 C 0.1338(17) 0.7419(4) 1.0754(4)
H14 H 0.1706 0.7875 1.0834
C17 C 0.2817(18) 0.6913(4) 1.0900(4)
H15 H 0.4287 0.7025 1.1043
C18 C 0.2206(14) 0.6230(4) 1.0843(4)
H16 H 0.3219 0.5885 1.0963
C19 C -0.0008(11) 0.4750(3) 1.1142(3)
C20 C 0.2030(14) 0.4375(5) 1.1217(3)
H17 H 0.3126 0.4350 1.0936
C21 C 0.2478(17) 0.4042(5) 1.1690(3)
H18 H 0.3867 0.3794 1.1737
C22 C 0.0829(18) 0.4080(5) 1.2098(3)
H19 H 0.1092 0.3853 1.2426
C23 C -0.1176(18) 0.4445(5) 1.2026(3)
H20 H -0.2271 0.4462 1.2308
C24 C -0.1647(16) 0.4791(5) 1.1555(3)
H21 H -0.3026 0.5045 1.1514
Cl1 Cl -0.0829(5) 0.66653(12) 0.80323(9)
N1 N 0.1943(10) 0.3117(3) 0.9301(2)
O1 O -0.1432(11) 0.2753(3) 0.9746(3)
O2 O 0.0435(12) 0.2078(3) 0.9201(3)
O3 O 0.3970(11) 0.4095(3) 0.9312(3)
O4 O -0.3411(8) 0.5142(3) 1.04130(19)
P1 P -0.0819(3) 0.51836(9) 1.05145(7)
loop_
_geom_bond_atom_site_label_1
_geom_bond_atom_site_label_2
_geom_bond_site_symmetry_1
_geom_bond_site_symmetry_2
C1 H1 1_555 1_555
H2 C1 1_555 1_555
C2 C1 1_555 1_555
H3 C2 1_555 1_555
H4 C2 1_555 1_555
C3 N1 1_555 1_555
C4 C5 1_555 1_555
C5 H5 1_555 1_555
H6 C5 1_555 1_555
C6 C5 1_555 1_555
H7 C6 1_555 1_555
C7 C6 1_555 1_555
C8 C7 1_555 1_555
H8 C8 1_555 1_555
C9 C8 1_555 1_555
H9 C9 1_555 1_555
C10 C9 1_555 1_555
C11 C10 1_555 1_555
H10 C11 1_555 1_555
C12 C7 1_555 1_555
H11 C12 1_555 1_555
C13 C14 1_555 1_555
C14 H12 1_555 1_555
C15 C14 1_555 1_555
H13 C15 1_555 1_555
C16 C15 1_555 1_555
H14 C16 1_555 1_555
C17 C16 1_555 1_555
H15 C17 1_555 1_555
C18 C13 1_555 1_555
H16 C18 1_555 1_555
C19 C20 1_555 1_555
C20 H17 1_555 1_555
C21 C20 1_555 1_555
H18 C21 1_555 1_555
C22 C21 1_555 1_555
H19 C22 1_555 1_555
C23 C22 1_555 1_555
H20 C23 1_555 1_555
C24 C19 1_555 1_555
H21 C24 1_555 1_555
Cl1 C10 1_555 1_555
N1 C1 1_555 1_555
O1 C3 1_555 1_555
O2 C2 1_555 1_555
O3 C4 1_555 1_555
O4 P1 1_555 1_555
P1 C6 1_555 1_555
C3 O2 1_555 1_555
C4 N1 1_555 1_555
C11 C12 1_555 1_555
C13 P1 1_555 1_555
C17 C18 1_555 1_555
C19 P1 1_555 1_555
C23 C24 1_555 1_555

#END
