
#######################################################################
#
#                 Cambridge Crystallographic Data Centre
#                                CCDC 
#
#######################################################################
#
# If this CIF has been generated from an entry in the Cambridge 
# Structural Database, then it will include bibliographic, chemical, 
# crystal, experimental, refinement or atomic coordinate data resulting 
# from the CCDC's data processing and validation procedures.
#
#######################################################################

data_TAZDOO
_chemical_formula_moiety         'C48 H24,2(C6 H3 Cl3)'
_chemical_name_systematic        
'1,2:3,4:5,6:7,8:9,10:11,12-Hexabenzocoronene 1,2,4-trichlorobenzene solvate'
_symmetry_cell_setting           triclinic
_symmetry_space_group_name_H-M   'P -1'
_symmetry_Int_Tables_number      2
_space_group_name_Hall           '-P 1'
loop_
_symmetry_equiv_pos_site_id
_symmetry_equiv_pos_as_xyz
1 x,y,z
2 -x,-y,-z
_cell_length_a                   10.5546(8)
_cell_length_b                   11.0548(8)
_cell_length_c                   11.2914(8)
_cell_angle_alpha                106.6550(10)
_cell_angle_beta                 110.1740(10)
_cell_angle_gamma                104.4460(10)
_cell_volume                     1092.28
_exptl_crystal_colour            yellow
_exptl_crystal_description       Block
_cell_formula_units_Z            1
loop_
_atom_site_label
_atom_site_type_symbol
_atom_site_fract_x
_atom_site_fract_y
_atom_site_fract_z
C1 C 0.2326(2) 0.1597(2) 0.3894(2)
H1 H 0.2313 0.2157 0.4689
C2 C 0.3637(2) 0.16805(19) 0.3877(2)
H2 H 0.4513 0.2322 0.4653
C3 C 0.37001(19) 0.08225(17) 0.27155(18)
C4 C 0.50692(18) 0.09449(16) 0.26490(17)
C5 C 0.50352(18) 0.04783(16) 0.13446(17)
C6 C 0.63583(18) 0.09207(16) 0.12040(17)
C7 C 0.36777(18) -0.04461(16) 0.01407(17)
C8 C 0.23952(18) -0.08873(17) 0.02789(18)
C9 C 0.23639(19) -0.00990(17) 0.15324(18)
C10 C 0.1031(2) -0.0123(2) 0.1575(2)
H3 H 0.0139 -0.0707 0.0787
C11 C 0.1016(2) 0.0687(2) 0.2740(2)
H4 H 0.0119 0.0627 0.2759
C12 C 0.6585(2) 0.14842(18) 0.51411(19)
H5 H 0.5729 0.1214 0.5250
C13 C 0.64730(19) 0.14994(17) 0.38568(17)
C14 C 0.77815(19) 0.19168(17) 0.37153(18)
C15 C 0.76824(18) 0.18014(17) 0.23709(18)
C16 C 0.88735(18) 0.25498(17) 0.21703(19)
C17 C 0.11795(18) -0.21012(17) -0.08358(18)
C18 C 0.0108(2) -0.2946(2) -0.0614(2)
H6 H 0.0156 -0.2686 0.0274
C19 C 0.7914(2) 0.1855(2) 0.6224(2)
H7 H 0.7963 0.1850 0.7070
C20 C 0.9195(2) 0.2240(2) 0.6078(2)
H8 H 1.0104 0.2480 0.6820
C21 C 0.9132(2) 0.22684(19) 0.48582(19)
H9 H 1.0004 0.2527 0.4773
C22 C 1.0018(2) 0.37920(19) 0.3225(2)
H10 H 1.0061 0.4102 0.4110
C23 C 1.1065(2) 0.4552(2) 0.2983(2)
H11 H 1.1832 0.5358 0.3707
C24 C -0.0994(2) -0.4134(2) -0.1668(2)
H12 H -0.1704 -0.4667 -0.1501
C1A C 0.7674(2) -0.1597(2) -0.3894(2)
H1A H 0.7687 -0.2157 -0.4689
C2A C 0.6363(2) -0.16805(19) -0.3877(2)
H2A H 0.5487 -0.2322 -0.4653
C3A C 0.62999(19) -0.08225(17) -0.27155(18)
C4A C 0.49308(18) -0.09449(16) -0.26490(17)
C5A C 0.49648(18) -0.04783(16) -0.13446(17)
C6A C 0.36417(18) -0.09207(16) -0.12040(17)
C7A C 0.63223(18) 0.04461(16) -0.01407(17)
C8A C 0.76048(18) 0.08873(17) -0.02789(18)
C9A C 0.76361(19) 0.00990(17) -0.15324(18)
C10A C 0.8969(2) 0.0123(2) -0.1575(2)
H3A H 0.9861 0.0707 -0.0787
C11A C 0.8984(2) -0.0687(2) -0.2740(2)
H4A H 0.9881 -0.0627 -0.2759
C12A C 0.3415(2) -0.14842(18) -0.51411(19)
H5A H 0.4271 -0.1214 -0.5250
C13A C 0.35270(19) -0.14994(17) -0.38568(17)
C14A C 0.22185(19) -0.19168(17) -0.37153(18)
C15A C 0.23176(18) -0.18014(17) -0.23709(18)
C16A C 0.11265(18) -0.25498(17) -0.21703(19)
C17A C 0.88205(18) 0.21012(17) 0.08358(18)
C18A C 0.9892(2) 0.2946(2) 0.0614(2)
H6A H 0.9844 0.2686 -0.0274
C19A C 0.2086(2) -0.1855(2) -0.6224(2)
H7A H 0.2037 -0.1850 -0.7070
C20A C 0.0805(2) -0.2240(2) -0.6078(2)
H8A H -0.0104 -0.2480 -0.6820
C21A C 0.0868(2) -0.22684(19) -0.48582(19)
H9A H -0.0004 -0.2527 -0.4773
C22A C -0.0018(2) -0.37920(19) -0.3225(2)
H10A H -0.0061 -0.4102 -0.4110
C23A C -0.1065(2) -0.4552(2) -0.2983(2)
H11A H -0.1832 -0.5358 -0.3707
C24A C 1.0994(2) 0.4134(2) 0.1668(2)
H12A H 1.1704 0.4667 0.1501
Cl1 Cl 0.26620(17) 0.14971(16) 0.7172(2)
Cl2 Cl 0.5948(2) 0.2915(2) 0.8082(2)
Cl3 Cl 0.6755(3) 0.49316(18) 1.34617(17)
C25 C 0.3811(4) 0.2484(4) 0.8910(3)
C26 C 0.5304(4) 0.3160(5) 0.9379(4)
C27 C 0.6212(3) 0.3923(4) 1.0786(5)
H13 H 0.7221 0.4381 1.1104
C28 C 0.5627(5) 0.4010(5) 1.1723(3)
C29 C 0.4134(5) 0.3334(6) 1.1254(4)
H14 H 0.3738 0.3393 1.1887
C30 C 0.3226(3) 0.2571(4) 0.9847(4)
H15 H 0.2216 0.2113 0.9529
Cl4? Cl 0.5746(7) 0.2957(5) 0.8209(6)
Cl5? Cl 0.2684(2) 0.1819(2) 0.8152(3)
Cl6? Cl 0.5455(3) 0.47210(19) 1.3634(2)
C31? C 0.5582(6) 0.3336(6) 0.9542(4)
C32? C 0.4265(4) 0.2879(4) 0.9606(4)
C33? C 0.4222(4) 0.3314(5) 1.0869(5)
H16? H 0.3331 0.3005 1.0912
C34? C 0.5495(5) 0.4206(6) 1.2069(4)
C35? C 0.6812(4) 0.4663(4) 1.2006(4)
H17? H 0.7674 0.5266 1.2818
C36? C 0.6856(4) 0.4228(5) 1.0743(6)
H18? H 0.7747 0.4537 1.0700
loop_
_geom_bond_atom_site_label_1
_geom_bond_atom_site_label_2
_geom_bond_site_symmetry_1
_geom_bond_site_symmetry_2
C1 H1 1_555 1_555
C2 C1 1_555 1_555
H2 C2 1_555 1_555
C3 C2 1_555 1_555
C4 C3 1_555 1_555
C5 C4 1_555 1_555
C6 C5 1_555 1_555
C7 C5 1_555 1_555
C8 C7 1_555 1_555
C9 C3 1_555 1_555
C10 C9 1_555 1_555
H3 C10 1_555 1_555
C11 C1 1_555 1_555
H4 C11 1_555 1_555
C12 H5 1_555 1_555
C13 C4 1_555 1_555
C14 C13 1_555 1_555
C15 C6 1_555 1_555
C16 C15 1_555 1_555
C17 C8 1_555 1_555
C18 C17 1_555 1_555
H6 C18 1_555 1_555
C19 C12 1_555 1_555
H7 C19 1_555 1_555
C20 C19 1_555 1_555
H8 C20 1_555 1_555
C21 C14 1_555 1_555
H9 C21 1_555 1_555
C22 C16 1_555 1_555
H10 C22 1_555 1_555
C23 C22 1_555 1_555
H11 C23 1_555 1_555
C24 C18 1_555 1_555
H12 C24 1_555 1_555
Cl1 C25 1_555 1_555
Cl2 C26 1_555 1_555
Cl3 C28 1_555 1_555
C25 C26 1_555 1_555
C26 C27 1_555 1_555
C27 H13 1_555 1_555
C28 C27 1_555 1_555
C29 C28 1_555 1_555
H14 C29 1_555 1_555
C30 C25 1_555 1_555
H15 C30 1_555 1_555
C1A H1A 1_555 1_555
C2A C1A 1_555 1_555
H2A C2A 1_555 1_555
C3A C2A 1_555 1_555
C4A C3A 1_555 1_555
C5A C4A 1_555 1_555
C6A C7 1_555 1_555
C7A C6 1_555 1_555
C8A C7A 1_555 1_555
C9A C3A 1_555 1_555
C10A C9A 1_555 1_555
H3A C10A 1_555 1_555
C11A C1A 1_555 1_555
H4A C11A 1_555 1_555
C12A H5A 1_555 1_555
C13A C4A 1_555 1_555
C14A C13A 1_555 1_555
C15A C6A 1_555 1_555
C16A C17 1_555 1_555
C17A C16 1_555 1_555
C18A C17A 1_555 1_555
H6A C18A 1_555 1_555
C19A C12A 1_555 1_555
H7A C19A 1_555 1_555
C20A C19A 1_555 1_555
H8A C20A 1_555 1_555
C21A C14A 1_555 1_555
H9A C21A 1_555 1_555
C22A C16A 1_555 1_555
H10A C22A 1_555 1_555
C23A C24 1_555 1_555
H11A C23A 1_555 1_555
C24A C23 1_555 1_555
H12A C24A 1_555 1_555
C8 C9 1_555 1_555
C10 C11 1_555 1_555
C12 C13 1_555 1_555
C14 C15 1_555 1_555
C20 C21 1_555 1_555
C29 C30 1_555 1_555
C5A C6A 1_555 1_555
C5A C7A 1_555 1_555
C8A C9A 1_555 1_555
C8A C17A 1_555 1_555
C10A C11A 1_555 1_555
C12A C13A 1_555 1_555
C14A C15A 1_555 1_555
C15A C16A 1_555 1_555
C18A C24A 1_555 1_555
C20A C21A 1_555 1_555
C22A C23A 1_555 1_555

#END
