
#######################################################################
#
#                 Cambridge Crystallographic Data Centre
#                                CCDC 
#
#######################################################################
#
# If this CIF has been generated from an entry in the Cambridge 
# Structural Database, then it will include bibliographic, chemical, 
# crystal, experimental, refinement or atomic coordinate data resulting 
# from the CCDC's data processing and validation procedures.
#
#######################################################################

data_TAZFEI
_chemical_formula_moiety         'C18 H16 I1 N1 O3'
_chemical_name_systematic        
4-(diphenylamino)-5-ethoxy-3-iodofuran-2(5H)-one
_symmetry_cell_setting           monoclinic
_symmetry_space_group_name_H-M   'P 21/c'
_symmetry_Int_Tables_number      14
_space_group_name_Hall           '-P 2ybc'
loop_
_symmetry_equiv_pos_site_id
_symmetry_equiv_pos_as_xyz
1 x,y,z
2 -x,1/2+y,1/2-z
3 -x,-y,-z
4 x,1/2-y,1/2+z
_cell_length_a                   10.7597(19)
_cell_length_b                   9.8460(18)
_cell_length_c                   18.725(3)
_cell_angle_alpha                90
_cell_angle_beta                 114.829(8)
_cell_angle_gamma                90
_cell_volume                     1800.36
_exptl_crystal_colour            yellow
_exptl_crystal_description       block
_cell_formula_units_Z            4
loop_
_atom_site_label
_atom_site_type_symbol
_atom_site_fract_x
_atom_site_fract_y
_atom_site_fract_z
I1 I 0.35199(4) 0.57959(5) 0.55470(2)
O1 O 0.3701(5) 0.7895(5) 0.4216(2)
O2 O 0.5786(5) 0.8729(5) 0.4953(3)
O3 O 0.7979(6) 0.8080(7) 0.5782(4)
N1 N 0.6878(5) 0.7326(4) 0.6898(2)
C1 C 0.9254(6) 0.7679(6) 0.7821(4)
H1 H 0.9430 0.6777 0.7750
C2 C 1.0284(6) 0.8496(8) 0.8330(4)
H2 H 1.1154 0.8139 0.8613
C3 C 1.0029(7) 0.9841(8) 0.8423(4)
H3 H 1.0737 1.0395 0.8753
C4 C 0.8736(8) 1.0369(7) 0.8031(5)
H4 H 0.8564 1.1273 0.8103
C5 C 0.7683(7) 0.9542(7) 0.7523(4)
H5 H 0.6802 0.9888 0.7259
C6 C 0.7954(5) 0.8213(6) 0.7416(3)
C7 C 0.6410(6) 0.6247(7) 0.7932(3)
H6 H 0.6398 0.7095 0.8147
C8 C 0.6208(7) 0.5072(8) 0.8282(4)
H7 H 0.6052 0.5136 0.8733
C9 C 0.6237(8) 0.3831(8) 0.7971(4)
H8 H 0.6091 0.3056 0.8209
C10 C 0.6481(7) 0.3709(7) 0.7311(4)
H9 H 0.6519 0.2856 0.7108
C11 C 0.6669(6) 0.4868(6) 0.6950(3)
H10 H 0.6823 0.4792 0.6499
C12 C 0.6630(5) 0.6125(5) 0.7251(3)
C13 C 0.4697(7) 0.7890(7) 0.4838(3)
C14 C 0.4977(5) 0.7178(6) 0.5558(3)
C15 C 0.6166(5) 0.7627(5) 0.6124(3)
C16 C 0.6772(7) 0.8609(7) 0.5737(4)
H11 H 0.6932 0.9493 0.6001
C17 C 0.8707(10) 0.9183(12) 0.5631(7)
H12 H 0.8801 0.9931 0.5987
H13 H 0.8218 0.9504 0.5095
C18 C 1.0087(11) 0.8653(14) 0.5755(8)
H14 H 1.0479 0.8165 0.6244
H15 H 1.0673 0.9398 0.5771
H16 H 0.9995 0.8055 0.5331
loop_
_geom_bond_atom_site_label_1
_geom_bond_atom_site_label_2
_geom_bond_site_symmetry_1
_geom_bond_site_symmetry_2
I1 C14 1_555 1_555
O1 C13 1_555 1_555
O2 C13 1_555 1_555
O3 C16 1_555 1_555
N1 C6 1_555 1_555
C1 H1 1_555 1_555
C2 C1 1_555 1_555
H2 C2 1_555 1_555
C3 C2 1_555 1_555
H3 C3 1_555 1_555
C4 C3 1_555 1_555
H4 C4 1_555 1_555
C5 C4 1_555 1_555
H5 C5 1_555 1_555
C6 C1 1_555 1_555
C7 H6 1_555 1_555
C8 C7 1_555 1_555
H7 C8 1_555 1_555
C9 C8 1_555 1_555
H8 C9 1_555 1_555
C10 C9 1_555 1_555
H9 C10 1_555 1_555
C11 C10 1_555 1_555
H10 C11 1_555 1_555
C12 N1 1_555 1_555
C13 C14 1_555 1_555
C14 C15 1_555 1_555
C15 N1 1_555 1_555
C16 O2 1_555 1_555
H11 C16 1_555 1_555
C17 O3 1_555 1_555
H12 C17 1_555 1_555
H13 C17 1_555 1_555
C18 C17 1_555 1_555
H14 C18 1_555 1_555
H15 C18 1_555 1_555
H16 C18 1_555 1_555
C5 C6 1_555 1_555
C7 C12 1_555 1_555
C11 C12 1_555 1_555
C15 C16 1_555 1_555

#END
