
#######################################################################
#
#                 Cambridge Crystallographic Data Centre
#                                CCDC 
#
#######################################################################
#
# If this CIF has been generated from an entry in the Cambridge 
# Structural Database, then it will include bibliographic, chemical, 
# crystal, experimental, refinement or atomic coordinate data resulting 
# from the CCDC's data processing and validation procedures.
#
#######################################################################

data_TAZFIM
_chemical_formula_moiety         'C48 H40 N2 O6,C1 H2 Cl2'
_chemical_name_systematic        
'7,12,19,24-tetraoxa-1,30-diazanonacyclo[28.14.6.2^2,5^.2^26,29^.0^13,18^.0^31,44^.0^32,37^.0^38,43^.0^45,50^]tetrapentaconta-2,4,13,15,17,26,28,31,33,35,37,39,41,43,45,47,49,51,53-nonadecaene-8,23-dione dichloromethane solvate'
_symmetry_cell_setting           triclinic
_symmetry_space_group_name_H-M   'P -1'
_symmetry_Int_Tables_number      2
_space_group_name_Hall           '-P 1'
loop_
_symmetry_equiv_pos_site_id
_symmetry_equiv_pos_as_xyz
1 x,y,z
2 -x,-y,-z
_cell_length_a                   9.1275(2)
_cell_length_b                   12.7976(3)
_cell_length_c                   18.3106(4)
_cell_angle_alpha                88.7303(9)
_cell_angle_beta                 77.5830(9)
_cell_angle_gamma                74.5428(9)
_cell_volume                     2011.87
_exptl_crystal_colour            colorless
_exptl_crystal_description       block
_cell_formula_units_Z            2
loop_
_atom_site_label
_atom_site_type_symbol
_atom_site_fract_x
_atom_site_fract_y
_atom_site_fract_z
O1 O -0.0118(4) 1.0855(2) 0.66342(15)
O2 O -0.0953(5) 1.2600(2) 0.6393(2)
O3 O 0.3646(2) 0.60889(16) 0.46537(10)
O4 O 0.4239(3) 0.5583(2) 0.34384(12)
O5 O 0.2049(3) 1.08793(18) 0.38978(15)
O6 O 0.4532(3) 0.94635(17) 0.40254(15)
N1 N -0.1431(3) 0.7108(2) 0.87349(13)
N2 N -0.0279(3) 0.5268(2) 0.78623(13)
C1 C -0.2528(3) 0.6614(3) 0.85264(15)
C2 C -0.4116(3) 0.7011(3) 0.88049(17)
H1 H -0.4509 0.7626 0.9141
C3 C -0.5129(3) 0.6499(3) 0.85875(18)
H2 H -0.6221 0.6772 0.8768
C4 C -0.4550(4) 0.5593(3) 0.81093(17)
H3 H -0.5249 0.5256 0.7955
C5 C -0.2960(3) 0.5171(3) 0.78534(16)
H4 H -0.2569 0.4533 0.7539
C6 C -0.1940(3) 0.5686(2) 0.80583(14)
C7 C -0.0118(3) 0.6304(3) 0.88985(15)
C8 C 0.0448(3) 0.6434(3) 0.95566(16)
C9 C -0.0228(4) 0.7349(3) 1.00440(19)
H5 H -0.1105 0.7885 0.9950
C10 C 0.0361(5) 0.7479(4) 1.0655(2)
H6 H -0.0106 0.8099 1.0982
C11 C 0.1657(5) 0.6686(4) 1.0792(2)
H7 H 0.2073 0.6777 1.1212
C12 C 0.2324(4) 0.5795(3) 1.03336(19)
H8 H 0.3199 0.5270 1.0440
C13 C 0.1748(4) 0.5620(3) 0.96951(17)
C14 C 0.2409(3) 0.4664(3) 0.92057(16)
C15 C 0.3684(4) 0.3831(3) 0.93205(19)
H9 H 0.4158 0.3906 0.9723
C16 C 0.4259(4) 0.2918(4) 0.8867(2)
H10 H 0.5127 0.2368 0.8956
C17 C 0.3580(4) 0.2782(3) 0.8271(2)
H11 H 0.3974 0.2139 0.7962
C18 C 0.2342(4) 0.3586(3) 0.81377(17)
H12 H 0.1882 0.3495 0.7733
C19 C 0.1746(3) 0.4540(3) 0.85899(16)
C20 C 0.0471(3) 0.5404(3) 0.84490(15)
C21 C -0.1209(4) 0.8073(3) 0.83963(16)
C22 C 0.0153(4) 0.8376(3) 0.8364(2)
H13 H 0.0979 0.7911 0.8550
C23 C 0.0321(5) 0.9350(3) 0.8061(2)
H14 H 0.1265 0.9540 0.8046
C24 C -0.0841(5) 1.0051(3) 0.7782(2)
C25 C -0.2177(5) 0.9737(3) 0.7802(2)
H15 H -0.2988 1.0201 0.7604
C26 C -0.2380(4) 0.8775(3) 0.80979(19)
H16 H -0.3319 0.8585 0.8100
C27 C -0.0643(6) 1.1085(3) 0.7432(2)
H17 H -0.1644 1.1655 0.7541
H18 H 0.0134 1.1339 0.7630
C28 C -0.0383(4) 1.1678(3) 0.6184(2)
C29 C 0.0026(4) 1.1272(3) 0.5390(2)
H19 H -0.0756 1.0903 0.5311
H20 H 0.1048 1.0724 0.5302
C30 C 0.0109(5) 1.2139(3) 0.4811(2)
H21 H -0.0917 1.2680 0.4882
H22 H 0.0883 1.2517 0.4885
C31 C 0.0556(4) 1.1653(3) 0.4028(2)
H23 H -0.0236 1.1294 0.3949
H24 H 0.0581 1.2237 0.3666
C32 C 0.3352(4) 1.1247(2) 0.37588(17)
C33 C 0.3424(5) 1.2289(3) 0.35648(19)
H25 H 0.2496 1.2832 0.3541
C34 C 0.4836(5) 1.2541(3) 0.3405(2)
H26 H 0.4874 1.3256 0.3270
C35 C 0.6183(5) 1.1769(3) 0.3442(2)
H27 H 0.7151 1.1948 0.3325
C36 C 0.6136(4) 1.0721(3) 0.3650(2)
H28 H 0.7069 1.0189 0.3681
C37 C 0.4730(4) 1.0460(2) 0.38104(18)
C38 C 0.5827(4) 0.8666(3) 0.4179(2)
H29 H 0.6213 0.8932 0.4585
H30 H 0.6681 0.8494 0.3728
C39 C 0.5278(4) 0.7668(2) 0.44150(19)
H31 H 0.6123 0.7119 0.4579
H32 H 0.4376 0.7865 0.4845
C40 C 0.4818(5) 0.7190(3) 0.37874(18)
H33 H 0.4006 0.7764 0.3621
H34 H 0.5735 0.7010 0.3365
C41 C 0.4224(3) 0.6206(3) 0.39227(16)
C42 C 0.2976(3) 0.5181(2) 0.48004(15)
H35 H 0.3809 0.4492 0.4694
H36 H 0.2242 0.5196 0.4471
C43 C 0.2134(3) 0.5245(2) 0.56037(14)
C44 C 0.0962(4) 0.4728(2) 0.58081(17)
H37 H 0.0693 0.4361 0.5432
C45 C 0.0171(4) 0.4729(3) 0.65411(17)
H38 H -0.0625 0.4364 0.6662
C46 C 0.0532(3) 0.5260(2) 0.71014(14)
C47 C 0.1711(3) 0.5778(2) 0.69069(16)
H39 H 0.1978 0.6143 0.7284
C48 C 0.2501(3) 0.5767(2) 0.61694(15)
H40 H 0.3308 0.6123 0.6049
C50 C 0.2252(11) 0.9504(8) 0.9541(6)
H43 H 0.1189 0.9998 0.9685
H44 H 0.2180 0.8823 0.9324
Cl3 Cl 0.307(6) 0.923(6) 1.0318(19)
Cl4 Cl 0.3432(5) 1.0106(5) 0.8892(3)
C50A C 0.7748(11) 1.0496(8) 1.0459(6)
H43A H 0.8811 1.0002 1.0315
H44A H 0.7820 1.1177 1.0676
Cl3A Cl 0.693(6) 1.077(6) 0.9682(19)
Cl4A Cl 0.6568(5) 0.9894(5) 1.1108(3)
C49? C 0.4253(12) 1.0047(9) 0.9833(8)
H41? H 0.4757 1.0214 1.0226
H42? H 0.5060 0.9605 0.9425
Cl1? Cl 0.319(4) 1.123(3) 0.949(4)
Cl2? Cl 0.2778(6) 0.9351(6) 1.0212(4)
loop_
_geom_bond_atom_site_label_1
_geom_bond_atom_site_label_2
_geom_bond_site_symmetry_1
_geom_bond_site_symmetry_2
O1 C27 1_555 1_555
O2 C28 1_555 1_555
O3 C41 1_555 1_555
O4 C41 1_555 1_555
O5 C31 1_555 1_555
O6 C37 1_555 1_555
N1 C1 1_555 1_555
N2 C6 1_555 1_555
C1 C2 1_555 1_555
C2 H1 1_555 1_555
C3 C2 1_555 1_555
H2 C3 1_555 1_555
C4 C3 1_555 1_555
H3 C4 1_555 1_555
C5 C4 1_555 1_555
H4 C5 1_555 1_555
C6 C1 1_555 1_555
C7 N1 1_555 1_555
C8 C7 1_555 1_555
C9 C8 1_555 1_555
H5 C9 1_555 1_555
C10 C9 1_555 1_555
H6 C10 1_555 1_555
C11 C10 1_555 1_555
H7 C11 1_555 1_555
C12 C11 1_555 1_555
H8 C12 1_555 1_555
C13 C8 1_555 1_555
C14 C13 1_555 1_555
C15 C14 1_555 1_555
H9 C15 1_555 1_555
C16 C15 1_555 1_555
H10 C16 1_555 1_555
C17 C16 1_555 1_555
H11 C17 1_555 1_555
C18 C17 1_555 1_555
H12 C18 1_555 1_555
C19 C14 1_555 1_555
C20 N2 1_555 1_555
C21 N1 1_555 1_555
C22 C21 1_555 1_555
H13 C22 1_555 1_555
C23 C22 1_555 1_555
H14 C23 1_555 1_555
C24 C23 1_555 1_555
C25 C24 1_555 1_555
H15 C25 1_555 1_555
C26 C21 1_555 1_555
H16 C26 1_555 1_555
C27 C24 1_555 1_555
H17 C27 1_555 1_555
H18 C27 1_555 1_555
C28 O1 1_555 1_555
C29 C28 1_555 1_555
H19 C29 1_555 1_555
H20 C29 1_555 1_555
C30 C29 1_555 1_555
H21 C30 1_555 1_555
H22 C30 1_555 1_555
C31 C30 1_555 1_555
H23 C31 1_555 1_555
H24 C31 1_555 1_555
C32 O5 1_555 1_555
C33 C32 1_555 1_555
H25 C33 1_555 1_555
C34 C33 1_555 1_555
H26 C34 1_555 1_555
C35 C34 1_555 1_555
H27 C35 1_555 1_555
C36 C35 1_555 1_555
H28 C36 1_555 1_555
C37 C32 1_555 1_555
C38 O6 1_555 1_555
H29 C38 1_555 1_555
H30 C38 1_555 1_555
C39 C38 1_555 1_555
H31 C39 1_555 1_555
H32 C39 1_555 1_555
C40 C39 1_555 1_555
H33 C40 1_555 1_555
H34 C40 1_555 1_555
C41 C40 1_555 1_555
C42 O3 1_555 1_555
H35 C42 1_555 1_555
H36 C42 1_555 1_555
C43 C42 1_555 1_555
C44 C43 1_555 1_555
H37 C44 1_555 1_555
C45 C44 1_555 1_555
H38 C45 1_555 1_555
C46 N2 1_555 1_555
C47 C46 1_555 1_555
H39 C47 1_555 1_555
C48 C43 1_555 1_555
H40 C48 1_555 1_555
C50 H43 1_555 1_555
H44 C50 1_555 1_555
Cl3 C50 1_555 1_555
Cl4 C50 1_555 1_555
C50A H43A 1_555 1_555
H44A C50A 1_555 1_555
Cl3A C50A 1_555 1_555
Cl4A C50A 1_555 1_555
C5 C6 1_555 1_555
C7 C20 1_555 1_555
C12 C13 1_555 1_555
C18 C19 1_555 1_555
C19 C20 1_555 1_555
C25 C26 1_555 1_555
C36 C37 1_555 1_555
C45 C46 1_555 1_555
C47 C48 1_555 1_555

#END
