
#######################################################################
#
#                 Cambridge Crystallographic Data Centre
#                                CCDC 
#
#######################################################################
#
# If this CIF has been generated from an entry in the Cambridge 
# Structural Database, then it will include bibliographic, chemical, 
# crystal, experimental, refinement or atomic coordinate data resulting 
# from the CCDC's data processing and validation procedures.
#
#######################################################################

data_TAZNOY
_chemical_formula_moiety         
'C56 H74 N4 O4 2+,2(F6 P1 1-),C4 H10 O1,C2 H3 N1'
_chemical_name_systematic        
'10,16,27,33-Tetra-t-butyl-35,36,38,39-tetramethoxy-6,23-diaza-3,20-diazoniaheptacyclo(29.3.1.1^3,6^.1^8,12^.1^14,18^.1^20,23^.1^25,29^)tetraconta-1(35),3(40),8(39),9,11,14(38),15,17,20(37),25(36),26,28,31,33-tetradecaene bis(hexafluorophosphate) acetonitrile diethyl ether solvate'
_symmetry_cell_setting           monoclinic
_symmetry_space_group_name_H-M   'P 21/n'
_symmetry_Int_Tables_number      14
_space_group_name_Hall           '-P 2yn'
loop_
_symmetry_equiv_pos_site_id
_symmetry_equiv_pos_as_xyz
1 x,y,z
2 1/2-x,1/2+y,1/2-z
3 -x,-y,-z
4 1/2+x,1/2-y,1/2+z
_cell_length_a                   14.731(4)
_cell_length_b                   19.914(5)
_cell_length_c                   23.487(6)
_cell_angle_alpha                90
_cell_angle_beta                 98.343(5)
_cell_angle_gamma                90
_cell_volume                     6817.07
_cell_formula_units_Z            4
loop_
_atom_site_label
_atom_site_type_symbol
_atom_site_fract_x
_atom_site_fract_y
_atom_site_fract_z
O1 O 0.8549(2) 0.89126(17) 0.92790(14)
O2 O 0.6330(3) 0.90531(18) 0.73979(16)
O3 O 0.3546(2) 0.89762(16) 0.73787(13)
O4 O 0.5539(2) 0.92363(17) 0.92105(15)
N1 N 0.5463(3) 0.8482(2) 0.62991(17)
N2 N 0.4374(3) 0.7903(2) 0.65791(16)
N3 N 0.6506(3) 0.8590(2) 1.03402(16)
N4 N 0.7568(3) 0.7933(2) 1.01330(16)
C1 C 0.8301(3) 0.8338(2) 0.8959(2)
C2 C 0.8210(3) 0.7739(2) 0.92426(19)
C3 C 0.7875(3) 0.7180(2) 0.8931(2)
H1 H 0.7809 0.6779 0.9123
C4 C 0.7636(4) 0.7206(2) 0.8336(2)
C5 C 0.7741(3) 0.7821(2) 0.8070(2)
H2 H 0.7585 0.7848 0.7672
C6 C 0.8064(3) 0.8391(2) 0.8365(2)
C7 C 0.8129(4) 0.9071(2) 0.8075(2)
H3 H 0.7684 0.9371 0.8207
H4 H 0.8733 0.9256 0.8202
C8 C 0.7971(4) 0.9066(2) 0.7424(2)
C9 C 0.8714(4) 0.9057(2) 0.7120(2)
H5 H 0.9303 0.9059 0.7326
C10 C 0.8618(3) 0.9045(2) 0.6526(2)
C11 C 0.7725(4) 0.9046(2) 0.6234(2)
H6 H 0.7637 0.9043 0.5834
C12 C 0.6963(3) 0.9053(2) 0.6515(2)
C13 C 0.7094(4) 0.9068(2) 0.7109(2)
C14 C 0.6019(3) 0.9061(3) 0.6169(2)
H7 H 0.5708 0.9472 0.6249
H8 H 0.6075 0.9058 0.5762
C15 C 0.4684(4) 0.8514(3) 0.6506(2)
H9 H 0.4393 0.8909 0.6590
C16 C 0.5657(4) 0.7822(3) 0.6230(3)
H10 H 0.6166 0.7652 0.6085
C17 C 0.4988(4) 0.7462(3) 0.6407(3)
H11 H 0.4948 0.6996 0.6411
C18 C 0.3503(3) 0.7738(3) 0.6789(2)
H12 H 0.3321 0.7286 0.6667
H13 H 0.3030 0.8043 0.6613
C19 C 0.3557(3) 0.7780(2) 0.7438(2)
C20 C 0.3592(4) 0.7197(3) 0.7766(2)
H14 H 0.3607 0.6783 0.7583
C21 C 0.3607(4) 0.7214(2) 0.8354(2)
C22 C 0.3622(3) 0.7845(2) 0.8609(2)
H15 H 0.3646 0.7868 0.9006
C23 C 0.3605(3) 0.8443(2) 0.83032(19)
C24 C 0.3554(3) 0.8396(2) 0.7709(2)
C25 C 0.3663(4) 0.9119(2) 0.8592(2)
H16 H 0.3077 0.9345 0.8498
H17 H 0.4121 0.9386 0.8438
C26 C 0.3905(3) 0.9091(2) 0.9237(2)
C27 C 0.3220(3) 0.9023(2) 0.9578(2)
H18 H 0.2617 0.8990 0.9397
C28 C 0.3380(3) 0.9001(2) 1.0177(2)
C29 C 0.4289(3) 0.9069(2) 1.0426(2)
H19 H 0.4425 0.9071 1.0826
C30 C 0.4998(3) 0.9134(2) 1.0109(2)
C31 C 0.4808(3) 0.9136(2) 0.9506(2)
C32 C 0.5971(3) 0.9208(2) 1.0402(2)
H20 H 0.6258 0.9584 1.0235
H21 H 0.5971 0.9302 1.0807
C33 C 0.7305(3) 0.8570(2) 1.0159(2)
H22 H 0.7636 0.8941 1.0064
C34 C 0.6238(4) 0.7945(3) 1.0435(3)
H23 H 0.5697 0.7816 1.0565
C35 C 0.6901(4) 0.7535(3) 1.0305(3)
H24 H 0.6905 0.7069 1.0328
C36 C 0.8386(4) 0.7703(3) 0.9893(2)
H25 H 0.8530 0.7245 1.0013
H26 H 0.8907 0.7984 1.0037
C37 C 0.9512(4) 0.9037(4) 0.9398(3)
H27 H 0.9819 0.8643 0.9565
H28 H 0.9625 0.9406 0.9662
H29 H 0.9741 0.9147 0.9047
C38 C 0.5953(5) 0.9690(3) 0.7508(3)
H30 H 0.6392 0.9940 0.7767
H31 H 0.5405 0.9627 0.7678
H32 H 0.5809 0.9932 0.7153
C39 C 0.2671(4) 0.9295(3) 0.7242(3)
H33 H 0.2228 0.8972 0.7072
H34 H 0.2715 0.9654 0.6976
H35 H 0.2483 0.9471 0.7588
C40 C 0.5808(4) 0.8668(3) 0.8895(2)
H36 H 0.5817 0.8272 0.9129
H37 H 0.6409 0.8745 0.8796
H38 H 0.5378 0.8609 0.8551
C41 C 0.7215(6) 0.6603(3) 0.7990(3)
C42 C 0.7745(11) 0.6482(5) 0.7505(4)
H39 H 0.7567 0.6058 0.7328
H40 H 0.8389 0.6474 0.7650
H41 H 0.7621 0.6835 0.7226
C43 C 0.7236(8) 0.5979(3) 0.8339(3)
H42 H 0.6836 0.6028 0.8624
H43 H 0.7851 0.5898 0.8525
H44 H 0.7035 0.5607 0.8092
C44 C 0.6243(9) 0.6775(5) 0.7753(6)
H45 H 0.6048 0.6507 0.7417
H46 H 0.6203 0.7242 0.7652
H47 H 0.5854 0.6685 0.8039
C45 C 0.9431(4) 0.9046(3) 0.6193(2)
C46 C 1.0352(5) 0.9131(5) 0.6578(3)
H48 H 1.0334 0.9524 0.6812
H49 H 1.0830 0.9179 0.6343
H50 H 1.0472 0.8744 0.6821
C47 C 0.9338(5) 0.9617(4) 0.5752(3)
H51 H 0.8799 0.9547 0.5476
H52 H 0.9869 0.9624 0.5558
H53 H 0.9289 1.0038 0.5945
C48 C 0.9435(6) 0.8389(4) 0.5859(4)
H54 H 0.9480 0.8017 0.6122
H55 H 0.9951 0.8383 0.5651
H56 H 0.8878 0.8352 0.5593
C49 C 0.3625(5) 0.6586(3) 0.8725(3)
C50 C 0.4516(7) 0.6573(4) 0.9154(4)
H57 H 0.4519 0.6187 0.9398
H58 H 0.4557 0.6973 0.9385
H59 H 0.5032 0.6552 0.8947
C51 C 0.3605(8) 0.5954(3) 0.8378(3)
H60 H 0.3708 0.5575 0.8632
H61 H 0.4077 0.5971 0.8136
H62 H 0.3018 0.5910 0.8143
C52 C 0.2847(7) 0.6607(4) 0.9076(4)
H63 H 0.2275 0.6637 0.8823
H64 H 0.2917 0.6991 0.9325
H65 H 0.2854 0.6205 0.9303
C53 C 0.2626(4) 0.8918(3) 1.0551(2)
C54 C 0.2643(5) 0.9499(4) 1.0975(3)
H66 H 0.2572 0.9916 1.0767
H67 H 0.3218 0.9500 1.1227
H68 H 0.2151 0.9448 1.1198
C55 C 0.1677(5) 0.8870(6) 1.0200(3)
H69 H 0.1229 0.8799 1.0453
H70 H 0.1661 0.8502 0.9935
H71 H 0.1540 0.9280 0.9990
C56 C 0.2796(5) 0.8275(4) 1.0897(3)
H72 H 0.3379 0.8302 1.1139
H73 H 0.2799 0.7901 1.0639
H74 H 0.2319 0.8215 1.1131
O5 O 0.0630(8) 0.6945(5) 0.7761(4)
C57 C 0.0769(10) 0.7988(6) 0.8308(5)
H75 H 0.0225 0.7894 0.8475
H76 H 0.0821 0.8464 0.8255
H77 H 0.1297 0.7829 0.8560
C58 C 0.0714(16) 0.7653(6) 0.7759(6)
H78 H 0.0191 0.7834 0.7506
H79 H 0.1259 0.7766 0.7592
C59 C 0.0917(14) 0.6668(7) 0.7228(6)
H80 H 0.0541 0.6857 0.6894
H81 H 0.1552 0.6785 0.7211
C60 C 0.0813(13) 0.5929(7) 0.7227(7)
H82 H 0.1106 0.5751 0.7587
H83 H 0.1093 0.5741 0.6918
H84 H 0.0173 0.5816 0.7175
C61 C 0.0462(6) 0.6703(5) 0.9549(4)
C62 C 0.0143(6) 0.6153(5) 0.9149(4)
H85 H 0.0606 0.5811 0.9173
H86 H 0.0027 0.6324 0.8764
H87 H -0.0411 0.5965 0.9252
N5 N 0.0730(10) 0.7096(6) 0.9861(4)
P1 P 0.80298(13) 0.55345(8) 0.03743(7)
F1 F 0.8183(14) 0.5252(8) 0.1008(4)
F2 F 0.8164(11) 0.6264(4) 0.0599(7)
F3 F 0.9117(5) 0.5483(9) 0.0370(7)
F4 F 0.7939(10) 0.4788(4) 0.0140(6)
F5 F 0.6975(6) 0.5564(10) 0.0376(8)
F6 F 0.7918(13) 0.5789(8) -0.0265(4)
P2 P 0.88471(12) 0.95034(8) 0.14101(8)
F7 F 0.9902(4) 0.9598(5) 0.1360(4)
F8 F 0.9163(7) 0.9081(4) 0.1961(3)
F9 F 0.8836(7) 1.0163(4) 0.1743(5)
F10 F 0.8604(8) 0.9855(5) 0.0815(3)
F11 F 0.8861(7) 0.8816(4) 0.1046(4)
F12 F 0.7824(5) 0.9378(6) 0.1448(5)
F13? F 0.8672(5) 0.5228(3) 0.0909(3)
F14? F 0.7739(5) 0.6107(3) 0.0802(3)
F15? F 0.8829(5) 0.6018(5) 0.0258(3)
F16? F 0.8297(6) 0.4998(5) -0.0033(3)
F17? F 0.7192(5) 0.5120(4) 0.0517(3)
F18? F 0.7363(5) 0.5893(3) -0.0128(2)
F19? F 0.9260(8) 0.9376(7) 0.0855(4)
F20? F 0.9691(7) 0.9210(6) 0.1793(5)
F21? F 0.9197(8) 1.0227(4) 0.1462(5)
F22? F 0.7910(6) 0.9731(4) 0.1033(4)
F23? F 0.8399(7) 0.8767(3) 0.1355(5)
F24? F 0.8365(8) 0.9619(6) 0.1965(4)
loop_
_geom_bond_atom_site_label_1
_geom_bond_atom_site_label_2
_geom_bond_site_symmetry_1
_geom_bond_site_symmetry_2
O1 C1 1_555 1_555
O2 C13 1_555 1_555
O3 C24 1_555 1_555
O4 C31 1_555 1_555
N1 C14 1_555 1_555
N2 C15 1_555 1_555
N3 C32 1_555 1_555
N4 C33 1_555 1_555
C1 C2 1_555 1_555
C2 C3 1_555 1_555
C3 H1 1_555 1_555
C4 C3 1_555 1_555
C5 C4 1_555 1_555
H2 C5 1_555 1_555
C6 C1 1_555 1_555
C7 C6 1_555 1_555
H3 C7 1_555 1_555
H4 C7 1_555 1_555
C8 C7 1_555 1_555
C9 C8 1_555 1_555
H5 C9 1_555 1_555
C10 C9 1_555 1_555
C11 C10 1_555 1_555
H6 C11 1_555 1_555
C12 C11 1_555 1_555
C13 C8 1_555 1_555
C14 C12 1_555 1_555
H7 C14 1_555 1_555
H8 C14 1_555 1_555
C15 N1 1_555 1_555
H9 C15 1_555 1_555
C16 N1 1_555 1_555
H10 C16 1_555 1_555
C17 N2 1_555 1_555
H11 C17 1_555 1_555
C18 N2 1_555 1_555
H12 C18 1_555 1_555
H13 C18 1_555 1_555
C19 C18 1_555 1_555
C20 C19 1_555 1_555
H14 C20 1_555 1_555
C21 C20 1_555 1_555
C22 C21 1_555 1_555
H15 C22 1_555 1_555
C23 C22 1_555 1_555
C24 C19 1_555 1_555
C25 C23 1_555 1_555
H16 C25 1_555 1_555
H17 C25 1_555 1_555
C26 C25 1_555 1_555
C27 C26 1_555 1_555
H18 C27 1_555 1_555
C28 C27 1_555 1_555
C29 C28 1_555 1_555
H19 C29 1_555 1_555
C30 C29 1_555 1_555
C31 C26 1_555 1_555
C32 C30 1_555 1_555
H20 C32 1_555 1_555
H21 C32 1_555 1_555
C33 N3 1_555 1_555
H22 C33 1_555 1_555
C34 N3 1_555 1_555
H23 C34 1_555 1_555
C35 N4 1_555 1_555
H24 C35 1_555 1_555
C36 N4 1_555 1_555
H25 C36 1_555 1_555
H26 C36 1_555 1_555
C37 O1 1_555 1_555
H27 C37 1_555 1_555
H28 C37 1_555 1_555
H29 C37 1_555 1_555
C38 O2 1_555 1_555
H30 C38 1_555 1_555
H31 C38 1_555 1_555
H32 C38 1_555 1_555
C39 O3 1_555 1_555
H33 C39 1_555 1_555
H34 C39 1_555 1_555
H35 C39 1_555 1_555
C40 O4 1_555 1_555
H36 C40 1_555 1_555
H37 C40 1_555 1_555
H38 C40 1_555 1_555
C41 C4 1_555 1_555
C42 C41 1_555 1_555
H39 C42 1_555 1_555
H40 C42 1_555 1_555
H41 C42 1_555 1_555
C43 C41 1_555 1_555
H42 C43 1_555 1_555
H43 C43 1_555 1_555
H44 C43 1_555 1_555
C44 C41 1_555 1_555
H45 C44 1_555 1_555
H46 C44 1_555 1_555
H47 C44 1_555 1_555
C45 C10 1_555 1_555
C46 C45 1_555 1_555
H48 C46 1_555 1_555
H49 C46 1_555 1_555
H50 C46 1_555 1_555
C47 C45 1_555 1_555
H51 C47 1_555 1_555
H52 C47 1_555 1_555
H53 C47 1_555 1_555
C48 C45 1_555 1_555
H54 C48 1_555 1_555
H55 C48 1_555 1_555
H56 C48 1_555 1_555
C49 C21 1_555 1_555
C50 C49 1_555 1_555
H57 C50 1_555 1_555
H58 C50 1_555 1_555
H59 C50 1_555 1_555
C51 C49 1_555 1_555
H60 C51 1_555 1_555
H61 C51 1_555 1_555
H62 C51 1_555 1_555
C52 C49 1_555 1_555
H63 C52 1_555 1_555
H64 C52 1_555 1_555
H65 C52 1_555 1_555
C53 C28 1_555 1_555
C54 C53 1_555 1_555
H66 C54 1_555 1_555
H67 C54 1_555 1_555
H68 C54 1_555 1_555
C55 C53 1_555 1_555
H69 C55 1_555 1_555
H70 C55 1_555 1_555
H71 C55 1_555 1_555
C56 C53 1_555 1_555
H72 C56 1_555 1_555
H73 C56 1_555 1_555
H74 C56 1_555 1_555
O5 C58 1_555 1_555
C57 H75 1_555 1_555
H76 C57 1_555 1_555
H77 C57 1_555 1_555
C58 C57 1_555 1_555
H78 C58 1_555 1_555
H79 C58 1_555 1_555
C59 O5 1_555 1_555
H80 C59 1_555 1_555
H81 C59 1_555 1_555
C60 C59 1_555 1_555
H82 C60 1_555 1_555
H83 C60 1_555 1_555
H84 C60 1_555 1_555
C61 C62 1_555 1_555
C62 H85 1_555 1_555
H86 C62 1_555 1_555
H87 C62 1_555 1_555
N5 C61 1_555 1_555
P1 F1 1_555 1_555
F2 P1 1_555 1_555
F3 P1 1_555 1_555
F4 P1 1_555 1_555
F5 P1 1_555 1_555
F6 P1 1_555 1_555
P2 F7 1_555 1_555
F8 P2 1_555 1_555
F9 P2 1_555 1_555
F10 P2 1_555 1_555
F11 P2 1_555 1_555
F12 P2 1_555 1_555
C2 C36 1_555 1_555
C5 C6 1_555 1_555
C12 C13 1_555 1_555
C16 C17 1_555 1_555
C23 C24 1_555 1_555
C30 C31 1_555 1_555
C34 C35 1_555 1_555

#END
