
#######################################################################
#
#                 Cambridge Crystallographic Data Centre
#                                CCDC 
#
#######################################################################
#
# If this CIF has been generated from an entry in the Cambridge 
# Structural Database, then it will include bibliographic, chemical, 
# crystal, experimental, refinement or atomic coordinate data resulting 
# from the CCDC's data processing and validation procedures.
#
#######################################################################

data_TAZNUD
_chemical_formula_moiety         'C22 H25 N2 O2 1+,Br1 1-,C4 H10 O1'
_chemical_name_systematic        
'3-(1,2,3,4,5,11-Hexahydro-3-methyl-2,6-methano-10-methoxy-6H-azocino(4,5-b)indol-6-yl)phenol hydrobromide butanol solvate'
_symmetry_cell_setting           monoclinic
_symmetry_space_group_name_H-M   'P 21/n'
_symmetry_Int_Tables_number      14
_space_group_name_Hall           '-P 2yn'
loop_
_symmetry_equiv_pos_site_id
_symmetry_equiv_pos_as_xyz
1 x,y,z
2 1/2-x,1/2+y,1/2-z
3 -x,-y,-z
4 1/2+x,1/2-y,1/2+z
_cell_length_a                   11.172(2)
_cell_length_b                   9.988(1)
_cell_length_c                   23.361(2)
_cell_angle_alpha                90
_cell_angle_beta                 101.90(1)
_cell_angle_gamma                90
_cell_volume                     2550.74
_exptl_crystal_colour            colorless
_chemical_melting_point          'above 200deg.C'
_cell_formula_units_Z            4
loop_
_atom_site_label
_atom_site_type_symbol
_atom_site_fract_x
_atom_site_fract_y
_atom_site_fract_z
Br1 Br 1.1539(2) 0.3589(2) 0.4674(1)
C1 C 1.0757(15) 0.7652(17) 0.1958(7)
O1 O 1.0453(13) 0.8925(13) 0.1778(7)
C2 C 1.0014(14) 0.7014(16) 0.2276(7)
C3 C 1.0266(13) 0.5731(15) 0.2493(6)
C4 C 1.1294(15) 0.5090(18) 0.2374(7)
C5 C 1.2026(16) 0.5730(21) 0.2051(8)
C6 C 1.1770(15) 0.6995(20) 0.1838(8)
C7 C 0.7217(15) 0.5614(16) 0.3411(6)
C8 C 0.8528(15) 0.5415(14) 0.3755(6)
N1 N 0.8838(14) 0.3963(13) 0.3915(6)
C9 C 0.8033(22) 0.3340(20) 0.4276(9)
C10 C 0.8935(17) 0.3076(16) 0.3411(7)
C11 C 0.9770(16) 0.3656(14) 0.3043(7)
C12 C 0.8097(13) 0.5106(13) 0.2511(6)
C13 C 0.9405(13) 0.5102(14) 0.2848(6)
C14 C 0.7590(13) 0.4772(13) 0.1910(6)
C15 C 0.8083(15) 0.4481(16) 0.1418(6)
C16 C 0.7283(16) 0.4213(18) 0.0899(7)
C17 C 0.6016(16) 0.4250(17) 0.0843(7)
C18 C 0.5508(14) 0.4562(14) 0.1316(7)
O2 O 0.4296(10) 0.4655(13) 0.1324(5)
C19 C 0.3457(18) 0.4666(26) 0.0773(9)
C20 C 0.6312(13) 0.4806(14) 0.1849(6)
N2 N 0.6047(11) 0.5150(12) 0.2381(5)
C21 C 0.7134(14) 0.5298(14) 0.2778(6)
C22 C 0.9456(15) 0.5920(15) 0.3415(6)
H1 H 1.093(21) 0.916(24) 0.155(10)
H2 H 0.9326(14) 0.7455(16) 0.2346(7)
H3 H 1.1488(15) 0.4228(18) 0.2513(7)
H4 H 1.2711(16) 0.5289(21) 0.1976(8)
H5 H 1.2267(15) 0.7408(20) 0.1617(8)
H6 H 0.6667(15) 0.5035(16) 0.3569(6)
H7 H 0.6967(15) 0.6534(16) 0.3452(6)
H8 H 0.8627(15) 0.5933(14) 0.4118(6)
H9 H 0.9600(4) 0.3978(13) 0.4148(6)
H10 H 0.7979(22) 0.3919(20) 0.4598(9)
H11 H 0.8369(22) 0.2493(20) 0.4423(9)
H12 H 0.7231(22) 0.3205(20) 0.4039(9)
H13 H 0.8127(17) 0.2946(16) 0.3169(7)
H14 H 0.9244(17) 0.2207(16) 0.3558(7)
H15 H 0.9738(16) 0.3100(14) 0.2699(7)
H16 H 1.0605(16) 0.3651(14) 0.3266(7)
H17 H 0.8924(15) 0.4469(16) 0.1441(6)
H18 H 0.7599(16) 0.3999(18) 0.0572(7)
H19 H 0.5510(16) 0.4063(17) 0.0484(7)
H20 H 0.2637(18) 0.4735(26) 0.0835(9)
H21 H 0.3542(18) 0.3853(26) 0.0566(9)
H22 H 0.3630(18) 0.5418(26) 0.0547(9)
H23 H 0.5327(11) 0.5254(12) 0.2452(5)
H24 H 1.0270(15) 0.5857(15) 0.3658(6)
H25 H 0.9294(15) 0.6855(15) 0.3315(6)
O3 O 1.1832(19) 1.0067(18) 0.1133(10)
C23 C 1.1934(33) 1.1473(33) 0.1152(17)
C24 C 1.0704(36) 1.2162(45) 0.0963(27)
C25 C 1.0083(69) 1.1850(95) 0.0335(32)
C26 C 1.0206(94) 1.2939(93) -0.0128(46)
H26 H 1.237(29) 0.954(33) 0.085(14)
H27 H 1.2471(33) 1.1755(33) 0.0897(17)
H28 H 1.2302(33) 1.1748(33) 0.1547(17)
H29 H 1.0820(36) 1.3122(45) 0.1005(27)
H30 H 1.0171(36) 1.1885(45) 0.1221(27)
H31 H 0.9220(69) 1.1702(95) 0.0322(32)
H32 H 1.0419(69) 1.1018(95) 0.0222(32)
H33 H 0.9786(94) 1.2647(93) -0.0508(46)
H34 H 1.1055(94) 1.3077(93) -0.0131(46)
H35 H 0.9853(94) 1.3762(93) -0.0030(46)
loop_
_geom_bond_atom_site_label_1
_geom_bond_atom_site_label_2
_geom_bond_site_symmetry_1
_geom_bond_site_symmetry_2
C1 O1 1_555 1_555
O1 H1 1_555 1_555
C2 C1 1_555 1_555
C3 C2 1_555 1_555
C4 C3 1_555 1_555
C5 C4 1_555 1_555
C6 C1 1_555 1_555
C7 C8 1_555 1_555
C8 N1 1_555 1_555
N1 C9 1_555 1_555
C9 H10 1_555 1_555
C10 N1 1_555 1_555
C11 C10 1_555 1_555
C12 C13 1_555 1_555
C13 C3 1_555 1_555
C14 C12 1_555 1_555
C15 C14 1_555 1_555
C16 C15 1_555 1_555
C17 C16 1_555 1_555
C18 C17 1_555 1_555
O2 C18 1_555 1_555
C19 O2 1_555 1_555
C20 C14 1_555 1_555
N2 C20 1_555 1_555
C21 C7 1_555 1_555
C22 C8 1_555 1_555
O3 C23 1_555 1_555
C23 C24 1_555 1_555
C24 C25 1_555 1_555
C25 C26 1_555 1_555
C26 H33 1_555 1_555
H2 C2 1_555 1_555
H3 C4 1_555 1_555
H4 C5 1_555 1_555
H5 C6 1_555 1_555
H6 C7 1_555 1_555
H7 C7 1_555 1_555
H8 C8 1_555 1_555
H9 N1 1_555 1_555
H11 C9 1_555 1_555
H12 C9 1_555 1_555
H13 C10 1_555 1_555
H14 C10 1_555 1_555
H15 C11 1_555 1_555
H16 C11 1_555 1_555
H17 C15 1_555 1_555
H18 C16 1_555 1_555
H19 C17 1_555 1_555
H20 C19 1_555 1_555
H21 C19 1_555 1_555
H22 C19 1_555 1_555
H23 N2 1_555 1_555
H24 C22 1_555 1_555
H25 C22 1_555 1_555
H26 O3 1_555 1_555
H27 C23 1_555 1_555
H28 C23 1_555 1_555
H29 C24 1_555 1_555
H30 C24 1_555 1_555
H31 C25 1_555 1_555
H32 C25 1_555 1_555
H34 C26 1_555 1_555
H35 C26 1_555 1_555
C5 C6 1_555 1_555
C11 C13 1_555 1_555
C12 C21 1_555 1_555
C13 C22 1_555 1_555
C18 C20 1_555 1_555
N2 C21 1_555 1_555

#END
