
#######################################################################
#
#                 Cambridge Crystallographic Data Centre
#                                CCDC 
#
#######################################################################
#
# If this CIF has been generated from an entry in the Cambridge 
# Structural Database, then it will include bibliographic, chemical, 
# crystal, experimental, refinement or atomic coordinate data resulting 
# from the CCDC's data processing and validation procedures.
#
#######################################################################

data_TAZNIS
_chemical_formula_moiety         'C56 H72 N4 O4 S2'
_chemical_name_systematic        
10,16,27,33-Tetra-t-butyl-35,36,38,39-tetramethoxy-3,6,20,23-tetra-azaheptacyclo(29.3.1.1^3,6^.1^8,12^.1^14,18^.1^20,23^.1^25,29^)tetraconta-1(35),8(39),9,11,14(38),15,17,25(36),26,28,31,33-dodecaene-37,40-dithione
_symmetry_cell_setting           monoclinic
_symmetry_space_group_name_H-M   'C 2/c'
_symmetry_Int_Tables_number      15
_space_group_name_Hall           '-C 2yn'
loop_
_symmetry_equiv_pos_site_id
_symmetry_equiv_pos_as_xyz
1 x,y,z
2 1/2+x,1/2+y,z
3 -x,y,1/2-z
4 1/2-x,1/2+y,1/2-z
5 -x,-y,-z
6 1/2-x,1/2-y,-z
7 x,-y,1/2+z
8 1/2+x,1/2-y,1/2+z
_cell_length_a                   19.238(3)
_cell_length_b                   13.171(2)
_cell_length_c                   22.499(4)
_cell_angle_alpha                90
_cell_angle_beta                 105.022(4)
_cell_angle_gamma                90
_cell_volume                     5506.06
_exptl_crystal_colour            'pale yellow'
_exptl_crystal_description       block
_chemical_melting_point          'above 270deg.C'
_cell_formula_units_Z            4
loop_
_atom_site_label
_atom_site_type_symbol
_atom_site_fract_x
_atom_site_fract_y
_atom_site_fract_z
S1 S 1.15669(6) 0.33132(10) 0.32497(6)
N1 N 1.01890(17) 0.3785(3) 0.32574(13)
N2 N 1.08781(18) 0.5094(3) 0.33023(14)
O1 O 0.86075(14) 0.2734(2) 0.35797(12)
O2 O 0.83369(18) 0.4190(3) 0.54022(15)
C1 C 1.0879(2) 0.4056(3) 0.32762(17)
C2 C 0.9776(2) 0.4631(4) 0.32721(19)
H1 H 0.9291 0.4638 0.3268
C3 C 1.0200(3) 0.5442(4) 0.3293(2)
H2 H 1.0063 0.6118 0.3300
C4 C 0.9949(2) 0.2739(3) 0.32771(18)
H3 H 1.0292 0.2285 0.3167
H4 H 0.9489 0.2650 0.2978
C5 C 0.9214(2) 0.2469(3) 0.40391(18)
C6 C 0.9873(2) 0.2467(3) 0.39062(17)
C7 C 1.0481(2) 0.2248(3) 0.43738(19)
H5 H 1.0928 0.2251 0.4286
C8 C 1.0446(2) 0.2025(3) 0.49676(19)
C9 C 0.9765(2) 0.2031(3) 0.50739(19)
H6 H 0.9726 0.1879 0.5468
C10 C 0.9146(2) 0.2251(3) 0.46256(19)
C11 C 0.8409(2) 0.2279(4) 0.47526(19)
H7 H 0.8146 0.2858 0.4541
H8 H 0.8147 0.1672 0.4582
C12 C 0.8442(2) 0.3272(3) 0.5722(2)
C13 C 0.8426(2) 0.2346(3) 0.54193(19)
C14 C 0.8429(2) 0.1471(3) 0.5761(2)
H9 H 0.8416 0.0848 0.5564
C15 C 0.8451(2) 0.1474(3) 0.6379(2)
C16 C 0.8491(2) 0.2405(4) 0.6661(2)
H10 H 0.8524 0.2430 0.7081
C17 C 0.8484(2) 0.3300(3) 0.6346(2)
C18 C 0.8261(2) 0.1896(4) 0.3221(2)
H11 H 0.8601 0.1544 0.3049
H12 H 0.7870 0.2139 0.2894
H13 H 0.8078 0.1440 0.3477
C19 C 0.8889(3) 0.4580(4) 0.5168(3)
H14 H 0.9335 0.4254 0.5367
H15 H 0.8932 0.5298 0.5244
H16 H 0.8779 0.4457 0.4733
C20 C 1.1118(2) 0.1785(4) 0.5487(2)
C21 C 1.1598(11) 0.2726(11) 0.5622(11)
H17 H 1.2018 0.2579 0.5948
H18 H 1.1336 0.3274 0.5744
H19 H 1.1740 0.2916 0.5259
C22 C 1.1591(10) 0.0988(14) 0.5277(8)
H20 H 1.2009 0.0849 0.5608
H21 H 1.1739 0.1244 0.4930
H22 H 1.1321 0.0373 0.5164
C23 C 1.0976(14) 0.140(2) 0.6076(8)
H23 H 1.1426 0.1270 0.6371
H24 H 1.0699 0.0790 0.5995
H25 H 1.0714 0.1908 0.6237
C24 C 0.8406(3) 0.0483(4) 0.6720(2)
C25 C 0.7805(10) 0.0487(16) 0.7060(10)
H26 H 0.7352 0.0332 0.6775
H27 H 0.7779 0.1146 0.7236
H28 H 0.7909 -0.0014 0.7381
C26 C 0.9112(8) 0.036(2) 0.7213(10)
H29 H 0.9485 0.0164 0.7023
H30 H 0.9058 -0.0156 0.7499
H31 H 0.9238 0.0990 0.7426
C27 C 0.8291(15) -0.0471(14) 0.6322(10)
H32 H 0.8302 -0.0297 0.5910
H33 H 0.7833 -0.0765 0.6317
H34 H 0.8666 -0.0951 0.6489
C28 C 1.1524(3) 0.5692(3) 0.3325(2)
H35 H 1.1559 0.5820 0.2909
H36 H 1.1946 0.5307 0.3537
S1D S 0.84331(6) 0.66868(10) 0.67503(6)
N1D N 0.98110(17) 0.6215(3) 0.67426(13)
N2D N 0.91219(18) 0.4906(3) 0.66977(14)
O1D O 1.13925(14) 0.7266(2) 0.64203(12)
O2D O 1.16631(18) 0.5810(3) 0.45978(15)
C1D C 0.9121(2) 0.5944(3) 0.67238(17)
C2D C 1.0224(2) 0.5369(4) 0.67279(19)
H1D H 1.0709 0.5362 0.6732
C3D C 0.9800(3) 0.4558(4) 0.6707(2)
H2D H 0.9937 0.3882 0.6700
C4D C 1.0051(2) 0.7261(3) 0.67229(18)
H3D H 0.9708 0.7715 0.6833
H4D H 1.0511 0.7350 0.7022
C5D C 1.0786(2) 0.7531(3) 0.59609(18)
C6D C 1.0127(2) 0.7533(3) 0.60938(17)
C7D C 0.9519(2) 0.7752(3) 0.56262(19)
H5D H 0.9072 0.7749 0.5714
C8D C 0.9554(2) 0.7975(3) 0.50324(19)
C9D C 1.0235(2) 0.7969(3) 0.49261(19)
H6D H 1.0274 0.8121 0.4532
C10D C 1.0854(2) 0.7749(3) 0.53744(19)
C11D C 1.1591(2) 0.7721(4) 0.52474(19)
H7D H 1.1854 0.7142 0.5459
H8D H 1.1853 0.8328 0.5418
C12D C 1.1558(2) 0.6728(3) 0.4278(2)
C13D C 1.1574(2) 0.7654(3) 0.45807(19)
C14D C 1.1571(2) 0.8529(3) 0.4239(2)
H9D H 1.1584 0.9152 0.4436
C15D C 1.1549(2) 0.8526(3) 0.3621(2)
C16D C 1.1509(2) 0.7595(4) 0.3339(2)
H10D H 1.1476 0.7570 0.2919
C17D C 1.1516(2) 0.6700(3) 0.3654(2)
C18D C 1.1739(2) 0.8104(4) 0.6779(2)
H11D H 1.1399 0.8456 0.6951
H12D H 1.2130 0.7861 0.7106
H13D H 1.1922 0.8560 0.6523
C19D C 1.1111(3) 0.5420(4) 0.4832(3)
H14D H 1.0665 0.5746 0.4633
H15D H 1.1068 0.4702 0.4756
H16D H 1.1221 0.5543 0.5267
C20D C 0.8882(2) 0.8215(4) 0.4513(2)
C21D C 0.8402(11) 0.7274(11) 0.4378(11)
H17D H 0.7982 0.7421 0.4052
H18D H 0.8664 0.6726 0.4256
H19D H 0.8260 0.7084 0.4741
C22D C 0.8409(10) 0.9012(14) 0.4723(8)
H20D H 0.7991 0.9151 0.4392
H21D H 0.8261 0.8756 0.5070
H22D H 0.8679 0.9627 0.4836
C23D C 0.9024(14) 0.860(2) 0.3924(8)
H23D H 0.8574 0.8730 0.3629
H24D H 0.9301 0.9210 0.4005
H25D H 0.9286 0.8092 0.3763
C24D C 1.1594(3) 0.9517(4) 0.3280(2)
C25D C 1.2195(10) 0.9513(16) 0.2940(10)
H26D H 1.2648 0.9668 0.3225
H27D H 1.2221 0.8854 0.2764
H28D H 1.2091 1.0014 0.2619
C26D C 1.0888(8) 0.964(2) 0.2787(10)
H29D H 1.0515 0.9836 0.2977
H30D H 1.0942 1.0156 0.2501
H31D H 1.0762 0.9010 0.2574
C27D C 1.1709(15) 1.0471(14) 0.3678(10)
H32D H 1.1698 1.0297 0.4090
H33D H 1.2167 1.0765 0.3683
H34D H 1.1334 1.0951 0.3511
C28D C 0.8476(3) 0.4308(3) 0.6675(2)
H35D H 0.8441 0.4180 0.7091
H36D H 0.8054 0.4693 0.6463
C29? C 1.1803(4) 0.1910(9) 0.5282(4)
H37? H 1.2210 0.1760 0.5619
H38? H 1.1837 0.2597 0.5148
H39? H 1.1795 0.1454 0.4947
C30? C 1.1064(4) 0.0720(5) 0.5711(4)
H40? H 1.1483 0.0568 0.6038
H41? H 1.1033 0.0252 0.5378
H42? H 1.0641 0.0659 0.5860
C31? C 1.1156(4) 0.2519(6) 0.6021(3)
H43? H 1.1576 0.2373 0.6347
H44? H 1.0734 0.2441 0.6169
H45? H 1.1182 0.3203 0.5882
C32? C 0.7706(5) -0.0044(8) 0.6420(5)
H46? H 0.7684 -0.0179 0.5996
H47? H 0.7310 0.0385 0.6444
H48? H 0.7678 -0.0672 0.6629
C33? C 0.8447(7) 0.0685(6) 0.7402(3)
H49? H 0.8418 0.0052 0.7606
H50? H 0.8055 0.1115 0.7431
H51? H 0.8895 0.1012 0.7593
C34? C 0.9044(5) -0.0164(6) 0.6699(5)
H52? H 0.9035 -0.0303 0.6278
H53? H 0.9023 -0.0792 0.6911
H54? H 0.9480 0.0189 0.6894
loop_
_geom_bond_atom_site_label_1
_geom_bond_atom_site_label_2
_geom_bond_site_symmetry_1
_geom_bond_site_symmetry_2
S1 C1 1_555 1_555
N1 C1 1_555 1_555
N2 C1 1_555 1_555
O1 C5 1_555 1_555
O2 C12 1_555 1_555
C2 N1 1_555 1_555
H1 C2 1_555 1_555
C3 N2 1_555 1_555
H2 C3 1_555 1_555
C4 N1 1_555 1_555
H3 C4 1_555 1_555
H4 C4 1_555 1_555
C5 C6 1_555 1_555
C6 C4 1_555 1_555
C7 C6 1_555 1_555
H5 C7 1_555 1_555
C8 C7 1_555 1_555
C9 C8 1_555 1_555
H6 C9 1_555 1_555
C10 C5 1_555 1_555
C11 C10 1_555 1_555
H7 C11 1_555 1_555
H8 C11 1_555 1_555
C12 C13 1_555 1_555
C13 C11 1_555 1_555
C14 C13 1_555 1_555
H9 C14 1_555 1_555
C15 C14 1_555 1_555
C16 C15 1_555 1_555
H10 C16 1_555 1_555
C17 C12 1_555 1_555
C18 O1 1_555 1_555
H11 C18 1_555 1_555
H12 C18 1_555 1_555
H13 C18 1_555 1_555
C19 O2 1_555 1_555
H14 C19 1_555 1_555
H15 C19 1_555 1_555
H16 C19 1_555 1_555
C20 C8 1_555 1_555
C21 C20 1_555 1_555
H17 C21 1_555 1_555
H18 C21 1_555 1_555
H19 C21 1_555 1_555
C22 C20 1_555 1_555
H20 C22 1_555 1_555
H21 C22 1_555 1_555
H22 C22 1_555 1_555
C23 C20 1_555 1_555
H23 C23 1_555 1_555
H24 C23 1_555 1_555
H25 C23 1_555 1_555
C24 C15 1_555 1_555
C25 C24 1_555 1_555
H26 C25 1_555 1_555
H27 C25 1_555 1_555
H28 C25 1_555 1_555
C26 C24 1_555 1_555
H29 C26 1_555 1_555
H30 C26 1_555 1_555
H31 C26 1_555 1_555
C27 C24 1_555 1_555
H32 C27 1_555 1_555
H33 C27 1_555 1_555
H34 C27 1_555 1_555
C28 N2 1_555 1_555
H35 C28 1_555 1_555
H36 C28 1_555 1_555
S1D C1D 1_555 1_555
N1D C1D 1_555 1_555
N2D C1D 1_555 1_555
O1D C5D 1_555 1_555
O2D C12D 1_555 1_555
C2D N1D 1_555 1_555
H1D C2D 1_555 1_555
C3D N2D 1_555 1_555
H2D C3D 1_555 1_555
C4D N1D 1_555 1_555
H3D C4D 1_555 1_555
H4D C4D 1_555 1_555
C5D C6D 1_555 1_555
C6D C4D 1_555 1_555
C7D C6D 1_555 1_555
H5D C7D 1_555 1_555
C8D C7D 1_555 1_555
C9D C8D 1_555 1_555
H6D C9D 1_555 1_555
C10D C5D 1_555 1_555
C11D C10D 1_555 1_555
H7D C11D 1_555 1_555
H8D C11D 1_555 1_555
C12D C13D 1_555 1_555
C13D C11D 1_555 1_555
C14D C13D 1_555 1_555
H9D C14D 1_555 1_555
C15D C14D 1_555 1_555
C16D C15D 1_555 1_555
H10D C16D 1_555 1_555
C17D C28 1_555 1_555
C18D O1D 1_555 1_555
H11D C18D 1_555 1_555
H12D C18D 1_555 1_555
H13D C18D 1_555 1_555
C19D O2D 1_555 1_555
H14D C19D 1_555 1_555
H15D C19D 1_555 1_555
H16D C19D 1_555 1_555
C20D C8D 1_555 1_555
C21D C20D 1_555 1_555
H17D C21D 1_555 1_555
H18D C21D 1_555 1_555
H19D C21D 1_555 1_555
C22D C20D 1_555 1_555
H20D C22D 1_555 1_555
H21D C22D 1_555 1_555
H22D C22D 1_555 1_555
C23D C20D 1_555 1_555
H23D C23D 1_555 1_555
H24D C23D 1_555 1_555
H25D C23D 1_555 1_555
C24D C15D 1_555 1_555
C25D C24D 1_555 1_555
H26D C25D 1_555 1_555
H27D C25D 1_555 1_555
H28D C25D 1_555 1_555
C26D C24D 1_555 1_555
H29D C26D 1_555 1_555
H30D C26D 1_555 1_555
H31D C26D 1_555 1_555
C27D C24D 1_555 1_555
H32D C27D 1_555 1_555
H33D C27D 1_555 1_555
H34D C27D 1_555 1_555
C28D C17 1_555 1_555
H35D C28D 1_555 1_555
H36D C28D 1_555 1_555
C2 C3 1_555 1_555
C9 C10 1_555 1_555
C16 C17 1_555 1_555
N2D C28D 1_555 1_555
C2D C3D 1_555 1_555
C9D C10D 1_555 1_555
C12D C17D 1_555 1_555
C16D C17D 1_555 1_555

#END
