
#######################################################################
#
#                 Cambridge Crystallographic Data Centre
#                                CCDC 
#
#######################################################################
#
# If this CIF has been generated from an entry in the Cambridge 
# Structural Database, then it will include bibliographic, chemical, 
# crystal, experimental, refinement or atomic coordinate data resulting 
# from the CCDC's data processing and validation procedures.
#
#######################################################################

data_TAZZOL
_chemical_name_common            
3,3'-(4-(Dimethylamino)benzylidene)bis(4-hydroxycoumarin)
_chemical_formula_moiety         'C27 H21 N1 O6'
_chemical_name_systematic        
3,3'-((4-(Dimethylamino)phenyl)methylene)bis(4-hydroxy-2H-chromen-2-one)
_symmetry_cell_setting           monoclinic
_symmetry_space_group_name_H-M   'P 21/n'
_symmetry_Int_Tables_number      14
_space_group_name_Hall           '-P 2yn'
loop_
_symmetry_equiv_pos_site_id
_symmetry_equiv_pos_as_xyz
1 x,y,z
2 1/2-x,1/2+y,1/2-z
3 -x,-y,-z
4 1/2+x,1/2-y,1/2+z
_cell_length_a                   11.698(2)
_cell_length_b                   10.882(2)
_cell_length_c                   16.594(3)
_cell_angle_alpha                90
_cell_angle_beta                 90.69(3)
_cell_angle_gamma                90
_cell_volume                     2112.22
_exptl_crystal_colour            red
_exptl_crystal_description       block
_chemical_melting_point          '220 deg.C'
_cell_formula_units_Z            4
_exptl_crystal_recrystallization_method methanol
loop_
_atom_site_label
_atom_site_type_symbol
_atom_site_fract_x
_atom_site_fract_y
_atom_site_fract_z
O1 O 0.95547(19) 0.2019(2) 0.20730(13)
O2 O 0.77191(19) 0.2123(2) 0.18200(13)
O3 O 0.9088(2) -0.0199(2) 0.40357(14)
H1 H 0.8400(16) -0.016(4) 0.422(2)
O4 O 0.5651(2) 0.1326(2) 0.48187(13)
O5 O 0.6981(2) -0.0032(2) 0.46415(14)
O6 O 0.57212(19) 0.2432(2) 0.24603(12)
H2 H 0.625(2) 0.239(3) 0.2098(16)
N1 N 0.5307(2) -0.2027(3) 0.00657(15)
C1 C 1.0480(3) 0.1631(3) 0.25267(19)
C2 C 1.1561(3) 0.2002(4) 0.2289(2)
H3 H 1.1655 0.2504 0.1827
C3 C 1.2466(3) 0.1634(4) 0.2727(2)
H4 H 1.3210 0.1858 0.2558
C4 C 1.2352(3) 0.0944(4) 0.3411(2)
H5 H 1.3015 0.0719 0.3713
C5 C 1.1304(3) 0.0577(3) 0.3665(2)
H6 H 1.1235 0.0106 0.4144
C6 C 1.0325(3) 0.0898(3) 0.3214(2)
C7 C 0.9171(3) 0.0487(3) 0.33816(19)
C8 C 0.8280(3) 0.0769(3) 0.28817(18)
C9 C 0.8468(3) 0.1663(3) 0.2225(2)
C10 C 0.7084(3) 0.0229(3) 0.29586(17)
H7 H 0.7198 -0.0527 0.3293
C11 C 0.6328(3) 0.1035(3) 0.34617(18)
C12 C 0.6338(3) 0.0742(3) 0.4332(2)
C13 C 0.4977(3) 0.2315(3) 0.4545(2)
C14 C 0.4316(3) 0.2876(3) 0.5107(2)
H8 H 0.4301 0.2569 0.5643
C15 C 0.3678(3) 0.3872(4) 0.4903(2)
H9 H 0.3219 0.4265 0.5295
C16 C 0.3700(3) 0.4327(4) 0.4100(3)
H10 H 0.3268 0.5031 0.3948
C17 C 0.4376(3) 0.3708(3) 0.3537(2)
H11 H 0.4398 0.3987 0.2995
C18 C 0.5007(3) 0.2698(3) 0.3768(2)
C19 C 0.5729(3) 0.1999(3) 0.32036(18)
C20 C 0.6590(2) -0.0248(3) 0.21641(17)
C21 C 0.5418(3) -0.0357(3) 0.20132(18)
H12 H 0.4900 -0.0037 0.2396
C22 C 0.4984(3) -0.0916(3) 0.13229(18)
H13 H 0.4180 -0.0961 0.1239
C23 C 0.5724(3) -0.1420(3) 0.07436(18)
C24 C 0.6898(3) -0.1312(3) 0.08950(17)
H14 H 0.7422 -0.1637 0.0517
C25 C 0.7316(2) -0.0737(3) 0.15898(17)
H15 H 0.8119 -0.0679 0.1673
C26 C 0.6083(3) -0.2306(3) -0.05769(19)
H16 H 0.6426 -0.1543 -0.0774
H17 H 0.5663 -0.2709 -0.1018
H18 H 0.6686 -0.2855 -0.0376
C27 C 0.4105(3) -0.1915(3) -0.0134(2)
H19 H 0.3650 -0.2286 0.0294
H20 H 0.3945 -0.2337 -0.0645
H21 H 0.3904 -0.1044 -0.0187
loop_
_geom_bond_atom_site_label_1
_geom_bond_atom_site_label_2
_geom_bond_site_symmetry_1
_geom_bond_site_symmetry_2
O1 C1 1_555 1_555
O2 C9 1_555 1_555
O3 H1 1_555 1_555
O4 C12 1_555 1_555
O5 C12 1_555 1_555
O6 H2 1_555 1_555
N1 C23 1_555 1_555
C1 C2 1_555 1_555
C2 H3 1_555 1_555
C3 C2 1_555 1_555
H4 C3 1_555 1_555
C4 C3 1_555 1_555
H5 C4 1_555 1_555
C5 C4 1_555 1_555
H6 C5 1_555 1_555
C6 C1 1_555 1_555
C7 O3 1_555 1_555
C8 C7 1_555 1_555
C9 O1 1_555 1_555
C10 C8 1_555 1_555
H7 C10 1_555 1_555
C11 C10 1_555 1_555
C12 C11 1_555 1_555
C13 O4 1_555 1_555
C14 C13 1_555 1_555
H8 C14 1_555 1_555
C15 C14 1_555 1_555
H9 C15 1_555 1_555
C16 C15 1_555 1_555
H10 C16 1_555 1_555
C17 C16 1_555 1_555
H11 C17 1_555 1_555
C18 C13 1_555 1_555
C19 O6 1_555 1_555
C20 C10 1_555 1_555
C21 C20 1_555 1_555
H12 C21 1_555 1_555
C22 C21 1_555 1_555
H13 C22 1_555 1_555
C23 C22 1_555 1_555
C24 C23 1_555 1_555
H14 C24 1_555 1_555
C25 C20 1_555 1_555
H15 C25 1_555 1_555
C26 N1 1_555 1_555
H16 C26 1_555 1_555
H17 C26 1_555 1_555
H18 C26 1_555 1_555
C27 N1 1_555 1_555
H19 C27 1_555 1_555
H20 C27 1_555 1_555
H21 C27 1_555 1_555
C5 C6 1_555 1_555
C6 C7 1_555 1_555
C8 C9 1_555 1_555
C11 C19 1_555 1_555
C17 C18 1_555 1_555
C18 C19 1_555 1_555
C24 C25 1_555 1_555

#END
