
#######################################################################
#
#                 Cambridge Crystallographic Data Centre
#                                CCDC 
#
#######################################################################
#
# If this CIF has been generated from an entry in the Cambridge 
# Structural Database, then it will include bibliographic, chemical, 
# crystal, experimental, refinement or atomic coordinate data resulting 
# from the CCDC's data processing and validation procedures.
#
#######################################################################

data_TBPMTZ
_chemical_formula_moiety         'C10 H18 N4'
_chemical_name_systematic        8-t-Butyl-pentamethylene-tetrazole
_chemical_properties_biological  
'derivative of central stimulant, analeptic agent and narcotic antagonist for veterinary use'
_symmetry_cell_setting           monoclinic
_symmetry_space_group_name_H-M   'P 21/c'
_symmetry_Int_Tables_number      14
_space_group_name_Hall           '-P 2ybc'
loop_
_symmetry_equiv_pos_site_id
_symmetry_equiv_pos_as_xyz
1 x,y,z
2 -x,1/2+y,1/2-z
3 -x,-y,-z
4 x,1/2-y,1/2+z
_cell_length_a                   12.881(4)
_cell_length_b                   6.614(2)
_cell_length_c                   14.132(6)
_cell_angle_alpha                90
_cell_angle_beta                 111.52(2)
_cell_angle_gamma                90
_cell_volume                     1120.05
_chemical_melting_point          406K
_cell_formula_units_Z            4
loop_
_atom_site_label
_atom_site_type_symbol
_atom_site_fract_x
_atom_site_fract_y
_atom_site_fract_z
N1 N 0.90650 1.34100 0.10670
N2 N 0.95070 1.52650 0.12340
N3 N 0.91950 1.60710 0.19460
N4 N 0.85750 1.47790 0.22240
C1 C 0.85000 1.31080 0.16690
C2 C 0.79080 1.12740 0.17570
C3 C 0.70460 1.05500 0.07520
C4 C 0.75210 0.95760 0.00190
C5 C 0.81110 1.11270 -0.04110
C6 C 0.92090 1.19550 0.03390
C7 C 0.66500 0.82930 -0.08280
C8 C 0.72330 0.70910 -0.14160
C9 C 0.60960 0.67450 -0.03660
C10 C 0.57460 0.96290 -0.15700
H1 H 0.75600 1.15600 0.22300
H2 H 0.85100 1.01400 0.20800
H3 H 0.65200 1.17000 0.04000
H4 H 0.66000 0.94900 0.09500
H5 H 0.80900 0.86300 0.04100
H6 H 0.75800 1.22800 -0.07400
H7 H 0.82800 1.05300 -0.09500
H8 H 0.96900 1.08400 0.07200
H9 H 0.96100 1.26600 -0.00400
H10 H 0.78300 0.62800 -0.09500
H11 H 0.74800 0.79800 -0.18100
H12 H 0.66900 0.61600 -0.18900
H13 H 0.56400 0.73200 0.00000
H14 H 0.66700 0.59800 0.02000
H15 H 0.56600 0.58300 -0.09000
H16 H 0.60900 1.05100 -0.19200
H17 H 0.53700 1.04300 -0.11900
H18 H 0.52000 0.88100 -0.20900
loop_
_geom_bond_atom_site_label_1
_geom_bond_atom_site_label_2
_geom_bond_site_symmetry_1
_geom_bond_site_symmetry_2
N1 N2 1_555 1_555
N2 N3 1_555 1_555
N3 N4 1_555 1_555
N4 C1 1_555 1_555
C1 N1 1_555 1_555
C2 C1 1_555 1_555
C3 C2 1_555 1_555
C4 C3 1_555 1_555
C5 C4 1_555 1_555
C6 N1 1_555 1_555
C7 C4 1_555 1_555
C8 C7 1_555 1_555
C9 C7 1_555 1_555
C10 C7 1_555 1_555
H1 C2 1_555 1_555
H2 C2 1_555 1_555
H3 C3 1_555 1_555
H4 C3 1_555 1_555
H5 C4 1_555 1_555
H6 C5 1_555 1_555
H7 C5 1_555 1_555
H8 C6 1_555 1_555
H9 C6 1_555 1_555
H10 C8 1_555 1_555
H11 C8 1_555 1_555
H12 C8 1_555 1_555
H13 C9 1_555 1_555
H14 C9 1_555 1_555
H15 C9 1_555 1_555
H16 C10 1_555 1_555
H17 C10 1_555 1_555
H18 C10 1_555 1_555
C5 C6 1_555 1_555

#END
