
#######################################################################
#
#                 Cambridge Crystallographic Data Centre
#                                CCDC 
#
#######################################################################
#
# If this CIF has been generated from an entry in the Cambridge 
# Structural Database, then it will include bibliographic, chemical, 
# crystal, experimental, refinement or atomic coordinate data resulting 
# from the CCDC's data processing and validation procedures.
#
#######################################################################

data_TBRMBZ
_chemical_formula_moiety         'C6 H3 Br3'
_chemical_name_systematic        1,3,5-Tribromobenzene
_symmetry_cell_setting           orthorhombic
_symmetry_space_group_name_H-M   'P 21 21 21'
_symmetry_Int_Tables_number      19
_space_group_name_Hall           'P 2ac 2ab'
loop_
_symmetry_equiv_pos_site_id
_symmetry_equiv_pos_as_xyz
1 x,y,z
2 1/2+x,1/2-y,-z
3 -x,1/2+y,1/2-z
4 1/2-x,-y,1/2+z
_cell_length_a                   14.230
_cell_length_b                   13.550
_cell_length_c                   4.080
_cell_angle_alpha                90
_cell_angle_beta                 90
_cell_angle_gamma                90
_cell_volume                     786.691
_cell_formula_units_Z            4
loop_
_atom_site_label
_atom_site_type_symbol
_atom_site_fract_x
_atom_site_fract_y
_atom_site_fract_z
Br1 Br -0.65060 0.22610 0.59700
Br2 Br -0.64090 0.64030 0.68600
Br3 Br -0.34320 0.43630 0.07400
C1 C -0.59040 0.34490 0.51300
C2 C -0.63150 0.43350 0.61400
C3 C -0.58620 0.52270 0.55300
C4 C -0.49950 0.52370 0.39000
C5 C -0.45840 0.43510 0.29000
C6 C -0.50370 0.34570 0.35100
H1 H -0.69900 0.43300 0.73400
H2 H -0.46400 0.59300 0.34000
H3 H -0.47200 0.27700 0.27100
loop_
_geom_bond_atom_site_label_1
_geom_bond_atom_site_label_2
_geom_bond_site_symmetry_1
_geom_bond_site_symmetry_2
Br1 C1 1_555 1_555
Br2 C3 1_555 1_555
Br3 C5 1_555 1_555
C1 C2 1_555 1_555
C2 C3 1_555 1_555
C3 C4 1_555 1_555
C4 C5 1_555 1_555
C5 C6 1_555 1_555
C6 C1 1_555 1_555
H1 C2 1_555 1_555
H2 C4 1_555 1_555
H3 C6 1_555 1_555

#END
