
#######################################################################
#
#                 Cambridge Crystallographic Data Centre
#                                CCDC 
#
#######################################################################
#
# If this CIF has been generated from an entry in the Cambridge 
# Structural Database, then it will include bibliographic, chemical, 
# crystal, experimental, refinement or atomic coordinate data resulting 
# from the CCDC's data processing and validation procedures.
#
#######################################################################

data_TCBMPH
_chemical_formula_moiety         'C9 H18 N3 P1 S6'
_chemical_name_systematic        tris(N,N-Dimethyldithiocarbamato-S)-phosphine
_symmetry_cell_setting           monoclinic
_symmetry_space_group_name_H-M   'P 21/n'
_symmetry_Int_Tables_number      14
_space_group_name_Hall           '-P 2yn'
loop_
_symmetry_equiv_pos_site_id
_symmetry_equiv_pos_as_xyz
1 x,y,z
2 1/2-x,1/2+y,1/2-z
3 -x,-y,-z
4 1/2+x,1/2-y,1/2+z
_cell_length_a                   7.180(1)
_cell_length_b                   30.907(6)
_cell_length_c                   16.300(4)
_cell_angle_alpha                90
_cell_angle_beta                 91.20(2)
_cell_angle_gamma                90
_cell_volume                     3616.38
_cell_formula_units_Z            8
loop_
_atom_site_label
_atom_site_type_symbol
_atom_site_fract_x
_atom_site_fract_y
_atom_site_fract_z
P1 P 0.78920 0.33901 0.18870
S1 S 0.80750 0.39733 0.26600
S2 S 0.72340 0.31983 0.36720
S3 S 1.08080 0.32336 0.21460
S4 S 0.88910 0.26143 0.10300
S5 S 0.86480 0.37760 0.08390
S6 S 0.45420 0.37258 0.10420
N1 N 0.76390 0.39980 0.42430
N2 N 1.22720 0.24930 0.16860
N3 N 0.62200 0.41990 -0.00900
C1 C 0.76420 0.37310 0.36090
C2 C 1.07700 0.27410 0.16080
C3 C 0.63360 0.39270 0.05520
C4 C 0.73780 0.38310 0.50750
C5 C 0.79420 0.44660 0.41670
C6 C 1.38870 0.26100 0.22130
C7 C 1.24100 0.20970 0.12100
C8 C 0.78490 0.43720 -0.05100
C9 C 0.44550 0.43600 -0.03490
H1 H 0.64420 0.36000 0.50600
H2 H 0.85620 0.37150 0.52900
H3 H 0.69600 0.40650 0.54310
H4 H 0.88170 0.45620 0.46000
H5 H 0.84570 0.45300 0.36300
H6 H 0.67540 0.46170 0.42250
H7 H 1.34570 0.27650 0.26980
H8 H 1.45440 0.23460 0.23880
H9 H 1.47360 0.27950 0.19080
H10 H 1.16560 0.18700 0.14620
H11 H 1.19490 0.21480 0.06470
H12 H 1.37120 0.20020 0.11960
H13 H 0.87400 0.44880 -0.01020
H14 H 0.84430 0.41410 -0.08210
H15 H 0.74520 0.46040 -0.08840
H16 H 0.34680 0.41770 -0.01220
H17 H 0.43040 0.46570 -0.01550
H18 H 0.43570 0.43540 -0.09500
P2 P 0.72920 0.09096 0.21540
S7 S 0.70660 0.14037 0.12030
S8 S 0.78780 0.05463 0.04630
S9 S 0.44010 0.07186 0.19690
S10 S 0.63460 0.01400 0.31680
S11 S 0.64900 0.13724 0.30810
S12 S 1.05840 0.13780 0.28450
N4 N 0.75400 0.12800 -0.03700
N5 N 0.29110 0.00170 0.25520
N6 N 0.88300 0.18520 0.39430
C10 C 0.75110 0.10740 0.03390
C11 C 0.44690 0.02540 0.25860
C12 C 0.87430 0.15700 0.33270
C13 C 0.72470 0.17490 -0.04590
C14 C 0.78260 0.10430 -0.11340
C15 C 0.13190 0.01220 0.20560
C16 C 0.27300 -0.03730 0.30720
C17 C 0.71780 0.19900 0.43870
C18 C 1.05510 0.20610 0.41930
H19 H 0.65980 0.18090 -0.09810
H20 H 0.64910 0.18540 -0.00050
H21 H 0.84520 0.18980 -0.04460
H22 H 0.83830 0.07600 -0.10100
H23 H 0.66260 0.10010 -0.14210
H24 H 0.86610 0.12080 -0.14860
H25 H 0.14890 0.00120 0.14980
H26 H 0.02080 -0.00110 0.22880
H27 H 0.11560 0.04370 0.20370
H28 H 0.32450 -0.03150 0.36220
H29 H 0.14080 -0.04500 0.31110
H30 H 0.34060 -0.06140 0.28250
H31 H 0.75540 0.21810 0.48420
H32 H 0.63330 0.21470 0.40120
H33 H 0.65400 0.17360 0.46040
H34 H 1.04830 0.21500 0.47700
H35 H 1.15940 0.18610 0.41280
H36 H 1.07460 0.23190 0.38520
loop_
_geom_bond_atom_site_label_1
_geom_bond_atom_site_label_2
_geom_bond_site_symmetry_1
_geom_bond_site_symmetry_2
P1 S1 1_555 1_555
S1 C1 1_555 1_555
S2 C1 1_555 1_555
S3 P1 1_555 1_555
S4 C2 1_555 1_555
S5 P1 1_555 1_555
S6 C3 1_555 1_555
N1 C1 1_555 1_555
N2 C2 1_555 1_555
N3 C3 1_555 1_555
C2 S3 1_555 1_555
C3 S5 1_555 1_555
C4 N1 1_555 1_555
C5 N1 1_555 1_555
C6 N2 1_555 1_555
C7 N2 1_555 1_555
C8 N3 1_555 1_555
C9 N3 1_555 1_555
H1 C4 1_555 1_555
H2 C4 1_555 1_555
H3 C4 1_555 1_555
H4 C5 1_555 1_555
H5 C5 1_555 1_555
H6 C5 1_555 1_555
H7 C6 1_555 1_555
H8 C6 1_555 1_555
H9 C6 1_555 1_555
H10 C7 1_555 1_555
H11 C7 1_555 1_555
H12 C7 1_555 1_555
H13 C8 1_555 1_555
H14 C8 1_555 1_555
H15 C8 1_555 1_555
H16 C9 1_555 1_555
H17 C9 1_555 1_555
H18 C9 1_555 1_555
P2 S7 1_555 1_555
S7 C10 1_555 1_555
S8 C10 1_555 1_555
S9 P2 1_555 1_555
S10 C11 1_555 1_555
S11 P2 1_555 1_555
S12 C12 1_555 1_555
N4 C10 1_555 1_555
N5 C11 1_555 1_555
N6 C12 1_555 1_555
C11 S9 1_555 1_555
C12 S11 1_555 1_555
C13 N4 1_555 1_555
C14 N4 1_555 1_555
C15 N5 1_555 1_555
C16 N5 1_555 1_555
C17 N6 1_555 1_555
C18 N6 1_555 1_555
H19 C13 1_555 1_555
H20 C13 1_555 1_555
H21 C13 1_555 1_555
H22 C14 1_555 1_555
H23 C14 1_555 1_555
H24 C14 1_555 1_555
H25 C15 1_555 1_555
H26 C15 1_555 1_555
H27 C15 1_555 1_555
H28 C16 1_555 1_555
H29 C16 1_555 1_555
H30 C16 1_555 1_555
H31 C17 1_555 1_555
H32 C17 1_555 1_555
H33 C17 1_555 1_555
H34 C18 1_555 1_555
H35 C18 1_555 1_555
H36 C18 1_555 1_555

#END
