
#######################################################################
#
#                 Cambridge Crystallographic Data Centre
#                                CCDC 
#
#######################################################################
#
# If this CIF has been generated from an entry in the Cambridge 
# Structural Database, then it will include bibliographic, chemical, 
# crystal, experimental, refinement or atomic coordinate data resulting 
# from the CCDC's data processing and validation procedures.
#
#######################################################################

data_TCOCBR
_chemical_formula_moiety         'C15 H16 Br1 N1 O1'
_chemical_name_systematic        
endo-N-(p-Bromophenyl)-tricyclo(4.2.0.0^1,4^)octane-3-carboxamide
_symmetry_cell_setting           monoclinic
_symmetry_space_group_name_H-M   'P 21/c'
_symmetry_Int_Tables_number      14
_space_group_name_Hall           '-P 2ybc'
loop_
_symmetry_equiv_pos_site_id
_symmetry_equiv_pos_as_xyz
1 x,y,z
2 -x,1/2+y,1/2-z
3 -x,-y,-z
4 x,1/2-y,1/2+z
_cell_length_a                   6.838(1)
_cell_length_b                   20.635(3)
_cell_length_c                   9.740(2)
_cell_angle_alpha                90
_cell_angle_beta                 95.62(2)
_cell_angle_gamma                90
_cell_volume                     1367.73
_chemical_melting_point          207-8deg.C
_cell_formula_units_Z            4
loop_
_atom_site_label
_atom_site_type_symbol
_atom_site_fract_x
_atom_site_fract_y
_atom_site_fract_z
Br1 Br 0.19849 0.05047 0.12346
O1 O 1.02270 0.24160 0.03200
N1 N 0.93760 0.21360 0.24470
C1 C 1.29760 0.37830 0.15730
C2 C 1.37270 0.30980 0.14310
C3 C 1.21450 0.28430 0.23100
C4 C 1.15720 0.35550 0.26350
C5 C 0.98050 0.38470 0.17580
C6 C 1.11400 0.40730 0.06860
C7 C 1.20640 0.47560 0.09460
C8 C 1.39910 0.44400 0.16010
C9 C 0.76740 0.17590 0.21070
C10 C 0.64570 0.16440 0.31250
C11 C 0.47700 0.12710 0.28730
C12 C 0.43210 0.10150 0.15840
C13 C 0.55160 0.11160 0.05580
C14 C 0.72050 0.14870 0.08140
C15 C 1.05250 0.24440 0.15770
H1 H 1.36500 0.29100 0.05000
H2 H 1.50000 0.30300 0.18400
H3 H 1.25400 0.26200 0.31400
H4 H 1.16900 0.36600 0.35600
H5 H 0.87600 0.35700 0.14800
H6 H 0.91200 0.41600 0.21300
H7 H 1.07000 0.39300 -0.03200
H8 H 1.14200 0.49900 0.16700
H9 H 1.22100 0.49900 -0.00200
H10 H 1.50300 0.44700 0.10800
H11 H 1.46000 0.46100 0.24900
H12 H 0.97100 0.22400 0.32800
H13 H 0.67500 0.18400 0.39800
H14 H 0.39300 0.12400 0.35500
H15 H 0.52600 0.09300 -0.02800
H16 H 0.80000 0.15500 0.01400
loop_
_geom_bond_atom_site_label_1
_geom_bond_atom_site_label_2
_geom_bond_site_symmetry_1
_geom_bond_site_symmetry_2
Br1 C12 1_555 1_555
O1 C15 1_555 1_555
N1 C9 1_555 1_555
C1 C2 1_555 1_555
C2 C3 1_555 1_555
C3 C4 1_555 1_555
C4 C1 1_555 1_555
C5 C4 1_555 1_555
C6 C1 1_555 1_555
C7 C6 1_555 1_555
C8 C1 1_555 1_555
C9 C10 1_555 1_555
C10 C11 1_555 1_555
C11 C12 1_555 1_555
C12 C13 1_555 1_555
C13 C14 1_555 1_555
C14 C9 1_555 1_555
C15 N1 1_555 1_555
H1 C2 1_555 1_555
H2 C2 1_555 1_555
H3 C3 1_555 1_555
H4 C4 1_555 1_555
H5 C5 1_555 1_555
H6 C5 1_555 1_555
H7 C6 1_555 1_555
H8 C7 1_555 1_555
H9 C7 1_555 1_555
H10 C8 1_555 1_555
H11 C8 1_555 1_555
H12 N1 1_555 1_555
H13 C10 1_555 1_555
H14 C11 1_555 1_555
H15 C13 1_555 1_555
H16 C14 1_555 1_555
C3 C15 1_555 1_555
C5 C6 1_555 1_555
C7 C8 1_555 1_555

#END
