
#######################################################################
#
#                 Cambridge Crystallographic Data Centre
#                                CCDC 
#
#######################################################################
#
# If this CIF has been generated from an entry in the Cambridge 
# Structural Database, then it will include bibliographic, chemical, 
# crystal, experimental, refinement or atomic coordinate data resulting 
# from the CCDC's data processing and validation procedures.
#
#######################################################################

data_TCYHBP01
_chemical_formula_moiety         'C24 H44 P2'
_chemical_name_systematic        Tetracyclohexyldiphosphane
_symmetry_cell_setting           triclinic
_symmetry_space_group_name_H-M   'P -1'
_symmetry_Int_Tables_number      2
_space_group_name_Hall           '-P 1'
loop_
_symmetry_equiv_pos_site_id
_symmetry_equiv_pos_as_xyz
1 x,y,z
2 -x,-y,-z
_cell_length_a                   10.8532(1)
_cell_length_b                   10.8128(1)
_cell_length_c                   11.7494(1)
_cell_angle_alpha                111.657(1)
_cell_angle_beta                 98.605(1)
_cell_angle_gamma                110.650(1)
_cell_volume                     1135.43
_exptl_crystal_colour            colorless
_exptl_crystal_description       block
_cell_formula_units_Z            2
loop_
_atom_site_label
_atom_site_type_symbol
_atom_site_fract_x
_atom_site_fract_y
_atom_site_fract_z
P1 P 0.44172(4) 0.38199(5) 0.79495(4)
P2 P 0.42651(4) 0.16104(5) 0.67579(4)
C1 C 0.34684(17) 0.43113(19) 0.68764(17)
H1 H 0.3560 0.3888 0.6007
C2 C 0.40553(19) 0.59919(19) 0.74173(19)
H2 H 0.4015 0.6420 0.8297
H3 H 0.5032 0.6407 0.7459
C3 C 0.3246(2) 0.6404(2) 0.6584(2)
H4 H 0.3353 0.6045 0.5724
H5 H 0.3626 0.7487 0.6966
C4 C 0.1718(2) 0.5749(2) 0.6449(2)
H6 H 0.1601 0.6194 0.7293
H7 H 0.1216 0.5981 0.5855
C5 C 0.1118(2) 0.4088(2) 0.5943(2)
H8 H 0.0150 0.3699 0.5931
H9 H 0.1126 0.3633 0.5054
C6 C 0.19343(18) 0.3676(2) 0.67682(18)
H10 H 0.1543 0.2592 0.6393
H11 H 0.1848 0.4049 0.7635
C7 C 0.62777(17) 0.50066(19) 0.82935(16)
H12 H 0.6428 0.6045 0.8769
C8 C 0.68092(19) 0.4925(2) 0.71584(18)
H13 H 0.6250 0.5129 0.6581
H14 H 0.6712 0.3921 0.6669
C9 C 0.8331(2) 0.6044(2) 0.7621(2)
H15 H 0.8662 0.5935 0.6874
H16 H 0.8412 0.7052 0.8033
C10 C 0.9226(2) 0.5832(2) 0.8563(2)
H17 H 1.0179 0.6618 0.8890
H18 H 0.9245 0.4876 0.8120
C11 C 0.86933(19) 0.5868(2) 0.96780(19)
H19 H 0.8792 0.6867 1.0190
H20 H 0.9253 0.5644 1.0237
C12 C 0.71733(18) 0.4749(2) 0.92112(18)
H21 H 0.7088 0.3742 0.8772
H22 H 0.6845 0.4833 0.9957
C13 C 0.30860(17) 0.08818(18) 0.51123(16)
H23 H 0.2369 0.1247 0.5174
C14 C 0.39230(18) 0.1446(2) 0.43337(17)
H24 H 0.4369 0.2534 0.4764
H25 H 0.4656 0.1116 0.4295
C15 C 0.3010(2) 0.0883(2) 0.29814(18)
H26 H 0.3580 0.1239 0.2494
H27 H 0.2323 0.1278 0.3018
C16 C 0.2268(2) -0.0792(2) 0.22941(18)
H28 H 0.1639 -0.1125 0.1438
H29 H 0.2950 -0.1186 0.2172
C17 C 0.1451(2) -0.1382(2) 0.30547(18)
H30 H 0.1028 -0.2470 0.2619
H31 H 0.0701 -0.1079 0.3094
C18 C 0.2373(2) -0.08109(19) 0.44112(17)
H32 H 0.3079 -0.1179 0.4374
H33 H 0.1811 -0.1188 0.4895
C19 C 0.31943(18) 0.05388(19) 0.74601(17)
H34 H 0.2983 -0.0513 0.6939
C20 C 0.4071(2) 0.1018(2) 0.88179(18)
H35 H 0.4929 0.0917 0.8787
H36 H 0.4327 0.2067 0.9361
C21 C 0.3299(2) 0.0098(2) 0.94111(19)
H37 H 0.3868 0.0477 1.0304
H38 H 0.3139 -0.0932 0.8926
C22 C 0.1918(2) 0.0139(2) 0.9402(2)
H39 H 0.1420 -0.0510 0.9750
H40 H 0.2081 0.1152 0.9961
C23 C 0.1042(2) -0.0358(2) 0.8060(2)
H41 H 0.0175 -0.0273 0.8086
H42 H 0.0802 -0.1403 0.7521
C24 C 0.18122(19) 0.0578(2) 0.74692(19)
H43 H 0.1975 0.1607 0.7965
H44 H 0.1237 0.0208 0.6581
loop_
_geom_bond_atom_site_label_1
_geom_bond_atom_site_label_2
_geom_bond_site_symmetry_1
_geom_bond_site_symmetry_2
P1 P2 1_555 1_555
P2 C13 1_555 1_555
C1 P1 1_555 1_555
H1 C1 1_555 1_555
C2 C1 1_555 1_555
H2 C2 1_555 1_555
H3 C2 1_555 1_555
C3 C2 1_555 1_555
H4 C3 1_555 1_555
H5 C3 1_555 1_555
C4 C3 1_555 1_555
H6 C4 1_555 1_555
H7 C4 1_555 1_555
C5 C4 1_555 1_555
H8 C5 1_555 1_555
H9 C5 1_555 1_555
C6 C1 1_555 1_555
H10 C6 1_555 1_555
H11 C6 1_555 1_555
C7 P1 1_555 1_555
H12 C7 1_555 1_555
C8 C7 1_555 1_555
H13 C8 1_555 1_555
H14 C8 1_555 1_555
C9 C8 1_555 1_555
H15 C9 1_555 1_555
H16 C9 1_555 1_555
C10 C9 1_555 1_555
H17 C10 1_555 1_555
H18 C10 1_555 1_555
C11 C10 1_555 1_555
H19 C11 1_555 1_555
H20 C11 1_555 1_555
C12 C7 1_555 1_555
H21 C12 1_555 1_555
H22 C12 1_555 1_555
C13 H23 1_555 1_555
C14 C13 1_555 1_555
H24 C14 1_555 1_555
H25 C14 1_555 1_555
C15 C14 1_555 1_555
H26 C15 1_555 1_555
H27 C15 1_555 1_555
C16 C15 1_555 1_555
H28 C16 1_555 1_555
H29 C16 1_555 1_555
C17 C16 1_555 1_555
H30 C17 1_555 1_555
H31 C17 1_555 1_555
C18 C13 1_555 1_555
H32 C18 1_555 1_555
H33 C18 1_555 1_555
C19 P2 1_555 1_555
H34 C19 1_555 1_555
C20 C19 1_555 1_555
H35 C20 1_555 1_555
H36 C20 1_555 1_555
C21 C20 1_555 1_555
H37 C21 1_555 1_555
H38 C21 1_555 1_555
C22 C21 1_555 1_555
H39 C22 1_555 1_555
H40 C22 1_555 1_555
C23 C22 1_555 1_555
H41 C23 1_555 1_555
H42 C23 1_555 1_555
C24 C19 1_555 1_555
H43 C24 1_555 1_555
H44 C24 1_555 1_555
C5 C6 1_555 1_555
C11 C12 1_555 1_555
C17 C18 1_555 1_555
C23 C24 1_555 1_555

#END
