
#######################################################################
#
#                 Cambridge Crystallographic Data Centre
#                                CCDC 
#
#######################################################################
#
# If this CIF has been generated from an entry in the Cambridge 
# Structural Database, then it will include bibliographic, chemical, 
# crystal, experimental, refinement or atomic coordinate data resulting 
# from the CCDC's data processing and validation procedures.
#
#######################################################################

data_TCYQME02
_chemical_formula_moiety         'C12 H4 N4'
_chemical_name_systematic        7,7,8,8-Tetracyanoquinodimethane
_symmetry_cell_setting           monoclinic
_symmetry_space_group_name_H-M   'C c'
_symmetry_Int_Tables_number      9
_space_group_name_Hall           'C -2yc'
loop_
_symmetry_equiv_pos_site_id
_symmetry_equiv_pos_as_xyz
1 x,y,z
2 1/2+x,1/2+y,z
3 x,-y,1/2+z
4 1/2+x,1/2-y,1/2+z
_cell_length_a                   8.910(4)
_cell_length_b                   7.068(1)
_cell_length_c                   16.403(1)
_cell_angle_alpha                90
_cell_angle_beta                 98.510
_cell_angle_gamma                90
_cell_volume                     1021.62
_cell_formula_units_Z            4
loop_
_atom_site_label
_atom_site_type_symbol
_atom_site_fract_x
_atom_site_fract_y
_atom_site_fract_z
C1 C -0.1318(6) -0.0559(5) 0.2665(2)
C2 C 0.0232(13) -0.0797(12) 0.2548(6)
C3 C 0.1389(6) -0.0233(6) 0.3124(3)
C4 C 0.1104(5) 0.0553(5) 0.3891(2)
C5 C -0.0441(11) 0.0765(13) 0.4026(6)
C6 C -0.1611(6) 0.0282(5) 0.3442(2)
C7 C -0.2502(15) -0.1110(11) 0.2062(7)
C8 C -0.4061(15) -0.0832(12) 0.2193(7)
C9 C -0.2241(5) -0.1934(6) 0.1314(2)
C10 C 0.2282(15) 0.1047(10) 0.4470(6)
C11 C 0.3834(14) 0.0836(12) 0.4374(7)
C12 C 0.2059(5) 0.1833(6) 0.5268(2)
N1 N -0.5284(6) -0.0647(6) 0.2259(2)
N2 N -0.2053(4) -0.2513(6) 0.0673(2)
N3 N 0.5079(15) 0.0649(14) 0.4251(7)
N4 N 0.1869(5) 0.2535(6) 0.5863(2)
loop_
_geom_bond_atom_site_label_1
_geom_bond_atom_site_label_2
_geom_bond_site_symmetry_1
_geom_bond_site_symmetry_2
C1 C2 1_555 1_555
C2 C3 1_555 1_555
C3 C4 1_555 1_555
C4 C5 1_555 1_555
C5 C6 1_555 1_555
C6 C1 1_555 1_555
C7 C1 1_555 1_555
C8 C7 1_555 1_555
C9 C7 1_555 1_555
C10 C4 1_555 1_555
C11 C10 1_555 1_555
C12 C10 1_555 1_555
N1 C8 1_555 1_555
N2 C9 1_555 1_555
N3 C11 1_555 1_555
N4 C12 1_555 1_555

#END
