
#######################################################################
#
#                 Cambridge Crystallographic Data Centre
#                                CCDC 
#
#######################################################################
#
# If this CIF has been generated from an entry in the Cambridge 
# Structural Database, then it will include bibliographic, chemical, 
# crystal, experimental, refinement or atomic coordinate data resulting 
# from the CCDC's data processing and validation procedures.
#
#######################################################################

data_TDCHCH02
_chemical_formula_moiety         'C6 H10 Cl2'
_chemical_name_systematic        trans-1,4-Dichlorocyclohexane
_symmetry_cell_setting           triclinic
_symmetry_space_group_name_H-M   'P -1'
_symmetry_Int_Tables_number      2
_space_group_name_Hall           '-P 1'
loop_
_symmetry_equiv_pos_site_id
_symmetry_equiv_pos_as_xyz
1 x,y,z
2 -x,-y,-z
_cell_length_a                   5.408(1)
_cell_length_b                   5.792(1)
_cell_length_c                   11.685(2)
_cell_angle_alpha                104.91(1)
_cell_angle_beta                 92.28(2)
_cell_angle_gamma                91.78(2)
_cell_volume                     353.084
_exptl_crystal_description       needle
_cell_formula_units_Z            2
_exptl_crystal_recrystallization_method sublimation
loop_
_atom_site_label
_atom_site_type_symbol
_atom_site_fract_x
_atom_site_fract_y
_atom_site_fract_z
Cl1 Cl 0.6468(1) 0.2618(1) 0.8577(1)
C1 C 0.9005(3) 0.1590(3) 0.9340(1)
C2 C 0.8421(3) 0.1883(3) 1.0627(2)
C3 C 0.9464(4) -0.0984(3) 0.8720(1)
H1 H 1.0340(43) 0.2637(41) 0.9293(21)
H2 H 0.8093(46) 0.3544(45) 1.1036(22)
H3 H 0.6887(45) 0.0926(43) 1.0668(21)
H4 H 0.8097(57) -0.2018(57) 0.8727(27)
H5 H 0.9969(50) -0.1155(47) 0.7913(23)
C3A C 1.0536(4) 0.0984(3) 1.1280(1)
C1A C 1.0995(3) -0.1590(3) 1.0660(1)
Cl1A Cl 1.3532(1) -0.2618(1) 1.1423(1)
C2A C 1.1579(3) -0.1883(3) 0.9373(2)
H2A H 1.1907(46) -0.3544(45) 0.8964(22)
H3A H 1.3113(45) -0.0926(43) 0.9332(21)
H1A H 0.9660(43) -0.2637(41) 1.0707(21)
H4A H 1.1903(57) 0.2018(57) 1.1273(27)
H5A H 1.0031(50) 0.1155(47) 1.2087(23)
Cl2 Cl 1.1250(1) 0.2934(1) 0.6530(1)
C4 C 1.3897(3) 0.3814(3) 0.5817(1)
C5 C 1.3596(3) 0.2745(3) 0.4489(2)
C6 C 1.4181(3) 0.6517(3) 0.6122(2)
H6 H 1.5292(45) 0.3203(42) 0.6193(21)
H7 H 1.3464(44) 0.1003(43) 0.4339(21)
H8 H 1.2147(47) 0.3242(44) 0.4183(22)
H9 H 1.2644(38) 0.7148(36) 0.5837(18)
H10 H 1.4476(48) 0.7064(45) 0.6982(23)
C6A C 1.5819(3) 0.3483(3) 0.3878(2)
C4A C 1.6103(3) 0.6186(3) 0.4183(1)
Cl2A Cl 1.8750(1) 0.7066(1) 0.3470(1)
C5A C 1.6404(3) 0.7255(3) 0.5511(2)
H7A H 1.6536(44) 0.8997(43) 0.5661(21)
H8A H 1.7853(47) 0.6758(44) 0.5817(22)
H6A H 1.4708(45) 0.6797(42) 0.3807(21)
H9A H 1.7356(38) 0.2852(36) 0.4163(18)
H10A H 1.5524(48) 0.2936(45) 0.3018(23)
loop_
_geom_bond_atom_site_label_1
_geom_bond_atom_site_label_2
_geom_bond_site_symmetry_1
_geom_bond_site_symmetry_2
Cl1 C1 1_555 1_555
Cl2 C4 1_555 1_555
C1 C2 1_555 1_555
C2 H2 1_555 1_555
C3 C1 1_555 1_555
C4 C5 1_555 1_555
C5 H7 1_555 1_555
C6 C4 1_555 1_555
H1 C1 1_555 1_555
H3 C2 1_555 1_555
H4 C3 1_555 1_555
H5 C3 1_555 1_555
H6 C4 1_555 1_555
H8 C5 1_555 1_555
H9 C6 1_555 1_555
H10 C6 1_555 1_555
C3A C2 1_555 1_555
C1A C3A 1_555 1_555
Cl1A C1A 1_555 1_555
C2A C3 1_555 1_555
H2A C2A 1_555 1_555
H3A C2A 1_555 1_555
H1A C1A 1_555 1_555
H4A C3A 1_555 1_555
H5A C3A 1_555 1_555
C6A C5 1_555 1_555
C4A C6A 1_555 1_555
Cl2A C4A 1_555 1_555
C5A C6 1_555 1_555
H7A C5A 1_555 1_555
H8A C5A 1_555 1_555
H6A C4A 1_555 1_555
H9A C6A 1_555 1_555
H10A C6A 1_555 1_555
C1A C2A 1_555 1_555
C4A C5A 1_555 1_555

#END
