
#######################################################################
#
#                 Cambridge Crystallographic Data Centre
#                                CCDC 
#
#######################################################################
#
# If this CIF has been generated from an entry in the Cambridge 
# Structural Database, then it will include bibliographic, chemical, 
# crystal, experimental, refinement or atomic coordinate data resulting 
# from the CCDC's data processing and validation procedures.
#
#######################################################################

data_TEBBIN
_chemical_formula_moiety         'C22 H24 N6 O2'
_chemical_name_systematic        
1,10-bis(1H-Benzotriazol-1-yl)decane-1,10-dione
_symmetry_cell_setting           triclinic
_symmetry_space_group_name_H-M   'P -1'
_symmetry_Int_Tables_number      2
_space_group_name_Hall           '-P 1'
loop_
_symmetry_equiv_pos_site_id
_symmetry_equiv_pos_as_xyz
1 x,y,z
2 -x,-y,-z
_cell_length_a                   5.5290(11)
_cell_length_b                   7.9410(16)
_cell_length_c                   12.401(3)
_cell_angle_alpha                72.19(3)
_cell_angle_beta                 78.87(3)
_cell_angle_gamma                82.82(3)
_cell_volume                     507.363
_exptl_crystal_colour            white
_exptl_crystal_description       block
_cell_formula_units_Z            1
loop_
_atom_site_label
_atom_site_type_symbol
_atom_site_fract_x
_atom_site_fract_y
_atom_site_fract_z
O1 O 0.4576(3) 0.3783(2) 0.33666(14)
N1 N 0.9791(3) 0.6042(2) 0.18077(15)
C1 C 1.2876(4) 0.2654(3) 0.06492(18)
H1 H 1.4398 0.2975 0.0205
N2 N 1.1691(3) 0.5481(2) 0.11996(15)
C2 C 1.2010(4) 0.1045(3) 0.08053(19)
H2 H 1.2968 0.0246 0.0457
N3 N 0.8133(3) 0.4746(2) 0.22354(13)
C3 C 0.9737(4) 0.0568(3) 0.14690(19)
H3 H 0.9228 -0.0542 0.1547
C4 C 0.8205(4) 0.1665(3) 0.20164(18)
H4 H 0.6688 0.1333 0.2461
C5 C 0.9077(3) 0.3296(2) 0.18601(15)
C6 C 1.1339(3) 0.3791(2) 0.11979(16)
C7 C 0.5872(4) 0.4995(3) 0.29608(16)
C8 C 0.5356(4) 0.6781(3) 0.31412(19)
H5 H 0.5351 0.7662 0.2400
H6 H 0.6687 0.7007 0.3475
C9 C 0.2914(4) 0.7012(3) 0.39138(18)
H7 H 0.1562 0.6907 0.3548
H8 H 0.2846 0.6073 0.4634
C10 C 0.2597(4) 0.8785(3) 0.41554(19)
H9 H 0.2741 0.9714 0.3430
H10 H 0.3929 0.8865 0.4540
C11 C 0.0156(4) 0.9111(3) 0.48862(17)
H11 H -0.1178 0.9021 0.4505
H12 H 0.0017 0.8189 0.5615
O1A O -0.4576(3) 1.6217(2) 0.66334(14)
N1A N -0.9791(3) 1.3958(2) 0.81923(15)
C1A C -1.2876(4) 1.7346(3) 0.93508(18)
H1A H -1.4398 1.7025 0.9795
N2A N -1.1691(3) 1.4519(2) 0.88004(15)
C2A C -1.2010(4) 1.8955(3) 0.91947(19)
H2A H -1.2968 1.9754 0.9543
N3A N -0.8133(3) 1.5254(2) 0.77646(13)
C3A C -0.9737(4) 1.9432(3) 0.85310(19)
H3A H -0.9228 2.0542 0.8453
C4A C -0.8205(4) 1.8335(3) 0.79836(18)
H4A H -0.6688 1.8667 0.7539
C5A C -0.9077(3) 1.6704(2) 0.81399(15)
C6A C -1.1339(3) 1.6209(2) 0.88021(16)
C7A C -0.5872(4) 1.5005(3) 0.70392(16)
C8A C -0.5356(4) 1.3219(3) 0.68588(19)
H5A H -0.5351 1.2338 0.7600
H6A H -0.6687 1.2993 0.6525
C9A C -0.2914(4) 1.2988(3) 0.60862(18)
H7A H -0.1562 1.3093 0.6452
H8A H -0.2846 1.3927 0.5366
C10A C -0.2597(4) 1.1215(3) 0.58446(19)
H9A H -0.2741 1.0286 0.6570
H10A H -0.3929 1.1135 0.5460
C11A C -0.0156(4) 1.0889(3) 0.51138(17)
H11A H 0.1178 1.0979 0.5495
H12A H -0.0017 1.1811 0.4385
loop_
_geom_bond_atom_site_label_1
_geom_bond_atom_site_label_2
_geom_bond_site_symmetry_1
_geom_bond_site_symmetry_2
O1 C7 1_555 1_555
N1 N2 1_555 1_555
C1 H1 1_555 1_555
N2 C6 1_555 1_555
C2 C1 1_555 1_555
H2 C2 1_555 1_555
N3 N1 1_555 1_555
C3 C2 1_555 1_555
H3 C3 1_555 1_555
C4 C3 1_555 1_555
H4 C4 1_555 1_555
C5 N3 1_555 1_555
C6 C1 1_555 1_555
C7 N3 1_555 1_555
C8 C7 1_555 1_555
H5 C8 1_555 1_555
H6 C8 1_555 1_555
C9 C8 1_555 1_555
H7 C9 1_555 1_555
H8 C9 1_555 1_555
C10 C9 1_555 1_555
H9 C10 1_555 1_555
H10 C10 1_555 1_555
C11 C10 1_555 1_555
H11 C11 1_555 1_555
H12 C11 1_555 1_555
O1A C7A 1_555 1_555
N1A N2A 1_555 1_555
C1A H1A 1_555 1_555
N2A C6A 1_555 1_555
C2A C1A 1_555 1_555
H2A C2A 1_555 1_555
N3A N1A 1_555 1_555
C3A C2A 1_555 1_555
H3A C3A 1_555 1_555
C4A C3A 1_555 1_555
H4A C4A 1_555 1_555
C5A N3A 1_555 1_555
C6A C1A 1_555 1_555
C7A N3A 1_555 1_555
C8A C7A 1_555 1_555
H5A C8A 1_555 1_555
H6A C8A 1_555 1_555
C9A C8A 1_555 1_555
H7A C9A 1_555 1_555
H8A C9A 1_555 1_555
C10A C9A 1_555 1_555
H9A C10A 1_555 1_555
H10A C10A 1_555 1_555
C11A C11 1_555 1_555
H11A C11A 1_555 1_555
H12A C11A 1_555 1_555
C4 C5 1_555 1_555
C5 C6 1_555 1_555
C4A C5A 1_555 1_555
C5A C6A 1_555 1_555
C10A C11A 1_555 1_555

#END
