
#######################################################################
#
#                 Cambridge Crystallographic Data Centre
#                                CCDC 
#
#######################################################################
#
# If this CIF has been generated from an entry in the Cambridge 
# Structural Database, then it will include bibliographic, chemical, 
# crystal, experimental, refinement or atomic coordinate data resulting 
# from the CCDC's data processing and validation procedures.
#
#######################################################################

data_TEBDAH
_chemical_formula_moiety         'C13 H10 N2 O1 S1'
_chemical_name_systematic        2-(1-Naphthylamino)-1,3-thiazol-4(5H)-one
_symmetry_cell_setting           monoclinic
_symmetry_space_group_name_H-M   'P 21/c'
_symmetry_Int_Tables_number      14
_space_group_name_Hall           '-P 2ybc'
loop_
_symmetry_equiv_pos_site_id
_symmetry_equiv_pos_as_xyz
1 x,y,z
2 -x,1/2+y,1/2-z
3 -x,-y,-z
4 x,1/2-y,1/2+z
_cell_length_a                   10.0081(3)
_cell_length_b                   14.5312(4)
_cell_length_c                   7.8739(2)
_cell_angle_alpha                90
_cell_angle_beta                 99.425(3)
_cell_angle_gamma                90
_cell_volume                     1129.64
_exptl_crystal_colour            colorless
_exptl_crystal_description       platelet
_chemical_melting_point          '186-187 deg.C'
_cell_formula_units_Z            4
loop_
_atom_site_label
_atom_site_type_symbol
_atom_site_fract_x
_atom_site_fract_y
_atom_site_fract_z
H1 H 0.129(4) 0.513(3) 0.107(5)
S1 S 0.08076(8) 0.75289(5) 0.11836(10)
N1 N 0.1472(2) 0.57435(16) 0.1438(3)
C1 C 0.2867(3) 0.57235(18) 0.4306(4)
C2 C 0.2702(3) 0.59924(18) 0.2555(4)
C3 C 0.4085(3) 0.59828(19) 0.5395(4)
N2 N -0.0563(2) 0.60994(16) -0.0271(3)
C4 C 0.1877(3) 0.5227(2) 0.5027(4)
H2 H 0.1081 0.5045 0.4327
C5 C 0.0562(3) 0.63505(18) 0.0741(3)
C6 C 0.4264(3) 0.5736(2) 0.7164(4)
H3 H 0.5059 0.5900 0.7887
O1 O -0.2474(2) 0.67676(19) -0.1722(3)
C7 C 0.4875(3) 0.6735(2) 0.3016(4)
H4 H 0.5535 0.7072 0.2583
C8 C 0.5073(3) 0.6485(2) 0.4698(4)
H5 H 0.5876 0.6649 0.5405
C9 C 0.3672(3) 0.6485(2) 0.1924(4)
H6 H 0.3539 0.6656 0.0770
C10 C -0.1387(3) 0.6835(2) -0.0772(4)
C11 C -0.0832(3) 0.7753(2) -0.0074(4)
H7 H -0.1429 0.8027 0.0638
H8 H -0.0750 0.8171 -0.1011
C12 C 0.3288(4) 0.5264(2) 0.7815(4)
H9 H 0.3421 0.5106 0.8975
C13 C 0.2079(3) 0.5014(2) 0.6743(4)
H10 H 0.1411 0.4701 0.7203
loop_
_geom_bond_atom_site_label_1
_geom_bond_atom_site_label_2
_geom_bond_site_symmetry_1
_geom_bond_site_symmetry_2
H1 N1 1_555 1_555
S1 C5 1_555 1_555
N1 C2 1_555 1_555
C1 C2 1_555 1_555
C2 C9 1_555 1_555
C3 C1 1_555 1_555
N2 C5 1_555 1_555
C4 C1 1_555 1_555
H2 C4 1_555 1_555
C5 N1 1_555 1_555
C6 C3 1_555 1_555
H3 C6 1_555 1_555
O1 C10 1_555 1_555
C7 H4 1_555 1_555
C8 C3 1_555 1_555
H5 C8 1_555 1_555
C9 C7 1_555 1_555
H6 C9 1_555 1_555
C10 N2 1_555 1_555
C11 S1 1_555 1_555
H7 C11 1_555 1_555
H8 C11 1_555 1_555
C12 C6 1_555 1_555
H9 C12 1_555 1_555
C13 C4 1_555 1_555
H10 C13 1_555 1_555
C7 C8 1_555 1_555
C10 C11 1_555 1_555
C12 C13 1_555 1_555

#END
