
#######################################################################
#
#                 Cambridge Crystallographic Data Centre
#                                CCDC 
#
#######################################################################
#
# If this CIF has been generated from an entry in the Cambridge 
# Structural Database, then it will include bibliographic, chemical, 
# crystal, experimental, refinement or atomic coordinate data resulting 
# from the CCDC's data processing and validation procedures.
#
#######################################################################

data_TEBFOW
_chemical_formula_moiety         'C19 H18 N2 S1'
_chemical_name_systematic        
1,3-bis((E)-2-phenylethen-1-yl)imidazolidine-2-thione
_symmetry_cell_setting           monoclinic
_symmetry_space_group_name_H-M   'P 21/c'
_symmetry_Int_Tables_number      14
_space_group_name_Hall           '-P 2ybc'
loop_
_symmetry_equiv_pos_site_id
_symmetry_equiv_pos_as_xyz
1 x,y,z
2 -x,1/2+y,1/2-z
3 -x,-y,-z
4 x,1/2-y,1/2+z
_cell_length_a                   15.7032(3)
_cell_length_b                   8.3479(2)
_cell_length_c                   12.3836(3)
_cell_angle_alpha                90
_cell_angle_beta                 104.6678(14)
_cell_angle_gamma                90
_cell_volume                     1570.45
_exptl_crystal_colour            colorless
_exptl_crystal_description       prism
_chemical_melting_point          '521 K (dec.)'
_cell_formula_units_Z            4
_exptl_crystal_recrystallization_method dichloromethane/hexane
loop_
_atom_site_label
_atom_site_type_symbol
_atom_site_fract_x
_atom_site_fract_y
_atom_site_fract_z
S1 S 1.01149(3) -0.00451(5) 0.26014(3)
N1 N 0.87764(9) 0.16436(16) 0.13009(11)
N2 N 1.00021(9) 0.17267(16) 0.07466(11)
C1 C 0.96264(10) 0.11309(19) 0.15431(13)
C2 C 0.93830(11) 0.2676(2) -0.01002(13)
H1 H 0.9283 0.2176 -0.0847
H2 H 0.9602 0.3781 -0.0136
C3 C 0.85469(12) 0.2665(2) 0.03061(14)
H3 H 0.8391 0.3760 0.0497
H4 H 0.8047 0.2209 -0.0266
C4 C 0.81927(11) 0.1346(2) 0.19493(13)
H5 H 0.8376 0.0647 0.2570
C5 C 0.73883(12) 0.1981(2) 0.17539(14)
H6 H 0.7213 0.2687 0.1136
C6 C 0.67543(11) 0.1675(2) 0.24199(13)
C7 C 0.68956(11) 0.0556(2) 0.32898(14)
H7 H 0.7423 -0.0055 0.3465
C8 C 0.62798(12) 0.0326(2) 0.38958(15)
H8 H 0.6389 -0.0437 0.4484
C9 C 0.55024(12) 0.1198(2) 0.36545(15)
H9 H 0.5084 0.1046 0.4081
C10 C 0.53422(12) 0.2291(2) 0.27861(15)
H10 H 0.4808 0.2882 0.2606
C11 C 0.59621(12) 0.2520(2) 0.21797(15)
H11 H 0.5845 0.3272 0.1585
C12 C 1.08753(11) 0.1522(2) 0.07367(13)
H12 H 1.1244 0.0918 0.1322
C13 C 1.12302(11) 0.2127(2) -0.00516(13)
H13 H 1.0862 0.2771 -0.0612
C14 C 1.21346(11) 0.1881(2) -0.01231(13)
C15 C 1.27670(12) 0.1021(2) 0.06619(14)
H14 H 1.2619 0.0597 0.1303
C16 C 1.36047(12) 0.0778(2) 0.05214(15)
H15 H 1.4023 0.0186 0.1063
C17 C 1.38367(12) 0.1393(2) -0.04046(16)
H16 H 1.4411 0.1222 -0.0500
C18 C 1.32244(13) 0.2256(2) -0.11871(15)
H17 H 1.3380 0.2687 -0.1821
C19 C 1.23871(12) 0.2494(2) -0.10522(14)
H18 H 1.1973 0.3086 -0.1599
loop_
_geom_bond_atom_site_label_1
_geom_bond_atom_site_label_2
_geom_bond_site_symmetry_1
_geom_bond_site_symmetry_2
S1 C1 1_555 1_555
N1 C1 1_555 1_555
N2 C1 1_555 1_555
C2 N2 1_555 1_555
H1 C2 1_555 1_555
H2 C2 1_555 1_555
C3 N1 1_555 1_555
H3 C3 1_555 1_555
H4 C3 1_555 1_555
C4 N1 1_555 1_555
H5 C4 1_555 1_555
C5 C4 1_555 1_555
H6 C5 1_555 1_555
C6 C5 1_555 1_555
C7 C6 1_555 1_555
H7 C7 1_555 1_555
C8 C7 1_555 1_555
H8 C8 1_555 1_555
C9 C8 1_555 1_555
H9 C9 1_555 1_555
C10 C9 1_555 1_555
H10 C10 1_555 1_555
C11 C6 1_555 1_555
H11 C11 1_555 1_555
C12 N2 1_555 1_555
H12 C12 1_555 1_555
C13 C12 1_555 1_555
H13 C13 1_555 1_555
C14 C13 1_555 1_555
C15 C14 1_555 1_555
H14 C15 1_555 1_555
C16 C15 1_555 1_555
H15 C16 1_555 1_555
C17 C16 1_555 1_555
H16 C17 1_555 1_555
C18 C17 1_555 1_555
H17 C18 1_555 1_555
C19 C14 1_555 1_555
H18 C19 1_555 1_555
C2 C3 1_555 1_555
C10 C11 1_555 1_555
C18 C19 1_555 1_555

#END
