
#######################################################################
#
#                 Cambridge Crystallographic Data Centre
#                                CCDC 
#
#######################################################################
#
# If this CIF has been generated from an entry in the Cambridge 
# Structural Database, then it will include bibliographic, chemical, 
# crystal, experimental, refinement or atomic coordinate data resulting 
# from the CCDC's data processing and validation procedures.
#
#######################################################################

data_TEBGUE
_chemical_name_common            
'Tetraphenyl (6-amino-1,3,5-triazine-2,4-diyl)bis(phosphoramidate)'
_chemical_formula_moiety         'C27 H24 N6 O6 P2'
_chemical_name_systematic        
2-Amino-4,6-bis((diphenoxyphosphoryl)amino)-1,3,5-triazine
_symmetry_cell_setting           monoclinic
_symmetry_space_group_name_H-M   'P 21/c'
_symmetry_Int_Tables_number      14
_space_group_name_Hall           '-P 2ybc'
loop_
_symmetry_equiv_pos_site_id
_symmetry_equiv_pos_as_xyz
1 x,y,z
2 -x,1/2+y,1/2-z
3 -x,-y,-z
4 x,1/2-y,1/2+z
_cell_length_a                   8.7494(15)
_cell_length_b                   27.518(5)
_cell_length_c                   12.511(2)
_cell_angle_alpha                90
_cell_angle_beta                 109.323(16)
_cell_angle_gamma                90
_cell_volume                     2842.54
_exptl_crystal_colour            colorless
_exptl_crystal_description       prism
_cell_formula_units_Z            4
loop_
_atom_site_label
_atom_site_type_symbol
_atom_site_fract_x
_atom_site_fract_y
_atom_site_fract_z
P1 P 0.25561(13) 0.62716(3) 0.47420(7)
P2 P 0.18545(13) 0.62646(3) 0.05600(7)
O1 O 0.1187(3) 0.59767(8) 0.3847(2)
O2 O 0.4082(3) 0.61615(8) 0.43738(19)
O3 O 0.2779(4) 0.61732(8) 0.59287(19)
O4 O 0.0313(4) 0.61291(9) 0.0886(2)
O5 O 0.3250(4) 0.60054(9) 0.1505(2)
O6 O 0.1721(4) 0.61515(8) -0.06038(19)
N1 N 0.2140(4) 0.68420(9) 0.2632(2)
N2 N 0.2044(4) 0.75894(9) 0.3576(2)
N3 N 0.2213(4) 0.75907(9) 0.1687(2)
N4 N 0.2086(4) 0.68520(9) 0.4462(2)
H1 H 0.1811 0.7011 0.4961
N5 N 0.2195(4) 0.68532(9) 0.0802(2)
H2 H 0.2396 0.7018 0.0280
N6 N 0.2125(4) 0.82991(9) 0.2637(2)
H3 H 0.2173 0.8457 0.2055
H4 H 0.2074 0.8454 0.3221
C1 C 0.2089(4) 0.71077(12) 0.3511(3)
C2 C 0.2130(5) 0.78217(11) 0.2632(3)
C3 C 0.2189(4) 0.71091(11) 0.1755(3)
C4 C 0.1071(6) 0.54632(14) 0.3784(4)
C5 C 0.1891(16) 0.5158(4) 0.4656(9)
H5 H 0.2568 0.5285 0.5336
C6 C 0.170(2) 0.4652(5) 0.4510(10)
H6 H 0.2247 0.4440 0.5089
C7 C 0.0689(10) 0.4479(2) 0.3502(8)
H7 H 0.0542 0.4145 0.3406
C8 C -0.0114(17) 0.4780(3) 0.2627(9)
H8 H -0.0761 0.4655 0.1934
C9 C 0.0065(13) 0.5277(3) 0.2803(8)
H9 H -0.0520 0.5488 0.2233
C10 C 0.5499(5) 0.64437(15) 0.4723(3)
C11 C 0.6205(7) 0.65977(19) 0.5833(4)
H10 H 0.5744 0.6521 0.6383
C12 C 0.7615(8) 0.6868(2) 0.6100(5)
H11 H 0.8101 0.6977 0.6838
C13 C 0.8302(7) 0.6978(3) 0.5304(5)
H12 H 0.9253 0.7158 0.5496
C14 C 0.7580(7) 0.6819(3) 0.4211(5)
H13 H 0.8044 0.6893 0.3661
C15 C 0.6171(6) 0.6549(2) 0.3922(4)
H14 H 0.5688 0.6441 0.3182
C16 C -0.1142(5) 0.64003(16) 0.0510(3)
C17 C -0.1816(6) 0.65168(19) 0.1303(4)
H15 H -0.1312 0.6431 0.2056
C18 C -0.3284(7) 0.6769(2) 0.0969(5)
H16 H -0.3776 0.6849 0.1501
C19 C -0.3992(7) 0.6899(3) -0.0128(5)
H17 H -0.4973 0.7065 -0.0353
C20 C -0.3268(8) 0.6785(3) -0.0893(5)
H18 H -0.3752 0.6879 -0.1644
C21 C -0.1845(7) 0.6536(2) -0.0594(4)
H19 H -0.1360 0.6460 -0.1132
C22 C 0.3483(16) 0.5491(6) 0.1579(13)
C23 C 0.5002(16) 0.5357(4) 0.2192(11)
H20 H 0.5788 0.5588 0.2538
C24 C 0.536(2) 0.4860(4) 0.2290(16)
H21 H 0.6416 0.4759 0.2655
C25 C 0.4167(19) 0.4519(6) 0.1858(16)
H22 H 0.4378 0.4189 0.1985
C26 C 0.2652(17) 0.4684(3) 0.1228(16)
H23 H 0.1868 0.4458 0.0848
C27 C 0.2257(15) 0.5169(3) 0.1141(12)
H24 H 0.1196 0.5273 0.0797
C28? C 0.381(2) 0.5529(6) 0.1460(13)
C29? C 0.388(3) 0.5219(4) 0.2306(15)
C30? C 0.447(3) 0.4744(6) 0.2353(18)
C31? C 0.488(4) 0.4590(6) 0.1446(15)
C32? C 0.525(3) 0.4940(6) 0.0776(15)
C33? C 0.450(3) 0.5394(6) 0.0680(14)
C34? C 0.1071(6) 0.54632(14) 0.3784(4)
C35? C 0.2408(16) 0.5175(5) 0.4260(13)
C36? C 0.2156(17) 0.4671(6) 0.4161(16)
C37? C 0.0689(10) 0.4479(2) 0.3502(8)
C38? C -0.0614(19) 0.4792(6) 0.317(2)
C39? C -0.0423(15) 0.5291(6) 0.3193(17)
H25? H 0.3524 0.5326 0.2888
H26? H 0.4570 0.4542 0.2970
H27? H 0.4912 0.4261 0.1284
H28? H 0.5977 0.4874 0.0398
H29? H 0.4479 0.5601 0.0088
H30? H 0.3426 0.5307 0.4627
H31? H 0.2992 0.4463 0.4548
H32? H 0.0585 0.4154 0.3289
H33? H -0.1655 0.4663 0.2932
H34? H -0.1274 0.5498 0.2821
loop_
_geom_bond_atom_site_label_1
_geom_bond_atom_site_label_2
_geom_bond_site_symmetry_1
_geom_bond_site_symmetry_2
P1 O1 1_555 1_555
P2 O4 1_555 1_555
O1 C4 1_555 1_555
O2 P1 1_555 1_555
O3 P1 1_555 1_555
O4 C16 1_555 1_555
O5 P2 1_555 1_555
O6 P2 1_555 1_555
N1 C1 1_555 1_555
N2 C1 1_555 1_555
N3 C2 1_555 1_555
N4 P1 1_555 1_555
H1 N4 1_555 1_555
N5 P2 1_555 1_555
H2 N5 1_555 1_555
N6 H3 1_555 1_555
H4 N6 1_555 1_555
C1 N4 1_555 1_555
C2 N2 1_555 1_555
C3 N1 1_555 1_555
C4 C5 1_555 1_555
C5 H5 1_555 1_555
C6 C5 1_555 1_555
H6 C6 1_555 1_555
C7 C6 1_555 1_555
H7 C7 1_555 1_555
C8 C7 1_555 1_555
H8 C8 1_555 1_555
C9 C4 1_555 1_555
H9 C9 1_555 1_555
C10 O2 1_555 1_555
C11 C10 1_555 1_555
H10 C11 1_555 1_555
C12 C11 1_555 1_555
H11 C12 1_555 1_555
C13 C12 1_555 1_555
H12 C13 1_555 1_555
C14 C13 1_555 1_555
H13 C14 1_555 1_555
C15 C10 1_555 1_555
H14 C15 1_555 1_555
C16 C17 1_555 1_555
C17 H15 1_555 1_555
C18 C17 1_555 1_555
H16 C18 1_555 1_555
C19 C18 1_555 1_555
H17 C19 1_555 1_555
C20 C19 1_555 1_555
H18 C20 1_555 1_555
C21 C16 1_555 1_555
H19 C21 1_555 1_555
C22 O5 1_555 1_555
C23 C22 1_555 1_555
H20 C23 1_555 1_555
C24 C23 1_555 1_555
H21 C24 1_555 1_555
C25 C24 1_555 1_555
H22 C25 1_555 1_555
C26 C25 1_555 1_555
H23 C26 1_555 1_555
C27 C22 1_555 1_555
H24 C27 1_555 1_555
N3 C3 1_555 1_555
N5 C3 1_555 1_555
N6 C2 1_555 1_555
C8 C9 1_555 1_555
C14 C15 1_555 1_555
C20 C21 1_555 1_555
C26 C27 1_555 1_555

#END
