
#######################################################################
#
#                 Cambridge Crystallographic Data Centre
#                                CCDC 
#
#######################################################################
#
# If this CIF has been generated from an entry in the Cambridge 
# Structural Database, then it will include bibliographic, chemical, 
# crystal, experimental, refinement or atomic coordinate data resulting 
# from the CCDC's data processing and validation procedures.
#
#######################################################################

data_TEBQEY
_chemical_formula_moiety         '2(C6 H2 N3 O9 1-),C2 H8 N8 2+,2(H2 O1)'
_chemical_name_systematic        
"2,2'-(1,2,4,5-Tetrazine-3,6-diyl)dihydrazinium bis(3,5-dihydroxy-2,4,6-trinitrophenolate) dihydrate"
_symmetry_cell_setting           triclinic
_symmetry_space_group_name_H-M   'P -1'
_symmetry_Int_Tables_number      2
_space_group_name_Hall           '-P 1'
loop_
_symmetry_equiv_pos_site_id
_symmetry_equiv_pos_as_xyz
1 x,y,z
2 -x,-y,-z
_cell_length_a                   7.326(2)
_cell_length_b                   7.906(2)
_cell_length_c                   11.662(3)
_cell_angle_alpha                76.131(12)
_cell_angle_beta                 72.893(9)
_cell_angle_gamma                82.581(12)
_cell_volume                     625.499
_exptl_crystal_colour            brown
_exptl_crystal_description       chunk
_cell_formula_units_Z            1
loop_
_atom_site_label
_atom_site_type_symbol
_atom_site_fract_x
_atom_site_fract_y
_atom_site_fract_z
O1 O 0.5861(2) 0.49188(18) 0.81391(13)
O2 O 0.9326(2) 0.16322(19) 0.52432(14)
H1 H 0.9668 0.1674 0.4484
O3 O 0.6599(2) 0.7448(2) 0.39693(14)
H2 H 0.6979 0.7191 0.3275
O4 O 0.6306(2) 0.12481(19) 0.84004(14)
O5 O 0.9392(2) 0.1153(2) 0.76754(17)
O6 O 0.9823(2) 0.3122(2) 0.29923(15)
O7 O 0.8334(3) 0.5596(2) 0.24489(14)
O8 O 0.3881(3) 0.8359(2) 0.6062(2)
O9 O 0.6078(3) 0.8571(2) 0.68942(17)
N5 N 0.7791(3) 0.1781(2) 0.76414(16)
N6 N 0.8762(3) 0.4409(3) 0.32713(17)
N7 N 0.5360(3) 0.7829(2) 0.63440(17)
C2 C 0.6542(3) 0.4804(3) 0.70258(18)
C3 C 0.7589(3) 0.3271(3) 0.66651(18)
C4 C 0.8367(3) 0.3118(3) 0.54600(19)
C5 C 0.8044(3) 0.4538(3) 0.45098(18)
C6 C 0.6960(3) 0.6094(3) 0.48113(19)
C7 C 0.6333(3) 0.6199(3) 0.60309(18)
O10 O 0.2693(3) 0.9685(2) 0.90080(19)
H7 H 0.174(5) 0.893(5) 0.922(3)
H8 H 0.300(5) 0.990(4) 0.819(3)
N1 N 0.9520(2) 0.3329(2) 1.01847(15)
N2 N 0.8236(2) 0.4622(2) 0.99904(15)
N3 N 0.7502(2) 0.7631(2) 0.95710(17)
N4 N 0.5660(3) 0.7213(2) 0.95991(18)
C1 C 0.8765(3) 0.6239(3) 0.98128(18)
H3 H 0.575(3) 0.656(3) 0.897(2)
H4 H 0.492(3) 0.822(3) 0.939(2)
H5 H 0.752(3) 0.855(3) 0.983(2)
H6 H 0.499(4) 0.657(3) 1.041(2)
N1A N 1.0480(2) 0.6671(2) 0.98153(15)
N2A N 1.1764(2) 0.5378(2) 1.00096(15)
N3A N 1.2498(2) 0.2369(2) 1.04290(17)
N4A N 1.4340(3) 0.2787(2) 1.04009(18)
C1A C 1.1235(3) 0.3761(3) 1.01872(18)
H3A H 1.425(3) 0.344(3) 1.103(2)
H4A H 1.508(3) 0.178(3) 1.061(2)
H5A H 1.248(3) 0.145(3) 1.017(2)
H6A H 1.501(4) 0.343(3) 0.959(2)
loop_
_geom_bond_atom_site_label_1
_geom_bond_atom_site_label_2
_geom_bond_site_symmetry_1
_geom_bond_site_symmetry_2
O1 C2 1_555 1_555
O2 H1 1_555 1_555
O3 H2 1_555 1_555
O4 N5 1_555 1_555
O5 N5 1_555 1_555
O6 N6 1_555 1_555
O7 N6 1_555 1_555
O8 N7 1_555 1_555
O9 N7 1_555 1_555
O10 H7 1_555 1_555
N1 N2 1_555 1_555
N2 C1 1_555 1_555
N3 N4 1_555 1_555
N4 H3 1_555 1_555
N5 C3 1_555 1_555
N6 C5 1_555 1_555
N7 C7 1_555 1_555
C1 N3 1_555 1_555
C2 C3 1_555 1_555
C3 C4 1_555 1_555
C4 O2 1_555 1_555
C5 C4 1_555 1_555
C6 O3 1_555 1_555
C7 C2 1_555 1_555
H4 N4 1_555 1_555
H5 N3 1_555 1_555
H6 N4 1_555 1_555
H8 O10 1_555 1_555
N1A C1 1_555 1_555
N2A N1A 1_555 1_555
N3A N4A 1_555 1_555
N4A H3A 1_555 1_555
C1A N1 1_555 1_555
H4A N4A 1_555 1_555
H5A N3A 1_555 1_555
H6A N4A 1_555 1_555
C5 C6 1_555 1_555
C6 C7 1_555 1_555
N2A C1A 1_555 1_555
N3A C1A 1_555 1_555

#END
