
#######################################################################
#
#                 Cambridge Crystallographic Data Centre
#                                CCDC 
#
#######################################################################
#
# If this CIF has been generated from an entry in the Cambridge 
# Structural Database, then it will include bibliographic, chemical, 
# crystal, experimental, refinement or atomic coordinate data resulting 
# from the CCDC's data processing and validation procedures.
#
#######################################################################

data_TEBQAV
_chemical_formula_moiety         'C14 H15 N1 O3'
_chemical_name_systematic        't-butyl 2-cyano-3-(4-hydroxyphenyl)acrylate'
_symmetry_cell_setting           triclinic
_symmetry_space_group_name_H-M   'P -1'
_symmetry_Int_Tables_number      2
_space_group_name_Hall           '-P 1'
loop_
_symmetry_equiv_pos_site_id
_symmetry_equiv_pos_as_xyz
1 x,y,z
2 -x,-y,-z
_cell_length_a                   5.891(3)
_cell_length_b                   9.759(6)
_cell_length_c                   12.395(7)
_cell_angle_alpha                73.382(10)
_cell_angle_beta                 89.650(11)
_cell_angle_gamma                79.021(10)
_cell_volume                     669.445
_cell_formula_units_Z            2
loop_
_atom_site_label
_atom_site_type_symbol
_atom_site_fract_x
_atom_site_fract_y
_atom_site_fract_z
O1 O 0.3180(6) 0.5773(4) 0.6999(3)
O2 O 0.7527(7) -0.2053(4) 1.2865(3)
H1 H 0.8707 -0.2456 1.2640
O3 O 0.1003(7) 0.6010(4) 0.8474(3)
C1 C 0.4266(8) 0.4081(5) 0.8743(4)
C2 C 0.6703(8) -0.0743(5) 1.2105(4)
C3 C 0.4810(8) 0.1966(5) 1.0565(4)
C4 C 0.6340(9) 0.3634(5) 0.8221(4)
C5 C 0.3673(9) 0.3328(6) 0.9772(4)
C6 C 0.3545(9) 0.1262(6) 1.1430(5)
C7 C 0.7126(9) 0.1276(6) 1.0516(4)
C8 C 0.8042(9) -0.0053(6) 1.1275(4)
C9 C 0.1750(8) 0.6989(5) 0.6114(4)
N1 N 0.8023(9) 0.3286(5) 0.7808(4)
C10 C 0.2607(8) 0.5398(5) 0.8075(4)
C11 C 0.4427(9) -0.0063(6) 1.2184(5)
C12 C -0.0730(11) 0.6788(10) 0.6080(6)
H2 H -0.0754 0.5824 0.6037
H3 H -0.1562 0.7495 0.5431
H4 H -0.1449 0.6917 0.6751
C13 C 0.2922(13) 0.6896(9) 0.5050(5)
H5 H 0.4512 0.6971 0.5121
H6 H 0.2155 0.7678 0.4425
H7 H 0.2847 0.5979 0.4925
C14 C 0.1936(15) 0.8392(7) 0.6366(6)
H8 H 0.1277 0.8398 0.7076
H9 H 0.1113 0.9206 0.5780
H10 H 0.3535 0.8462 0.6403
H11 H 0.799(10) 0.181(7) 1.001(5)
H12 H 0.332(12) -0.067(7) 1.267(6)
H13 H 0.194(11) 0.178(7) 1.144(5)
H14 H 0.968(10) -0.049(6) 1.120(5)
H15 H 0.220(11) 0.373(7) 0.992(5)
loop_
_geom_bond_atom_site_label_1
_geom_bond_atom_site_label_2
_geom_bond_site_symmetry_1
_geom_bond_site_symmetry_2
O1 C9 1_555 1_555
O2 H1 1_555 1_555
O3 C10 1_555 1_555
C1 C4 1_555 1_555
C2 O2 1_555 1_555
C3 C5 1_555 1_555
C4 N1 1_555 1_555
C5 C1 1_555 1_555
C6 C3 1_555 1_555
C7 C3 1_555 1_555
C8 C2 1_555 1_555
C9 C12 1_555 1_555
C10 O1 1_555 1_555
C11 C2 1_555 1_555
C12 H2 1_555 1_555
H3 C12 1_555 1_555
H4 C12 1_555 1_555
C13 C9 1_555 1_555
H5 C13 1_555 1_555
H6 C13 1_555 1_555
H7 C13 1_555 1_555
C14 C9 1_555 1_555
H8 C14 1_555 1_555
H9 C14 1_555 1_555
H10 C14 1_555 1_555
H11 C7 1_555 1_555
H12 C11 1_555 1_555
H13 C6 1_555 1_555
H14 C8 1_555 1_555
H15 C5 1_555 1_555
C1 C10 1_555 1_555
C6 C11 1_555 1_555
C7 C8 1_555 1_555

#END
