
#######################################################################
#
#                 Cambridge Crystallographic Data Centre
#                                CCDC 
#
#######################################################################
#
# If this CIF has been generated from an entry in the Cambridge 
# Structural Database, then it will include bibliographic, chemical, 
# crystal, experimental, refinement or atomic coordinate data resulting 
# from the CCDC's data processing and validation procedures.
#
#######################################################################

data_TEBQUN
_chemical_formula_moiety         'C23 H28 N4 O2 Si1'
_chemical_name_systematic        
(N,N'-bis(Benzimidato)-2-methyl-2-amino-4-iminopentane)-propyl-silicon
_symmetry_cell_setting           orthorhombic
_symmetry_space_group_name_H-M   'P c a 21'
_symmetry_Int_Tables_number      29
_space_group_name_Hall           'P 2c -2ac'
loop_
_symmetry_equiv_pos_site_id
_symmetry_equiv_pos_as_xyz
1 x,y,z
2 -x,-y,1/2+z
3 1/2+x,-y,z
4 1/2-x,y,1/2+z
_cell_length_a                   11.1551(10)
_cell_length_b                   9.0352(8)
_cell_length_c                   43.602(4)
_cell_angle_alpha                90
_cell_angle_beta                 90
_cell_angle_gamma                90
_cell_volume                     4394.58
_exptl_crystal_colour            orange
_exptl_crystal_description       block
_chemical_melting_point          '147-148 deg.C'
_cell_formula_units_Z            8
_exptl_crystal_recrystallization_method ether
loop_
_atom_site_label
_atom_site_type_symbol
_atom_site_fract_x
_atom_site_fract_y
_atom_site_fract_z
Si1 Si 0.16429(9) 0.64790(11) 0.31869(2)
O1 O 0.2394(2) 0.7987(3) 0.30338(5)
O2 O 0.2732(2) 0.6343(3) 0.34732(6)
N1 N 0.2134(3) 0.6713(3) 0.25944(7)
N2 N 0.1545(3) 0.5823(3) 0.28089(6)
N3 N 0.1320(3) 0.4450(3) 0.33378(7)
N4 N 0.1910(3) 0.4116(4) 0.36106(7)
C1 C 0.2539(3) 0.7867(4) 0.27293(8)
C2 C 0.3237(3) 0.8986(4) 0.25618(8)
C3 C 0.3834(3) 1.0102(4) 0.27180(9)
H1 H 0.3745 1.0190 0.2934
C4 C 0.4562(3) 1.1095(4) 0.25596(9)
H2 H 0.4967 1.1860 0.2667
C5 C 0.4693(4) 1.0965(4) 0.22480(9)
H3 H 0.5207 1.1626 0.2141
C6 C 0.4075(3) 0.9864(4) 0.20869(10)
H4 H 0.4154 0.9793 0.1870
C7 C 0.3356(4) 0.8889(4) 0.22424(9)
H5 H 0.2936 0.8142 0.2133
C8 C 0.1056(3) 0.4455(4) 0.26777(8)
C9 C 0.0154(3) 0.3812(5) 0.29072(8)
H6 H -0.0484 0.4550 0.2947
H7 H -0.0226 0.2922 0.2817
C10 C 0.0737(3) 0.3409(4) 0.32012(9)
C11 C 0.2638(3) 0.5201(4) 0.36658(8)
C12 C 0.3393(3) 0.5183(4) 0.39415(8)
C13 C 0.3260(4) 0.4031(5) 0.41496(8)
H8 H 0.2655 0.3309 0.4116
C14 C 0.3992(4) 0.3914(5) 0.44047(9)
H9 H 0.3889 0.3126 0.4547
C15 C 0.4868(4) 0.4952(6) 0.44490(10)
H10 H 0.5387 0.4872 0.4621
C16 C 0.5003(4) 0.6105(5) 0.42487(10)
H11 H 0.5603 0.6830 0.4285
C17 C 0.4262(4) 0.6221(5) 0.39914(9)
H12 H 0.4362 0.7019 0.3852
C18 C 0.2046(4) 0.3344(4) 0.26111(9)
H13 H 0.2596 0.3757 0.2458
H14 H 0.1692 0.2428 0.2532
H15 H 0.2487 0.3131 0.2800
C19 C 0.0369(3) 0.4786(5) 0.23809(8)
H16 H -0.0262 0.5514 0.2423
H17 H 0.0006 0.3872 0.2303
H18 H 0.0923 0.5184 0.2227
C20 C 0.0632(4) 0.1864(5) 0.33189(10)
H19 H 0.1095 0.1196 0.3187
H20 H -0.0212 0.1563 0.3318
H21 H 0.0945 0.1817 0.3529
C21 C 0.0285(4) 0.7383(5) 0.33536(9)
H22 H 0.0034 0.8182 0.3212
H23 H -0.0368 0.6641 0.3357
C22 C 0.0386(4) 0.8037(5) 0.36715(10)
H24 H 0.1087 0.8709 0.3679
H25 H 0.0524 0.7231 0.3821
C23 C -0.0736(5) 0.8897(5) 0.37643(12)
H26 H -0.0851 0.9733 0.3624
H27 H -0.0643 0.9266 0.3974
H28 H -0.1436 0.8242 0.3754
Si2 Si 0.56187(9) 0.84723(11) 0.06878(2)
O3 O 0.4552(2) 0.8481(3) 0.03974(6)
O4 O 0.4897(2) 0.6957(3) 0.08490(5)
N5 N 0.5328(3) 1.0683(4) 0.02273(8)
N6 N 0.5883(3) 1.0477(4) 0.05168(7)
N7 N 0.5657(3) 0.9218(4) 0.10561(7)
N8 N 0.5059(3) 0.8369(3) 0.12779(7)
C24 C 0.4672(3) 0.9524(4) 0.01878(8)
C25 C 0.3998(4) 0.9321(4) -0.01027(9)
C26 C 0.3285(4) 0.8088(5) -0.01433(10)
H29 H 0.3221 0.7379 0.0017
C27 C 0.2658(4) 0.7867(5) -0.04146(9)
H30 H 0.2168 0.7016 -0.0440
C28 C 0.2752(5) 0.8889(5) -0.06469(10)
H31 H 0.2306 0.8763 -0.0831
C29 C 0.3500(6) 1.0109(6) -0.06125(11)
H32 H 0.3587 1.0795 -0.0776
C30 C 0.4117(5) 1.0328(5) -0.03426(10)
H33 H 0.4624 1.1166 -0.0320
C31 C 0.6444(3) 1.1584(5) 0.06354(10)
C32 C 0.6982(3) 1.1285(4) 0.09467(8)
H34 H 0.7293 1.2227 0.1031
H35 H 0.7673 1.0608 0.0921
C33 C 0.6115(3) 1.0602(4) 0.11818(8)
C34 C 0.4688(3) 0.7170(4) 0.11491(8)
C35 C 0.3980(3) 0.6053(4) 0.13175(8)
C36 C 0.3845(3) 0.6167(4) 0.16309(9)
H36 H 0.4259 0.6920 0.1740
C37 C 0.3107(3) 0.5184(4) 0.17879(9)
H37 H 0.3021 0.5272 0.2004
C38 C 0.2498(3) 0.4080(4) 0.16330(9)
H38 H 0.1992 0.3411 0.1740
C39 C 0.2642(3) 0.3972(4) 0.13184(9)
H39 H 0.2230 0.3215 0.1210
C40 C 0.3367(3) 0.4933(4) 0.11595(9)
H40 H 0.3452 0.4839 0.0944
C41 C 0.6494(4) 1.3080(5) 0.05114(9)
H41 H 0.6217 1.3072 0.0298
H42 H 0.7321 1.3443 0.0519
H43 H 0.5977 1.3731 0.0633
C42 C 0.5084(4) 1.1696(4) 0.12440(9)
H44 H 0.4684 1.1941 0.1050
H45 H 0.5406 1.2600 0.1337
H46 H 0.4505 1.1242 0.1384
C43 C 0.6832(3) 1.0333(4) 0.14760(9)
H47 H 0.6309 0.9891 0.1632
H48 H 0.7147 1.1276 0.1552
H49 H 0.7500 0.9660 0.1433
C44 C 0.7018(3) 0.7635(4) 0.05267(8)
H50 H 0.7672 0.8372 0.0544
H51 H 0.7241 0.6776 0.0656
C45 C 0.6953(4) 0.7127(5) 0.01975(10)
H52 H 0.6815 0.7999 0.0065
H53 H 0.6257 0.6457 0.0174
C46 C 0.8081(4) 0.6325(6) 0.00881(12)
H54 H 0.8771 0.6993 0.0103
H55 H 0.7976 0.6018 -0.0126
H56 H 0.8219 0.5451 0.0216
loop_
_geom_bond_atom_site_label_1
_geom_bond_atom_site_label_2
_geom_bond_site_symmetry_1
_geom_bond_site_symmetry_2
Si1 O1 1_555 1_555
Si2 O3 1_555 1_555
O1 C1 1_555 1_555
O2 Si1 1_555 1_555
O3 C24 1_555 1_555
O4 Si2 1_555 1_555
N1 N2 1_555 1_555
N2 Si1 1_555 1_555
N3 Si1 1_555 1_555
N4 N3 1_555 1_555
N5 N6 1_555 1_555
N6 Si2 1_555 1_555
N7 Si2 1_555 1_555
N8 N7 1_555 1_555
C1 N1 1_555 1_555
C2 C1 1_555 1_555
C3 C2 1_555 1_555
H1 C3 1_555 1_555
C4 C3 1_555 1_555
H2 C4 1_555 1_555
C5 C4 1_555 1_555
H3 C5 1_555 1_555
C6 C5 1_555 1_555
H4 C6 1_555 1_555
C7 C2 1_555 1_555
H5 C7 1_555 1_555
C8 N2 1_555 1_555
C9 C8 1_555 1_555
H6 C9 1_555 1_555
H7 C9 1_555 1_555
C10 N3 1_555 1_555
C11 O2 1_555 1_555
C12 C11 1_555 1_555
C13 C12 1_555 1_555
H8 C13 1_555 1_555
C14 C13 1_555 1_555
H9 C14 1_555 1_555
C15 C14 1_555 1_555
H10 C15 1_555 1_555
C16 C15 1_555 1_555
H11 C16 1_555 1_555
C17 C12 1_555 1_555
H12 C17 1_555 1_555
C18 C8 1_555 1_555
H13 C18 1_555 1_555
H14 C18 1_555 1_555
H15 C18 1_555 1_555
C19 C8 1_555 1_555
H16 C19 1_555 1_555
H17 C19 1_555 1_555
H18 C19 1_555 1_555
C20 C10 1_555 1_555
H19 C20 1_555 1_555
H20 C20 1_555 1_555
H21 C20 1_555 1_555
C21 Si1 1_555 1_555
H22 C21 1_555 1_555
H23 C21 1_555 1_555
C22 C21 1_555 1_555
H24 C22 1_555 1_555
H25 C22 1_555 1_555
C23 C22 1_555 1_555
H26 C23 1_555 1_555
H27 C23 1_555 1_555
H28 C23 1_555 1_555
C24 N5 1_555 1_555
C25 C24 1_555 1_555
C26 C25 1_555 1_555
H29 C26 1_555 1_555
C27 C26 1_555 1_555
H30 C27 1_555 1_555
C28 C27 1_555 1_555
H31 C28 1_555 1_555
C29 C28 1_555 1_555
H32 C29 1_555 1_555
C30 C25 1_555 1_555
H33 C30 1_555 1_555
C31 N6 1_555 1_555
C32 C31 1_555 1_555
H34 C32 1_555 1_555
H35 C32 1_555 1_555
C33 N7 1_555 1_555
C34 O4 1_555 1_555
C35 C34 1_555 1_555
C36 C35 1_555 1_555
H36 C36 1_555 1_555
C37 C36 1_555 1_555
H37 C37 1_555 1_555
C38 C37 1_555 1_555
H38 C38 1_555 1_555
C39 C38 1_555 1_555
H39 C39 1_555 1_555
C40 C35 1_555 1_555
H40 C40 1_555 1_555
C41 C31 1_555 1_555
H41 C41 1_555 1_555
H42 C41 1_555 1_555
H43 C41 1_555 1_555
C42 C33 1_555 1_555
H44 C42 1_555 1_555
H45 C42 1_555 1_555
H46 C42 1_555 1_555
C43 C33 1_555 1_555
H47 C43 1_555 1_555
H48 C43 1_555 1_555
H49 C43 1_555 1_555
C44 Si2 1_555 1_555
H50 C44 1_555 1_555
H51 C44 1_555 1_555
C45 C44 1_555 1_555
H52 C45 1_555 1_555
H53 C45 1_555 1_555
C46 C45 1_555 1_555
H54 C46 1_555 1_555
H55 C46 1_555 1_555
H56 C46 1_555 1_555
N4 C11 1_555 1_555
N8 C34 1_555 1_555
C6 C7 1_555 1_555
C9 C10 1_555 1_555
C16 C17 1_555 1_555
C29 C30 1_555 1_555
C32 C33 1_555 1_555
C39 C40 1_555 1_555

#END
