
#######################################################################
#
#                 Cambridge Crystallographic Data Centre
#                                CCDC 
#
#######################################################################
#
# If this CIF has been generated from an entry in the Cambridge 
# Structural Database, then it will include bibliographic, chemical, 
# crystal, experimental, refinement or atomic coordinate data resulting 
# from the CCDC's data processing and validation procedures.
#
#######################################################################

data_TEBRAU
_chemical_formula_moiety         'C21 H24 N4 O2 Si1'
_chemical_name_systematic        
'2-Methyl-5-phenyl-5,6,7,8-tetrahydro-9H-(1,3,4,2)oxadiazasilolo(3,2-a)azasilin-9-yl N-benzylidene ethanehydrazonoate'
_symmetry_cell_setting           monoclinic
_symmetry_space_group_name_H-M   'C 2/c'
_symmetry_Int_Tables_number      15
_space_group_name_Hall           '-C 2yn'
loop_
_symmetry_equiv_pos_site_id
_symmetry_equiv_pos_as_xyz
1 x,y,z
2 1/2+x,1/2+y,z
3 -x,y,1/2-z
4 1/2-x,1/2+y,1/2-z
5 -x,-y,-z
6 1/2-x,1/2-y,-z
7 x,-y,1/2+z
8 1/2+x,1/2-y,1/2+z
_cell_length_a                   31.124(3)
_cell_length_b                   8.5609(7)
_cell_length_c                   31.249(3)
_cell_angle_alpha                90
_cell_angle_beta                 96.615(2)
_cell_angle_gamma                90
_cell_volume                     8270.85
_exptl_crystal_colour            orange
_exptl_crystal_description       block
_cell_formula_units_Z            16
loop_
_atom_site_label
_atom_site_type_symbol
_atom_site_fract_x
_atom_site_fract_y
_atom_site_fract_z
Si1 Si 0.359399(14) 0.74545(5) 0.232201(14)
O1 O 0.32629(4) 0.87779(14) 0.25408(4)
O2 O 0.34614(4) 0.55586(14) 0.24048(4)
N1 N 0.30718(4) 0.74303(16) 0.18611(5)
N2 N 0.27376(4) 0.83951(17) 0.19712(5)
N3 N 0.39622(5) 0.58373(17) 0.29932(5)
N4 N 0.39849(4) 0.72505(16) 0.27716(4)
C1 C 0.26845(5) 0.6732(2) 0.11378(6)
C2 C 0.27581(7) 0.5814(3) 0.07854(7)
H1 H 0.3016 0.5217 0.0795
C3 C 0.24587(8) 0.5761(3) 0.04213(7)
H2 H 0.2511 0.5122 0.0184
C4 C 0.20851(7) 0.6638(3) 0.04041(7)
H3 H 0.1882 0.6620 0.0152
C5 C 0.20056(6) 0.7541(2) 0.07511(6)
H4 H 0.1746 0.8132 0.0738
C6 C 0.23000(6) 0.7596(2) 0.11183(6)
H5 H 0.2242 0.8218 0.1357
C7 C 0.30320(5) 0.6729(2) 0.14957(6)
H6 H 0.3272 0.6091 0.1449
C8 C 0.28744(5) 0.9050(2) 0.23320(6)
C9 C 0.26016(6) 1.0179(3) 0.25425(8)
H7 H 0.2752 1.1184 0.2579
H8 H 0.2548 0.9774 0.2825
H9 H 0.2325 1.0321 0.2362
C10 C 0.36778(6) 0.4982(2) 0.27773(6)
C11 C 0.35647(7) 0.3371(2) 0.29045(7)
H10 H 0.3752 0.3064 0.3164
H11 H 0.3605 0.2645 0.2670
H12 H 0.3262 0.3344 0.2963
C12 C 0.43502(5) 0.8222(2) 0.29258(5)
H13 H 0.4614 0.7548 0.2962
C13 C 0.44078(6) 0.9435(2) 0.25764(5)
H14 H 0.4175 1.0226 0.2571
H15 H 0.4688 0.9976 0.2647
C14 C 0.43948(5) 0.8685(2) 0.21318(6)
H16 H 0.4559 0.7693 0.2157
H17 H 0.4537 0.9389 0.1940
C15 C 0.39295(5) 0.8355(2) 0.19309(5)
H18 H 0.3937 0.7646 0.1682
H19 H 0.3793 0.9347 0.1823
C16 C 0.43087(6) 0.9019(2) 0.33532(6)
C17 C 0.39178(6) 0.9660(2) 0.34424(6)
H20 H 0.3668 0.9555 0.3239
C18 C 0.38892(7) 1.0448(2) 0.38239(6)
H21 H 0.3620 1.0872 0.3882
C19 C 0.42494(7) 1.0625(2) 0.41222(6)
H22 H 0.4229 1.1175 0.4383
C20 C 0.46386(7) 0.9993(2) 0.40374(6)
H23 H 0.4888 1.0111 0.4241
C21 C 0.46683(6) 0.9189(2) 0.36579(6)
H24 H 0.4937 0.8748 0.3605
Si2 Si 0.973866(15) 0.94910(5) 0.105180(14)
O3 O 0.96263(4) 0.81353(14) 0.06463(4)
O4 O 0.96522(4) 1.13179(13) 0.08409(4)
N5 N 1.02974(5) 0.96006(17) 0.07741(4)
N6 N 1.02564(5) 0.88210(18) 0.03776(4)
N7 N 0.89758(5) 1.08915(17) 0.10275(5)
N8 N 0.92179(4) 0.96360(16) 0.12157(4)
C22 C 1.10426(6) 1.0571(2) 0.06906(6)
C23 C 1.13662(6) 1.1441(2) 0.09304(7)
H25 H 1.1334 1.1724 0.1219
C24 C 1.17333(7) 1.1891(3) 0.07497(8)
H26 H 1.1951 1.2488 0.0913
C25 C 1.17808(7) 1.1467(3) 0.03303(7)
H27 H 1.2031 1.1785 0.0205
C26 C 1.14685(6) 1.0588(3) 0.00931(7)
H28 H 1.1507 1.0293 -0.0193
C27 C 1.10992(6) 1.0129(2) 0.02681(6)
H29 H 1.0885 0.9519 0.0103
C28 C 1.06521(5) 1.0312(2) 0.09039(6)
H30 H 1.0664 1.0742 0.1185
C29 C 0.98932(5) 0.8079(2) 0.03431(5)
C30 C 0.97542(6) 0.7096(2) -0.00362(6)
H31 H 0.9958 0.7223 -0.0251
H32 H 0.9464 0.7414 -0.0161
H33 H 0.9749 0.5998 0.0052
C31 C 0.92282(5) 1.1754(2) 0.08357(6)
C32 C 0.90978(6) 1.3241(2) 0.06130(7)
H34 H 0.8791 1.3440 0.0634
H35 H 0.9145 1.3165 0.0309
H36 H 0.9271 1.4101 0.0749
C33 C 0.90000(6) 0.8708(2) 0.15109(6)
H37 H 0.8902 0.9423 0.1734
C34 C 0.93288(6) 0.7567(2) 0.17368(6)
H38 H 0.9202 0.7062 0.1978
H39 H 0.9390 0.6740 0.1531
C35 C 0.97514(6) 0.8358(2) 0.19107(6)
H40 H 0.9911 0.7672 0.2129
H41 H 0.9685 0.9344 0.2055
C36 C 1.00411(6) 0.8721(2) 0.15576(5)
H42 H 1.0195 0.7756 0.1490
H43 H 1.0262 0.9498 0.1669
C37 C 0.86071(6) 0.7830(2) 0.13001(6)
C38 C 0.85973(6) 0.7222(2) 0.08889(7)
H44 H 0.8834 0.7400 0.0728
C39 C 0.82455(6) 0.6355(2) 0.07087(8)
H45 H 0.8242 0.5946 0.0426
C40 C 0.78990(7) 0.6086(3) 0.09413(8)
H46 H 0.7658 0.5489 0.0819
C41 C 0.79056(7) 0.6687(3) 0.13497(8)
H47 H 0.7669 0.6497 0.1510
C42 C 0.82542(7) 0.7569(3) 0.15307(7)
H48 H 0.8253 0.7995 0.1811
loop_
_geom_bond_atom_site_label_1
_geom_bond_atom_site_label_2
_geom_bond_site_symmetry_1
_geom_bond_site_symmetry_2
Si1 O1 1_555 1_555
Si2 O3 1_555 1_555
O1 C8 1_555 1_555
O2 Si1 1_555 1_555
O3 C29 1_555 1_555
O4 Si2 1_555 1_555
N1 Si1 1_555 1_555
N2 N1 1_555 1_555
N3 N4 1_555 1_555
N4 Si1 1_555 1_555
N5 Si2 1_555 1_555
N6 N5 1_555 1_555
N7 N8 1_555 1_555
N8 Si2 1_555 1_555
C1 C2 1_555 1_555
C2 H1 1_555 1_555
C3 C2 1_555 1_555
H2 C3 1_555 1_555
C4 C3 1_555 1_555
H3 C4 1_555 1_555
C5 C4 1_555 1_555
H4 C5 1_555 1_555
C6 C1 1_555 1_555
H5 C6 1_555 1_555
C7 N1 1_555 1_555
H6 C7 1_555 1_555
C8 N2 1_555 1_555
C9 C8 1_555 1_555
H7 C9 1_555 1_555
H8 C9 1_555 1_555
H9 C9 1_555 1_555
C10 O2 1_555 1_555
C11 C10 1_555 1_555
H10 C11 1_555 1_555
H11 C11 1_555 1_555
H12 C11 1_555 1_555
C12 N4 1_555 1_555
H13 C12 1_555 1_555
C13 C12 1_555 1_555
H14 C13 1_555 1_555
H15 C13 1_555 1_555
C14 C13 1_555 1_555
H16 C14 1_555 1_555
H17 C14 1_555 1_555
C15 Si1 1_555 1_555
H18 C15 1_555 1_555
H19 C15 1_555 1_555
C16 C12 1_555 1_555
C17 C16 1_555 1_555
H20 C17 1_555 1_555
C18 C17 1_555 1_555
H21 C18 1_555 1_555
C19 C18 1_555 1_555
H22 C19 1_555 1_555
C20 C19 1_555 1_555
H23 C20 1_555 1_555
C21 C16 1_555 1_555
H24 C21 1_555 1_555
C22 C23 1_555 1_555
C23 H25 1_555 1_555
C24 C23 1_555 1_555
H26 C24 1_555 1_555
C25 C24 1_555 1_555
H27 C25 1_555 1_555
C26 C25 1_555 1_555
H28 C26 1_555 1_555
C27 C22 1_555 1_555
H29 C27 1_555 1_555
C28 N5 1_555 1_555
H30 C28 1_555 1_555
C29 N6 1_555 1_555
C30 C29 1_555 1_555
H31 C30 1_555 1_555
H32 C30 1_555 1_555
H33 C30 1_555 1_555
C31 O4 1_555 1_555
C32 C31 1_555 1_555
H34 C32 1_555 1_555
H35 C32 1_555 1_555
H36 C32 1_555 1_555
C33 N8 1_555 1_555
H37 C33 1_555 1_555
C34 C33 1_555 1_555
H38 C34 1_555 1_555
H39 C34 1_555 1_555
C35 C34 1_555 1_555
H40 C35 1_555 1_555
H41 C35 1_555 1_555
C36 Si2 1_555 1_555
H42 C36 1_555 1_555
H43 C36 1_555 1_555
C37 C33 1_555 1_555
C38 C37 1_555 1_555
H44 C38 1_555 1_555
C39 C38 1_555 1_555
H45 C39 1_555 1_555
C40 C39 1_555 1_555
H46 C40 1_555 1_555
C41 C40 1_555 1_555
H47 C41 1_555 1_555
C42 C37 1_555 1_555
H48 C42 1_555 1_555
N3 C10 1_555 1_555
N7 C31 1_555 1_555
C1 C7 1_555 1_555
C5 C6 1_555 1_555
C14 C15 1_555 1_555
C20 C21 1_555 1_555
C22 C28 1_555 1_555
C26 C27 1_555 1_555
C35 C36 1_555 1_555
C41 C42 1_555 1_555

#END
