
#######################################################################
#
#                 Cambridge Crystallographic Data Centre
#                                CCDC 
#
#######################################################################
#
# If this CIF has been generated from an entry in the Cambridge 
# Structural Database, then it will include bibliographic, chemical, 
# crystal, experimental, refinement or atomic coordinate data resulting 
# from the CCDC's data processing and validation procedures.
#
#######################################################################

data_TEBSAX
_chemical_formula_moiety         'C5 H8 N3 1+,I3 1-'
_chemical_name_systematic        '1-vinyl-1,2,4-triazolium triiodide'
_symmetry_cell_setting           monoclinic
_symmetry_space_group_name_H-M   'P 21/c'
_symmetry_Int_Tables_number      14
_space_group_name_Hall           '-P 2ybc'
loop_
_symmetry_equiv_pos_site_id
_symmetry_equiv_pos_as_xyz
1 x,y,z
2 -x,1/2+y,1/2-z
3 -x,-y,-z
4 x,1/2-y,1/2+z
_cell_length_a                   7.2685(14)
_cell_length_b                   11.616(4)
_cell_length_c                   15.038(4)
_cell_angle_alpha                90
_cell_angle_beta                 106.472(19)
_cell_angle_gamma                90
_cell_volume                     1217.56
_exptl_crystal_colour            'dark red'
_exptl_crystal_description       needle
_cell_formula_units_Z            4
_chemical_properties_physical    Heat-sensitive
_exptl_crystal_recrystallization_method acetone
loop_
_atom_site_label
_atom_site_type_symbol
_atom_site_fract_x
_atom_site_fract_y
_atom_site_fract_z
N1 N 0.906(2) 0.3190(12) 0.1726(11)
N2 N 0.804(2) 0.1943(14) 0.0668(10)
N3 N 0.951(2) 0.1440(15) 0.1322(12)
C1 C 1.005(3) 0.2229(16) 0.1938(14)
H1 H 1.1051 0.2132 0.2479
C2 C 0.788(3) 0.3002(18) 0.0953(13)
H2 H 0.6998 0.3540 0.0623
C3 C 0.927(4) 0.4198(17) 0.2305(17)
H3 H 0.8319 0.4189 0.2634
H4 H 0.9115 0.4876 0.1925
H5 H 1.0528 0.4202 0.2741
C4 C 0.706(3) 0.134(2) -0.0136(16)
H6 H 0.6101 0.1746 -0.0565
C5 C 0.732(5) 0.036(3) -0.033(2)
H7 H 0.8261 -0.0075 0.0079
H8 H 0.6583 0.0047 -0.0881
I1 I 0.5438(2) 0.33859(16) -0.24464(11)
I2 I 0.66882(16) 0.51749(11) -0.10853(8)
I3 I 0.7960(2) 0.69553(15) 0.03202(11)
loop_
_geom_bond_atom_site_label_1
_geom_bond_atom_site_label_2
_geom_bond_site_symmetry_1
_geom_bond_site_symmetry_2
N1 C1 1_555 1_555
N2 N3 1_555 1_555
N3 C1 1_555 1_555
C1 H1 1_555 1_555
C2 N1 1_555 1_555
H2 C2 1_555 1_555
C3 N1 1_555 1_555
H3 C3 1_555 1_555
H4 C3 1_555 1_555
H5 C3 1_555 1_555
C4 N2 1_555 1_555
H6 C4 1_555 1_555
C5 C4 1_555 1_555
H7 C5 1_555 1_555
H8 C5 1_555 1_555
I1 I2 1_555 1_555
I2 I3 1_555 1_555
N2 C2 1_555 1_555

#END
