
#######################################################################
#
#                 Cambridge Crystallographic Data Centre
#                                CCDC 
#
#######################################################################
#
# If this CIF has been generated from an entry in the Cambridge 
# Structural Database, then it will include bibliographic, chemical, 
# crystal, experimental, refinement or atomic coordinate data resulting 
# from the CCDC's data processing and validation procedures.
#
#######################################################################

data_TEBTIE01
_chemical_formula_moiety         'C45 H54 N6 O3'
_chemical_name_systematic        
(R,R)-14,29,44-Trimethyl-3,10,18,25,33,40-hexaazaheptacyclo[40.3.1.1^12,16^.1^27,31^.0^4,9^.0^19,24^.0^34,39^]octatetraconta-1(46),2,10,12(48),13,15,17,25,27(47),28,30,32,40,42,44-pentadecaene-46,47,48-triol
_symmetry_cell_setting           monoclinic
_symmetry_space_group_name_H-M   'P 21'
_symmetry_Int_Tables_number      4
_space_group_name_Hall           'P 2yb'
loop_
_symmetry_equiv_pos_site_id
_symmetry_equiv_pos_as_xyz
1 x,y,z
2 -x,1/2+y,-z
_cell_length_a                   14.691(3)
_cell_length_b                   18.830(4)
_cell_length_c                   14.787(3)
_cell_angle_alpha                90
_cell_angle_beta                 92.95(3)
_cell_angle_gamma                90
_cell_volume                     4085.13
_cell_formula_units_Z            4
loop_
_atom_site_label
_atom_site_type_symbol
_atom_site_fract_x
_atom_site_fract_y
_atom_site_fract_z
C1 C 0.6560(2) 0.12758(18) 0.6133(2)
C2 C 0.5610(2) 0.12819(18) 0.6061(2)
C3 C 0.5134(3) 0.06599(18) 0.6251(2)
H1 H 0.4500 0.0666 0.6213
C4 C 0.5583(3) 0.00323(18) 0.6496(2)
C5 C 0.6525(3) 0.00337(18) 0.6549(2)
H2 H 0.6831 -0.0383 0.6713
C6 C 0.7036(3) 0.06417(19) 0.6367(2)
C7 C 0.5120(2) 0.19343(18) 0.5768(2)
H3 H 0.5455 0.2345 0.5677
C8 C 0.3866(2) 0.26360(17) 0.5355(2)
H4 H 0.4354 0.2965 0.5209
C9 C 0.3229(2) 0.25252(18) 0.4518(2)
H5 H 0.2768 0.2170 0.4656
C10 C 0.2754(3) 0.3213(2) 0.4239(3)
H6 H 0.2333 0.3122 0.3724
H7 H 0.3205 0.3551 0.4049
C11 C 0.2232(3) 0.3538(2) 0.5003(3)
H8 H 0.1975 0.3991 0.4809
H9 H 0.1734 0.3227 0.5149
C12 C 0.2862(3) 0.3644(2) 0.5832(3)
H10 H 0.2515 0.3822 0.6325
H11 H 0.3321 0.3995 0.5703
C13 C 0.3327(3) 0.29480(19) 0.6118(2)
H12 H 0.2870 0.2609 0.6288
H13 H 0.3736 0.3032 0.6643
C14 C 0.3531(2) 0.16672(18) 0.3417(2)
H14 H 0.3077 0.1401 0.3673
C15 C 0.3971(2) 0.13817(18) 0.2633(2)
C16 C 0.4689(2) 0.17471(17) 0.2246(2)
C17 C 0.5090(2) 0.14610(18) 0.1478(2)
C18 C 0.4742(2) 0.08204(19) 0.1124(2)
H15 H 0.4992 0.0634 0.0610
C19 C 0.4046(3) 0.04563(19) 0.1502(3)
C20 C 0.3654(2) 0.07454(19) 0.2257(3)
H16 H 0.3174 0.0510 0.2514
C21 C 0.5832(3) 0.18432(19) 0.1075(2)
H17 H 0.6035 0.2267 0.1339
C22 C 0.6926(3) 0.20656(19) 0.0027(2)
H18 H 0.7073 0.2445 0.0463
C23 C 0.7780(3) 0.16187(19) -0.0102(2)
H19 H 0.7618 0.1215 -0.0496
C24 C 0.8518(3) 0.2055(2) -0.0534(3)
H20 H 0.9038 0.1753 -0.0636
H21 H 0.8720 0.2431 -0.0123
C25 C 0.8167(3) 0.2381(2) -0.1435(3)
H22 H 0.8641 0.2671 -0.1679
H23 H 0.8019 0.2004 -0.1866
C26 C 0.7320(3) 0.2835(2) -0.1310(3)
H24 H 0.7087 0.3011 -0.1894
H25 H 0.7481 0.3241 -0.0931
C27 C 0.6583(3) 0.2395(2) -0.0871(3)
H26 H 0.6064 0.2698 -0.0767
H27 H 0.6379 0.2021 -0.1283
C28 C 0.8177(2) 0.06804(19) 0.0917(2)
H28 H 0.7975 0.0375 0.0455
C29 C 0.8527(2) 0.03767(18) 0.1765(2)
C30 C 0.8785(2) 0.08051(18) 0.2514(2)
C31 C 0.9098(2) 0.05013(19) 0.3323(2)
C32 C 0.9201(3) -0.02399(19) 0.3372(2)
H29 H 0.9427 -0.0444 0.3910
C33 C 0.8974(2) -0.06772(19) 0.2635(2)
C34 C 0.8633(2) -0.03602(18) 0.1846(3)
H30 H 0.8468 -0.0646 0.1352
C35 C 0.9386(2) 0.09473(19) 0.4103(2)
H31 H 0.9370 0.1438 0.4033
C36 C 0.9985(3) 0.11924(19) 0.5556(2)
H32 H 0.9852 0.1679 0.5355
C37 C 0.9509(2) 0.10510(19) 0.6441(2)
H33 H 0.9623 0.0555 0.6614
C38 C 0.9897(3) 0.1518(2) 0.7199(3)
H34 H 0.9604 0.1402 0.7753
H35 H 0.9763 0.2011 0.7055
C39 C 1.0917(3) 0.1428(2) 0.7352(3)
H36 H 1.1048 0.0949 0.7561
H37 H 1.1141 0.1755 0.7819
C40 C 1.1409(3) 0.1566(2) 0.6484(3)
H38 H 1.2053 0.1463 0.6587
H39 H 1.1347 0.2063 0.6319
C41 C 1.1011(3) 0.1103(2) 0.5711(3)
H40 H 1.1304 0.1225 0.5159
H41 H 1.1146 0.0609 0.5846
C42 C 0.8017(3) 0.06125(19) 0.6417(2)
H42 H 0.8291 0.0174 0.6529
C85 C 0.5060(3) -0.06407(19) 0.6668(3)
H85 H 0.5048 -0.0935 0.6137
H86 H 0.4447 -0.0523 0.6809
H87 H 0.5351 -0.0892 0.7168
C86 C 0.3675(3) -0.0241(2) 0.1111(3)
H88 H 0.3204 -0.0144 0.0654
H89 H 0.3429 -0.0519 0.1585
H90 H 0.4159 -0.0500 0.0848
C87 C 0.9138(3) -0.1470(2) 0.2695(3)
H91 H 0.9381 -0.1589 0.3291
H92 H 0.9563 -0.1608 0.2256
H93 H 0.8572 -0.1717 0.2577
N1 N 0.4264(2) 0.19560(15) 0.5636(2)
N2 N 0.3746(2) 0.22692(16) 0.3765(2)
N3 N 0.6215(2) 0.16203(16) 0.0373(2)
N4 N 0.8133(2) 0.13523(16) 0.0774(2)
N5 N 0.9650(2) 0.06975(16) 0.4857(2)
N6 N 0.8534(2) 0.11482(16) 0.6320(2)
O1 O 0.70260(18) 0.18802(13) 0.5976(2)
H103 H 0.7573 0.1811 0.6079
O2 O 0.50151(18) 0.23651(12) 0.25946(17)
H104 H 0.4641 0.2539 0.2923
O3 O 0.87241(19) 0.15267(13) 0.24543(17)
H105 H 0.8484 0.1637 0.1961
C43 C 0.4980(2) 0.90930(17) 0.3051(2)
C44 C 0.5664(2) 0.92407(18) 0.2443(2)
C45 C 0.6167(2) 0.98591(19) 0.2563(2)
H43 H 0.6621 0.9955 0.2163
C46 C 0.6027(2) 1.03440(17) 0.3253(2)
C47 C 0.5342(2) 1.01895(18) 0.3838(2)
H44 H 0.5232 1.0508 0.4300
C48 C 0.4813(2) 0.95726(18) 0.3757(2)
C49 C 0.4120(2) 0.94319(18) 0.4397(2)
H45 H 0.3986 0.9785 0.4809
C50 C 0.2996(3) 0.87529(19) 0.5099(2)
H46 H 0.2978 0.9183 0.5470
C51 C 0.2069(3) 0.86544(19) 0.4606(2)
H47 H 0.2100 0.8258 0.4179
C52 C 0.1327(3) 0.8504(2) 0.5271(3)
H48 H 0.1236 0.8922 0.5639
H49 H 0.0758 0.8399 0.4937
C53 C 0.1593(3) 0.7876(2) 0.5886(3)
H50 H 0.1128 0.7807 0.6320
H51 H 0.1622 0.7448 0.5522
C54 C 0.2499(3) 0.7992(2) 0.6384(3)
H52 H 0.2654 0.7579 0.6752
H53 H 0.2459 0.8398 0.6784
C55 C 0.3244(3) 0.81228(19) 0.5714(3)
H54 H 0.3818 0.8217 0.6046
H55 H 0.3318 0.7701 0.5349
C56 C 0.1637(2) 0.92503(19) 0.3283(3)
H56 H 0.1650 0.8804 0.3014
C57 C 0.1378(2) 0.9868(2) 0.2716(3)
C58 C 0.1106(2) 0.97823(19) 0.1814(3)
C59 C 0.0852(3) 1.03776(19) 0.1280(3)
C60 C 0.0871(3) 1.10502(19) 0.1681(3)
H57 H 0.0699 1.1443 0.1331
C61 C 0.1134(2) 1.11492(19) 0.2576(3)
C62 C 0.1382(2) 1.05582(19) 0.3094(3)
H58 H 0.1553 1.0618 0.3704
C63 C 0.0531(2) 1.0296(2) 0.0344(3)
H59 H 0.0381 1.0699 0.0004
C64 C 0.0088(3) 0.9622(2) -0.0954(3)
H60 H -0.0030 1.0097 -0.1205
C65 C 0.0790(3) 0.9244(2) -0.1511(2)
H61 H 0.0950 0.8787 -0.1228
C66 C 0.0394(3) 0.9117(2) -0.2477(3)
H62 H 0.0304 0.9571 -0.2779
H63 H 0.0826 0.8846 -0.2811
C67 C -0.0507(4) 0.8722(3) -0.2491(3)
H64 H -0.0402 0.8243 -0.2268
H65 H -0.0755 0.8689 -0.3110
C68 C -0.1199(3) 0.9090(3) -0.1911(3)
H66 H -0.1369 0.9544 -0.2179
H67 H -0.1745 0.8800 -0.1894
C69 C -0.0804(3) 0.9202(3) -0.0963(3)
H68 H -0.0693 0.8745 -0.0677
H69 H -0.1241 0.9457 -0.0615
C70 C 0.2361(3) 0.9393(2) -0.1352(2)
H70 H 0.2367 0.8919 -0.1175
C71 C 0.3236(3) 0.9767(2) -0.1384(2)
C72 C 0.4048(3) 0.94264(19) -0.1124(2)
C73 C 0.4886(3) 0.9798(2) -0.1115(2)
C74 C 0.4877(3) 1.0507(2) -0.1387(2)
H71 H 0.5425 1.0755 -0.1382
C75 C 0.4075(3) 1.0858(2) -0.1665(2)
C76 C 0.3272(3) 1.0485(2) -0.1651(2)
H72 H 0.2731 1.0716 -0.1825
C77 C 0.5740(3) 0.9452(2) -0.0847(2)
H73 H 0.6276 0.9715 -0.0837
C78 C 0.6643(3) 0.8466(2) -0.0377(2)
H74 H 0.7135 0.8815 -0.0413
C79 C 0.6625(3) 0.8172(2) 0.0587(2)
H75 H 0.6109 0.7846 0.0622
C80 C 0.7503(3) 0.7770(2) 0.0820(3)
H76 H 0.7490 0.7590 0.1434
H77 H 0.8015 0.8093 0.0794
C81 C 0.7634(3) 0.7148(2) 0.0168(3)
H78 H 0.8208 0.6913 0.0322
H79 H 0.7147 0.6805 0.0223
C82 C 0.7629(3) 0.7421(2) -0.0797(3)
H80 H 0.8167 0.7710 -0.0870
H81 H 0.7656 0.7021 -0.1209
C83 C 0.6791(3) 0.7854(2) -0.1040(3)
H82 H 0.6262 0.7544 -0.1053
H83 H 0.6840 0.8047 -0.1643
C84 C 0.5846(3) 0.87183(18) 0.1729(2)
H84 H 0.5447 0.8339 0.1642
C88 C 0.6598(3) 1.1006(2) 0.3382(3)
H94 H 0.6835 1.1141 0.2814
H95 H 0.7094 1.0914 0.3814
H96 H 0.6229 1.1383 0.3600
C89 C 0.1116(3) 1.1888(2) 0.3000(3)
H97 H 0.0506 1.2072 0.2951
H98 H 0.1514 1.2198 0.2690
H99 H 0.1317 1.1858 0.3627
C90 C 0.4115(3) 1.1621(2) -0.1972(3)
H100 H 0.4596 1.1675 -0.2381
H101 H 0.4230 1.1923 -0.1455
H102 H 0.3545 1.1750 -0.2273
N7 N 0.3685(2) 0.88470(16) 0.4423(2)
N8 N 0.1839(2) 0.93028(17) 0.4109(2)
N9 N 0.0448(2) 0.96848(17) -0.0027(2)
N10 N 0.1607(2) 0.96791(17) -0.1551(2)
N11 N 0.5777(2) 0.87962(17) -0.0623(2)
N12 N 0.6516(2) 0.87610(17) 0.1231(2)
O4 O 0.44912(18) 0.84829(13) 0.29524(17)
H106 H 0.4108 0.8468 0.3336
O5 O 0.1071(2) 0.91181(14) 0.14683(18)
H107 H 0.0765 0.9119 0.0989
O6 O 0.4018(2) 0.87325(14) -0.0884(2)
H108 H 0.4528 0.8602 -0.0703
loop_
_geom_bond_atom_site_label_1
_geom_bond_atom_site_label_2
_geom_bond_site_symmetry_1
_geom_bond_site_symmetry_2
C1 C2 1_555 1_555
C2 C3 1_555 1_555
C3 H1 1_555 1_555
C4 C3 1_555 1_555
C5 C4 1_555 1_555
H2 C5 1_555 1_555
C6 C1 1_555 1_555
C7 C2 1_555 1_555
H3 C7 1_555 1_555
C8 H4 1_555 1_555
C9 C8 1_555 1_555
H5 C9 1_555 1_555
C10 C9 1_555 1_555
H6 C10 1_555 1_555
H7 C10 1_555 1_555
C11 C10 1_555 1_555
H8 C11 1_555 1_555
H9 C11 1_555 1_555
C12 C11 1_555 1_555
H10 C12 1_555 1_555
H11 C12 1_555 1_555
C13 C8 1_555 1_555
H12 C13 1_555 1_555
H13 C13 1_555 1_555
C14 H14 1_555 1_555
C15 C14 1_555 1_555
C16 C15 1_555 1_555
C17 C16 1_555 1_555
C18 C17 1_555 1_555
H15 C18 1_555 1_555
C19 C18 1_555 1_555
C20 C15 1_555 1_555
H16 C20 1_555 1_555
C21 C17 1_555 1_555
H17 C21 1_555 1_555
C22 H18 1_555 1_555
C23 C22 1_555 1_555
H19 C23 1_555 1_555
C24 C23 1_555 1_555
H20 C24 1_555 1_555
H21 C24 1_555 1_555
C25 C24 1_555 1_555
H22 C25 1_555 1_555
H23 C25 1_555 1_555
C26 C25 1_555 1_555
H24 C26 1_555 1_555
H25 C26 1_555 1_555
C27 C22 1_555 1_555
H26 C27 1_555 1_555
H27 C27 1_555 1_555
C28 H28 1_555 1_555
C29 C28 1_555 1_555
C30 C29 1_555 1_555
C31 C30 1_555 1_555
C32 C31 1_555 1_555
H29 C32 1_555 1_555
C33 C32 1_555 1_555
C34 C29 1_555 1_555
H30 C34 1_555 1_555
C35 C31 1_555 1_555
H31 C35 1_555 1_555
C36 H32 1_555 1_555
C37 C36 1_555 1_555
H33 C37 1_555 1_555
C38 C37 1_555 1_555
H34 C38 1_555 1_555
H35 C38 1_555 1_555
C39 C38 1_555 1_555
H36 C39 1_555 1_555
H37 C39 1_555 1_555
C40 C39 1_555 1_555
H38 C40 1_555 1_555
H39 C40 1_555 1_555
C41 C36 1_555 1_555
H40 C41 1_555 1_555
H41 C41 1_555 1_555
C42 C6 1_555 1_555
H42 C42 1_555 1_555
C43 C44 1_555 1_555
C44 C45 1_555 1_555
C45 H43 1_555 1_555
C46 C45 1_555 1_555
C47 C46 1_555 1_555
H44 C47 1_555 1_555
C48 C43 1_555 1_555
C49 C48 1_555 1_555
H45 C49 1_555 1_555
C50 H46 1_555 1_555
C51 C50 1_555 1_555
H47 C51 1_555 1_555
C52 C51 1_555 1_555
H48 C52 1_555 1_555
H49 C52 1_555 1_555
C53 C52 1_555 1_555
H50 C53 1_555 1_555
H51 C53 1_555 1_555
C54 C53 1_555 1_555
H52 C54 1_555 1_555
H53 C54 1_555 1_555
C55 C50 1_555 1_555
H54 C55 1_555 1_555
H55 C55 1_555 1_555
C56 H56 1_555 1_555
C57 C56 1_555 1_555
C58 C57 1_555 1_555
C59 C58 1_555 1_555
C60 C59 1_555 1_555
H57 C60 1_555 1_555
C61 C60 1_555 1_555
C62 C57 1_555 1_555
H58 C62 1_555 1_555
C63 C59 1_555 1_555
H59 C63 1_555 1_555
C64 H60 1_555 1_555
C65 C64 1_555 1_555
H61 C65 1_555 1_555
C66 C65 1_555 1_555
H62 C66 1_555 1_555
H63 C66 1_555 1_555
C67 C66 1_555 1_555
H64 C67 1_555 1_555
H65 C67 1_555 1_555
C68 C67 1_555 1_555
H66 C68 1_555 1_555
H67 C68 1_555 1_555
C69 C64 1_555 1_555
H68 C69 1_555 1_555
H69 C69 1_555 1_555
C70 H70 1_555 1_555
C71 C70 1_555 1_555
C72 C71 1_555 1_555
C73 C72 1_555 1_555
C74 C73 1_555 1_555
H71 C74 1_555 1_555
C75 C74 1_555 1_555
C76 C71 1_555 1_555
H72 C76 1_555 1_555
C77 C73 1_555 1_555
H73 C77 1_555 1_555
C78 H74 1_555 1_555
C79 C78 1_555 1_555
H75 C79 1_555 1_555
C80 C79 1_555 1_555
H76 C80 1_555 1_555
H77 C80 1_555 1_555
C81 C80 1_555 1_555
H78 C81 1_555 1_555
H79 C81 1_555 1_555
C82 C81 1_555 1_555
H80 C82 1_555 1_555
H81 C82 1_555 1_555
C83 C78 1_555 1_555
H82 C83 1_555 1_555
H83 C83 1_555 1_555
C84 C44 1_555 1_555
H84 C84 1_555 1_555
C85 C4 1_555 1_555
H85 C85 1_555 1_555
H86 C85 1_555 1_555
H87 C85 1_555 1_555
C86 C19 1_555 1_555
H88 C86 1_555 1_555
H89 C86 1_555 1_555
H90 C86 1_555 1_555
C87 C33 1_555 1_555
H91 C87 1_555 1_555
H92 C87 1_555 1_555
H93 C87 1_555 1_555
C88 C46 1_555 1_555
H94 C88 1_555 1_555
H95 C88 1_555 1_555
H96 C88 1_555 1_555
C89 C61 1_555 1_555
H97 C89 1_555 1_555
H98 C89 1_555 1_555
H99 C89 1_555 1_555
C90 C75 1_555 1_555
H100 C90 1_555 1_555
H101 C90 1_555 1_555
H102 C90 1_555 1_555
N1 C7 1_555 1_555
N2 C9 1_555 1_555
N3 C21 1_555 1_555
N4 C23 1_555 1_555
N5 C35 1_555 1_555
N6 C37 1_555 1_555
N7 C49 1_555 1_555
N8 C51 1_555 1_555
N9 C63 1_555 1_555
N10 C65 1_555 1_555
N11 C77 1_555 1_555
N12 C79 1_555 1_555
O1 C1 1_555 1_555
H103 O1 1_555 1_555
O2 C16 1_555 1_555
H104 O2 1_555 1_555
O3 C30 1_555 1_555
H105 O3 1_555 1_555
O4 C43 1_555 1_555
H106 O4 1_555 1_555
O5 C58 1_555 1_555
H107 O5 1_555 1_555
O6 C72 1_555 1_555
H108 O6 1_555 1_555
C5 C6 1_555 1_555
C8 N1 1_555 1_555
C12 C13 1_555 1_555
C14 N2 1_555 1_555
C19 C20 1_555 1_555
C22 N3 1_555 1_555
C26 C27 1_555 1_555
C28 N4 1_555 1_555
C33 C34 1_555 1_555
C36 N5 1_555 1_555
C40 C41 1_555 1_555
C42 N6 1_555 1_555
C47 C48 1_555 1_555
C50 N7 1_555 1_555
C54 C55 1_555 1_555
C56 N8 1_555 1_555
C61 C62 1_555 1_555
C64 N9 1_555 1_555
C68 C69 1_555 1_555
C70 N10 1_555 1_555
C75 C76 1_555 1_555
C78 N11 1_555 1_555
C82 C83 1_555 1_555
C84 N12 1_555 1_555

#END
