
#######################################################################
#
#                 Cambridge Crystallographic Data Centre
#                                CCDC 
#
#######################################################################
#
# If this CIF has been generated from an entry in the Cambridge 
# Structural Database, then it will include bibliographic, chemical, 
# crystal, experimental, refinement or atomic coordinate data resulting 
# from the CCDC's data processing and validation procedures.
#
#######################################################################

data_TEBXII
_chemical_formula_moiety         'C44 H42 O4'
_chemical_name_systematic        
(1\a,4\a,4a\b,5\b,7\b,7a\b,8\a,11\a,11a\b,12\b,14\b,14a\b)-1,4,4a,5,7,7a,8,11,11a,12,14,14a-dodecahydro-6,13-dimethoxy-5,14:7,12-dietheno-1,4:8,11-di(endo-benzyloxymethano)pentacene
_symmetry_cell_setting           triclinic
_symmetry_space_group_name_H-M   'P -1'
_symmetry_Int_Tables_number      2
_space_group_name_Hall           '-P 1'
loop_
_symmetry_equiv_pos_site_id
_symmetry_equiv_pos_as_xyz
1 x,y,z
2 -x,-y,-z
_cell_length_a                   12.119(2)
_cell_length_b                   21.628(4)
_cell_length_c                   21.812(4)
_cell_angle_alpha                114.94(3)
_cell_angle_beta                 90.12(3)
_cell_angle_gamma                106.06(3)
_cell_volume                     4935.22
_exptl_crystal_colour            colorless
_exptl_crystal_description       flaky
_chemical_melting_point          '185-186 deg.C'
_cell_formula_units_Z            6
loop_
_atom_site_label
_atom_site_type_symbol
_atom_site_fract_x
_atom_site_fract_y
_atom_site_fract_z
C1 C 0.5252(4) 0.1659(3) 0.5235(2)
O1 O 0.2666(3) 0.2203(2) 0.5809(2)
O2 O 0.7233(3) 0.21578(19) 0.57674(18)
C2 C 0.4109(4) 0.1676(3) 0.5248(3)
C3 C 0.6106(4) 0.2179(3) 0.5783(2)
C4 C 0.5821(4) 0.2727(3) 0.6306(3)
C5 C 0.3818(4) 0.2206(3) 0.5794(3)
C6 C 0.4672(4) 0.2733(3) 0.6303(2)
C7 C 0.5433(5) 0.1085(3) 0.4575(2)
H1 H 0.6225 0.1056 0.4591
C8 C 0.5158(5) 0.1321(3) 0.4020(3)
H2 H 0.5670 0.1808 0.4152
C9 C 0.3885(5) 0.1350(3) 0.4044(3)
H3 H 0.3915 0.1850 0.4193
C10 C 0.3478(5) 0.0395(3) 0.4458(3)
H4 H 0.2856 -0.0002 0.4394
C11 C 0.6640(4) 0.3383(3) 0.6879(3)
H5 H 0.7434 0.3357 0.6884
C12 C 0.3330(5) 0.1114(3) 0.4575(3)
H6 H 0.2519 0.1108 0.4587
C13 C 0.4543(5) 0.0384(3) 0.4456(3)
H7 H 0.4744 -0.0023 0.4387
C14 C 0.5265(4) 0.4016(2) 0.6706(2)
H8 H 0.4976 0.3897 0.6237
O3 O 0.4825(5) 0.1920(3) 0.3147(2)
C15 C 0.4521(4) 0.3402(3) 0.6887(3)
H9 H 0.3707 0.3389 0.6902
O4 O 0.6389(4) 0.4997(2) 0.6256(2)
C16 C 0.6542(4) 0.4004(3) 0.6719(3)
H10 H 0.6750 0.3903 0.6260
C17 C 0.5082(6) 0.3471(3) 0.7540(3)
H11 H 0.4696 0.3516 0.7917
C18 C 0.6194(6) 0.3464(3) 0.7532(3)
H12 H 0.6640 0.3505 0.7903
C19 C 0.5183(6) 0.0866(3) 0.3246(3)
H13 H 0.5954 0.0902 0.3102
C20 C 0.4370(6) 0.0135(3) 0.2991(3)
H14 H 0.4577 -0.0283 0.2845
C21 C 0.4400(7) 0.1175(4) 0.2947(3)
H15 H 0.4253 0.0913 0.2448
C22 C 0.3284(6) 0.0173(3) 0.3004(3)
H16 H 0.2610 -0.0212 0.2875
C23 C 0.3351(6) 0.0921(3) 0.3254(3)
H17 H 0.2647 0.1008 0.3136
C24 C 0.7235(4) 0.4810(3) 0.7203(3)
H18 H 0.8065 0.4953 0.7171
C25 C 0.7135(6) 0.5820(3) 0.5783(3)
C26 C 0.5368(5) 0.4815(3) 0.7156(3)
H19 H 0.4696 0.4963 0.7097
C27 C 0.5841(7) 0.5036(3) 0.7878(3)
H20 H 0.5428 0.5156 0.8248
C28 C 0.6927(6) 0.5036(3) 0.7913(3)
H21 H 0.7410 0.5154 0.8304
C29 C 0.7472(6) 0.1780(4) 0.6122(4)
H22 H 0.7495 0.2056 0.6603
H23 H 0.8207 0.1699 0.6032
H24 H 0.6876 0.1328 0.5970
C30 C 0.2061(6) 0.1825(4) 0.6156(4)
H25 H 0.2156 0.1357 0.5974
H26 H 0.1253 0.1780 0.6098
H27 H 0.2360 0.2079 0.6633
C31 C 0.6509(5) 0.5184(3) 0.6969(4)
H28 H 0.6763 0.5704 0.7248
C32 C 0.7377(6) 0.5357(4) 0.6077(4)
H29 H 0.7697 0.5009 0.5747
H30 H 0.7952 0.5650 0.6479
C33 C 0.392(2) 0.2190(14) 0.2921(14)
H31 H 0.3698 0.2536 0.3313
H32 H 0.3238 0.1796 0.2658
C113 C 0.4628(7) 0.2594(4) 0.2414(3)
C114 C 0.5525(11) 0.2447(6) 0.2327(8)
H108 H 0.5972 0.2328 0.2583
C115 C 0.6872(13) 0.6793(8) 0.5310(7)
H109 H 0.6555 0.6955 0.5041
C116 C 0.7602(10) 0.6565(7) 0.5163(7)
H110 H 0.8098 0.6677 0.4874
C117 C 0.6460(12) 0.6825(6) 0.5899(6)
H111 H 0.6060 0.7145 0.6133
C118 C 0.7748(10) 0.6078(11) 0.5447(10)
H112 H 0.8417 0.5943 0.5357
C120 C 0.6678(11) 0.6329(6) 0.6144(6)
H114 H 0.6488 0.6375 0.6571
C121 C 0.5534(8) 0.3200(5) 0.1684(5)
H115 H 0.5922 0.3459 0.1459
C123 C 0.4797(14) 0.3319(10) 0.2046(6)
H117 H 0.4493 0.3643 0.1985
C128 C 0.4320(17) 0.3146(8) 0.2473(11)
H122 H 0.3845 0.3361 0.2771
C132 C 0.5683(14) 0.2517(9) 0.1685(9)
H126 H 0.5862 0.2170 0.1304
O5 O 0.4140(3) 0.10972(18) 0.74604(18)
O6 O -0.0450(3) 0.1100(2) 0.7514(2)
C34 C 0.2704(4) 0.1631(3) 0.8023(2)
C35 C 0.0991(5) 0.0544(3) 0.6990(3)
C36 C 0.1548(4) 0.1629(3) 0.8034(3)
C37 C 0.0700(4) 0.1100(3) 0.7514(3)
C38 C 0.3003(4) 0.1095(3) 0.7482(3)
C39 C 0.2139(5) 0.0542(2) 0.6970(2)
C40 C 0.0281(5) -0.0743(3) 0.6601(3)
H33 H 0.0125 -0.0629 0.7070
C41 C 0.2282(5) -0.0129(3) 0.6388(3)
H34 H 0.3097 -0.0111 0.6360
O7 O 0.2068(4) 0.1390(2) 1.0092(2)
C42 C 0.1583(5) -0.0743(3) 0.6565(3)
H35 H 0.1919 -0.0644 0.7018
O8 O 0.0491(5) -0.1755(3) 0.7033(3)
C43 C 0.3314(5) 0.2910(3) 0.8797(3)
H36 H 0.3921 0.3312 0.8856
C44 C 0.2222(5) 0.2902(3) 0.8817(3)
H37 H 0.1998 0.3304 0.8892
C45 C 0.3479(4) 0.2200(3) 0.8669(2)
H38 H 0.4292 0.2215 0.8642
C46 C 0.1356(4) 0.2196(3) 0.8708(3)
H39 H 0.0555 0.2211 0.8705
C47 C 0.0146(5) -0.0124(3) 0.6427(3)
H40 H -0.0651 -0.0101 0.6427
C48 C 0.2995(4) 0.1982(3) 0.9231(2)
H41 H 0.3024 0.1495 0.9102
C49 C 0.1684(6) -0.0205(3) 0.5746(3)
H42 H 0.2057 -0.0245 0.5365
C50 C 0.0599(6) -0.0210(3) 0.5757(3)
H43 H 0.0144 -0.0262 0.5384
C51 C 0.1696(4) 0.1953(3) 0.9238(2)
H44 H 0.1230 0.1453 0.9093
C52 C 0.1429(6) -0.1552(3) 0.6074(3)
H45 H 0.2113 -0.1705 0.6091
C53 C -0.0429(6) -0.1534(3) 0.6142(3)
H46 H -0.1238 -0.1678 0.6216
C54 C -0.0226(6) -0.1765(3) 0.5412(3)
H47 H -0.0766 -0.1882 0.5047
C55 C 0.3496(4) 0.2434(3) 0.9997(3)
H48 H 0.4238 0.2391 1.0124
C56 C 0.1627(5) 0.2380(3) 1.0016(3)
H49 H 0.0846 0.2295 1.0147
C57 C 0.2315(6) 0.3137(3) 1.0269(3)
H50 H 0.2022 0.3522 1.0401
C58 C 0.0872(6) -0.1773(3) 0.5380(3)
H51 H 0.1226 -0.1897 0.4987
C59 C 0.0388(7) -0.1901(3) 0.6334(3)
H52 H 0.0119 -0.2419 0.6047
C60 C 0.2457(4) 0.2126(3) 1.0314(3)
H53 H 0.2591 0.2380 1.0814
C61 C 0.4737(6) 0.1465(4) 0.7098(4)
H54 H 0.4394 0.1220 0.6628
H55 H 0.5536 0.1482 0.7126
H56 H 0.4687 0.1945 0.7293
C62 C -0.0715(6) 0.1490(4) 0.7194(4)
H57 H -0.0048 0.1889 0.7266
H58 H -0.1345 0.1662 0.7383
H59 H -0.0933 0.1188 0.6714
C63 C 0.3438(6) 0.3175(4) 1.0276(3)
H60 H 0.4065 0.3591 1.0427
C64 C -0.0495(6) -0.2590(4) 0.7574(4)
C65 C 0.2151(6) 0.0802(3) 1.0813(3)
C66 C 0.2781(6) 0.1153(4) 1.0405(4)
H61 H 0.3426 0.1561 1.0700
H62 H 0.3095 0.0819 1.0054
C67 C -0.068(2) -0.2038(13) 0.7272(8)
H63 H -0.1296 -0.2286 0.6892
H64 H -0.0875 -0.1642 0.7624
C110 C 0.1980(12) 0.0096(7) 1.1445(6)
H105 H 0.2378 -0.0116 1.1624
C119 C 0.2483(10) 0.0444(9) 1.1058(9)
H113 H 0.3214 0.0403 1.0962
C122 C 0.0445(12) -0.2757(8) 0.7385(6)
H116 H 0.0866 -0.2581 0.7106
C124 C 0.080(3) -0.3173(15) 0.7586(9)
H118 H 0.0994 -0.3524 0.7215
C125 C 0.0964(17) -0.3246(9) 0.8096(8)
H119 H 0.1599 -0.3194 0.8375
C126 C -0.0261(9) -0.3449(5) 0.8076(5)
H120 H -0.0649 -0.3908 0.8021
C127 C -0.0954(10) -0.2954(8) 0.8139(6)
H121 H -0.1518 -0.2861 0.8423
C129 C 0.0987(18) 0.0512(12) 1.0560(8)
H123 H 0.0652 0.0585 1.0223
C130 C 0.0262(17) 0.0026(9) 1.0916(11)
H124 H -0.0514 -0.0247 1.0782
C131 C 0.1073(15) 0.0087(11) 1.1525(11)
H125 H 0.0799 0.0114 1.1931
O9 O 0.6161(4) 0.4452(2) 0.0853(2)
O10 O 1.0762(4) 0.4469(2) 0.0856(2)
C68 C 0.8135(5) 0.4993(3) 0.1379(3)
C69 C 0.7610(5) 0.3908(3) 0.0344(3)
C70 C 0.9283(5) 0.4994(3) 0.1398(3)
C71 C 0.6802(6) 0.3227(3) -0.0229(3)
H65 H 0.5993 0.3226 -0.0234
C72 C 0.7300(5) 0.4456(3) 0.0851(3)
C73 C 0.9610(5) 0.4467(3) 0.0853(3)
C74 C 0.8779(5) 0.3924(3) 0.0343(3)
C75 C 0.8173(5) 0.5329(3) 0.2596(3)
H66 H 0.7668 0.4840 0.2461
O11 O 0.8468(6) 0.4760(3) 0.3482(3)
C76 C 0.6987(5) 0.2623(3) -0.0062(3)
H67 H 0.6826 0.2734 0.0407
C77 C 0.9456(6) 0.5316(3) 0.2600(3)
H68 H 0.9443 0.4820 0.2460
C78 C 0.7908(5) 0.5566(3) 0.2033(3)
H69 H 0.7113 0.5587 0.2003
C79 C 0.9896(6) 0.6267(3) 0.2184(3)
H70 H 1.0519 0.6670 0.2267
C80 C 1.0048(6) 0.5564(3) 0.2059(3)
H71 H 1.0861 0.5575 0.2054
C81 C 0.7621(6) 0.1622(3) -0.1269(3)
H72 H 0.7985 0.1510 -0.1659
C82 C 0.8810(6) 0.6275(3) 0.2167(3)
H73 H 0.8611 0.6682 0.2232
O12 O 0.7213(6) 0.1626(3) 0.0367(3)
C83 C 0.9974(5) 0.6519(3) 0.3628(3)
H74 H 1.0640 0.6911 0.3768
C84 C 0.8265(5) 0.2639(3) -0.0080(3)
H75 H 0.8586 0.2745 0.0379
C85 C 0.6538(6) 0.1614(3) -0.1239(4)
H76 H 0.6003 0.1497 -0.1608
C86 C 0.8345(7) 0.3184(3) -0.0895(3)
H77 H 0.8729 0.3148 -0.1272
C87 C 0.7260(7) 0.3166(3) -0.0896(3)
H78 H 0.6809 0.3121 -0.1267
C88 C 0.8938(5) 0.3267(3) -0.0242(3)
H79 H 0.9758 0.3298 -0.0265
C89 C 0.8908(6) 0.6541(3) 0.3621(3)
H80 H 0.8681 0.6951 0.3758
C90 C 0.9940(6) 0.5748(4) 0.3370(3)
H81 H 1.0644 0.5672 0.3507
C91 C 0.8173(5) 0.1844(3) -0.0556(3)
H82 H 0.8870 0.1706 -0.0528
C92 C 0.8105(5) 0.5777(3) 0.3350(3)
H83 H 0.7317 0.5733 0.3470
C93 C 0.6295(5) 0.1823(3) -0.0515(3)
H84 H 0.5480 0.1672 -0.0453
C94 C 0.6236(9) 0.0704(5) 0.0978(5)
H85 H 0.5825 0.0926 0.0822
C95 C 0.8833(6) 0.5497(3) 0.3691(3)
H86 H 0.8949 0.5765 0.4189
C96 C 0.6292(18) 0.0017(6) 0.1526(8)
H87 H 0.5918 -0.0222 0.1771
C97 C 0.7092(6) 0.1459(3) -0.0330(3)
H88 H 0.6844 0.0940 -0.0616
C98 C 1.1377(7) 0.4838(4) 0.0490(4)
H89 H 1.1040 0.4592 0.0020
H90 H 1.2175 0.4852 0.0523
H91 H 1.1331 0.5318 0.0683
C99 C 0.5891(6) 0.4863(4) 0.0524(4)
H92 H 0.6438 0.5336 0.0720
H93 H 0.5123 0.4897 0.0591
H94 H 0.5933 0.4630 0.0045
C100 C 0.7348(9) 0.4468(7) 0.3743(6)
H95 H 0.7106 0.4863 0.4063
H96 H 0.6731 0.4171 0.3362
C101 C 0.7382(6) 0.0880(4) 0.0965(5)
C102 C 0.7988(9) 0.1274(5) 0.0586(6)
H97 H 0.8221 0.0945 0.0184
H98 H 0.8684 0.1641 0.0872
C103 C 0.7940(9) 0.0584(5) 0.1237(6)
H99 H 0.8740 0.0695 0.1245
C104 C 0.5649(8) 0.0249(5) 0.1191(6)
H100 H 0.4843 0.0088 0.1122
C105 C 0.7400(14) 0.0120(5) 0.1511(5)
H101 H 0.7803 -0.0102 0.1672
C106 C 0.7575(6) 0.4028(5) 0.4090(5)
C107 C 0.8628(8) 0.4013(5) 0.4223(6)
H102 H 0.9235 0.4189 0.4022
C108 C 0.7702(14) 0.3276(6) 0.4781(6)
H103 H 0.7717 0.2899 0.4879
C109 C 0.8825(10) 0.3725(7) 0.4676(5)
H104 H 0.9554 0.3802 0.4883
C111 C 0.6716(9) 0.3682(7) 0.4330(5)
H106 H 0.5961 0.3648 0.4200
C112 C 0.6866(15) 0.3380(5) 0.4746(6)
H107 H 0.6285 0.3264 0.4992
loop_
_geom_bond_atom_site_label_1
_geom_bond_atom_site_label_2
_geom_bond_site_symmetry_1
_geom_bond_site_symmetry_2
C1 C2 1_555 1_555
O1 C5 1_555 1_555
O2 C3 1_555 1_555
C2 C5 1_555 1_555
C3 C1 1_555 1_555
C4 C3 1_555 1_555
C5 C6 1_555 1_555
C6 C4 1_555 1_555
C7 C1 1_555 1_555
H1 C7 1_555 1_555
C8 C7 1_555 1_555
H2 C8 1_555 1_555
C9 C8 1_555 1_555
H3 C9 1_555 1_555
C10 H4 1_555 1_555
C11 C4 1_555 1_555
H5 C11 1_555 1_555
C12 C2 1_555 1_555
H6 C12 1_555 1_555
C13 C7 1_555 1_555
H7 C13 1_555 1_555
C14 H8 1_555 1_555
O3 C21 1_555 1_555
C15 C6 1_555 1_555
H9 C15 1_555 1_555
O4 C31 1_555 1_555
C16 C11 1_555 1_555
H10 C16 1_555 1_555
C17 C15 1_555 1_555
H11 C17 1_555 1_555
C18 C11 1_555 1_555
H12 C18 1_555 1_555
C19 C8 1_555 1_555
H13 C19 1_555 1_555
C20 C19 1_555 1_555
H14 C20 1_555 1_555
C21 C19 1_555 1_555
H15 C21 1_555 1_555
C22 C20 1_555 1_555
H16 C22 1_555 1_555
C23 C9 1_555 1_555
H17 C23 1_555 1_555
C24 C16 1_555 1_555
H18 C24 1_555 1_555
C25 C32 1_555 1_555
C26 C14 1_555 1_555
H19 C26 1_555 1_555
C27 C26 1_555 1_555
H20 C27 1_555 1_555
C28 C24 1_555 1_555
H21 C28 1_555 1_555
C29 O2 1_555 1_555
H22 C29 1_555 1_555
H23 C29 1_555 1_555
H24 C29 1_555 1_555
C30 O1 1_555 1_555
H25 C30 1_555 1_555
H26 C30 1_555 1_555
H27 C30 1_555 1_555
C31 C24 1_555 1_555
H28 C31 1_555 1_555
C32 O4 1_555 1_555
H29 C32 1_555 1_555
H30 C32 1_555 1_555
C33 O3 1_555 1_555
H31 C33 1_555 1_555
H32 C33 1_555 1_555
O5 C38 1_555 1_555
O6 C37 1_555 1_555
C34 C36 1_555 1_555
C35 C37 1_555 1_555
C36 C37 1_555 1_555
C38 C34 1_555 1_555
C39 C35 1_555 1_555
C40 H33 1_555 1_555
C41 C39 1_555 1_555
H34 C41 1_555 1_555
O7 C60 1_555 1_555
C42 C40 1_555 1_555
H35 C42 1_555 1_555
O8 C59 1_555 1_555
C43 H36 1_555 1_555
C44 C43 1_555 1_555
H37 C44 1_555 1_555
C45 C34 1_555 1_555
H38 C45 1_555 1_555
C46 C36 1_555 1_555
H39 C46 1_555 1_555
C47 C35 1_555 1_555
H40 C47 1_555 1_555
C48 C45 1_555 1_555
H41 C48 1_555 1_555
C49 C41 1_555 1_555
H42 C49 1_555 1_555
C50 C47 1_555 1_555
H43 C50 1_555 1_555
C51 C46 1_555 1_555
H44 C51 1_555 1_555
C52 C42 1_555 1_555
H45 C52 1_555 1_555
C53 C40 1_555 1_555
H46 C53 1_555 1_555
C54 C53 1_555 1_555
H47 C54 1_555 1_555
C55 C48 1_555 1_555
H48 C55 1_555 1_555
C56 C51 1_555 1_555
H49 C56 1_555 1_555
C57 C56 1_555 1_555
H50 C57 1_555 1_555
C58 C52 1_555 1_555
H51 C58 1_555 1_555
C59 C52 1_555 1_555
H52 C59 1_555 1_555
C60 C55 1_555 1_555
H53 C60 1_555 1_555
C61 O5 1_555 1_555
H54 C61 1_555 1_555
H55 C61 1_555 1_555
H56 C61 1_555 1_555
C62 O6 1_555 1_555
H57 C62 1_555 1_555
H58 C62 1_555 1_555
H59 C62 1_555 1_555
C63 C55 1_555 1_555
H60 C63 1_555 1_555
C64 C67 1_555 1_555
C65 C66 1_555 1_555
C66 O7 1_555 1_555
H61 C66 1_555 1_555
H62 C66 1_555 1_555
C67 O8 1_555 1_555
H63 C67 1_555 1_555
H64 C67 1_555 1_555
O9 C72 1_555 1_555
O10 C73 1_555 1_555
C68 C70 1_555 1_555
C69 C71 1_555 1_555
C70 C73 1_555 1_555
C71 H65 1_555 1_555
C72 C68 1_555 1_555
C73 C74 1_555 1_555
C74 C69 1_555 1_555
C75 H66 1_555 1_555
O11 C95 1_555 1_555
C76 C71 1_555 1_555
H67 C76 1_555 1_555
C77 C75 1_555 1_555
H68 C77 1_555 1_555
C78 C68 1_555 1_555
H69 C78 1_555 1_555
C79 H70 1_555 1_555
C80 C70 1_555 1_555
H71 C80 1_555 1_555
C81 H72 1_555 1_555
C82 C78 1_555 1_555
H73 C82 1_555 1_555
O12 C97 1_555 1_555
C83 H74 1_555 1_555
C84 C76 1_555 1_555
H75 C84 1_555 1_555
C85 C81 1_555 1_555
H76 C85 1_555 1_555
C86 H77 1_555 1_555
C87 C71 1_555 1_555
H78 C87 1_555 1_555
C88 C74 1_555 1_555
H79 C88 1_555 1_555
C89 C83 1_555 1_555
H80 C89 1_555 1_555
C90 C77 1_555 1_555
H81 C90 1_555 1_555
C91 C81 1_555 1_555
H82 C91 1_555 1_555
C92 C75 1_555 1_555
H83 C92 1_555 1_555
C93 C76 1_555 1_555
H84 C93 1_555 1_555
C94 H85 1_555 1_555
C95 C90 1_555 1_555
H86 C95 1_555 1_555
C96 H87 1_555 1_555
C97 C91 1_555 1_555
H88 C97 1_555 1_555
C98 O10 1_555 1_555
H89 C98 1_555 1_555
H90 C98 1_555 1_555
H91 C98 1_555 1_555
C99 O9 1_555 1_555
H92 C99 1_555 1_555
H93 C99 1_555 1_555
H94 C99 1_555 1_555
C100 O11 1_555 1_555
H95 C100 1_555 1_555
H96 C100 1_555 1_555
C101 C94 1_555 1_555
C102 O12 1_555 1_555
H97 C102 1_555 1_555
H98 C102 1_555 1_555
C103 C101 1_555 1_555
H99 C103 1_555 1_555
C104 C94 1_555 1_555
H100 C104 1_555 1_555
C105 C96 1_555 1_555
H101 C105 1_555 1_555
C106 C100 1_555 1_555
C107 C106 1_555 1_555
H102 C107 1_555 1_555
C108 H103 1_555 1_555
C109 C107 1_555 1_555
H104 C109 1_555 1_555
C110 H105 1_555 1_555
C111 C106 1_555 1_555
H106 C111 1_555 1_555
C112 C108 1_555 1_555
H107 C112 1_555 1_555
C113 C33 1_555 1_555
C114 C113 1_555 1_555
H108 C114 1_555 1_555
C115 H109 1_555 1_555
C116 C115 1_555 1_555
H110 C116 1_555 1_555
C117 C115 1_555 1_555
H111 C117 1_555 1_555
C118 C25 1_555 1_555
H112 C118 1_555 1_555
C119 C65 1_555 1_555
H113 C119 1_555 1_555
C120 C25 1_555 1_555
H114 C120 1_555 1_555
C121 H115 1_555 1_555
C122 C64 1_555 1_555
H116 C122 1_555 1_555
C123 C121 1_555 1_555
H117 C123 1_555 1_555
C124 C122 1_555 1_555
H118 C124 1_555 1_555
C125 C124 1_555 1_555
H119 C125 1_555 1_555
C126 C125 1_555 1_555
H120 C126 1_555 1_555
C127 C64 1_555 1_555
H121 C127 1_555 1_555
C128 C113 1_555 1_555
H122 C128 1_555 1_555
C129 C65 1_555 1_555
H123 C129 1_555 1_555
C130 C129 1_555 1_555
H124 C130 1_555 1_555
C131 C110 1_555 1_555
H125 C131 1_555 1_555
C132 C114 1_555 1_555
H126 C132 1_555 1_555
C9 C12 1_555 1_555
C10 C12 1_555 1_555
C10 C13 1_555 1_555
C14 C15 1_555 1_555
C14 C16 1_555 1_555
C17 C18 1_555 1_555
C21 C23 1_555 1_555
C22 C23 1_555 1_555
C26 C31 1_555 1_555
C27 C28 1_555 1_555
C38 C39 1_555 1_555
C40 C47 1_555 1_555
C41 C42 1_555 1_555
C43 C45 1_555 1_555
C44 C46 1_555 1_555
C48 C51 1_555 1_555
C49 C50 1_555 1_555
C53 C59 1_555 1_555
C54 C58 1_555 1_555
C56 C60 1_555 1_555
C57 C63 1_555 1_555
C69 C72 1_555 1_555
C75 C78 1_555 1_555
C77 C80 1_555 1_555
C79 C80 1_555 1_555
C79 C82 1_555 1_555
C83 C90 1_555 1_555
C84 C88 1_555 1_555
C84 C91 1_555 1_555
C85 C93 1_555 1_555
C86 C87 1_555 1_555
C86 C88 1_555 1_555
C89 C92 1_555 1_555
C92 C95 1_555 1_555
C93 C97 1_555 1_555
C96 C104 1_555 1_555
C101 C102 1_555 1_555
C103 C105 1_555 1_555
C108 C109 1_555 1_555
C110 C119 1_555 1_555
C111 C112 1_555 1_555
C116 C118 1_555 1_555
C117 C120 1_555 1_555
C121 C132 1_555 1_555
C123 C128 1_555 1_555
C126 C127 1_555 1_555
C130 C131 1_555 1_555

#END
