
#######################################################################
#
#                 Cambridge Crystallographic Data Centre
#                                CCDC 
#
#######################################################################
#
# If this CIF has been generated from an entry in the Cambridge 
# Structural Database, then it will include bibliographic, chemical, 
# crystal, experimental, refinement or atomic coordinate data resulting 
# from the CCDC's data processing and validation procedures.
#
#######################################################################

data_TEBXOO
_chemical_formula_moiety         'C64 H50 O4'
_chemical_name_systematic        
(1\a,4\a,4a\b,5\b,7\b,7a\b,8\a,11\a,11a\b,12\b,14\b,14a\b)-1,4,4a,5,7,7a,8,11,11a,12,14,14a-dodecahydro-6,13-dimethoxy-5,14:7,12-dietheno-1,4:8,11-di(endo-(1-pyrenylmethoxy)methano)pentacene
_symmetry_cell_setting           triclinic
_symmetry_space_group_name_H-M   'P -1'
_symmetry_Int_Tables_number      2
_space_group_name_Hall           '-P 1'
loop_
_symmetry_equiv_pos_site_id
_symmetry_equiv_pos_as_xyz
1 x,y,z
2 -x,-y,-z
_cell_length_a                   10.1163(6)
_cell_length_b                   13.3844(8)
_cell_length_c                   18.6525(12)
_cell_angle_alpha                73.3160(10)
_cell_angle_beta                 77.5670(10)
_cell_angle_gamma                68.3520(10)
_cell_volume                     2231.57
_exptl_crystal_colour            colorless
_exptl_crystal_description       prisms
_chemical_melting_point          '232-234 deg.C'
_cell_formula_units_Z            2
loop_
_atom_site_label
_atom_site_type_symbol
_atom_site_fract_x
_atom_site_fract_y
_atom_site_fract_z
O1 O 0.7836(3) 0.53289(19) 0.45332(14)
O2 O 0.7507(3) 0.9555(2) 0.17858(14)
O3 O 1.2139(3) 0.7693(2) 0.34553(14)
O4 O 1.2366(3) 0.5736(2) 0.07296(14)
C1 C 1.4309(6) 0.2127(6) 0.2099(3)
H1 H 1.5181 0.2028 0.1791
C2 C 1.3900(6) 0.1226(5) 0.2482(3)
H2 H 1.4495 0.0529 0.2421
C3 C 1.2614(5) 0.1328(4) 0.2964(3)
C4 C 1.1714(5) 0.2404(4) 0.3045(2)
C5 C 1.2132(5) 0.3336(4) 0.2639(2)
C6 C 1.3438(5) 0.3183(5) 0.2164(3)
H3 H 1.3718 0.3788 0.1893
C7 C 1.2128(7) 0.0418(4) 0.3372(3)
H4 H 1.2705 -0.0293 0.3329
C8 C 1.0881(6) 0.0555(4) 0.3811(3)
H5 H 1.0601 -0.0058 0.4058
C9 C 0.9960(5) 0.1622(3) 0.3911(2)
C10 C 1.0390(4) 0.2556(3) 0.3518(2)
C11 C 0.9480(4) 0.3631(3) 0.3600(2)
C12 C 0.9954(4) 0.4553(3) 0.3174(2)
H6 H 0.9379 0.5264 0.3215
C13 C 1.1204(5) 0.4407(4) 0.2719(2)
H7 H 1.1469 0.5020 0.2451
C14 C 0.8657(6) 0.1787(4) 0.4364(3)
H8 H 0.8360 0.1184 0.4620
C15 C 0.7796(5) 0.2826(4) 0.4442(2)
H9 H 0.6932 0.2908 0.4756
C16 C 0.8173(4) 0.3761(3) 0.4067(2)
C17 C 0.7167(4) 0.4867(3) 0.4173(2)
H10 H 0.6926 0.5351 0.3688
H11 H 0.6290 0.4790 0.4480
C18 C 0.6880(4) 0.6159(3) 0.48985(19)
H12 H 0.6263 0.5860 0.5320
C19 C 0.7709(4) 0.6720(3) 0.51637(19)
H13 H 0.8361 0.6237 0.5536
C20 C 0.6436(5) 0.7610(3) 0.5444(2)
H14 H 0.6374 0.7893 0.5855
C21 C 0.5431(4) 0.7914(3) 0.5005(2)
H15 H 0.4531 0.8442 0.5057
C22 C 0.5992(4) 0.7260(3) 0.4402(2)
H16 H 0.5263 0.7207 0.4157
C23 C 0.8447(4) 0.7185(3) 0.43742(18)
H17 H 0.9199 0.6561 0.4202
C24 C 0.7221(4) 0.7610(3) 0.38652(19)
H18 H 0.7538 0.7189 0.3473
C25 C 0.9105(4) 0.8117(3) 0.42617(19)
H19 H 0.9902 0.7884 0.4558
C26 C 0.7925(4) 0.9134(3) 0.4436(2)
H20 H 0.7957 0.9474 0.4799
C27 C 0.6849(4) 0.9507(3) 0.4036(2)
H21 H 0.6056 1.0123 0.4099
C28 C 0.7000(4) 0.8855(3) 0.3466(2)
H22 H 0.6198 0.9178 0.3164
C29 C 1.0973(4) 0.8150(3) 0.3049(2)
C30 C 0.9580(4) 0.8366(3) 0.34107(19)
C31 C 0.8431(4) 0.8802(3) 0.2984(2)
C32 C 0.8659(4) 0.9078(3) 0.2204(2)
C33 C 1.0048(4) 0.8897(3) 0.18458(19)
C34 C 1.1208(4) 0.8404(3) 0.2266(2)
C35 C 1.2505(4) 0.6531(3) 0.3732(2)
H23 H 1.1802 0.6369 0.4141
H24 H 1.3430 0.6241 0.3905
H25 H 1.2530 0.6198 0.3334
C36 C 0.7101(5) 0.8778(4) 0.1583(3)
H26 H 0.7884 0.8373 0.1274
H27 H 0.6288 0.9158 0.1308
H28 H 0.6854 0.8277 0.2031
C37 C 1.2651(4) 0.8150(3) 0.1775(2)
H29 H 1.3459 0.7828 0.2073
C38 C 1.2675(4) 0.9226(3) 0.1219(2)
H30 H 1.3407 0.9518 0.1159
C39 C 1.1579(4) 0.9712(3) 0.0829(2)
H31 H 1.1469 1.0379 0.0476
C40 C 1.0514(4) 0.9107(3) 0.0997(2)
H32 H 0.9699 0.9512 0.0708
C41 C 1.2566(4) 0.7326(3) 0.13467(19)
H33 H 1.2349 0.6709 0.1725
C42 C 1.1301(4) 0.7920(3) 0.08583(18)
H34 H 1.0620 0.7512 0.1040
C43 C 1.3836(4) 0.6832(3) 0.0765(2)
H35 H 1.4648 0.6229 0.0985
C44 C 1.4215(5) 0.7745(4) 0.0168(3)
H36 H 1.5054 0.7912 0.0101
C45 C 1.3145(5) 0.8267(4) -0.0245(2)
H37 H 1.3101 0.8868 -0.0653
C46 C 1.2012(4) 0.7728(3) 0.0056(2)
H38 H 1.1352 0.7843 -0.0297
C47 C 1.3031(4) 0.6519(3) 0.0299(2)
H39 H 1.3664 0.6265 -0.0136
C48 C 1.1674(5) 0.5443(4) 0.0262(2)
H40 H 1.2351 0.5213 -0.0162
H41 H 1.0887 0.6080 0.0067
C49 C 1.1117(5) 0.4519(3) 0.0712(2)
C50 C 1.1959(5) 0.3438(4) 0.0676(3)
H42 H 1.2849 0.3317 0.0384
C51 C 1.1531(5) 0.2552(4) 0.1052(3)
H43 H 1.2129 0.1848 0.1006
C52 C 1.0226(5) 0.2677(3) 0.1500(2)
C53 C 0.9711(5) 0.1778(3) 0.1917(3)
H44 H 1.0282 0.1063 0.1883
C54 C 0.8459(6) 0.1925(4) 0.2349(3)
H45 H 0.8183 0.1316 0.2613
C55 C 0.7527(5) 0.3007(3) 0.2414(2)
C56 C 0.7967(4) 0.3925(3) 0.2002(2)
C57 C 0.9318(4) 0.3777(3) 0.1549(2)
C58 C 0.7040(4) 0.5008(3) 0.2053(2)
C59 C 0.7525(5) 0.5909(3) 0.1632(2)
H46 H 0.6922 0.6622 0.1649
C60 C 0.8805(5) 0.5777(3) 0.1215(2)
H47 H 0.9070 0.6395 0.0961
C61 C 0.9784(4) 0.4692(3) 0.1150(2)
C62 C 0.6221(5) 0.3185(4) 0.2869(3)
H48 H 0.5939 0.2584 0.3150
C63 C 0.5337(5) 0.4237(4) 0.2911(3)
H49 H 0.4463 0.4340 0.3217
C64 C 0.5734(5) 0.5141(4) 0.2503(3)
H50 H 0.5118 0.5848 0.2530
loop_
_geom_bond_atom_site_label_1
_geom_bond_atom_site_label_2
_geom_bond_site_symmetry_1
_geom_bond_site_symmetry_2
O1 C17 1_555 1_555
O2 C32 1_555 1_555
O3 C29 1_555 1_555
O4 C47 1_555 1_555
C1 H1 1_555 1_555
C2 C1 1_555 1_555
H2 C2 1_555 1_555
C3 C2 1_555 1_555
C4 C3 1_555 1_555
C5 C4 1_555 1_555
C6 C1 1_555 1_555
H3 C6 1_555 1_555
C7 C3 1_555 1_555
H4 C7 1_555 1_555
C8 C7 1_555 1_555
H5 C8 1_555 1_555
C9 C8 1_555 1_555
C10 C4 1_555 1_555
C11 C10 1_555 1_555
C12 C11 1_555 1_555
H6 C12 1_555 1_555
C13 C5 1_555 1_555
H7 C13 1_555 1_555
C14 C9 1_555 1_555
H8 C14 1_555 1_555
C15 C14 1_555 1_555
H9 C15 1_555 1_555
C16 C11 1_555 1_555
C17 C16 1_555 1_555
H10 C17 1_555 1_555
H11 C17 1_555 1_555
C18 O1 1_555 1_555
H12 C18 1_555 1_555
C19 C18 1_555 1_555
H13 C19 1_555 1_555
C20 C19 1_555 1_555
H14 C20 1_555 1_555
C21 C20 1_555 1_555
H15 C21 1_555 1_555
C22 C18 1_555 1_555
H16 C22 1_555 1_555
C23 C19 1_555 1_555
H17 C23 1_555 1_555
C24 C22 1_555 1_555
H18 C24 1_555 1_555
C25 C23 1_555 1_555
H19 C25 1_555 1_555
C26 C25 1_555 1_555
H20 C26 1_555 1_555
C27 C26 1_555 1_555
H21 C27 1_555 1_555
C28 C24 1_555 1_555
H22 C28 1_555 1_555
C29 C30 1_555 1_555
C30 C25 1_555 1_555
C31 C28 1_555 1_555
C32 C31 1_555 1_555
C33 C32 1_555 1_555
C34 C29 1_555 1_555
C35 O3 1_555 1_555
H23 C35 1_555 1_555
H24 C35 1_555 1_555
H25 C35 1_555 1_555
C36 O2 1_555 1_555
H26 C36 1_555 1_555
H27 C36 1_555 1_555
H28 C36 1_555 1_555
C37 C34 1_555 1_555
H29 C37 1_555 1_555
C38 C37 1_555 1_555
H30 C38 1_555 1_555
C39 C38 1_555 1_555
H31 C39 1_555 1_555
C40 C33 1_555 1_555
H32 C40 1_555 1_555
C41 C37 1_555 1_555
H33 C41 1_555 1_555
C42 C40 1_555 1_555
H34 C42 1_555 1_555
C43 C41 1_555 1_555
H35 C43 1_555 1_555
C44 C43 1_555 1_555
H36 C44 1_555 1_555
C45 C44 1_555 1_555
H37 C45 1_555 1_555
C46 C42 1_555 1_555
H38 C46 1_555 1_555
C47 C43 1_555 1_555
H39 C47 1_555 1_555
C48 O4 1_555 1_555
H40 C48 1_555 1_555
H41 C48 1_555 1_555
C49 C48 1_555 1_555
C50 C49 1_555 1_555
H42 C50 1_555 1_555
C51 C50 1_555 1_555
H43 C51 1_555 1_555
C52 C51 1_555 1_555
C53 C52 1_555 1_555
H44 C53 1_555 1_555
C54 C53 1_555 1_555
H45 C54 1_555 1_555
C55 C54 1_555 1_555
C56 C55 1_555 1_555
C57 C52 1_555 1_555
C58 C56 1_555 1_555
C59 C58 1_555 1_555
H46 C59 1_555 1_555
C60 C59 1_555 1_555
H47 C60 1_555 1_555
C61 C49 1_555 1_555
C62 C55 1_555 1_555
H48 C62 1_555 1_555
C63 C62 1_555 1_555
H49 C63 1_555 1_555
C64 C58 1_555 1_555
H50 C64 1_555 1_555
C5 C6 1_555 1_555
C9 C10 1_555 1_555
C12 C13 1_555 1_555
C15 C16 1_555 1_555
C21 C22 1_555 1_555
C23 C24 1_555 1_555
C27 C28 1_555 1_555
C30 C31 1_555 1_555
C33 C34 1_555 1_555
C39 C40 1_555 1_555
C41 C42 1_555 1_555
C45 C46 1_555 1_555
C46 C47 1_555 1_555
C56 C57 1_555 1_555
C57 C61 1_555 1_555
C60 C61 1_555 1_555
C63 C64 1_555 1_555

#END
