
#######################################################################
#
#                 Cambridge Crystallographic Data Centre
#                                CCDC 
#
#######################################################################
#
# If this CIF has been generated from an entry in the Cambridge 
# Structural Database, then it will include bibliographic, chemical, 
# crystal, experimental, refinement or atomic coordinate data resulting 
# from the CCDC's data processing and validation procedures.
#
#######################################################################

data_TECCEK
_chemical_formula_moiety         'C40 H40 N4 O2,2(C6 H6)'
_chemical_name_systematic        
'2,10-Dioxa-5,7,13,15-tetra-aza-1,3,9,11-(1,4)-tetrabenzena-6,14(1,2)-dicyclohexanacyclohexadecaphane-4,7,12,15-tetraene benzene clathrate benzene solvate'
_symmetry_cell_setting           orthorhombic
_symmetry_space_group_name_H-M   'P 21 21 21'
_symmetry_Int_Tables_number      19
_space_group_name_Hall           'P 2ac 2ab'
loop_
_symmetry_equiv_pos_site_id
_symmetry_equiv_pos_as_xyz
1 x,y,z
2 1/2-x,-y,1/2+z
3 -x,1/2+y,1/2-z
4 1/2+x,1/2-y,-z
_cell_length_a                   8.817(2)
_cell_length_b                   14.894(3)
_cell_length_c                   32.741(7)
_cell_angle_alpha                90
_cell_angle_beta                 90
_cell_angle_gamma                90
_cell_volume                     4299.56
_exptl_crystal_colour            colorless
_exptl_crystal_description       prismatic
_cell_formula_units_Z            4
loop_
_atom_site_label
_atom_site_type_symbol
_atom_site_fract_x
_atom_site_fract_y
_atom_site_fract_z
N1 N 0.6824(3) 0.71774(18) 0.85151(8)
N2 N 0.6916(3) 0.53717(18) 0.81895(9)
C1 C 0.6222(4) 0.6403(2) 0.87400(10)
H1 H 0.5182 0.6300 0.8667
C2 C 0.7178(4) 0.5576(2) 0.86209(10)
H2 H 0.8232 0.5707 0.8664
C3 C 0.6735(5) 0.4770(2) 0.88817(10)
H3 H 0.7357 0.4262 0.8814
H4 H 0.5700 0.4618 0.8822
C4 C 0.6868(5) 0.4965(3) 0.93373(11)
H5 H 0.7906 0.5112 0.9396
H6 H 0.6600 0.4446 0.9495
C5 C 0.5905(4) 0.5767(3) 0.94542(11)
H7 H 0.6007 0.5889 0.9741
H8 H 0.4864 0.5621 0.9399
C6 C 0.6332(4) 0.6584(3) 0.91982(10)
H9 H 0.5694 0.7084 0.9268
H10 H 0.7360 0.6742 0.9263
C7 C 0.7841(4) 0.5699(2) 0.79344(10)
H11 H 0.8708 0.6024 0.8033
C8 C 0.7652(4) 0.5596(2) 0.74879(11)
C9 C 0.8522(4) 0.6104(2) 0.72224(10)
H12 H 0.9279 0.6501 0.7331
C10 C 0.8339(4) 0.6029(2) 0.68054(10)
H13 H 0.8916 0.6396 0.6621
C11 C 0.7269(4) 0.5441(2) 0.66521(10)
C12 C 0.6397(4) 0.4921(2) 0.69080(10)
H14 H 0.5671 0.4510 0.6796
C13 C 0.6580(4) 0.5008(2) 0.73273(11)
H15 H 0.5969 0.4654 0.7509
O1 O 0.7114(3) 0.52998(16) 0.62334(7)
C14 C 0.6860(4) 0.6028(2) 0.59776(10)
C15 C 0.6117(4) 0.6794(2) 0.61045(10)
H16 H 0.5831 0.6861 0.6386
C16 C 0.5837(4) 0.7470(2) 0.58217(10)
H17 H 0.5280 0.7993 0.5904
C17 C 0.6296(4) 0.7388(2) 0.54178(10)
C18 C 0.7040(4) 0.6606(2) 0.52973(10)
H18 H 0.7356 0.6534 0.5019
C19 C 0.7304(4) 0.5921(2) 0.55752(10)
H19 H 0.7790 0.5376 0.5489
C20 C 0.6098(4) 0.8155(2) 0.51400(10)
H20 H 0.5500 0.8655 0.5232
N3 N 0.6668(3) 0.81890(19) 0.47815(8)
N4 N 0.8144(3) 0.9787(2) 0.50939(8)
C21 C 0.6584(4) 0.9058(2) 0.45733(9)
H21 H 0.5746 0.9402 0.4676
C22 C 0.8075(4) 0.9571(2) 0.46596(9)
H22 H 0.8916 0.9193 0.4588
C23 C 0.8129(5) 1.0441(2) 0.44182(10)
H23 H 0.9093 1.0724 0.4464
H24 H 0.7350 1.0840 0.4513
C24 C 0.7921(4) 1.0290(3) 0.39586(10)
H25 H 0.8741 0.9924 0.3861
H26 H 0.7951 1.0851 0.3814
C25 C 0.6438(4) 0.9795(3) 0.38774(10)
H27 H 0.6341 0.9681 0.3590
H28 H 0.5608 1.0169 0.3961
C26 C 0.6384(4) 0.8917(2) 0.41146(9)
H29 H 0.5438 0.8617 0.4066
H30 H 0.7187 0.8534 0.4020
C27 C 0.8847(4) 0.9255(3) 0.53285(10)
H31 H 0.9383 0.8754 0.5214
C28 C 0.8848(4) 0.9370(2) 0.57739(10)
C29 C 0.9301(4) 0.8678(3) 0.60270(10)
H32 H 0.9669 0.8128 0.5910
C30 C 0.9246(4) 0.8771(2) 0.64531(10)
H33 H 0.9507 0.8280 0.6630
C31 C 0.8751(4) 0.9570(3) 0.66149(10)
C32 C 0.8315(4) 1.0273(3) 0.63720(10)
H34 H 0.7962 1.0825 0.6490
C33 C 0.8354(4) 1.0165(2) 0.59502(10)
H35 H 0.8056 1.0653 0.5776
O2 O 0.8810(3) 0.97333(16) 0.70356(6)
C34 C 0.8132(4) 0.9136(2) 0.73030(10)
C35 C 0.6861(4) 0.8632(2) 0.72020(10)
H36 H 0.6439 0.8664 0.6932
C36 C 0.6238(4) 0.8075(2) 0.74947(10)
H37 H 0.5360 0.7724 0.7427
C37 C 0.6826(4) 0.8027(2) 0.78883(9)
C38 C 0.8077(4) 0.8557(2) 0.79830(10)
H38 H 0.8473 0.8543 0.8256
C39 C 0.8720(4) 0.9113(2) 0.76955(9)
H39 H 0.9584 0.9477 0.7762
C40 C 0.6186(4) 0.7371(2) 0.81761(10)
H40 H 0.5257 0.7074 0.8105
C41 C 0.3155(5) 0.6591(3) 0.69701(15)
H41 H 0.3555 0.6181 0.6771
C42 C 0.2766(5) 0.7445(3) 0.68544(13)
H42 H 0.2905 0.7633 0.6576
C43 C 0.2206(5) 0.8035(3) 0.71364(13)
H43 H 0.1913 0.8628 0.7052
C44 C 0.2023(4) 0.7778(3) 0.75340(13)
H44 H 0.1656 0.8204 0.7730
C45 C 0.2377(5) 0.6921(3) 0.76499(13)
H45 H 0.2215 0.6735 0.7927
C46 C 0.2963(5) 0.6329(3) 0.73685(16)
H46 H 0.3246 0.5732 0.7448
C47 C 0.9486(6) 0.2373(4) 0.55494(15)
H47 H 1.0328 0.2049 0.5436
C48 C 0.9564(6) 0.2659(3) 0.59475(14)
H48 H 1.0466 0.2570 0.6107
C49 C 0.8358(6) 0.3085(3) 0.61099(15)
H49 H 0.8382 0.3277 0.6390
C50 C 0.7081(6) 0.3261(3) 0.58715(16)
H50 H 0.6227 0.3567 0.5989
C51 C 0.7029(5) 0.2967(3) 0.54775(14)
H51 H 0.6149 0.3090 0.5314
C52 C 0.8228(6) 0.2515(3) 0.53168(14)
H52 H 0.8194 0.2309 0.5039
loop_
_geom_bond_atom_site_label_1
_geom_bond_atom_site_label_2
_geom_bond_site_symmetry_1
_geom_bond_site_symmetry_2
N1 C1 1_555 1_555
N2 C2 1_555 1_555
C1 H1 1_555 1_555
C2 C1 1_555 1_555
H2 C2 1_555 1_555
C3 C2 1_555 1_555
H3 C3 1_555 1_555
H4 C3 1_555 1_555
C4 C3 1_555 1_555
H5 C4 1_555 1_555
H6 C4 1_555 1_555
C5 C4 1_555 1_555
H7 C5 1_555 1_555
H8 C5 1_555 1_555
C6 C1 1_555 1_555
H9 C6 1_555 1_555
H10 C6 1_555 1_555
C7 N2 1_555 1_555
H11 C7 1_555 1_555
C8 C7 1_555 1_555
C9 C8 1_555 1_555
H12 C9 1_555 1_555
C10 C9 1_555 1_555
H13 C10 1_555 1_555
C11 C10 1_555 1_555
C12 C11 1_555 1_555
H14 C12 1_555 1_555
C13 C8 1_555 1_555
H15 C13 1_555 1_555
O1 C11 1_555 1_555
C14 O1 1_555 1_555
C15 C14 1_555 1_555
H16 C15 1_555 1_555
C16 C15 1_555 1_555
H17 C16 1_555 1_555
C17 C16 1_555 1_555
C18 C17 1_555 1_555
H18 C18 1_555 1_555
C19 C14 1_555 1_555
H19 C19 1_555 1_555
C20 C17 1_555 1_555
H20 C20 1_555 1_555
N3 C20 1_555 1_555
N4 C22 1_555 1_555
C21 N3 1_555 1_555
H21 C21 1_555 1_555
C22 C21 1_555 1_555
H22 C22 1_555 1_555
C23 C22 1_555 1_555
H23 C23 1_555 1_555
H24 C23 1_555 1_555
C24 C23 1_555 1_555
H25 C24 1_555 1_555
H26 C24 1_555 1_555
C25 C24 1_555 1_555
H27 C25 1_555 1_555
H28 C25 1_555 1_555
C26 C21 1_555 1_555
H29 C26 1_555 1_555
H30 C26 1_555 1_555
C27 N4 1_555 1_555
H31 C27 1_555 1_555
C28 C27 1_555 1_555
C29 C28 1_555 1_555
H32 C29 1_555 1_555
C30 C29 1_555 1_555
H33 C30 1_555 1_555
C31 C30 1_555 1_555
C32 C31 1_555 1_555
H34 C32 1_555 1_555
C33 C28 1_555 1_555
H35 C33 1_555 1_555
O2 C31 1_555 1_555
C34 O2 1_555 1_555
C35 C34 1_555 1_555
H36 C35 1_555 1_555
C36 C35 1_555 1_555
H37 C36 1_555 1_555
C37 C36 1_555 1_555
C38 C37 1_555 1_555
H38 C38 1_555 1_555
C39 C34 1_555 1_555
H39 C39 1_555 1_555
C40 N1 1_555 1_555
H40 C40 1_555 1_555
C41 H41 1_555 1_555
C42 C41 1_555 1_555
H42 C42 1_555 1_555
C43 C42 1_555 1_555
H43 C43 1_555 1_555
C44 C43 1_555 1_555
H44 C44 1_555 1_555
C45 C44 1_555 1_555
H45 C45 1_555 1_555
C46 C41 1_555 1_555
H46 C46 1_555 1_555
C47 H47 1_555 1_555
C48 C47 1_555 1_555
H48 C48 1_555 1_555
C49 C48 1_555 1_555
H49 C49 1_555 1_555
C50 C49 1_555 1_555
H50 C50 1_555 1_555
C51 C50 1_555 1_555
H51 C51 1_555 1_555
C52 C47 1_555 1_555
H52 C52 1_555 1_555
C5 C6 1_555 1_555
C12 C13 1_555 1_555
C18 C19 1_555 1_555
C25 C26 1_555 1_555
C32 C33 1_555 1_555
C37 C40 1_555 1_555
C38 C39 1_555 1_555
C45 C46 1_555 1_555
C51 C52 1_555 1_555

#END
