
#######################################################################
#
#                 Cambridge Crystallographic Data Centre
#                                CCDC 
#
#######################################################################
#
# If this CIF has been generated from an entry in the Cambridge 
# Structural Database, then it will include bibliographic, chemical, 
# crystal, experimental, refinement or atomic coordinate data resulting 
# from the CCDC's data processing and validation procedures.
#
#######################################################################

data_TECDUD
_chemical_name_common            
'2-(hydroxy(6-methoxyquinolin-4-yl)methyl)-1-(naphthalen-2-ylmethyl)-5-vinylquinuclidin-1-ium bromide monohydrate'
_chemical_formula_moiety         'C31 H33 N2 O2 1+,H2 O1,Br1 1-'
_chemical_name_systematic        
"9-hydroxy-6'-methoxy-1-[(naphthalen-2-yl)methyl]cinchonan-1-ium bromide monohydrate"
_symmetry_cell_setting           orthorhombic
_symmetry_space_group_name_H-M   'P 21 21 21'
_symmetry_Int_Tables_number      19
_space_group_name_Hall           'P 2ac 2ab'
loop_
_symmetry_equiv_pos_site_id
_symmetry_equiv_pos_as_xyz
1 x,y,z
2 1/2-x,-y,1/2+z
3 -x,1/2+y,1/2-z
4 1/2+x,1/2-y,-z
_cell_length_a                   9.0252(1)
_cell_length_b                   14.6217(1)
_cell_length_c                   20.9718(2)
_cell_angle_alpha                90
_cell_angle_beta                 90
_cell_angle_gamma                90
_cell_volume                     2767.52
_exptl_crystal_colour            colorless
_exptl_crystal_description       blocks
_cell_formula_units_Z            4
loop_
_atom_site_label
_atom_site_type_symbol
_atom_site_fract_x
_atom_site_fract_y
_atom_site_fract_z
Br1 Br 0.41434(3) 0.71921(2) 0.75807(2)
N1 N 0.6784(3) 0.49343(17) 0.69898(12)
C1 C 0.7390(3) 0.48237(19) 0.76724(13)
H1 H 0.7179 0.4180 0.7807
C2 C 0.9098(3) 0.4931(2) 0.76483(13)
H2 H 0.9411 0.5408 0.7955
H3 H 0.9572 0.4348 0.7773
C3 C 0.9598(3) 0.5195(2) 0.69816(16)
H4 H 1.0691 0.5304 0.6978
C4 C 0.9203(4) 0.4434(2) 0.65091(14)
H5 H 0.9359 0.4681 0.6069
C5 C 0.7546(3) 0.4218(2) 0.65818(15)
H6 H 0.7076 0.4200 0.6156
H7 H 0.7426 0.3609 0.6781
C6 C 0.8780(4) 0.6070(2) 0.67783(17)
H8 H 0.8925 0.6552 0.7104
H9 H 0.9188 0.6294 0.6369
C7 C 0.7123(3) 0.5867(2) 0.67030(15)
H10 H 0.6535 0.6344 0.6923
H11 H 0.6853 0.5871 0.6246
C8 C 1.0194(4) 0.3608(3) 0.65855(17)
H12 H 1.1219 0.3718 0.6519
C9 C 0.9851(4) 0.2764(3) 0.6729(2)
H13 H 0.8847 0.2601 0.6802
H14 H 1.0607 0.2314 0.6760
C10 C 0.6661(3) 0.54574(19) 0.81708(14)
H15 H 0.5564 0.5456 0.8104
O1 O 0.7193(2) 0.63685(14) 0.81229(10)
H16 H 0.660(4) 0.672(2) 0.7943(17)
C11 C 0.7004(3) 0.5070(2) 0.88272(14)
C12 C 0.8104(4) 0.5430(2) 0.92014(15)
H17 H 0.8649 0.5947 0.9060
C13 C 0.8425(4) 0.5027(2) 0.97993(16)
H18 H 0.9184 0.5296 1.0051
N2 N 0.7742(3) 0.43032(19) 1.00308(13)
C14 C 0.6621(3) 0.3941(2) 0.96728(15)
C15 C 0.5857(4) 0.3170(2) 0.99133(14)
H19 H 0.6177 0.2898 1.0301
C16 C 0.4669(3) 0.2808(2) 0.95992(15)
H20 H 0.4178 0.2285 0.9765
C17 C 0.4170(4) 0.32139(19) 0.90243(14)
C18 C 0.4945(3) 0.3920(2) 0.87571(15)
H21 H 0.4646 0.4156 0.8355
C19 C 0.6188(3) 0.43026(19) 0.90704(14)
O2 O 0.2889(2) 0.28622(16) 0.87841(10)
C20 C 0.2245(4) 0.3333(2) 0.82588(18)
H22 H 0.1334 0.3020 0.8128
H23 H 0.2010 0.3962 0.8385
H24 H 0.2946 0.3342 0.7902
C21 C 0.5120(3) 0.4750(2) 0.69998(15)
H25 H 0.4947 0.4184 0.7247
H26 H 0.4635 0.5257 0.7233
C22 C 0.4361(3) 0.46493(19) 0.63658(13)
C23 C 0.4173(4) 0.3800(2) 0.61007(13)
H27 H 0.4598 0.3285 0.6307
C24 C 0.3367(3) 0.3669(2) 0.55307(15)
C25 C 0.3149(4) 0.2798(3) 0.52564(16)
H28 H 0.3546 0.2272 0.5460
C26 C 0.2370(4) 0.2702(3) 0.47000(18)
H29 H 0.2232 0.2111 0.4521
C27 C 0.1776(5) 0.3473(3) 0.43926(19)
H30 H 0.1252 0.3401 0.4003
C28 C 0.1944(4) 0.4321(3) 0.46480(18)
H31 H 0.1527 0.4835 0.4437
C29 C 0.2736(4) 0.4446(2) 0.52252(15)
C30 C 0.2922(4) 0.5323(2) 0.55158(17)
H32 H 0.2487 0.5846 0.5322
C31 C 0.3710(4) 0.5423(2) 0.60634(16)
H33 H 0.3828 0.6013 0.6246
O3 O 0.1495(7) 0.7665(5) 0.6485(4)
H34 H 0.076(9) 0.734(6) 0.638(5)
H35 H 0.191(11) 0.747(7) 0.682(3)
loop_
_geom_bond_atom_site_label_1
_geom_bond_atom_site_label_2
_geom_bond_site_symmetry_1
_geom_bond_site_symmetry_2
N1 C1 1_555 1_555
C1 H1 1_555 1_555
C2 C1 1_555 1_555
H2 C2 1_555 1_555
H3 C2 1_555 1_555
C3 C2 1_555 1_555
H4 C3 1_555 1_555
C4 C3 1_555 1_555
H5 C4 1_555 1_555
C5 N1 1_555 1_555
H6 C5 1_555 1_555
H7 C5 1_555 1_555
C6 C3 1_555 1_555
H8 C6 1_555 1_555
H9 C6 1_555 1_555
C7 N1 1_555 1_555
H10 C7 1_555 1_555
H11 C7 1_555 1_555
C8 C4 1_555 1_555
H12 C8 1_555 1_555
C9 C8 1_555 1_555
H13 C9 1_555 1_555
H14 C9 1_555 1_555
C10 C1 1_555 1_555
H15 C10 1_555 1_555
O1 C10 1_555 1_555
H16 O1 1_555 1_555
C11 C10 1_555 1_555
C12 C11 1_555 1_555
H17 C12 1_555 1_555
C13 C12 1_555 1_555
H18 C13 1_555 1_555
N2 C13 1_555 1_555
C14 N2 1_555 1_555
C15 C14 1_555 1_555
H19 C15 1_555 1_555
C16 C15 1_555 1_555
H20 C16 1_555 1_555
C17 C16 1_555 1_555
C18 C17 1_555 1_555
H21 C18 1_555 1_555
C19 C11 1_555 1_555
O2 C17 1_555 1_555
C20 O2 1_555 1_555
H22 C20 1_555 1_555
H23 C20 1_555 1_555
H24 C20 1_555 1_555
C21 N1 1_555 1_555
H25 C21 1_555 1_555
H26 C21 1_555 1_555
C22 C21 1_555 1_555
C23 C22 1_555 1_555
H27 C23 1_555 1_555
C24 C23 1_555 1_555
C25 C24 1_555 1_555
H28 C25 1_555 1_555
C26 C25 1_555 1_555
H29 C26 1_555 1_555
C27 C26 1_555 1_555
H30 C27 1_555 1_555
C28 C27 1_555 1_555
H31 C28 1_555 1_555
C29 C24 1_555 1_555
C30 C29 1_555 1_555
H32 C30 1_555 1_555
C31 C22 1_555 1_555
H33 C31 1_555 1_555
O3 H34 1_555 1_555
H35 O3 1_555 1_555
C4 C5 1_555 1_555
C6 C7 1_555 1_555
C14 C19 1_555 1_555
C18 C19 1_555 1_555
C28 C29 1_555 1_555
C30 C31 1_555 1_555

#END
