
#######################################################################
#
#                 Cambridge Crystallographic Data Centre
#                                CCDC 
#
#######################################################################
#
# If this CIF has been generated from an entry in the Cambridge 
# Structural Database, then it will include bibliographic, chemical, 
# crystal, experimental, refinement or atomic coordinate data resulting 
# from the CCDC's data processing and validation procedures.
#
#######################################################################

data_TECFAL
_chemical_formula_moiety         'C42 H30 N4 O1'
_chemical_name_systematic        
9-[5-(4,6-diphenyl-1,3,5-triazin-2-yl)-9,9-dimethyl-9H-xanthen-4-yl]-9H-carbazole
_symmetry_cell_setting           orthorhombic
_symmetry_space_group_name_H-M   'P b c a'
_symmetry_Int_Tables_number      61
_space_group_name_Hall           '-P 2ac 2ab'
loop_
_symmetry_equiv_pos_site_id
_symmetry_equiv_pos_as_xyz
1 x,y,z
2 1/2-x,-y,1/2+z
3 -x,1/2+y,1/2-z
4 1/2+x,1/2-y,-z
5 -x,-y,-z
6 1/2+x,y,1/2-z
7 x,1/2-y,1/2+z
8 1/2-x,1/2+y,z
_cell_length_a                   20.5502(7)
_cell_length_b                   7.9367(3)
_cell_length_c                   37.7229(14)
_cell_angle_alpha                90
_cell_angle_beta                 90
_cell_angle_gamma                90
_cell_volume                     6152.63
_exptl_crystal_colour            colorless
_exptl_crystal_description       block
_cell_formula_units_Z            8
loop_
_atom_site_label
_atom_site_type_symbol
_atom_site_fract_x
_atom_site_fract_y
_atom_site_fract_z
O1 O 0.57529(3) 0.68721(10) 0.34661(2)
N1 N 0.48657(4) 0.46680(11) 0.32255(2)
N2 N 0.52651(4) 0.64609(11) 0.41437(2)
N3 N 0.61708(4) 0.50611(11) 0.44018(2)
N4 N 0.50943(4) 0.41659(11) 0.45387(2)
C1 C 0.57756(5) 0.65557(12) 0.31090(2)
C2 C 0.53105(5) 0.54175(13) 0.29847(3)
C3 C 0.52876(5) 0.50363(14) 0.26250(3)
H1 H 0.4973 0.4265 0.2537
C4 C 0.57285(6) 0.57902(15) 0.23940(3)
H2 H 0.5715 0.5532 0.2148
C5 C 0.61888(5) 0.69200(14) 0.25224(3)
H3 H 0.6489 0.7420 0.2362
C6 C 0.62199(5) 0.73356(12) 0.28822(3)
C7 C 0.66541(5) 0.87267(12) 0.30279(3)
C8 C 0.67570(5) 0.84488(13) 0.34244(3)
C9 C 0.72800(5) 0.91456(14) 0.36092(3)
H4 H 0.7597 0.9776 0.3483
C10 C 0.73498(5) 0.89426(15) 0.39729(3)
H5 H 0.7705 0.9450 0.4093
C11 C 0.68973(5) 0.79933(14) 0.41591(3)
H6 H 0.6953 0.7817 0.4406
C12 C 0.63627(5) 0.72975(12) 0.39873(3)
C13 C 0.62953(4) 0.75656(12) 0.36218(3)
C14 C 0.62865(5) 1.04066(13) 0.29780(3)
H7 H 0.6224 1.0622 0.2724
H8 H 0.6540 1.1326 0.3083
H9 H 0.5862 1.0338 0.3095
C15 C 0.73052(5) 0.88001(14) 0.28283(3)
H10 H 0.7532 0.7720 0.2853
H11 H 0.7575 0.9702 0.2928
H12 H 0.7224 0.9025 0.2577
C16 C 0.39079(5) 0.35058(13) 0.34116(3)
C17 C 0.32308(5) 0.33627(14) 0.34232(3)
H13 H 0.3030 0.2509 0.3562
C18 C 0.28566(5) 0.44851(15) 0.32295(3)
H14 H 0.2396 0.4392 0.3235
C19 C 0.31474(5) 0.57557(15) 0.30258(3)
H15 H 0.2880 0.6529 0.2900
C20 C 0.38199(5) 0.59058(13) 0.30039(3)
H16 H 0.4018 0.6759 0.2864
C21 C 0.41927(5) 0.47574(13) 0.31953(2)
C22 C 0.50178(5) 0.34044(12) 0.34693(3)
C23 C 0.56246(5) 0.29151(13) 0.35967(3)
H17 H 0.6011 0.3466 0.3522
C24 C 0.56435(6) 0.15894(14) 0.38373(3)
H18 H 0.6051 0.1222 0.3927
C25 C 0.50731(6) 0.07853(14) 0.39497(3)
H19 H 0.5101 -0.0129 0.4111
C26 C 0.44695(6) 0.13053(14) 0.38283(3)
H20 H 0.4084 0.0766 0.3908
C27 C 0.44372(5) 0.26382(13) 0.35862(3)
C28 C 0.59013(5) 0.62225(12) 0.41894(2)
C29 C 0.57435(5) 0.40437(12) 0.45658(2)
C30 C 0.60140(5) 0.26284(13) 0.47751(2)
C31 C 0.66641(5) 0.21696(14) 0.47280(3)
H21 H 0.6932 0.2803 0.4572
C32 C 0.69222(6) 0.07969(15) 0.49069(3)
H22 H 0.7363 0.0482 0.4871
C33 C 0.65340(6) -0.01164(15) 0.51390(3)
H23 H 0.6711 -0.1050 0.5264
C34 C 0.58868(6) 0.03360(15) 0.51889(3)
H24 H 0.5622 -0.0289 0.5348
C35 C 0.56250(5) 0.17018(14) 0.50065(3)
H25 H 0.5182 0.2002 0.5040
C36 C 0.48812(5) 0.53939(12) 0.43243(2)
C37 C 0.41720(5) 0.55761(13) 0.42721(3)
C38 C 0.39347(5) 0.67878(13) 0.40362(3)
H26 H 0.4229 0.7492 0.3911
C39 C 0.32685(5) 0.69615(15) 0.39857(3)
H27 H 0.3107 0.7798 0.3829
C40 C 0.28394(5) 0.59118(15) 0.41646(3)
H28 H 0.2384 0.6029 0.4129
C41 C 0.30734(5) 0.46913(15) 0.43956(3)
H29 H 0.2779 0.3966 0.4515
C42 C 0.37395(5) 0.45306(14) 0.44516(3)
H30 H 0.3899 0.3707 0.4612
loop_
_geom_bond_atom_site_label_1
_geom_bond_atom_site_label_2
_geom_bond_site_symmetry_1
_geom_bond_site_symmetry_2
O1 C1 1_555 1_555
N1 C2 1_555 1_555
N2 C28 1_555 1_555
N3 C28 1_555 1_555
N4 C29 1_555 1_555
C1 C2 1_555 1_555
C2 C3 1_555 1_555
C3 H1 1_555 1_555
C4 C3 1_555 1_555
H2 C4 1_555 1_555
C5 C4 1_555 1_555
H3 C5 1_555 1_555
C6 C1 1_555 1_555
C7 C6 1_555 1_555
C8 C7 1_555 1_555
C9 C8 1_555 1_555
H4 C9 1_555 1_555
C10 C9 1_555 1_555
H5 C10 1_555 1_555
C11 C10 1_555 1_555
H6 C11 1_555 1_555
C12 C11 1_555 1_555
C13 O1 1_555 1_555
C14 C7 1_555 1_555
H7 C14 1_555 1_555
H8 C14 1_555 1_555
H9 C14 1_555 1_555
C15 C7 1_555 1_555
H10 C15 1_555 1_555
H11 C15 1_555 1_555
H12 C15 1_555 1_555
C16 C17 1_555 1_555
C17 H13 1_555 1_555
C18 C17 1_555 1_555
H14 C18 1_555 1_555
C19 C18 1_555 1_555
H15 C19 1_555 1_555
C20 C19 1_555 1_555
H16 C20 1_555 1_555
C21 N1 1_555 1_555
C22 N1 1_555 1_555
C23 C22 1_555 1_555
H17 C23 1_555 1_555
C24 C23 1_555 1_555
H18 C24 1_555 1_555
C25 C24 1_555 1_555
H19 C25 1_555 1_555
C26 C25 1_555 1_555
H20 C26 1_555 1_555
C27 C16 1_555 1_555
C28 C12 1_555 1_555
C29 N3 1_555 1_555
C30 C29 1_555 1_555
C31 C30 1_555 1_555
H21 C31 1_555 1_555
C32 C31 1_555 1_555
H22 C32 1_555 1_555
C33 C32 1_555 1_555
H23 C33 1_555 1_555
C34 C33 1_555 1_555
H24 C34 1_555 1_555
C35 C30 1_555 1_555
H25 C35 1_555 1_555
C36 N2 1_555 1_555
C37 C36 1_555 1_555
C38 C37 1_555 1_555
H26 C38 1_555 1_555
C39 C38 1_555 1_555
H27 C39 1_555 1_555
C40 C39 1_555 1_555
H28 C40 1_555 1_555
C41 C40 1_555 1_555
H29 C41 1_555 1_555
C42 C37 1_555 1_555
H30 C42 1_555 1_555
N4 C36 1_555 1_555
C5 C6 1_555 1_555
C8 C13 1_555 1_555
C12 C13 1_555 1_555
C16 C21 1_555 1_555
C20 C21 1_555 1_555
C22 C27 1_555 1_555
C26 C27 1_555 1_555
C34 C35 1_555 1_555
C41 C42 1_555 1_555

#END
