
#######################################################################
#
#                 Cambridge Crystallographic Data Centre
#                                CCDC 
#
#######################################################################
#
# If this CIF has been generated from an entry in the Cambridge 
# Structural Database, then it will include bibliographic, chemical, 
# crystal, experimental, refinement or atomic coordinate data resulting 
# from the CCDC's data processing and validation procedures.
#
#######################################################################

data_TECFEN
_chemical_formula_moiety         'C19 H20 O2 S2'
_chemical_name_systematic        'Ethyl 3,3-bis(benzylsulfanyl)acrylate'
_symmetry_cell_setting           monoclinic
_symmetry_space_group_name_H-M   'P 21/c'
_symmetry_Int_Tables_number      14
_space_group_name_Hall           '-P 2ybc'
loop_
_symmetry_equiv_pos_site_id
_symmetry_equiv_pos_as_xyz
1 x,y,z
2 -x,1/2+y,1/2-z
3 -x,-y,-z
4 x,1/2-y,1/2+z
_cell_length_a                   14.582(6)
_cell_length_b                   6.909(3)
_cell_length_c                   22.653(7)
_cell_angle_alpha                90
_cell_angle_beta                 125.482(18)
_cell_angle_gamma                90
_cell_volume                     1858.41
_exptl_crystal_colour            'light yellow'
_exptl_crystal_description       prism
_cell_formula_units_Z            4
_exptl_crystal_recrystallization_method ethanol
loop_
_atom_site_label
_atom_site_type_symbol
_atom_site_fract_x
_atom_site_fract_y
_atom_site_fract_z
S1 S 0.55078(5) 0.29847(8) 0.92005(3)
S2 S 0.32793(5) 0.27821(8) 0.89523(3)
O1 O 0.36319(14) 0.1972(2) 1.02760(9)
O2 O 0.53588(13) 0.2007(2) 1.13342(9)
C1 C 0.7954(2) 0.4739(4) 0.95586(14)
H1 H 0.7724 0.5848 0.9672
C2 C 0.8582(2) 0.4903(5) 0.92854(17)
H2 H 0.8774 0.6120 0.9214
C3 C 0.8923(2) 0.3284(5) 0.91185(17)
H3 H 0.9347 0.3400 0.8934
C4 C 0.8644(2) 0.1491(5) 0.92223(16)
H4 H 0.8877 0.0391 0.9107
C5 C 0.8015(2) 0.1307(4) 0.94984(14)
H5 H 0.7829 0.0085 0.9571
C6 C 0.76628(18) 0.2942(3) 0.96658(12)
C7 C 0.69718(18) 0.2767(3) 0.99630(13)
H6 H 0.7171 0.3784 1.0314
H7 H 0.7105 0.1525 1.0200
C8 C 0.47519(17) 0.2671(3) 0.95747(12)
C9 C 0.52572(19) 0.2349(3) 1.02870(12)
H8 H 0.6039 0.2288 1.0590
C10 C 0.4643(2) 0.2094(3) 1.06036(13)
C11 C 0.4831(2) 0.1849(4) 1.17121(14)
H9 H 0.4392 0.0667 1.1573
H10 H 0.4333 0.2940 1.1594
C12 C 0.5751(3) 0.1828(6) 1.25008(17)
H11 H 0.6241 0.0750 1.2609
H12 H 0.5434 0.1709 1.2771
H13 H 0.6173 0.3010 1.2632
C13 C 0.30707(19) 0.3551(4) 0.81143(12)
H14 H 0.3519 0.4693 0.8200
H15 H 0.3299 0.2532 0.7931
C14 C 0.18458(19) 0.3994(4) 0.75773(13)
C15 C 0.1125(2) 0.2658(5) 0.70666(15)
H16 H 0.1397 0.1445 0.7062
C16 C 0.0005(3) 0.3091(6) 0.65610(18)
H17 H -0.0471 0.2175 0.6215
C17 C -0.0408(3) 0.4851(7) 0.65650(18)
H18 H -0.1165 0.5136 0.6223
C18 C 0.0288(3) 0.6196(6) 0.70697(19)
H19 H 0.0010 0.7400 0.7076
C19 C 0.1417(2) 0.5752(5) 0.75739(15)
H20 H 0.1892 0.6674 0.7917
loop_
_geom_bond_atom_site_label_1
_geom_bond_atom_site_label_2
_geom_bond_site_symmetry_1
_geom_bond_site_symmetry_2
S1 C7 1_555 1_555
S2 C8 1_555 1_555
O1 C10 1_555 1_555
O2 C10 1_555 1_555
C1 H1 1_555 1_555
C2 C1 1_555 1_555
H2 C2 1_555 1_555
C3 C2 1_555 1_555
H3 C3 1_555 1_555
C4 C3 1_555 1_555
H4 C4 1_555 1_555
C5 C4 1_555 1_555
H5 C5 1_555 1_555
C6 C1 1_555 1_555
C7 C6 1_555 1_555
H6 C7 1_555 1_555
H7 C7 1_555 1_555
C8 S1 1_555 1_555
C9 C8 1_555 1_555
H8 C9 1_555 1_555
C10 C9 1_555 1_555
C11 O2 1_555 1_555
H9 C11 1_555 1_555
H10 C11 1_555 1_555
C12 C11 1_555 1_555
H11 C12 1_555 1_555
H12 C12 1_555 1_555
H13 C12 1_555 1_555
C13 S2 1_555 1_555
H14 C13 1_555 1_555
H15 C13 1_555 1_555
C14 C13 1_555 1_555
C15 C14 1_555 1_555
H16 C15 1_555 1_555
C16 C15 1_555 1_555
H17 C16 1_555 1_555
C17 C16 1_555 1_555
H18 C17 1_555 1_555
C18 C17 1_555 1_555
H19 C18 1_555 1_555
C19 C14 1_555 1_555
H20 C19 1_555 1_555
C5 C6 1_555 1_555
C18 C19 1_555 1_555

#END
