
#######################################################################
#
#                 Cambridge Crystallographic Data Centre
#                                CCDC 
#
#######################################################################
#
# If this CIF has been generated from an entry in the Cambridge 
# Structural Database, then it will include bibliographic, chemical, 
# crystal, experimental, refinement or atomic coordinate data resulting 
# from the CCDC's data processing and validation procedures.
#
#######################################################################

data_TECFAK
_chemical_formula_moiety         'C18 H18 Cl2 N4 O2 S1'
_chemical_name_systematic        
N-(1,1-Dichloro-1-(4-methyl-1,2,3-thiadiazol-5-yl)-3-oxo-3-(piperidin-1-yl)propan-2-ylidene)benzamide
_symmetry_cell_setting           triclinic
_symmetry_space_group_name_H-M   'P -1'
_symmetry_Int_Tables_number      2
_space_group_name_Hall           '-P 1'
loop_
_symmetry_equiv_pos_site_id
_symmetry_equiv_pos_as_xyz
1 x,y,z
2 -x,-y,-z
_cell_length_a                   8.285(3)
_cell_length_b                   10.072(3)
_cell_length_c                   11.828(4)
_cell_angle_alpha                99.094(5)
_cell_angle_beta                 105.839(5)
_cell_angle_gamma                92.507(5)
_cell_volume                     933.666
_exptl_crystal_colour            colorless
_exptl_crystal_description       prism
_cell_formula_units_Z            2
loop_
_atom_site_label
_atom_site_type_symbol
_atom_site_fract_x
_atom_site_fract_y
_atom_site_fract_z
Cl1 Cl 0.25544(7) -0.01461(6) 0.54205(4)
Cl2 Cl 0.41379(6) -0.15299(5) 0.73247(5)
S1 S -0.01485(7) 0.02058(6) 0.76721(5)
O1 O 0.16736(17) 0.26836(15) 0.71135(14)
O2 O 0.3553(2) 0.28186(19) 1.00559(15)
N1 N 0.43305(19) 0.29243(15) 0.69603(14)
N2 N 0.4026(2) 0.10115(16) 0.88292(14)
N3 N -0.1501(2) -0.2027(2) 0.66522(18)
C1 C 0.4027(3) 0.4137(2) 0.64293(19)
H1 H 0.3105 0.4562 0.6654
H2 H 0.3705 0.3890 0.5566
C2 C 0.5578(3) 0.5121(2) 0.6839(2)
H3 H 0.5382 0.5878 0.6418
H4 H 0.5806 0.5467 0.7686
C3 C 0.7081(3) 0.4460(2) 0.6612(2)
H5 H 0.8074 0.5101 0.6914
H6 H 0.6896 0.4181 0.5760
C4 C 0.7363(3) 0.3249(2) 0.7219(2)
H7 H 0.8304 0.2808 0.7041
H8 H 0.7640 0.3538 0.8077
C5 C 0.5815(2) 0.2269(2) 0.68051(19)
H9 H 0.5628 0.1888 0.5969
H10 H 0.5986 0.1535 0.7255
C6 C 0.3069(2) 0.22946(19) 0.72160(16)
C7 C 0.3399(2) 0.10233(18) 0.77417(16)
C8 C 0.4558(3) 0.2218(2) 0.96726(18)
C9 C 0.6379(3) 0.2597(2) 1.00656(16)
C10 C 0.6946(3) 0.3910(2) 1.06304(19)
H11 H 0.6179 0.4515 1.0776
C11 C 0.8630(3) 0.4323(3) 1.0975(2)
H12 H 0.9005 0.5211 1.1347
C12 C 0.9762(3) 0.3434(3) 1.0775(2)
H13 H 1.0906 0.3720 1.1003
C13 C 0.9220(3) 0.2125(3) 1.02409(19)
H14 H 1.0000 0.1518 1.0126
C14 C 0.7530(3) 0.1698(2) 0.98721(17)
H15 H 0.7164 0.0811 0.9495
C15 C 0.2694(2) -0.03270(18) 0.69226(15)
C16 C 0.0986(2) -0.07887(18) 0.69735(16)
C17 C 0.0037(2) -0.1978(2) 0.64556(18)
N4 N -0.1773(2) -0.0945(2) 0.72865(19)
C18 C 0.0466(3) -0.3172(2) 0.5725(2)
H16 H -0.0460 -0.3859 0.5484
H17 H 0.1449 -0.3514 0.6188
H18 H 0.0689 -0.2917 0.5030
H19? H 0.1578 -0.3000 0.5651
H20? H -0.0331 -0.3346 0.4947
H21? H 0.0430 -0.3943 0.6105
loop_
_geom_bond_atom_site_label_1
_geom_bond_atom_site_label_2
_geom_bond_site_symmetry_1
_geom_bond_site_symmetry_2
Cl1 C15 1_555 1_555
Cl2 C15 1_555 1_555
S1 C16 1_555 1_555
O1 C6 1_555 1_555
O2 C8 1_555 1_555
N1 C1 1_555 1_555
N2 C7 1_555 1_555
N3 C17 1_555 1_555
C1 H1 1_555 1_555
H2 C1 1_555 1_555
C2 C1 1_555 1_555
H3 C2 1_555 1_555
H4 C2 1_555 1_555
C3 C2 1_555 1_555
H5 C3 1_555 1_555
H6 C3 1_555 1_555
C4 C3 1_555 1_555
H7 C4 1_555 1_555
H8 C4 1_555 1_555
C5 N1 1_555 1_555
H9 C5 1_555 1_555
H10 C5 1_555 1_555
C6 N1 1_555 1_555
C7 C6 1_555 1_555
C8 N2 1_555 1_555
C9 C8 1_555 1_555
C10 C9 1_555 1_555
H11 C10 1_555 1_555
C11 C10 1_555 1_555
H12 C11 1_555 1_555
C12 C11 1_555 1_555
H13 C12 1_555 1_555
C13 C12 1_555 1_555
H14 C13 1_555 1_555
C14 C9 1_555 1_555
H15 C14 1_555 1_555
C15 C7 1_555 1_555
C16 C15 1_555 1_555
C17 C16 1_555 1_555
N4 S1 1_555 1_555
C18 C17 1_555 1_555
H16 C18 1_555 1_555
H17 C18 1_555 1_555
H18 C18 1_555 1_555
N3 N4 1_555 1_555
C4 C5 1_555 1_555
C13 C14 1_555 1_555

#END
