
#######################################################################
#
#                 Cambridge Crystallographic Data Centre
#                                CCDC 
#
#######################################################################
#
# If this CIF has been generated from an entry in the Cambridge 
# Structural Database, then it will include bibliographic, chemical, 
# crystal, experimental, refinement or atomic coordinate data resulting 
# from the CCDC's data processing and validation procedures.
#
#######################################################################

data_TECFEP
_chemical_formula_moiety         'C50 H46 N4 O1'
_chemical_name_systematic        
3,6-di-t-butyl-9-[5-(4,6-diphenyl-1,3,5-triazin-2-yl)-9,9-dimethyl-9H-xanthen-4-yl]-9H-carbazole
_symmetry_cell_setting           triclinic
_symmetry_space_group_name_H-M   'P -1'
_symmetry_Int_Tables_number      2
_space_group_name_Hall           '-P 1'
loop_
_symmetry_equiv_pos_site_id
_symmetry_equiv_pos_as_xyz
1 x,y,z
2 -x,-y,-z
_cell_length_a                   8.3931(10)
_cell_length_b                   12.0824(14)
_cell_length_c                   20.875(3)
_cell_angle_alpha                75.674(3)
_cell_angle_beta                 86.453(3)
_cell_angle_gamma                74.944(3)
_cell_volume                     1980.66
_exptl_crystal_colour            colorless
_exptl_crystal_description       cut-out
_cell_formula_units_Z            2
loop_
_atom_site_label
_atom_site_type_symbol
_atom_site_fract_x
_atom_site_fract_y
_atom_site_fract_z
O1 O 0.75669(10) 0.64788(7) 0.60815(4)
N1 N 0.45544(12) 0.34142(9) 0.71608(5)
N2 N 0.62513(12) 0.33400(8) 0.62076(5)
N3 N 0.54378(12) 0.51107(8) 0.65789(5)
N4 N 0.87570(12) 0.63004(8) 0.73189(5)
C1 C 0.53656(13) 0.28668(10) 0.67061(6)
C2 C 0.46769(13) 0.45260(10) 0.70835(6)
C3 C 0.62054(13) 0.44778(10) 0.61561(5)
C4 C 0.52850(14) 0.16373(10) 0.67492(6)
C5 C 0.64202(15) 0.09458(10) 0.63966(6)
H1 H 0.7239 0.1263 0.6136
C6 C 0.63587(16) -0.02006(10) 0.64242(6)
H2 H 0.7150 -0.0673 0.6192
C7 C 0.51434(16) -0.06575(11) 0.67910(7)
H3 H 0.5086 -0.1437 0.6802
C8 C 0.40117(16) 0.00240(11) 0.71415(7)
H4 H 0.3180 -0.0292 0.7393
C9 C 0.40819(15) 0.11665(11) 0.71283(7)
H5 H 0.3315 0.1624 0.7376
C10 C 0.39028(14) 0.51750(10) 0.75861(6)
C11 C 0.43597(14) 0.61959(10) 0.76146(6)
H6 H 0.5151 0.6465 0.7313
C12 C 0.36559(15) 0.68164(11) 0.80837(6)
H7 H 0.3982 0.7501 0.8108
C13 C 0.24748(15) 0.64357(12) 0.85171(6)
H8 H 0.1978 0.6869 0.8832
C14 C 0.20194(15) 0.54194(12) 0.84902(6)
H9 H 0.1214 0.5160 0.8787
C15 C 0.27383(14) 0.47830(11) 0.80305(6)
H10 H 0.2439 0.4082 0.8018
C16 C 0.69887(13) 0.50688(10) 0.55586(5)
C17 C 0.71042(14) 0.46205(10) 0.49941(6)
H11 H 0.6761 0.3922 0.5016
C18 C 0.77097(14) 0.51779(10) 0.44050(6)
H12 H 0.7805 0.4853 0.4030
C19 C 0.81769(14) 0.62145(10) 0.43647(6)
H13 H 0.8553 0.6610 0.3955
C20 C 0.81034(13) 0.66842(10) 0.49151(5)
C21 C 0.75452(13) 0.60846(10) 0.55113(5)
C22 C 0.85002(14) 0.78549(10) 0.48927(5)
C23 C 0.68447(15) 0.88047(10) 0.48646(6)
H14 H 0.7063 0.9560 0.4872
H15 H 0.6168 0.8562 0.5247
H16 H 0.6255 0.8894 0.4457
C24 C 0.95273(15) 0.82445(10) 0.42876(6)
H17 H 0.8911 0.8348 0.3884
H18 H 1.0568 0.7641 0.4293
H19 H 0.9760 0.8994 0.4298
C25 C 0.93640(13) 0.77047(9) 0.55416(5)
C26 C 1.05953(14) 0.82515(10) 0.56094(6)
H20 H 1.1021 0.8693 0.5227
C27 C 1.12077(15) 0.81581(11) 0.62300(6)
H21 H 1.2044 0.8538 0.6269
C28 C 1.06024(14) 0.75127(10) 0.67921(6)
H22 H 1.1018 0.7458 0.7215
C29 C 0.93863(13) 0.69439(9) 0.67395(5)
C30 C 0.87910(13) 0.70401(9) 0.61118(5)
C31 C 0.88546(13) 0.50914(9) 0.74775(5)
C32 C 0.94110(14) 0.42677(10) 0.71019(6)
H23 H 0.9783 0.4494 0.6661
C33 C 0.94074(14) 0.31007(10) 0.73893(6)
H24 H 0.9780 0.2530 0.7136
C34 C 0.88733(14) 0.27320(10) 0.80416(6)
C35 C 0.83209(14) 0.35815(10) 0.84080(6)
H25 H 0.7954 0.3355 0.8849
C36 C 0.83042(13) 0.47577(10) 0.81313(5)
C37 C 0.78524(13) 0.58098(10) 0.83828(5)
C38 C 0.81833(13) 0.67287(10) 0.78768(5)
C39 C 0.78913(14) 0.78685(10) 0.79671(6)
H26 H 0.8153 0.8488 0.7633
C40 C 0.72055(15) 0.80643(10) 0.85623(6)
H27 H 0.7000 0.8838 0.8630
C41 C 0.67962(15) 0.71754(10) 0.90721(6)
C42 C 0.71535(14) 0.60346(10) 0.89776(6)
H28 H 0.6922 0.5411 0.9317
C43 C 0.88941(17) 0.14419(10) 0.83642(6)
C44 C 1.0037(3) 0.09958(13) 0.89650(9)
H29 H 1.1162 0.1029 0.8823
H30 H 1.0026 0.0179 0.9179
H31 H 0.9657 0.1493 0.9279
C45 C 0.7129(2) 0.13711(12) 0.85874(8)
H32 H 0.6415 0.1591 0.8198
H33 H 0.6704 0.1915 0.8873
H34 H 0.7148 0.0563 0.8832
C46 C 0.94609(19) 0.06387(11) 0.78868(8)
H35 H 0.8710 0.0908 0.7507
H36 H 0.9455 -0.0174 0.8114
H37 H 1.0581 0.0667 0.7734
C47 C 0.59496(17) 0.74999(11) 0.96987(6)
C48 C 0.4454(2) 0.85729(13) 0.95038(8)
H38 H 0.4830 0.9251 0.9243
H39 H 0.3902 0.8766 0.9904
H40 H 0.3679 0.8383 0.9241
C49 C 0.7175(2) 0.78112(15) 1.00945(7)
H41 H 0.8123 0.7129 1.0222
H42 H 0.6635 0.8024 1.0492
H43 H 0.7554 0.8480 0.9822
C50 C 0.53278(18) 0.64850(12) 1.01376(6)
H44 H 0.4525 0.6289 0.9891
H45 H 0.4801 0.6722 1.0532
H46 H 0.6259 0.5793 1.0271
loop_
_geom_bond_atom_site_label_1
_geom_bond_atom_site_label_2
_geom_bond_site_symmetry_1
_geom_bond_site_symmetry_2
O1 C21 1_555 1_555
N1 C1 1_555 1_555
N2 C1 1_555 1_555
N3 C2 1_555 1_555
N4 C29 1_555 1_555
C1 C4 1_555 1_555
C2 N1 1_555 1_555
C3 N2 1_555 1_555
C4 C5 1_555 1_555
C5 H1 1_555 1_555
C6 C5 1_555 1_555
H2 C6 1_555 1_555
C7 C6 1_555 1_555
H3 C7 1_555 1_555
C8 C7 1_555 1_555
H4 C8 1_555 1_555
C9 C4 1_555 1_555
H5 C9 1_555 1_555
C10 C2 1_555 1_555
C11 C10 1_555 1_555
H6 C11 1_555 1_555
C12 C11 1_555 1_555
H7 C12 1_555 1_555
C13 C12 1_555 1_555
H8 C13 1_555 1_555
C14 C13 1_555 1_555
H9 C14 1_555 1_555
C15 C10 1_555 1_555
H10 C15 1_555 1_555
C16 C3 1_555 1_555
C17 C16 1_555 1_555
H11 C17 1_555 1_555
C18 C17 1_555 1_555
H12 C18 1_555 1_555
C19 C18 1_555 1_555
H13 C19 1_555 1_555
C20 C19 1_555 1_555
C21 C16 1_555 1_555
C22 C20 1_555 1_555
C23 C22 1_555 1_555
H14 C23 1_555 1_555
H15 C23 1_555 1_555
H16 C23 1_555 1_555
C24 C22 1_555 1_555
H17 C24 1_555 1_555
H18 C24 1_555 1_555
H19 C24 1_555 1_555
C25 C22 1_555 1_555
C26 C25 1_555 1_555
H20 C26 1_555 1_555
C27 C26 1_555 1_555
H21 C27 1_555 1_555
C28 C27 1_555 1_555
H22 C28 1_555 1_555
C29 C28 1_555 1_555
C30 O1 1_555 1_555
C31 N4 1_555 1_555
C32 C31 1_555 1_555
H23 C32 1_555 1_555
C33 C32 1_555 1_555
H24 C33 1_555 1_555
C34 C33 1_555 1_555
C35 C34 1_555 1_555
H25 C35 1_555 1_555
C36 C31 1_555 1_555
C37 C36 1_555 1_555
C38 N4 1_555 1_555
C39 C38 1_555 1_555
H26 C39 1_555 1_555
C40 C39 1_555 1_555
H27 C40 1_555 1_555
C41 C40 1_555 1_555
C42 C37 1_555 1_555
H28 C42 1_555 1_555
C43 C34 1_555 1_555
C44 C43 1_555 1_555
H29 C44 1_555 1_555
H30 C44 1_555 1_555
H31 C44 1_555 1_555
C45 C43 1_555 1_555
H32 C45 1_555 1_555
H33 C45 1_555 1_555
H34 C45 1_555 1_555
C46 C43 1_555 1_555
H35 C46 1_555 1_555
H36 C46 1_555 1_555
H37 C46 1_555 1_555
C47 C41 1_555 1_555
C48 C47 1_555 1_555
H38 C48 1_555 1_555
H39 C48 1_555 1_555
H40 C48 1_555 1_555
C49 C47 1_555 1_555
H41 C49 1_555 1_555
H42 C49 1_555 1_555
H43 C49 1_555 1_555
C50 C47 1_555 1_555
H44 C50 1_555 1_555
H45 C50 1_555 1_555
H46 C50 1_555 1_555
N3 C3 1_555 1_555
C8 C9 1_555 1_555
C14 C15 1_555 1_555
C20 C21 1_555 1_555
C25 C30 1_555 1_555
C29 C30 1_555 1_555
C35 C36 1_555 1_555
C37 C38 1_555 1_555
C41 C42 1_555 1_555

#END
