
#######################################################################
#
#                 Cambridge Crystallographic Data Centre
#                                CCDC 
#
#######################################################################
#
# If this CIF has been generated from an entry in the Cambridge 
# Structural Database, then it will include bibliographic, chemical, 
# crystal, experimental, refinement or atomic coordinate data resulting 
# from the CCDC's data processing and validation procedures.
#
#######################################################################

data_TECGUE
_chemical_formula_moiety         'C11 H10 N6 O3'
_chemical_name_systematic        
N-(4,6-Dimethoxy-1,3,5-triazin-2-yloxy)benzotriazole
_symmetry_cell_setting           monoclinic
_symmetry_space_group_name_H-M   'C 2/c'
_symmetry_Int_Tables_number      15
_space_group_name_Hall           '-C 2yn'
loop_
_symmetry_equiv_pos_site_id
_symmetry_equiv_pos_as_xyz
1 x,y,z
2 1/2+x,1/2+y,z
3 -x,y,1/2-z
4 1/2-x,1/2+y,1/2-z
5 -x,-y,-z
6 1/2-x,1/2-y,-z
7 x,-y,1/2+z
8 1/2+x,1/2-y,1/2+z
_cell_length_a                   21.602(3)
_cell_length_b                   7.3765(12)
_cell_length_c                   18.248(3)
_cell_angle_alpha                90
_cell_angle_beta                 122.139(2)
_cell_angle_gamma                90
_cell_volume                     2462.18
_exptl_crystal_colour            colorless
_exptl_crystal_description       block
_cell_formula_units_Z            8
_exptl_crystal_recrystallization_method hexane/dichloromethane
loop_
_atom_site_label
_atom_site_type_symbol
_atom_site_fract_x
_atom_site_fract_y
_atom_site_fract_z
O1 O 0.07602(6) 0.29815(17) 0.61285(7)
O2 O -0.15237(5) 0.13163(15) 0.40446(7)
O3 O 0.01517(6) 0.22857(17) 0.33540(7)
N1 N 0.10049(7) 0.44497(18) 0.35243(9)
N2 N 0.08608(7) 0.27361(19) 0.36287(8)
N3 N 0.16629(7) 0.44673(17) 0.36753(9)
N4 N 0.05018(7) 0.27119(17) 0.47817(8)
N5 N -0.06908(6) 0.18303(17) 0.36679(8)
N6 N -0.04015(7) 0.20778(17) 0.51135(8)
C1 C 0.05644(11) 0.2854(3) 0.67696(11)
H1 H 0.0977 0.3182 0.7326
H2 H 0.0420 0.1634 0.6790
H3 H 0.0166 0.3663 0.6619
C2 C -0.20510(9) 0.1057(3) 0.31372(11)
H4 H -0.2518 0.0768 0.3054
H5 H -0.1896 0.0081 0.2924
H6 H -0.2091 0.2149 0.2828
C3 C 0.27141(9) 0.0235(2) 0.41915(10)
H7 H 0.3161 -0.0256 0.4332
C4 C 0.21716(11) -0.0919(2) 0.41181(11)
H8 H 0.2264 -0.2158 0.4195
C5 C 0.15086(10) -0.0287(2) 0.39361(10)
H9 H 0.1152 -0.1049 0.3904
C6 C 0.26108(8) 0.2049(2) 0.40641(10)
H10 H 0.2976 0.2809 0.4116
C7 C 0.19304(8) 0.2721(2) 0.38515(9)
C8 C 0.14040(8) 0.1570(2) 0.38027(9)
C9 C 0.02576(8) 0.25727(19) 0.53190(9)
C10 C -0.00035(8) 0.2294(2) 0.39936(10)
C11 C -0.08539(8) 0.17567(19) 0.42693(10)
loop_
_geom_bond_atom_site_label_1
_geom_bond_atom_site_label_2
_geom_bond_site_symmetry_1
_geom_bond_site_symmetry_2
O1 C1 1_555 1_555
O2 C2 1_555 1_555
O3 N2 1_555 1_555
N1 N2 1_555 1_555
N2 C8 1_555 1_555
N3 N1 1_555 1_555
N4 C9 1_555 1_555
N5 C10 1_555 1_555
N6 C9 1_555 1_555
C1 H1 1_555 1_555
H2 C1 1_555 1_555
H3 C1 1_555 1_555
C2 H4 1_555 1_555
H5 C2 1_555 1_555
H6 C2 1_555 1_555
C3 H7 1_555 1_555
C4 C3 1_555 1_555
H8 C4 1_555 1_555
C5 C4 1_555 1_555
H9 C5 1_555 1_555
C6 C3 1_555 1_555
H10 C6 1_555 1_555
C7 N3 1_555 1_555
C8 C5 1_555 1_555
C9 O1 1_555 1_555
C10 O3 1_555 1_555
C11 O2 1_555 1_555
N4 C10 1_555 1_555
N5 C11 1_555 1_555
N6 C11 1_555 1_555
C6 C7 1_555 1_555
C7 C8 1_555 1_555

#END
