
#######################################################################
#
#                 Cambridge Crystallographic Data Centre
#                                CCDC 
#
#######################################################################
#
# If this CIF has been generated from an entry in the Cambridge 
# Structural Database, then it will include bibliographic, chemical, 
# crystal, experimental, refinement or atomic coordinate data resulting 
# from the CCDC's data processing and validation procedures.
#
#######################################################################

data_TECGOY
_chemical_formula_moiety         'C19 H18 N4 O2 S1'
_chemical_name_systematic        
3-(4-Ethoxyphenyl)-6-(4-methoxyphenyl)-7H-1,2,4-triazolo(3,4-b)(1,3,4)thiadiazine
_symmetry_cell_setting           monoclinic
_symmetry_space_group_name_H-M   'P 21/c'
_symmetry_Int_Tables_number      14
_space_group_name_Hall           '-P 2ybc'
loop_
_symmetry_equiv_pos_site_id
_symmetry_equiv_pos_as_xyz
1 x,y,z
2 -x,1/2+y,1/2-z
3 -x,-y,-z
4 x,1/2-y,1/2+z
_cell_length_a                   11.1834(8)
_cell_length_b                   13.7038(10)
_cell_length_c                   15.8307(9)
_cell_angle_alpha                90
_cell_angle_beta                 133.270(3)
_cell_angle_gamma                90
_cell_volume                     1766.55
_exptl_crystal_colour            colorless
_exptl_crystal_description       block
_chemical_melting_point          '474-475 K'
_cell_formula_units_Z            4
_exptl_crystal_recrystallization_method '95% ethanol'
loop_
_atom_site_label
_atom_site_type_symbol
_atom_site_fract_x
_atom_site_fract_y
_atom_site_fract_z
S1 S 1.03172(7) 0.78594(5) 0.75744(5)
O1 O 0.3376(2) 0.42088(11) 0.24695(15)
O2 O 0.19084(19) 1.17989(11) 0.14414(13)
N1 N 0.6851(2) 0.81858(12) 0.50551(15)
N2 N 0.7753(2) 0.89634(12) 0.58128(14)
N3 N 0.9808(2) 0.98335(14) 0.72962(17)
N4 N 0.8595(2) 1.04620(14) 0.64131(17)
C1 C 0.1839(3) 0.4364(2) 0.1322(2)
H1 H 0.1975 0.4819 0.0932
H2 H 0.1069 0.4621 0.1351
H3 H 0.1436 0.3756 0.0909
C2 C 0.4225(3) 0.49979(15) 0.31609(19)
C3 C 0.3673(3) 0.59467(16) 0.2859(2)
H4 H 0.2644 0.6085 0.2137
C4 C 0.4650(3) 0.66880(16) 0.3630(2)
H5 H 0.4265 0.7326 0.3416
C5 C 0.6187(2) 0.65149(14) 0.47149(17)
C6 C 0.6706(3) 0.55529(16) 0.5012(2)
H6 H 0.7722 0.5410 0.5743
C7 C 0.5745(3) 0.48097(16) 0.4246(2)
H7 H 0.6121 0.4170 0.4460
C8 C 0.7202(2) 0.73326(14) 0.55172(17)
C9 C 0.8481(3) 0.71320(15) 0.68028(18)
H8 H 0.8778 0.6447 0.6925
H9 H 0.8008 0.7258 0.7125
C10 C 0.9282(3) 0.89496(16) 0.69138(19)
C11 C 0.7380(3) 0.99409(15) 0.55296(19)
C12 C 0.5901(3) 1.03636(14) 0.44342(19)
C13 C 0.5885(3) 1.13651(16) 0.4287(2)
H10 H 0.6792 1.1736 0.4882
C14 C 0.4557(3) 1.18173(16) 0.3279(2)
H11 H 0.4578 1.2487 0.3193
C15 C 0.3185(3) 1.12778(15) 0.23911(19)
C16 C 0.3173(3) 1.02859(15) 0.2529(2)
H12 H 0.2255 0.9918 0.1941
C17 C 0.4524(3) 0.98389(16) 0.3539(2)
H13 H 0.4507 0.9168 0.3618
C18 C 0.0449(3) 1.12930(18) 0.0508(2)
H14 H 0.0037 1.0927 0.0788
H15 H 0.0673 1.0839 0.0160
C19 C -0.0803(4) 1.2036(2) -0.0376(2)
H16 H -0.0395 1.2383 -0.0661
H17 H -0.1003 1.2487 -0.0021
H18 H -0.1808 1.1711 -0.1008
loop_
_geom_bond_atom_site_label_1
_geom_bond_atom_site_label_2
_geom_bond_site_symmetry_1
_geom_bond_site_symmetry_2
S1 C9 1_555 1_555
O1 C1 1_555 1_555
O2 C15 1_555 1_555
N1 N2 1_555 1_555
N2 C10 1_555 1_555
N3 N4 1_555 1_555
N4 C11 1_555 1_555
C1 H1 1_555 1_555
H2 C1 1_555 1_555
H3 C1 1_555 1_555
C2 O1 1_555 1_555
C3 C2 1_555 1_555
H4 C3 1_555 1_555
C4 C3 1_555 1_555
H5 C4 1_555 1_555
C5 C4 1_555 1_555
C6 C5 1_555 1_555
H6 C6 1_555 1_555
C7 C2 1_555 1_555
H7 C7 1_555 1_555
C8 N1 1_555 1_555
C9 C8 1_555 1_555
H8 C9 1_555 1_555
H9 C9 1_555 1_555
C10 S1 1_555 1_555
C11 N2 1_555 1_555
C12 C11 1_555 1_555
C13 C12 1_555 1_555
H10 C13 1_555 1_555
C14 C13 1_555 1_555
H11 C14 1_555 1_555
C15 C14 1_555 1_555
C16 C15 1_555 1_555
H12 C16 1_555 1_555
C17 C12 1_555 1_555
H13 C17 1_555 1_555
C18 O2 1_555 1_555
H14 C18 1_555 1_555
H15 C18 1_555 1_555
C19 C18 1_555 1_555
H16 C19 1_555 1_555
H17 C19 1_555 1_555
H18 C19 1_555 1_555
N3 C10 1_555 1_555
C5 C8 1_555 1_555
C6 C7 1_555 1_555
C16 C17 1_555 1_555

#END
