
#######################################################################
#
#                 Cambridge Crystallographic Data Centre
#                                CCDC 
#
#######################################################################
#
# If this CIF has been generated from an entry in the Cambridge 
# Structural Database, then it will include bibliographic, chemical, 
# crystal, experimental, refinement or atomic coordinate data resulting 
# from the CCDC's data processing and validation procedures.
#
#######################################################################

data_TECHAL
_chemical_formula_moiety         'C18 H11 Cl2 F3 N4 O2 S1'
_chemical_name_systematic        
1-(2,6-Dichloro-4-(trifluoromethyl)phenyl)-5-(4-methylphenylsulfonamido)-1H-pyrazole-3-carbonitrile
_symmetry_cell_setting           triclinic
_symmetry_space_group_name_H-M   'P -1'
_symmetry_Int_Tables_number      2
_space_group_name_Hall           '-P 1'
loop_
_symmetry_equiv_pos_site_id
_symmetry_equiv_pos_as_xyz
1 x,y,z
2 -x,-y,-z
_cell_length_a                   9.4636(10)
_cell_length_b                   10.0256(11)
_cell_length_c                   11.6641(13)
_cell_angle_alpha                102.699(2)
_cell_angle_beta                 102.171(2)
_cell_angle_gamma                102.984(2)
_cell_volume                     1011.81
_exptl_crystal_colour            colorless
_exptl_crystal_description       block
_chemical_melting_point          '500-501 K'
_cell_formula_units_Z            2
_exptl_crystal_recrystallization_method acetone/ethanol
loop_
_atom_site_label
_atom_site_type_symbol
_atom_site_fract_x
_atom_site_fract_y
_atom_site_fract_z
Cl1 Cl 0.24676(13) 0.17381(12) 0.04594(11)
Cl2 Cl 0.26409(12) 0.58352(13) 0.43682(10)
S1 S 0.22246(10) 0.67516(12) 0.02203(9)
F1 F -0.2526(5) 0.0490(7) 0.1945(5)
F2 F -0.1274(7) -0.0073(8) 0.3135(11)
F3 F -0.2027(5) 0.1568(5) 0.3686(5)
O1 O 0.0660(3) 0.6365(3) -0.0435(3)
O2 O 0.3358(3) 0.7113(4) -0.0377(3)
N1 N 0.3702(3) 0.4570(3) 0.2252(3)
N2 N 0.5109(3) 0.4639(3) 0.2888(3)
N3 N 0.8869(4) 0.6156(5) 0.3302(4)
N4 N 0.2390(3) 0.5341(3) 0.0669(3)
H1 H 0.1629 0.4593 0.0428
C1 C -0.1453(6) 0.1022(6) 0.2902(5)
C2 C -0.0084(4) 0.1947(5) 0.2745(4)
C3 C 0.0500(4) 0.1434(4) 0.1810(4)
H2 H 0.0063 0.0513 0.1294
C4 C 0.1746(4) 0.2316(4) 0.1658(3)
C5 C 0.2414(3) 0.3674(4) 0.2437(3)
C6 C 0.1816(4) 0.4155(4) 0.3379(3)
C7 C 0.0557(4) 0.3294(5) 0.3541(4)
H3 H 0.0152 0.3615 0.4174
C8 C 0.5988(4) 0.5499(4) 0.2458(3)
C9 C 0.5204(4) 0.5955(4) 0.1535(3)
H4 H 0.5595 0.6548 0.1097
C10 C 0.3725(3) 0.5322(4) 0.1427(3)
C11 C 0.7595(4) 0.5842(5) 0.2933(4)
C12 C 0.2590(4) 0.8121(4) 0.1560(4)
C13 C 0.1649(5) 0.8001(5) 0.2315(5)
H5 H 0.0818 0.7205 0.2101
C14 C 0.1939(5) 0.9049(5) 0.3373(5)
H6 H 0.1307 0.8954 0.3880
C15 C 0.3170(5) 1.0266(5) 0.3708(5)
C16 C 0.4079(5) 1.0364(5) 0.2941(6)
H7 H 0.4899 1.1168 0.3145
C17 C 0.3815(4) 0.9306(5) 0.1874(5)
H8 H 0.4456 0.9392 0.1374
C18 C 0.3459(7) 1.1412(6) 0.4869(6)
H9 H 0.4334 1.1399 0.5454
H10 H 0.2602 1.1246 0.5190
H11 H 0.3627 1.2324 0.4705
loop_
_geom_bond_atom_site_label_1
_geom_bond_atom_site_label_2
_geom_bond_site_symmetry_1
_geom_bond_site_symmetry_2
Cl1 C4 1_555 1_555
Cl2 C6 1_555 1_555
S1 O1 1_555 1_555
F1 C1 1_555 1_555
F2 C1 1_555 1_555
F3 C1 1_555 1_555
O2 S1 1_555 1_555
N1 N2 1_555 1_555
N2 C8 1_555 1_555
N3 C11 1_555 1_555
N4 S1 1_555 1_555
H1 N4 1_555 1_555
C1 C2 1_555 1_555
C2 C3 1_555 1_555
C3 H2 1_555 1_555
C4 C3 1_555 1_555
C5 N1 1_555 1_555
C6 C5 1_555 1_555
C7 C2 1_555 1_555
H3 C7 1_555 1_555
C8 C9 1_555 1_555
C9 H4 1_555 1_555
C10 N1 1_555 1_555
C11 C8 1_555 1_555
C12 S1 1_555 1_555
C13 C12 1_555 1_555
H5 C13 1_555 1_555
C14 C13 1_555 1_555
H6 C14 1_555 1_555
C15 C14 1_555 1_555
C16 C15 1_555 1_555
H7 C16 1_555 1_555
C17 C12 1_555 1_555
H8 C17 1_555 1_555
C18 C15 1_555 1_555
H9 C18 1_555 1_555
H10 C18 1_555 1_555
H11 C18 1_555 1_555
N4 C10 1_555 1_555
C4 C5 1_555 1_555
C6 C7 1_555 1_555
C9 C10 1_555 1_555
C16 C17 1_555 1_555

#END
