
#######################################################################
#
#                 Cambridge Crystallographic Data Centre
#                                CCDC 
#
#######################################################################
#
# If this CIF has been generated from an entry in the Cambridge 
# Structural Database, then it will include bibliographic, chemical, 
# crystal, experimental, refinement or atomic coordinate data resulting 
# from the CCDC's data processing and validation procedures.
#
#######################################################################

data_TECHEQ
_chemical_formula_moiety         'C18 H10 F4 N2'
_chemical_name_systematic        
6-Cyclopropyl-9,10,11,12-tetrafluoroindazolo[3,2-a]isoquinoline
_symmetry_cell_setting           triclinic
_symmetry_space_group_name_H-M   'P -1'
_symmetry_Int_Tables_number      2
_space_group_name_Hall           '-P 1'
loop_
_symmetry_equiv_pos_site_id
_symmetry_equiv_pos_as_xyz
1 x,y,z
2 -x,-y,-z
_cell_length_a                   10.530(4)
_cell_length_b                   11.457(4)
_cell_length_c                   12.906(5)
_cell_angle_alpha                111.243(5)
_cell_angle_beta                 104.593(4)
_cell_angle_gamma                92.130(5)
_cell_volume                     1390.08
_exptl_crystal_colour            colorless
_exptl_crystal_description       block
_cell_formula_units_Z            4
loop_
_atom_site_label
_atom_site_type_symbol
_atom_site_fract_x
_atom_site_fract_y
_atom_site_fract_z
F1 F 0.66205(16) 1.05838(16) 0.45467(16)
F2 F 0.72187(18) 1.25868(15) 0.40851(17)
F3 F 0.92327(18) 1.27625(15) 0.32101(16)
F4 F 1.07564(17) 1.08691(16) 0.27405(15)
N1 N 1.0115(2) 0.86989(19) 0.32221(18)
N2 N 0.94567(19) 0.79362(18) 0.35694(16)
C1 C 0.7628(2) 1.0598(2) 0.4095(2)
C2 C 0.7929(3) 1.1614(2) 0.3858(2)
C3 C 0.8980(3) 1.1711(2) 0.3403(2)
C4 C 0.9741(3) 1.0772(2) 0.3168(2)
C5 C 0.9450(2) 0.9699(2) 0.3398(2)
C6 C 0.8385(2) 0.9585(2) 0.3857(2)
C7 C 0.8412(2) 0.8402(2) 0.3967(2)
C8 C 0.7691(2) 0.7680(2) 0.4400(2)
C9 C 0.6623(3) 0.8066(3) 0.4841(2)
H1 H 0.6318 0.8815 0.4831
C10 C 0.6025(3) 0.7356(3) 0.5284(3)
H2 H 0.5318 0.7625 0.5576
C11 C 0.6468(3) 0.6229(3) 0.5301(3)
H3 H 0.6064 0.5758 0.5616
C12 C 0.7484(3) 0.5813(3) 0.4860(2)
H4 H 0.7763 0.5055 0.4867
C13 C 0.8121(2) 0.6521(2) 0.4392(2)
C14 C 0.9190(2) 0.6100(2) 0.3932(2)
H5 H 0.9437 0.5324 0.3914
C15 C 0.9867(2) 0.6771(2) 0.3518(2)
C16 C 1.0994(3) 0.6416(2) 0.3054(2)
H6 H 1.1819 0.7009 0.3471
C17 C 1.1163(3) 0.5053(3) 0.2556(3)
H7 H 1.2058 0.4843 0.2699
H8 H 1.0493 0.4431 0.2530
C18 C 1.0782(3) 0.5739(3) 0.1776(3)
H9 H 0.9880 0.5537 0.1275
H10 H 1.1445 0.5949 0.1444
F5 F 0.80361(17) 0.32737(16) 0.04257(16)
F6 F 0.67416(17) 0.20102(15) 0.13710(16)
F7 F 0.49512(17) 0.30492(16) 0.24326(16)
F8 F 0.43202(16) 0.53167(16) 0.25760(15)
N3 N 0.7362(2) 0.5716(2) 0.05574(19)
N4 N 0.6745(2) 0.67579(19) 0.08383(17)
C19 C 0.6819(2) 0.4995(2) 0.0999(2)
C20 C 0.7132(2) 0.3785(2) 0.0945(2)
C21 C 0.6497(3) 0.3169(2) 0.1422(2)
C22 C 0.5546(3) 0.3713(2) 0.1971(2)
C23 C 0.5229(2) 0.4865(2) 0.2034(2)
C24 C 0.5858(2) 0.5545(2) 0.1540(2)
C25 C 0.5825(2) 0.6724(2) 0.1419(2)
C26 C 0.5089(2) 0.7769(2) 0.1721(2)
C27 C 0.4088(3) 0.7807(3) 0.2267(2)
H11 H 0.3900 0.7147 0.2487
C28 C 0.3385(3) 0.8809(3) 0.2478(3)
H12 H 0.2707 0.8814 0.2822
C29 C 0.3677(3) 0.9813(3) 0.2183(3)
H13 H 0.3202 1.0493 0.2339
C30 C 0.4656(3) 0.9813(3) 0.1666(3)
H14 H 0.4848 1.0497 0.1478
C31 C 0.5382(2) 0.8790(2) 0.1412(2)
C32 C 0.6375(3) 0.8751(2) 0.0829(2)
H15 H 0.6568 0.9441 0.0649
C33 C 0.7044(3) 0.7762(3) 0.0527(2)
C34 C 0.7998(4) 0.7586(3) -0.0156(4)
H16 H 0.7834 0.6737 -0.0767
C35 C 0.8506(5) 0.8506(6) -0.0476(6)
H17 H 0.8581 0.8243 -0.1260
H18 H 0.8289 0.9354 -0.0158
C36 C 0.9309(5) 0.8085(7) 0.0250(4)
H19 H 0.9641 0.8655 0.1058
H20 H 0.9932 0.7545 -0.0042
loop_
_geom_bond_atom_site_label_1
_geom_bond_atom_site_label_2
_geom_bond_site_symmetry_1
_geom_bond_site_symmetry_2
F1 C1 1_555 1_555
F2 C2 1_555 1_555
F3 C3 1_555 1_555
F4 C4 1_555 1_555
N1 N2 1_555 1_555
N2 C7 1_555 1_555
C1 C2 1_555 1_555
C2 C3 1_555 1_555
C3 C4 1_555 1_555
C4 C5 1_555 1_555
C5 N1 1_555 1_555
C6 C1 1_555 1_555
C7 C6 1_555 1_555
C8 C7 1_555 1_555
C9 C8 1_555 1_555
H1 C9 1_555 1_555
C10 C9 1_555 1_555
H2 C10 1_555 1_555
C11 C10 1_555 1_555
H3 C11 1_555 1_555
C12 C11 1_555 1_555
H4 C12 1_555 1_555
C13 C8 1_555 1_555
C14 C13 1_555 1_555
H5 C14 1_555 1_555
C15 N2 1_555 1_555
C16 C15 1_555 1_555
H6 C16 1_555 1_555
C17 C16 1_555 1_555
H7 C17 1_555 1_555
H8 C17 1_555 1_555
C18 C16 1_555 1_555
H9 C18 1_555 1_555
H10 C18 1_555 1_555
F5 C20 1_555 1_555
F6 C21 1_555 1_555
F7 C22 1_555 1_555
F8 C23 1_555 1_555
N3 N4 1_555 1_555
N4 C25 1_555 1_555
C19 N3 1_555 1_555
C20 C19 1_555 1_555
C21 C20 1_555 1_555
C22 C21 1_555 1_555
C23 C22 1_555 1_555
C24 C19 1_555 1_555
C25 C24 1_555 1_555
C26 C25 1_555 1_555
C27 C26 1_555 1_555
H11 C27 1_555 1_555
C28 C27 1_555 1_555
H12 C28 1_555 1_555
C29 C28 1_555 1_555
H13 C29 1_555 1_555
C30 C29 1_555 1_555
H14 C30 1_555 1_555
C31 C26 1_555 1_555
C32 C31 1_555 1_555
H15 C32 1_555 1_555
C33 N4 1_555 1_555
C34 C33 1_555 1_555
H16 C34 1_555 1_555
C35 C34 1_555 1_555
H17 C35 1_555 1_555
H18 C35 1_555 1_555
C36 C34 1_555 1_555
H19 C36 1_555 1_555
H20 C36 1_555 1_555
C5 C6 1_555 1_555
C12 C13 1_555 1_555
C14 C15 1_555 1_555
C17 C18 1_555 1_555
C23 C24 1_555 1_555
C30 C31 1_555 1_555
C32 C33 1_555 1_555
C35 C36 1_555 1_555

#END
