
#######################################################################
#
#                 Cambridge Crystallographic Data Centre
#                                CCDC 
#
#######################################################################
#
# If this CIF has been generated from an entry in the Cambridge 
# Structural Database, then it will include bibliographic, chemical, 
# crystal, experimental, refinement or atomic coordinate data resulting 
# from the CCDC's data processing and validation procedures.
#
#######################################################################

data_TECJIV
_chemical_formula_moiety         'C16 H18 N2 O4'
_chemical_name_systematic        
3,t-6-Dihydroxy-t-5-methoxycarbonyl-c-6-methyl-r-4-phenyl-4,5,6,7-tetrahydro-1H-indazole
_symmetry_cell_setting           orthorhombic
_symmetry_space_group_name_H-M   'P b c a'
_symmetry_Int_Tables_number      61
_space_group_name_Hall           '-P 2ac 2ab'
loop_
_symmetry_equiv_pos_site_id
_symmetry_equiv_pos_as_xyz
1 x,y,z
2 1/2-x,-y,1/2+z
3 1/2+x,1/2-y,-z
4 -x,1/2+y,1/2-z
5 -x,-y,-z
6 1/2+x,y,1/2-z
7 1/2-x,1/2+y,z
8 x,1/2-y,1/2+z
_cell_length_a                   9.3871(4)
_cell_length_b                   14.7295(6)
_cell_length_c                   21.6478(9)
_cell_angle_alpha                90
_cell_angle_beta                 90
_cell_angle_gamma                90
_cell_volume                     2993.18
_exptl_crystal_colour            colorless
_exptl_crystal_description       block
_chemical_melting_point          '533 K'
_cell_formula_units_Z            8
_exptl_crystal_recrystallization_method ethanol
loop_
_atom_site_label
_atom_site_type_symbol
_atom_site_fract_x
_atom_site_fract_y
_atom_site_fract_z
O1 O 0.33404(12) -0.06600(7) 0.02235(6)
H1 H 0.4173 -0.0720 0.0116
O2 O -0.10175(12) 0.16306(8) 0.03369(5)
H2 H -0.1707 0.1296 0.0384
O3 O -0.24705(14) 0.03714(9) 0.12300(6)
N1 N 0.32774(15) 0.16630(9) 0.02600(7)
H3 H 0.360(2) 0.2149(13) 0.0144(8)
N2 N 0.39289(15) 0.08665(9) 0.00967(7)
O4 O -0.16175(18) 0.06279(12) 0.21727(7)
C1 C 0.30506(17) 0.02246(10) 0.03013(7)
C2 C -0.03822(18) 0.18171(10) 0.09247(7)
C3 C 0.20413(16) 0.15156(10) 0.05454(7)
C4 C 0.09209(19) -0.06561(11) 0.12926(7)
C5 C 0.05699(17) 0.01710(10) 0.09024(7)
H4 H -0.0109 -0.0011 0.0582
C6 C 0.10587(17) 0.22332(10) 0.07691(8)
H5 H 0.0942 0.2694 0.0453
H6 H 0.1456 0.2521 0.1134
C7 C -0.01268(18) 0.09291(10) 0.13008(7)
H7 H 0.0563 0.1081 0.1624
C8 C 0.18474(16) 0.05924(10) 0.05933(7)
C9 C -0.1459(2) 0.06217(11) 0.16270(8)
C10 C 0.1993(2) -0.06334(13) 0.17275(8)
H8 H 0.2523 -0.0106 0.1781
C11 C 0.0143(2) -0.14464(12) 0.12230(10)
H9 H -0.0587 -0.1472 0.0933
C12 C -0.1275(2) 0.24986(13) 0.12836(10)
H10 H -0.1314 0.3061 0.1060
H11 H -0.0851 0.2601 0.1681
H12 H -0.2221 0.2265 0.1336
C13 C 0.2289(3) -0.13924(16) 0.20871(9)
H13 H 0.3013 -0.1371 0.2380
C14 C 0.0444(3) -0.21982(14) 0.15820(13)
H14 H -0.0086 -0.2726 0.1531
C15 C 0.1511(3) -0.21734(15) 0.20099(11)
H15 H 0.1710 -0.2683 0.2248
C16 C -0.3832(2) 0.01134(16) 0.14978(12)
H16 H -0.3702 -0.0402 0.1763
H17 H -0.4487 -0.0040 0.1174
H18 H -0.4207 0.0612 0.1733
loop_
_geom_bond_atom_site_label_1
_geom_bond_atom_site_label_2
_geom_bond_site_symmetry_1
_geom_bond_site_symmetry_2
O1 H1 1_555 1_555
O2 H2 1_555 1_555
O3 C9 1_555 1_555
N1 H3 1_555 1_555
N2 N1 1_555 1_555
O4 C9 1_555 1_555
C1 O1 1_555 1_555
C2 O2 1_555 1_555
C3 N1 1_555 1_555
C4 C5 1_555 1_555
C5 H4 1_555 1_555
C6 C2 1_555 1_555
H5 C6 1_555 1_555
H6 C6 1_555 1_555
C7 C2 1_555 1_555
H7 C7 1_555 1_555
C8 C1 1_555 1_555
C9 C7 1_555 1_555
C10 C4 1_555 1_555
H8 C10 1_555 1_555
C11 C4 1_555 1_555
H9 C11 1_555 1_555
C12 C2 1_555 1_555
H10 C12 1_555 1_555
H11 C12 1_555 1_555
H12 C12 1_555 1_555
C13 C10 1_555 1_555
H13 C13 1_555 1_555
C14 C11 1_555 1_555
H14 C14 1_555 1_555
C15 C13 1_555 1_555
H15 C15 1_555 1_555
C16 O3 1_555 1_555
H16 C16 1_555 1_555
H17 C16 1_555 1_555
H18 C16 1_555 1_555
N2 C1 1_555 1_555
C3 C6 1_555 1_555
C3 C8 1_555 1_555
C5 C7 1_555 1_555
C5 C8 1_555 1_555
C14 C15 1_555 1_555

#END
