
#######################################################################
#
#                 Cambridge Crystallographic Data Centre
#                                CCDC 
#
#######################################################################
#
# If this CIF has been generated from an entry in the Cambridge 
# Structural Database, then it will include bibliographic, chemical, 
# crystal, experimental, refinement or atomic coordinate data resulting 
# from the CCDC's data processing and validation procedures.
#
#######################################################################

data_TECKAO
_chemical_formula_moiety         'C10 H9 N7 O3'
_chemical_name_systematic        
1-(4,6-Dimethoxy-1,3,5-triazin-2-yloxy)-1H-pyridino(2,3-d)triazole
_symmetry_cell_setting           triclinic
_symmetry_space_group_name_H-M   'P -1'
_symmetry_Int_Tables_number      2
_space_group_name_Hall           '-P 1'
loop_
_symmetry_equiv_pos_site_id
_symmetry_equiv_pos_as_xyz
1 x,y,z
2 -x,-y,-z
_cell_length_a                   8.7412(19)
_cell_length_b                   10.530(2)
_cell_length_c                   13.881(3)
_cell_angle_alpha                81.964(3)
_cell_angle_beta                 89.058(3)
_cell_angle_gamma                76.467(3)
_cell_volume                     1229.83
_exptl_crystal_colour            colorless
_exptl_crystal_description       block
_cell_formula_units_Z            4
_exptl_crystal_recrystallization_method hexane/dichloromethane
loop_
_atom_site_label
_atom_site_type_symbol
_atom_site_fract_x
_atom_site_fract_y
_atom_site_fract_z
O1 O 0.37799(19) 0.44865(16) 0.84885(13)
O2 O 0.1215(2) 0.85965(16) 0.87452(14)
O3 O 0.6580(2) 0.74972(19) 0.89096(15)
N1 N 0.5668(3) 0.4539(2) 0.66567(16)
N2 N 0.7100(3) 0.1992(2) 0.85962(16)
N3 N 0.5847(3) 0.2667(2) 0.89786(16)
N4 N 0.5192(2) 0.36691(18) 0.83064(15)
N5 N 0.2498(2) 0.65297(19) 0.86509(15)
N6 N 0.3900(2) 0.81687(19) 0.87963(13)
N7 N 0.5296(2) 0.5956(2) 0.87216(15)
C1 C 0.7230(3) 0.2597(2) 0.76616(18)
C2 C 0.8311(3) 0.2323(3) 0.6931(2)
H1 H 0.9162 0.1595 0.7009
C3 C 0.8043(3) 0.3188(3) 0.6094(2)
H2 H 0.8744 0.3067 0.5585
C4 C 0.6740(3) 0.4251(3) 0.5985(2)
H3 H 0.6610 0.4804 0.5393
C5 C 0.5993(3) 0.3682(2) 0.74659(17)
C6 C 0.3898(3) 0.5737(2) 0.86318(17)
C7 C 0.2598(3) 0.7752(2) 0.87333(16)
C8 C 0.5198(3) 0.7221(3) 0.88086(17)
C9 C 0.1225(3) 0.9943(2) 0.8837(2)
H4 H 0.0162 1.0458 0.8839
H5 H 0.1771 1.0300 0.8299
H6 H 0.1748 0.9965 0.9435
C10 C 0.6603(4) 0.8833(3) 0.9030(3)
H7 H 0.7672 0.8901 0.9089
H8 H 0.6043 0.9061 0.9605
H9 H 0.6108 0.9426 0.8474
O4 O 0.30287(19) 0.27619(15) 0.56331(12)
O5 O -0.0171(2) 0.64580(16) 0.63154(15)
O6 O 0.1006(2) 0.28786(17) 0.86618(13)
N8 N 0.1776(2) 0.0294(2) 0.57196(16)
N9 N 0.5751(2) -0.0074(2) 0.64232(16)
N10 N 0.5279(2) 0.1203(2) 0.62374(16)
N11 N 0.3771(2) 0.14781(18) 0.59594(14)
N12 N 0.1463(2) 0.46196(18) 0.59808(15)
N13 N 0.0302(2) 0.47130(18) 0.75356(16)
N14 N 0.2062(2) 0.27395(17) 0.71977(14)
C11 C 0.4507(3) -0.0615(2) 0.62583(16)
C12 C 0.4345(3) -0.1907(2) 0.63291(17)
H10 H 0.5175 -0.2625 0.6526
C13 C 0.2913(3) -0.2056(3) 0.60960(19)
H11 H 0.2739 -0.2900 0.6130
C14 C 0.1685(3) -0.0958(3) 0.5803(2)
H12 H 0.0720 -0.1119 0.5654
C15 C 0.3213(3) 0.0383(2) 0.59527(15)
C16 C 0.2131(3) 0.3396(2) 0.63354(17)
C17 C 0.0543(3) 0.5229(2) 0.6633(2)
C18 C 0.1115(3) 0.3483(2) 0.77727(18)
C19 C -0.1174(3) 0.7185(3) 0.6996(3)
H13 H -0.1636 0.8061 0.6683
H14 H -0.0557 0.7231 0.7550
H15 H -0.1991 0.6743 0.7203
C20 C 0.0084(4) 0.3641(3) 0.9347(2)
H16 H 0.0100 0.3097 0.9964
H17 H -0.0981 0.3957 0.9109
H18 H 0.0522 0.4378 0.9424
loop_
_geom_bond_atom_site_label_1
_geom_bond_atom_site_label_2
_geom_bond_site_symmetry_1
_geom_bond_site_symmetry_2
O1 N4 1_555 1_555
O2 C7 1_555 1_555
O3 C8 1_555 1_555
O4 N11 1_555 1_555
O5 C17 1_555 1_555
O6 C18 1_555 1_555
N1 C4 1_555 1_555
N2 N3 1_555 1_555
N3 N4 1_555 1_555
N4 C5 1_555 1_555
N5 C6 1_555 1_555
N6 C7 1_555 1_555
N7 C6 1_555 1_555
N8 C14 1_555 1_555
N9 N10 1_555 1_555
N10 N11 1_555 1_555
N11 C15 1_555 1_555
N12 C16 1_555 1_555
N13 C17 1_555 1_555
N14 C16 1_555 1_555
C1 N2 1_555 1_555
C2 C1 1_555 1_555
H1 C2 1_555 1_555
C3 C2 1_555 1_555
H2 C3 1_555 1_555
C4 C3 1_555 1_555
H3 C4 1_555 1_555
C5 N1 1_555 1_555
C6 O1 1_555 1_555
C7 N5 1_555 1_555
C8 N6 1_555 1_555
C9 O2 1_555 1_555
H4 C9 1_555 1_555
H5 C9 1_555 1_555
H6 C9 1_555 1_555
C10 O3 1_555 1_555
H7 C10 1_555 1_555
H8 C10 1_555 1_555
H9 C10 1_555 1_555
C11 N9 1_555 1_555
C12 C11 1_555 1_555
H10 C12 1_555 1_555
C13 C12 1_555 1_555
H11 C13 1_555 1_555
C14 C13 1_555 1_555
H12 C14 1_555 1_555
C15 N8 1_555 1_555
C16 O4 1_555 1_555
C17 N12 1_555 1_555
C18 N13 1_555 1_555
C19 O5 1_555 1_555
H13 C19 1_555 1_555
H14 C19 1_555 1_555
H15 C19 1_555 1_555
C20 O6 1_555 1_555
H16 C20 1_555 1_555
H17 C20 1_555 1_555
H18 C20 1_555 1_555
N7 C8 1_555 1_555
N14 C18 1_555 1_555
C1 C5 1_555 1_555
C11 C15 1_555 1_555

#END
