
#######################################################################
#
#                 Cambridge Crystallographic Data Centre
#                                CCDC 
#
#######################################################################
#
# If this CIF has been generated from an entry in the Cambridge 
# Structural Database, then it will include bibliographic, chemical, 
# crystal, experimental, refinement or atomic coordinate data resulting 
# from the CCDC's data processing and validation procedures.
#
#######################################################################

data_TECKES
_chemical_formula_moiety         'C20 H26 O4'
_chemical_name_systematic        1,6-bis(3-(Hydroxymethyl)phenoxy)hexane
_symmetry_cell_setting           monoclinic
_symmetry_space_group_name_H-M   'P 21/c'
_symmetry_Int_Tables_number      14
_space_group_name_Hall           '-P 2ybc'
loop_
_symmetry_equiv_pos_site_id
_symmetry_equiv_pos_as_xyz
1 x,y,z
2 -x,1/2+y,1/2-z
3 -x,-y,-z
4 x,1/2-y,1/2+z
_cell_length_a                   14.7385(17)
_cell_length_b                   4.9176(6)
_cell_length_c                   12.7760(14)
_cell_angle_alpha                90
_cell_angle_beta                 103.749(2)
_cell_angle_gamma                90
_cell_volume                     899.447
_exptl_crystal_colour            colorless
_exptl_crystal_description       plate
_cell_formula_units_Z            2
_exptl_crystal_recrystallization_method ethanol
loop_
_atom_site_label
_atom_site_type_symbol
_atom_site_fract_x
_atom_site_fract_y
_atom_site_fract_z
O1 O 0.96218(11) 0.2029(3) 0.76675(12)
H1 H 0.9837 0.3560 0.7644
O2 O 0.69011(13) 0.8095(4) 0.72793(17)
C1 C 0.93870(16) 0.1657(5) 0.86572(17)
H2 H 0.9945 0.1856 0.9234
H3 H 0.9154 -0.0179 0.8690
C2 C 0.86661(15) 0.3628(4) 0.88298(16)
C3 C 0.8558(2) 0.4042(6) 0.98663(19)
H4 H 0.8938 0.3113 1.0440
C4 C 0.7897(2) 0.5800(7) 1.0053(2)
H5 H 0.7829 0.6042 1.0753
C5 C 0.7323(2) 0.7234(6) 0.9213(3)
H6 H 0.6880 0.8448 0.9347
C6 C 0.74213(17) 0.6830(5) 0.8177(2)
C7 C 0.80934(15) 0.5020(4) 0.79898(18)
H7 H 0.8156 0.4749 0.7290
C8 C 0.6246(2) 1.0131(6) 0.7419(3)
H8 H 0.6560 1.1532 0.7907
H9 H 0.5763 0.9328 0.7720
C9 C 0.5827(2) 1.1326(6) 0.6338(3)
H10 H 0.6327 1.1949 0.6023
H11 H 0.5459 1.2903 0.6434
C10 C 0.5207(2) 0.9391(6) 0.5548(3)
H12 H 0.5572 0.7805 0.5456
H13 H 0.4702 0.8783 0.5858
O1B O 0.03782(11) 1.7971(3) 0.23325(12)
H1B H 0.0163 1.6440 0.2356
O2B O 0.30989(13) 1.1905(4) 0.27207(17)
C1B C 0.06130(16) 1.8343(5) 0.13428(17)
H2B H 0.0055 1.8144 0.0766
H3B H 0.0846 2.0179 0.1310
C2B C 0.13339(15) 1.6372(4) 0.11702(16)
C3B C 0.1442(2) 1.5958(6) 0.01337(19)
H4B H 0.1062 1.6887 -0.0440
C4B C 0.2103(2) 1.4200(7) -0.0053(2)
H5B H 0.2171 1.3958 -0.0753
C5B C 0.2677(2) 1.2766(6) 0.0787(3)
H6B H 0.3120 1.1552 0.0653
C6B C 0.25787(17) 1.3170(5) 0.1823(2)
C7B C 0.19066(15) 1.4980(4) 0.20102(18)
H7B H 0.1844 1.5251 0.2710
C8B C 0.3754(2) 0.9869(6) 0.2581(3)
H8B H 0.3440 0.8468 0.2093
H9B H 0.4237 1.0672 0.2280
C9B C 0.4173(2) 0.8674(6) 0.3662(3)
H10B H 0.3673 0.8051 0.3977
H11B H 0.4541 0.7097 0.3566
C10B C 0.4793(2) 1.0609(6) 0.4452(3)
H12B H 0.4428 1.2195 0.4544
H13B H 0.5298 1.1217 0.4142
loop_
_geom_bond_atom_site_label_1
_geom_bond_atom_site_label_2
_geom_bond_site_symmetry_1
_geom_bond_site_symmetry_2
O1 H1 1_555 1_555
O2 C6 1_555 1_555
C1 O1 1_555 1_555
H2 C1 1_555 1_555
H3 C1 1_555 1_555
C2 C1 1_555 1_555
C3 C2 1_555 1_555
H4 C3 1_555 1_555
C4 C3 1_555 1_555
H5 C4 1_555 1_555
C5 C4 1_555 1_555
H6 C5 1_555 1_555
C6 C5 1_555 1_555
C7 C2 1_555 1_555
H7 C7 1_555 1_555
C8 O2 1_555 1_555
H8 C8 1_555 1_555
H9 C8 1_555 1_555
C9 C8 1_555 1_555
H10 C9 1_555 1_555
H11 C9 1_555 1_555
C10 C9 1_555 1_555
H12 C10 1_555 1_555
H13 C10 1_555 1_555
O1B H1B 1_555 1_555
O2B C6B 1_555 1_555
C1B O1B 1_555 1_555
H2B C1B 1_555 1_555
H3B C1B 1_555 1_555
C2B C1B 1_555 1_555
C3B C2B 1_555 1_555
H4B C3B 1_555 1_555
C4B C3B 1_555 1_555
H5B C4B 1_555 1_555
C5B C4B 1_555 1_555
H6B C5B 1_555 1_555
C6B C5B 1_555 1_555
C7B C2B 1_555 1_555
H7B C7B 1_555 1_555
C8B O2B 1_555 1_555
H8B C8B 1_555 1_555
H9B C8B 1_555 1_555
C9B C8B 1_555 1_555
H10B C9B 1_555 1_555
H11B C9B 1_555 1_555
C10B C10 1_555 1_555
H12B C10B 1_555 1_555
H13B C10B 1_555 1_555
C6 C7 1_555 1_555
C6B C7B 1_555 1_555
C9B C10B 1_555 1_555

#END
