
#######################################################################
#
#                 Cambridge Crystallographic Data Centre
#                                CCDC 
#
#######################################################################
#
# If this CIF has been generated from an entry in the Cambridge 
# Structural Database, then it will include bibliographic, chemical, 
# crystal, experimental, refinement or atomic coordinate data resulting 
# from the CCDC's data processing and validation procedures.
#
#######################################################################

data_TECMIY
_chemical_formula_moiety         'C2 H10 N2 2+,2(C10 H5 O8 1-),2(H2 O1)'
_chemical_name_systematic        
'Ethylenediammonium bis(trihydrogen 1,2,4,5-benzenetetracarboxylate) dihydrate'
_symmetry_cell_setting           triclinic
_symmetry_space_group_name_H-M   'P -1'
_symmetry_Int_Tables_number      2
_space_group_name_Hall           '-P 1'
loop_
_symmetry_equiv_pos_site_id
_symmetry_equiv_pos_as_xyz
1 x,y,z
2 -x,-y,-z
_cell_length_a                   8.118(2)
_cell_length_b                   8.2266(17)
_cell_length_c                   9.596(3)
_cell_angle_alpha                83.500(10)
_cell_angle_beta                 77.178(13)
_cell_angle_gamma                72.395(10)
_cell_volume                     594.876
_exptl_crystal_colour            colorless
_exptl_crystal_description       block
_cell_formula_units_Z            1
loop_
_atom_site_label
_atom_site_type_symbol
_atom_site_fract_x
_atom_site_fract_y
_atom_site_fract_z
O1 O 0.1685(3) 0.5467(3) 0.0613(3)
O2 O 0.4565(3) 0.2125(4) 0.4121(2)
O3 O 0.4551(4) 0.1883(3) -0.3199(3)
O4 O 0.9117(3) -0.1961(3) -0.0030(3)
O5 O 0.2586(4) 0.5046(3) -0.1700(3)
O6 O 0.7459(3) 0.1156(4) 0.3598(3)
O7 O 0.9242(3) -0.1065(4) 0.1980(3)
O8 O 0.6372(4) 0.3513(4) -0.3435(3)
H3 H 0.760(5) 0.022(5) -0.146(4)
H4 H 0.859(7) -0.010(7) 0.267(6)
H5 H 0.372(6) 0.370(6) 0.206(5)
H7 H 0.470(6) 0.199(6) -0.421(5)
H8 H 0.084(9) 0.630(9) 0.024(7)
C1 C 0.7031(4) 0.0632(4) 0.0656(3)
C2 C 0.5862(4) 0.1676(4) 0.1699(3)
C3 C 0.4467(4) 0.2961(4) 0.1306(3)
C4 C 0.4245(4) 0.3285(4) -0.0091(3)
C5 C 0.5456(4) 0.2309(4) -0.1147(3)
C6 C 0.6800(4) 0.0963(4) -0.0756(3)
C7 C 0.8542(4) -0.0901(4) 0.0883(4)
C8 C 0.5976(4) 0.1621(4) 0.3257(3)
C9 C 0.2745(4) 0.4685(4) -0.0479(3)
C10 C 0.5470(4) 0.2663(4) -0.2716(3)
O9 O 0.8316(4) -0.0926(4) 0.6035(4)
H1 H 0.734(7) -0.131(7) 0.617(6)
H12 H 0.824(11) -0.014(11) 0.558(9)
N1 N 1.1091(4) -0.3843(4) 0.5920(3)
H2 H 1.124(6) -0.629(6) 0.559(5)
H6 H 0.942(7) -0.533(7) 0.650(6)
H9 H 1.154(8) -0.408(7) 0.688(6)
H10 H 1.213(8) -0.384(7) 0.516(6)
H11 H 1.026(8) -0.269(8) 0.612(6)
C11 C 1.0330(5) -0.5197(5) 0.5689(4)
N1A N 0.8909(4) -0.6157(4) 0.4080(3)
H2A H 0.876(6) -0.371(6) 0.441(5)
H6A H 1.058(7) -0.467(7) 0.350(6)
H9A H 0.846(8) -0.592(7) 0.312(6)
H10A H 0.787(8) -0.616(7) 0.484(6)
H11A H 0.974(8) -0.731(8) 0.388(6)
C11A C 0.9670(5) -0.4803(5) 0.4311(4)
loop_
_geom_bond_atom_site_label_1
_geom_bond_atom_site_label_2
_geom_bond_site_symmetry_1
_geom_bond_site_symmetry_2
O1 H8 1_555 1_555
O2 C8 1_555 1_555
O3 H7 1_555 1_555
O4 C7 1_555 1_555
O5 C9 1_555 1_555
O6 C8 1_555 1_555
O7 H4 1_555 1_555
O8 C10 1_555 1_555
O9 H1 1_555 1_555
N1 H9 1_555 1_555
H2 C11 1_555 1_555
H3 C6 1_555 1_555
H5 C3 1_555 1_555
H6 C11 1_555 1_555
H10 N1 1_555 1_555
H11 N1 1_555 1_555
H12 O9 1_555 1_555
C1 C2 1_555 1_555
C2 C3 1_555 1_555
C3 C4 1_555 1_555
C4 C5 1_555 1_555
C5 C6 1_555 1_555
C6 C1 1_555 1_555
C7 O7 1_555 1_555
C8 C2 1_555 1_555
C9 O1 1_555 1_555
C10 O3 1_555 1_555
C11 N1 1_555 1_555
N1A H9A 1_555 1_555
H2A C11A 1_555 1_555
H6A C11A 1_555 1_555
H10A N1A 1_555 1_555
H11A N1A 1_555 1_555
C11A C11 1_555 1_555
C1 C7 1_555 1_555
C4 C9 1_555 1_555
C5 C10 1_555 1_555
N1A C11A 1_555 1_555

#END
