
#######################################################################
#
#                 Cambridge Crystallographic Data Centre
#                                CCDC 
#
#######################################################################
#
# If this CIF has been generated from an entry in the Cambridge 
# Structural Database, then it will include bibliographic, chemical, 
# crystal, experimental, refinement or atomic coordinate data resulting 
# from the CCDC's data processing and validation procedures.
#
#######################################################################

data_TECNEV
_chemical_formula_moiety         'C18 H21 N2 O3 P1'
_chemical_name_systematic        
'2-Benzylidenehydrazino-5,5-dimethyl-4-phenyl-1,3,2-dioxaphosphorinane 2-oxide'
_symmetry_cell_setting           monoclinic
_symmetry_space_group_name_H-M   'P 21/c'
_symmetry_Int_Tables_number      14
_space_group_name_Hall           '-P 2ybc'
loop_
_symmetry_equiv_pos_site_id
_symmetry_equiv_pos_as_xyz
1 x,y,z
2 -x,1/2+y,1/2-z
3 -x,-y,-z
4 x,1/2-y,1/2+z
_cell_length_a                   7.5618(9)
_cell_length_b                   17.683(2)
_cell_length_c                   14.9324(17)
_cell_angle_alpha                90
_cell_angle_beta                 100.568(2)
_cell_angle_gamma                90
_cell_volume                     1962.82
_exptl_crystal_colour            colorless
_exptl_crystal_description       block
_chemical_melting_point          '453 K'
_cell_formula_units_Z            4
_exptl_crystal_recrystallization_method acetonitrile
loop_
_atom_site_label
_atom_site_type_symbol
_atom_site_fract_x
_atom_site_fract_y
_atom_site_fract_z
C1 C -0.0128(3) 0.75010(12) 0.70630(19)
H1 H -0.0839 0.7660 0.7474
C2 C 0.0174(5) 0.79822(16) 0.6373(3)
H2 H -0.0338 0.8462 0.6321
C3 C 0.1220(5) 0.7753(2) 0.5772(3)
H3 H 0.1430 0.8080 0.5314
C4 C 0.1957(4) 0.7051(2) 0.58377(18)
H4 H 0.2660 0.6897 0.5421
C5 C 0.1670(3) 0.65612(14) 0.65211(14)
H5 H 0.2182 0.6081 0.6561
C6 C 0.0630(2) 0.67818(11) 0.71421(13)
C7 C 0.0385(2) 0.62835(10) 0.79211(12)
H6 H 0.0225 0.6610 0.8430
C8 C -0.1182(2) 0.57135(11) 0.77607(13)
C9 C -0.1059(3) 0.51627(13) 0.69918(15)
H7 H 0.0069 0.4899 0.7122
H8 H -0.1140 0.5436 0.6430
H9 H -0.2028 0.4805 0.6938
C10 C -0.2975(3) 0.61423(16) 0.75654(18)
H10 H -0.3951 0.5790 0.7536
H11 H -0.3080 0.6404 0.6994
H12 H -0.3016 0.6501 0.8043
C11 C -0.1129(3) 0.52920(13) 0.86531(14)
H13 H -0.1287 0.5650 0.9124
H14 H -0.2120 0.4936 0.8583
C12 C 0.4547(2) 0.38363(11) 0.77664(12)
H15 H 0.5512 0.3706 0.8221
C13 C 0.4305(2) 0.34491(11) 0.68865(12)
C14 C 0.2966(3) 0.36485(16) 0.61591(15)
H16 H 0.2194 0.4047 0.6221
C15 C 0.2771(4) 0.32615(19) 0.53471(17)
H17 H 0.1872 0.3402 0.4863
C16 C 0.3892(3) 0.26709(16) 0.52479(16)
H18 H 0.3758 0.2412 0.4698
C17 C 0.5192(3) 0.24670(14) 0.59504(16)
H19 H 0.5948 0.2064 0.5886
C18 C 0.5405(3) 0.28540(12) 0.67635(14)
H20 H 0.6314 0.2709 0.7240
N1 N 0.3812(2) 0.46926(9) 0.87674(11)
N2 N 0.3460(2) 0.43469(10) 0.79176(10)
O1 O 0.05506(16) 0.48862(7) 0.89385(8)
O2 O 0.20848(15) 0.58760(7) 0.81882(8)
O3 O 0.30688(17) 0.56563(7) 0.99049(8)
P1 P 0.23943(6) 0.53121(3) 0.90162(3)
H21 H 0.4739(17) 0.4553(10) 0.9146(10)
loop_
_geom_bond_atom_site_label_1
_geom_bond_atom_site_label_2
_geom_bond_site_symmetry_1
_geom_bond_site_symmetry_2
C1 H1 1_555 1_555
C2 C1 1_555 1_555
H2 C2 1_555 1_555
C3 C2 1_555 1_555
H3 C3 1_555 1_555
C4 C3 1_555 1_555
H4 C4 1_555 1_555
C5 C4 1_555 1_555
H5 C5 1_555 1_555
C6 C1 1_555 1_555
C7 C6 1_555 1_555
H6 C7 1_555 1_555
C8 C7 1_555 1_555
C9 C8 1_555 1_555
H7 C9 1_555 1_555
H8 C9 1_555 1_555
H9 C9 1_555 1_555
C10 C8 1_555 1_555
H10 C10 1_555 1_555
H11 C10 1_555 1_555
H12 C10 1_555 1_555
C11 C8 1_555 1_555
H13 C11 1_555 1_555
H14 C11 1_555 1_555
C12 H15 1_555 1_555
C13 C12 1_555 1_555
C14 C13 1_555 1_555
H16 C14 1_555 1_555
C15 C14 1_555 1_555
H17 C15 1_555 1_555
C16 C15 1_555 1_555
H18 C16 1_555 1_555
C17 C16 1_555 1_555
H19 C17 1_555 1_555
C18 C13 1_555 1_555
H20 C18 1_555 1_555
N1 N2 1_555 1_555
N2 C12 1_555 1_555
O1 C11 1_555 1_555
O2 C7 1_555 1_555
O3 P1 1_555 1_555
P1 N1 1_555 1_555
H21 N1 1_555 1_555
C5 C6 1_555 1_555
C17 C18 1_555 1_555
O1 P1 1_555 1_555
O2 P1 1_555 1_555

#END
