
#######################################################################
#
#                 Cambridge Crystallographic Data Centre
#                                CCDC 
#
#######################################################################
#
# If this CIF has been generated from an entry in the Cambridge 
# Structural Database, then it will include bibliographic, chemical, 
# crystal, experimental, refinement or atomic coordinate data resulting 
# from the CCDC's data processing and validation procedures.
#
#######################################################################

data_TECPID
_chemical_formula_moiety         'C19 H15 N1 O7,2(H2 O1)'
_chemical_name_systematic        
'methyl 4-(3-acetyl-5-hydroxy-1-oxo-1,2-dihydroisoquinolin-4-yl)-3,5-dihydroxybenzoate dihydrate'
_symmetry_cell_setting           monoclinic
_symmetry_space_group_name_H-M   'P 21/c'
_symmetry_Int_Tables_number      14
_space_group_name_Hall           '-P 2ybc'
loop_
_symmetry_equiv_pos_site_id
_symmetry_equiv_pos_as_xyz
1 x,y,z
2 -x,1/2+y,1/2-z
3 -x,-y,-z
4 x,1/2-y,1/2+z
_cell_length_a                   9.61320(10)
_cell_length_b                   26.6085(3)
_cell_length_c                   7.23180(10)
_cell_angle_alpha                90
_cell_angle_beta                 104.8470(10)
_cell_angle_gamma                90
_cell_volume                     1788.08
_exptl_crystal_colour            red
_exptl_crystal_description       block
_cell_formula_units_Z            4
loop_
_atom_site_label
_atom_site_type_symbol
_atom_site_fract_x
_atom_site_fract_y
_atom_site_fract_z
O1 O 1.13106(13) 0.49438(5) 0.87206(17)
O2 O 0.89769(15) 0.35787(6) 0.2034(2)
H1 H 0.9331 0.3444 0.1209
O3 O 0.63279(16) 0.45740(6) 0.8086(2)
O4 O 0.86644(13) 0.29207(5) 0.55901(18)
H2 H 0.8817 0.2635 0.5190
O5 O 0.58481(14) 0.43312(5) 0.31029(19)
H3 H 0.5191 0.4409 0.2134
O6 O 0.25914(15) 0.28574(6) 0.0657(2)
O7 O 0.38900(14) 0.21991(5) 0.1982(2)
N1 N 0.91841(15) 0.45356(5) 0.8075(2)
H4 H 0.8994 0.4680 0.9077
C1 C 1.04381(18) 0.46540(6) 0.7662(2)
C2 C 1.06859(18) 0.44271(6) 0.5921(2)
C3 C 1.19077(19) 0.45744(7) 0.5351(2)
H5 H 1.2563 0.4809 0.6095
C4 C 1.2156(2) 0.43776(7) 0.3702(3)
H6 H 1.2991 0.4473 0.3314
C5 C 1.1179(2) 0.40385(7) 0.2603(3)
H7 H 1.1357 0.3905 0.1468
C6 C 0.99578(19) 0.38935(7) 0.3135(2)
C7 C 0.96724(18) 0.40832(6) 0.4840(2)
C8 C 0.83918(18) 0.39636(6) 0.5459(2)
C9 C 0.81810(18) 0.42037(6) 0.7032(2)
C10 C 0.68290(19) 0.41797(7) 0.7708(2)
C11 C 0.6177(2) 0.36892(8) 0.7999(3)
H8 H 0.5741 0.3715 0.9080
H9 H 0.6925 0.3429 0.8269
H10 H 0.5437 0.3599 0.6841
C12 C 0.72317(18) 0.36241(7) 0.4378(2)
C13 C 0.59510(18) 0.38266(7) 0.3247(2)
C14 C 0.48316(18) 0.35089(7) 0.2330(2)
H11 H 0.3963 0.3647 0.1562
C15 C 0.49837(19) 0.29948(7) 0.2535(2)
C16 C 0.62649(19) 0.27827(7) 0.3617(2)
H12 H 0.6373 0.2429 0.3744
C17 C 0.73744(18) 0.31031(7) 0.4498(2)
C18 C 0.37064(19) 0.26817(7) 0.1619(3)
C19 C 0.2654(2) 0.18798(9) 0.1170(4)
H13 H 0.2458 0.1883 -0.0228
H14 H 0.1812 0.2006 0.1553
H15 H 0.2862 0.1535 0.1639
O8 O 0.39854(14) 0.44819(5) -0.02121(19)
H16 H 0.3331 0.4705 -0.0378
H17 H 0.4551 0.4549 -0.0910
O9 O 0.96785(15) 0.29480(5) -0.05257(19)
H18 H 1.059(3) 0.2903(10) -0.031(4)
H19 H 0.934(3) 0.2978(10) -0.180(5)
loop_
_geom_bond_atom_site_label_1
_geom_bond_atom_site_label_2
_geom_bond_site_symmetry_1
_geom_bond_site_symmetry_2
O1 C1 1_555 1_555
O2 H1 1_555 1_555
O3 C10 1_555 1_555
O4 H2 1_555 1_555
O5 H3 1_555 1_555
O6 C18 1_555 1_555
O7 C18 1_555 1_555
N1 H4 1_555 1_555
C1 N1 1_555 1_555
C2 C1 1_555 1_555
C3 C2 1_555 1_555
H5 C3 1_555 1_555
C4 C3 1_555 1_555
H6 C4 1_555 1_555
C5 C4 1_555 1_555
H7 C5 1_555 1_555
C6 O2 1_555 1_555
C7 C2 1_555 1_555
C8 C7 1_555 1_555
C9 N1 1_555 1_555
C10 C9 1_555 1_555
C11 C10 1_555 1_555
H8 C11 1_555 1_555
H9 C11 1_555 1_555
H10 C11 1_555 1_555
C12 C8 1_555 1_555
C13 O5 1_555 1_555
C14 C13 1_555 1_555
H11 C14 1_555 1_555
C15 C14 1_555 1_555
C16 C15 1_555 1_555
H12 C16 1_555 1_555
C17 O4 1_555 1_555
C18 C15 1_555 1_555
C19 O7 1_555 1_555
H13 C19 1_555 1_555
H14 C19 1_555 1_555
H15 C19 1_555 1_555
O8 H16 1_555 1_555
H17 O8 1_555 1_555
O9 H18 1_555 1_555
H19 O9 1_555 1_555
C5 C6 1_555 1_555
C6 C7 1_555 1_555
C8 C9 1_555 1_555
C12 C13 1_555 1_555
C12 C17 1_555 1_555
C16 C17 1_555 1_555

#END
