
#######################################################################
#
#                 Cambridge Crystallographic Data Centre
#                                CCDC 
#
#######################################################################
#
# If this CIF has been generated from an entry in the Cambridge 
# Structural Database, then it will include bibliographic, chemical, 
# crystal, experimental, refinement or atomic coordinate data resulting 
# from the CCDC's data processing and validation procedures.
#
#######################################################################

data_TECPOI
_chemical_compound_source        'whole plant of Pothos scandens'
_chemical_name_common            'Methyl Pothoscandensate'
_chemical_formula_moiety         'C21 H32 O4'
_chemical_name_systematic        
'Methyl 14-hydroxy-14-(hydroxymethyl)-5,9-dimethyltetracyclo[11.2.1.0^1,10^.0^4,9^]hexadec-5-ene-6-carboxylate'
_symmetry_cell_setting           monoclinic
_symmetry_space_group_name_H-M   'P 21'
_symmetry_Int_Tables_number      4
_space_group_name_Hall           'P 2yb'
loop_
_symmetry_equiv_pos_site_id
_symmetry_equiv_pos_as_xyz
1 x,y,z
2 -x,1/2+y,-z
_cell_length_a                   9.319(7)
_cell_length_b                   7.234(6)
_cell_length_c                   27.87(2)
_cell_angle_alpha                90
_cell_angle_beta                 90.180(12)
_cell_angle_gamma                90
_cell_volume                     1878.81
_exptl_crystal_colour            colorless
_exptl_crystal_description       piece
_cell_formula_units_Z            4
loop_
_atom_site_label
_atom_site_type_symbol
_atom_site_fract_x
_atom_site_fract_y
_atom_site_fract_z
O1 O 1.2463(10) 0.1411(12) 0.7458(4)
H1 H 1.2406 0.0289 0.7420
O2 O 1.1803(9) 0.4439(13) 0.8052(3)
H2 H 1.1553 0.5083 0.8279
C1 C 1.1055(14) 0.218(2) 0.7490(4)
H3 H 1.0366 0.1193 0.7439
H4 H 1.0935 0.3059 0.7230
C2 C 1.0700(14) 0.3117(18) 0.7945(4)
C3 C 0.9243(9) 0.3791(18) 0.7969(5)
H5 H 0.8716 0.3302 0.7697
H6 H 0.9263 0.5125 0.7936
C4 C 0.8440(9) 0.3330(16) 0.8411(4)
C5 C 0.7504(13) 0.1656(17) 0.8315(4)
H7 H 0.6879 0.2054 0.8051
C6 C 0.6400(12) 0.1027(16) 0.8726(4)
C7 C 0.5235(12) -0.0280(18) 0.8491(4)
H8 H 0.4769 0.0365 0.8228
H9 H 0.5704 -0.1366 0.8360
C8 C 0.4108(12) -0.0881(19) 0.8853(4)
H10 H 0.3275 -0.1333 0.8679
H11 H 0.4491 -0.1905 0.9038
C9 C 0.3645(14) 0.0546(19) 0.9183(4)
C10 C 0.2434(15) 0.014(3) 0.9513(6)
O3 O 0.1879(17) 0.0966(18) 0.9814(5)
C11 C 1.0641(10) 0.1722(18) 0.8380(4)
H12 H 1.1601 0.1562 0.8519
C12 C 0.9671(14) 0.2902(19) 0.8731(4)
H13 H 0.9375 0.2188 0.9009
H14 H 1.0157 0.4016 0.8838
C13 C 0.5609(13) 0.2738(16) 0.8891(4)
H15 H 0.5127 0.3193 0.8602
C14 C 0.6522(16) 0.428(2) 0.9044(5)
H16 H 0.7123 0.3908 0.9311
H17 H 0.5932 0.5314 0.9146
C15 C 0.7449(15) 0.4853(18) 0.8621(4)
H18 H 0.8045 0.5884 0.8721
H19 H 0.6824 0.5293 0.8367
C16 C 0.4335(17) 0.215(3) 0.9236(4)
O4 O 0.1971(12) -0.1574(18) 0.9420(4)
C17 C 0.7118(14) 0.0014(19) 0.9157(4)
H20 H 0.7719 0.0864 0.9329
H21 H 0.7688 -0.0994 0.9040
H22 H 0.6389 -0.0453 0.9367
C18 C 0.8383(14) 0.0028(18) 0.8095(4)
H23 H 0.8428 0.0187 0.7750
H24 H 0.7885 -0.1123 0.8159
C19 C 0.9959(12) -0.0112(17) 0.8300(4)
H25 H 0.9938 -0.0781 0.8602
H26 H 1.0542 -0.0816 0.8078
C20 C 0.0786(18) -0.230(3) 0.9706(7)
H27 H 0.1141 -0.3240 0.9920
H28 H 0.0074 -0.2826 0.9497
H29 H 0.0366 -0.1319 0.9890
C21 C 0.380(2) 0.377(2) 0.9559(5)
H30 H 0.2968 0.3388 0.9734
H31 H 0.3562 0.4816 0.9361
H32 H 0.4547 0.4116 0.9780
O5 O 0.2218(9) 0.7557(13) 0.7407(3)
H33 H 0.2857 0.7755 0.7604
O6 O 1.2786(11) 1.0469(13) 0.5460(3)
O7 O 0.4154(10) 0.4537(13) 0.7373(3)
H34 H 0.3444 0.4686 0.7542
C22 C 0.2848(13) 0.6936(19) 0.6958(5)
H35 H 0.2915 0.7967 0.6737
H36 H 0.2241 0.5999 0.6814
C23 C 0.4325(16) 0.6150(19) 0.7049(4)
C24 C 0.4933(11) 0.5201(15) 0.6585(4)
H37 H 0.4442 0.5654 0.6301
H38 H 0.4817 0.3870 0.6602
C25 C 0.6638(17) 0.5759(17) 0.6573(4)
C26 C 0.9058(11) 0.4709(17) 0.6317(4)
H39 H 0.9483 0.5132 0.6616
H40 H 0.9576 0.3621 0.6211
C27 C 0.9164(13) 0.6221(16) 0.5940(4)
H41 H 0.8590 0.5782 0.5667
C28 C 1.0642(15) 0.6655(18) 0.5733(5)
C29 C 1.0939(11) 0.828(2) 0.5555(4)
C30 C 1.2405(17) 0.8788(19) 0.5348(5)
C31 C 1.4161(15) 1.0995(19) 0.5250(5)
H42 H 1.4894 1.0163 0.5359
H43 H 1.4399 1.2233 0.5345
H44 H 1.4092 1.0936 0.4906
C32 C 0.5448(12) 0.7330(18) 0.7223(4)
H45 H 0.5362 0.7490 0.7571
C33 C 0.5649(14) 0.920(2) 0.6981(4)
H46 H 0.4812 0.9960 0.7045
H47 H 0.6472 0.9814 0.7124
C34 C 0.5864(12) 0.9094(16) 0.6454(4)
H48 H 0.6264 1.0263 0.6349
H49 H 0.4927 0.8974 0.6304
C35 C 0.6855(12) 0.7488(15) 0.6250(4)
H50 H 0.6418 0.7153 0.5942
O8 O 1.3087(14) 0.7811(17) 0.5092(5)
C36 C 0.9933(14) 0.9958(18) 0.5569(4)
H51 H 0.9921 1.0551 0.5256
H52 H 1.0289 1.0846 0.5801
C37 C 0.8361(11) 0.9359(19) 0.5708(4)
H53 H 0.7804 1.0448 0.5788
H54 H 0.7908 0.8765 0.5434
C38 C 0.8363(10) 0.8048(16) 0.6128(4)
C39 C 0.9215(13) 0.8932(17) 0.6564(4)
H55 H 0.9978 0.9692 0.6444
H56 H 0.9609 0.7965 0.6760
H57 H 0.8574 0.9673 0.6752
C40 C 1.1636(12) 0.4989(17) 0.5715(4)
H58 H 1.1198 0.4030 0.5527
H59 H 1.1806 0.4544 0.6035
H60 H 1.2531 0.5342 0.5572
C41 C 0.6737(16) 0.6183(19) 0.7109(4)
H61 H 0.6733 0.5049 0.7295
H62 H 0.7611 0.6859 0.7181
C42 C 0.7465(15) 0.4225(18) 0.6396(5)
H63 H 0.7054 0.3808 0.6095
H64 H 0.7402 0.3212 0.6623
loop_
_geom_bond_atom_site_label_1
_geom_bond_atom_site_label_2
_geom_bond_site_symmetry_1
_geom_bond_site_symmetry_2
O1 H1 1_555 1_555
O2 H2 1_555 1_555
C1 O1 1_555 1_555
H3 C1 1_555 1_555
H4 C1 1_555 1_555
C2 O2 1_555 1_555
C3 C2 1_555 1_555
H5 C3 1_555 1_555
H6 C3 1_555 1_555
C4 C3 1_555 1_555
C5 C4 1_555 1_555
H7 C5 1_555 1_555
C6 C5 1_555 1_555
C7 C6 1_555 1_555
H8 C7 1_555 1_555
H9 C7 1_555 1_555
C8 C7 1_555 1_555
H10 C8 1_555 1_555
H11 C8 1_555 1_555
C9 C8 1_555 1_555
C10 C9 1_555 1_555
O3 C10 1_555 1_555
C11 C2 1_555 1_555
H12 C11 1_555 1_555
C12 C4 1_555 1_555
H13 C12 1_555 1_555
H14 C12 1_555 1_555
C13 C6 1_555 1_555
H15 C13 1_555 1_555
C14 C13 1_555 1_555
H16 C14 1_555 1_555
H17 C14 1_555 1_555
C15 C4 1_555 1_555
H18 C15 1_555 1_555
H19 C15 1_555 1_555
C16 C9 1_555 1_555
O4 C10 1_555 1_555
C17 C6 1_555 1_555
H20 C17 1_555 1_555
H21 C17 1_555 1_555
H22 C17 1_555 1_555
C18 C5 1_555 1_555
H23 C18 1_555 1_555
H24 C18 1_555 1_555
C19 C11 1_555 1_555
H25 C19 1_555 1_555
H26 C19 1_555 1_555
C20 O4 1_555 1_555
H27 C20 1_555 1_555
H28 C20 1_555 1_555
H29 C20 1_555 1_555
C21 C16 1_555 1_555
H30 C21 1_555 1_555
H31 C21 1_555 1_555
H32 C21 1_555 1_555
O5 H33 1_555 1_555
O6 C30 1_555 1_555
O7 H34 1_555 1_555
C22 O5 1_555 1_555
H35 C22 1_555 1_555
H36 C22 1_555 1_555
C23 O7 1_555 1_555
C24 C23 1_555 1_555
H37 C24 1_555 1_555
H38 C24 1_555 1_555
C25 C24 1_555 1_555
C26 H39 1_555 1_555
H40 C26 1_555 1_555
C27 C26 1_555 1_555
H41 C27 1_555 1_555
C28 C27 1_555 1_555
C29 C28 1_555 1_555
C30 C29 1_555 1_555
C31 O6 1_555 1_555
H42 C31 1_555 1_555
H43 C31 1_555 1_555
H44 C31 1_555 1_555
C32 C23 1_555 1_555
H45 C32 1_555 1_555
C33 C32 1_555 1_555
H46 C33 1_555 1_555
H47 C33 1_555 1_555
C34 C33 1_555 1_555
H48 C34 1_555 1_555
H49 C34 1_555 1_555
C35 C25 1_555 1_555
H50 C35 1_555 1_555
O8 C30 1_555 1_555
C36 C29 1_555 1_555
H51 C36 1_555 1_555
H52 C36 1_555 1_555
C37 C36 1_555 1_555
H53 C37 1_555 1_555
H54 C37 1_555 1_555
C38 C27 1_555 1_555
C39 C38 1_555 1_555
H55 C39 1_555 1_555
H56 C39 1_555 1_555
H57 C39 1_555 1_555
C40 C28 1_555 1_555
H58 C40 1_555 1_555
H59 C40 1_555 1_555
H60 C40 1_555 1_555
C41 C25 1_555 1_555
H61 C41 1_555 1_555
H62 C41 1_555 1_555
C42 C25 1_555 1_555
H63 C42 1_555 1_555
H64 C42 1_555 1_555
C1 C2 1_555 1_555
C11 C12 1_555 1_555
C13 C16 1_555 1_555
C14 C15 1_555 1_555
C18 C19 1_555 1_555
C22 C23 1_555 1_555
C26 C42 1_555 1_555
C32 C41 1_555 1_555
C34 C35 1_555 1_555
C35 C38 1_555 1_555
C37 C38 1_555 1_555

#END
