
#######################################################################
#
#                 Cambridge Crystallographic Data Centre
#                                CCDC 
#
#######################################################################
#
# If this CIF has been generated from an entry in the Cambridge 
# Structural Database, then it will include bibliographic, chemical, 
# crystal, experimental, refinement or atomic coordinate data resulting 
# from the CCDC's data processing and validation procedures.
#
#######################################################################

data_TECQID
_chemical_formula_moiety         'C10 H11 N5 O1,C1 H4 O1'
_chemical_name_systematic        
'6-Methyl-4-((pyridin-3-ylmethylene)amino)-4,5-dihydro-1,2,4-triazin-3(2H)-one methanol solvate'
_symmetry_cell_setting           monoclinic
_symmetry_space_group_name_H-M   'P 21/c'
_symmetry_Int_Tables_number      14
_space_group_name_Hall           '-P 2ybc'
loop_
_symmetry_equiv_pos_site_id
_symmetry_equiv_pos_as_xyz
1 x,y,z
2 -x,1/2+y,1/2-z
3 -x,-y,-z
4 x,1/2-y,1/2+z
_cell_length_a                   8.8612(12)
_cell_length_b                   11.4273(15)
_cell_length_c                   12.6305(16)
_cell_angle_alpha                90
_cell_angle_beta                 94.007(3)
_cell_angle_gamma                90
_cell_volume                     1275.83
_exptl_crystal_colour            colorless
_exptl_crystal_description       prismatic
_cell_formula_units_Z            4
loop_
_atom_site_label
_atom_site_type_symbol
_atom_site_fract_x
_atom_site_fract_y
_atom_site_fract_z
O1 O 0.17571(15) 0.43674(14) -0.04092(12)
N1 N 0.1221(2) 0.48541(17) 0.12520(16)
N2 N 0.1491(2) 0.49319(16) 0.23408(16)
N3 N 0.35653(17) 0.41103(15) 0.09576(13)
N4 N 0.45076(18) 0.36208(14) 0.02526(13)
N5 N 0.7464(2) 0.21104(18) -0.18106(15)
C1 C 0.2172(2) 0.44394(19) 0.05417(19)
C2 C 0.2807(2) 0.46700(19) 0.27063(18)
C3 C 0.4069(2) 0.4298(2) 0.20616(16)
H1 H 0.4851 0.4894 0.2105
H2 H 0.4507 0.3580 0.2354
C4 C 0.5855(2) 0.33639(17) 0.06009(16)
H3 H 0.6165 0.3520 0.1305
C5 C 0.6912(2) 0.28297(17) -0.00875(17)
C6 C 0.6538(2) 0.2603(2) -0.11487(19)
H4 H 0.5572 0.2808 -0.1421
C7 C 0.8847(3) 0.1843(2) -0.1394(2)
H5 H 0.9517 0.1499 -0.1835
C8 C 0.9341(2) 0.2044(2) -0.0361(2)
H6 H 1.0323 0.1850 -0.0114
C9 C 0.8352(2) 0.2539(2) 0.03078(18)
H7 H 0.8654 0.2675 0.1017
C10 C 0.3185(3) 0.4705(3) 0.38796(18)
H8 H 0.2332 0.4998 0.4227
H9 H 0.4038 0.5210 0.4032
H10 H 0.3426 0.3930 0.4132
H14 H 0.027(3) 0.510(2) 0.0993(17)
O2 O 0.3140(2) 0.3363(2) -0.21377(18)
C11 C 0.2083(3) 0.3635(2) -0.2947(2)
H11 H 0.1118 0.3322 -0.2790
H12 H 0.2382 0.3303 -0.3598
H13 H 0.2008 0.4470 -0.3018
H15 H 0.282(4) 0.354(4) -0.152(3)
loop_
_geom_bond_atom_site_label_1
_geom_bond_atom_site_label_2
_geom_bond_site_symmetry_1
_geom_bond_site_symmetry_2
O1 C1 1_555 1_555
O2 C11 1_555 1_555
N1 N2 1_555 1_555
N2 C2 1_555 1_555
N3 N4 1_555 1_555
N4 C4 1_555 1_555
N5 C6 1_555 1_555
C1 N1 1_555 1_555
C2 C3 1_555 1_555
C3 N3 1_555 1_555
H1 C3 1_555 1_555
H2 C3 1_555 1_555
C4 H3 1_555 1_555
C5 C4 1_555 1_555
C6 C5 1_555 1_555
H4 C6 1_555 1_555
C7 N5 1_555 1_555
H5 C7 1_555 1_555
C8 C7 1_555 1_555
H6 C8 1_555 1_555
C9 C5 1_555 1_555
H7 C9 1_555 1_555
C10 C2 1_555 1_555
H8 C10 1_555 1_555
H9 C10 1_555 1_555
H10 C10 1_555 1_555
C11 H11 1_555 1_555
H12 C11 1_555 1_555
H13 C11 1_555 1_555
H14 N1 1_555 1_555
H15 O2 1_555 1_555
N3 C1 1_555 1_555
C8 C9 1_555 1_555

#END
