
#######################################################################
#
#                 Cambridge Crystallographic Data Centre
#                                CCDC 
#
#######################################################################
#
# If this CIF has been generated from an entry in the Cambridge 
# Structural Database, then it will include bibliographic, chemical, 
# crystal, experimental, refinement or atomic coordinate data resulting 
# from the CCDC's data processing and validation procedures.
#
#######################################################################

data_TECQIE
_chemical_formula_moiety         'C33 H40 P1 1+,C2 F6 N1 O4 S2 1-'
_chemical_name_systematic        
'tributyl[(perylen-3-yl)methyl]phosphanium bis[(trifluoromethyl)sulfonyl]azanide'
_symmetry_cell_setting           monoclinic
_symmetry_space_group_name_H-M   'P 21/n'
_symmetry_Int_Tables_number      14
_space_group_name_Hall           '-P 2yn'
loop_
_symmetry_equiv_pos_site_id
_symmetry_equiv_pos_as_xyz
1 x,y,z
2 1/2-x,1/2+y,1/2-z
3 -x,-y,-z
4 1/2+x,1/2-y,1/2+z
_cell_length_a                   9.7167(3)
_cell_length_b                   17.3160(6)
_cell_length_c                   21.7331(7)
_cell_angle_alpha                90
_cell_angle_beta                 102.549(3)
_cell_angle_gamma                90
_cell_volume                     3569.33
_cell_formula_units_Z            4
loop_
_atom_site_label
_atom_site_type_symbol
_atom_site_fract_x
_atom_site_fract_y
_atom_site_fract_z
C1 C 0.4658(5) 0.5618(4) 0.3234(3)
C2 C 0.5399(5) 0.4916(3) 0.3175(3)
H1 H 0.5932 0.4891 0.2869
C3 C 0.5365(7) 0.4287(4) 0.3540(3)
H2 H 0.5879 0.3850 0.3483
C4 C 0.4523(5) 0.4291(3) 0.4024(3)
C5 C 0.4407(6) 0.3639(4) 0.4391(3)
C6 C 0.5105(8) 0.2931(4) 0.4314(4)
H3 H 0.5636 0.2893 0.4007
C7 C 0.4998(9) 0.2297(5) 0.4695(4)
H4 H 0.5459 0.1840 0.4639
C8 C 0.4212(9) 0.2339(5) 0.5157(5)
H5 H 0.4133 0.1907 0.5401
C9 C 0.3567(8) 0.2996(5) 0.5253(4)
C10 C 0.2758(8) 0.3064(5) 0.5724(3)
H6 H 0.2709 0.2648 0.5988
C11 C 0.2031(11) 0.3751(7) 0.5796(4)
H7 H 0.1482 0.3781 0.6096
C12 C 0.2134(8) 0.4352(6) 0.5432(3)
H8 H 0.1662 0.4804 0.5492
C13 C 0.2905(5) 0.4343(4) 0.4970(2)
C14 C 0.3658(6) 0.3681(3) 0.4846(2)
C15 C 0.3010(6) 0.5066(3) 0.4556(3)
C16 C 0.2366(8) 0.5747(4) 0.4647(3)
H9 H 0.1835 0.5796 0.4953
C17 C 0.2538(8) 0.6345(4) 0.4273(3)
H10 H 0.2104 0.6805 0.4344
C18 C 0.3258(6) 0.6358(3) 0.3811(3)
H11 H 0.3316 0.6803 0.3578
C19 C 0.3924(6) 0.5664(3) 0.3694(2)
C20 C 0.3860(5) 0.4975(3) 0.4081(2)
C21 C 0.4730(5) 0.6286(3) 0.2771(2)
H12 H 0.5626 0.6262 0.2643
H13 H 0.4694 0.6773 0.2987
C22 C 0.3642(6) 0.6960(3) 0.1510(2)
H14 H 0.2818 0.6990 0.1167
H15 H 0.3759 0.7461 0.1715
C23 C 0.4897(7) 0.6807(4) 0.1240(4)
H16 H 0.5733 0.6838 0.1577
H17 H 0.4834 0.6282 0.1080
C24 C 0.5081(10) 0.7333(5) 0.0728(4)
H18 H 0.4492 0.7759 0.0624
C25 C 0.6116(12) 0.7193(7) 0.0410(6)
H19 H 0.5699 0.7087 -0.0025
H20 H 0.6661 0.6755 0.0592
H21 H 0.6717 0.7637 0.0436
C26 C 0.3240(5) 0.5304(3) 0.1747(3)
H22 H 0.4166 0.5176 0.1678
H23 H 0.3031 0.4945 0.2057
C27 C 0.2160(6) 0.5188(3) 0.1130(3)
H24 H 0.1227 0.5266 0.1211
H25 H 0.2308 0.5585 0.0836
C28 C 0.2182(11) 0.4429(5) 0.0821(4)
H26 H 0.1271 0.4369 0.0536
H27 H 0.2872 0.4467 0.0560
C29 C 0.2439(15) 0.3781(6) 0.1133(6)
H28 H 0.1573 0.3502 0.1105
H29 H 0.2851 0.3890 0.1567
H30 H 0.3080 0.3475 0.0956
C30 C 0.1607(5) 0.6482(3) 0.2248(3)
H31 H 0.0870 0.6314 0.1897
H32 H 0.1511 0.6184 0.2614
C31 C 0.1368(6) 0.7330(3) 0.2376(3)
H33 H 0.1121 0.7607 0.1979
H34 H 0.2234 0.7551 0.2620
C32 C 0.0180(17) 0.7430(10) 0.2740(8)
H35 H 0.0511 0.7222 0.3160
H36 H 0.0023 0.7978 0.2784
C33 C -0.1180(16) 0.7069(10) 0.2465(9)
H37 H -0.1503 0.7245 0.2039
H38 H -0.1856 0.7207 0.2709
H39 H -0.1071 0.6518 0.2467
P1 P 0.33037(12) 0.62606(7) 0.20686(5)
C36 C -0.3126(7) 0.4510(4) 0.0888(3)
C37 C 0.0332(10) 0.4366(4) 0.3002(4)
F1 F -0.4160(5) 0.4960(3) 0.0602(2)
F2 F -0.3668(6) 0.3883(3) 0.1092(3)
F3 F -0.2419(7) 0.4300(3) 0.0476(2)
F4 F 0.0603(7) 0.3961(3) 0.3515(2)
F5 F -0.0013(19) 0.5076(5) 0.3081(4)
F6 F 0.1585(6) 0.4473(5) 0.2841(3)
N1 N -0.0850(4) 0.4452(3) 0.1806(2)
O1 O -0.1450(4) 0.5642(3) 0.1230(2)
O2 O -0.2993(4) 0.5235(3) 0.19245(19)
O3 O -0.0104(7) 0.3206(3) 0.2284(3)
O4 O -0.2112(5) 0.3799(3) 0.2576(3)
S1 S -0.20388(12) 0.50385(8) 0.15366(6)
S2 S -0.08382(15) 0.38794(8) 0.23701(7)
H40? H 0.1661 0.7642 0.2056
H41? H 0.1952 0.7471 0.2781
C34? C -0.0186(18) 0.7513(11) 0.2377(9)
H42? H -0.0319 0.8067 0.2395
H43? H -0.0796 0.7319 0.1994
C35? C -0.0540(19) 0.7134(11) 0.2941(10)
H44? H -0.0767 0.6601 0.2848
H45? H -0.1335 0.7390 0.3046
H46? H 0.0254 0.7168 0.3290
F7? F -0.070(6) 0.4904(16) 0.3177(14)
loop_
_geom_bond_atom_site_label_1
_geom_bond_atom_site_label_2
_geom_bond_site_symmetry_1
_geom_bond_site_symmetry_2
C1 C2 1_555 1_555
C2 H1 1_555 1_555
C3 C2 1_555 1_555
H2 C3 1_555 1_555
C4 C3 1_555 1_555
C5 C4 1_555 1_555
C6 C5 1_555 1_555
H3 C6 1_555 1_555
C7 C6 1_555 1_555
H4 C7 1_555 1_555
C8 C7 1_555 1_555
H5 C8 1_555 1_555
C9 C8 1_555 1_555
C10 C9 1_555 1_555
H6 C10 1_555 1_555
C11 C10 1_555 1_555
H7 C11 1_555 1_555
C12 C11 1_555 1_555
H8 C12 1_555 1_555
C13 C12 1_555 1_555
C14 C5 1_555 1_555
C15 C13 1_555 1_555
C16 C15 1_555 1_555
H9 C16 1_555 1_555
C17 C16 1_555 1_555
H10 C17 1_555 1_555
C18 C17 1_555 1_555
H11 C18 1_555 1_555
C19 C1 1_555 1_555
C20 C4 1_555 1_555
C21 C1 1_555 1_555
H12 C21 1_555 1_555
H13 C21 1_555 1_555
C22 H14 1_555 1_555
H15 C22 1_555 1_555
C23 C22 1_555 1_555
H16 C23 1_555 1_555
H17 C23 1_555 1_555
C24 C23 1_555 1_555
H18 C24 1_555 1_555
C25 C24 1_555 1_555
H19 C25 1_555 1_555
H20 C25 1_555 1_555
H21 C25 1_555 1_555
C26 H22 1_555 1_555
H23 C26 1_555 1_555
C27 C26 1_555 1_555
H24 C27 1_555 1_555
H25 C27 1_555 1_555
C28 C27 1_555 1_555
H26 C28 1_555 1_555
H27 C28 1_555 1_555
C29 C28 1_555 1_555
H28 C29 1_555 1_555
H29 C29 1_555 1_555
H30 C29 1_555 1_555
C30 H31 1_555 1_555
H32 C30 1_555 1_555
C31 C30 1_555 1_555
H33 C31 1_555 1_555
H34 C31 1_555 1_555
C32 C31 1_555 1_555
H35 C32 1_555 1_555
H36 C32 1_555 1_555
C33 C32 1_555 1_555
H37 C33 1_555 1_555
H38 C33 1_555 1_555
H39 C33 1_555 1_555
P1 C21 1_555 1_555
C36 F1 1_555 1_555
C37 F4 1_555 1_555
F2 C36 1_555 1_555
F3 C36 1_555 1_555
F5 C37 1_555 1_555
F6 C37 1_555 1_555
N1 S1 1_555 1_555
O1 S1 1_555 1_555
O2 S1 1_555 1_555
O3 S2 1_555 1_555
O4 S2 1_555 1_555
S1 C36 1_555 1_555
S2 C37 1_555 1_555
C9 C14 1_555 1_555
C13 C14 1_555 1_555
C15 C20 1_555 1_555
C18 C19 1_555 1_555
C19 C20 1_555 1_555
C22 P1 1_555 1_555
C26 P1 1_555 1_555
C30 P1 1_555 1_555
N1 S2 1_555 1_555

#END
