
#######################################################################
#
#                 Cambridge Crystallographic Data Centre
#                                CCDC 
#
#######################################################################
#
# If this CIF has been generated from an entry in the Cambridge 
# Structural Database, then it will include bibliographic, chemical, 
# crystal, experimental, refinement or atomic coordinate data resulting 
# from the CCDC's data processing and validation procedures.
#
#######################################################################

data_TECSUQ01
_chemical_formula_moiety         'C18 H16 N4 O3'
_chemical_name_systematic        
1,5-dimethyl-4-((3-nitrobenzylidene)amino)-2-phenyl-1,2-dihydro-pyrazol-3-one
_symmetry_cell_setting           monoclinic
_symmetry_space_group_name_H-M   'P 21/c'
_symmetry_Int_Tables_number      14
_space_group_name_Hall           '-P 2ybc'
loop_
_symmetry_equiv_pos_site_id
_symmetry_equiv_pos_as_xyz
1 x,y,z
2 -x,1/2+y,1/2-z
3 -x,-y,-z
4 x,1/2-y,1/2+z
_cell_length_a                   7.632(1)
_cell_length_b                   7.816(1)
_cell_length_c                   28.082(5)
_cell_angle_alpha                90
_cell_angle_beta                 96.18(1)
_cell_angle_gamma                90
_cell_volume                     1665.4
_exptl_crystal_colour            yellow
_exptl_crystal_description       rod
_cell_formula_units_Z            4
loop_
_atom_site_label
_atom_site_type_symbol
_atom_site_fract_x
_atom_site_fract_y
_atom_site_fract_z
O1 O 0.4702(2) 0.48859(19) 0.37509(5)
O2 O 0.9152(3) 0.9102(2) 0.56797(7)
O3 O 1.0707(3) 0.8109(3) 0.62976(7)
N1 N 0.3735(2) 0.2241(2) 0.34427(6)
N2 N 0.4116(2) 0.0519(2) 0.35587(6)
N3 N 0.6432(2) 0.2502(2) 0.45765(6)
N4 N 0.9774(3) 0.7924(3) 0.59186(8)
C1 C 0.2115(3) 0.4091(3) 0.28679(8)
H1 H 0.1684 0.4672 0.3120
C2 C 0.1633(3) 0.4592(3) 0.23998(9)
H2 H 0.0889 0.5526 0.2338
C3 C 0.2243(4) 0.3724(4) 0.20264(9)
H3 H 0.1908 0.4064 0.1712
C4 C 0.3351(3) 0.2349(4) 0.21180(8)
H4 H 0.3753 0.1752 0.1865
C5 C 0.3871(3) 0.1851(3) 0.25824(8)
H5 H 0.4642 0.0936 0.2644
C6 C 0.3237(3) 0.2724(3) 0.29568(7)
C7 C 0.4627(3) 0.3314(3) 0.37890(7)
C8 C 0.5381(3) 0.2151(3) 0.41498(7)
C9 C 0.5026(3) 0.0519(3) 0.40029(7)
C10 C 0.6697(3) 0.4024(3) 0.47309(7)
H6 H 0.6140 0.4943 0.4567
C11 C 0.7889(3) 0.4313(3) 0.51698(7)
C12 C 0.8770(3) 0.2960(3) 0.54092(7)
H7 H 0.8577 0.1854 0.5293
C13 C 0.9920(3) 0.3214(3) 0.58146(8)
H8 H 1.0476 0.2282 0.5972
C14 C 1.0255(3) 0.4846(3) 0.59896(8)
H9 H 1.1035 0.5037 0.6262
C15 C 0.9393(3) 0.6180(3) 0.57464(7)
C16 C 0.8210(3) 0.5957(3) 0.53437(7)
H10 H 0.7640 0.6891 0.5192
C17 C 0.2828(3) -0.0774(3) 0.33857(8)
H11 H 0.3188 -0.1867 0.3518
H12 H 0.2749 -0.0830 0.3043
H13 H 0.1698 -0.0478 0.3482
C18 C 0.5488(3) -0.1092(3) 0.42659(8)
H14 H 0.4543 -0.1413 0.4447
H15 H 0.6544 -0.0924 0.4479
H16 H 0.5678 -0.1982 0.4042
loop_
_geom_bond_atom_site_label_1
_geom_bond_atom_site_label_2
_geom_bond_site_symmetry_1
_geom_bond_site_symmetry_2
O1 C7 1_555 1_555
O2 N4 1_555 1_555
O3 N4 1_555 1_555
N1 N2 1_555 1_555
N2 C9 1_555 1_555
N3 C8 1_555 1_555
N4 C15 1_555 1_555
C1 H1 1_555 1_555
C2 C1 1_555 1_555
H2 C2 1_555 1_555
C3 C2 1_555 1_555
H3 C3 1_555 1_555
C4 C3 1_555 1_555
H4 C4 1_555 1_555
C5 C4 1_555 1_555
H5 C5 1_555 1_555
C6 N1 1_555 1_555
C7 N1 1_555 1_555
C8 C7 1_555 1_555
C9 C8 1_555 1_555
C10 N3 1_555 1_555
H6 C10 1_555 1_555
C11 C10 1_555 1_555
C12 C11 1_555 1_555
H7 C12 1_555 1_555
C13 C12 1_555 1_555
H8 C13 1_555 1_555
C14 C13 1_555 1_555
H9 C14 1_555 1_555
C15 C14 1_555 1_555
C16 C11 1_555 1_555
H10 C16 1_555 1_555
C17 N2 1_555 1_555
H11 C17 1_555 1_555
H12 C17 1_555 1_555
H13 C17 1_555 1_555
C18 C9 1_555 1_555
H14 C18 1_555 1_555
H15 C18 1_555 1_555
H16 C18 1_555 1_555
C1 C6 1_555 1_555
C5 C6 1_555 1_555
C15 C16 1_555 1_555

#END
