
#######################################################################
#
#                 Cambridge Crystallographic Data Centre
#                                CCDC 
#
#######################################################################
#
# If this CIF has been generated from an entry in the Cambridge 
# Structural Database, then it will include bibliographic, chemical, 
# crystal, experimental, refinement or atomic coordinate data resulting 
# from the CCDC's data processing and validation procedures.
#
#######################################################################

data_TECTIG
_chemical_formula_moiety         'C37 H43 N5 O1 S1 Si1,0.5(C1 H2 Cl2)'
_chemical_name_systematic        
"1-(3,7-bis(diethylamino)-5,5-dimethyl-3'-oxo-5H-spiro[dibenzo[b,e]siline-10,1'-isoindol]-2'(3'H)-yl)-3-phenylthiourea dichloromethane solvate"
_symmetry_cell_setting           orthorhombic
_symmetry_space_group_name_H-M   'P c c n'
_symmetry_Int_Tables_number      56
_space_group_name_Hall           '-P 2ab 2ac'
loop_
_symmetry_equiv_pos_site_id
_symmetry_equiv_pos_as_xyz
1 x,y,z
2 1/2-x,1/2-y,z
3 -x,1/2+y,1/2-z
4 1/2+x,-y,1/2-z
5 -x,-y,-z
6 1/2+x,1/2+y,-z
7 x,1/2-y,1/2+z
8 1/2-x,y,1/2+z
_cell_length_a                   30.130(6)
_cell_length_b                   13.543(3)
_cell_length_c                   19.002(4)
_cell_angle_alpha                90
_cell_angle_beta                 90
_cell_angle_gamma                90
_cell_volume                     7753.78
_exptl_crystal_colour            green
_exptl_crystal_description       block
_cell_formula_units_Z            8
loop_
_atom_site_label
_atom_site_type_symbol
_atom_site_fract_x
_atom_site_fract_y
_atom_site_fract_z
C1 C 0.70395(16) 0.3961(5) 0.1288(3)
H1 H 0.6999 0.4659 0.1166
H2 H 0.7032 0.3561 0.0859
H3 H 0.7326 0.3875 0.1524
C2 C 0.66995(19) 0.2283(4) 0.2190(3)
H4 H 0.6978 0.2269 0.2455
H5 H 0.6723 0.1844 0.1782
H6 H 0.6456 0.2060 0.2493
C3 C 0.57715(11) 0.5084(2) 0.22335(17)
C4 C 0.53359(11) 0.5315(3) 0.25973(17)
C5 C 0.50770(13) 0.4683(3) 0.29948(19)
H7 H 0.5164 0.4016 0.3066
C6 C 0.46898(14) 0.5043(3) 0.3286(2)
H8 H 0.4507 0.4619 0.3560
C7 C 0.45643(15) 0.6024(4) 0.3182(2)
H9 H 0.4298 0.6261 0.3390
C8 C 0.48166(14) 0.6650(3) 0.2786(2)
H10 H 0.4729 0.7316 0.2714
C9 C 0.52077(12) 0.6283(3) 0.24879(18)
C10 C 0.55383(13) 0.6788(3) 0.20476(19)
C11 C 0.61473(12) 0.4969(3) 0.27674(19)
C12 C 0.61317(14) 0.5542(3) 0.3386(2)
H11 H 0.5878 0.5942 0.3467
C13 C 0.64646(16) 0.5549(3) 0.3874(3)
H12 H 0.6436 0.5950 0.4282
C14 C 0.68470(15) 0.4974(4) 0.3783(3)
C15 C 0.68645(13) 0.4403(3) 0.3162(2)
H13 H 0.7119 0.4006 0.3082
C16 C 0.65265(11) 0.4393(3) 0.26599(19)
C17 C 0.7137(2) 0.5515(6) 0.4943(4)
H14 H 0.6995 0.6160 0.4849
H15 H 0.7439 0.5644 0.5129
C18 C 0.6845(3) 0.4917(9) 0.5548(4)
H16 H 0.6530 0.4943 0.5426
H17 H 0.6891 0.5228 0.6008
H18 H 0.6943 0.4227 0.5568
C19 C 0.7549(4) 0.4167(11) 0.4239(5)
H19 H 0.7657 0.3991 0.4714
H20 H 0.7444 0.3562 0.3998
C20 C 0.7862(4) 0.4622(12) 0.3866(7)
H21 H 0.7786 0.4595 0.3365
H22 H 0.8148 0.4293 0.3943
H23 H 0.7883 0.5313 0.4016
C21 C 0.57058(11) 0.4277(2) 0.16732(17)
C22 C 0.52963(12) 0.4240(3) 0.1328(2)
H24 H 0.5069 0.4680 0.1474
C23 C 0.52078(13) 0.3599(3) 0.0789(2)
H25 H 0.4922 0.3599 0.0578
C24 C 0.55337(13) 0.2940(3) 0.05432(18)
C25 C 0.59466(12) 0.2984(3) 0.08882(19)
H26 H 0.6176 0.2555 0.0733
C26 C 0.60371(11) 0.3622(3) 0.14437(17)
C27 C 0.50183(18) 0.2259(4) -0.0346(3)
H27 H 0.5059 0.2035 -0.0837
H28 H 0.4892 0.2934 -0.0360
C28 C 0.4694(2) 0.1579(6) 0.0019(4)
H29 H 0.4803 0.0898 -0.0007
H30 H 0.4404 0.1623 -0.0212
H31 H 0.4664 0.1775 0.0514
C29 C 0.57906(18) 0.1642(4) -0.0275(3)
H32 H 0.5646 0.1062 -0.0494
H33 H 0.5976 0.1402 0.0120
C30 C 0.6080(2) 0.2126(5) -0.0801(4)
H34 H 0.5899 0.2378 -0.1190
H35 H 0.6295 0.1645 -0.0984
H36 H 0.6240 0.2675 -0.0580
C31 C 0.60169(13) 0.5883(3) -0.0298(2)
C32 C 0.61206(17) 0.6683(4) -0.0712(2)
H37 H 0.6205 0.7292 -0.0503
C33 C 0.6102(2) 0.6593(5) -0.1432(3)
H38 H 0.6181 0.7139 -0.1720
C34 C 0.59704(19) 0.5733(5) -0.1739(3)
H39 H 0.5954 0.5681 -0.2236
C35 C 0.58625(17) 0.4943(4) -0.1321(3)
H40 H 0.5773 0.4339 -0.1532
C36 C 0.58831(15) 0.5018(4) -0.0601(2)
H41 H 0.5805 0.4470 -0.0315
C37 C 0.63248(14) 0.6362(3) 0.0868(2)
N1 N 0.71750(17) 0.4961(4) 0.4276(3)
N2 N 0.54504(13) 0.2294(3) 0.00015(19)
N3 N 0.58334(10) 0.6060(2) 0.18480(15)
N4 N 0.62450(10) 0.6305(2) 0.15721(17)
N5 N 0.60116(11) 0.5951(3) 0.04574(17)
O1 O 0.55604(11) 0.7643(2) 0.18679(16)
S1 S 0.68016(5) 0.68567(13) 0.06043(8)
Si1 Si 0.65867(3) 0.35635(8) 0.18864(6)
C38 C 0.7500 0.7500 0.7215(7)
Cl1 Cl 0.7212(4) 0.8430(10) 0.7567(7)
Cl2 Cl 0.7338(9) 0.6288(8) 0.7252(6)
Cl3? Cl 0.6969(3) 0.6890(12) 0.7367(7)
Cl4? Cl 0.7094(3) 0.7974(8) 0.7787(5)
loop_
_geom_bond_atom_site_label_1
_geom_bond_atom_site_label_2
_geom_bond_site_symmetry_1
_geom_bond_site_symmetry_2
C1 H1 1_555 1_555
H2 C1 1_555 1_555
H3 C1 1_555 1_555
C2 H4 1_555 1_555
H5 C2 1_555 1_555
H6 C2 1_555 1_555
C3 C4 1_555 1_555
C4 C5 1_555 1_555
C5 H7 1_555 1_555
C6 C5 1_555 1_555
H8 C6 1_555 1_555
C7 C6 1_555 1_555
H9 C7 1_555 1_555
C8 C7 1_555 1_555
H10 C8 1_555 1_555
C9 C4 1_555 1_555
C10 C9 1_555 1_555
C11 C3 1_555 1_555
C12 C11 1_555 1_555
H11 C12 1_555 1_555
C13 C12 1_555 1_555
H12 C13 1_555 1_555
C14 C13 1_555 1_555
C15 C14 1_555 1_555
H13 C15 1_555 1_555
C16 C11 1_555 1_555
C17 H14 1_555 1_555
H15 C17 1_555 1_555
C18 C17 1_555 1_555
H16 C18 1_555 1_555
H17 C18 1_555 1_555
H18 C18 1_555 1_555
C19 H19 1_555 1_555
H20 C19 1_555 1_555
C20 C19 1_555 1_555
H21 C20 1_555 1_555
H22 C20 1_555 1_555
H23 C20 1_555 1_555
C21 C3 1_555 1_555
C22 C21 1_555 1_555
H24 C22 1_555 1_555
C23 C22 1_555 1_555
H25 C23 1_555 1_555
C24 C23 1_555 1_555
C25 C24 1_555 1_555
H26 C25 1_555 1_555
C26 C21 1_555 1_555
C27 H27 1_555 1_555
H28 C27 1_555 1_555
C28 C27 1_555 1_555
H29 C28 1_555 1_555
H30 C28 1_555 1_555
H31 C28 1_555 1_555
C29 H32 1_555 1_555
H33 C29 1_555 1_555
C30 C29 1_555 1_555
H34 C30 1_555 1_555
H35 C30 1_555 1_555
H36 C30 1_555 1_555
C31 C32 1_555 1_555
C32 H37 1_555 1_555
C33 C32 1_555 1_555
H38 C33 1_555 1_555
C34 C33 1_555 1_555
H39 C34 1_555 1_555
C35 C34 1_555 1_555
H40 C35 1_555 1_555
C36 C31 1_555 1_555
H41 C36 1_555 1_555
C37 N4 1_555 1_555
C38 Cl1 1_555 1_555
Cl2 C38 1_555 1_555
N1 C14 1_555 1_555
N2 C24 1_555 1_555
N3 C3 1_555 1_555
N4 N3 1_555 1_555
N5 C31 1_555 1_555
O1 C10 1_555 1_555
S1 C37 1_555 1_555
Si1 C1 1_555 1_555
C2 Si1 1_555 1_555
C8 C9 1_555 1_555
C10 N3 1_555 1_555
C15 C16 1_555 1_555
C16 Si1 1_555 1_555
C17 N1 1_555 1_555
C19 N1 1_555 1_555
C25 C26 1_555 1_555
C26 Si1 1_555 1_555
C27 N2 1_555 1_555
C29 N2 1_555 1_555
C35 C36 1_555 1_555
C37 N5 1_555 1_555

#END
