
#######################################################################
#
#                 Cambridge Crystallographic Data Centre
#                                CCDC 
#
#######################################################################
#
# If this CIF has been generated from an entry in the Cambridge 
# Structural Database, then it will include bibliographic, chemical, 
# crystal, experimental, refinement or atomic coordinate data resulting 
# from the CCDC's data processing and validation procedures.
#
#######################################################################

data_TECVUS
_chemical_formula_moiety         'C22 H25 Br1 O2'
_chemical_name_systematic        
'5-t-Butyl-13-bromo[2.2]metacyclophane-8-carboxylic acid methyl ester'
_symmetry_cell_setting           monoclinic
_symmetry_space_group_name_H-M   'P 21/n'
_symmetry_Int_Tables_number      14
_space_group_name_Hall           '-P 2yn'
loop_
_symmetry_equiv_pos_site_id
_symmetry_equiv_pos_as_xyz
1 x,y,z
2 1/2-x,1/2+y,1/2-z
3 -x,-y,-z
4 1/2+x,1/2-y,1/2+z
_cell_length_a                   6.753(1)
_cell_length_b                   14.944(1)
_cell_length_c                   18.797(3)
_cell_angle_alpha                90
_cell_angle_beta                 90.06(1)
_cell_angle_gamma                90
_cell_volume                     1896.93
_exptl_crystal_colour            colorless
_cell_formula_units_Z            4
loop_
_atom_site_label
_atom_site_type_symbol
_atom_site_fract_x
_atom_site_fract_y
_atom_site_fract_z
Br1 Br 0.76431(5) 0.57785(2) 0.09139(2)
O1 O 0.18310(35) 0.30837(14) 0.15991(11)
O2 O 0.24900(31) 0.45331(13) 0.16980(11)
C1 C 0.70522(43) 0.30630(19) 0.27799(17)
H1 H 0.81108(43) 0.28262(19) 0.24962(17)
H2 H 0.74187(43) 0.30006(19) 0.32710(17)
C2 C 0.51195(43) 0.25142(19) 0.26341(16)
H3 H 0.53097(43) 0.19064(19) 0.27847(16)
H4 H 0.48320(43) 0.25122(19) 0.21338(16)
C3 C 0.33907(41) 0.29153(19) 0.30395(15)
C4 C 0.31572(43) 0.27036(20) 0.37503(15)
H5 H 0.38154(43) 0.21835(20) 0.39349(15)
C5 C 0.19941(44) 0.32170(20) 0.42114(15)
C6 C 0.12674(44) 0.40213(19) 0.39341(16)
H6 H 0.05795(44) 0.44197(19) 0.42491(16)
C7 C 0.14966(39) 0.42777(19) 0.32304(15)
C8 C 0.23610(40) 0.36557(18) 0.27591(15)
C9 C 0.12310(43) 0.52558(19) 0.30583(16)
H7 H 0.01246(43) 0.54938(19) 0.33168(16)
H8 H 0.09732(43) 0.53228(19) 0.25588(16)
C10 C 0.31706(43) 0.57729(20) 0.32587(17)
H9 H 0.33929(43) 0.57178(20) 0.37613(17)
H10 H 0.30191(43) 0.63968(20) 0.31497(17)
C11 C 0.49342(43) 0.54039(19) 0.28643(16)
C12 C 0.55634(44) 0.57688(21) 0.22236(16)
H11 H 0.51231(44) 0.63516(21) 0.20781(16)
C13 C 0.68335(44) 0.52745(20) 0.17965(16)
C14 C 0.73810(42) 0.44110(19) 0.19629(16)
H12 H 0.81567(42) 0.40633(19) 0.16365(16)
C15 C 0.68035(42) 0.40463(18) 0.26091(16)
C16 C 0.57131(41) 0.45861(19) 0.30736(16)
H13 H 0.54950(41) 0.43790(19) 0.35506(16)
C17 C 0.16482(52) 0.29833(23) 0.49856(17)
C18 C 0.28445(68) 0.36256(32) 0.54548(20)
H14 H 0.24572(68) 0.42299(32) 0.53515(20)
H15 H 0.25959(68) 0.34984(32) 0.59473(20)
H16 H 0.42303(68) 0.35528(32) 0.53572(20)
C19 C -0.05519(55) 0.30721(26) 0.51660(19)
H17 H -0.10023(55) 0.36660(26) 0.50576(19)
H18 H -0.12955(55) 0.26464(26) 0.48920(19)
H19 H -0.07378(55) 0.29552(26) 0.56637(19)
C20 C 0.22713(69) 0.20259(25) 0.51597(21)
H20 H 0.15406(69) 0.16077(25) 0.48741(21)
H21 H 0.36605(69) 0.19632(25) 0.50639(21)
H22 H 0.20260(69) 0.19087(25) 0.56540(21)
C21 C 0.22166(43) 0.37195(20) 0.19683(16)
C22 C 0.24874(51) 0.45876(24) 0.09337(16)
H23 H 0.27061(51) 0.51962(24) 0.07905(16)
H24 H 0.35206(51) 0.42155(24) 0.07455(16)
H25 H 0.12307(51) 0.43875(24) 0.07552(16)
loop_
_geom_bond_atom_site_label_1
_geom_bond_atom_site_label_2
_geom_bond_site_symmetry_1
_geom_bond_site_symmetry_2
Br1 C13 1_555 1_555
O1 C21 1_555 1_555
O2 C21 1_555 1_555
C1 H1 1_555 1_555
H2 C1 1_555 1_555
C2 C1 1_555 1_555
H3 C2 1_555 1_555
H4 C2 1_555 1_555
C3 C2 1_555 1_555
C4 C3 1_555 1_555
H5 C4 1_555 1_555
C5 C4 1_555 1_555
C6 C5 1_555 1_555
H6 C6 1_555 1_555
C7 C6 1_555 1_555
C8 C3 1_555 1_555
C9 C7 1_555 1_555
H7 C9 1_555 1_555
H8 C9 1_555 1_555
C10 C9 1_555 1_555
H9 C10 1_555 1_555
H10 C10 1_555 1_555
C11 C10 1_555 1_555
C12 C11 1_555 1_555
H11 C12 1_555 1_555
C13 C12 1_555 1_555
C14 C13 1_555 1_555
H12 C14 1_555 1_555
C15 C1 1_555 1_555
C16 C11 1_555 1_555
H13 C16 1_555 1_555
C17 C5 1_555 1_555
C18 C17 1_555 1_555
H14 C18 1_555 1_555
H15 C18 1_555 1_555
H16 C18 1_555 1_555
C19 C17 1_555 1_555
H17 C19 1_555 1_555
H18 C19 1_555 1_555
H19 C19 1_555 1_555
C20 C17 1_555 1_555
H20 C20 1_555 1_555
H21 C20 1_555 1_555
H22 C20 1_555 1_555
C21 C8 1_555 1_555
C22 O2 1_555 1_555
H23 C22 1_555 1_555
H24 C22 1_555 1_555
H25 C22 1_555 1_555
C7 C8 1_555 1_555
C14 C15 1_555 1_555
C15 C16 1_555 1_555

#END
