
#######################################################################
#
#                 Cambridge Crystallographic Data Centre
#                                CCDC 
#
#######################################################################
#
# If this CIF has been generated from an entry in the Cambridge 
# Structural Database, then it will include bibliographic, chemical, 
# crystal, experimental, refinement or atomic coordinate data resulting 
# from the CCDC's data processing and validation procedures.
#
#######################################################################

data_TECWIJ
_chemical_formula_moiety         'C36 H48 N3 3+,3(I1 1-)'
_chemical_name_systematic        
"N,N',N''-((2,4,6-Triethylbenzene-1,3,5-triyl)tris(methylene))tris(N-methylanilinium) tris(iodide)"
_symmetry_cell_setting           triclinic
_symmetry_space_group_name_H-M   'P -1'
_symmetry_Int_Tables_number      2
_space_group_name_Hall           '-P 1'
loop_
_symmetry_equiv_pos_site_id
_symmetry_equiv_pos_as_xyz
1 x,y,z
2 -x,-y,-z
_cell_length_a                   10.014(7)
_cell_length_b                   10.358(8)
_cell_length_c                   18.774(12)
_cell_angle_alpha                86.51(3)
_cell_angle_beta                 88.14(3)
_cell_angle_gamma                81.26(3)
_cell_volume                     1920.62
_exptl_crystal_colour            yellow
_exptl_crystal_description       block
_cell_formula_units_Z            2
loop_
_atom_site_label
_atom_site_type_symbol
_atom_site_fract_x
_atom_site_fract_y
_atom_site_fract_z
I1 I 0.58124(6) 0.26697(7) 0.57716(3)
I2 I 0.03216(6) 0.52523(7) 0.67330(3)
I3 I 0.76302(8) 0.71324(9) 0.05464(3)
C1 C 0.5411(7) 0.6284(9) 0.6820(4)
C2 C 0.6369(7) 0.7149(9) 0.6659(4)
C3 C 0.7156(8) 0.7520(9) 0.7175(4)
C4 C 0.6110(8) 0.6136(9) 0.8061(4)
C5 C 0.7011(8) 0.7010(9) 0.7882(4)
C6 C 0.5302(7) 0.5759(9) 0.7527(4)
C7 C 0.8034(9) 0.8554(9) 0.7000(4)
H1 H 0.8369 0.8501 0.6499
H2 H 0.8824 0.8412 0.7314
C8 C 0.3324(9) 0.7302(11) 0.6219(4)
H3 H 0.3732 0.8067 0.6045
H4 H 0.2892 0.7461 0.6688
H5 H 0.2644 0.7146 0.5883
C9 C 0.5887(8) 0.5642(9) 0.8839(4)
H6 H 0.6728 0.5615 0.9106
H7 H 0.5658 0.4744 0.8850
C10 C 0.4395(8) 0.6130(11) 0.6281(4)
H8 H 0.3970 0.5346 0.6420
H9 H 0.4855 0.5994 0.5811
C11 C 0.4720(11) 0.6566(13) 0.9196(4)
H10 H 0.3853 0.6421 0.9013
H11 H 0.4844 0.7478 0.9086
H12 H 0.4728 0.6382 0.9714
C12 C 0.7218(11) 0.9901(11) 0.7105(5)
H13 H 0.6905 0.9955 0.7604
H14 H 0.6437 1.0036 0.6793
H15 H 0.7789 1.0576 0.6985
C13 C 0.7904(8) 0.7476(10) 0.8433(4)
H16 H 0.7541 0.7297 0.8920
H17 H 0.7893 0.8431 0.8358
C14 C 0.6576(8) 0.7656(9) 0.5889(4)
H18 H 0.6641 0.8602 0.5879
H19 H 0.5785 0.7548 0.5608
N1 N 0.4891(7) 0.3490(8) 0.7478(3)
H20 H 0.5173 0.3594 0.7004
N2 N 0.9375(7) 0.6763(8) 0.8364(3)
H21 H 0.9516 0.6541 0.7891
N3 N 0.7862(6) 0.6922(8) 0.5548(3)
H22 H 0.8501 0.6734 0.5903
C15 C 0.4326(8) 0.4842(9) 0.7704(4)
H23 H 0.3469 0.5156 0.7458
H24 H 0.4131 0.4808 0.8225
C16 C 0.8421(8) 0.7781(9) 0.4981(4)
C17 C 0.6118(8) 0.2901(9) 0.7879(4)
C18 C 1.0324(9) 0.7674(11) 0.8501(4)
C19 C 0.7342(9) 0.3112(9) 0.7617(5)
H25 H 0.7420 0.3574 0.7168
C20 C 0.5941(10) 0.2268(11) 0.8526(5)
H26 H 0.5061 0.2212 0.8719
C21 C 1.1254(10) 0.7885(14) 0.7984(5)
H27 H 1.1333 0.7421 0.7560
C22 C 1.0274(10) 0.8306(11) 0.9146(5)
H28 H 0.9617 0.8176 0.9510
C23 C 0.8469(10) 0.2655(11) 0.8003(6)
H29 H 0.9332 0.2835 0.7837
C24 C 0.7646(10) 0.8342(12) 0.4446(4)
H30 H 0.6717 0.8251 0.4432
C25 C 1.2100(14) 0.8816(15) 0.8098(7)
H31 H 1.2685 0.9062 0.7723
C26 C 0.9570(13) 0.9124(14) 0.3923(6)
H32 H 0.9971 0.9567 0.3533
C27 C 0.8235(12) 0.9047(14) 0.3923(5)
H33 H 0.7697 0.9493 0.3550
C28 C 0.9759(10) 0.7872(13) 0.4996(7)
H34 H 1.0302 0.7446 0.5371
C29 C 1.2093(10) 0.9356(12) 0.8722(6)
H35 H 1.2725 0.9922 0.8809
C30 C 1.1184(11) 0.9091(12) 0.9224(6)
H36 H 1.1188 0.9490 0.9666
C31 C 0.8335(14) 0.1923(16) 0.8643(6)
H37 H 0.9115 0.1571 0.8906
C32 C 0.7083(14) 0.1709(17) 0.8894(6)
H38 H 0.6997 0.1179 0.9319
C33 C 1.0312(12) 0.8597(13) 0.4453(8)
H39 H 1.1234 0.8712 0.4465
C34 C 0.7613(9) 0.5650(10) 0.5286(5)
H40 H 0.8445 0.5208 0.5065
H41 H 0.6899 0.5811 0.4933
H42 H 0.7332 0.5096 0.5688
C35 C 0.3826(10) 0.2607(11) 0.7486(4)
H43 H 0.3471 0.2488 0.7975
H44 H 0.4225 0.1756 0.7314
H45 H 0.3090 0.3002 0.7175
C36 C 0.9564(11) 0.5563(11) 0.8801(5)
H46 H 0.9284 0.5745 0.9295
H47 H 1.0520 0.5177 0.8785
H48 H 0.9017 0.4950 0.8621
loop_
_geom_bond_atom_site_label_1
_geom_bond_atom_site_label_2
_geom_bond_site_symmetry_1
_geom_bond_site_symmetry_2
C1 C2 1_555 1_555
C2 C3 1_555 1_555
C3 C5 1_555 1_555
C4 C5 1_555 1_555
C5 C13 1_555 1_555
C6 C1 1_555 1_555
C7 C3 1_555 1_555
H1 C7 1_555 1_555
H2 C7 1_555 1_555
C8 H3 1_555 1_555
H4 C8 1_555 1_555
H5 C8 1_555 1_555
C9 C4 1_555 1_555
H6 C9 1_555 1_555
H7 C9 1_555 1_555
C10 C1 1_555 1_555
H8 C10 1_555 1_555
H9 C10 1_555 1_555
C11 C9 1_555 1_555
H10 C11 1_555 1_555
H11 C11 1_555 1_555
H12 C11 1_555 1_555
C12 C7 1_555 1_555
H13 C12 1_555 1_555
H14 C12 1_555 1_555
H15 C12 1_555 1_555
C13 H16 1_555 1_555
H17 C13 1_555 1_555
C14 C2 1_555 1_555
H18 C14 1_555 1_555
H19 C14 1_555 1_555
N1 H20 1_555 1_555
N2 C13 1_555 1_555
H21 N2 1_555 1_555
N3 C14 1_555 1_555
H22 N3 1_555 1_555
C15 C6 1_555 1_555
H23 C15 1_555 1_555
H24 C15 1_555 1_555
C16 N3 1_555 1_555
C17 N1 1_555 1_555
C18 N2 1_555 1_555
C19 C17 1_555 1_555
H25 C19 1_555 1_555
C20 C17 1_555 1_555
H26 C20 1_555 1_555
C21 C18 1_555 1_555
H27 C21 1_555 1_555
C22 C18 1_555 1_555
H28 C22 1_555 1_555
C23 C19 1_555 1_555
H29 C23 1_555 1_555
C24 C16 1_555 1_555
H30 C24 1_555 1_555
C25 C21 1_555 1_555
H31 C25 1_555 1_555
C26 H32 1_555 1_555
C27 C24 1_555 1_555
H33 C27 1_555 1_555
C28 C16 1_555 1_555
H34 C28 1_555 1_555
C29 C25 1_555 1_555
H35 C29 1_555 1_555
C30 C22 1_555 1_555
H36 C30 1_555 1_555
C31 C23 1_555 1_555
H37 C31 1_555 1_555
C32 C20 1_555 1_555
H38 C32 1_555 1_555
C33 C26 1_555 1_555
H39 C33 1_555 1_555
C34 N3 1_555 1_555
H40 C34 1_555 1_555
H41 C34 1_555 1_555
H42 C34 1_555 1_555
C35 N1 1_555 1_555
H43 C35 1_555 1_555
H44 C35 1_555 1_555
H45 C35 1_555 1_555
C36 N2 1_555 1_555
H46 C36 1_555 1_555
H47 C36 1_555 1_555
H48 C36 1_555 1_555
C4 C6 1_555 1_555
C8 C10 1_555 1_555
N1 C15 1_555 1_555
C26 C27 1_555 1_555
C28 C33 1_555 1_555
C29 C30 1_555 1_555
C31 C32 1_555 1_555

#END
