
#######################################################################
#
#                 Cambridge Crystallographic Data Centre
#                                CCDC 
#
#######################################################################
#
# If this CIF has been generated from an entry in the Cambridge 
# Structural Database, then it will include bibliographic, chemical, 
# crystal, experimental, refinement or atomic coordinate data resulting 
# from the CCDC's data processing and validation procedures.
#
#######################################################################

data_TECWAZ
_chemical_formula_moiety         'C27 H34 O2 Si1'
_chemical_name_systematic        
'5-t-Butyl-13-(trimethylsilyl)ethynyl[2.2]metacyclophane-8-carboxylic acid methyl ester'
_symmetry_cell_setting           monoclinic
_symmetry_space_group_name_H-M   'P 21/c'
_symmetry_Int_Tables_number      14
_space_group_name_Hall           '-P 2ybc'
loop_
_symmetry_equiv_pos_site_id
_symmetry_equiv_pos_as_xyz
1 x,y,z
2 -x,1/2+y,1/2-z
3 -x,-y,-z
4 x,1/2-y,1/2+z
_cell_length_a                   6.784(1)
_cell_length_b                   12.437(1)
_cell_length_c                   29.958(1)
_cell_angle_alpha                90
_cell_angle_beta                 95.62(1)
_cell_angle_gamma                90
_cell_volume                     2515.48
_exptl_crystal_colour            colorless
_cell_formula_units_Z            4
loop_
_atom_site_label
_atom_site_type_symbol
_atom_site_fract_x
_atom_site_fract_y
_atom_site_fract_z
Si1 Si 0.42818(16) 0.85134(9) 0.59573(3)
O1 O 0.94173(40) 0.84587(19) 0.38530(8)
O2 O 0.93979(29) 0.73042(17) 0.44138(7)
C1 C 0.85994(42) 0.45476(24) 0.43538(10)
H1 H 0.88999(42) 0.42506(24) 0.46484(10)
H2 H 0.82718(42) 0.39651(24) 0.41496(10)
C2 C 1.04519(41) 0.51415(25) 0.41975(9)
H3 H 1.15426(41) 0.46537(25) 0.41864(9)
H4 H 1.08401(41) 0.56994(25) 0.44095(9)
C3 C 0.99300(38) 0.56281(24) 0.37385(9)
C4 C 1.00414(43) 0.49551(25) 0.33714(10)
H5 H 1.07902(43) 0.43015(25) 0.34119(10)
C5 C 0.91243(44) 0.51851(26) 0.29473(10)
C6 C 0.78849(43) 0.60727(26) 0.29130(10)
H6 H 0.70786(43) 0.62020(26) 0.26367(10)
C7 C 0.77617(41) 0.67857(23) 0.32652(9)
C8 C 0.89935(38) 0.66225(23) 0.36658(9)
C9 C 0.60047(42) 0.75419(25) 0.32482(10)
H7 H 0.56686(42) 0.77743(25) 0.29447(10)
H8 H 0.63470(42) 0.81644(25) 0.34289(10)
C10 C 0.41941(41) 0.69670(27) 0.34306(9)
H9 H 0.37780(41) 0.63861(27) 0.32323(9)
H10 H 0.31100(41) 0.74621(27) 0.34340(9)
C11 C 0.47029(38) 0.65191(25) 0.38960(9)
C12 C 0.43574(39) 0.70850(26) 0.42784(10)
H11 H 0.35732(39) 0.77287(26) 0.42550(10)
C13 C 0.51300(40) 0.67225(25) 0.46993(9)
C14 C 0.64060(40) 0.58468(25) 0.47324(10)
H12 H 0.69973(40) 0.56240(25) 0.50219(10)
C15 C 0.68419(41) 0.52895(23) 0.43511(10)
C16 C 0.58280(40) 0.55871(24) 0.39450(9)
H13 H 0.59088(40) 0.51316(24) 0.36887(9)
C17 C 0.94625(55) 0.44639(31) 0.25468(11)
C18 C 0.81871(71) 0.47850(39) 0.21197(12)
H14 H 0.84311(71) 0.43130(39) 0.18776(12)
H15 H 0.68133(71) 0.47492(39) 0.21705(12)
H16 H 0.85168(71) 0.55087(39) 0.20439(12)
C19 C 1.16126(69) 0.45673(53) 0.24592(16)
H17 H 1.24524(69) 0.43571(53) 0.27212(16)
H18 H 1.18943(69) 0.41271(53) 0.22100(16)
H19 H 1.18525(69) 0.53078(53) 0.23920(16)
C20 C 0.90031(98) 0.33069(37) 0.26474(15)
H20 H 0.97958(98) 0.30827(37) 0.29142(15)
H21 H 0.76265(98) 0.32615(37) 0.26949(15)
H22 H 0.92643(98) 0.28476(37) 0.24025(15)
C21 C 0.92577(43) 0.75538(28) 0.39791(11)
C22 C 0.96142(53) 0.81884(29) 0.47235(11)
H23 H 0.97109(53) 0.79165(29) 0.50248(11)
H24 H 1.07922(53) 0.85847(29) 0.46780(11)
H25 H 0.84837(53) 0.86533(29) 0.46754(11)
C23 C 0.47734(44) 0.73041(27) 0.51035(11)
C24 C 0.45247(48) 0.77775(29) 0.54392(11)
C25 C 0.16122(62) 0.86793(37) 0.60295(15)
H26 H 0.09998(62) 0.91001(37) 0.57854(15)
H27 H 0.09854(62) 0.79874(37) 0.60310(15)
H28 H 0.14702(62) 0.90407(37) 0.63077(15)
C26 C 0.54763(70) 0.98426(33) 0.59221(15)
H29 H 0.48133(70) 1.02358(33) 0.56756(15)
H30 H 0.53698(70) 1.02295(33) 0.61960(15)
H31 H 0.68482(70) 0.97575(33) 0.58760(15)
C27 C 0.55242(82) 0.77179(38) 0.64227(13)
H32 H 0.48802(82) 0.70316(38) 0.64296(13)
H33 H 0.68964(82) 0.76149(38) 0.63808(13)
H34 H 0.54180(82) 0.80869(38) 0.67008(13)
loop_
_geom_bond_atom_site_label_1
_geom_bond_atom_site_label_2
_geom_bond_site_symmetry_1
_geom_bond_site_symmetry_2
Si1 C24 1_555 1_555
O1 C21 1_555 1_555
O2 C21 1_555 1_555
C1 H1 1_555 1_555
H2 C1 1_555 1_555
C2 C1 1_555 1_555
H3 C2 1_555 1_555
H4 C2 1_555 1_555
C3 C2 1_555 1_555
C4 C3 1_555 1_555
H5 C4 1_555 1_555
C5 C4 1_555 1_555
C6 C5 1_555 1_555
H6 C6 1_555 1_555
C7 C6 1_555 1_555
C8 C3 1_555 1_555
C9 C7 1_555 1_555
H7 C9 1_555 1_555
H8 C9 1_555 1_555
C10 C9 1_555 1_555
H9 C10 1_555 1_555
H10 C10 1_555 1_555
C11 C10 1_555 1_555
C12 C11 1_555 1_555
H11 C12 1_555 1_555
C13 C12 1_555 1_555
C14 C13 1_555 1_555
H12 C14 1_555 1_555
C15 C1 1_555 1_555
C16 C11 1_555 1_555
H13 C16 1_555 1_555
C17 C5 1_555 1_555
C18 C17 1_555 1_555
H14 C18 1_555 1_555
H15 C18 1_555 1_555
H16 C18 1_555 1_555
C19 C17 1_555 1_555
H17 C19 1_555 1_555
H18 C19 1_555 1_555
H19 C19 1_555 1_555
C20 C17 1_555 1_555
H20 C20 1_555 1_555
H21 C20 1_555 1_555
H22 C20 1_555 1_555
C21 C8 1_555 1_555
C22 O2 1_555 1_555
H23 C22 1_555 1_555
H24 C22 1_555 1_555
H25 C22 1_555 1_555
C23 C13 1_555 1_555
C24 C23 1_555 1_555
C25 Si1 1_555 1_555
H26 C25 1_555 1_555
H27 C25 1_555 1_555
H28 C25 1_555 1_555
C26 Si1 1_555 1_555
H29 C26 1_555 1_555
H30 C26 1_555 1_555
H31 C26 1_555 1_555
C27 Si1 1_555 1_555
H32 C27 1_555 1_555
H33 C27 1_555 1_555
H34 C27 1_555 1_555
C7 C8 1_555 1_555
C14 C15 1_555 1_555
C15 C16 1_555 1_555

#END
