
#######################################################################
#
#                 Cambridge Crystallographic Data Centre
#                                CCDC 
#
#######################################################################
#
# If this CIF has been generated from an entry in the Cambridge 
# Structural Database, then it will include bibliographic, chemical, 
# crystal, experimental, refinement or atomic coordinate data resulting 
# from the CCDC's data processing and validation procedures.
#
#######################################################################

data_TECWAB
_chemical_formula_moiety         'C33 H39 N3,C1 H2 Cl2'
_chemical_name_systematic        
"N,N',N''-((2,4,6-Triethylbenzene-1,3,5-triyl)tris(methylene))trianiline dichloromethane solvate"
_symmetry_cell_setting           triclinic
_symmetry_space_group_name_H-M   'P -1'
_symmetry_Int_Tables_number      2
_space_group_name_Hall           '-P 1'
loop_
_symmetry_equiv_pos_site_id
_symmetry_equiv_pos_as_xyz
1 x,y,z
2 -x,-y,-z
_cell_length_a                   11.274(5)
_cell_length_b                   11.548(6)
_cell_length_c                   11.946(6)
_cell_angle_alpha                95.33(3)
_cell_angle_beta                 93.62(4)
_cell_angle_gamma                99.07(4)
_cell_volume                     1524.4
_exptl_crystal_colour            colorless
_exptl_crystal_description       block
_cell_formula_units_Z            2
loop_
_atom_site_label
_atom_site_type_symbol
_atom_site_fract_x
_atom_site_fract_y
_atom_site_fract_z
C1 C 0.9166(3) 0.7570(3) 0.8928(3)
C2 C 0.8273(3) 0.7876(3) 0.9618(3)
C3 C 0.7637(3) 0.8774(3) 0.9363(3)
C4 C 0.7915(3) 0.9406(3) 0.8415(3)
C5 C 0.8804(3) 0.9105(3) 0.7724(3)
C6 C 0.9442(3) 0.8204(3) 0.7999(3)
C7 C 0.9075(4) 0.9753(3) 0.6694(3)
H1 H 0.836(3) 0.999(3) 0.638(3)
H2 H 0.927(3) 0.923(3) 0.612(3)
C8 C 1.0046(3) 1.0843(3) 0.6928(3)
H3 H 1.0806 1.0611 0.7194
H4 H 0.9800 1.1396 0.7506
H5 H 1.0156 1.1224 0.6233
C9 C 0.6668(3) 0.9097(3) 1.0094(3)
H6 H 0.6304 0.8388 1.0433
H7 H 0.6027 0.9347 0.9612
C10 C 0.7128(4) 1.0081(3) 1.1035(3)
H8 H 0.7494 1.0787 1.0708
H9 H 0.7732 0.9825 1.1541
H10 H 0.6454 1.0263 1.1462
C11 C 0.9800(3) 0.6550(3) 0.9190(3)
H11 H 1.0051 0.6186 0.8479
H12 H 0.9221 0.5946 0.9497
C12 C 1.0899(3) 0.6901(3) 1.0026(3)
H13 H 1.0671 0.7311 1.0715
H14 H 1.1518 0.7426 0.9692
H15 H 1.1217 0.6193 1.0210
C13 C 1.0417(3) 0.7917(3) 0.7265(3)
H16 H 1.0835 0.8652 0.7006
H17 H 1.1016 0.7573 0.7714
C14 C 1.0528(3) 0.6965(3) 0.5326(3)
C15 C 0.9956(4) 0.6250(3) 0.4379(3)
H18 H 0.9160 0.5840 0.4410
C16 C 1.0528(4) 0.6128(3) 0.3396(3)
H19 H 1.0120 0.5635 0.2762
C17 C 1.1684(4) 0.6710(3) 0.3317(3)
H20 H 1.2075 0.6626 0.2639
C18 C 1.2253(4) 0.7416(3) 0.4251(3)
H21 H 1.3047 0.7827 0.4213
C19 C 1.1695(3) 0.7541(3) 0.5243(3)
H22 H 1.2114 0.8026 0.5877
C20 C 0.7222(3) 1.0360(3) 0.8128(3)
H23 H 0.6990 1.0762 0.8830
H24 H 0.7741 1.0953 0.7748
C21 C 0.5295(3) 1.0540(3) 0.7090(3)
C22 C 0.5303(3) 1.1689(3) 0.7588(3)
H25 H 0.5939 1.2047 0.8130
C23 C 0.4393(3) 1.2309(4) 0.7299(4)
H26 H 0.4410 1.3089 0.7639
C24 C 0.3461(4) 1.1796(4) 0.6519(4)
H27 H 0.2825 1.2211 0.6334
C25 C 0.3460(4) 1.0669(4) 0.6006(3)
H28 H 0.2831 1.0323 0.5453
C26 C 0.4358(3) 1.0044(4) 0.6289(3)
H29 H 0.4339 0.9269 0.5935
C27 C 0.7976(3) 0.7195(3) 1.0632(3)
H30 H 0.8711 0.6933 1.0946
H31 H 0.7695 0.7718 1.1227
C28 C 0.6881(3) 0.5208(3) 1.0916(3)
C29 C 0.7405(3) 0.5234(3) 1.2009(3)
H32 H 0.7885 0.5939 1.2363
C30 C 0.7231(3) 0.4235(3) 1.2588(3)
H33 H 0.7589 0.4269 1.3334
C31 C 0.6550(4) 0.3205(4) 1.2096(4)
H34 H 0.6449 0.2519 1.2485
C32 C 0.6012(4) 0.3189(3) 1.1018(4)
H35 H 0.5526 0.2483 1.0674
C33 C 0.6162(3) 0.4165(3) 1.0432(4)
H36 H 0.5776 0.4129 0.9697
N1 N 0.7046(3) 0.6175(2) 1.0299(3)
H37 H 0.6571 0.6170 0.9685
N2 N 0.9931(3) 0.7092(3) 0.6292(2)
H38 H 0.9223 0.6653 0.6319
N3 N 0.6153(3) 0.9882(3) 0.7398(3)
H39 H 0.6046 0.9132 0.7137
Cl1 Cl 0.6877(3) 0.6033(4) 0.7282(3)
Cl2 Cl 0.5655(5) 0.6039(4) 0.5106(3)
C34 C 0.5796(8) 0.5241(8) 0.6253(7)
H40 H 0.6039 0.4477 0.6002
H41 H 0.5009 0.5077 0.6580
C35? C 0.6058(9) 0.6483(8) 0.7095(7)
Cl3? Cl 0.6957(3) 0.5365(3) 0.7064(3)
Cl4? Cl 0.6017(3) 0.7130(2) 0.58454(19)
H42? H 0.5227 0.6143 0.7243
H43? H 0.6378 0.7097 0.7722
loop_
_geom_bond_atom_site_label_1
_geom_bond_atom_site_label_2
_geom_bond_site_symmetry_1
_geom_bond_site_symmetry_2
C1 C2 1_555 1_555
C2 C3 1_555 1_555
C3 C4 1_555 1_555
C4 C5 1_555 1_555
C5 C6 1_555 1_555
C6 C1 1_555 1_555
C7 C5 1_555 1_555
H1 C7 1_555 1_555
H2 C7 1_555 1_555
C8 C7 1_555 1_555
H3 C8 1_555 1_555
H4 C8 1_555 1_555
H5 C8 1_555 1_555
C9 C3 1_555 1_555
H6 C9 1_555 1_555
H7 C9 1_555 1_555
C10 C9 1_555 1_555
H8 C10 1_555 1_555
H9 C10 1_555 1_555
H10 C10 1_555 1_555
C11 C1 1_555 1_555
H11 C11 1_555 1_555
H12 C11 1_555 1_555
C12 C11 1_555 1_555
H13 C12 1_555 1_555
H14 C12 1_555 1_555
H15 C12 1_555 1_555
C13 C6 1_555 1_555
H16 C13 1_555 1_555
H17 C13 1_555 1_555
C14 C15 1_555 1_555
C15 H18 1_555 1_555
C16 C15 1_555 1_555
H19 C16 1_555 1_555
C17 C16 1_555 1_555
H20 C17 1_555 1_555
C18 C17 1_555 1_555
H21 C18 1_555 1_555
C19 C14 1_555 1_555
H22 C19 1_555 1_555
C20 C4 1_555 1_555
H23 C20 1_555 1_555
H24 C20 1_555 1_555
C21 C22 1_555 1_555
C22 H25 1_555 1_555
C23 C22 1_555 1_555
H26 C23 1_555 1_555
C24 C23 1_555 1_555
H27 C24 1_555 1_555
C25 C24 1_555 1_555
H28 C25 1_555 1_555
C26 C21 1_555 1_555
H29 C26 1_555 1_555
C27 C2 1_555 1_555
H30 C27 1_555 1_555
H31 C27 1_555 1_555
C28 C29 1_555 1_555
C29 H32 1_555 1_555
C30 C29 1_555 1_555
H33 C30 1_555 1_555
C31 C30 1_555 1_555
H34 C31 1_555 1_555
C32 C31 1_555 1_555
H35 C32 1_555 1_555
C33 C28 1_555 1_555
H36 C33 1_555 1_555
N1 C27 1_555 1_555
H37 N1 1_555 1_555
N2 C13 1_555 1_555
H38 N2 1_555 1_555
N3 C20 1_555 1_555
H39 N3 1_555 1_555
Cl1 C34 1_555 1_555
Cl2 C34 1_555 1_555
C34 H40 1_555 1_555
H41 C34 1_555 1_555
C14 N2 1_555 1_555
C18 C19 1_555 1_555
C21 N3 1_555 1_555
C25 C26 1_555 1_555
C28 N1 1_555 1_555
C32 C33 1_555 1_555

#END
