
#######################################################################
#
#                 Cambridge Crystallographic Data Centre
#                                CCDC 
#
#######################################################################
#
# If this CIF has been generated from an entry in the Cambridge 
# Structural Database, then it will include bibliographic, chemical, 
# crystal, experimental, refinement or atomic coordinate data resulting 
# from the CCDC's data processing and validation procedures.
#
#######################################################################

data_TECXUX
_chemical_formula_moiety         'C24 H27 Br1 N2 O2'
_chemical_name_systematic        
2-amino-6-bromo-4-(3,5-di-t-butyl-4-hydroxyphenyl)-4H-chromene-3-carbonitrile
_symmetry_cell_setting           monoclinic
_symmetry_space_group_name_H-M   'P 21'
_symmetry_Int_Tables_number      4
_space_group_name_Hall           'P 2yb'
loop_
_symmetry_equiv_pos_site_id
_symmetry_equiv_pos_as_xyz
1 x,y,z
2 -x,1/2+y,-z
_cell_length_a                   10.4410(8)
_cell_length_b                   9.3621(7)
_cell_length_c                   11.5467(9)
_cell_angle_alpha                90
_cell_angle_beta                 93.816(2)
_cell_angle_gamma                90
_cell_volume                     1126.18
_exptl_crystal_colour            colorless
_exptl_crystal_description       block
_cell_formula_units_Z            2
loop_
_atom_site_label
_atom_site_type_symbol
_atom_site_fract_x
_atom_site_fract_y
_atom_site_fract_z
Br1 Br 0.80721(5) 0.56014(9) 0.17646(6)
O1 O 0.2530(4) 0.3787(4) 0.6447(3)
H1 H 0.1834 0.3976 0.6740
O2 O 0.2484(4) 0.5046(4) 0.0216(3)
N1 N 0.0564(5) 0.6034(6) -0.0191(4)
H2 H 0.0473 0.5184 -0.0513
H3 H -0.0103 0.6217 0.0213
N2 N 0.0140(5) 0.8713(5) 0.1932(5)
C1 C 0.1639(5) 0.6054(5) 0.0519(4)
C2 C 0.1894(5) 0.6938(5) 0.1442(4)
C3 C 0.3095(4) 0.6803(4) 0.2240(3)
H4 H 0.3413 0.7786 0.2440
C4 C 0.4108(5) 0.6047(4) 0.1584(3)
C5 C 0.3752(5) 0.5178(5) 0.0647(4)
C6 C 0.4638(6) 0.4381(5) 0.0068(4)
H5 H 0.4359 0.3758 -0.0547
C7 C 0.5928(6) 0.4510(6) 0.0401(4)
H6 H 0.6551 0.3991 0.0010
C8 C 0.6300(5) 0.5412(6) 0.1318(4)
C9 C 0.5412(5) 0.6175(5) 0.1917(4)
H7 H 0.5690 0.6778 0.2546
C10 C 0.0932(5) 0.7924(5) 0.1713(4)
C11 C 0.2871(4) 0.6016(4) 0.3369(3)
C12 C 0.2175(4) 0.4760(5) 0.3363(3)
H8 H 0.1791 0.4420 0.2646
C13 C 0.2014(4) 0.3973(4) 0.4371(3)
C14 C 0.2588(4) 0.4515(4) 0.5414(3)
C15 C 0.3293(4) 0.5810(4) 0.5462(3)
C16 C 0.3430(4) 0.6530(4) 0.4417(3)
H9 H 0.3915 0.7389 0.4422
C17 C 0.1255(4) 0.2561(4) 0.4316(4)
C18 C 0.2092(6) 0.1325(6) 0.4805(6)
H10 H 0.2901 0.1307 0.4420
H11 H 0.1637 0.0420 0.4666
H12 H 0.2274 0.1461 0.5641
C19 C 0.0028(6) 0.2694(6) 0.4959(6)
H13 H 0.0246 0.2986 0.5763
H14 H -0.0414 0.1771 0.4952
H15 H -0.0536 0.3412 0.4574
C20 C 0.0836(7) 0.2161(6) 0.3053(5)
H16 H 0.0314 0.2933 0.2696
H17 H 0.0330 0.1279 0.3044
H18 H 0.1598 0.2016 0.2614
C21 C 0.3926(4) 0.6391(5) 0.6611(3)
C22 C 0.4956(5) 0.5325(5) 0.7086(4)
H19 H 0.4547 0.4417 0.7265
H20 H 0.5396 0.5714 0.7794
H21 H 0.5581 0.5167 0.6502
C23 C 0.2918(5) 0.6623(6) 0.7507(4)
H22 H 0.2296 0.7344 0.7216
H23 H 0.3344 0.6950 0.8241
H24 H 0.2471 0.5721 0.7634
C24 C 0.4584(5) 0.7838(5) 0.6441(4)
H25 H 0.5237 0.7732 0.5876
H26 H 0.4992 0.8162 0.7184
H27 H 0.3943 0.8541 0.6156
loop_
_geom_bond_atom_site_label_1
_geom_bond_atom_site_label_2
_geom_bond_site_symmetry_1
_geom_bond_site_symmetry_2
Br1 C8 1_555 1_555
O1 H1 1_555 1_555
O2 C1 1_555 1_555
N1 H2 1_555 1_555
H3 N1 1_555 1_555
N2 C10 1_555 1_555
C1 N1 1_555 1_555
C2 C1 1_555 1_555
C3 C2 1_555 1_555
H4 C3 1_555 1_555
C4 C3 1_555 1_555
C5 O2 1_555 1_555
C6 C5 1_555 1_555
H5 C6 1_555 1_555
C7 C6 1_555 1_555
H6 C7 1_555 1_555
C8 C7 1_555 1_555
C9 C4 1_555 1_555
H7 C9 1_555 1_555
C10 C2 1_555 1_555
C11 C3 1_555 1_555
C12 C11 1_555 1_555
H8 C12 1_555 1_555
C13 C12 1_555 1_555
C14 O1 1_555 1_555
C15 C14 1_555 1_555
C16 C11 1_555 1_555
H9 C16 1_555 1_555
C17 C13 1_555 1_555
C18 C17 1_555 1_555
H10 C18 1_555 1_555
H11 C18 1_555 1_555
H12 C18 1_555 1_555
C19 C17 1_555 1_555
H13 C19 1_555 1_555
H14 C19 1_555 1_555
H15 C19 1_555 1_555
C20 C17 1_555 1_555
H16 C20 1_555 1_555
H17 C20 1_555 1_555
H18 C20 1_555 1_555
C21 C15 1_555 1_555
C22 C21 1_555 1_555
H19 C22 1_555 1_555
H20 C22 1_555 1_555
H21 C22 1_555 1_555
C23 C21 1_555 1_555
H22 C23 1_555 1_555
H23 C23 1_555 1_555
H24 C23 1_555 1_555
C24 C21 1_555 1_555
H25 C24 1_555 1_555
H26 C24 1_555 1_555
H27 C24 1_555 1_555
C4 C5 1_555 1_555
C8 C9 1_555 1_555
C13 C14 1_555 1_555
C15 C16 1_555 1_555

#END
