
#######################################################################
#
#                 Cambridge Crystallographic Data Centre
#                                CCDC 
#
#######################################################################
#
# If this CIF has been generated from an entry in the Cambridge 
# Structural Database, then it will include bibliographic, chemical, 
# crystal, experimental, refinement or atomic coordinate data resulting 
# from the CCDC's data processing and validation procedures.
#
#######################################################################

data_TECYEH
_chemical_formula_moiety         'C18 H25 N1 O4 S1'
_chemical_name_systematic        
2-(Hydroxyimino)-12-(phenylsulfonyl)cyclododecanone
_symmetry_cell_setting           monoclinic
_symmetry_space_group_name_H-M   'P 21/n'
_symmetry_Int_Tables_number      14
_space_group_name_Hall           '-P 2yn'
loop_
_symmetry_equiv_pos_site_id
_symmetry_equiv_pos_as_xyz
1 x,y,z
2 1/2-x,1/2+y,1/2-z
3 -x,-y,-z
4 1/2+x,1/2-y,1/2+z
_cell_length_a                   14.171(3)
_cell_length_b                   8.2823(17)
_cell_length_c                   16.797(3)
_cell_angle_alpha                90
_cell_angle_beta                 112.01(3)
_cell_angle_gamma                90
_cell_volume                     1827.76
_cell_formula_units_Z            4
loop_
_atom_site_label
_atom_site_type_symbol
_atom_site_fract_x
_atom_site_fract_y
_atom_site_fract_z
C1 C 0.50404(19) 0.5292(3) 0.27858(16)
C2 C 0.5231(2) 0.5351(3) 0.19497(16)
C3 C 0.4229(2) 0.5380(4) 0.11565(18)
H1 H 0.3911 0.4325 0.1089
H2 H 0.4383 0.5587 0.0649
C4 C 0.3468(3) 0.6671(5) 0.1215(2)
H3 H 0.2835 0.6563 0.0722
H4 H 0.3323 0.6476 0.1727
C5 C 0.3862(3) 0.8379(5) 0.1244(3)
H5 H 0.3900 0.8647 0.0695
H6 H 0.4543 0.8455 0.1681
C6 C 0.3154(3) 0.9584(6) 0.1448(3)
H7 H 0.3352 1.0667 0.1354
H8 H 0.2466 0.9410 0.1038
C7 C 0.3133(3) 0.9517(6) 0.2323(3)
H9 H 0.2682 1.0362 0.2368
H10 H 0.2836 0.8493 0.2384
C8 C 0.4113(4) 0.9689(6) 0.3048(4)
H11 H 0.4634 0.9181 0.2890
H12 H 0.4274 1.0830 0.3128
C9 C 0.4180(6) 0.9025(13) 0.3868(4)
H13 H 0.4569 0.9814 0.4290
H14 H 0.3492 0.9082 0.3857
C10 C 0.4508(9) 0.7693(8) 0.4200(6)
H15 H 0.3905 0.7019 0.3983
H16 H 0.4620 0.7876 0.4799
C11 C 0.5329(3) 0.6543(5) 0.42570(19)
H17 H 0.5126 0.5479 0.4375
H18 H 0.5933 0.6846 0.4745
C12 C 0.56088(19) 0.6420(3) 0.34893(15)
C13 C 0.69100(19) 0.3388(3) 0.28956(16)
C14 C 0.7809(2) 0.4238(4) 0.31090(18)
H19 H 0.7922 0.4889 0.2702
C15 C 0.8539(2) 0.4119(4) 0.39259(19)
H20 H 0.9144 0.4697 0.4073
C16 C 0.8373(3) 0.3146(4) 0.4523(2)
H21 H 0.8866 0.3058 0.5074
C17 C 0.7476(3) 0.2300(4) 0.4304(2)
H22 H 0.7367 0.1647 0.4712
C18 C 0.6736(2) 0.2403(3) 0.34931(18)
H23 H 0.6132 0.1824 0.3349
N1 N 0.63509(17) 0.7137(3) 0.33726(13)
O1 O 0.44304(15) 0.4353(3) 0.28719(14)
O2 O 0.68920(19) 0.8119(3) 0.40580(14)
O3 O 0.53111(15) 0.2205(2) 0.16931(14)
O4 O 0.64191(15) 0.4031(3) 0.12695(12)
S1 S 0.59533(5) 0.36051(9) 0.18707(4)
H24 H 0.5650(17) 0.613(3) 0.1940(13)
H25 H 0.737(3) 0.838(4) 0.3957(19)
loop_
_geom_bond_atom_site_label_1
_geom_bond_atom_site_label_2
_geom_bond_site_symmetry_1
_geom_bond_site_symmetry_2
C1 C2 1_555 1_555
C2 C3 1_555 1_555
C3 H1 1_555 1_555
H2 C3 1_555 1_555
C4 C3 1_555 1_555
H3 C4 1_555 1_555
H4 C4 1_555 1_555
C5 C4 1_555 1_555
H5 C5 1_555 1_555
H6 C5 1_555 1_555
C6 C5 1_555 1_555
H7 C6 1_555 1_555
H8 C6 1_555 1_555
C7 C6 1_555 1_555
H9 C7 1_555 1_555
H10 C7 1_555 1_555
C8 C7 1_555 1_555
H11 C8 1_555 1_555
H12 C8 1_555 1_555
C9 C8 1_555 1_555
H13 C9 1_555 1_555
H14 C9 1_555 1_555
C10 C9 1_555 1_555
H15 C10 1_555 1_555
H16 C10 1_555 1_555
C11 C10 1_555 1_555
H17 C11 1_555 1_555
H18 C11 1_555 1_555
C12 C1 1_555 1_555
C13 C14 1_555 1_555
C14 H19 1_555 1_555
C15 C14 1_555 1_555
H20 C15 1_555 1_555
C16 C15 1_555 1_555
H21 C16 1_555 1_555
C17 C16 1_555 1_555
H22 C17 1_555 1_555
C18 C13 1_555 1_555
H23 C18 1_555 1_555
N1 C12 1_555 1_555
O1 C1 1_555 1_555
O2 N1 1_555 1_555
O3 S1 1_555 1_555
O4 S1 1_555 1_555
S1 C2 1_555 1_555
H24 C2 1_555 1_555
H25 O2 1_555 1_555
C11 C12 1_555 1_555
C13 S1 1_555 1_555
C17 C18 1_555 1_555

#END
