
#######################################################################
#
#                 Cambridge Crystallographic Data Centre
#                                CCDC 
#
#######################################################################
#
# If this CIF has been generated from an entry in the Cambridge 
# Structural Database, then it will include bibliographic, chemical, 
# crystal, experimental, refinement or atomic coordinate data resulting 
# from the CCDC's data processing and validation procedures.
#
#######################################################################

data_TECYUX
_chemical_formula_moiety         'C14 H10 N12 O8,2(C2 H6 O1 S1)'
_chemical_name_systematic        
'1,1,2,2-tetrakis(4-nitro-1H-pyrazol-1-yl)ethane dimethyl sulfoxide solvate'
_symmetry_cell_setting           triclinic
_symmetry_space_group_name_H-M   'P -1'
_symmetry_Int_Tables_number      2
_space_group_name_Hall           '-P 1'
loop_
_symmetry_equiv_pos_site_id
_symmetry_equiv_pos_as_xyz
1 x,y,z
2 -x,-y,-z
_cell_length_a                   8.6812(17)
_cell_length_b                   9.5183(19)
_cell_length_c                   10.382(2)
_cell_angle_alpha                89.222(2)
_cell_angle_beta                 67.749(2)
_cell_angle_gamma                64.594(2)
_cell_volume                     705.736
_exptl_crystal_colour            white
_exptl_crystal_description       block
_cell_formula_units_Z            1
loop_
_atom_site_label
_atom_site_type_symbol
_atom_site_fract_x
_atom_site_fract_y
_atom_site_fract_z
C1 C 0.2867(3) 1.0041(3) 0.7241(2)
C2 C 0.1461(4) 1.1022(3) 0.8507(3)
H1 H 0.0240 1.1701 0.8638
C3 C 0.4435(3) 0.9227(3) 0.7479(2)
H2 H 0.5603 0.8473 0.6837
C4 C 0.5121(3) 0.9272(3) 0.9587(2)
H3 H 0.6425 0.8711 0.8892
C5 C 0.5825(4) 0.6671(3) 1.0377(3)
H4 H 0.6945 0.6034 0.9614
C6 C 0.3308(4) 0.7574(3) 1.2412(3)
H5 H 0.2438 0.7603 1.3291
C7 C 0.4925(4) 0.6222(3) 1.1575(3)
N1 N 0.2759(3) 0.9916(3) 0.5910(2)
N2 N 0.2098(3) 1.0857(3) 0.9497(2)
N3 N 0.3927(3) 0.9749(2) 0.8839(2)
N4 N 0.4744(3) 0.8224(2) 1.0543(2)
N5 N 0.3182(3) 0.8807(3) 1.1786(2)
N6 N 0.5569(4) 0.4664(3) 1.1897(3)
O1 O 0.4099(3) 0.8880(3) 0.4940(2)
O2 O 0.1321(3) 1.0858(3) 0.5812(2)
O3 O 0.6920(4) 0.3580(3) 1.0985(3)
O4 O 0.4738(4) 0.4512(3) 1.3102(3)
C1A C 0.7133(3) 0.9959(3) 1.2759(2)
C2A C 0.8539(4) 0.8978(3) 1.1493(3)
H1A H 0.9760 0.8299 1.1362
C3A C 0.5565(3) 1.0773(3) 1.2521(2)
H2A H 0.4397 1.1527 1.3163
C4A C 0.4879(3) 1.0728(3) 1.0413(2)
H3A H 0.3575 1.1289 1.1108
C5A C 0.4175(4) 1.3329(3) 0.9623(3)
H4A H 0.3055 1.3966 1.0386
C6A C 0.6692(4) 1.2426(3) 0.7588(3)
H5A H 0.7562 1.2397 0.6709
C7A C 0.5075(4) 1.3778(3) 0.8425(3)
N1A N 0.7241(3) 1.0084(3) 1.4090(2)
N2A N 0.7902(3) 0.9143(3) 1.0503(2)
N3A N 0.6073(3) 1.0251(2) 1.1161(2)
N4A N 0.5256(3) 1.1776(2) 0.9457(2)
N5A N 0.6818(3) 1.1193(3) 0.8214(2)
N6A N 0.4431(4) 1.5336(3) 0.8103(3)
O1A O 0.5901(3) 1.1120(3) 1.5060(2)
O2A O 0.8679(3) 0.9142(3) 1.4188(2)
O3A O 0.3080(4) 1.6420(3) 0.9015(3)
O4A O 0.5262(4) 1.5488(3) 0.6898(3)
C8 C 0.8170(5) 0.5637(4) 0.3595(5)
H6 H 0.6857 0.5884 0.3979
H7 H 0.8436 0.6534 0.3495
C9 C 0.9104(5) 0.2561(4) 0.3373(4)
H8 H 0.7816 0.2745 0.3848
H9 H 1.0042 0.1472 0.2972
O5 O 1.1650(3) 0.3509(3) 0.2768(2)
S1 S 0.97515(11) 0.38922(9) 0.38739(8)
H10 H 0.856(6) 0.536(6) 0.244(5)
H11 H 0.934(4) 0.259(4) 0.240(3)
S2? S 0.9570(8) 0.4121(7) 0.2612(6)
loop_
_geom_bond_atom_site_label_1
_geom_bond_atom_site_label_2
_geom_bond_site_symmetry_1
_geom_bond_site_symmetry_2
C1 C2 1_555 1_555
C2 H1 1_555 1_555
C3 C1 1_555 1_555
H2 C3 1_555 1_555
C4 H3 1_555 1_555
C5 H4 1_555 1_555
C6 H5 1_555 1_555
C7 C5 1_555 1_555
N1 C1 1_555 1_555
N2 C2 1_555 1_555
N3 C3 1_555 1_555
N4 C4 1_555 1_555
N5 C6 1_555 1_555
N6 C7 1_555 1_555
O1 N1 1_555 1_555
O2 N1 1_555 1_555
O3 N6 1_555 1_555
O4 N6 1_555 1_555
C8 H6 1_555 1_555
H7 C8 1_555 1_555
C9 H8 1_555 1_555
H9 C9 1_555 1_555
O5 S1 1_555 1_555
S1 C8 1_555 1_555
H10 C8 1_555 1_555
H11 C9 1_555 1_555
C1A C2A 1_555 1_555
C2A H1A 1_555 1_555
C3A C1A 1_555 1_555
H2A C3A 1_555 1_555
C4A C4 1_555 1_555
H3A C4A 1_555 1_555
C5A H4A 1_555 1_555
C6A H5A 1_555 1_555
C7A C5A 1_555 1_555
N1A C1A 1_555 1_555
N2A C2A 1_555 1_555
N3A C3A 1_555 1_555
N4A C4A 1_555 1_555
N5A C6A 1_555 1_555
N6A C7A 1_555 1_555
O1A N1A 1_555 1_555
O2A N1A 1_555 1_555
O3A N6A 1_555 1_555
O4A N6A 1_555 1_555
C4 N3 1_555 1_555
C5 N4 1_555 1_555
C6 C7 1_555 1_555
N2 N3 1_555 1_555
N4 N5 1_555 1_555
C9 S1 1_555 1_555
C4A N3A 1_555 1_555
C5A N4A 1_555 1_555
C6A C7A 1_555 1_555
N2A N3A 1_555 1_555
N4A N5A 1_555 1_555

#END
