
#######################################################################
#
#                 Cambridge Crystallographic Data Centre
#                                CCDC 
#
#######################################################################
#
# If this CIF has been generated from an entry in the Cambridge 
# Structural Database, then it will include bibliographic, chemical, 
# crystal, experimental, refinement or atomic coordinate data resulting 
# from the CCDC's data processing and validation procedures.
#
#######################################################################

data_TECZIL
_chemical_formula_moiety         'C16 H40 K1 O8 1+,C40 H56 N8 Si4 1-,C4 H10 O2'
_chemical_name_systematic        
"tetrakis(1,2-Dimethoxyethane)-potassium 1,1:2,2:3,3:4,4-tetrakis(1,2-bis(ethylamido)benzene-N,N')-cyclotetrasilane radical anion 1,2-dimethoxyethane solvate"
_symmetry_cell_setting           orthorhombic
_symmetry_space_group_name_H-M   'P n a 21'
_symmetry_Int_Tables_number      33
_space_group_name_Hall           'P 2c -2n'
loop_
_symmetry_equiv_pos_site_id
_symmetry_equiv_pos_as_xyz
1 x,y,z
2 -x,-y,1/2+z
3 1/2-x,1/2+y,1/2+z
4 1/2+x,1/2-y,z
_cell_length_a                   18.7940(4)
_cell_length_b                   18.5198(4)
_cell_length_c                   20.7545(5)
_cell_angle_alpha                90
_cell_angle_beta                 90
_cell_angle_gamma                90
_cell_volume                     7223.83
_exptl_crystal_colour            brown
_exptl_crystal_description       needle
_cell_formula_units_Z            4
loop_
_atom_site_label
_atom_site_type_symbol
_atom_site_fract_x
_atom_site_fract_y
_atom_site_fract_z
K1 K 0.22873(5) 0.24432(6) 0.39179(6)
O1 O 0.1994(3) 0.2421(2) 0.52148(19)
O2 O 0.1655(2) 0.3662(2) 0.4532(2)
O3 O 0.2785(3) 0.3417(2) 0.2971(2)
O4 O 0.2479(3) 0.2052(3) 0.2542(2)
O5 O 0.3470(3) 0.1571(3) 0.4043(3)
O6 O 0.3613(3) 0.2950(3) 0.4504(4)
O7 O 0.1565(2) 0.1027(2) 0.40560(18)
O8 O 0.0868(2) 0.2235(2) 0.3535(2)
C41 C 0.1747(6) 0.3021(5) 0.5532(4)
H57 H 0.2151 0.3311 0.5681
H58 H 0.1473 0.2871 0.5911
C42 C 0.1285(4) 0.3471(4) 0.5100(3)
H59 H 0.0856 0.3199 0.4986
H60 H 0.1139 0.391 0.5328
C43 C 0.2426(6) 0.1993(5) 0.5652(4)
H61 H 0.2603 0.157 0.5428
H62 H 0.214 0.1844 0.6017
H63 H 0.2825 0.2281 0.5802
C44 C 0.1313(3) 0.4202(4) 0.4198(4)
H64 H 0.1591 0.4331 0.3821
H65 H 0.1261 0.4622 0.4474
H66 H 0.0847 0.4035 0.4065
C45 C 0.3026(5) 0.3201(5) 0.2409(4)
H67 H 0.3528 0.307 0.246
H68 H 0.3005 0.3611 0.2111
C46 C 0.2662(5) 0.2601(5) 0.2115(4)
H69 H 0.2228 0.2779 0.1908
H70 H 0.2967 0.2398 0.1777
C47 C 0.3130(4) 0.4022(4) 0.3227(4)
H71 H 0.293 0.4135 0.3646
H72 H 0.3066 0.443 0.294
H73 H 0.3634 0.3919 0.3272
C48 C 0.2251(5) 0.1408(5) 0.2234(5)
H74 H 0.2134 0.1049 0.2557
H75 H 0.2629 0.1226 0.196
H76 H 0.1833 0.1509 0.1974
C49 C 0.4088(5) 0.1873(5) 0.4053(9)
H77 H 0.4178 0.2099 0.3634
H78 H 0.4452 0.1502 0.4121
C50 C 0.4153(4) 0.2428(6) 0.4565(7)
H79 H 0.412 0.2197 0.4988
H80 H 0.4619 0.2663 0.4533
C51 C 0.3444(6) 0.1019(6) 0.3578(6)
H81 H 0.298 0.079 0.3587
H82 H 0.3808 0.0663 0.3671
H83 H 0.3527 0.1223 0.3154
C52 C 0.3637(6) 0.3514(5) 0.4950(6)
H84 H 0.3258 0.3854 0.4858
H85 H 0.4092 0.3757 0.492
H86 H 0.3576 0.3321 0.5381
C53 C 0.0817(3) 0.1075(4) 0.3977(4)
H87 H 0.0605 0.1278 0.4369
H88 H 0.062 0.0591 0.3913
C54 C 0.0635(4) 0.1535(4) 0.3421(4)
H89 H 0.0862 0.1345 0.3031
H90 H 0.0119 0.1533 0.3354
C55 C 0.1751(4) 0.0539(4) 0.4550(4)
H91 H 0.2265 0.0512 0.4584
H92 H 0.1563 0.0064 0.4449
H93 H 0.1553 0.0704 0.4956
C56 C 0.0710(4) 0.2683(4) 0.2997(4)
H94 H 0.0863 0.3173 0.3086
H95 H 0.0201 0.2678 0.2919
H96 H 0.0957 0.2503 0.2619
Si1 Si 0.10156(6) -0.20396(6) 0.38400(6)
Si2 Si 0.14608(6) -0.19876(6) 0.48996(6)
Si3 Si 0.14566(6) -0.32532(6) 0.49548(6)
Si4 Si 0.10785(5) -0.33039(6) 0.38752(6)
N1 N 0.01865(17) -0.16440(19) 0.36508(16)
N2 N 0.14137(16) -0.1470(2) 0.32589(18)
N3 N 0.10155(18) -0.13901(19) 0.54289(17)
N4 N 0.22690(17) -0.15536(18) 0.50963(16)
N5 N 0.21890(18) -0.38078(19) 0.51598(18)
N6 N 0.09687(19) -0.3664(2) 0.55848(17)
N7 N 0.15861(18) -0.3762(2) 0.32884(18)
N8 N 0.03579(17) -0.38794(19) 0.36920(18)
C1 C 0.0238(2) -0.1081(2) 0.3217(2)
C2 C 0.0944(2) -0.0972(2) 0.2989(2)
C3 C 0.1080(3) -0.0442(3) 0.2547(2)
H1 H 0.1544 -0.0381 0.2388
C4 C 0.0537(3) 0.0005(3) 0.2331(2)
H2 H 0.0635 0.0366 0.2025
C5 C -0.0144(3) -0.0080(3) 0.2563(3)
H3 H -0.0507 0.0231 0.2422
C6 C -0.0299(2) -0.0622(3) 0.3005(2)
H4 H -0.0765 -0.0678 0.316
C7 C -0.0512(2) -0.1912(3) 0.3847(3)
H5 H -0.081 -0.1501 0.3973
H6 H -0.0455 -0.2222 0.4226
C8 C -0.0886(3) -0.2330(3) 0.3327(3)
H7 H -0.1345 -0.2492 0.3485
H8 H -0.06 -0.2745 0.3207
H9 H -0.0955 -0.2022 0.2954
C9 C 0.2178(2) -0.1424(3) 0.3107(2)
H10 H 0.2236 -0.1395 0.2639
H11 H 0.2412 -0.1867 0.3254
C10 C 0.2542(3) -0.0784(3) 0.3413(3)
H12 H 0.3042 -0.0786 0.3298
H13 H 0.2495 -0.0813 0.3878
H14 H 0.2323 -0.0342 0.3261
C11 C 0.1471(2) -0.0890(2) 0.5714(2)
C12 C 0.2188(2) -0.0981(2) 0.5524(2)
C13 C 0.2702(2) -0.0513(2) 0.5754(2)
H15 H 0.318 -0.0572 0.5631
C14 C 0.2509(3) 0.0046(3) 0.6170(2)
H16 H 0.2856 0.0371 0.6318
C15 C 0.1818(3) 0.0122(3) 0.6363(2)
H17 H 0.1696 0.0492 0.6653
C16 C 0.1294(2) -0.0343(2) 0.6135(2)
H18 H 0.0819 -0.0284 0.6267
C17 C 0.0251(2) -0.1293(3) 0.5488(3)
H19 H 0.0131 -0.1237 0.5945
H20 H 0.0012 -0.1729 0.5331
C18 C -0.0032(2) -0.0647(3) 0.5121(3)
H21 H -0.0543 -0.0611 0.5185
H22 H 0.0069 -0.0705 0.4666
H23 H 0.0195 -0.0211 0.5278
C19 C 0.2977(2) -0.1798(2) 0.4912(2)
H24 H 0.3261 -0.138 0.478
H25 H 0.2936 -0.2121 0.4539
C20 C 0.3365(2) -0.2194(3) 0.5455(3)
H26 H 0.3829 -0.2349 0.5304
H27 H 0.3089 -0.2612 0.5585
H28 H 0.3423 -0.1872 0.5819
C21 C 0.2039(2) -0.4291(2) 0.5648(2)
C22 C 0.1340(2) -0.4214(3) 0.5894(2)
C23 C 0.1102(3) -0.4654(3) 0.6390(2)
H29 H 0.0642 -0.4596 0.6558
C24 C 0.1554(4) -0.5184(3) 0.6635(3)
H30 H 0.1394 -0.549 0.6966
C25 C 0.2221(4) -0.5261(3) 0.6399(3)
H31 H 0.2518 -0.5622 0.6571
C26 C 0.2478(3) -0.4822(3) 0.5912(2)
H32 H 0.2945 -0.4881 0.5759
C27 C 0.2851(2) -0.3880(2) 0.4797(3)
H33 H 0.325 -0.3897 0.5101
H34 H 0.2914 -0.3451 0.4527
C28 C 0.2880(3) -0.4540(3) 0.4375(3)
H35 H 0.3329 -0.455 0.4145
H36 H 0.2491 -0.4526 0.4068
H37 H 0.2838 -0.4969 0.464
C29 C 0.0289(2) -0.3417(3) 0.5838(3)
H38 H -0.0005 -0.3839 0.594
H39 H 0.0042 -0.3141 0.5502
C30 C 0.0351(3) -0.2956(3) 0.6430(3)
H40 H -0.012 -0.2811 0.6571
H41 H 0.063 -0.253 0.6332
H42 H 0.0582 -0.3228 0.677
C31 C 0.1235(2) -0.4342(2) 0.3019(2)
C32 C 0.0529(2) -0.4409(2) 0.3241(2)
C33 C 0.0096(3) -0.4957(3) 0.3012(3)
H43 H -0.038 -0.4993 0.3148
C34 C 0.0378(4) -0.5455(3) 0.2577(3)
H44 H 0.0093 -0.5837 0.2427
C35 C 0.1062(4) -0.5395(3) 0.2366(3)
H45 H 0.1242 -0.5733 0.207
C36 C 0.1495(3) -0.4842(3) 0.2585(2)
H46 H 0.1967 -0.4807 0.2439
C37 C 0.2280(2) -0.3540(3) 0.3037(2)
H47 H 0.2587 -0.3966 0.3004
H48 H 0.2501 -0.3206 0.3344
C38 C 0.2241(3) -0.3179(3) 0.2386(2)
H49 H 0.2716 -0.3044 0.2248
H50 H 0.1947 -0.275 0.2415
H51 H 0.2036 -0.3511 0.2075
C39 C -0.0299(2) -0.3945(3) 0.4072(3)
H52 H -0.0701 -0.4009 0.3777
H53 H -0.0376 -0.3494 0.4309
C40 C -0.0292(3) -0.4567(3) 0.4547(3)
H54 H -0.0741 -0.458 0.4778
H55 H 0.0095 -0.4501 0.485
H56 H -0.0227 -0.5017 0.4316
O9 O -0.0102(3) -0.2163(3) 0.1200(3)
O10 O 0.0681(3) -0.3463(3) 0.1092(3)
C57 C 0.0306(5) -0.2462(6) 0.1678(4)
H97 H 0.0115 -0.2322 0.21
H98 H 0.0794 -0.2279 0.1646
C58 C 0.0308(5) -0.3250(6) 0.1621(4)
H99 H 0.0522 -0.3461 0.2008
H100 H -0.0183 -0.3425 0.1589
C59 C -0.0195(6) -0.1432(5) 0.1256(5)
H101 H -0.05 -0.1262 0.0911
H102 H 0.0263 -0.1193 0.1228
H103 H -0.0413 -0.1324 0.1668
C60 C 0.0580(4) -0.4192(4) 0.0927(5)
H104 H 0.0866 -0.4308 0.0553
H105 H 0.0081 -0.4274 0.0829
H106 H 0.0721 -0.4496 0.1285
loop_
_geom_bond_atom_site_label_1
_geom_bond_atom_site_label_2
_geom_bond_site_symmetry_1
_geom_bond_site_symmetry_2
K1 O1 1_555 1_555
Si1 Si2 1_555 1_555
Si2 Si3 1_555 1_555
Si3 Si4 1_555 1_555
Si4 Si1 1_555 1_555
O1 C41 1_555 1_555
O2 K1 1_555 1_555
O3 K1 1_555 1_555
O4 K1 1_555 1_555
O5 K1 1_555 1_555
O6 K1 1_555 1_555
O7 K1 1_555 1_555
O8 K1 1_555 1_555
O9 C57 1_555 1_555
O10 C58 1_555 1_555
N1 Si1 1_555 1_555
N2 Si1 1_555 1_555
N3 Si2 1_555 1_555
N4 Si2 1_555 1_555
N5 Si3 1_555 1_555
N6 Si3 1_555 1_555
N7 Si4 1_555 1_555
N8 Si4 1_555 1_555
C1 N1 1_555 1_555
C2 N2 1_555 1_555
C3 C2 1_555 1_555
H1 C3 1_555 1_555
C4 C3 1_555 1_555
H2 C4 1_555 1_555
C5 C4 1_555 1_555
H3 C5 1_555 1_555
C6 C1 1_555 1_555
H4 C6 1_555 1_555
C7 N1 1_555 1_555
H5 C7 1_555 1_555
H6 C7 1_555 1_555
C8 C7 1_555 1_555
H7 C8 1_555 1_555
H8 C8 1_555 1_555
H9 C8 1_555 1_555
C9 N2 1_555 1_555
H10 C9 1_555 1_555
H11 C9 1_555 1_555
C10 C9 1_555 1_555
H12 C10 1_555 1_555
H13 C10 1_555 1_555
H14 C10 1_555 1_555
C11 N3 1_555 1_555
C12 N4 1_555 1_555
C13 C12 1_555 1_555
H15 C13 1_555 1_555
C14 C13 1_555 1_555
H16 C14 1_555 1_555
C15 C14 1_555 1_555
H17 C15 1_555 1_555
C16 C11 1_555 1_555
H18 C16 1_555 1_555
C17 N3 1_555 1_555
H19 C17 1_555 1_555
H20 C17 1_555 1_555
C18 C17 1_555 1_555
H21 C18 1_555 1_555
H22 C18 1_555 1_555
H23 C18 1_555 1_555
C19 N4 1_555 1_555
H24 C19 1_555 1_555
H25 C19 1_555 1_555
C20 C19 1_555 1_555
H26 C20 1_555 1_555
H27 C20 1_555 1_555
H28 C20 1_555 1_555
C21 N5 1_555 1_555
C22 N6 1_555 1_555
C23 C22 1_555 1_555
H29 C23 1_555 1_555
C24 C23 1_555 1_555
H30 C24 1_555 1_555
C25 C24 1_555 1_555
H31 C25 1_555 1_555
C26 C21 1_555 1_555
H32 C26 1_555 1_555
C27 N5 1_555 1_555
H33 C27 1_555 1_555
H34 C27 1_555 1_555
C28 C27 1_555 1_555
H35 C28 1_555 1_555
H36 C28 1_555 1_555
H37 C28 1_555 1_555
C29 N6 1_555 1_555
H38 C29 1_555 1_555
H39 C29 1_555 1_555
C30 C29 1_555 1_555
H40 C30 1_555 1_555
H41 C30 1_555 1_555
H42 C30 1_555 1_555
C31 N7 1_555 1_555
C32 N8 1_555 1_555
C33 C32 1_555 1_555
H43 C33 1_555 1_555
C34 C33 1_555 1_555
H44 C34 1_555 1_555
C35 C34 1_555 1_555
H45 C35 1_555 1_555
C36 C31 1_555 1_555
H46 C36 1_555 1_555
C37 N7 1_555 1_555
H47 C37 1_555 1_555
H48 C37 1_555 1_555
C38 C37 1_555 1_555
H49 C38 1_555 1_555
H50 C38 1_555 1_555
H51 C38 1_555 1_555
C39 N8 1_555 1_555
H52 C39 1_555 1_555
H53 C39 1_555 1_555
C40 C39 1_555 1_555
H54 C40 1_555 1_555
H55 C40 1_555 1_555
H56 C40 1_555 1_555
C41 H57 1_555 1_555
H58 C41 1_555 1_555
C42 O2 1_555 1_555
H59 C42 1_555 1_555
H60 C42 1_555 1_555
C43 O1 1_555 1_555
H61 C43 1_555 1_555
H62 C43 1_555 1_555
H63 C43 1_555 1_555
C44 O2 1_555 1_555
H64 C44 1_555 1_555
H65 C44 1_555 1_555
H66 C44 1_555 1_555
C45 O3 1_555 1_555
H67 C45 1_555 1_555
H68 C45 1_555 1_555
C46 O4 1_555 1_555
H69 C46 1_555 1_555
H70 C46 1_555 1_555
C47 O3 1_555 1_555
H71 C47 1_555 1_555
H72 C47 1_555 1_555
H73 C47 1_555 1_555
C48 O4 1_555 1_555
H74 C48 1_555 1_555
H75 C48 1_555 1_555
H76 C48 1_555 1_555
C49 O5 1_555 1_555
H77 C49 1_555 1_555
H78 C49 1_555 1_555
C50 O6 1_555 1_555
H79 C50 1_555 1_555
H80 C50 1_555 1_555
C51 O5 1_555 1_555
H81 C51 1_555 1_555
H82 C51 1_555 1_555
H83 C51 1_555 1_555
C52 O6 1_555 1_555
H84 C52 1_555 1_555
H85 C52 1_555 1_555
H86 C52 1_555 1_555
C53 O7 1_555 1_555
H87 C53 1_555 1_555
H88 C53 1_555 1_555
C54 O8 1_555 1_555
H89 C54 1_555 1_555
H90 C54 1_555 1_555
C55 O7 1_555 1_555
H91 C55 1_555 1_555
H92 C55 1_555 1_555
H93 C55 1_555 1_555
C56 O8 1_555 1_555
H94 C56 1_555 1_555
H95 C56 1_555 1_555
H96 C56 1_555 1_555
C57 H97 1_555 1_555
H98 C57 1_555 1_555
C58 C57 1_555 1_555
H99 C58 1_555 1_555
H100 C58 1_555 1_555
C59 O9 1_555 1_555
H101 C59 1_555 1_555
H102 C59 1_555 1_555
H103 C59 1_555 1_555
C60 O10 1_555 1_555
H104 C60 1_555 1_555
H105 C60 1_555 1_555
H106 C60 1_555 1_555
C1 C2 1_555 1_555
C5 C6 1_555 1_555
C11 C12 1_555 1_555
C15 C16 1_555 1_555
C21 C22 1_555 1_555
C25 C26 1_555 1_555
C31 C32 1_555 1_555
C35 C36 1_555 1_555
C41 C42 1_555 1_555
C45 C46 1_555 1_555
C49 C50 1_555 1_555
C53 C54 1_555 1_555

#END
