
#######################################################################
#
#                 Cambridge Crystallographic Data Centre
#                                CCDC 
#
#######################################################################
#
# If this CIF has been generated from an entry in the Cambridge 
# Structural Database, then it will include bibliographic, chemical, 
# crystal, experimental, refinement or atomic coordinate data resulting 
# from the CCDC's data processing and validation procedures.
#
#######################################################################

data_TEDBIO
_chemical_formula_moiety         
'C136 H228 K4 N16 O2 Si8,C72 H124 K2 N8 O2 Si4,4(C4 H10 O1)'
_chemical_name_systematic        
"bis(\m~3~-\h^2^,\h^2^,\h^2^-1,1:2,2:3,3:4,4-tetrakis(1,2-bis(Neopentylamido)benzene-N,N')-cyclotetrasilanide)-bis(diethyl ether)-tetra-potassium (\m~2~-\h^2^,\h^2^-1,1:2,2:3,3:4,4-tetrakis(1,2-bis(neopentylamido)benzene-N,N')-cyclotetrasilanide)-bis(diethyl ether)-di-potassium diethyl ether solvate"
_symmetry_cell_setting           monoclinic
_symmetry_space_group_name_H-M   'C 2/m'
_symmetry_Int_Tables_number      12
_space_group_name_Hall           '-C 2y'
loop_
_symmetry_equiv_pos_site_id
_symmetry_equiv_pos_as_xyz
1 x,y,z
2 1/2+x,1/2+y,z
3 -x,y,-z
4 1/2-x,1/2+y,-z
5 -x,-y,-z
6 1/2-x,1/2-y,-z
7 x,-y,z
8 1/2+x,1/2-y,z
_cell_length_a                   22.8776(7)
_cell_length_b                   15.9344(6)
_cell_length_c                   33.8306(11)
_cell_angle_alpha                90
_cell_angle_beta                 101.086(2)
_cell_angle_gamma                90
_cell_volume                     12102.5
_exptl_crystal_colour            colorless
_exptl_crystal_description       prism
_cell_formula_units_Z            2
loop_
_atom_site_label
_atom_site_type_symbol
_atom_site_fract_x
_atom_site_fract_y
_atom_site_fract_z
K3 K 0.36302(11) 0.5000 -0.12060(8)
Si5 Si 0.43028(12) 0.5000 -0.02018(8)
Si6 Si 0.51739(12) 0.5000 -0.04519(8)
O2 O 0.2487(5) 0.5000 -0.1593(3)
N5 N 0.3717(3) 0.5779(4) -0.03797(17)
N6 N 0.5204(2) 0.4222(4) -0.08480(17)
C37 C 0.3167(3) 0.5450(5) -0.0320(2)
C38 C 0.2676(3) 0.5876(6) -0.0241(2)
H63 H 0.2674 0.6472 -0.0236
C39 C 0.2183(4) 0.5430(5) -0.0169(2)
H64 H 0.1843 0.5725 -0.012
C40 C 0.3837(3) 0.6677(5) -0.0313(2)
H65 H 0.4274 0.6742 -0.0226
H66 H 0.3656 0.6849 -0.0082
C41 C 0.3633(4) 0.7313(5) -0.0655(2)
C42 C 0.3726(4) 0.7003(7) -0.1054(3)
H67 H 0.3586 0.7427 -0.126
H68 H 0.3502 0.6481 -0.1121
H69 H 0.4151 0.6897 -0.1042
C43 C 0.2993(4) 0.7621(7) -0.0690(3)
H70 H 0.2933 0.7823 -0.0427
H71 H 0.2718 0.7158 -0.078
H72 H 0.2918 0.8079 -0.0886
C44 C 0.4030(4) 0.8088(7) -0.0541(3)
H73 H 0.3978 0.8299 -0.0278
H74 H 0.3917 0.8526 -0.0745
H75 H 0.4448 0.7933 -0.0528
C45 C 0.4964(3) 0.4550(5) -0.1223(2)
C46 C 0.4707(3) 0.4131(5) -0.1572(2)
H76 H 0.4705 0.3535 -0.1574
C47 C 0.4452(3) 0.4565(5) -0.1919(2)
H77 H 0.4278 0.4266 -0.2155
C48 C 0.5383(3) 0.3346(5) -0.0794(2)
H78 H 0.5412 0.3203 -0.0506
H79 H 0.506 0.2998 -0.095
C49 C 0.5971(3) 0.3090(5) -0.0917(2)
C50 C 0.6456(4) 0.3723(6) -0.0754(2)
H80 H 0.6828 0.3559 -0.0836
H81 H 0.6336 0.4281 -0.0862
H82 H 0.6516 0.3736 -0.0459
C51 C 0.5908(4) 0.3019(6) -0.1375(3)
H83 H 0.5594 0.2613 -0.1479
H84 H 0.5802 0.3568 -0.1498
H85 H 0.6286 0.2831 -0.144
C52 C 0.6137(4) 0.2214(6) -0.0735(3)
H86 H 0.5821 0.1814 -0.0842
H87 H 0.6513 0.203 -0.0806
H88 H 0.6183 0.2243 -0.0441
C53 C 0.2074(10) 0.5413(14) -0.1328(7)
H89 H 0.2272 0.5308 -0.1045
H90 H 0.2101 0.6026 -0.137
C54 C 0.1597(10) 0.5282(18) -0.1340(7)
H91 H 0.145 0.5634 -0.1142
H92 H 0.1546 0.531 -0.1277
H93 H 0.1373 0.5407 -0.161
C55 C 0.2224(10) 0.5000 -0.2011(7)
H94 H 0.1966 0.4499 -0.2068
H95 H 0.1966 0.5501 -0.2068
C56 C 0.2624(7) 0.5000 -0.2277(5)
H96 H 0.2402 0.5000 -0.2555
H97 H 0.2875 0.4498 -0.223
H98 H 0.2875 0.5502 -0.223
K3D K 0.63698(11) 0.5000 0.12060(8)
Si5D Si 0.56972(12) 0.5000 0.02018(8)
Si6D Si 0.48261(12) 0.5000 0.04519(8)
O2D O 0.7513(5) 0.5000 0.1593(3)
N5F N 0.3717(3) 0.4221(4) -0.03797(17)
N5D N 0.6283(3) 0.4221(4) 0.03797(17)
N5B N 0.6283(3) 0.5779(4) 0.03797(17)
N6F N 0.5204(2) 0.5778(4) -0.08480(17)
N6D N 0.4796(2) 0.5778(4) 0.08480(17)
N6B N 0.4796(2) 0.4222(4) 0.08480(17)
C37F C 0.3167(3) 0.4550(5) -0.0320(2)
C37D C 0.6833(3) 0.4550(5) 0.0320(2)
C37B C 0.6833(3) 0.5450(5) 0.0320(2)
C38F C 0.2676(3) 0.4124(6) -0.0241(2)
C38B C 0.7324(3) 0.5876(6) 0.0241(2)
C38D C 0.7324(3) 0.4124(6) 0.0241(2)
H63F H 0.2674 0.3528 -0.0236
H63B H 0.7326 0.6472 0.0236
H63D H 0.7326 0.3528 0.0236
C39F C 0.2183(4) 0.4570(5) -0.0169(2)
C39B C 0.7817(4) 0.5430(5) 0.0169(2)
C39D C 0.7817(4) 0.4570(5) 0.0169(2)
H64F H 0.1843 0.4275 -0.012
H64D H 0.8157 0.4275 0.012
H64B H 0.8157 0.5725 0.012
C40F C 0.3837(3) 0.3323(5) -0.0313(2)
C40B C 0.6163(3) 0.6677(5) 0.0313(2)
C40D C 0.6163(3) 0.3323(5) 0.0313(2)
H65F H 0.4274 0.3258 -0.0226
H65B H 0.5726 0.6742 0.0226
H65D H 0.5726 0.3258 0.0226
H66F H 0.3656 0.3151 -0.0082
H66B H 0.6344 0.6849 0.0082
H66D H 0.6344 0.3151 0.0082
C41F C 0.3633(4) 0.2687(5) -0.0655(2)
C41B C 0.6367(4) 0.7313(5) 0.0655(2)
C41D C 0.6367(4) 0.2687(5) 0.0655(2)
C42F C 0.3726(4) 0.2997(7) -0.1054(3)
C42B C 0.6274(4) 0.7003(7) 0.1054(3)
C42D C 0.6274(4) 0.2997(7) 0.1054(3)
H67F H 0.3586 0.2573 -0.126
H67B H 0.6414 0.7427 0.126
H67D H 0.6414 0.2573 0.126
H68F H 0.3502 0.3519 -0.1121
H68B H 0.6498 0.6481 0.1121
H68D H 0.6498 0.3519 0.1121
H69F H 0.4151 0.3103 -0.1042
H69B H 0.5849 0.6897 0.1042
H69D H 0.5849 0.3103 0.1042
C43F C 0.2993(4) 0.2379(7) -0.0690(3)
C43B C 0.7007(4) 0.7621(7) 0.0690(3)
C43D C 0.7007(4) 0.2379(7) 0.0690(3)
H70F H 0.2933 0.2177 -0.0427
H70B H 0.7067 0.7823 0.0427
H70D H 0.7067 0.2177 0.0427
H71F H 0.2718 0.2842 -0.078
H71B H 0.7282 0.7158 0.078
H71D H 0.7282 0.2842 0.078
H72F H 0.2918 0.1921 -0.0886
H72B H 0.7082 0.8079 0.0886
H72D H 0.7082 0.1921 0.0886
C44F C 0.4030(4) 0.1912(7) -0.0541(3)
C44B C 0.5970(4) 0.8088(7) 0.0541(3)
C44D C 0.5970(4) 0.1912(7) 0.0541(3)
H73F H 0.3978 0.1701 -0.0278
H73B H 0.6022 0.8299 0.0278
H73D H 0.6022 0.1701 0.0278
H74F H 0.3917 0.1474 -0.0745
H74B H 0.6083 0.8526 0.0745
H74D H 0.6083 0.1474 0.0745
H75F H 0.4448 0.2067 -0.0528
H75B H 0.5552 0.7933 0.0528
H75D H 0.5552 0.2067 0.0528
C45F C 0.4964(3) 0.5450(5) -0.1223(2)
C45D C 0.5036(3) 0.5450(5) 0.1223(2)
C45B C 0.5036(3) 0.4550(5) 0.1223(2)
C46F C 0.4707(3) 0.5869(5) -0.1572(2)
C46D C 0.5293(3) 0.5869(5) 0.1572(2)
C46B C 0.5293(3) 0.4131(5) 0.1572(2)
H76F H 0.4705 0.6465 -0.1574
H76D H 0.5295 0.6465 0.1574
H76B H 0.5295 0.3535 0.1574
C47F C 0.4452(3) 0.5435(5) -0.1919(2)
C47D C 0.5548(3) 0.5435(5) 0.1919(2)
C47B C 0.5548(3) 0.4565(5) 0.1919(2)
H77F H 0.4278 0.5734 -0.2155
H77B H 0.5722 0.4266 0.2155
H77D H 0.5722 0.5734 0.2155
C48F C 0.5383(3) 0.6654(5) -0.0794(2)
C48B C 0.4617(3) 0.3346(5) 0.0794(2)
C48D C 0.4617(3) 0.6654(5) 0.0794(2)
H78F H 0.5412 0.6797 -0.0506
H78B H 0.4588 0.3203 0.0506
H78D H 0.4588 0.6797 0.0506
H79F H 0.506 0.7002 -0.095
H79B H 0.494 0.2998 0.095
H79D H 0.494 0.7002 0.095
C49F C 0.5971(3) 0.6910(5) -0.0917(2)
C49B C 0.4029(3) 0.3090(5) 0.0917(2)
C49D C 0.4029(3) 0.6910(5) 0.0917(2)
C50F C 0.6456(4) 0.6277(6) -0.0754(2)
C50B C 0.3544(4) 0.3723(6) 0.0754(2)
C50D C 0.3544(4) 0.6277(6) 0.0754(2)
H80F H 0.6828 0.6441 -0.0836
H80B H 0.3172 0.3559 0.0836
H80D H 0.3172 0.6441 0.0836
H81F H 0.6336 0.5719 -0.0862
H81B H 0.3664 0.4281 0.0862
H81D H 0.3664 0.5719 0.0862
H82F H 0.6516 0.6264 -0.0459
H82B H 0.3484 0.3736 0.0459
H82D H 0.3484 0.6264 0.0459
C51F C 0.5908(4) 0.6981(6) -0.1375(3)
C51B C 0.4092(4) 0.3019(6) 0.1375(3)
C51D C 0.4092(4) 0.6981(6) 0.1375(3)
H83F H 0.5594 0.7387 -0.1479
H83B H 0.4406 0.2613 0.1479
H83D H 0.4406 0.7387 0.1479
H84F H 0.5802 0.6432 -0.1498
H84B H 0.4198 0.3568 0.1498
H84D H 0.4198 0.6432 0.1498
H85F H 0.6286 0.7169 -0.144
H85B H 0.3714 0.2831 0.144
H85D H 0.3714 0.7169 0.144
C52F C 0.6137(4) 0.7786(6) -0.0735(3)
C52B C 0.3863(4) 0.2214(6) 0.0735(3)
C52D C 0.3863(4) 0.7786(6) 0.0735(3)
H86F H 0.5821 0.8186 -0.0842
H86B H 0.4179 0.1814 0.0842
H86D H 0.4179 0.8186 0.0842
H87F H 0.6513 0.797 -0.0806
H87B H 0.3487 0.203 0.0806
H87D H 0.3487 0.797 0.0806
H88F H 0.6183 0.7757 -0.0441
H88B H 0.3817 0.2243 0.0441
H88D H 0.3817 0.7757 0.0441
C53F C 0.2074(10) 0.4587(14) -0.1328(7)
C53D C 0.7926(10) 0.4587(14) 0.1328(7)
C53B C 0.7926(10) 0.5413(14) 0.1328(7)
H89F H 0.2272 0.4692 -0.1045
H89B H 0.7728 0.5308 0.1045
H89D H 0.7728 0.4692 0.1045
H90F H 0.2101 0.3974 -0.137
H90B H 0.7899 0.6026 0.137
H90D H 0.7899 0.3974 0.137
C54F C 0.1597(10) 0.4718(18) -0.1340(7)
C54B C 0.8403(10) 0.5282(18) 0.1340(7)
C54D C 0.8403(10) 0.4718(18) 0.1340(7)
H91F H 0.145 0.4366 -0.1142
H91B H 0.855 0.5634 0.1142
H91D H 0.855 0.4366 0.1142
H92F H 0.1546 0.469 -0.1277
H92B H 0.8454 0.531 0.1277
H92D H 0.8454 0.469 0.1277
H93F H 0.1373 0.4593 -0.161
H93D H 0.8627 0.4593 0.161
H93B H 0.8627 0.5407 0.161
C55D C 0.7776(10) 0.5000 0.2011(7)
H94D H 0.8034 0.5501 0.2068
H94B H 0.8034 0.4499 0.2068
C56D C 0.7376(7) 0.5000 0.2277(5)
H96D H 0.7598 0.5000 0.2555
H97D H 0.7125 0.5502 0.223
H97B H 0.7125 0.4498 0.223
O4 O 0.1186(4) 0.0000 0.3816(3)
C59 C 0.1742(8) 0.0000 0.4048(5)
H99 H 0.1961 0.0502 0.3983
H100 H 0.1961 -0.0502 0.3983
C60 C 0.1728(8) 0.0000 0.4477(5)
H101 H 0.2137 0.0000 0.4633
H102 H 0.152 -0.0502 0.4544
H103 H 0.152 0.0502 0.4544
C61 C 0.1137(7) 0.0000 0.3402(5)
H104 H 0.1344 -0.0501 0.3325
H105 H 0.1344 0.0501 0.3325
C62 C 0.0540(8) 0.0000 0.3181(5)
H106 H 0.0544 0.0000 0.2892
H107 H 0.0333 0.0502 0.3249
H108 H 0.0333 -0.0502 0.3249
K1 K -0.04154(10) 0.5000 0.41759(7)
K2 K 0.25160(11) 0.5000 0.26550(7)
Si1 Si 0.03212(12) 0.5000 0.32330(8)
Si2 Si 0.09191(12) 0.5000 0.38625(8)
Si3 Si 0.17758(12) 0.5000 0.36001(8)
Si4 Si 0.11777(12) 0.5000 0.29687(8)
O1 O 0.2788(5) 0.5000 0.1934(3)
N1 N -0.0277(3) 0.5772(4) 0.31532(17)
N2 N 0.0796(2) 0.4214(4) 0.42424(16)
N3 N 0.2371(2) 0.5779(4) 0.36838(16)
N4 N 0.1301(2) 0.5773(4) 0.25896(16)
C1 C -0.0786(3) 0.5443(5) 0.3264(2)
C2 C -0.1251(3) 0.5874(6) 0.3383(2)
H1 H -0.1254 0.647 0.3384
C3 C -0.1720(4) 0.5420(5) 0.3504(2)
H2 H -0.2038 0.5715 0.3585
C4 C -0.0236(3) 0.6648(5) 0.3051(2)
H3 H 0.0191 0.6791 0.3081
H4 H -0.0397 0.6983 0.3252
C5 C -0.0557(3) 0.6934(5) 0.2625(2)
C6 C -0.0305(4) 0.7801(6) 0.2547(3)
H5 H -0.0498 0.8 0.2279
H6 H 0.0125 0.7756 0.2559
H7 H -0.0383 0.8198 0.2752
C7 C -0.0448(4) 0.6298(5) 0.2309(2)
H8 H -0.0657 0.6479 0.2042
H9 H -0.0596 0.5747 0.2372
H10 H -0.0019 0.6262 0.2311
C8 C -0.1228(4) 0.7029(6) 0.2595(3)
H11 H -0.1412 0.7197 0.2321
H12 H -0.1306 0.7458 0.2786
H13 H -0.1397 0.6492 0.2659
C9 C 0.0991(3) 0.4551(4) 0.4628(2)
C10 C 0.1205(3) 0.4133(5) 0.4983(2)
H14 H 0.1209 0.3537 0.4985
C11 C -0.1413(3) 0.5437(5) 0.4660(2)
H15 H -0.1555 0.5737 0.4418
C12 C 0.0888(3) 0.3328(4) 0.4166(2)
H16 H 0.0924 0.3278 0.388
H17 H 0.128 0.317 0.433
C13 C 0.0431(3) 0.2653(5) 0.4245(2)
C14 C 0.0592(4) 0.2268(6) 0.4670(2)
H18 H 0.0996 0.2035 0.4711
H19 H 0.0574 0.2704 0.4871
H20 H 0.0309 0.182 0.4697
C15 C 0.0464(4) 0.1937(6) 0.3945(3)
H21 H 0.0872 0.1719 0.3987
H22 H 0.0192 0.1485 0.3988
H23 H 0.035 0.2149 0.3669
C16 C -0.0193(4) 0.3003(6) 0.4185(2)
H24 H -0.0206 0.3455 0.438
H25 H -0.0308 0.3224 0.3911
H26 H -0.047 0.2557 0.4227
C17 C 0.2881(3) 0.5446(4) 0.3567(2)
C18 C 0.3331(3) 0.5882(5) 0.3433(2)
H27 H 0.3327 0.6478 0.3425
C19 C 0.3796(4) 0.5427(5) 0.3308(2)
H28 H 0.4111 0.5722 0.3223
C20 C 0.2331(3) 0.6657(5) 0.3785(2)
H29 H 0.1904 0.6801 0.3761
H30 H 0.2486 0.6993 0.3582
C21 C 0.2661(3) 0.6933(5) 0.4208(2)
C22 C 0.2423(4) 0.7798(6) 0.4293(3)
H31 H 0.2623 0.7989 0.456
H32 H 0.1993 0.7761 0.4285
H33 H 0.2499 0.8197 0.4088
C23 C 0.2573(4) 0.6301(6) 0.4529(2)
H34 H 0.2724 0.5751 0.4466
H35 H 0.2148 0.6255 0.4536
H36 H 0.279 0.6489 0.4793
C24 C 0.3340(4) 0.7037(6) 0.4226(3)
H37 H 0.3511 0.6498 0.4167
H38 H 0.3531 0.7223 0.4496
H39 H 0.3408 0.7455 0.4027
C25 C 0.1081(3) 0.5445(5) 0.2206(2)
C26 C 0.0842(3) 0.5874(6) 0.1857(2)
H40 H 0.0834 0.647 0.1857
C27 C 0.0610(4) 0.5426(5) 0.1502(3)
H41 H 0.0454 0.5723 0.1261
C28 C 0.1235(3) 0.6675(5) 0.2664(2)
H42 H 0.1207 0.6738 0.2951
H43 H 0.0847 0.6853 0.2503
C29 C 0.1712(3) 0.7311(5) 0.2578(2)
C30 C 0.1638(4) 0.8089(6) 0.2836(2)
H44 H 0.1236 0.8319 0.2751
H45 H 0.1932 0.8514 0.28
H46 H 0.1698 0.7927 0.312
C31 C 0.2337(4) 0.6963(6) 0.2709(3)
H47 H 0.2394 0.6777 0.299
H48 H 0.2629 0.7401 0.2684
H49 H 0.2393 0.6485 0.2537
C32 C 0.1630(4) 0.7594(6) 0.2145(2)
H50 H 0.1229 0.7825 0.2059
H51 H 0.1683 0.7114 0.1974
H52 H 0.1925 0.8027 0.212
C33 C 0.3360(9) 0.5000 0.1831(6)
H53 H 0.3397 0.5502 0.1665
H54 H 0.3397 0.4498 0.1665
C34 C 0.3846(7) 0.5000 0.2180(5)
H55 H 0.4228 0.5000 0.2089
H56 H 0.3818 0.4498 0.2343
H57 H 0.3818 0.5502 0.2343
C35 C 0.2324(8) 0.5458(12) 0.1600(5)
H58 H 0.1955 0.5568 0.1704
H59 H 0.2489 0.6006 0.1538
C36 C 0.2191(9) 0.5000 0.1262(6)
H60 H 0.1893 0.5297 0.1064
H61 H 0.2031 0.5545 0.1324
H62 H 0.2552 0.4913 0.1151
K1D K 0.04154(10) 0.5000 0.58241(7)
K2D K -0.25160(11) 0.5000 0.73450(7)
Si1D Si -0.03212(12) 0.5000 0.67670(8)
Si2D Si -0.09191(12) 0.5000 0.61375(8)
Si3D Si -0.17758(12) 0.5000 0.63999(8)
Si4D Si -0.11777(12) 0.5000 0.70313(8)
O1D O -0.2788(5) 0.5000 0.8066(3)
N1F N -0.0277(3) 0.4228(4) 0.31532(17)
N1D N 0.0277(3) 0.4228(4) 0.68468(17)
N1B N 0.0277(3) 0.5772(4) 0.68468(17)
N2D N -0.0796(2) 0.5786(4) 0.57576(16)
N2B N -0.0796(2) 0.4214(4) 0.57576(16)
N2F N 0.0796(2) 0.5786(4) 0.42424(16)
N3D N -0.2371(2) 0.4221(4) 0.63162(16)
N3B N -0.2371(2) 0.5779(4) 0.63162(16)
N3F N 0.2371(2) 0.4221(4) 0.36838(16)
N4D N -0.1301(2) 0.4227(4) 0.74104(16)
N4B N -0.1301(2) 0.5773(4) 0.74104(16)
N4F N 0.1301(2) 0.4227(4) 0.25896(16)
C1F C -0.0786(3) 0.4557(5) 0.3264(2)
C1D C 0.0786(3) 0.4557(5) 0.6736(2)
C1B C 0.0786(3) 0.5443(5) 0.6736(2)
C2D C 0.1251(3) 0.4126(6) 0.6617(2)
C2B C 0.1251(3) 0.5874(6) 0.6617(2)
C2F C -0.1251(3) 0.4126(6) 0.3383(2)
H1D H 0.1254 0.353 0.6616
H1B H 0.1254 0.647 0.6616
H1F H -0.1254 0.353 0.3384
C3D C 0.1720(4) 0.4580(5) 0.6496(2)
C3B C 0.1720(4) 0.5420(5) 0.6496(2)
C3F C -0.1720(4) 0.4580(5) 0.3504(2)
H2B H 0.2038 0.5715 0.6415
H2D H 0.2038 0.4285 0.6415
H2F H -0.2038 0.4285 0.3585
C4B C 0.0236(3) 0.6648(5) 0.6949(2)
C4D C 0.0236(3) 0.3352(5) 0.6949(2)
C4F C -0.0236(3) 0.3352(5) 0.3051(2)
H3B H -0.0191 0.6791 0.6919
H3D H -0.0191 0.3209 0.6919
H3F H 0.0191 0.3209 0.3081
H4B H 0.0397 0.6983 0.6748
H4D H 0.0397 0.3017 0.6748
H4F H -0.0397 0.3017 0.3252
C5B C 0.0557(3) 0.6934(5) 0.7375(2)
C5D C 0.0557(3) 0.3066(5) 0.7375(2)
C5F C -0.0557(3) 0.3066(5) 0.2625(2)
C6B C 0.0305(4) 0.7801(6) 0.7453(3)
C6D C 0.0305(4) 0.2199(6) 0.7453(3)
C6F C -0.0305(4) 0.2199(6) 0.2547(3)
H5B H 0.0498 0.8 0.7721
H5D H 0.0498 0.2 0.7721
H5F H -0.0498 0.2 0.2279
H6B H -0.0125 0.7756 0.7441
H6D H -0.0125 0.2244 0.7441
H6F H 0.0125 0.2244 0.2559
H7B H 0.0383 0.8198 0.7248
H7D H 0.0383 0.1802 0.7248
H7F H -0.0383 0.1802 0.2752
C7B C 0.0448(4) 0.6298(5) 0.7691(2)
C7D C 0.0448(4) 0.3702(5) 0.7691(2)
C7F C -0.0448(4) 0.3702(5) 0.2309(2)
H8B H 0.0657 0.6479 0.7958
H8D H 0.0657 0.3521 0.7958
H8F H -0.0657 0.3521 0.2042
H9B H 0.0596 0.5747 0.7628
H9D H 0.0596 0.4253 0.7628
H9F H -0.0596 0.4253 0.2372
H10B H 0.0019 0.6262 0.7689
H10D H 0.0019 0.3738 0.7689
H10F H -0.0019 0.3738 0.2311
C8B C 0.1228(4) 0.7029(6) 0.7405(3)
C8D C 0.1228(4) 0.2971(6) 0.7405(3)
C8F C -0.1228(4) 0.2971(6) 0.2595(3)
H11B H 0.1412 0.7197 0.7679
H11D H 0.1412 0.2803 0.7679
H11F H -0.1412 0.2803 0.2321
H12B H 0.1306 0.7458 0.7214
H12D H 0.1306 0.2542 0.7214
H12F H -0.1306 0.2542 0.2786
H13B H 0.1397 0.6492 0.7341
H13D H 0.1397 0.3508 0.7341
H13F H -0.1397 0.3508 0.2659
C9D C -0.0991(3) 0.5449(4) 0.5372(2)
C9B C -0.0991(3) 0.4551(4) 0.5372(2)
C9F C 0.0991(3) 0.5449(4) 0.4628(2)
C10D C -0.1205(3) 0.5867(5) 0.5017(2)
C10B C -0.1205(3) 0.4133(5) 0.5017(2)
C10F C 0.1205(3) 0.5867(5) 0.4983(2)
H14B H -0.1209 0.3537 0.5015
H14F H 0.1209 0.6463 0.4985
H14D H -0.1209 0.6463 0.5015
C11F C -0.1413(3) 0.4563(5) 0.4660(2)
C11D C 0.1413(3) 0.4563(5) 0.5340(2)
C11B C 0.1413(3) 0.5437(5) 0.5340(2)
H15F H -0.1555 0.4263 0.4418
H15D H 0.1555 0.4263 0.5582
H15B H 0.1555 0.5737 0.5582
C12B C -0.0888(3) 0.3328(4) 0.5834(2)
C12F C 0.0888(3) 0.6672(4) 0.4166(2)
C12D C -0.0888(3) 0.6672(4) 0.5834(2)
H16B H -0.0924 0.3278 0.612
H16F H 0.0924 0.6722 0.388
H16D H -0.0924 0.6722 0.612
H17B H -0.128 0.317 0.567
H17F H 0.128 0.683 0.433
H17D H -0.128 0.683 0.567
C13B C -0.0431(3) 0.2653(5) 0.5755(2)
C13F C 0.0431(3) 0.7347(5) 0.4245(2)
C13D C -0.0431(3) 0.7347(5) 0.5755(2)
C14B C -0.0592(4) 0.2268(6) 0.5330(2)
C14F C 0.0592(4) 0.7732(6) 0.4670(2)
C14D C -0.0592(4) 0.7732(6) 0.5330(2)
H18B H -0.0996 0.2035 0.5289
H18F H 0.0996 0.7965 0.4711
H18D H -0.0996 0.7965 0.5289
H19B H -0.0574 0.2704 0.5129
H19F H 0.0574 0.7296 0.4871
H19D H -0.0574 0.7296 0.5129
H20B H -0.0309 0.182 0.5303
H20F H 0.0309 0.818 0.4697
H20D H -0.0309 0.818 0.5303
C15B C -0.0464(4) 0.1937(6) 0.6055(3)
C15F C 0.0464(4) 0.8063(6) 0.3945(3)
C15D C -0.0464(4) 0.8063(6) 0.6055(3)
H21B H -0.0872 0.1719 0.6013
H21F H 0.0872 0.8281 0.3987
H21D H -0.0872 0.8281 0.6013
H22B H -0.0192 0.1485 0.6012
H22F H 0.0192 0.8515 0.3988
H22D H -0.0192 0.8515 0.6012
H23B H -0.035 0.2149 0.6331
H23F H 0.035 0.7851 0.3669
H23D H -0.035 0.7851 0.6331
C16B C 0.0193(4) 0.3003(6) 0.5815(2)
C16F C -0.0193(4) 0.6997(6) 0.4185(2)
C16D C 0.0193(4) 0.6997(6) 0.5815(2)
H24B H 0.0206 0.3455 0.562
H24F H -0.0206 0.6545 0.438
H24D H 0.0206 0.6545 0.562
H25B H 0.0308 0.3224 0.6089
H25F H -0.0308 0.6776 0.3911
H25D H 0.0308 0.6776 0.6089
H26B H 0.047 0.2557 0.5773
H26F H -0.047 0.7443 0.4227
H26D H 0.047 0.7443 0.5773
C17D C -0.2881(3) 0.4554(4) 0.6433(2)
C17B C -0.2881(3) 0.5446(4) 0.6433(2)
C17F C 0.2881(3) 0.4554(4) 0.3567(2)
C18D C -0.3331(3) 0.4118(5) 0.6567(2)
C18B C -0.3331(3) 0.5882(5) 0.6567(2)
C18F C 0.3331(3) 0.4118(5) 0.3433(2)
H27D H -0.3327 0.3522 0.6575
H27B H -0.3327 0.6478 0.6575
H27F H 0.3327 0.3522 0.3425
C19D C -0.3796(4) 0.4573(5) 0.6692(2)
C19B C -0.3796(4) 0.5427(5) 0.6692(2)
C19F C 0.3796(4) 0.4573(5) 0.3308(2)
H28B H -0.4111 0.5722 0.6777
H28D H -0.4111 0.4278 0.6777
H28F H 0.4111 0.4278 0.3223
C20B C -0.2331(3) 0.6657(5) 0.6215(2)
C20D C -0.2331(3) 0.3343(5) 0.6215(2)
C20F C 0.2331(3) 0.3343(5) 0.3785(2)
H29B H -0.1904 0.6801 0.6239
H29D H -0.1904 0.3199 0.6239
H29F H 0.1904 0.3199 0.3761
H30B H -0.2486 0.6993 0.6418
H30D H -0.2486 0.3007 0.6418
H30F H 0.2486 0.3007 0.3582
C21B C -0.2661(3) 0.6933(5) 0.5792(2)
C21D C -0.2661(3) 0.3067(5) 0.5792(2)
C21F C 0.2661(3) 0.3067(5) 0.4208(2)
C22B C -0.2423(4) 0.7798(6) 0.5707(3)
C22D C -0.2423(4) 0.2202(6) 0.5707(3)
C22F C 0.2423(4) 0.2202(6) 0.4293(3)
H31B H -0.2623 0.7989 0.544
H31D H -0.2623 0.2011 0.544
H31F H 0.2623 0.2011 0.456
H32B H -0.1993 0.7761 0.5715
H32D H -0.1993 0.2239 0.5715
H32F H 0.1993 0.2239 0.4285
H33B H -0.2499 0.8197 0.5912
H33D H -0.2499 0.1803 0.5912
H33F H 0.2499 0.1803 0.4088
C23B C -0.2573(4) 0.6301(6) 0.5471(2)
C23D C -0.2573(4) 0.3699(6) 0.5471(2)
C23F C 0.2573(4) 0.3699(6) 0.4529(2)
H34B H -0.2724 0.5751 0.5534
H34D H -0.2724 0.4249 0.5534
H34F H 0.2724 0.4249 0.4466
H35B H -0.2148 0.6255 0.5464
H35D H -0.2148 0.3745 0.5464
H35F H 0.2148 0.3745 0.4536
H36B H -0.279 0.6489 0.5207
H36D H -0.279 0.3511 0.5207
H36F H 0.279 0.3511 0.4793
C24B C -0.3340(4) 0.7037(6) 0.5774(3)
C24D C -0.3340(4) 0.2963(6) 0.5774(3)
C24F C 0.3340(4) 0.2963(6) 0.4226(3)
H37B H -0.3511 0.6498 0.5833
H37D H -0.3511 0.3502 0.5833
H37F H 0.3511 0.3502 0.4167
H38B H -0.3531 0.7223 0.5504
H38D H -0.3531 0.2777 0.5504
H38F H 0.3531 0.2777 0.4496
H39B H -0.3408 0.7455 0.5973
H39D H -0.3408 0.2545 0.5973
H39F H 0.3408 0.2545 0.4027
C25D C -0.1081(3) 0.4555(5) 0.7794(2)
C25B C -0.1081(3) 0.5445(5) 0.7794(2)
C25F C 0.1081(3) 0.4555(5) 0.2206(2)
C26B C -0.0842(3) 0.5874(6) 0.8143(2)
C26D C -0.0842(3) 0.4126(6) 0.8143(2)
C26F C 0.0842(3) 0.4126(6) 0.1857(2)
H40B H -0.0834 0.647 0.8143
H40D H -0.0834 0.353 0.8143
H40F H 0.0834 0.353 0.1857
C27B C -0.0610(4) 0.5426(5) 0.8498(3)
C27D C -0.0610(4) 0.4574(5) 0.8498(3)
C27F C 0.0610(4) 0.4574(5) 0.1502(3)
H41D H -0.0454 0.4277 0.8739
H41B H -0.0454 0.5723 0.8739
H41F H 0.0454 0.4277 0.1261
C28B C -0.1235(3) 0.6675(5) 0.7336(2)
C28D C -0.1235(3) 0.3325(5) 0.7336(2)
C28F C 0.1235(3) 0.3325(5) 0.2664(2)
H42B H -0.1207 0.6738 0.7049
H42D H -0.1207 0.3262 0.7049
H42F H 0.1207 0.3262 0.2951
H43B H -0.0847 0.6853 0.7497
H43D H -0.0847 0.3147 0.7497
H43F H 0.0847 0.3147 0.2503
C29B C -0.1712(3) 0.7311(5) 0.7422(2)
C29D C -0.1712(3) 0.2689(5) 0.7422(2)
C29F C 0.1712(3) 0.2689(5) 0.2578(2)
C30B C -0.1638(4) 0.8089(6) 0.7164(2)
C30D C -0.1638(4) 0.1911(6) 0.7164(2)
C30F C 0.1638(4) 0.1911(6) 0.2836(2)
H44B H -0.1236 0.8319 0.7249
H44D H -0.1236 0.1681 0.7249
H44F H 0.1236 0.1681 0.2751
H45B H -0.1932 0.8514 0.72
H45D H -0.1932 0.1486 0.72
H45F H 0.1932 0.1486 0.28
H46B H -0.1698 0.7927 0.688
H46D H -0.1698 0.2073 0.688
H46F H 0.1698 0.2073 0.312
C31B C -0.2337(4) 0.6963(6) 0.7291(3)
C31D C -0.2337(4) 0.3037(6) 0.7291(3)
C31F C 0.2337(4) 0.3037(6) 0.2709(3)
H47B H -0.2394 0.6777 0.701
H47D H -0.2394 0.3223 0.701
H47F H 0.2394 0.3223 0.299
H48B H -0.2629 0.7401 0.7316
H48D H -0.2629 0.2599 0.7316
H48F H 0.2629 0.2599 0.2684
H49B H -0.2393 0.6485 0.7463
H49D H -0.2393 0.3515 0.7463
H49F H 0.2393 0.3515 0.2537
C32B C -0.1630(4) 0.7594(6) 0.7855(2)
C32D C -0.1630(4) 0.2406(6) 0.7855(2)
C32F C 0.1630(4) 0.2406(6) 0.2145(2)
H50B H -0.1229 0.7825 0.7941
H50D H -0.1229 0.2175 0.7941
H50F H 0.1229 0.2175 0.2059
H51B H -0.1683 0.7114 0.8026
H51D H -0.1683 0.2886 0.8026
H51F H 0.1683 0.2886 0.1974
H52B H -0.1925 0.8027 0.788
H52D H -0.1925 0.1973 0.788
H52F H 0.1925 0.1973 0.212
C33D C -0.3360(9) 0.5000 0.8169(6)
H53D H -0.3397 0.4498 0.8335
H53B H -0.3397 0.5502 0.8335
C34D C -0.3846(7) 0.5000 0.7820(5)
H55D H -0.4228 0.5000 0.7911
H56D H -0.3818 0.5502 0.7657
H56B H -0.3818 0.4498 0.7657
C35D C -0.2324(8) 0.4542(12) 0.8400(5)
C35B C -0.2324(8) 0.5458(12) 0.8400(5)
C35F C 0.2324(8) 0.4542(12) 0.1600(5)
H58B H -0.1955 0.5568 0.8296
H58D H -0.1955 0.4432 0.8296
H58F H 0.1955 0.4432 0.1704
H59B H -0.2489 0.6006 0.8462
H59D H -0.2489 0.3994 0.8462
H59F H 0.2489 0.3994 0.1538
C36D C -0.2191(9) 0.5000 0.8738(6)
H60B H -0.1893 0.5297 0.8936
H60D H -0.1893 0.4703 0.8936
H60F H 0.1893 0.4703 0.1064
H61D H -0.2031 0.4455 0.8676
H61B H -0.2031 0.5545 0.8676
H61F H 0.2031 0.4455 0.1324
H62B H -0.2552 0.4913 0.8849
H62D H -0.2552 0.5087 0.8849
H62F H 0.2552 0.5087 0.1151
O3? O 0.50000 0.0000 0.00000
O5? O 0.00000 0.0000 0.50000
C57? C 0.474(2) 0.014(11) 0.0317(15)
C58? C 0.4478(12) 0.0000 0.0560(8)
C63? C 0.0389(13) 0.0000 0.5322(9)
H109? H 0.061 -0.0487 0.5242
H110? H 0.061 0.0487 0.5242
C64? C 0.0635(15) 0.0000 0.5646(10)
H111? H 0.1065 0.0000 0.5653
H112? H 0.0526 -0.0502 0.5782
H113? H 0.0526 0.0502 0.5782
loop_
_geom_bond_atom_site_label_1
_geom_bond_atom_site_label_2
_geom_bond_site_symmetry_1
_geom_bond_site_symmetry_2
K1 C1 1_555 1_555
K2 O1 1_555 1_555
Si1 Si2 1_555 1_555
Si2 Si3 1_555 1_555
Si3 Si4 1_555 1_555
Si4 Si1 1_555 1_555
O1 C33 1_555 1_555
N1 Si1 1_555 1_555
N2 Si2 1_555 1_555
N3 Si3 1_555 1_555
N4 Si4 1_555 1_555
C1 N1 1_555 1_555
C2 C1 1_555 1_555
H1 C2 1_555 1_555
C3 C2 1_555 1_555
H2 C3 1_555 1_555
C4 N1 1_555 1_555
H3 C4 1_555 1_555
H4 C4 1_555 1_555
C5 C4 1_555 1_555
C6 C5 1_555 1_555
H5 C6 1_555 1_555
H6 C6 1_555 1_555
H7 C6 1_555 1_555
C7 C5 1_555 1_555
H8 C7 1_555 1_555
H9 C7 1_555 1_555
H10 C7 1_555 1_555
C8 C5 1_555 1_555
H11 C8 1_555 1_555
H12 C8 1_555 1_555
H13 C8 1_555 1_555
C9 N2 1_555 1_555
C10 C9 1_555 1_555
H14 C10 1_555 1_555
C11 K1 1_555 1_555
H15 C11 1_555 1_555
C12 N2 1_555 1_555
H16 C12 1_555 1_555
H17 C12 1_555 1_555
C13 C12 1_555 1_555
C14 C13 1_555 1_555
H18 C14 1_555 1_555
H19 C14 1_555 1_555
H20 C14 1_555 1_555
C15 C13 1_555 1_555
H21 C15 1_555 1_555
H22 C15 1_555 1_555
H23 C15 1_555 1_555
C16 C13 1_555 1_555
H24 C16 1_555 1_555
H25 C16 1_555 1_555
H26 C16 1_555 1_555
C17 K2 1_555 1_555
C18 C17 1_555 1_555
H27 C18 1_555 1_555
C19 C18 1_555 1_555
H28 C19 1_555 1_555
C20 N3 1_555 1_555
H29 C20 1_555 1_555
H30 C20 1_555 1_555
C21 C20 1_555 1_555
C22 C21 1_555 1_555
H31 C22 1_555 1_555
H32 C22 1_555 1_555
H33 C22 1_555 1_555
C23 C21 1_555 1_555
H34 C23 1_555 1_555
H35 C23 1_555 1_555
H36 C23 1_555 1_555
C24 C21 1_555 1_555
H37 C24 1_555 1_555
H38 C24 1_555 1_555
H39 C24 1_555 1_555
C25 N4 1_555 1_555
C26 C25 1_555 1_555
H40 C26 1_555 1_555
C27 C26 1_555 1_555
H41 C27 1_555 1_555
C28 N4 1_555 1_555
H42 C28 1_555 1_555
H43 C28 1_555 1_555
C29 C28 1_555 1_555
C30 C29 1_555 1_555
H44 C30 1_555 1_555
H45 C30 1_555 1_555
H46 C30 1_555 1_555
C31 C29 1_555 1_555
H47 C31 1_555 1_555
H48 C31 1_555 1_555
H49 C31 1_555 1_555
C32 C29 1_555 1_555
H50 C32 1_555 1_555
H51 C32 1_555 1_555
H52 C32 1_555 1_555
C33 H53 1_555 1_555
H54 C33 1_555 1_555
C34 C33 1_555 1_555
H55 C34 1_555 1_555
H56 C34 1_555 1_555
H57 C34 1_555 1_555
C35 O1 1_555 1_555
H58 C35 1_555 1_555
H59 C35 1_555 1_555
C36 C35 1_555 1_555
H60 C36 1_555 1_555
H61 C35 1_555 1_555
H62 C36 1_555 1_555
K3 O2 1_555 1_555
Si5 Si6 1_555 1_555
Si6 N6 1_555 1_555
O2 C53 1_555 1_555
N5 Si5 1_555 1_555
N6 C45 1_555 1_555
C37 N5 1_555 1_555
C38 C37 1_555 1_555
H63 C38 1_555 1_555
C39 C38 1_555 1_555
H64 C39 1_555 1_555
C40 N5 1_555 1_555
H65 C40 1_555 1_555
H66 C40 1_555 1_555
C41 C40 1_555 1_555
C42 C41 1_555 1_555
H67 C42 1_555 1_555
H68 C42 1_555 1_555
H69 C42 1_555 1_555
C43 C41 1_555 1_555
H70 C43 1_555 1_555
H71 C43 1_555 1_555
H72 C43 1_555 1_555
C44 C41 1_555 1_555
H73 C44 1_555 1_555
H74 C44 1_555 1_555
H75 C44 1_555 1_555
C45 K3 1_555 1_555
C46 C45 1_555 1_555
H76 C46 1_555 1_555
C47 C46 1_555 1_555
H77 C47 1_555 1_555
C48 N6 1_555 1_555
H78 C48 1_555 1_555
H79 C48 1_555 1_555
C49 C48 1_555 1_555
C50 C49 1_555 1_555
H80 C50 1_555 1_555
H81 C50 1_555 1_555
H82 C50 1_555 1_555
C51 C49 1_555 1_555
H83 C51 1_555 1_555
H84 C51 1_555 1_555
H85 C51 1_555 1_555
C52 C49 1_555 1_555
H86 C52 1_555 1_555
H87 C52 1_555 1_555
H88 C52 1_555 1_555
C53 H89 1_555 1_555
H90 C53 1_555 1_555
C54 C53 1_555 1_555
H91 C54 1_555 1_555
H92 C53 1_555 1_555
H93 C54 1_555 1_555
C55 O2 1_555 1_555
H94 C55 1_555 1_555
H95 C55 1_555 1_555
C56 C55 1_555 1_555
H96 C56 1_555 1_555
H97 C56 1_555 1_555
H98 C56 1_555 1_555
O4 C59 1_555 1_555
C59 H99 1_555 1_555
H100 C59 1_555 1_555
C60 C59 1_555 1_555
H101 C60 1_555 1_555
H102 C60 1_555 1_555
H103 C60 1_555 1_555
C61 O4 1_555 1_555
H104 C61 1_555 1_555
H105 C61 1_555 1_555
C62 C61 1_555 1_555
H106 C62 1_555 1_555
H107 C62 1_555 1_555
H108 C62 1_555 1_555
K1D C1D 1_555 1_555
K2D O1D 1_555 1_555
Si1D Si2D 1_555 1_555
Si2D Si3D 1_555 1_555
Si3D Si4D 1_555 1_555
Si4D Si1D 1_555 1_555
O1D C33D 1_555 1_555
N1F Si1 1_555 1_555
N1D Si1D 1_555 1_555
N1B Si1D 1_555 1_555
N2D Si2D 1_555 1_555
N2B Si2D 1_555 1_555
N2F Si2 1_555 1_555
N3D Si3D 1_555 1_555
N3B Si3D 1_555 1_555
N3F Si3 1_555 1_555
N4D Si4D 1_555 1_555
N4B Si4D 1_555 1_555
N4F Si4 1_555 1_555
C1F K1 1_555 1_555
C1D N1D 1_555 1_555
C1B K1D 1_555 1_555
C2D C1D 1_555 1_555
C2B C1B 1_555 1_555
C2F C1F 1_555 1_555
H1D C2D 1_555 1_555
H1B C2B 1_555 1_555
H1F C2F 1_555 1_555
C3D C2D 1_555 1_555
C3B C2B 1_555 1_555
C3F C3 1_555 1_555
H2B C3B 1_555 1_555
H2D C3D 1_555 1_555
H2F C3F 1_555 1_555
C4B N1B 1_555 1_555
C4D N1D 1_555 1_555
C4F N1F 1_555 1_555
H3B C4B 1_555 1_555
H3D C4D 1_555 1_555
H3F C4F 1_555 1_555
H4B C4B 1_555 1_555
H4D C4D 1_555 1_555
H4F C4F 1_555 1_555
C5B C4B 1_555 1_555
C5D C4D 1_555 1_555
C5F C4F 1_555 1_555
C6B C5B 1_555 1_555
C6D C5D 1_555 1_555
C6F C5F 1_555 1_555
H5B C6B 1_555 1_555
H5D C6D 1_555 1_555
H5F C6F 1_555 1_555
H6B C6B 1_555 1_555
H6D C6D 1_555 1_555
H6F C6F 1_555 1_555
H7B C6B 1_555 1_555
H7D C6D 1_555 1_555
H7F C6F 1_555 1_555
C7B C5B 1_555 1_555
C7D C5D 1_555 1_555
C7F C5F 1_555 1_555
H8B C7B 1_555 1_555
H8D C7D 1_555 1_555
H8F C7F 1_555 1_555
H9B C7B 1_555 1_555
H9D C7D 1_555 1_555
H9F C7F 1_555 1_555
H10B C7B 1_555 1_555
H10D C7D 1_555 1_555
H10F C7F 1_555 1_555
C8B C5B 1_555 1_555
C8D C5D 1_555 1_555
C8F C5F 1_555 1_555
H11B C8B 1_555 1_555
H11D C8D 1_555 1_555
H11F C8F 1_555 1_555
H12B C8B 1_555 1_555
H12D C8D 1_555 1_555
H12F C8F 1_555 1_555
H13B C8B 1_555 1_555
H13D C8D 1_555 1_555
H13F C8F 1_555 1_555
C9D N2D 1_555 1_555
C9B N2B 1_555 1_555
C9F C9 1_555 1_555
C10D C11 1_555 1_555
C10B C9B 1_555 1_555
C10F C9F 1_555 1_555
H14B C10B 1_555 1_555
H14F C10F 1_555 1_555
H14D C10D 1_555 1_555
C11F K1 1_555 1_555
C11D C10 1_555 1_555
C11B K1D 1_555 1_555
H15F C11F 1_555 1_555
H15D C11D 1_555 1_555
H15B C11B 1_555 1_555
C12B N2B 1_555 1_555
C12F N2F 1_555 1_555
C12D N2D 1_555 1_555
H16B C12B 1_555 1_555
H16F C12F 1_555 1_555
H16D C12D 1_555 1_555
H17B C12B 1_555 1_555
H17F C12F 1_555 1_555
H17D C12D 1_555 1_555
C13B C12B 1_555 1_555
C13F C12F 1_555 1_555
C13D C12D 1_555 1_555
C14B C13B 1_555 1_555
C14F C13F 1_555 1_555
C14D C13D 1_555 1_555
H18B C14B 1_555 1_555
H18F C14F 1_555 1_555
H18D C14D 1_555 1_555
H19B C14B 1_555 1_555
H19F C14F 1_555 1_555
H19D C14D 1_555 1_555
H20B C14B 1_555 1_555
H20F C14F 1_555 1_555
H20D C14D 1_555 1_555
C15B C13B 1_555 1_555
C15F C13F 1_555 1_555
C15D C13D 1_555 1_555
H21B C15B 1_555 1_555
H21F C15F 1_555 1_555
H21D C15D 1_555 1_555
H22B C15B 1_555 1_555
H22F C15F 1_555 1_555
H22D C15D 1_555 1_555
H23B C15B 1_555 1_555
H23F C15F 1_555 1_555
H23D C15D 1_555 1_555
C16B C13B 1_555 1_555
C16F C13F 1_555 1_555
C16D C13D 1_555 1_555
H24B C16B 1_555 1_555
H24F C16F 1_555 1_555
H24D C16D 1_555 1_555
H25B C16B 1_555 1_555
H25F C16F 1_555 1_555
H25D C16D 1_555 1_555
H26B C16B 1_555 1_555
H26F C16F 1_555 1_555
H26D C16D 1_555 1_555
C17D K2D 1_555 1_555
C17B K2D 1_555 1_555
C17F K2 1_555 1_555
C18D C17D 1_555 1_555
C18B C17B 1_555 1_555
C18F C17F 1_555 1_555
H27D C18D 1_555 1_555
H27B C18B 1_555 1_555
H27F C18F 1_555 1_555
C19D C18D 1_555 1_555
C19B C18B 1_555 1_555
C19F C19 1_555 1_555
H28B C19B 1_555 1_555
H28D C19D 1_555 1_555
H28F C19F 1_555 1_555
C20B N3B 1_555 1_555
C20D N3D 1_555 1_555
C20F N3F 1_555 1_555
H29B C20B 1_555 1_555
H29D C20D 1_555 1_555
H29F C20F 1_555 1_555
H30B C20B 1_555 1_555
H30D C20D 1_555 1_555
H30F C20F 1_555 1_555
C21B C20B 1_555 1_555
C21D C20D 1_555 1_555
C21F C20F 1_555 1_555
C22B C21B 1_555 1_555
C22D C21D 1_555 1_555
C22F C21F 1_555 1_555
H31B C22B 1_555 1_555
H31D C22D 1_555 1_555
H31F C22F 1_555 1_555
H32B C22B 1_555 1_555
H32D C22D 1_555 1_555
H32F C22F 1_555 1_555
H33B C22B 1_555 1_555
H33D C22D 1_555 1_555
H33F C22F 1_555 1_555
C23B C21B 1_555 1_555
C23D C21D 1_555 1_555
C23F C21F 1_555 1_555
H34B C23B 1_555 1_555
H34D C23D 1_555 1_555
H34F C23F 1_555 1_555
H35B C23B 1_555 1_555
H35D C23D 1_555 1_555
H35F C23F 1_555 1_555
H36B C23B 1_555 1_555
H36D C23D 1_555 1_555
H36F C23F 1_555 1_555
C24B C21B 1_555 1_555
C24D C21D 1_555 1_555
C24F C21F 1_555 1_555
H37B C24B 1_555 1_555
H37D C24D 1_555 1_555
H37F C24F 1_555 1_555
H38B C24B 1_555 1_555
H38D C24D 1_555 1_555
H38F C24F 1_555 1_555
H39B C24B 1_555 1_555
H39D C24D 1_555 1_555
H39F C24F 1_555 1_555
C25D N4D 1_555 1_555
C25B N4B 1_555 1_555
C25F C25 1_555 1_555
C26B C25B 1_555 1_555
C26D C25D 1_555 1_555
C26F C25F 1_555 1_555
H40B C26B 1_555 1_555
H40D C26D 1_555 1_555
H40F C26F 1_555 1_555
C27B C26B 1_555 1_555
C27D C26D 1_555 1_555
C27F C27 1_555 1_555
H41D C27D 1_555 1_555
H41B C27B 1_555 1_555
H41F C27F 1_555 1_555
C28B N4B 1_555 1_555
C28D N4D 1_555 1_555
C28F N4F 1_555 1_555
H42B C28B 1_555 1_555
H42D C28D 1_555 1_555
H42F C28F 1_555 1_555
H43B C28B 1_555 1_555
H43D C28D 1_555 1_555
H43F C28F 1_555 1_555
C29B C28B 1_555 1_555
C29D C28D 1_555 1_555
C29F C28F 1_555 1_555
C30B C29B 1_555 1_555
C30D C29D 1_555 1_555
C30F C29F 1_555 1_555
H44B C30B 1_555 1_555
H44D C30D 1_555 1_555
H44F C30F 1_555 1_555
H45B C30B 1_555 1_555
H45D C30D 1_555 1_555
H45F C30F 1_555 1_555
H46B C30B 1_555 1_555
H46D C30D 1_555 1_555
H46F C30F 1_555 1_555
C31B C29B 1_555 1_555
C31D C29D 1_555 1_555
C31F C29F 1_555 1_555
H47B C31B 1_555 1_555
H47D C31D 1_555 1_555
H47F C31F 1_555 1_555
H48B C31B 1_555 1_555
H48D C31D 1_555 1_555
H48F C31F 1_555 1_555
H49B C31B 1_555 1_555
H49D C31D 1_555 1_555
H49F C31F 1_555 1_555
C32B C29B 1_555 1_555
C32D C29D 1_555 1_555
C32F C29F 1_555 1_555
H50B C32B 1_555 1_555
H50D C32D 1_555 1_555
H50F C32F 1_555 1_555
H51B C32B 1_555 1_555
H51D C32D 1_555 1_555
H51F C32F 1_555 1_555
H52B C32B 1_555 1_555
H52D C32D 1_555 1_555
H52F C32F 1_555 1_555
C33D H53D 1_555 1_555
H53B C33D 1_555 1_555
C34D C33D 1_555 1_555
H55D C34D 1_555 1_555
H56D C34D 1_555 1_555
H56B C34D 1_555 1_555
C35D O1D 1_555 1_555
C35B O1D 1_555 1_555
C35F O1 1_555 1_555
H58B C35B 1_555 1_555
H58D C35D 1_555 1_555
H58F C35F 1_555 1_555
H59B C35B 1_555 1_555
H59D C35D 1_555 1_555
H59F C35F 1_555 1_555
C36D C35D 1_555 1_555
H60B C36D 1_555 1_555
H60D C36D 1_555 1_555
H60F C36 1_555 1_555
H61D C35D 1_555 1_555
H61B C35B 1_555 1_555
H61F C36 1_555 1_555
H62B C36D 1_555 1_555
H62D C36D 1_555 1_555
H62F C36 1_555 1_555
K3D O2D 1_555 1_555
Si5D Si6 1_555 1_555
Si6D Si5 1_555 1_555
O2D C53D 1_555 1_555
N5F Si5 1_555 1_555
N5D Si5D 1_555 1_555
N5B Si5D 1_555 1_555
N6F Si6 1_555 1_555
N6D Si6D 1_555 1_555
N6B Si6D 1_555 1_555
C37F C37 1_555 1_555
C37D N5D 1_555 1_555
C37B N5B 1_555 1_555
C38F C37F 1_555 1_555
C38B C37B 1_555 1_555
C38D C37D 1_555 1_555
H63F C38F 1_555 1_555
H63B C38B 1_555 1_555
H63D C38D 1_555 1_555
C39F C39 1_555 1_555
C39B C38B 1_555 1_555
C39D C38D 1_555 1_555
H64F C39F 1_555 1_555
H64D C39D 1_555 1_555
H64B C39B 1_555 1_555
C40F N5F 1_555 1_555
C40B N5B 1_555 1_555
C40D N5D 1_555 1_555
H65F C40F 1_555 1_555
H65B C40B 1_555 1_555
H65D C40D 1_555 1_555
H66F C40F 1_555 1_555
H66B C40B 1_555 1_555
H66D C40D 1_555 1_555
C41F C40F 1_555 1_555
C41B C40B 1_555 1_555
C41D C40D 1_555 1_555
C42F C41F 1_555 1_555
C42B C41B 1_555 1_555
C42D C41D 1_555 1_555
H67F C42F 1_555 1_555
H67B C42B 1_555 1_555
H67D C42D 1_555 1_555
H68F C42F 1_555 1_555
H68B C42B 1_555 1_555
H68D C42D 1_555 1_555
H69F C42F 1_555 1_555
H69B C42B 1_555 1_555
H69D C42D 1_555 1_555
C43F C41F 1_555 1_555
C43B C41B 1_555 1_555
C43D C41D 1_555 1_555
H70F C43F 1_555 1_555
H70B C43B 1_555 1_555
H70D C43D 1_555 1_555
H71F C43F 1_555 1_555
H71B C43B 1_555 1_555
H71D C43D 1_555 1_555
H72F C43F 1_555 1_555
H72B C43B 1_555 1_555
H72D C43D 1_555 1_555
C44F C41F 1_555 1_555
C44B C41B 1_555 1_555
C44D C41D 1_555 1_555
H73F C44F 1_555 1_555
H73B C44B 1_555 1_555
H73D C44D 1_555 1_555
H74F C44F 1_555 1_555
H74B C44B 1_555 1_555
H74D C44D 1_555 1_555
H75F C44F 1_555 1_555
H75B C44B 1_555 1_555
H75D C44D 1_555 1_555
C45F K3 1_555 1_555
C45D K3D 1_555 1_555
C45B K3D 1_555 1_555
C46F C45F 1_555 1_555
C46D C45D 1_555 1_555
C46B C45B 1_555 1_555
H76F C46F 1_555 1_555
H76D C46D 1_555 1_555
H76B C46B 1_555 1_555
C47F C47 1_555 1_555
C47D C46D 1_555 1_555
C47B C46B 1_555 1_555
H77F C47F 1_555 1_555
H77B C47B 1_555 1_555
H77D C47D 1_555 1_555
C48F N6F 1_555 1_555
C48B N6B 1_555 1_555
C48D N6D 1_555 1_555
H78F C48F 1_555 1_555
H78B C48B 1_555 1_555
H78D C48D 1_555 1_555
H79F C48F 1_555 1_555
H79B C48B 1_555 1_555
H79D C48D 1_555 1_555
C49F C48F 1_555 1_555
C49B C48B 1_555 1_555
C49D C48D 1_555 1_555
C50F C49F 1_555 1_555
C50B C49B 1_555 1_555
C50D C49D 1_555 1_555
H80F C50F 1_555 1_555
H80B C50B 1_555 1_555
H80D C50D 1_555 1_555
H81F C50F 1_555 1_555
H81B C50B 1_555 1_555
H81D C50D 1_555 1_555
H82F C50F 1_555 1_555
H82B C50B 1_555 1_555
H82D C50D 1_555 1_555
C51F C49F 1_555 1_555
C51B C49B 1_555 1_555
C51D C49D 1_555 1_555
H83F C51F 1_555 1_555
H83B C51B 1_555 1_555
H83D C51D 1_555 1_555
H84F C51F 1_555 1_555
H84B C51B 1_555 1_555
H84D C51D 1_555 1_555
H85F C51F 1_555 1_555
H85B C51B 1_555 1_555
H85D C51D 1_555 1_555
C52F C49F 1_555 1_555
C52B C49B 1_555 1_555
C52D C49D 1_555 1_555
H86F C52F 1_555 1_555
H86B C52B 1_555 1_555
H86D C52D 1_555 1_555
H87F C52F 1_555 1_555
H87B C52B 1_555 1_555
H87D C52D 1_555 1_555
H88F C52F 1_555 1_555
H88B C52B 1_555 1_555
H88D C52D 1_555 1_555
C53F O2 1_555 1_555
C53D C53B 1_555 1_555
C53B O2D 1_555 1_555
H89F C53F 1_555 1_555
H89B C53B 1_555 1_555
H89D C53D 1_555 1_555
H90F C53F 1_555 1_555
H90B C53B 1_555 1_555
H90D C53D 1_555 1_555
C54F C53 1_555 1_555
C54B C53D 1_555 1_555
C54D C53D 1_555 1_555
H91F C54F 1_555 1_555
H91B C54B 1_555 1_555
H91D C54D 1_555 1_555
H92F C54 1_555 1_555
H92B C53B 1_555 1_555
H92D C53D 1_555 1_555
H93F C54F 1_555 1_555
H93D C54D 1_555 1_555
H93B C54B 1_555 1_555
C55D O2D 1_555 1_555
H94D C55D 1_555 1_555
H94B C55D 1_555 1_555
C56D C55D 1_555 1_555
H96D C56D 1_555 1_555
H97D C56D 1_555 1_555
H97B C56D 1_555 1_555
N3 C17 1_555 1_555
C1 C1F 1_555 1_555
C11 C11F 1_555 1_555
C17 C17F 1_555 1_555
C35 C35F 1_555 1_555
C36 H61 1_555 1_555
C36 C35F 1_555 1_555
H62 H62F 1_555 1_555
C45 C45F 1_555 1_555
C53 C53F 1_555 1_555
C54 H92 1_555 1_555
C54 C53F 1_555 1_555
C54 C54F 1_555 1_555
H92 C54F 1_555 1_555
K1D C11D 1_555 1_555
N1F C1F 1_555 1_555
N1B C1B 1_555 1_555
N2F C9F 1_555 1_555
N3D C17D 1_555 1_555
N3B C17B 1_555 1_555
N3F C17F 1_555 1_555
N4F C25F 1_555 1_555
C1D C1B 1_555 1_555
C2F C3F 1_555 1_555
C3D C3B 1_555 1_555
C9D C9B 1_555 1_555
C9D C10D 1_555 1_555
C10B C11F 1_555 1_555
C10F C11B 1_555 1_555
C11D C11B 1_555 1_555
C17D C17B 1_555 1_555
C18F C19F 1_555 1_555
C19D C19B 1_555 1_555
C25D C25B 1_555 1_555
C26F C27F 1_555 1_555
C27B C27D 1_555 1_555
C35D C35B 1_555 1_555
C35B C36D 1_555 1_555
C35F H61F 1_555 1_555
C36D H61D 1_555 1_555
C36D H61B 1_555 1_555
H62B H62D 1_555 1_555
Si5D Si6D 1_555 1_555
N5F C37F 1_555 1_555
N6F C45F 1_555 1_555
N6D C45D 1_555 1_555
N6B C45B 1_555 1_555
C37D C37B 1_555 1_555
C38F C39F 1_555 1_555
C39B C39D 1_555 1_555
C45D C45B 1_555 1_555
C46F C47F 1_555 1_555
C47D C47B 1_555 1_555
C53F C54F 1_555 1_555
C53F H92F 1_555 1_555
C53B C54B 1_555 1_555
C53B C54D 1_555 1_555
C54F H92F 1_555 1_555
C54B C54D 1_555 1_555
C54B H92B 1_555 1_555
C54B H92D 1_555 1_555
C54D H92B 1_555 1_555
C54D H92D 1_555 1_555

#END
