
#######################################################################
#
#                 Cambridge Crystallographic Data Centre
#                                CCDC 
#
#######################################################################
#
# If this CIF has been generated from an entry in the Cambridge 
# Structural Database, then it will include bibliographic, chemical, 
# crystal, experimental, refinement or atomic coordinate data resulting 
# from the CCDC's data processing and validation procedures.
#
#######################################################################

data_TEDBEK
_chemical_formula_moiety         
'C24 H48 Na1 O6 1+,C20 H40 Na1 O5 1+,C64 H104 N8 Si4 2-,2(C4 H8 O1)'
_chemical_name_systematic        
"hexakis(Tetrahydrofuran)-sodium pentakis(tetrahydrofuran)-sodium 1,1:2,2:3,3:4,4-tetrakis(1,2-bis(neopentylamido)benzene-N,N')-cyclotetrasilanide tetrahydrofuran solvate"
_symmetry_cell_setting           triclinic
_symmetry_space_group_name_H-M   'P -1'
_symmetry_Int_Tables_number      2
_space_group_name_Hall           '-P 1'
loop_
_symmetry_equiv_pos_site_id
_symmetry_equiv_pos_as_xyz
1 x,y,z
2 -x,-y,-z
_cell_length_a                   14.3212(2)
_cell_length_b                   15.2868(2)
_cell_length_c                   28.9584(4)
_cell_angle_alpha                85.999(1)
_cell_angle_beta                 79.241(1)
_cell_angle_gamma                89.254(1)
_cell_volume                     6213.1
_exptl_crystal_colour            red
_exptl_crystal_description       prism
_cell_formula_units_Z            2
loop_
_atom_site_label
_atom_site_type_symbol
_atom_site_fract_x
_atom_site_fract_y
_atom_site_fract_z
Si1 Si 0.7621(4) 0.1319(3) 0.20694(17)
Si2 Si 0.7586(4) 0.0487(3) 0.27708(17)
Si3 Si 0.8315(3) 0.1656(3) 0.30291(17)
Si4 Si 0.8887(4) 0.2070(3) 0.22440(17)
N1 N 0.7728(12) 0.0756(11) 0.1528(6)
N2 N 0.6522(11) 0.1770(11) 0.1906(6)
N3 N 0.8001(12) -0.0637(10) 0.2868(6)
N4 N 0.6464(11) 0.0089(11) 0.3116(6)
N5 N 0.9146(11) 0.1475(11) 0.3432(6)
N6 N 0.7784(11) 0.2472(11) 0.3433(6)
N7 N 1.0082(11) 0.1973(10) 0.1886(6)
N8 N 0.9011(12) 0.3224(10) 0.2051(6)
C1 C 0.6861(15) 0.0658(14) 0.1391(7)
C2 C 0.6166(15) 0.1261(14) 0.1602(7)
C3 C 0.5251(17) 0.1251(17) 0.1499(9)
H1 H 0.4788 0.1661 0.163
C4 C 0.5019(19) 0.063(2) 0.1205(10)
H2 H 0.4395 0.0626 0.1138
C5 C 0.567(2) 0.005(2) 0.1014(10)
H3 H 0.55 -0.0366 0.0815
C6 C 0.6599(18) 0.0049(16) 0.1108(9)
H4 H 0.7048 -0.0371 0.0977
C7 C 0.8601(15) 0.0435(13) 0.1250(7)
H5 H 0.8508 -0.019 0.12
H6 H 0.911 0.046 0.1438
C8 C 0.8955(16) 0.0927(15) 0.0761(7)
C9 C 0.8804(18) 0.1909(15) 0.0787(8)
H7 H 0.9104 0.2114 0.1037
H8 H 0.8122 0.2035 0.0855
H9 H 0.9091 0.221 0.0485
C10 C 0.848(2) 0.0610(19) 0.0372(8)
H10 H 0.7796 0.0734 0.0444
H11 H 0.8578 -0.0023 0.0352
H12 H 0.8758 0.0915 0.007
C11 C 1.0000(18) 0.0718(19) 0.0634(9)
H13 H 1.0328 0.0916 0.0876
H14 H 1.0267 0.1019 0.0329
H15 H 1.0083 0.0084 0.0615
C12 C 0.5982(15) 0.2470(14) 0.2141(7)
H16 H 0.623 0.2561 0.2431
H17 H 0.5315 0.2272 0.224
C13 C 0.5981(16) 0.3374(15) 0.1856(8)
C14 C 0.581(2) 0.4068(17) 0.2220(10)
H18 H 0.5197 0.3961 0.243
H19 H 0.5812 0.4652 0.2058
H20 H 0.6319 0.4033 0.2406
C15 C 0.6935(19) 0.3527(16) 0.1529(8)
H21 H 0.7443 0.3493 0.1715
H22 H 0.694 0.4109 0.1364
H23 H 0.7038 0.3079 0.1299
C16 C 0.516(2) 0.346(2) 0.1593(12)
H24 H 0.4563 0.3353 0.1815
H25 H 0.5238 0.3029 0.1353
H26 H 0.5159 0.4052 0.144
C17 C 0.7454(15) -0.1090(13) 0.3255(7)
C18 C 0.6578(14) -0.0655(13) 0.3408(7)
C19 C 0.5980(17) -0.0964(16) 0.3822(8)
H27 H 0.5407 -0.0663 0.3934
C20 C 0.6229(19) -0.1720(18) 0.4070(9)
H28 H 0.5817 -0.1937 0.4349
C21 C 0.706(2) -0.2153(17) 0.3917(9)
H29 H 0.7211 -0.267 0.4088
C22 C 0.7680(17) -0.1842(14) 0.3509(8)
H30 H 0.8257 -0.2144 0.3407
C23 C 0.8892(15) -0.0973(13) 0.2631(8)
H31 H 0.9232 -0.1244 0.2873
H32 H 0.928 -0.0471 0.247
C24 C 0.8846(19) -0.1659(14) 0.2261(9)
C25 C 0.799(2) -0.1467(18) 0.2025(10)
H33 H 0.7403 -0.1531 0.2261
H34 H 0.798 -0.1881 0.1782
H35 H 0.8033 -0.0867 0.188
C26 C 0.976(2) -0.156(2) 0.1899(11)
H36 H 0.9816 -0.0961 0.1755
H37 H 0.9761 -0.1974 0.1655
H38 H 1.0307 -0.1689 0.2055
C27 C 0.872(3) -0.2594(17) 0.2489(12)
H39 H 0.8129 -0.2636 0.2719
H40 H 0.9259 -0.2741 0.2648
H41 H 0.8708 -0.3005 0.2245
C28 C 0.5536(14) 0.0480(14) 0.3119(8)
H42 H 0.5629 0.1071 0.2954
H43 H 0.5238 0.0561 0.345
C29 C 0.4828(17) -0.0025(19) 0.2893(9)
C30 C 0.535(2) -0.046(2) 0.2454(10)
H44 H 0.4887 -0.0778 0.2318
H45 H 0.5828 -0.0863 0.2541
H46 H 0.5653 -0.0002 0.2221
C31 C 0.410(2) 0.064(3) 0.2766(14)
H47 H 0.3781 0.0908 0.3051
H48 H 0.3633 0.0348 0.2624
H49 H 0.4427 0.1099 0.2541
C32 C 0.428(2) -0.074(2) 0.3233(11)
H50 H 0.3959 -0.0476 0.3519
H51 H 0.4731 -0.1186 0.3317
H52 H 0.3815 -0.101 0.3081
C33 C 0.9190(14) 0.2187(14) 0.3699(7)
C34 C 0.8394(14) 0.2749(13) 0.3708(7)
C35 C 0.8340(16) 0.3506(14) 0.3958(8)
H53 H 0.7809 0.3888 0.3967
C36 C 0.9068(18) 0.3697(16) 0.4194(8)
H54 H 0.9026 0.4208 0.4365
C37 C 0.9853(18) 0.3155(18) 0.4181(9)
H55 H 1.0345 0.3294 0.4343
C38 C 0.9919(16) 0.2401(16) 0.3930(8)
H56 H 1.0462 0.2033 0.3916
C39 C 0.9715(15) 0.0695(15) 0.3485(8)
H57 H 1.0383 0.088 0.3463
H58 H 0.9696 0.0336 0.3215
C40 C 0.9421(18) 0.0098(15) 0.3950(8)
C41 C 0.8347(18) 0.0043(18) 0.4090(9)
H59 H 0.8081 -0.0163 0.3829
H60 H 0.8091 0.0624 0.4164
H61 H 0.8177 -0.0368 0.4368
C42 C 0.983(2) 0.041(2) 0.4361(10)
H62 H 1.0527 0.0454 0.427
H63 H 0.9668 -0.0009 0.4635
H64 H 0.957 0.0988 0.4441
C43 C 0.983(3) -0.0811(19) 0.3847(12)
H65 H 0.959 -0.1026 0.3581
H66 H 0.9648 -0.1216 0.4126
H67 H 1.0529 -0.0773 0.3767
C44 C 0.6863(15) 0.2874(14) 0.3429(7)
H68 H 0.6657 0.2737 0.3134
H69 H 0.6942 0.3518 0.3418
C45 C 0.6046(15) 0.2602(14) 0.3850(8)
C46 C 0.5117(17) 0.2721(18) 0.3663(10)
H70 H 0.5051 0.3337 0.3555
H71 H 0.4579 0.2554 0.3915
H72 H 0.5127 0.235 0.34
C47 C 0.6007(19) 0.3175(18) 0.4268(9)
H73 H 0.593 0.3791 0.4164
H74 H 0.6598 0.3106 0.4392
H75 H 0.5467 0.2995 0.4517
C48 C 0.6175(16) 0.1646(15) 0.4022(8)
H76 H 0.62 0.127 0.3759
H77 H 0.564 0.1468 0.4273
H78 H 0.6769 0.1587 0.4143
C49 C 1.0271(14) 0.2644(13) 0.1534(7)
C50 C 0.9635(14) 0.3363(13) 0.1622(7)
C51 C 0.9654(17) 0.4051(14) 0.1280(8)
H79 H 0.9214 0.452 0.1331
C52 C 1.0319(19) 0.4050(16) 0.0862(8)
H80 H 1.0334 0.4524 0.063
C53 C 1.0956(18) 0.3371(17) 0.0780(8)
H81 H 1.1406 0.338 0.0494
C54 C 1.0945(16) 0.2667(16) 0.1117(8)
H82 H 1.1394 0.2205 0.1062
C55 C 1.0652(14) 0.1185(14) 0.1874(8)
H83 H 1.0851 0.1048 0.1541
H84 H 1.0244 0.0696 0.2036
C56 C 1.1553(15) 0.1209(15) 0.2098(8)
C57 C 0.8522(15) 0.3950(13) 0.2290(8)
H85 H 0.8001 0.3708 0.2537
H86 H 0.8227 0.4314 0.2059
C58 C 0.9138(16) 0.4560(13) 0.2522(8)
C59 C 0.9834(18) 0.4021(16) 0.2765(9)
H87 H 0.9483 0.3587 0.2995
H88 H 1.0186 0.4411 0.2926
H89 H 1.0281 0.3719 0.2529
C60 C 0.970(2) 0.5229(15) 0.2161(9)
H90 H 0.9261 0.5577 0.2001
H91 H 1.0148 0.4921 0.1928
H92 H 1.0053 0.5617 0.2322
C61 C 0.846(2) 0.5059(16) 0.2880(9)
H93 H 0.8013 0.54 0.272
H94 H 0.8821 0.5457 0.3031
H95 H 0.8104 0.4643 0.312
C114 C 1.137(3) 0.181(3) 0.2519(14)
H200 H 1.0809 0.1598 0.2748
H201 H 1.1248 0.2413 0.2402
H202 H 1.1922 0.1805 0.2671
C115 C 1.239(2) 0.151(3) 0.1760(16)
H203 H 1.2504 0.1127 0.1498
H204 H 1.2942 0.1497 0.1916
H205 H 1.2285 0.2112 0.164
C116 C 1.168(3) 0.025(2) 0.2303(16)
H206 H 1.1106 0.0072 0.2531
H207 H 1.2229 0.0223 0.246
H208 H 1.1779 -0.0147 0.2047
Na1 Na 0.2707(6) 0.6052(6) 0.3836(3)
O1 O 0.0997(11) 0.5994(12) 0.4035(6)
O2 O 0.2436(15) 0.6990(16) 0.3194(7)
O3 O 0.2704(12) 0.4790(12) 0.3395(7)
O4 O 0.2961(14) 0.5155(11) 0.4503(6)
O5 O 0.2685(13) 0.7279(11) 0.4309(7)
O6 O 0.4402(11) 0.6178(12) 0.3553(6)
C62 C 0.029(2) 0.604(2) 0.3751(11)
H96 H 0.0157 0.5449 0.3658
H97 H 0.0497 0.6427 0.3463
C63 C -0.057(2) 0.640(2) 0.4045(11)
H98 H -0.115 0.6087 0.4005
H99 H -0.0646 0.7032 0.3957
C64 C -0.042(2) 0.627(2) 0.4544(10)
H100 H -0.0372 0.6835 0.4681
H101 H -0.0945 0.5921 0.4742
C65 C 0.0497(18) 0.5775(18) 0.4503(9)
H102 H 0.0866 0.5955 0.4738
H103 H 0.038 0.5135 0.4554
C66 C 0.245(4) 0.677(3) 0.2737(16)
H104 H 0.2009 0.6279 0.2732
H105 H 0.31 0.6594 0.2586
C67 C 0.214(7) 0.759(5) 0.2488(19)
H106 H 0.2694 0.7885 0.2281
H107 H 0.1674 0.745 0.2292
C68 C 0.172(6) 0.815(4) 0.285(2)
H108 H 0.1021 0.8159 0.2872
H109 H 0.1958 0.8759 0.2763
C69 C 0.197(3) 0.782(2) 0.3294(13)
H110 H 0.24 0.8236 0.3399
H111 H 0.139 0.7741 0.3541
C70 C 0.193(2) 0.419(2) 0.3481(14)
H112 H 0.1359 0.4467 0.3387
H113 H 0.1774 0.3992 0.3819
C71 C 0.226(4) 0.343(3) 0.319(2)
H114 H 0.2159 0.2877 0.3388
H115 H 0.1875 0.3407 0.2937
C72 C 0.318(2) 0.353(2) 0.2994(12)
H116 H 0.328 0.3456 0.2651
H117 H 0.3565 0.3078 0.3138
C73 C 0.3474(18) 0.4434(17) 0.3084(10)
H118 H 0.4049 0.4404 0.3229
H119 H 0.3617 0.4804 0.2785
C74 C 0.313(3) 0.4132(19) 0.4534(11)
H120 H 0.2528 0.3809 0.4546
H121 H 0.3602 0.3953 0.4262
C75 C 0.349(3) 0.398(2) 0.4974(14)
H122 H 0.3222 0.3425 0.5143
H123 H 0.4187 0.393 0.4907
C76 C 0.320(3) 0.471(2) 0.5264(11)
H124 H 0.3678 0.4811 0.5463
H125 H 0.2578 0.4592 0.5472
C77 C 0.315(2) 0.5456(18) 0.4930(10)
H126 H 0.2634 0.5856 0.5064
H127 H 0.3755 0.5784 0.4868
C78 C 0.356(2) 0.770(2) 0.4343(12)
H128 H 0.3898 0.7904 0.4026
H129 H 0.397 0.7277 0.4486
C79 C 0.483(2) 0.662(2) 0.3113(12)
H130 H 0.4585 0.7227 0.3088
H131 H 0.4688 0.6306 0.2846
C80 C 0.586(3) 0.663(3) 0.3105(14)
H132 H 0.6054 0.7185 0.3212
H133 H 0.6216 0.6547 0.2784
C81 C 0.601(2) 0.587(2) 0.3439(13)
H134 H 0.611 0.5316 0.3277
H135 H 0.6572 0.597 0.3586
C82 C 0.513(2) 0.584(2) 0.3791(11)
H136 H 0.4985 0.5232 0.392
H137 H 0.5194 0.6205 0.4053
C117 C 0.333(3) 0.843(2) 0.4632(14)
H209 H 0.3383 0.8987 0.4434
H210 H 0.3775 0.845 0.4857
C118 C 0.237(4) 0.828(4) 0.488(3)
H211 H 0.2027 0.8844 0.4917
H212 H 0.2369 0.7988 0.5195
C119 C 0.191(2) 0.772(2) 0.4598(14)
H213 H 0.1486 0.7292 0.4803
H214 H 0.154 0.8078 0.4399
Na2 Na 0.4009(8) 0.6722(7) 0.0686(4)
O7 O 0.3209(19) 0.8038(17) 0.0727(10)
O8 O 0.4940(17) 0.6924(14) 0.1249(7)
O9 O 0.3326(15) 0.6110(14) 0.0109(7)
O10 O 0.306(2) 0.5752(19) 0.1226(9)
O11 O 0.5337(16) 0.7106(19) 0.0113(7)
C83 C 0.348(3) 0.880(3) 0.0424(16)
H138 H 0.3391 0.8708 0.0099
H139 H 0.4147 0.8955 0.0418
C84 C 0.280(3) 0.950(3) 0.0643(17)
H140 H 0.312 0.9873 0.0833
H141 H 0.2575 0.9882 0.0394
C85 C 0.202(3) 0.904(4) 0.093(2)
H142 H 0.1773 0.936 0.1216
H143 H 0.1501 0.8966 0.0758
C86 C 0.238(4) 0.820(4) 0.107(2)
H144 H 0.1893 0.7743 0.1076
H145 H 0.2537 0.8207 0.1387
C87 C 0.491(3) 0.764(3) 0.1534(15)
H146 H 0.4357 0.759 0.1794
H147 H 0.4874 0.8197 0.1345
C88 C 0.580(4) 0.759(3) 0.1719(19)
H148 H 0.6257 0.8034 0.1546
H149 H 0.5673 0.7709 0.2057
C89 C 0.618(3) 0.673(4) 0.166(2)
H150 H 0.606 0.6377 0.1964
H151 H 0.6872 0.676 0.1541
C90 C 0.571(3) 0.634(3) 0.1325(18)
H152 H 0.5464 0.575 0.1451
H153 H 0.6165 0.6273 0.1025
C91 C 0.352(3) 0.532(3) -0.014(2)
H154 H 0.4031 0.5422 -0.0417
H155 H 0.3722 0.4842 0.0072
C92 C 0.265(3) 0.508(2) -0.0279(14)
H156 H 0.2368 0.4557 -0.0088
H157 H 0.2776 0.4952 -0.0615
C93 C 0.199(2) 0.582(2) -0.0209(13)
H158 H 0.1436 0.5664 0.004
H159 H 0.1765 0.6004 -0.0504
C94 C 0.256(3) 0.654(2) -0.0066(14)
H160 H 0.2801 0.695 -0.0339
H161 H 0.2163 0.6865 0.0182
C95 C 0.236(8) 0.515(8) 0.113(3)
H162 H 0.2562 0.4895 0.0823
H163 H 0.1733 0.5434 0.1141
C96 C 0.233(4) 0.444(3) 0.1545(17)
H164 H 0.1703 0.4157 0.1631
H165 H 0.2827 0.3989 0.1465
C97 C 0.252(4) 0.493(4) 0.1908(17)
H166 H 0.2746 0.4552 0.2156
H167 H 0.1949 0.5255 0.2052
C98 C 0.330(5) 0.556(5) 0.166(3)
H168 H 0.3299 0.6098 0.1832
H169 H 0.393 0.528 0.1629
C99 C 0.533(3) 0.710(3) -0.0384(13)
H170 H 0.4808 0.7462 -0.047
H171 H 0.5258 0.6492 -0.0472
C100 C 0.626(3) 0.746(2) -0.0624(11)
H172 H 0.6721 0.6986 -0.0712
H173 H 0.6192 0.7826 -0.0912
C101 C 0.656(3) 0.799(3) -0.0277(14)
H174 H 0.7266 0.8012 -0.0323
H175 H 0.6321 0.8601 -0.0305
C102 C 0.616(3) 0.756(3) 0.0182(13)
H176 H 0.6624 0.7148 0.0291
H177 H 0.5984 0.8001 0.042
O12 O 0.8185(19) 0.6889(19) 0.0644(10)
C103 C 0.863(3) 0.770(2) 0.0530(15)
H178 H 0.8282 0.8148 0.0728
H179 H 0.8627 0.7889 0.0196
C104 C 0.960(3) 0.763(3) 0.0607(19)
H180 H 0.9727 0.808 0.0818
H181 H 1.0053 0.771 0.0305
C112 C 0.966(3) 0.671(4) 0.084(2)
H196 H 1.0301 0.6459 0.0741
H197 H 0.951 0.6711 0.1184
C113 C 0.900(5) 0.624(3) 0.068(3)
H198 H 0.8779 0.5729 0.0901
H199 H 0.9266 0.6021 0.0366
O13 O 0.213(5) 1.196(4) 0.445(3)
C105 C 0.259(7) 1.143(6) 0.404(3)
H182 H 0.2105 1.1144 0.3897
H183 H 0.2999 1.1807 0.379
C106 C 0.314(6) 1.080(5) 0.425(3)
H184 H 0.377 1.0745 0.4046
H185 H 0.2819 1.0225 0.4287
C107 C 0.325(6) 1.106(6) 0.470(3)
H186 H 0.3032 1.0594 0.495
H187 H 0.3933 1.1182 0.4703
C108 C 0.271(10) 1.183(8) 0.479(3)
H188 H 0.2311 1.1771 0.511
H189 H 0.3135 1.2342 0.4775
C109? C 0.333(3) 0.843(2) 0.4632(14)
H190? H 0.3741 0.8941 0.4503
H191? H 0.3413 0.8273 0.496
C110? C 0.226(4) 0.862(4) 0.460(3)
H192? H 0.193 0.8911 0.4882
H193? H 0.22 0.8977 0.4313
C111? C 0.191(2) 0.772(2) 0.4598(14)
H194? H 0.1771 0.7435 0.492
H195? H 0.1333 0.7721 0.4459
C120? C 0.966(3) 0.671(4) 0.084(2)
H215? H 1.0005 0.6312 0.0607
H216? H 0.9988 0.6714 0.1108
C121? C 0.864(6) 0.641(5) 0.100(3)
H217? H 0.8574 0.5767 0.0989
H218? H 0.8375 0.6583 0.132
C122? C 1.134(5) 0.119(8) 0.259(3)
H219? H 1.1935 0.1205 0.2714
H220? H 1.1 0.0642 0.2715
H221? H 1.0947 0.1691 0.2691
C123? C 1.221(6) 0.209(8) 0.193(3)
H222? H 1.237 0.2143 0.1581
H223? H 1.2791 0.2042 0.2057
H224? H 1.185 0.261 0.2038
C124? C 1.224(6) 0.046(7) 0.190(3)
H225? H 1.2346 0.0518 0.1552
H226? H 1.1948 -0.011 0.201
H227? H 1.2844 0.0509 0.2003
loop_
_geom_bond_atom_site_label_1
_geom_bond_atom_site_label_2
_geom_bond_site_symmetry_1
_geom_bond_site_symmetry_2
Si1 Si2 1_555 1_555
Si2 Si3 1_555 1_555
Si3 Si4 1_555 1_555
Si4 Si1 1_555 1_555
N1 Si1 1_555 1_555
N2 Si1 1_555 1_555
N3 Si2 1_555 1_555
N4 Si2 1_555 1_555
N5 Si3 1_555 1_555
N6 Si3 1_555 1_555
N7 Si4 1_555 1_555
N8 Si4 1_555 1_555
C1 N1 1_555 1_555
C2 N2 1_555 1_555
C3 C2 1_555 1_555
H1 C3 1_555 1_555
C4 C3 1_555 1_555
H2 C4 1_555 1_555
C5 C4 1_555 1_555
H3 C5 1_555 1_555
C6 C1 1_555 1_555
H4 C6 1_555 1_555
C7 N1 1_555 1_555
H5 C7 1_555 1_555
H6 C7 1_555 1_555
C8 C7 1_555 1_555
C9 C8 1_555 1_555
H7 C9 1_555 1_555
H8 C9 1_555 1_555
H9 C9 1_555 1_555
C10 C8 1_555 1_555
H10 C10 1_555 1_555
H11 C10 1_555 1_555
H12 C10 1_555 1_555
C11 C8 1_555 1_555
H13 C11 1_555 1_555
H14 C11 1_555 1_555
H15 C11 1_555 1_555
C12 N2 1_555 1_555
H16 C12 1_555 1_555
H17 C12 1_555 1_555
C13 C12 1_555 1_555
C14 C13 1_555 1_555
H18 C14 1_555 1_555
H19 C14 1_555 1_555
H20 C14 1_555 1_555
C15 C13 1_555 1_555
H21 C15 1_555 1_555
H22 C15 1_555 1_555
H23 C15 1_555 1_555
C16 C13 1_555 1_555
H24 C16 1_555 1_555
H25 C16 1_555 1_555
H26 C16 1_555 1_555
C17 N3 1_555 1_555
C18 N4 1_555 1_555
C19 C18 1_555 1_555
H27 C19 1_555 1_555
C20 C19 1_555 1_555
H28 C20 1_555 1_555
C21 C20 1_555 1_555
H29 C21 1_555 1_555
C22 C17 1_555 1_555
H30 C22 1_555 1_555
C23 N3 1_555 1_555
H31 C23 1_555 1_555
H32 C23 1_555 1_555
C24 C23 1_555 1_555
C25 C24 1_555 1_555
H33 C25 1_555 1_555
H34 C25 1_555 1_555
H35 C25 1_555 1_555
C26 C24 1_555 1_555
H36 C26 1_555 1_555
H37 C26 1_555 1_555
H38 C26 1_555 1_555
C27 C24 1_555 1_555
H39 C27 1_555 1_555
H40 C27 1_555 1_555
H41 C27 1_555 1_555
C28 N4 1_555 1_555
H42 C28 1_555 1_555
H43 C28 1_555 1_555
C29 C28 1_555 1_555
C30 C29 1_555 1_555
H44 C30 1_555 1_555
H45 C30 1_555 1_555
H46 C30 1_555 1_555
C31 C29 1_555 1_555
H47 C31 1_555 1_555
H48 C31 1_555 1_555
H49 C31 1_555 1_555
C32 C29 1_555 1_555
H50 C32 1_555 1_555
H51 C32 1_555 1_555
H52 C32 1_555 1_555
C33 N5 1_555 1_555
C34 N6 1_555 1_555
C35 C34 1_555 1_555
H53 C35 1_555 1_555
C36 C35 1_555 1_555
H54 C36 1_555 1_555
C37 C36 1_555 1_555
H55 C37 1_555 1_555
C38 C33 1_555 1_555
H56 C38 1_555 1_555
C39 N5 1_555 1_555
H57 C39 1_555 1_555
H58 C39 1_555 1_555
C40 C39 1_555 1_555
C41 C40 1_555 1_555
H59 C41 1_555 1_555
H60 C41 1_555 1_555
H61 C41 1_555 1_555
C42 C40 1_555 1_555
H62 C42 1_555 1_555
H63 C42 1_555 1_555
H64 C42 1_555 1_555
C43 C40 1_555 1_555
H65 C43 1_555 1_555
H66 C43 1_555 1_555
H67 C43 1_555 1_555
C44 N6 1_555 1_555
H68 C44 1_555 1_555
H69 C44 1_555 1_555
C45 C44 1_555 1_555
C46 C45 1_555 1_555
H70 C46 1_555 1_555
H71 C46 1_555 1_555
H72 C46 1_555 1_555
C47 C45 1_555 1_555
H73 C47 1_555 1_555
H74 C47 1_555 1_555
H75 C47 1_555 1_555
C48 C45 1_555 1_555
H76 C48 1_555 1_555
H77 C48 1_555 1_555
H78 C48 1_555 1_555
C49 N7 1_555 1_555
C50 N8 1_555 1_555
C51 C50 1_555 1_555
H79 C51 1_555 1_555
C52 C51 1_555 1_555
H80 C52 1_555 1_555
C53 C52 1_555 1_555
H81 C53 1_555 1_555
C54 C49 1_555 1_555
H82 C54 1_555 1_555
C55 N7 1_555 1_555
H83 C55 1_555 1_555
H84 C55 1_555 1_555
C56 C55 1_555 1_555
C57 N8 1_555 1_555
H85 C57 1_555 1_555
H86 C57 1_555 1_555
C58 C57 1_555 1_555
C59 C58 1_555 1_555
H87 C59 1_555 1_555
H88 C59 1_555 1_555
H89 C59 1_555 1_555
C60 C58 1_555 1_555
H90 C60 1_555 1_555
H91 C60 1_555 1_555
H92 C60 1_555 1_555
C61 C58 1_555 1_555
H93 C61 1_555 1_555
H94 C61 1_555 1_555
H95 C61 1_555 1_555
Na1 O1 1_555 1_555
O1 C62 1_555 1_555
O2 Na1 1_555 1_555
O3 Na1 1_555 1_555
O4 Na1 1_555 1_555
O5 Na1 1_555 1_555
O6 Na1 1_555 1_555
C62 H96 1_555 1_555
H97 C62 1_555 1_555
C63 C62 1_555 1_555
H98 C63 1_555 1_555
H99 C63 1_555 1_555
C64 C63 1_555 1_555
H100 C64 1_555 1_555
H101 C64 1_555 1_555
C65 O1 1_555 1_555
H102 C65 1_555 1_555
H103 C65 1_555 1_555
C66 O2 1_555 1_555
H104 C66 1_555 1_555
H105 C66 1_555 1_555
C67 C66 1_555 1_555
H106 C67 1_555 1_555
H107 C67 1_555 1_555
C68 C67 1_555 1_555
H108 C68 1_555 1_555
H109 C68 1_555 1_555
C69 O2 1_555 1_555
H110 C69 1_555 1_555
H111 C69 1_555 1_555
C70 O3 1_555 1_555
H112 C70 1_555 1_555
H113 C70 1_555 1_555
C71 C70 1_555 1_555
H114 C71 1_555 1_555
H115 C71 1_555 1_555
C72 C71 1_555 1_555
H116 C72 1_555 1_555
H117 C72 1_555 1_555
C73 O3 1_555 1_555
H118 C73 1_555 1_555
H119 C73 1_555 1_555
C74 O4 1_555 1_555
H120 C74 1_555 1_555
H121 C74 1_555 1_555
C75 C74 1_555 1_555
H122 C75 1_555 1_555
H123 C75 1_555 1_555
C76 C75 1_555 1_555
H124 C76 1_555 1_555
H125 C76 1_555 1_555
C77 O4 1_555 1_555
H126 C77 1_555 1_555
H127 C77 1_555 1_555
C78 O5 1_555 1_555
H128 C78 1_555 1_555
H129 C78 1_555 1_555
C79 O6 1_555 1_555
H130 C79 1_555 1_555
H131 C79 1_555 1_555
C80 C79 1_555 1_555
H132 C80 1_555 1_555
H133 C80 1_555 1_555
C81 C80 1_555 1_555
H134 C81 1_555 1_555
H135 C81 1_555 1_555
C82 O6 1_555 1_555
H136 C82 1_555 1_555
H137 C82 1_555 1_555
Na2 O7 1_555 1_555
O7 C83 1_555 1_555
O8 Na2 1_555 1_555
O9 Na2 1_555 1_555
O10 Na2 1_555 1_555
O11 Na2 1_555 1_555
C83 H138 1_555 1_555
H139 C83 1_555 1_555
C84 C83 1_555 1_555
H140 C84 1_555 1_555
H141 C84 1_555 1_555
C85 C84 1_555 1_555
H142 C85 1_555 1_555
H143 C85 1_555 1_555
C86 O7 1_555 1_555
H144 C86 1_555 1_555
H145 C86 1_555 1_555
C87 O8 1_555 1_555
H146 C87 1_555 1_555
H147 C87 1_555 1_555
C88 C87 1_555 1_555
H148 C88 1_555 1_555
H149 C88 1_555 1_555
C89 C88 1_555 1_555
H150 C89 1_555 1_555
H151 C89 1_555 1_555
C90 O8 1_555 1_555
H152 C90 1_555 1_555
H153 C90 1_555 1_555
C91 O9 1_555 1_555
H154 C91 1_555 1_555
H155 C91 1_555 1_555
C92 C91 1_555 1_555
H156 C92 1_555 1_555
H157 C92 1_555 1_555
C93 C92 1_555 1_555
H158 C93 1_555 1_555
H159 C93 1_555 1_555
C94 O9 1_555 1_555
H160 C94 1_555 1_555
H161 C94 1_555 1_555
C95 O10 1_555 1_555
H162 C95 1_555 1_555
H163 C95 1_555 1_555
C96 C95 1_555 1_555
H164 C96 1_555 1_555
H165 C96 1_555 1_555
C97 C96 1_555 1_555
H166 C97 1_555 1_555
H167 C97 1_555 1_555
C98 O10 1_555 1_555
H168 C98 1_555 1_555
H169 C98 1_555 1_555
C99 O11 1_555 1_555
H170 C99 1_555 1_555
H171 C99 1_555 1_555
C100 C99 1_555 1_555
H172 C100 1_555 1_555
H173 C100 1_555 1_555
C101 C100 1_555 1_555
H174 C101 1_555 1_555
H175 C101 1_555 1_555
C102 O11 1_555 1_555
H176 C102 1_555 1_555
H177 C102 1_555 1_555
O12 C103 1_555 1_555
C103 H178 1_555 1_555
H179 C103 1_555 1_555
C104 C103 1_555 1_555
H180 C104 1_555 1_555
H181 C104 1_555 1_555
O13 C105 1_555 1_555
C105 H182 1_555 1_555
H183 C105 1_555 1_555
C106 C105 1_555 1_555
H184 C106 1_555 1_555
H185 C106 1_555 1_555
C107 C106 1_555 1_555
H186 C107 1_555 1_555
H187 C107 1_555 1_555
C108 O13 1_555 1_555
H188 C108 1_555 1_555
H189 C108 1_555 1_555
C112 C104 1_555 1_555
H196 C112 1_555 1_555
H197 C112 1_555 1_555
C113 O12 1_555 1_555
H198 C113 1_555 1_555
H199 C113 1_555 1_555
C114 C56 1_555 1_555
H200 C114 1_555 1_555
H201 C114 1_555 1_555
H202 C114 1_555 1_555
C115 C56 1_555 1_555
H203 C115 1_555 1_555
H204 C115 1_555 1_555
H205 C115 1_555 1_555
C116 C56 1_555 1_555
H206 C116 1_555 1_555
H207 C116 1_555 1_555
H208 C116 1_555 1_555
C117 C78 1_555 1_555
H209 C117 1_555 1_555
H210 C117 1_555 1_555
C118 C117 1_555 1_555
H211 C118 1_555 1_555
H212 C118 1_555 1_555
C119 O5 1_555 1_555
H213 C119 1_555 1_555
H214 C119 1_555 1_555
C1 C2 1_555 1_555
C5 C6 1_555 1_555
C17 C18 1_555 1_555
C21 C22 1_555 1_555
C33 C34 1_555 1_555
C37 C38 1_555 1_555
C49 C50 1_555 1_555
C53 C54 1_555 1_555
C64 C65 1_555 1_555
C68 C69 1_555 1_555
C72 C73 1_555 1_555
C76 C77 1_555 1_555
C81 C82 1_555 1_555
C85 C86 1_555 1_555
C89 C90 1_555 1_555
C93 C94 1_555 1_555
C97 C98 1_555 1_555
C101 C102 1_555 1_555
C107 C108 1_555 1_555
C112 C113 1_555 1_555
C118 C119 1_555 1_555

#END
