
#######################################################################
#
#                 Cambridge Crystallographic Data Centre
#                                CCDC 
#
#######################################################################
#
# If this CIF has been generated from an entry in the Cambridge 
# Structural Database, then it will include bibliographic, chemical, 
# crystal, experimental, refinement or atomic coordinate data resulting 
# from the CCDC's data processing and validation procedures.
#
#######################################################################

data_TEDFEQ
_chemical_formula_moiety         'C21 H22 Cl1 N3 O1'
_chemical_name_systematic        
12-chloro-7-(4-methylphenyl)-2,3,4,5,6,7-hexahydro-1H,9H-pyridazino[6,1-b]pyrrolo[1,2-a]quinazolin-9-one
_symmetry_cell_setting           monoclinic
_symmetry_space_group_name_H-M   'P 21/c'
_symmetry_Int_Tables_number      14
_space_group_name_Hall           '-P 2ybc'
loop_
_symmetry_equiv_pos_site_id
_symmetry_equiv_pos_as_xyz
1 x,y,z
2 -x,1/2+y,1/2-z
3 -x,-y,-z
4 x,1/2-y,1/2+z
_cell_length_a                   18.3444(11)
_cell_length_b                   7.4435(4)
_cell_length_c                   13.6177(7)
_cell_angle_alpha                90
_cell_angle_beta                 100.081(3)
_cell_angle_gamma                90
_cell_volume                     1830.74
_exptl_crystal_colour            brown
_exptl_crystal_description       block
_cell_formula_units_Z            4
loop_
_atom_site_label
_atom_site_type_symbol
_atom_site_fract_x
_atom_site_fract_y
_atom_site_fract_z
O1 O 0.73169(8) 1.15439(19) 0.36665(12)
Cl1 Cl 0.37777(3) 0.93061(9) 0.35884(5)
C1 C 0.59469(11) 0.8348(3) 0.42071(14)
C2 C 0.51802(11) 0.8192(3) 0.41335(15)
H1 H 0.4977 0.7206 0.4407
C3 C 0.47298(11) 0.9511(3) 0.36532(15)
C4 C 0.49983(13) 1.0977(3) 0.32211(17)
H2 H 0.4679 1.1827 0.2879
C5 C 0.57569(12) 1.1151(3) 0.33101(16)
H3 H 0.5950 1.2144 0.3030
C6 C 0.62349(11) 0.9885(3) 0.38056(14)
C7 C 0.70383(11) 1.0224(3) 0.39844(15)
C8 C 0.72129(11) 0.7122(3) 0.46359(16)
C9 C 0.75435(13) 0.6191(3) 0.56097(19)
H4 H 0.7997 0.5566 0.5544
H5 H 0.7651 0.7053 0.6149
C10 C 0.69638(16) 0.4897(4) 0.5797(3)
H6 H 0.6985 0.4725 0.6507
H7 H 0.7032 0.3744 0.5494
C11 C 0.62358(14) 0.5708(3) 0.5334(2)
H8 H 0.5915 0.4810 0.4966
H9 H 0.5988 0.6225 0.5840
C12 C 0.73914(13) 0.6208(3) 0.37028(19)
H10 H 0.7082 0.6713 0.3118
H11 H 0.7280 0.4937 0.3726
C13 C 0.82061(14) 0.6450(3) 0.3616(2)
H12 H 0.8510 0.5717 0.4117
H13 H 0.8281 0.6034 0.2966
C14 C 0.84548(13) 0.8397(3) 0.37520(17)
H14 H 0.8988 0.8475 0.3802
H15 H 0.8225 0.9106 0.3184
C15 C 0.85831(10) 1.0577(2) 0.51864(14)
C16 C 0.91832(11) 1.1428(3) 0.48999(17)
H16 H 0.9344 1.1077 0.4318
C17 C 0.95453(11) 1.2802(3) 0.54777(18)
H17 H 0.9949 1.3351 0.5274
C18 C 0.93288(11) 1.3382(3) 0.63396(16)
C19 C 0.87217(11) 1.2540(3) 0.66136(16)
H18 H 0.8558 1.2910 0.7190
C20 C 0.83524(10) 1.1166(3) 0.60519(15)
H19 H 0.7946 1.0629 0.6255
C21 C 0.97312(14) 1.4888(4) 0.6953(2)
H20 H 0.9502 1.5108 0.7524
H21 H 0.9707 1.5957 0.6555
H22 H 1.0240 1.4556 0.7170
N1 N 0.64241(9) 0.7088(2) 0.46704(14)
N2 N 0.74590(8) 0.90075(19) 0.46122(12)
N3 N 0.82356(9) 0.9083(2) 0.46678(12)
loop_
_geom_bond_atom_site_label_1
_geom_bond_atom_site_label_2
_geom_bond_site_symmetry_1
_geom_bond_site_symmetry_2
O1 C7 1_555 1_555
Cl1 C3 1_555 1_555
C1 C2 1_555 1_555
C2 H1 1_555 1_555
C3 C2 1_555 1_555
C4 C3 1_555 1_555
H2 C4 1_555 1_555
C5 C4 1_555 1_555
H3 C5 1_555 1_555
C6 C1 1_555 1_555
C7 C6 1_555 1_555
C8 C9 1_555 1_555
C9 H4 1_555 1_555
H5 C9 1_555 1_555
C10 C9 1_555 1_555
H6 C10 1_555 1_555
H7 C10 1_555 1_555
C11 C10 1_555 1_555
H8 C11 1_555 1_555
H9 C11 1_555 1_555
C12 C8 1_555 1_555
H10 C12 1_555 1_555
H11 C12 1_555 1_555
C13 C12 1_555 1_555
H12 C13 1_555 1_555
H13 C13 1_555 1_555
C14 C13 1_555 1_555
H14 C14 1_555 1_555
H15 C14 1_555 1_555
C15 C16 1_555 1_555
C16 H16 1_555 1_555
C17 C16 1_555 1_555
H17 C17 1_555 1_555
C18 C17 1_555 1_555
C19 C18 1_555 1_555
H18 C19 1_555 1_555
C20 C15 1_555 1_555
H19 C20 1_555 1_555
C21 C18 1_555 1_555
H20 C21 1_555 1_555
H21 C21 1_555 1_555
H22 C21 1_555 1_555
N1 C1 1_555 1_555
N2 C7 1_555 1_555
N3 C14 1_555 1_555
C5 C6 1_555 1_555
C8 N1 1_555 1_555
C8 N2 1_555 1_555
C11 N1 1_555 1_555
C15 N3 1_555 1_555
C19 C20 1_555 1_555
N2 N3 1_555 1_555

#END
