
#######################################################################
#
#                 Cambridge Crystallographic Data Centre
#                                CCDC 
#
#######################################################################
#
# If this CIF has been generated from an entry in the Cambridge 
# Structural Database, then it will include bibliographic, chemical, 
# crystal, experimental, refinement or atomic coordinate data resulting 
# from the CCDC's data processing and validation procedures.
#
#######################################################################

data_TEDVUV
_chemical_formula_moiety         '2(C3 H9 N6 1+),C4 N10 O2 2-,2(H2 O1)'
_chemical_name_systematic        
"bis(1-methyl-3,4,5-triamino-4H-1,2,4-triazolium) 5,5'-(2-oxido-1,2,5-oxadiazole-3,4-diyl)-bis(tetrazolate) dihydrate"
_symmetry_cell_setting           monoclinic
_symmetry_space_group_name_H-M   'P 21/n'
_symmetry_Int_Tables_number      14
_space_group_name_Hall           '-P 2yn'
loop_
_symmetry_equiv_pos_site_id
_symmetry_equiv_pos_as_xyz
1 x,y,z
2 1/2-x,1/2+y,1/2-z
3 -x,-y,-z
4 1/2+x,1/2-y,1/2+z
_cell_length_a                   15.239(4)
_cell_length_b                   6.9636(14)
_cell_length_c                   21.654(5)
_cell_angle_alpha                90
_cell_angle_beta                 106.177(3)
_cell_angle_gamma                90
_cell_volume                     2206.9
_exptl_crystal_colour            colorless
_exptl_crystal_description       prism
_chemical_melting_point          '493 K'
_cell_formula_units_Z            4
loop_
_atom_site_label
_atom_site_type_symbol
_atom_site_fract_x
_atom_site_fract_y
_atom_site_fract_z
O1 O 0.20252(12) 0.6658(3) 0.64487(8)
O2 O 0.30145(13) 0.5209(3) 0.72916(10)
N1 N -0.03618(12) 0.7845(3) 0.73176(8)
N2 N -0.12741(12) 0.8103(3) 0.70975(9)
N3 N -0.15390(13) 0.7780(3) 0.64763(9)
N4 N -0.08119(13) 0.7310(3) 0.62659(9)
N5 N 0.08289(12) 0.4028(3) 0.79634(8)
N6 N 0.10203(12) 0.3720(3) 0.86006(9)
N7 N 0.17439(13) 0.4722(3) 0.89002(8)
N8 N 0.20505(12) 0.5715(3) 0.84668(8)
N9 N 0.11291(13) 0.7294(3) 0.62977(9)
N10 N 0.22471(13) 0.5855(3) 0.70808(9)
C1 C -0.01083(14) 0.7367(3) 0.67950(9)
C2 C 0.08248(14) 0.6909(3) 0.67945(9)
C3 C 0.15099(13) 0.6007(3) 0.72844(10)
C4 C 0.14685(13) 0.5246(3) 0.79035(9)
O3 O 0.91434(11) -0.4440(2) 0.50587(7)
H1 H 0.9228 -0.3893 0.5416
H2 H 0.9116 -0.3655 0.4760
O4 O 0.11294(13) 0.1882(3) 0.59684(10)
H3 H 0.1178 0.2916 0.6171
H4 H 0.1622 0.1261 0.6126
N11 N 0.50643(11) 0.2533(3) 0.52505(8)
N12 N 0.42156(11) 0.2614(3) 0.47806(8)
N13 N 0.39862(11) 0.3710(3) 0.56485(8)
N14 N 0.35009(13) 0.4560(3) 0.60367(10)
N15 N 0.54930(13) 0.3483(3) 0.63505(9)
N16 N 0.26974(13) 0.3560(3) 0.47363(10)
C5 C 0.48960(13) 0.3206(3) 0.57712(10)
C6 C 0.35746(13) 0.3299(3) 0.50233(10)
C7 C 0.41180(15) 0.1951(3) 0.41291(10)
H7 H 0.4713 0.1526 0.4090
H8 H 0.3889 0.3002 0.3826
H9 H 0.3686 0.0877 0.4031
H14 H 0.238(2) 0.393(4) 0.4968(14)
H15 H 0.2453(19) 0.315(4) 0.4326(14)
H19 H 0.3763(19) 0.570(4) 0.6188(13)
H20 H 0.3466(19) 0.381(4) 0.6330(14)
H21 H 0.606(2) 0.305(4) 0.6401(14)
H22 H 0.529(2) 0.329(4) 0.6699(14)
N17 N 0.74153(11) 0.2432(3) 0.63059(8)
N18 N 0.82894(11) 0.2711(3) 0.67325(8)
N19 N 0.85052(11) 0.1880(3) 0.58327(8)
N20 N 0.89248(12) 0.1323(3) 0.53671(9)
H5 H 0.8974 0.2239 0.5119
H6 H 0.9328 0.0472 0.5364
N21 N 0.69635(14) 0.1529(3) 0.52100(10)
N22 N 0.98349(13) 0.2374(3) 0.67079(10)
C8 C 0.75769(13) 0.1936(3) 0.57642(10)
C9 C 0.89395(14) 0.2345(3) 0.64549(10)
C10 C 0.83887(16) 0.3088(4) 0.74063(10)
H10 H 0.7785 0.3310 0.7471
H11 H 0.8771 0.4227 0.7541
H12 H 0.8677 0.1980 0.7663
H13 H 1.0164(19) 0.213(4) 0.6452(13)
H16 H 0.713(2) 0.122(4) 0.4865(14)
H17 H 1.006(2) 0.256(4) 0.7118(14)
H18 H 0.636(2) 0.175(4) 0.5184(13)
H23? H 0.9037 0.3034 0.7646
H24? H 0.8051 0.2118 0.7575
H25? H 0.8146 0.4365 0.7454
H26? H 0.3479 0.2077 0.3875
H27? H 0.4303 0.0601 0.4139
H28? H 0.4506 0.2726 0.3934
O5? O 0.0834(6) 0.8140(12) 0.5801(3)
loop_
_geom_bond_atom_site_label_1
_geom_bond_atom_site_label_2
_geom_bond_site_symmetry_1
_geom_bond_site_symmetry_2
O1 N9 1_555 1_555
O2 N10 1_555 1_555
O3 H1 1_555 1_555
H2 O3 1_555 1_555
O4 H3 1_555 1_555
H4 O4 1_555 1_555
N1 N2 1_555 1_555
N2 N3 1_555 1_555
N3 N4 1_555 1_555
N4 C1 1_555 1_555
N5 N6 1_555 1_555
N6 N7 1_555 1_555
N7 N8 1_555 1_555
N8 C4 1_555 1_555
N9 C2 1_555 1_555
N10 O1 1_555 1_555
N11 N12 1_555 1_555
N12 C6 1_555 1_555
N13 N14 1_555 1_555
N14 H19 1_555 1_555
N15 C5 1_555 1_555
N16 C6 1_555 1_555
N17 N18 1_555 1_555
N18 C9 1_555 1_555
N19 N20 1_555 1_555
N20 H5 1_555 1_555
H6 N20 1_555 1_555
N21 C8 1_555 1_555
N22 C9 1_555 1_555
C1 N1 1_555 1_555
C2 C1 1_555 1_555
C3 N10 1_555 1_555
C4 N5 1_555 1_555
C5 N11 1_555 1_555
C6 N13 1_555 1_555
C7 N12 1_555 1_555
H7 C7 1_555 1_555
H8 C7 1_555 1_555
H9 C7 1_555 1_555
C8 N17 1_555 1_555
C9 N19 1_555 1_555
C10 N18 1_555 1_555
H10 C10 1_555 1_555
H11 C10 1_555 1_555
H12 C10 1_555 1_555
H13 N22 1_555 1_555
H14 N16 1_555 1_555
H15 N16 1_555 1_555
H16 N21 1_555 1_555
H17 N22 1_555 1_555
H18 N21 1_555 1_555
H20 N14 1_555 1_555
H21 N15 1_555 1_555
H22 N15 1_555 1_555
N13 C5 1_555 1_555
N19 C8 1_555 1_555
C2 C3 1_555 1_555
C3 C4 1_555 1_555

#END
