
#######################################################################
#
#                 Cambridge Crystallographic Data Centre
#                                CCDC 
#
#######################################################################
#
# If this CIF has been generated from an entry in the Cambridge 
# Structural Database, then it will include bibliographic, chemical, 
# crystal, experimental, refinement or atomic coordinate data resulting 
# from the CCDC's data processing and validation procedures.
#
#######################################################################

data_TEDVUW
_chemical_name_common            
"2',3',3',5',5',5',6'-heptamethyldispiro[cyclohexane-1,2'-4,8,12,16-tetraaza-1,6,14(1,3),3,9,11(1,4)-hexabenzenacyclo-hexadecaphane-10',1''-cyclohexane]-5',7',13',15'-tetraone methanol solvate"
_chemical_formula_moiety         'C60 H64 N4 O4,4(C1 H4 O1)'
_chemical_name_systematic        
"5',17',23',35',38',40',43',45'-octamethyl-7',15',25',33'-tetraazadispiro[cyclohexane-1,2'-heptacyclo[32.2.2.2^3,6^.2^16,19^.2^21,24^.1^9,13^.1^27,31^]hexatetracontane-20',1''-cyclohexane]-1'(36'),3',5',9'(44'),10',12',16',18',21',23',27'(39'),28',30',34',37',40',42',45'-octadecaene-8',14',26',32'-tetrone methanol solvate"
_symmetry_cell_setting           monoclinic
_symmetry_space_group_name_H-M   'P 21/n'
_symmetry_Int_Tables_number      14
_space_group_name_Hall           '-P 2yn'
loop_
_symmetry_equiv_pos_site_id
_symmetry_equiv_pos_as_xyz
1 x,y,z
2 1/2-x,1/2+y,1/2-z
3 -x,-y,-z
4 1/2+x,1/2-y,1/2+z
_cell_length_a                   9.0362(2)
_cell_length_b                   23.6849(6)
_cell_length_c                   13.5137(4)
_cell_angle_alpha                90
_cell_angle_beta                 90.620(1)
_cell_angle_gamma                90
_cell_volume                     2892.05
_exptl_crystal_colour            colorless
_exptl_crystal_description       plates
_cell_formula_units_Z            2
loop_
_atom_site_label
_atom_site_type_symbol
_atom_site_fract_x
_atom_site_fract_y
_atom_site_fract_z
C1 C -0.0252(4) 0.61082(16) 0.6542(3)
O1 O -0.1334(3) 0.58773(12) 0.6925(2)
N1 N 0.1138(3) 0.59672(13) 0.6793(2)
H1 H 0.1865 0.6168 0.6546
C2 C 0.1516(4) 0.55033(16) 0.7448(3)
C3 C 0.1877(4) 0.56204(15) 0.8426(3)
C4 C 0.2332(4) 0.51686(15) 0.9024(3)
H2 H 0.2576 0.5241 0.9697
C5 C 0.2441(4) 0.46204(15) 0.8674(3)
C6 C 0.2040(4) 0.45304(16) 0.7687(3)
H3 H 0.2089 0.4157 0.7432
C7 C 0.1576(4) 0.49580(16) 0.7062(3)
C8 C 0.3006(4) 0.41170(15) 0.9297(3)
C9 C 0.3578(4) 0.43007(15) 1.0331(3)
H4 H 0.4429 0.4559 1.0251
H5 H 0.2786 0.4511 1.0673
C10 C 0.4051(4) 0.38042(16) 1.0966(3)
H6 H 0.4425 0.3943 1.1613
H7 H 0.4864 0.3599 1.0637
C11 C 0.2751(4) 0.34040(17) 1.1127(3)
H8 H 0.3092 0.3072 1.1512
H9 H 0.1980 0.3599 1.1514
C12 C 0.2098(4) 0.32096(16) 1.0147(3)
H10 H 0.1200 0.2982 1.0270
H11 H 0.2823 0.2967 0.9805
C13 C 0.1695(4) 0.37107(15) 0.9483(3)
H12 H 0.0881 0.3925 0.9792
H13 H 0.1326 0.3566 0.8838
C14 C 0.4247(4) 0.38431(15) 0.8688(3)
C15 C 0.5617(4) 0.41114(16) 0.8610(3)
H14 H 0.5811 0.4430 0.9017
C16 C 0.6710(4) 0.39331(15) 0.7964(3)
C17 C 0.6406(4) 0.34637(16) 0.7373(3)
C18 C 0.5076(4) 0.31727(15) 0.7446(3)
C19 C 0.4025(4) 0.33703(15) 0.8105(3)
H15 H 0.3115 0.3172 0.8158
N2 N 0.7416(3) 0.33099(13) 0.6600(2)
H16 H 0.7112 0.3358 0.5985
C20 C 0.8793(4) 0.30977(15) 0.6743(3)
O2 O 0.9279(3) 0.29492(12) 0.7554(2)
C21 C 0.9707(4) 0.30712(15) 0.5819(3)
C22 C 1.0769(4) 0.26460(16) 0.5720(3)
H17 H 1.0904 0.2375 0.6231
C23 C 1.1625(4) 0.26207(17) 0.4876(3)
H18 H 1.2329 0.2326 0.4803
C24 C 1.1461(4) 0.30206(16) 0.4144(3)
H19 H 1.2066 0.3005 0.3574
C25 C 1.0413(4) 0.34471(16) 0.4234(3)
C26 C 0.9539(4) 0.34648(15) 0.5069(3)
H20 H 0.8811 0.3752 0.5127
C27 C 0.1796(4) 0.62038(16) 0.8842(3)
H21 H 0.2499 0.6448 0.8497
H22 H 0.2047 0.6194 0.9549
H23 H 0.0791 0.6352 0.8751
C28 C 0.1176(5) 0.4842(2) 0.5999(3)
H24 H 0.0125 0.4926 0.5887
H25 H 0.1365 0.4444 0.5849
H26 H 0.1777 0.5080 0.5568
C29 C 0.8149(4) 0.42513(17) 0.7900(3)
H27 H 0.8920 0.4048 0.8271
H28 H 0.8026 0.4629 0.8182
H29 H 0.8438 0.4284 0.7206
C30 C 0.4750(5) 0.26622(17) 0.6812(3)
H30 H 0.4710 0.2775 0.6115
H31 H 0.3797 0.2500 0.7001
H32 H 0.5533 0.2381 0.6909
C1B C 1.0252(4) 0.38918(16) 0.3458(3)
O1B O 1.1334(3) 0.41227(12) 0.3075(2)
N1B N 0.8862(3) 0.40328(13) 0.3207(2)
H1B H 0.8135 0.3832 0.3454
C2B C 0.8484(4) 0.44967(16) 0.2552(3)
C3B C 0.8123(4) 0.43796(15) 0.1574(3)
C4B C 0.7668(4) 0.48314(15) 0.0976(3)
H2B H 0.7424 0.4759 0.0303
C5B C 0.7559(4) 0.53796(15) 0.1326(3)
C6B C 0.7960(4) 0.54696(16) 0.2313(3)
H3B H 0.7911 0.5843 0.2568
C7B C 0.8424(4) 0.50420(16) 0.2938(3)
C8B C 0.6994(4) 0.58830(15) 0.0703(3)
C9B C 0.6422(4) 0.56993(15) -0.0331(3)
H4B H 0.5571 0.5441 -0.0251
H5B H 0.7214 0.5489 -0.0673
C10B C 0.5949(4) 0.61958(16) -0.0966(3)
H6B H 0.5575 0.6057 -0.1613
H7B H 0.5136 0.6401 -0.0637
C11B C 0.7249(4) 0.65960(17) -0.1127(3)
H8B H 0.6908 0.6928 -0.1512
H9B H 0.8020 0.6401 -0.1514
C12B C 0.7902(4) 0.67904(16) -0.0147(3)
H10B H 0.8800 0.7018 -0.0270
H11B H 0.7177 0.7033 0.0195
C13B C 0.8305(4) 0.62893(15) 0.0517(3)
H12B H 0.9119 0.6075 0.0208
H13B H 0.8674 0.6434 0.1162
C14B C 0.5753(4) 0.61569(15) 0.1312(3)
C15B C 0.4383(4) 0.58886(16) 0.1390(3)
H14B H 0.4189 0.5570 0.0983
C16B C 0.3290(4) 0.60669(15) 0.2036(3)
C17B C 0.3594(4) 0.65363(16) 0.2627(3)
C18B C 0.4924(4) 0.68273(15) 0.2554(3)
C19B C 0.5975(4) 0.66297(15) 0.1895(3)
H15B H 0.6885 0.6828 0.1842
N2B N 0.2584(3) 0.66901(13) 0.3400(2)
H16B H 0.2888 0.6642 0.4015
C20B C 0.1207(4) 0.69023(15) 0.3257(3)
O2B O 0.0721(3) 0.70508(12) 0.2446(2)
C21B C 0.0293(4) 0.69288(15) 0.4181(3)
C22B C -0.0769(4) 0.73540(16) 0.4280(3)
H17B H -0.0904 0.7625 0.3769
C23B C -0.1625(4) 0.73793(17) 0.5124(3)
H18B H -0.2329 0.7674 0.5197
C24B C -0.1461(4) 0.69794(16) 0.5856(3)
H19B H -0.2066 0.6995 0.6426
C25B C -0.0413(4) 0.65529(16) 0.5766(3)
C26B C 0.0461(4) 0.65352(15) 0.4931(3)
H20B H 0.1189 0.6248 0.4873
C27B C 0.8204(4) 0.37962(16) 0.1158(3)
H21B H 0.7501 0.3552 0.1503
H22B H 0.7953 0.3806 0.0451
H23B H 0.9209 0.3648 0.1249
C28B C 0.8824(5) 0.5158(2) 0.4001(3)
H24B H 0.9875 0.5074 0.4113
H25B H 0.8635 0.5556 0.4151
H26B H 0.8223 0.4920 0.4432
C29B C 0.1851(4) 0.57487(17) 0.2100(3)
H27B H 0.1080 0.5952 0.1729
H28B H 0.1974 0.5371 0.1818
H29B H 0.1562 0.5716 0.2794
C30B C 0.5250(5) 0.73378(17) 0.3188(3)
H30B H 0.5290 0.7225 0.3885
H31B H 0.6203 0.7500 0.2999
H32B H 0.4467 0.7619 0.3091
O3 O 0.3762(3) 0.64425(14) 0.5678(3)
H33 H 0.4547 0.6294 0.5475
C31 C 0.4128(6) 0.6922(2) 0.6328(4)
H34 H 0.4236 0.6789 0.7012
H35 H 0.3334 0.7203 0.6290
H36 H 0.5059 0.7094 0.6115
O4 O 0.5930(4) 0.56990(16) 0.6052(3)
H37 H 0.6762 0.5795 0.6280
C32 C 0.5536(7) 0.5170(3) 0.6440(6)
H38 H 0.5572 0.5186 0.7164
H39 H 0.6229 0.4883 0.6206
H40 H 0.4530 0.5074 0.6220
loop_
_geom_bond_atom_site_label_1
_geom_bond_atom_site_label_2
_geom_bond_site_symmetry_1
_geom_bond_site_symmetry_2
C1 O1 1_555 1_555
N1 C1 1_555 1_555
H1 N1 1_555 1_555
C2 N1 1_555 1_555
C3 C2 1_555 1_555
C4 C3 1_555 1_555
H2 C4 1_555 1_555
C5 C4 1_555 1_555
C6 C5 1_555 1_555
H3 C6 1_555 1_555
C7 C2 1_555 1_555
C8 C5 1_555 1_555
C9 C8 1_555 1_555
H4 C9 1_555 1_555
H5 C9 1_555 1_555
C10 C9 1_555 1_555
H6 C10 1_555 1_555
H7 C10 1_555 1_555
C11 C10 1_555 1_555
H8 C11 1_555 1_555
H9 C11 1_555 1_555
C12 C11 1_555 1_555
H10 C12 1_555 1_555
H11 C12 1_555 1_555
C13 C8 1_555 1_555
H12 C13 1_555 1_555
H13 C13 1_555 1_555
C14 C8 1_555 1_555
C15 C14 1_555 1_555
H14 C15 1_555 1_555
C16 C15 1_555 1_555
C17 C16 1_555 1_555
C18 C17 1_555 1_555
C19 C14 1_555 1_555
H15 C19 1_555 1_555
N2 C17 1_555 1_555
H16 N2 1_555 1_555
C20 N2 1_555 1_555
O2 C20 1_555 1_555
C21 C20 1_555 1_555
C22 C21 1_555 1_555
H17 C22 1_555 1_555
C23 C22 1_555 1_555
H18 C23 1_555 1_555
C24 C23 1_555 1_555
H19 C24 1_555 1_555
C25 C24 1_555 1_555
C26 C21 1_555 1_555
H20 C26 1_555 1_555
C27 C3 1_555 1_555
H21 C27 1_555 1_555
H22 C27 1_555 1_555
H23 C27 1_555 1_555
C28 C7 1_555 1_555
H24 C28 1_555 1_555
H25 C28 1_555 1_555
H26 C28 1_555 1_555
C29 C16 1_555 1_555
H27 C29 1_555 1_555
H28 C29 1_555 1_555
H29 C29 1_555 1_555
C30 C18 1_555 1_555
H30 C30 1_555 1_555
H31 C30 1_555 1_555
H32 C30 1_555 1_555
O3 H33 1_555 1_555
C31 O3 1_555 1_555
H34 C31 1_555 1_555
H35 C31 1_555 1_555
H36 C31 1_555 1_555
O4 H37 1_555 1_555
C32 O4 1_555 1_555
H38 C32 1_555 1_555
H39 C32 1_555 1_555
H40 C32 1_555 1_555
C1B C25 1_555 1_555
O1B C1B 1_555 1_555
N1B C1B 1_555 1_555
H1B N1B 1_555 1_555
C2B N1B 1_555 1_555
C3B C2B 1_555 1_555
C4B C3B 1_555 1_555
H2B C4B 1_555 1_555
C5B C4B 1_555 1_555
C6B C5B 1_555 1_555
H3B C6B 1_555 1_555
C7B C2B 1_555 1_555
C8B C5B 1_555 1_555
C9B C8B 1_555 1_555
H4B C9B 1_555 1_555
H5B C9B 1_555 1_555
C10B C9B 1_555 1_555
H6B C10B 1_555 1_555
H7B C10B 1_555 1_555
C11B C10B 1_555 1_555
H8B C11B 1_555 1_555
H9B C11B 1_555 1_555
C12B C11B 1_555 1_555
H10B C12B 1_555 1_555
H11B C12B 1_555 1_555
C13B C8B 1_555 1_555
H12B C13B 1_555 1_555
H13B C13B 1_555 1_555
C14B C8B 1_555 1_555
C15B C14B 1_555 1_555
H14B C15B 1_555 1_555
C16B C15B 1_555 1_555
C17B C16B 1_555 1_555
C18B C17B 1_555 1_555
C19B C14B 1_555 1_555
H15B C19B 1_555 1_555
N2B C17B 1_555 1_555
H16B N2B 1_555 1_555
C20B N2B 1_555 1_555
O2B C20B 1_555 1_555
C21B C20B 1_555 1_555
C22B C21B 1_555 1_555
H17B C22B 1_555 1_555
C23B C22B 1_555 1_555
H18B C23B 1_555 1_555
C24B C23B 1_555 1_555
H19B C24B 1_555 1_555
C25B C1 1_555 1_555
C26B C21B 1_555 1_555
H20B C26B 1_555 1_555
C27B C3B 1_555 1_555
H21B C27B 1_555 1_555
H22B C27B 1_555 1_555
H23B C27B 1_555 1_555
C28B C7B 1_555 1_555
H24B C28B 1_555 1_555
H25B C28B 1_555 1_555
H26B C28B 1_555 1_555
C29B C16B 1_555 1_555
H27B C29B 1_555 1_555
H28B C29B 1_555 1_555
H29B C29B 1_555 1_555
C30B C18B 1_555 1_555
H30B C30B 1_555 1_555
H31B C30B 1_555 1_555
H32B C30B 1_555 1_555
C6 C7 1_555 1_555
C12 C13 1_555 1_555
C18 C19 1_555 1_555
C25 C26 1_555 1_555
C6B C7B 1_555 1_555
C12B C13B 1_555 1_555
C18B C19B 1_555 1_555
C24B C25B 1_555 1_555
C25B C26B 1_555 1_555

#END
