
#######################################################################
#
#                 Cambridge Crystallographic Data Centre
#                                CCDC 
#
#######################################################################
#
# If this CIF has been generated from an entry in the Cambridge 
# Structural Database, then it will include bibliographic, chemical, 
# crystal, experimental, refinement or atomic coordinate data resulting 
# from the CCDC's data processing and validation procedures.
#
#######################################################################

data_TEDXIJ
_chemical_formula_moiety         'C14 H13 Cl1 N4 O1'
_chemical_name_systematic        
4-Acetyl-7-chloro-1,3-dimethyl-1,5-dihydropyridazino(3,4-b)quinoxaline
_symmetry_cell_setting           triclinic
_symmetry_space_group_name_H-M   'P -1'
_symmetry_Int_Tables_number      2
_space_group_name_Hall           '-P 1'
loop_
_symmetry_equiv_pos_site_id
_symmetry_equiv_pos_as_xyz
1 x,y,z
2 -x,-y,-z
_cell_length_a                   9.626(1)
_cell_length_b                   10.005(1)
_cell_length_c                   7.8647(9)
_cell_angle_alpha                101.43(1)
_cell_angle_beta                 113.25(1)
_cell_angle_gamma                101.17(1)
_cell_volume                     650.279
_exptl_crystal_colour            red
_chemical_melting_point          223-224deg.C
_cell_formula_units_Z            2
loop_
_atom_site_label
_atom_site_type_symbol
_atom_site_fract_x
_atom_site_fract_y
_atom_site_fract_z
Cl1 Cl 0.7540(3) 0.9366(2) 0.1980(3)
O1 O 1.3225(6) 1.4305(5) 1.0303(7)
N1 N 1.1003(7) 1.8192(6) 1.0225(8)
N2 N 0.9690(7) 1.731(6) 0.8575(8)
N3 N 0.8223(7) 1.5296(6) 0.5965(8)
N4 N 1.0565(7) 1.4035(6) 0.7561(9)
C1 C 1.2113(8) 1.6212(7) 1.026(1)
C2 C 1.214(1) 1.7673(8) 1.104(1)
C3 C 0.9493(9) 1.5950(7) 0.761(1)
C4 C 1.0795(8) 1.5404(7) 0.854(1)
C5 C 0.8086(9) 1.3898(7) 0.504(1)
C6 C 0.9254(8) 1.3243(7) 0.583(1)
C7 C 0.9093(9) 1.1847(8) 0.493(1)
C8 C 0.76(1) 1.1130(7) 0.320(1)
C9 C 0.659(1) 1.1722(8) 0.235(1)
C10 C 0.677(1) 1.3118(8) 0.330(1)
C11 C 1.3388(9) 1.5582(8) 1.110(1)
C12 C 1.488(1) 1.6358(9) 1.292(1)
C13 C 1.351(1) 1.8778(8) 1.279(1)
C14 C 0.846(1) 1.7992(8) 0.774(1)
loop_
_geom_bond_atom_site_label_1
_geom_bond_atom_site_label_2
_geom_bond_site_symmetry_1
_geom_bond_site_symmetry_2
Cl1 C8 1_555 1_555
O1 C11 1_555 1_555
N1 N2 1_555 1_555
N2 C3 1_555 1_555
N3 C3 1_555 1_555
N4 C4 1_555 1_555
C1 C2 1_555 1_555
C2 N1 1_555 1_555
C3 C4 1_555 1_555
C4 C1 1_555 1_555
C5 N3 1_555 1_555
C6 N4 1_555 1_555
C7 C6 1_555 1_555
C8 C7 1_555 1_555
C9 C8 1_555 1_555
C10 C5 1_555 1_555
C11 C1 1_555 1_555
C12 C11 1_555 1_555
C13 C2 1_555 1_555
C14 N2 1_555 1_555
C5 C6 1_555 1_555
C9 C10 1_555 1_555

#END
