
#######################################################################
#
#                 Cambridge Crystallographic Data Centre
#                                CCDC 
#
#######################################################################
#
# If this CIF has been generated from an entry in the Cambridge 
# Structural Database, then it will include bibliographic, chemical, 
# crystal, experimental, refinement or atomic coordinate data resulting 
# from the CCDC's data processing and validation procedures.
#
#######################################################################

data_TEFBEO
_chemical_formula_moiety         'C13 H11 N1 O1'
_chemical_name_systematic        
11-methyl-10-oxatetracyclo[7.2.1.0^2,11^.0^3,8^]dodeca-3,5,7-triene-12-carbonitrile
_symmetry_cell_setting           orthorhombic
_symmetry_space_group_name_H-M   'P b c a'
_symmetry_Int_Tables_number      61
_space_group_name_Hall           '-P 2ac 2ab'
loop_
_symmetry_equiv_pos_site_id
_symmetry_equiv_pos_as_xyz
1 x,y,z
2 1/2-x,-y,1/2+z
3 -x,1/2+y,1/2-z
4 1/2+x,1/2-y,-z
5 -x,-y,-z
6 1/2+x,y,1/2-z
7 x,1/2-y,1/2+z
8 1/2-x,1/2+y,z
_cell_length_a                   9.2585(6)
_cell_length_b                   11.3890(7)
_cell_length_c                   19.3187(11)
_cell_angle_alpha                90
_cell_angle_beta                 90
_cell_angle_gamma                90
_cell_volume                     2037.06
_exptl_crystal_colour            colorless
_exptl_crystal_description       Block
_cell_formula_units_Z            8
loop_
_atom_site_label
_atom_site_type_symbol
_atom_site_fract_x
_atom_site_fract_y
_atom_site_fract_z
C1 C 0.4303(2) 0.35655(16) 0.64031(10)
C2 C 0.5542(2) 0.28927(18) 0.64965(12)
H1 H 0.5830 0.2675 0.6939
C3 C 0.6337(3) 0.2551(2) 0.59294(15)
H2 H 0.7170 0.2106 0.5990
C4 C 0.5909(2) 0.28617(19) 0.52793(14)
H3 H 0.6448 0.2616 0.4900
C5 C 0.4688(2) 0.35365(17) 0.51755(11)
H4 H 0.4405 0.3740 0.4729
C6 C 0.3883(2) 0.39091(15) 0.57430(9)
C7 C 0.2595(2) 0.46532(16) 0.57070(9)
H5 H 0.2269 0.4884 0.5244
C8 C 0.2334(2) 0.55351(17) 0.62915(10)
H6 H 0.1916 0.6307 0.6190
C9 C 0.3269(2) 0.53645(19) 0.69207(10)
H7 H 0.2764 0.5667 0.7329
C10 C 0.3327(2) 0.40068(18) 0.69569(9)
H8 H 0.3614 0.3726 0.7416
C11 C 0.1427(2) 0.44615(18) 0.62495(10)
C12 C -0.0142(2) 0.4394(2) 0.60900(13)
H9 H -0.0393 0.3599 0.5975
H10 H -0.0358 0.4897 0.5705
H11 H -0.0687 0.4641 0.6487
C13 C 0.4705(3) 0.58925(19) 0.68819(10)
N1 N 0.5818(2) 0.63134(18) 0.68577(10)
O1 O 0.18613(16) 0.36840(12) 0.67888(7)
loop_
_geom_bond_atom_site_label_1
_geom_bond_atom_site_label_2
_geom_bond_site_symmetry_1
_geom_bond_site_symmetry_2
C1 C2 1_555 1_555
C2 H1 1_555 1_555
C3 C2 1_555 1_555
H2 C3 1_555 1_555
C4 C3 1_555 1_555
H3 C4 1_555 1_555
C5 C4 1_555 1_555
H4 C5 1_555 1_555
C6 C1 1_555 1_555
C7 C6 1_555 1_555
H5 C7 1_555 1_555
C8 C7 1_555 1_555
H6 C8 1_555 1_555
C9 C8 1_555 1_555
H7 C9 1_555 1_555
C10 C1 1_555 1_555
H8 C10 1_555 1_555
C11 C7 1_555 1_555
C12 C11 1_555 1_555
H9 C12 1_555 1_555
H10 C12 1_555 1_555
H11 C12 1_555 1_555
C13 C9 1_555 1_555
N1 C13 1_555 1_555
O1 C10 1_555 1_555
C5 C6 1_555 1_555
C8 C11 1_555 1_555
C9 C10 1_555 1_555
C11 O1 1_555 1_555

#END
