
#######################################################################
#
#                 Cambridge Crystallographic Data Centre
#                                CCDC 
#
#######################################################################
#
# If this CIF has been generated from an entry in the Cambridge 
# Structural Database, then it will include bibliographic, chemical, 
# crystal, experimental, refinement or atomic coordinate data resulting 
# from the CCDC's data processing and validation procedures.
#
#######################################################################

data_TEFDEQ
_chemical_formula_moiety         'C15 H16 N4 O1'
_chemical_name_systematic        
4-(dimethylamino)-2-[(1,2-dimethyl-5-oxo-1,5-dihydro-4H-imidazol-4-ylidene)methyl]benzonitrile
_symmetry_cell_setting           triclinic
_symmetry_space_group_name_H-M   'P -1'
_symmetry_Int_Tables_number      2
_space_group_name_Hall           '-P 1'
loop_
_symmetry_equiv_pos_site_id
_symmetry_equiv_pos_as_xyz
1 x,y,z
2 -x,-y,-z
_cell_length_a                   10.3427(6)
_cell_length_b                   11.3011(8)
_cell_length_c                   13.1434(11)
_cell_angle_alpha                111.232(7)
_cell_angle_beta                 92.812(6)
_cell_angle_gamma                101.965(6)
_cell_volume                     1387.82
_exptl_crystal_description       plate
_cell_formula_units_Z            4
loop_
_atom_site_label
_atom_site_type_symbol
_atom_site_fract_x
_atom_site_fract_y
_atom_site_fract_z
O1 O 0.78884(15) 0.76509(16) 0.17853(15)
N1 N 0.62031(18) 0.83669(16) 0.11458(15)
N2 N 0.43996(17) 0.67561(16) 0.09707(14)
N3 N 0.09552(19) 0.30369(19) 0.09938(18)
N4 N 0.7459(2) 0.3575(2) 0.2567(2)
C1 C 0.6725(2) 0.75067(19) 0.14663(17)
C2 C 0.4836(2) 0.7862(2) 0.08671(17)
C3 C 0.5529(2) 0.64491(19) 0.13484(16)
C4 C 0.7018(3) 0.9546(2) 0.1078(2)
H1 H 0.7954 0.9640 0.1332
H2 H 0.6720 1.0309 0.1544
H3 H 0.6927 0.9481 0.0313
C5 C 0.3978(3) 0.8583(2) 0.0512(2)
H4 H 0.3047 0.8083 0.0354
H5 H 0.4259 0.8701 -0.0154
H6 H 0.4063 0.9440 0.1100
C6 C 0.5639(2) 0.5432(2) 0.16164(17)
H7 H 0.6525 0.5416 0.1828
C7 C 0.4604(2) 0.43490(19) 0.16316(16)
C8 C 0.3272(2) 0.41954(19) 0.12893(17)
H8 H 0.3028 0.4804 0.1020
C9 C 0.2263(2) 0.31610(19) 0.13278(17)
C10 C 0.2668(2) 0.2287(2) 0.17465(19)
H9 H 0.2016 0.1584 0.1789
C11 C 0.3989(2) 0.2432(2) 0.20929(18)
H10 H 0.4231 0.1839 0.2383
C12 C 0.4982(2) 0.3440(2) 0.20245(17)
C13 C 0.6355(2) 0.3523(2) 0.2337(2)
C14 C 0.0575(2) 0.3852(2) 0.0444(2)
H11 H 0.1330 0.4592 0.0555
H12 H -0.0183 0.4180 0.0755
H13 H 0.0321 0.3331 -0.0346
C15 C -0.0079(2) 0.1903(2) 0.0897(2)
H14 H 0.0264 0.1419 0.1291
H15 H -0.0348 0.1335 0.0118
H16 H -0.0851 0.2188 0.1217
O2 O 0.57683(16) 1.12099(16) 0.33650(15)
N5 N 0.71989(17) 1.01985(17) 0.39601(15)
N6 N 0.57528(17) 0.84392(17) 0.40277(15)
N7 N 0.2016(2) 0.50046(19) 0.41168(18)
N8 N 0.0904(2) 0.9547(2) 0.2180(2)
C16 C 0.5970(2) 1.0339(2) 0.36352(17)
C17 C 0.6994(2) 0.9069(2) 0.41815(17)
C18 C 0.5027(2) 0.91746(19) 0.36779(16)
C19 C 0.8456(2) 1.1091(2) 0.4010(2)
H17 H 0.8282 1.1803 0.3809
H18 H 0.9000 1.0617 0.3496
H19 H 0.8935 1.1454 0.4761
C20 C 0.8137(3) 0.8658(3) 0.4568(2)
H20 H 0.7806 0.7843 0.4682
H21 H 0.8609 0.9342 0.5264
H22 H 0.8749 0.8516 0.4014
C21 C 0.3714(2) 0.8944(2) 0.33703(17)
H23 H 0.3449 0.9583 0.3154
C22 C 0.26300(19) 0.78544(19) 0.33184(16)
C23 C 0.2844(2) 0.6916(2) 0.37108(17)
H24 H 0.3721 0.6970 0.4005
C24 C 0.1789(2) 0.5882(2) 0.36844(17)
C25 C 0.0504(2) 0.5811(2) 0.32075(18)
H25 H -0.0222 0.5117 0.3164
C26 C 0.0291(2) 0.6727(2) 0.28077(18)
H26 H -0.0580 0.6653 0.2487
C27 C 0.1330(2) 0.7770(2) 0.28627(17)
C28 C 0.0986(3) 0.3878(2) 0.4041(2)
H27 H 0.0139 0.3911 0.3698
H28 H 0.0889 0.3886 0.4781
H29 H 0.1235 0.3076 0.3593
C29 C 0.3353(3) 0.5112(3) 0.4603(2)
H30 H 0.3959 0.5905 0.4604
H31 H 0.3668 0.4344 0.4171
H32 H 0.3333 0.5161 0.5362
C30 C 0.1077(2) 0.8740(2) 0.24667(19)
loop_
_geom_bond_atom_site_label_1
_geom_bond_atom_site_label_2
_geom_bond_site_symmetry_1
_geom_bond_site_symmetry_2
O1 C1 1_555 1_555
N1 C1 1_555 1_555
N2 C2 1_555 1_555
N3 C9 1_555 1_555
N4 C13 1_555 1_555
C1 C3 1_555 1_555
C2 N1 1_555 1_555
C3 N2 1_555 1_555
C4 N1 1_555 1_555
H1 C4 1_555 1_555
H2 C4 1_555 1_555
H3 C4 1_555 1_555
C5 C2 1_555 1_555
H4 C5 1_555 1_555
H5 C5 1_555 1_555
H6 C5 1_555 1_555
C6 C3 1_555 1_555
H7 C6 1_555 1_555
C7 C6 1_555 1_555
C8 C7 1_555 1_555
H8 C8 1_555 1_555
C9 C8 1_555 1_555
C10 C9 1_555 1_555
H9 C10 1_555 1_555
C11 C10 1_555 1_555
H10 C11 1_555 1_555
C12 C7 1_555 1_555
C13 C12 1_555 1_555
C14 N3 1_555 1_555
H11 C14 1_555 1_555
H12 C14 1_555 1_555
H13 C14 1_555 1_555
C15 N3 1_555 1_555
H14 C15 1_555 1_555
H15 C15 1_555 1_555
H16 C15 1_555 1_555
O2 C16 1_555 1_555
N5 C16 1_555 1_555
N6 C17 1_555 1_555
N7 C24 1_555 1_555
N8 C30 1_555 1_555
C16 C18 1_555 1_555
C17 N5 1_555 1_555
C18 N6 1_555 1_555
C19 N5 1_555 1_555
H17 C19 1_555 1_555
H18 C19 1_555 1_555
H19 C19 1_555 1_555
C20 C17 1_555 1_555
H20 C20 1_555 1_555
H21 C20 1_555 1_555
H22 C20 1_555 1_555
C21 C18 1_555 1_555
H23 C21 1_555 1_555
C22 C21 1_555 1_555
C23 C22 1_555 1_555
H24 C23 1_555 1_555
C24 C23 1_555 1_555
C25 C24 1_555 1_555
H25 C25 1_555 1_555
C26 C25 1_555 1_555
H26 C26 1_555 1_555
C27 C22 1_555 1_555
C28 N7 1_555 1_555
H27 C28 1_555 1_555
H28 C28 1_555 1_555
H29 C28 1_555 1_555
C29 N7 1_555 1_555
H30 C29 1_555 1_555
H31 C29 1_555 1_555
H32 C29 1_555 1_555
C30 C27 1_555 1_555
C11 C12 1_555 1_555
C26 C27 1_555 1_555

#END
