
#######################################################################
#
#                 Cambridge Crystallographic Data Centre
#                                CCDC 
#
#######################################################################
#
# If this CIF has been generated from an entry in the Cambridge 
# Structural Database, then it will include bibliographic, chemical, 
# crystal, experimental, refinement or atomic coordinate data resulting 
# from the CCDC's data processing and validation procedures.
#
#######################################################################

data_TEFFUI
_chemical_formula_moiety         'C9 H12 O3'
_chemical_name_systematic        
2,3-dihydroxy-4-methylbicyclo[4.2.0]oct-4-en-7-one
_symmetry_cell_setting           orthorhombic
_symmetry_space_group_name_H-M   'P 21 21 21'
_symmetry_Int_Tables_number      19
_space_group_name_Hall           'P 2ac 2ab'
loop_
_symmetry_equiv_pos_site_id
_symmetry_equiv_pos_as_xyz
1 x,y,z
2 1/2+x,1/2-y,-z
3 -x,1/2+y,1/2-z
4 1/2-x,-y,1/2+z
_cell_length_a                   8.23350(7)
_cell_length_b                   8.68949(8)
_cell_length_c                   23.6396(2)
_cell_angle_alpha                90
_cell_angle_beta                 90
_cell_angle_gamma                90
_cell_volume                     1691.29
_exptl_crystal_colour            colorless
_exptl_crystal_description       plate
_cell_formula_units_Z            8
loop_
_atom_site_label
_atom_site_type_symbol
_atom_site_fract_x
_atom_site_fract_y
_atom_site_fract_z
O1 O 0.76034(17) 0.12421(17) 0.50742(6)
O2 O 1.08935(16) 0.14276(16) 0.54312(5)
O3 O 0.9246(2) -0.1009(2) 0.72784(7)
C1 C 0.6978(2) 0.1387(2) 0.65895(8)
C2 C 0.6649(2) 0.1565(2) 0.60448(8)
C3 C 0.7995(2) 0.1881(2) 0.56149(7)
C4 C 0.9586(2) 0.1156(2) 0.58181(7)
C5 C 1.0058(2) 0.1805(2) 0.63922(7)
C6 C 1.1155(2) 0.0709(3) 0.67412(8)
C7 C 0.9609(3) 0.0145(2) 0.70350(8)
C8 C 0.8652(2) 0.1557(2) 0.68229(7)
C9 C 0.4938(2) 0.1508(3) 0.58194(9)
H1 H 0.704(4) 0.190(4) 0.4902(12)
H2 H 1.098(3) 0.052(4) 0.5251(12)
H3 H 0.6119 0.1177 0.6842
H4 H 0.8150 0.3019 0.5568
H5 H 0.9405 0.0054 0.5848
H6 H 1.0436 0.2889 0.6364
H7 H 1.1891 0.1312 0.6994
H8 H 1.1754 -0.0040 0.6518
H9 H 0.8708 0.2378 0.7103
H10 H 0.4587 0.2505 0.5655
H11 H 0.4223 0.1321 0.6133
H12 H 0.4803 0.0696 0.5535
O4 O 0.36596(15) 0.66358(16) 0.50711(5)
O5 O 0.69363(15) 0.58383(15) 0.53013(5)
O6 O 0.5784(2) 0.4653(2) 0.73796(6)
C10 C 0.3662(2) 0.6961(2) 0.66185(8)
C11 C 0.3135(2) 0.6977(2) 0.60873(8)
C12 C 0.4351(2) 0.70560(19) 0.56022(7)
C13 C 0.5832(2) 0.60688(19) 0.57594(7)
C14 C 0.6657(2) 0.6796(2) 0.62672(7)
C15 C 0.7655(2) 0.5648(2) 0.66309(8)
C16 C 0.6196(2) 0.5556(2) 0.70279(7)
C17 C 0.5425(2) 0.6991(2) 0.67637(8)
C18 C 0.1353(2) 0.6911(3) 0.59416(9)
H13 H 0.335(3) 0.565(4) 0.5081(11)
H14 H 0.728(3) 0.679(4) 0.5268(11)
H15 H 0.2944 0.6954 0.6923
H16 H 0.4713 0.8168 0.5558
H17 H 0.5448 0.5065 0.5868
H18 H 0.7209 0.7731 0.6171
H19 H 0.8559 0.6186 0.6815
H20 H 0.8003 0.4711 0.6445
H21 H 0.5713 0.7873 0.7001
H22 H 0.1022 0.7745 0.5701
H23 H 0.0751 0.6982 0.6292
H24 H 0.1083 0.5962 0.5760
loop_
_geom_bond_atom_site_label_1
_geom_bond_atom_site_label_2
_geom_bond_site_symmetry_1
_geom_bond_site_symmetry_2
O1 C3 1_555 1_555
O2 C4 1_555 1_555
O3 C7 1_555 1_555
C1 C2 1_555 1_555
C2 C3 1_555 1_555
C3 C4 1_555 1_555
C4 C5 1_555 1_555
C5 C6 1_555 1_555
C6 C7 1_555 1_555
C7 C8 1_555 1_555
C8 C1 1_555 1_555
C9 C2 1_555 1_555
H1 O1 1_555 1_555
H2 O2 1_555 1_555
H3 C1 1_555 1_555
H4 C3 1_555 1_555
H5 C4 1_555 1_555
H6 C5 1_555 1_555
H7 C6 1_555 1_555
H8 C6 1_555 1_555
H9 C8 1_555 1_555
H10 C9 1_555 1_555
H11 C9 1_555 1_555
H12 C9 1_555 1_555
O4 C12 1_555 1_555
O5 C13 1_555 1_555
O6 C16 1_555 1_555
C10 C11 1_555 1_555
C11 C12 1_555 1_555
C12 C13 1_555 1_555
C13 C14 1_555 1_555
C14 C15 1_555 1_555
C15 C16 1_555 1_555
C16 C17 1_555 1_555
C17 C10 1_555 1_555
C18 C11 1_555 1_555
H13 O4 1_555 1_555
H14 O5 1_555 1_555
H15 C10 1_555 1_555
H16 C12 1_555 1_555
H17 C13 1_555 1_555
H18 C14 1_555 1_555
H19 C15 1_555 1_555
H20 C15 1_555 1_555
H21 C17 1_555 1_555
H22 C18 1_555 1_555
H23 C18 1_555 1_555
H24 C18 1_555 1_555
C5 C8 1_555 1_555
C14 C17 1_555 1_555

#END
