
#######################################################################
#
#                 Cambridge Crystallographic Data Centre
#                                CCDC 
#
#######################################################################
#
# If this CIF has been generated from an entry in the Cambridge 
# Structural Database, then it will include bibliographic, chemical, 
# crystal, experimental, refinement or atomic coordinate data resulting 
# from the CCDC's data processing and validation procedures.
#
#######################################################################

data_TEFFIW
_chemical_formula_moiety         'C9 H12 O3'
_chemical_name_systematic        
3,4-dihydroxy-2b-methylhexahydrocyclopropa[cd]pentalen-2(1H)-one
_symmetry_cell_setting           orthorhombic
_symmetry_space_group_name_H-M   'P 21 21 21'
_symmetry_Int_Tables_number      19
_space_group_name_Hall           'P 2ac 2ab'
loop_
_symmetry_equiv_pos_site_id
_symmetry_equiv_pos_as_xyz
1 x,y,z
2 1/2+x,1/2-y,-z
3 -x,1/2+y,1/2-z
4 1/2-x,-y,1/2+z
_cell_length_a                   7.3238(1)
_cell_length_b                   7.5553(1)
_cell_length_c                   14.5389(2)
_cell_angle_alpha                90
_cell_angle_beta                 90
_cell_angle_gamma                90
_cell_volume                     804.488
_exptl_crystal_colour            colorless
_exptl_crystal_description       plate
_cell_formula_units_Z            4
loop_
_atom_site_label
_atom_site_type_symbol
_atom_site_fract_x
_atom_site_fract_y
_atom_site_fract_z
O1 O 0.55935(10) 0.33447(10) 0.33134(5)
O2 O 0.28904(12) 0.72830(10) 0.33204(6)
O3 O 0.32457(13) 0.01079(11) 0.44684(6)
C1 C 0.23942(14) 0.34822(14) 0.27311(7)
C2 C 0.41644(14) 0.44530(14) 0.29876(7)
C3 C 0.35692(15) 0.57151(13) 0.37585(7)
C4 C 0.20181(15) 0.47343(13) 0.42485(7)
C5 C 0.27739(15) 0.32066(14) 0.48346(7)
C6 C 0.27306(15) 0.15778(14) 0.42307(7)
C7 C 0.17424(15) 0.19806(13) 0.33685(7)
C8 C 0.09733(14) 0.38549(13) 0.34451(7)
C9 C 0.19342(17) 0.32517(16) 0.17236(7)
H1 H 0.612(2) 0.295(2) 0.2828(12)
H2 H 0.291(2) 0.811(2) 0.3719(11)
H3 H 0.4621 0.5122 0.2454
H4 H 0.4600 0.5993 0.4197
H5 H 0.1233 0.5509 0.4628
H6 H 0.4014 0.3429 0.5080
H7 H 0.1977 0.2988 0.5354
H8 H 0.1046 0.1029 0.3095
H9 H -0.0305 0.4109 0.3309
H10 H 0.0697 0.2807 0.1659
H11 H 0.1986 0.4394 0.1432
H12 H 0.2814 0.2428 0.1437
loop_
_geom_bond_atom_site_label_1
_geom_bond_atom_site_label_2
_geom_bond_site_symmetry_1
_geom_bond_site_symmetry_2
O1 C2 1_555 1_555
O2 C3 1_555 1_555
O3 C6 1_555 1_555
C1 C2 1_555 1_555
C2 C3 1_555 1_555
C3 C4 1_555 1_555
C4 C5 1_555 1_555
C5 C6 1_555 1_555
C6 C7 1_555 1_555
C7 C1 1_555 1_555
C8 C1 1_555 1_555
C9 C1 1_555 1_555
H1 O1 1_555 1_555
H2 O2 1_555 1_555
H3 C2 1_555 1_555
H4 C3 1_555 1_555
H5 C4 1_555 1_555
H6 C5 1_555 1_555
H7 C5 1_555 1_555
H8 C7 1_555 1_555
H9 C8 1_555 1_555
H10 C9 1_555 1_555
H11 C9 1_555 1_555
H12 C9 1_555 1_555
C4 C8 1_555 1_555
C7 C8 1_555 1_555

#END
