
#######################################################################
#
#                 Cambridge Crystallographic Data Centre
#                                CCDC 
#
#######################################################################
#
# If this CIF has been generated from an entry in the Cambridge 
# Structural Database, then it will include bibliographic, chemical, 
# crystal, experimental, refinement or atomic coordinate data resulting 
# from the CCDC's data processing and validation procedures.
#
#######################################################################

data_TEFGOD
_chemical_formula_moiety         'C11 H12 O3'
_chemical_name_systematic        
3,4-dimethyl-3,5a,6a,6b-tetrahydro-2H-cyclobuta[cd][2]benzofuran-2,6(2aH)-dione
_symmetry_cell_setting           monoclinic
_symmetry_space_group_name_H-M   'P 21'
_symmetry_Int_Tables_number      4
_space_group_name_Hall           'P 2yb'
loop_
_symmetry_equiv_pos_site_id
_symmetry_equiv_pos_as_xyz
1 x,y,z
2 -x,1/2+y,-z
_cell_length_a                   8.4949(4)
_cell_length_b                   5.9702(2)
_cell_length_c                   9.3840(4)
_cell_angle_alpha                90
_cell_angle_beta                 95.383(4)
_cell_angle_gamma                90
_cell_volume                     473.822
_exptl_crystal_colour            colorless
_exptl_crystal_description       prism
_cell_formula_units_Z            2
loop_
_atom_site_label
_atom_site_type_symbol
_atom_site_fract_x
_atom_site_fract_y
_atom_site_fract_z
O1 O 0.0406(4) 0.1259(5) 0.9092(3)
O2 O 0.3966(4) 0.3023(5) 0.9337(3)
O3 O 0.5764(3) 0.3422(7) 0.7777(3)
C1 C 0.0979(4) 0.4362(5) 0.6359(3)
C2 C 0.2135(3) 0.5082(5) 0.5623(3)
C3 C 0.3414(3) 0.6633(6) 0.6272(3)
C4 C 0.3733(4) 0.6310(6) 0.7886(3)
C5 C 0.2268(4) 0.6150(6) 0.8706(3)
C6 C 0.2557(5) 0.4131(7) 0.9719(3)
C7 C 0.1044(5) 0.3008(6) 0.8943(4)
C8 C 0.0832(4) 0.4980(6) 0.7901(3)
C9 C 0.2221(4) 0.4465(6) 0.4078(3)
C10 C 0.2990(5) 0.9089(6) 0.5925(4)
C11 C 0.4624(5) 0.4137(8) 0.8276(4)
H1 H 0.0232 0.3421 0.5923
H2 H 0.4369 0.6268 0.5826
H3 H 0.4379 0.7557 0.8251
H4 H 0.2005 0.7545 0.9187
H5 H 0.2501 0.4402 1.0736
H6 H -0.0125 0.5797 0.8012
H7 H 0.1330 0.3594 0.3730
H8 H 0.2244 0.5760 0.3498
H9 H 0.3168 0.3624 0.3963
H10 H 0.3835 1.0089 0.6275
H11 H 0.2018 0.9495 0.6321
H12 H 0.2814 0.9247 0.4894
loop_
_geom_bond_atom_site_label_1
_geom_bond_atom_site_label_2
_geom_bond_site_symmetry_1
_geom_bond_site_symmetry_2
O1 C7 1_555 1_555
O2 C6 1_555 1_555
O3 C11 1_555 1_555
C1 C2 1_555 1_555
C2 C3 1_555 1_555
C3 C4 1_555 1_555
C4 C5 1_555 1_555
C5 C6 1_555 1_555
C6 C7 1_555 1_555
C7 C8 1_555 1_555
C8 C1 1_555 1_555
C9 C2 1_555 1_555
C10 C3 1_555 1_555
C11 O2 1_555 1_555
H1 C1 1_555 1_555
H2 C3 1_555 1_555
H3 C4 1_555 1_555
H4 C5 1_555 1_555
H5 C6 1_555 1_555
H6 C8 1_555 1_555
H7 C9 1_555 1_555
H8 C9 1_555 1_555
H9 C9 1_555 1_555
H10 C10 1_555 1_555
H11 C10 1_555 1_555
H12 C10 1_555 1_555
C4 C11 1_555 1_555
C5 C8 1_555 1_555

#END
