
#######################################################################
#
#                 Cambridge Crystallographic Data Centre
#                                CCDC 
#
#######################################################################
#
# If this CIF has been generated from an entry in the Cambridge 
# Structural Database, then it will include bibliographic, chemical, 
# crystal, experimental, refinement or atomic coordinate data resulting 
# from the CCDC's data processing and validation procedures.
#
#######################################################################

data_TEFHAQ
_chemical_formula_moiety         'C11 H12 O3'
_chemical_name_systematic        
3,4b-dimethylhexahydro-2H-cyclopropa[3,4]pentaleno[1,6-bc]furan-2,4(2aH)-dione
_symmetry_cell_setting           monoclinic
_symmetry_space_group_name_H-M   'P 21'
_symmetry_Int_Tables_number      4
_space_group_name_Hall           'P 2yb'
loop_
_symmetry_equiv_pos_site_id
_symmetry_equiv_pos_as_xyz
1 x,y,z
2 -x,1/2+y,-z
_cell_length_a                   6.9303(2)
_cell_length_b                   7.7696(2)
_cell_length_c                   8.6272(2)
_cell_angle_alpha                90
_cell_angle_beta                 92.403(2)
_cell_angle_gamma                90
_cell_volume                     464.129
_exptl_crystal_colour            colorless
_exptl_crystal_description       plate
_cell_formula_units_Z            2
loop_
_atom_site_label
_atom_site_type_symbol
_atom_site_fract_x
_atom_site_fract_y
_atom_site_fract_z
O1 O 0.3314(4) 0.8567(3) 0.2964(3)
O2 O 0.4952(3) 0.6734(3) 0.1516(2)
O3 O 0.7763(3) 0.3977(3) 0.2318(3)
C1 C 0.3157(3) 0.2759(3) 0.3624(3)
C2 C 0.2825(3) 0.4597(3) 0.4157(3)
C3 C 0.2192(3) 0.5590(3) 0.2638(3)
C4 C 0.2681(3) 0.4411(3) 0.1273(3)
C5 C 0.4774(4) 0.4960(3) 0.1043(3)
C6 C 0.6047(3) 0.3773(3) 0.2063(3)
C7 C 0.4858(3) 0.2337(3) 0.2591(3)
C8 C 0.2801(3) 0.2565(3) 0.1926(3)
C9 C 0.1263(4) 0.4673(4) 0.5358(3)
C10 C 0.3458(4) 0.7138(3) 0.2434(3)
C11 C 0.1364(4) 0.4595(4) -0.0173(3)
H1 H 0.2764 0.1820 0.4308
H2 H 0.4058 0.5073 0.4615
H3 H 0.0823 0.5905 0.2611
H4 H 0.5114 0.4862 -0.0032
H5 H 0.5454 0.1186 0.2706
H6 H 0.2083 0.1588 0.1455
H7 H 0.1131 0.5848 0.5715
H8 H 0.1664 0.3946 0.6241
H9 H 0.0046 0.4294 0.4915
H10 H 0.1803 0.3912 -0.1028
H11 H 0.1318 0.5803 -0.0513
H12 H 0.0061 0.4239 0.0042
loop_
_geom_bond_atom_site_label_1
_geom_bond_atom_site_label_2
_geom_bond_site_symmetry_1
_geom_bond_site_symmetry_2
O1 C10 1_555 1_555
O2 C5 1_555 1_555
O3 C6 1_555 1_555
C1 C2 1_555 1_555
C2 C3 1_555 1_555
C3 C4 1_555 1_555
C4 C5 1_555 1_555
C5 C6 1_555 1_555
C6 C7 1_555 1_555
C7 C1 1_555 1_555
C8 C1 1_555 1_555
C9 C2 1_555 1_555
C10 O2 1_555 1_555
C11 C4 1_555 1_555
H1 C1 1_555 1_555
H2 C2 1_555 1_555
H3 C3 1_555 1_555
H4 C5 1_555 1_555
H5 C7 1_555 1_555
H6 C8 1_555 1_555
H7 C9 1_555 1_555
H8 C9 1_555 1_555
H9 C9 1_555 1_555
H10 C11 1_555 1_555
H11 C11 1_555 1_555
H12 C11 1_555 1_555
C3 C10 1_555 1_555
C4 C8 1_555 1_555
C7 C8 1_555 1_555

#END
