
#######################################################################
#
#                 Cambridge Crystallographic Data Centre
#                                CCDC 
#
#######################################################################
#
# If this CIF has been generated from an entry in the Cambridge 
# Structural Database, then it will include bibliographic, chemical, 
# crystal, experimental, refinement or atomic coordinate data resulting 
# from the CCDC's data processing and validation procedures.
#
#######################################################################

data_TEFHUK
_chemical_formula_moiety         'C17 H26 O3'
_chemical_name_systematic        
2,2,4,6,6-pentamethyloctahydro-2H,3aH-4,8-ethenoindeno[5,6-d][1,3]dioxol-5-ol
_symmetry_cell_setting           orthorhombic
_symmetry_space_group_name_H-M   'P 21 21 21'
_symmetry_Int_Tables_number      19
_space_group_name_Hall           'P 2ac 2ab'
loop_
_symmetry_equiv_pos_site_id
_symmetry_equiv_pos_as_xyz
1 x,y,z
2 1/2+x,1/2-y,-z
3 -x,1/2+y,1/2-z
4 1/2-x,-y,1/2+z
_cell_length_a                   6.26451(4)
_cell_length_b                   12.09608(9)
_cell_length_c                   20.26568(14)
_cell_angle_alpha                90
_cell_angle_beta                 90
_cell_angle_gamma                90
_cell_volume                     1535.65
_exptl_crystal_colour            colorless
_exptl_crystal_description       prism
_cell_formula_units_Z            4
loop_
_atom_site_label
_atom_site_type_symbol
_atom_site_fract_x
_atom_site_fract_y
_atom_site_fract_z
O1 O 0.59961(13) 0.85735(7) 0.18793(4)
O2 O 0.67072(12) 0.70658(6) 0.42421(3)
O3 O 0.64495(13) 0.52630(6) 0.39378(3)
C1 C 0.86658(17) 0.74183(9) 0.13098(5)
C2 C 0.81628(17) 0.82200(8) 0.18847(5)
C3 C 0.85833(15) 0.75259(8) 0.25132(4)
C4 C 0.83492(15) 0.62928(8) 0.23005(5)
C5 C 0.76934(17) 0.63349(8) 0.15710(5)
C6 C 0.47097(15) 0.63368(9) 0.27993(5)
C7 C 0.49111(16) 0.73899(8) 0.29778(5)
C8 C 0.71530(15) 0.77674(8) 0.31243(5)
C9 C 0.80091(16) 0.69806(8) 0.36659(5)
C10 C 0.77962(16) 0.57598(8) 0.34521(5)
C11 C 0.67742(16) 0.57001(8) 0.27669(5)
C12 C 0.73098(19) 0.89643(8) 0.33568(5)
C13 C 0.63730(18) 0.59830(8) 0.44987(5)
C14 C 0.4160(2) 0.59303(11) 0.47844(6)
C15 C 0.8117(2) 0.56856(11) 0.49860(6)
C16 C 1.10943(18) 0.73182(11) 0.12267(6)
C17 C 0.7688(2) 0.77788(10) 0.06539(5)
H1 H 0.576(3) 0.9032(14) 0.1551(8)
H2 H 0.9083 0.8893 0.1867
H3 H 1.0067 0.7679 0.2640
H4 H 0.9744 0.5920 0.2350
H5 H 0.6113 0.6380 0.1545
H6 H 0.8199 0.5680 0.1331
H7 H 0.3344 0.5995 0.2693
H8 H 0.3697 0.7887 0.3012
H9 H 0.9496 0.7173 0.3768
H10 H 0.9211 0.5389 0.3458
H11 H 0.6551 0.4921 0.2630
H12 H 0.6500 0.9064 0.3773
H13 H 0.8798 0.9148 0.3445
H14 H 0.6758 0.9485 0.3020
H15 H 0.3890 0.5181 0.4967
H16 H 0.4028 0.6475 0.5128
H17 H 0.3139 0.6078 0.4443
H18 H 0.7890 0.4946 0.5161
H19 H 0.8090 0.6210 0.5361
H20 H 0.9524 0.5690 0.4772
H21 H 1.1454 0.6749 0.0898
H22 H 1.1678 0.8024 0.1076
H23 H 1.1872 0.7113 0.1630
H24 H 0.8025 0.7235 0.0311
H25 H 0.8243 0.8469 0.0515
H26 H 0.6102 0.7836 0.0678
loop_
_geom_bond_atom_site_label_1
_geom_bond_atom_site_label_2
_geom_bond_site_symmetry_1
_geom_bond_site_symmetry_2
O1 C2 1_555 1_555
O2 C9 1_555 1_555
O3 C10 1_555 1_555
C1 C2 1_555 1_555
C2 C3 1_555 1_555
C3 C4 1_555 1_555
C4 C5 1_555 1_555
C5 C1 1_555 1_555
C6 C7 1_555 1_555
C7 C8 1_555 1_555
C8 C3 1_555 1_555
C9 C8 1_555 1_555
C10 C9 1_555 1_555
C11 C4 1_555 1_555
C12 C8 1_555 1_555
C13 O2 1_555 1_555
C14 C13 1_555 1_555
C15 C13 1_555 1_555
C16 C1 1_555 1_555
C17 C1 1_555 1_555
H1 O1 1_555 1_555
H2 C2 1_555 1_555
H3 C3 1_555 1_555
H4 C4 1_555 1_555
H5 C5 1_555 1_555
H6 C5 1_555 1_555
H7 C6 1_555 1_555
H8 C7 1_555 1_555
H9 C9 1_555 1_555
H10 C10 1_555 1_555
H11 C11 1_555 1_555
H12 C12 1_555 1_555
H13 C12 1_555 1_555
H14 C12 1_555 1_555
H15 C14 1_555 1_555
H16 C14 1_555 1_555
H17 C14 1_555 1_555
H18 C15 1_555 1_555
H19 C15 1_555 1_555
H20 C15 1_555 1_555
H21 C16 1_555 1_555
H22 C16 1_555 1_555
H23 C16 1_555 1_555
H24 C17 1_555 1_555
H25 C17 1_555 1_555
H26 C17 1_555 1_555
O3 C13 1_555 1_555
C6 C11 1_555 1_555
C10 C11 1_555 1_555

#END
