
#######################################################################
#
#                 Cambridge Crystallographic Data Centre
#                                CCDC 
#
#######################################################################
#
# If this CIF has been generated from an entry in the Cambridge 
# Structural Database, then it will include bibliographic, chemical, 
# crystal, experimental, refinement or atomic coordinate data resulting 
# from the CCDC's data processing and validation procedures.
#
#######################################################################

data_TEFJAS
_chemical_formula_moiety         'C16 H22 O4'
_chemical_name_systematic        
'8-hydroxy-2,2,7-trimethyl-9-oxo-2,3,3a,4,7,7a-hexahydro-1H-4,7-ethanoinden-1-yl acetate'
_symmetry_cell_setting           orthorhombic
_symmetry_space_group_name_H-M   'P 21 21 21'
_symmetry_Int_Tables_number      19
_space_group_name_Hall           'P 2ac 2ab'
loop_
_symmetry_equiv_pos_site_id
_symmetry_equiv_pos_as_xyz
1 x,y,z
2 1/2+x,1/2-y,-z
3 -x,1/2+y,1/2-z
4 1/2-x,-y,1/2+z
_cell_length_a                   6.4307(1)
_cell_length_b                   8.7685(1)
_cell_length_c                   26.1929(2)
_cell_angle_alpha                90
_cell_angle_beta                 90
_cell_angle_gamma                90
_cell_volume                     1476.95
_exptl_crystal_colour            colorless
_exptl_crystal_description       block
_cell_formula_units_Z            4
loop_
_atom_site_label
_atom_site_type_symbol
_atom_site_fract_x
_atom_site_fract_y
_atom_site_fract_z
O1 O 0.34595(12) 0.67648(8) 0.68103(3)
O2 O 0.80045(11) 0.27275(8) 0.58391(3)
O3 O 0.56637(12) 0.32606(9) 0.49425(3)
O4 O 0.52760(18) 0.75963(14) 0.74881(4)
C1 C 0.32663(18) 0.86886(12) 0.61497(4)
C2 C 0.47253(16) 0.76303(12) 0.64539(4)
C3 C 0.56739(16) 0.65619(11) 0.60465(4)
C4 C 0.40727(16) 0.65308(11) 0.55980(4)
C5 C 0.22687(17) 0.75526(13) 0.57744(4)
C6 C 0.28657(15) 0.40237(11) 0.59576(4)
C7 C 0.42825(16) 0.40471(11) 0.63270(4)
C8 C 0.62660(15) 0.49186(11) 0.62114(3)
C9 C 0.71764(15) 0.41786(11) 0.57230(4)
C10 C 0.54383(16) 0.40368(12) 0.53228(4)
C11 C 0.34717(16) 0.48599(12) 0.54733(4)
C12 C 0.78552(16) 0.49117(13) 0.66449(4)
C13 C 0.4589(2) 0.98707(13) 0.58656(5)
C14 C 0.1667(2) 0.95155(14) 0.64814(5)
C15 C 0.38391(19) 0.68941(14) 0.73132(4)
C16 C 0.2269(2) 0.60251(16) 0.76166(4)
H1 H 0.862(3) 0.2372(17) 0.5562(6)
H2 H 0.5797 0.8200 0.6644
H3 H 0.6970 0.7084 0.5929
H4 H 0.4711 0.7001 0.5288
H5 H 0.1249 0.6930 0.5949
H6 H 0.1539 0.8070 0.5490
H7 H 0.1563 0.3494 0.5983
H8 H 0.4110 0.3556 0.6654
H9 H 0.8249 0.4837 0.5582
H10 H 0.2393 0.4792 0.5201
H11 H 0.8334 0.3866 0.6714
H12 H 0.7243 0.5337 0.6957
H13 H 0.9106 0.5477 0.6555
H14 H 0.3685 1.0517 0.5647
H15 H 0.5311 1.0558 0.6114
H16 H 0.5716 0.9391 0.5657
H17 H 0.0800 1.0162 0.6257
H18 H 0.2341 1.0141 0.6735
H19 H 0.0727 0.8779 0.6650
H20 H 0.2551 0.6172 0.7983
H21 H 0.0889 0.6441 0.7542
H22 H 0.2293 0.4966 0.7524
loop_
_geom_bond_atom_site_label_1
_geom_bond_atom_site_label_2
_geom_bond_site_symmetry_1
_geom_bond_site_symmetry_2
O1 C2 1_555 1_555
O2 C9 1_555 1_555
O3 C10 1_555 1_555
O4 C15 1_555 1_555
C1 C2 1_555 1_555
C2 C3 1_555 1_555
C3 C4 1_555 1_555
C4 C5 1_555 1_555
C5 C1 1_555 1_555
C6 C7 1_555 1_555
C7 C8 1_555 1_555
C8 C3 1_555 1_555
C9 C8 1_555 1_555
C10 C9 1_555 1_555
C11 C4 1_555 1_555
C12 C8 1_555 1_555
C13 C1 1_555 1_555
C14 C1 1_555 1_555
C15 O1 1_555 1_555
C16 C15 1_555 1_555
H1 O2 1_555 1_555
H2 C2 1_555 1_555
H3 C3 1_555 1_555
H4 C4 1_555 1_555
H5 C5 1_555 1_555
H6 C5 1_555 1_555
H7 C6 1_555 1_555
H8 C7 1_555 1_555
H9 C9 1_555 1_555
H10 C11 1_555 1_555
H11 C12 1_555 1_555
H12 C12 1_555 1_555
H13 C12 1_555 1_555
H14 C13 1_555 1_555
H15 C13 1_555 1_555
H16 C13 1_555 1_555
H17 C14 1_555 1_555
H18 C14 1_555 1_555
H19 C14 1_555 1_555
H20 C16 1_555 1_555
H21 C16 1_555 1_555
H22 C16 1_555 1_555
C6 C11 1_555 1_555
C10 C11 1_555 1_555

#END
