
#######################################################################
#
#                 Cambridge Crystallographic Data Centre
#                                CCDC 
#
#######################################################################
#
# If this CIF has been generated from an entry in the Cambridge 
# Structural Database, then it will include bibliographic, chemical, 
# crystal, experimental, refinement or atomic coordinate data resulting 
# from the CCDC's data processing and validation procedures.
#
#######################################################################

data_TEFJUM
_chemical_formula_moiety         'C23 H26 O5'
_chemical_name_systematic        
'7-(acetyloxy)-6,6,7b-trimethyl-2-oxo-2,2a,4a,5,6,7,7a,7b-octahydro-1H-cyclobuta[e]inden-1-yl benzoate'
_symmetry_cell_setting           orthorhombic
_symmetry_space_group_name_H-M   'P 21 21 21'
_symmetry_Int_Tables_number      19
_space_group_name_Hall           'P 2ac 2ab'
loop_
_symmetry_equiv_pos_site_id
_symmetry_equiv_pos_as_xyz
1 x,y,z
2 1/2+x,1/2-y,-z
3 -x,1/2+y,1/2-z
4 1/2-x,-y,1/2+z
_cell_length_a                   8.9344(2)
_cell_length_b                   15.4099(3)
_cell_length_c                   14.9268(3)
_cell_angle_alpha                90
_cell_angle_beta                 90
_cell_angle_gamma                90
_cell_volume                     2055.1
_exptl_crystal_colour            colorless
_exptl_crystal_description       plate
_cell_formula_units_Z            4
loop_
_atom_site_label
_atom_site_type_symbol
_atom_site_fract_x
_atom_site_fract_y
_atom_site_fract_z
O1 O 0.5510(3) 0.54064(14) 0.12723(12)
O2 O 0.30489(18) 0.64821(10) 0.20534(11)
O3 O 0.0915(2) 0.61394(13) 0.27704(13)
O4 O 0.68227(16) 0.59178(10) 0.48185(10)
O5 O 0.7819(2) 0.71145(13) 0.54335(15)
C1 C 0.3974(3) 0.49636(14) 0.44601(15)
C2 C 0.4990(3) 0.43363(14) 0.39877(16)
C3 C 0.5922(3) 0.45317(15) 0.33308(17)
C4 C 0.6061(3) 0.54155(15) 0.29304(14)
C5 C 0.5194(3) 0.54794(15) 0.20461(15)
C6 C 0.3831(3) 0.58286(15) 0.25346(14)
C7 C 0.4914(2) 0.60899(13) 0.33100(14)
C8 C 0.4311(2) 0.59292(13) 0.42494(13)
C9 C 0.5323(2) 0.62237(13) 0.50156(14)
C10 C 0.4686(3) 0.57734(15) 0.58542(14)
C11 C 0.4154(3) 0.48846(17) 0.54963(16)
C12 C 0.1564(3) 0.65667(15) 0.22232(15)
C13 C 0.0867(3) 0.72234(14) 0.16279(15)
C14 C 0.1692(3) 0.76973(15) 0.10166(16)
C15 C 0.0981(3) 0.82899(18) 0.0457(2)
C16 C -0.0551(3) 0.84010(19) 0.0510(2)
C17 C -0.1365(3) 0.7929(2) 0.1122(2)
C18 C -0.0676(3) 0.73405(19) 0.16806(19)
C19 C 0.5461(3) 0.70209(14) 0.31653(15)
C20 C 0.7970(3) 0.64357(16) 0.50472(16)
C21 C 0.9427(3) 0.6068(2) 0.4743(2)
C22 C 0.5826(3) 0.56759(19) 0.66117(17)
C23 C 0.3368(3) 0.6307(2) 0.62036(18)
H1 H 0.2933 0.4825 0.4291
H2 H 0.4949 0.3762 0.4179
H3 H 0.6524 0.4083 0.3094
H4 H 0.7102 0.5631 0.2906
H5 H 0.3160 0.5362 0.2722
H6 H 0.3365 0.6261 0.4299
H7 H 0.5328 0.6866 0.5099
H8 H 0.4889 0.4430 0.5637
H9 H 0.3211 0.4721 0.5773
H10 H 0.2736 0.7623 0.0976
H11 H 0.1521 0.8622 0.0032
H12 H -0.1020 0.8815 0.0128
H13 H -0.2404 0.8002 0.1153
H14 H -0.1233 0.7027 0.2096
H15 H 0.4664 0.7426 0.3294
H16 H 0.6297 0.7145 0.3556
H17 H 0.5764 0.7099 0.2542
H18 H 1.0195 0.6477 0.4800
H19 H 0.9640 0.5559 0.5090
H20 H 0.9363 0.5917 0.4133
H21 H 0.5385 0.5388 0.7110
H22 H 0.6186 0.6244 0.6810
H23 H 0.6657 0.5341 0.6387
H24 H 0.2928 0.6038 0.6724
H25 H 0.3709 0.6894 0.6375
H26 H 0.2597 0.6368 0.5745
loop_
_geom_bond_atom_site_label_1
_geom_bond_atom_site_label_2
_geom_bond_site_symmetry_1
_geom_bond_site_symmetry_2
O1 C5 1_555 1_555
O2 C6 1_555 1_555
O3 C12 1_555 1_555
O4 C9 1_555 1_555
O5 C20 1_555 1_555
C1 C2 1_555 1_555
C2 C3 1_555 1_555
C3 C4 1_555 1_555
C4 C5 1_555 1_555
C5 C6 1_555 1_555
C6 C7 1_555 1_555
C7 C4 1_555 1_555
C8 C1 1_555 1_555
C9 C8 1_555 1_555
C10 C9 1_555 1_555
C11 C1 1_555 1_555
C12 O2 1_555 1_555
C13 C12 1_555 1_555
C14 C13 1_555 1_555
C15 C14 1_555 1_555
C16 C15 1_555 1_555
C17 C16 1_555 1_555
C18 C13 1_555 1_555
C19 C7 1_555 1_555
C20 O4 1_555 1_555
C21 C20 1_555 1_555
C22 C10 1_555 1_555
C23 C10 1_555 1_555
H1 C1 1_555 1_555
H2 C2 1_555 1_555
H3 C3 1_555 1_555
H4 C4 1_555 1_555
H5 C6 1_555 1_555
H6 C8 1_555 1_555
H7 C9 1_555 1_555
H8 C11 1_555 1_555
H9 C11 1_555 1_555
H10 C14 1_555 1_555
H11 C15 1_555 1_555
H12 C16 1_555 1_555
H13 C17 1_555 1_555
H14 C18 1_555 1_555
H15 C19 1_555 1_555
H16 C19 1_555 1_555
H17 C19 1_555 1_555
H18 C21 1_555 1_555
H19 C21 1_555 1_555
H20 C21 1_555 1_555
H21 C22 1_555 1_555
H22 C22 1_555 1_555
H23 C22 1_555 1_555
H24 C23 1_555 1_555
H25 C23 1_555 1_555
H26 C23 1_555 1_555
C7 C8 1_555 1_555
C10 C11 1_555 1_555
C17 C18 1_555 1_555

#END
