
#######################################################################
#
#                 Cambridge Crystallographic Data Centre
#                                CCDC 
#
#######################################################################
#
# If this CIF has been generated from an entry in the Cambridge 
# Structural Database, then it will include bibliographic, chemical, 
# crystal, experimental, refinement or atomic coordinate data resulting 
# from the CCDC's data processing and validation procedures.
#
#######################################################################

data_TEFNUQ
_chemical_formula_moiety         'C20 H16 F1 N3 O1'
_chemical_name_systematic        
3-(9-fluoro-4,6-dimethyl-5-oxo-5,6-dihydro-4H-pyrido[4,3,2-gh]phenanthridin-6-yl)propanenitrile
_symmetry_cell_setting           monoclinic
_symmetry_space_group_name_H-M   'P 21/c'
_symmetry_Int_Tables_number      14
_space_group_name_Hall           '-P 2ybc'
loop_
_symmetry_equiv_pos_site_id
_symmetry_equiv_pos_as_xyz
1 x,y,z
2 -x,1/2+y,1/2-z
3 -x,-y,-z
4 x,1/2-y,1/2+z
_cell_length_a                   7.571(2)
_cell_length_b                   18.848(6)
_cell_length_c                   12.151(4)
_cell_angle_alpha                90
_cell_angle_beta                 108.266(6)
_cell_angle_gamma                90
_cell_volume                     1646.56
_cell_formula_units_Z            4
loop_
_atom_site_label
_atom_site_type_symbol
_atom_site_fract_x
_atom_site_fract_y
_atom_site_fract_z
C1 C 0.7458(4) 0.58758(14) 0.3076(3)
C2 C 0.7686(5) 0.65251(15) 0.2569(3)
H1 H 0.7580 0.6551 0.1787
C3 C 0.8057(5) 0.71033(18) 0.3234(4)
C4 C 0.8255(5) 0.7096(2) 0.4392(4)
C5 C 0.8071(5) 0.6470(2) 0.4913(3)
C6 C 0.7682(4) 0.58311(15) 0.4256(3)
C7 C 0.7494(4) 0.51489(16) 0.4741(2)
C8 C 0.7713(5) 0.5028(2) 0.5906(3)
C9 C 0.7509(5) 0.4365(2) 0.6285(3)
C10 C 0.7102(5) 0.3778(2) 0.5548(3)
C11 C 0.6895(4) 0.38722(16) 0.4387(2)
C12 C 0.7070(4) 0.45623(14) 0.3981(2)
C13 C 0.6768(4) 0.46868(13) 0.2778(2)
C14 C 0.6015(4) 0.40947(13) 0.1931(2)
C15 C 0.3858(4) 0.41630(15) 0.1530(3)
C16 C 0.6637(4) 0.41414(14) 0.0855(2)
C17 C 0.8737(4) 0.41138(15) 0.1132(2)
C18 C 0.9266(5) 0.40830(16) 0.0071(3)
C19 C 0.6419(4) 0.33584(14) 0.2468(2)
C20 C 0.6638(5) 0.25739(16) 0.4091(3)
F1 F 0.8266(4) 0.77430(10) 0.2755(3)
N1 N 0.6979(3) 0.52996(11) 0.23415(19)
N2 N 0.9648(5) 0.40578(18) -0.0756(3)
N3 N 0.6616(4) 0.32899(11) 0.3624(2)
O1 O 0.6407(4) 0.28435(11) 0.18685(19)
loop_
_geom_bond_atom_site_label_1
_geom_bond_atom_site_label_2
_geom_bond_site_symmetry_1
_geom_bond_site_symmetry_2
C1 C2 1_555 1_555
C2 H1 1_555 1_555
C3 C2 1_555 1_555
C4 C3 1_555 1_555
C5 C4 1_555 1_555
C6 C1 1_555 1_555
C7 C6 1_555 1_555
C8 C7 1_555 1_555
C9 C8 1_555 1_555
C10 C9 1_555 1_555
C11 C10 1_555 1_555
C12 C7 1_555 1_555
C13 C12 1_555 1_555
C14 C13 1_555 1_555
C15 C14 1_555 1_555
C16 C14 1_555 1_555
C17 C16 1_555 1_555
C18 C17 1_555 1_555
C19 C14 1_555 1_555
C20 N3 1_555 1_555
F1 C3 1_555 1_555
N1 C1 1_555 1_555
N2 C18 1_555 1_555
N3 C11 1_555 1_555
O1 C19 1_555 1_555
C5 C6 1_555 1_555
C11 C12 1_555 1_555
C13 N1 1_555 1_555
C19 N3 1_555 1_555

#END
