
#######################################################################
#
#                 Cambridge Crystallographic Data Centre
#                                CCDC 
#
#######################################################################
#
# If this CIF has been generated from an entry in the Cambridge 
# Structural Database, then it will include bibliographic, chemical, 
# crystal, experimental, refinement or atomic coordinate data resulting 
# from the CCDC's data processing and validation procedures.
#
#######################################################################

data_TEFNUP
_chemical_formula_moiety         'C26 H19 F1 O1'
_chemical_name_systematic        
'Allyl 8-fluoro-11-phenyl-11H-benzo[b]fluoren-11-yl ether'
_symmetry_cell_setting           monoclinic
_symmetry_space_group_name_H-M   'C 2/c'
_symmetry_Int_Tables_number      15
_space_group_name_Hall           '-C 2yn'
loop_
_symmetry_equiv_pos_site_id
_symmetry_equiv_pos_as_xyz
1 x,y,z
2 -x,y,1/2-z
3 1/2+x,1/2+y,z
4 1/2-x,1/2+y,1/2-z
5 -x,-y,-z
6 x,-y,1/2+z
7 1/2-x,1/2-y,-z
8 1/2+x,1/2-y,1/2+z
_cell_length_a                   26.473(3)
_cell_length_b                   8.9636(9)
_cell_length_c                   16.4337(17)
_cell_angle_alpha                90
_cell_angle_beta                 92.417(2)
_cell_angle_gamma                90
_cell_volume                     3896.14
_exptl_crystal_colour            colorless
_exptl_crystal_description       prismatic
_cell_formula_units_Z            8
loop_
_atom_site_label
_atom_site_type_symbol
_atom_site_fract_x
_atom_site_fract_y
_atom_site_fract_z
F1 F 0.27217(6) 0.13448(18) 0.43494(9)
O1 O 0.46398(5) 0.36217(14) 0.10551(9)
C1 C 0.31988(8) 0.2213(2) 0.32755(13)
H1 H 0.3414 0.2711 0.3646
C2 C 0.28031(8) 0.1408(2) 0.35385(14)
C3 C 0.24747(8) 0.0628(3) 0.30208(16)
H2 H 0.2213 0.0072 0.3227
C4 C 0.25397(7) 0.0687(2) 0.22126(15)
H3 H 0.2318 0.0169 0.1861
C5 C 0.29390(7) 0.15199(19) 0.18858(12)
C6 C 0.32790(7) 0.22823(19) 0.24370(11)
C7 C 0.36840(7) 0.31088(19) 0.21188(12)
H4 H 0.3913 0.3596 0.2471
C8 C 0.37360(6) 0.31870(18) 0.13065(12)
C9 C 0.33938(7) 0.24431(19) 0.07524(11)
C10 C 0.30028(7) 0.1630(2) 0.10425(12)
H5 H 0.2778 0.1147 0.0680
C11 C 0.35535(7) 0.2727(2) -0.00785(12)
C12 C 0.33573(9) 0.2216(2) -0.08214(13)
H6 H 0.3072 0.1609 -0.0851
C13 C 0.35977(12) 0.2635(3) -0.15206(15)
H7 H 0.3473 0.2299 -0.2026
C14 C 0.40183(12) 0.3543(3) -0.14763(16)
H8 H 0.4174 0.3806 -0.1952
C15 C 0.42123(9) 0.4065(3) -0.07406(15)
H9 H 0.4494 0.4687 -0.0716
C16 C 0.39783(8) 0.3645(2) -0.00374(12)
C17 C 0.41311(6) 0.4043(2) 0.08295(12)
C18 C 0.40913(7) 0.5714(2) 0.09988(11)
C19 C 0.36520(8) 0.6458(2) 0.07624(15)
H10 H 0.3394 0.5946 0.0481
C20 C 0.35913(9) 0.7951(2) 0.09388(16)
H11 H 0.3294 0.8436 0.0774
C21 C 0.39632(9) 0.8714(2) 0.13520(15)
H12 H 0.3919 0.9716 0.1478
C22 C 0.44005(10) 0.8006(2) 0.15814(16)
H13 H 0.4658 0.8533 0.1856
C23 C 0.44665(8) 0.6496(2) 0.14087(14)
H14 H 0.4766 0.6019 0.1572
C24 C 0.47511(9) 0.2087(2) 0.0934(2)
H15 H 0.4642 0.1533 0.1402
H16 H 0.4552 0.1740 0.0462
C25 C 0.5262(2) 0.1738(7) 0.0818(5)
H17 H 0.5411 0.2132 0.0363
C26 C 0.5554(4) 0.0861(12) 0.1329(5)
H18 H 0.5416 0.0449 0.1790
H19 H 0.5889 0.0676 0.1216
C27? C 0.5219(2) 0.1697(7) 0.1344(5)
C28? C 0.5562(4) 0.0897(12) 0.0922(6)
H20? H 0.4764 0.1895 0.0360
H21? H 0.4489 0.1493 0.1158
H22? H 0.5288 0.1978 0.1882
H23? H 0.5488 0.0624 0.0384
H24? H 0.5870 0.0627 0.1173
loop_
_geom_bond_atom_site_label_1
_geom_bond_atom_site_label_2
_geom_bond_site_symmetry_1
_geom_bond_site_symmetry_2
F1 C2 1_555 1_555
O1 C17 1_555 1_555
C1 H1 1_555 1_555
C2 C1 1_555 1_555
C3 C2 1_555 1_555
H2 C3 1_555 1_555
C4 C3 1_555 1_555
H3 C4 1_555 1_555
C5 C4 1_555 1_555
C6 C1 1_555 1_555
C7 C6 1_555 1_555
H4 C7 1_555 1_555
C8 C7 1_555 1_555
C9 C8 1_555 1_555
C10 C5 1_555 1_555
H5 C10 1_555 1_555
C11 C9 1_555 1_555
C12 C11 1_555 1_555
H6 C12 1_555 1_555
C13 C12 1_555 1_555
H7 C13 1_555 1_555
C14 C13 1_555 1_555
H8 C14 1_555 1_555
C15 C14 1_555 1_555
H9 C15 1_555 1_555
C16 C11 1_555 1_555
C17 C8 1_555 1_555
C18 C17 1_555 1_555
C19 C18 1_555 1_555
H10 C19 1_555 1_555
C20 C19 1_555 1_555
H11 C20 1_555 1_555
C21 C20 1_555 1_555
H12 C21 1_555 1_555
C22 C21 1_555 1_555
H13 C22 1_555 1_555
C23 C18 1_555 1_555
H14 C23 1_555 1_555
C24 O1 1_555 1_555
H15 C24 1_555 1_555
H16 C24 1_555 1_555
C25 C24 1_555 1_555
H17 C25 1_555 1_555
C26 C25 1_555 1_555
H18 C26 1_555 1_555
H19 C26 1_555 1_555
C5 C6 1_555 1_555
C9 C10 1_555 1_555
C15 C16 1_555 1_555
C16 C17 1_555 1_555
C22 C23 1_555 1_555

#END
