
#######################################################################
#
#                 Cambridge Crystallographic Data Centre
#                                CCDC 
#
#######################################################################
#
# If this CIF has been generated from an entry in the Cambridge 
# Structural Database, then it will include bibliographic, chemical, 
# crystal, experimental, refinement or atomic coordinate data resulting 
# from the CCDC's data processing and validation procedures.
#
#######################################################################

data_TEFPAV
_chemical_formula_moiety         'C21 H20 F3 N1 O4'
_chemical_name_systematic        
'1,3,4,5-Tetrahydro-4-(4-methoxyphenyl)-3-ethyl-6-(trifluoromethyl)-2H-1-benzazepin-2-one-3-carboxylic acid'
_symmetry_cell_setting           monoclinic
_symmetry_space_group_name_H-M   'P 21/c'
_symmetry_Int_Tables_number      14
_space_group_name_Hall           '-P 2ybc'
loop_
_symmetry_equiv_pos_site_id
_symmetry_equiv_pos_as_xyz
1 x,y,z
2 -x,1/2+y,1/2-z
3 -x,-y,-z
4 x,1/2-y,1/2+z
_cell_length_a                   10.535(4)
_cell_length_b                   12.580(6)
_cell_length_c                   15.242(9)
_cell_angle_alpha                90
_cell_angle_beta                 97.03(4)
_cell_angle_gamma                90
_cell_volume                     2004.84
_cell_formula_units_Z            4
loop_
_atom_site_label
_atom_site_type_symbol
_atom_site_fract_x
_atom_site_fract_y
_atom_site_fract_z
C1 C 0.8978(4) 0.5872(3) 0.3872(3)
C2 C 0.9982(4) 0.6368(3) 0.3346(3)
C3 C 1.0092(4) 0.5797(3) 0.2438(3)
C4 C 0.9879(4) 0.4595(3) 0.2489(3)
O1 O 1.0727(3) 0.3948(2) 0.2368(2)
N1 N 0.8748(3) 0.4211(3) 0.2654(2)
C5 C 0.6476(4) 0.4442(4) 0.2347(3)
C6 C 0.5370(4) 0.4978(4) 0.2457(4)
C7 C 0.5417(4) 0.5869(4) 0.2994(3)
C8 C 0.6576(4) 0.6205(3) 0.3436(3)
C9 C 0.7689(4) 0.5638(3) 0.3368(3)
C10 C 0.7617(4) 0.4773(3) 0.2793(3)
C11 C 1.1237(4) 0.6433(3) 0.3958(3)
C12 C 1.2045(4) 0.5575(3) 0.4132(3)
C13 C 1.3148(4) 0.5646(4) 0.4706(3)
C14 C 1.3456(4) 0.6574(4) 0.5142(3)
C15 C 1.2667(5) 0.7440(4) 0.5011(3)
C16 C 1.1559(4) 0.7371(4) 0.4406(3)
O2 O 1.4576(3) 0.6567(3) 0.5705(2)
C17 C 1.4890(6) 0.7479(5) 0.6201(4)
C18 C 1.1412(4) 0.6095(3) 0.2159(3)
O3 O 1.1733(3) 0.7016(2) 0.2126(2)
O4 O 1.2164(3) 0.5339(2) 0.1930(2)
C19 C 0.9115(4) 0.6290(3) 0.1695(3)
C20 C 0.9100(6) 0.5757(4) 0.0800(3)
C21 C 0.6614(4) 0.7199(4) 0.3976(3)
F1 F 0.7436(3) 0.7909(2) 0.3718(2)
F2 F 0.6978(3) 0.7040(2) 0.4839(2)
F3 F 0.5484(3) 0.7690(2) 0.3926(2)
H1 H 1.1933 0.4433 0.1875
H2 H 0.9313 0.5219 0.4113
H3 H 0.8847 0.6345 0.4336
H4 H 0.9725 0.7065 0.3166
H5 H 0.8687 0.3459 0.2673
H6 H 0.6451 0.3847 0.1961
H7 H 0.4573 0.4735 0.2170
H8 H 0.4656 0.6247 0.3061
H9 H 1.1823 0.4915 0.3848
H10 H 1.3698 0.5046 0.4793
H11 H 1.2875 0.8081 0.5322
H12 H 1.1019 0.7973 0.4302
H13 H 1.5680 0.7355 0.6554
H14 H 1.4239 0.7607 0.6559
H15 H 1.4963 0.8047 0.5810
H16 H 0.9323 0.7019 0.1634
H17 H 0.8282 0.6234 0.1872
H18 H 0.8485 0.6100 0.0388
H19 H 0.8880 0.5032 0.0852
H20 H 0.9921 0.5817 0.0613
loop_
_geom_bond_atom_site_label_1
_geom_bond_atom_site_label_2
_geom_bond_site_symmetry_1
_geom_bond_site_symmetry_2
C1 C2 1_555 1_555
C2 C3 1_555 1_555
C3 C4 1_555 1_555
C4 O1 1_555 1_555
N1 C4 1_555 1_555
C5 C6 1_555 1_555
C6 C7 1_555 1_555
C7 C8 1_555 1_555
C8 C9 1_555 1_555
C9 C1 1_555 1_555
C10 N1 1_555 1_555
C11 C2 1_555 1_555
C12 C11 1_555 1_555
C13 C12 1_555 1_555
C14 C13 1_555 1_555
C15 C14 1_555 1_555
C16 C11 1_555 1_555
O2 C14 1_555 1_555
C17 O2 1_555 1_555
C18 C3 1_555 1_555
O3 C18 1_555 1_555
O4 C18 1_555 1_555
C19 C3 1_555 1_555
C20 C19 1_555 1_555
C21 C8 1_555 1_555
F1 C21 1_555 1_555
F2 C21 1_555 1_555
F3 C21 1_555 1_555
H1 O4 1_555 1_555
H2 C1 1_555 1_555
H3 C1 1_555 1_555
H4 C2 1_555 1_555
H5 N1 1_555 1_555
H6 C5 1_555 1_555
H7 C6 1_555 1_555
H8 C7 1_555 1_555
H9 C12 1_555 1_555
H10 C13 1_555 1_555
H11 C15 1_555 1_555
H12 C16 1_555 1_555
H13 C17 1_555 1_555
H14 C17 1_555 1_555
H15 C17 1_555 1_555
H16 C19 1_555 1_555
H17 C19 1_555 1_555
H18 C20 1_555 1_555
H19 C20 1_555 1_555
H20 C20 1_555 1_555
C5 C10 1_555 1_555
C9 C10 1_555 1_555
C15 C16 1_555 1_555

#END
