
#######################################################################
#
#                 Cambridge Crystallographic Data Centre
#                                CCDC 
#
#######################################################################
#
# If this CIF has been generated from an entry in the Cambridge 
# Structural Database, then it will include bibliographic, chemical, 
# crystal, experimental, refinement or atomic coordinate data resulting 
# from the CCDC's data processing and validation procedures.
#
#######################################################################

data_TEFSED
_chemical_formula_moiety         '2(C12 H16 O4),C12 H12 N2'
_chemical_name_systematic        
'bis(1,3-Adamantanedicarboxylic acid) 1,2-bis(4-pyridyl)ethane'
_symmetry_cell_setting           triclinic
_symmetry_space_group_name_H-M   'P -1'
_symmetry_Int_Tables_number      2
_space_group_name_Hall           '-P 1'
loop_
_symmetry_equiv_pos_site_id
_symmetry_equiv_pos_as_xyz
1 x,y,z
2 -x,-y,-z
_cell_length_a                   9.3034(19)
_cell_length_b                   10.198(2)
_cell_length_c                   10.295(2)
_cell_angle_alpha                60.47(3)
_cell_angle_beta                 76.13(3)
_cell_angle_gamma                72.88(3)
_cell_volume                     806.934
_exptl_crystal_colour            colorless
_exptl_crystal_description       'Thin platelet'
_cell_formula_units_Z            1
loop_
_atom_site_label
_atom_site_type_symbol
_atom_site_fract_x
_atom_site_fract_y
_atom_site_fract_z
O1 O 0.4895(3) 0.1769(3) 0.5003(4)
H1 H 0.4429 0.1133 0.5142
O2 O 0.6767(3) 0.0206(3) 0.4388(4)
O3 O 1.1680(3) 0.1581(3) 0.1955(4)
O4 O 1.2303(2) 0.3571(3) 0.1822(3)
H2 H 1.3103 0.3259 0.1416
C1 C 0.6277(3) 0.1396(3) 0.4516(4)
C2 C 0.7259(3) 0.2519(3) 0.4107(3)
C3 C 0.6498(3) 0.4146(3) 0.3020(4)
H3 H 0.6354 0.4148 0.2116
H4 H 0.5513 0.4458 0.3488
C4 C 0.7495(3) 0.5274(3) 0.2617(4)
H5 H 0.7008 0.6309 0.1923
C5 C 0.7705(4) 0.5294(4) 0.4028(4)
H6 H 0.6729 0.5618 0.4501
H7 H 0.8328 0.6022 0.3764
C6 C 0.8465(4) 0.3678(4) 0.5125(4)
H8 H 0.8595 0.3696 0.6033
C7 C 0.7466(3) 0.2541(4) 0.5548(3)
H9 H 0.6487 0.2848 0.6029
H10 H 0.7934 0.1518 0.6250
C8 C 1.0015(3) 0.3187(4) 0.4382(4)
H11 H 1.0503 0.2168 0.5073
H12 H 1.0652 0.3900 0.4130
C9 C 0.9817(3) 0.3172(3) 0.2948(3)
C10 C 0.9036(3) 0.4793(3) 0.1854(3)
H13 H 0.9662 0.5525 0.1568
H14 H 0.8903 0.4784 0.0952
C11 C 0.8814(3) 0.2042(3) 0.3351(3)
H15 H 0.9295 0.1011 0.4026
H16 H 0.8689 0.2032 0.2447
C12 C 1.1355(3) 0.2678(4) 0.2195(4)
N1 N 1.5056(3) 0.2463(3) 0.0616(4)
C13 C 1.5340(5) 0.0972(5) 0.1082(6)
H17 H 1.4585 0.0423 0.1662
C14 C 1.6806(5) 0.0170(5) 0.0711(7)
H18 H 1.6999 -0.0887 0.1038
C15 C 1.7906(3) 0.0993(4) -0.0129(5)
C16 C 1.7528(4) 0.2534(4) -0.0557(5)
H19 H 1.8254 0.3128 -0.1113
C17 C 1.6133(4) 0.3214(4) -0.0193(5)
H20 H 1.5921 0.4275 -0.0534
C18 C 1.9497(4) 0.0289(6) -0.0586(6)
H21 H 1.9462 -0.0555 -0.0756
H22 H 1.9905 0.1058 -0.1520
N1A N 2.4944(3) -0.2463(3) -0.0616(4)
C13A C 2.4660(5) -0.0972(5) -0.1082(6)
H17A H 2.5415 -0.0423 -0.1662
C14A C 2.3194(5) -0.0170(5) -0.0711(7)
H18A H 2.3001 0.0887 -0.1038
C15A C 2.2094(3) -0.0993(4) 0.0129(5)
C16A C 2.2472(4) -0.2534(4) 0.0557(5)
H19A H 2.1746 -0.3128 0.1113
C17A C 2.3867(4) -0.3214(4) 0.0193(5)
H20A H 2.4079 -0.4275 0.0534
C18A C 2.0503(4) -0.0289(6) 0.0586(6)
H21A H 2.0538 0.0555 0.0756
H22A H 2.0095 -0.1058 0.1520
loop_
_geom_bond_atom_site_label_1
_geom_bond_atom_site_label_2
_geom_bond_site_symmetry_1
_geom_bond_site_symmetry_2
O1 H1 1_555 1_555
O2 C1 1_555 1_555
O3 C12 1_555 1_555
O4 H2 1_555 1_555
N1 C13 1_555 1_555
C1 O1 1_555 1_555
C2 C1 1_555 1_555
C3 C2 1_555 1_555
H3 C3 1_555 1_555
H4 C3 1_555 1_555
C4 C3 1_555 1_555
H5 C4 1_555 1_555
C5 C4 1_555 1_555
H6 C5 1_555 1_555
H7 C5 1_555 1_555
C6 C5 1_555 1_555
H8 C6 1_555 1_555
C7 C2 1_555 1_555
H9 C7 1_555 1_555
H10 C7 1_555 1_555
C8 C6 1_555 1_555
H11 C8 1_555 1_555
H12 C8 1_555 1_555
C9 C8 1_555 1_555
C10 C4 1_555 1_555
H13 C10 1_555 1_555
H14 C10 1_555 1_555
C11 C2 1_555 1_555
H15 C11 1_555 1_555
H16 C11 1_555 1_555
C12 O4 1_555 1_555
C13 H17 1_555 1_555
C14 C13 1_555 1_555
H18 C14 1_555 1_555
C15 C14 1_555 1_555
C16 C15 1_555 1_555
H19 C16 1_555 1_555
C17 N1 1_555 1_555
H20 C17 1_555 1_555
C18 C15 1_555 1_555
H21 C18 1_555 1_555
H22 C18 1_555 1_555
N1A C13A 1_555 1_555
C13A H17A 1_555 1_555
C14A C13A 1_555 1_555
H18A C14A 1_555 1_555
C15A C14A 1_555 1_555
C16A C15A 1_555 1_555
H19A C16A 1_555 1_555
C17A N1A 1_555 1_555
H20A C17A 1_555 1_555
C18A C18 1_555 1_555
H21A C18A 1_555 1_555
H22A C18A 1_555 1_555
C6 C7 1_555 1_555
C9 C10 1_555 1_555
C9 C11 1_555 1_555
C9 C12 1_555 1_555
C16 C17 1_555 1_555
C15A C18A 1_555 1_555
C16A C17A 1_555 1_555

#END
