
#######################################################################
#
#                 Cambridge Crystallographic Data Centre
#                                CCDC 
#
#######################################################################
#
# If this CIF has been generated from an entry in the Cambridge 
# Structural Database, then it will include bibliographic, chemical, 
# crystal, experimental, refinement or atomic coordinate data resulting 
# from the CCDC's data processing and validation procedures.
#
#######################################################################

data_TEFVEF10
_chemical_formula_moiety         'C20 H19 F1 O4'
_chemical_name_systematic        
'Ethyl 2-fluoro-2-(p-toluoyl)-3-oxo-3-(p-tolyl)propanoate'
_symmetry_cell_setting           monoclinic
_symmetry_space_group_name_H-M   'P 21/n'
_symmetry_Int_Tables_number      14
_space_group_name_Hall           '-P 2yn'
loop_
_symmetry_equiv_pos_site_id
_symmetry_equiv_pos_as_xyz
1 x,y,z
2 1/2-x,1/2+y,1/2-z
3 -x,-y,-z
4 1/2+x,1/2-y,1/2+z
_cell_length_a                   14.790(2)
_cell_length_b                   8.5620(12)
_cell_length_c                   14.380(3)
_cell_angle_alpha                90
_cell_angle_beta                 98.8530(13)
_cell_angle_gamma                90
_cell_volume                     1799.27
_exptl_crystal_colour            colorless
_cell_formula_units_Z            4
loop_
_atom_site_label
_atom_site_type_symbol
_atom_site_fract_x
_atom_site_fract_y
_atom_site_fract_z
C1 C 0.6135(7) 0.8628(13) 0.2106(7)
H1 H 0.5904(74) 0.942(10) 0.1866(65)
H2 H 0.6515(53) 0.843(10) 0.2685(53)
H3 H 0.5562(55) 0.875(12) 0.2307(57)
C2 C 0.6170(5) 0.7325(9) 0.1422(6)
C3 C 0.5850(4) 0.7553(8) 0.0482(6)
H4 H 0.5583(4) 0.8500(8) 0.0278(6)
C4 C 0.5927(4) 0.6383(8) -0.0156(5)
H5 H 0.5712(4) 0.6558(8) -0.0790(5)
C5 C 0.6316(4) 0.4948(9) 0.0118(5)
C6 C 0.6625(4) 0.4733(9) 0.1068(5)
H6 H 0.6888(4) 0.3787(9) 0.1281(5)
C7 C 0.6544(5) 0.5913(10) 0.1699(5)
H7 H 0.6752(5) 0.5743(10) 0.2335(5)
C8 C 0.6399(4) 0.3784(8) -0.0624(6)
O1 O 0.6117(3) 0.4035(5) -0.1438(3)
C9 C 0.6855(4) 0.2189(8) -0.0354(5)
C10 C 0.6681(5) 0.1130(10) -0.1219(5)
O2 O 0.6083(4) 0.0172(6) -0.1339(4)
O3 O 0.7288(3) 0.1450(5) -0.1778(3)
C11 C 0.7147(6) 0.0725(9) -0.2701(6)
H8 H 0.7727(6) 0.0330(9) -0.2836(6)
H9 H 0.6736(6) -0.0157(9) -0.2694(6)
C12 C 0.6780(17) 0.1754(18) -0.3417(10)
H10 H 0.6687(97) 0.117(16) -0.4143(91)
H11 H 0.697(13) 0.250(18) -0.343(12)
H12 H 0.646(15) 0.151(28) -0.347(16)
C13 C 0.7883(4) 0.2354(8) -0.0014(4)
O4 O 0.8234(3) 0.3604(6) -0.0156(3)
C14 C 0.8414(5) 0.1038(8) 0.0446(4)
C15 C 0.8056(5) -0.0456(8) 0.0512(4)
H13 H 0.7444(5) -0.0641(8) 0.0274(4)
C16 C 0.8587(5) -0.1662(8) 0.0922(5)
H14 H 0.8338(5) -0.2658(8) 0.0942(5)
C17 C 0.9486(5) -0.1398(10) 0.1302(5)
C18 C 1.0080(10) -0.2742(18) 0.1773(10)
H15 H 0.9882(67) -0.367(12) 0.1251(65)
H16 H 1.0496(80) -0.255(17) 0.2038(96)
H17 H 0.993(10) -0.295(17) 0.2194(89)
C19 C 0.9835(5) 0.0077(11) 0.1263(5)
H18 H 1.0438(5) 0.0271(11) 0.1529(5)
C20 C 0.9315(5) 0.1260(9) 0.0843(4)
H19 H 0.9572(5) 0.2248(9) 0.0821(4)
F1 F 0.6426(2) 0.1512(4) 0.0334(3)
loop_
_geom_bond_atom_site_label_1
_geom_bond_atom_site_label_2
_geom_bond_site_symmetry_1
_geom_bond_site_symmetry_2
C1 H1 1_555 1_555
H2 C1 1_555 1_555
H3 C1 1_555 1_555
C2 C1 1_555 1_555
C3 C2 1_555 1_555
H4 C3 1_555 1_555
C4 C3 1_555 1_555
H5 C4 1_555 1_555
C5 C4 1_555 1_555
C6 C5 1_555 1_555
H6 C6 1_555 1_555
C7 C2 1_555 1_555
H7 C7 1_555 1_555
C8 C5 1_555 1_555
O1 C8 1_555 1_555
C9 C8 1_555 1_555
C10 C9 1_555 1_555
O2 C10 1_555 1_555
O3 C10 1_555 1_555
C11 O3 1_555 1_555
H8 C11 1_555 1_555
H9 C11 1_555 1_555
C12 C11 1_555 1_555
H10 C12 1_555 1_555
H11 C12 1_555 1_555
H12 C12 1_555 1_555
C13 C9 1_555 1_555
O4 C13 1_555 1_555
C14 C13 1_555 1_555
C15 C14 1_555 1_555
H13 C15 1_555 1_555
C16 C15 1_555 1_555
H14 C16 1_555 1_555
C17 C16 1_555 1_555
C18 C17 1_555 1_555
H15 C18 1_555 1_555
H16 C18 1_555 1_555
H17 C18 1_555 1_555
C19 C17 1_555 1_555
H18 C19 1_555 1_555
C20 C14 1_555 1_555
H19 C20 1_555 1_555
F1 C9 1_555 1_555
C6 C7 1_555 1_555
C19 C20 1_555 1_555

#END
