
#######################################################################
#
#                 Cambridge Crystallographic Data Centre
#                                CCDC 
#
#######################################################################
#
# If this CIF has been generated from an entry in the Cambridge 
# Structural Database, then it will include bibliographic, chemical, 
# crystal, experimental, refinement or atomic coordinate data resulting 
# from the CCDC's data processing and validation procedures.
#
#######################################################################

data_TEFYAH
_chemical_formula_moiety         'C18 H15 F3 N2 O4 S1'
_chemical_name_systematic        
'1-((4-methylphenyl)sulfonyl)-2-(2-(4-nitrophenyl)vinyl)-3-(trifluoromethyl)aziridine unknown solvate'
_symmetry_cell_setting           triclinic
_symmetry_space_group_name_H-M   'P -1'
_symmetry_Int_Tables_number      2
_space_group_name_Hall           '-P 1'
loop_
_symmetry_equiv_pos_site_id
_symmetry_equiv_pos_as_xyz
1 x,y,z
2 -x,-y,-z
_cell_length_a                   6.0926(7)
_cell_length_b                   12.1228(14)
_cell_length_c                   15.3871(16)
_cell_angle_alpha                73.037(2)
_cell_angle_beta                 86.996(3)
_cell_angle_gamma                81.089(2)
_cell_volume                     1073.89
_exptl_crystal_colour            colorless
_exptl_crystal_description       prismatic
_cell_formula_units_Z            2
loop_
_atom_site_label
_atom_site_type_symbol
_atom_site_fract_x
_atom_site_fract_y
_atom_site_fract_z
S1 S -0.26446(10) 0.81886(5) 0.55726(4)
F1 F -0.5597(3) 1.06208(19) 0.67959(14)
F2 F -0.3658(3) 0.96050(17) 0.79151(13)
F3 F -0.2756(5) 1.1224(2) 0.7106(2)
N1 N -0.2386(3) 0.85276(15) 0.65420(12)
N2 N 0.6886(5) 0.5631(2) 1.12597(18)
O1 O 0.5754(4) 0.5540(3) 1.19459(15)
O2 O 0.8839(4) 0.5266(3) 1.12672(16)
O3 O -0.1405(3) 0.88688(16) 0.48586(11)
O4 O -0.4983(3) 0.82417(16) 0.54693(12)
C1 C -0.3504(6) 1.0291(3) 0.7067(2)
C2 C -0.2123(4) 0.9727(2) 0.64484(18)
H1 H -0.2058 1.0218 0.5819
C3 C -0.0185(4) 0.8798(2) 0.67278(16)
H2 H 0.0929 0.8774 0.6248
C4 C 0.0668(4) 0.8261(2) 0.76578(17)
H3 H -0.0300 0.8272 0.8144
C5 C 0.2702(4) 0.7775(2) 0.78264(16)
H4 H 0.3625 0.7778 0.7325
C6 C 0.3721(4) 0.7220(2) 0.87227(16)
C7 C 0.5931(4) 0.6713(2) 0.87808(17)
H5 H 0.6738 0.6727 0.8249
C8 C 0.6960(4) 0.6193(2) 0.96004(18)
H6 H 0.8439 0.5850 0.9625
C9 C 0.5781(4) 0.6186(2) 1.03792(17)
C10 C 0.3592(5) 0.6661(3) 1.03543(18)
H7 H 0.2792 0.6628 1.0891
C11 C 0.2585(4) 0.7189(3) 0.95270(19)
H8 H 0.1107 0.7532 0.9509
C12 C -0.1340(4) 0.6737(2) 0.58699(16)
C13 C -0.2509(5) 0.5866(2) 0.63834(19)
H9 H -0.3965 0.6048 0.6568
C14 C -0.1472(6) 0.4737(3) 0.6611(2)
H10 H -0.2250 0.4149 0.6947
C15 C 0.0696(6) 0.4447(3) 0.6357(2)
C16 C 0.1821(5) 0.5322(3) 0.5851(2)
H11 H 0.3275 0.5134 0.5668
C17 C 0.0832(4) 0.6488(3) 0.56039(19)
H12 H 0.1613 0.7077 0.5271
C18 C 0.1835(8) 0.3194(3) 0.6631(3)
H13 H 0.0817 0.2691 0.6569
H14 H 0.2301 0.2980 0.7252
H15 H 0.3107 0.3116 0.6247
loop_
_geom_bond_atom_site_label_1
_geom_bond_atom_site_label_2
_geom_bond_site_symmetry_1
_geom_bond_site_symmetry_2
S1 N1 1_555 1_555
F1 C1 1_555 1_555
F2 C1 1_555 1_555
F3 C1 1_555 1_555
N1 C2 1_555 1_555
N2 O1 1_555 1_555
O2 N2 1_555 1_555
O3 S1 1_555 1_555
O4 S1 1_555 1_555
C1 C2 1_555 1_555
C2 H1 1_555 1_555
C3 N1 1_555 1_555
H2 C3 1_555 1_555
C4 C3 1_555 1_555
H3 C4 1_555 1_555
C5 C4 1_555 1_555
H4 C5 1_555 1_555
C6 C5 1_555 1_555
C7 C6 1_555 1_555
H5 C7 1_555 1_555
C8 C7 1_555 1_555
H6 C8 1_555 1_555
C9 N2 1_555 1_555
C10 C9 1_555 1_555
H7 C10 1_555 1_555
C11 C6 1_555 1_555
H8 C11 1_555 1_555
C12 S1 1_555 1_555
C13 C12 1_555 1_555
H9 C13 1_555 1_555
C14 C13 1_555 1_555
H10 C14 1_555 1_555
C15 C14 1_555 1_555
C16 C15 1_555 1_555
H11 C16 1_555 1_555
C17 C12 1_555 1_555
H12 C17 1_555 1_555
C18 C15 1_555 1_555
H13 C18 1_555 1_555
H14 C18 1_555 1_555
H15 C18 1_555 1_555
C2 C3 1_555 1_555
C8 C9 1_555 1_555
C10 C11 1_555 1_555
C16 C17 1_555 1_555

#END
