
#######################################################################
#
#                 Cambridge Crystallographic Data Centre
#                                CCDC 
#
#######################################################################
#
# If this CIF has been generated from an entry in the Cambridge 
# Structural Database, then it will include bibliographic, chemical, 
# crystal, experimental, refinement or atomic coordinate data resulting 
# from the CCDC's data processing and validation procedures.
#
#######################################################################

data_TEFZAG
_chemical_formula_moiety         'C16 H20 N2 O2'
_chemical_name_systematic        
(1R,2R,3S)-1-Cyano-3-hydroxy-2,3-dimethyl-N-phenylcyclohexanecarboxamide
_symmetry_cell_setting           monoclinic
_symmetry_space_group_name_H-M   'P 21/c'
_symmetry_Int_Tables_number      14
_space_group_name_Hall           '-P 2ybc'
loop_
_symmetry_equiv_pos_site_id
_symmetry_equiv_pos_as_xyz
1 x,y,z
2 -x,1/2+y,1/2-z
3 -x,-y,-z
4 x,1/2-y,1/2+z
_cell_length_a                   16.3285(2)
_cell_length_b                   13.5208(2)
_cell_length_c                   13.9382(2)
_cell_angle_alpha                90
_cell_angle_beta                 99.7380(10)
_cell_angle_gamma                90
_cell_volume                     3032.86
_exptl_crystal_colour            colorless
_exptl_crystal_description       plate
_chemical_melting_point          '437-438 K'
_cell_formula_units_Z            8
loop_
_atom_site_label
_atom_site_type_symbol
_atom_site_fract_x
_atom_site_fract_y
_atom_site_fract_z
C1 C 0.68301(10) 0.06236(11) 0.25274(11)
H1 H 0.6574 0.0944 0.1966
C2 C 0.73088(11) -0.02093(13) 0.24565(15)
H2 H 0.7378 -0.0442 0.1847
C3 C 0.76787(12) -0.06887(14) 0.32730(17)
H3 H 0.7999 -0.1249 0.3223
C4 C 0.75790(11) -0.03442(13) 0.41682(16)
H4 H 0.7832 -0.0677 0.4724
C5 C 0.71065(10) 0.04925(12) 0.42626(12)
H5 H 0.7044 0.0720 0.4876
C6 C 0.67310(9) 0.09834(10) 0.34372(10)
N1 N 0.62412(7) 0.18488(8) 0.34337(8)
H6 H 0.6140 0.2165 0.2891
C7 C 0.59187(9) 0.22320(10) 0.41655(10)
O1 O 0.60321(9) 0.18868(9) 0.49818(8)
C8 C 0.52299(11) 0.35443(12) 0.48745(11)
N2 N 0.51326(12) 0.38836(12) 0.55949(11)
C9 C 0.53247(9) 0.31274(10) 0.39206(9)
C10 C 0.44464(10) 0.27280(13) 0.34612(12)
H7 H 0.4337 0.2125 0.3794
H8 H 0.4030 0.3210 0.3563
C11 C 0.43655(11) 0.25209(13) 0.23961(12)
H9 H 0.3803 0.2306 0.2147
H10 H 0.4741 0.1990 0.2295
C12 C 0.45637(11) 0.34311(13) 0.18428(12)
H11 H 0.4507 0.3267 0.1157
H12 H 0.4160 0.3942 0.1910
C13 C 0.54309(10) 0.38390(11) 0.21872(10)
O2 O 0.60391(7) 0.31428(7) 0.19619(6)
H13 H 0.5984 0.3071 0.1370
C14 C 0.55905(10) 0.39894(11) 0.33023(10)
H14 H 0.5235 0.4546 0.3415
C15 C 0.55360(13) 0.48108(13) 0.16673(13)
H15 H 0.5400 0.4714 0.0976
H16 H 0.6101 0.5030 0.1832
H17 H 0.5173 0.5301 0.1866
C16 C 0.64729(11) 0.43260(13) 0.37118(12)
H18 H 0.6596 0.4920 0.3388
H19 H 0.6859 0.3818 0.3609
H20 H 0.6518 0.4451 0.4397
C17 C 1.1637(8) 0.2616(8) 0.3608(7)
H21 H 1.1532 0.2215 0.3059
C18 C 1.2390(7) 0.2555(9) 0.4268(11)
H22 H 1.2792 0.2110 0.4139
C19 C 1.2555(10) 0.3120(19) 0.5086(15)
H23 H 1.3070 0.3096 0.5491
C20 C 1.1950(9) 0.3711(9) 0.5285(11)
H24 H 1.2039 0.4035 0.5882
C21 C 1.1149(10) 0.3894(14) 0.4634(17)
H25 H 1.0752 0.4350 0.4755
C22 C 1.1070(10) 0.3286(11) 0.3810(15)
N3 N 1.0298(10) 0.3452(10) 0.3195(10)
H26 H 1.0149 0.2944 0.2837
C23 C 0.9749(5) 0.4161(10) 0.3021(8)
O3 O 0.9761(6) 0.4921(8) 0.3455(7)
C24 C 0.8442(8) 0.4857(9) 0.2129(10)
N4 N 0.7921(9) 0.5377(15) 0.2094(14)
C25 C 0.9144(2) 0.4121(3) 0.1963(3)
C26 C 0.9548(4) 0.4445(5) 0.1103(5)
H27 H 0.9929 0.4985 0.1307
H28 H 0.9120 0.4690 0.0589
C27 C 1.0024(3) 0.3602(4) 0.0696(4)
H29 H 1.0263 0.3841 0.0148
H30 H 1.0473 0.3375 0.1194
C28 C 0.9438(2) 0.2758(3) 0.0375(2)
H31 H 0.9738 0.2243 0.0095
H32 H 0.8998 0.2991 -0.0130
C29 C 0.9037(6) 0.2301(9) 0.1228(8)
O4 O 0.9725(2) 0.1893(3) 0.1908(2)
H33 H 0.9896 0.1392 0.1675
C30 C 0.86510(17) 0.31257(19) 0.1734(2)
H34 H 0.8150 0.3312 0.1279
C31 C 0.8431(2) 0.1522(2) 0.0829(3)
H35 H 0.8685 0.1081 0.0425
H36 H 0.7951 0.1824 0.0449
H37 H 0.8267 0.1157 0.1356
C32 C 0.8330(6) 0.2742(6) 0.2637(7)
H38 H 0.8114 0.3285 0.2962
H39 H 0.8778 0.2436 0.3071
H40 H 0.7897 0.2266 0.2444
C33? C 1.157(2) 0.2831(15) 0.3777(17)
H41? H 1.1529 0.2493 0.3189
C34? C 1.2250(18) 0.268(2) 0.445(3)
H42? H 1.2647 0.2216 0.4355
C35? C 1.2340(18) 0.319(3) 0.525(3)
H43? H 1.2804 0.3087 0.5728
C36? C 1.1743(19) 0.392(2) 0.542(2)
H44? H 1.1811 0.4350 0.5947
C37? C 1.113(2) 0.390(3) 0.478(3)
H45? H 1.0696 0.4268 0.4943
C38? C 1.093(2) 0.348(2) 0.392(3)
N5? N 1.0281(18) 0.3297(18) 0.3019(19)
H46? H 1.0214 0.2750 0.2702
C39? C 0.9816(13) 0.4130(17) 0.2792(16)
O5? O 0.9970(12) 0.4923(12) 0.3303(15)
C40? C 0.8569(17) 0.4701(18) 0.203(2)
N6? N 0.8138(19) 0.545(3) 0.203(3)
C41? C 0.8921(4) 0.3788(5) 0.2315(5)
C42? C 0.8374(10) 0.3067(11) 0.2811(13)
H47? H 0.8393 0.3269 0.3483
H48? H 0.7802 0.3120 0.2484
C43? C 0.8645(4) 0.2003(5) 0.2791(4)
H49? H 0.8287 0.1590 0.3111
H50? H 0.9210 0.1935 0.3138
C44? C 0.8601(4) 0.1676(4) 0.1747(4)
H51? H 0.8037 0.1758 0.1403
H52? H 0.8741 0.0980 0.1733
C45? C 0.9249(11) 0.2327(19) 0.1181(18)
O6? O 1.0035(4) 0.2083(5) 0.1659(5)
H53? H 1.0037 0.1510 0.1851
C46? C 0.9033(4) 0.3382(4) 0.1295(4)
H54? H 0.8503 0.3491 0.0862
C47? C 0.9037(5) 0.1938(6) 0.0149(4)
H55? H 0.9123 0.1236 0.0149
H56? H 0.9387 0.2251 -0.0249
H57? H 0.8465 0.2081 -0.0106
C48? C 0.9705(10) 0.4054(10) 0.0880(11)
H58? H 0.9723 0.3870 0.0219
H59? H 1.0242 0.3956 0.1270
H60? H 0.9550 0.4737 0.0904
loop_
_geom_bond_atom_site_label_1
_geom_bond_atom_site_label_2
_geom_bond_site_symmetry_1
_geom_bond_site_symmetry_2
C1 H1 1_555 1_555
C2 C1 1_555 1_555
H2 C2 1_555 1_555
C3 C2 1_555 1_555
H3 C3 1_555 1_555
C4 C3 1_555 1_555
H4 C4 1_555 1_555
C5 C4 1_555 1_555
H5 C5 1_555 1_555
C6 C1 1_555 1_555
N1 C6 1_555 1_555
H6 N1 1_555 1_555
C7 N1 1_555 1_555
O1 C7 1_555 1_555
C8 N2 1_555 1_555
C9 C7 1_555 1_555
C10 C9 1_555 1_555
H7 C10 1_555 1_555
H8 C10 1_555 1_555
C11 C10 1_555 1_555
H9 C11 1_555 1_555
H10 C11 1_555 1_555
C12 C11 1_555 1_555
H11 C12 1_555 1_555
H12 C12 1_555 1_555
C13 C12 1_555 1_555
O2 C13 1_555 1_555
H13 O2 1_555 1_555
C14 C9 1_555 1_555
H14 C14 1_555 1_555
C15 C13 1_555 1_555
H15 C15 1_555 1_555
H16 C15 1_555 1_555
H17 C15 1_555 1_555
C16 C14 1_555 1_555
H18 C16 1_555 1_555
H19 C16 1_555 1_555
H20 C16 1_555 1_555
C17 H21 1_555 1_555
C18 C17 1_555 1_555
H22 C18 1_555 1_555
C19 C18 1_555 1_555
H23 C19 1_555 1_555
C20 C19 1_555 1_555
H24 C20 1_555 1_555
C21 C20 1_555 1_555
H25 C21 1_555 1_555
C22 C17 1_555 1_555
N3 C22 1_555 1_555
H26 N3 1_555 1_555
C23 N3 1_555 1_555
O3 C23 1_555 1_555
C24 N4 1_555 1_555
C25 C23 1_555 1_555
C26 C25 1_555 1_555
H27 C26 1_555 1_555
H28 C26 1_555 1_555
C27 C26 1_555 1_555
H29 C27 1_555 1_555
H30 C27 1_555 1_555
C28 C27 1_555 1_555
H31 C28 1_555 1_555
H32 C28 1_555 1_555
C29 C28 1_555 1_555
O4 C29 1_555 1_555
H33 O4 1_555 1_555
C30 C25 1_555 1_555
H34 C30 1_555 1_555
C31 C29 1_555 1_555
H35 C31 1_555 1_555
H36 C31 1_555 1_555
H37 C31 1_555 1_555
C32 C30 1_555 1_555
H38 C32 1_555 1_555
H39 C32 1_555 1_555
H40 C32 1_555 1_555
C5 C6 1_555 1_555
C8 C9 1_555 1_555
C13 C14 1_555 1_555
C21 C22 1_555 1_555
C24 C25 1_555 1_555
C29 C30 1_555 1_555

#END
