
#######################################################################
#
#                 Cambridge Crystallographic Data Centre
#                                CCDC 
#
#######################################################################
#
# If this CIF has been generated from an entry in the Cambridge 
# Structural Database, then it will include bibliographic, chemical, 
# crystal, experimental, refinement or atomic coordinate data resulting 
# from the CCDC's data processing and validation procedures.
#
#######################################################################

data_TEFZOU
_chemical_formula_moiety         'C13 H21 N1 O1'
_chemical_name_systematic        
3-Hydroxy-2,3-dimethyl-1-(but-3-enyl)cyclohexanecarbonitrile
_symmetry_cell_setting           triclinic
_symmetry_space_group_name_H-M   'P -1'
_symmetry_Int_Tables_number      2
_space_group_name_Hall           '-P 1'
loop_
_symmetry_equiv_pos_site_id
_symmetry_equiv_pos_as_xyz
1 x,y,z
2 -x,-y,-z
_cell_length_a                   7.5391(9)
_cell_length_b                   14.678(2)
_cell_length_c                   6.046(1)
_cell_angle_alpha                90.52(1)
_cell_angle_beta                 105.22(1)
_cell_angle_gamma                91.55(1)
_cell_volume                     645.25
_exptl_crystal_colour            colorless
_exptl_crystal_description       plate
_chemical_melting_point          '351-353 K'
_cell_formula_units_Z            2
_exptl_crystal_recrystallization_method 'ethyl acetate/hexanes'
loop_
_atom_site_label
_atom_site_type_symbol
_atom_site_fract_x
_atom_site_fract_y
_atom_site_fract_z
O1 O 0.7098(2) 0.2993(1) 0.9581(2)
N1 N 0.1018(3) 0.2856(2) 0.2185(4)
C1 C 0.4106(3) 0.2537(2) 0.5214(3)
C2 C 0.4994(3) 0.3480(2) 0.6131(4)
C3 C 0.7046(3) 0.3434(2) 0.7465(4)
C4 C 0.8112(3) 0.2894(2) 0.6130(4)
C5 C 0.7265(3) 0.1970(2) 0.5359(5)
C6 C 0.5315(3) 0.2051(2) 0.3893(4)
C7 C 0.2350(3) 0.2723(2) 0.3508(4)
C8 C 0.3635(3) 0.1941(2) 0.7076(4)
C9 C 0.2676(4) 0.1033(2) 0.6295(5)
C10 C 0.1917(4) 0.0616(3) 0.8121(7)
C11 C 0.2326(6) -0.0097(3) 0.9139(8)
C12 C 0.3878(4) 0.3999(2) 0.7455(5)
C13 C 0.7925(4) 0.4384(2) 0.7981(6)
H1 H 0.4978 0.3829 0.4813
H2 H 0.8165 0.3236 0.4813
H3 H 0.9325 0.2828 0.7073
H4 H 0.7981 0.1672 0.4509
H5 H 0.7249 0.1618 0.6675
H6 H 0.5329 0.2388 0.2554
H7 H 0.4798 0.1454 0.3424
H8 H 0.2876 0.2276 0.7788
H9 H 0.4772 0.1827 0.8200
H10 H 0.1715 0.1114 0.4932
H11 H 0.3550 0.0626 0.5903
H12 H 0.1001 0.0943 0.8579
H13 H 0.1751 -0.0303 1.0313
H14 H 0.3246 -0.0486 0.8817
H15 H 0.3844 0.3685 0.8845
H16 H 0.2643 0.4064 0.6571
H17 H 0.4412 0.4596 0.7905
H18 H 0.7236 0.4730 0.8805
H19 H 0.7911 0.4687 0.6595
H20 H 0.9154 0.4352 0.8893
H21 H 0.8341 0.2934 1.0363
loop_
_geom_bond_atom_site_label_1
_geom_bond_atom_site_label_2
_geom_bond_site_symmetry_1
_geom_bond_site_symmetry_2
O1 C3 1_555 1_555
N1 C7 1_555 1_555
C1 C2 1_555 1_555
C2 C3 1_555 1_555
C3 C4 1_555 1_555
C4 C5 1_555 1_555
C5 C6 1_555 1_555
C6 C1 1_555 1_555
C7 C1 1_555 1_555
C8 C1 1_555 1_555
C9 C8 1_555 1_555
C10 C9 1_555 1_555
C11 C10 1_555 1_555
C12 C2 1_555 1_555
C13 C3 1_555 1_555
H1 C2 1_555 1_555
H2 C4 1_555 1_555
H3 C4 1_555 1_555
H4 C5 1_555 1_555
H5 C5 1_555 1_555
H6 C6 1_555 1_555
H7 C6 1_555 1_555
H8 C8 1_555 1_555
H9 C8 1_555 1_555
H10 C9 1_555 1_555
H11 C9 1_555 1_555
H12 C10 1_555 1_555
H13 C11 1_555 1_555
H14 C11 1_555 1_555
H15 C12 1_555 1_555
H16 C12 1_555 1_555
H17 C12 1_555 1_555
H18 C13 1_555 1_555
H19 C13 1_555 1_555
H20 C13 1_555 1_555
H21 O1 1_555 1_555

#END
