
#######################################################################
#
#                 Cambridge Crystallographic Data Centre
#                                CCDC 
#
#######################################################################
#
# If this CIF has been generated from an entry in the Cambridge 
# Structural Database, then it will include bibliographic, chemical, 
# crystal, experimental, refinement or atomic coordinate data resulting 
# from the CCDC's data processing and validation procedures.
#
#######################################################################

data_TEGBOY
_chemical_formula_moiety         'C12 H13 Br1 F1 N1 O2'
_chemical_name_systematic        
2-(4-Bromophenyl)-3-fluoro-N-methoxy-N-methylcyclopropanecarboxamide
_symmetry_cell_setting           monoclinic
_symmetry_space_group_name_H-M   'P 21'
_symmetry_Int_Tables_number      4
_space_group_name_Hall           'P 2yb'
loop_
_symmetry_equiv_pos_site_id
_symmetry_equiv_pos_as_xyz
1 x,y,z
2 -x,1/2+y,-z
_cell_length_a                   5.9388(10)
_cell_length_b                   8.0826(14)
_cell_length_c                   13.168(2)
_cell_angle_alpha                90
_cell_angle_beta                 96.471(3)
_cell_angle_gamma                90
_cell_volume                     628.049
_exptl_crystal_colour            yellow
_exptl_crystal_description       prismatic
_cell_formula_units_Z            2
loop_
_atom_site_label
_atom_site_type_symbol
_atom_site_fract_x
_atom_site_fract_y
_atom_site_fract_z
Br1 Br 1.57692(9) 0.18622(10) 1.21579(3)
F1 F 0.9074(5) 0.4312(4) 0.6598(2)
N1 N 0.7191(5) 0.0037(4) 0.5893(3)
O1 O 0.5430(4) 0.1757(6) 0.6858(2)
O2 O 0.9281(4) -0.0414(3) 0.5583(2)
C1 C 0.9492(6) 0.2656(5) 0.8157(3)
H1 H 0.8009 0.3115 0.8263
C2 C 1.0333(7) 0.3183(6) 0.7190(3)
H2 H 1.1981 0.3283 0.7205
C3 C 0.9445(6) 0.1492(5) 0.7239(3)
H3 H 1.0564 0.0596 0.7292
C4 C 0.7194(6) 0.1112(5) 0.6670(3)
C5 C 0.5284(8) -0.0255(6) 0.5142(4)
H4 H 0.3909 0.0005 0.5428
H5 H 0.5263 -0.1396 0.4940
H6 H 0.5406 0.0433 0.4556
C6 C 0.9665(8) -0.2125(6) 0.5755(5)
H7 H 0.9320 -0.2409 0.6428
H8 H 1.1225 -0.2376 0.5695
H9 H 0.8712 -0.2751 0.5257
C7 C 1.1029(6) 0.2405(4) 0.9109(3)
C8 C 1.3102(6) 0.1601(6) 0.9135(3)
H10 H 1.3552 0.1167 0.8535
C9 C 1.4497(6) 0.1440(5) 1.0037(4)
H11 H 1.5889 0.0911 1.0045
C10 C 1.3833(6) 0.2059(6) 1.0920(3)
C11 C 1.1778(8) 0.2859(6) 1.0911(3)
H12 H 1.1326 0.3273 1.1515
C12 C 1.0414(7) 0.3039(6) 1.0016(3)
H13 H 0.9045 0.3599 1.0012
loop_
_geom_bond_atom_site_label_1
_geom_bond_atom_site_label_2
_geom_bond_site_symmetry_1
_geom_bond_site_symmetry_2
Br1 C10 1_555 1_555
F1 C2 1_555 1_555
N1 O2 1_555 1_555
O1 C4 1_555 1_555
O2 C6 1_555 1_555
C1 H1 1_555 1_555
C2 C1 1_555 1_555
H2 C2 1_555 1_555
C3 C1 1_555 1_555
H3 C3 1_555 1_555
C4 N1 1_555 1_555
C5 N1 1_555 1_555
H4 C5 1_555 1_555
H5 C5 1_555 1_555
H6 C5 1_555 1_555
C6 H7 1_555 1_555
H8 C6 1_555 1_555
H9 C6 1_555 1_555
C7 C1 1_555 1_555
C8 C7 1_555 1_555
H10 C8 1_555 1_555
C9 C8 1_555 1_555
H11 C9 1_555 1_555
C10 C9 1_555 1_555
C11 C10 1_555 1_555
H12 C11 1_555 1_555
C12 C7 1_555 1_555
H13 C12 1_555 1_555
C2 C3 1_555 1_555
C3 C4 1_555 1_555
C11 C12 1_555 1_555

#END
