
#######################################################################
#
#                 Cambridge Crystallographic Data Centre
#                                CCDC 
#
#######################################################################
#
# If this CIF has been generated from an entry in the Cambridge 
# Structural Database, then it will include bibliographic, chemical, 
# crystal, experimental, refinement or atomic coordinate data resulting 
# from the CCDC's data processing and validation procedures.
#
#######################################################################

data_TEGBEP
_chemical_formula_moiety         'C20 H16 F1 N3'
_chemical_name_systematic        
1-(2-fluoro-1,1-diphenylethyl)-1H-benzotriazole
_symmetry_cell_setting           triclinic
_symmetry_space_group_name_H-M   'P 1'
_symmetry_Int_Tables_number      1
_space_group_name_Hall           'P 1'
loop_
_symmetry_equiv_pos_site_id
_symmetry_equiv_pos_as_xyz
1 x,y,z
_cell_length_a                   11.425
_cell_length_b                   14.928
_cell_length_c                   15.760
_cell_angle_alpha                107.82
_cell_angle_beta                 111.14
_cell_angle_gamma                90.04
_cell_volume                     2367.99
_exptl_crystal_colour            colorless
_exptl_crystal_description       block
_cell_formula_units_Z            6
loop_
_atom_site_label
_atom_site_type_symbol
_atom_site_fract_x
_atom_site_fract_y
_atom_site_fract_z
C1 C 0.0252(3) 0.35896(19) -0.4153(2)
H1 H -0.0313 0.3677 -0.4709
C2 C -0.0793(3) 0.5114(2) -0.0974(3)
H2 H -0.1305 0.4542 -0.1360
C3 C 0.0187(3) 0.40782(18) -0.3270(2)
C4 C -0.2964(3) 0.4879(2) -0.3163(3)
H3 H -0.2847 0.5519 -0.3093
C5 C -0.2009(3) 0.4325(2) -0.3239(2)
C6 C -0.0562(3) 0.5483(2) -0.0015(2)
H4 H -0.0925 0.5145 0.0256
C7 C 0.1929(3) 0.3293(2) -0.2535(3)
H5 H 0.2493 0.3197 -0.1983
C8 C 0.0560(3) 0.6490(2) -0.0760(3)
C9 C -0.1070(3) 0.5278(2) -0.3944(2)
H6 H -0.1429 0.5856 -0.3742
H7 H -0.0297 0.5444 -0.4014
C10 C -0.0216(3) 0.56412(19) -0.1344(2)
C11 C 0.1983(3) 0.2825(2) -0.3416(3)
H8 H 0.2583 0.2413 -0.3467
C12 C 0.0769(4) 0.6863(3) 0.0231(3)
H9 H 0.1276 0.7435 0.0624
C13 C 0.1037(3) 0.3903(2) -0.2471(2)
H10 H 0.1005 0.4208 -0.1871
C14 C -0.4297(3) 0.3547(3) -0.3336(2)
H11 H -0.5062 0.3288 -0.3373
C15 C 0.1143(3) 0.2976(2) -0.4216(3)
H12 H 0.1171 0.2659 -0.4815
C16 C 0.0191(3) 0.6344(3) 0.0581(3)
H13 H 0.0302 0.6568 0.1228
C17 C -0.4079(3) 0.4499(3) -0.3191(2)
H14 H -0.4692 0.4889 -0.3111
C18 C -0.3365(3) 0.2985(2) -0.3426(3)
H15 H -0.3498 0.2342 -0.3515
C19 C -0.2236(3) 0.3366(2) -0.3384(2)
H16 H -0.1620 0.2975 -0.3454
C20 C -0.0775(3) 0.4773(2) -0.3179(2)
N1 N 0.0556(3) 0.62812(18) -0.2176(2)
N2 N 0.1007(3) 0.68570(19) -0.1303(2)
N3 N -0.0199(2) 0.55461(16) -0.2232(2)
F1 F -0.19263(19) 0.46681(14) -0.48197(13)
C21 C 0.3578(3) 0.3590(2) -0.7491(2)
H17 H 0.3009 0.3677 -0.8047
C22 C 0.2545(3) 0.5117(2) -0.4319(2)
H18 H 0.2033 0.4547 -0.4711
C23 C 0.3522(3) 0.40779(19) -0.6599(3)
C24 C 0.0365(3) 0.4886(2) -0.6499(2)
H19 H 0.0480 0.5525 -0.6432
C25 C 0.1323(3) 0.4330(2) -0.6576(2)
C26 C 0.2559(3) 0.47783(19) -0.6512(2)
C27 C 0.2770(3) 0.5480(2) -0.3354(2)
H20 H 0.2408 0.5136 -0.3088
C28 C 0.5271(3) 0.3302(2) -0.5860(3)
H21 H 0.5843 0.3213 -0.5308
C29 C 0.3892(3) 0.6491(2) -0.4095(3)
C30 C 0.2269(3) 0.5288(3) -0.7273(3)
H22 H 0.1907 0.5865 -0.7072
H23 H 0.3042 0.5457 -0.7342
C31 C 0.3123(3) 0.5649(2) -0.4679(2)
C32 C 0.5312(3) 0.2828(2) -0.6743(3)
H24 H 0.5903 0.2408 -0.6794
C33 C 0.4108(3) 0.6862(3) -0.3095(3)
H25 H 0.4622 0.7430 -0.2696
C34 C 0.4378(3) 0.3912(2) -0.5795(3)
H26 H 0.4349 0.4221 -0.5195
C35 C -0.0952(3) 0.3552(3) -0.6668(2)
H27 H -0.1712 0.3290 -0.6701
C36 C 0.4471(3) 0.2981(2) -0.7552(3)
H28 H 0.4507 0.2668 -0.8150
C37 C 0.3516(3) 0.6337(2) -0.2756(2)
H29 H 0.3614 0.6559 -0.2112
C38 C -0.0748(3) 0.4508(3) -0.6522(2)
H30 H -0.1362 0.4896 -0.6439
C39 C -0.0018(3) 0.2983(2) -0.6765(2)
H31 H -0.0154 0.2338 -0.6866
C40 C 0.1107(3) 0.3372(2) -0.6711(2)
H32 H 0.1733 0.2987 -0.6767
N4 N 0.3135(2) 0.55455(16) -0.55707(17)
N5 N 0.3892(3) 0.62848(19) -0.5510(2)
N6 N 0.4345(3) 0.68561(18) -0.4634(2)
F2 F 0.1412(2) 0.46700(15) -0.81518(14)
C41 C 0.6913(3) 0.3591(2) -1.0819(2)
H33 H 0.6348 0.3680 -1.1375
C42 C 0.5885(3) 0.5117(2) -0.7642(3)
H34 H 0.5378 0.4544 -0.8029
C43 C 0.6858(2) 0.40764(18) -0.9928(2)
C44 C 0.3708(3) 0.4882(2) -0.9822(2)
H35 H 0.3826 0.5522 -0.9746
C45 C 0.4661(3) 0.4326(2) -0.9900(2)
C46 C 0.5895(3) 0.4770(2) -0.9840(2)
C47 C 0.6106(3) 0.5482(2) -0.6687(2)
H36 H 0.5744 0.5139 -0.6421
C48 C 0.8600(4) 0.3298(3) -0.9195(3)
H37 H 0.9166 0.3203 -0.8643
C49 C 0.7223(3) 0.6494(2) -0.7421(2)
C50 C 0.5602(3) 0.5286(3) -1.0602(2)
H38 H 0.5235 0.5860 -1.0401
H39 H 0.6375 0.5459 -1.0669
C51 C 0.6459(3) 0.5650(2) -0.8013(2)
C52 C 0.8655(3) 0.2829(2) -1.0072(3)
H40 H 0.9257 0.2418 -1.0119
C53 C 0.7428(3) 0.6855(2) -0.6435(3)
H41 H 0.7942 0.7424 -0.6038
C54 C 0.7709(3) 0.3911(3) -0.9126(3)
H42 H 0.7681 0.4221 -0.8525
C55 C 0.2381(3) 0.3543(3) -1.0002(2)
H43 H 0.1618 0.3280 -1.0042
C56 C 0.7815(3) 0.2973(2) -1.0876(3)
H44 H 0.7845 0.2651 -1.1474
C57 C 0.6850(3) 0.6345(2) -0.6083(2)
H45 H 0.6949 0.6571 -0.5439
C58 C 0.2583(3) 0.4496(3) -0.9856(2)
H46 H 0.1964 0.4881 -0.9780
C59 C 0.3311(4) 0.2982(2) -1.0090(3)
H47 H 0.3179 0.2338 -1.0182
C60 C 0.4436(3) 0.3367(2) -1.0043(2)
H48 H 0.5057 0.2979 -1.0106
N7 N 0.6463(2) 0.55489(15) -0.8898(2)
N8 N 0.7223(3) 0.62873(18) -0.8840(2)
N9 N 0.7673(3) 0.68582(18) -0.7963(2)
F3 F 0.4749(2) 0.46688(15) -1.14844(14)
C61 C 0.1205(3) 1.01202(18) -0.6247(2)
C62 C -0.0983(3) 1.0822(2) -0.5890(3)
H49 H -0.0229 1.1208 -0.5687
C63 C -0.0036(3) 0.8715(2) -0.3946(2)
H50 H -0.0291 0.9056 -0.3454
C64 C -0.0126(3) 0.9078(2) -0.4660(2)
H51 H -0.0438 0.9652 -0.4668
C65 C 0.1429(3) 1.0603(2) -0.6810(2)
H52 H 0.0834 1.0511 -0.7425
C66 C 0.0847(3) 0.7331(2) -0.4611(3)
H53 H 0.1176 0.6765 -0.4590
C67 C 0.0274(3) 0.85417(19) -0.5380(2)
C68 C 0.3410(3) 1.1361(2) -0.5561(3)
H54 H 0.4147 1.1775 -0.5332
C69 C 0.2518(3) 1.1216(2) -0.6471(3)
H55 H 0.2653 1.1534 -0.6857
C70 C -0.3105(3) 1.0647(3) -0.5967(2)
H56 H -0.3782 1.0905 -0.5828
C71 C 0.2105(3) 1.0285(2) -0.5337(2)
H57 H 0.1969 0.9979 -0.4942
C72 C -0.1999(3) 1.1211(2) -0.5685(2)
H58 H -0.1923 1.1856 -0.5355
C73 C -0.0458(3) 0.8917(2) -0.7731(2)
H59 H 0.0257 0.8749 -0.7915
H60 H -0.1010 0.8339 -0.7914
C74 C 0.3200(3) 1.0891(2) -0.5000(2)
H61 H 0.3801 1.0981 -0.4386
C75 C 0.0763(3) 0.7689(2) -0.5349(2)
C76 C -0.3212(3) 0.9687(2) -0.6462(2)
H62 H -0.3957 0.9297 -0.6645
C77 C 0.0429(4) 0.7841(2) -0.3924(3)
H63 H 0.0449 0.7612 -0.3434
C78 C 0.0014(3) 0.94193(19) -0.6625(2)
C79 C -0.1088(3) 0.9865(2) -0.6394(2)
C80 C -0.2214(3) 0.9308(2) -0.6684(2)
H64 H -0.2304 0.8667 -0.7035
N10 N 0.0316(2) 0.86457(16) -0.61991(18)
N11 N 0.0824(3) 0.7906(2) -0.6635(2)
N12 N 0.1093(3) 0.7339(2) -0.6132(2)
F4 F -0.11109(18) 0.95218(14) -0.82005(13)
C81 C 0.4531(3) 1.01199(18) -0.9593(2)
C82 C 0.2349(3) 1.0818(2) -0.9223(3)
H65 H 0.3106 1.1202 -0.9018
C83 C 0.3304(3) 0.8708(2) -0.7274(2)
H66 H 0.3045 0.9044 -0.6783
C84 C 0.3206(3) 0.9072(2) -0.7991(2)
H67 H 0.2886 0.9643 -0.7998
C85 C 0.4753(3) 1.0608(2) -1.0146(3)
H68 H 0.4150 1.0524 -1.0757
C86 C 0.4180(3) 0.7335(2) -0.7954(3)
H69 H 0.4497 0.6764 -0.7944
C87 C 0.3608(3) 0.8548(2) -0.8708(2)
C88 C 0.6748(3) 1.1362(2) -0.8900(3)
H70 H 0.7490 1.1769 -0.8672
C89 C 0.5852(3) 1.1219(2) -0.9811(3)
H71 H 0.5987 1.1533 -1.0200
C90 C 0.0229(3) 1.0644(3) -0.9301(2)
H72 H -0.0445 1.0904 -0.9159
C91 C 0.1344(4) 1.1205(2) -0.9019(2)
H73 H 0.1423 1.1850 -0.8689
C92 C 0.5432(3) 1.0285(2) -0.8668(2)
H74 H 0.5292 0.9981 -0.8273
C93 C 0.2869(3) 0.8910(2) -1.1070(2)
H75 H 0.3584 0.8742 -1.1254
H76 H 0.2313 0.8334 -1.1255
C94 C 0.6527(3) 1.0893(2) -0.8333(3)
H77 H 0.7124 1.0988 -0.7718
C95 C 0.4094(3) 0.7701(2) -0.8686(2)
C96 C 0.0116(3) 0.9691(3) -0.9797(3)
H78 H -0.0633 0.9306 -0.9980
C97 C 0.3779(3) 0.7849(2) -0.7252(3)
H79 H 0.3823 0.7624 -0.6754
C98 C 0.3336(3) 0.9415(2) -0.9965(2)
C99 C 0.2237(3) 0.9866(2) -0.9728(2)
C100 C 0.1105(4) 0.9303(2) -1.0023(3)
H80 H 0.1012 0.8662 -1.0374
N13 N 0.3651(2) 0.86490(15) -0.95337(18)
N14 N 0.4164(3) 0.79108(18) -0.9964(2)
N15 N 0.4430(3) 0.73421(19) -0.9466(2)
F5 F 0.22214(19) 0.95255(16) -1.15318(14)
C101 C -0.2135(3) 1.01211(19) -0.2919(3)
C102 C -0.4320(3) 1.0819(2) -0.2567(2)
H81 H -0.3569 1.1203 -0.2376
C103 C -0.3368(3) 0.8711(2) -0.0611(3)
H82 H -0.3622 0.9050 -0.0119
C104 C -0.3465(3) 0.9077(2) -0.1322(2)
H83 H -0.3783 0.9649 -0.1328
C105 C -0.1916(3) 1.0600(2) -0.3484(2)
H84 H -0.2511 1.0507 -0.4100
C106 C -0.2490(3) 0.7334(2) -0.1280(3)
H85 H -0.2163 0.6766 -0.1262
C107 C -0.3059(2) 0.8546(2) -0.2045(2)
C108 C 0.0073(3) 1.1363(2) -0.2234(3)
H86 H 0.0809 1.1778 -0.2007
C109 C -0.0822(3) 1.1217(2) -0.3141(3)
H87 H -0.0690 1.1536 -0.3527
C110 C -0.6437(3) 1.0653(3) -0.2637(2)
H88 H -0.7110 1.0917 -0.2497
C111 C -0.5322(4) 1.1210(2) -0.2355(2)
H89 H -0.5238 1.1854 -0.2020
C112 C -0.1234(3) 1.0280(2) -0.2003(2)
H90 H -0.1370 0.9973 -0.1609
C113 C -0.3803(3) 0.8910(2) -0.4401(2)
H91 H -0.3092 0.8735 -0.4587
H92 H -0.4365 0.8338 -0.4584
C114 C -0.0130(3) 1.0891(2) -0.1667(3)
H93 H 0.0474 1.0982 -0.1055
C115 C -0.2576(3) 0.7693(3) -0.2020(2)
C116 C -0.6556(3) 0.9694(3) -0.3131(2)
H94 H -0.7306 0.9311 -0.3310
C117 C -0.2901(4) 0.7844(3) -0.0586(3)
H95 H -0.2873 0.7617 -0.0092
C118 C -0.3327(3) 0.9416(2) -0.3295(2)
C119 C -0.4428(3) 0.98617(19) -0.3059(2)
C120 C -0.5565(4) 0.9301(2) -0.3359(2)
H96 H -0.5663 0.8661 -0.3713
N16 N -0.3017(2) 0.86456(16) -0.28669(18)
N17 N -0.2508(3) 0.79038(19) -0.3301(2)
N18 N -0.2236(3) 0.73351(19) -0.2800(2)
F6 F -0.44435(19) 0.95256(15) -0.48640(14)
loop_
_geom_bond_atom_site_label_1
_geom_bond_atom_site_label_2
_geom_bond_site_symmetry_1
_geom_bond_site_symmetry_2
C1 H1 1_555 1_555
C2 H2 1_555 1_555
C3 C1 1_555 1_555
C4 H3 1_555 1_555
C5 C4 1_555 1_555
C6 C2 1_555 1_555
H4 C6 1_555 1_555
C7 H5 1_555 1_555
C8 C10 1_555 1_555
C9 H6 1_555 1_555
H7 C9 1_555 1_555
C10 C2 1_555 1_555
C11 C7 1_555 1_555
H8 C11 1_555 1_555
C12 C8 1_555 1_555
H9 C12 1_555 1_555
C13 C3 1_555 1_555
H10 C13 1_555 1_555
C14 H11 1_555 1_555
C15 C1 1_555 1_555
H12 C15 1_555 1_555
C16 C6 1_555 1_555
H13 C16 1_555 1_555
C17 C4 1_555 1_555
H14 C17 1_555 1_555
C18 C14 1_555 1_555
H15 C18 1_555 1_555
C19 C5 1_555 1_555
H16 C19 1_555 1_555
C20 C3 1_555 1_555
N1 N2 1_555 1_555
N2 C8 1_555 1_555
N3 C10 1_555 1_555
F1 C9 1_555 1_555
C21 H17 1_555 1_555
C22 H18 1_555 1_555
C23 C21 1_555 1_555
C24 H19 1_555 1_555
C25 C24 1_555 1_555
C26 C23 1_555 1_555
C27 C22 1_555 1_555
H20 C27 1_555 1_555
C28 H21 1_555 1_555
C29 C31 1_555 1_555
C30 C26 1_555 1_555
H22 C30 1_555 1_555
H23 C30 1_555 1_555
C31 C22 1_555 1_555
C32 C28 1_555 1_555
H24 C32 1_555 1_555
C33 C29 1_555 1_555
H25 C33 1_555 1_555
C34 C23 1_555 1_555
H26 C34 1_555 1_555
C35 H27 1_555 1_555
C36 C21 1_555 1_555
H28 C36 1_555 1_555
C37 C27 1_555 1_555
H29 C37 1_555 1_555
C38 C24 1_555 1_555
H30 C38 1_555 1_555
C39 C35 1_555 1_555
H31 C39 1_555 1_555
C40 C25 1_555 1_555
H32 C40 1_555 1_555
N4 C26 1_555 1_555
N5 N4 1_555 1_555
N6 C29 1_555 1_555
F2 C30 1_555 1_555
C41 H33 1_555 1_555
C42 H34 1_555 1_555
C43 C41 1_555 1_555
C44 H35 1_555 1_555
C45 C44 1_555 1_555
C46 C43 1_555 1_555
C47 C42 1_555 1_555
H36 C47 1_555 1_555
C48 H37 1_555 1_555
C49 C51 1_555 1_555
C50 C46 1_555 1_555
H38 C50 1_555 1_555
H39 C50 1_555 1_555
C51 C42 1_555 1_555
C52 C48 1_555 1_555
H40 C52 1_555 1_555
C53 C49 1_555 1_555
H41 C53 1_555 1_555
C54 C43 1_555 1_555
H42 C54 1_555 1_555
C55 H43 1_555 1_555
C56 C41 1_555 1_555
H44 C56 1_555 1_555
C57 C47 1_555 1_555
H45 C57 1_555 1_555
C58 C44 1_555 1_555
H46 C58 1_555 1_555
C59 C55 1_555 1_555
H47 C59 1_555 1_555
C60 C45 1_555 1_555
H48 C60 1_555 1_555
N7 C46 1_555 1_555
N8 N7 1_555 1_555
N9 C49 1_555 1_555
F3 C50 1_555 1_555
C61 C65 1_555 1_555
C62 H49 1_555 1_555
C63 H50 1_555 1_555
C64 C63 1_555 1_555
H51 C64 1_555 1_555
C65 H52 1_555 1_555
C66 H53 1_555 1_555
C67 C64 1_555 1_555
C68 H54 1_555 1_555
C69 C65 1_555 1_555
H55 C69 1_555 1_555
C70 H56 1_555 1_555
C71 C61 1_555 1_555
H57 C71 1_555 1_555
C72 C62 1_555 1_555
H58 C72 1_555 1_555
C73 H59 1_555 1_555
H60 C73 1_555 1_555
C74 C68 1_555 1_555
H61 C74 1_555 1_555
C75 C66 1_555 1_555
C76 C70 1_555 1_555
H62 C76 1_555 1_555
C77 C63 1_555 1_555
H63 C77 1_555 1_555
C78 C61 1_555 1_555
C79 C62 1_555 1_555
C80 C76 1_555 1_555
H64 C80 1_555 1_555
N10 C67 1_555 1_555
N11 N10 1_555 1_555
N12 C75 1_555 1_555
F4 C73 1_555 1_555
C81 C85 1_555 1_555
C82 H65 1_555 1_555
C83 H66 1_555 1_555
C84 C83 1_555 1_555
H67 C84 1_555 1_555
C85 H68 1_555 1_555
C86 H69 1_555 1_555
C87 C84 1_555 1_555
C88 H70 1_555 1_555
C89 C85 1_555 1_555
H71 C89 1_555 1_555
C90 H72 1_555 1_555
C91 C82 1_555 1_555
H73 C91 1_555 1_555
C92 C81 1_555 1_555
H74 C92 1_555 1_555
C93 H75 1_555 1_555
H76 C93 1_555 1_555
C94 C88 1_555 1_555
H77 C94 1_555 1_555
C95 C86 1_555 1_555
C96 C90 1_555 1_555
H78 C96 1_555 1_555
C97 C83 1_555 1_555
H79 C97 1_555 1_555
C98 C81 1_555 1_555
C99 C82 1_555 1_555
C100 C96 1_555 1_555
H80 C100 1_555 1_555
N13 C87 1_555 1_555
N14 N13 1_555 1_555
N15 C95 1_555 1_555
F5 C93 1_555 1_555
C101 C105 1_555 1_555
C102 H81 1_555 1_555
C103 H82 1_555 1_555
C104 C103 1_555 1_555
H83 C104 1_555 1_555
C105 H84 1_555 1_555
C106 H85 1_555 1_555
C107 C104 1_555 1_555
C108 H86 1_555 1_555
C109 C105 1_555 1_555
H87 C109 1_555 1_555
C110 H88 1_555 1_555
C111 C102 1_555 1_555
H89 C111 1_555 1_555
C112 C101 1_555 1_555
H90 C112 1_555 1_555
C113 H91 1_555 1_555
H92 C113 1_555 1_555
C114 C108 1_555 1_555
H93 C114 1_555 1_555
C115 C106 1_555 1_555
C116 C110 1_555 1_555
H94 C116 1_555 1_555
C117 C103 1_555 1_555
H95 C117 1_555 1_555
C118 C101 1_555 1_555
C119 C102 1_555 1_555
C120 C116 1_555 1_555
H96 C120 1_555 1_555
N16 C107 1_555 1_555
N17 N16 1_555 1_555
N18 C115 1_555 1_555
F6 C113 1_555 1_555
C5 C20 1_555 1_555
C7 C13 1_555 1_555
C9 C20 1_555 1_555
C11 C15 1_555 1_555
C12 C16 1_555 1_555
C14 C17 1_555 1_555
C18 C19 1_555 1_555
C20 N3 1_555 1_555
N1 N3 1_555 1_555
C25 C26 1_555 1_555
C28 C34 1_555 1_555
C31 N4 1_555 1_555
C32 C36 1_555 1_555
C33 C37 1_555 1_555
C35 C38 1_555 1_555
C39 C40 1_555 1_555
N5 N6 1_555 1_555
C45 C46 1_555 1_555
C48 C54 1_555 1_555
C51 N7 1_555 1_555
C52 C56 1_555 1_555
C53 C57 1_555 1_555
C55 C58 1_555 1_555
C59 C60 1_555 1_555
N8 N9 1_555 1_555
C66 C77 1_555 1_555
C67 C75 1_555 1_555
C68 C69 1_555 1_555
C70 C72 1_555 1_555
C71 C74 1_555 1_555
C73 C78 1_555 1_555
C78 C79 1_555 1_555
C78 N10 1_555 1_555
C79 C80 1_555 1_555
N11 N12 1_555 1_555
C86 C97 1_555 1_555
C87 C95 1_555 1_555
C88 C89 1_555 1_555
C90 C91 1_555 1_555
C92 C94 1_555 1_555
C93 C98 1_555 1_555
C98 C99 1_555 1_555
C98 N13 1_555 1_555
C99 C100 1_555 1_555
N14 N15 1_555 1_555
C106 C117 1_555 1_555
C107 C115 1_555 1_555
C108 C109 1_555 1_555
C110 C111 1_555 1_555
C112 C114 1_555 1_555
C113 C118 1_555 1_555
C118 C119 1_555 1_555
C118 N16 1_555 1_555
C119 C120 1_555 1_555
N17 N18 1_555 1_555

#END
