
#######################################################################
#
#                 Cambridge Crystallographic Data Centre
#                                CCDC 
#
#######################################################################
#
# If this CIF has been generated from an entry in the Cambridge 
# Structural Database, then it will include bibliographic, chemical, 
# crystal, experimental, refinement or atomic coordinate data resulting 
# from the CCDC's data processing and validation procedures.
#
#######################################################################

data_TEGBOZ
_chemical_formula_moiety         'C15 H12 F1 N3'
_chemical_name_systematic        
1-(2-fluoro-2,3-dihydro-1H-inden-1-yl)-1H-benzotriazole
_symmetry_cell_setting           triclinic
_symmetry_space_group_name_H-M   'P -1'
_symmetry_Int_Tables_number      2
_space_group_name_Hall           '-P 1'
loop_
_symmetry_equiv_pos_site_id
_symmetry_equiv_pos_as_xyz
1 x,y,z
2 -x,-y,-z
_cell_length_a                   7.898
_cell_length_b                   12.529
_cell_length_c                   12.870
_cell_angle_alpha                76.04
_cell_angle_beta                 89.99
_cell_angle_gamma                89.89
_cell_volume                     1235.92
_cell_formula_units_Z            4
loop_
_atom_site_label
_atom_site_type_symbol
_atom_site_fract_x
_atom_site_fract_y
_atom_site_fract_z
C1 C 0.6183(3) 0.11781(17) 0.19452(17)
C2 C 0.5969(3) 0.06587(19) 0.30167(18)
C3 C 0.5137(3) 0.33373(16) 0.01854(17)
C4 C 0.5852(3) 0.38809(16) -0.07853(17)
C5 C 0.6066(4) -0.0519(2) 0.1483(2)
H1 H 0.6105 -0.0939 0.0978
C6 C 0.6249(3) 0.05972(19) 0.1142(2)
H2 H 0.6407 0.0947 0.0425
C7 C 0.6441(3) 0.32426(16) 0.10626(17)
H3 H 0.6333 0.3890 0.1360
C8 C 0.8086(3) 0.33484(18) 0.04237(18)
H4 H 0.8368 0.2636 0.0280
C9 C 0.4907(3) 0.40687(19) -0.1714(2)
H5 H 0.5372 0.4440 -0.2364
C10 C 0.7678(3) 0.41643(17) -0.06253(18)
H6 H 0.8391 0.4051 -0.1203
H7 H 0.7793 0.4917 -0.0564
C11 C 0.3244(3) 0.3692(2) -0.1659(2)
H8 H 0.2599 0.3807 -0.2281
C12 C 0.2539(3) 0.3150(2) -0.0695(2)
H9 H 0.1427 0.2905 -0.0674
C13 C 0.5783(3) -0.0489(2) 0.3342(2)
H10 H 0.5638 -0.0846 0.4058
C14 C 0.5824(4) -0.1055(2) 0.2560(3)
H11 H 0.5689 -0.1815 0.2747
C15 C 0.3480(3) 0.2968(2) 0.0247(2)
H12 H 0.3008 0.2608 0.0899
N1 N 0.5956(3) 0.14377(19) 0.36085(17)
N2 N 0.6142(3) 0.24005(18) 0.29537(16)
N3 N 0.6286(2) 0.22695(14) 0.19367(14)
F1 F 0.94276(18) 0.36912(13) 0.09669(13)
C16 C 0.9031(3) 0.06597(19) -0.19826(18)
C17 C 0.8819(2) 0.11790(17) -0.30564(17)
C18 C 0.8933(4) -0.0521(2) -0.3518(2)
H13 H 0.8889 -0.0942 -0.4022
C19 C 0.9182(4) -0.1055(2) -0.2443(3)
H14 H 0.9324 -0.1814 -0.2257
C20 C 0.8568(3) 0.32433(16) -0.39392(17)
H15 H 0.8670 0.3891 -0.3643
C21 C 0.6913(3) 0.33477(18) -0.45796(18)
H16 H 0.6636 0.2635 -0.4724
C22 C 0.7326(3) 0.41649(17) -0.56264(18)
H17 H 0.6616 0.4054 -0.6206
H18 H 0.7208 0.4917 -0.5564
C23 C 0.9868(3) 0.33404(16) -0.48181(17)
C24 C 1.1522(3) 0.2971(2) -0.4758(2)
H19 H 1.1994 0.2611 -0.4105
C25 C 0.8749(3) 0.05980(19) -0.3860(2)
H20 H 0.8590 0.0948 -0.4577
C26 C 0.9223(3) -0.0488(2) -0.1657(2)
H21 H 0.9370 -0.0846 -0.0940
C27 C 1.1757(3) 0.3693(2) -0.6658(2)
H22 H 1.2404 0.3809 -0.7279
C28 C 1.2463(3) 0.3151(2) -0.5695(2)
H23 H 1.3577 0.2904 -0.5673
C29 C 0.9147(3) 0.38826(16) -0.57853(18)
C30 C 1.0094(3) 0.40681(19) -0.6717(2)
H24 H 0.9627 0.4436 -0.7369
N4 N 0.8712(2) 0.22709(14) -0.30613(14)
N5 N 0.8859(3) 0.23978(18) -0.20491(16)
N6 N 0.9043(3) 0.14381(19) -0.13932(16)
F2 F 0.55724(18) 0.36899(14) -0.40341(13)
loop_
_geom_bond_atom_site_label_1
_geom_bond_atom_site_label_2
_geom_bond_site_symmetry_1
_geom_bond_site_symmetry_2
C1 C2 1_555 1_555
C2 C13 1_555 1_555
C3 C4 1_555 1_555
C4 C9 1_555 1_555
C5 H1 1_555 1_555
C6 C1 1_555 1_555
H2 C6 1_555 1_555
C7 C3 1_555 1_555
H3 C7 1_555 1_555
C8 C7 1_555 1_555
H4 C8 1_555 1_555
C9 H5 1_555 1_555
C10 C4 1_555 1_555
H6 C10 1_555 1_555
H7 C10 1_555 1_555
C11 C9 1_555 1_555
H8 C11 1_555 1_555
C12 C11 1_555 1_555
H9 C12 1_555 1_555
C13 H10 1_555 1_555
C14 C5 1_555 1_555
H11 C14 1_555 1_555
C15 C3 1_555 1_555
H12 C15 1_555 1_555
N1 C2 1_555 1_555
N2 N1 1_555 1_555
N3 C1 1_555 1_555
F1 C8 1_555 1_555
C16 C17 1_555 1_555
C17 C25 1_555 1_555
C18 H13 1_555 1_555
C19 C18 1_555 1_555
H14 C19 1_555 1_555
C20 H15 1_555 1_555
C21 C20 1_555 1_555
H16 C21 1_555 1_555
C22 C21 1_555 1_555
H17 C22 1_555 1_555
H18 C22 1_555 1_555
C23 C20 1_555 1_555
C24 C23 1_555 1_555
H19 C24 1_555 1_555
C25 C18 1_555 1_555
H20 C25 1_555 1_555
C26 C16 1_555 1_555
H21 C26 1_555 1_555
C27 H22 1_555 1_555
C28 C24 1_555 1_555
H23 C28 1_555 1_555
C29 C22 1_555 1_555
C30 C27 1_555 1_555
H24 C30 1_555 1_555
N4 C17 1_555 1_555
N5 N4 1_555 1_555
N6 C16 1_555 1_555
F2 C21 1_555 1_555
C5 C6 1_555 1_555
C7 N3 1_555 1_555
C8 C10 1_555 1_555
C12 C15 1_555 1_555
C13 C14 1_555 1_555
N2 N3 1_555 1_555
C19 C26 1_555 1_555
C20 N4 1_555 1_555
C23 C29 1_555 1_555
C27 C28 1_555 1_555
C29 C30 1_555 1_555
N5 N6 1_555 1_555

#END
