
#######################################################################
#
#                 Cambridge Crystallographic Data Centre
#                                CCDC 
#
#######################################################################
#
# If this CIF has been generated from an entry in the Cambridge 
# Structural Database, then it will include bibliographic, chemical, 
# crystal, experimental, refinement or atomic coordinate data resulting 
# from the CCDC's data processing and validation procedures.
#
#######################################################################

data_TEGCAL
_chemical_formula_moiety         'C14 H14 F1 N1 O3 S2'
_chemical_name_systematic        
(R)-N-tosyl-S-monofluoromethyl-S-phenylsulfoximine
_symmetry_cell_setting           monoclinic
_symmetry_space_group_name_H-M   'P 21'
_symmetry_Int_Tables_number      4
_space_group_name_Hall           'P 2yb'
loop_
_symmetry_equiv_pos_site_id
_symmetry_equiv_pos_as_xyz
1 x,y,z
2 -x,1/2+y,-z
_cell_length_a                   9.6944(8)
_cell_length_b                   8.2162(7)
_cell_length_c                   9.8484(8)
_cell_angle_alpha                90
_cell_angle_beta                 109.825(2)
_cell_angle_gamma                90
_cell_volume                     737.945
_exptl_crystal_colour            colorless
_exptl_crystal_description       prismatic
_cell_formula_units_Z            2
loop_
_atom_site_label
_atom_site_type_symbol
_atom_site_fract_x
_atom_site_fract_y
_atom_site_fract_z
S1 S 0.72791(4) 0.27624(5) 0.67214(4)
S2 S 0.69276(5) 0.30138(6) 0.38178(5)
F1 F 0.65165(17) 0.2636(3) 0.89551(14)
N1 N 0.62941(16) 0.2635(2) 0.51183(16)
O1 O 0.84445(17) 0.16250(18) 0.73482(17)
O2 O 0.83555(17) 0.3731(2) 0.43648(17)
O3 O 0.57980(18) 0.3888(2) 0.27528(16)
C1 C 0.5870(2) 0.2514(3) 0.7501(2)
H1 H 0.5128 0.3351 0.7148
H2 H 0.5405 0.1459 0.7247
C2 C 0.79547(19) 0.4745(2) 0.72193(18)
C3 C 0.7085(2) 0.6071(3) 0.6624(2)
H3 H 0.6150 0.5932 0.5954
C4 C 0.7638(3) 0.7599(3) 0.7045(3)
H4 H 0.7065 0.8510 0.6670
C5 C 0.9028(3) 0.7793(3) 0.8013(3)
H5 H 0.9398 0.8836 0.8269
C6 C 0.9875(2) 0.6475(3) 0.8608(2)
H6 H 1.0810 0.6627 0.9276
C7 C 0.9351(2) 0.4909(3) 0.8220(2)
H7 H 0.9919 0.4002 0.8618
C8 C 0.7075(2) 0.1078(2) 0.30936(19)
C9 C 0.8004(2) -0.0094(3) 0.3944(2)
H8 H 0.8519 0.0110 0.4913
C10 C 0.8153(2) -0.1563(3) 0.3335(2)
H9 H 0.8755 -0.2360 0.3909
C11 C 0.7423(2) -0.1878(3) 0.1881(2)
C12 C 0.6521(2) -0.0674(3) 0.1053(2)
H10 H 0.6034 -0.0858 0.0075
C13 C 0.6331(2) 0.0793(3) 0.1651(2)
H11 H 0.5707 0.1580 0.1087
C14 C 0.7629(3) -0.3470(3) 0.1221(3)
H12 H 0.6898 -0.4231 0.1277
H13 H 0.8586 -0.3894 0.1737
H14 H 0.7533 -0.3301 0.0228
loop_
_geom_bond_atom_site_label_1
_geom_bond_atom_site_label_2
_geom_bond_site_symmetry_1
_geom_bond_site_symmetry_2
S1 N1 1_555 1_555
S2 N1 1_555 1_555
F1 C1 1_555 1_555
O1 S1 1_555 1_555
O2 S2 1_555 1_555
O3 S2 1_555 1_555
C1 S1 1_555 1_555
H1 C1 1_555 1_555
H2 C1 1_555 1_555
C2 S1 1_555 1_555
C3 C2 1_555 1_555
H3 C3 1_555 1_555
C4 C3 1_555 1_555
H4 C4 1_555 1_555
C5 C4 1_555 1_555
H5 C5 1_555 1_555
C6 C5 1_555 1_555
H6 C6 1_555 1_555
C7 C2 1_555 1_555
H7 C7 1_555 1_555
C8 S2 1_555 1_555
C9 C8 1_555 1_555
H8 C9 1_555 1_555
C10 C9 1_555 1_555
H9 C10 1_555 1_555
C11 C10 1_555 1_555
C12 C11 1_555 1_555
H10 C12 1_555 1_555
C13 C8 1_555 1_555
H11 C13 1_555 1_555
C14 C11 1_555 1_555
H12 C14 1_555 1_555
H13 C14 1_555 1_555
H14 C14 1_555 1_555
C6 C7 1_555 1_555
C12 C13 1_555 1_555

#END
