
#######################################################################
#
#                 Cambridge Crystallographic Data Centre
#                                CCDC 
#
#######################################################################
#
# If this CIF has been generated from an entry in the Cambridge 
# Structural Database, then it will include bibliographic, chemical, 
# crystal, experimental, refinement or atomic coordinate data resulting 
# from the CCDC's data processing and validation procedures.
#
#######################################################################

data_TEGCAM
_chemical_formula_moiety         'C21 H15 N3 O1'
_chemical_name_systematic        
'5-benzylindazolo[2,3-c]quinazolin-6(5H)-one unknown solvate'
_symmetry_cell_setting           monoclinic
_symmetry_space_group_name_H-M   'I 2/a'
_symmetry_Int_Tables_number      15
_space_group_name_Hall           '-I 2ya'
loop_
_symmetry_equiv_pos_site_id
_symmetry_equiv_pos_as_xyz
1 x,y,z
2 1/2-x,y,-z
3 1/2+x,1/2+y,1/2+z
4 -x,1/2+y,1/2-z
5 -x,-y,-z
6 1/2+x,-y,z
7 1/2-x,1/2-y,1/2-z
8 x,1/2-y,1/2+z
_cell_length_a                   13.8956(11)
_cell_length_b                   15.1725(10)
_cell_length_c                   18.2472(9)
_cell_angle_alpha                90
_cell_angle_beta                 102.099(7)
_cell_angle_gamma                90
_cell_volume                     3761.62
_exptl_crystal_colour            colorless
_exptl_crystal_description       block
_cell_formula_units_Z            8
loop_
_atom_site_label
_atom_site_type_symbol
_atom_site_fract_x
_atom_site_fract_y
_atom_site_fract_z
O1 O 0.7554(2) 0.00723(19) 0.26462(12)
N1 N 0.7853(2) -0.1555(2) 0.32546(13)
N2 N 0.80570(19) -0.08027(19) 0.36638(13)
N3 N 0.81432(19) 0.07212(19) 0.37803(14)
C1 C 0.8553(2) 0.0648(2) 0.45560(17)
C2 C 0.8830(3) 0.1401(3) 0.49840(19)
H1 H 0.8777 0.1955 0.4761
C3 C 0.9194(2) 0.1309(3) 0.57628(19)
H2 H 0.9367 0.1806 0.6059
C4 C 0.9293(2) 0.0483(3) 0.60854(19)
H3 H 0.9535 0.0428 0.6599
C5 C 0.9043(2) -0.0250(2) 0.56626(16)
H4 H 0.9111 -0.0801 0.5891
C6 C 0.8685(2) -0.0190(2) 0.48922(15)
C7 C 0.8430(2) -0.0954(2) 0.44229(15)
C8 C 0.8484(2) -0.1857(2) 0.45066(16)
C9 C 0.8816(3) -0.2445(3) 0.50985(18)
H5 H 0.9063 -0.2237 0.5581
C10 C 0.8773(4) -0.3329(3) 0.4956(2)
H6 H 0.8987 -0.3724 0.5346
C11 C 0.8402(3) -0.3657(3) 0.4211(2)
H7 H 0.8384 -0.4262 0.4129
C12 C 0.8079(3) -0.3114(2) 0.3632(2)
H8 H 0.7837 -0.3335 0.3153
C13 C 0.8120(2) -0.2194(3) 0.37706(17)
C14 C 0.7887(3) 0.0018(3) 0.33171(17)
C15 C 0.7908(3) 0.1591(3) 0.3437(2)
H9 H 0.7635 0.1954 0.3781
H10 H 0.7402 0.1519 0.2986
C16 C 0.8766(3) 0.2075(3) 0.32353(17)
C17 C 0.9455(3) 0.1643(3) 0.2930(2)
H11 H 0.9416 0.1036 0.2861
C18 C 1.0232(4) 0.2128(6) 0.2720(3)
H12 H 1.0702 0.1839 0.2513
C19 C 1.0283(5) 0.3019(6) 0.2824(3)
H13 H 1.0792 0.3336 0.2691
C20 C 0.9595(5) 0.3443(4) 0.3121(3)
H14 H 0.9626 0.4052 0.3180
C21 C 0.8845(3) 0.2971(3) 0.3335(2)
H15 H 0.8387 0.3267 0.3550
loop_
_geom_bond_atom_site_label_1
_geom_bond_atom_site_label_2
_geom_bond_site_symmetry_1
_geom_bond_site_symmetry_2
O1 C14 1_555 1_555
N1 N2 1_555 1_555
N2 C7 1_555 1_555
N3 C1 1_555 1_555
C1 C2 1_555 1_555
C2 H1 1_555 1_555
C3 C2 1_555 1_555
H2 C3 1_555 1_555
C4 C3 1_555 1_555
H3 C4 1_555 1_555
C5 C4 1_555 1_555
H4 C5 1_555 1_555
C6 C1 1_555 1_555
C7 C6 1_555 1_555
C8 C7 1_555 1_555
C9 C8 1_555 1_555
H5 C9 1_555 1_555
C10 C9 1_555 1_555
H6 C10 1_555 1_555
C11 C10 1_555 1_555
H7 C11 1_555 1_555
C12 C11 1_555 1_555
H8 C12 1_555 1_555
C13 N1 1_555 1_555
C14 N2 1_555 1_555
C15 N3 1_555 1_555
H9 C15 1_555 1_555
H10 C15 1_555 1_555
C16 C15 1_555 1_555
C17 C16 1_555 1_555
H11 C17 1_555 1_555
C18 C17 1_555 1_555
H12 C18 1_555 1_555
C19 C18 1_555 1_555
H13 C19 1_555 1_555
C20 C19 1_555 1_555
H14 C20 1_555 1_555
C21 C16 1_555 1_555
H15 C21 1_555 1_555
N3 C14 1_555 1_555
C5 C6 1_555 1_555
C8 C13 1_555 1_555
C12 C13 1_555 1_555
C20 C21 1_555 1_555

#END
