
#######################################################################
#
#                 Cambridge Crystallographic Data Centre
#                                CCDC 
#
#######################################################################
#
# If this CIF has been generated from an entry in the Cambridge 
# Structural Database, then it will include bibliographic, chemical, 
# crystal, experimental, refinement or atomic coordinate data resulting 
# from the CCDC's data processing and validation procedures.
#
#######################################################################

data_TEGDER
_chemical_formula_moiety         'C24 H23 F3 N2 O2 S1'
_chemical_name_systematic        
4-methyl-N-[1,1,1-trifluoro-5-phenyl-3-(phenylamino)pent-4-en-2-yl]benzene-1-sulfonamide
_symmetry_cell_setting           triclinic
_symmetry_space_group_name_H-M   'P -1'
_symmetry_Int_Tables_number      2
_space_group_name_Hall           '-P 1'
loop_
_symmetry_equiv_pos_site_id
_symmetry_equiv_pos_as_xyz
1 x,y,z
2 -x,-y,-z
_cell_length_a                   11.873(2)
_cell_length_b                   13.795(3)
_cell_length_c                   14.934(3)
_cell_angle_alpha                74.128(4)
_cell_angle_beta                 74.345(4)
_cell_angle_gamma                88.890(4)
_cell_volume                     2261.56
_exptl_crystal_colour            colorless
_exptl_crystal_description       prismatic
_cell_formula_units_Z            4
loop_
_atom_site_label
_atom_site_type_symbol
_atom_site_fract_x
_atom_site_fract_y
_atom_site_fract_z
S1 S 0.84186(8) 0.10331(8) 0.50302(7)
F1 F 1.1539(3) 0.2523(2) 0.4196(3)
F2 F 1.0985(3) 0.3992(2) 0.3748(2)
F3 F 1.0139(3) 0.3023(2) 0.5126(2)
N1 N 0.9532(3) 0.1582(2) 0.4166(2)
N2 N 1.1177(3) 0.2549(2) 0.2291(2)
O1 O 0.8654(2) -0.0005(2) 0.5318(2)
O2 O 0.8168(3) 0.1599(2) 0.57274(19)
C1 C 0.9745(3) 0.2660(3) 0.3786(3)
H1 H 0.9000 0.2959 0.4002
C2 C 1.0609(4) 0.3049(3) 0.4201(4)
C3 C 1.0104(3) 0.3002(3) 0.2666(3)
H2 H 1.0275 0.3735 0.2465
C4 C 0.9100(3) 0.2808(3) 0.2291(3)
H3 H 0.8378 0.3021 0.2575
C5 C 0.9130(3) 0.2376(3) 0.1615(3)
H4 H 0.9851 0.2178 0.1310
C6 C 0.8115(3) 0.2174(3) 0.1292(3)
C7 C 0.8031(4) 0.1297(3) 0.1035(3)
H5 H 0.8659 0.0882 0.0991
C8 C 0.7031(5) 0.1029(3) 0.0841(3)
H6 H 0.6968 0.0418 0.0703
C9 C 0.6127(4) 0.1662(4) 0.0852(3)
H7 H 0.5457 0.1487 0.0708
C10 C 0.6207(4) 0.2548(4) 0.1074(3)
H8 H 0.5595 0.2980 0.1077
C11 C 0.7191(4) 0.2802(3) 0.1294(3)
H9 H 0.7239 0.3407 0.1447
C12 C 1.2046(3) 0.3082(3) 0.1482(3)
C13 C 1.2712(3) 0.2578(3) 0.0857(3)
H10 H 1.2555 0.1891 0.0966
C14 C 1.3603(4) 0.3086(4) 0.0077(3)
H11 H 1.4049 0.2740 -0.0335
C15 C 1.3840(4) 0.4092(4) -0.0098(3)
H12 H 1.4447 0.4429 -0.0626
C16 C 1.3192(4) 0.4597(4) 0.0498(4)
H13 H 1.3348 0.5286 0.0372
C17 C 1.2306(3) 0.4105(3) 0.1285(3)
H14 H 1.1874 0.4463 0.1693
C18 C 0.7213(3) 0.1149(3) 0.4543(3)
C19 C 0.7213(3) 0.0737(3) 0.3805(3)
H15 H 0.7879 0.0446 0.3523
C20 C 0.6239(4) 0.0755(3) 0.3483(3)
H16 H 0.6253 0.0464 0.2987
C21 C 0.5242(4) 0.1187(3) 0.3865(3)
C22 C 0.5250(4) 0.1584(4) 0.4609(4)
H17 H 0.4580 0.1871 0.4889
C23 C 0.6216(4) 0.1575(3) 0.4959(3)
H18 H 0.6196 0.1850 0.5466
C24 C 0.4180(4) 0.1241(5) 0.3494(4)
H19 H 0.3487 0.1086 0.4031
H20 H 0.4219 0.0763 0.3126
H21 H 0.4154 0.1910 0.3088
H22 H 0.995(3) 0.124(2) 0.404(2)
H23 H 1.110(3) 0.195(3) 0.229(3)
S2 S 0.92645(8) 0.03324(7) 0.80377(7)
F4 F 0.5997(2) 0.0886(2) 0.75932(19)
F5 F 0.6219(2) -0.01375(19) 0.8891(2)
F6 F 0.5274(2) 0.1178(2) 0.8955(2)
N3 N 0.8281(3) 0.1057(2) 0.7689(2)
N4 N 0.7121(3) 0.2939(2) 0.7113(3)
O3 O 0.9538(2) -0.03032(19) 0.7408(2)
O4 O 0.8852(2) -0.0102(2) 0.9057(2)
C25 C 0.7330(3) 0.1393(3) 0.8348(3)
H24 H 0.7476 0.1185 0.8986
C26 C 0.6205(3) 0.0837(3) 0.8431(3)
C27 C 0.7270(3) 0.2546(3) 0.8074(2)
H25 H 0.6561 0.2690 0.8523
C28 C 0.8284(4) 0.3007(3) 0.8263(3)
H26 H 0.8298 0.2853 0.8906
C29 C 0.9129(4) 0.3586(3) 0.7645(3)
H27 H 0.9093 0.3762 0.7007
C30 C 1.0149(4) 0.4010(3) 0.7812(4)
C31 C 1.0247(5) 0.3964(3) 0.8722(4)
H28 H 0.9623 0.3687 0.9262
C32 C 1.1267(5) 0.4328(4) 0.8848(5)
H29 H 1.1332 0.4279 0.9466
C33 C 1.2165(5) 0.4756(4) 0.8053(6)
H30 H 1.2851 0.4999 0.8125
C34 C 1.2061(5) 0.4828(4) 0.7163(5)
H31 H 1.2672 0.5130 0.6621
C35 C 1.1070(4) 0.4463(3) 0.7049(4)
H32 H 1.1020 0.4525 0.6425
C36 C 0.6703(3) 0.3875(3) 0.6791(3)
C37 C 0.6682(5) 0.4229(4) 0.5839(4)
H33 H 0.6988 0.3850 0.5411
C38 C 0.6222(7) 0.5121(5) 0.5517(5)
H34 H 0.6219 0.5342 0.4871
C39 C 0.5765(6) 0.5704(5) 0.6119(6)
H35 H 0.5450 0.6315 0.5890
C40 C 0.5780(5) 0.5368(4) 0.7062(5)
H36 H 0.5467 0.5753 0.7484
C41 C 0.6254(4) 0.4465(3) 0.7401(4)
H37 H 0.6272 0.4253 0.8044
C42 C 1.0544(3) 0.1087(3) 0.7801(3)
C43 C 1.0918(4) 0.1256(3) 0.8542(3)
H38 H 1.0465 0.1012 0.9180
C44 C 1.1968(4) 0.1788(3) 0.8334(4)
H39 H 1.2220 0.1902 0.8837
C45 C 1.2651(4) 0.2154(3) 0.7400(4)
C46 C 1.2238(4) 0.2011(4) 0.6672(4)
H40 H 1.2673 0.2284 0.6033
C47 C 1.1200(3) 0.1477(3) 0.6862(3)
H41 H 1.0942 0.1379 0.6357
C48 C 1.3825(4) 0.2705(4) 0.7162(5)
H42 H 1.3930 0.2835 0.7735
H43 H 1.3857 0.3333 0.6676
H44 H 1.4435 0.2298 0.6924
H45 H 0.753(3) 0.264(3) 0.672(3)
H46 H 0.828(3) 0.114(3) 0.707(3)
loop_
_geom_bond_atom_site_label_1
_geom_bond_atom_site_label_2
_geom_bond_site_symmetry_1
_geom_bond_site_symmetry_2
S1 N1 1_555 1_555
F1 C2 1_555 1_555
F2 C2 1_555 1_555
F3 C2 1_555 1_555
N1 C1 1_555 1_555
N2 C3 1_555 1_555
O1 S1 1_555 1_555
O2 S1 1_555 1_555
C1 H1 1_555 1_555
C2 C1 1_555 1_555
C3 C1 1_555 1_555
H2 C3 1_555 1_555
C4 C3 1_555 1_555
H3 C4 1_555 1_555
C5 C4 1_555 1_555
H4 C5 1_555 1_555
C6 C5 1_555 1_555
C7 C6 1_555 1_555
H5 C7 1_555 1_555
C8 C7 1_555 1_555
H6 C8 1_555 1_555
C9 C8 1_555 1_555
H7 C9 1_555 1_555
C10 C9 1_555 1_555
H8 C10 1_555 1_555
C11 C6 1_555 1_555
H9 C11 1_555 1_555
C12 N2 1_555 1_555
C13 C12 1_555 1_555
H10 C13 1_555 1_555
C14 C13 1_555 1_555
H11 C14 1_555 1_555
C15 C14 1_555 1_555
H12 C15 1_555 1_555
C16 C15 1_555 1_555
H13 C16 1_555 1_555
C17 C12 1_555 1_555
H14 C17 1_555 1_555
C18 S1 1_555 1_555
C19 C18 1_555 1_555
H15 C19 1_555 1_555
C20 C19 1_555 1_555
H16 C20 1_555 1_555
C21 C20 1_555 1_555
C22 C21 1_555 1_555
H17 C22 1_555 1_555
C23 C18 1_555 1_555
H18 C23 1_555 1_555
C24 C21 1_555 1_555
H19 C24 1_555 1_555
H20 C24 1_555 1_555
H21 C24 1_555 1_555
H22 N1 1_555 1_555
H23 N2 1_555 1_555
S2 N3 1_555 1_555
F4 C26 1_555 1_555
F5 C26 1_555 1_555
F6 C26 1_555 1_555
N3 C25 1_555 1_555
N4 C27 1_555 1_555
O3 S2 1_555 1_555
O4 S2 1_555 1_555
C25 H24 1_555 1_555
C26 C25 1_555 1_555
C27 C25 1_555 1_555
H25 C27 1_555 1_555
C28 C27 1_555 1_555
H26 C28 1_555 1_555
C29 C28 1_555 1_555
H27 C29 1_555 1_555
C30 C29 1_555 1_555
C31 C30 1_555 1_555
H28 C31 1_555 1_555
C32 C31 1_555 1_555
H29 C32 1_555 1_555
C33 C32 1_555 1_555
H30 C33 1_555 1_555
C34 C33 1_555 1_555
H31 C34 1_555 1_555
C35 C30 1_555 1_555
H32 C35 1_555 1_555
C36 N4 1_555 1_555
C37 C36 1_555 1_555
H33 C37 1_555 1_555
C38 C37 1_555 1_555
H34 C38 1_555 1_555
C39 C38 1_555 1_555
H35 C39 1_555 1_555
C40 C39 1_555 1_555
H36 C40 1_555 1_555
C41 C36 1_555 1_555
H37 C41 1_555 1_555
C42 S2 1_555 1_555
C43 C42 1_555 1_555
H38 C43 1_555 1_555
C44 C43 1_555 1_555
H39 C44 1_555 1_555
C45 C44 1_555 1_555
C46 C45 1_555 1_555
H40 C46 1_555 1_555
C47 C42 1_555 1_555
H41 C47 1_555 1_555
C48 C45 1_555 1_555
H42 C48 1_555 1_555
H43 C48 1_555 1_555
H44 C48 1_555 1_555
H45 N4 1_555 1_555
H46 N3 1_555 1_555
C10 C11 1_555 1_555
C16 C17 1_555 1_555
C22 C23 1_555 1_555
C34 C35 1_555 1_555
C40 C41 1_555 1_555
C46 C47 1_555 1_555

#END
