
#######################################################################
#
#                 Cambridge Crystallographic Data Centre
#                                CCDC 
#
#######################################################################
#
# If this CIF has been generated from an entry in the Cambridge 
# Structural Database, then it will include bibliographic, chemical, 
# crystal, experimental, refinement or atomic coordinate data resulting 
# from the CCDC's data processing and validation procedures.
#
#######################################################################

data_TEGFOC
_chemical_formula_moiety         'C20 H13 F3 N4 O2 S1,C6 H8 O2'
_chemical_name_systematic        
'N-(4-((6-(4-(Trifluoromethyl)phenyl)pyrimidin-4-yl)oxy)-1,3-benzothiazol-2-yl)acetamide sorbic acid'
_symmetry_cell_setting           triclinic
_symmetry_space_group_name_H-M   'P -1'
_symmetry_Int_Tables_number      2
_space_group_name_Hall           '-P 1'
loop_
_symmetry_equiv_pos_site_id
_symmetry_equiv_pos_as_xyz
1 x,y,z
2 -x,-y,-z
_cell_length_a                   4.7197
_cell_length_b                   8.8119
_cell_length_c                   29.6402
_cell_angle_alpha                89.69
_cell_angle_beta                 85.57
_cell_angle_gamma                81.90
_cell_volume                     1216.76
_exptl_crystal_colour            colorless
_exptl_crystal_description       block
_cell_formula_units_Z            2
loop_
_atom_site_label
_atom_site_type_symbol
_atom_site_fract_x
_atom_site_fract_y
_atom_site_fract_z
S1 S 1.23695(10) 0.53339(5) 0.045380(10)
F1 F -0.2621(4) 0.6649(2) 0.46600(4)
F2 F 0.1037(3) 0.7343(2) 0.49121(4)
F3 F -0.2566(3) 0.8974(2) 0.47967(3)
O1 O 0.4936(2) 0.69101(13) 0.17038(3)
O2 O 1.6889(3) 0.3010(1) 0.04760(4)
N1 N 0.5830(4) 0.9627(2) 0.27712(4)
N2 N 0.6935(4) 0.8926(2) 0.19893(5)
N3 N 1.0155(3) 0.5236(2) 0.12877(4)
N4 N 1.4278(3) 0.3483(2) 0.11463(4)
C1 C -0.0933(6) 0.7745(3) 0.46281(6)
C2 C 0.0296(5) 0.7945(3) 0.41550(6)
C3 C -0.0356(4) 0.7046(2) 0.38039(6)
C4 C 0.0889(5) 0.7268(3) 0.33704(5)
C5 C 0.2732(5) 0.8333(3) 0.32815(5)
C6 C 0.3293(4) 0.9251(2) 0.36375(6)
C7 C 0.2061(5) 0.9043(3) 0.40717(6)
C8 C 0.4143(5) 0.8508(3) 0.28216(5)
C9 C 0.3807(4) 0.7568(2) 0.24635(5)
C10 C 0.5279(5) 0.7856(3) 0.20517(6)
C11 C 0.7086(4) 0.9760(2) 0.23601(6)
C12 C 0.5981(4) 0.7272(2) 0.12637(5)
C13 C 0.4487(4) 0.8388(2) 0.10162(5)
C14 C 0.5436(4) 0.8649(2) 0.05706(5)
C15 C 0.7840(4) 0.7769(2) 0.03635(5)
C16 C 0.9324(4) 0.6625(2) 0.06174(5)
C17 C 0.8440(4) 0.6387(2) 0.10721(5)
C18 C 1.2249(4) 0.4622(2) 0.10024(5)
C19 C 1.6548(4) 0.2734(2) 0.08814(6)
C20 C 1.8481(4) 0.1562(2) 0.11167(5)
H1 H -0.1608 0.6299 0.3858
H2 H 0.0442 0.6666 0.3128
H3 H 0.4508 1.0016 0.3584
H4 H 0.2450 0.9669 0.4313
H5 H 0.2642 0.6773 0.2495
H6 H 0.8252 1.0554 0.2324
H7 H 0.2795 0.8982 0.1149
H8 H 0.4420 0.9448 0.0405
H9 H 0.8461 0.7938 0.0057
H10 H 1.4231 0.3263 0.1457
H11 H 1.9272 0.2041 0.1359
H12 H 1.7373 0.0800 0.1238
H13 H 1.9992 0.1112 0.0908
O3 O 1.3057(3) 0.2724(2) 0.20486(4)
O4 O 0.9512(3) 0.46717(13) 0.21778(3)
C21 C 1.1169(4) 0.3439(2) 0.23028(5)
C22 C 1.0607(4) 0.2967(2) 0.27737(5)
C23 C 0.8337(4) 0.3518(2) 0.30372(5)
C24 C 0.7649(4) 0.3012(2) 0.34957(5)
C25 C 0.5373(4) 0.3598(2) 0.37566(5)
C26 C 0.4577(5) 0.3126(3) 0.42314(6)
H14 H 0.9445 0.4706 0.1786
H15 H 1.1977 0.2211 0.2895
H16 H 0.7035 0.4315 0.2919
H17 H 0.8924 0.2204 0.3615
H18 H 0.4110 0.4398 0.3632
H19 H 0.4463 0.3995 0.4429
H20 H 0.5996 0.2334 0.4322
H21 H 0.2738 0.2775 0.4240
loop_
_geom_bond_atom_site_label_1
_geom_bond_atom_site_label_2
_geom_bond_site_symmetry_1
_geom_bond_site_symmetry_2
S1 C16 1_555 1_555
F1 C1 1_555 1_555
F2 C1 1_555 1_555
F3 C1 1_555 1_555
O1 C10 1_555 1_555
O2 C19 1_555 1_555
O3 C21 1_555 1_555
O4 C21 1_555 1_555
N1 C8 1_555 1_555
N2 C10 1_555 1_555
N3 C17 1_555 1_555
N4 C18 1_555 1_555
C1 C2 1_555 1_555
C2 C3 1_555 1_555
C3 C4 1_555 1_555
C4 C5 1_555 1_555
C5 C6 1_555 1_555
C6 C7 1_555 1_555
C7 C2 1_555 1_555
C8 C5 1_555 1_555
C9 C8 1_555 1_555
C10 C9 1_555 1_555
C11 N1 1_555 1_555
C12 O1 1_555 1_555
C13 C12 1_555 1_555
C14 C13 1_555 1_555
C15 C14 1_555 1_555
C16 C15 1_555 1_555
C17 C12 1_555 1_555
C18 S1 1_555 1_555
C19 N4 1_555 1_555
C20 C19 1_555 1_555
C21 C22 1_555 1_555
C22 C23 1_555 1_555
C23 C24 1_555 1_555
C24 C25 1_555 1_555
C25 C26 1_555 1_555
C26 H19 1_555 1_555
H1 C3 1_555 1_555
H2 C4 1_555 1_555
H3 C6 1_555 1_555
H4 C7 1_555 1_555
H5 C9 1_555 1_555
H6 C11 1_555 1_555
H7 C13 1_555 1_555
H8 C14 1_555 1_555
H9 C15 1_555 1_555
H10 N4 1_555 1_555
H11 C20 1_555 1_555
H12 C20 1_555 1_555
H13 C20 1_555 1_555
H14 O4 1_555 1_555
H15 C22 1_555 1_555
H16 C23 1_555 1_555
H17 C24 1_555 1_555
H18 C25 1_555 1_555
H20 C26 1_555 1_555
H21 C26 1_555 1_555
N2 C11 1_555 1_555
N3 C18 1_555 1_555
C16 C17 1_555 1_555

#END
