
#######################################################################
#
#                 Cambridge Crystallographic Data Centre
#                                CCDC 
#
#######################################################################
#
# If this CIF has been generated from an entry in the Cambridge 
# Structural Database, then it will include bibliographic, chemical, 
# crystal, experimental, refinement or atomic coordinate data resulting 
# from the CCDC's data processing and validation procedures.
#
#######################################################################

data_TEGPOL
_chemical_formula_moiety         'C27 H32 B1 F2 N3 O4'
_chemical_name_systematic        
4,4-Difluoro-8-(4-N,N-bis(2-acetoxyethyl)aminophenyl)-1,3,5,7-tetramethyl-4-bora-3a,4a-diaza-s-indacene
_symmetry_cell_setting           monoclinic
_symmetry_space_group_name_H-M   'C 2/c'
_symmetry_Int_Tables_number      15
_space_group_name_Hall           '-C 2yn'
loop_
_symmetry_equiv_pos_site_id
_symmetry_equiv_pos_as_xyz
1 x,y,z
2 1/2+x,1/2+y,z
3 -x,y,1/2-z
4 1/2-x,1/2+y,1/2-z
5 -x,-y,-z
6 1/2-x,1/2-y,-z
7 x,-y,1/2+z
8 1/2+x,1/2-y,1/2+z
_cell_length_a                   13.910(5)
_cell_length_b                   13.723(5)
_cell_length_c                   14.141(5)
_cell_angle_alpha                90
_cell_angle_beta                 107.326(6)
_cell_angle_gamma                90
_cell_volume                     2576.85
_exptl_crystal_colour            orange-red
_exptl_crystal_description       block
_chemical_melting_point          '189 deg.C'
_cell_formula_units_Z            4
_exptl_crystal_recrystallization_method 'ethyl acetate/hexane'
loop_
_atom_site_label
_atom_site_type_symbol
_atom_site_fract_x
_atom_site_fract_y
_atom_site_fract_z
B1 B 0.0000 0.3190(3) 0.7500
C1 C -0.1106(2) 0.25167(18) 0.8960(2)
H1 H -0.1437 0.2192 0.8348
H2 H -0.1514 0.2471 0.9398
H3 H -0.0465 0.2214 0.9261
C2 C -0.09498(19) 0.35657(17) 0.87583(18)
C3 C -0.1274(2) 0.43803(18) 0.91586(19)
H4 H -0.1631 0.4369 0.9620
C4 C -0.09843(19) 0.52074(17) 0.87657(19)
C5 C -0.1217(2) 0.62269(19) 0.8997(2)
H5 H -0.1577 0.6215 0.9481
H6 H -0.1623 0.6537 0.8404
H7 H -0.0600 0.6583 0.9256
C6 C -0.04566(18) 0.48762(16) 0.81080(17)
C7 C 0.0000 0.5377(2) 0.7500
C8 C 0.0000 0.6459(2) 0.7500
C9 C -0.07431(19) 0.69791(18) 0.68114(18)
H8 H -0.1251 0.6645 0.6347
C10 C -0.0740(2) 0.79834(19) 0.68046(19)
H9 H -0.1240 0.8315 0.6328
C11 C 0.0000 0.8512(3) 0.7500
C13 C 0.0342(3) 1.0092(3) 0.8867(4)
C14 C 0.1843(2) 1.0378(2) 1.0504(2)
C15 C 0.2226(3) 1.1037(3) 1.1347(3)
H10 H 0.2582 1.0667 1.1921
H11 H 0.1673 1.1372 1.1476
H12 H 0.2675 1.1502 1.1196
C16 C 0.0824(3) 1.0089(3) 0.8156(3)
F1 F -0.07389(14) 0.25960(11) 0.68892(14)
N1 N -0.04550(15) 0.38538(14) 0.81290(14)
N2 N -0.0176(3) 0.9522(3) 0.7641(3)
O1 O 0.20216(14) 0.95254(14) 1.04690(15)
O2 O 0.1018(3) 1.0788(2) 0.9805(2)
C1B C 0.1106(2) 0.25167(18) 0.6040(2)
H1B H 0.1437 0.2192 0.6652
H2B H 0.1514 0.2471 0.5602
H3B H 0.0465 0.2214 0.5739
C2B C 0.09498(19) 0.35657(17) 0.62417(18)
C3B C 0.1274(2) 0.43803(18) 0.58414(19)
H4B H 0.1631 0.4369 0.5380
C4B C 0.09843(19) 0.52074(17) 0.62343(19)
C5B C 0.1217(2) 0.62269(19) 0.6003(2)
H5B H 0.1577 0.6215 0.5519
H6B H 0.1623 0.6537 0.6596
H7B H 0.0600 0.6583 0.5744
C6B C 0.04566(18) 0.48762(16) 0.68920(17)
C9B C 0.07431(19) 0.69791(18) 0.81886(18)
H8B H 0.1251 0.6645 0.8653
C10B C 0.0740(2) 0.79834(19) 0.81954(19)
H9B H 0.1240 0.8315 0.8672
C13B C -0.0342(3) 1.0092(3) 0.6133(4)
C14B C -0.1843(2) 1.0378(2) 0.4496(2)
C15B C -0.2226(3) 1.1037(3) 0.3653(3)
H10B H -0.2582 1.0667 0.3079
H11B H -0.1673 1.1372 0.3524
H12B H -0.2675 1.1502 0.3804
C16B C -0.0824(3) 1.0089(3) 0.6844(3)
F1B F 0.07389(14) 0.25960(11) 0.81108(14)
N1B N 0.04550(15) 0.38538(14) 0.68710(14)
N2B N 0.0176(3) 0.9522(3) 0.7359(3)
O1B O -0.20216(14) 0.95254(14) 0.45310(15)
O2B O -0.1018(3) 1.0788(2) 0.5195(2)
C12? C 0.1225(5) 1.0449(5) 0.8765(5)
O3? O 0.1488(4) 1.0948(3) 0.9711(3)
loop_
_geom_bond_atom_site_label_1
_geom_bond_atom_site_label_2
_geom_bond_site_symmetry_1
_geom_bond_site_symmetry_2
B1 F1 1_555 1_555
C1 H1 1_555 1_555
H2 C1 1_555 1_555
H3 C1 1_555 1_555
C2 C1 1_555 1_555
C3 C2 1_555 1_555
H4 C3 1_555 1_555
C4 C3 1_555 1_555
C5 C4 1_555 1_555
H5 C5 1_555 1_555
H6 C5 1_555 1_555
H7 C5 1_555 1_555
C6 C4 1_555 1_555
C7 C6 1_555 1_555
C8 C7 1_555 1_555
C9 C8 1_555 1_555
H8 C9 1_555 1_555
C10 C9 1_555 1_555
H9 C10 1_555 1_555
C11 C10 1_555 1_555
C13 C16 1_555 1_555
C14 C15 1_555 1_555
C15 H10 1_555 1_555
H11 C15 1_555 1_555
H12 C15 1_555 1_555
C16 N2 1_555 1_555
N1 B1 1_555 1_555
N2 C11 1_555 1_555
O1 C14 1_555 1_555
O2 C13 1_555 1_555
C1B H1B 1_555 1_555
H2B C1B 1_555 1_555
H3B C1B 1_555 1_555
C2B C1B 1_555 1_555
C3B C2B 1_555 1_555
H4B C3B 1_555 1_555
C4B C3B 1_555 1_555
C5B C4B 1_555 1_555
H5B C5B 1_555 1_555
H6B C5B 1_555 1_555
H7B C5B 1_555 1_555
C6B C7 1_555 1_555
C9B C8 1_555 1_555
H8B C9B 1_555 1_555
C10B C11 1_555 1_555
H9B C10B 1_555 1_555
C13B C16B 1_555 1_555
C14B C15B 1_555 1_555
C15B H10B 1_555 1_555
H11B C15B 1_555 1_555
H12B C15B 1_555 1_555
C16B N2 1_555 1_555
F1B B1 1_555 1_555
N1B B1 1_555 1_555
N2B C11 1_555 1_555
O1B C14B 1_555 1_555
O2B C13B 1_555 1_555
C2 N1 1_555 1_555
C6 N1 1_555 1_555
C14 O2 1_555 1_555
C16 N2B 1_555 1_555
N2 N2B 1_555 1_555
C2B N1B 1_555 1_555
C4B C6B 1_555 1_555
C6B N1B 1_555 1_555
C9B C10B 1_555 1_555
C14B O2B 1_555 1_555
C16B N2B 1_555 1_555

#END
