
#######################################################################
#
#                 Cambridge Crystallographic Data Centre
#                                CCDC 
#
#######################################################################
#
# If this CIF has been generated from an entry in the Cambridge 
# Structural Database, then it will include bibliographic, chemical, 
# crystal, experimental, refinement or atomic coordinate data resulting 
# from the CCDC's data processing and validation procedures.
#
#######################################################################

data_TEGPIF
_chemical_formula_moiety         'C23 H28 B1 F2 N3 O2'
_chemical_name_systematic        
4,4-Difluoro-8-(4-N,N-bis(2-hydroxyethyl)aminophenyl)-1,3,5,7-tetramethyl-4-bora-3a,4a-diaza-s-indacene
_symmetry_cell_setting           monoclinic
_symmetry_space_group_name_H-M   'P 21/n'
_symmetry_Int_Tables_number      14
_space_group_name_Hall           '-P 2yn'
loop_
_symmetry_equiv_pos_site_id
_symmetry_equiv_pos_as_xyz
1 x,y,z
2 1/2-x,1/2+y,1/2-z
3 -x,-y,-z
4 1/2+x,1/2-y,1/2+z
_cell_length_a                   14.3644(11)
_cell_length_b                   7.0360(6)
_cell_length_c                   21.5242(18)
_cell_angle_alpha                90
_cell_angle_beta                 90.866(2)
_cell_angle_gamma                90
_cell_volume                     2175.16
_exptl_crystal_colour            orange-red
_exptl_crystal_description       block
_chemical_melting_point          '200 deg.C'
_cell_formula_units_Z            4
_exptl_crystal_recrystallization_method 'ethyl acetate/hexane'
loop_
_atom_site_label
_atom_site_type_symbol
_atom_site_fract_x
_atom_site_fract_y
_atom_site_fract_z
B1 B -0.3525(2) 0.5481(5) 0.11277(14)
C1 C -0.3800(2) 0.9195(5) 0.18652(16)
H1 H -0.4150 0.9132 0.1482
H2 H -0.3713 1.0500 0.1982
H3 H -0.4131 0.8542 0.2185
C2 C -0.2873(2) 0.8278(4) 0.17813(12)
C3 C -0.2022(2) 0.8859(4) 0.20234(13)
H4 H -0.1924 0.9918 0.2274
C4 C -0.13417(19) 0.7610(4) 0.18318(12)
C5 C -0.18075(16) 0.6226(4) 0.14567(11)
C6 C -0.0337(2) 0.7746(4) 0.20125(14)
H5 H 0.0010 0.8230 0.1669
H6 H -0.0107 0.6509 0.2124
H7 H -0.0266 0.8588 0.2361
C7 C -0.14835(16) 0.4589(4) 0.11573(11)
C8 C -0.21001(16) 0.3343(4) 0.08567(11)
C9 C -0.19644(18) 0.1618(4) 0.05222(12)
C10 C -0.2831(2) 0.0996(4) 0.03475(14)
H8 H -0.2957 -0.0107 0.0124
C11 C -0.34985(19) 0.2280(4) 0.05586(14)
C12 C -0.4532(2) 0.2197(6) 0.04777(19)
H9 H -0.4822 0.2658 0.0847
H10 H -0.4720 0.0906 0.0403
H11 H -0.4718 0.2972 0.0130
C13 C -0.1074(2) 0.0632(4) 0.03644(15)
H12 H -0.0826 0.0009 0.0728
H13 H -0.0632 0.1548 0.0219
H14 H -0.1192 -0.0293 0.0045
C14 C -0.04702(16) 0.4188(4) 0.11653(11)
C15 C 0.01357(17) 0.5214(4) 0.08020(13)
H15 H -0.0100 0.6172 0.0547
C16 C 0.10792(18) 0.4859(4) 0.08069(13)
H16 H 0.1465 0.5577 0.0555
C17 C 0.14677(17) 0.3438(4) 0.11838(13)
C18 C 0.08516(19) 0.2425(4) 0.15597(15)
H17 H 0.1084 0.1497 0.1828
C19 C -0.00850(18) 0.2779(4) 0.15388(13)
H18 H -0.0476 0.2050 0.1783
C20 C 0.2797(2) 0.1265(6) 0.1424(2)
H19 H 0.2281 0.0433 0.1522
H20 H 0.3144 0.0667 0.1094
C21 C 0.3402(4) 0.1413(10) 0.1970(3)
C22 C 0.3059(2) 0.4303(6) 0.08570(18)
H21 H 0.2805 0.4525 0.0443
H22 H 0.3645 0.3635 0.0812
C23 C 0.3251(4) 0.6190(8) 0.1157(3)
F1 F -0.39637(12) 0.6514(3) 0.06537(8)
F2 F -0.41923(11) 0.4986(3) 0.15612(9)
N1 N -0.27550(14) 0.6686(3) 0.14408(9)
N2 N -0.30642(14) 0.3700(3) 0.08638(10)
N3 N 0.24182(15) 0.3075(4) 0.11912(13)
O1 O 0.2943(5) 0.2351(14) 0.2439(3)
O8 O 0.3825(10) 0.573(2) 0.1716(7)
O2? O 0.2805(12) 0.116(3) 0.2440(8)
O3? O 0.3420(14) -0.055(3) 0.2204(10)
O4? O 0.3112(12) 0.339(3) 0.2451(8)
O5? O 0.3862(13) 0.596(3) 0.1490(10)
O6? O 0.3995(15) 0.721(3) 0.1032(10)
O7? O 0.3651(19) 0.663(4) 0.1746(14)
O9? O 0.3286(11) 0.601(2) 0.1886(6)
loop_
_geom_bond_atom_site_label_1
_geom_bond_atom_site_label_2
_geom_bond_site_symmetry_1
_geom_bond_site_symmetry_2
B1 F1 1_555 1_555
C1 H1 1_555 1_555
H2 C1 1_555 1_555
H3 C1 1_555 1_555
C2 C1 1_555 1_555
C3 C2 1_555 1_555
H4 C3 1_555 1_555
C4 C3 1_555 1_555
C5 C4 1_555 1_555
C6 C4 1_555 1_555
H5 C6 1_555 1_555
H6 C6 1_555 1_555
H7 C6 1_555 1_555
C7 C5 1_555 1_555
C8 C7 1_555 1_555
C9 C8 1_555 1_555
C10 C9 1_555 1_555
H8 C10 1_555 1_555
C11 C10 1_555 1_555
C12 C11 1_555 1_555
H9 C12 1_555 1_555
H10 C12 1_555 1_555
H11 C12 1_555 1_555
C13 C9 1_555 1_555
H12 C13 1_555 1_555
H13 C13 1_555 1_555
H14 C13 1_555 1_555
C14 C7 1_555 1_555
C15 C14 1_555 1_555
H15 C15 1_555 1_555
C16 C15 1_555 1_555
H16 C16 1_555 1_555
C17 C16 1_555 1_555
C18 C17 1_555 1_555
H17 C18 1_555 1_555
C19 C14 1_555 1_555
H18 C19 1_555 1_555
C20 H19 1_555 1_555
H20 C20 1_555 1_555
C21 C20 1_555 1_555
C22 H21 1_555 1_555
H22 C22 1_555 1_555
C23 C22 1_555 1_555
F2 B1 1_555 1_555
N1 B1 1_555 1_555
N2 B1 1_555 1_555
N3 C17 1_555 1_555
O1 C21 1_555 1_555
O8 C23 1_555 1_555
C2 N1 1_555 1_555
C5 N1 1_555 1_555
C8 N2 1_555 1_555
C11 N2 1_555 1_555
C18 C19 1_555 1_555
C20 N3 1_555 1_555
C22 N3 1_555 1_555

#END
