
#######################################################################
#
#                 Cambridge Crystallographic Data Centre
#                                CCDC 
#
#######################################################################
#
# If this CIF has been generated from an entry in the Cambridge 
# Structural Database, then it will include bibliographic, chemical, 
# crystal, experimental, refinement or atomic coordinate data resulting 
# from the CCDC's data processing and validation procedures.
#
#######################################################################

data_TEGSOO
_chemical_formula_moiety         'C16 H26 I1 N1 S2'
_chemical_name_systematic        
(-)-Octahydro-6'(2'H),8'-dimethyl-6'-iodospiro(1,3-dithiane-2,4'-(4H)pyrrolo(2,1,5-de)quinolizine)
_symmetry_cell_setting           orthorhombic
_symmetry_space_group_name_H-M   'P 21 21 21'
_symmetry_Int_Tables_number      19
_space_group_name_Hall           'P 2ac 2ab'
loop_
_symmetry_equiv_pos_site_id
_symmetry_equiv_pos_as_xyz
1 x,y,z
2 1/2+x,1/2-y,-z
3 -x,1/2+y,1/2-z
4 1/2-x,-y,1/2+z
_cell_length_a                   9.2219(5)
_cell_length_b                   10.6484(5)
_cell_length_c                   17.6602(9)
_cell_angle_alpha                90
_cell_angle_beta                 90
_cell_angle_gamma                90
_cell_volume                     1734.2
_cell_formula_units_Z            4
loop_
_atom_site_label
_atom_site_type_symbol
_atom_site_fract_x
_atom_site_fract_y
_atom_site_fract_z
I1 I 0.385793(17) 0.873987(17) 0.647969(8)
S1 S 0.85494(7) 1.00309(6) 0.84964(3)
S2 S 1.00823(9) 0.76041(7) 0.88470(4)
N1 N 0.7477(2) 0.83652(18) 0.66913(10)
C1 C 0.5222(3) 0.7506(2) 0.72067(12)
C2 C 0.6608(3) 0.8242(2) 0.73809(11)
H1 H 0.6315 0.9090 0.7533
C3 C 0.7490(3) 0.7674(2) 0.80445(12)
H2 H 0.6907 0.7687 0.8502
H3 H 0.7727 0.6807 0.7931
C4 C 0.8893(3) 0.8419(2) 0.81772(12)
C5 C 0.9770(3) 0.8539(3) 0.74424(14)
H4 H 1.0149 0.7721 0.7302
H5 H 1.0587 0.9096 0.7527
C6 C 0.8832(3) 0.9057(2) 0.67885(13)
H6 H 0.8629 0.9950 0.6870
C7 C 0.9564(3) 0.8864(3) 0.60146(13)
H7 H 1.0609 0.8811 0.6070
H8 H 0.9335 0.9550 0.5674
C8 C 0.8941(3) 0.7621(3) 0.57170(12)
H9 H 0.8456 0.7749 0.5236
H10 H 0.9708 0.7008 0.5648
C9 C 0.7865(3) 0.7173(2) 0.63154(12)
H11 H 0.8374 0.6634 0.6679
C10 C 0.6504(3) 0.6512(2) 0.60529(12)
H12 H 0.6001 0.7054 0.5690
C11 C 0.5525(3) 0.6313(3) 0.67361(13)
H13 H 0.5966 0.5689 0.7063
H14 H 0.4607 0.5975 0.6562
C12 C 0.4294(3) 0.7220(3) 0.78937(13)
H15 H 0.4789 0.6630 0.8213
H16 H 0.3387 0.6867 0.7732
H17 H 0.4118 0.7980 0.8171
C13 C 0.6850(3) 0.5262(3) 0.56659(15)
H18 H 0.7401 0.5415 0.5214
H19 H 0.5962 0.4842 0.5537
H20 H 0.7402 0.4743 0.6004
C14 C 0.7786(3) 0.9778(3) 0.94292(14)
H21 H 0.7538 1.0586 0.9647
H22 H 0.6895 0.9301 0.9377
C15 C 0.8776(4) 0.9093(3) 0.99706(14)
H23 H 0.8338 0.9089 1.0470
H24 H 0.9688 0.9544 1.0006
C16 C 0.9081(4) 0.7742(3) 0.97305(14)
H25 H 0.8165 0.7302 0.9678
H26 H 0.9627 0.7329 1.0128
loop_
_geom_bond_atom_site_label_1
_geom_bond_atom_site_label_2
_geom_bond_site_symmetry_1
_geom_bond_site_symmetry_2
I1 C1 1_555 1_555
S1 C4 1_555 1_555
S2 C4 1_555 1_555
N1 C2 1_555 1_555
C1 C2 1_555 1_555
C2 H1 1_555 1_555
C3 C2 1_555 1_555
H2 C3 1_555 1_555
H3 C3 1_555 1_555
C4 C3 1_555 1_555
C5 C4 1_555 1_555
H4 C5 1_555 1_555
H5 C5 1_555 1_555
C6 N1 1_555 1_555
H6 C6 1_555 1_555
C7 C6 1_555 1_555
H7 C7 1_555 1_555
H8 C7 1_555 1_555
C8 C7 1_555 1_555
H9 C8 1_555 1_555
H10 C8 1_555 1_555
C9 N1 1_555 1_555
H11 C9 1_555 1_555
C10 C9 1_555 1_555
H12 C10 1_555 1_555
C11 C1 1_555 1_555
H13 C11 1_555 1_555
H14 C11 1_555 1_555
C12 C1 1_555 1_555
H15 C12 1_555 1_555
H16 C12 1_555 1_555
H17 C12 1_555 1_555
C13 C10 1_555 1_555
H18 C13 1_555 1_555
H19 C13 1_555 1_555
H20 C13 1_555 1_555
C14 S1 1_555 1_555
H21 C14 1_555 1_555
H22 C14 1_555 1_555
C15 C14 1_555 1_555
H23 C15 1_555 1_555
H24 C15 1_555 1_555
C16 S2 1_555 1_555
H25 C16 1_555 1_555
H26 C16 1_555 1_555
C5 C6 1_555 1_555
C8 C9 1_555 1_555
C10 C11 1_555 1_555
C15 C16 1_555 1_555

#END
