
#######################################################################
#
#                 Cambridge Crystallographic Data Centre
#                                CCDC 
#
#######################################################################
#
# If this CIF has been generated from an entry in the Cambridge 
# Structural Database, then it will include bibliographic, chemical, 
# crystal, experimental, refinement or atomic coordinate data resulting 
# from the CCDC's data processing and validation procedures.
#
#######################################################################

data_TEGWAG
_chemical_formula_moiety         'C16 H19 Br1'
_chemical_name_systematic        9-(2-bromophenyl)bicyclo[6.2.0]dec-9-ene
_symmetry_cell_setting           triclinic
_symmetry_space_group_name_H-M   'P -1'
_symmetry_Int_Tables_number      2
_space_group_name_Hall           '-P 1'
loop_
_symmetry_equiv_pos_site_id
_symmetry_equiv_pos_as_xyz
1 x,y,z
2 -x,-y,-z
_cell_length_a                   7.3559(3)
_cell_length_b                   8.7429(3)
_cell_length_c                   10.5801(4)
_cell_angle_alpha                88.022(3)
_cell_angle_beta                 86.294(3)
_cell_angle_gamma                75.705(3)
_cell_volume                     657.858
_exptl_crystal_colour            colorless
_exptl_crystal_description       block
_cell_formula_units_Z            2
loop_
_atom_site_label
_atom_site_type_symbol
_atom_site_fract_x
_atom_site_fract_y
_atom_site_fract_z
Br1 Br 0.18870(3) 0.07546(3) 0.31856(2)
C1 C 0.2409(4) 0.1263(3) 0.0144(2)
H1 H 0.3339 0.0805 0.0692
C2 C 0.2458(4) 0.1545(3) -0.1277(2)
H2 H 0.2673 0.0541 -0.1716
C3 C 0.3820(4) 0.2490(3) -0.1816(3)
H3 H 0.5059 0.1987 -0.1535
H4 H 0.3449 0.3534 -0.1456
C4 C 0.3970(4) 0.2678(3) -0.3253(2)
H5 H 0.4101 0.1652 -0.3620
H6 H 0.5111 0.3012 -0.3491
C5 C 0.2316(4) 0.3852(3) -0.3848(2)
H7 H 0.2100 0.4849 -0.3418
H8 H 0.2683 0.4036 -0.4726
C6 C 0.0465(4) 0.3356(3) -0.3807(2)
H9 H 0.0713 0.2233 -0.3614
H10 H -0.0036 0.3531 -0.4640
C7 C -0.1032(4) 0.4240(3) -0.2829(2)
H11 H -0.1339 0.5355 -0.3056
H12 H -0.2163 0.3868 -0.2877
C8 C -0.0443(4) 0.4048(3) -0.1454(2)
H13 H 0.0539 0.4593 -0.1362
H14 H -0.1510 0.4534 -0.0894
C9 C 0.0271(4) 0.2312(3) -0.1064(2)
H15 H -0.0466 0.1658 -0.1423
C10 C 0.0552(4) 0.1908(3) 0.0339(2)
C11 C -0.0890(3) 0.2064(3) 0.1382(2)
C12 C -0.2782(4) 0.2677(3) 0.1100(2)
H16 H -0.3057 0.2984 0.0270
C13 C -0.4246(4) 0.2841(3) 0.2015(3)
H17 H -0.5476 0.3260 0.1796
C14 C -0.3877(4) 0.2381(3) 0.3253(3)
H18 H -0.4858 0.2486 0.3869
C15 C -0.2033(4) 0.1761(3) 0.3574(2)
H19 H -0.1775 0.1439 0.4404
C16 C -0.0576(3) 0.1625(3) 0.2646(2)
loop_
_geom_bond_atom_site_label_1
_geom_bond_atom_site_label_2
_geom_bond_site_symmetry_1
_geom_bond_site_symmetry_2
Br1 C16 1_555 1_555
C1 H1 1_555 1_555
C2 C1 1_555 1_555
H2 C2 1_555 1_555
C3 C2 1_555 1_555
H3 C3 1_555 1_555
H4 C3 1_555 1_555
C4 C3 1_555 1_555
H5 C4 1_555 1_555
H6 C4 1_555 1_555
C5 C4 1_555 1_555
H7 C5 1_555 1_555
H8 C5 1_555 1_555
C6 C5 1_555 1_555
H9 C6 1_555 1_555
H10 C6 1_555 1_555
C7 C6 1_555 1_555
H11 C7 1_555 1_555
H12 C7 1_555 1_555
C8 C7 1_555 1_555
H13 C8 1_555 1_555
H14 C8 1_555 1_555
C9 C2 1_555 1_555
H15 C9 1_555 1_555
C10 C1 1_555 1_555
C11 C10 1_555 1_555
C12 C11 1_555 1_555
H16 C12 1_555 1_555
C13 C12 1_555 1_555
H17 C13 1_555 1_555
C14 C13 1_555 1_555
H18 C14 1_555 1_555
C15 C14 1_555 1_555
H19 C15 1_555 1_555
C16 C11 1_555 1_555
C8 C9 1_555 1_555
C9 C10 1_555 1_555
C15 C16 1_555 1_555

#END
