
#######################################################################
#
#                 Cambridge Crystallographic Data Centre
#                                CCDC 
#
#######################################################################
#
# If this CIF has been generated from an entry in the Cambridge 
# Structural Database, then it will include bibliographic, chemical, 
# crystal, experimental, refinement or atomic coordinate data resulting 
# from the CCDC's data processing and validation procedures.
#
#######################################################################

data_TEGWEK
_chemical_formula_moiety         'C23 H19 N1 O2'
_chemical_name_systematic        
4'-nitro-2-(4-phenylpenta-1,3-dien-3-yl)-1,1'-biphenyl
_symmetry_cell_setting           monoclinic
_symmetry_space_group_name_H-M   'P 21'
_symmetry_Int_Tables_number      4
_space_group_name_Hall           'P 2yb'
loop_
_symmetry_equiv_pos_site_id
_symmetry_equiv_pos_as_xyz
1 x,y,z
2 -x,1/2+y,-z
_cell_length_a                   7.4240(8)
_cell_length_b                   32.859(4)
_cell_length_c                   7.7501(9)
_cell_angle_alpha                90
_cell_angle_beta                 103.934(4)
_cell_angle_gamma                90
_cell_volume                     1834.97
_exptl_crystal_colour            colorless
_exptl_crystal_description       plate
_cell_formula_units_Z            4
loop_
_atom_site_label
_atom_site_type_symbol
_atom_site_fract_x
_atom_site_fract_y
_atom_site_fract_z
N1 N 0.2327(13) 0.2155(3) 1.1641(12)
O1 O 0.2960(11) 0.2206(3) 1.3265(10)
O2 O 0.0766(11) 0.2059(3) 1.0963(11)
C1 C 0.554(2) 0.3710(5) 0.884(2)
C2 C 0.553(2) 0.3654(5) 1.065(2)
H1 H 0.5894 0.3399 1.1204
C3 C 0.501(2) 0.3966(5) 1.163(2)
H2 H 0.4987 0.3922 1.2841
C4 C 0.452(2) 0.4333(5) 1.087(2)
H3 H 0.4240 0.4550 1.1567
C5 C 0.443(2) 0.4397(5) 0.911(2)
H4 H 0.4017 0.4651 0.8566
C6 C 0.496(2) 0.4087(5) 0.813(2)
H5 H 0.4922 0.4135 0.6916
C7 C 0.609(2) 0.3377(5) 0.778(2)
C8 C 0.775(3) 0.3207(9) 0.825(3)
C9 C 0.932(2) 0.3363(6) 0.970(2)
H6 H 0.9078 0.3607 1.0258
C10 C 1.092(3) 0.3214(7) 1.028(3)
H7 H 1.1257 0.2970 0.9780
H8 H 1.1787 0.3346 1.1213
C11 C 0.461(2) 0.3231(7) 0.623(3)
H9 H 0.5011 0.2978 0.5769
H10 H 0.4377 0.3438 0.5292
H11 H 0.3462 0.3181 0.6614
C12 C 0.8154(16) 0.2842(4) 0.7181(14)
C13 C 0.9431(17) 0.2893(4) 0.6106(15)
H12 H 1.0053 0.3147 0.6133
C14 C 0.9797(15) 0.2593(4) 0.5037(15)
H13 H 1.0612 0.2641 0.4283
C15 C 0.8966(13) 0.2211(4) 0.5052(13)
H14 H 0.9228 0.1997 0.4324
C16 C 0.7751(13) 0.2147(4) 0.6142(13)
H15 H 0.7196 0.1888 0.6171
C17 C 0.7343(13) 0.2463(4) 0.7194(12)
C18 C 0.6013(13) 0.2378(4) 0.8364(13)
C19 C 0.4254(12) 0.2237(4) 0.7636(13)
H16 H 0.3866 0.2189 0.6393
C20 C 0.3049(14) 0.2166(4) 0.8710(13)
H17 H 0.1834 0.2067 0.8206
C21 C 0.3596(11) 0.2238(4) 1.0490(13)
C22 C 0.5394(16) 0.2368(4) 1.1293(14)
H18 H 0.5798 0.2402 1.2544
C23 C 0.6553(14) 0.2446(4) 1.0189(14)
H19 H 0.7761 0.2549 1.0688
C35 C 0.975(2) -0.0305(4) 0.626(2)
C36 C 1.004(3) -0.0220(6) 0.461(3)
H31 H 0.9903 0.0050 0.4159
C37 C 1.054(3) -0.0544(7) 0.358(3)
H32 H 1.0748 -0.0487 0.2448
C38 C 1.071(3) -0.0925(6) 0.419(3)
H33 H 1.1100 -0.1137 0.3521
C39 C 1.031(3) -0.1006(7) 0.585(3)
H34 H 1.0326 -0.1277 0.6284
C40 C 0.991(3) -0.0694(7) 0.682(3)
H35 H 0.9719 -0.0752 0.7963
C41 C 0.9343(16) 0.0033(5) 0.7417(19)
C42 C 0.7669(13) 0.0230(4) 0.7027(16)
C43 C 0.6150(16) 0.0078(5) 0.5525(19)
H36 H 0.6369 -0.0157 0.4894
C44 C 0.4479(16) 0.0264(5) 0.503(2)
H37 H 0.4233 0.0500 0.5648
H38 H 0.3550 0.0158 0.4073
C45 C 1.088(2) 0.0142(6) 0.897(2)
H39 H 1.0376 0.0282 0.9866
H40 H 1.1762 0.0322 0.8581
H41 H 1.1524 -0.0106 0.9488
C46 C 0.7270(16) 0.0567(4) 0.8147(16)
C47 C 0.6121(19) 0.0508(4) 0.9269(18)
H42 H 0.5569 0.0249 0.9324
C48 C 0.5752(19) 0.0828(4) 1.0340(18)
H43 H 0.4919 0.0785 1.1080
C49 C 0.655(3) 0.1191(4) 1.034(3)
H44 H 0.6306 0.1401 1.1089
C50 C 0.774(2) 0.1260(5) 0.921(2)
H45 H 0.8315 0.1519 0.9203
C51 C 0.8094(17) 0.0950(4) 0.8106(16)
N2 N 1.3050(14) 0.1259(5) 0.3697(13)
O3 O 1.2553(14) 0.1212(4) 0.2075(12)
O4 O 1.4679(14) 0.1371(4) 0.4398(14)
C52 C 0.9367(17) 0.1032(4) 0.6942(16)
C53 C 1.1161(19) 0.1177(5) 0.7663(18)
H46 H 1.1532 0.1230 0.8903
C54 C 1.2418(19) 0.1247(5) 0.6624(17)
H47 H 1.3658 0.1329 0.7137
C55 C 1.1778(17) 0.1191(5) 0.4795(15)
C56 C 1.0040(16) 0.1055(4) 0.4028(16)
H48 H 0.9658 0.1027 0.2773
C57 C 0.8812(19) 0.0958(5) 0.5079(17)
H49 H 0.7627 0.0846 0.4558
C24? C 0.601(7) 0.3691(10) 0.939(5)
C25? C 0.632(7) 0.3626(10) 1.126(5)
H20? H 0.6978 0.3392 1.1789
C26? C 0.566(8) 0.3907(12) 1.230(5)
H21? H 0.5482 0.3832 1.3428
C27? C 0.526(8) 0.4290(11) 1.167(6)
H22? H 0.4935 0.4491 1.2418
C28? C 0.532(9) 0.4392(10) 0.997(6)
H23? H 0.5092 0.4664 0.9562
C29? C 0.570(8) 0.4092(11) 0.886(5)
H24? H 0.5759 0.4164 0.7688
C30? C 0.628(7) 0.3362(13) 0.817(5)
C31? C 0.790(10) 0.318(4) 0.838(13)
C32? C 0.954(8) 0.325(2) 0.992(10)
H25? H 0.9345 0.3443 1.0778
C33? C 1.113(8) 0.309(3) 1.024(14)
H26? H 1.1412 0.2895 0.9440
H27? H 1.2039 0.3164 1.1279
C34? C 0.476(10) 0.332(3) 0.651(9)
H28? H 0.5257 0.3188 0.5584
H29? H 0.4290 0.3591 0.6092
H30? H 0.3752 0.3156 0.6750
C58? C 0.846(4) -0.0290(6) 0.541(3)
C59? C 0.879(5) -0.0663(7) 0.624(4)
H50? H 0.8527 -0.0707 0.7366
C60? C 0.952(6) -0.0984(8) 0.536(4)
H51? H 0.9706 -0.1246 0.5886
C61? C 0.995(6) -0.0920(8) 0.380(4)
H52? H 1.0285 -0.1139 0.3148
C62? C 0.989(6) -0.0514(9) 0.316(5)
H53? H 1.0253 -0.0454 0.2094
C63? C 0.931(6) -0.0216(8) 0.409(5)
H54? H 0.9497 0.0059 0.3794
C64? C 0.769(3) 0.0052(7) 0.632(3)
C65? C 0.871(3) 0.0235(7) 0.782(3)
C66? C 1.055(5) 0.0061(12) 0.877(5)
H55? H 1.1006 -0.0176 0.8319
C67? C 1.156(4) 0.0239(10) 1.027(4)
H56? H 1.1105 0.0476 1.0727
H57? H 1.2723 0.0127 1.0866
C68? C 0.587(4) 0.0216(12) 0.530(5)
H58? H 0.5569 0.0463 0.5877
H59? H 0.4898 0.0012 0.5260
H60? H 0.5945 0.0281 0.4081
C69? C 0.798(3) 0.0584(6) 0.866(3)
C70? C 0.703(5) 0.0519(7) 0.995(5)
H61? H 0.6796 0.0249 1.0275
C71? C 0.639(6) 0.0850(8) 1.078(5)
H62? H 0.5602 0.0802 1.1566
C72? C 0.685(9) 0.1230(7) 1.050(8)
H63? H 0.6356 0.1452 1.1019
C73? C 0.810(8) 0.1301(6) 0.941(7)
H64? H 0.8545 0.1568 0.9305
C74? C 0.866(4) 0.0978(6) 0.850(4)
N3? N 1.361(3) 0.1262(14) 0.407(3)
O5? O 1.300(4) 0.1304(12) 0.245(3)
O6? O 1.529(3) 0.1334(13) 0.476(4)
C75? C 0.995(3) 0.1059(10) 0.735(3)
C76? C 1.178(4) 0.1180(15) 0.807(3)
H65? H 1.2178 0.1227 0.9317
C77? C 1.305(4) 0.1232(15) 0.703(3)
H66? H 1.4321 0.1289 0.7535
C78? C 1.236(4) 0.1198(14) 0.519(3)
C79? C 1.065(4) 0.1039(14) 0.446(3)
H67? H 1.0370 0.0930 0.3290
C80? C 0.931(3) 0.1040(14) 0.546(3)
H68? H 0.8024 0.1028 0.4903
loop_
_geom_bond_atom_site_label_1
_geom_bond_atom_site_label_2
_geom_bond_site_symmetry_1
_geom_bond_site_symmetry_2
N1 O1 1_555 1_555
O2 N1 1_555 1_555
C1 C2 1_555 1_555
C2 H1 1_555 1_555
C3 C2 1_555 1_555
H2 C3 1_555 1_555
C4 C3 1_555 1_555
H3 C4 1_555 1_555
C5 C4 1_555 1_555
H4 C5 1_555 1_555
C6 C1 1_555 1_555
H5 C6 1_555 1_555
C7 C1 1_555 1_555
C8 C7 1_555 1_555
C9 C8 1_555 1_555
H6 C9 1_555 1_555
C10 C9 1_555 1_555
H7 C10 1_555 1_555
H8 C10 1_555 1_555
C11 C7 1_555 1_555
H9 C11 1_555 1_555
H10 C11 1_555 1_555
H11 C11 1_555 1_555
C12 C8 1_555 1_555
C13 C12 1_555 1_555
H12 C13 1_555 1_555
C14 C13 1_555 1_555
H13 C14 1_555 1_555
C15 C14 1_555 1_555
H14 C15 1_555 1_555
C16 C15 1_555 1_555
H15 C16 1_555 1_555
C17 C12 1_555 1_555
C18 C17 1_555 1_555
C19 C18 1_555 1_555
H16 C19 1_555 1_555
C20 C19 1_555 1_555
H17 C20 1_555 1_555
C21 N1 1_555 1_555
C22 C21 1_555 1_555
H18 C22 1_555 1_555
C23 C18 1_555 1_555
H19 C23 1_555 1_555
C35 C36 1_555 1_555
C36 H31 1_555 1_555
C37 C36 1_555 1_555
H32 C37 1_555 1_555
C38 C37 1_555 1_555
H33 C38 1_555 1_555
C39 C38 1_555 1_555
H34 C39 1_555 1_555
C40 C35 1_555 1_555
H35 C40 1_555 1_555
C41 C35 1_555 1_555
C42 C41 1_555 1_555
C43 C42 1_555 1_555
H36 C43 1_555 1_555
C44 C43 1_555 1_555
H37 C44 1_555 1_555
H38 C44 1_555 1_555
C45 C41 1_555 1_555
H39 C45 1_555 1_555
H40 C45 1_555 1_555
H41 C45 1_555 1_555
C46 C42 1_555 1_555
C47 C46 1_555 1_555
H42 C47 1_555 1_555
C48 C47 1_555 1_555
H43 C48 1_555 1_555
C49 C48 1_555 1_555
H44 C49 1_555 1_555
C50 C49 1_555 1_555
H45 C50 1_555 1_555
C51 C46 1_555 1_555
N2 O3 1_555 1_555
O4 N2 1_555 1_555
C52 C51 1_555 1_555
C53 C52 1_555 1_555
H46 C53 1_555 1_555
C54 C53 1_555 1_555
H47 C54 1_555 1_555
C55 N2 1_555 1_555
C56 C55 1_555 1_555
H48 C56 1_555 1_555
C57 C52 1_555 1_555
H49 C57 1_555 1_555
C5 C6 1_555 1_555
C16 C17 1_555 1_555
C20 C21 1_555 1_555
C22 C23 1_555 1_555
C39 C40 1_555 1_555
C50 C51 1_555 1_555
C54 C55 1_555 1_555
C56 C57 1_555 1_555

#END
