
#######################################################################
#
#                 Cambridge Crystallographic Data Centre
#                                CCDC 
#
#######################################################################
#
# If this CIF has been generated from an entry in the Cambridge 
# Structural Database, then it will include bibliographic, chemical, 
# crystal, experimental, refinement or atomic coordinate data resulting 
# from the CCDC's data processing and validation procedures.
#
#######################################################################

data_TEGZIR
_chemical_formula_moiety         'C15 H10 O3,2(H2 O1)'
_chemical_name_systematic        
'2,3-bis(4-hydroxyphenyl)cycloprop-2-en-1-one dihydrate'
_symmetry_cell_setting           monoclinic
_symmetry_space_group_name_H-M   'P 21'
_symmetry_Int_Tables_number      4
_space_group_name_Hall           'P 2yb'
loop_
_symmetry_equiv_pos_site_id
_symmetry_equiv_pos_as_xyz
1 x,y,z
2 -x,1/2+y,-z
_cell_length_a                   4.252(2)
_cell_length_b                   10.804(5)
_cell_length_c                   14.788(7)
_cell_angle_alpha                90
_cell_angle_beta                 91.184(8)
_cell_angle_gamma                90
_cell_volume                     679.195
_exptl_crystal_colour            colorless
_exptl_crystal_description       Plate
_cell_formula_units_Z            2
loop_
_atom_site_label
_atom_site_type_symbol
_atom_site_fract_x
_atom_site_fract_y
_atom_site_fract_z
O1 O 1.1209(7) 0.3431(3) 0.89636(19)
O2 O 0.0378(7) 0.8922(3) 0.93291(19)
H1 H -0.0163 0.8785 0.9849
O3 O 1.3672(10) 0.3923(4) 0.3905(2)
H2 H 1.3283 0.4531 0.3591
C1 C 1.0091(9) 0.4137(4) 0.8367(3)
C2 C 0.8207(9) 0.5144(4) 0.8122(2)
C3 C 0.9897(9) 0.4530(4) 0.7462(3)
C4 C 0.6143(9) 0.6111(4) 0.8398(3)
C5 C 0.5263(9) 0.6145(4) 0.9312(3)
H3 H 0.6009 0.5536 0.9706
C6 C 0.3344(9) 0.7050(4) 0.9631(3)
H4 H 0.2759 0.7048 1.0234
C7 C 0.2260(10) 0.7983(4) 0.9044(3)
C8 C 0.3063(10) 0.7954(4) 0.8133(3)
H5 H 0.2293 0.8558 0.7739
C9 C 0.4988(10) 0.7035(4) 0.7818(3)
H6 H 0.5529 0.7027 0.7212
C10 C 1.0850(9) 0.4421(4) 0.6542(3)
C11 C 1.2642(10) 0.3397(4) 0.6287(3)
H7 H 1.3220 0.2806 0.6716
C12 C 1.3560(11) 0.3260(5) 0.5401(3)
H8 H 1.4752 0.2578 0.5235
C13 C 1.2709(11) 0.4134(5) 0.4764(3)
C14 C 1.0948(11) 0.5157(5) 0.5002(3)
H9 H 1.0395 0.5747 0.4569
C15 C 1.0019(10) 0.5294(4) 0.5884(3)
H10 H 0.8822 0.5978 0.6043
O4 O 1.2859(10) 0.5824(5) 0.2851(3)
H11 H 1.1542 0.5613 0.2439
H12 H 1.4302 0.5710 0.2470
O5 O 0.7708(9) 0.6093(3) 0.1660(2)
H13 H 0.8231 0.6803 0.1390
H14 H 0.8061 0.5528 0.1231
loop_
_geom_bond_atom_site_label_1
_geom_bond_atom_site_label_2
_geom_bond_site_symmetry_1
_geom_bond_site_symmetry_2
O1 C1 1_555 1_555
O2 H1 1_555 1_555
O3 H2 1_555 1_555
C1 C2 1_555 1_555
C2 C3 1_555 1_555
C3 C1 1_555 1_555
C4 C2 1_555 1_555
C5 C4 1_555 1_555
H3 C5 1_555 1_555
C6 C5 1_555 1_555
H4 C6 1_555 1_555
C7 O2 1_555 1_555
C8 C7 1_555 1_555
H5 C8 1_555 1_555
C9 C4 1_555 1_555
H6 C9 1_555 1_555
C10 C3 1_555 1_555
C11 C10 1_555 1_555
H7 C11 1_555 1_555
C12 C11 1_555 1_555
H8 C12 1_555 1_555
C13 O3 1_555 1_555
C14 C13 1_555 1_555
H9 C14 1_555 1_555
C15 C10 1_555 1_555
H10 C15 1_555 1_555
O4 H11 1_555 1_555
H12 O4 1_555 1_555
O5 H13 1_555 1_555
H14 O5 1_555 1_555
C6 C7 1_555 1_555
C8 C9 1_555 1_555
C12 C13 1_555 1_555
C14 C15 1_555 1_555

#END
