
#######################################################################
#
#                 Cambridge Crystallographic Data Centre
#                                CCDC 
#
#######################################################################
#
# If this CIF has been generated from an entry in the Cambridge 
# Structural Database, then it will include bibliographic, chemical, 
# crystal, experimental, refinement or atomic coordinate data resulting 
# from the CCDC's data processing and validation procedures.
#
#######################################################################

data_TEGZIO
_chemical_formula_moiety         '2(C4 H7 N4 1+),O4 S1 2-,H2 O1'
_chemical_name_systematic        
'bis(2,4-Diaminopyrimidinium) sulfate monohydrate'
_chemical_properties_biological  
'related to compounds with folic acid antagonistic activity'
_symmetry_cell_setting           monoclinic
_symmetry_space_group_name_H-M   'P 21/a'
_symmetry_Int_Tables_number      14
_space_group_name_Hall           '-P 2yab'
loop_
_symmetry_equiv_pos_site_id
_symmetry_equiv_pos_as_xyz
1 x,y,z
2 1/2-x,1/2+y,-z
3 -x,-y,-z
4 1/2+x,1/2-y,z
_cell_length_a                   20.992(2)
_cell_length_b                   6.9480(10)
_cell_length_c                   10.0830(10)
_cell_angle_alpha                90
_cell_angle_beta                 102.150(10)
_cell_angle_gamma                90
_cell_volume                     1437.69
_exptl_crystal_colour            white
_cell_formula_units_Z            4
loop_
_atom_site_label
_atom_site_type_symbol
_atom_site_fract_x
_atom_site_fract_y
_atom_site_fract_z
N1 N 0.17292(10) -0.1598(3) 0.2899(2)
H1 H 0.2140 -0.1835 0.3133
C1 C 0.14645(11) -0.1069(4) 0.1601(2)
N2 N 0.08319(9) -0.0639(3) 0.1193(2)
C2 C 0.04522(12) -0.0811(4) 0.2113(3)
C3 C 0.07079(14) -0.1370(4) 0.3475(3)
H2 H 0.0442 -0.1468 0.4103
C4 C 0.13473(14) -0.1752(4) 0.3825(3)
H3 H 0.1531 -0.2127 0.4708
N3 N 0.18552(10) -0.0987(4) 0.0730(2)
H4 H 0.1703 -0.0656 -0.0098
H5 H 0.2262 -0.1263 0.0991
N4 N -0.01737(10) -0.0413(4) 0.1709(2)
H6 H -0.0326 -0.0058 0.0886
H7 H -0.0429 -0.0507 0.2270
S1 S 0.16068(3) 0.18881(9) -0.28748(5)
O1 O 0.20196(9) 0.1904(3) -0.3895(2)
O2 O 0.17984(9) 0.3535(3) -0.1956(2)
O3 O 0.16981(10) 0.0103(3) -0.2098(2)
O4 O 0.09222(8) 0.2087(3) -0.3568(2)
N5 N 0.14107(12) 0.3334(4) 0.3566(2)
H8 H 0.1525 0.3025 0.4409
C5 C 0.07707(12) 0.3730(4) 0.3006(2)
N6 N 0.05739(10) 0.4218(3) 0.1709(2)
C6 C 0.10177(12) 0.4244(4) 0.0929(2)
C7 C 0.16924(13) 0.3864(5) 0.1468(3)
H9 H 0.1999 0.3915 0.0924
C8 C 0.18626(14) 0.3435(4) 0.2785(3)
H10 H 0.2298 0.3197 0.3176
N7 N 0.03524(12) 0.3606(4) 0.3813(2)
H11 H -0.0054 0.3839 0.3500
H12 H 0.0485 0.3286 0.4648
N8 N 0.08244(11) 0.4670(4) -0.0372(2)
H13 H 0.0421 0.4925 -0.0701
H14 H 0.1101 0.4694 -0.0890
O5 O 0.10663(13) -0.3231(3) 0.6734(2)
H15 H 0.1120 -0.2379 0.7432
H16 H 0.1329 -0.4203 0.7120
loop_
_geom_bond_atom_site_label_1
_geom_bond_atom_site_label_2
_geom_bond_site_symmetry_1
_geom_bond_site_symmetry_2
N1 H1 1_555 1_555
C1 N1 1_555 1_555
N2 C1 1_555 1_555
C2 N2 1_555 1_555
C3 C2 1_555 1_555
H2 C3 1_555 1_555
C4 N1 1_555 1_555
H3 C4 1_555 1_555
N3 C1 1_555 1_555
H4 N3 1_555 1_555
H5 N3 1_555 1_555
N4 C2 1_555 1_555
H6 N4 1_555 1_555
H7 N4 1_555 1_555
S1 O1 1_555 1_555
O2 S1 1_555 1_555
O3 S1 1_555 1_555
O4 S1 1_555 1_555
N5 H8 1_555 1_555
C5 N5 1_555 1_555
N6 C5 1_555 1_555
C6 N6 1_555 1_555
C7 C6 1_555 1_555
H9 C7 1_555 1_555
C8 N5 1_555 1_555
H10 C8 1_555 1_555
N7 C5 1_555 1_555
H11 N7 1_555 1_555
H12 N7 1_555 1_555
N8 C6 1_555 1_555
H13 N8 1_555 1_555
H14 N8 1_555 1_555
O5 H15 1_555 1_555
H16 O5 1_555 1_555
C3 C4 1_555 1_555
C7 C8 1_555 1_555

#END
