
#######################################################################
#
#                 Cambridge Crystallographic Data Centre
#                                CCDC 
#
#######################################################################
#
# If this CIF has been generated from an entry in the Cambridge 
# Structural Database, then it will include bibliographic, chemical, 
# crystal, experimental, refinement or atomic coordinate data resulting 
# from the CCDC's data processing and validation procedures.
#
#######################################################################

data_TEGZIO01
_chemical_formula_moiety         '2(C4 H7 N4 1+),H3 O1 1+,O4 P1 3-'
_chemical_name_systematic        
'oxonium bis(2,4-diaminopyrimidinium) phosphate'
_symmetry_cell_setting           monoclinic
_symmetry_space_group_name_H-M   'P 21/a'
_symmetry_Int_Tables_number      14
_space_group_name_Hall           '-P 2yab'
loop_
_symmetry_equiv_pos_site_id
_symmetry_equiv_pos_as_xyz
1 x,y,z
2 1/2-x,1/2+y,-z
3 -x,-y,-z
4 1/2+x,1/2-y,z
_cell_length_a                   20.992(2)
_cell_length_b                   6.9480(10)
_cell_length_c                   10.0830(10)
_cell_angle_alpha                90
_cell_angle_beta                 102.150(10)
_cell_angle_gamma                90
_cell_volume                     1437.69
_exptl_crystal_colour            white
_exptl_crystal_description       'thick prism'
_cell_formula_units_Z            4
_chemical_properties_physical    air-sensitive
loop_
_atom_site_label
_atom_site_type_symbol
_atom_site_fract_x
_atom_site_fract_y
_atom_site_fract_z
N1 N 0.1731(1) -0.1599(3) 0.2901(2)
C1 C 0.1465(1) -0.1069(3) 0.1602(2)
N2 N 0.0832(1) -0.0639(3) 0.1195(2)
C2 C 0.0453(1) -0.0811(3) 0.2112(2)
C3 C 0.0708(1) -0.1372(4) 0.3477(2)
C4 C 0.1348(1) -0.1753(4) 0.3825(2)
N3 N 0.1855(1) -0.0988(4) 0.0731(2)
N4 N -0.0174(1) -0.0412(4) 0.1709(2)
P1 P 0.16068(2) 0.18882(8) -0.28749(5)
O1 O 0.2020(1) 0.1903(3) -0.3895(2)
O2 O 0.1799(1) 0.3535(3) -0.1955(2)
O3 O 0.1699(1) 0.0100(3) -0.2097(2)
O4 O 0.0922(1) 0.2090(3) -0.3566(2)
N5 N 0.1411(1) 0.3338(3) 0.3567(2)
C5 C 0.0770(1) 0.3727(3) 0.3007(2)
N6 N 0.0573(1) 0.4219(3) 0.1708(2)
C6 C 0.1018(1) 0.4245(3) 0.0930(2)
C7 C 0.1692(1) 0.3867(4) 0.1467(3)
C8 C 0.1863(1) 0.3435(4) 0.2786(3)
N7 N 0.0352(1) 0.3608(4) 0.3811(2)
N8 N 0.0823(1) 0.4676(4) -0.0372(2)
O5 O 0.1066(1) -0.3233(4) 0.6736(2)
loop_
_geom_bond_atom_site_label_1
_geom_bond_atom_site_label_2
_geom_bond_site_symmetry_1
_geom_bond_site_symmetry_2
N1 C1 1_555 1_555
C1 N2 1_555 1_555
N2 C2 1_555 1_555
C2 C3 1_555 1_555
C3 C4 1_555 1_555
C4 N1 1_555 1_555
N3 C1 1_555 1_555
N4 C2 1_555 1_555
P1 O1 1_555 1_555
O2 P1 1_555 1_555
O3 P1 1_555 1_555
O4 P1 1_555 1_555
N5 C5 1_555 1_555
C5 N6 1_555 1_555
N6 C6 1_555 1_555
C6 C7 1_555 1_555
C7 C8 1_555 1_555
C8 N5 1_555 1_555
N7 C5 1_555 1_555
N8 C6 1_555 1_555

#END
