
#######################################################################
#
#                 Cambridge Crystallographic Data Centre
#                                CCDC 
#
#######################################################################
#
# If this CIF has been generated from an entry in the Cambridge 
# Structural Database, then it will include bibliographic, chemical, 
# crystal, experimental, refinement or atomic coordinate data resulting 
# from the CCDC's data processing and validation procedures.
#
#######################################################################

data_TEHBEQ
_chemical_name_common            gene755
_chemical_formula_moiety         'C23 H21 F1 O3 S1'
_chemical_name_systematic        
'2-(4-fluorophenyl)-1-phenylbut-1-en-1-yl 4-methylbenzene-1-sulfonate'
_symmetry_cell_setting           monoclinic
_symmetry_space_group_name_H-M   'P 21'
_symmetry_Int_Tables_number      4
_space_group_name_Hall           'P 2yb'
loop_
_symmetry_equiv_pos_site_id
_symmetry_equiv_pos_as_xyz
1 x,y,z
2 -x,1/2+y,-z
_cell_length_a                   7.8407(8)
_cell_length_b                   5.9578(6)
_cell_length_c                   20.722(2)
_cell_angle_alpha                90
_cell_angle_beta                 94.566(2)
_cell_angle_gamma                90
_cell_volume                     964.921
_exptl_crystal_colour            colorless
_exptl_crystal_description       rod
_cell_formula_units_Z            2
loop_
_atom_site_label
_atom_site_type_symbol
_atom_site_fract_x
_atom_site_fract_y
_atom_site_fract_z
C1 C 0.9281(5) 0.5095(8) 0.8802(2)
C2 C 1.0940(5) 0.5946(8) 0.8808(2)
H1 H 1.115075 0.735481 0.861436
C3 C 1.2268(6) 0.4698(9) 0.9100(2)
H2 H 1.340172 0.526746 0.911229
C4 C 1.1975(6) 0.2624(9) 0.9376(2)
C5 C 1.0290(5) 0.1849(9) 0.9377(2)
H3 H 1.006918 0.046134 0.958029
C6 C 0.8955(5) 0.3067(8) 0.9090(2)
H4 H 0.781636 0.252125 0.908900
C7 C 1.3456(6) 0.1229(10) 0.9659(2)
H5 H 1.427142 0.099446 0.933033
H6 H 1.303139 -0.022669 0.979738
H7 H 1.402592 0.201104 1.003177
C8 C 0.6006(5) 0.5666(8) 0.7282(2)
C9 C 0.6165(6) 0.7105(8) 0.6801(2)
C10 C 0.7721(7) 0.8560(14) 0.6729(3)
H8 H 0.733483 1.007015 0.658125
H9 H 0.835364 0.873357 0.715936
C11 C 0.8860(8) 0.7690(14) 0.6286(3)
H10 H 0.929698 0.622846 0.644067
H11 H 0.981820 0.873099 0.625613
H12 H 0.824666 0.751377 0.585864
C12 C 0.4577(6) 0.4151(8) 0.7414(2)
C13 C 0.4898(5) 0.2126(8) 0.7729(2)
H13 H 0.604522 0.173868 0.786604
C14 C 0.3600(6) 0.0655(8) 0.7849(2)
H14 H 0.386029 -0.073642 0.805800
C15 C 0.1902(6) 0.1222(9) 0.7662(2)
H15 H 0.099691 0.022652 0.774270
C16 C 0.1565(6) 0.3248(9) 0.7359(2)
H16 H 0.041388 0.364874 0.723227
C17 C 0.2868(6) 0.4711(8) 0.7235(2)
H17 H 0.260455 0.610308 0.702656
C18 C 0.4834(6) 0.7279(8) 0.6238(2)
C19 C 0.4588(6) 0.5518(9) 0.5803(2)
H18 H 0.523398 0.417788 0.587110
C20 C 0.3418(7) 0.5689(9) 0.5271(2)
H19 H 0.327281 0.449932 0.496629
C21 C 0.2471(7) 0.7617(10) 0.5194(2)
C22 C 0.2671(6) 0.9395(9) 0.5605(2)
H20 H 0.200133 1.071416 0.553393
C23 C 0.3873(6) 0.9238(9) 0.6131(2)
H21 H 0.404555 1.046910 0.642046
O1 O 0.8133(4) 0.8863(6) 0.83032(18)
O2 O 0.6046(4) 0.6265(7) 0.86968(14)
O3 O 0.7491(4) 0.5334(6) 0.77223(14)
F1 F 0.1287(4) 0.7771(6) 0.46751(15)
S1 S 0.75974(13) 0.6610(2) 0.84026(5)
loop_
_geom_bond_atom_site_label_1
_geom_bond_atom_site_label_2
_geom_bond_site_symmetry_1
_geom_bond_site_symmetry_2
C1 C2 1_555 1_555
C2 H1 1_555 1_555
C3 C2 1_555 1_555
H2 C3 1_555 1_555
C4 C3 1_555 1_555
C5 C4 1_555 1_555
H3 C5 1_555 1_555
C6 C1 1_555 1_555
H4 C6 1_555 1_555
C7 C4 1_555 1_555
H5 C7 1_555 1_555
H6 C7 1_555 1_555
H7 C7 1_555 1_555
C8 C9 1_555 1_555
C9 C10 1_555 1_555
C10 H8 1_555 1_555
H9 C10 1_555 1_555
C11 C10 1_555 1_555
H10 C11 1_555 1_555
H11 C11 1_555 1_555
H12 C11 1_555 1_555
C12 C8 1_555 1_555
C13 C12 1_555 1_555
H13 C13 1_555 1_555
C14 C13 1_555 1_555
H14 C14 1_555 1_555
C15 C14 1_555 1_555
H15 C15 1_555 1_555
C16 C15 1_555 1_555
H16 C16 1_555 1_555
C17 C12 1_555 1_555
H17 C17 1_555 1_555
C18 C9 1_555 1_555
C19 C18 1_555 1_555
H18 C19 1_555 1_555
C20 C19 1_555 1_555
H19 C20 1_555 1_555
C21 C20 1_555 1_555
C22 C21 1_555 1_555
H20 C22 1_555 1_555
C23 C18 1_555 1_555
H21 C23 1_555 1_555
O1 S1 1_555 1_555
O2 S1 1_555 1_555
O3 C8 1_555 1_555
F1 C21 1_555 1_555
S1 C1 1_555 1_555
C5 C6 1_555 1_555
C16 C17 1_555 1_555
C22 C23 1_555 1_555
O3 S1 1_555 1_555

#END
