
#######################################################################
#
#                 Cambridge Crystallographic Data Centre
#                                CCDC 
#
#######################################################################
#
# If this CIF has been generated from an entry in the Cambridge 
# Structural Database, then it will include bibliographic, chemical, 
# crystal, experimental, refinement or atomic coordinate data resulting 
# from the CCDC's data processing and validation procedures.
#
#######################################################################

data_TEHBUG
_chemical_name_common            gene798
_chemical_formula_moiety         'C24 H24 O4 S1'
_chemical_name_systematic        
'2-(3-methoxyphenyl)-1-phenylbut-1-en-1-yl 4-methylbenzene-1-sulfonate'
_symmetry_cell_setting           monoclinic
_symmetry_space_group_name_H-M   'P 21/n'
_symmetry_Int_Tables_number      14
_space_group_name_Hall           '-P 2yn'
loop_
_symmetry_equiv_pos_site_id
_symmetry_equiv_pos_as_xyz
1 x,y,z
2 1/2-x,1/2+y,1/2-z
3 -x,-y,-z
4 1/2+x,1/2-y,1/2+z
_cell_length_a                   16.2361(11)
_cell_length_b                   7.3738(5)
_cell_length_c                   17.5467(12)
_cell_angle_alpha                90
_cell_angle_beta                 107.5910(10)
_cell_angle_gamma                90
_cell_volume                     2002.49
_exptl_crystal_colour            colorless
_exptl_crystal_description       prism
_cell_formula_units_Z            4
loop_
_atom_site_label
_atom_site_type_symbol
_atom_site_fract_x
_atom_site_fract_y
_atom_site_fract_z
C1 C 0.28258(13) 0.3005(3) 0.67458(13)
C2 C 0.27151(13) 0.3772(3) 0.74320(12)
H1 H 0.220816 0.444531 0.740470
C3 C 0.33500(14) 0.3544(3) 0.81529(13)
H2 H 0.327369 0.406658 0.862182
C4 C 0.41021(13) 0.2563(3) 0.82101(13)
C5 C 0.41934(14) 0.1814(3) 0.75112(13)
H3 H 0.469994 0.114104 0.753675
C6 C 0.35685(14) 0.2024(3) 0.67837(13)
H4 H 0.364433 0.150394 0.631396
C7 C 0.47847(14) 0.2289(3) 0.89999(13)
H5 H 0.468144 0.113909 0.923593
H6 H 0.476235 0.328900 0.936086
H7 H 0.535527 0.225939 0.891748
C8 C 0.26550(13) 0.6053(3) 0.52502(12)
C9 C 0.23433(13) 0.6802(3) 0.45259(12)
C10 C 0.13879(13) 0.6823(3) 0.40838(13)
H8 H 0.109485 0.587823 0.430822
H9 H 0.129860 0.653250 0.351361
C11 C 0.09865(14) 0.8668(3) 0.41472(14)
H10 H 0.112703 0.901750 0.471088
H11 H 0.035775 0.859439 0.391284
H12 H 0.121707 0.957684 0.385842
C12 C 0.29288(13) 0.7849(3) 0.41737(12)
C13 C 0.34837(13) 0.9152(3) 0.46275(13)
H13 H 0.349576 0.936018 0.516506
C14 C 0.40189(14) 1.0149(3) 0.43028(13)
H14 H 0.439943 1.102527 0.462129
C15 C 0.40037(14) 0.9881(3) 0.35211(13)
H15 H 0.438125 1.054760 0.330468
C16 C 0.34317(13) 0.8626(3) 0.30514(13)
C17 C 0.28948(13) 0.7609(3) 0.33727(12)
H16 H 0.250556 0.675389 0.304927
C18 C 0.27635(14) 0.7562(3) 0.17173(13)
H17 H 0.279830 0.627271 0.185903
H18 H 0.281394 0.770378 0.117786
H19 H 0.220740 0.805136 0.173231
C19 C 0.35596(13) 0.5897(3) 0.57666(13)
C20 C 0.38118(14) 0.6692(3) 0.65262(13)
H20 H 0.340817 0.738733 0.669778
C21 C 0.46406(14) 0.6472(3) 0.70261(14)
H21 H 0.480910 0.702829 0.753853
C22 C 0.52320(15) 0.5439(3) 0.67828(14)
H22 H 0.580293 0.528150 0.712984
C23 C 0.49883(14) 0.4642(3) 0.60365(14)
H23 H 0.539159 0.393453 0.586964
C24 C 0.41542(14) 0.4874(3) 0.55293(14)
H24 H 0.399000 0.432645 0.501512
O1 O 0.22360(10) 0.2260(2) 0.52317(9)
O2 O 0.11938(9) 0.3087(2) 0.59535(9)
O3 O 0.20398(9) 0.53988(19) 0.56226(8)
O4 O 0.34496(9) 0.8521(2) 0.22750(9)
S1 S 0.20162(3) 0.32895(7) 0.58307(3)
loop_
_geom_bond_atom_site_label_1
_geom_bond_atom_site_label_2
_geom_bond_site_symmetry_1
_geom_bond_site_symmetry_2
C1 C2 1_555 1_555
C2 H1 1_555 1_555
C3 C2 1_555 1_555
H2 C3 1_555 1_555
C4 C3 1_555 1_555
C5 C4 1_555 1_555
H3 C5 1_555 1_555
C6 C1 1_555 1_555
H4 C6 1_555 1_555
C7 C4 1_555 1_555
H5 C7 1_555 1_555
H6 C7 1_555 1_555
H7 C7 1_555 1_555
C8 C9 1_555 1_555
C9 C10 1_555 1_555
C10 H8 1_555 1_555
H9 C10 1_555 1_555
C11 C10 1_555 1_555
H10 C11 1_555 1_555
H11 C11 1_555 1_555
H12 C11 1_555 1_555
C12 C9 1_555 1_555
C13 C12 1_555 1_555
H13 C13 1_555 1_555
C14 C13 1_555 1_555
H14 C14 1_555 1_555
C15 C14 1_555 1_555
H15 C15 1_555 1_555
C16 C15 1_555 1_555
C17 C12 1_555 1_555
H16 C17 1_555 1_555
C18 H17 1_555 1_555
H18 C18 1_555 1_555
H19 C18 1_555 1_555
C19 C8 1_555 1_555
C20 C19 1_555 1_555
H20 C20 1_555 1_555
C21 C20 1_555 1_555
H21 C21 1_555 1_555
C22 C21 1_555 1_555
H22 C22 1_555 1_555
C23 C22 1_555 1_555
H23 C23 1_555 1_555
C24 C19 1_555 1_555
H24 C24 1_555 1_555
O1 S1 1_555 1_555
O2 S1 1_555 1_555
O3 C8 1_555 1_555
O4 C16 1_555 1_555
S1 C1 1_555 1_555
C5 C6 1_555 1_555
C16 C17 1_555 1_555
C18 O4 1_555 1_555
C23 C24 1_555 1_555
O3 S1 1_555 1_555

#END
