
#######################################################################
#
#                 Cambridge Crystallographic Data Centre
#                                CCDC 
#
#######################################################################
#
# If this CIF has been generated from an entry in the Cambridge 
# Structural Database, then it will include bibliographic, chemical, 
# crystal, experimental, refinement or atomic coordinate data resulting 
# from the CCDC's data processing and validation procedures.
#
#######################################################################

data_TEHCER
_chemical_name_common            gene893
_chemical_formula_moiety         'C22 H21 N1 O3 S1'
_chemical_name_systematic        
'1-phenyl-2-(pyridin-2-yl)but-1-en-1-yl 4-methylbenzene-1-sulfonate'
_symmetry_cell_setting           monoclinic
_symmetry_space_group_name_H-M   'P 21/c'
_symmetry_Int_Tables_number      14
_space_group_name_Hall           '-P 2ybc'
loop_
_symmetry_equiv_pos_site_id
_symmetry_equiv_pos_as_xyz
1 x,y,z
2 -x,1/2+y,1/2-z
3 -x,-y,-z
4 x,1/2-y,1/2+z
_cell_length_a                   12.5238(8)
_cell_length_b                   9.4922(6)
_cell_length_c                   16.7995(11)
_cell_angle_alpha                90
_cell_angle_beta                 107.6580(10)
_cell_angle_gamma                90
_cell_volume                     1903
_exptl_crystal_colour            colorless
_exptl_crystal_description       prism
_cell_formula_units_Z            4
loop_
_atom_site_label
_atom_site_type_symbol
_atom_site_fract_x
_atom_site_fract_y
_atom_site_fract_z
C1 C 0.28042(15) 0.4741(2) 0.47103(11)
C2 C 0.36923(16) 0.4043(2) 0.52729(11)
H1 H 0.439264 0.450116 0.550303
C3 C 0.35403(16) 0.2669(2) 0.54925(11)
H2 H 0.414529 0.218498 0.587463
C4 C 0.25184(16) 0.1983(2) 0.51645(11)
C5 C 0.16411(16) 0.2716(2) 0.46062(12)
H3 H 0.093777 0.226368 0.437849
C6 C 0.17749(16) 0.4087(2) 0.43780(12)
H4 H 0.116988 0.457538 0.399850
C7 C 0.23549(19) 0.0496(2) 0.54086(13)
H5 H 0.199275 0.050322 0.585021
H6 H 0.308430 0.002725 0.561341
H7 H 0.188099 -0.001217 0.492142
C8 C 0.26680(14) 0.6574(2) 0.28293(10)
C9 C 0.27393(14) 0.7725(2) 0.23892(11)
C10 C 0.21218(15) 0.7836(2) 0.14645(11)
H8 H 0.170611 0.694926 0.127517
H9 H 0.267470 0.794746 0.115468
C11 C 0.13028(16) 0.9066(2) 0.12549(12)
H10 H 0.079361 0.900755 0.159623
H11 H 0.086844 0.902727 0.066210
H12 H 0.171945 0.995489 0.137155
C12 C 0.19889(15) 0.5293(2) 0.25324(10)
C13 C 0.25113(16) 0.3980(2) 0.26218(11)
H13 H 0.329275 0.390651 0.289791
C14 C 0.18945(17) 0.2781(2) 0.23092(12)
H14 H 0.225554 0.189051 0.236674
C15 C 0.07504(17) 0.2880(2) 0.19122(12)
H15 H 0.033308 0.205896 0.168804
C16 C 0.02166(17) 0.4170(2) 0.18423(12)
H16 H -0.056995 0.423214 0.158460
C17 C 0.08338(16) 0.5376(2) 0.21502(11)
H17 H 0.046676 0.626194 0.210003
C18 C 0.34856(14) 0.8940(2) 0.27452(11)
C19 C 0.35320(15) 0.9583(2) 0.35025(11)
H18 H 0.309489 0.923022 0.383226
C20 C 0.42215(16) 1.0738(2) 0.37672(12)
H19 H 0.427320 1.117875 0.428526
C21 C 0.48356(16) 1.1244(2) 0.32676(12)
H20 H 0.531778 1.203446 0.343283
C22 C 0.47224(15) 1.0560(2) 0.25213(11)
H21 H 0.513560 1.091437 0.217466
N1 N 0.40711(13) 0.94339(17) 0.22525(9)
O1 O 0.19056(10) 0.71740(14) 0.41943(8)
O2 O 0.38869(11) 0.70940(14) 0.50837(7)
O3 O 0.34350(10) 0.64388(14) 0.36534(7)
S1 S 0.29747(4) 0.64974(5) 0.44498(3)
loop_
_geom_bond_atom_site_label_1
_geom_bond_atom_site_label_2
_geom_bond_site_symmetry_1
_geom_bond_site_symmetry_2
C1 C2 1_555 1_555
C2 H1 1_555 1_555
C3 C2 1_555 1_555
H2 C3 1_555 1_555
C4 C3 1_555 1_555
C5 C4 1_555 1_555
H3 C5 1_555 1_555
C6 C1 1_555 1_555
H4 C6 1_555 1_555
C7 C4 1_555 1_555
H5 C7 1_555 1_555
H6 C7 1_555 1_555
H7 C7 1_555 1_555
C8 C9 1_555 1_555
C9 C10 1_555 1_555
C10 H8 1_555 1_555
H9 C10 1_555 1_555
C11 C10 1_555 1_555
H10 C11 1_555 1_555
H11 C11 1_555 1_555
H12 C11 1_555 1_555
C12 C8 1_555 1_555
C13 C12 1_555 1_555
H13 C13 1_555 1_555
C14 C13 1_555 1_555
H14 C14 1_555 1_555
C15 C14 1_555 1_555
H15 C15 1_555 1_555
C16 C15 1_555 1_555
H16 C16 1_555 1_555
C17 C12 1_555 1_555
H17 C17 1_555 1_555
C18 C9 1_555 1_555
C19 C18 1_555 1_555
H18 C19 1_555 1_555
C20 C19 1_555 1_555
H19 C20 1_555 1_555
C21 C20 1_555 1_555
H20 C21 1_555 1_555
C22 C21 1_555 1_555
H21 C22 1_555 1_555
N1 C18 1_555 1_555
O1 S1 1_555 1_555
O2 S1 1_555 1_555
O3 C8 1_555 1_555
S1 C1 1_555 1_555
C5 C6 1_555 1_555
C16 C17 1_555 1_555
C22 N1 1_555 1_555
O3 S1 1_555 1_555

#END
