
#######################################################################
#
#                 Cambridge Crystallographic Data Centre
#                                CCDC 
#
#######################################################################
#
# If this CIF has been generated from an entry in the Cambridge 
# Structural Database, then it will include bibliographic, chemical, 
# crystal, experimental, refinement or atomic coordinate data resulting 
# from the CCDC's data processing and validation procedures.
#
#######################################################################

data_TEHDAO01
_chemical_formula_moiety         'C22 H19 F1'
_chemical_name_systematic        
1,1'-[1-(4-fluorophenyl)but-1-ene-1,2-diyl]dibenzene
_symmetry_cell_setting           triclinic
_symmetry_space_group_name_H-M   'P -1'
_symmetry_Int_Tables_number      2
_space_group_name_Hall           '-P 1'
loop_
_symmetry_equiv_pos_site_id
_symmetry_equiv_pos_as_xyz
1 x,y,z
2 -x,-y,-z
_cell_length_a                   8.9407(3)
_cell_length_b                   9.6685(4)
_cell_length_c                   10.3518(4)
_cell_angle_alpha                113.062(2)
_cell_angle_beta                 90.552(2)
_cell_angle_gamma                92.535(2)
_cell_volume                     822.168
_exptl_crystal_colour            colorless
_exptl_crystal_description       plate
_cell_formula_units_Z            2
loop_
_atom_site_label
_atom_site_type_symbol
_atom_site_fract_x
_atom_site_fract_y
_atom_site_fract_z
C1 C 0.45646(13) 0.29294(13) 0.24027(12)
C2 C 0.48955(13) 0.18324(13) 0.28436(12)
C3 C 0.37828(13) 0.05846(13) 0.28049(13)
H1 H 0.278064 0.079087 0.252850
H2 H 0.371867 0.058749 0.376022
C4 C 0.42008(15) -0.09735(14) 0.17867(14)
H3 H 0.420040 -0.100648 0.082837
H4 H 0.346957 -0.173534 0.183644
H5 H 0.520074 -0.117834 0.204206
C5 C 0.64161(13) 0.17487(13) 0.34137(13)
C6 C 0.77026(14) 0.17968(13) 0.26743(13)
H6 H 0.761352 0.191479 0.180839
C7 C 0.91109(14) 0.16744(14) 0.31874(14)
H7 H 0.997654 0.171651 0.267639
C8 C 0.92527(14) 0.14910(15) 0.44440(15)
H8 H 1.021257 0.138412 0.478517
C9 C 0.79931(15) 0.14639(15) 0.52002(14)
H9 H 0.809213 0.136059 0.607216
C10 C 0.65845(14) 0.15869(14) 0.46911(14)
H10 H 0.572580 0.156095 0.521616
C11 C 0.56193(13) 0.42470(13) 0.25890(12)
C12 C 0.58423(13) 0.47006(13) 0.14782(13)
H11 H 0.534208 0.415168 0.059915
C13 C 0.67822(14) 0.59398(14) 0.16364(13)
H12 H 0.693016 0.622491 0.086499
C14 C 0.75076(14) 0.67647(14) 0.29185(14)
H13 H 0.813919 0.762366 0.303343
C15 C 0.73007(14) 0.63221(14) 0.40316(13)
H14 H 0.779849 0.687707 0.491058
C16 C 0.63729(13) 0.50760(14) 0.38667(12)
H15 H 0.624687 0.478046 0.463427
C17 C 0.30768(13) 0.29580(13) 0.17351(12)
C18 C 0.24816(14) 0.17383(14) 0.05696(13)
H16 H 0.302494 0.085119 0.019021
C19 C 0.11120(14) 0.17940(15) -0.00475(13)
H17 H 0.071507 0.095772 -0.084046
C20 C 0.03446(14) 0.30884(16) 0.05169(14)
C21 C 0.08844(15) 0.43257(15) 0.16618(14)
H18 H 0.032910 0.520535 0.203363
C22 C 0.22602(14) 0.42547(14) 0.22587(13)
H19 H 0.265560 0.510520 0.303945
F1 F -0.09870(9) 0.31325(10) -0.00988(10)
loop_
_geom_bond_atom_site_label_1
_geom_bond_atom_site_label_2
_geom_bond_site_symmetry_1
_geom_bond_site_symmetry_2
C1 C2 1_555 1_555
C2 C3 1_555 1_555
C3 H1 1_555 1_555
H2 C3 1_555 1_555
C4 C3 1_555 1_555
H3 C4 1_555 1_555
H4 C4 1_555 1_555
H5 C4 1_555 1_555
C5 C2 1_555 1_555
C6 C5 1_555 1_555
H6 C6 1_555 1_555
C7 C6 1_555 1_555
H7 C7 1_555 1_555
C8 C7 1_555 1_555
H8 C8 1_555 1_555
C9 C8 1_555 1_555
H9 C9 1_555 1_555
C10 C5 1_555 1_555
H10 C10 1_555 1_555
C11 C1 1_555 1_555
C12 C11 1_555 1_555
H11 C12 1_555 1_555
C13 C12 1_555 1_555
H12 C13 1_555 1_555
C14 C13 1_555 1_555
H13 C14 1_555 1_555
C15 C14 1_555 1_555
H14 C15 1_555 1_555
C16 C11 1_555 1_555
H15 C16 1_555 1_555
C17 C1 1_555 1_555
C18 C17 1_555 1_555
H16 C18 1_555 1_555
C19 C18 1_555 1_555
H17 C19 1_555 1_555
C20 C19 1_555 1_555
C21 C20 1_555 1_555
H18 C21 1_555 1_555
C22 C17 1_555 1_555
H19 C22 1_555 1_555
F1 C20 1_555 1_555
C9 C10 1_555 1_555
C15 C16 1_555 1_555
C21 C22 1_555 1_555

#END
