
#######################################################################
#
#                 Cambridge Crystallographic Data Centre
#                                CCDC 
#
#######################################################################
#
# If this CIF has been generated from an entry in the Cambridge 
# Structural Database, then it will include bibliographic, chemical, 
# crystal, experimental, refinement or atomic coordinate data resulting 
# from the CCDC's data processing and validation procedures.
#
#######################################################################

data_TEHDES
_chemical_name_common            gene962
_chemical_formula_moiety         'C23 H22'
_chemical_name_systematic        
1,1'-[1-(4-methylphenyl)but-1-ene-1,2-diyl]dibenzene
_symmetry_cell_setting           triclinic
_symmetry_space_group_name_H-M   'P -1'
_symmetry_Int_Tables_number      2
_space_group_name_Hall           '-P 1'
loop_
_symmetry_equiv_pos_site_id
_symmetry_equiv_pos_as_xyz
1 x,y,z
2 -x,-y,-z
_cell_length_a                   9.3948(3)
_cell_length_b                   9.4545(3)
_cell_length_c                   10.5713(4)
_cell_angle_alpha                113.0060(10)
_cell_angle_beta                 90.5330(10)
_cell_angle_gamma                93.7970(10)
_cell_volume                     861.763
_exptl_crystal_colour            colorless
_exptl_crystal_description       block
_cell_formula_units_Z            2
loop_
_atom_site_label
_atom_site_type_symbol
_atom_site_fract_x
_atom_site_fract_y
_atom_site_fract_z
C1 C 0.46616(11) 0.29328(12) 0.24766(11)
C2 C 0.49937(11) 0.18581(12) 0.29551(11)
C3 C 0.39485(11) 0.05453(12) 0.29143(11)
H1 H 0.299086 0.070727 0.261986
H2 H 0.388271 0.055583 0.385200
C4 C 0.43857(12) -0.10308(13) 0.19354(13)
H3 H 0.433976 -0.109328 0.098833
H4 H 0.373442 -0.184380 0.201368
H5 H 0.536282 -0.116429 0.217765
C5 C 0.64358(12) 0.18449(12) 0.35611(11)
C6 C 0.76768(12) 0.18960(13) 0.28572(12)
H6 H 0.760718 0.198588 0.199492
C7 C 0.90100(13) 0.18181(14) 0.33941(13)
H7 H 0.984243 0.186368 0.290391
C8 C 0.91258(13) 0.16735(15) 0.46470(14)
H8 H 1.003447 0.160048 0.500924
C9 C 0.79081(13) 0.16363(15) 0.53668(13)
H9 H 0.798569 0.155465 0.623200
C10 C 0.65730(13) 0.17178(13) 0.48302(12)
H10 H 0.574551 0.168686 0.533116
C11 C 0.56466(11) 0.43057(12) 0.26267(11)
C12 C 0.58527(12) 0.47195(12) 0.15049(11)
H11 H 0.536002 0.412806 0.065290
C13 C 0.67681(12) 0.59837(13) 0.16174(12)
H12 H 0.691261 0.623539 0.083930
C14 C 0.74712(12) 0.68788(13) 0.28636(13)
H13 H 0.809228 0.774693 0.294390
C15 C 0.72589(12) 0.64945(14) 0.39919(12)
H14 H 0.773075 0.710783 0.484968
C16 C 0.63600(12) 0.52177(13) 0.38732(12)
H15 H 0.622928 0.496213 0.465085
C17 C 0.32444(11) 0.28655(12) 0.17856(11)
C18 C 0.27364(12) 0.15895(12) 0.06243(11)
H16 H 0.329730 0.072986 0.025931
C19 C 0.14239(12) 0.15547(13) -0.00075(12)
H17 H 0.110341 0.067144 -0.079768
C20 C 0.05700(12) 0.27892(14) 0.04955(12)
C21 C 0.10699(13) 0.40629(14) 0.16612(12)
H18 H 0.049888 0.491303 0.203366
C22 C 0.23875(12) 0.41100(13) 0.22867(12)
H19 H 0.271316 0.500118 0.306763
C23 C -0.08332(13) 0.27413(16) -0.02310(14)
H20 H -0.065997 0.302013 -0.101995
H21 H -0.144622 0.347341 0.040663
H22 H -0.130507 0.169922 -0.055144
loop_
_geom_bond_atom_site_label_1
_geom_bond_atom_site_label_2
_geom_bond_site_symmetry_1
_geom_bond_site_symmetry_2
C1 C2 1_555 1_555
C2 C3 1_555 1_555
C3 H1 1_555 1_555
H2 C3 1_555 1_555
C4 C3 1_555 1_555
H3 C4 1_555 1_555
H4 C4 1_555 1_555
H5 C4 1_555 1_555
C5 C2 1_555 1_555
C6 C5 1_555 1_555
H6 C6 1_555 1_555
C7 C6 1_555 1_555
H7 C7 1_555 1_555
C8 C7 1_555 1_555
H8 C8 1_555 1_555
C9 C8 1_555 1_555
H9 C9 1_555 1_555
C10 C5 1_555 1_555
H10 C10 1_555 1_555
C11 C1 1_555 1_555
C12 C11 1_555 1_555
H11 C12 1_555 1_555
C13 C12 1_555 1_555
H12 C13 1_555 1_555
C14 C13 1_555 1_555
H13 C14 1_555 1_555
C15 C14 1_555 1_555
H14 C15 1_555 1_555
C16 C11 1_555 1_555
H15 C16 1_555 1_555
C17 C1 1_555 1_555
C18 C17 1_555 1_555
H16 C18 1_555 1_555
C19 C18 1_555 1_555
H17 C19 1_555 1_555
C20 C19 1_555 1_555
C21 C20 1_555 1_555
H18 C21 1_555 1_555
C22 C17 1_555 1_555
H19 C22 1_555 1_555
C23 C20 1_555 1_555
H20 C23 1_555 1_555
H21 C23 1_555 1_555
H22 C23 1_555 1_555
C9 C10 1_555 1_555
C15 C16 1_555 1_555
C21 C22 1_555 1_555

#END
