
#######################################################################
#
#                 Cambridge Crystallographic Data Centre
#                                CCDC 
#
#######################################################################
#
# If this CIF has been generated from an entry in the Cambridge 
# Structural Database, then it will include bibliographic, chemical, 
# crystal, experimental, refinement or atomic coordinate data resulting 
# from the CCDC's data processing and validation procedures.
#
#######################################################################

data_TEHDOC
_chemical_name_common            gene963
_chemical_formula_moiety         'C25 H24 O2'
_chemical_name_systematic        'ethyl 4-(1,2-diphenylbut-1-en-1-yl)benzoate'
_symmetry_cell_setting           monoclinic
_symmetry_space_group_name_H-M   'P 21/c'
_symmetry_Int_Tables_number      14
_space_group_name_Hall           '-P 2ybc'
loop_
_symmetry_equiv_pos_site_id
_symmetry_equiv_pos_as_xyz
1 x,y,z
2 -x,1/2+y,1/2-z
3 -x,-y,-z
4 x,1/2-y,1/2+z
_cell_length_a                   17.5541(7)
_cell_length_b                   5.6300(2)
_cell_length_c                   20.2320(9)
_cell_angle_alpha                90
_cell_angle_beta                 99.807(2)
_cell_angle_gamma                90
_cell_volume                     1970.3
_exptl_crystal_colour            colorless
_exptl_crystal_description       block
_cell_formula_units_Z            4
loop_
_atom_site_label
_atom_site_type_symbol
_atom_site_fract_x
_atom_site_fract_y
_atom_site_fract_z
C1 C 0.21432(12) 0.4453(4) 0.31942(13)
C2 C 0.23282(12) 0.4085(4) 0.25033(13)
C3 C 0.30544(13) 0.3956(5) 0.23963(14)
H1 H 0.312921 0.244300 0.216634
H2 H 0.340998 0.396366 0.283227
C4 C 0.32587(14) 0.6098(5) 0.19554(15)
H3 H 0.289008 0.614488 0.153336
H4 H 0.378325 0.589081 0.185912
H5 H 0.322987 0.758911 0.219982
C5 C 0.18418(12) 0.3794(4) 0.17646(13)
C6 C 0.13754(12) 0.5541(5) 0.14908(13)
H6 H 0.130597 0.692282 0.174343
C7 C 0.09611(13) 0.5295(5) 0.07780(13)
H7 H 0.063884 0.658041 0.060119
C8 C 0.10052(13) 0.3287(5) 0.03334(13)
H8 H 0.073233 0.323939 -0.011420
C9 C 0.14583(13) 0.1523(5) 0.06038(14)
H9 H 0.151419 0.012356 0.035395
C10 C 0.18787(13) 0.1782(4) 0.13091(13)
H10 H 0.220592 0.050187 0.148112
C11 C 0.14270(12) 0.4572(4) 0.33158(12)
C12 C 0.12148(13) 0.6511(4) 0.37071(13)
H11 H 0.159071 0.766543 0.388100
C13 C 0.05546(13) 0.6691(5) 0.38185(13)
H12 H 0.038376 0.796324 0.406478
C14 C 0.00998(13) 0.4912(5) 0.35578(13)
H13 H -0.041995 0.495663 0.363211
C15 C 0.03058(13) 0.2956(5) 0.31810(13)
H14 H -0.006793 0.177762 0.302175
C16 C 0.09660(13) 0.2787(4) 0.30607(13)
H15 H 0.113266 0.151520 0.281152
C17 C 0.26544(12) 0.4717(4) 0.39191(13)
C18 C 0.30933(14) 0.6640(5) 0.40405(14)
H16 H 0.308749 0.786218 0.371597
C19 C 0.35805(14) 0.6780(5) 0.46915(14)
H17 H 0.389632 0.815290 0.477781
C20 C 0.36392(12) 0.4983(5) 0.52447(13)
C21 C 0.31958(13) 0.3102(5) 0.51387(13)
H18 H 0.319604 0.189746 0.546768
C22 C 0.27052(13) 0.2978(5) 0.44867(13)
H19 H 0.237558 0.163261 0.440936
C23 C 0.41644(13) 0.5041(5) 0.59527(13)
C24 C 0.51059(13) 0.7141(5) 0.66261(14)
H20 H 0.480500 0.741819 0.699067
H21 H 0.545354 0.576135 0.673846
C25 C 0.55196(14) 0.9242(5) 0.64762(16)
H22 H 0.578522 0.891607 0.609732
H23 H 0.590034 0.968183 0.686970
H24 H 0.515357 1.055195 0.636007
O1 O 0.42061(9) 0.3628(3) 0.64769(10)
O2 O 0.45889(9) 0.6868(3) 0.59464(9)
loop_
_geom_bond_atom_site_label_1
_geom_bond_atom_site_label_2
_geom_bond_site_symmetry_1
_geom_bond_site_symmetry_2
C1 C2 1_555 1_555
C2 C3 1_555 1_555
C3 H1 1_555 1_555
H2 C3 1_555 1_555
C4 C3 1_555 1_555
H3 C4 1_555 1_555
H4 C4 1_555 1_555
H5 C4 1_555 1_555
C5 C2 1_555 1_555
C6 C5 1_555 1_555
H6 C6 1_555 1_555
C7 C6 1_555 1_555
H7 C7 1_555 1_555
C8 C7 1_555 1_555
H8 C8 1_555 1_555
C9 C8 1_555 1_555
H9 C9 1_555 1_555
C10 C5 1_555 1_555
H10 C10 1_555 1_555
C11 C1 1_555 1_555
C12 C11 1_555 1_555
H11 C12 1_555 1_555
C13 C12 1_555 1_555
H12 C13 1_555 1_555
C14 C13 1_555 1_555
H13 C14 1_555 1_555
C15 C14 1_555 1_555
H14 C15 1_555 1_555
C16 C11 1_555 1_555
H15 C16 1_555 1_555
C17 C1 1_555 1_555
C18 C17 1_555 1_555
H16 C18 1_555 1_555
C19 C18 1_555 1_555
H17 C19 1_555 1_555
C20 C19 1_555 1_555
C21 C20 1_555 1_555
H18 C21 1_555 1_555
C22 C17 1_555 1_555
H19 C22 1_555 1_555
C23 C20 1_555 1_555
C24 H20 1_555 1_555
H21 C24 1_555 1_555
C25 C24 1_555 1_555
H22 C25 1_555 1_555
H23 C25 1_555 1_555
H24 C25 1_555 1_555
O1 C23 1_555 1_555
O2 C23 1_555 1_555
C9 C10 1_555 1_555
C15 C16 1_555 1_555
C21 C22 1_555 1_555
C24 O2 1_555 1_555

#END
