
#######################################################################
#
#                 Cambridge Crystallographic Data Centre
#                                CCDC 
#
#######################################################################
#
# If this CIF has been generated from an entry in the Cambridge 
# Structural Database, then it will include bibliographic, chemical, 
# crystal, experimental, refinement or atomic coordinate data resulting 
# from the CCDC's data processing and validation procedures.
#
#######################################################################

data_TEHFOE
_chemical_name_common            gene904
_chemical_formula_moiety         'C25 H24 O2'
_chemical_name_systematic        'ethyl 4-(1,2-diphenylbut-1-en-1-yl)benzoate'
_symmetry_cell_setting           triclinic
_symmetry_space_group_name_H-M   'P -1'
_symmetry_Int_Tables_number      2
_space_group_name_Hall           '-P 1'
loop_
_symmetry_equiv_pos_site_id
_symmetry_equiv_pos_as_xyz
1 x,y,z
2 -x,-y,-z
_cell_length_a                   9.7277(5)
_cell_length_b                   10.2705(5)
_cell_length_c                   10.7975(5)
_cell_angle_alpha                78.543(2)
_cell_angle_beta                 80.516(2)
_cell_angle_gamma                66.907(2)
_cell_volume                     968.021
_exptl_crystal_colour            yellow
_exptl_crystal_description       prism
_cell_formula_units_Z            2
loop_
_atom_site_label
_atom_site_type_symbol
_atom_site_fract_x
_atom_site_fract_y
_atom_site_fract_z
C1 C 0.65111(17) 0.35281(16) 0.69620(14)
C2 C 0.52770(17) 0.33648(16) 0.76393(14)
C3 C 0.45851(18) 0.39555(17) 0.88693(14)
H1 H 0.348972 0.446492 0.882856
H2 H 0.500858 0.465895 0.896603
C4 C 0.48615(18) 0.27925(18) 1.00298(14)
H3 H 0.463120 0.199761 0.986782
H4 H 0.421486 0.318901 1.076841
H5 H 0.591584 0.244479 1.019749
C5 C 0.44715(17) 0.25663(17) 0.72211(14)
C6 C 0.51918(19) 0.11471(17) 0.70144(14)
H6 H 0.622657 0.066131 0.713483
C7 C 0.4416(2) 0.04334(19) 0.66344(15)
H7 H 0.492051 -0.053549 0.650075
C8 C 0.2911(2) 0.11301(19) 0.64502(15)
H8 H 0.238364 0.064563 0.618046
C9 C 0.21778(19) 0.25334(19) 0.66601(14)
H9 H 0.114321 0.301448 0.653718
C10 C 0.29489(18) 0.32410(18) 0.70498(14)
H10 H 0.243087 0.420198 0.720270
C11 C 0.73510(17) 0.42954(16) 0.73706(14)
C12 C 0.79254(17) 0.39321(17) 0.85461(14)
H11 H 0.775958 0.318076 0.914287
C13 C 0.87357(17) 0.46531(17) 0.88559(14)
H12 H 0.912604 0.438571 0.965839
C14 C 0.89794(19) 0.57574(18) 0.80061(15)
H13 H 0.952679 0.625525 0.822348
C15 C 0.8416(2) 0.61309(19) 0.68326(16)
H14 H 0.857412 0.689151 0.624410
C16 C 0.76254(19) 0.54008(18) 0.65158(15)
H15 H 0.726241 0.565519 0.570267
C17 C 0.71578(17) 0.29832(16) 0.57252(14)
C18 C 0.86980(17) 0.22211(16) 0.55390(14)
H16 H 0.930530 0.204827 0.620372
C19 C 0.93625(18) 0.17108(16) 0.44076(14)
H17 H 1.041118 0.117342 0.430873
C20 C 0.84921(17) 0.19857(16) 0.34132(14)
C21 C 0.69545(18) 0.27582(16) 0.35773(14)
H18 H 0.635388 0.295218 0.290295
C22 C 0.62969(18) 0.32454(16) 0.47212(14)
H19 H 0.524479 0.376568 0.482517
C23 C 0.91630(17) 0.14426(16) 0.21844(14)
C24 C 1.13987(18) 0.00069(18) 0.10686(14)
H20 H 1.072156 -0.032361 0.073582
H21 H 1.230252 -0.084014 0.130363
C25 C 1.1853(2) 0.1028(2) 0.00510(17)
H22 H 1.095373 0.178798 -0.028264
H23 H 1.248539 0.051342 -0.063701
H24 H 1.241645 0.145134 0.040774
O1 O 0.84657(13) 0.16634(12) 0.12865(10)
O2 O 1.06396(12) 0.06676(11) 0.21937(9)
loop_
_geom_bond_atom_site_label_1
_geom_bond_atom_site_label_2
_geom_bond_site_symmetry_1
_geom_bond_site_symmetry_2
C1 C2 1_555 1_555
C2 C3 1_555 1_555
C3 H1 1_555 1_555
H2 C3 1_555 1_555
C4 C3 1_555 1_555
H3 C4 1_555 1_555
H4 C4 1_555 1_555
H5 C4 1_555 1_555
C5 C2 1_555 1_555
C6 C5 1_555 1_555
H6 C6 1_555 1_555
C7 C6 1_555 1_555
H7 C7 1_555 1_555
C8 C7 1_555 1_555
H8 C8 1_555 1_555
C9 C8 1_555 1_555
H9 C9 1_555 1_555
C10 C5 1_555 1_555
H10 C10 1_555 1_555
C11 C1 1_555 1_555
C12 C11 1_555 1_555
H11 C12 1_555 1_555
C13 C12 1_555 1_555
H12 C13 1_555 1_555
C14 C13 1_555 1_555
H13 C14 1_555 1_555
C15 C14 1_555 1_555
H14 C15 1_555 1_555
C16 C11 1_555 1_555
H15 C16 1_555 1_555
C17 C1 1_555 1_555
C18 C17 1_555 1_555
H16 C18 1_555 1_555
C19 C18 1_555 1_555
H17 C19 1_555 1_555
C20 C19 1_555 1_555
C21 C20 1_555 1_555
H18 C21 1_555 1_555
C22 C17 1_555 1_555
H19 C22 1_555 1_555
C23 C20 1_555 1_555
C24 H20 1_555 1_555
H21 C24 1_555 1_555
C25 C24 1_555 1_555
H22 C25 1_555 1_555
H23 C25 1_555 1_555
H24 C25 1_555 1_555
O1 C23 1_555 1_555
O2 C23 1_555 1_555
C9 C10 1_555 1_555
C15 C16 1_555 1_555
C21 C22 1_555 1_555
C24 O2 1_555 1_555

#END
