
#######################################################################
#
#                 Cambridge Crystallographic Data Centre
#                                CCDC 
#
#######################################################################
#
# If this CIF has been generated from an entry in the Cambridge 
# Structural Database, then it will include bibliographic, chemical, 
# crystal, experimental, refinement or atomic coordinate data resulting 
# from the CCDC's data processing and validation procedures.
#
#######################################################################

data_TEHFAN
_chemical_formula_moiety         'C2 H1 N4 O3 1-,C2 H7 N4 1+'
_chemical_name_systematic        
'2-Azidoethylammonium 3-nitro-1,2,4-triazol-5-onate'
_symmetry_cell_setting           monoclinic
_symmetry_space_group_name_H-M   'P 21/c'
_symmetry_Int_Tables_number      14
_space_group_name_Hall           '-P 2ybc'
loop_
_symmetry_equiv_pos_site_id
_symmetry_equiv_pos_as_xyz
1 x,y,z
2 -x,1/2+y,1/2-z
3 -x,-y,-z
4 x,1/2-y,1/2+z
_cell_length_a                   11.364(2)
_cell_length_b                   8.485(2)
_cell_length_c                   9.868(2)
_cell_angle_alpha                90
_cell_angle_beta                 109.24(3)
_cell_angle_gamma                90
_cell_volume                     898.363
_exptl_crystal_colour            'pale yellow'
_cell_formula_units_Z            4
loop_
_atom_site_label
_atom_site_type_symbol
_atom_site_fract_x
_atom_site_fract_y
_atom_site_fract_z
N1 N 0.8698(4) 0.0668(5) 0.5393(4)
N2 N 0.9187(4) -0.1698(5) 0.6313(4)
N3 N 0.8548(4) -0.1971(5) 0.4900(4)
N4 N 0.7632(4) -0.0224(6) 0.2950(5)
O1 O 0.9870(3) 0.0408(4) 0.7854(3)
O2 O 0.7121(4) -0.1335(5) 0.2191(4)
O3 O 0.7654(4) 0.1121(5) 0.2512(4)
C1 C 0.9291(5) -0.0132(6) 0.6607(5)
C2 C 0.8294(4) -0.0520(6) 0.4462(5)
H5 H 0.9427 -0.2602 0.6821
N5 N 0.8306(4) 0.0998(6) -0.0506(5)
N6 N 0.5843(5) 0.2438(6) -0.0988(6)
N7 N 0.5191(5) 0.2833(6) -0.0280(6)
N8 N 0.4617(6) 0.3363(8) 0.0346(7)
C3 C 0.7122(5) 0.0431(7) -0.1560(6)
C4 C 0.6017(5) 0.0749(7) -0.1088(6)
H1 H 0.6992 0.0962 -0.2457
H2 H 0.7187 -0.0683 -0.1691
H3 H 0.6152 0.0268 -0.0168
H4 H 0.5287 0.0304 -0.1777
H6 H 0.8545(60) 0.0601(80) 0.0346(76)
H7 H 0.8251(61) 0.2060(82) -0.0345(67)
H8 H 0.8905(67) 0.0788(83) -0.0774(68)
loop_
_geom_bond_atom_site_label_1
_geom_bond_atom_site_label_2
_geom_bond_site_symmetry_1
_geom_bond_site_symmetry_2
N1 C1 1_555 1_555
N2 N3 1_555 1_555
N3 C2 1_555 1_555
N4 O2 1_555 1_555
N5 C3 1_555 1_555
N6 N7 1_555 1_555
N7 N8 1_555 1_555
O1 C1 1_555 1_555
O3 N4 1_555 1_555
C1 N2 1_555 1_555
C2 N1 1_555 1_555
C3 C4 1_555 1_555
C4 N6 1_555 1_555
H1 C3 1_555 1_555
H2 C3 1_555 1_555
H3 C4 1_555 1_555
H4 C4 1_555 1_555
H5 N2 1_555 1_555
H6 N5 1_555 1_555
H7 N5 1_555 1_555
H8 N5 1_555 1_555
N4 C2 1_555 1_555

#END
