
#######################################################################
#
#                 Cambridge Crystallographic Data Centre
#                                CCDC 
#
#######################################################################
#
# If this CIF has been generated from an entry in the Cambridge 
# Structural Database, then it will include bibliographic, chemical, 
# crystal, experimental, refinement or atomic coordinate data resulting 
# from the CCDC's data processing and validation procedures.
#
#######################################################################

data_TEHFAQ01
_chemical_name_common            gene824
_chemical_formula_moiety         'C22 H19 F1'
_chemical_name_systematic        
1,1'-[1-(4-fluorophenyl)but-1-ene-1,2-diyl]dibenzene
_symmetry_cell_setting           monoclinic
_symmetry_space_group_name_H-M   'P 21/n'
_symmetry_Int_Tables_number      14
_space_group_name_Hall           '-P 2yn'
loop_
_symmetry_equiv_pos_site_id
_symmetry_equiv_pos_as_xyz
1 x,y,z
2 1/2-x,1/2+y,1/2-z
3 -x,-y,-z
4 1/2+x,1/2-y,1/2+z
_cell_length_a                   10.1038(7)
_cell_length_b                   8.9144(7)
_cell_length_c                   18.5125(12)
_cell_angle_alpha                90
_cell_angle_beta                 95.222(5)
_cell_angle_gamma                90
_cell_volume                     1660.49
_exptl_crystal_colour            colorless
_exptl_crystal_description       prism
_cell_formula_units_Z            4
loop_
_atom_site_label
_atom_site_type_symbol
_atom_site_fract_x
_atom_site_fract_y
_atom_site_fract_z
C1 C 0.6775(3) 0.4384(5) 0.38437(17)
C2 C 0.5488(3) 0.4719(5) 0.36550(17)
C3 C 0.4372(3) 0.3600(6) 0.36924(18)
H1 H 0.475794 0.261724 0.384659
H2 H 0.391377 0.347286 0.320041
C4 C 0.3338(4) 0.4052(6) 0.42163(19)
H3 H 0.378348 0.419592 0.470414
H4 H 0.266933 0.325862 0.422823
H5 H 0.290512 0.498937 0.404945
C5 C 0.5075(3) 0.6236(6) 0.33715(18)
C6 C 0.5495(3) 0.7552(6) 0.37262(19)
H6 H 0.606063 0.748982 0.416417
C7 C 0.5112(4) 0.8944(6) 0.3458(2)
H7 H 0.541557 0.982455 0.371059
C8 C 0.4287(4) 0.9060(7) 0.2823(3)
H8 H 0.401997 1.001694 0.263773
C9 C 0.3859(4) 0.7780(9) 0.2464(2)
H9 H 0.329774 0.785968 0.202476
C10 C 0.4230(4) 0.6363(7) 0.2730(2)
H10 H 0.391231 0.548769 0.247735
C11 C 0.7229(3) 0.2907(5) 0.41662(17)
C12 C 0.6701(3) 0.2278(5) 0.47696(18)
H11 H 0.601876 0.279341 0.498903
C13 C 0.7158(4) 0.0912(5) 0.50529(19)
H12 H 0.678967 0.050674 0.546476
C14 C 0.8145(4) 0.0138(6) 0.4741(2)
H13 H 0.844352 -0.080813 0.492764
C15 C 0.8697(4) 0.0768(5) 0.4146(2)
H14 H 0.938014 0.024901 0.392877
C16 C 0.8259(3) 0.2139(5) 0.38706(18)
H15 H 0.866227 0.256605 0.347474
C17 C 0.7881(3) 0.5424(5) 0.37094(17)
C18 C 0.8859(3) 0.5786(5) 0.42592(17)
H16 H 0.880826 0.537456 0.472930
C19 C 0.9904(3) 0.6728(5) 0.41398(18)
H17 H 1.056882 0.696540 0.451902
C20 C 0.9952(3) 0.7308(5) 0.34565(19)
C21 C 0.9015(4) 0.6980(5) 0.28935(18)
H18 H 0.907960 0.739606 0.242567
C22 C 0.7981(3) 0.6039(5) 0.30187(17)
H19 H 0.732782 0.580265 0.263352
F1 F 1.0980(2) 0.8247(3) 0.33338(12)
loop_
_geom_bond_atom_site_label_1
_geom_bond_atom_site_label_2
_geom_bond_site_symmetry_1
_geom_bond_site_symmetry_2
C1 C2 1_555 1_555
C2 C3 1_555 1_555
C3 H1 1_555 1_555
H2 C3 1_555 1_555
C4 C3 1_555 1_555
H3 C4 1_555 1_555
H4 C4 1_555 1_555
H5 C4 1_555 1_555
C5 C2 1_555 1_555
C6 C5 1_555 1_555
H6 C6 1_555 1_555
C7 C6 1_555 1_555
H7 C7 1_555 1_555
C8 C7 1_555 1_555
H8 C8 1_555 1_555
C9 C8 1_555 1_555
H9 C9 1_555 1_555
C10 C5 1_555 1_555
H10 C10 1_555 1_555
C11 C1 1_555 1_555
C12 C11 1_555 1_555
H11 C12 1_555 1_555
C13 C12 1_555 1_555
H12 C13 1_555 1_555
C14 C13 1_555 1_555
H13 C14 1_555 1_555
C15 C14 1_555 1_555
H14 C15 1_555 1_555
C16 C11 1_555 1_555
H15 C16 1_555 1_555
C17 C1 1_555 1_555
C18 C17 1_555 1_555
H16 C18 1_555 1_555
C19 C18 1_555 1_555
H17 C19 1_555 1_555
C20 C19 1_555 1_555
C21 C20 1_555 1_555
H18 C21 1_555 1_555
C22 C17 1_555 1_555
H19 C22 1_555 1_555
F1 C20 1_555 1_555
C9 C10 1_555 1_555
C15 C16 1_555 1_555
C21 C22 1_555 1_555

#END
