
#######################################################################
#
#                 Cambridge Crystallographic Data Centre
#                                CCDC 
#
#######################################################################
#
# If this CIF has been generated from an entry in the Cambridge 
# Structural Database, then it will include bibliographic, chemical, 
# crystal, experimental, refinement or atomic coordinate data resulting 
# from the CCDC's data processing and validation procedures.
#
#######################################################################

data_TEHGOF
_chemical_name_common            gene918
_chemical_formula_moiety         'C22 H18 F2'
_chemical_name_systematic        
1,1'-(1-phenylbut-1-ene-1,2-diyl)bis(4-fluorobenzene)
_symmetry_cell_setting           monoclinic
_symmetry_space_group_name_H-M   'P 21/c'
_symmetry_Int_Tables_number      14
_space_group_name_Hall           '-P 2ybc'
loop_
_symmetry_equiv_pos_site_id
_symmetry_equiv_pos_as_xyz
1 x,y,z
2 -x,1/2+y,1/2-z
3 -x,-y,-z
4 x,1/2-y,1/2+z
_cell_length_a                   9.3346(4)
_cell_length_b                   10.3434(4)
_cell_length_c                   17.6498(7)
_cell_angle_alpha                90
_cell_angle_beta                 99.825(2)
_cell_angle_gamma                90
_cell_volume                     1679.12
_exptl_crystal_colour            colorless
_exptl_crystal_description       prism
_cell_formula_units_Z            4
loop_
_atom_site_label
_atom_site_type_symbol
_atom_site_fract_x
_atom_site_fract_y
_atom_site_fract_z
C1 C 0.62043(17) 0.40223(15) 0.35201(9)
C2 C 0.58764(17) 0.34539(15) 0.41535(9)
C3 C 0.69327(18) 0.33799(16) 0.49071(9)
H1 H 0.643451 0.366034 0.533142
H2 H 0.775280 0.397917 0.488820
C4 C 0.75267(19) 0.20052(17) 0.50713(10)
H3 H 0.671435 0.139967 0.505398
H4 H 0.813375 0.197834 0.558209
H5 H 0.811114 0.176045 0.468244
C5 C 0.44408(17) 0.28025(15) 0.41508(9)
C6 C 0.39520(17) 0.18163(16) 0.36308(9)
H6 H 0.453034 0.156768 0.326155
C7 C 0.26377(17) 0.11895(16) 0.36411(10)
H7 H 0.231705 0.051567 0.328677
C8 C 0.18156(17) 0.15697(16) 0.41766(10)
C9 C 0.22407(18) 0.25364(17) 0.47011(9)
H8 H 0.164515 0.278192 0.506290
C10 C 0.35630(18) 0.31456(16) 0.46889(9)
H9 H 0.387845 0.380755 0.505230
C11 C 0.51534(16) 0.41297(15) 0.27793(9)
C12 C 0.55178(18) 0.36173(16) 0.21046(9)
H10 H 0.641501 0.317542 0.212189
C13 C 0.45775(19) 0.37493(16) 0.14089(10)
H11 H 0.482840 0.338993 0.095374
C14 C 0.32788(19) 0.44019(16) 0.13777(10)
H12 H 0.263355 0.448364 0.090192
C15 C 0.29149(18) 0.49367(16) 0.20369(10)
H13 H 0.202799 0.539724 0.201388
C16 C 0.38522(17) 0.47977(16) 0.27335(9)
H14 H 0.359815 0.516578 0.318562
C17 C 0.76292(17) 0.46641(16) 0.34850(9)
C18 C 0.89143(18) 0.39810(17) 0.34832(10)
H15 H 0.891910 0.306769 0.354079
C19 C 1.01897(18) 0.46155(17) 0.33985(11)
H16 H 1.106469 0.414690 0.339736
C20 C 1.01551(17) 0.59341(16) 0.33164(9)
C21 C 0.89181(18) 0.66497(16) 0.33178(9)
H17 H 0.892859 0.756387 0.326736
C22 C 0.76545(18) 0.60005(16) 0.33948(9)
H18 H 0.678292 0.647869 0.338588
F1 F 0.05227(10) 0.09594(10) 0.41861(6)
F2 F 1.13965(10) 0.65670(9) 0.32246(6)
loop_
_geom_bond_atom_site_label_1
_geom_bond_atom_site_label_2
_geom_bond_site_symmetry_1
_geom_bond_site_symmetry_2
C1 C2 1_555 1_555
C2 C3 1_555 1_555
C3 H1 1_555 1_555
H2 C3 1_555 1_555
C4 C3 1_555 1_555
H3 C4 1_555 1_555
H4 C4 1_555 1_555
H5 C4 1_555 1_555
C5 C2 1_555 1_555
C6 C5 1_555 1_555
H6 C6 1_555 1_555
C7 C6 1_555 1_555
H7 C7 1_555 1_555
C8 C7 1_555 1_555
C9 C8 1_555 1_555
H8 C9 1_555 1_555
C10 C5 1_555 1_555
H9 C10 1_555 1_555
C11 C1 1_555 1_555
C12 C11 1_555 1_555
H10 C12 1_555 1_555
C13 C12 1_555 1_555
H11 C13 1_555 1_555
C14 C13 1_555 1_555
H12 C14 1_555 1_555
C15 C14 1_555 1_555
H13 C15 1_555 1_555
C16 C11 1_555 1_555
H14 C16 1_555 1_555
C17 C1 1_555 1_555
C18 C17 1_555 1_555
H15 C18 1_555 1_555
C19 C18 1_555 1_555
H16 C19 1_555 1_555
C20 C19 1_555 1_555
C21 C20 1_555 1_555
H17 C21 1_555 1_555
C22 C17 1_555 1_555
H18 C22 1_555 1_555
F1 C8 1_555 1_555
F2 C20 1_555 1_555
C9 C10 1_555 1_555
C15 C16 1_555 1_555
C21 C22 1_555 1_555

#END
