
#######################################################################
#
#                 Cambridge Crystallographic Data Centre
#                                CCDC 
#
#######################################################################
#
# If this CIF has been generated from an entry in the Cambridge 
# Structural Database, then it will include bibliographic, chemical, 
# crystal, experimental, refinement or atomic coordinate data resulting 
# from the CCDC's data processing and validation procedures.
#
#######################################################################

data_TEHHAS
_chemical_name_common            gene959
_chemical_formula_moiety         'C25 H23 F1 O2'
_chemical_name_systematic        
'ethyl 4-[1-(4-fluorophenyl)-1-phenylbut-1-en-2-yl]benzoate'
_symmetry_cell_setting           orthorhombic
_symmetry_space_group_name_H-M   'P b c a'
_symmetry_Int_Tables_number      61
_space_group_name_Hall           '-P 2ac 2ab'
loop_
_symmetry_equiv_pos_site_id
_symmetry_equiv_pos_as_xyz
1 x,y,z
2 1/2-x,-y,1/2+z
3 -x,1/2+y,1/2-z
4 1/2+x,1/2-y,-z
5 -x,-y,-z
6 1/2+x,y,1/2-z
7 x,1/2-y,1/2+z
8 1/2-x,1/2+y,z
_cell_length_a                   10.6254(10)
_cell_length_b                   17.428(2)
_cell_length_c                   21.959(2)
_cell_angle_alpha                90
_cell_angle_beta                 90
_cell_angle_gamma                90
_cell_volume                     4066.36
_exptl_crystal_colour            colorless
_exptl_crystal_description       block
_cell_formula_units_Z            8
loop_
_atom_site_label
_atom_site_type_symbol
_atom_site_fract_x
_atom_site_fract_y
_atom_site_fract_z
C1 C 0.5910(2) 0.64745(14) 0.55570(11)
C2 C 0.6505(2) 0.58064(14) 0.54344(11)
C3 C 0.6586(2) 0.51292(15) 0.58669(12)
H1 H 0.631553 0.465917 0.565024
H2 H 0.599947 0.521325 0.621065
C4 C 0.7912(3) 0.50071(17) 0.61180(13)
H3 H 0.851068 0.497103 0.577955
H4 H 0.793578 0.453145 0.635576
H5 H 0.814147 0.544062 0.637980
C5 C 0.7138(2) 0.56746(14) 0.48326(11)
C6 C 0.8137(2) 0.61303(14) 0.46403(11)
H6 H 0.842884 0.653385 0.489470
C7 C 0.8715(2) 0.60035(15) 0.40814(11)
H7 H 0.940403 0.631464 0.395878
C8 C 0.8285(2) 0.54211(14) 0.37015(11)
C9 C 0.7292(2) 0.49584(14) 0.38901(11)
H8 H 0.699443 0.455975 0.363271
C10 C 0.6738(2) 0.50782(14) 0.44527(11)
H9 H 0.607674 0.475029 0.458280
C11 C 0.8805(2) 0.52923(16) 0.30826(12)
C12 C 1.0278(3) 0.57234(19) 0.23454(13)
H10 H 0.960671 0.575356 0.203367
H11 H 1.072429 0.522837 0.229826
C13 C 1.1174(3) 0.63761(19) 0.22755(14)
H12 H 1.073662 0.685937 0.236113
H13 H 1.149909 0.638480 0.185801
H14 H 1.187418 0.631305 0.256151
C14 C 0.5812(2) 0.71017(14) 0.50949(11)
C15 C 0.6301(2) 0.78260(15) 0.52203(12)
H15 H 0.670482 0.791512 0.559964
C16 C 0.6208(2) 0.84228(16) 0.48002(13)
H16 H 0.656759 0.890914 0.488941
C17 C 0.5591(3) 0.83053(16) 0.42524(13)
H17 H 0.552701 0.871035 0.396459
C18 C 0.5071(2) 0.75971(17) 0.41262(12)
H18 H 0.463330 0.751839 0.375412
C19 C 0.5183(2) 0.69995(15) 0.45406(12)
H19 H 0.482797 0.651350 0.444657
C20 C 0.5259(2) 0.66404(14) 0.61458(11)
C21 C 0.5801(2) 0.64961(15) 0.67131(11)
H20 H 0.662300 0.628365 0.673291
C22 C 0.5162(2) 0.66569(16) 0.72481(12)
H21 H 0.553543 0.655471 0.763261
C23 C 0.3981(2) 0.69660(15) 0.72107(11)
C24 C 0.3405(2) 0.71254(15) 0.66680(12)
H22 H 0.258423 0.734127 0.665665
C25 C 0.4054(2) 0.69628(14) 0.61338(11)
H23 H 0.367111 0.707287 0.575270
O1 O 0.84209(18) 0.48182(12) 0.27268(9)
O2 O 0.97418(16) 0.57854(11) 0.29530(8)
F1 F 0.33688(14) 0.71413(10) 0.77384(7)
loop_
_geom_bond_atom_site_label_1
_geom_bond_atom_site_label_2
_geom_bond_site_symmetry_1
_geom_bond_site_symmetry_2
C1 C2 1_555 1_555
C2 C3 1_555 1_555
C3 H1 1_555 1_555
H2 C3 1_555 1_555
C4 C3 1_555 1_555
H3 C4 1_555 1_555
H4 C4 1_555 1_555
H5 C4 1_555 1_555
C5 C2 1_555 1_555
C6 C5 1_555 1_555
H6 C6 1_555 1_555
C7 C6 1_555 1_555
H7 C7 1_555 1_555
C8 C7 1_555 1_555
C9 C8 1_555 1_555
H8 C9 1_555 1_555
C10 C5 1_555 1_555
H9 C10 1_555 1_555
C11 C8 1_555 1_555
C12 H10 1_555 1_555
H11 C12 1_555 1_555
C13 C12 1_555 1_555
H12 C13 1_555 1_555
H13 C13 1_555 1_555
H14 C13 1_555 1_555
C14 C1 1_555 1_555
C15 C14 1_555 1_555
H15 C15 1_555 1_555
C16 C15 1_555 1_555
H16 C16 1_555 1_555
C17 C16 1_555 1_555
H17 C17 1_555 1_555
C18 C17 1_555 1_555
H18 C18 1_555 1_555
C19 C14 1_555 1_555
H19 C19 1_555 1_555
C20 C1 1_555 1_555
C21 C20 1_555 1_555
H20 C21 1_555 1_555
C22 C21 1_555 1_555
H21 C22 1_555 1_555
C23 C22 1_555 1_555
C24 C23 1_555 1_555
H22 C24 1_555 1_555
C25 C20 1_555 1_555
H23 C25 1_555 1_555
O1 C11 1_555 1_555
O2 C11 1_555 1_555
F1 C23 1_555 1_555
C9 C10 1_555 1_555
C12 O2 1_555 1_555
C18 C19 1_555 1_555
C24 C25 1_555 1_555

#END
