
#######################################################################
#
#                 Cambridge Crystallographic Data Centre
#                                CCDC 
#
#######################################################################
#
# If this CIF has been generated from an entry in the Cambridge 
# Structural Database, then it will include bibliographic, chemical, 
# crystal, experimental, refinement or atomic coordinate data resulting 
# from the CCDC's data processing and validation procedures.
#
#######################################################################

data_TEHHEW
_chemical_name_common            gene906
_chemical_formula_moiety         'C21 H17 F1'
_chemical_name_systematic        
1,1'-[1-(4-fluorophenyl)prop-1-ene-1,2-diyl]dibenzene
_symmetry_cell_setting           monoclinic
_symmetry_space_group_name_H-M   'P 21/c'
_symmetry_Int_Tables_number      14
_space_group_name_Hall           '-P 2ybc'
loop_
_symmetry_equiv_pos_site_id
_symmetry_equiv_pos_as_xyz
1 x,y,z
2 -x,1/2+y,1/2-z
3 -x,-y,-z
4 x,1/2-y,1/2+z
_cell_length_a                   8.5739(16)
_cell_length_b                   5.6098(10)
_cell_length_c                   31.566(6)
_cell_angle_alpha                90
_cell_angle_beta                 96.311(4)
_cell_angle_gamma                90
_cell_volume                     1509.06
_exptl_crystal_colour            colorless
_exptl_crystal_description       prism
_cell_formula_units_Z            4
loop_
_atom_site_label
_atom_site_type_symbol
_atom_site_fract_x
_atom_site_fract_y
_atom_site_fract_z
C1 C 0.6298(3) 0.6856(5) 0.38483(8)
C2 C 0.5004(3) 0.7601(5) 0.40170(8)
C3 C 0.4910(4) 0.7638(6) 0.44942(9)
H1 H 0.428667 0.627696 0.457368
H2 H 0.441202 0.912320 0.457228
H3 H 0.596976 0.753675 0.464487
C4 C 0.3539(3) 0.8335(5) 0.37499(8)
C5 C 0.2871(3) 0.6821(5) 0.34298(8)
H4 H 0.338459 0.536937 0.337598
C6 C 0.1473(3) 0.7393(6) 0.31887(8)
H5 H 0.103336 0.633189 0.297329
C7 C 0.0717(3) 0.9509(6) 0.32617(9)
H6 H -0.023876 0.990586 0.309537
C8 C 0.1355(3) 1.1046(5) 0.35768(9)
H7 H 0.084580 1.250897 0.362583
C9 C 0.2750(3) 1.0435(5) 0.38220(9)
H8 H 0.316974 1.147616 0.404312
C10 C 0.6546(3) 0.7052(5) 0.33870(8)
C11 C 0.7326(3) 0.5232(5) 0.31945(9)
H9 H 0.766126 0.386101 0.335639
C12 C 0.7623(3) 0.5380(5) 0.27721(9)
H10 H 0.813892 0.410666 0.264627
C13 C 0.7168(3) 0.7380(5) 0.25339(9)
H11 H 0.738299 0.749659 0.224577
C14 C 0.6396(3) 0.9215(6) 0.27187(9)
H12 H 0.607116 1.058670 0.255580
C15 C 0.6097(3) 0.9054(5) 0.31415(9)
H13 H 0.557666 1.032960 0.326542
C16 C 0.7641(3) 0.5729(5) 0.41170(8)
C17 C 0.7464(4) 0.3573(6) 0.43272(9)
H14 H 0.645359 0.286366 0.431403
C18 C 0.8728(4) 0.2444(6) 0.45549(9)
H15 H 0.859721 0.098874 0.470078
C19 C 1.0171(4) 0.3494(6) 0.45627(9)
C20 C 1.0409(3) 0.5628(6) 0.43628(8)
H16 H 1.142248 0.633055 0.438039
C21 C 0.9133(3) 0.6716(6) 0.41362(8)
H17 H 0.927809 0.816835 0.399082
F1 F 1.1442(2) 0.2390(4) 0.47779(5)
loop_
_geom_bond_atom_site_label_1
_geom_bond_atom_site_label_2
_geom_bond_site_symmetry_1
_geom_bond_site_symmetry_2
C1 C2 1_555 1_555
C2 C3 1_555 1_555
C3 H1 1_555 1_555
H2 C3 1_555 1_555
H3 C3 1_555 1_555
C4 C2 1_555 1_555
C5 C4 1_555 1_555
H4 C5 1_555 1_555
C6 C5 1_555 1_555
H5 C6 1_555 1_555
C7 C6 1_555 1_555
H6 C7 1_555 1_555
C8 C7 1_555 1_555
H7 C8 1_555 1_555
C9 C4 1_555 1_555
H8 C9 1_555 1_555
C10 C1 1_555 1_555
C11 C10 1_555 1_555
H9 C11 1_555 1_555
C12 C11 1_555 1_555
H10 C12 1_555 1_555
C13 C12 1_555 1_555
H11 C13 1_555 1_555
C14 C13 1_555 1_555
H12 C14 1_555 1_555
C15 C10 1_555 1_555
H13 C15 1_555 1_555
C16 C1 1_555 1_555
C17 C16 1_555 1_555
H14 C17 1_555 1_555
C18 C17 1_555 1_555
H15 C18 1_555 1_555
C19 C18 1_555 1_555
C20 C19 1_555 1_555
H16 C20 1_555 1_555
C21 C16 1_555 1_555
H17 C21 1_555 1_555
F1 C19 1_555 1_555
C8 C9 1_555 1_555
C14 C15 1_555 1_555
C20 C21 1_555 1_555

#END
