
#######################################################################
#
#                 Cambridge Crystallographic Data Centre
#                                CCDC 
#
#######################################################################
#
# If this CIF has been generated from an entry in the Cambridge 
# Structural Database, then it will include bibliographic, chemical, 
# crystal, experimental, refinement or atomic coordinate data resulting 
# from the CCDC's data processing and validation procedures.
#
#######################################################################

data_TEHHIA
_chemical_name_common            gene961
_chemical_formula_moiety         'C24 H21 F1'
_chemical_name_systematic        
1,1'-[3-cyclopropyl-1-(4-fluorophenyl)prop-1-ene-1,2-diyl]dibenzene
_symmetry_cell_setting           triclinic
_symmetry_space_group_name_H-M   'P -1'
_symmetry_Int_Tables_number      2
_space_group_name_Hall           '-P 1'
loop_
_symmetry_equiv_pos_site_id
_symmetry_equiv_pos_as_xyz
1 x,y,z
2 -x,-y,-z
_cell_length_a                   9.4458(4)
_cell_length_b                   9.8045(4)
_cell_length_c                   10.2876(4)
_cell_angle_alpha                74.2220(10)
_cell_angle_beta                 80.9000(10)
_cell_angle_gamma                76.8520(10)
_cell_volume                     888.089
_exptl_crystal_colour            colorless
_exptl_crystal_description       block
_cell_formula_units_Z            2
loop_
_atom_site_label
_atom_site_type_symbol
_atom_site_fract_x
_atom_site_fract_y
_atom_site_fract_z
C1 C 0.47106(16) 0.62105(16) 0.71522(15)
C2 C 0.45531(16) 0.48636(16) 0.71920(14)
C3 C 0.56971(16) 0.37999(16) 0.65665(15)
H1 H 0.525081 0.349372 0.591095
H2 H 0.649788 0.428997 0.605822
C4 C 0.63288(17) 0.24770(17) 0.76097(16)
H3 H 0.672339 0.267132 0.837399
C5 C 0.56582(18) 0.11531(17) 0.79667(18)
H4 H 0.562284 0.058379 0.892312
H5 H 0.481721 0.118347 0.748755
C6 C 0.71254(19) 0.11470(18) 0.71599(19)
H6 H 0.718771 0.117268 0.618410
H7 H 0.799321 0.057309 0.761945
C7 C 0.32134(16) 0.42934(15) 0.78657(15)
C8 C 0.28041(18) 0.41546(17) 0.92513(16)
H8 H 0.337082 0.444918 0.977231
C9 C 0.15783(19) 0.35907(19) 0.98762(17)
H9 H 0.131371 0.349980 1.082163
C10 C 0.07371(18) 0.31593(18) 0.91331(17)
H10 H -0.010742 0.278252 0.956386
C11 C 0.11334(17) 0.32801(16) 0.77602(16)
H11 H 0.056087 0.298537 0.724462
C12 C 0.23674(17) 0.38317(16) 0.71352(16)
H12 H 0.264094 0.389618 0.619440
C13 C 0.34778(16) 0.73021(16) 0.76017(14)
C14 C 0.36896(17) 0.81230(16) 0.84442(15)
H13 H 0.461872 0.796862 0.876078
C15 C 0.25530(17) 0.91658(17) 0.88254(16)
H14 H 0.270705 0.971230 0.940629
C16 C 0.11966(17) 0.94085(16) 0.83589(15)
H15 H 0.041852 1.011539 0.862399
C17 C 0.09810(17) 0.86145(16) 0.75035(16)
H16 H 0.005584 0.878410 0.717481
C18 C 0.21116(16) 0.75751(16) 0.71276(15)
H17 H 0.195448 0.703979 0.653800
C19 C 0.60803(16) 0.67666(16) 0.65583(15)
C20 C 0.74561(17) 0.60079(17) 0.69234(15)
H18 H 0.753314 0.512275 0.760084
C21 C 0.87151(17) 0.65239(17) 0.63138(16)
H19 H 0.964869 0.599937 0.656503
C22 C 0.85827(17) 0.78081(17) 0.53402(15)
C23 C 0.72493(17) 0.86137(16) 0.49615(15)
H20 H 0.718551 0.950426 0.429202
C24 C 0.60036(17) 0.80873(16) 0.55855(15)
H21 H 0.507395 0.863670 0.534703
F1 F 0.98185(10) 0.82926(11) 0.47264(10)
loop_
_geom_bond_atom_site_label_1
_geom_bond_atom_site_label_2
_geom_bond_site_symmetry_1
_geom_bond_site_symmetry_2
C1 C2 1_555 1_555
C2 C3 1_555 1_555
C3 H1 1_555 1_555
H2 C3 1_555 1_555
C4 C3 1_555 1_555
H3 C4 1_555 1_555
C5 C4 1_555 1_555
H4 C5 1_555 1_555
H5 C5 1_555 1_555
C6 C4 1_555 1_555
H6 C6 1_555 1_555
H7 C6 1_555 1_555
C7 C2 1_555 1_555
C8 C7 1_555 1_555
H8 C8 1_555 1_555
C9 C8 1_555 1_555
H9 C9 1_555 1_555
C10 C9 1_555 1_555
H10 C10 1_555 1_555
C11 C10 1_555 1_555
H11 C11 1_555 1_555
C12 C7 1_555 1_555
H12 C12 1_555 1_555
C13 C1 1_555 1_555
C14 C13 1_555 1_555
H13 C14 1_555 1_555
C15 C14 1_555 1_555
H14 C15 1_555 1_555
C16 C15 1_555 1_555
H15 C16 1_555 1_555
C17 C16 1_555 1_555
H16 C17 1_555 1_555
C18 C13 1_555 1_555
H17 C18 1_555 1_555
C19 C1 1_555 1_555
C20 C19 1_555 1_555
H18 C20 1_555 1_555
C21 C20 1_555 1_555
H19 C21 1_555 1_555
C22 C21 1_555 1_555
C23 C22 1_555 1_555
H20 C23 1_555 1_555
C24 C19 1_555 1_555
H21 C24 1_555 1_555
F1 C22 1_555 1_555
C5 C6 1_555 1_555
C11 C12 1_555 1_555
C17 C18 1_555 1_555
C23 C24 1_555 1_555

#END
