
#######################################################################
#
#                 Cambridge Crystallographic Data Centre
#                                CCDC 
#
#######################################################################
#
# If this CIF has been generated from an entry in the Cambridge 
# Structural Database, then it will include bibliographic, chemical, 
# crystal, experimental, refinement or atomic coordinate data resulting 
# from the CCDC's data processing and validation procedures.
#
#######################################################################

data_TEHLOJ
_chemical_formula_moiety         'C22 H24 N4 O2'
_chemical_name_systematic        
2,5-bis((2-Anilinoethyl)amino)-1,4-benzoquinone
_symmetry_cell_setting           orthorhombic
_symmetry_space_group_name_H-M   'P b c a'
_symmetry_Int_Tables_number      61
_space_group_name_Hall           '-P 2ac 2ab'
loop_
_symmetry_equiv_pos_site_id
_symmetry_equiv_pos_as_xyz
1 x,y,z
2 1/2-x,-y,1/2+z
3 1/2+x,1/2-y,-z
4 -x,1/2+y,1/2-z
5 -x,-y,-z
6 1/2+x,y,1/2-z
7 1/2-x,1/2+y,z
8 x,1/2-y,1/2+z
_cell_length_a                   7.729(6)
_cell_length_b                   7.928(6)
_cell_length_c                   31.60(2)
_cell_angle_alpha                90
_cell_angle_beta                 90
_cell_angle_gamma                90
_cell_volume                     1936.31
_exptl_crystal_colour            red
_exptl_crystal_description       block
_cell_formula_units_Z            4
loop_
_atom_site_label
_atom_site_type_symbol
_atom_site_fract_x
_atom_site_fract_y
_atom_site_fract_z
N1 N 0.7198(4) 0.6031(4) 0.04669(10)
N2 N 0.4592(5) 0.5434(6) 0.11496(12)
O1 O 0.6765(3) 0.4538(4) -0.02727(8)
C1 C 0.8279(6) 0.4710(5) -0.01608(12)
C2 C 0.9713(5) 0.4153(5) -0.03954(12)
H1 H 0.9533 0.3596 -0.0651
C3 C 0.8625(5) 0.5585(5) 0.02561(12)
C4 C 0.7258(5) 0.6794(5) 0.08822(13)
H2 H 0.7800 0.7894 0.0862
H3 H 0.7961 0.6100 0.1068
C5 C 0.5479(5) 0.6985(6) 0.10706(13)
H4 H 0.5579 0.7598 0.1335
H5 H 0.4781 0.7663 0.0880
C6 C 0.4872(5) 0.4415(6) 0.14972(14)
C7 C 0.3881(6) 0.2984(7) 0.15452(16)
H6 H 0.3054 0.2718 0.1342
C8 C 0.4096(7) 0.1955(7) 0.1885(2)
H7 H 0.3424 0.0988 0.1912
C9 C 0.5301(8) 0.2336(8) 0.21908(17)
H8 H 0.5428 0.1645 0.2427
C10 C 0.6296(6) 0.3721(7) 0.21458(15)
H9 H 0.7128 0.3968 0.2349
C11 C 0.6100(5) 0.4771(6) 0.18039(14)
H10 H 0.6793 0.5724 0.1778
H11 H 0.387(4) 0.504(5) 0.0949(9)
H12 H 0.619(3) 0.580(5) 0.0341(10)
N1D N 1.2802(4) 0.3969(4) -0.04669(10)
N2D N 1.5408(5) 0.4566(6) -0.11496(12)
O1D O 1.3235(3) 0.5462(4) 0.02727(8)
C1D C 1.1721(6) 0.5290(5) 0.01608(12)
C2D C 1.0287(5) 0.5847(5) 0.03954(12)
H1D H 1.0467 0.6404 0.0651
C3D C 1.1375(5) 0.4415(5) -0.02561(12)
C4D C 1.2742(5) 0.3206(5) -0.08822(13)
H2D H 1.2200 0.2106 -0.0862
H3D H 1.2039 0.3900 -0.1068
C5D C 1.4521(5) 0.3015(6) -0.10706(13)
H4D H 1.4421 0.2402 -0.1335
H5D H 1.5219 0.2337 -0.0880
C6D C 1.5128(5) 0.5585(6) -0.14972(14)
C7D C 1.6119(6) 0.7016(7) -0.15452(16)
H6D H 1.6946 0.7282 -0.1342
C8D C 1.5904(7) 0.8045(7) -0.1885(2)
H7D H 1.6576 0.9012 -0.1912
C9D C 1.4699(8) 0.7664(8) -0.21908(17)
H8D H 1.4572 0.8355 -0.2427
C10D C 1.3704(6) 0.6279(7) -0.21458(15)
H9D H 1.2872 0.6032 -0.2349
C11D C 1.3900(5) 0.5229(6) -0.18039(14)
H10D H 1.3207 0.4276 -0.1778
H11D H 1.613(4) 0.496(5) -0.0949(9)
H12D H 1.381(3) 0.420(5) -0.0341(10)
loop_
_geom_bond_atom_site_label_1
_geom_bond_atom_site_label_2
_geom_bond_site_symmetry_1
_geom_bond_site_symmetry_2
N1 C3 1_555 1_555
N2 C5 1_555 1_555
O1 C1 1_555 1_555
C1 C2 1_555 1_555
C2 H1 1_555 1_555
C3 C1 1_555 1_555
C4 N1 1_555 1_555
H2 C4 1_555 1_555
H3 C4 1_555 1_555
C5 C4 1_555 1_555
H4 C5 1_555 1_555
H5 C5 1_555 1_555
C6 N2 1_555 1_555
C7 C6 1_555 1_555
H6 C7 1_555 1_555
C8 C7 1_555 1_555
H7 C8 1_555 1_555
C9 C8 1_555 1_555
H8 C9 1_555 1_555
C10 C9 1_555 1_555
H9 C10 1_555 1_555
C11 C6 1_555 1_555
H10 C11 1_555 1_555
H11 N2 1_555 1_555
H12 N1 1_555 1_555
N1D C3D 1_555 1_555
N2D C5D 1_555 1_555
O1D C1D 1_555 1_555
C1D C2D 1_555 1_555
C2D C3 1_555 1_555
H1D C2D 1_555 1_555
C3D C2 1_555 1_555
C4D N1D 1_555 1_555
H2D C4D 1_555 1_555
H3D C4D 1_555 1_555
C5D C4D 1_555 1_555
H4D C5D 1_555 1_555
H5D C5D 1_555 1_555
C6D N2D 1_555 1_555
C7D C6D 1_555 1_555
H6D C7D 1_555 1_555
C8D C7D 1_555 1_555
H7D C8D 1_555 1_555
C9D C8D 1_555 1_555
H8D C9D 1_555 1_555
C10D C9D 1_555 1_555
H9D C10D 1_555 1_555
C11D C6D 1_555 1_555
H10D C11D 1_555 1_555
H11D N2D 1_555 1_555
H12D N1D 1_555 1_555
C10 C11 1_555 1_555
C1D C3D 1_555 1_555
C10D C11D 1_555 1_555

#END
