
#######################################################################
#
#                 Cambridge Crystallographic Data Centre
#                                CCDC 
#
#######################################################################
#
# If this CIF has been generated from an entry in the Cambridge 
# Structural Database, then it will include bibliographic, chemical, 
# crystal, experimental, refinement or atomic coordinate data resulting 
# from the CCDC's data processing and validation procedures.
#
#######################################################################

data_TEHNEB
_chemical_formula_moiety         'C20 H11 Cl1 N2 O3,C3 H7 N1 O1'
_chemical_name_systematic        
'2-Amino-4-(4-chlorophenyl)-5,10-dioxo-5,10-dihydro-4H-benzo[g]chromene-3-carbonitrile dimethylformamide solvate'
_symmetry_cell_setting           monoclinic
_symmetry_space_group_name_H-M   'P 21/c'
_symmetry_Int_Tables_number      14
_space_group_name_Hall           '-P 2ybc'
loop_
_symmetry_equiv_pos_site_id
_symmetry_equiv_pos_as_xyz
1 x,y,z
2 -x,1/2+y,1/2-z
3 -x,-y,-z
4 x,1/2-y,1/2+z
_cell_length_a                   6.2786(11)
_cell_length_b                   11.981(2)
_cell_length_c                   27.549(5)
_cell_angle_alpha                90
_cell_angle_beta                 94.812(3)
_cell_angle_gamma                90
_cell_volume                     2065.04
_exptl_crystal_colour            red
_exptl_crystal_description       plate
_cell_formula_units_Z            4
loop_
_atom_site_label
_atom_site_type_symbol
_atom_site_fract_x
_atom_site_fract_y
_atom_site_fract_z
Cl1 Cl 0.03919(7) 0.24218(4) 0.254458(16)
O1 O 0.1157(2) 1.00714(11) 0.37648(5)
O2 O -0.4312(2) 0.66870(11) 0.34333(5)
O3 O 0.23220(19) 0.81109(10) 0.41114(5)
N1 N 0.4813(3) 0.72508(14) 0.45955(6)
H1 H 0.537(4) 0.789(2) 0.4609(10)
H2 H 0.544(4) 0.667(2) 0.4743(9)
N2 N 0.2652(3) 0.44928(15) 0.48376(7)
C1 C -0.2681(3) 1.05351(15) 0.31943(7)
H3 H -0.168(4) 1.113(2) 0.3259(8)
C2 C -0.2180(3) 0.94833(14) 0.33848(6)
C3 C -0.0111(3) 0.93150(14) 0.36756(6)
C4 C 0.0362(3) 0.81604(14) 0.38573(6)
C5 C 0.2885(3) 0.71356(14) 0.43540(6)
C6 C 0.1556(3) 0.62348(15) 0.43334(6)
C7 C 0.2184(3) 0.52790(15) 0.46125(7)
C8 C -0.0489(3) 0.61537(14) 0.39982(6)
H4 H -0.164(4) 0.5940(18) 0.4211(8)
C9 C -0.0984(3) 0.72959(14) 0.37842(6)
C10 C -0.3073(3) 0.74669(14) 0.35015(6)
C11 C -0.3617(3) 0.85983(14) 0.33043(6)
C12 C -0.5563(3) 0.87822(15) 0.30354(7)
H5 H -0.653(4) 0.8163(19) 0.2998(8)
C13 C -0.6072(3) 0.98380(16) 0.28501(7)
H6 H -0.742(4) 0.9937(19) 0.2678(8)
C14 C -0.4627(3) 1.07092(16) 0.29261(7)
H7 H -0.499(4) 1.1397(19) 0.2794(8)
C15 C -0.0324(3) 0.52439(14) 0.36137(6)
C16 C 0.1449(3) 0.51872(16) 0.33428(7)
H8 H 0.258(4) 0.570(2) 0.3398(8)
C17 C 0.1680(3) 0.43260(16) 0.30141(7)
H9 H 0.296(4) 0.429(2) 0.2850(9)
C18 C 0.0111(3) 0.35163(14) 0.29552(6)
C19 C -0.1693(3) 0.35626(15) 0.32121(7)
H10 H -0.276(4) 0.299(2) 0.3173(8)
C20 C -0.1896(3) 0.44265(15) 0.35419(7)
H11 H -0.313(4) 0.447(2) 0.3726(9)
O4 O 0.7064(2) 0.93468(12) 0.46076(6)
N3 N 0.6518(3) 1.11827(14) 0.44050(6)
C21 C 0.8673(4) 1.1551(2) 0.45550(10)
H12 H 0.9505 1.0921 0.4697
H13 H 0.8623 1.2146 0.4798
H14 H 0.9347 1.1834 0.4271
C22 C 0.5030(4) 1.20115(19) 0.41834(8)
H15 H 0.3639 1.1660 0.4099
H16 H 0.5590 1.2310 0.3888
H17 H 0.4865 1.2620 0.4415
C23 C 0.5893(3) 1.01221(18) 0.44427(7)
H18 H 0.437(4) 1.0005(19) 0.4341(8)
loop_
_geom_bond_atom_site_label_1
_geom_bond_atom_site_label_2
_geom_bond_site_symmetry_1
_geom_bond_site_symmetry_2
Cl1 C18 1_555 1_555
O1 C3 1_555 1_555
O2 C10 1_555 1_555
O3 C4 1_555 1_555
O4 C23 1_555 1_555
N1 H1 1_555 1_555
H2 N1 1_555 1_555
N2 C7 1_555 1_555
N3 C21 1_555 1_555
C1 H3 1_555 1_555
C2 C1 1_555 1_555
C3 C2 1_555 1_555
C4 C3 1_555 1_555
C5 O3 1_555 1_555
C6 C5 1_555 1_555
C7 C6 1_555 1_555
C8 C6 1_555 1_555
H4 C8 1_555 1_555
C9 C4 1_555 1_555
C10 C9 1_555 1_555
C11 C2 1_555 1_555
C12 C11 1_555 1_555
H5 C12 1_555 1_555
C13 C12 1_555 1_555
H6 C13 1_555 1_555
C14 C1 1_555 1_555
H7 C14 1_555 1_555
C15 C8 1_555 1_555
C16 C15 1_555 1_555
H8 C16 1_555 1_555
C17 C16 1_555 1_555
H9 C17 1_555 1_555
C18 C17 1_555 1_555
C19 C18 1_555 1_555
H10 C19 1_555 1_555
C20 C15 1_555 1_555
H11 C20 1_555 1_555
C21 H12 1_555 1_555
H13 C21 1_555 1_555
H14 C21 1_555 1_555
C22 N3 1_555 1_555
H15 C22 1_555 1_555
H16 C22 1_555 1_555
H17 C22 1_555 1_555
C23 N3 1_555 1_555
H18 C23 1_555 1_555
N1 C5 1_555 1_555
C8 C9 1_555 1_555
C10 C11 1_555 1_555
C13 C14 1_555 1_555
C19 C20 1_555 1_555

#END
