
#######################################################################
#
#                 Cambridge Crystallographic Data Centre
#                                CCDC 
#
#######################################################################
#
# If this CIF has been generated from an entry in the Cambridge 
# Structural Database, then it will include bibliographic, chemical, 
# crystal, experimental, refinement or atomic coordinate data resulting 
# from the CCDC's data processing and validation procedures.
#
#######################################################################

data_TEHNIG
_chemical_name_common            gene779
_chemical_formula_moiety         'C23 H21 Cl1 O3 S1'
_chemical_name_systematic        
'1-(4-chlorophenyl)-2-phenylbut-1-en-1-yl 4-methylbenzene-1-sulfonate'
_symmetry_cell_setting           monoclinic
_symmetry_space_group_name_H-M   'P 21/n'
_symmetry_Int_Tables_number      14
_space_group_name_Hall           '-P 2yn'
loop_
_symmetry_equiv_pos_site_id
_symmetry_equiv_pos_as_xyz
1 x,y,z
2 1/2-x,1/2+y,1/2-z
3 -x,-y,-z
4 1/2+x,1/2-y,1/2+z
_cell_length_a                   11.0293(6)
_cell_length_b                   10.1869(6)
_cell_length_c                   18.0805(10)
_cell_angle_alpha                90
_cell_angle_beta                 95.8530(10)
_cell_angle_gamma                90
_cell_volume                     2020.83
_exptl_crystal_colour            colorless
_exptl_crystal_description       prism
_cell_formula_units_Z            4
loop_
_atom_site_label
_atom_site_type_symbol
_atom_site_fract_x
_atom_site_fract_y
_atom_site_fract_z
C1 C 0.46460(17) 0.64697(17) 0.87631(9)
C2 C 0.53520(18) 0.53529(19) 0.89001(10)
H1 H 0.619330 0.536187 0.882842
C3 C 0.48152(19) 0.42239(19) 0.91429(10)
H2 H 0.529712 0.345850 0.924064
C4 C 0.3579(2) 0.41911(19) 0.92464(10)
C5 C 0.29024(18) 0.53359(19) 0.91234(10)
H3 H 0.206519 0.533518 0.920523
C6 C 0.34209(17) 0.64760(18) 0.88846(10)
H4 H 0.294748 0.725164 0.880467
C7 C 0.2994(2) 0.2942(2) 0.94821(13)
H5 H 0.265222 0.308664 0.995485
H6 H 0.360822 0.224450 0.954341
H7 H 0.234200 0.268259 0.910118
C8 C 0.53263(17) 0.71150(17) 0.70092(9)
C9 C 0.60541(17) 0.77397(17) 0.65773(10)
C10 C 0.64043(18) 0.91696(18) 0.66637(10)
H8 H 0.729952 0.923351 0.677787
H9 H 0.602466 0.953978 0.709093
C11 C 0.6018(2) 0.9990(2) 0.59741(11)
H10 H 0.636623 0.961224 0.554439
H11 H 0.631273 1.089197 0.605341
H12 H 0.512694 0.999391 0.588157
C12 C 0.65517(17) 0.70217(17) 0.59537(10)
C13 C 0.57898(18) 0.66644(19) 0.53259(10)
H13 H 0.494665 0.687363 0.529382
C14 C 0.62562(19) 0.60012(19) 0.47436(10)
H14 H 0.573077 0.576340 0.431533
C15 C 0.74813(19) 0.56874(18) 0.47864(10)
H15 H 0.779692 0.522900 0.439045
C16 C 0.82475(18) 0.60455(19) 0.54107(11)
H16 H 0.908949 0.583101 0.544239
C17 C 0.77868(18) 0.67153(19) 0.59877(10)
H17 H 0.831831 0.696768 0.641045
C18 C 0.50254(17) 0.57029(18) 0.70340(9)
C19 C 0.38505(17) 0.53052(18) 0.71628(9)
H18 H 0.322272 0.594291 0.716646
C20 C 0.35873(17) 0.40012(18) 0.72847(9)
H19 H 0.278666 0.374277 0.737208
C21 C 0.45115(18) 0.30713(18) 0.72779(10)
C22 C 0.56682(17) 0.34298(18) 0.71164(10)
H20 H 0.628057 0.278182 0.708593
C23 C 0.59246(17) 0.47438(18) 0.69994(9)
H21 H 0.671925 0.499360 0.689484
O1 O 0.47214(13) 0.90140(13) 0.86756(7)
O2 O 0.65626(13) 0.77464(14) 0.84303(7)
O3 O 0.47306(12) 0.78818(12) 0.75308(7)
S1 S 0.52705(4) 0.78773(4) 0.83921(2)
Cl1 Cl 0.42398(4) 0.14521(4) 0.75096(3)
loop_
_geom_bond_atom_site_label_1
_geom_bond_atom_site_label_2
_geom_bond_site_symmetry_1
_geom_bond_site_symmetry_2
C1 C2 1_555 1_555
C2 H1 1_555 1_555
C3 C2 1_555 1_555
H2 C3 1_555 1_555
C4 C3 1_555 1_555
C5 C4 1_555 1_555
H3 C5 1_555 1_555
C6 C1 1_555 1_555
H4 C6 1_555 1_555
C7 C4 1_555 1_555
H5 C7 1_555 1_555
H6 C7 1_555 1_555
H7 C7 1_555 1_555
C8 C9 1_555 1_555
C9 C10 1_555 1_555
C10 H8 1_555 1_555
H9 C10 1_555 1_555
C11 C10 1_555 1_555
H10 C11 1_555 1_555
H11 C11 1_555 1_555
H12 C11 1_555 1_555
C12 C9 1_555 1_555
C13 C12 1_555 1_555
H13 C13 1_555 1_555
C14 C13 1_555 1_555
H14 C14 1_555 1_555
C15 C14 1_555 1_555
H15 C15 1_555 1_555
C16 C15 1_555 1_555
H16 C16 1_555 1_555
C17 C12 1_555 1_555
H17 C17 1_555 1_555
C18 C8 1_555 1_555
C19 C18 1_555 1_555
H18 C19 1_555 1_555
C20 C19 1_555 1_555
H19 C20 1_555 1_555
C21 C20 1_555 1_555
C22 C21 1_555 1_555
H20 C22 1_555 1_555
C23 C18 1_555 1_555
H21 C23 1_555 1_555
O1 S1 1_555 1_555
O2 S1 1_555 1_555
O3 C8 1_555 1_555
S1 C1 1_555 1_555
Cl1 C21 1_555 1_555
C5 C6 1_555 1_555
C16 C17 1_555 1_555
C22 C23 1_555 1_555
O3 S1 1_555 1_555

#END
