
#######################################################################
#
#                 Cambridge Crystallographic Data Centre
#                                CCDC 
#
#######################################################################
#
# If this CIF has been generated from an entry in the Cambridge 
# Structural Database, then it will include bibliographic, chemical, 
# crystal, experimental, refinement or atomic coordinate data resulting 
# from the CCDC's data processing and validation procedures.
#
#######################################################################

data_TEHNAY
_chemical_name_common            gene776
_chemical_formula_moiety         'C24 H24 O3 S1'
_chemical_name_systematic        
'1-(4-methylphenyl)-2-phenylbut-1-en-1-yl 4-methylbenzene-1-sulfonate'
_symmetry_cell_setting           triclinic
_symmetry_space_group_name_H-M   'P -1'
_symmetry_Int_Tables_number      2
_space_group_name_Hall           '-P 1'
loop_
_symmetry_equiv_pos_site_id
_symmetry_equiv_pos_as_xyz
1 x,y,z
2 -x,-y,-z
_cell_length_a                   10.1195(10)
_cell_length_b                   11.0431(11)
_cell_length_c                   11.1733(11)
_cell_angle_alpha                62.149(2)
_cell_angle_beta                 70.126(2)
_cell_angle_gamma                87.430(2)
_cell_volume                     1028.44
_exptl_crystal_colour            colorless
_exptl_crystal_description       plate
_cell_formula_units_Z            2
loop_
_atom_site_label
_atom_site_type_symbol
_atom_site_fract_x
_atom_site_fract_y
_atom_site_fract_z
C1 C 0.5118(2) 0.0435(2) 0.6566(2)
C2 C 0.4183(2) 0.1382(2) 0.6192(2)
H1 H 0.446160 0.234105 0.580192
C3 C 0.2842(2) 0.0908(2) 0.6395(2)
H2 H 0.220269 0.155153 0.613547
C4 C 0.2409(2) -0.0491(2) 0.6971(2)
C5 C 0.3367(2) -0.1416(2) 0.7326(2)
H3 H 0.308894 -0.237356 0.771137
C6 C 0.4721(2) -0.0967(2) 0.7129(2)
H4 H 0.536619 -0.160905 0.737528
C7 C 0.0931(2) -0.0985(3) 0.7203(3)
H5 H 0.023611 -0.080724 0.794288
H6 H 0.083715 -0.197929 0.752658
H7 H 0.075998 -0.048910 0.628968
C8 C 0.6609(2) 0.2428(2) 0.7682(2)
C9 C 0.7800(2) 0.3013(2) 0.7573(2)
C10 C 0.9156(2) 0.2374(2) 0.7432(2)
H8 H 0.997623 0.311323 0.689348
H9 H 0.922655 0.188252 0.686861
C11 C 0.9210(2) 0.1364(2) 0.8911(2)
H10 H 0.905457 0.182738 0.950232
H11 H 1.014185 0.104312 0.878796
H12 H 0.847025 0.057168 0.939635
C12 C 0.7786(2) 0.4279(2) 0.7734(2)
C13 C 0.6902(2) 0.4278(2) 0.8998(2)
H13 H 0.628951 0.346016 0.976810
C14 C 0.6903(2) 0.5449(2) 0.9149(2)
H14 H 0.629972 0.542867 1.002284
C15 C 0.7781(2) 0.6655(2) 0.8030(2)
H15 H 0.777333 0.746367 0.813073
C16 C 0.8665(2) 0.6672(2) 0.6770(2)
H16 H 0.926736 0.749646 0.599937
C17 C 0.8677(2) 0.5492(2) 0.6625(2)
H17 H 0.930040 0.551084 0.575886
C18 C 0.5218(2) 0.2938(2) 0.7824(2)
C19 C 0.5124(2) 0.4290(2) 0.6882(2)
H18 H 0.595345 0.487540 0.610958
C20 C 0.3836(2) 0.4792(2) 0.7059(2)
H19 H 0.379268 0.571830 0.640408
C21 C 0.2599(2) 0.3962(2) 0.8180(2)
C22 C 0.2694(2) 0.2601(2) 0.9086(2)
H20 H 0.185862 0.200912 0.984016
C23 C 0.3982(2) 0.2084(2) 0.8915(2)
H21 H 0.401950 0.114585 0.954424
C24 C 0.1227(2) 0.4557(2) 0.8430(3)
H22 H 0.043054 0.383250 0.884682
H23 H 0.121999 0.530793 0.750464
H24 H 0.113566 0.491733 0.910254
O1 O 0.72923(14) 0.23704(14) 0.51085(14)
O2 O 0.76927(15) -0.00581(14) 0.63863(16)
O3 O 0.66316(14) 0.11006(13) 0.77517(14)
S1 S 0.68285(5) 0.10106(5) 0.63112(5)
loop_
_geom_bond_atom_site_label_1
_geom_bond_atom_site_label_2
_geom_bond_site_symmetry_1
_geom_bond_site_symmetry_2
C1 C2 1_555 1_555
C2 H1 1_555 1_555
C3 C2 1_555 1_555
H2 C3 1_555 1_555
C4 C3 1_555 1_555
C5 C4 1_555 1_555
H3 C5 1_555 1_555
C6 C1 1_555 1_555
H4 C6 1_555 1_555
C7 C4 1_555 1_555
H5 C7 1_555 1_555
H6 C7 1_555 1_555
H7 C7 1_555 1_555
C8 C9 1_555 1_555
C9 C10 1_555 1_555
C10 H8 1_555 1_555
H9 C10 1_555 1_555
C11 C10 1_555 1_555
H10 C11 1_555 1_555
H11 C11 1_555 1_555
H12 C11 1_555 1_555
C12 C9 1_555 1_555
C13 C12 1_555 1_555
H13 C13 1_555 1_555
C14 C13 1_555 1_555
H14 C14 1_555 1_555
C15 C14 1_555 1_555
H15 C15 1_555 1_555
C16 C15 1_555 1_555
H16 C16 1_555 1_555
C17 C12 1_555 1_555
H17 C17 1_555 1_555
C18 C8 1_555 1_555
C19 C18 1_555 1_555
H18 C19 1_555 1_555
C20 C19 1_555 1_555
H19 C20 1_555 1_555
C21 C20 1_555 1_555
C22 C21 1_555 1_555
H20 C22 1_555 1_555
C23 C18 1_555 1_555
H21 C23 1_555 1_555
C24 C21 1_555 1_555
H22 C24 1_555 1_555
H23 C24 1_555 1_555
H24 C24 1_555 1_555
O1 S1 1_555 1_555
O2 S1 1_555 1_555
O3 C8 1_555 1_555
S1 C1 1_555 1_555
C5 C6 1_555 1_555
C16 C17 1_555 1_555
C22 C23 1_555 1_555
O3 S1 1_555 1_555

#END
