
#######################################################################
#
#                 Cambridge Crystallographic Data Centre
#                                CCDC 
#
#######################################################################
#
# If this CIF has been generated from an entry in the Cambridge 
# Structural Database, then it will include bibliographic, chemical, 
# crystal, experimental, refinement or atomic coordinate data resulting 
# from the CCDC's data processing and validation procedures.
#
#######################################################################

data_TEHNOM
_chemical_name_common            gene775
_chemical_formula_moiety         'C23 H21 F1 O3 S1'
_chemical_name_systematic        
'1-(4-fluorophenyl)-2-phenylbut-1-en-1-yl 4-methylbenzene-1-sulfonate'
_symmetry_cell_setting           orthorhombic
_symmetry_space_group_name_H-M   'P 21 21 21'
_symmetry_Int_Tables_number      19
_space_group_name_Hall           'P 2ac 2ab'
loop_
_symmetry_equiv_pos_site_id
_symmetry_equiv_pos_as_xyz
1 x,y,z
2 1/2-x,-y,1/2+z
3 -x,1/2+y,1/2-z
4 1/2+x,1/2-y,-z
_cell_length_a                   6.1380(3)
_cell_length_b                   8.0372(4)
_cell_length_c                   40.2939(18)
_cell_angle_alpha                90
_cell_angle_beta                 90
_cell_angle_gamma                90
_cell_volume                     1987.79
_exptl_crystal_colour            colorless
_exptl_crystal_description       prism
_cell_formula_units_Z            4
loop_
_atom_site_label
_atom_site_type_symbol
_atom_site_fract_x
_atom_site_fract_y
_atom_site_fract_z
C1 C 0.4295(4) 0.3202(3) 0.44176(6)
C2 C 0.6359(5) 0.3427(4) 0.45519(7)
H1 H 0.703079 0.449204 0.455101
C3 C 0.7418(4) 0.2060(4) 0.46874(7)
H2 H 0.881682 0.220080 0.478444
C4 C 0.6474(5) 0.0496(3) 0.46838(6)
C5 C 0.4382(5) 0.0312(4) 0.45533(7)
H3 H 0.370083 -0.074901 0.455708
C6 C 0.3288(5) 0.1656(3) 0.44185(7)
H4 H 0.187018 0.152307 0.432793
C7 C 0.7681(6) -0.1010(4) 0.48148(8)
H5 H 0.920748 -0.071618 0.485561
H6 H 0.761079 -0.190970 0.465090
H7 H 0.700707 -0.137986 0.502253
C8 C 0.3646(4) 0.6019(3) 0.36331(6)
C9 C 0.2173(5) 0.5798(3) 0.33930(6)
C10 C 0.0652(5) 0.4319(4) 0.33819(7)
H8 H -0.078874 0.468237 0.329844
H9 H 0.044963 0.388076 0.360948
C11 C 0.1530(6) 0.2932(4) 0.31585(8)
H10 H 0.169494 0.335299 0.293165
H11 H 0.050940 0.199447 0.315902
H12 H 0.294919 0.256047 0.324188
C12 C 0.2054(5) 0.6944(3) 0.31007(6)
C13 C 0.0160(5) 0.7834(4) 0.30332(7)
H13 H -0.107320 0.770993 0.317342
C14 C 0.0055(5) 0.8906(4) 0.27623(7)
H14 H -0.123860 0.951847 0.271959
C15 C 0.1840(6) 0.9077(4) 0.25553(7)
H15 H 0.177722 0.981883 0.237208
C16 C 0.3715(5) 0.8169(5) 0.26147(7)
H16 H 0.492777 0.827024 0.246958
C17 C 0.3823(5) 0.7108(4) 0.28873(7)
H17 H 0.511522 0.649074 0.292800
C18 C 0.5200(4) 0.7399(3) 0.36886(6)
C19 C 0.4641(5) 0.9043(3) 0.36092(7)
H18 H 0.325954 0.927598 0.351350
C20 C 0.6089(5) 1.0328(3) 0.36693(7)
H19 H 0.572237 1.144285 0.361439
C21 C 0.8071(5) 0.9954(4) 0.38103(6)
C22 C 0.8671(5) 0.8372(4) 0.38988(7)
H20 H 1.004078 0.815891 0.399998
C23 C 0.7207(5) 0.7089(3) 0.38357(6)
H21 H 0.758662 0.598103 0.389413
O1 O 0.0685(3) 0.4607(3) 0.42223(5)
O2 O 0.3741(4) 0.6418(2) 0.43662(5)
O3 O 0.3917(3) 0.4676(2) 0.38631(4)
F1 F 0.9494(3) 1.1215(2) 0.38669(5)
S1 S 0.29745(11) 0.48866(8) 0.42328(2)
loop_
_geom_bond_atom_site_label_1
_geom_bond_atom_site_label_2
_geom_bond_site_symmetry_1
_geom_bond_site_symmetry_2
C1 C2 1_555 1_555
C2 H1 1_555 1_555
C3 C2 1_555 1_555
H2 C3 1_555 1_555
C4 C3 1_555 1_555
C5 C4 1_555 1_555
H3 C5 1_555 1_555
C6 C1 1_555 1_555
H4 C6 1_555 1_555
C7 C4 1_555 1_555
H5 C7 1_555 1_555
H6 C7 1_555 1_555
H7 C7 1_555 1_555
C8 C9 1_555 1_555
C9 C10 1_555 1_555
C10 H8 1_555 1_555
H9 C10 1_555 1_555
C11 C10 1_555 1_555
H10 C11 1_555 1_555
H11 C11 1_555 1_555
H12 C11 1_555 1_555
C12 C9 1_555 1_555
C13 C12 1_555 1_555
H13 C13 1_555 1_555
C14 C13 1_555 1_555
H14 C14 1_555 1_555
C15 C14 1_555 1_555
H15 C15 1_555 1_555
C16 C15 1_555 1_555
H16 C16 1_555 1_555
C17 C12 1_555 1_555
H17 C17 1_555 1_555
C18 C8 1_555 1_555
C19 C18 1_555 1_555
H18 C19 1_555 1_555
C20 C19 1_555 1_555
H19 C20 1_555 1_555
C21 C20 1_555 1_555
C22 C21 1_555 1_555
H20 C22 1_555 1_555
C23 C18 1_555 1_555
H21 C23 1_555 1_555
O1 S1 1_555 1_555
O2 S1 1_555 1_555
O3 C8 1_555 1_555
F1 C21 1_555 1_555
S1 C1 1_555 1_555
C5 C6 1_555 1_555
C16 C17 1_555 1_555
C22 C23 1_555 1_555
O3 S1 1_555 1_555

#END
