
#######################################################################
#
#                 Cambridge Crystallographic Data Centre
#                                CCDC 
#
#######################################################################
#
# If this CIF has been generated from an entry in the Cambridge 
# Structural Database, then it will include bibliographic, chemical, 
# crystal, experimental, refinement or atomic coordinate data resulting 
# from the CCDC's data processing and validation procedures.
#
#######################################################################

data_TEHPAA
_chemical_name_common            gene777
_chemical_formula_moiety         'C26 H26 O5 S1'
_chemical_name_systematic        
'ethyl 4-(1-{[(4-methylphenyl)sulfonyl]oxy}-2-phenylbut-1-en-1-yl)benzoate'
_symmetry_cell_setting           monoclinic
_symmetry_space_group_name_H-M   'P 21/c'
_symmetry_Int_Tables_number      14
_space_group_name_Hall           '-P 2ybc'
loop_
_symmetry_equiv_pos_site_id
_symmetry_equiv_pos_as_xyz
1 x,y,z
2 -x,1/2+y,1/2-z
3 -x,-y,-z
4 x,1/2-y,1/2+z
_cell_length_a                   10.1549(7)
_cell_length_b                   14.8484(10)
_cell_length_c                   15.7384(11)
_cell_angle_alpha                90
_cell_angle_beta                 102.9150(10)
_cell_angle_gamma                90
_cell_volume                     2313.07
_exptl_crystal_colour            colorless
_exptl_crystal_description       prism
_cell_formula_units_Z            4
loop_
_atom_site_label
_atom_site_type_symbol
_atom_site_fract_x
_atom_site_fract_y
_atom_site_fract_z
C1 C 0.22843(19) 0.60686(13) 0.45814(11)
C2 C 0.10346(19) 0.64945(13) 0.43309(12)
H1 H 0.033896 0.638274 0.463292
C3 C 0.0830(2) 0.70827(13) 0.36337(12)
H2 H -0.001581 0.737987 0.345921
C4 C 0.1840(2) 0.72503(13) 0.31796(12)
C5 C 0.3092(2) 0.68421(13) 0.34703(12)
H3 H 0.380339 0.697392 0.318700
C6 C 0.33218(19) 0.62455(13) 0.41671(12)
H4 H 0.417713 0.596361 0.435598
C7 C 0.1578(2) 0.78462(15) 0.23857(13)
H5 H 0.243497 0.809602 0.230470
H6 H 0.097371 0.833864 0.246408
H7 H 0.115558 0.749202 0.187155
C8 C 0.23996(19) 0.38800(13) 0.42623(11)
C9 C 0.29997(19) 0.30987(13) 0.45251(12)
C10 C 0.3207(2) 0.27577(13) 0.54496(12)
H8 H 0.314149 0.326852 0.584231
H9 H 0.412365 0.249687 0.563226
C11 C 0.2165(2) 0.20473(14) 0.55366(13)
H10 H 0.125530 0.228920 0.531563
H11 H 0.227655 0.188225 0.615141
H12 H 0.229359 0.151288 0.519867
C12 C 0.3388(2) 0.24676(12) 0.38860(12)
C13 C 0.4736(2) 0.22473(14) 0.39372(12)
H13 H 0.542123 0.250835 0.437984
C14 C 0.5089(2) 0.16493(14) 0.33467(12)
H14 H 0.601291 0.151141 0.338112
C15 C 0.4094(2) 0.12520(14) 0.27057(12)
H15 H 0.433465 0.084276 0.230185
C16 C 0.2748(2) 0.14564(13) 0.26592(12)
H16 H 0.206339 0.118412 0.222452
C17 C 0.2400(2) 0.20593(13) 0.32477(12)
H17 H 0.147473 0.219401 0.321365
C18 C 0.21655(19) 0.42956(12) 0.33867(12)
C19 C 0.09345(19) 0.47130(13) 0.30258(12)
H18 H 0.023701 0.472260 0.333974
C20 C 0.07288(19) 0.51119(13) 0.22135(12)
H19 H -0.010590 0.540305 0.197777
C21 C 0.1727(2) 0.50925(13) 0.17373(12)
C22 C 0.29632(19) 0.46836(12) 0.20953(12)
H20 H 0.365637 0.467228 0.177791
C23 C 0.31777(19) 0.42941(12) 0.29143(12)
H21 H 0.402471 0.402224 0.315815
C24 C 0.1458(2) 0.55368(14) 0.08681(13)
C25 C 0.2276(2) 0.58301(16) -0.03966(12)
H22 H 0.227489 0.649207 -0.032169
H23 H 0.141266 0.564994 -0.078900
C26 C 0.3442(3) 0.55490(17) -0.07728(14)
H24 H 0.428780 0.575074 -0.038947
H25 H 0.335044 0.582062 -0.135053
H26 H 0.344983 0.489140 -0.082482
O1 O 0.39112(13) 0.50420(9) 0.56802(8)
O2 O 0.16871(14) 0.54000(9) 0.59888(8)
O3 O 0.17857(13) 0.43613(9) 0.48622(8)
O4 O 0.04714(17) 0.59911(13) 0.05846(11)
O5 O 0.24339(14) 0.53861(9) 0.04398(8)
S1 S 0.25025(5) 0.52239(3) 0.53783(3)
loop_
_geom_bond_atom_site_label_1
_geom_bond_atom_site_label_2
_geom_bond_site_symmetry_1
_geom_bond_site_symmetry_2
C1 C2 1_555 1_555
C2 H1 1_555 1_555
C3 C2 1_555 1_555
H2 C3 1_555 1_555
C4 C3 1_555 1_555
C5 C4 1_555 1_555
H3 C5 1_555 1_555
C6 C1 1_555 1_555
H4 C6 1_555 1_555
C7 C4 1_555 1_555
H5 C7 1_555 1_555
H6 C7 1_555 1_555
H7 C7 1_555 1_555
C8 C9 1_555 1_555
C9 C10 1_555 1_555
C10 H8 1_555 1_555
H9 C10 1_555 1_555
C11 C10 1_555 1_555
H10 C11 1_555 1_555
H11 C11 1_555 1_555
H12 C11 1_555 1_555
C12 C9 1_555 1_555
C13 C12 1_555 1_555
H13 C13 1_555 1_555
C14 C13 1_555 1_555
H14 C14 1_555 1_555
C15 C14 1_555 1_555
H15 C15 1_555 1_555
C16 C15 1_555 1_555
H16 C16 1_555 1_555
C17 C12 1_555 1_555
H17 C17 1_555 1_555
C18 C8 1_555 1_555
C19 C18 1_555 1_555
H18 C19 1_555 1_555
C20 C19 1_555 1_555
H19 C20 1_555 1_555
C21 C20 1_555 1_555
C22 C21 1_555 1_555
H20 C22 1_555 1_555
C23 C18 1_555 1_555
H21 C23 1_555 1_555
C24 C21 1_555 1_555
C25 H22 1_555 1_555
H23 C25 1_555 1_555
C26 C25 1_555 1_555
H24 C26 1_555 1_555
H25 C26 1_555 1_555
H26 C26 1_555 1_555
O1 S1 1_555 1_555
O2 S1 1_555 1_555
O3 C8 1_555 1_555
O4 C24 1_555 1_555
O5 C24 1_555 1_555
S1 C1 1_555 1_555
C5 C6 1_555 1_555
C16 C17 1_555 1_555
C22 C23 1_555 1_555
C25 O5 1_555 1_555
O3 S1 1_555 1_555

#END
