
#######################################################################
#
#                 Cambridge Crystallographic Data Centre
#                                CCDC 
#
#######################################################################
#
# If this CIF has been generated from an entry in the Cambridge 
# Structural Database, then it will include bibliographic, chemical, 
# crystal, experimental, refinement or atomic coordinate data resulting 
# from the CCDC's data processing and validation procedures.
#
#######################################################################

data_TEHPII
_chemical_name_common            gene778
_chemical_formula_moiety         'C24 H24 O3 S1'
_chemical_name_systematic        
'1-(2-methylphenyl)-2-phenylbut-1-en-1-yl 4-methylbenzene-1-sulfonate'
_symmetry_cell_setting           monoclinic
_symmetry_space_group_name_H-M   'P 21/n'
_symmetry_Int_Tables_number      14
_space_group_name_Hall           '-P 2yn'
loop_
_symmetry_equiv_pos_site_id
_symmetry_equiv_pos_as_xyz
1 x,y,z
2 1/2-x,1/2+y,1/2-z
3 -x,-y,-z
4 1/2+x,1/2-y,1/2+z
_cell_length_a                   14.7622(13)
_cell_length_b                   7.5055(7)
_cell_length_c                   19.1024(18)
_cell_angle_alpha                90
_cell_angle_beta                 112.6380(10)
_cell_angle_gamma                90
_cell_volume                     1953.44
_exptl_crystal_colour            colorless
_exptl_crystal_description       prism
_cell_formula_units_Z            4
loop_
_atom_site_label
_atom_site_type_symbol
_atom_site_fract_x
_atom_site_fract_y
_atom_site_fract_z
C1 C 0.31804(14) 0.6716(2) 0.66596(10)
C2 C 0.40690(14) 0.5860(3) 0.70445(11)
H1 H 0.4403 0.5269 0.6774
C3 C 0.44579(14) 0.5886(3) 0.78306(11)
H2 H 0.5066 0.5307 0.8099
C4 C 0.39787(14) 0.6739(2) 0.82347(10)
C5 C 0.31052(14) 0.7638(3) 0.78333(11)
H3 H 0.2783 0.8267 0.8103
C6 C 0.27010(14) 0.7627(3) 0.70501(10)
H4 H 0.2103 0.8236 0.6782
C7 C 0.43819(15) 0.6658(3) 0.90897(10)
H5 H 0.4069 0.5677 0.9251
H6 H 0.4246 0.7785 0.9290
H7 H 0.5093 0.6461 0.9283
C8 C 0.24395(14) 0.3510(2) 0.50153(10)
C9 C 0.17498(14) 0.3339(2) 0.43169(11)
C10 C 0.08544(14) 0.4528(3) 0.40218(11)
H8 H 0.0865 0.5202 0.3579
H9 H 0.0892 0.5401 0.4420
C11 C -0.01106(15) 0.3531(3) 0.37875(12)
H10 H -0.0186 0.2751 0.3357
H11 H -0.0654 0.4386 0.3640
H12 H -0.0115 0.2811 0.4214
C12 C 0.18192(13) 0.1910(3) 0.38007(10)
C13 C 0.15344(14) 0.2224(3) 0.30245(10)
H13 H 0.1317 0.3379 0.2828
C14 C 0.15625(14) 0.0888(3) 0.25370(11)
H14 H 0.1366 0.1130 0.2011
C15 C 0.18752(14) -0.0799(3) 0.28110(11)
H15 H 0.1894 -0.1720 0.2475
C16 C 0.21625(14) -0.1142(3) 0.35809(11)
H16 H 0.2384 -0.2298 0.3773
C17 C 0.21280(14) 0.0194(3) 0.40692(10)
H17 H 0.2317 -0.0060 0.4594
C18 C 0.33851(14) 0.2563(2) 0.53958(10)
C19 C 0.35275(15) 0.1626(3) 0.60630(11)
H18 H 0.3018 0.1599 0.6250
C20 C 0.43966(15) 0.0738(3) 0.64545(11)
H19 H 0.4483 0.0095 0.6904
C21 C 0.51399(15) 0.0798(3) 0.61825(11)
H20 H 0.5740 0.0192 0.6446
C22 C 0.50130(14) 0.1735(3) 0.55301(11)
H21 H 0.5534 0.1775 0.5355
C23 C 0.41372(14) 0.2627(3) 0.51208(10)
C24 C 0.40360(15) 0.3590(3) 0.44056(11)
H22 H 0.3635 0.2877 0.3966
H23 H 0.4687 0.3775 0.4394
H24 H 0.3720 0.4745 0.4390
O1 O 0.18388(10) 0.78381(18) 0.54148(7)
O2 O 0.33884(10) 0.67791(17) 0.53578(7)
O3 O 0.22191(9) 0.46782(17) 0.55287(7)
S1 S 0.26565(3) 0.66540(6) 0.56693(2)
loop_
_geom_bond_atom_site_label_1
_geom_bond_atom_site_label_2
_geom_bond_site_symmetry_1
_geom_bond_site_symmetry_2
C1 C2 1_555 1_555
C2 H1 1_555 1_555
C3 C2 1_555 1_555
H2 C3 1_555 1_555
C4 C3 1_555 1_555
C5 C4 1_555 1_555
H3 C5 1_555 1_555
C6 C1 1_555 1_555
H4 C6 1_555 1_555
C7 C4 1_555 1_555
H5 C7 1_555 1_555
H6 C7 1_555 1_555
H7 C7 1_555 1_555
C8 C9 1_555 1_555
C9 C10 1_555 1_555
C10 H8 1_555 1_555
H9 C10 1_555 1_555
C11 C10 1_555 1_555
H10 C11 1_555 1_555
H11 C11 1_555 1_555
H12 C11 1_555 1_555
C12 C9 1_555 1_555
C13 C12 1_555 1_555
H13 C13 1_555 1_555
C14 C13 1_555 1_555
H14 C14 1_555 1_555
C15 C14 1_555 1_555
H15 C15 1_555 1_555
C16 C15 1_555 1_555
H16 C16 1_555 1_555
C17 C12 1_555 1_555
H17 C17 1_555 1_555
C18 C8 1_555 1_555
C19 C18 1_555 1_555
H18 C19 1_555 1_555
C20 C19 1_555 1_555
H19 C20 1_555 1_555
C21 C20 1_555 1_555
H20 C21 1_555 1_555
C22 C21 1_555 1_555
H21 C22 1_555 1_555
C23 C18 1_555 1_555
C24 C23 1_555 1_555
H22 C24 1_555 1_555
H23 C24 1_555 1_555
H24 C24 1_555 1_555
O1 S1 1_555 1_555
O2 S1 1_555 1_555
O3 C8 1_555 1_555
S1 C1 1_555 1_555
C5 C6 1_555 1_555
C16 C17 1_555 1_555
C22 C23 1_555 1_555
O3 S1 1_555 1_555

#END
