
#######################################################################
#
#                 Cambridge Crystallographic Data Centre
#                                CCDC 
#
#######################################################################
#
# If this CIF has been generated from an entry in the Cambridge 
# Structural Database, then it will include bibliographic, chemical, 
# crystal, experimental, refinement or atomic coordinate data resulting 
# from the CCDC's data processing and validation procedures.
#
#######################################################################

data_TEHQIJ01
_chemical_formula_moiety         'C13 H19 N3 O2'
_chemical_name_systematic        
N,N'-(pyridine-2,6-diyl)bis(2-methylpropanamide)
_symmetry_cell_setting           monoclinic
_symmetry_space_group_name_H-M   'P 21/c'
_symmetry_Int_Tables_number      14
_space_group_name_Hall           '-P 2ybc'
loop_
_symmetry_equiv_pos_site_id
_symmetry_equiv_pos_as_xyz
1 x,y,z
2 -x,1/2+y,1/2-z
3 -x,-y,-z
4 x,1/2-y,1/2+z
_cell_length_a                   10.840(3)
_cell_length_b                   18.231(4)
_cell_length_c                   14.307(4)
_cell_angle_alpha                90
_cell_angle_beta                 96.770(10)
_cell_angle_gamma                90
_cell_volume                     2807.69
_exptl_crystal_colour            colorless
_exptl_crystal_description       plate
_cell_formula_units_Z            8
_exptl_crystal_recrystallization_method 'dichloromethane / n-hexane'
loop_
_atom_site_label
_atom_site_type_symbol
_atom_site_fract_x
_atom_site_fract_y
_atom_site_fract_z
H1 H 0.5293(19) 0.2815(17) 0.5865(16)
O1 O 0.9864(2) 0.42754(12) 0.38481(14)
O2 O 0.6578(2) 0.24215(12) 0.78142(14)
N1 N 0.8053(3) 0.36665(15) 0.39650(17)
H2 H 0.744(3) 0.3382(18) 0.367(2)
N2 N 0.7120(3) 0.32479(13) 0.52060(16)
N3 N 0.5960(3) 0.27979(15) 0.63150(18)
C1 C 0.9791(5) 0.3238(2) 0.2215(2)
H3 H 1.0611 0.3469 0.2342
H4 H 0.9646 0.3095 0.1551
H5 H 0.9760 0.2802 0.2612
C2 C 0.8877(4) 0.4486(2) 0.1881(2)
H6 H 0.9696 0.4710 0.2048
H7 H 0.8231 0.4826 0.2036
H8 H 0.8758 0.4380 0.1205
C3 C 0.8797(4) 0.37782(18) 0.2431(2)
H9 H 0.7961 0.3552 0.2256
C4 C 0.8968(4) 0.39388(18) 0.3482(2)
C5 C 0.8039(3) 0.36648(17) 0.4950(2)
C6 C 0.8872(3) 0.40424(17) 0.5577(2)
H10 H 0.9498 0.4345 0.5368
C7 C 0.8756(4) 0.39614(19) 0.6527(2)
H11 H 0.9323 0.4204 0.6982
C8 C 0.7828(3) 0.35324(18) 0.6816(2)
H12 H 0.7747 0.3469 0.7465
C9 C 0.7022(3) 0.31992(17) 0.6131(2)
C10 C 0.5790(4) 0.24353(17) 0.7127(2)
C11 C 0.4559(3) 0.20465(18) 0.7106(2)
H13 H 0.4179 0.1995 0.6438
C12 C 0.3685(4) 0.2495(2) 0.7650(2)
H14 H 0.2882 0.2245 0.7626
H15 H 0.3565 0.2983 0.7366
H16 H 0.4050 0.2545 0.8307
C13 C 0.4763(4) 0.1283(2) 0.7539(2)
H17 H 0.5373 0.1017 0.7215
H18 H 0.3975 0.1014 0.7472
H19 H 0.5072 0.1330 0.8209
H20 H -0.097(2) 0.6525(15) 0.534(2)
O3 O 0.2167(2) 0.95863(14) 0.58333(16)
O4 O -0.3688(2) 0.69474(13) 0.48696(16)
N4 N 0.1758(3) 0.83706(16) 0.55910(17)
H21 H 0.211(3) 0.7922(10) 0.556(2)
N5 N -0.0002(3) 0.76795(15) 0.54278(16)
N6 N -0.1593(3) 0.68578(16) 0.52190(19)
C14 C 0.4676(4) 0.9203(2) 0.6529(2)
H22 H 0.4493 0.9013 0.7138
H23 H 0.4474 0.9727 0.6485
H24 H 0.5561 0.9135 0.6471
C15 C 0.4258(4) 0.9024(2) 0.4774(2)
H25 H 0.4097 0.9550 0.4681
H26 H 0.3762 0.8747 0.4277
H27 H 0.5142 0.8926 0.4749
C16 C 0.3900(4) 0.8791(2) 0.5737(2)
H28 H 0.4038 0.8251 0.5822
C17 C 0.2533(4) 0.8961(2) 0.5738(2)
C18 C 0.0454(4) 0.83584(19) 0.5507(2)
C19 C -0.0280(4) 0.89833(19) 0.5487(2)
H29 H 0.0073 0.9460 0.5550
C20 C -0.1549(4) 0.8875(2) 0.5370(2)
H30 H -0.2086 0.9288 0.5350
C21 C -0.2054(4) 0.8182(2) 0.5281(2)
H31 H -0.2928 0.8108 0.5202
C22 C -0.1236(4) 0.76007(19) 0.5312(2)
C23 C -0.2747(4) 0.6572(2) 0.4979(2)
C24 C -0.2764(3) 0.57469(18) 0.4845(2)
H32 H -0.1891 0.5561 0.4934
C25 C -0.3336(5) 0.5563(2) 0.3862(2)
H33 H -0.2821 0.5767 0.3406
H34 H -0.4172 0.5775 0.3752
H35 H -0.3387 0.5030 0.3788
C26 C -0.3484(4) 0.5393(2) 0.5571(3)
H36 H -0.4323 0.5600 0.5520
H37 H -0.3058 0.5486 0.6202
H38 H -0.3535 0.4862 0.5459
loop_
_geom_bond_atom_site_label_1
_geom_bond_atom_site_label_2
_geom_bond_site_symmetry_1
_geom_bond_site_symmetry_2
H1 N3 1_555 1_555
O1 C4 1_555 1_555
O2 C10 1_555 1_555
N1 H2 1_555 1_555
N2 C5 1_555 1_555
N3 C9 1_555 1_555
C1 H3 1_555 1_555
H4 C1 1_555 1_555
H5 C1 1_555 1_555
C2 H6 1_555 1_555
H7 C2 1_555 1_555
H8 C2 1_555 1_555
C3 C1 1_555 1_555
H9 C3 1_555 1_555
C4 N1 1_555 1_555
C5 N1 1_555 1_555
C6 C5 1_555 1_555
H10 C6 1_555 1_555
C7 C6 1_555 1_555
H11 C7 1_555 1_555
C8 C7 1_555 1_555
H12 C8 1_555 1_555
C9 N2 1_555 1_555
C10 N3 1_555 1_555
C11 C10 1_555 1_555
H13 C11 1_555 1_555
C12 C11 1_555 1_555
H14 C12 1_555 1_555
H15 C12 1_555 1_555
H16 C12 1_555 1_555
C13 C11 1_555 1_555
H17 C13 1_555 1_555
H18 C13 1_555 1_555
H19 C13 1_555 1_555
H20 N6 1_555 1_555
O3 C17 1_555 1_555
O4 C23 1_555 1_555
N4 H21 1_555 1_555
N5 C18 1_555 1_555
N6 C22 1_555 1_555
C14 H22 1_555 1_555
H23 C14 1_555 1_555
H24 C14 1_555 1_555
C15 H25 1_555 1_555
H26 C15 1_555 1_555
H27 C15 1_555 1_555
C16 C14 1_555 1_555
H28 C16 1_555 1_555
C17 N4 1_555 1_555
C18 N4 1_555 1_555
C19 C18 1_555 1_555
H29 C19 1_555 1_555
C20 C19 1_555 1_555
H30 C20 1_555 1_555
C21 C20 1_555 1_555
H31 C21 1_555 1_555
C22 N5 1_555 1_555
C23 N6 1_555 1_555
C24 C23 1_555 1_555
H32 C24 1_555 1_555
C25 C24 1_555 1_555
H33 C25 1_555 1_555
H34 C25 1_555 1_555
H35 C25 1_555 1_555
C26 C24 1_555 1_555
H36 C26 1_555 1_555
H37 C26 1_555 1_555
H38 C26 1_555 1_555
C2 C3 1_555 1_555
C3 C4 1_555 1_555
C8 C9 1_555 1_555
C15 C16 1_555 1_555
C16 C17 1_555 1_555
C21 C22 1_555 1_555

#END
