
#######################################################################
#
#                 Cambridge Crystallographic Data Centre
#                                CCDC 
#
#######################################################################
#
# If this CIF has been generated from an entry in the Cambridge 
# Structural Database, then it will include bibliographic, chemical, 
# crystal, experimental, refinement or atomic coordinate data resulting 
# from the CCDC's data processing and validation procedures.
#
#######################################################################

data_TEHQIJ
_chemical_formula_moiety         'C13 H19 N3 O2'
_chemical_name_systematic        
N,N'-(pyridine-2,6-diyl)bis(2-methylpropanamide)
_symmetry_cell_setting           monoclinic
_symmetry_space_group_name_H-M   'P 21/c'
_symmetry_Int_Tables_number      14
_space_group_name_Hall           '-P 2ybc'
loop_
_symmetry_equiv_pos_site_id
_symmetry_equiv_pos_as_xyz
1 x,y,z
2 -x,1/2+y,1/2-z
3 -x,-y,-z
4 x,1/2-y,1/2+z
_cell_length_a                   10.763(4)
_cell_length_b                   17.684(6)
_cell_length_c                   14.541(5)
_cell_angle_alpha                90
_cell_angle_beta                 90.132(5)
_cell_angle_gamma                90
_cell_volume                     2767.62
_exptl_crystal_colour            colorless
_exptl_crystal_description       block
_cell_formula_units_Z            8
_exptl_crystal_recrystallization_method 'dichloromethane / n-hexane'
loop_
_atom_site_label
_atom_site_type_symbol
_atom_site_fract_x
_atom_site_fract_y
_atom_site_fract_z
O1 O 0.33652(10) 0.26204(7) 0.21100(8)
O2 O -0.01599(10) 0.09450(7) 0.60661(8)
N1 N 0.40447(12) 0.23279(8) 0.35449(9)
H1 H 0.4690(12) 0.2360(10) 0.3939(10)
N2 N 0.28488(11) 0.18468(7) 0.47178(9)
N3 N 0.18143(12) 0.14127(7) 0.59896(9)
H2 H 0.2411(13) 0.1668(9) 0.6297(11)
C1 C 0.62276(16) 0.27181(12) 0.19788(14)
H3 H 0.6462 0.2244 0.2282
H4 H 0.6972 0.3026 0.1877
H5 H 0.5832 0.2606 0.1387
C2 C 0.49845(18) 0.39100(11) 0.21527(14)
H6 H 0.4623 0.3825 0.1542
H7 H 0.5735 0.4220 0.2094
H8 H 0.4381 0.4172 0.2542
C3 C 0.53197(14) 0.31513(9) 0.25871(11)
H9 H 0.5714 0.3243 0.3200
C4 C 0.41535(14) 0.26800(9) 0.27173(11)
C5 C 0.30818(13) 0.18336(9) 0.38186(10)
C6 C 0.24848(15) 0.13560(10) 0.32074(12)
H10 H 0.2644 0.1381 0.2566
C7 C 0.16470(15) 0.08395(10) 0.35640(12)
H11 H 0.1241 0.0492 0.3166
C8 C 0.14000(14) 0.08274(9) 0.44909(11)
H12 H 0.0836 0.0472 0.4746
C9 C 0.20075(13) 0.13553(9) 0.50410(11)
C10 C 0.07426(14) 0.12394(9) 0.64422(11)
C11 C 0.07316(15) 0.14464(10) 0.74540(11)
H13 H 0.1611 0.1487 0.7673
C12 C 0.0103(3) 0.22056(15) 0.75897(17)
H14 H 0.0558 0.2595 0.7250
H15 H 0.0098 0.2333 0.8246
H16 H -0.0753 0.2179 0.7361
C13 C 0.0088(4) 0.08228(16) 0.79989(18)
H17 H -0.0784 0.0788 0.7808
H18 H 0.0131 0.0940 0.8657
H19 H 0.0503 0.0339 0.7882
O3 O 1.23250(10) 0.45666(7) 0.61256(8)
O4 O 0.64034(10) 0.22660(7) 0.44717(8)
N4 N 1.18430(12) 0.34041(7) 0.55498(9)
H27 H 1.2157(15) 0.2956(7) 0.5384(12)
N5 N 1.00263(12) 0.27818(7) 0.52789(9)
N6 N 0.83639(12) 0.20287(8) 0.49725(10)
H28 H 0.8892(14) 0.1655(8) 0.5130(13)
C16 C 1.48286(15) 0.41107(10) 0.64028(12)
H29 H 1.4642 0.4651 0.6458
H30 H 1.5704 0.4045 0.6237
H31 H 1.4667 0.3860 0.6991
C17 C 1.43188(16) 0.40733(10) 0.47057(12)
H32 H 1.3810 0.3815 0.4242
H33 H 1.5200 0.3987 0.4575
H34 H 1.4145 0.4617 0.4689
C18 C 1.40086(14) 0.37628(9) 0.56590(11)
H35 H 1.4116 0.3201 0.5660
C19 C 1.26521(14) 0.39552(9) 0.58216(11)
C20 C 1.05441(14) 0.34451(9) 0.54940(10)
C21 C 0.98700(14) 0.41069(9) 0.56267(11)
H36 H 1.0264 0.4567 0.5799
C22 C 0.86000(15) 0.40642(10) 0.54965(12)
H37 H 0.8109 0.4507 0.5568
C23 C 0.80294(15) 0.33877(10) 0.52638(12)
H38 H 0.7157 0.3355 0.5173
C24 C 0.87953(14) 0.27610(9) 0.51707(11)
C25 C 0.72461(14) 0.18166(10) 0.46292(11)
C26 C 0.71498(16) 0.09754(10) 0.44260(13)
H39 H 0.7510 0.0692 0.4959
C27 C 0.58028(18) 0.07358(11) 0.43087(16)
H40 H 0.5322 0.0902 0.4843
H41 H 0.5758 0.0184 0.4257
H42 H 0.5460 0.0967 0.3751
C28 C 0.78935(19) 0.07827(12) 0.35767(18)
H43 H 0.7557 0.1059 0.3048
H44 H 0.7842 0.0238 0.3460
H45 H 0.8764 0.0927 0.3672
H20? H 0.1361 0.1855 0.7551
C14? C 0.1096(17) 0.0783(7) 0.8051(8)
H21? H 0.0592 0.0342 0.7885
H22? H 0.0957 0.0911 0.8698
H23? H 0.1977 0.0667 0.7957
C15? C -0.0545(12) 0.1771(12) 0.7697(9)
H24? H -0.0677 0.2244 0.7359
H25? H -0.0583 0.1870 0.8359
H26? H -0.1192 0.1407 0.7528
loop_
_geom_bond_atom_site_label_1
_geom_bond_atom_site_label_2
_geom_bond_site_symmetry_1
_geom_bond_site_symmetry_2
O1 C4 1_555 1_555
O2 C10 1_555 1_555
N1 H1 1_555 1_555
N2 C5 1_555 1_555
N3 H2 1_555 1_555
C1 H3 1_555 1_555
H4 C1 1_555 1_555
H5 C1 1_555 1_555
C2 H6 1_555 1_555
H7 C2 1_555 1_555
H8 C2 1_555 1_555
C3 C1 1_555 1_555
H9 C3 1_555 1_555
C4 N1 1_555 1_555
C5 N1 1_555 1_555
C6 C5 1_555 1_555
H10 C6 1_555 1_555
C7 C6 1_555 1_555
H11 C7 1_555 1_555
C8 C7 1_555 1_555
H12 C8 1_555 1_555
C9 N2 1_555 1_555
C10 N3 1_555 1_555
C11 C10 1_555 1_555
H13 C11 1_555 1_555
C12 C11 1_555 1_555
H14 C12 1_555 1_555
H15 C12 1_555 1_555
H16 C12 1_555 1_555
C13 C11 1_555 1_555
H17 C13 1_555 1_555
H18 C13 1_555 1_555
H19 C13 1_555 1_555
O3 C19 1_555 1_555
O4 C25 1_555 1_555
N4 H27 1_555 1_555
N5 C20 1_555 1_555
N6 H28 1_555 1_555
C16 H29 1_555 1_555
H30 C16 1_555 1_555
H31 C16 1_555 1_555
C17 H32 1_555 1_555
H33 C17 1_555 1_555
H34 C17 1_555 1_555
C18 C16 1_555 1_555
H35 C18 1_555 1_555
C19 N4 1_555 1_555
C20 N4 1_555 1_555
C21 C20 1_555 1_555
H36 C21 1_555 1_555
C22 C21 1_555 1_555
H37 C22 1_555 1_555
C23 C22 1_555 1_555
H38 C23 1_555 1_555
C24 N5 1_555 1_555
C25 N6 1_555 1_555
C26 C25 1_555 1_555
H39 C26 1_555 1_555
C27 C26 1_555 1_555
H40 C27 1_555 1_555
H41 C27 1_555 1_555
H42 C27 1_555 1_555
C28 C26 1_555 1_555
H43 C28 1_555 1_555
H44 C28 1_555 1_555
H45 C28 1_555 1_555
N3 C9 1_555 1_555
C2 C3 1_555 1_555
C3 C4 1_555 1_555
C8 C9 1_555 1_555
N6 C24 1_555 1_555
C17 C18 1_555 1_555
C18 C19 1_555 1_555
C23 C24 1_555 1_555

#END
