
#######################################################################
#
#                 Cambridge Crystallographic Data Centre
#                                CCDC 
#
#######################################################################
#
# If this CIF has been generated from an entry in the Cambridge 
# Structural Database, then it will include bibliographic, chemical, 
# crystal, experimental, refinement or atomic coordinate data resulting 
# from the CCDC's data processing and validation procedures.
#
#######################################################################

data_TEHROQ01
_chemical_formula_moiety         'C22 H23 N1 O2,C13 H19 N3 O2'
_chemical_name_systematic        
"N,N'-(pyridine-2,6-diyl)bis(2-methylpropanamide) 1,5,7-trimethyl-7-[4-(4-methylphenyl)buta-1,3-diyn-1-yl]-3-azabicyclo[3.3.1]nonane-2,4-dione"
_symmetry_cell_setting           triclinic
_symmetry_space_group_name_H-M   'P -1'
_symmetry_Int_Tables_number      2
_space_group_name_Hall           '-P 1'
loop_
_symmetry_equiv_pos_site_id
_symmetry_equiv_pos_as_xyz
1 x,y,z
2 -x,-y,-z
_cell_length_a                   15.637(9)
_cell_length_b                   22.119(12)
_cell_length_c                   22.261(12)
_cell_angle_alpha                116.410(19)
_cell_angle_beta                 104.29(2)
_cell_angle_gamma                96.54(2)
_cell_volume                     6456.84
_exptl_crystal_colour            colorless
_exptl_crystal_description       needle
_cell_formula_units_Z            8
_exptl_crystal_recrystallization_method 'dichloromethane / n-hexane'
loop_
_atom_site_label
_atom_site_type_symbol
_atom_site_fract_x
_atom_site_fract_y
_atom_site_fract_z
O1 O 0.49412(13) 0.53566(11) 0.21068(11)
O2 O 0.60140(16) 0.19349(11) 0.21352(11)
N1 N 0.49943(17) 0.42729(12) 0.13199(12)
H1 H 0.4849(18) 0.4001(13) 0.0859(9)
N2 N 0.51890(15) 0.32928(12) 0.13814(11)
N3 N 0.54147(16) 0.22595(12) 0.13191(12)
H2 H 0.5143(17) 0.2103(13) 0.0842(9)
C1 C 0.3920(2) 0.52297(17) 0.06835(17)
H3 H 0.3473 0.4775 0.0438
H4 H 0.3904 0.5413 0.0354
H5 H 0.3771 0.5556 0.1092
C2 C 0.5603(2) 0.58203(16) 0.12323(16)
H6 H 0.5511 0.6195 0.1643
H7 H 0.5557 0.5951 0.0861
H8 H 0.6209 0.5747 0.1379
C3 C 0.4869(2) 0.51442(16) 0.09412(15)
H9 H 0.4980 0.4762 0.0532
C4 C 0.49357(19) 0.49454(16) 0.15170(16)
C5 C 0.52593(18) 0.39805(15) 0.17532(14)
C6 C 0.56017(19) 0.43706(16) 0.24882(14)
H10 H 0.5618 0.4852 0.2733
C7 C 0.59173(19) 0.40274(15) 0.28457(15)
H11 H 0.6168 0.4278 0.3350
C8 C 0.58775(19) 0.33247(15) 0.24871(14)
H12 H 0.6100 0.3089 0.2736
C9 C 0.55023(18) 0.29749(15) 0.17523(15)
C10 C 0.5671(2) 0.17867(16) 0.15148(16)
C11 C 0.5519(2) 0.10623(15) 0.09003(15)
H13 H 0.4887 0.0920 0.0559
C12 C 0.6194(2) 0.10813(18) 0.05149(18)
H14 H 0.6111 0.1415 0.0342
H15 H 0.6086 0.0615 0.0111
H16 H 0.6818 0.1225 0.0843
C13 C 0.5602(2) 0.05382(17) 0.11659(17)
H17 H 0.6215 0.0675 0.1510
H18 H 0.5500 0.0073 0.0763
H19 H 0.5146 0.0529 0.1396
O3 O 0.53482(13) 0.79004(11) 0.37109(10)
O4 O 0.45608(13) 0.65560(11) 0.46080(10)
N4 N 0.49448(15) 0.71688(12) 0.40974(12)
H20 H 0.5472(13) 0.7396(13) 0.4447(11)
C14 C 0.38502(18) 0.70914(15) 0.30381(14)
C15 C 0.47697(19) 0.74247(15) 0.36320(14)
C16 C 0.43417(19) 0.66868(15) 0.41242(15)
C17 C 0.34177(18) 0.63306(15) 0.35349(14)
C18 C 0.27134(18) 0.67262(15) 0.37662(15)
H21 H 0.2694 0.6748 0.4216
H22 H 0.2105 0.6453 0.3402
C19 C 0.28793(19) 0.74774(15) 0.38793(14)
C20 C 0.31618(19) 0.75047(15) 0.32751(14)
H23 H 0.2604 0.7330 0.2857
H24 H 0.3424 0.8000 0.3428
C21 C 0.35148(19) 0.63395(15) 0.28732(14)
H25 H 0.2917 0.6115 0.2485
H26 H 0.3954 0.6071 0.2712
C22 C 0.3957(2) 0.71092(16) 0.23803(15)
H27 H 0.4423 0.6870 0.2241
H28 H 0.4143 0.7596 0.2491
H29 H 0.3373 0.6873 0.1988
C23 C 0.3117(2) 0.55841(15) 0.33918(15)
H30 H 0.2516 0.5352 0.3019
H31 H 0.3080 0.5594 0.3829
H32 H 0.3562 0.5328 0.3235
C24 C 0.1992(2) 0.77100(17) 0.38840(17)
H33 H 0.1509 0.7394 0.3427
H34 H 0.2090 0.8187 0.3958
H35 H 0.1809 0.7697 0.4270
C25 C 0.3569(2) 0.79839(16) 0.45774(16)
C26 C 0.4064(2) 0.84448(16) 0.51518(16)
C27 C 0.4616(2) 0.89943(17) 0.58018(16)
C28 C 0.5054(2) 0.95091(17) 0.63589(17)
C29 C 0.5577(2) 1.01442(16) 0.70078(15)
C30 C 0.6224(2) 1.06267(16) 0.69972(16)
H36 H 0.6319 1.0534 0.6562
C31 C 0.6732(2) 1.12417(17) 0.76204(17)
H37 H 0.7171 1.1565 0.7607
C32 C 0.6602(2) 1.13867(16) 0.82581(16)
C33 C 0.5964(2) 1.09059(17) 0.82628(16)
H38 H 0.5875 1.0997 0.8699
C34 C 0.5450(2) 1.02917(16) 0.76460(15)
H39 H 0.5009 0.9972 0.7663
C35 C 0.7172(2) 1.20528(17) 0.89291(17)
H40 H 0.7016 1.2455 0.8894
H41 H 0.7821 1.2085 0.8989
H42 H 0.7050 1.2051 0.9339
O5 O 0.42845(13) 0.15512(10) -0.01576(10)
O6 O 0.36250(13) 0.34744(10) -0.01308(10)
N5 N 0.37948(16) 0.24791(12) -0.01252(12)
H43 H 0.4188(16) 0.2729(13) 0.0314(10)
C36 C 0.30866(18) 0.13239(14) -0.12031(14)
C37 C 0.37679(19) 0.17810(15) -0.04605(14)
C38 C 0.34054(19) 0.28387(16) -0.04518(14)
C39 C 0.27089(18) 0.23957(14) -0.11973(14)
C40 C 0.31638(18) 0.23046(15) -0.17593(14)
H44 H 0.3437 0.2774 -0.1675
H45 H 0.2683 0.2056 -0.2234
C41 C 0.39090(18) 0.19051(15) -0.17765(14)
C42 C 0.35736(18) 0.12389(14) -0.17456(14)
H46 H 0.3151 0.0882 -0.2224
H47 H 0.4107 0.1057 -0.1636
C43 C 0.23238(18) 0.16751(14) -0.13057(14)
H48 H 0.2004 0.1722 -0.0961
H49 H 0.1875 0.1382 -0.1792
C44 C 0.27054(19) 0.06144(14) -0.12834(15)
H50 H 0.2448 0.0682 -0.0906
H51 H 0.3197 0.0381 -0.1248
H52 H 0.2226 0.0325 -0.1748
C45 C 0.19674(19) 0.27743(15) -0.12732(15)
H53 H 0.1503 0.2492 -0.1746
H54 H 0.2239 0.3227 -0.1214
H55 H 0.1684 0.2847 -0.0908
C46 C 0.4104(2) 0.16902(16) -0.24762(15)
H56 H 0.4594 0.1450 -0.2485
H57 H 0.4291 0.2107 -0.2512
H58 H 0.3550 0.1376 -0.2878
C47 C 0.4753(2) 0.23887(16) -0.11764(15)
C48 C 0.53846(19) 0.28520(15) -0.06845(15)
C49 C 0.6056(2) 0.34125(16) -0.01095(16)
C50 C 0.6606(2) 0.39331(16) 0.03896(16)
C51 C 0.72338(18) 0.45775(15) 0.09573(15)
C52 C 0.72733(19) 0.48181(16) 0.16584(16)
H59 H 0.6906 0.4539 0.1772
C53 C 0.7845(2) 0.54631(16) 0.21943(16)
H60 H 0.7851 0.5623 0.2669
C54 C 0.8407(2) 0.58792(16) 0.20576(16)
C55 C 0.83803(19) 0.56326(15) 0.13613(16)
H61 H 0.8767 0.5905 0.1254
C56 C 0.77995(18) 0.49945(15) 0.08144(15)
H62 H 0.7787 0.4841 0.0340
C57 C 0.9023(2) 0.65843(16) 0.26460(17)
H63 H 0.9525 0.6717 0.2502
H64 H 0.9272 0.6557 0.3080
H65 H 0.8670 0.6935 0.2737
O7 O 0.90982(14) 0.65636(10) 0.97929(10)
O8 O 0.84520(14) 0.84880(11) 0.98195(10)
N6 N 0.86247(16) 0.74917(12) 0.98142(12)
H66 H 0.9058(15) 0.7775(12) 1.0249(10)
C58 C 0.79510(19) 0.63373(14) 0.87226(14)
C59 C 0.86016(19) 0.67896(15) 0.94765(14)
C60 C 0.82511(19) 0.78502(16) 0.94861(15)
C61 C 0.75878(18) 0.74114(15) 0.87263(14)
C62 C 0.80970(18) 0.73447(15) 0.81990(14)
H67 H 0.8381 0.7820 0.8305
H68 H 0.7644 0.7105 0.7713
C63 C 0.88476(18) 0.69460(15) 0.82030(14)
C64 C 0.84793(19) 0.62687(15) 0.82055(14)
H69 H 0.8073 0.5921 0.7718
H70 H 0.9002 0.6080 0.8322
C65 C 0.71886(18) 0.66867(15) 0.85996(15)
H71 H 0.6761 0.6397 0.8105
H72 H 0.6843 0.6726 0.8927
C66 C 0.7565(2) 0.56177(15) 0.86205(15)
H73 H 0.7114 0.5328 0.8142
H74 H 0.7272 0.5671 0.8976
H75 H 0.8062 0.5394 0.8677
C67 C 0.68512(19) 0.77889(16) 0.86299(15)
H76 H 0.7131 0.8241 0.8691
H77 H 0.6551 0.7864 0.8986
H78 H 0.6399 0.7505 0.8152
C68 C 0.9111(2) 0.67579(17) 0.75355(15)
H79 H 0.9602 0.6520 0.7545
H80 H 0.9321 0.7185 0.7522
H81 H 0.8578 0.6448 0.7112
C69 C 0.9665(2) 0.74192(16) 0.88312(15)
C70 C 1.0291(2) 0.78648(16) 0.93416(16)
C71 C 1.0955(2) 0.84167(16) 0.99378(16)
C72 C 1.1502(2) 0.89250(16) 1.04408(16)
C73 C 1.21250(19) 0.95636(15) 1.10286(15)
C74 C 1.21409(19) 0.97801(17) 1.17211(15)
H82 H 1.1758 0.9490 1.1814
C75 C 1.2711(2) 1.04155(16) 1.22803(16)
H83 H 1.2703 1.0557 1.2749
C76 C 1.3293(2) 1.08485(16) 1.21674(16)
C77 C 1.3287(2) 1.06197(16) 1.14790(16)
H84 H 1.3691 1.0899 1.1389
C78 C 1.27083(19) 0.99926(15) 1.09152(16)
H85 H 1.2711 0.9855 1.0446
C79 C 1.3912(2) 1.15428(17) 1.27768(17)
H86 H 1.3576 1.1904 1.2860
H87 H 1.4443 1.1670 1.2657
H88 H 1.4119 1.1504 1.3208
O9 O 1.01660(14) 0.31225(12) 0.39714(12)
O10 O 0.95354(13) 0.14916(11) 0.45729(10)
N7 N 0.98518(15) 0.22470(13) 0.42006(12)
H89 H 1.0398(13) 0.2428(13) 0.4540(12)
C80 C 0.87204(19) 0.22692(15) 0.32215(15)
C81 C 0.9634(2) 0.25884(17) 0.38184(15)
C82 C 0.92841(19) 0.16933(15) 0.41506(15)
C83 C 0.83607(18) 0.13621(15) 0.35651(14)
C84 C 0.76379(19) 0.17001(15) 0.38494(15)
H90 H 0.7645 0.1656 0.4274
H91 H 0.7030 0.1429 0.3483
C85 C 0.77433(19) 0.24733(16) 0.40530(15)
C86 C 0.79909(19) 0.26072(16) 0.34882(15)
H92 H 0.7428 0.2437 0.3074
H93 H 0.8205 0.3118 0.3688
C87 C 0.84353(19) 0.14873(15) 0.29589(14)
H94 H 0.7839 0.1276 0.2570
H95 H 0.8892 0.1262 0.2768
C88 C 0.8821(2) 0.24121(18) 0.26292(16)
H96 H 0.8234 0.2216 0.2242
H97 H 0.9281 0.2194 0.2448
H98 H 0.9013 0.2917 0.2817
C89 C 0.8103(2) 0.05837(15) 0.33221(15)
H99 H 0.8555 0.0366 0.3130
H100 H 0.7499 0.0365 0.2953
H101 H 0.8088 0.0520 0.3728
C90 C 0.6832(2) 0.26550(18) 0.40934(17)
H102 H 0.6896 0.3149 0.4230
H103 H 0.6662 0.2567 0.4448
H104 H 0.6356 0.2364 0.3627
C91 C 0.8441(2) 0.29589(16) 0.47583(16)
C92 C 0.8954(2) 0.34190(17) 0.53216(16)
C93 C 0.9532(2) 0.39791(17) 0.59513(17)
C94 C 1.0003(2) 0.45016(17) 0.64928(17)
C95 C 1.0561(2) 0.51464(16) 0.71107(15)
C96 C 1.0407(2) 0.53661(16) 0.77536(16)
H105 H 0.9939 0.5085 0.7791
C97 C 1.0940(2) 0.60002(17) 0.83449(16)
H106 H 1.0827 0.6147 0.8782
C98 C 1.1631(2) 0.64210(16) 0.83096(16)
C99 C 1.1784(2) 0.61933(17) 0.76691(17)
H107 H 1.2260 0.6470 0.7634
C100 C 1.1254(2) 0.55682(17) 0.70756(17)
H108 H 1.1366 0.5426 0.6638
C101 C 1.2207(2) 0.71059(17) 0.89494(17)
H109 H 1.2034 0.7493 0.8889
H110 H 1.2853 0.7138 0.8998
H111 H 1.2110 0.7133 0.9378
O11 O -0.02618(13) 1.04272(10) 0.21598(10)
O12 O 0.12199(18) 0.70632(12) 0.19997(12)
N8 N -0.03156(16) 0.93379(12) 0.13093(12)
H112 H -0.0507(18) 0.9040(12) 0.0840(9)
N9 N 0.00106(15) 0.83613(12) 0.13343(11)
N10 N 0.03394(16) 0.73413(13) 0.12372(12)
H113 H -0.0014(17) 0.7147(13) 0.0785(10)
C102 C -0.1252(2) 1.06796(19) 0.10737(18)
H114 H -0.1830 1.0423 0.1043
H115 H -0.1364 1.0817 0.0705
H116 H -0.0984 1.1098 0.1543
C103 C -0.0604(2) 1.02208(16) 0.09674(16)
H117 H -0.0882 0.9791 0.0490
C104 C 0.0294(3) 1.0609(2) 0.1005(2)
H118 H 0.0590 1.1011 0.1483
H119 H 0.0173 1.0771 0.0655
H120 H 0.0695 1.0294 0.0900
C105 C -0.03855(19) 1.00119(15) 0.15375(16)
C106 C 0.00495(18) 0.90433(15) 0.17233(14)
C107 C 0.04539(19) 0.94267(15) 0.24545(14)
H121 H 0.0453 0.9903 0.2713
C108 C 0.08578(19) 0.90906(16) 0.27928(15)
H122 H 0.1148 0.9339 0.3295
C109 C 0.08475(19) 0.83935(15) 0.24108(15)
H123 H 0.1133 0.8161 0.2642
C110 C 0.04077(18) 0.80480(15) 0.16826(14)
C111 C 0.0741(2) 0.68954(16) 0.14009(16)
C112 C 0.0556(2) 0.61678(16) 0.07756(16)
H124 H -0.0113 0.5999 0.0502
C113 C 0.0819(2) 0.56617(17) 0.10335(18)
H125 H 0.1474 0.5819 0.1303
H126 H 0.0681 0.5195 0.0623
H127 H 0.0473 0.5646 0.1340
C114 C 0.1061(2) 0.62021(18) 0.02877(18)
H128 H 0.0874 0.6530 0.0130
H129 H 0.0916 0.5737 -0.0127
H130 H 0.1720 0.6361 0.0544
O13 O 0.79709(14) 0.82576(12) 0.34981(11)
O14 O 0.68777(14) 0.53106(11) 0.45333(11)
N11 N 0.86813(15) 0.79579(13) 0.43119(12)
H131 H 0.9210(13) 0.8081(14) 0.4636(12)
N12 N 0.82989(15) 0.70814(12) 0.45617(11)
N13 N 0.80547(16) 0.62423(13) 0.48914(12)
H132 H 0.8611(13) 0.6489(13) 0.5208(12)
C115 C 0.9408(2) 0.94235(16) 0.39916(17)
H133 H 0.9132 0.9190 0.3473
H134 H 1.0003 0.9741 0.4140
H135 H 0.9008 0.9690 0.4212
C116 C 1.0230(2) 0.85060(16) 0.39419(16)
H136 H 1.0335 0.8180 0.4122
H137 H 1.0807 0.8849 0.4103
H138 H 0.9993 0.8247 0.3421
C117 C 0.95355(18) 0.88832(15) 0.42227(15)
H139 H 0.9779 0.9129 0.4755
C118 C 0.8648(2) 0.83487(16) 0.39749(15)
C119 C 0.80275(19) 0.73734(15) 0.41564(14)
C120 C 0.71739(18) 0.71148(16) 0.36329(14)
H140 H 0.6998 0.7329 0.3351
C121 C 0.65910(19) 0.65390(16) 0.35357(15)
H141 H 0.6005 0.6352 0.3180
C122 C 0.68425(19) 0.62295(15) 0.39457(14)
H142 H 0.6440 0.5834 0.3884
C123 C 0.77088(19) 0.65200(15) 0.44535(14)
C124 C 0.7666(2) 0.56630(16) 0.48963(15)
C125 C 0.8307(2) 0.54564(16) 0.53587(16)
H143 H 0.8741 0.5890 0.5782
C126 C 0.7811(2) 0.50479(17) 0.56156(17)
H144 H 0.7493 0.5339 0.5915
H145 H 0.8251 0.4908 0.5893
H146 H 0.7365 0.4631 0.5206
C127 C 0.8850(3) 0.5028(3) 0.4929(2)
H147 H 0.8431 0.4601 0.4511
H148 H 0.9287 0.4903 0.5224
H149 H 0.9180 0.5303 0.4773
O15 O 0.71407(13) 0.66920(10) 0.64163(10)
O16 O 0.80590(15) 0.97379(11) 0.54879(11)
N14 N 0.64186(16) 0.70080(12) 0.56218(12)
H150 H 0.5891(14) 0.6897(14) 0.5280(12)
N15 N 0.67921(15) 0.78663(12) 0.53513(11)
N16 N 0.70176(16) 0.86897(12) 0.50034(12)
H151 H 0.6502(14) 0.8408(12) 0.4653(12)
C128 C 0.4919(2) 0.65480(16) 0.60895(16)
H152 H 0.5199 0.6792 0.6609
H153 H 0.4325 0.6233 0.5949
H154 H 0.4834 0.6890 0.5928
C129 C 0.5649(2) 0.55676(16) 0.59653(16)
H155 H 0.6015 0.5280 0.5719
H156 H 0.5045 0.5271 0.5836
H157 H 0.5956 0.5792 0.6481
C130 C 0.55423(19) 0.61235(15) 0.57496(15)
H158 H 0.5254 0.5887 0.5220
C131 C 0.64518(19) 0.66205(15) 0.59623(14)
C132 C 0.70717(18) 0.75845(14) 0.57626(14)
C133 C 0.79269(18) 0.78487(15) 0.62872(14)
H159 H 0.8110 0.7634 0.6567
C134 C 0.84992(19) 0.84331(15) 0.63873(14)
H160 H 0.9082 0.8630 0.6748
C135 C 0.82354(19) 0.87348(15) 0.59700(14)
H161 H 0.8629 0.9133 0.6030
C136 C 0.73679(19) 0.84324(15) 0.54563(14)
C137 C 0.7338(2) 0.93185(16) 0.50552(15)
C138 C 0.66858(18) 0.94649(15) 0.45389(15)
H162 H 0.6400 0.9017 0.4079
C139 C 0.5935(2) 0.9713(2) 0.4825(2)
H163 H 0.5630 0.9364 0.4915
H164 H 0.5489 0.9776 0.4476
H165 H 0.6199 1.0158 0.5271
C140 C 0.7175(2) 0.99878(18) 0.43949(18)
H166 H 0.7468 1.0429 0.4841
H167 H 0.6734 1.0068 0.4057
H168 H 0.7640 0.9806 0.4193
loop_
_geom_bond_atom_site_label_1
_geom_bond_atom_site_label_2
_geom_bond_site_symmetry_1
_geom_bond_site_symmetry_2
O1 C4 1_555 1_555
O2 C10 1_555 1_555
N1 H1 1_555 1_555
N2 C5 1_555 1_555
N3 H2 1_555 1_555
C1 H3 1_555 1_555
H4 C1 1_555 1_555
H5 C1 1_555 1_555
C2 H6 1_555 1_555
H7 C2 1_555 1_555
H8 C2 1_555 1_555
C3 C1 1_555 1_555
H9 C3 1_555 1_555
C4 N1 1_555 1_555
C5 N1 1_555 1_555
C6 C5 1_555 1_555
H10 C6 1_555 1_555
C7 C6 1_555 1_555
H11 C7 1_555 1_555
C8 C7 1_555 1_555
H12 C8 1_555 1_555
C9 N2 1_555 1_555
C10 N3 1_555 1_555
C11 C10 1_555 1_555
H13 C11 1_555 1_555
C12 C11 1_555 1_555
H14 C12 1_555 1_555
H15 C12 1_555 1_555
H16 C12 1_555 1_555
C13 C11 1_555 1_555
H17 C13 1_555 1_555
H18 C13 1_555 1_555
H19 C13 1_555 1_555
O3 C15 1_555 1_555
O4 C16 1_555 1_555
N4 H20 1_555 1_555
C14 C15 1_555 1_555
C15 N4 1_555 1_555
C16 N4 1_555 1_555
C17 C16 1_555 1_555
C18 C17 1_555 1_555
H21 C18 1_555 1_555
H22 C18 1_555 1_555
C19 C18 1_555 1_555
C20 C14 1_555 1_555
H23 C20 1_555 1_555
H24 C20 1_555 1_555
C21 C14 1_555 1_555
H25 C21 1_555 1_555
H26 C21 1_555 1_555
C22 C14 1_555 1_555
H27 C22 1_555 1_555
H28 C22 1_555 1_555
H29 C22 1_555 1_555
C23 C17 1_555 1_555
H30 C23 1_555 1_555
H31 C23 1_555 1_555
H32 C23 1_555 1_555
C24 C19 1_555 1_555
H33 C24 1_555 1_555
H34 C24 1_555 1_555
H35 C24 1_555 1_555
C25 C19 1_555 1_555
C26 C25 1_555 1_555
C27 C26 1_555 1_555
C28 C27 1_555 1_555
C29 C28 1_555 1_555
C30 C29 1_555 1_555
H36 C30 1_555 1_555
C31 C30 1_555 1_555
H37 C31 1_555 1_555
C32 C31 1_555 1_555
C33 C32 1_555 1_555
H38 C33 1_555 1_555
C34 C29 1_555 1_555
H39 C34 1_555 1_555
C35 C32 1_555 1_555
H40 C35 1_555 1_555
H41 C35 1_555 1_555
H42 C35 1_555 1_555
O5 C37 1_555 1_555
O6 C38 1_555 1_555
N5 H43 1_555 1_555
C36 C37 1_555 1_555
C37 N5 1_555 1_555
C38 N5 1_555 1_555
C39 C38 1_555 1_555
C40 C39 1_555 1_555
H44 C40 1_555 1_555
H45 C40 1_555 1_555
C41 C40 1_555 1_555
C42 C36 1_555 1_555
H46 C42 1_555 1_555
H47 C42 1_555 1_555
C43 C36 1_555 1_555
H48 C43 1_555 1_555
H49 C43 1_555 1_555
C44 C36 1_555 1_555
H50 C44 1_555 1_555
H51 C44 1_555 1_555
H52 C44 1_555 1_555
C45 C39 1_555 1_555
H53 C45 1_555 1_555
H54 C45 1_555 1_555
H55 C45 1_555 1_555
C46 C41 1_555 1_555
H56 C46 1_555 1_555
H57 C46 1_555 1_555
H58 C46 1_555 1_555
C47 C41 1_555 1_555
C48 C47 1_555 1_555
C49 C48 1_555 1_555
C50 C49 1_555 1_555
C51 C50 1_555 1_555
C52 C51 1_555 1_555
H59 C52 1_555 1_555
C53 C52 1_555 1_555
H60 C53 1_555 1_555
C54 C53 1_555 1_555
C55 C54 1_555 1_555
H61 C55 1_555 1_555
C56 C51 1_555 1_555
H62 C56 1_555 1_555
C57 C54 1_555 1_555
H63 C57 1_555 1_555
H64 C57 1_555 1_555
H65 C57 1_555 1_555
O7 C59 1_555 1_555
O8 C60 1_555 1_555
N6 H66 1_555 1_555
C58 C59 1_555 1_555
C59 N6 1_555 1_555
C60 N6 1_555 1_555
C61 C60 1_555 1_555
C62 C61 1_555 1_555
H67 C62 1_555 1_555
H68 C62 1_555 1_555
C63 C62 1_555 1_555
C64 C58 1_555 1_555
H69 C64 1_555 1_555
H70 C64 1_555 1_555
C65 C58 1_555 1_555
H71 C65 1_555 1_555
H72 C65 1_555 1_555
C66 C58 1_555 1_555
H73 C66 1_555 1_555
H74 C66 1_555 1_555
H75 C66 1_555 1_555
C67 C61 1_555 1_555
H76 C67 1_555 1_555
H77 C67 1_555 1_555
H78 C67 1_555 1_555
C68 C63 1_555 1_555
H79 C68 1_555 1_555
H80 C68 1_555 1_555
H81 C68 1_555 1_555
C69 C63 1_555 1_555
C70 C69 1_555 1_555
C71 C70 1_555 1_555
C72 C71 1_555 1_555
C73 C72 1_555 1_555
C74 C73 1_555 1_555
H82 C74 1_555 1_555
C75 C74 1_555 1_555
H83 C75 1_555 1_555
C76 C75 1_555 1_555
C77 C76 1_555 1_555
H84 C77 1_555 1_555
C78 C73 1_555 1_555
H85 C78 1_555 1_555
C79 C76 1_555 1_555
H86 C79 1_555 1_555
H87 C79 1_555 1_555
H88 C79 1_555 1_555
O9 C81 1_555 1_555
O10 C82 1_555 1_555
N7 H89 1_555 1_555
C80 C81 1_555 1_555
C81 N7 1_555 1_555
C82 N7 1_555 1_555
C83 C82 1_555 1_555
C84 C83 1_555 1_555
H90 C84 1_555 1_555
H91 C84 1_555 1_555
C85 C84 1_555 1_555
C86 C80 1_555 1_555
H92 C86 1_555 1_555
H93 C86 1_555 1_555
C87 C80 1_555 1_555
H94 C87 1_555 1_555
H95 C87 1_555 1_555
C88 C80 1_555 1_555
H96 C88 1_555 1_555
H97 C88 1_555 1_555
H98 C88 1_555 1_555
C89 C83 1_555 1_555
H99 C89 1_555 1_555
H100 C89 1_555 1_555
H101 C89 1_555 1_555
C90 C85 1_555 1_555
H102 C90 1_555 1_555
H103 C90 1_555 1_555
H104 C90 1_555 1_555
C91 C85 1_555 1_555
C92 C91 1_555 1_555
C93 C92 1_555 1_555
C94 C93 1_555 1_555
C95 C94 1_555 1_555
C96 C95 1_555 1_555
H105 C96 1_555 1_555
C97 C96 1_555 1_555
H106 C97 1_555 1_555
C98 C97 1_555 1_555
C99 C98 1_555 1_555
H107 C99 1_555 1_555
C100 C95 1_555 1_555
H108 C100 1_555 1_555
C101 C98 1_555 1_555
H109 C101 1_555 1_555
H110 C101 1_555 1_555
H111 C101 1_555 1_555
O11 C105 1_555 1_555
O12 C111 1_555 1_555
N8 H112 1_555 1_555
N9 C106 1_555 1_555
N10 H113 1_555 1_555
C102 H114 1_555 1_555
H115 C102 1_555 1_555
H116 C102 1_555 1_555
C103 C102 1_555 1_555
H117 C103 1_555 1_555
C104 C103 1_555 1_555
H118 C104 1_555 1_555
H119 C104 1_555 1_555
H120 C104 1_555 1_555
C105 N8 1_555 1_555
C106 N8 1_555 1_555
C107 C106 1_555 1_555
H121 C107 1_555 1_555
C108 C107 1_555 1_555
H122 C108 1_555 1_555
C109 C108 1_555 1_555
H123 C109 1_555 1_555
C110 N9 1_555 1_555
C111 N10 1_555 1_555
C112 C111 1_555 1_555
H124 C112 1_555 1_555
C113 C112 1_555 1_555
H125 C113 1_555 1_555
H126 C113 1_555 1_555
H127 C113 1_555 1_555
C114 C112 1_555 1_555
H128 C114 1_555 1_555
H129 C114 1_555 1_555
H130 C114 1_555 1_555
O13 C118 1_555 1_555
O14 C124 1_555 1_555
N11 H131 1_555 1_555
N12 C119 1_555 1_555
N13 H132 1_555 1_555
C115 H133 1_555 1_555
H134 C115 1_555 1_555
H135 C115 1_555 1_555
C116 H136 1_555 1_555
H137 C116 1_555 1_555
H138 C116 1_555 1_555
C117 C115 1_555 1_555
H139 C117 1_555 1_555
C118 N11 1_555 1_555
C119 N11 1_555 1_555
C120 C119 1_555 1_555
H140 C120 1_555 1_555
C121 C120 1_555 1_555
H141 C121 1_555 1_555
C122 C121 1_555 1_555
H142 C122 1_555 1_555
C123 N12 1_555 1_555
C124 N13 1_555 1_555
C125 C124 1_555 1_555
H143 C125 1_555 1_555
C126 C125 1_555 1_555
H144 C126 1_555 1_555
H145 C126 1_555 1_555
H146 C126 1_555 1_555
C127 C125 1_555 1_555
H147 C127 1_555 1_555
H148 C127 1_555 1_555
H149 C127 1_555 1_555
O15 C131 1_555 1_555
O16 C137 1_555 1_555
N14 H150 1_555 1_555
N15 C132 1_555 1_555
N16 H151 1_555 1_555
C128 H152 1_555 1_555
H153 C128 1_555 1_555
H154 C128 1_555 1_555
C129 H155 1_555 1_555
H156 C129 1_555 1_555
H157 C129 1_555 1_555
C130 C128 1_555 1_555
H158 C130 1_555 1_555
C131 N14 1_555 1_555
C132 N14 1_555 1_555
C133 C132 1_555 1_555
H159 C133 1_555 1_555
C134 C133 1_555 1_555
H160 C134 1_555 1_555
C135 C134 1_555 1_555
H161 C135 1_555 1_555
C136 N15 1_555 1_555
C137 N16 1_555 1_555
C138 C137 1_555 1_555
H162 C138 1_555 1_555
C139 C138 1_555 1_555
H163 C139 1_555 1_555
H164 C139 1_555 1_555
H165 C139 1_555 1_555
C140 C138 1_555 1_555
H166 C140 1_555 1_555
H167 C140 1_555 1_555
H168 C140 1_555 1_555
N3 C9 1_555 1_555
C2 C3 1_555 1_555
C3 C4 1_555 1_555
C8 C9 1_555 1_555
C17 C21 1_555 1_555
C19 C20 1_555 1_555
C33 C34 1_555 1_555
C39 C43 1_555 1_555
C41 C42 1_555 1_555
C55 C56 1_555 1_555
C61 C65 1_555 1_555
C63 C64 1_555 1_555
C77 C78 1_555 1_555
C83 C87 1_555 1_555
C85 C86 1_555 1_555
C99 C100 1_555 1_555
N10 C110 1_555 1_555
C103 C105 1_555 1_555
C109 C110 1_555 1_555
N13 C123 1_555 1_555
C116 C117 1_555 1_555
C117 C118 1_555 1_555
C122 C123 1_555 1_555
N16 C136 1_555 1_555
C129 C130 1_555 1_555
C130 C131 1_555 1_555
C135 C136 1_555 1_555

#END
