
#######################################################################
#
#                 Cambridge Crystallographic Data Centre
#                                CCDC 
#
#######################################################################
#
# If this CIF has been generated from an entry in the Cambridge 
# Structural Database, then it will include bibliographic, chemical, 
# crystal, experimental, refinement or atomic coordinate data resulting 
# from the CCDC's data processing and validation procedures.
#
#######################################################################

data_TEHRAC
_chemical_formula_moiety         'C21 H20 N2 O4,1.5(C13 H19 N3 O2),0.5(C6 H14)'
_chemical_name_systematic        
"sesquikis(N,N'-(pyridine-2,6-diyl)bis(2-methylpropanamide)) 1,5,7-trimethyl-7-[4-(4-nitrophenyl)buta-1,3-diyn-1-yl]-3-azabicyclo[3.3.1]nonane-2,4-dione hexane solvate"
_symmetry_cell_setting           triclinic
_symmetry_space_group_name_H-M   'P -1'
_symmetry_Int_Tables_number      2
_space_group_name_Hall           '-P 1'
loop_
_symmetry_equiv_pos_site_id
_symmetry_equiv_pos_as_xyz
1 x,y,z
2 -x,-y,-z
_cell_length_a                   14.4355(9)
_cell_length_b                   18.4998(10)
_cell_length_c                   18.9921(7)
_cell_angle_alpha                76.657(4)
_cell_angle_beta                 73.061(4)
_cell_angle_gamma                67.386(5)
_cell_volume                     4438.16
_exptl_crystal_colour            colorless
_exptl_crystal_description       block
_cell_formula_units_Z            4
_exptl_crystal_recrystallization_method 'dichloromethane / n-hexane'
loop_
_atom_site_label
_atom_site_type_symbol
_atom_site_fract_x
_atom_site_fract_y
_atom_site_fract_z
O1 O 0.9553(2) 0.3921(2) 0.83042(16)
N1 N 0.5897(2) 0.2778(2) 0.86145(17)
H1 H 0.609(7) 0.242(4) 0.901(3)
N2 N 0.7077(2) 0.32092(18) 0.88179(14)
N3 N 0.8282(2) 0.35351(19) 0.91257(16)
H2 H 0.812(3) 0.325(2) 0.9575(11)
C1 C 0.6403(3) 0.3329(2) 0.84089(18)
C2 C 0.6243(3) 0.3943(2) 0.78255(19)
H3 H 0.5784 0.4010 0.7540
C3 C 0.6787(3) 0.4445(2) 0.7686(2)
H4 H 0.6685 0.4866 0.7306
C4 C 0.7484(3) 0.4339(2) 0.81003(19)
H5 H 0.7852 0.4680 0.8009
C5 C 0.7609(3) 0.3699(2) 0.86582(19)
C6 C 0.9201(3) 0.3644(3) 0.8931(2)
C7 C 0.9796(3) 0.3371(3) 0.9546(2)
H6 H 0.9339 0.3247 1.0015
C8 C 1.0681(5) 0.2633(4) 0.9367(4)
H7 H 1.0425 0.2220 0.9383
H8 H 1.1099 0.2477 0.9725
H9 H 1.1088 0.2728 0.8879
C9 C 1.0132(4) 0.4012(3) 0.9630(2)
H10 H 1.0618 0.4115 0.9187
H11 H 1.0449 0.3848 1.0047
H12 H 0.9544 0.4484 0.9710
O2 O 0.4775(12) 0.3265(9) 0.7864(7)
C10 C 0.3426(7) 0.2486(8) 0.9004(8)
H13 H 0.3192 0.2877 0.9332
H14 H 0.3207 0.2046 0.9256
H15 H 0.3139 0.2712 0.8573
C11 C 0.5015(13) 0.1618(10) 0.8204(10)
H16 H 0.4866 0.1893 0.7733
H17 H 0.4697 0.1220 0.8376
H18 H 0.5747 0.1374 0.8148
C12 C 0.4592(10) 0.2206(10) 0.8768(8)
H19 H 0.4872 0.1943 0.9209
C13 C 0.5085(10) 0.2818(12) 0.8368(10)
O4 O 0.6786(2) 0.12459(16) 0.94836(16)
O5 O 0.7979(2) 0.25333(17) 1.05246(13)
N4 N 0.7555(2) 0.18005(18) 0.99617(15)
H28 H 0.743(3) 0.2221(15) 0.9601(16)
N5 N 0.2546(4) 0.6548(3) 0.8274(2)
C18 C 0.7547(3) 0.0455(2) 1.0516(2)
C19 C 0.7263(3) 0.1183(2) 0.9943(2)
C20 C 0.7906(3) 0.1897(3) 1.05218(19)
C21 C 0.8184(3) 0.1189(2) 1.1116(2)
C22 C 0.7239(4) 0.1244(3) 1.1787(2)
H29 H 0.7461 0.0830 1.2183
H30 H 0.7034 0.1746 1.1967
C23 C 0.6293(3) 0.1176(3) 1.1641(2)
C24 C 0.6613(4) 0.0507(3) 1.1178(2)
H31 H 0.6029 0.0564 1.0990
H32 H 0.6765 0.0009 1.1505
C25 C 0.8455(3) 0.0441(2) 1.0775(2)
H33 H 0.9043 0.0403 1.0358
H34 H 0.8644 -0.0019 1.1142
C26 C 0.7804(4) -0.0272(3) 1.0161(3)
H35 H 0.7201 -0.0262 1.0034
H36 H 0.8033 -0.0737 1.0503
H37 H 0.8339 -0.0278 0.9719
C27 C 0.9087(4) 0.1203(3) 1.1363(2)
H38 H 0.9646 0.1207 1.0940
H39 H 0.9307 0.0742 1.1713
H40 H 0.8879 0.1668 1.1594
C28 C 0.5584(4) 0.0999(3) 1.2386(3)
H41 H 0.5473 0.1367 1.2711
H42 H 0.5901 0.0470 1.2610
H43 H 0.4936 0.1048 1.2304
C29 C 0.5708(3) 0.1938(3) 1.1257(2)
C30 C 0.5260(3) 0.2545(3) 1.0937(2)
C31 C 0.4773(3) 0.3243(3) 1.0523(2)
C32 C 0.4373(3) 0.3834(3) 1.0150(2)
C33 C 0.3917(3) 0.4528(2) 0.9676(2)
C34 C 0.2897(3) 0.4720(3) 0.9629(3)
H44 H 0.2518 0.4399 0.9904
C35 C 0.2455(4) 0.5388(3) 0.9173(3)
H45 H 0.1780 0.5517 0.9136
C36 C 0.3017(4) 0.5854(3) 0.8779(2)
C37 C 0.4025(4) 0.5687(3) 0.8804(2)
H46 H 0.4393 0.6014 0.8522
C38 C 0.4479(4) 0.5013(3) 0.9264(2)
H47 H 0.5156 0.4888 0.9296
O6 O 0.3102(3) 0.6913(2) 0.78555(18)
O7 O 0.1633(3) 0.6718(2) 0.8285(2)
O8 O 0.9813(2) 0.15808(19) 0.86654(16)
O9 O 0.9197(2) 0.06593(17) 0.87345(15)
O10 O 0.65483(18) 0.57781(16) 0.50653(15)
O11 O 0.9157(2) 0.43649(17) 0.34237(12)
N6 N 0.7879(2) 0.51786(18) 0.41884(15)
H48 H 0.822(3) 0.499(2) 0.4562(15)
N7 N 0.9331(3) 0.1285(2) 0.84483(17)
C39 C 0.6238(3) 0.6025(2) 0.3831(2)
C40 C 0.6873(3) 0.5662(2) 0.4417(2)
C41 C 0.8313(3) 0.4883(2) 0.35166(19)
C42 C 0.7694(3) 0.5238(3) 0.29224(18)
C43 C 0.7082(3) 0.4705(3) 0.29424(18)
H49 H 0.7561 0.4171 0.2901
H50 H 0.6783 0.4884 0.2510
C44 C 0.6213(3) 0.4686(2) 0.36425(18)
C45 C 0.5596(3) 0.5521(2) 0.3848(2)
H51 H 0.5165 0.5477 0.4343
H52 H 0.5142 0.5797 0.3509
C46 C 0.6963(3) 0.6061(3) 0.3078(2)
H53 H 0.7357 0.6389 0.3063
H54 H 0.6568 0.6298 0.2698
C47 C 0.5484(3) 0.6852(3) 0.4025(3)
H55 H 0.5063 0.6798 0.4516
H56 H 0.5053 0.7088 0.3673
H57 H 0.5869 0.7182 0.4006
C48 C 0.8454(3) 0.5250(3) 0.2159(2)
H58 H 0.8898 0.5525 0.2159
H59 H 0.8076 0.5515 0.1778
H60 H 0.8860 0.4718 0.2065
C49 C 0.5499(3) 0.4325(3) 0.3485(2)
H61 H 0.5888 0.3796 0.3374
H62 H 0.5216 0.4640 0.3070
H63 H 0.4950 0.4315 0.3915
C50 C 0.6642(3) 0.4164(2) 0.42761(19)
C51 C 0.6939(3) 0.3755(2) 0.48105(18)
C52 C 0.7295(3) 0.3320(2) 0.54323(19)
C53 C 0.7613(3) 0.2947(2) 0.59688(18)
C54 C 0.8031(3) 0.2521(2) 0.66064(17)
C55 C 0.7791(3) 0.1860(2) 0.70130(18)
H64 H 0.7345 0.1690 0.6880
C56 C 0.8222(3) 0.1458(2) 0.76155(19)
H65 H 0.8074 0.1014 0.7888
C57 C 0.8872(3) 0.1723(2) 0.78075(19)
C58 C 0.9111(3) 0.2381(2) 0.74259(19)
H66 H 0.9548 0.2551 0.7570
C59 C 0.8683(3) 0.2781(2) 0.68234(18)
H67 H 0.8830 0.3228 0.6559
O12 O 0.7541(4) 0.0233(3) 0.5247(3)
O13 O 1.1468(3) 0.04949(18) 0.72533(18)
N8 N 0.8499(3) 0.0967(3) 0.5128(2)
H68 H 0.866(4) 0.1408(19) 0.491(3)
N9 N 0.9731(3) 0.09198(19) 0.56803(17)
N10 N 1.0969(3) 0.1014(2) 0.61483(19)
H69 H 1.107(4) 0.135(2) 0.5722(15)
C60 C 0.7268(6) 0.1359(5) 0.4347(5)
H70 H 0.7768 0.1544 0.3949
C61 C 0.7790(5) 0.0812(4) 0.4948(4)
C62 C 0.9044(4) 0.0599(3) 0.5691(2)
C63 C 0.8903(5) -0.0033(3) 0.6184(3)
H71 H 0.8425 -0.0251 0.6174
C64 C 0.9508(6) -0.0333(3) 0.6701(3)
H72 H 0.9435 -0.0767 0.7044
C65 C 1.0201(5) -0.0019(3) 0.6726(2)
H73 H 1.0596 -0.0224 0.7081
C66 C 1.0297(4) 0.0620(2) 0.6198(2)
C67 C 1.1515(4) 0.0937(3) 0.6663(3)
C68 C 1.2204(5) 0.1439(3) 0.6435(4)
H74 H 1.1846 0.1939 0.6160
C69 C 1.2336(6) 0.1632(4) 0.7133(4)
H75 H 1.1676 0.1923 0.7412
H76 H 1.2777 0.1944 0.6993
H77 H 1.2639 0.1150 0.7433
C70 C 1.3192(6) 0.1037(5) 0.5917(4)
H78 H 1.3555 0.0540 0.6169
H79 H 1.3612 0.1366 0.5759
H80 H 1.3040 0.0947 0.5491
C71 C 0.6757(13) 0.0981(8) 0.4038(11)
H81 H 0.7258 0.0514 0.3840
H82 H 0.6451 0.1344 0.3651
H83 H 0.6232 0.0840 0.4425
C72 C 0.6486(12) 0.2017(9) 0.4698(10)
H84 H 0.5999 0.1832 0.5086
H85 H 0.6138 0.2393 0.4336
H86 H 0.6801 0.2265 0.4906
O14 O 0.7973(2) 0.61101(17) 0.69153(14)
O15 O 1.1215(2) 0.23068(15) 0.49818(15)
N11 N 0.7928(2) 0.55098(18) 0.60058(15)
H94 H 0.754(2) 0.551(2) 0.5705(18)
N12 N 0.91296(19) 0.45145(16) 0.53502(13)
N13 N 1.0220(2) 0.35526(16) 0.46126(14)
H95 H 0.986(2) 0.3865(18) 0.4272(15)
C75 C 0.6464(4) 0.7292(3) 0.5818(3)
H96 H 0.6797 0.7602 0.5923
H97 H 0.5775 0.7618 0.5777
H98 H 0.6841 0.7085 0.5359
C76 C 0.6429(3) 0.6610(3) 0.6446(2)
H99 H 0.6083 0.6307 0.6325
C77 C 0.5836(4) 0.6878(3) 0.7192(3)
H100 H 0.5863 0.6425 0.7564
H101 H 0.5131 0.7178 0.7172
H102 H 0.6135 0.7202 0.7314
C78 C 0.7516(3) 0.6059(2) 0.64894(19)
C79 C 0.8875(3) 0.4882(2) 0.59458(17)
C80 C 0.9467(3) 0.4638(2) 0.64784(18)
H103 H 0.9267 0.4895 0.6894
C81 C 1.0360(3) 0.4001(2) 0.63577(18)
H104 H 1.0775 0.3822 0.6700
C82 C 1.0654(3) 0.3623(2) 0.57473(18)
H105 H 1.1267 0.3199 0.5664
C83 C 1.0002(2) 0.38958(19) 0.52542(17)
C84 C 1.0780(3) 0.2790(2) 0.4514(2)
C85 C 1.0797(3) 0.2569(2) 0.3783(2)
H106 H 1.0786 0.3026 0.3399
C86 C 1.1774(5) 0.1880(3) 0.3546(3)
H107 H 1.2363 0.2040 0.3446
H108 H 1.1747 0.1725 0.3105
H109 H 1.1826 0.1442 0.3937
C87 C 0.9815(4) 0.2379(3) 0.3885(3)
H110 H 0.9824 0.1922 0.4249
H111 H 0.9785 0.2277 0.3421
H112 H 0.9222 0.2821 0.4049
C88 C 0.1425(14) 0.3894(12) 0.1498(8)
H113 H 0.0819 0.4349 0.1600
H114 H 0.1852 0.3809 0.1834
H115 H 0.1801 0.3980 0.0996
C89 C 0.1096(17) 0.3127(13) 0.1604(17)
H116 H 0.0745 0.2996 0.2110
H117 H 0.0692 0.3170 0.1258
C90 C 0.2228(18) 0.2553(11) 0.1400(10)
H118 H 0.2613 0.2488 0.1766
H119 H 0.2592 0.2716 0.0911
C91 C 0.1969(17) 0.1773(12) 0.1427(13)
H120 H 0.1608 0.1819 0.1052
H121 H 0.1613 0.1596 0.1915
C92 C 0.3189(19) 0.1257(15) 0.1221(19)
H122 H 0.3487 0.1330 0.0693
H123 H 0.3581 0.1367 0.1495
C93 C 0.308(2) 0.0423(15) 0.1495(17)
H124 H 0.3754 0.0024 0.1416
H125 H 0.2762 0.0384 0.2015
H126 H 0.2669 0.0348 0.1223
H20? H 0.625(7) 0.227(2) 0.879(5)
O3? O 0.4448(9) 0.3507(8) 0.8169(5)
C14? C 0.3871(17) 0.2312(13) 0.9383(10)
H21? H 0.4125 0.2391 0.9763
H22? H 0.3572 0.1904 0.9571
H23? H 0.3358 0.2794 0.9235
C15? C 0.4444(16) 0.1830(11) 0.8122(9)
H24? H 0.3877 0.2258 0.7965
H25? H 0.4242 0.1373 0.8327
H26? H 0.5017 0.1708 0.7704
C16? C 0.4759(14) 0.2069(14) 0.8714(11)
H27? H 0.5346 0.1641 0.8873
C17? C 0.4983(10) 0.2844(13) 0.8486(10)
H87? H 0.7437 0.0945 0.4043
C73? C 0.6193(10) 0.1520(13) 0.4519(13)
H88? H 0.6059 0.1034 0.4601
H89? H 0.5909 0.1863 0.4114
H90? H 0.5881 0.1773 0.4960
C74? C 0.7736(11) 0.1823(8) 0.3792(8)
H91? H 0.7675 0.2282 0.3981
H92? H 0.7407 0.1985 0.3382
H93? H 0.8452 0.1525 0.3628
C94? C 0.093(2) 0.3848(13) 0.1637(16)
H127? H 0.0963 0.4318 0.1744
H128? H 0.0692 0.3965 0.1187
H129? H 0.0457 0.3660 0.2039
C95? C 0.2018(14) 0.3200(10) 0.1542(10)
H130? H 0.2511 0.3365 0.1131
H131? H 0.2273 0.3057 0.1992
C96? C 0.1772(15) 0.2515(9) 0.1376(10)
H132? H 0.1552 0.2645 0.0912
H133? H 0.1257 0.2364 0.1776
C97? C 0.2869(14) 0.1858(9) 0.1325(11)
H134? H 0.3382 0.2005 0.0919
H135? H 0.3094 0.1734 0.1786
C98? C 0.2617(18) 0.1166(12) 0.1173(17)
H136? H 0.2289 0.1314 0.0757
H137? H 0.2205 0.0950 0.1609
C99? C 0.3817(19) 0.0573(15) 0.097(2)
H138? H 0.3837 0.0088 0.0859
H139? H 0.4200 0.0821 0.0555
H140? H 0.4117 0.0463 0.1394
loop_
_geom_bond_atom_site_label_1
_geom_bond_atom_site_label_2
_geom_bond_site_symmetry_1
_geom_bond_site_symmetry_2
O1 C6 1_555 1_555
N1 H1 1_555 1_555
N2 C1 1_555 1_555
N3 H2 1_555 1_555
C1 N1 1_555 1_555
C2 C1 1_555 1_555
H3 C2 1_555 1_555
C3 C2 1_555 1_555
H4 C3 1_555 1_555
C4 C3 1_555 1_555
H5 C4 1_555 1_555
C5 N2 1_555 1_555
C6 N3 1_555 1_555
C7 C6 1_555 1_555
H6 C7 1_555 1_555
C8 C7 1_555 1_555
H7 C8 1_555 1_555
H8 C8 1_555 1_555
H9 C8 1_555 1_555
C9 C7 1_555 1_555
H10 C9 1_555 1_555
H11 C9 1_555 1_555
H12 C9 1_555 1_555
O2 C13 1_555 1_555
C10 H13 1_555 1_555
H14 C10 1_555 1_555
H15 C10 1_555 1_555
C11 H16 1_555 1_555
H17 C11 1_555 1_555
H18 C11 1_555 1_555
C12 C10 1_555 1_555
H19 C12 1_555 1_555
C13 N1 1_555 1_555
O4 C19 1_555 1_555
O5 C20 1_555 1_555
N4 H28 1_555 1_555
N5 C36 1_555 1_555
C18 C19 1_555 1_555
C19 N4 1_555 1_555
C20 N4 1_555 1_555
C21 C20 1_555 1_555
C22 C21 1_555 1_555
H29 C22 1_555 1_555
H30 C22 1_555 1_555
C23 C22 1_555 1_555
C24 C18 1_555 1_555
H31 C24 1_555 1_555
H32 C24 1_555 1_555
C25 C18 1_555 1_555
H33 C25 1_555 1_555
H34 C25 1_555 1_555
C26 C18 1_555 1_555
H35 C26 1_555 1_555
H36 C26 1_555 1_555
H37 C26 1_555 1_555
C27 C21 1_555 1_555
H38 C27 1_555 1_555
H39 C27 1_555 1_555
H40 C27 1_555 1_555
C28 C23 1_555 1_555
H41 C28 1_555 1_555
H42 C28 1_555 1_555
H43 C28 1_555 1_555
C29 C23 1_555 1_555
C30 C29 1_555 1_555
C31 C30 1_555 1_555
C32 C31 1_555 1_555
C33 C32 1_555 1_555
C34 C33 1_555 1_555
H44 C34 1_555 1_555
C35 C34 1_555 1_555
H45 C35 1_555 1_555
C36 C35 1_555 1_555
C37 C36 1_555 1_555
H46 C37 1_555 1_555
C38 C33 1_555 1_555
H47 C38 1_555 1_555
O6 N5 1_555 1_555
O7 N5 1_555 1_555
O8 N7 1_555 1_555
O9 N7 1_555 1_555
O10 C40 1_555 1_555
O11 C41 1_555 1_555
N6 H48 1_555 1_555
N7 C57 1_555 1_555
C39 C40 1_555 1_555
C40 N6 1_555 1_555
C41 N6 1_555 1_555
C42 C41 1_555 1_555
C43 C42 1_555 1_555
H49 C43 1_555 1_555
H50 C43 1_555 1_555
C44 C43 1_555 1_555
C45 C39 1_555 1_555
H51 C45 1_555 1_555
H52 C45 1_555 1_555
C46 C39 1_555 1_555
H53 C46 1_555 1_555
H54 C46 1_555 1_555
C47 C39 1_555 1_555
H55 C47 1_555 1_555
H56 C47 1_555 1_555
H57 C47 1_555 1_555
C48 C42 1_555 1_555
H58 C48 1_555 1_555
H59 C48 1_555 1_555
H60 C48 1_555 1_555
C49 C44 1_555 1_555
H61 C49 1_555 1_555
H62 C49 1_555 1_555
H63 C49 1_555 1_555
C50 C44 1_555 1_555
C51 C50 1_555 1_555
C52 C51 1_555 1_555
C53 C52 1_555 1_555
C54 C53 1_555 1_555
C55 C54 1_555 1_555
H64 C55 1_555 1_555
C56 C55 1_555 1_555
H65 C56 1_555 1_555
C57 C56 1_555 1_555
C58 C57 1_555 1_555
H66 C58 1_555 1_555
C59 C54 1_555 1_555
H67 C59 1_555 1_555
O12 C61 1_555 1_555
O13 C67 1_555 1_555
N8 H68 1_555 1_555
N9 C62 1_555 1_555
N10 H69 1_555 1_555
C60 H70 1_555 1_555
C61 N8 1_555 1_555
C62 N8 1_555 1_555
C63 C62 1_555 1_555
H71 C63 1_555 1_555
C64 C63 1_555 1_555
H72 C64 1_555 1_555
C65 C64 1_555 1_555
H73 C65 1_555 1_555
C66 N9 1_555 1_555
C67 N10 1_555 1_555
C68 C67 1_555 1_555
H74 C68 1_555 1_555
C69 C68 1_555 1_555
H75 C69 1_555 1_555
H76 C69 1_555 1_555
H77 C69 1_555 1_555
C70 C68 1_555 1_555
H78 C70 1_555 1_555
H79 C70 1_555 1_555
H80 C70 1_555 1_555
C71 C60 1_555 1_555
H81 C71 1_555 1_555
H82 C71 1_555 1_555
H83 C71 1_555 1_555
C72 C60 1_555 1_555
H84 C72 1_555 1_555
H85 C72 1_555 1_555
H86 C72 1_555 1_555
O14 C78 1_555 1_555
O15 C84 1_555 1_555
N11 H94 1_555 1_555
N12 C79 1_555 1_555
N13 H95 1_555 1_555
C75 H96 1_555 1_555
H97 C75 1_555 1_555
H98 C75 1_555 1_555
C76 C75 1_555 1_555
H99 C76 1_555 1_555
C77 C76 1_555 1_555
H100 C77 1_555 1_555
H101 C77 1_555 1_555
H102 C77 1_555 1_555
C78 N11 1_555 1_555
C79 N11 1_555 1_555
C80 C79 1_555 1_555
H103 C80 1_555 1_555
C81 C80 1_555 1_555
H104 C81 1_555 1_555
C82 C81 1_555 1_555
H105 C82 1_555 1_555
C83 N12 1_555 1_555
C84 N13 1_555 1_555
C85 C84 1_555 1_555
H106 C85 1_555 1_555
C86 C85 1_555 1_555
H107 C86 1_555 1_555
H108 C86 1_555 1_555
H109 C86 1_555 1_555
C87 C85 1_555 1_555
H110 C87 1_555 1_555
H111 C87 1_555 1_555
H112 C87 1_555 1_555
C88 H113 1_555 1_555
H114 C88 1_555 1_555
H115 C88 1_555 1_555
C89 C88 1_555 1_555
H116 C89 1_555 1_555
H117 C89 1_555 1_555
C90 C89 1_555 1_555
H118 C90 1_555 1_555
H119 C90 1_555 1_555
C91 C90 1_555 1_555
H120 C91 1_555 1_555
H121 C91 1_555 1_555
C92 C91 1_555 1_555
H122 C92 1_555 1_555
H123 C92 1_555 1_555
C93 C92 1_555 1_555
H124 C93 1_555 1_555
H125 C93 1_555 1_555
H126 C93 1_555 1_555
N3 C5 1_555 1_555
C4 C5 1_555 1_555
C11 C12 1_555 1_555
C12 C13 1_555 1_555
C21 C25 1_555 1_555
C23 C24 1_555 1_555
C37 C38 1_555 1_555
C42 C46 1_555 1_555
C44 C45 1_555 1_555
C58 C59 1_555 1_555
N10 C66 1_555 1_555
C60 C61 1_555 1_555
C65 C66 1_555 1_555
N13 C83 1_555 1_555
C76 C78 1_555 1_555
C82 C83 1_555 1_555

#END
