
#######################################################################
#
#                 Cambridge Crystallographic Data Centre
#                                CCDC 
#
#######################################################################
#
# If this CIF has been generated from an entry in the Cambridge 
# Structural Database, then it will include bibliographic, chemical, 
# crystal, experimental, refinement or atomic coordinate data resulting 
# from the CCDC's data processing and validation procedures.
#
#######################################################################

data_TEHVEI
_chemical_formula_moiety         'C29 H37 N7 O17'
_chemical_name_systematic        
N-((1-(2,3,4,6-tetra-O-acetyl-\b-D-glucopyranosyl)-1H-1,2,3-triazol-4-yl)methyl)1-azidodeoxy-2,3,4-tri-O-acetyl-\b-D-glucopyranuronamide
_symmetry_cell_setting           monoclinic
_symmetry_space_group_name_H-M   'P 21'
_symmetry_Int_Tables_number      4
_space_group_name_Hall           'P 2yb'
loop_
_symmetry_equiv_pos_site_id
_symmetry_equiv_pos_as_xyz
1 x,y,z
2 -x,1/2+y,-z
_cell_length_a                   10.376(3)
_cell_length_b                   15.837(4)
_cell_length_c                   10.742(3)
_cell_angle_alpha                90
_cell_angle_beta                 94.613(5)
_cell_angle_gamma                90
_cell_volume                     1759.46
_exptl_crystal_colour            colorless
_exptl_crystal_description       plate
_chemical_melting_point          '193 deg.C (dec.)'
_cell_formula_units_Z            2
_exptl_crystal_recrystallization_method ethanol
loop_
_atom_site_label
_atom_site_type_symbol
_atom_site_fract_x
_atom_site_fract_y
_atom_site_fract_z
O1 O 0.18995(12) 1.10491(9) -0.39112(13)
O2 O 0.28626(13) 1.32175(9) -0.31732(14)
O3 O 0.10018(16) 1.37563(11) -0.2581(2)
O4 O 0.34460(13) 1.22882(10) -0.08657(13)
O5 O 0.55180(16) 1.27131(14) -0.07590(18)
O6 O 0.44000(12) 1.06515(10) -0.13789(13)
O7 O 0.32341(17) 1.00060(14) 0.00171(19)
O8 O 0.35354(14) 0.91657(10) -0.30089(16)
N1 N 0.09093(19) 1.22766(12) -0.46987(19)
N2 N 0.02766(16) 1.18036(11) -0.54236(16)
N3 N -0.04123(19) 1.14405(14) -0.6079(2)
C1 C 0.21223(18) 1.19156(12) -0.41424(18)
H1 H 0.2833 1.1989 -0.4710
C2 C 0.24314(17) 1.23796(12) -0.29179(17)
H2 H 0.1634 1.2412 -0.2455
C3 C 0.34976(16) 1.19487(12) -0.21023(17)
H3 H 0.4360 1.2061 -0.2423
C4 C 0.32553(16) 1.10028(12) -0.20143(17)
H4 H 0.2497 1.0897 -0.1518
C5 C 0.30018(17) 1.06243(12) -0.33176(17)
H5 H 0.3771 1.0710 -0.3808
C6 C 0.26756(17) 0.96834(12) -0.32552(17)
C7 C 0.20394(18) 1.38641(13) -0.29682(18)
C8 C 0.2576(2) 1.46987(12) -0.33055(19)
H6 H 0.2480 1.5101 -0.2626
H7 H 0.2107 1.4907 -0.4072
H8 H 0.3494 1.4636 -0.3440
C9 C 0.45144(18) 1.26497(13) -0.02964(19)
C10 C 0.4241(2) 1.29371(17) 0.0981(2)
H9 H 0.4893 1.3352 0.1286
H10 H 0.4269 1.2451 0.1548
H11 H 0.3381 1.3196 0.0948
C11 C 0.4260(2) 1.01937(13) -0.03354(19)
C12 C 0.5550(2) 0.99728(17) 0.0300(2)
H12 H 0.5450 0.9510 0.0890
H13 H 0.5912 1.0467 0.0752
H14 H 0.6133 0.9797 -0.0326
N4 N 0.14203(15) 0.94932(10) -0.34749(15)
H15 H 0.0859 0.9903 -0.3633
N5 N -0.05958(16) 0.81555(13) -0.19577(18)
N6 N -0.06181(16) 0.79229(13) -0.07880(18)
N7 N 0.06162(15) 0.79495(10) -0.02829(16)
C13 C 0.09622(18) 0.86282(12) -0.34585(17)
H16 H 0.1633 0.8253 -0.3762
H17 H 0.0179 0.8577 -0.4044
C14 C 0.06468(17) 0.83329(12) -0.21953(18)
C15 C 0.14328(17) 0.82029(12) -0.11225(18)
H18 H 0.2343 0.8275 -0.1000
O9 O 0.17485(13) 0.83632(9) 0.15234(13)
O10 O 0.06453(13) 0.62248(9) 0.07755(14)
O11 O 0.16802(16) 0.60200(12) -0.09563(15)
O12 O 0.26499(13) 0.59633(9) 0.26837(13)
O13 O 0.11572(14) 0.52902(10) 0.37216(15)
O14 O 0.26993(13) 0.73287(10) 0.44946(13)
O15 O 0.48086(16) 0.69933(16) 0.45974(18)
O16 O 0.22958(15) 0.97778(10) 0.29499(15)
O17 O 0.4204(2) 1.04316(15) 0.3109(3)
C16 C 0.08970(17) 0.77356(12) 0.10171(17)
H19 H 0.0081 0.7744 0.1453
C17 C 0.15444(17) 0.68725(12) 0.11848(17)
H20 H 0.2338 0.6843 0.0716
C18 C 0.18748(17) 0.67175(12) 0.25645(18)
H21 H 0.1064 0.6640 0.2996
C19 C 0.26615(17) 0.74377(12) 0.31599(17)
H22 H 0.3558 0.7428 0.2881
C20 C 0.20213(18) 0.82883(13) 0.28446(18)
H23 H 0.1211 0.8350 0.3281
C21 C 0.2958(2) 0.89959(14) 0.3215(2)
H24 H 0.3241 0.8958 0.4115
H25 H 0.3730 0.8957 0.2734
C22 C 0.08710(19) 0.58054(13) -0.02920(19)
C23 C 0.0014(2) 0.50472(15) -0.0452(3)
H26 H 0.0386 0.4583 0.0062
H27 H -0.0061 0.4876 -0.1332
H28 H -0.0845 0.5186 -0.0192
C24 C 0.21738(18) 0.52885(12) 0.32679(17)
C25 C 0.3089(2) 0.45534(14) 0.3279(2)
H29 H 0.2631 0.4057 0.2924
H30 H 0.3422 0.4432 0.4140
H31 H 0.3810 0.4691 0.2779
C26 C 0.38425(19) 0.70932(13) 0.5107(2)
C27 C 0.3698(2) 0.69941(14) 0.64650(19)
H32 H 0.3756 0.7549 0.6870
H33 H 0.4387 0.6628 0.6836
H34 H 0.2856 0.6740 0.6585
C28 C 0.3058(3) 1.04539(16) 0.2874(3)
C29 C 0.2310(3) 1.12191(16) 0.2421(3)
H35 H 0.2430 1.1311 0.1536
H36 H 0.2622 1.1713 0.2905
H37 H 0.1390 1.1133 0.2526
loop_
_geom_bond_atom_site_label_1
_geom_bond_atom_site_label_2
_geom_bond_site_symmetry_1
_geom_bond_site_symmetry_2
O1 C1 1_555 1_555
O2 C2 1_555 1_555
O3 C7 1_555 1_555
O4 C3 1_555 1_555
O5 C9 1_555 1_555
O6 C4 1_555 1_555
O7 C11 1_555 1_555
O8 C6 1_555 1_555
N1 N2 1_555 1_555
N2 N3 1_555 1_555
C1 N1 1_555 1_555
H1 C1 1_555 1_555
C2 C1 1_555 1_555
H2 C2 1_555 1_555
C3 C2 1_555 1_555
H3 C3 1_555 1_555
C4 C3 1_555 1_555
H4 C4 1_555 1_555
C5 O1 1_555 1_555
H5 C5 1_555 1_555
C6 C5 1_555 1_555
C7 O2 1_555 1_555
C8 C7 1_555 1_555
H6 C8 1_555 1_555
H7 C8 1_555 1_555
H8 C8 1_555 1_555
C9 O4 1_555 1_555
C10 C9 1_555 1_555
H9 C10 1_555 1_555
H10 C10 1_555 1_555
H11 C10 1_555 1_555
C11 O6 1_555 1_555
C12 C11 1_555 1_555
H12 C12 1_555 1_555
H13 C12 1_555 1_555
H14 C12 1_555 1_555
N4 C6 1_555 1_555
H15 N4 1_555 1_555
N5 N6 1_555 1_555
N6 N7 1_555 1_555
N7 C15 1_555 1_555
C13 N4 1_555 1_555
H16 C13 1_555 1_555
H17 C13 1_555 1_555
C14 N5 1_555 1_555
C15 C14 1_555 1_555
H18 C15 1_555 1_555
O9 C16 1_555 1_555
O10 C17 1_555 1_555
O11 C22 1_555 1_555
O12 C18 1_555 1_555
O13 C24 1_555 1_555
O14 C19 1_555 1_555
O15 C26 1_555 1_555
O16 C21 1_555 1_555
O17 C28 1_555 1_555
C16 N7 1_555 1_555
H19 C16 1_555 1_555
C17 C16 1_555 1_555
H20 C17 1_555 1_555
C18 C17 1_555 1_555
H21 C18 1_555 1_555
C19 C18 1_555 1_555
H22 C19 1_555 1_555
C20 O9 1_555 1_555
H23 C20 1_555 1_555
C21 C20 1_555 1_555
H24 C21 1_555 1_555
H25 C21 1_555 1_555
C22 O10 1_555 1_555
C23 C22 1_555 1_555
H26 C23 1_555 1_555
H27 C23 1_555 1_555
H28 C23 1_555 1_555
C24 O12 1_555 1_555
C25 C24 1_555 1_555
H29 C25 1_555 1_555
H30 C25 1_555 1_555
H31 C25 1_555 1_555
C26 O14 1_555 1_555
C27 C26 1_555 1_555
H32 C27 1_555 1_555
H33 C27 1_555 1_555
H34 C27 1_555 1_555
C28 O16 1_555 1_555
C29 C28 1_555 1_555
H35 C29 1_555 1_555
H36 C29 1_555 1_555
H37 C29 1_555 1_555
C4 C5 1_555 1_555
C13 C14 1_555 1_555
C19 C20 1_555 1_555

#END
