
#######################################################################
#
#                 Cambridge Crystallographic Data Centre
#                                CCDC 
#
#######################################################################
#
# If this CIF has been generated from an entry in the Cambridge 
# Structural Database, then it will include bibliographic, chemical, 
# crystal, experimental, refinement or atomic coordinate data resulting 
# from the CCDC's data processing and validation procedures.
#
#######################################################################

data_TEJFIX
_chemical_formula_moiety         'C18 H22 N4 O2'
_chemical_name_systematic        N,N'-Hexamethylene-bis(3-pyridinecarboxamide)
_chemical_properties_biological  'anticancer and antifertility agent'
_symmetry_cell_setting           monoclinic
_symmetry_space_group_name_H-M   'P 21/n'
_symmetry_Int_Tables_number      14
_space_group_name_Hall           '-P 2yn'
loop_
_symmetry_equiv_pos_site_id
_symmetry_equiv_pos_as_xyz
1 x,y,z
2 1/2-x,1/2+y,1/2-z
3 -x,-y,-z
4 1/2+x,1/2-y,1/2+z
_cell_length_a                   5.2240(10)
_cell_length_b                   5.0960(10)
_cell_length_c                   31.006(6)
_cell_angle_alpha                90
_cell_angle_beta                 94.53(3)
_cell_angle_gamma                90
_cell_volume                     822.848
_exptl_crystal_colour            colorless
_cell_formula_units_Z            2
loop_
_atom_site_label
_atom_site_type_symbol
_atom_site_fract_x
_atom_site_fract_y
_atom_site_fract_z
O1 O 0.3725(2) 0.6828(2) 0.1022(1)
N1 N 0.4777(2) 0.2584(2) 0.0950(1)
N2 N -0.1524(2) 0.5030(3) 0.1916(1)
C1 C 0.6379(3) 0.3119(2) 0.0595(1)
C2 C 0.7755(3) 0.0686(3) 0.0460(1)
C3 C 0.9338(3) 0.1218(3) 0.0077(1)
C4 C 0.3571(2) 0.4528(2) 0.1139(1)
C5 C 0.2004(2) 0.3792(2) 0.1505(1)
C6 C 0.2505(3) 0.1635(3) 0.1768(1)
C7 C 0.0975(3) 0.1217(3) 0.2108(1)
C8 C -0.0978(3) 0.2956(3) 0.2168(1)
C9 C -0.0035(3) 0.5418(3) 0.1592(1)
H1 H 0.7631(29) 0.4487(34) 0.0680(5)
H2 H 0.5240(31) 0.3852(33) 0.0357(5)
H3 H 0.6381(30) -0.0722(36) 0.0376(5)
H4 H 0.8901(30) 0.0056(34) 0.0705(5)
H5 H 0.8201(29) 0.1972(32) -0.0156(6)
H6 H 1.0645(33) 0.2744(36) 0.0163(6)
H7 H 0.3944(30) 0.0579(35) 0.1732(5)
H8 H 0.1270(32) -0.0198(40) 0.2297(6)
H9 H -0.2048(34) 0.2722(38) 0.2402(7)
H10 H -0.0488(29) 0.6905(37) 0.1401(5)
H11 H 0.4467(34) 0.0960(37) 0.1026(6)
C3B C 1.0662(3) -0.1218(3) -0.0077(1)
C2B C 1.2245(3) -0.0686(3) -0.0460(1)
C1B C 1.3621(3) -0.3119(2) -0.0595(1)
N1B N 1.5223(2) -0.2584(2) -0.0950(1)
C4B C 1.6429(2) -0.4528(2) -0.1139(1)
O1B O 1.6275(2) -0.6828(2) -0.1022(1)
C5B C 1.7996(2) -0.3792(2) -0.1505(1)
C6B C 1.7495(3) -0.1635(3) -0.1768(1)
C7B C 1.9025(3) -0.1217(3) -0.2108(1)
C8B C 2.0978(3) -0.2956(3) -0.2168(1)
N2B N 2.1524(2) -0.5030(3) -0.1916(1)
C9B C 2.0035(3) -0.5418(3) -0.1592(1)
H10B H 2.0488(29) -0.6905(37) -0.1401(5)
H9B H 2.2048(34) -0.2722(38) -0.2402(7)
H8B H 1.8730(32) 0.0198(40) -0.2297(6)
H7B H 1.6056(30) -0.0579(35) -0.1732(5)
H11B H 1.5533(34) -0.0960(37) -0.1026(6)
H1B H 1.2369(29) -0.4487(34) -0.0680(5)
H2B H 1.4760(31) -0.3852(33) -0.0357(5)
H3B H 1.3619(30) 0.0722(36) -0.0376(5)
H4B H 1.1099(30) -0.0056(34) -0.0705(5)
H5B H 1.1799(29) -0.1972(32) 0.0156(6)
H6B H 0.9355(33) -0.2744(36) -0.0163(6)
loop_
_geom_bond_atom_site_label_1
_geom_bond_atom_site_label_2
_geom_bond_site_symmetry_1
_geom_bond_site_symmetry_2
O1 C4 1_555 1_555
N1 C1 1_555 1_555
N2 C8 1_555 1_555
C1 C2 1_555 1_555
C2 C3 1_555 1_555
C3 H5 1_555 1_555
C4 N1 1_555 1_555
C5 C4 1_555 1_555
C6 C5 1_555 1_555
C7 C6 1_555 1_555
C8 C7 1_555 1_555
C9 N2 1_555 1_555
H1 C1 1_555 1_555
H2 C1 1_555 1_555
H3 C2 1_555 1_555
H4 C2 1_555 1_555
H6 C3 1_555 1_555
H7 C6 1_555 1_555
H8 C7 1_555 1_555
H9 C8 1_555 1_555
H10 C9 1_555 1_555
H11 N1 1_555 1_555
C3B C3 1_555 1_555
C2B C3B 1_555 1_555
C1B C2B 1_555 1_555
N1B C1B 1_555 1_555
C4B N1B 1_555 1_555
O1B C4B 1_555 1_555
C5B C4B 1_555 1_555
C6B C5B 1_555 1_555
C7B C6B 1_555 1_555
C8B C7B 1_555 1_555
N2B C8B 1_555 1_555
C9B C5B 1_555 1_555
H10B C9B 1_555 1_555
H9B C8B 1_555 1_555
H8B C7B 1_555 1_555
H7B C6B 1_555 1_555
H11B N1B 1_555 1_555
H1B C1B 1_555 1_555
H2B C1B 1_555 1_555
H3B C2B 1_555 1_555
H4B C2B 1_555 1_555
H5B C3B 1_555 1_555
H6B C3B 1_555 1_555
C5 C9 1_555 1_555
N2B C9B 1_555 1_555

#END
