
#######################################################################
#
#                 Cambridge Crystallographic Data Centre
#                                CCDC 
#
#######################################################################
#
# If this CIF has been generated from an entry in the Cambridge 
# Structural Database, then it will include bibliographic, chemical, 
# crystal, experimental, refinement or atomic coordinate data resulting 
# from the CCDC's data processing and validation procedures.
#
#######################################################################

data_TEJHAS
_chemical_formula_moiety         'C25 H22 Br1 N1 O1'
_chemical_name_systematic        
12-(4-Bromophenyl)-9,9-dimethyl-1,2,3,4,9,10-hexahydrobenzo(a)acridin-11-one
_symmetry_cell_setting           triclinic
_symmetry_space_group_name_H-M   'P -1'
_symmetry_Int_Tables_number      2
_space_group_name_Hall           '-P 1'
loop_
_symmetry_equiv_pos_site_id
_symmetry_equiv_pos_as_xyz
1 x,y,z
2 -x,-y,-z
_cell_length_a                   7.296(4)
_cell_length_b                   9.597(5)
_cell_length_c                   15.304(8)
_cell_angle_alpha                94.038(7)
_cell_angle_beta                 93.465(8)
_cell_angle_gamma                103.331(7)
_cell_volume                     1036.87
_exptl_crystal_colour            colorless
_exptl_crystal_description       block
_chemical_melting_point          'above 573 K'
_cell_formula_units_Z            2
_exptl_crystal_recrystallization_method 'aqueous ethanol'
loop_
_atom_site_label
_atom_site_type_symbol
_atom_site_fract_x
_atom_site_fract_y
_atom_site_fract_z
Br1 Br 0.93962(8) 1.74848(7) 1.07677(3)
N1 N 0.2911(4) 1.3099(3) 0.69343(18)
H1 H 0.1747 1.2831 0.7046
O1 O 0.8973(4) 1.2255(3) 0.71271(18)
C1 C 0.4123(5) 1.2283(4) 0.7162(2)
C2 C 0.3258(5) 1.0790(4) 0.7376(2)
H2 H 0.2819 1.0190 0.6833
H3 H 0.2168 1.0805 0.7706
C3 C 0.4625(5) 1.0127(4) 0.7906(3)
C4 C 0.6466(5) 1.0348(4) 0.7445(3)
H4 H 0.7401 1.0042 0.7814
H5 H 0.6236 0.9730 0.6900
C5 C 0.7273(5) 1.1860(4) 0.7239(2)
C6 C 0.6023(5) 1.2813(3) 0.7154(2)
C7 C 0.6818(5) 1.4388(4) 0.7054(2)
H6 H 0.7930 1.4466 0.6715
C8 C 0.5404(5) 1.5017(4) 0.6545(2)
C9 C 0.5975(5) 1.6276(4) 0.6087(2)
C10 C 0.7891(6) 1.7034(4) 0.6103(2)
H7 H 0.8814 1.6719 0.6426
C11 C 0.8399(7) 1.8218(4) 0.5649(3)
H8 H 0.9665 1.8698 0.5665
C12 C 0.7044(8) 1.8718(5) 0.5163(3)
H9 H 0.7412 1.9519 0.4850
C13 C 0.5193(7) 1.8043(5) 0.5145(3)
H10 H 0.4300 1.8392 0.4822
C14 C 0.4600(6) 1.6817(4) 0.5609(2)
C15 C 0.2685(6) 1.6096(4) 0.5611(2)
H11 H 0.1772 1.6437 0.5297
C16 C 0.2139(5) 1.4923(4) 0.6057(2)
H12 H 0.0864 1.4480 0.6059
C17 C 0.3504(5) 1.4371(4) 0.6521(2)
C18 C 0.3754(7) 0.8520(5) 0.7935(4)
H13 H 0.3505 0.8065 0.7347
H14 H 0.2594 0.8394 0.8217
H15 H 0.4618 0.8093 0.8259
C19 C 0.5008(6) 1.0841(5) 0.8847(3)
H16 H 0.5863 1.0407 0.9173
H17 H 0.3842 1.0714 0.9124
H18 H 0.5560 1.1849 0.8835
C20 C 0.7469(5) 1.5202(4) 0.7953(2)
C21 C 0.9341(5) 1.5594(4) 0.8255(3)
H19 H 1.0243 1.5399 0.7891
C22 C 0.9920(6) 1.6271(5) 0.9086(3)
H20 H 1.1195 1.6517 0.9281
C23 C 0.8606(6) 1.6574(4) 0.9617(3)
C24 C 0.6729(6) 1.6199(5) 0.9345(3)
H21 H 0.5837 1.6406 0.9710
C25 C 0.6177(6) 1.5507(4) 0.8517(3)
H22 H 0.4896 1.5237 0.8333
loop_
_geom_bond_atom_site_label_1
_geom_bond_atom_site_label_2
_geom_bond_site_symmetry_1
_geom_bond_site_symmetry_2
Br1 C23 1_555 1_555
N1 H1 1_555 1_555
O1 C5 1_555 1_555
C1 N1 1_555 1_555
C2 C1 1_555 1_555
H2 C2 1_555 1_555
H3 C2 1_555 1_555
C3 C2 1_555 1_555
C4 C3 1_555 1_555
H4 C4 1_555 1_555
H5 C4 1_555 1_555
C5 C4 1_555 1_555
C6 C1 1_555 1_555
C7 C6 1_555 1_555
H6 C7 1_555 1_555
C8 C7 1_555 1_555
C9 C8 1_555 1_555
C10 C9 1_555 1_555
H7 C10 1_555 1_555
C11 C10 1_555 1_555
H8 C11 1_555 1_555
C12 C11 1_555 1_555
H9 C12 1_555 1_555
C13 C12 1_555 1_555
H10 C13 1_555 1_555
C14 C9 1_555 1_555
C15 C14 1_555 1_555
H11 C15 1_555 1_555
C16 C15 1_555 1_555
H12 C16 1_555 1_555
C17 N1 1_555 1_555
C18 C3 1_555 1_555
H13 C18 1_555 1_555
H14 C18 1_555 1_555
H15 C18 1_555 1_555
C19 C3 1_555 1_555
H16 C19 1_555 1_555
H17 C19 1_555 1_555
H18 C19 1_555 1_555
C20 C7 1_555 1_555
C21 C20 1_555 1_555
H19 C21 1_555 1_555
C22 C21 1_555 1_555
H20 C22 1_555 1_555
C23 C22 1_555 1_555
C24 C23 1_555 1_555
H21 C24 1_555 1_555
C25 C20 1_555 1_555
H22 C25 1_555 1_555
C5 C6 1_555 1_555
C8 C17 1_555 1_555
C13 C14 1_555 1_555
C16 C17 1_555 1_555
C24 C25 1_555 1_555

#END
