
#######################################################################
#
#                 Cambridge Crystallographic Data Centre
#                                CCDC 
#
#######################################################################
#
# If this CIF has been generated from an entry in the Cambridge 
# Structural Database, then it will include bibliographic, chemical, 
# crystal, experimental, refinement or atomic coordinate data resulting 
# from the CCDC's data processing and validation procedures.
#
#######################################################################

data_TEJHIC
_chemical_formula_moiety         'C13 H12 I1 S1 1+,C1 F3 O3 S1 1-'
_chemical_name_systematic        
'(iodomethyl)(diphenyl)sulfanium trifluoromethanesulfonate'
_symmetry_cell_setting           triclinic
_symmetry_space_group_name_H-M   'P -1'
_symmetry_Int_Tables_number      2
_space_group_name_Hall           '-P 1'
loop_
_symmetry_equiv_pos_site_id
_symmetry_equiv_pos_as_xyz
1 x,y,z
2 -x,-y,-z
_cell_length_a                   9.104(4)
_cell_length_b                   10.180(6)
_cell_length_c                   10.700(4)
_cell_angle_alpha                102.795(19)
_cell_angle_beta                 112.382(14)
_cell_angle_gamma                100.122(19)
_cell_volume                     856.186
_exptl_crystal_colour            colorless
_exptl_crystal_description       platelet
_chemical_melting_point          '427-429 K'
_cell_formula_units_Z            2
_exptl_crystal_recrystallization_method 'dichloromethane/ diethylether'
loop_
_atom_site_label
_atom_site_type_symbol
_atom_site_fract_x
_atom_site_fract_y
_atom_site_fract_z
S1 S 0.67234(7) -0.08033(6) 0.15487(6)
C1 C 0.7112(3) 0.0154(2) 0.3328(2)
H1 H 0.817143 0.091540 0.378099
H2 H 0.719425 -0.048424 0.391183
I1 I 0.51061(2) 0.10259(2) 0.31963(2)
C2 C 0.8540(3) -0.1339(2) 0.1757(2)
C3 C 0.9021(3) -0.1324(2) 0.0674(2)
H3 H 0.841043 -0.103047 -0.010040
C4 C 1.0410(3) -0.1746(3) 0.0747(3)
H4 H 1.075273 -0.175810 0.001023
C5 C 1.1297(3) -0.2149(2) 0.1896(3)
H5 H 1.226006 -0.242139 0.195189
C6 C 1.0798(3) -0.2159(2) 0.2964(3)
H6 H 1.141327 -0.244911 0.373925
C7 C 0.9406(3) -0.1749(2) 0.2913(2)
H7 H 0.905807 -0.175004 0.364509
C8 C 0.5145(3) -0.2395(2) 0.1054(2)
C9 C 0.3811(3) -0.2744(3) -0.0268(3)
H8 H 0.374892 -0.214134 -0.083732
C10 C 0.2569(3) -0.3989(3) -0.0741(3)
H9 H 0.164520 -0.424910 -0.164588
C11 C 0.2671(3) -0.4849(3) 0.0094(3)
H10 H 0.181603 -0.570341 -0.024047
C12 C 0.4004(3) -0.4487(3) 0.1417(3)
H11 H 0.405646 -0.509257 0.198292
C13 C 0.5264(3) -0.3244(3) 0.1919(3)
H12 H 0.618025 -0.298107 0.282875
S2 S 0.86315(7) -0.23791(6) 0.65202(6)
O1 O 0.8209(3) -0.1678(2) 0.5457(2)
O2 O 1.0384(2) -0.2120(2) 0.7347(2)
O3 O 0.7680(3) -0.2329(2) 0.7319(2)
C14 C 0.7939(4) -0.4219(3) 0.5439(3)
F1 F 0.8642(3) -0.4409(2) 0.4552(3)
F2 F 0.6318(2) -0.4648(2) 0.4630(2)
F3 F 0.8307(3) -0.5046(2) 0.6235(2)
loop_
_geom_bond_atom_site_label_1
_geom_bond_atom_site_label_2
_geom_bond_site_symmetry_1
_geom_bond_site_symmetry_2
S1 C1 1_555 1_555
C1 H1 1_555 1_555
H2 C1 1_555 1_555
I1 C1 1_555 1_555
C2 S1 1_555 1_555
C3 C2 1_555 1_555
H3 C3 1_555 1_555
C4 C3 1_555 1_555
H4 C4 1_555 1_555
C5 C4 1_555 1_555
H5 C5 1_555 1_555
C6 C5 1_555 1_555
H6 C6 1_555 1_555
C7 C2 1_555 1_555
H7 C7 1_555 1_555
C8 S1 1_555 1_555
C9 C8 1_555 1_555
H8 C9 1_555 1_555
C10 C9 1_555 1_555
H9 C10 1_555 1_555
C11 C10 1_555 1_555
H10 C11 1_555 1_555
C12 C11 1_555 1_555
H11 C12 1_555 1_555
C13 C8 1_555 1_555
H12 C13 1_555 1_555
S2 O1 1_555 1_555
O2 S2 1_555 1_555
O3 S2 1_555 1_555
C14 S2 1_555 1_555
F1 C14 1_555 1_555
F2 C14 1_555 1_555
F3 C14 1_555 1_555
C6 C7 1_555 1_555
C12 C13 1_555 1_555

#END
