
#######################################################################
#
#                 Cambridge Crystallographic Data Centre
#                                CCDC 
#
#######################################################################
#
# If this CIF has been generated from an entry in the Cambridge 
# Structural Database, then it will include bibliographic, chemical, 
# crystal, experimental, refinement or atomic coordinate data resulting 
# from the CCDC's data processing and validation procedures.
#
#######################################################################

data_TEJKUO16
_chemical_formula_moiety         'C6 H16 N1 1+,Br1 1-'
_chemical_name_systematic        'Di-isopropylammonium bromide'
_symmetry_cell_setting           monoclinic
_symmetry_space_group_name_H-M   'P 21'
_symmetry_Int_Tables_number      4
_space_group_name_Hall           'P 2yb'
loop_
_symmetry_equiv_pos_site_id
_symmetry_equiv_pos_as_xyz
1 x,y,z
2 -x,1/2+y,-z
_cell_length_a                   7.9108(12)
_cell_length_b                   8.1311(12)
_cell_length_c                   7.9398(12)
_cell_angle_alpha                90
_cell_angle_beta                 116.19(2)
_cell_angle_gamma                90
_cell_volume                     458.283
_cell_formula_units_Z            2
loop_
_atom_site_label
_atom_site_type_symbol
_atom_site_fract_x
_atom_site_fract_y
_atom_site_fract_z
Br1 Br 0.14558(5) 0.8871 0.36719(6)
C1 C 0.1146(5) 0.3848(14) 0.2970(5)
H1 H 0.1157 0.5023 0.3251
C2 C 0.3631(8) 0.3176(8) 0.6359(8)
H2 H 0.4590 0.2944 0.5926
C3 C 0.3823(9) 0.4948(10) 0.6977(10)
H3 H 0.3632 0.5650 0.5937
H4 H 0.5060 0.5128 0.7972
H5 H 0.2898 0.5193 0.7417
N1 N 0.1715(5) 0.2880(4) 0.4751(5)
H6 H 0.1641 0.1806 0.4452
H7 H 0.0849 0.3069 0.5176
C4 C 0.2546(7) 0.3526(10) 0.2167(7)
H8 H 0.3778 0.3879 0.3051
H9 H 0.2168 0.4125 0.1015
H10 H 0.2573 0.2371 0.1929
C5 C -0.0822(7) 0.3353(6) 0.1601(6)
H11 H -0.1204 0.3976 0.0464
H12 H -0.1672 0.3566 0.2142
H13 H -0.0844 0.2202 0.1324
C6 C 0.3884(8) 0.1998(7) 0.7887(7)
H14 H 0.5090 0.2176 0.8934
H15 H 0.3818 0.0893 0.7438
H16 H 0.2908 0.2166 0.8277
loop_
_geom_bond_atom_site_label_1
_geom_bond_atom_site_label_2
_geom_bond_site_symmetry_1
_geom_bond_site_symmetry_2
C1 H1 1_555 1_555
C2 H2 1_555 1_555
C3 C2 1_555 1_555
H3 C3 1_555 1_555
H4 C3 1_555 1_555
H5 C3 1_555 1_555
N1 C1 1_555 1_555
H6 N1 1_555 1_555
H7 N1 1_555 1_555
C4 C1 1_555 1_555
H8 C4 1_555 1_555
H9 C4 1_555 1_555
H10 C4 1_555 1_555
C5 C1 1_555 1_555
H11 C5 1_555 1_555
H12 C5 1_555 1_555
H13 C5 1_555 1_555
C6 C2 1_555 1_555
H14 C6 1_555 1_555
H15 C6 1_555 1_555
H16 C6 1_555 1_555
C2 N1 1_555 1_555

#END
