
#######################################################################
#
#                 Cambridge Crystallographic Data Centre
#                                CCDC 
#
#######################################################################
#
# If this CIF has been generated from an entry in the Cambridge 
# Structural Database, then it will include bibliographic, chemical, 
# crystal, experimental, refinement or atomic coordinate data resulting 
# from the CCDC's data processing and validation procedures.
#
#######################################################################

data_TEJKUO07
_chemical_formula_moiety         'C6 H16 N1 1+,Br1 1-'
_chemical_name_systematic        'Di-isopropylammonium bromide'
_symmetry_cell_setting           orthorhombic
_symmetry_space_group_name_H-M   'P 21 21 21'
_symmetry_Int_Tables_number      19
_space_group_name_Hall           'P 2ac 2ab'
loop_
_symmetry_equiv_pos_site_id
_symmetry_equiv_pos_as_xyz
1 x,y,z
2 1/2-x,-y,1/2+z
3 1/2+x,1/2-y,-z
4 -x,1/2+y,1/2-z
_cell_length_a                   8.0378(16)
_cell_length_b                   8.3198(17)
_cell_length_c                   13.624(3)
_cell_angle_alpha                90
_cell_angle_beta                 90
_cell_angle_gamma                90
_cell_volume                     911.076
_cell_formula_units_Z            4
loop_
_atom_site_label
_atom_site_type_symbol
_atom_site_fract_x
_atom_site_fract_y
_atom_site_fract_z
N1 N 0.8282(3) 1.3347(3) 2.09897(17)
H1 H 0.9375 1.3148 2.1065
H2 H 0.8021 1.3108 2.0364
C1 C 0.6200(4) 1.5562(5) 2.1010(3)
H3 H 0.6057 1.6694 2.1115
H4 H 0.5546 1.4977 2.1479
H5 H 0.5844 1.5290 2.0358
C2 C 0.8013(4) 1.5129(3) 2.1133(2)
H6 H 0.8353 1.5411 2.1801
C3 C 0.9140(5) 1.5994(4) 2.0421(3)
H7 H 1.0273 1.5689 2.0542
H8 H 0.9022 1.7133 2.0507
H9 H 0.8841 1.5709 1.9761
C4 C 0.7744(4) 1.2563(4) 2.2715(2)
H10 H 0.7141 1.1842 2.3135
H11 H 0.7435 1.3651 2.2863
H12 H 0.8917 1.2428 2.2821
C5 C 0.7334(4) 1.2195(4) 2.1652(2)
H13 H 0.6137 1.2339 2.1547
C6 C 0.7818(5) 1.0507(4) 2.1366(2)
H14 H 0.7526 1.0322 2.0692
H15 H 0.7240 0.9753 2.1776
H16 H 0.8996 1.0372 2.1448
Br1 Br 0.73231(3) 1.25027(4) 1.865737(18)
loop_
_geom_bond_atom_site_label_1
_geom_bond_atom_site_label_2
_geom_bond_site_symmetry_1
_geom_bond_site_symmetry_2
N1 H1 1_555 1_555
H2 N1 1_555 1_555
C1 H3 1_555 1_555
H4 C1 1_555 1_555
H5 C1 1_555 1_555
C2 N1 1_555 1_555
H6 C2 1_555 1_555
C3 C2 1_555 1_555
H7 C3 1_555 1_555
H8 C3 1_555 1_555
H9 C3 1_555 1_555
C4 H10 1_555 1_555
H11 C4 1_555 1_555
H12 C4 1_555 1_555
C5 N1 1_555 1_555
H13 C5 1_555 1_555
C6 C5 1_555 1_555
H14 C6 1_555 1_555
H15 C6 1_555 1_555
H16 C6 1_555 1_555
C1 C2 1_555 1_555
C4 C5 1_555 1_555

#END
