
#######################################################################
#
#                 Cambridge Crystallographic Data Centre
#                                CCDC 
#
#######################################################################
#
# If this CIF has been generated from an entry in the Cambridge 
# Structural Database, then it will include bibliographic, chemical, 
# crystal, experimental, refinement or atomic coordinate data resulting 
# from the CCDC's data processing and validation procedures.
#
#######################################################################

data_TEJKUO20
_chemical_formula_moiety         'C6 H16 N1 1+,Br1 1-'
_chemical_name_systematic        'Di-isopropylammonium bromide'
_symmetry_cell_setting           monoclinic
_symmetry_space_group_name_H-M   'P 21/m'
_symmetry_Int_Tables_number      11
_space_group_name_Hall           '-P 2yb'
loop_
_symmetry_equiv_pos_site_id
_symmetry_equiv_pos_as_xyz
1 x,y,z
2 -x,1/2+y,-z
3 -x,-y,-z
4 x,1/2-y,z
_cell_length_a                   7.994(5)
_cell_length_b                   8.166(5)
_cell_length_c                   8.039(5)
_cell_angle_alpha                90
_cell_angle_beta                 116.511(16)
_cell_angle_gamma                90
_cell_volume                     469.597
_cell_formula_units_Z            2
loop_
_atom_site_label
_atom_site_type_symbol
_atom_site_fract_x
_atom_site_fract_y
_atom_site_fract_z
C1 C 0.2552(15) 0.2500 0.7155(15)
H1 H 0.3817 0.2500 0.8115
H2 H 0.2342 0.1540 0.6398
C2 C -0.0801(14) 0.2500 0.6635(13)
H3 H -0.1559 0.2500 0.7284
H4 H -0.1071 0.3460 0.5869
C3 C 0.1189(13) 0.2500 0.7937(12)
C4 C 0.3621(11) 0.2500 1.1315(12)
H5 H 0.4761 0.2500 1.1192
C5 C 0.3897(11) 0.1023(9) 1.2486(14)
H6 H 0.4884 0.1189 1.3715
H7 H 0.2746 0.0825 1.2554
H8 H 0.4189 0.0097 1.1927
N1 N 0.1744(10) 0.3176(9) 0.9748(11)
H9 H 0.0840 0.2970 1.0098
H10 H 0.1824 0.4270 0.9671
H11 H 0.1296 0.1364 0.8276
H2C H 0.2342 0.3460 0.6398
H4C H -0.1071 0.1540 0.5869
C5C C 0.3897(11) 0.3977(9) 1.2486(14)
H6C H 0.4884 0.3811 1.3715
H7C H 0.2746 0.4175 1.2554
H8C H 0.4189 0.4903 1.1927
N1C N 0.1744(10) 0.1824(9) 0.9748(11)
H9C H 0.0840 0.2030 1.0098
H10C H 0.1824 0.0730 0.9671
H11C H 0.1296 0.3636 0.8276
Br1 Br 0.85631(11) 0.2500 0.13112(12)
loop_
_geom_bond_atom_site_label_1
_geom_bond_atom_site_label_2
_geom_bond_site_symmetry_1
_geom_bond_site_symmetry_2
C1 H1 1_555 1_555
H2 C1 1_555 1_555
C2 H3 1_555 1_555
H4 C2 1_555 1_555
C3 C1 1_555 1_555
C4 H5 1_555 1_555
C5 C4 1_555 1_555
H6 C5 1_555 1_555
H7 C5 1_555 1_555
H8 C5 1_555 1_555
N1 C3 1_555 1_555
H9 N1 1_555 1_555
H10 N1 1_555 1_555
H11 C3 1_555 1_555
H2C C1 1_555 1_555
H4C C2 1_555 1_555
C5C C4 1_555 1_555
H6C C5C 1_555 1_555
H7C C5C 1_555 1_555
H8C C5C 1_555 1_555
N1C C3 1_555 1_555
H9C N1 1_555 1_555
H10C N1C 1_555 1_555
H11C C3 1_555 1_555
C2 C3 1_555 1_555
C4 N1 1_555 1_555
C4 N1C 1_555 1_555
N1 N1C 1_555 1_555
N1 H11C 1_555 1_555
H9 N1C 1_555 1_555
H11 N1C 1_555 1_555
N1C H9C 1_555 1_555

#END
