
#######################################################################
#
#                 Cambridge Crystallographic Data Centre
#                                CCDC 
#
#######################################################################
#
# If this CIF has been generated from an entry in the Cambridge 
# Structural Database, then it will include bibliographic, chemical, 
# crystal, experimental, refinement or atomic coordinate data resulting 
# from the CCDC's data processing and validation procedures.
#
#######################################################################

data_TEJKUO18
_chemical_formula_moiety         'C6 H16 N1 1+,Br1 1-'
_chemical_name_systematic        'Di-isopropylammonium bromide'
_symmetry_cell_setting           monoclinic
_symmetry_space_group_name_H-M   'P 21'
_symmetry_Int_Tables_number      4
_space_group_name_Hall           'P 2yb'
loop_
_symmetry_equiv_pos_site_id
_symmetry_equiv_pos_as_xyz
1 x,y,z
2 -x,1/2+y,-z
_cell_length_a                   7.8213(16)
_cell_length_b                   8.0652(16)
_cell_length_c                   7.8750(16)
_cell_angle_alpha                90
_cell_angle_beta                 116.30(3)
_cell_angle_gamma                90
_cell_volume                     445.337
_cell_formula_units_Z            2
loop_
_atom_site_label
_atom_site_type_symbol
_atom_site_fract_x
_atom_site_fract_y
_atom_site_fract_z
Br1 Br 0.14895(3) 0.8870 0.36517(4)
C1 C 0.1130(3) 0.3846(10) 0.2985(4)
H1 H 0.1100 0.5020 0.3289
C2 C 0.3647(6) 0.3162(6) 0.6397(6)
H2 H 0.4625 0.2913 0.5975
C3 C 0.3857(7) 0.4957(7) 0.7035(7)
H3 H 0.3673 0.5668 0.5991
H4 H 0.5110 0.5129 0.8045
H5 H 0.2920 0.5208 0.7474
N1 N 0.1697(3) 0.2873(3) 0.4759(4)
H6 H 0.1618 0.1792 0.4451
H7 H 0.0821 0.3063 0.5186
C4 C 0.2553(5) 0.3640(9) 0.2195(5)
H8 H 0.3785 0.4007 0.3114
H9 H 0.2161 0.4289 0.1062
H10 H 0.2622 0.2493 0.1906
C5 C -0.0863(5) 0.3341(4) 0.1585(5)
H11 H -0.1244 0.3969 0.0439
H12 H -0.1731 0.3552 0.2120
H13 H -0.0879 0.2180 0.1307
C6 C 0.3874(5) 0.1980(5) 0.7970(5)
H14 H 0.5091 0.2156 0.9033
H15 H 0.3797 0.0859 0.7530
H16 H 0.2879 0.2173 0.8345
loop_
_geom_bond_atom_site_label_1
_geom_bond_atom_site_label_2
_geom_bond_site_symmetry_1
_geom_bond_site_symmetry_2
C1 H1 1_555 1_555
C2 H2 1_555 1_555
C3 C2 1_555 1_555
H3 C3 1_555 1_555
H4 C3 1_555 1_555
H5 C3 1_555 1_555
N1 C1 1_555 1_555
H6 N1 1_555 1_555
H7 N1 1_555 1_555
C4 C1 1_555 1_555
H8 C4 1_555 1_555
H9 C4 1_555 1_555
H10 C4 1_555 1_555
C5 C1 1_555 1_555
H11 C5 1_555 1_555
H12 C5 1_555 1_555
H13 C5 1_555 1_555
C6 C2 1_555 1_555
H14 C6 1_555 1_555
H15 C6 1_555 1_555
H16 C6 1_555 1_555
C2 N1 1_555 1_555

#END
