
#######################################################################
#
#                 Cambridge Crystallographic Data Centre
#                                CCDC 
#
#######################################################################
#
# If this CIF has been generated from an entry in the Cambridge 
# Structural Database, then it will include bibliographic, chemical, 
# crystal, experimental, refinement or atomic coordinate data resulting 
# from the CCDC's data processing and validation procedures.
#
#######################################################################

data_TEJKAV
_chemical_formula_moiety         'C23 H23 F1 N4 O5'
_chemical_name_systematic        
'Methyl (E,E)-(2-((((1,3-dimethyl-5-(2-fluorophenoxy)-1H-pyrazol-4-ylmethylene)amino)oxy)methyl)phenyl)-2-(methoxyimino)acetate'
_chemical_properties_biological  
'exhibits a broad spectrum of fungicidal activity'
_symmetry_cell_setting           orthorhombic
_symmetry_space_group_name_H-M   'P b c a'
_symmetry_Int_Tables_number      61
_space_group_name_Hall           '-P 2ac 2ab'
loop_
_symmetry_equiv_pos_site_id
_symmetry_equiv_pos_as_xyz
1 x,y,z
2 1/2-x,-y,1/2+z
3 -x,1/2+y,1/2-z
4 1/2+x,1/2-y,-z
5 -x,-y,-z
6 1/2+x,y,1/2-z
7 x,1/2-y,1/2+z
8 1/2-x,1/2+y,z
_cell_length_a                   14.2781(10)
_cell_length_b                   16.1865(12)
_cell_length_c                   20.1828(15)
_cell_angle_alpha                90
_cell_angle_beta                 90
_cell_angle_gamma                90
_cell_volume                     4664.5
_exptl_crystal_colour            colorless
_exptl_crystal_description       block
_cell_formula_units_Z            8
_exptl_crystal_recrystallization_method 'ethyl acetate/hexane'
loop_
_atom_site_label
_atom_site_type_symbol
_atom_site_fract_x
_atom_site_fract_y
_atom_site_fract_z
C1 C 0.5941(2) 0.82991(18) 0.12779(14)
C2 C 0.6722(2) 0.8323(2) 0.08831(15)
H1 H 0.6732 0.8643 0.0501
C3 C 0.7486(2) 0.7866(2) 0.10630(16)
H2 H 0.8023 0.7879 0.0802
C4 C 0.7470(2) 0.7399(2) 0.16131(16)
H3 H 0.7993 0.7087 0.1726
C5 C 0.6679(2) 0.73766(19) 0.20152(14)
H4 H 0.6674 0.7057 0.2398
C6 C 0.59098(18) 0.78283(18) 0.18416(12)
C7 C 0.50883(17) 0.75684(19) 0.28322(13)
N1 N 0.49054(16) 0.66827(14) 0.36623(12)
C8 C 0.50914(17) 0.74234(17) 0.39133(12)
C9 C 0.52137(17) 0.80150(16) 0.34056(12)
C10 C 0.4711(2) 0.6092(2) 0.25559(17)
H5 H 0.4988 0.6192 0.2130
H6 H 0.4045 0.6032 0.2507
H7 H 0.4967 0.5595 0.2741
C11 C 0.5133(2) 0.7546(2) 0.46424(13)
H8 H 0.5039 0.7027 0.4862
H9 H 0.4652 0.7927 0.4775
H10 H 0.5734 0.7765 0.4762
C12 C 0.54234(17) 0.88883(17) 0.34325(13)
H11 H 0.5492 0.9176 0.3037
C13 C 0.59808(19) 1.05228(17) 0.44386(14)
H12 H 0.5508 1.0424 0.4775
H13 H 0.6014 1.1114 0.4364
C14 C 0.6912(2) 1.02229(16) 0.46890(13)
C15 C 0.6982(3) 0.9812(2) 0.52888(16)
H14 H 0.6448 0.9731 0.5545
C16 C 0.7836(4) 0.9520(2) 0.5510(2)
H15 H 0.7873 0.9245 0.5914
C17 C 0.8628(3) 0.9631(2) 0.5139(2)
H16 H 0.9200 0.9432 0.5291
C18 C 0.8576(2) 1.00398(18) 0.45404(16)
H17 H 0.9113 1.0112 0.4287
C19 C 0.77225(18) 1.03426(15) 0.43157(12)
C20 C 0.76735(16) 1.07879(16) 0.36769(12)
F1 F 0.51770(14) 0.87375(13) 0.11107(10)
N2 N 0.49096(15) 0.67817(15) 0.29934(11)
N3 N 0.55184(15) 0.92788(13) 0.39742(11)
O1 O 0.50689(12) 0.78356(14) 0.21933(9)
O2 O 0.57053(13) 1.01248(11) 0.38382(9)
C21 C 0.7280(4) 1.2837(2) 0.4066(3)
H18 H 0.7725 1.3043 0.3750
H19 H 0.7335 1.3142 0.4472
H20 H 0.6658 1.2899 0.3892
C22 C 0.7794(7) 1.0313(4) 0.3051(2)
C23 C 0.8085(4) 0.9115(3) 0.2504(2)
H21 H 0.7496 0.9101 0.2275
H22 H 0.8295 0.8561 0.2585
H23 H 0.8538 0.9400 0.2237
O3 O 0.7464(6) 1.1966(3) 0.4193(2)
O4 O 0.7969(3) 0.9556(2) 0.31465(18)
O5 O 0.7658(3) 1.0621(2) 0.25051(14)
N4 N 0.7535(2) 1.1569(2) 0.35993(15)
C24? C 0.798(2) 0.9767(19) 0.2193(9)
H24? H 0.7370 0.9598 0.2046
H25? H 0.8445 0.9410 0.2004
H26? H 0.8095 1.0326 0.2056
C25? C 0.754(3) 1.1715(8) 0.3682(11)
C26? C 0.724(3) 1.2937(15) 0.4374(13)
H27? H 0.7618 1.3303 0.4109
H28? H 0.7324 1.3070 0.4834
H29? H 0.6597 1.2997 0.4255
O6? O 0.8026(15) 0.9714(11) 0.2954(8)
O7? O 0.755(2) 1.2062(15) 0.4255(8)
O8? O 0.7098(7) 1.2058(5) 0.3209(5)
N5? N 0.770(2) 1.0509(12) 0.3070(5)
loop_
_geom_bond_atom_site_label_1
_geom_bond_atom_site_label_2
_geom_bond_site_symmetry_1
_geom_bond_site_symmetry_2
C1 C2 1_555 1_555
C2 H1 1_555 1_555
C3 C2 1_555 1_555
H2 C3 1_555 1_555
C4 C3 1_555 1_555
H3 C4 1_555 1_555
C5 C4 1_555 1_555
H4 C5 1_555 1_555
C6 C1 1_555 1_555
C7 C9 1_555 1_555
N1 C8 1_555 1_555
C8 C9 1_555 1_555
C9 C12 1_555 1_555
C10 H5 1_555 1_555
H6 C10 1_555 1_555
H7 C10 1_555 1_555
C11 C8 1_555 1_555
H8 C11 1_555 1_555
H9 C11 1_555 1_555
H10 C11 1_555 1_555
C12 H11 1_555 1_555
C13 H12 1_555 1_555
H13 C13 1_555 1_555
C14 C13 1_555 1_555
C15 C14 1_555 1_555
H14 C15 1_555 1_555
C16 C15 1_555 1_555
H15 C16 1_555 1_555
C17 C16 1_555 1_555
H16 C17 1_555 1_555
C18 C17 1_555 1_555
H17 C18 1_555 1_555
C19 C14 1_555 1_555
C20 C19 1_555 1_555
F1 C1 1_555 1_555
N2 C7 1_555 1_555
N3 C12 1_555 1_555
O1 C6 1_555 1_555
O2 C13 1_555 1_555
C21 H18 1_555 1_555
H19 C21 1_555 1_555
H20 C21 1_555 1_555
C22 C20 1_555 1_555
C23 H21 1_555 1_555
H22 C23 1_555 1_555
H23 C23 1_555 1_555
O3 C21 1_555 1_555
O4 C22 1_555 1_555
O5 C22 1_555 1_555
N4 C20 1_555 1_555
C5 C6 1_555 1_555
C7 O1 1_555 1_555
N1 N2 1_555 1_555
C10 N2 1_555 1_555
C18 C19 1_555 1_555
N3 O2 1_555 1_555
C23 O4 1_555 1_555
O3 N4 1_555 1_555

#END
