
#######################################################################
#
#                 Cambridge Crystallographic Data Centre
#                                CCDC 
#
#######################################################################
#
# If this CIF has been generated from an entry in the Cambridge 
# Structural Database, then it will include bibliographic, chemical, 
# crystal, experimental, refinement or atomic coordinate data resulting 
# from the CCDC's data processing and validation procedures.
#
#######################################################################

data_TEJKUO12
_chemical_formula_moiety         'C6 H16 N1 1+,Br1 1-'
_chemical_name_systematic        'Di-isopropylammonium bromide'
_symmetry_cell_setting           orthorhombic
_symmetry_space_group_name_H-M   'P 21 21 21'
_symmetry_Int_Tables_number      19
_space_group_name_Hall           'P 2ac 2ab'
loop_
_symmetry_equiv_pos_site_id
_symmetry_equiv_pos_as_xyz
1 x,y,z
2 1/2-x,-y,1/2+z
3 1/2+x,1/2-y,-z
4 -x,1/2+y,1/2-z
_cell_length_a                   8.0538(16)
_cell_length_b                   8.3526(17)
_cell_length_c                   13.647(3)
_cell_angle_alpha                90
_cell_angle_beta                 90
_cell_angle_gamma                90
_cell_volume                     918.036
_cell_formula_units_Z            4
loop_
_atom_site_label
_atom_site_type_symbol
_atom_site_fract_x
_atom_site_fract_y
_atom_site_fract_z
N1 N 0.1752(4) -0.3352(3) -1.0995(2)
H1 H 0.2011 -0.3105 -1.0371
H2 H 0.0660 -0.3159 -1.1072
C1 C 0.3816(5) -0.5551(6) -1.0988(5)
H3 H 0.3957 -0.6679 -1.1092
H4 H 0.4148 -0.5284 -1.0332
H5 H 0.4488 -0.4969 -1.1446
C2 C 0.2032(6) -0.5115(4) -1.1131(3)
H6 H 0.1715 -0.5399 -1.1802
C3 C 0.0881(7) -0.5980(5) -1.0432(4)
H7 H -0.0245 -0.5666 -1.0560
H8 H 0.1167 -0.5707 -0.9770
H9 H 0.0992 -0.7115 -1.0522
C4 C 0.2269(6) -0.2569(5) -1.2713(3)
H10 H 0.2872 -0.1849 -1.3130
H11 H 0.1099 -0.2427 -1.2814
H12 H 0.2570 -0.3653 -1.2866
C5 C 0.2687(5) -0.2222(5) -1.1656(4)
H13 H 0.3882 -0.2376 -1.1557
C6 C 0.2228(7) -0.0526(5) -1.1362(3)
H14 H 0.2524 -0.0353 -1.0689
H15 H 0.1054 -0.0374 -1.1441
H16 H 0.2815 0.0221 -1.1769
Br1 Br 0.27051(4) -0.24999(5) -0.86678(2)
loop_
_geom_bond_atom_site_label_1
_geom_bond_atom_site_label_2
_geom_bond_site_symmetry_1
_geom_bond_site_symmetry_2
N1 H1 1_555 1_555
H2 N1 1_555 1_555
C1 H3 1_555 1_555
H4 C1 1_555 1_555
H5 C1 1_555 1_555
C2 N1 1_555 1_555
H6 C2 1_555 1_555
C3 C2 1_555 1_555
H7 C3 1_555 1_555
H8 C3 1_555 1_555
H9 C3 1_555 1_555
C4 H10 1_555 1_555
H11 C4 1_555 1_555
H12 C4 1_555 1_555
C5 N1 1_555 1_555
H13 C5 1_555 1_555
C6 C5 1_555 1_555
H14 C6 1_555 1_555
H15 C6 1_555 1_555
H16 C6 1_555 1_555
C1 C2 1_555 1_555
C4 C5 1_555 1_555

#END
