
#######################################################################
#
#                 Cambridge Crystallographic Data Centre
#                                CCDC 
#
#######################################################################
#
# If this CIF has been generated from an entry in the Cambridge 
# Structural Database, then it will include bibliographic, chemical, 
# crystal, experimental, refinement or atomic coordinate data resulting 
# from the CCDC's data processing and validation procedures.
#
#######################################################################

data_TEJSEJ
_chemical_name_common            
"4,4'-{[7,12,22,27-tetrakis(pentafluorophenyl)-31,32,33,34,35,36-hexaazaheptacyclo[26.2.1.1$3,6!.1$8,11!.1$13,16!.1$18,21!.1$23,26!]hexatriaconta-1(31),3(36),4,6,8,10,12,14,16(34),18(33),19,21,23,25,27,29-hexadecaene-2,17-diylidene]bis(thiene-5,2-diylidene)}bis(2,6-di-t-butylcyclohexa-2,5-dien-1-one) benzene octane solvate monohydrate"
_chemical_formula_moiety         'C90 H58 F20 N6 O2 S2,0.5(C6 H6),H2 O1,C8 H18'
_chemical_name_systematic        
"4,4'-{[7,12,22,27-tetrakis(pentafluorophenyl)-hexaphyrin-2,17-diylidene]bis(thiene-5,2-diylidene)}bis(2,6-di-t-butylcyclohexa-2,5-dien-1-one) benzene octane solvate monohydrate"
_symmetry_cell_setting           rhombohedral
_symmetry_space_group_name_H-M   'R -3 c'
_symmetry_Int_Tables_number      167
_space_group_name_Hall           '-R 3 2"c'
loop_
_symmetry_equiv_pos_site_id
_symmetry_equiv_pos_as_xyz
1 x,y,z
2 -y,x-y,z
3 -x+y,-x,z
4 x-y,-y,1/2-z
5 -x,-x+y,1/2-z
6 y,x,1/2-z
7 2/3+x,1/3+y,1/3+z
8 2/3-y,1/3+x-y,1/3+z
9 2/3-x+y,1/3-x,1/3+z
10 2/3+x-y,1/3-y,5/6-z
11 2/3-x,1/3-x+y,5/6-z
12 2/3+y,1/3+x,5/6-z
13 1/3+x,2/3+y,2/3+z
14 1/3-y,2/3+x-y,2/3+z
15 1/3-x+y,2/3-x,2/3+z
16 1/3+x-y,2/3-y,1/6-z
17 1/3-x,2/3-x+y,1/6-z
18 1/3+y,2/3+x,1/6-z
19 -x,-y,-z
20 y,-x+y,-z
21 x-y,x,-z
22 -x+y,y,1/2+z
23 x,x-y,1/2+z
24 -y,-x,1/2+z
25 1/3-x,2/3-y,2/3-z
26 1/3+y,2/3-x+y,2/3-z
27 1/3+x-y,2/3+x,2/3-z
28 1/3-x+y,2/3+y,1/6+z
29 1/3+x,2/3+x-y,1/6+z
30 1/3-y,2/3-x,1/6+z
31 2/3-x,1/3-y,1/3-z
32 2/3+y,1/3-x+y,1/3-z
33 2/3+x-y,1/3+x,1/3-z
34 2/3-x+y,1/3+y,5/6+z
35 2/3+x,1/3+x-y,5/6+z
36 2/3-y,1/3-x,5/6+z
_cell_length_a                   46.210(4)
_cell_length_b                   46.210(4)
_cell_length_c                   48.168(4)
_cell_angle_alpha                90
_cell_angle_beta                 90
_cell_angle_gamma                120
_cell_volume                     89076.1
_exptl_crystal_colour            brown
_exptl_crystal_description       prism
_cell_formula_units_Z            32
_exptl_crystal_recrystallization_method 'benzene/ octane/ water'
loop_
_atom_site_label
_atom_site_type_symbol
_atom_site_fract_x
_atom_site_fract_y
_atom_site_fract_z
C91 C 0.43000(15) 0.35724(13) 0.07093(10)
H59 H 0.4282 0.3752 0.0632
C92 C 0.40461(18) 0.3333 0.0833
H60 H 0.3841 0.3333 0.0833
C93 C 0.46066(18) 0.35719(17) 0.06866(14)
H61 H 0.4785 0.3730 0.0574
C94 C 0.4633(2) 0.3333 0.0833
H62 H 0.4838 0.3333 0.0833
C91O C 0.40609(20) 0.30943(13) 0.09574(10)
H59O H 0.3863 0.2915 0.1035
C93O C 0.43680(25) 0.30948(17) 0.09801(14)
H61O H 0.4388 0.2937 0.1093
O3 O 0.604(2) 0.3333 0.0833
O4 O 0.6667 0.3333 0.001(3)
O5 O 0.6667 0.3333 0.0833
C1 C 0.2330(4) 0.2590(3) 0.1912(4)
C2 C 0.37419(6) 0.32626(6) 0.23603(5)
C3 C 0.37313(7) 0.37991(6) 0.13218(5)
C4 C 0.31128(6) 0.34796(6) 0.13747(5)
C5 C 0.35064(7) 0.39663(7) 0.07747(5)
C6 C 0.33979(6) 0.30262(6) 0.22868(5)
C7 C 0.37606(6) 0.37549(6) 0.21045(5)
H1 H 0.3531 0.3648 0.2056
C8 C 0.27849(6) 0.30639(6) 0.16674(5)
C9 C 0.34150(6) 0.37423(7) 0.12577(5)
C10 C 0.32157(7) 0.43455(7) 0.08843(6)
C11 C 0.32428(7) 0.41516(7) 0.10886(6)
C12 C 0.39776(6) 0.40755(6) 0.20433(5)
H2 H 0.3915 0.4216 0.1949
C13 C 0.40519(7) 0.30108(7) 0.29599(5)
H3 H 0.4049 0.2923 0.3139
C14 C 0.40506(7) 0.40918(7) 0.12568(6)
H4 H 0.4086 0.4283 0.1155
C15 C 0.29209(6) 0.28252(6) 0.20732(5)
C16 C 0.54653(7) 0.46264(7) 0.24935(6)
H5 H 0.5312 0.4620 0.2637
H6 H 0.5678 0.4677 0.2579
H7 H 0.5367 0.4409 0.2400
C17 C 0.26941(6) 0.28260(6) 0.18869(5)
C18 C 0.40595(7) 0.31961(7) 0.17223(5)
C19 C 0.31803(7) 0.26939(6) 0.24026(5)
H8 H 0.3238 0.2584 0.2540
C20 C 0.41094(7) 0.37002(7) 0.14926(5)
C21 C 0.43091(6) 0.41852(6) 0.21320(5)
C22 C 0.46191(7) 0.36875(7) 0.16459(6)
C23 C 0.43402(7) 0.31875(7) 0.27792(5)
C24 C 0.42869(7) 0.40372(7) 0.13706(6)
H9 H 0.4521 0.4187 0.1371
C25 C 0.55264(7) 0.48974(7) 0.22813(6)
C26 C 0.45893(7) 0.47424(7) 0.19190(6)
H10 H 0.4381 0.4709 0.1855
C27 C 0.49045(7) 0.45573(7) 0.22083(5)
H11 H 0.4905 0.4400 0.2335
C28 C 0.42563(7) 0.35242(7) 0.16234(5)
C29 C 0.27802(7) 0.33612(7) 0.12978(5)
H12 H 0.2707 0.3443 0.1149
C30 C 0.34867(7) 0.41626(7) 0.05674(5)
C31 C 0.28810(7) 0.25734(7) 0.22759(5)
H13 H 0.2684 0.2366 0.2312
C32 C 0.45936(7) 0.44913(7) 0.20911(5)
C33 C 0.49355(7) 0.34012(8) 0.26383(6)
C34 C 0.39055(6) 0.35858(6) 0.22505(5)
C35 C 0.37893(7) 0.29947(7) 0.28246(5)
H14 H 0.3564 0.2889 0.2887
C36 C 0.51953(7) 0.50709(7) 0.19429(6)
C37 C 0.2100(3) 0.2693(3) 0.1977(3)
C38 C 0.33867(6) 0.39561(6) 0.10409(5)
C39 C 0.2187(4) 0.2243(4) 0.1851(3)
C40 C 0.33348(7) 0.43455(7) 0.06227(6)
C41 C 0.48640(7) 0.52851(7) 0.16514(6)
C42 C 0.38360(9) 0.26266(8) 0.19386(6)
C43 C 0.37094(7) 0.29742(7) 0.16800(6)
H15 H 0.3573 0.3034 0.1576
C44 C 0.46568(7) 0.32470(7) 0.28244(6)
C45 C 0.48705(8) 0.39005(9) 0.14395(6)
H16 H 0.4829 0.3977 0.1269
C46 C 0.54495(8) 0.36082(9) 0.24524(7)
H17 H 0.5678 0.3675 0.2427
C47 C 0.25779(7) 0.31056(7) 0.14754(5)
H18 H 0.2341 0.2980 0.1470
C48 C 0.39215(6) 0.31730(6) 0.25624(5)
C49 C 0.4732(7) 0.3170(6) 0.3093(5)
C50 C 0.51967(7) 0.48325(7) 0.21481(5)
C51 C 0.51055(7) 0.38000(8) 0.18075(6)
C52 C 0.52428(8) 0.36456(8) 0.22590(6)
C53 C 0.34455(16) 0.20521(13) 0.21053(11)
H19 H 0.3260 0.2082 0.2071
C54 C 0.56853(7) 0.52341(7) 0.24345(6)
H20 H 0.5735 0.5414 0.2301
H21 H 0.5892 0.5275 0.2525
H22 H 0.5529 0.5229 0.2575
C55 C 0.57628(7) 0.48994(8) 0.20556(6)
H23 H 0.5651 0.4688 0.1952
H24 H 0.5966 0.4925 0.2143
H25 H 0.5822 0.5086 0.1928
C56 C 0.52595(8) 0.34572(9) 0.26846(7)
H26 H 0.5335 0.3400 0.2848
C57 C 0.51673(8) 0.39666(9) 0.15372(6)
H27 H 0.5378 0.4096 0.1449
C58 C 0.48715(7) 0.50245(7) 0.18448(6)
C59 C 0.53316(7) 0.37970(8) 0.19888(6)
C60 C 0.4954(5) 0.3035(5) 0.3591(3)
C61 C 0.4747(6) 0.2892(7) 0.3144(4)
C62 C 0.1632(3) 0.2142(3) 0.1921(3)
C63 C 0.1763(2) 0.2476(3) 0.19852(19)
C64 C 0.40554(19) 0.22898(15) 0.21386(13)
H28 H 0.4273 0.2481 0.2134
C65 C 0.4843(6) 0.3382(4) 0.3315(4)
C66 C 0.1844(4) 0.2024(4) 0.1858(4)
C67 C 0.33907(18) 0.17478(10) 0.21904(8)
C68 C 0.4961(4) 0.3318(4) 0.3558(3)
C69 C 0.35897(8) 0.26715(8) 0.18015(6)
H29 H 0.3360 0.2504 0.1796
C70 C 0.4022(2) 0.19936(16) 0.22129(10)
C71 C 0.3778(2) 0.23285(17) 0.20666(15)
C72 C 0.50578(9) 0.56339(7) 0.17770(7)
H30 H 0.5290 0.5692 0.1808
H31 H 0.4956 0.5638 0.1954
H32 H 0.5052 0.5796 0.1650
C73 C 0.50156(10) 0.52794(10) 0.13704(7)
H33 H 0.5248 0.5335 0.1397
H34 H 0.5009 0.5444 0.1246
H35 H 0.4887 0.5056 0.1288
C74 C 0.4855(6) 0.2812(5) 0.3388(4)
C75 C 0.3684(2) 0.17002(13) 0.22327(10)
C76 C 0.27728(18) 0.15560(15) 0.21939(13)
H36 H 0.2809 0.1722 0.2336
H37 H 0.2789 0.1653 0.2010
H38 H 0.2550 0.1360 0.2218
C77 C 0.2972(3) 0.11944(18) 0.19976(15)
H39 H 0.3139 0.1124 0.2011
H40 H 0.2748 0.1000 0.2023
H41 H 0.2987 0.1293 0.1814
C78 C 0.2990(3) 0.1290(2) 0.25092(18)
H42 H 0.3156 0.1220 0.2535
H43 H 0.3018 0.1452 0.2653
H44 H 0.2765 0.1095 0.2522
C79 C 0.4308(3) 0.1766(3) 0.25171(13)
H45 H 0.4504 0.1738 0.2530
H46 H 0.4309 0.1902 0.2674
H47 H 0.4105 0.1547 0.2523
C80 C 0.3037(2) 0.14525(13) 0.22219(10)
C81 C 0.4321(2) 0.19437(17) 0.22414(11)
C82 C 0.4663(3) 0.2287(3) 0.22493(17)
H48 H 0.4848 0.2243 0.2268
H49 H 0.4689 0.2410 0.2077
H50 H 0.4663 0.2420 0.2408
C83 C 0.45048(8) 0.52080(8) 0.16031(8)
H51 H 0.4507 0.5381 0.1485
H52 H 0.4401 0.5203 0.1782
H53 H 0.4377 0.4990 0.1512
C84 C 0.4329(2) 0.17353(16) 0.19954(13)
H54 H 0.4522 0.1703 0.2014
H55 H 0.4123 0.1517 0.1994
H56 H 0.4346 0.1853 0.1821
S1 S 0.43296(2) 0.38610(2) 0.23004(2)
S2 S 0.42251(2) 0.29885(2) 0.19099(2)
F1 F 0.31258(4) 0.41601(4) 0.13429(3)
F2 F 0.32976(4) 0.45264(4) 0.04214(3)
F3 F 0.2391(3) 0.21142(18) 0.1797(2)
F4 F 0.36105(4) 0.41679(4) 0.03157(3)
F5 F 0.2213(2) 0.3005(2) 0.20364(17)
F6 F 0.36435(4) 0.37793(4) 0.07083(3)
F7 F 0.1547(2) 0.25802(18) 0.20449(19)
N1 N 0.32413(5) 0.30912(5) 0.20865(4)
F8 F 0.30692(4) 0.45263(4) 0.09360(4)
F9 F 0.17269(17) 0.16968(14) 0.17914(14)
F10 F 0.4616(5) 0.2616(4) 0.2926(3)
N2 N 0.31067(5) 0.32940(5) 0.15988(4)
H57 H 0.3285 0.3319 0.1686
F11 F 0.13054(16) 0.19277(15) 0.19095(14)
F12 F 0.5558(3) 0.3612(3) 0.1511(2)
N3 N 0.42444(5) 0.32854(5) 0.25387(4)
N4 N 0.37794(5) 0.35731(5) 0.14709(4)
F13 F 0.5895(3) 0.4333(2) 0.2281(2)
F14 F 0.4849(5) 0.3661(3) 0.3289(3)
F15 F 0.5059(3) 0.2953(3) 0.3831(2)
O1 O 0.54620(5) 0.53042(6) 0.18533(5)
N5 N 0.47637(6) 0.36330(6) 0.18604(5)
F16 F 0.5071(5) 0.3536(3) 0.3760(2)
F17 F 0.65114(19) 0.4600(2) 0.2131(2)
F18 F 0.4815(4) 0.2482(2) 0.3416(2)
F19 F 0.6203(3) 0.3902(3) 0.1351(3)
F20 F 0.66737(19) 0.4370(3) 0.1655(2)
O2 O 0.3640(2) 0.14173(13) 0.22777(12)
N6 N 0.49323(6) 0.35159(6) 0.23766(5)
H58 H 0.4757 0.3507 0.2296
C85 C 0.56940(17) 0.3965(3) 0.1901(2)
C86 C 0.57878(19) 0.3863(2) 0.16628(19)
C87 C 0.6123(2) 0.4013(2) 0.15893(19)
C88 C 0.63645(16) 0.4265(2) 0.1754(3)
C89 C 0.6271(2) 0.4367(3) 0.1993(2)
C90 C 0.5935(3) 0.4217(3) 0.2066(2)
C95? C 0.3165(10) 0.1186(9) 0.1989(9)
H63? H 0.2942 0.0988 0.2007
H64? H 0.3196 0.1271 0.1799
H65? H 0.3335 0.1126 0.2033
C96? C 0.4175(9) 0.2365(9) 0.2124(9)
H66? H 0.4391 0.2556 0.2105
O6? O 0.3824(8) 0.1521(8) 0.2352(8)
C97? C 0.4468(9) 0.2051(9) 0.2313(6)
C98? C 0.3548(8) 0.1781(7) 0.2172(7)
C99? C 0.309(2) 0.129(2) 0.2493(12)
H67? H 0.2862 0.1098 0.2481
H68? H 0.3244 0.1226 0.2557
H69? H 0.3084 0.1455 0.2625
C100? C 0.2903(7) 0.1521(9) 0.2087(11)
H70? H 0.2689 0.1314 0.2107
H71? H 0.2900 0.1698 0.2196
H72? H 0.2941 0.1586 0.1891
C101? C 0.3859(10) 0.1810(10) 0.2225(8)
C102? C 0.4446(11) 0.1810(8) 0.2114(6)
H73? H 0.4435 0.1886 0.1926
H74? H 0.4644 0.1784 0.2129
H75? H 0.4245 0.1594 0.2150
C103? C 0.3197(7) 0.1463(7) 0.2196(6)
C104? C 0.4484(14) 0.1914(11) 0.2578(10)
H76? H 0.4499 0.2066 0.2726
H77? H 0.4282 0.1696 0.2604
H78? H 0.4681 0.1886 0.2583
C105? C 0.4165(8) 0.2080(9) 0.2229(8)
C106? C 0.3576(9) 0.2084(9) 0.2087(8)
H79? H 0.3374 0.2085 0.2056
C107? C 0.3896(10) 0.2405(10) 0.2041(11)
C108? C 0.4694(15) 0.2339(14) 0.2151(9)
H80? H 0.4746 0.2543 0.2253
H81? H 0.4901 0.2334 0.2116
H82? H 0.4589 0.2335 0.1973
F21? F 0.6686(4) 0.4408(4) 0.1654(3)
C109? C 0.5704(5) 0.3923(7) 0.1913(6)
C110? C 0.5973(6) 0.4196(7) 0.2039(5)
C111? C 0.6293(5) 0.4322(6) 0.1932(6)
C112? C 0.6345(5) 0.4175(6) 0.1700(6)
C113? C 0.6077(7) 0.3902(7) 0.1574(5)
C114? C 0.5756(5) 0.3776(6) 0.1681(6)
F22? F 0.6143(9) 0.3782(10) 0.1375(8)
F23? F 0.6559(8) 0.4618(9) 0.2082(8)
F24? F 0.5874(4) 0.4313(3) 0.2289(3)
F25? F 0.5530(9) 0.3534(10) 0.1543(7)
F26? F 0.5110(6) 0.3496(6) 0.3769(4)
F27? F 0.5077(5) 0.2887(7) 0.3798(4)
F28? F 0.4879(6) 0.2490(4) 0.3376(4)
C115? C 0.4966(5) 0.2959(6) 0.3575(3)
C116? C 0.4985(5) 0.3268(5) 0.3557(3)
C117? C 0.4878(6) 0.3354(4) 0.3317(4)
C118? C 0.4753(6) 0.3132(5) 0.3096(3)
C119? C 0.4735(6) 0.2823(4) 0.3114(3)
C120? C 0.4841(5) 0.2736(5) 0.3354(4)
F29? F 0.4906(7) 0.3665(5) 0.3301(4)
F30? F 0.4666(6) 0.2654(6) 0.2913(4)
F31? F 0.1337(5) 0.1863(7) 0.1964(5)
F32? F 0.1559(6) 0.2504(8) 0.2058(5)
F33? F 0.1804(8) 0.1673(6) 0.1827(5)
C121? C 0.1900(9) 0.1994(10) 0.1876(8)
F34? F 0.2448(7) 0.2127(5) 0.1809(6)
C122? C 0.2106(10) 0.2617(8) 0.1988(7)
C123? C 0.1668(8) 0.2070(8) 0.1938(7)
C124? C 0.2332(10) 0.2524(9) 0.1908(9)
F35? F 0.2201(6) 0.2968(7) 0.2060(5)
C125? C 0.1749(7) 0.2371(9) 0.1988(6)
C126? C 0.2232(10) 0.2216(10) 0.1879(8)
C127? C 0.5608(8) 0.2659(8) 0.2743(7)
C128? C 0.5797(17) 0.2932(14) 0.2206(10)
C129? C 0.590(2) 0.284(2) 0.2434(12)
C130? C 0.555(2) 0.262(2) 0.2486(7)
C131? C 0.5966(7) 0.3157(6) 0.1867(6)
C132? C 0.5628(5) 0.3021(5) 0.1983(4)
C133? C 0.5535(8) 0.2790(8) 0.3085(7)
C134? C 0.5664(9) 0.2604(8) 0.3356(7)
C135? C 0.5825(9) 0.2873(9) 0.3667(7)
C136? C 0.5308(17) 0.266(2) 0.2195(15)
C137? C 0.6370(8) 0.4629(10) 0.0747(7)
C138? C 0.6551(9) 0.4613(13) 0.0822(9)
C139? C 0.5374(4) 0.3896(4) 0.0198(3)
C140? C 0.5579(5) 0.3976(7) 0.0505(5)
C141? C 0.6085(6) 0.4295(6) 0.0727(5)
C142? C 0.5860(7) 0.4221(8) 0.0429(6)
C143? C 0.5058(6) 0.3678(8) 0.0420(6)
C144? C 0.6321(10) 0.4466(13) 0.0702(8)
C145? C 0.6450(11) 0.4880(12) 0.0780(9)
loop_
_geom_bond_atom_site_label_1
_geom_bond_atom_site_label_2
_geom_bond_site_symmetry_1
_geom_bond_site_symmetry_2
C1 C17 1_555 1_555
C2 C6 1_555 1_555
C3 C9 1_555 1_555
C4 C9 1_555 1_555
C5 C30 1_555 1_555
C6 C19 1_555 1_555
C7 H1 1_555 1_555
C8 C17 1_555 1_555
C9 C38 1_555 1_555
C10 C11 1_555 1_555
C11 C38 1_555 1_555
C12 C7 1_555 1_555
H2 C12 1_555 1_555
C13 H3 1_555 1_555
C14 C3 1_555 1_555
H4 C14 1_555 1_555
C15 C17 1_555 1_555
C16 H5 1_555 1_555
H6 C16 1_555 1_555
H7 C16 1_555 1_555
C18 C28 1_555 1_555
C19 H8 1_555 1_555
C20 C24 1_555 1_555
C21 C12 1_555 1_555
C22 C28 1_555 1_555
C23 C13 1_555 1_555
C24 C14 1_555 1_555
H9 C24 1_555 1_555
C25 C16 1_555 1_555
C26 H10 1_555 1_555
C27 H11 1_555 1_555
C28 C20 1_555 1_555
C29 C4 1_555 1_555
H12 C29 1_555 1_555
C30 C40 1_555 1_555
C31 C15 1_555 1_555
H13 C31 1_555 1_555
C32 C21 1_555 1_555
C33 C44 1_555 1_555
C34 C2 1_555 1_555
C35 C13 1_555 1_555
H14 C35 1_555 1_555
C36 C50 1_555 1_555
C37 C1 1_555 1_555
C38 C5 1_555 1_555
C39 C1 1_555 1_555
C40 C10 1_555 1_555
C41 C58 1_555 1_555
C42 C69 1_555 1_555
C43 C18 1_555 1_555
H15 C43 1_555 1_555
C44 C23 1_555 1_555
C45 C22 1_555 1_555
H16 C45 1_555 1_555
C46 H17 1_555 1_555
C47 C8 1_555 1_555
H18 C47 1_555 1_555
C48 C2 1_555 1_555
C49 C44 1_555 1_555
C50 C25 1_555 1_555
C51 C57 1_555 1_555
C52 C46 1_555 1_555
C53 H19 1_555 1_555
C54 C25 1_555 1_555
H20 C54 1_555 1_555
H21 C54 1_555 1_555
H22 C54 1_555 1_555
C55 C25 1_555 1_555
H23 C55 1_555 1_555
H24 C55 1_555 1_555
H25 C55 1_555 1_555
C56 C33 1_555 1_555
H26 C56 1_555 1_555
C57 C45 1_555 1_555
H27 C57 1_555 1_555
C58 C26 1_555 1_555
C59 C51 1_555 1_555
C60 C68 1_555 1_555
C61 C49 1_555 1_555
C62 C63 1_555 1_555
C63 C37 1_555 1_555
C64 H28 1_555 1_555
C65 C49 1_555 1_555
C66 C39 1_555 1_555
C67 C53 1_555 1_555
C68 C65 1_555 1_555
C69 C43 1_555 1_555
H29 C69 1_555 1_555
C70 C64 1_555 1_555
C71 C42 1_555 1_555
C72 C41 1_555 1_555
H30 C72 1_555 1_555
H31 C72 1_555 1_555
H32 C72 1_555 1_555
C73 C41 1_555 1_555
H33 C73 1_555 1_555
H34 C73 1_555 1_555
H35 C73 1_555 1_555
C74 C60 1_555 1_555
C75 C67 1_555 1_555
C76 H36 1_555 1_555
H37 C76 1_555 1_555
H38 C76 1_555 1_555
C77 H39 1_555 1_555
H40 C77 1_555 1_555
H41 C77 1_555 1_555
C78 H42 1_555 1_555
H43 C78 1_555 1_555
H44 C78 1_555 1_555
C79 H45 1_555 1_555
H46 C79 1_555 1_555
H47 C79 1_555 1_555
C80 C67 1_555 1_555
C81 C70 1_555 1_555
C82 C81 1_555 1_555
H48 C82 1_555 1_555
H49 C82 1_555 1_555
H50 C82 1_555 1_555
C83 C41 1_555 1_555
H51 C83 1_555 1_555
H52 C83 1_555 1_555
H53 C83 1_555 1_555
C84 C81 1_555 1_555
H54 C84 1_555 1_555
H55 C84 1_555 1_555
H56 C84 1_555 1_555
S1 C21 1_555 1_555
S2 C18 1_555 1_555
F1 C11 1_555 1_555
F2 C40 1_555 1_555
F3 C39 1_555 1_555
F4 C30 1_555 1_555
F5 C37 1_555 1_555
F6 C5 1_555 1_555
F7 C63 1_555 1_555
N1 C6 1_555 1_555
F8 C10 1_555 1_555
F9 C66 1_555 1_555
F10 C61 1_555 1_555
N2 C4 1_555 1_555
H57 N2 1_555 1_555
F11 C62 1_555 1_555
F12 C86 1_555 1_555
N3 C23 1_555 1_555
N4 C3 1_555 1_555
F13 C90 1_555 1_555
F14 C65 1_555 1_555
F15 C60 1_555 1_555
O1 C36 1_555 1_555
N5 C22 1_555 1_555
F16 C68 1_555 1_555
F17 C89 1_555 1_555
F18 C74 1_555 1_555
F19 C87 1_555 1_555
F20 C88 1_555 1_555
O2 C75 1_555 1_555
N6 C33 1_555 1_555
H58 N6 1_555 1_555
C85 C59 1_555 1_555
C86 C85 1_555 1_555
C87 C86 1_555 1_555
C88 C87 1_555 1_555
C89 C88 1_555 1_555
C90 C85 1_555 1_555
C91 H59 1_555 1_555
C92 C91 1_555 1_555
H60 C92 1_555 1_555
C93 C91 1_555 1_555
H61 C93 1_555 1_555
C94 C93 1_555 1_555
H62 C94 1_555 1_555
C91O C92 1_555 1_555
H59O C91O 1_555 1_555
C93O C94 1_555 1_555
H61O C93O 1_555 1_555
C7 C34 1_555 1_555
C8 N2 1_555 1_555
C15 N1 1_555 1_555
C19 C31 1_555 1_555
C20 N4 1_555 1_555
C26 C32 1_555 1_555
C27 C32 1_555 1_555
C27 C50 1_555 1_555
C29 C47 1_555 1_555
C34 S1 1_555 1_555
C35 C48 1_555 1_555
C36 C58 1_555 1_555
C42 S2 1_555 1_555
C46 C56 1_555 1_555
C48 N3 1_555 1_555
C51 N5 1_555 1_555
C52 C59 1_555 1_555
C52 N6 1_555 1_555
C53 C71 1_555 1_555
C61 C74 1_555 1_555
C62 C66 1_555 1_555
C64 C71 1_555 1_555
C70 C75 1_555 1_555
C76 C80 1_555 1_555
C77 C80 1_555 1_555
C78 C80 1_555 1_555
C79 C81 1_555 1_555
C89 C90 1_555 1_555
C91O C93O 1_555 1_555

#END
