
#######################################################################
#
#                 Cambridge Crystallographic Data Centre
#                                CCDC 
#
#######################################################################
#
# If this CIF has been generated from an entry in the Cambridge 
# Structural Database, then it will include bibliographic, chemical, 
# crystal, experimental, refinement or atomic coordinate data resulting 
# from the CCDC's data processing and validation procedures.
#
#######################################################################

data_TEJSAF
_chemical_formula_moiety         'C60 H50 F10 N4 O2,0.5(C8 H18),2.5(C6 H6)'
_chemical_name_systematic        
"4,4'-[10,20-bis(pentafluorophenyl)porphyrin-5,15-diylidene]bis(2,6-di-t-butylcyclohexa-2,5-dien-1-one) octane benzene solvate"
_symmetry_cell_setting           triclinic
_symmetry_space_group_name_H-M   'P -1'
_symmetry_Int_Tables_number      2
_space_group_name_Hall           '-P 1'
loop_
_symmetry_equiv_pos_site_id
_symmetry_equiv_pos_as_xyz
1 x,y,z
2 -x,-y,-z
_cell_length_a                   15.318(3)
_cell_length_b                   15.535(3)
_cell_length_c                   16.305(3)
_cell_angle_alpha                94.177(4)
_cell_angle_beta                 111.946(4)
_cell_angle_gamma                106.796(4)
_cell_volume                     3373.13
_exptl_crystal_colour            green
_exptl_crystal_description       prism
_cell_formula_units_Z            2
_exptl_crystal_recrystallization_method 'benzene/ octane'
loop_
_atom_site_label
_atom_site_type_symbol
_atom_site_fract_x
_atom_site_fract_y
_atom_site_fract_z
F1 F 0.02075(8) 0.11376(7) 0.16561(7)
F2 F 0.23799(8) 0.21440(7) 0.47468(7)
F3 F 0.39353(8) 0.75831(7) 0.61926(7)
F4 F -0.02827(9) -0.06018(7) 0.18977(8)
F5 F 0.30551(9) 0.88162(7) 0.35644(7)
F6 F 0.46779(9) 0.92855(8) 0.72068(8)
F7 F 0.06034(9) -0.09924(7) 0.35326(9)
F8 F 0.46080(9) 1.07579(7) 0.64076(9)
F9 F 0.19457(9) 0.03905(8) 0.49556(8)
O1 O -0.21675(10) 0.48594(8) -0.13712(8)
F10 F 0.37765(9) 1.05031(7) 0.45767(9)
N1 N 0.35095(10) 0.59953(9) 0.36190(9)
N2 N 0.29325(9) 0.40150(9) 0.31001(9)
H1 H 0.2599 0.4400 0.3038
N3 N 0.09965(9) 0.39690(9) 0.27162(9)
N4 N 0.15703(10) 0.59430(9) 0.32295(9)
H2 H 0.1885 0.5569 0.3161
C1 C 0.43716(12) 0.59212(10) 0.36818(11)
C2 C -0.18505(11) 0.39639(11) -0.02453(11)
C3 C 0.52103(11) 0.46146(11) 0.22051(11)
H3 H 0.4787 0.4000 0.2114
C4 C 0.08460(12) 0.30743(10) 0.28807(11)
C5 C -0.08822(11) 0.56888(11) 0.09940(11)
H4 H -0.0576 0.6248 0.1429
C6 C 0.37692(12) 0.68260(10) 0.42016(11)
C7 C -0.14176(11) 0.57057(11) 0.01335(11)
C8 C 0.25689(12) 0.31144(10) 0.31553(11)
C9 C 0.15775(12) 0.26807(10) 0.30770(11)
C10 C 0.17396(12) 0.14773(11) 0.40213(12)
C11 C 0.08350(14) -0.01181(12) 0.34252(14)
C12 C 0.20235(12) 0.67971(10) 0.37879(11)
C13 C 0.56354(12) 0.62705(11) 0.27169(11)
H5 H 0.5492 0.6757 0.2966
C14 C 0.50865(11) 0.53371(11) 0.27153(11)
C15 C -0.07466(11) 0.48641(11) 0.12948(11)
C16 C 0.13184(11) 0.17026(10) 0.31932(12)
C17 C -0.24009(12) 0.30529(11) -0.09311(12)
C18 C -0.13015(11) 0.40109(11) 0.06345(11)
H6 H -0.1278 0.3454 0.0832
C19 C 0.01051(11) 0.40553(11) 0.24274(11)
C20 C 0.05720(11) 0.57605(11) 0.28006(11)
C21 C 0.03575(12) 0.65042(11) 0.31124(11)
H7 H -0.0286 0.6560 0.2936
O2 O 0.72562(11) 0.58995(9) 0.17504(12)
C22 C 0.34647(12) 0.81381(11) 0.48448(12)
C23 C 0.44530(11) 0.51597(11) 0.31485(11)
C24 C 0.38783(11) 0.42273(11) 0.31559(11)
C25 C -0.00694(11) 0.48958(10) 0.21446(11)
C26 C -0.06541(12) 0.32422(11) 0.24323(12)
H8 H -0.1343 0.3154 0.2264
C27 C 0.52244(12) 0.66717(11) 0.43413(12)
H9 H 0.5912 0.6749 0.4515
C28 C 0.03899(13) 0.00791(11) 0.25920(13)
C29 C -0.18484(12) 0.48453(11) -0.05620(12)
C30 C 0.58954(12) 0.47700(11) 0.18526(12)
C31 C 0.33319(12) 0.27508(11) 0.32664(12)
H10 H 0.3300 0.2141 0.3331
C32 C 0.06414(13) 0.09791(11) 0.24819(12)
C33 C 0.38897(12) 0.82939(11) 0.57762(12)
C34 C 0.42729(13) 0.91649(13) 0.63095(13)
C35 C 0.48469(12) 0.72367(11) 0.46581(12)
H11 H 0.5216 0.7794 0.5095
C36 C 0.41433(12) 0.34397(11) 0.32650(12)
H12 H 0.4766 0.3386 0.3327
C37 C 0.42342(13) 0.99112(12) 0.59052(14)
C38 C -0.11489(13) 0.73713(11) 0.06634(12)
H13 H -0.1246 0.7927 0.0457
H14 H -0.1509 0.7194 0.1045
H15 H -0.0433 0.7492 0.1012
C39 C 0.30769(12) 0.72008(10) 0.42630(11)
C40 C 0.12594(12) 0.71462(11) 0.37270(12)
H16 H 0.1343 0.7720 0.4049
C41 C 0.38122(14) 0.97800(12) 0.49816(14)
C42 C -0.01878(12) 0.26368(11) 0.27238(11)
H17 H -0.0481 0.2041 0.2809
C43 C -0.24563(15) 0.22314(12) -0.04613(13)
H18 H -0.2812 0.1659 -0.0917
H19 H -0.1777 0.2251 -0.0088
H20 H -0.2815 0.2259 -0.0078
C44 C 0.52402(14) 0.30600(12) 0.12096(14)
H21 H 0.5318 0.2932 0.1808
H22 H 0.4564 0.3074 0.0880
H23 H 0.5344 0.2578 0.0874
C45 C -0.09896(14) 0.69052(12) -0.07451(13)
H24 H -0.1236 0.6416 -0.1275
H25 H -0.1102 0.7460 -0.0942
H26 H -0.0271 0.7038 -0.0396
C46 C 0.69170(13) 0.74876(12) 0.24218(13)
C47 C 0.60122(13) 0.39915(12) 0.13152(13)
C48 C 0.65579(13) 0.57317(12) 0.19837(13)
C49 C 0.63365(12) 0.64876(11) 0.23853(12)
C50 C 0.34397(13) 0.89064(11) 0.44653(13)
C51 C -0.15518(12) 0.65940(11) -0.01530(11)
C52 C 0.15162(13) 0.05802(12) 0.41428(13)
C53 C -0.18284(14) 0.29898(13) -0.15180(13)
H27 H -0.2176 0.2408 -0.1960
H28 H -0.1795 0.3502 -0.1835
H29 H -0.1148 0.3019 -0.1133
C54 C -0.34770(13) 0.29731(13) -0.15399(13)
H30 H -0.3809 0.2384 -0.1971
H31 H -0.3846 0.3008 -0.1168
H32 H -0.3462 0.3476 -0.1870
C55 C 0.65560(14) 0.81537(12) 0.28364(14)
H33 H 0.6938 0.8786 0.2852
H34 H 0.5843 0.8027 0.2470
H35 H 0.6657 0.8075 0.3452
C56 C -0.26756(13) 0.64239(12) -0.06801(13)
H36 H -0.2953 0.5927 -0.1209
H37 H -0.3025 0.6252 -0.0289
H38 H -0.2765 0.6985 -0.0878
C57 C 0.67543(17) 0.76444(14) 0.14643(15)
H39 H 0.6979 0.7226 0.1180
H40 H 0.6041 0.7526 0.1106
H41 H 0.7139 0.8281 0.1497
C58 C 0.70552(14) 0.39207(14) 0.18103(15)
H42 H 0.7141 0.3806 0.2414
H43 H 0.7118 0.3414 0.1468
H44 H 0.7570 0.4497 0.1865
C59 C 0.80371(14) 0.77124(14) 0.30154(17)
H45 H 0.8289 0.7295 0.2765
H46 H 0.8407 0.8348 0.3029
H47 H 0.8128 0.7638 0.3630
C60 C 0.58717(18) 0.41715(15) 0.03710(15)
H48 H 0.6360 0.4766 0.0424
H49 H 0.5973 0.3684 0.0039
H50 H 0.5192 0.4179 0.0045
C61 C 0.31005(17) 0.09237(15) 0.16228(17)
H51 H 0.3744 0.1385 0.1915
C62 C 0.24786(17) 0.09211(14) 0.07628(17)
H52 H 0.2691 0.1379 0.0456
C63 C 0.27899(18) 0.02533(16) 0.20657(16)
H53 H 0.3221 0.0252 0.2662
C64 C 0.18588(17) -0.04113(15) 0.16434(17)
H54 H 0.1647 -0.0873 0.1947
C65 C 0.15501(19) 0.02582(16) 0.03446(18)
H55 H 0.1119 0.0256 -0.0253
C66 C 0.12391(18) -0.04077(16) 0.07899(19)
H56 H 0.0592 -0.0864 0.0501
C67 C 0.4399(2) 0.99172(18) 0.0461(2)
H57 H 0.3990 0.9862 0.0785
C68 C 0.4393(2) 1.05196(18) -0.0106(2)
H58 H 0.3970 1.0878 -0.0186
C69 C 0.5002(2) 0.9390(2) 0.0563(2)
H59 H 0.5000 0.8962 0.0951
C67A C 0.5601(2) 1.00828(18) -0.0461(2)
H57A H 0.6010 1.0138 -0.0785
C68A C 0.5607(2) 0.94804(18) 0.0106(2)
H58A H 0.6030 0.9122 0.0186
C69A C 0.4998(2) 1.0610(2) -0.0563(2)
H59A H 0.5000 1.1038 -0.0951
C70 C 0.9480(2) 0.4882(3) 0.4794(2)
H60 H 0.9222 0.4272 0.4928
H61 H 0.9314 0.4769 0.4139
C71 C 0.7127(9) 0.5389(7) 0.4680(8)
H62 H 0.6419 0.5001 0.4428
H63 H 0.7360 0.5612 0.5329
H64 H 0.7204 0.5913 0.4381
C72 C 0.8836(8) 0.5338(8) 0.4879(5)
H65 H 0.8926 0.5867 0.4578
H66 H 0.9077 0.5592 0.5529
C73 C 0.7740(4) 0.4834(4) 0.4529(4)
H67 H 0.7635 0.4297 0.4818
H68 H 0.7480 0.4597 0.3872
C70A C 1.0520(2) 0.5118(3) 0.5206(2)
H60A H 1.0778 0.5728 0.5072
H61A H 1.0686 0.5231 0.5861
C71A C 1.2873(9) 0.4611(7) 0.5320(8)
H62A H 1.3581 0.4999 0.5572
H63A H 1.2640 0.4388 0.4671
H64A H 1.2796 0.4087 0.5619
C72A C 1.1164(8) 0.4662(8) 0.5121(5)
H65A H 1.1074 0.4133 0.5422
H66A H 1.0923 0.4408 0.4471
C73A C 1.2260(4) 0.5166(4) 0.5471(4)
H67A H 1.2365 0.5703 0.5182
H68A H 1.2520 0.5403 0.6128
C83 C 0.8480(5) 0.2194(3) 0.4003(5)
H84 H 0.8418 0.2761 0.4182
C84 C 0.7765(4) 0.1601(4) 0.3201(5)
H85 H 0.7213 0.1762 0.2831
C85 C 0.7856(4) 0.0771(3) 0.2939(5)
H86 H 0.7367 0.0365 0.2390
C86 C 0.8662(5) 0.0535(3) 0.3479(6)
H87 H 0.8725 -0.0032 0.3300
C87 C 0.9377(5) 0.1129(4) 0.4282(5)
H88 H 0.9929 0.0967 0.4651
C88 C 0.9286(5) 0.1958(4) 0.4544(4)
H89 H 0.9775 0.2364 0.5092
H69? H 0.9311 0.4709 0.4143
H70? H 0.9228 0.4300 0.4978
C74? C 0.8027(5) 0.5573(5) 0.4458(5)
H71? H 0.7776 0.5464 0.3792
H72? H 0.8219 0.6238 0.4685
C75? C 0.7257(11) 0.5087(10) 0.4693(10)
H73? H 0.6682 0.5292 0.4432
H74? H 0.7055 0.4429 0.4459
H75? H 0.7497 0.5202 0.5352
C76? C 0.8875(18) 0.531(2) 0.4813(14)
H76? H 0.9380 0.5935 0.5070
H77? H 0.8772 0.5105 0.5341
C77? C 0.8664(5) 0.0681(3) 0.3532(5)
H78? H 0.9053 0.0298 0.3731
C78? C 0.8773(4) 0.1423(3) 0.4138(3)
H79? H 0.9237 0.1547 0.4751
C79? C 0.8204(4) 0.1983(3) 0.3848(3)
H80? H 0.8279 0.2490 0.4262
C80? C 0.7526(4) 0.1802(4) 0.2951(3)
H81? H 0.7137 0.2185 0.2752
C81? C 0.7417(4) 0.1060(4) 0.2345(3)
H82? H 0.6954 0.0937 0.1732
C82? C 0.7986(5) 0.0500(3) 0.2635(4)
H83? H 0.7911 -0.0007 0.2221
loop_
_geom_bond_atom_site_label_1
_geom_bond_atom_site_label_2
_geom_bond_site_symmetry_1
_geom_bond_site_symmetry_2
F1 C32 1_555 1_555
F2 C10 1_555 1_555
F3 C33 1_555 1_555
F4 C28 1_555 1_555
F5 C50 1_555 1_555
F6 C34 1_555 1_555
F7 C11 1_555 1_555
F8 C37 1_555 1_555
F9 C52 1_555 1_555
O1 C29 1_555 1_555
F10 C41 1_555 1_555
N1 C1 1_555 1_555
N2 H1 1_555 1_555
N3 C4 1_555 1_555
N4 H2 1_555 1_555
C1 C23 1_555 1_555
C2 C17 1_555 1_555
C3 H3 1_555 1_555
C4 C9 1_555 1_555
C5 H4 1_555 1_555
C6 N1 1_555 1_555
C7 C5 1_555 1_555
C8 N2 1_555 1_555
C9 C8 1_555 1_555
C10 C16 1_555 1_555
C11 C28 1_555 1_555
C12 N4 1_555 1_555
C13 H5 1_555 1_555
C14 C3 1_555 1_555
C15 C5 1_555 1_555
C16 C9 1_555 1_555
C17 C43 1_555 1_555
C18 C2 1_555 1_555
H6 C18 1_555 1_555
C19 N3 1_555 1_555
C20 N4 1_555 1_555
C21 C20 1_555 1_555
H7 C21 1_555 1_555
O2 C48 1_555 1_555
C22 C33 1_555 1_555
C23 C14 1_555 1_555
C24 N2 1_555 1_555
C25 C15 1_555 1_555
C26 C19 1_555 1_555
H8 C26 1_555 1_555
C27 C1 1_555 1_555
H9 C27 1_555 1_555
C28 C32 1_555 1_555
C29 C2 1_555 1_555
C30 C3 1_555 1_555
C31 C8 1_555 1_555
H10 C31 1_555 1_555
C32 C16 1_555 1_555
C33 C34 1_555 1_555
C34 C37 1_555 1_555
C35 C6 1_555 1_555
H11 C35 1_555 1_555
C36 C24 1_555 1_555
H12 C36 1_555 1_555
C37 C41 1_555 1_555
C38 H13 1_555 1_555
H14 C38 1_555 1_555
H15 C38 1_555 1_555
C39 C6 1_555 1_555
C40 C12 1_555 1_555
H16 C40 1_555 1_555
C41 C50 1_555 1_555
C42 C4 1_555 1_555
H17 C42 1_555 1_555
C43 H18 1_555 1_555
H19 C43 1_555 1_555
H20 C43 1_555 1_555
C44 H21 1_555 1_555
H22 C44 1_555 1_555
H23 C44 1_555 1_555
C45 H24 1_555 1_555
H25 C45 1_555 1_555
H26 C45 1_555 1_555
C46 C49 1_555 1_555
C47 C30 1_555 1_555
C48 C30 1_555 1_555
C49 C13 1_555 1_555
C50 C22 1_555 1_555
C51 C7 1_555 1_555
C52 C10 1_555 1_555
C53 C17 1_555 1_555
H27 C53 1_555 1_555
H28 C53 1_555 1_555
H29 C53 1_555 1_555
C54 C17 1_555 1_555
H30 C54 1_555 1_555
H31 C54 1_555 1_555
H32 C54 1_555 1_555
C55 C46 1_555 1_555
H33 C55 1_555 1_555
H34 C55 1_555 1_555
H35 C55 1_555 1_555
C56 C51 1_555 1_555
H36 C56 1_555 1_555
H37 C56 1_555 1_555
H38 C56 1_555 1_555
C57 C46 1_555 1_555
H39 C57 1_555 1_555
H40 C57 1_555 1_555
H41 C57 1_555 1_555
C58 C47 1_555 1_555
H42 C58 1_555 1_555
H43 C58 1_555 1_555
H44 C58 1_555 1_555
C59 C46 1_555 1_555
H45 C59 1_555 1_555
H46 C59 1_555 1_555
H47 C59 1_555 1_555
C60 C47 1_555 1_555
H48 C60 1_555 1_555
H49 C60 1_555 1_555
H50 C60 1_555 1_555
C61 H51 1_555 1_555
C62 C61 1_555 1_555
H52 C62 1_555 1_555
C63 C61 1_555 1_555
H53 C63 1_555 1_555
C64 C63 1_555 1_555
H54 C64 1_555 1_555
C65 C62 1_555 1_555
H55 C65 1_555 1_555
C66 C64 1_555 1_555
H56 C66 1_555 1_555
C67 H57 1_555 1_555
C68 C67 1_555 1_555
H58 C68 1_555 1_555
C69 C67 1_555 1_555
H59 C69 1_555 1_555
C70 H60 1_555 1_555
H61 C70 1_555 1_555
C71 H62 1_555 1_555
H63 C71 1_555 1_555
H64 C71 1_555 1_555
C72 C70 1_555 1_555
H65 C72 1_555 1_555
H66 C72 1_555 1_555
C73 C71 1_555 1_555
H67 C73 1_555 1_555
H68 C73 1_555 1_555
C83 H84 1_555 1_555
C84 C83 1_555 1_555
H85 C84 1_555 1_555
C85 C84 1_555 1_555
H86 C85 1_555 1_555
C86 C85 1_555 1_555
H87 C86 1_555 1_555
C87 C86 1_555 1_555
H88 C87 1_555 1_555
C88 C83 1_555 1_555
H89 C88 1_555 1_555
C67A H57A 1_555 1_555
C68A C69 1_555 1_555
H58A C68A 1_555 1_555
C69A C68 1_555 1_555
H59A C69A 1_555 1_555
C70A C70 1_555 1_555
H60A C70A 1_555 1_555
H61A C70A 1_555 1_555
C71A H62A 1_555 1_555
H63A C71A 1_555 1_555
H64A C71A 1_555 1_555
C72A C70A 1_555 1_555
H65A C72A 1_555 1_555
H66A C72A 1_555 1_555
C73A C71A 1_555 1_555
H67A C73A 1_555 1_555
H68A C73A 1_555 1_555
C7 C29 1_555 1_555
C11 C52 1_555 1_555
C12 C39 1_555 1_555
C13 C14 1_555 1_555
C15 C18 1_555 1_555
C19 C25 1_555 1_555
C20 C25 1_555 1_555
C21 C40 1_555 1_555
C22 C39 1_555 1_555
C23 C24 1_555 1_555
C26 C42 1_555 1_555
C27 C35 1_555 1_555
C31 C36 1_555 1_555
C38 C51 1_555 1_555
C44 C47 1_555 1_555
C45 C51 1_555 1_555
C48 C49 1_555 1_555
C65 C66 1_555 1_555
C72 C73 1_555 1_555
C87 C88 1_555 1_555
C67A C68A 1_555 1_555
C67A C69A 1_555 1_555
C72A C73A 1_555 1_555

#END
