
#######################################################################
#
#                 Cambridge Crystallographic Data Centre
#                                CCDC 
#
#######################################################################
#
# If this CIF has been generated from an entry in the Cambridge 
# Structural Database, then it will include bibliographic, chemical, 
# crystal, experimental, refinement or atomic coordinate data resulting 
# from the CCDC's data processing and validation procedures.
#
#######################################################################

data_TEJVOU
_chemical_formula_moiety         'C16 H16 O4'
_chemical_name_systematic        'Diethyl naphthalene-1,4-dicarboxylate'
_symmetry_cell_setting           monoclinic
_symmetry_space_group_name_H-M   'C 2/c'
_symmetry_Int_Tables_number      15
_space_group_name_Hall           '-C 2yn'
loop_
_symmetry_equiv_pos_site_id
_symmetry_equiv_pos_as_xyz
1 x,y,z
2 1/2+x,1/2+y,z
3 -x,y,1/2-z
4 1/2-x,1/2+y,1/2-z
5 -x,-y,-z
6 1/2-x,1/2-y,-z
7 x,-y,1/2+z
8 1/2+x,1/2-y,1/2+z
_cell_length_a                   24.731(7)
_cell_length_b                   7.2792(16)
_cell_length_c                   16.151(4)
_cell_angle_alpha                90
_cell_angle_beta                 95.277(19)
_cell_angle_gamma                90
_cell_volume                     2895.21
_exptl_crystal_colour            colorless
_exptl_crystal_description       Block
_cell_formula_units_Z            8
loop_
_atom_site_label
_atom_site_type_symbol
_atom_site_fract_x
_atom_site_fract_y
_atom_site_fract_z
O1 O 0.38480(7) 0.5421(3) 0.43238(12)
O2 O 0.40796(9) 0.4634(4) 0.56335(13)
O3 O 0.11616(8) 0.5334(3) 0.44940(12)
O4 O 0.11771(9) 0.4472(4) 0.58165(13)
C1 C 0.31396(10) 0.5112(3) 0.51650(15)
C2 C 0.27985(11) 0.4613(3) 0.44841(14)
H1 H 0.2943 0.4279 0.3994
C3 C 0.22389(11) 0.4600(3) 0.45176(15)
H2 H 0.2015 0.4245 0.4051
C4 C 0.20122(10) 0.5095(3) 0.52211(15)
C5 C 0.21361(11) 0.6430(4) 0.66549(15)
H3 H 0.1762 0.6445 0.6684
C6 C 0.24699(13) 0.7109(4) 0.72981(15)
H4 H 0.2321 0.7608 0.7757
C7 C 0.30319(13) 0.7067(4) 0.72788(16)
H5 H 0.3256 0.7516 0.7727
C8 C 0.32509(11) 0.6376(4) 0.66107(15)
H6 H 0.3627 0.6351 0.6607
C9 C 0.29228(10) 0.5686(3) 0.59151(14)
C10 C 0.23506(11) 0.5701(3) 0.59411(14)
C11 C 0.37372(12) 0.5038(4) 0.50941(18)
C12 C 0.44059(13) 0.5208(6) 0.4157(2)
H7 H 0.4523 0.3952 0.4264
H8 H 0.4636 0.6018 0.4513
C13 C 0.44423(17) 0.5673(10) 0.3283(2)
H9 H 0.4275 0.4721 0.2937
H10 H 0.4817 0.5787 0.3180
H11 H 0.4259 0.6816 0.3158
C14 C 0.14138(12) 0.4937(4) 0.52399(18)
C15 C 0.05814(12) 0.5075(6) 0.4401(2)
H12 H 0.0408 0.5908 0.4764
H13 H 0.0492 0.3825 0.4546
C16 C 0.03919(17) 0.5448(9) 0.3526(2)
H14 H 0.0497 0.6669 0.3382
H15 H 0.0004 0.5343 0.3450
H16 H 0.0552 0.4577 0.3174
loop_
_geom_bond_atom_site_label_1
_geom_bond_atom_site_label_2
_geom_bond_site_symmetry_1
_geom_bond_site_symmetry_2
O1 C11 1_555 1_555
O2 C11 1_555 1_555
O3 C14 1_555 1_555
O4 C14 1_555 1_555
C1 C2 1_555 1_555
C2 H1 1_555 1_555
C3 C2 1_555 1_555
H2 C3 1_555 1_555
C4 C3 1_555 1_555
C5 H3 1_555 1_555
C6 C5 1_555 1_555
H4 C6 1_555 1_555
C7 C6 1_555 1_555
H5 C7 1_555 1_555
C8 C7 1_555 1_555
H6 C8 1_555 1_555
C9 C1 1_555 1_555
C10 C4 1_555 1_555
C11 C1 1_555 1_555
C12 O1 1_555 1_555
H7 C12 1_555 1_555
H8 C12 1_555 1_555
C13 C12 1_555 1_555
H9 C13 1_555 1_555
H10 C13 1_555 1_555
H11 C13 1_555 1_555
C14 C4 1_555 1_555
C15 O3 1_555 1_555
H12 C15 1_555 1_555
H13 C15 1_555 1_555
C16 C15 1_555 1_555
H14 C16 1_555 1_555
H15 C16 1_555 1_555
H16 C16 1_555 1_555
C5 C10 1_555 1_555
C8 C9 1_555 1_555
C9 C10 1_555 1_555

#END
