
#######################################################################
#
#                 Cambridge Crystallographic Data Centre
#                                CCDC 
#
#######################################################################
#
# If this CIF has been generated from an entry in the Cambridge 
# Structural Database, then it will include bibliographic, chemical, 
# crystal, experimental, refinement or atomic coordinate data resulting 
# from the CCDC's data processing and validation procedures.
#
#######################################################################

data_TEJWUD
_chemical_formula_moiety         'C30 H47 N1 O5 S1'
_chemical_name_systematic        
1-{2-[2-(benzyloxy)ethyl]-3-hydroxy-4-methyldecanoyl}-8,8-dimethylhexahydro-3a,6-methano-2\l^6^-2\l^6^,1-benzothiazole-2,2(3H)-dione
_symmetry_cell_setting           monoclinic
_symmetry_space_group_name_H-M   'P 21'
_symmetry_Int_Tables_number      4
_space_group_name_Hall           'P 2yb'
loop_
_symmetry_equiv_pos_site_id
_symmetry_equiv_pos_as_xyz
1 x,y,z
2 -x,1/2+y,-z
_cell_length_a                   13.817(3)
_cell_length_b                   7.6282(15)
_cell_length_c                   15.129(3)
_cell_angle_alpha                90
_cell_angle_beta                 105.40(3)
_cell_angle_gamma                90
_cell_volume                     1537.33
_cell_formula_units_Z            2
loop_
_atom_site_label
_atom_site_type_symbol
_atom_site_fract_x
_atom_site_fract_y
_atom_site_fract_z
S1 S 0.1470(1) 0.8292(1) 0.4759(1)
O1 O 0.1131(1) 0.6529(3) 0.4538(2)
O2 O 0.1279(1) 0.9515(3) 0.4029(1)
O3 O 0.4225(1) 0.7036(2) 0.5571(1)
O4 O 0.3927(1) 1.0227(2) 0.4125(1)
O5 O 0.1975(1) 0.4687(2) 0.2765(1)
N1 N 0.2705(1) 0.8278(3) 0.5320(1)
C1 C 0.1046(2) 0.9031(4) 0.5709(2)
C2 C 0.1966(2) 0.9541(3) 0.6469(2)
C3 C 0.1960(2) 0.9123(4) 0.7474(2)
C4 C 0.2897(2) 1.0089(5) 0.8035(2)
C5 C 0.3291(2) 1.1018(4) 0.7303(2)
C6 C 0.3779(2) 0.9648(4) 0.6812(2)
C7 C 0.2878(2) 0.8518(3) 0.6327(1)
C8 C 0.2326(2) 1.1489(3) 0.6558(2)
C9 C 0.2513(2) 1.2312(4) 0.5693(2)
C10 C 0.1614(2) 1.2734(4) 0.6886(2)
C11 C 0.3461(2) 0.7481(3) 0.5005(1)
C12 C 0.3331(2) 0.7272(3) 0.3984(1)
C13 C 0.3562(2) 0.5363(3) 0.3764(2)
C14 C 0.2660(2) 0.4163(3) 0.3595(2)
C15 C 0.1070(2) 0.3709(4) 0.2573(2)
C16 C 0.0326(2) 0.4467(6) 0.1748(2)
C17 C -0.0244(3) 0.3403(7) 0.1068(3)
C18 C -0.0979(3) 0.4106(9) 0.0343(3)
C19 C -0.1115(4) 0.5877(10) 0.0286(3)
C20 C -0.0554(3) 0.6925(7) 0.0935(3)
C21 C 0.0177(2) 0.6212(6) 0.1673(2)
C22 C 0.4058(1) 0.8583(3) 0.3711(1)
C23 C 0.3885(2) 0.8755(3) 0.2672(1)
C24 C 0.2829(2) 0.9411(5) 0.2191(2)
C25 C 0.4696(2) 0.9862(4) 0.2426(1)
C26 C 0.4772(2) 0.9573(4) 0.1450(2)
C27 C 0.5677(2) 1.0367(4) 0.1238(2)
C28 C 0.5829(3) 0.9830(5) 0.0316(2)
C29 C 0.6752(3) 1.0366(6) 0.0102(3)
C30 C 0.6848(4) 0.9696(7) -0.0808(2)
H1 H 0.4409 1.0864 0.4137
H2 H 0.0604 1.0033 0.5533
H3 H 0.0679 0.8106 0.5918
H4 H 0.1357 0.9566 0.7609
H5 H 0.2011 0.7872 0.7591
H6 H 0.2725 1.0927 0.8451
H7 H 0.3389 0.9271 0.8385
H8 H 0.3722 1.2028 0.7535
H9 H 0.4088 1.0196 0.6376
H10 H 0.4280 0.8964 0.7246
H11 H 0.2921 0.7371 0.6627
H12 H 0.2852 1.3414 0.5847
H13 H 0.1883 1.2499 0.5247
H14 H 0.2921 1.1539 0.5444
H15 H 0.1902 1.3887 0.6975
H16 H 0.1518 1.2311 0.7454
H17 H 0.0979 1.2780 0.6433
H18 H 0.2639 0.7562 0.3652
H19 H 0.3817 0.5361 0.3225
H20 H 0.4086 0.4903 0.4272
H21 H 0.2863 0.2956 0.3550
H22 H 0.2347 0.4249 0.4097
H23 H 0.0793 0.3743 0.3098
H24 H 0.1205 0.2495 0.2456
H25 H -0.0135 0.2199 0.1096
H26 H -0.1375 0.3375 -0.0100
H27 H -0.1597 0.6360 -0.0204
H28 H -0.0650 0.8132 0.0895
H29 H 0.0563 0.6952 0.2117
H30 H 0.4747 0.8179 0.3977
H31 H 0.3942 0.7573 0.2438
H32 H 0.2341 0.8575 0.2275
H33 H 0.2769 0.9551 0.1548
H34 H 0.2714 1.0517 0.2448
H35 H 0.4556 1.1091 0.2503
H36 H 0.5339 0.9590 0.2850
H37 H 0.4775 0.8321 0.1337
H38 H 0.4176 1.0055 0.1028
H39 H 0.6268 1.0033 0.1716
H40 H 0.5620 1.1633 0.1252
H41 H 0.5788 0.8562 0.0276
H42 H 0.5270 1.0292 -0.0159
H43 H 0.7318 0.9947 0.0582
H44 H 0.6782 1.1636 0.0101
H45 H 0.6876 0.8438 -0.0796
H46 H 0.7451 1.0152 -0.0923
H47 H 0.6278 1.0070 -0.1286
loop_
_geom_bond_atom_site_label_1
_geom_bond_atom_site_label_2
_geom_bond_site_symmetry_1
_geom_bond_site_symmetry_2
S1 O1 1_555 1_555
O2 S1 1_555 1_555
O3 C11 1_555 1_555
O4 C22 1_555 1_555
O5 C14 1_555 1_555
N1 S1 1_555 1_555
C1 S1 1_555 1_555
C2 C1 1_555 1_555
C3 C2 1_555 1_555
C4 C3 1_555 1_555
C5 C4 1_555 1_555
C6 C5 1_555 1_555
C7 N1 1_555 1_555
C8 C2 1_555 1_555
C9 C8 1_555 1_555
C10 C8 1_555 1_555
C11 N1 1_555 1_555
C12 C11 1_555 1_555
C13 C12 1_555 1_555
C14 C13 1_555 1_555
C15 O5 1_555 1_555
C16 C15 1_555 1_555
C17 C16 1_555 1_555
C18 C17 1_555 1_555
C19 C18 1_555 1_555
C20 C19 1_555 1_555
C21 C16 1_555 1_555
C22 C12 1_555 1_555
C23 C22 1_555 1_555
C24 C23 1_555 1_555
C25 C23 1_555 1_555
C26 C25 1_555 1_555
C27 C26 1_555 1_555
C28 C27 1_555 1_555
C29 C28 1_555 1_555
C30 C29 1_555 1_555
H1 O4 1_555 1_555
H2 C1 1_555 1_555
H3 C1 1_555 1_555
H4 C3 1_555 1_555
H5 C3 1_555 1_555
H6 C4 1_555 1_555
H7 C4 1_555 1_555
H8 C5 1_555 1_555
H9 C6 1_555 1_555
H10 C6 1_555 1_555
H11 C7 1_555 1_555
H12 C9 1_555 1_555
H13 C9 1_555 1_555
H14 C9 1_555 1_555
H15 C10 1_555 1_555
H16 C10 1_555 1_555
H17 C10 1_555 1_555
H18 C12 1_555 1_555
H19 C13 1_555 1_555
H20 C13 1_555 1_555
H21 C14 1_555 1_555
H22 C14 1_555 1_555
H23 C15 1_555 1_555
H24 C15 1_555 1_555
H25 C17 1_555 1_555
H26 C18 1_555 1_555
H27 C19 1_555 1_555
H28 C20 1_555 1_555
H29 C21 1_555 1_555
H30 C22 1_555 1_555
H31 C23 1_555 1_555
H32 C24 1_555 1_555
H33 C24 1_555 1_555
H34 C24 1_555 1_555
H35 C25 1_555 1_555
H36 C25 1_555 1_555
H37 C26 1_555 1_555
H38 C26 1_555 1_555
H39 C27 1_555 1_555
H40 C27 1_555 1_555
H41 C28 1_555 1_555
H42 C28 1_555 1_555
H43 C29 1_555 1_555
H44 C29 1_555 1_555
H45 C30 1_555 1_555
H46 C30 1_555 1_555
H47 C30 1_555 1_555
C2 C7 1_555 1_555
C5 C8 1_555 1_555
C6 C7 1_555 1_555
C20 C21 1_555 1_555

#END
