
#######################################################################
#
#                 Cambridge Crystallographic Data Centre
#                                CCDC 
#
#######################################################################
#
# If this CIF has been generated from an entry in the Cambridge 
# Structural Database, then it will include bibliographic, chemical, 
# crystal, experimental, refinement or atomic coordinate data resulting 
# from the CCDC's data processing and validation procedures.
#
#######################################################################

data_TEJYEN
_chemical_formula_moiety         'C14 H20 O4,C12 H12 N2'
_chemical_name_systematic        
'1,3-Adamantanediacetic acid 1,2-bis(4-pyridyl)ethane'
_symmetry_cell_setting           triclinic
_symmetry_space_group_name_H-M   'P -1'
_symmetry_Int_Tables_number      2
_space_group_name_Hall           '-P 1'
loop_
_symmetry_equiv_pos_site_id
_symmetry_equiv_pos_as_xyz
1 x,y,z
2 -x,-y,-z
_cell_length_a                   8.6721(17)
_cell_length_b                   11.845(2)
_cell_length_c                   12.364(3)
_cell_angle_alpha                106.23(3)
_cell_angle_beta                 104.28(3)
_cell_angle_gamma                98.19(3)
_cell_volume                     1150.85
_exptl_crystal_colour            colorless
_exptl_crystal_description       prism
_cell_formula_units_Z            2
loop_
_atom_site_label
_atom_site_type_symbol
_atom_site_fract_x
_atom_site_fract_y
_atom_site_fract_z
O1 O 0.1692(5) -0.0578(2) 0.2207(3)
O2 O 0.3196(4) -0.11551(19) 0.3489(3)
H1 H 0.2660 -0.1816 0.3024
O3 O 0.3068(4) 0.60135(19) 0.8110(2)
O4 O 0.3876(3) 0.69152(16) 0.6956(2)
H2 H 0.3615 0.7482 0.7369
C1 C 0.2772(4) -0.0329(2) 0.3090(2)
C2 C 0.3717(3) 0.0929(2) 0.3855(3)
H3 H 0.4176 0.1314 0.3372
H4 H 0.4623 0.0868 0.4462
C3 C 0.2743(3) 0.17552(19) 0.4463(2)
C4 C 0.1461(3) 0.2073(2) 0.3568(2)
H5 H 0.1988 0.2445 0.3106
H6 H 0.0676 0.1342 0.3032
C5 C 0.0581(3) 0.2939(3) 0.4209(2)
H7 H -0.0249 0.3126 0.3629
C6 C 0.1803(3) 0.4105(2) 0.5035(2)
H8 H 0.1235 0.4656 0.5432
H9 H 0.2325 0.4491 0.4580
C7 C 0.3098(3) 0.38283(18) 0.59510(19)
C8 C 0.3953(3) 0.29379(18) 0.5296(2)
H10 H 0.4782 0.2757 0.5869
H11 H 0.4494 0.3311 0.4842
C9 C -0.0243(3) 0.2341(3) 0.4933(3)
H12 H -0.0821 0.2880 0.5334
H13 H -0.1031 0.1605 0.4413
C10 C 0.2268(3) 0.3219(2) 0.6664(2)
H14 H 0.1710 0.3762 0.7082
H15 H 0.3086 0.3037 0.7243
C11 C 0.1035(4) 0.2049(2) 0.5839(2)
H16 H 0.0500 0.1671 0.6302
C12 C 0.1911(4) 0.1181(2) 0.5198(2)
H17 H 0.1130 0.0438 0.4687
H18 H 0.2722 0.0985 0.5771
C13 C 0.4387(3) 0.49818(19) 0.6765(2)
H19 H 0.5121 0.4781 0.7377
H20 H 0.5027 0.5254 0.6306
C14 C 0.3709(3) 0.6010(2) 0.7347(2)
N1 N 0.3104(3) -1.1135(2) -0.1810(2)
N2 N 0.2044(4) -0.3503(2) 0.2029(3)
C15 C 0.3400(4) -1.0150(3) -0.2086(3)
H21 H 0.3737 -1.0197 -0.2752
C16 C 0.3236(5) -0.9058(3) -0.1434(3)
H22 H 0.3461 -0.8382 -0.1660
C17 C 0.2737(4) -0.8955(3) -0.0442(2)
C18 C 0.2378(5) -0.9984(3) -0.0169(3)
H23 H 0.1996 -0.9970 0.0474
C19 C 0.2601(5) -1.1060(3) -0.0881(3)
H24 H 0.2381 -1.1756 -0.0685
C20 C 0.2647(7) -0.7739(3) 0.0322(3)
H25 H 0.2367 -0.7844 0.1006
H26 H 0.3729 -0.7213 0.0606
C21 C 0.1517(5) -0.7129(3) -0.0211(3)
H27 H 0.0413 -0.7584 -0.0382
H28 H 0.1684 -0.7119 -0.0956
C22 C 0.1681(4) -0.5846(2) 0.0551(2)
C23 C 0.1138(4) -0.5605(3) 0.1523(3)
H29 H 0.0620 -0.6236 0.1708
C24 C 0.1354(4) -0.4442(3) 0.2221(3)
H30 H 0.0982 -0.4315 0.2879
C25 C 0.2559(5) -0.3700(3) 0.1095(4)
H31 H 0.3044 -0.3038 0.0935
C26 C 0.2415(4) -0.4865(3) 0.0320(3)
H32 H 0.2804 -0.4969 -0.0330
loop_
_geom_bond_atom_site_label_1
_geom_bond_atom_site_label_2
_geom_bond_site_symmetry_1
_geom_bond_site_symmetry_2
O1 C1 1_555 1_555
O2 H1 1_555 1_555
O3 C14 1_555 1_555
O4 H2 1_555 1_555
N1 C15 1_555 1_555
N2 C24 1_555 1_555
C1 O2 1_555 1_555
C2 C1 1_555 1_555
H3 C2 1_555 1_555
H4 C2 1_555 1_555
C3 C2 1_555 1_555
C4 C3 1_555 1_555
H5 C4 1_555 1_555
H6 C4 1_555 1_555
C5 C4 1_555 1_555
H7 C5 1_555 1_555
C6 C5 1_555 1_555
H8 C6 1_555 1_555
H9 C6 1_555 1_555
C7 C6 1_555 1_555
C8 C3 1_555 1_555
H10 C8 1_555 1_555
H11 C8 1_555 1_555
C9 C5 1_555 1_555
H12 C9 1_555 1_555
H13 C9 1_555 1_555
C10 C7 1_555 1_555
H14 C10 1_555 1_555
H15 C10 1_555 1_555
C11 C9 1_555 1_555
H16 C11 1_555 1_555
C12 C3 1_555 1_555
H17 C12 1_555 1_555
H18 C12 1_555 1_555
C13 C7 1_555 1_555
H19 C13 1_555 1_555
H20 C13 1_555 1_555
C14 O4 1_555 1_555
C15 H21 1_555 1_555
C16 C15 1_555 1_555
H22 C16 1_555 1_555
C17 C16 1_555 1_555
C18 C17 1_555 1_555
H23 C18 1_555 1_555
C19 N1 1_555 1_555
H24 C19 1_555 1_555
C20 C17 1_555 1_555
H25 C20 1_555 1_555
H26 C20 1_555 1_555
C21 C20 1_555 1_555
H27 C21 1_555 1_555
H28 C21 1_555 1_555
C22 C21 1_555 1_555
C23 C22 1_555 1_555
H29 C23 1_555 1_555
C24 C23 1_555 1_555
H30 C24 1_555 1_555
C25 N2 1_555 1_555
H31 C25 1_555 1_555
C26 C22 1_555 1_555
H32 C26 1_555 1_555
C7 C8 1_555 1_555
C10 C11 1_555 1_555
C11 C12 1_555 1_555
C13 C14 1_555 1_555
C18 C19 1_555 1_555
C25 C26 1_555 1_555

#END
