
#######################################################################
#
#                 Cambridge Crystallographic Data Centre
#                                CCDC 
#
#######################################################################
#
# If this CIF has been generated from an entry in the Cambridge 
# Structural Database, then it will include bibliographic, chemical, 
# crystal, experimental, refinement or atomic coordinate data resulting 
# from the CCDC's data processing and validation procedures.
#
#######################################################################

data_TEKBIU
_chemical_name_common            
'bis(Ciprofloxacinium) hexa-aqua-magnesium(ii) bis(sulfate) hexahydrate'
_chemical_formula_moiety         
'2(C17 H19 F1 N3 O3 1+),H12 Mg1 O6 2+,2(O4 S1 2-),6(H2 O1)'
_chemical_name_systematic        
'bis(1-Cyclopropyl-6-fluoro-1,4-dihydro-4-oxo-7-(1-piperazinyl)-3-quinolinecarboxylic acid) hexa-aqua-magnesium(ii) bis(sulfate) hexahydrate'
_chemical_properties_biological  'antibacterial agent'
_symmetry_cell_setting           monoclinic
_symmetry_space_group_name_H-M   'C 2/c'
_symmetry_Int_Tables_number      15
_space_group_name_Hall           '-C 2yn'
loop_
_symmetry_equiv_pos_site_id
_symmetry_equiv_pos_as_xyz
1 x,y,z
2 -x,y,1/2-z
3 1/2+x,1/2+y,z
4 1/2-x,1/2+y,1/2-z
5 -x,-y,-z
6 x,-y,1/2+z
7 1/2-x,1/2-y,-z
8 1/2+x,1/2-y,1/2+z
_cell_length_a                   13.273(3)
_cell_length_b                   9.692(2)
_cell_length_c                   38.608(8)
_cell_angle_alpha                90
_cell_angle_beta                 99.19(3)
_cell_angle_gamma                90
_cell_volume                     4902.86
_exptl_crystal_colour            colorless
_cell_formula_units_Z            4
loop_
_atom_site_label
_atom_site_type_symbol
_atom_site_fract_x
_atom_site_fract_y
_atom_site_fract_z
S1 S 0.18769(12) 0.2503(2) -0.20909(4)
O1 O 0.2770(3) 0.3027(7) -0.1881(2)
O2 O 0.2121(3) 0.2078(6) -0.24295(11)
O3 O 0.1076(4) 0.3552(5) -0.2143(2)
O4 O 0.1470(4) 0.1341(5) -0.19282(14)
Mg1 Mg 0.0000 -0.2328(3) -0.2500
O5 O 0.0271(3) -0.2286(7) -0.30054(12)
H1 H 0.0965(14) -0.2327(85) -0.3035(15)
H2 H -0.0166(35) -0.2208(88) -0.3224(8)
O6 O -0.1137(4) -0.0864(5) -0.2602(2)
H3 H -0.1153(51) -0.0166(64) -0.2775(16)
H4 H -0.1803(23) -0.1065(82) -0.2558(20)
O7 O -0.1118(3) -0.3800(4) -0.26292(12)
H5 H -0.1775(20) -0.3585(58) -0.2578(16)
H6 H -0.1126(40) -0.4658(34) -0.2747(15)
O5A O -0.0271(3) -0.2286(7) -0.19946(12)
H1A H -0.0965(14) -0.2327(85) -0.1965(15)
H2A H 0.0166(35) -0.2208(88) -0.1776(8)
O6A O 0.1137(4) -0.0864(5) -0.2398(2)
H3A H 0.1153(51) -0.0166(64) -0.2225(16)
H4A H 0.1803(23) -0.1065(82) -0.2442(20)
O7A O 0.1118(3) -0.3800(4) -0.23708(12)
H5A H 0.1775(20) -0.3585(58) -0.2422(16)
H6A H 0.1126(40) -0.4658(34) -0.2253(15)
O8 O 0.3837(4) 0.7474(7) 0.1425(2)
H7 H 0.3504(58) 0.6605(39) 0.1390(29)
H8 H 0.3349(49) 0.8193(56) 0.1418(28)
O9 O 0.1843(5) 0.0196(6) -0.12390(13)
H9 H 0.1714(65) 0.0741(61) -0.1046(12)
H10 H 0.1841(68) 0.0768(59) -0.1439(11)
O10 O 0.2867(4) 0.0014(6) 0.14041(14)
H11 H 0.2998(51) 0.0658(70) 0.1231(17)
H12 H 0.2170(18) 0.0029(87) 0.1429(21)
F1 F 0.1745(3) 0.8216(4) 0.08478(9)
O11 O 0.2087(4) 0.5672(4) -0.02498(11)
C1 C 0.0877(4) 0.4386(6) 0.04634(14)
O12 O 0.2058(4) 0.3859(5) -0.06995(11)
H13 H 0.2150(52) 0.4713(36) -0.0577(16)
C2 C 0.0927(4) 0.6080(6) 0.09264(14)
C3 C 0.1367(4) 0.3496(6) -0.01798(14)
C4 C 0.0841(4) 0.2679(6) 0.00205(15)
H14 H 0.0629(4) 0.1812(6) -0.00652(15)
C5 C 0.1364(4) 0.5285(6) 0.02624(14)
C6 C 0.1631(4) 0.4861(6) -0.00679(15)
C7 C 0.1635(4) 0.6601(6) 0.03990(15)
H15 H 0.1964(4) 0.7218(6) 0.02702(15)
N1 N 0.0855(4) 0.6457(5) 0.12678(11)
C8 C 0.0716(5) 0.5400(6) 0.15213(14)
H16 H 0.1024(5) 0.4542(6) 0.14614(14)
H17 H -0.0006(5) 0.5239(6) 0.15194(14)
C9 C 0.1207(5) 0.5867(7) 0.18777(15)
H18 H 0.1090(5) 0.5180(7) 0.20497(15)
H19 H 0.1937(5) 0.5944(7) 0.18826(15)
N2 N 0.0800(3) 0.7221(5) 0.19746(11)
H20 H -0.0021(3) 0.7065(5) 0.20029(11)
H21 H 0.1219(3) 0.7535(5) 0.22229(11)
C10 C 0.0892(5) 0.8277(6) 0.17024(15)
H22 H 0.1606(5) 0.8468(6) 0.16968(15)
H23 H 0.0568(5) 0.9127(6) 0.17583(15)
C11 C 0.0391(5) 0.7758(6) 0.13519(15)
H24 H -0.0331(5) 0.7620(6) 0.13542(15)
H25 H 0.0464(5) 0.8438(6) 0.11732(15)
N3 N 0.0617(4) 0.3063(5) 0.03321(12)
C12 C 0.0646(4) 0.4807(6) 0.07891(14)
H26 H 0.0294(4) 0.4209(6) 0.09151(14)
O13 O 0.1442(4) 0.1791(5) -0.06152(12)
C13 C 0.1620(5) 0.2963(7) -0.0510(2)
C14 C 0.0017(5) 0.2145(6) 0.0529(2)
H27 H -0.0695(5) 0.2420(6) 0.0526(2)
C15 C 0.0514(6) 0.1518(7) 0.0856(2)
H28 H 0.0120(6) 0.1423(7) 0.1045(2)
H29 H 0.1236(6) 0.1695(7) 0.0929(2)
C16 C 0.0198(7) 0.0652(7) 0.0526(2)
H30 H 0.0731(7) 0.0316(7) 0.0403(2)
H31 H -0.0385(7) 0.0044(7) 0.0519(2)
C17 C 0.1421(5) 0.6975(6) 0.07160(15)
loop_
_geom_bond_atom_site_label_1
_geom_bond_atom_site_label_2
_geom_bond_site_symmetry_1
_geom_bond_site_symmetry_2
S1 O1 1_555 1_555
O2 S1 1_555 1_555
O3 S1 1_555 1_555
O4 S1 1_555 1_555
Mg1 O5 1_555 1_555
O5 H1 1_555 1_555
H2 O5 1_555 1_555
O6 Mg1 1_555 1_555
H3 O6 1_555 1_555
H4 O6 1_555 1_555
O7 Mg1 1_555 1_555
H5 O7 1_555 1_555
H6 O7 1_555 1_555
O8 H7 1_555 1_555
H8 O8 1_555 1_555
O9 H9 1_555 1_555
H10 O9 1_555 1_555
O10 H11 1_555 1_555
H12 O10 1_555 1_555
F1 C17 1_555 1_555
O11 C6 1_555 1_555
C1 C5 1_555 1_555
O12 H13 1_555 1_555
C2 N1 1_555 1_555
C3 C4 1_555 1_555
C4 H14 1_555 1_555
C5 C6 1_555 1_555
C6 C3 1_555 1_555
C7 C5 1_555 1_555
H15 C7 1_555 1_555
N1 C8 1_555 1_555
C8 H16 1_555 1_555
H17 C8 1_555 1_555
C9 C8 1_555 1_555
H18 C9 1_555 1_555
H19 C9 1_555 1_555
N2 C9 1_555 1_555
H20 N2 1_555 1_555
H21 N2 1_555 1_555
C10 N2 1_555 1_555
H22 C10 1_555 1_555
H23 C10 1_555 1_555
C11 N1 1_555 1_555
H24 C11 1_555 1_555
H25 C11 1_555 1_555
N3 C1 1_555 1_555
C12 C1 1_555 1_555
H26 C12 1_555 1_555
O13 C13 1_555 1_555
C13 O12 1_555 1_555
C14 N3 1_555 1_555
H27 C14 1_555 1_555
C15 C14 1_555 1_555
H28 C15 1_555 1_555
H29 C15 1_555 1_555
C16 C14 1_555 1_555
H30 C16 1_555 1_555
H31 C16 1_555 1_555
C17 C2 1_555 1_555
O5A Mg1 1_555 1_555
H1A O5A 1_555 1_555
H2A O5A 1_555 1_555
O6A Mg1 1_555 1_555
H3A O6A 1_555 1_555
H4A O6A 1_555 1_555
O7A Mg1 1_555 1_555
H5A O7A 1_555 1_555
H6A O7A 1_555 1_555
C2 C12 1_555 1_555
C3 C13 1_555 1_555
C4 N3 1_555 1_555
C7 C17 1_555 1_555
C10 C11 1_555 1_555
C15 C16 1_555 1_555

#END
