
#######################################################################
#
#                 Cambridge Crystallographic Data Centre
#                                CCDC 
#
#######################################################################
#
# If this CIF has been generated from an entry in the Cambridge 
# Structural Database, then it will include bibliographic, chemical, 
# crystal, experimental, refinement or atomic coordinate data resulting 
# from the CCDC's data processing and validation procedures.
#
#######################################################################

data_TEKBET
_chemical_formula_moiety         'C33 H32 Cl1 N2 1+,F6 P1 1-'
_chemical_name_systematic        
'2-(3-chloro-3-(1,1,3-trimethyl-1,3-dihydro-2H-benzo[e]indol-2-ylidene)prop-1-en-1-yl)-1,1,3-trimethyl-1H-benzo[e]indol-3-ium hexafluorophosphate'
_symmetry_cell_setting           monoclinic
_symmetry_space_group_name_H-M   'P 21/c'
_symmetry_Int_Tables_number      14
_space_group_name_Hall           '-P 2ybc'
loop_
_symmetry_equiv_pos_site_id
_symmetry_equiv_pos_as_xyz
1 x,y,z
2 -x,1/2+y,1/2-z
3 -x,-y,-z
4 x,1/2-y,1/2+z
_cell_length_a                   10.141(7)
_cell_length_b                   24.292(18)
_cell_length_c                   12.330(9)
_cell_angle_alpha                90
_cell_angle_beta                 101.470(14)
_cell_angle_gamma                90
_cell_volume                     2976.78
_chemical_melting_point          '262-263 deg.C'
_cell_formula_units_Z            4
loop_
_atom_site_label
_atom_site_type_symbol
_atom_site_fract_x
_atom_site_fract_y
_atom_site_fract_z
Cl1 Cl 0.1354(2) 0.7334(1) 0.9626(2)
N1 N 0.3192(6) 0.5894(2) 1.0345(4)
N2 N -0.0529(6) 0.6819(3) 0.5654(5)
C1 C 0.5045(7) 0.6581(3) 1.3946(6)
H1 H 0.4721 0.6932 1.3744
C2 C 0.5685(7) 0.6477(4) 1.5025(6)
H2 H 0.5747 0.6755 1.5549
C3 C 0.6239(9) 0.5963(4) 1.5344(8)
H3 H 0.6694 0.5900 1.6065
C4 C 0.6098(9) 0.5559(4) 1.4581(8)
H4 H 0.6466 0.5216 1.4797
C5 C 0.5432(8) 0.5626(4) 1.3479(7)
C6 C 0.4881(7) 0.6155(3) 1.3147(6)
C7 C 0.4166(7) 0.6208(3) 1.2050(6)
C8 C 0.4034(7) 0.5751(3) 1.1369(6)
C9 C 0.4588(9) 0.5237(3) 1.1690(7)
H5 H 0.4494 0.4943 1.1199
C10 C 0.5260(9) 0.5185(4) 1.2733(7)
H6 H 0.5626 0.4845 1.2971
C11 C 0.3390(7) 0.6688(3) 1.1437(5)
C12 C 0.2823(7) 0.6424(3) 1.0320(5)
C13 C 0.2246(7) 0.6856(3) 1.2054(6)
H7 H 0.1564 0.6576 1.1949
H8 H 0.1858 0.7199 1.1763
H9 H 0.2614 0.6896 1.2830
C14 C 0.4336(7) 0.7178(3) 1.1321(6)
H10 H 0.4686 0.7330 1.2039
H11 H 0.3839 0.7456 1.0857
H12 H 0.5066 0.7051 1.0997
C15 C 0.2665(8) 0.5471(3) 0.9517(6)
H13 H 0.1766 0.5567 0.9155
H14 H 0.2654 0.5121 0.9876
H15 H 0.3229 0.5449 0.8979
C16 C 0.2043(7) 0.6685(3) 0.9405(6)
C17 C 0.1725(7) 0.6509(3) 0.8299(6)
H16 H 0.2186 0.6204 0.8111
C18 C 0.0792(7) 0.6748(3) 0.7466(6)
H17 H 0.0327 0.7052 0.7656
C19 C 0.0481(7) 0.6576(3) 0.6365(6)
C20 C 0.1134(7) 0.6137(3) 0.5764(6)
C21 C 0.0322(7) 0.6185(3) 0.4605(6)
C22 C -0.0630(7) 0.6585(3) 0.4584(6)
C23 C -0.1582(7) 0.6716(4) 0.3611(7)
H18 H -0.2217 0.6993 0.3608
C24 C -0.1529(9) 0.6417(4) 0.2671(7)
H19 H -0.2156 0.6488 0.2026
C25 C -0.0547(9) 0.6006(4) 0.2662(7)
C26 C -0.0505(10) 0.5728(5) 0.1659(7)
H20 H -0.1153 0.5804 0.1030
C27 C 0.0450(12) 0.5358(4) 0.1609(8)
H21 H 0.0480 0.5180 0.0946
C28 C 0.1413(9) 0.5240(4) 0.2567(8)
H22 H 0.2072 0.4979 0.2528
C29 C 0.1415(8) 0.5492(3) 0.3537(7)
H23 H 0.2071 0.5404 0.4153
C30 C 0.0407(8) 0.5897(3) 0.3628(6)
C31 C 0.0939(8) 0.5569(3) 0.6247(6)
H24 H 0.0004 0.5515 0.6260
H25 H 0.1459 0.5546 0.6986
H26 H 0.1231 0.5290 0.5796
C32 C 0.2634(7) 0.6273(3) 0.5834(6)
H27 H 0.2716 0.6628 0.5512
H28 H 0.3032 0.5999 0.5439
H29 H 0.3088 0.6276 0.6596
C33 C -0.1371(8) 0.7263(3) 0.5918(7)
H30 H -0.1864 0.7139 0.6461
H31 H -0.1990 0.7373 0.5260
H32 H -0.0816 0.7570 0.6207
P1 P 0.3495(3) 0.3566(1) 0.1209(2)
F1 F 0.2710(7) 0.4076(3) 0.1425(7)
F2 F 0.4702(8) 0.3818(3) 0.1914(8)
F3 F 0.3173(9) 0.3240(4) 0.2152(7)
F4 F 0.4279(10) 0.3057(3) 0.0963(7)
F5 F 0.225(1) 0.3361(3) 0.0455(8)
F6 F 0.3831(9) 0.3892(4) 0.0234(6)
loop_
_geom_bond_atom_site_label_1
_geom_bond_atom_site_label_2
_geom_bond_site_symmetry_1
_geom_bond_site_symmetry_2
Cl1 C16 1_555 1_555
N1 C8 1_555 1_555
N2 C19 1_555 1_555
C1 H1 1_555 1_555
C2 C1 1_555 1_555
H2 C2 1_555 1_555
C3 C2 1_555 1_555
H3 C3 1_555 1_555
C4 C3 1_555 1_555
H4 C4 1_555 1_555
C5 C4 1_555 1_555
C6 C1 1_555 1_555
C7 C6 1_555 1_555
C8 C7 1_555 1_555
C9 C8 1_555 1_555
H5 C9 1_555 1_555
C10 C5 1_555 1_555
H6 C10 1_555 1_555
C11 C7 1_555 1_555
C12 N1 1_555 1_555
C13 C11 1_555 1_555
H7 C13 1_555 1_555
H8 C13 1_555 1_555
H9 C13 1_555 1_555
C14 C11 1_555 1_555
H10 C14 1_555 1_555
H11 C14 1_555 1_555
H12 C14 1_555 1_555
C15 N1 1_555 1_555
H13 C15 1_555 1_555
H14 C15 1_555 1_555
H15 C15 1_555 1_555
C16 C12 1_555 1_555
C17 C16 1_555 1_555
H16 C17 1_555 1_555
C18 C17 1_555 1_555
H17 C18 1_555 1_555
C19 C18 1_555 1_555
C20 C19 1_555 1_555
C21 C20 1_555 1_555
C22 N2 1_555 1_555
C23 C22 1_555 1_555
H18 C23 1_555 1_555
C24 C23 1_555 1_555
H19 C24 1_555 1_555
C25 C24 1_555 1_555
C26 C25 1_555 1_555
H20 C26 1_555 1_555
C27 C26 1_555 1_555
H21 C27 1_555 1_555
C28 C27 1_555 1_555
H22 C28 1_555 1_555
C29 C28 1_555 1_555
H23 C29 1_555 1_555
C30 C21 1_555 1_555
C31 C20 1_555 1_555
H24 C31 1_555 1_555
H25 C31 1_555 1_555
H26 C31 1_555 1_555
C32 C20 1_555 1_555
H27 C32 1_555 1_555
H28 C32 1_555 1_555
H29 C32 1_555 1_555
C33 N2 1_555 1_555
H30 C33 1_555 1_555
H31 C33 1_555 1_555
H32 C33 1_555 1_555
P1 F1 1_555 1_555
F2 P1 1_555 1_555
F3 P1 1_555 1_555
F4 P1 1_555 1_555
F5 P1 1_555 1_555
F6 P1 1_555 1_555
C5 C6 1_555 1_555
C9 C10 1_555 1_555
C11 C12 1_555 1_555
C21 C22 1_555 1_555
C25 C30 1_555 1_555
C29 C30 1_555 1_555

#END
