
#######################################################################
#
#                 Cambridge Crystallographic Data Centre
#                                CCDC 
#
#######################################################################
#
# If this CIF has been generated from an entry in the Cambridge 
# Structural Database, then it will include bibliographic, chemical, 
# crystal, experimental, refinement or atomic coordinate data resulting 
# from the CCDC's data processing and validation procedures.
#
#######################################################################

data_TEKCOE
_chemical_formula_moiety         'C19 H16 N2 O2'
_chemical_name_systematic        
2-hydroxy-12-(2-methylprop-1-en-1-yl)indolizino[1,2-b]quinolin-9(11H)-one
_symmetry_cell_setting           monoclinic
_symmetry_space_group_name_H-M   'P 21/c'
_symmetry_Int_Tables_number      14
_space_group_name_Hall           '-P 2ybc'
loop_
_symmetry_equiv_pos_site_id
_symmetry_equiv_pos_as_xyz
1 x,y,z
2 -x,1/2+y,1/2-z
3 -x,-y,-z
4 x,1/2-y,1/2+z
_cell_length_a                   4.9913(3)
_cell_length_b                   18.8348(10)
_cell_length_c                   16.1918(9)
_cell_angle_alpha                90
_cell_angle_beta                 96.660(2)
_cell_angle_gamma                90
_cell_volume                     1511.92
_exptl_crystal_colour            yellow
_exptl_crystal_description       block
_cell_formula_units_Z            4
loop_
_atom_site_label
_atom_site_type_symbol
_atom_site_fract_x
_atom_site_fract_y
_atom_site_fract_z
O1 O 1.3902(3) 0.19792(9) 0.47707(10)
C1 C 1.2313(5) 0.15313(13) 0.44089(14)
N1 N 1.0094(4) 0.17655(10) 0.39024(11)
O2 O -0.2258(3) 0.35938(9) 0.07829(11)
H1 H -0.364(6) 0.3367(8) 0.0439(18)
C2 C 1.2569(5) 0.07798(13) 0.44580(15)
H2 H 1.4035 0.0580 0.4808
N2 N 0.4266(4) 0.15599(10) 0.24441(12)
C3 C 0.8269(5) 0.13267(13) 0.34490(14)
C4 C 0.8560(5) 0.06113(13) 0.34932(16)
H3 H 0.7316 0.0304 0.3181
C5 C 1.0768(5) 0.03392(14) 0.40168(16)
H4 H 1.1007 -0.0160 0.4064
C6 C 0.6295(5) 0.17868(12) 0.29725(14)
C7 C 0.6977(5) 0.25015(13) 0.31543(14)
C8 C 0.9441(5) 0.25237(12) 0.37836(14)
H5 H 1.0933 0.2785 0.3567
H6 H 0.9040 0.2747 0.4309
C9 C 0.5529(5) 0.30404(12) 0.27454(13)
C10 C 0.3295(4) 0.28229(12) 0.21570(14)
C11 C 0.2739(5) 0.20853(12) 0.20417(14)
C12 C 0.0454(5) 0.18797(13) 0.14926(14)
H7 H 0.0066 0.1389 0.1410
C13 C -0.1199(5) 0.23715(13) 0.10807(14)
H8 H -0.2740 0.2223 0.0723
C14 C -0.0627(5) 0.30997(13) 0.11841(14)
C15 C 0.1579(5) 0.33207(13) 0.17119(14)
H9 H 0.1948 0.3814 0.1777
C16 C 0.6255(5) 0.37972(13) 0.28639(15)
H10 H 0.6715 0.4043 0.2388
C17 C 0.6337(6) 0.41719(14) 0.35590(16)
C18 C 0.5529(7) 0.38903(15) 0.43624(17)
H11 H 0.4991 0.3392 0.4291
H12 H 0.4010 0.4168 0.4522
H13 H 0.7058 0.3927 0.4798
C19 C 0.7205(8) 0.49356(15) 0.3586(2)
H14 H 0.7713 0.5074 0.3042
H15 H 0.8755 0.4996 0.4010
H16 H 0.5713 0.5235 0.3724
loop_
_geom_bond_atom_site_label_1
_geom_bond_atom_site_label_2
_geom_bond_site_symmetry_1
_geom_bond_site_symmetry_2
O1 C1 1_555 1_555
C1 N1 1_555 1_555
N1 C3 1_555 1_555
O2 H1 1_555 1_555
C2 C1 1_555 1_555
H2 C2 1_555 1_555
N2 C6 1_555 1_555
C3 C4 1_555 1_555
C4 H3 1_555 1_555
C5 C2 1_555 1_555
H4 C5 1_555 1_555
C6 C3 1_555 1_555
C7 C6 1_555 1_555
C8 N1 1_555 1_555
H5 C8 1_555 1_555
H6 C8 1_555 1_555
C9 C7 1_555 1_555
C10 C9 1_555 1_555
C11 N2 1_555 1_555
C12 C11 1_555 1_555
H7 C12 1_555 1_555
C13 C12 1_555 1_555
H8 C13 1_555 1_555
C14 O2 1_555 1_555
C15 C10 1_555 1_555
H9 C15 1_555 1_555
C16 C9 1_555 1_555
H10 C16 1_555 1_555
C17 C16 1_555 1_555
C18 C17 1_555 1_555
H11 C18 1_555 1_555
H12 C18 1_555 1_555
H13 C18 1_555 1_555
C19 C17 1_555 1_555
H14 C19 1_555 1_555
H15 C19 1_555 1_555
H16 C19 1_555 1_555
C4 C5 1_555 1_555
C7 C8 1_555 1_555
C10 C11 1_555 1_555
C13 C14 1_555 1_555
C14 C15 1_555 1_555

#END
