
#######################################################################
#
#                 Cambridge Crystallographic Data Centre
#                                CCDC 
#
#######################################################################
#
# If this CIF has been generated from an entry in the Cambridge 
# Structural Database, then it will include bibliographic, chemical, 
# crystal, experimental, refinement or atomic coordinate data resulting 
# from the CCDC's data processing and validation procedures.
#
#######################################################################

data_TEKFAQ
_chemical_formula_moiety         'C10 H8 N1 O3 S1 1-,Na1 1+,4(H2 O1)'
_chemical_name_systematic        
'Sodium 1-naphthylamine-6-sulfonate tetrahydrate'
_symmetry_cell_setting           monoclinic
_symmetry_space_group_name_H-M   'C 2/c'
_symmetry_Int_Tables_number      15
_space_group_name_Hall           '-C 2yn'
loop_
_symmetry_equiv_pos_site_id
_symmetry_equiv_pos_as_xyz
1 x,y,z
2 -x,y,1/2-z
3 1/2+x,1/2+y,z
4 1/2-x,1/2+y,1/2-z
5 -x,-y,-z
6 x,-y,1/2+z
7 1/2-x,1/2-y,-z
8 1/2+x,1/2-y,1/2+z
_cell_length_a                   28.787(4)
_cell_length_b                   8.619(3)
_cell_length_c                   11.623(5)
_cell_angle_alpha                90
_cell_angle_beta                 95.64(2)
_cell_angle_gamma                90
_cell_volume                     2869.88
_exptl_crystal_colour            colorless
_cell_formula_units_Z            8
loop_
_atom_site_label
_atom_site_type_symbol
_atom_site_fract_x
_atom_site_fract_y
_atom_site_fract_z
Na1 Na 0.4734(1) 0.3787(4) 0.1169(2)
S1 S 0.10053(7) 0.3722(3) 0.2621(2)
O1 O 0.0818(2) 0.5065(7) 0.2113(6)
O2 O 0.0962(2) 0.3753(8) 0.3854(4)
O3 O 0.0822(2) 0.2324(7) 0.2152(6)
N1 N 0.3334(2) 0.2394(8) 0.1508(6)
C1 C 0.3037(2) 0.3347(8) 0.0953(5)
C2 C 0.3203(3) 0.4307(9) 0.0088(6)
C3 C 0.2915(3) 0.5348(9) -0.0431(6)
C4 C 0.2449(3) 0.5431(8) -0.0058(6)
C5 C 0.1782(3) 0.4572(8) 0.1257(6)
C6 C 0.1604(2) 0.3674(8) 0.2136(5)
C7 C 0.1882(2) 0.2590(8) 0.2674(6)
C8 C 0.2347(3) 0.2495(8) 0.2298(6)
C9 C 0.2548(2) 0.3429(7) 0.1388(5)
C10 C 0.2264(3) 0.4468(7) 0.0841(5)
H1 H 0.356(2) 0.226(8) 0.115(5)
H2 H 0.321(2) 0.153(8) 0.178(5)
H3 H 0.351(2) 0.426(7) -0.017(5)
H4 H 0.303(2) 0.595(8) -0.113(5)
H5 H 0.224(2) 0.624(8) -0.041(5)
H6 H 0.161(2) 0.539(8) 0.083(5)
H7 H 0.178(3) 0.198(8) 0.332(5)
H8 H 0.256(3) 0.183(8) 0.268(6)
O4 O 0.50000 0.5673(8) 0.2500
H9 H 0.518(2) 0.623(7) 0.232(5)
H9A H 0.482(2) 0.623(7) 0.268(5)
O5 O 0.50000 0.1900(8) 0.2500
H10 H 0.482(2) 0.141(7) 0.259(5)
H10A H 0.518(2) 0.141(7) 0.241(5)
O6 O 0.4055(2) 0.4072(7) 0.2721(5)
H11 H 0.388(2) 0.343(8) 0.272(5)
H12 H 0.406(3) 0.479(8) 0.241(5)
O7 O 0.4491(2) 0.6008(6) -0.0094(4)
H13 H 0.437(2) 0.620(8) -0.070(5)
H14 H 0.431(2) 0.688(8) 0.040(5)
O8 O 0.4350(2) 0.1853(7) 0.0245(5)
H15 H 0.430(2) 0.108(8) 0.055(5)
H16 H 0.436(2) 0.189(8) -0.045(5)
loop_
_geom_bond_atom_site_label_1
_geom_bond_atom_site_label_2
_geom_bond_site_symmetry_1
_geom_bond_site_symmetry_2
S1 O1 1_555 1_555
O2 S1 1_555 1_555
O3 S1 1_555 1_555
O4 H9 1_555 1_555
O5 H10 1_555 1_555
O6 H11 1_555 1_555
O7 H13 1_555 1_555
O8 H15 1_555 1_555
N1 C1 1_555 1_555
C1 C2 1_555 1_555
C2 C3 1_555 1_555
C3 C4 1_555 1_555
C4 C10 1_555 1_555
C5 C6 1_555 1_555
C6 S1 1_555 1_555
C7 C6 1_555 1_555
C8 C7 1_555 1_555
C9 C1 1_555 1_555
C10 C5 1_555 1_555
H1 N1 1_555 1_555
H2 N1 1_555 1_555
H3 C2 1_555 1_555
H4 C3 1_555 1_555
H5 C4 1_555 1_555
H6 C5 1_555 1_555
H7 C7 1_555 1_555
H8 C8 1_555 1_555
H12 O6 1_555 1_555
H14 O7 1_555 1_555
H16 O8 1_555 1_555
H9A O4 1_555 1_555
H10A O5 1_555 1_555
C8 C9 1_555 1_555
C9 C10 1_555 1_555

#END
