
#######################################################################
#
#                 Cambridge Crystallographic Data Centre
#                                CCDC 
#
#######################################################################
#
# If this CIF has been generated from an entry in the Cambridge 
# Structural Database, then it will include bibliographic, chemical, 
# crystal, experimental, refinement or atomic coordinate data resulting 
# from the CCDC's data processing and validation procedures.
#
#######################################################################

data_TEKJAX
_chemical_formula_moiety         'C18 H13 F1 O2'
_chemical_name_systematic        
2-(7-fluoro-4-hydroxy-2-naphthyl)-1-phenylethanone
_symmetry_cell_setting           monoclinic
_symmetry_space_group_name_H-M   'P 21'
_symmetry_Int_Tables_number      4
_space_group_name_Hall           'P 2yb'
loop_
_symmetry_equiv_pos_site_id
_symmetry_equiv_pos_as_xyz
1 x,y,z
2 -x,1/2+y,-z
_cell_length_a                   9.4990(9)
_cell_length_b                   6.1878(7)
_cell_length_c                   11.9593(11)
_cell_angle_alpha                90
_cell_angle_beta                 103.735(2)
_cell_angle_gamma                90
_cell_volume                     682.842
_exptl_crystal_colour            white
_exptl_crystal_description       block
_cell_formula_units_Z            2
loop_
_atom_site_label
_atom_site_type_symbol
_atom_site_fract_x
_atom_site_fract_y
_atom_site_fract_z
F1 F -0.0139(3) 0.0091(6) 0.8973(2)
O1 O 0.3209(3) 0.6558(5) 0.6529(2)
H1 H 0.3608 0.7083 0.6055
O2 O 0.3931(2) -0.1534(5) 0.4621(2)
C1 C 0.2582(4) 0.4644(7) 0.6123(3)
C2 C 0.2645(4) 0.3792(6) 0.5086(3)
H2 H 0.3125 0.4548 0.4615
C3 C 0.2003(4) 0.1801(7) 0.4716(3)
C4 C 0.1288(4) 0.0694(7) 0.5401(3)
H3 H 0.0835 -0.0609 0.5148
C5 C 0.1233(4) 0.1510(8) 0.6481(3)
C6 C 0.1868(4) 0.3526(7) 0.6863(3)
C7 C 0.1799(4) 0.4319(8) 0.7942(3)
H4 H 0.2216 0.5649 0.8187
C8 C 0.1128(5) 0.3170(9) 0.8645(3)
H5 H 0.1090 0.3698 0.9365
C9 C 0.0512(5) 0.1212(10) 0.8260(4)
C10 C 0.0542(4) 0.0346(8) 0.7227(4)
H6 H 0.0116 -0.0990 0.7007
C11 C 0.2150(4) 0.0896(7) 0.3586(3)
H7 H 0.2383 0.2066 0.3121
H8 H 0.1222 0.0302 0.3184
C12 C 0.3284(4) -0.0831(7) 0.3687(3)
C13 C 0.3571(4) -0.1774(8) 0.2619(3)
C14 C 0.2945(4) -0.0969(8) 0.1536(3)
H9 H 0.2323 0.0211 0.1456
C15 C 0.3248(5) -0.1928(9) 0.0568(3)
H10 H 0.2813 -0.1397 -0.0159
C16 C 0.4165(5) -0.3618(9) 0.0672(4)
H11 H 0.4370 -0.4233 0.0019
C17 C 0.4800(4) -0.4434(8) 0.1748(4)
H12 H 0.5421 -0.5615 0.1817
C18 C 0.4517(4) -0.3506(7) 0.2717(3)
H13 H 0.4963 -0.4043 0.3441
loop_
_geom_bond_atom_site_label_1
_geom_bond_atom_site_label_2
_geom_bond_site_symmetry_1
_geom_bond_site_symmetry_2
F1 C9 1_555 1_555
O1 H1 1_555 1_555
O2 C12 1_555 1_555
C1 O1 1_555 1_555
C2 C1 1_555 1_555
H2 C2 1_555 1_555
C3 C2 1_555 1_555
C4 C3 1_555 1_555
H3 C4 1_555 1_555
C5 C4 1_555 1_555
C6 C1 1_555 1_555
C7 C6 1_555 1_555
H4 C7 1_555 1_555
C8 C7 1_555 1_555
H5 C8 1_555 1_555
C9 C8 1_555 1_555
C10 C5 1_555 1_555
H6 C10 1_555 1_555
C11 C3 1_555 1_555
H7 C11 1_555 1_555
H8 C11 1_555 1_555
C12 C11 1_555 1_555
C13 C12 1_555 1_555
C14 C13 1_555 1_555
H9 C14 1_555 1_555
C15 C14 1_555 1_555
H10 C15 1_555 1_555
C16 C15 1_555 1_555
H11 C16 1_555 1_555
C17 C16 1_555 1_555
H12 C17 1_555 1_555
C18 C13 1_555 1_555
H13 C18 1_555 1_555
C5 C6 1_555 1_555
C9 C10 1_555 1_555
C17 C18 1_555 1_555

#END
