
#######################################################################
#
#                 Cambridge Crystallographic Data Centre
#                                CCDC 
#
#######################################################################
#
# If this CIF has been generated from an entry in the Cambridge 
# Structural Database, then it will include bibliographic, chemical, 
# crystal, experimental, refinement or atomic coordinate data resulting 
# from the CCDC's data processing and validation procedures.
#
#######################################################################

data_TEKKEC
_chemical_formula_moiety         'C17 H12 Cl1 N1 O2'
_chemical_name_systematic        
(4-chlorophenyl)(5-hydroxy-7-methylquinolin-8-yl)methanone
_symmetry_cell_setting           monoclinic
_symmetry_space_group_name_H-M   'P 21/c'
_symmetry_Int_Tables_number      14
_space_group_name_Hall           '-P 2ybc'
loop_
_symmetry_equiv_pos_site_id
_symmetry_equiv_pos_as_xyz
1 x,y,z
2 -x,1/2+y,1/2-z
3 -x,-y,-z
4 x,1/2-y,1/2+z
_cell_length_a                   9.3531(7)
_cell_length_b                   10.7592(9)
_cell_length_c                   14.2252(13)
_cell_angle_alpha                90
_cell_angle_beta                 98.868(2)
_cell_angle_gamma                90
_cell_volume                     1414.4
_exptl_crystal_colour            white
_exptl_crystal_description       block
_cell_formula_units_Z            4
loop_
_atom_site_label
_atom_site_type_symbol
_atom_site_fract_x
_atom_site_fract_y
_atom_site_fract_z
Cl1 Cl 1.42929(17) 0.13498(17) 1.05148(13)
N1 N 0.7182(5) 0.2233(5) 0.8021(3)
O1 O 0.6942(4) 0.1448(4) 0.4692(2)
H1 H 0.7281 0.1680 0.4224
O2 O 0.8992(5) 0.4917(4) 0.8271(3)
C1 C 0.6182(7) 0.1387(7) 0.8029(5)
H2 H 0.5845 0.1252 0.8602
C2 C 0.5579(7) 0.0672(6) 0.7258(5)
H3 H 0.4878 0.0077 0.7319
C3 C 0.6038(6) 0.0865(6) 0.6412(4)
H4 H 0.5657 0.0399 0.5882
C4 C 0.7086(6) 0.1767(5) 0.6342(4)
C5 C 0.7690(6) 0.2447(5) 0.7167(4)
C6 C 0.8832(6) 0.3277(5) 0.7139(4)
C7 C 0.9328(6) 0.3509(5) 0.6293(4)
C8 C 0.8676(7) 0.2890(6) 0.5463(4)
H5 H 0.8986 0.3075 0.4888
C9 C 0.7621(7) 0.2042(6) 0.5474(4)
C10 C 0.9454(7) 0.3910(6) 0.8032(4)
C11 C 1.0729(6) 0.3326(5) 0.8620(4)
C12 C 1.1304(6) 0.2245(5) 0.8332(4)
H6 H 1.0932 0.1917 0.7740
C13 C 1.2426(7) 0.1622(6) 0.8896(5)
H7 H 1.2805 0.0889 0.8691
C14 C 1.2962(6) 0.2132(6) 0.9777(5)
C15 C 1.2431(6) 0.3236(6) 1.0081(4)
H8 H 1.2810 0.3571 1.0669
C16 C 1.1333(6) 0.3830(6) 0.9498(4)
H9 H 1.0984 0.4582 0.9691
C17 C 1.0612(6) 0.4363(6) 0.6261(4)
H10 H 1.0557 0.5056 0.6678
H11 H 1.0599 0.4658 0.5623
H12 H 1.1493 0.3913 0.6462
loop_
_geom_bond_atom_site_label_1
_geom_bond_atom_site_label_2
_geom_bond_site_symmetry_1
_geom_bond_site_symmetry_2
Cl1 C14 1_555 1_555
N1 C1 1_555 1_555
O1 H1 1_555 1_555
O2 C10 1_555 1_555
C1 H2 1_555 1_555
C2 C1 1_555 1_555
H3 C2 1_555 1_555
C3 C2 1_555 1_555
H4 C3 1_555 1_555
C4 C3 1_555 1_555
C5 N1 1_555 1_555
C6 C5 1_555 1_555
C7 C6 1_555 1_555
C8 C7 1_555 1_555
H5 C8 1_555 1_555
C9 O1 1_555 1_555
C10 C6 1_555 1_555
C11 C10 1_555 1_555
C12 C11 1_555 1_555
H6 C12 1_555 1_555
C13 C12 1_555 1_555
H7 C13 1_555 1_555
C14 C13 1_555 1_555
C15 C14 1_555 1_555
H8 C15 1_555 1_555
C16 C11 1_555 1_555
H9 C16 1_555 1_555
C17 C7 1_555 1_555
H10 C17 1_555 1_555
H11 C17 1_555 1_555
H12 C17 1_555 1_555
C4 C5 1_555 1_555
C4 C9 1_555 1_555
C8 C9 1_555 1_555
C15 C16 1_555 1_555

#END
