
#######################################################################
#
#                 Cambridge Crystallographic Data Centre
#                                CCDC 
#
#######################################################################
#
# If this CIF has been generated from an entry in the Cambridge 
# Structural Database, then it will include bibliographic, chemical, 
# crystal, experimental, refinement or atomic coordinate data resulting 
# from the CCDC's data processing and validation procedures.
#
#######################################################################

data_TEKLIG
_chemical_formula_moiety         'C28 H19 N3'
_chemical_name_systematic        
3-(1-Naphthyl)-N-(1-naphthylmethylene)imidazo[1,5-a]pyridin-1-amine
_symmetry_cell_setting           triclinic
_symmetry_space_group_name_H-M   'P -1'
_symmetry_Int_Tables_number      2
_space_group_name_Hall           '-P 1'
loop_
_symmetry_equiv_pos_site_id
_symmetry_equiv_pos_as_xyz
1 x,y,z
2 -x,-y,-z
_cell_length_a                   8.283(9)
_cell_length_b                   9.907(11)
_cell_length_c                   13.214(14)
_cell_angle_alpha                103.606(14)
_cell_angle_beta                 96.803(12)
_cell_angle_gamma                102.868(12)
_cell_volume                     1010.6
_cell_formula_units_Z            2
loop_
_atom_site_label
_atom_site_type_symbol
_atom_site_fract_x
_atom_site_fract_y
_atom_site_fract_z
C1 C 0.15260(17) -0.00333(14) 0.16644(11)
C2 C -0.02223(19) -0.02451(17) 0.13495(13)
H1 H -0.0811 -0.0984 0.0759
C3 C -0.1039(2) 0.06279(19) 0.19076(15)
H2 H -0.2192 0.0486 0.1705
C4 C -0.0128(2) 0.17666(18) 0.28066(14)
H3 H -0.0697 0.2361 0.3189
C5 C 0.15389(19) 0.19956(16) 0.31111(12)
H4 H 0.2118 0.2743 0.3699
C6 C 0.40565(17) 0.10681(15) 0.26838(11)
C7 C 0.27459(17) -0.07052(15) 0.13307(11)
C8 C 0.36322(18) -0.24105(15) 0.01905(11)
H5 H 0.4726 -0.1866 0.0490
C9 C 0.33715(17) -0.37922(15) -0.06085(10)
C10 C 0.18130(19) -0.47589(16) -0.08837(12)
H6 H 0.0914 -0.4492 -0.0607
C11 C 0.1541(2) -0.61359(17) -0.15690(13)
H7 H 0.0471 -0.6765 -0.1741
C12 C 0.2836(2) -0.65566(16) -0.19849(12)
H8 H 0.2648 -0.7478 -0.2429
C13 C 0.44651(19) -0.56024(15) -0.17472(11)
C14 C 0.5838(2) -0.60063(18) -0.21794(13)
H9 H 0.5665 -0.6920 -0.2631
C15 C 0.7396(2) -0.5081(2) -0.19435(13)
H10 H 0.8277 -0.5366 -0.2232
C16 C 0.7676(2) -0.36994(19) -0.12672(13)
H11 H 0.8747 -0.3074 -0.1105
C17 C 0.63934(18) -0.32591(16) -0.08427(11)
H12 H 0.6601 -0.2330 -0.0408
C18 C 0.47489(17) -0.41932(14) -0.10527(10)
C19 C 0.53666(17) 0.21393(15) 0.35184(11)
C20 C 0.5530(2) 0.35813(16) 0.36124(12)
H13 H 0.4802 0.3854 0.3156
C21 C 0.6773(2) 0.46467(17) 0.43825(13)
H14 H 0.6872 0.5613 0.4424
C22 C 0.7832(2) 0.42665(18) 0.50692(13)
H15 H 0.8644 0.4979 0.5581
C23 C 0.77158(18) 0.28020(17) 0.50158(11)
C24 C 0.8815(2) 0.2392(2) 0.57252(13)
H16 H 0.9628 0.3099 0.6242
C25 C 0.8698(2) 0.0978(2) 0.56613(14)
H17 H 0.9428 0.0726 0.6132
C26 C 0.7479(2) -0.0095(2) 0.48867(16)
H18 H 0.7404 -0.1057 0.4847
C27 C 0.6398(2) 0.02578(17) 0.41890(13)
H19 H 0.5597 -0.0470 0.3681
C28 C 0.64762(16) 0.17107(15) 0.42272(11)
N1 N 0.23878(14) 0.11096(12) 0.25417(9)
N2 N 0.42848(15) -0.00162(13) 0.19645(9)
N3 N 0.24041(15) -0.19386(13) 0.04840(10)
loop_
_geom_bond_atom_site_label_1
_geom_bond_atom_site_label_2
_geom_bond_site_symmetry_1
_geom_bond_site_symmetry_2
C1 C2 1_555 1_555
C2 H1 1_555 1_555
C3 C2 1_555 1_555
H2 C3 1_555 1_555
C4 C3 1_555 1_555
H3 C4 1_555 1_555
C5 C4 1_555 1_555
H4 C5 1_555 1_555
C6 C19 1_555 1_555
C7 C1 1_555 1_555
C8 H5 1_555 1_555
C9 C8 1_555 1_555
C10 C9 1_555 1_555
H6 C10 1_555 1_555
C11 C10 1_555 1_555
H7 C11 1_555 1_555
C12 C11 1_555 1_555
H8 C12 1_555 1_555
C13 C12 1_555 1_555
C14 C13 1_555 1_555
H9 C14 1_555 1_555
C15 C14 1_555 1_555
H10 C15 1_555 1_555
C16 C15 1_555 1_555
H11 C16 1_555 1_555
C17 C16 1_555 1_555
H12 C17 1_555 1_555
C18 C9 1_555 1_555
C19 C20 1_555 1_555
C20 H13 1_555 1_555
C21 C20 1_555 1_555
H14 C21 1_555 1_555
C22 C21 1_555 1_555
H15 C22 1_555 1_555
C23 C22 1_555 1_555
C24 C23 1_555 1_555
H16 C24 1_555 1_555
C25 C24 1_555 1_555
H17 C25 1_555 1_555
C26 C25 1_555 1_555
H18 C26 1_555 1_555
C27 C26 1_555 1_555
H19 C27 1_555 1_555
C28 C19 1_555 1_555
N1 C1 1_555 1_555
N2 C6 1_555 1_555
N3 C7 1_555 1_555
C5 N1 1_555 1_555
C6 N1 1_555 1_555
C7 N2 1_555 1_555
C8 N3 1_555 1_555
C13 C18 1_555 1_555
C17 C18 1_555 1_555
C23 C28 1_555 1_555
C27 C28 1_555 1_555

#END
