
#######################################################################
#
#                 Cambridge Crystallographic Data Centre
#                                CCDC 
#
#######################################################################
#
# If this CIF has been generated from an entry in the Cambridge 
# Structural Database, then it will include bibliographic, chemical, 
# crystal, experimental, refinement or atomic coordinate data resulting 
# from the CCDC's data processing and validation procedures.
#
#######################################################################

data_TEKNEF
_chemical_name_common            
N-[2,2-dimethyl-1-(pyridin-2-yl)propyl]-2-(oxolan-2-yl)acetamide
_chemical_formula_moiety         'C16 H24 N2 O2'
_chemical_name_systematic        
N-((S)-2,2-dimethyl-1-(pyridin-2-yl)propyl)-2-((S)-tetrahydrofuran-2-yl)acetamide
_symmetry_cell_setting           orthorhombic
_symmetry_space_group_name_H-M   'P 21 21 21'
_symmetry_Int_Tables_number      19
_space_group_name_Hall           'P 2ac 2ab'
loop_
_symmetry_equiv_pos_site_id
_symmetry_equiv_pos_as_xyz
1 x,y,z
2 1/2-x,-y,1/2+z
3 -x,1/2+y,1/2-z
4 1/2+x,1/2-y,-z
_cell_length_a                   6.8237(4)
_cell_length_b                   9.6779(6)
_cell_length_c                   23.2090(13)
_cell_angle_alpha                90
_cell_angle_beta                 90
_cell_angle_gamma                90
_cell_volume                     1532.7
_exptl_crystal_colour            colorless
_exptl_crystal_description       block
_cell_formula_units_Z            4
loop_
_atom_site_label
_atom_site_type_symbol
_atom_site_fract_x
_atom_site_fract_y
_atom_site_fract_z
C1 C 0.45626(14) 0.52886(10) 0.24509(4)
C2 C 0.36723(15) 0.60637(11) 0.19467(4)
H1 H 0.2284 0.5789 0.1899
H2 H 0.3713 0.7070 0.2024
C3 C 0.47960(18) 0.57462(11) 0.13987(4)
H3 H 0.4770 0.4727 0.1328
C4 C 0.6918(2) 0.62495(18) 0.13888(5)
H4 H 0.7827 0.5504 0.1506
H5 H 0.7098 0.7050 0.1649
C5 C 0.7262(2) 0.66676(16) 0.07535(6)
H6 H 0.7621 0.7656 0.0723
H7 H 0.8311 0.6101 0.0577
C6 C 0.5297(3) 0.63875(15) 0.04690(5)
H8 H 0.5013 0.7095 0.0172
H9 H 0.5293 0.5466 0.0284
C7 C 0.61097(14) 0.54798(9) 0.34031(4)
H10 H 0.5926 0.4457 0.3377
C8 C 0.83686(14) 0.57487(12) 0.34206(4)
C9 C 0.92922(19) 0.50656(19) 0.28900(6)
H11 H 1.0722 0.5150 0.2911
H12 H 0.8816 0.5524 0.2541
H13 H 0.8929 0.4086 0.2879
C10 C 0.88281(18) 0.72995(13) 0.34188(6)
H14 H 0.8268 0.7729 0.3764
H15 H 0.8259 0.7726 0.3074
H16 H 1.0251 0.7435 0.3417
C11 C 0.92537(17) 0.50758(13) 0.39593(5)
H17 H 0.8901 0.4094 0.3969
H18 H 0.8742 0.5535 0.4304
H19 H 1.0683 0.5168 0.3949
C12 C 0.50077(14) 0.59612(10) 0.39357(4)
C13 C 0.48697(16) 0.50915(11) 0.44107(4)
H20 H 0.5494 0.4214 0.4408
C14 C 0.38127(17) 0.55179(14) 0.48881(5)
H21 H 0.3707 0.4938 0.5217
C15 C 0.29091(16) 0.68042(14) 0.48801(5)
H22 H 0.2171 0.7122 0.5201
C16 C 0.31172(17) 0.76097(12) 0.43906(5)
H23 H 0.2499 0.8489 0.4383
N1 N 0.52222(13) 0.60760(9) 0.28881(3)
N2 N 0.41521(14) 0.72114(9) 0.39241(4)
O1 O 0.46714(15) 0.40123(8) 0.24504(4)
O2 O 0.38717(16) 0.64447(10) 0.09230(4)
loop_
_geom_bond_atom_site_label_1
_geom_bond_atom_site_label_2
_geom_bond_site_symmetry_1
_geom_bond_site_symmetry_2
C1 C2 1_555 1_555
C2 H1 1_555 1_555
H2 C2 1_555 1_555
C3 C2 1_555 1_555
H3 C3 1_555 1_555
C4 C3 1_555 1_555
H4 C4 1_555 1_555
H5 C4 1_555 1_555
C5 C4 1_555 1_555
H6 C5 1_555 1_555
H7 C5 1_555 1_555
C6 C5 1_555 1_555
H8 C6 1_555 1_555
H9 C6 1_555 1_555
C7 H10 1_555 1_555
C8 C7 1_555 1_555
C9 C8 1_555 1_555
H11 C9 1_555 1_555
H12 C9 1_555 1_555
H13 C9 1_555 1_555
C10 C8 1_555 1_555
H14 C10 1_555 1_555
H15 C10 1_555 1_555
H16 C10 1_555 1_555
C11 C8 1_555 1_555
H17 C11 1_555 1_555
H18 C11 1_555 1_555
H19 C11 1_555 1_555
C12 C7 1_555 1_555
C13 C12 1_555 1_555
H20 C13 1_555 1_555
C14 C13 1_555 1_555
H21 C14 1_555 1_555
C15 C14 1_555 1_555
H22 C15 1_555 1_555
C16 C15 1_555 1_555
H23 C16 1_555 1_555
N1 C1 1_555 1_555
N2 C12 1_555 1_555
O1 C1 1_555 1_555
O2 C3 1_555 1_555
C6 O2 1_555 1_555
C7 N1 1_555 1_555
C16 N2 1_555 1_555

#END
