
#######################################################################
#
#                 Cambridge Crystallographic Data Centre
#                                CCDC 
#
#######################################################################
#
# If this CIF has been generated from an entry in the Cambridge 
# Structural Database, then it will include bibliographic, chemical, 
# crystal, experimental, refinement or atomic coordinate data resulting 
# from the CCDC's data processing and validation procedures.
#
#######################################################################

data_TEKTEI
_chemical_formula_moiety         'C26 H31 N1 O4'
_chemical_name_systematic        
'3,4,6,7,9,10-Hexahydro-3,3,6,6-tetramethyl-1,8(2H,5H)-dioxo-10-phenyl-9-acridinyl-methyl acetate'
_symmetry_cell_setting           monoclinic
_symmetry_space_group_name_H-M   'P 21/n'
_symmetry_Int_Tables_number      14
_space_group_name_Hall           '-P 2yn'
loop_
_symmetry_equiv_pos_site_id
_symmetry_equiv_pos_as_xyz
1 x,y,z
2 1/2-x,1/2+y,1/2-z
3 -x,-y,-z
4 1/2+x,1/2-y,1/2+z
_cell_length_a                   13.616(1)
_cell_length_b                   11.977(2)
_cell_length_c                   15.804(1)
_cell_angle_alpha                90
_cell_angle_beta                 111.09(2)
_cell_angle_gamma                90
_cell_volume                     2404.66
_exptl_crystal_colour            'pale yellow'
_cell_formula_units_Z            4
loop_
_atom_site_label
_atom_site_type_symbol
_atom_site_fract_x
_atom_site_fract_y
_atom_site_fract_z
C1 C 0.3416(2) -0.0729(2) 0.1569(2)
C2 C 0.2501(2) -0.0075(2) 0.0882(2)
C3 C 0.1972(2) 0.0614(2) 0.1407(2)
C4 C 0.2730(2) 0.1381(2) 0.2094(2)
O1 O 0.2446(2) 0.2300(2) 0.2281(1)
C5 C 0.3806(2) 0.0989(2) 0.2552(1)
C6 C 0.4556(2) 0.1736(2) 0.3259(2)
C7 C 0.5851(2) 0.1438(2) 0.4872(2)
O2 O 0.5532(2) 0.2320(2) 0.5090(1)
C8 C 0.5393(2) 0.1031(2) 0.3939(2)
C9 C 0.6665(2) 0.0729(2) 0.5560(2)
C10 C 0.7311(2) 0.0014(2) 0.5155(2)
C11 C 0.6552(2) -0.0669(2) 0.4364(2)
C12 C 0.5671(2) 0.0017(2) 0.3717(1)
C13 C 0.4111(2) -0.0017(2) 0.2340(1)
N1 N 0.50960(14) -0.0462(2) 0.2871(1)
C14 C 0.8012(3) 0.0754(3) 0.4825(3)
C15 C 0.8006(3) -0.0802(3) 0.5874(2)
C16 C 0.2905(3) 0.0699(3) 0.0304(2)
C17 C 0.1709(3) -0.0904(3) 0.0252(2)
C18 C 0.5018(3) 0.2646(2) 0.2833(2)
O3 O 0.5476(2) 0.2114(2) 0.2239(1)
C19 C 0.5812(3) 0.2766(3) 0.1715(3)
O4 O 0.5831(3) 0.3759(2) 0.1775(3)
C20 C 0.6164(6) 0.2114(6) 0.1079(5)
C21 C 0.5457(2) -0.1499(2) 0.2604(1)
C22 C 0.5182(2) -0.2513(2) 0.2881(2)
C23 C 0.6146(3) -0.3443(3) 0.2082(2)
C24 C 0.5541(2) -0.3495(2) 0.2612(2)
C25 C 0.6409(3) -0.2431(3) 0.1810(3)
C26 C 0.6073(3) -0.1450(2) 0.2080(2)
H1 H 0.3121(19) -0.1317(22) 0.1841(17)
H2 H 0.3858(19) -0.1044(20) 0.1251(17)
H3 H 0.4724(19) -0.2520(19) 0.3248(16)
H4 H 0.6436(29) -0.4069(32) 0.1892(26)
H5 H 0.5333(21) -0.4177(25) 0.2828(19)
H6 H 0.6847(31) -0.2392(29) 0.1429(26)
H7 H 0.6274(24) -0.0711(28) 0.1920(21)
H8 H 0.1688(21) 0.0119(23) 0.1747(19)
H9 H 0.1421(22) 0.1092(22) 0.1015(19)
H10 H 0.4164(20) 0.2131(22) 0.3583(17)
H11 H 0.7110(22) 0.1225(23) 0.6045(20)
H12 H 0.6282(21) 0.0227(23) 0.5865(19)
H13 H 0.6963(20) -0.0949(21) 0.4015(17)
H14 H 0.6214(21) -0.1276(23) 0.4601(18)
H15 H 0.7547(23) 0.1355(24) 0.4345(21)
H16 H 0.8434(25) 0.0303(26) 0.4581(21)
H17 H 0.8513(29) 0.1182(30) 0.5334(26)
H18 H 0.8493(25) -0.0391(27) 0.6399(23)
H19 H 0.7539(26) -0.1316(28) 0.6111(22)
H20 H 0.8469(25) -0.1275(28) 0.5630(22)
H21 H 0.3260(24) 0.0248(27) -0.0036(22)
H22 H 0.3455(23) 0.1276(26) 0.0692(21)
H23 H 0.2270(28) 0.1153(28) -0.0152(23)
H24 H 0.1423(25) -0.1388(28) 0.0615(23)
H25 H 0.1128(29) -0.0474(29) -0.0206(26)
H26 H 0.2076(29) -0.1404(33) -0.0098(26)
H27 H 0.4457(23) 0.3180(25) 0.2468(20)
H28 H 0.5569(24) 0.3074(25) 0.3266(21)
H29 H 0.6074(48) 0.1377(56) 0.1076(42)
H30 H 0.6770(56) 0.2321(50) 0.1078(44)
H31 H 0.5715(67) 0.2224(67) 0.0422(65)
loop_
_geom_bond_atom_site_label_1
_geom_bond_atom_site_label_2
_geom_bond_site_symmetry_1
_geom_bond_site_symmetry_2
C1 C2 1_555 1_555
C2 C3 1_555 1_555
C3 C4 1_555 1_555
C4 O1 1_555 1_555
C5 C4 1_555 1_555
C6 C5 1_555 1_555
C7 O2 1_555 1_555
C8 C6 1_555 1_555
C9 C7 1_555 1_555
C10 C9 1_555 1_555
C11 C10 1_555 1_555
C12 C8 1_555 1_555
C13 C1 1_555 1_555
N1 C12 1_555 1_555
C14 C10 1_555 1_555
C15 C10 1_555 1_555
C16 C2 1_555 1_555
C17 C2 1_555 1_555
C18 C6 1_555 1_555
O3 C18 1_555 1_555
C19 O3 1_555 1_555
O4 C19 1_555 1_555
C20 C19 1_555 1_555
C21 N1 1_555 1_555
C22 C21 1_555 1_555
C23 C24 1_555 1_555
C24 C22 1_555 1_555
C25 C23 1_555 1_555
C26 C21 1_555 1_555
H1 C1 1_555 1_555
H2 C1 1_555 1_555
H3 C22 1_555 1_555
H4 C23 1_555 1_555
H5 C24 1_555 1_555
H6 C25 1_555 1_555
H7 C26 1_555 1_555
H8 C3 1_555 1_555
H9 C3 1_555 1_555
H10 C6 1_555 1_555
H11 C9 1_555 1_555
H12 C9 1_555 1_555
H13 C11 1_555 1_555
H14 C11 1_555 1_555
H15 C14 1_555 1_555
H16 C14 1_555 1_555
H17 C14 1_555 1_555
H18 C15 1_555 1_555
H19 C15 1_555 1_555
H20 C15 1_555 1_555
H21 C16 1_555 1_555
H22 C16 1_555 1_555
H23 C16 1_555 1_555
H24 C17 1_555 1_555
H25 C17 1_555 1_555
H26 C17 1_555 1_555
H27 C18 1_555 1_555
H28 C18 1_555 1_555
H29 C20 1_555 1_555
H30 C20 1_555 1_555
H31 C20 1_555 1_555
C5 C13 1_555 1_555
C7 C8 1_555 1_555
C11 C12 1_555 1_555
C13 N1 1_555 1_555
C25 C26 1_555 1_555

#END
