
#######################################################################
#
#                 Cambridge Crystallographic Data Centre
#                                CCDC 
#
#######################################################################
#
# If this CIF has been generated from an entry in the Cambridge 
# Structural Database, then it will include bibliographic, chemical, 
# crystal, experimental, refinement or atomic coordinate data resulting 
# from the CCDC's data processing and validation procedures.
#
#######################################################################

data_TEKVEN
_chemical_formula_moiety         'C21 H26 B1 F1 N2 O2,0.5(C1 H2 Cl2)'
_chemical_name_systematic        
'(2,3-dimethylbutane-2,3-diolato)-(3-fluoro-2-(3-phenylimidazolidin-2-yl)phenyl)-boron dichloromethane solvate'
_symmetry_cell_setting           monoclinic
_symmetry_space_group_name_H-M   'P 21/c'
_symmetry_Int_Tables_number      14
_space_group_name_Hall           '-P 2ybc'
loop_
_symmetry_equiv_pos_site_id
_symmetry_equiv_pos_as_xyz
1 x,y,z
2 -x,1/2+y,1/2-z
3 -x,-y,-z
4 x,1/2-y,1/2+z
_cell_length_a                   22.557(9)
_cell_length_b                   10.564(4)
_cell_length_c                   19.196(8)
_cell_angle_alpha                90
_cell_angle_beta                 111.360(6)
_cell_angle_gamma                90
_cell_volume                     4260.05
_exptl_crystal_colour            colorless
_exptl_crystal_description       Irregular
_cell_formula_units_Z            8
_exptl_crystal_recrystallization_method CH2Cl2/Et2O
loop_
_atom_site_label
_atom_site_type_symbol
_atom_site_fract_x
_atom_site_fract_y
_atom_site_fract_z
B1 B 0.68018(13) 1.0007(2) 0.12966(17)
O1 O 0.63885(8) 0.90258(13) 0.08661(10)
O2 O 0.71063(7) 1.05683(12) 0.08173(9)
N1 N 0.74142(9) 0.94404(15) 0.20536(12)
H1 H 0.7812 0.9484 0.1947
N2 N 0.75123(9) 0.94059(16) 0.33426(12)
C1 C 0.65325(13) 0.8799(2) 0.02051(16)
C2 C 0.67803(12) 1.01168(19) 0.00645(15)
C3 C 0.70536(16) 0.7788(2) 0.0382(2)
H2 H 0.7447 0.8124 0.0739
H3 H 0.7117 0.7551 -0.0074
H4 H 0.6926 0.7050 0.0594
C4 C 0.59308(16) 0.8343(3) -0.0414(2)
H5 H 0.5810 0.7522 -0.0281
H6 H 0.6009 0.8271 -0.0877
H7 H 0.5590 0.8944 -0.0479
C5 C 0.72476(14) 1.0075(2) -0.03370(17)
H8 H 0.7377 1.0930 -0.0401
H9 H 0.7046 0.9683 -0.0823
H10 H 0.7619 0.9587 -0.0044
C6 C 0.62369(14) 1.1034(2) -0.03362(17)
H11 H 0.5927 1.1019 -0.0094
H12 H 0.6033 1.0780 -0.0855
H13 H 0.6406 1.1884 -0.0313
C7 C 0.65097(11) 1.09584(18) 0.17386(15)
C8 C 0.69103(11) 1.11126(18) 0.24799(15)
C9 C 0.67668(13) 1.1998(2) 0.29262(16)
C10 C 0.62112(15) 1.2705(2) 0.26659(19)
H14 H 0.6116 1.3297 0.2976
C11 C 0.58006(14) 1.2513(2) 0.19349(19)
H15 H 0.5416 1.2967 0.1751
C12 C 0.59454(12) 1.1669(2) 0.14740(17)
H16 H 0.5664 1.1568 0.0977
C13 C 0.74909(11) 1.02661(19) 0.27356(14)
H17 H 0.7886 1.0775 0.2877
C14 C 0.73342(13) 0.81123(19) 0.22869(16)
H18 H 0.7736 0.7642 0.2438
H19 H 0.7009 0.7653 0.1883
C15 C 0.71259(13) 0.8323(2) 0.29441(17)
H20 H 0.6671 0.8522 0.2773
H21 H 0.7211 0.7573 0.3266
C16 C 0.81165(12) 0.9187(2) 0.39029(16)
C17 C 0.84973(13) 1.0217(3) 0.42451(16)
H22 H 0.8352 1.1042 0.4092
C18 C 0.90826(14) 1.0045(3) 0.48038(18)
H23 H 0.9336 1.0752 0.5018
C19 C 0.92996(17) 0.8853(4) 0.5050(2)
H24 H 0.9696 0.8738 0.5439
C20 C 0.89294(19) 0.7835(4) 0.4722(3)
H25 H 0.9078 0.7015 0.4885
C21 C 0.83421(16) 0.7983(3) 0.4156(2)
H26 H 0.8095 0.7268 0.3942
F1 F 0.71860(8) 1.21837(13) 0.36406(9)
B2 B 0.87503(12) 0.3228(2) 0.70817(17)
O3 O 0.86055(7) 0.45807(12) 0.70839(10)
O4 O 0.93581(7) 0.31393(12) 0.70108(10)
N3 N 0.81359(9) 0.26260(15) 0.63404(12)
H27 H 0.7867 0.3336 0.6062
N4 N 0.76163(9) 0.06090(15) 0.61773(12)
C22 C 0.91745(11) 0.52854(19) 0.71668(16)
C23 C 0.95496(11) 0.4365(2) 0.68388(16)
C24 C 0.95201(14) 0.5571(3) 0.79953(18)
H28 H 0.9227 0.5960 0.8195
H29 H 0.9871 0.6144 0.8056
H30 H 0.9683 0.4789 0.8262
C25 C 0.89833(14) 0.6529(2) 0.67374(19)
H31 H 0.8708 0.6354 0.6226
H32 H 0.9362 0.6967 0.6740
H33 H 0.8759 0.7055 0.6974
C26 C 1.02714(12) 0.4463(2) 0.72075(19)
H34 H 1.0402 0.4235 0.7731
H35 H 1.0403 0.5325 0.7166
H36 H 1.0469 0.3893 0.6960
C27 C 0.93565(15) 0.4475(3) 0.59962(18)
H37 H 0.9543 0.3784 0.5814
H38 H 0.9507 0.5275 0.5875
H39 H 0.8896 0.4436 0.5762
C28 C 0.86698(11) 0.23344(18) 0.77197(15)
C29 C 0.81281(11) 0.15663(18) 0.74505(14)
C30 C 0.79970(13) 0.0744(2) 0.79361(17)
C31 C 0.83854(15) 0.0638(2) 0.86714(18)
H40 H 0.8285 0.0076 0.8992
C32 C 0.89349(14) 0.1383(2) 0.89368(17)
H41 H 0.9213 0.1311 0.9437
C33 C 0.90679(13) 0.2221(2) 0.84639(16)
H42 H 0.9436 0.2725 0.8649
C34 C 0.77308(11) 0.17560(17) 0.66350(15)
H43 H 0.7323 0.2171 0.6580
C35 C 0.83226(12) 0.1840(2) 0.58054(16)
H44 H 0.8774 0.1954 0.5885
H45 H 0.8065 0.2052 0.5286
C36 C 0.81896(12) 0.04920(19) 0.59962(16)
H46 H 0.8116 -0.0075 0.5569
H47 H 0.8546 0.0165 0.6425
C37 C 0.70073(11) 0.05464(17) 0.55804(15)
C38 C 0.64664(12) 0.0610(2) 0.57670(17)
H48 H 0.6509 0.0722 0.6269
C39 C 0.58655(13) 0.0509(2) 0.5217(2)
H49 H 0.5504 0.0573 0.5349
C40 C 0.57904(14) 0.0315(2) 0.4479(2)
H50 H 0.5382 0.0233 0.4109
C41 C 0.63248(14) 0.0246(2) 0.42938(18)
H51 H 0.6279 0.0114 0.3792
C42 C 0.69306(13) 0.03672(19) 0.48347(16)
H52 H 0.7290 0.0328 0.4697
F2 F 0.74568(8) 0.00174(13) 0.76800(10)
C43 C 0.53751(17) 0.7795(3) 0.1609(2)
H53 H 0.5636 0.8117 0.1336
H54 H 0.4955 0.7581 0.1241
Cl1 Cl 0.57312(5) 0.64152(8) 0.20982(7)
Cl2 Cl 0.52883(4) 0.89848(8) 0.21968(6)
loop_
_geom_bond_atom_site_label_1
_geom_bond_atom_site_label_2
_geom_bond_site_symmetry_1
_geom_bond_site_symmetry_2
B1 O1 1_555 1_555
O1 C1 1_555 1_555
O2 B1 1_555 1_555
N1 B1 1_555 1_555
H1 N1 1_555 1_555
N2 C13 1_555 1_555
C1 C2 1_555 1_555
C2 O2 1_555 1_555
C3 C1 1_555 1_555
H2 C3 1_555 1_555
H3 C3 1_555 1_555
H4 C3 1_555 1_555
C4 C1 1_555 1_555
H5 C4 1_555 1_555
H6 C4 1_555 1_555
H7 C4 1_555 1_555
C5 C2 1_555 1_555
H8 C5 1_555 1_555
H9 C5 1_555 1_555
H10 C5 1_555 1_555
C6 C2 1_555 1_555
H11 C6 1_555 1_555
H12 C6 1_555 1_555
H13 C6 1_555 1_555
C7 B1 1_555 1_555
C8 C7 1_555 1_555
C9 C8 1_555 1_555
C10 C9 1_555 1_555
H14 C10 1_555 1_555
C11 C10 1_555 1_555
H15 C11 1_555 1_555
C12 C7 1_555 1_555
H16 C12 1_555 1_555
C13 N1 1_555 1_555
H17 C13 1_555 1_555
C14 N1 1_555 1_555
H18 C14 1_555 1_555
H19 C14 1_555 1_555
C15 N2 1_555 1_555
H20 C15 1_555 1_555
H21 C15 1_555 1_555
C16 N2 1_555 1_555
C17 C16 1_555 1_555
H22 C17 1_555 1_555
C18 C17 1_555 1_555
H23 C18 1_555 1_555
C19 C18 1_555 1_555
H24 C19 1_555 1_555
C20 C19 1_555 1_555
H25 C20 1_555 1_555
C21 C16 1_555 1_555
H26 C21 1_555 1_555
F1 C9 1_555 1_555
B2 O3 1_555 1_555
O3 C22 1_555 1_555
O4 B2 1_555 1_555
N3 B2 1_555 1_555
H27 N3 1_555 1_555
N4 C34 1_555 1_555
C22 C23 1_555 1_555
C23 O4 1_555 1_555
C24 C22 1_555 1_555
H28 C24 1_555 1_555
H29 C24 1_555 1_555
H30 C24 1_555 1_555
C25 C22 1_555 1_555
H31 C25 1_555 1_555
H32 C25 1_555 1_555
H33 C25 1_555 1_555
C26 C23 1_555 1_555
H34 C26 1_555 1_555
H35 C26 1_555 1_555
H36 C26 1_555 1_555
C27 C23 1_555 1_555
H37 C27 1_555 1_555
H38 C27 1_555 1_555
H39 C27 1_555 1_555
C28 B2 1_555 1_555
C29 C28 1_555 1_555
C30 C29 1_555 1_555
C31 C30 1_555 1_555
H40 C31 1_555 1_555
C32 C31 1_555 1_555
H41 C32 1_555 1_555
C33 C28 1_555 1_555
H42 C33 1_555 1_555
C34 N3 1_555 1_555
H43 C34 1_555 1_555
C35 N3 1_555 1_555
H44 C35 1_555 1_555
H45 C35 1_555 1_555
C36 N4 1_555 1_555
H46 C36 1_555 1_555
H47 C36 1_555 1_555
C37 N4 1_555 1_555
C38 C37 1_555 1_555
H48 C38 1_555 1_555
C39 C38 1_555 1_555
H49 C39 1_555 1_555
C40 C39 1_555 1_555
H50 C40 1_555 1_555
C41 C40 1_555 1_555
H51 C41 1_555 1_555
C42 C37 1_555 1_555
H52 C42 1_555 1_555
F2 C30 1_555 1_555
C43 H53 1_555 1_555
H54 C43 1_555 1_555
Cl1 C43 1_555 1_555
Cl2 C43 1_555 1_555
C8 C13 1_555 1_555
C11 C12 1_555 1_555
C14 C15 1_555 1_555
C20 C21 1_555 1_555
C29 C34 1_555 1_555
C32 C33 1_555 1_555
C35 C36 1_555 1_555
C41 C42 1_555 1_555

#END
