
#######################################################################
#
#                 Cambridge Crystallographic Data Centre
#                                CCDC 
#
#######################################################################
#
# If this CIF has been generated from an entry in the Cambridge 
# Structural Database, then it will include bibliographic, chemical, 
# crystal, experimental, refinement or atomic coordinate data resulting 
# from the CCDC's data processing and validation procedures.
#
#######################################################################

data_TELJIF
_chemical_formula_moiety         'C13 H15 F1 N2'
_chemical_name_systematic        
1-(4-Fluorophenylamino)cyclohexane-1-carbonitrile
_symmetry_cell_setting           monoclinic
_symmetry_space_group_name_H-M   'P 21/c'
_symmetry_Int_Tables_number      14
_space_group_name_Hall           '-P 2ybc'
loop_
_symmetry_equiv_pos_site_id
_symmetry_equiv_pos_as_xyz
1 x,y,z
2 -x,1/2+y,1/2-z
3 -x,-y,-z
4 x,1/2-y,1/2+z
_cell_length_a                   9.5371(5)
_cell_length_b                   6.7090(3)
_cell_length_c                   18.2426(10)
_cell_angle_alpha                90
_cell_angle_beta                 98.972(5)
_cell_angle_gamma                90
_cell_volume                     1152.96
_exptl_crystal_colour            white
_exptl_crystal_description       block
_cell_formula_units_Z            4
loop_
_atom_site_label
_atom_site_type_symbol
_atom_site_fract_x
_atom_site_fract_y
_atom_site_fract_z
C1 C 1.1340(2) 0.0192(3) 0.15816(12)
C2 C 1.1734(3) 0.2163(3) 0.19956(14)
H1 H 1.1343 0.3265 0.1685
H2 H 1.1304 0.2189 0.2444
C3 C 1.3325(3) 0.2450(4) 0.22019(15)
H3 H 1.3704 0.1438 0.2558
H4 H 1.3512 0.3742 0.2435
C4 C 1.4073(3) 0.2319(4) 0.15271(16)
H5 H 1.5091 0.2420 0.1682
H6 H 1.3775 0.3420 0.1194
C5 C 1.3723(3) 0.0353(4) 0.11220(15)
H7 H 1.4161 0.0327 0.0676
H8 H 1.4112 -0.0740 0.1438
C6 C 1.2136(3) 0.0080(4) 0.09141(13)
H9 H 1.1951 -0.1204 0.0674
H10 H 1.1769 0.1101 0.0559
C7 C 1.1792(2) -0.1456(3) 0.21213(13)
N1 N 1.2073(2) -0.2668(3) 0.25558(13)
N2 N 0.98126(19) 0.0134(3) 0.13611(11)
H11 H 0.9350 0.1222 0.1396
C8 C 0.9030(2) -0.1559(3) 0.10944(11)
C9 C 0.9636(2) -0.3362(3) 0.09243(13)
H12 H 1.0618 -0.3492 0.0990
C10 C 0.8784(3) -0.4958(3) 0.06583(13)
H13 H 0.9190 -0.6156 0.0544
C11 C 0.7355(3) -0.4757(4) 0.05655(14)
C12 C 0.6714(3) -0.3009(4) 0.07265(14)
H14 H 0.5730 -0.2904 0.0660
C13 C 0.7555(2) -0.1426(3) 0.09864(12)
H15 H 0.7130 -0.0235 0.1093
F1 F 0.65227(17) -0.6352(2) 0.03071(10)
loop_
_geom_bond_atom_site_label_1
_geom_bond_atom_site_label_2
_geom_bond_site_symmetry_1
_geom_bond_site_symmetry_2
C1 C2 1_555 1_555
C2 H1 1_555 1_555
H2 C2 1_555 1_555
C3 C2 1_555 1_555
H3 C3 1_555 1_555
H4 C3 1_555 1_555
C4 C3 1_555 1_555
H5 C4 1_555 1_555
H6 C4 1_555 1_555
C5 C4 1_555 1_555
H7 C5 1_555 1_555
H8 C5 1_555 1_555
C6 C1 1_555 1_555
H9 C6 1_555 1_555
H10 C6 1_555 1_555
C7 C1 1_555 1_555
N1 C7 1_555 1_555
N2 C1 1_555 1_555
H11 N2 1_555 1_555
C8 N2 1_555 1_555
C9 C8 1_555 1_555
H12 C9 1_555 1_555
C10 C9 1_555 1_555
H13 C10 1_555 1_555
C11 C10 1_555 1_555
C12 C11 1_555 1_555
H14 C12 1_555 1_555
C13 C8 1_555 1_555
H15 C13 1_555 1_555
F1 C11 1_555 1_555
C5 C6 1_555 1_555
C12 C13 1_555 1_555

#END
