
#######################################################################
#
#                 Cambridge Crystallographic Data Centre
#                                CCDC 
#
#######################################################################
#
# If this CIF has been generated from an entry in the Cambridge 
# Structural Database, then it will include bibliographic, chemical, 
# crystal, experimental, refinement or atomic coordinate data resulting 
# from the CCDC's data processing and validation procedures.
#
#######################################################################

data_TELKON
_chemical_formula_moiety         'C30 H31 Cl1'
_chemical_name_systematic        
3-(4-(1-(4-chlorophenyl)vinyl)bicyclo[3.2.1]oct-2-en-3-yl)-3-phenyltricyclo[3.2.1.0^2,4^]octane
_symmetry_cell_setting           orthorhombic
_symmetry_space_group_name_H-M   'P n a 21'
_symmetry_Int_Tables_number      33
_space_group_name_Hall           'P 2c -2n'
loop_
_symmetry_equiv_pos_site_id
_symmetry_equiv_pos_as_xyz
1 x,y,z
2 -x,-y,1/2+z
3 1/2-x,1/2+y,1/2+z
4 1/2+x,1/2-y,z
_cell_length_a                   9.70713(11)
_cell_length_b                   11.34549(14)
_cell_length_c                   20.1190(2)
_cell_angle_alpha                90
_cell_angle_beta                 90
_cell_angle_gamma                90
_cell_volume                     2215.75
_exptl_crystal_colour            colorless
_exptl_crystal_description       block
_cell_formula_units_Z            4
loop_
_atom_site_label
_atom_site_type_symbol
_atom_site_fract_x
_atom_site_fract_y
_atom_site_fract_z
Cl1 Cl -0.98131(5) -0.40764(4) -0.38308(2)
C1 C -0.53469(16) -0.37931(15) -0.59060(8)
C2 C -0.52749(17) -0.28262(14) -0.82361(8)
H1 H -0.5982 -0.2285 -0.8070
C3 C -0.60901(16) -0.51236(14) -0.74149(8)
C4 C -0.25290(17) -0.51228(16) -0.67426(9)
H2 H -0.2022 -0.5083 -0.7134
C5 C -0.43885(16) -0.44314(14) -0.87472(8)
H3 H -0.4381 -0.5173 -0.8997
C6 C -0.37999(16) -0.44949(14) -0.80439(8)
H4 H -0.2807 -0.4636 -0.8003
C7 C -0.7629(2) -0.67803(16) -0.75795(9)
H5 H -0.7768 -0.7558 -0.7710
C8 C -0.75199(17) -0.47300(15) -0.54423(8)
H6 H -0.7502 -0.5282 -0.5784
C9 C -0.47408(15) -0.49660(14) -0.61352(9)
H7 H -0.5515 -0.5497 -0.6224
C10 C -0.65776(18) -0.30324(16) -0.49017(9)
H8 H -0.5919 -0.2438 -0.4880
C11 C -0.48151(18) -0.27597(16) -0.60763(9)
H9 H -0.5161 -0.2070 -0.5891
H10 H -0.4096 -0.2725 -0.6381
C12 C -0.38974(16) -0.55144(15) -0.55573(8)
H11 H -0.4403 -0.5458 -0.5137
C13 C -0.76046(19) -0.30733(16) -0.44227(9)
H12 H -0.7640 -0.2513 -0.4086
C14 C -0.38803(16) -0.49005(14) -0.67715(8)
C15 C -0.63149(18) -0.62890(15) -0.76103(9)
H13 H -0.5581 -0.6741 -0.7762
C16 C -0.25088(18) -0.48821(17) -0.55099(9)
H14 H -0.2606 -0.4036 -0.5560
H15 H -0.2040 -0.5055 -0.5095
C17 C -0.85234(17) -0.49455(17) -0.71703(9)
H16 H -0.9264 -0.4490 -0.7029
C18 C -0.58033(17) -0.38548(14) -0.86634(8)
H17 H -0.6452 -0.4354 -0.8428
H18 H -0.6196 -0.3596 -0.9082
C19 C -0.65044(16) -0.38586(14) -0.54164(8)
C20 C -0.35890(17) -0.33952(16) -0.90725(9)
H19 H -0.3734 -0.3377 -0.9549
H20 H -0.2609 -0.3453 -0.8983
C21 C -0.46585(15) -0.46145(14) -0.74110(8)
C22 C -0.85768(18) -0.39661(16) -0.44568(9)
C23 C -0.43672(16) -0.33982(14) -0.77060(8)
H21 H -0.3713 -0.2891 -0.7470
C24 C -0.42243(18) -0.22872(15) -0.87314(9)
H22 H -0.3525 -0.1834 -0.8500
H23 H -0.4680 -0.1784 -0.9053
C25 C -0.85585(17) -0.47873(16) -0.49663(9)
H24 H -0.9231 -0.5369 -0.4990
C26 C -0.72095(16) -0.44575(15) -0.71970(8)
H25 H -0.7077 -0.3679 -0.7068
C27 C -0.17772(17) -0.54364(17) -0.61038(9)
H26 H -0.0801 -0.5219 -0.6121
C28 C -0.87293(18) -0.61107(17) -0.73544(9)
H27 H -0.9604 -0.6442 -0.7327
C29 C -0.34891(17) -0.68110(16) -0.57071(9)
H28 H -0.3557 -0.7290 -0.5309
H29 H -0.4085 -0.7144 -0.6046
C30 C -0.19802(18) -0.67564(17) -0.59556(9)
H30 H -0.1345 -0.7026 -0.5616
H31 H -0.1856 -0.7228 -0.6353
loop_
_geom_bond_atom_site_label_1
_geom_bond_atom_site_label_2
_geom_bond_site_symmetry_1
_geom_bond_site_symmetry_2
Cl1 C22 1_555 1_555
C1 C9 1_555 1_555
C2 H1 1_555 1_555
C3 C15 1_555 1_555
C4 H2 1_555 1_555
C5 H3 1_555 1_555
C6 C5 1_555 1_555
H4 C6 1_555 1_555
C7 H5 1_555 1_555
C8 H6 1_555 1_555
C9 H7 1_555 1_555
C10 H8 1_555 1_555
C11 C1 1_555 1_555
H9 C11 1_555 1_555
H10 C11 1_555 1_555
C12 C9 1_555 1_555
H11 C12 1_555 1_555
C13 C10 1_555 1_555
H12 C13 1_555 1_555
C14 C4 1_555 1_555
C15 C7 1_555 1_555
H13 C15 1_555 1_555
C16 C12 1_555 1_555
H14 C16 1_555 1_555
H15 C16 1_555 1_555
C17 H16 1_555 1_555
C18 C2 1_555 1_555
H17 C18 1_555 1_555
H18 C18 1_555 1_555
C19 C1 1_555 1_555
C20 C5 1_555 1_555
H19 C20 1_555 1_555
H20 C20 1_555 1_555
C21 C3 1_555 1_555
C22 C13 1_555 1_555
C23 C2 1_555 1_555
H21 C23 1_555 1_555
C24 C2 1_555 1_555
H22 C24 1_555 1_555
H23 C24 1_555 1_555
C25 C8 1_555 1_555
H24 C25 1_555 1_555
C26 C3 1_555 1_555
H25 C26 1_555 1_555
C27 C4 1_555 1_555
H26 C27 1_555 1_555
C28 C7 1_555 1_555
H27 C28 1_555 1_555
C29 C12 1_555 1_555
H28 C29 1_555 1_555
H29 C29 1_555 1_555
C30 C27 1_555 1_555
H30 C30 1_555 1_555
H31 C30 1_555 1_555
C5 C18 1_555 1_555
C6 C21 1_555 1_555
C6 C23 1_555 1_555
C8 C19 1_555 1_555
C9 C14 1_555 1_555
C10 C19 1_555 1_555
C14 C21 1_555 1_555
C16 C27 1_555 1_555
C17 C26 1_555 1_555
C17 C28 1_555 1_555
C20 C24 1_555 1_555
C21 C23 1_555 1_555
C22 C25 1_555 1_555
C29 C30 1_555 1_555

#END
