
#######################################################################
#
#                 Cambridge Crystallographic Data Centre
#                                CCDC 
#
#######################################################################
#
# If this CIF has been generated from an entry in the Cambridge 
# Structural Database, then it will include bibliographic, chemical, 
# crystal, experimental, refinement or atomic coordinate data resulting 
# from the CCDC's data processing and validation procedures.
#
#######################################################################

data_TELKAZ
_chemical_formula_moiety         'C16 H10 O3'
_chemical_name_systematic        
2-(2-hydroxybenzylidene)-1H-indene-1,3(2H)-dione
_symmetry_cell_setting           monoclinic
_symmetry_space_group_name_H-M   'P 21/n'
_symmetry_Int_Tables_number      14
_space_group_name_Hall           '-P 2yn'
loop_
_symmetry_equiv_pos_site_id
_symmetry_equiv_pos_as_xyz
1 x,y,z
2 1/2-x,1/2+y,1/2-z
3 -x,-y,-z
4 1/2+x,1/2-y,1/2+z
_cell_length_a                   5.6470(2)
_cell_length_b                   16.7120(5)
_cell_length_c                   12.6770(3)
_cell_angle_alpha                90
_cell_angle_beta                 94.694(2)
_cell_angle_gamma                90
_cell_volume                     1192.35
_exptl_crystal_colour            'orange yellow'
_exptl_crystal_description       needle
_cell_formula_units_Z            4
loop_
_atom_site_label
_atom_site_type_symbol
_atom_site_fract_x
_atom_site_fract_y
_atom_site_fract_z
O1 O 0.49444(19) 0.39042(7) 1.02480(7)
O2 O 0.3859(2) 0.37203(7) 0.65030(8)
O3 O 1.11012(19) 0.53198(7) 0.90119(8)
H1 H 1.2344 0.5590 0.9145
C1 C 0.5093(2) 0.40758(9) 0.83434(10)
C2 C 0.4160(2) 0.37749(8) 0.93319(11)
C3 C 0.2082(2) 0.32630(8) 0.90302(11)
C4 C 0.0592(3) 0.28614(9) 0.96685(12)
H2 H 0.0802 0.2902 1.0418
C5 C -0.1213(3) 0.23994(9) 0.91771(13)
H3 H -0.2259 0.2117 0.9595
C6 C -0.1514(3) 0.23428(10) 0.80755(13)
H4 H -0.2763 0.2022 0.7756
C7 C -0.0031(3) 0.27443(10) 0.74406(12)
H5 H -0.0242 0.2705 0.6691
C8 C 0.1774(3) 0.32065(9) 0.79331(11)
C9 C 0.3627(3) 0.36895(9) 0.74482(11)
C10 C 0.6977(2) 0.45798(8) 0.83943(10)
H6 H 0.7623 0.4676 0.9099
C11 C 0.8222(2) 0.50037(8) 0.76145(10)
C12 C 0.7438(3) 0.50852(9) 0.65363(11)
H7 H 0.6001 0.4834 0.6272
C13 C 0.8713(3) 0.55219(9) 0.58592(12)
H8 H 0.8140 0.5578 0.5137
C14 C 1.0838(3) 0.58804(9) 0.62302(12)
H9 H 1.1732 0.6170 0.5754
C15 C 1.1667(3) 0.58208(9) 0.72812(12)
H10 H 1.3119 0.6070 0.7529
C16 C 1.0363(2) 0.53926(9) 0.79755(11)
loop_
_geom_bond_atom_site_label_1
_geom_bond_atom_site_label_2
_geom_bond_site_symmetry_1
_geom_bond_site_symmetry_2
O1 C2 1_555 1_555
O2 C9 1_555 1_555
O3 H1 1_555 1_555
C1 C2 1_555 1_555
C2 C3 1_555 1_555
C3 C4 1_555 1_555
C4 H2 1_555 1_555
C5 C4 1_555 1_555
H3 C5 1_555 1_555
C6 C5 1_555 1_555
H4 C6 1_555 1_555
C7 C6 1_555 1_555
H5 C7 1_555 1_555
C8 C3 1_555 1_555
C9 C1 1_555 1_555
C10 C1 1_555 1_555
H6 C10 1_555 1_555
C11 C10 1_555 1_555
C12 C11 1_555 1_555
H7 C12 1_555 1_555
C13 C12 1_555 1_555
H8 C13 1_555 1_555
C14 C13 1_555 1_555
H9 C14 1_555 1_555
C15 C14 1_555 1_555
H10 C15 1_555 1_555
C16 O3 1_555 1_555
C7 C8 1_555 1_555
C8 C9 1_555 1_555
C11 C16 1_555 1_555
C15 C16 1_555 1_555

#END
