
#######################################################################
#
#                 Cambridge Crystallographic Data Centre
#                                CCDC 
#
#######################################################################
#
# If this CIF has been generated from an entry in the Cambridge 
# Structural Database, then it will include bibliographic, chemical, 
# crystal, experimental, refinement or atomic coordinate data resulting 
# from the CCDC's data processing and validation procedures.
#
#######################################################################

data_TELKED
_chemical_formula_moiety         'C18 H12 O3'
_chemical_name_systematic        
2-(7-hydroxy-2,3-dihydro-1H-inden-1-ylidene)-1H-indene-1,3(2H)-dione
_symmetry_cell_setting           monoclinic
_symmetry_space_group_name_H-M   'P 21/c'
_symmetry_Int_Tables_number      14
_space_group_name_Hall           '-P 2ybc'
loop_
_symmetry_equiv_pos_site_id
_symmetry_equiv_pos_as_xyz
1 x,y,z
2 -x,1/2+y,1/2-z
3 -x,-y,-z
4 x,1/2-y,1/2+z
_cell_length_a                   5.1323(6)
_cell_length_b                   19.424(2)
_cell_length_c                   12.8010(13)
_cell_angle_alpha                90
_cell_angle_beta                 99.633(2)
_cell_angle_gamma                90
_cell_volume                     1258.14
_exptl_crystal_colour            red
_exptl_crystal_description       plate
_cell_formula_units_Z            4
loop_
_atom_site_label
_atom_site_type_symbol
_atom_site_fract_x
_atom_site_fract_y
_atom_site_fract_z
O1 O 0.1822(6) 0.54518(16) 0.1023(2)
O2 O 0.6344(5) 0.56837(13) 0.45212(18)
O3 O -0.1414(7) 0.63534(17) 0.07032(19)
H1 H -0.0196 0.6074 0.0920
C1 C 0.3293(6) 0.58005(15) 0.2856(2)
C2 C 0.3292(6) 0.54147(17) 0.1871(3)
C3 C 0.5466(6) 0.49079(17) 0.2048(3)
C4 C 0.6801(6) 0.49719(15) 0.3066(2)
C5 C 0.5550(6) 0.55157(16) 0.3620(2)
C6 C 0.6227(8) 0.44394(19) 0.1343(3)
H2 H 0.5300 0.4397 0.0639
C7 C 0.8407(8) 0.40361(19) 0.1715(3)
H3 H 0.8995 0.3709 0.1254
C8 C 0.9747(7) 0.40973(17) 0.2738(3)
H4 H 1.1227 0.3809 0.2967
C9 C 0.8988(7) 0.45672(16) 0.3436(3)
H5 H 0.9920 0.4612 0.4139
C10 C 0.1647(6) 0.63099(15) 0.3132(2)
C11 C -0.0616(5) 0.67000(15) 0.2574(2)
C12 C -0.1983(6) 0.67205(17) 0.1522(2)
C13 C -0.4081(7) 0.71761(19) 0.1263(3)
H6 H -0.4995 0.7188 0.0553
C14 C -0.4876(7) 0.76069(17) 0.1990(3)
H7 H -0.6333 0.7907 0.1784
C15 C -0.3577(7) 0.76090(17) 0.3019(3)
H8 H -0.4087 0.7917 0.3525
C16 C -0.1517(6) 0.71539(17) 0.3301(3)
C17 C 0.0038(7) 0.7080(2) 0.4376(3)
H9 H -0.1091 0.6913 0.4879
H10 H 0.0829 0.7526 0.4635
C18 C 0.2158(6) 0.65625(17) 0.4263(2)
H11 H 0.2094 0.6173 0.4758
H12 H 0.3924 0.6780 0.4426
loop_
_geom_bond_atom_site_label_1
_geom_bond_atom_site_label_2
_geom_bond_site_symmetry_1
_geom_bond_site_symmetry_2
O1 C2 1_555 1_555
O2 C5 1_555 1_555
O3 H1 1_555 1_555
C1 C2 1_555 1_555
C2 C3 1_555 1_555
C3 C4 1_555 1_555
C4 C5 1_555 1_555
C5 C1 1_555 1_555
C6 C3 1_555 1_555
H2 C6 1_555 1_555
C7 C6 1_555 1_555
H3 C7 1_555 1_555
C8 C7 1_555 1_555
H4 C8 1_555 1_555
C9 C4 1_555 1_555
H5 C9 1_555 1_555
C10 C1 1_555 1_555
C11 C10 1_555 1_555
C12 O3 1_555 1_555
C13 C12 1_555 1_555
H6 C13 1_555 1_555
C14 C13 1_555 1_555
H7 C14 1_555 1_555
C15 C14 1_555 1_555
H8 C15 1_555 1_555
C16 C11 1_555 1_555
C17 C16 1_555 1_555
H9 C17 1_555 1_555
H10 C17 1_555 1_555
C18 C10 1_555 1_555
H11 C18 1_555 1_555
H12 C18 1_555 1_555
C8 C9 1_555 1_555
C11 C12 1_555 1_555
C15 C16 1_555 1_555
C17 C18 1_555 1_555

#END
