
#######################################################################
#
#                 Cambridge Crystallographic Data Centre
#                                CCDC 
#
#######################################################################
#
# If this CIF has been generated from an entry in the Cambridge 
# Structural Database, then it will include bibliographic, chemical, 
# crystal, experimental, refinement or atomic coordinate data resulting 
# from the CCDC's data processing and validation procedures.
#
#######################################################################

data_TELLAA
_chemical_formula_moiety         'C28 H36 B1 Cl1 O2'
_chemical_name_systematic        
2-(3-(3-(4-chlorophenyl)tricyclo[3.2.1.0^2,4^]octan-3-yl)bicyclo[3.2.1]oct-3-en-2-yl)-4,4,5,5-tetramethyl-1,3,2-dioxaborolane
_symmetry_cell_setting           monoclinic
_symmetry_space_group_name_H-M   'C 2/c'
_symmetry_Int_Tables_number      15
_space_group_name_Hall           '-C 2yn'
loop_
_symmetry_equiv_pos_site_id
_symmetry_equiv_pos_as_xyz
1 x,y,z
2 -x,y,1/2-z
3 1/2+x,1/2+y,z
4 1/2-x,1/2+y,1/2-z
5 -x,-y,-z
6 x,-y,1/2+z
7 1/2-x,1/2-y,-z
8 1/2+x,1/2-y,1/2+z
_cell_length_a                   41.050(8)
_cell_length_b                   6.7900(14)
_cell_length_c                   19.850(4)
_cell_angle_alpha                90
_cell_angle_beta                 114.70(3)
_cell_angle_gamma                90
_cell_volume                     5026.58
_exptl_crystal_colour            colorless
_exptl_crystal_description       block
_cell_formula_units_Z            8
loop_
_atom_site_label
_atom_site_type_symbol
_atom_site_fract_x
_atom_site_fract_y
_atom_site_fract_z
Cl1 Cl 0.03997(3) 0.0733(2) 0.23300(7)
C1 C 0.10054(8) -0.3886(4) 0.05402(18)
C2 C 0.08331(8) -0.2750(4) 0.09559(18)
C3 C 0.14042(9) -0.3918(4) 0.09882(18)
O1 O 0.17635(9) -0.2177(4) -0.00525(18)
C4 C 0.08472(9) -0.5681(4) 0.00662(19)
H1 H 0.1013 -0.6752 0.0096
C5 C 0.08888(9) -0.3762(5) -0.02861(19)
H2 H 0.1079 -0.3715 -0.0461
C6 C 0.07824(10) -0.3617(5) 0.1535(2)
H3 H 0.0841 -0.4937 0.1644
B1 B 0.16248(10) -0.1189(6) 0.0361(2)
C7 C 0.16004(9) -0.1977(5) 0.1077(2)
H4 H 0.1465 -0.0996 0.1219
O2 O 0.15206(10) 0.0612(4) 0.0088(2)
C8 C 0.07472(10) -0.0779(5) 0.0814(2)
H5 H 0.0779 -0.0159 0.0428
C9 C 0.05650(10) -0.0605(6) 0.1802(2)
C10 C 0.15775(10) -0.5513(5) 0.1352(2)
H6 H 0.1451 -0.6690 0.1275
C11 C 0.04489(9) -0.6117(5) -0.0336(2)
H7 H 0.0355 -0.7035 -0.0079
C12 C 0.06142(11) 0.0283(6) 0.1240(2)
H8 H 0.0558 0.1610 0.1139
C13 C 0.02705(10) -0.4101(5) -0.0496(2)
H9 H 0.0298 -0.3398 -0.0051
H10 H 0.0020 -0.4156 -0.0842
C14 C 0.06464(10) -0.2554(6) 0.1957(2)
H11 H 0.0611 -0.3160 0.2341
C15 C 0.05132(10) -0.3292(5) -0.08485(19)
H12 H 0.0471 -0.1913 -0.1007
C16 C 0.21685(10) -0.3944(6) 0.1640(3)
H13 H 0.2423 -0.3915 0.1961
H14 H 0.2134 -0.4138 0.1131
C17 C 0.19719(11) -0.5504(6) 0.1887(2)
H15 H 0.2082 -0.6809 0.1946
C18 C 0.17392(13) -0.0969(6) -0.0680(3)
C19 C 0.19783(10) -0.2100(6) 0.1728(2)
H16 H 0.2119 -0.0918 0.1747
C20 C 0.20011(13) -0.4645(7) 0.2615(3)
H17 H 0.2232 -0.4944 0.3014
H18 H 0.1814 -0.5155 0.2743
C21 C 0.03960(11) -0.6762(6) -0.1111(2)
H19 H 0.0160 -0.7329 -0.1383
H20 H 0.0577 -0.7712 -0.1090
C22 C 0.04382(12) -0.4788(6) -0.1471(2)
H21 H 0.0636 -0.4856 -0.1616
H22 H 0.0220 -0.4462 -0.1902
C23 C 0.16610(13) 0.1042(6) -0.0459(3)
C24 C 0.19577(13) -0.2442(7) 0.2471(2)
H23 H 0.2147 -0.1727 0.2864
H24 H 0.1729 -0.1998 0.2448
C25 C 0.20757(17) -0.1197(9) -0.0788(4)
H25 H 0.2274 -0.0686 -0.0364
H26 H 0.2054 -0.0485 -0.1223
H27 H 0.2115 -0.2567 -0.0848
C26 C 0.1402(2) 0.2322(9) -0.1054(4)
H28 H 0.1176 0.1658 -0.1287
H29 H 0.1494 0.2595 -0.1417
H30 H 0.1370 0.3536 -0.0840
C27 C 0.14199(19) -0.1709(10) -0.1358(3)
H31 H 0.1429 -0.3120 -0.1378
H32 H 0.1428 -0.1162 -0.1797
H33 H 0.1202 -0.1313 -0.1328
C28 C 0.2005(2) 0.2259(10) -0.0046(5)
H34 H 0.1962 0.3237 0.0256
H35 H 0.2074 0.2893 -0.0400
H36 H 0.2195 0.1402 0.0263
loop_
_geom_bond_atom_site_label_1
_geom_bond_atom_site_label_2
_geom_bond_site_symmetry_1
_geom_bond_site_symmetry_2
Cl1 C9 1_555 1_555
C1 C2 1_555 1_555
C2 C6 1_555 1_555
C3 C1 1_555 1_555
O1 B1 1_555 1_555
C4 C1 1_555 1_555
H1 C4 1_555 1_555
C5 C1 1_555 1_555
H2 C5 1_555 1_555
C6 H3 1_555 1_555
B1 C7 1_555 1_555
C7 C3 1_555 1_555
H4 C7 1_555 1_555
O2 B1 1_555 1_555
C8 C2 1_555 1_555
H5 C8 1_555 1_555
C9 C12 1_555 1_555
C10 C3 1_555 1_555
H6 C10 1_555 1_555
C11 C4 1_555 1_555
H7 C11 1_555 1_555
C12 C8 1_555 1_555
H8 C12 1_555 1_555
C13 C11 1_555 1_555
H9 C13 1_555 1_555
H10 C13 1_555 1_555
C14 C6 1_555 1_555
H11 C14 1_555 1_555
C15 C5 1_555 1_555
H12 C15 1_555 1_555
C16 H13 1_555 1_555
H14 C16 1_555 1_555
C17 C10 1_555 1_555
H15 C17 1_555 1_555
C18 O1 1_555 1_555
C19 C7 1_555 1_555
H16 C19 1_555 1_555
C20 C17 1_555 1_555
H17 C20 1_555 1_555
H18 C20 1_555 1_555
C21 C11 1_555 1_555
H19 C21 1_555 1_555
H20 C21 1_555 1_555
C22 C15 1_555 1_555
H21 C22 1_555 1_555
H22 C22 1_555 1_555
C23 O2 1_555 1_555
C24 C19 1_555 1_555
H23 C24 1_555 1_555
H24 C24 1_555 1_555
C25 C18 1_555 1_555
H25 C25 1_555 1_555
H26 C25 1_555 1_555
H27 C25 1_555 1_555
C26 C23 1_555 1_555
H28 C26 1_555 1_555
H29 C26 1_555 1_555
H30 C26 1_555 1_555
C27 C18 1_555 1_555
H31 C27 1_555 1_555
H32 C27 1_555 1_555
H33 C27 1_555 1_555
C28 C23 1_555 1_555
H34 C28 1_555 1_555
H35 C28 1_555 1_555
H36 C28 1_555 1_555
C4 C5 1_555 1_555
C9 C14 1_555 1_555
C13 C15 1_555 1_555
C16 C17 1_555 1_555
C16 C19 1_555 1_555
C18 C23 1_555 1_555
C20 C24 1_555 1_555
C21 C22 1_555 1_555

#END
