
#######################################################################
#
#                 Cambridge Crystallographic Data Centre
#                                CCDC 
#
#######################################################################
#
# If this CIF has been generated from an entry in the Cambridge 
# Structural Database, then it will include bibliographic, chemical, 
# crystal, experimental, refinement or atomic coordinate data resulting 
# from the CCDC's data processing and validation procedures.
#
#######################################################################

data_TELQEJ
_chemical_formula_moiety         'C26 H18 F1 N3 O2'
_chemical_name_systematic        
8-fluoro-7-(methoxymethyl)-5-(quinolin-8-yl)-5,7-dihydro-6H-indolo[2,3-c]quinolin-6-one
_symmetry_cell_setting           monoclinic
_symmetry_space_group_name_H-M   'P 21/c'
_symmetry_Int_Tables_number      14
_space_group_name_Hall           '-P 2ybc'
loop_
_symmetry_equiv_pos_site_id
_symmetry_equiv_pos_as_xyz
1 x,y,z
2 -x,1/2+y,1/2-z
3 -x,-y,-z
4 x,1/2-y,1/2+z
_cell_length_a                   18.9157(7)
_cell_length_b                   8.9179(4)
_cell_length_c                   11.8376(5)
_cell_angle_alpha                90
_cell_angle_beta                 100.847(2)
_cell_angle_gamma                90
_cell_volume                     1961.19
_exptl_crystal_colour            colorless
_exptl_crystal_description       block
_cell_formula_units_Z            4
loop_
_atom_site_label
_atom_site_type_symbol
_atom_site_fract_x
_atom_site_fract_y
_atom_site_fract_z
C1 C 0.09260(8) 0.82260(19) -0.18524(12)
C2 C 0.06850(9) 0.6845(2) -0.22310(13)
H1 H 0.0397 0.6736 -0.2955
C3 C 0.08710(9) 0.5585(2) -0.15303(14)
H2 H 0.0697 0.4647 -0.1791
C4 C 0.13060(8) 0.57110(18) -0.04624(13)
H3 H 0.1427 0.4867 -0.0005
C5 C 0.15653(7) 0.71332(17) -0.00733(11)
C6 C 0.13562(7) 0.84078(17) -0.07600(12)
C7 C 0.20402(7) 0.92280(16) 0.08593(11)
C8 C 0.20247(7) 0.76866(16) 0.09557(11)
C9 C 0.24393(7) 0.69523(16) 0.19494(11)
C10 C 0.24947(8) 0.53925(16) 0.21101(12)
H4 H 0.2253 0.4762 0.1540
C11 C 0.28973(8) 0.47737(17) 0.30878(13)
H5 H 0.2940 0.3738 0.3162
C12 C 0.32417(8) 0.57081(17) 0.39671(13)
H6 H 0.3497 0.5296 0.4644
C13 C 0.32036(8) 0.72419(17) 0.38312(12)
H7 H 0.3433 0.7860 0.4420
C14 C 0.28241(7) 0.78786(15) 0.28175(12)
C15 C 0.24426(7) 1.02075(16) 0.17261(12)
C16 C 0.33039(7) 1.03426(15) 0.34838(11)
C17 C 0.40139(8) 1.05689(15) 0.32782(12)
C18 C 0.48818(9) 1.01839(19) 0.22031(16)
H8 H 0.5025 0.9749 0.1569
C19 C 0.53903(9) 1.1040(2) 0.29365(19)
H9 H 0.5852 1.1172 0.2789
C20 C 0.51922(9) 1.16736(19) 0.38672(17)
H10 H 0.5519 1.2261 0.4364
C21 C 0.44917(8) 1.14477(16) 0.40884(13)
C22 C 0.42540(10) 1.20441(18) 0.50545(14)
H11 H 0.4568 1.2616 0.5583
C23 C 0.35713(10) 1.17957(18) 0.52257(13)
H12 H 0.3422 1.2191 0.5869
C24 C 0.30931(8) 1.09379(17) 0.44243(12)
H13 H 0.2626 1.0776 0.4540
C25 C 0.14910(8) 1.12221(17) -0.06056(13)
H14 H 0.1821 1.1899 -0.0128
H15 H 0.1579 1.1293 -0.1385
C26 C 0.06242(10) 1.1862(2) 0.05293(15)
H16 H 0.0610 1.0898 0.0885
H17 H 0.0166 1.2347 0.0474
H18 H 0.0991 1.2467 0.0985
F1 F 0.07492(5) 0.94377(12) -0.25343(8)
N1 N 0.16361(6) 0.96884(14) -0.01895(10)
N2 N 0.28164(6) 0.94445(13) 0.26721(9)
N3 N 0.42129(7) 0.99394(14) 0.23357(11)
O1 O 0.24702(6) 1.15831(11) 0.16731(9)
O2 O 0.07815(6) 1.16764(13) -0.05936(9)
loop_
_geom_bond_atom_site_label_1
_geom_bond_atom_site_label_2
_geom_bond_site_symmetry_1
_geom_bond_site_symmetry_2
C1 C2 1_555 1_555
C2 H1 1_555 1_555
C3 C2 1_555 1_555
H2 C3 1_555 1_555
C4 C3 1_555 1_555
H3 C4 1_555 1_555
C5 C4 1_555 1_555
C6 C1 1_555 1_555
C7 C8 1_555 1_555
C8 C5 1_555 1_555
C9 C8 1_555 1_555
C10 C9 1_555 1_555
H4 C10 1_555 1_555
C11 C10 1_555 1_555
H5 C11 1_555 1_555
C12 C11 1_555 1_555
H6 C12 1_555 1_555
C13 C12 1_555 1_555
H7 C13 1_555 1_555
C14 C9 1_555 1_555
C15 C7 1_555 1_555
C16 C17 1_555 1_555
C17 C21 1_555 1_555
C18 H8 1_555 1_555
C19 C18 1_555 1_555
H9 C19 1_555 1_555
C20 C19 1_555 1_555
H10 C20 1_555 1_555
C21 C20 1_555 1_555
C22 C21 1_555 1_555
H11 C22 1_555 1_555
C23 C22 1_555 1_555
H12 C23 1_555 1_555
C24 C16 1_555 1_555
H13 C24 1_555 1_555
C25 H14 1_555 1_555
H15 C25 1_555 1_555
C26 H16 1_555 1_555
H17 C26 1_555 1_555
H18 C26 1_555 1_555
F1 C1 1_555 1_555
N1 C6 1_555 1_555
N2 C14 1_555 1_555
N3 C17 1_555 1_555
O1 C15 1_555 1_555
O2 C25 1_555 1_555
C5 C6 1_555 1_555
C7 N1 1_555 1_555
C13 C14 1_555 1_555
C15 N2 1_555 1_555
C16 N2 1_555 1_555
C18 N3 1_555 1_555
C23 C24 1_555 1_555
C25 N1 1_555 1_555
C26 O2 1_555 1_555

#END
