
#######################################################################
#
#                 Cambridge Crystallographic Data Centre
#                                CCDC 
#
#######################################################################
#
# If this CIF has been generated from an entry in the Cambridge 
# Structural Database, then it will include bibliographic, chemical, 
# crystal, experimental, refinement or atomic coordinate data resulting 
# from the CCDC's data processing and validation procedures.
#
#######################################################################

data_TELRAD
_chemical_formula_moiety         'C10 H7 F4 N1 O1'
_chemical_name_systematic        
5,5,8,8-Tetrafluoro-6-methoxy-5,8-dihydroquinoline
_symmetry_cell_setting           monoclinic
_symmetry_space_group_name_H-M   'P 21'
_symmetry_Int_Tables_number      4
_space_group_name_Hall           'P 2yb'
loop_
_symmetry_equiv_pos_site_id
_symmetry_equiv_pos_as_xyz
1 x,y,z
2 -x,1/2+y,-z
_cell_length_a                   4.770(1)
_cell_length_b                   11.725(2)
_cell_length_c                   8.9911(8)
_cell_angle_alpha                90
_cell_angle_beta                 99.64(1)
_cell_angle_gamma                90
_cell_volume                     495.756
_exptl_crystal_colour            colorless
_cell_formula_units_Z            2
loop_
_atom_site_label
_atom_site_type_symbol
_atom_site_fract_x
_atom_site_fract_y
_atom_site_fract_z
F1 F 0.3527(4) 0.1014(2) 0.5002(2)
F2 F -0.0836(4) 0.0894(2) 0.3889(2)
F3 F 0.6672(3) 0.1583(2) 0.0566(2)
F4 F 0.2411(4) 0.1479(2) -0.0702(2)
O1 O 0.2350(5) -0.0901(2) 0.3333(2)
N1 N 0.3196(6) 0.3444(2) 0.1012(3)
C1 C 0.2372(8) 0.4329(3) 0.1742(4)
C2 C 0.1342(9) 0.4242(3) 0.3094(4)
C3 C 0.1194(7) 0.3186(3) 0.3716(3)
C4 C 0.1865(6) 0.1068(3) 0.3598(3)
C5 C 0.2674(6) 0.0108(3) 0.2663(3)
C6 C 0.3579(6) 0.0281(3) 0.1364(3)
C7 C 0.3886(6) 0.1429(3) 0.0751(3)
C8 C 0.3019(6) 0.2419(3) 0.1629(3)
C9 C 0.2030(6) 0.2242(3) 0.2970(3)
C10 C 0.307(1) -0.1896(3) 0.2560(4)
H1 H 0.2493 0.5066 0.1319
H2 H 0.0753 0.4901 0.3573
H3 H 0.0529 0.3099 0.4649
H4 H 0.4047 -0.0361 0.0810
H5 H 0.2778 -0.2556 0.3128
H6 H 0.1909 -0.1937 0.1595
H7 H 0.5014 -0.1858 0.2444
loop_
_geom_bond_atom_site_label_1
_geom_bond_atom_site_label_2
_geom_bond_site_symmetry_1
_geom_bond_site_symmetry_2
F1 C4 1_555 1_555
F2 C4 1_555 1_555
F3 C7 1_555 1_555
F4 C7 1_555 1_555
O1 C5 1_555 1_555
N1 C1 1_555 1_555
C1 C2 1_555 1_555
C2 C3 1_555 1_555
C3 C9 1_555 1_555
C4 C5 1_555 1_555
C5 C6 1_555 1_555
C6 C7 1_555 1_555
C7 C8 1_555 1_555
C8 N1 1_555 1_555
C9 C4 1_555 1_555
C10 O1 1_555 1_555
H1 C1 1_555 1_555
H2 C2 1_555 1_555
H3 C3 1_555 1_555
H4 C6 1_555 1_555
H5 C10 1_555 1_555
H6 C10 1_555 1_555
H7 C10 1_555 1_555
C8 C9 1_555 1_555

#END
