
#######################################################################
#
#                 Cambridge Crystallographic Data Centre
#                                CCDC 
#
#######################################################################
#
# If this CIF has been generated from an entry in the Cambridge 
# Structural Database, then it will include bibliographic, chemical, 
# crystal, experimental, refinement or atomic coordinate data resulting 
# from the CCDC's data processing and validation procedures.
#
#######################################################################

data_TELRAG02
_chemical_formula_moiety         'C35 H26 N2'
_chemical_name_systematic        
4-(2-(4-(2-(4-(diphenylamino)phenyl)vinyl)phenyl)vinyl)benzonitrile
_symmetry_cell_setting           triclinic
_symmetry_space_group_name_H-M   'P -1'
_symmetry_Int_Tables_number      2
_space_group_name_Hall           '-P 1'
loop_
_symmetry_equiv_pos_site_id
_symmetry_equiv_pos_as_xyz
1 x,y,z
2 -x,-y,-z
_cell_length_a                   10.0380(12)
_cell_length_b                   10.0970(11)
_cell_length_c                   28.063(4)
_cell_angle_alpha                82.681(8)
_cell_angle_beta                 86.973(8)
_cell_angle_gamma                63.602(5)
_cell_volume                     2526.93
_exptl_crystal_colour            orange
_exptl_crystal_description       plate
_cell_formula_units_Z            4
loop_
_atom_site_label
_atom_site_type_symbol
_atom_site_fract_x
_atom_site_fract_y
_atom_site_fract_z
N1 N 0.5792(2) 0.7999(2) 0.83989(8)
N2 N -0.1816(3) 0.6716(3) 0.21594(10)
C1 C 0.5014(3) 0.8982(3) 0.87428(10)
C2 C 0.4330(3) 1.0511(3) 0.86005(10)
H1 H 0.4387 1.0875 0.8282
C3 C 0.3564(3) 1.1489(3) 0.89335(12)
H2 H 0.3097 1.2507 0.8836
C4 C 0.3488(3) 1.0968(4) 0.94092(12)
H3 H 0.2982 1.1628 0.9632
C5 C 0.4176(4) 0.9454(4) 0.95473(11)
H4 H 0.4137 0.9096 0.9867
C6 C 0.4922(3) 0.8460(3) 0.92196(10)
H5 H 0.5363 0.7443 0.9318
C7 C 0.7019(3) 0.6582(3) 0.85327(9)
C8 C 0.8150(3) 0.6445(3) 0.88264(11)
H6 H 0.8101 0.7274 0.8952
C9 C 0.9360(3) 0.5064(3) 0.89324(12)
H7 H 1.0113 0.4974 0.9132
C10 C 0.9456(3) 0.3829(3) 0.87455(11)
H8 H 1.0289 0.2918 0.8805
C11 C 0.8310(3) 0.3957(3) 0.84705(11)
H9 H 0.8352 0.3117 0.8354
C12 C 0.7087(3) 0.5320(3) 0.83627(10)
H10 H 0.6314 0.5389 0.8177
C13 C 0.5192(3) 0.8240(3) 0.79304(9)
C14 C 0.3671(3) 0.8769(3) 0.78577(9)
H11 H 0.3011 0.9096 0.8110
C15 C 0.3150(3) 0.8805(3) 0.74088(9)
H12 H 0.2134 0.9141 0.7365
C16 C 0.4100(3) 0.8351(3) 0.70158(9)
C17 C 0.5618(3) 0.7916(3) 0.70927(10)
H13 H 0.6274 0.7657 0.6836
C18 C 0.6152(3) 0.7866(3) 0.75379(10)
H14 H 0.7160 0.7581 0.7579
C19 C 0.3475(3) 0.8317(3) 0.65642(9)
H15 H 0.2446 0.8685 0.6555
C20 C 0.4196(3) 0.7822(3) 0.61589(9)
H16 H 0.5218 0.7511 0.6153
C21 C 0.3504(3) 0.7732(3) 0.57273(9)
C22 C 0.1965(3) 0.8321(3) 0.56663(9)
H17 H 0.1335 0.8810 0.5907
C23 C 0.1367(3) 0.8188(3) 0.52538(9)
H18 H 0.0339 0.8574 0.5226
C24 C 0.2265(3) 0.7486(3) 0.48759(9)
C25 C 0.3797(3) 0.6898(3) 0.49375(10)
H19 H 0.4426 0.6419 0.4694
C26 C 0.4400(3) 0.7011(3) 0.53530(9)
H20 H 0.5429 0.6597 0.5384
C27 C 0.1547(3) 0.7437(3) 0.44440(9)
H21 H 0.0516 0.7825 0.4455
C28 C 0.2179(3) 0.6907(3) 0.40354(10)
H22 H 0.3209 0.6506 0.4014
C29 C 0.1351(3) 0.6917(3) 0.36190(9)
C30 C -0.0193(3) 0.7780(3) 0.35737(10)
H23 H -0.0702 0.8396 0.3808
C31 C -0.0969(3) 0.7737(3) 0.31917(10)
H24 H -0.1993 0.8313 0.3170
C32 C -0.0219(3) 0.6830(3) 0.28374(9)
C33 C 0.1314(3) 0.5989(3) 0.28659(10)
H25 H 0.1822 0.5398 0.2626
C34 C 0.2079(3) 0.6040(3) 0.32544(10)
H26 H 0.3106 0.5474 0.3272
C35 C -0.1084(3) 0.6767(3) 0.24492(10)
N3 N 1.0544(2) -0.1682(2) 0.86562(8)
N4 N 0.4269(4) -0.3157(4) 0.21522(11)
C36 C 0.9640(3) -0.0462(3) 0.89193(9)
C37 C 0.8093(3) 0.0154(3) 0.89033(9)
H27 H 0.7629 -0.0175 0.8701
C38 C 0.7248(3) 0.1254(3) 0.91878(10)
H28 H 0.6215 0.1666 0.9174
C39 C 0.7926(3) 0.1750(3) 0.94931(10)
H29 H 0.7354 0.2474 0.9690
C40 C 0.9460(3) 0.1156(3) 0.95022(10)
H30 H 0.9919 0.1495 0.9703
C41 C 1.0317(3) 0.0067(3) 0.92175(10)
H31 H 1.1348 -0.0315 0.9224
C42 C 1.1633(3) -0.2959(3) 0.89299(9)
C43 C 1.1336(3) -0.3333(3) 0.94043(10)
H32 H 1.0411 -0.2777 0.9535
C44 C 1.2404(3) -0.4528(3) 0.96829(10)
H33 H 1.2197 -0.4761 1.0001
C45 C 1.3776(3) -0.5377(3) 0.94926(12)
H34 H 1.4491 -0.6179 0.9681
C46 C 1.4079(3) -0.5026(3) 0.90202(12)
H35 H 1.4999 -0.5598 0.8890
C47 C 1.3012(3) -0.3819(3) 0.87386(10)
H36 H 1.3224 -0.3588 0.8421
C48 C 1.0226(3) -0.1624(3) 0.81707(9)
C49 C 0.9492(3) -0.0254(3) 0.78890(9)
H37 H 0.9249 0.0621 0.8023
C50 C 0.9124(3) -0.0178(3) 0.74158(9)
H38 H 0.8627 0.0750 0.7239
C51 C 0.9477(3) -0.1457(3) 0.71962(9)
C52 C 1.0247(3) -0.2831(3) 0.74764(9)
H39 H 1.0521 -0.3704 0.7338
C53 C 1.0608(3) -0.2923(3) 0.79508(9)
H40 H 1.1109 -0.3851 0.8127
C54 C 0.8994(3) -0.1332(3) 0.67021(9)
H41 H 0.8556 -0.0377 0.6538
C55 C 0.9114(3) -0.2435(3) 0.64621(9)
H42 H 0.9609 -0.3394 0.6620
C56 C 0.8558(3) -0.2314(3) 0.59790(9)
C57 C 0.7674(3) -0.0957(3) 0.57076(9)
H43 H 0.7412 -0.0069 0.5836
C58 C 0.7185(3) -0.0918(3) 0.52525(9)
H44 H 0.6611 -0.0002 0.5079
C59 C 0.7529(3) -0.2218(3) 0.50456(9)
C60 C 0.8412(3) -0.3572(3) 0.53141(10)
H45 H 0.8676 -0.4459 0.5185
C61 C 0.8898(3) -0.3607(3) 0.57702(10)
H46 H 0.9469 -0.4525 0.5943
C62 C 0.6947(3) -0.2111(3) 0.45639(10)
H47 H 0.6448 -0.1160 0.4402
C63 C 0.7064(3) -0.3237(3) 0.43382(10)
H48 H 0.7595 -0.4187 0.4497
C64 C 0.6450(3) -0.3150(3) 0.38674(10)
C65 C 0.5505(3) -0.1814(3) 0.35948(10)
H49 H 0.5246 -0.0914 0.3714
C66 C 0.4957(3) -0.1809(3) 0.31569(10)
H50 H 0.4320 -0.0912 0.2987
C67 C 0.5351(3) -0.3142(3) 0.29653(10)
C68 C 0.6277(3) -0.4471(3) 0.32296(11)
H51 H 0.6542 -0.5369 0.3107
C69 C 0.6803(3) -0.4466(3) 0.36708(11)
H52 H 0.7414 -0.5369 0.3844
C70 C 0.4765(4) -0.3145(4) 0.25098(11)
loop_
_geom_bond_atom_site_label_1
_geom_bond_atom_site_label_2
_geom_bond_site_symmetry_1
_geom_bond_site_symmetry_2
N1 C1 1_555 1_555
N2 C35 1_555 1_555
C1 C2 1_555 1_555
C2 H1 1_555 1_555
C3 C2 1_555 1_555
H2 C3 1_555 1_555
C4 C3 1_555 1_555
H3 C4 1_555 1_555
C5 C4 1_555 1_555
H4 C5 1_555 1_555
C6 C1 1_555 1_555
H5 C6 1_555 1_555
C7 N1 1_555 1_555
C8 C7 1_555 1_555
H6 C8 1_555 1_555
C9 C8 1_555 1_555
H7 C9 1_555 1_555
C10 C9 1_555 1_555
H8 C10 1_555 1_555
C11 C10 1_555 1_555
H9 C11 1_555 1_555
C12 C7 1_555 1_555
H10 C12 1_555 1_555
C13 N1 1_555 1_555
C14 C13 1_555 1_555
H11 C14 1_555 1_555
C15 C14 1_555 1_555
H12 C15 1_555 1_555
C16 C15 1_555 1_555
C17 C16 1_555 1_555
H13 C17 1_555 1_555
C18 C13 1_555 1_555
H14 C18 1_555 1_555
C19 C16 1_555 1_555
H15 C19 1_555 1_555
C20 C19 1_555 1_555
H16 C20 1_555 1_555
C21 C20 1_555 1_555
C22 C21 1_555 1_555
H17 C22 1_555 1_555
C23 C22 1_555 1_555
H18 C23 1_555 1_555
C24 C23 1_555 1_555
C25 C24 1_555 1_555
H19 C25 1_555 1_555
C26 C21 1_555 1_555
H20 C26 1_555 1_555
C27 C24 1_555 1_555
H21 C27 1_555 1_555
C28 C27 1_555 1_555
H22 C28 1_555 1_555
C29 C28 1_555 1_555
C30 C29 1_555 1_555
H23 C30 1_555 1_555
C31 C30 1_555 1_555
H24 C31 1_555 1_555
C32 C31 1_555 1_555
C33 C32 1_555 1_555
H25 C33 1_555 1_555
C34 C29 1_555 1_555
H26 C34 1_555 1_555
C35 C32 1_555 1_555
N3 C36 1_555 1_555
N4 C70 1_555 1_555
C36 C37 1_555 1_555
C37 H27 1_555 1_555
C38 C37 1_555 1_555
H28 C38 1_555 1_555
C39 C38 1_555 1_555
H29 C39 1_555 1_555
C40 C39 1_555 1_555
H30 C40 1_555 1_555
C41 C36 1_555 1_555
H31 C41 1_555 1_555
C42 N3 1_555 1_555
C43 C42 1_555 1_555
H32 C43 1_555 1_555
C44 C43 1_555 1_555
H33 C44 1_555 1_555
C45 C44 1_555 1_555
H34 C45 1_555 1_555
C46 C45 1_555 1_555
H35 C46 1_555 1_555
C47 C42 1_555 1_555
H36 C47 1_555 1_555
C48 N3 1_555 1_555
C49 C48 1_555 1_555
H37 C49 1_555 1_555
C50 C49 1_555 1_555
H38 C50 1_555 1_555
C51 C50 1_555 1_555
C52 C51 1_555 1_555
H39 C52 1_555 1_555
C53 C48 1_555 1_555
H40 C53 1_555 1_555
C54 C51 1_555 1_555
H41 C54 1_555 1_555
C55 C54 1_555 1_555
H42 C55 1_555 1_555
C56 C55 1_555 1_555
C57 C56 1_555 1_555
H43 C57 1_555 1_555
C58 C57 1_555 1_555
H44 C58 1_555 1_555
C59 C58 1_555 1_555
C60 C59 1_555 1_555
H45 C60 1_555 1_555
C61 C56 1_555 1_555
H46 C61 1_555 1_555
C62 C59 1_555 1_555
H47 C62 1_555 1_555
C63 C62 1_555 1_555
H48 C63 1_555 1_555
C64 C63 1_555 1_555
C65 C64 1_555 1_555
H49 C65 1_555 1_555
C66 C65 1_555 1_555
H50 C66 1_555 1_555
C67 C66 1_555 1_555
C68 C67 1_555 1_555
H51 C68 1_555 1_555
C69 C64 1_555 1_555
H52 C69 1_555 1_555
C70 C67 1_555 1_555
C5 C6 1_555 1_555
C11 C12 1_555 1_555
C17 C18 1_555 1_555
C25 C26 1_555 1_555
C33 C34 1_555 1_555
C40 C41 1_555 1_555
C46 C47 1_555 1_555
C52 C53 1_555 1_555
C60 C61 1_555 1_555
C68 C69 1_555 1_555

#END
