
#######################################################################
#
#                 Cambridge Crystallographic Data Centre
#                                CCDC 
#
#######################################################################
#
# If this CIF has been generated from an entry in the Cambridge 
# Structural Database, then it will include bibliographic, chemical, 
# crystal, experimental, refinement or atomic coordinate data resulting 
# from the CCDC's data processing and validation procedures.
#
#######################################################################

data_TELSAE
_chemical_formula_moiety         'C10 H14 F6'
_chemical_name_systematic        
trans-1,4-bis(Difluoromethyl)-1,4-bis(fluromethyl)cyclohexane
_symmetry_cell_setting           monoclinic
_symmetry_space_group_name_H-M   'C 2/c'
_symmetry_Int_Tables_number      15
_space_group_name_Hall           '-C 2yn'
loop_
_symmetry_equiv_pos_site_id
_symmetry_equiv_pos_as_xyz
1 x,y,z
2 -x,y,1/2-z
3 1/2+x,1/2+y,z
4 1/2-x,1/2+y,1/2-z
5 -x,-y,-z
6 x,-y,1/2+z
7 1/2-x,1/2-y,-z
8 1/2+x,1/2-y,1/2+z
_cell_length_a                   8.807(3)
_cell_length_b                   11.447(3)
_cell_length_c                   10.644(3)
_cell_angle_alpha                90
_cell_angle_beta                 98.54(3)
_cell_angle_gamma                90
_cell_volume                     1061.16
_exptl_crystal_colour            'pale yellow'
_cell_formula_units_Z            4
loop_
_atom_site_label
_atom_site_type_symbol
_atom_site_fract_x
_atom_site_fract_y
_atom_site_fract_z
F1 F 0.6985(1) 0.3745(1) 0.00942(9)
F2 F 0.8645(1) 0.4724(1) 0.1401(1)
F3 F 0.8559(1) 0.2745(1) 0.3753(1)
C1 C 0.5669(2) 0.4845(1) 0.2110(1)
C2 C 0.6659(2) 0.3736(1) 0.2281(1)
C3 C 0.5644(2) 0.2636(1) 0.2085(2)
C4 C 0.7768(2) 0.3728(2) 0.1312(2)
C5 C 0.7627(2) 0.3749(2) 0.3595(2)
H1 H 0.631(2) 0.557(1) 0.228(2)
H2 H 0.525(2) 0.494(1) 0.126(1)
H3 H 0.628(2) 0.194(1) 0.222(2)
H4 H 0.517(2) 0.258(1) 0.122(2)
H5 H 0.844(2) 0.305(2) 0.132(2)
H6 H 0.837(2) 0.443(1) 0.364(1)
H7 H 0.696(2) 0.372(2) 0.437(2)
C1A C 0.4331(2) 0.4845(1) 0.2890(1)
C2A C 0.3341(2) 0.3736(1) 0.2719(1)
C3A C 0.4356(2) 0.2636(1) 0.2915(2)
H3A H 0.372(2) 0.194(1) 0.278(2)
H4A H 0.483(2) 0.258(1) 0.378(2)
C4A C 0.2232(2) 0.3728(2) 0.3688(2)
F1A F 0.3015(1) 0.3745(1) 0.49058(9)
F2A F 0.1355(1) 0.4724(1) 0.3599(1)
H5A H 0.156(2) 0.305(2) 0.368(2)
C5A C 0.2373(2) 0.3749(2) 0.1405(2)
F3A F 0.1441(1) 0.2745(1) 0.1247(1)
H6A H 0.163(2) 0.443(1) 0.136(1)
H7A H 0.304(2) 0.372(2) 0.063(2)
H1A H 0.369(2) 0.557(1) 0.272(2)
H2A H 0.475(2) 0.494(1) 0.374(1)
loop_
_geom_bond_atom_site_label_1
_geom_bond_atom_site_label_2
_geom_bond_site_symmetry_1
_geom_bond_site_symmetry_2
F1 C4 1_555 1_555
F2 C4 1_555 1_555
F3 C5 1_555 1_555
C1 C2 1_555 1_555
C2 C3 1_555 1_555
C3 H3 1_555 1_555
C4 C2 1_555 1_555
C5 C2 1_555 1_555
H1 C1 1_555 1_555
H2 C1 1_555 1_555
H4 C3 1_555 1_555
H5 C4 1_555 1_555
H6 C5 1_555 1_555
H7 C5 1_555 1_555
C1A C1 1_555 1_555
C2A C1A 1_555 1_555
C3A C3 1_555 1_555
H3A C3A 1_555 1_555
H4A C3A 1_555 1_555
C4A C2A 1_555 1_555
F1A C4A 1_555 1_555
F2A C4A 1_555 1_555
H5A C4A 1_555 1_555
C5A C2A 1_555 1_555
F3A C5A 1_555 1_555
H6A C5A 1_555 1_555
H7A C5A 1_555 1_555
H1A C1A 1_555 1_555
H2A C1A 1_555 1_555
C2A C3A 1_555 1_555

#END
