
#######################################################################
#
#                 Cambridge Crystallographic Data Centre
#                                CCDC 
#
#######################################################################
#
# If this CIF has been generated from an entry in the Cambridge 
# Structural Database, then it will include bibliographic, chemical, 
# crystal, experimental, refinement or atomic coordinate data resulting 
# from the CCDC's data processing and validation procedures.
#
#######################################################################

data_TELSOS
_chemical_formula_moiety         'C12 H18 N2 S2'
_chemical_name_systematic        
(8R,8aS)-Indolizidine-1-spiro-2'-(1',3'-dithiane)-8-carbonitrile
_symmetry_cell_setting           monoclinic
_symmetry_space_group_name_H-M   'P 21/n'
_symmetry_Int_Tables_number      14
_space_group_name_Hall           '-P 2yn'
loop_
_symmetry_equiv_pos_site_id
_symmetry_equiv_pos_as_xyz
1 x,y,z
2 1/2-x,1/2+y,1/2-z
3 -x,-y,-z
4 1/2+x,1/2-y,1/2+z
_cell_length_a                   10.513(3)
_cell_length_b                   11.182(2)
_cell_length_c                   11.206(2)
_cell_angle_alpha                90
_cell_angle_beta                 97.18(2)
_cell_angle_gamma                90
_cell_volume                     1307.01
_exptl_crystal_colour            white
_cell_formula_units_Z            4
loop_
_atom_site_label
_atom_site_type_symbol
_atom_site_fract_x
_atom_site_fract_y
_atom_site_fract_z
S1 S 0.46482(9) 0.06809(8) 0.17378(8)
S2 S 0.3473(1) 0.30739(7) 0.21052(7)
N1 N 0.2379(2) 0.1821(2) -0.0841(2)
N2 N 0.2944(4) 0.5086(3) -0.0264(3)
C1 C 0.3390(3) 0.1726(2) 0.1189(2)
C2 C 0.2042(4) 0.1156(4) 0.1047(3)
C3 C 0.1804(4) 0.0818(3) -0.0276(3)
C4 C 0.2497(4) 0.1668(4) -0.2119(3)
C5 C 0.3143(4) 0.2742(4) -0.2582(3)
C6 C 0.4413(4) 0.3024(4) -0.1835(3)
C7 C 0.4246(3) 0.3140(3) -0.0484(3)
C8 C 0.3627(3) 0.1978(3) -0.0129(2)
C9 C 0.3495(3) 0.4214(3) -0.0323(3)
C10 C 0.4404(5) 0.0470(4) 0.3295(3)
C11 C 0.4426(4) 0.1601(4) 0.4016(3)
C12 C 0.3342(5) 0.2433(4) 0.3574(3)
H1 H 0.210(4) 0.045(4) 0.155(4)
H2 H 0.140(4) 0.175(4) 0.117(4)
H3 H 0.232(4) 0.002(4) -0.042(3)
H4 H 0.089(4) 0.075(3) -0.056(3)
H5 H 0.301(4) 0.091(3) -0.227(4)
H6 H 0.156(4) 0.158(3) -0.245(3)
H7 H 0.325(4) 0.257(5) -0.338(4)
H8 H 0.261(4) 0.343(4) -0.251(4)
H9 H 0.480(3) 0.375(4) -0.204(3)
H10 H 0.505(3) 0.232(4) -0.187(3)
H11 H 0.426(3) 0.142(3) -0.034(3)
H12 H 0.504(3) 0.323(3) 0.001(3)
H13 H 0.362(4) 0.007(4) 0.330(4)
H14 H 0.513(5) -0.004(5) 0.349(4)
H15 H 0.432(4) 0.138(4) 0.490(4)
H16 H 0.525(4) 0.204(4) 0.409(4)
H17 H 0.256(3) 0.212(3) 0.350(3)
H18 H 0.321(4) 0.312(4) 0.415(4)
loop_
_geom_bond_atom_site_label_1
_geom_bond_atom_site_label_2
_geom_bond_site_symmetry_1
_geom_bond_site_symmetry_2
S1 C1 1_555 1_555
S2 C1 1_555 1_555
N1 C3 1_555 1_555
N2 C9 1_555 1_555
C1 C2 1_555 1_555
C2 C3 1_555 1_555
C3 H3 1_555 1_555
C4 N1 1_555 1_555
C5 C4 1_555 1_555
C6 C5 1_555 1_555
C7 C6 1_555 1_555
C8 N1 1_555 1_555
C9 C7 1_555 1_555
C10 S1 1_555 1_555
C11 C10 1_555 1_555
C12 S2 1_555 1_555
H1 C2 1_555 1_555
H2 C2 1_555 1_555
H4 C3 1_555 1_555
H5 C4 1_555 1_555
H6 C4 1_555 1_555
H7 C5 1_555 1_555
H8 C5 1_555 1_555
H9 C6 1_555 1_555
H10 C6 1_555 1_555
H11 C8 1_555 1_555
H12 C7 1_555 1_555
H13 C10 1_555 1_555
H14 C10 1_555 1_555
H15 C11 1_555 1_555
H16 C11 1_555 1_555
H17 C12 1_555 1_555
H18 C12 1_555 1_555
C1 C8 1_555 1_555
C7 C8 1_555 1_555
C11 C12 1_555 1_555

#END
