
#######################################################################
#
#                 Cambridge Crystallographic Data Centre
#                                CCDC 
#
#######################################################################
#
# If this CIF has been generated from an entry in the Cambridge 
# Structural Database, then it will include bibliographic, chemical, 
# crystal, experimental, refinement or atomic coordinate data resulting 
# from the CCDC's data processing and validation procedures.
#
#######################################################################

data_TELWAL
_chemical_formula_moiety         'C21 H31 N1 O9'
_chemical_name_systematic        
N-(5,8-dihydroxy-2,3-dimethoxy-2,3-dimethyloctahydro-1,4-benzodioxin-6-yl)-3-(methoxymethoxy)benzamide
_symmetry_cell_setting           monoclinic
_symmetry_space_group_name_H-M   'P 21'
_symmetry_Int_Tables_number      4
_space_group_name_Hall           'P 2yb'
loop_
_symmetry_equiv_pos_site_id
_symmetry_equiv_pos_as_xyz
1 x,y,z
2 -x,1/2+y,-z
_cell_length_a                   6.46500(10)
_cell_length_b                   12.7607(2)
_cell_length_c                   13.6633(3)
_cell_angle_alpha                90
_cell_angle_beta                 90.191(2)
_cell_angle_gamma                90
_cell_volume                     1127.19
_exptl_crystal_colour            colorless
_exptl_crystal_description       plate
_cell_formula_units_Z            2
loop_
_atom_site_label
_atom_site_type_symbol
_atom_site_fract_x
_atom_site_fract_y
_atom_site_fract_z
C1 C 0.3036(3) 0.53522(17) 0.27192(15)
H1 H 0.3613 0.6058 0.2790
C2 C 0.4662(3) 0.46404(17) 0.22756(14)
H2 H 0.4079 0.3936 0.2203
C3 C 0.6596(3) 0.45752(17) 0.29080(15)
H3 H 0.7197 0.5276 0.2982
C4 C 0.5969(3) 0.41533(17) 0.39149(14)
H4 H 0.5420 0.3442 0.3836
C5 C 0.4288(3) 0.48496(17) 0.43719(14)
H5 H 0.3881 0.4554 0.4996
H6 H 0.4858 0.5541 0.4494
C6 C 0.2379(3) 0.49547(16) 0.37192(14)
H7 H 0.1775 0.4256 0.3635
O1 O 0.1272(2) 0.53955(12) 0.20785(10)
C7 C 0.1776(3) 0.57815(18) 0.11244(16)
C8 C 0.3505(3) 0.50930(18) 0.06748(15)
O2 O 0.5223(2) 0.50260(12) 0.13288(10)
O3 O 0.8075(2) 0.38932(13) 0.24795(11)
H8 H 0.911(4) 0.423(2) 0.2171(19)
N1 N 0.7757(2) 0.41165(15) 0.45659(12)
H9 H 0.859(4) 0.466(2) 0.4588(18)
O4 O 0.0855(2) 0.56138(13) 0.41462(11)
H10 H 0.130(5) 0.615(2) 0.437(2)
C9 C 0.8355(3) 0.32777(17) 0.50834(15)
C10 C 1.0135(3) 0.34863(17) 0.57664(15)
O5 O 0.7509(2) 0.24095(13) 0.50382(12)
C11 C 1.0098(3) 0.44004(18) 0.63261(15)
H11 H 0.9006 0.4871 0.6265
C12 C 1.1709(4) 0.4602(2) 0.69767(16)
C13 C 1.3333(4) 0.3896(2) 0.70688(19)
H12 H 1.4407 0.4031 0.7505
C14 C 1.3349(4) 0.2992(2) 0.6510(2)
H13 H 1.4440 0.2522 0.6572
C15 C 1.1749(3) 0.27786(19) 0.58545(17)
H14 H 1.1765 0.2169 0.5481
O6 O 1.1755(3) 0.54885(16) 0.75594(13)
C16 C 1.1102(5) 0.6435(3) 0.7126(2)
H15 H 1.1556 0.7002 0.7547
H16 H 1.1836 0.6509 0.6511
O7 O 0.9029(4) 0.6585(2) 0.69344(18)
C17 C 0.7929(11) 0.6731(7) 0.7822(5)
H17 H 0.6491 0.6843 0.7679
H18 H 0.8474 0.7330 0.8161
H19 H 0.8079 0.6120 0.8225
C18 C -0.0215(3) 0.5755(2) 0.05381(17)
H20 H -0.0657 0.5042 0.0458
H21 H 0.0013 0.6064 -0.0093
H22 H -0.1264 0.6143 0.0878
O8 O 0.2647(2) 0.67969(13) 0.11941(12)
C19 C 0.4363(3) 0.5529(2) -0.02723(16)
H23 H 0.4778 0.6244 -0.0175
H24 H 0.3317 0.5499 -0.0772
H25 H 0.5537 0.5121 -0.0470
O9 O 0.2579(2) 0.40977(13) 0.05515(11)
C20 C 0.1335(4) 0.7586(2) 0.1590(2)
H26 H 0.0265 0.7751 0.1127
H27 H 0.2133 0.8203 0.1727
H28 H 0.0722 0.7334 0.2185
C21 C 0.3868(5) 0.3316(2) 0.0135(2)
H29 H 0.4096 0.3472 -0.0543
H30 H 0.3210 0.2644 0.0193
H31 H 0.5170 0.3303 0.0475
H32? H 1.1021 0.6433 0.6417
H33? H 1.1737 0.7066 0.7383
O10? O 0.890(2) 0.6010(9) 0.7731(8)
C22? C 0.738(6) 0.673(4) 0.744(3)
H34? H 0.7791 0.7061 0.6842
H35? H 0.7223 0.7254 0.7942
H36? H 0.6091 0.6373 0.7347
loop_
_geom_bond_atom_site_label_1
_geom_bond_atom_site_label_2
_geom_bond_site_symmetry_1
_geom_bond_site_symmetry_2
C1 H1 1_555 1_555
C2 C1 1_555 1_555
H2 C2 1_555 1_555
C3 C2 1_555 1_555
H3 C3 1_555 1_555
C4 C3 1_555 1_555
H4 C4 1_555 1_555
C5 C4 1_555 1_555
H5 C5 1_555 1_555
H6 C5 1_555 1_555
C6 C1 1_555 1_555
H7 C6 1_555 1_555
O1 C1 1_555 1_555
C7 O1 1_555 1_555
C8 C7 1_555 1_555
O2 C2 1_555 1_555
O3 C3 1_555 1_555
H8 O3 1_555 1_555
N1 C4 1_555 1_555
H9 N1 1_555 1_555
O4 C6 1_555 1_555
H10 O4 1_555 1_555
C9 N1 1_555 1_555
C10 C9 1_555 1_555
O5 C9 1_555 1_555
C11 C10 1_555 1_555
H11 C11 1_555 1_555
C12 C11 1_555 1_555
C13 C12 1_555 1_555
H12 C13 1_555 1_555
C14 C13 1_555 1_555
H13 C14 1_555 1_555
C15 C10 1_555 1_555
H14 C15 1_555 1_555
O6 C12 1_555 1_555
C16 O6 1_555 1_555
H15 C16 1_555 1_555
H16 C16 1_555 1_555
O7 C16 1_555 1_555
C17 O7 1_555 1_555
H17 C17 1_555 1_555
H18 C17 1_555 1_555
H19 C17 1_555 1_555
C18 C7 1_555 1_555
H20 C18 1_555 1_555
H21 C18 1_555 1_555
H22 C18 1_555 1_555
O8 C7 1_555 1_555
C19 C8 1_555 1_555
H23 C19 1_555 1_555
H24 C19 1_555 1_555
H25 C19 1_555 1_555
O9 C8 1_555 1_555
C20 O8 1_555 1_555
H26 C20 1_555 1_555
H27 C20 1_555 1_555
H28 C20 1_555 1_555
C21 O9 1_555 1_555
H29 C21 1_555 1_555
H30 C21 1_555 1_555
H31 C21 1_555 1_555
C5 C6 1_555 1_555
C8 O2 1_555 1_555
C14 C15 1_555 1_555

#END
