
#######################################################################
#
#                 Cambridge Crystallographic Data Centre
#                                CCDC 
#
#######################################################################
#
# If this CIF has been generated from an entry in the Cambridge 
# Structural Database, then it will include bibliographic, chemical, 
# crystal, experimental, refinement or atomic coordinate data resulting 
# from the CCDC's data processing and validation procedures.
#
#######################################################################

data_TELXIU
_chemical_formula_moiety         'C40 H28 N3 O10 P3'
_chemical_name_systematic        
4,4',4'',4'''-[spiro[dibenzo[d,f][1,3,2]dioxaphosphepine-6,2'-[1,3,5,2,4,6]triazatriphosphinine]-4',4',6',6'-tetrayltetrakis(oxy)]tetrabenzaldehyde
_symmetry_cell_setting           monoclinic
_symmetry_space_group_name_H-M   'C 2/c'
_symmetry_Int_Tables_number      15
_space_group_name_Hall           '-C 2yn'
loop_
_symmetry_equiv_pos_site_id
_symmetry_equiv_pos_as_xyz
1 x,y,z
2 -x,y,1/2-z
3 1/2+x,1/2+y,z
4 1/2-x,1/2+y,1/2-z
5 -x,-y,-z
6 x,-y,1/2+z
7 1/2-x,1/2-y,-z
8 1/2+x,1/2-y,1/2+z
_cell_length_a                   32.3691(16)
_cell_length_b                   10.7492(2)
_cell_length_c                   13.1332(7)
_cell_angle_alpha                90
_cell_angle_beta                 125.578(7)
_cell_angle_gamma                90
_cell_volume                     3716.56
_exptl_crystal_colour            colorless
_exptl_crystal_description       prism
_cell_formula_units_Z            4
loop_
_atom_site_label
_atom_site_type_symbol
_atom_site_fract_x
_atom_site_fract_y
_atom_site_fract_z
C1 C 0.39125(8) 0.3337(2) 0.0572(2)
H1 H 0.3735 0.4044 0.0117
C2 C 0.36550(9) 0.2259(2) 0.0461(2)
H2 H 0.3302 0.2235 -0.0074
C3 C 0.39210(9) 0.1229(2) 0.1142(3)
H3 H 0.3748 0.0503 0.1059
C4 C 0.44445(9) 0.12598(18) 0.1951(2)
H4 H 0.4619 0.0557 0.2421
C5 C 0.47189(8) 0.23294(17) 0.20792(19)
C6 C 0.44343(8) 0.33485(17) 0.13615(19)
C7 C 0.54295(10) 0.7863(2) 0.5226(2)
C8 C 0.56244(12) 0.6753(2) 0.5849(3)
H5 H 0.5413 0.6076 0.5667
C9 C 0.61402(15) 0.6669(3) 0.6748(3)
H6 H 0.6279 0.5925 0.7178
C10 C 0.64567(13) 0.7686(3) 0.7023(3)
C11 C 0.62481(12) 0.8787(3) 0.6388(3)
H7 H 0.6457 0.9470 0.6571
C12 C 0.57340(11) 0.8885(2) 0.5486(2)
H8 H 0.5594 0.9629 0.5058
C13 C 0.7014(2) 0.7618(6) 0.7995(5)
H9 H 0.7126 0.6841 0.8371
C14 C 0.37139(9) 0.74268(19) 0.1778(2)
C15 C 0.34686(12) 0.6838(3) 0.0639(3)
H10 H 0.3597 0.6863 0.0164
C16 C 0.30203(12) 0.6200(3) 0.0216(3)
H11 H 0.2846 0.5794 -0.0552
C17 C 0.28356(10) 0.6166(3) 0.0920(3)
C18 C 0.30870(11) 0.6759(3) 0.2045(3)
H12 H 0.2957 0.6737 0.2518
C19 C 0.35297(10) 0.7389(3) 0.2488(3)
H13 H 0.3703 0.7786 0.3261
C20 C 0.23542(14) 0.5504(4) 0.0424(6)
H14 H 0.2165 0.5250 -0.0408
N1 N 0.46628(6) 0.60788(16) 0.27931(18)
N2 N 0.5000 0.82493(19) 0.2500
O1 O 0.46806(5) 0.44141(12) 0.13432(13)
O2 O 0.49050(7) 0.79716(15) 0.43020(18)
O3 O 0.41462(6) 0.81152(14) 0.2194(2)
O4 O 0.7329(2) 0.8334(7) 0.8366(6)
O5 O 0.21843(19) 0.5264(6) 0.1045(8)
P1 P 0.5000 0.53226(6) 0.2500
P2 P 0.46970(2) 0.75408(4) 0.29196(6)
C1A C 0.60875(8) 0.3337(2) 0.4428(2)
H1A H 0.6265 0.4044 0.4883
C2A C 0.63450(9) 0.2259(2) 0.4539(2)
H2A H 0.6698 0.2235 0.5074
C3A C 0.60790(9) 0.1229(2) 0.3858(3)
H3A H 0.6252 0.0503 0.3941
C4A C 0.55555(9) 0.12598(18) 0.3049(2)
H4A H 0.5381 0.0557 0.2579
C5A C 0.52811(8) 0.23294(17) 0.29208(19)
C6A C 0.55657(8) 0.33485(17) 0.36385(19)
C7A C 0.45705(10) 0.7863(2) -0.0226(2)
C8A C 0.43756(12) 0.6753(2) -0.0849(3)
H5A H 0.4587 0.6076 -0.0667
C9A C 0.38598(15) 0.6669(3) -0.1748(3)
H6A H 0.3721 0.5925 -0.2178
C10A C 0.35433(13) 0.7686(3) -0.2023(3)
C11A C 0.37519(12) 0.8787(3) -0.1388(3)
H7A H 0.3543 0.9470 -0.1571
C12A C 0.42660(11) 0.8885(2) -0.0486(2)
H8A H 0.4406 0.9629 -0.0058
C13A C 0.2986(2) 0.7618(6) -0.2995(5)
H9A H 0.2874 0.6841 -0.3371
C14A C 0.62861(9) 0.74268(19) 0.3222(2)
C15A C 0.65314(12) 0.6838(3) 0.4361(3)
H10A H 0.6403 0.6863 0.4836
C16A C 0.69797(12) 0.6200(3) 0.4784(3)
H11A H 0.7154 0.5794 0.5552
C17A C 0.71644(10) 0.6166(3) 0.4080(3)
C18A C 0.69130(11) 0.6759(3) 0.2955(3)
H12A H 0.7043 0.6737 0.2482
C19A C 0.64703(10) 0.7389(3) 0.2512(3)
H13A H 0.6297 0.7786 0.1739
C20A C 0.76458(14) 0.5504(4) 0.4576(6)
H14A H 0.7835 0.5250 0.5408
N1A N 0.53372(6) 0.60788(16) 0.22069(18)
O1A O 0.53194(5) 0.44141(12) 0.36568(13)
O2A O 0.50950(7) 0.79716(15) 0.06980(18)
O3A O 0.58538(6) 0.81152(14) 0.2806(2)
O4A O 0.2671(2) 0.8334(7) -0.3366(6)
O5A O 0.78157(19) 0.5264(6) 0.3955(8)
P2A P 0.53030(2) 0.75408(4) 0.20804(6)
H15? H 0.7175 0.8360 0.8394
H16? H 0.2254 0.5426 0.0956
O6? O 0.7238(4) 0.6851(13) 0.8270(10)
O7? O 0.2100(4) 0.5091(10) -0.0525(15)
loop_
_geom_bond_atom_site_label_1
_geom_bond_atom_site_label_2
_geom_bond_site_symmetry_1
_geom_bond_site_symmetry_2
C1 H1 1_555 1_555
C2 C1 1_555 1_555
H2 C2 1_555 1_555
C3 C2 1_555 1_555
H3 C3 1_555 1_555
C4 C3 1_555 1_555
H4 C4 1_555 1_555
C5 C4 1_555 1_555
C6 C1 1_555 1_555
C7 C8 1_555 1_555
C8 H5 1_555 1_555
C9 C8 1_555 1_555
H6 C9 1_555 1_555
C10 C9 1_555 1_555
C11 C10 1_555 1_555
H7 C11 1_555 1_555
C12 C7 1_555 1_555
H8 C12 1_555 1_555
C13 C10 1_555 1_555
H9 C13 1_555 1_555
C14 C15 1_555 1_555
C15 H10 1_555 1_555
C16 C15 1_555 1_555
H11 C16 1_555 1_555
C17 C16 1_555 1_555
C18 C17 1_555 1_555
H12 C18 1_555 1_555
C19 C14 1_555 1_555
H13 C19 1_555 1_555
C20 C17 1_555 1_555
H14 C20 1_555 1_555
N1 P1 1_555 1_555
N2 P2 1_555 1_555
O1 C6 1_555 1_555
O2 C7 1_555 1_555
O3 C14 1_555 1_555
O4 C13 1_555 1_555
O5 C20 1_555 1_555
P1 O1 1_555 1_555
P2 N1 1_555 1_555
C1A H1A 1_555 1_555
C2A C1A 1_555 1_555
H2A C2A 1_555 1_555
C3A C2A 1_555 1_555
H3A C3A 1_555 1_555
C4A C3A 1_555 1_555
H4A C4A 1_555 1_555
C5A C5 1_555 1_555
C6A C1A 1_555 1_555
C7A C8A 1_555 1_555
C8A H5A 1_555 1_555
C9A C8A 1_555 1_555
H6A C9A 1_555 1_555
C10A C9A 1_555 1_555
C11A C10A 1_555 1_555
H7A C11A 1_555 1_555
C12A C7A 1_555 1_555
H8A C12A 1_555 1_555
C13A C10A 1_555 1_555
H9A C13A 1_555 1_555
C14A C15A 1_555 1_555
C15A H10A 1_555 1_555
C16A C15A 1_555 1_555
H11A C16A 1_555 1_555
C17A C16A 1_555 1_555
C18A C17A 1_555 1_555
H12A C18A 1_555 1_555
C19A C14A 1_555 1_555
H13A C19A 1_555 1_555
C20A C17A 1_555 1_555
H14A C20A 1_555 1_555
N1A P1 1_555 1_555
O1A P1 1_555 1_555
O2A C7A 1_555 1_555
O3A C14A 1_555 1_555
O4A C13A 1_555 1_555
O5A C20A 1_555 1_555
P2A N2 1_555 1_555
C5 C6 1_555 1_555
C11 C12 1_555 1_555
C18 C19 1_555 1_555
O2 P2 1_555 1_555
O3 P2 1_555 1_555
C4A C5A 1_555 1_555
C5A C6A 1_555 1_555
C6A O1A 1_555 1_555
C11A C12A 1_555 1_555
C18A C19A 1_555 1_555
N1A P2A 1_555 1_555
O2A P2A 1_555 1_555
O3A P2A 1_555 1_555

#END
