
#######################################################################
#
#                 Cambridge Crystallographic Data Centre
#                                CCDC 
#
#######################################################################
#
# If this CIF has been generated from an entry in the Cambridge 
# Structural Database, then it will include bibliographic, chemical, 
# crystal, experimental, refinement or atomic coordinate data resulting 
# from the CCDC's data processing and validation procedures.
#
#######################################################################

data_TEMFOI
_chemical_formula_moiety         'C33 H30 Br1 Cl1 N2 O6 S1'
_chemical_name_systematic        
'Dimethyl 1-benzyl-2-(4-bromophenyl)-5-(4-chlorophenyl)-3-((4-methylphenyl)sulfonyl)imidazolidine-4,4-dicarboxylate'
_symmetry_cell_setting           monoclinic
_symmetry_space_group_name_H-M   'P 21/n'
_symmetry_Int_Tables_number      14
_space_group_name_Hall           '-P 2yn'
loop_
_symmetry_equiv_pos_site_id
_symmetry_equiv_pos_as_xyz
1 x,y,z
2 1/2-x,1/2+y,1/2-z
3 -x,-y,-z
4 1/2+x,1/2-y,1/2+z
_cell_length_a                   14.7367(4)
_cell_length_b                   13.5062(3)
_cell_length_c                   16.6193(4)
_cell_angle_alpha                90
_cell_angle_beta                 103.9350(10)
_cell_angle_gamma                90
_cell_volume                     3210.5
_exptl_crystal_colour            colorless
_exptl_crystal_description       block
_cell_formula_units_Z            4
loop_
_atom_site_label
_atom_site_type_symbol
_atom_site_fract_x
_atom_site_fract_y
_atom_site_fract_z
Br1 Br 0.40637(4) 0.24130(4) 0.04361(3)
Cl1 Cl 0.41327(7) 0.73825(7) 0.68227(6)
S1 S 0.29920(5) 0.70703(6) 0.19137(5)
O1 O 0.29260(16) 0.81034(16) 0.17292(14)
O2 O 0.23715(15) 0.66278(18) 0.23491(14)
O3 O 0.47276(19) 0.93355(18) 0.2495(2)
O4 O 0.38551(19) 0.88338(18) 0.33460(16)
O5 O 0.51263(19) 0.7556(2) 0.14385(17)
O6 O 0.62470(15) 0.80142(18) 0.25210(15)
N1 N 0.40480(16) 0.68828(17) 0.24753(15)
N2 N 0.53072(17) 0.61254(18) 0.32845(15)
C1 C 0.2845(2) 0.6418(2) 0.09743(19)
C2 C 0.2339(2) 0.5547(2) 0.0862(2)
H1 H 0.2096 0.5290 0.1285
C3 C 0.2202(3) 0.5063(3) 0.0112(2)
H2 H 0.1867 0.4474 0.0035
C4 C 0.2551(3) 0.5431(3) -0.0525(2)
C5 C 0.3040(3) 0.6314(3) -0.0404(2)
H3 H 0.3270 0.6576 -0.0833
C6 C 0.3193(2) 0.6812(3) 0.0341(2)
H4 H 0.3525 0.7404 0.0417
C7 C 0.4277(2) 0.5056(2) 0.22649(18)
C8 C 0.3735(2) 0.4246(2) 0.23265(19)
H5 H 0.3407 0.4230 0.2739
C9 C 0.3665(2) 0.3455(2) 0.1790(2)
H6 H 0.3296 0.2911 0.1839
C10 C 0.4151(2) 0.3490(2) 0.1186(2)
C11 C 0.4701(2) 0.4292(3) 0.1107(2)
H7 H 0.5027 0.4305 0.0693
C12 C 0.4762(2) 0.5070(2) 0.1649(2)
H8 H 0.5133 0.5613 0.1601
C13 C 0.6812(2) 0.5505(2) 0.4107(2)
C14 C 0.7322(3) 0.5353(3) 0.4909(3)
H9 H 0.7016 0.5199 0.5321
C15 C 0.8289(3) 0.5430(3) 0.5105(3)
H10 H 0.8629 0.5308 0.5644
C16 C 0.8739(3) 0.5681(4) 0.4515(4)
H11 H 0.9387 0.5735 0.4653
C17 C 0.8252(3) 0.5855(4) 0.3722(4)
H12 H 0.8564 0.6033 0.3319
C18 C 0.7289(3) 0.5764(3) 0.3521(3)
H13 H 0.6956 0.5881 0.2978
C19 C 0.4956(2) 0.7262(2) 0.43711(19)
C20 C 0.4030(2) 0.7126(2) 0.4410(2)
H14 H 0.3576 0.7001 0.3926
C21 C 0.3777(2) 0.7175(2) 0.5154(2)
H15 H 0.3155 0.7093 0.5170
C22 C 0.4451(2) 0.7345(2) 0.5873(2)
C23 C 0.5367(2) 0.7479(3) 0.5861(2)
H16 H 0.5818 0.7596 0.6349
C24 C 0.5610(2) 0.7438(2) 0.5107(2)
H17 H 0.6232 0.7532 0.5095
C25 C 0.4340(2) 0.5903(2) 0.28619(18)
H18 H 0.3980 0.5750 0.3271
C26 C 0.4767(2) 0.7639(2) 0.27770(19)
C27 C 0.5315(2) 0.7142(2) 0.35944(18)
H19 H 0.5961 0.7384 0.3716
C28 C 0.4376(2) 0.8662(2) 0.2921(2)
C29 C 0.4416(4) 1.0347(3) 0.2570(4)
H20 H 0.4700 1.0780 0.2244
H21 H 0.4593 1.0548 0.3141
H22 H 0.3748 1.0380 0.2375
C30 C 0.5389(2) 0.7733(2) 0.2156(2)
C31 C 0.6878(3) 0.8120(4) 0.1983(3)
H23 H 0.7482 0.8321 0.2303
H24 H 0.6640 0.8610 0.1568
H25 H 0.6933 0.7497 0.1719
C32 C 0.2415(4) 0.4875(4) -0.1337(3)
H26 H 0.2703 0.5237 -0.1707
H27 H 0.1759 0.4804 -0.1584
H28 H 0.2698 0.4232 -0.1236
C33 C 0.5762(2) 0.5371(2) 0.3874(2)
H29 H 0.5612 0.4720 0.3632
H30 H 0.5525 0.5410 0.4370
loop_
_geom_bond_atom_site_label_1
_geom_bond_atom_site_label_2
_geom_bond_site_symmetry_1
_geom_bond_site_symmetry_2
Br1 C10 1_555 1_555
Cl1 C22 1_555 1_555
S1 O1 1_555 1_555
O2 S1 1_555 1_555
O3 C28 1_555 1_555
O4 C28 1_555 1_555
O5 C30 1_555 1_555
O6 C30 1_555 1_555
N1 S1 1_555 1_555
N2 C25 1_555 1_555
C1 S1 1_555 1_555
C2 C1 1_555 1_555
H1 C2 1_555 1_555
C3 C2 1_555 1_555
H2 C3 1_555 1_555
C4 C3 1_555 1_555
C5 C4 1_555 1_555
H3 C5 1_555 1_555
C6 C1 1_555 1_555
H4 C6 1_555 1_555
C7 C8 1_555 1_555
C8 H5 1_555 1_555
C9 C8 1_555 1_555
H6 C9 1_555 1_555
C10 C9 1_555 1_555
C11 C10 1_555 1_555
H7 C11 1_555 1_555
C12 C7 1_555 1_555
H8 C12 1_555 1_555
C13 C14 1_555 1_555
C14 H9 1_555 1_555
C15 C14 1_555 1_555
H10 C15 1_555 1_555
C16 C15 1_555 1_555
H11 C16 1_555 1_555
C17 C16 1_555 1_555
H12 C17 1_555 1_555
C18 C13 1_555 1_555
H13 C18 1_555 1_555
C19 C20 1_555 1_555
C20 H14 1_555 1_555
C21 C20 1_555 1_555
H15 C21 1_555 1_555
C22 C21 1_555 1_555
C23 C22 1_555 1_555
H16 C23 1_555 1_555
C24 C19 1_555 1_555
H17 C24 1_555 1_555
C25 N1 1_555 1_555
H18 C25 1_555 1_555
C26 N1 1_555 1_555
C27 N2 1_555 1_555
H19 C27 1_555 1_555
C28 C26 1_555 1_555
C29 O3 1_555 1_555
H20 C29 1_555 1_555
H21 C29 1_555 1_555
H22 C29 1_555 1_555
C30 C26 1_555 1_555
C31 O6 1_555 1_555
H23 C31 1_555 1_555
H24 C31 1_555 1_555
H25 C31 1_555 1_555
C32 C4 1_555 1_555
H26 C32 1_555 1_555
H27 C32 1_555 1_555
H28 C32 1_555 1_555
C33 N2 1_555 1_555
H29 C33 1_555 1_555
H30 C33 1_555 1_555
C5 C6 1_555 1_555
C7 C25 1_555 1_555
C11 C12 1_555 1_555
C13 C33 1_555 1_555
C17 C18 1_555 1_555
C19 C27 1_555 1_555
C23 C24 1_555 1_555
C26 C27 1_555 1_555

#END
