
#######################################################################
#
#                 Cambridge Crystallographic Data Centre
#                                CCDC 
#
#######################################################################
#
# If this CIF has been generated from an entry in the Cambridge 
# Structural Database, then it will include bibliographic, chemical, 
# crystal, experimental, refinement or atomic coordinate data resulting 
# from the CCDC's data processing and validation procedures.
#
#######################################################################

data_TEMHEB
_chemical_formula_moiety         'C14 H10 Cl2 O2'
_chemical_name_systematic        
6,7-dichloro-2-phenyl-2,3-dihydro-1,4-benzodioxine
_symmetry_cell_setting           monoclinic
_symmetry_space_group_name_H-M   'P 21'
_symmetry_Int_Tables_number      4
_space_group_name_Hall           'P 2yb'
loop_
_symmetry_equiv_pos_site_id
_symmetry_equiv_pos_as_xyz
1 x,y,z
2 -x,1/2+y,-z
_cell_length_a                   8.1554(7)
_cell_length_b                   6.2734(8)
_cell_length_c                   12.2264(9)
_cell_angle_alpha                90
_cell_angle_beta                 100.502(7)
_cell_angle_gamma                90
_cell_volume                     615.05
_exptl_crystal_colour            colorless
_exptl_crystal_description       block
_cell_formula_units_Z            2
loop_
_atom_site_label
_atom_site_type_symbol
_atom_site_fract_x
_atom_site_fract_y
_atom_site_fract_z
Cl1 Cl 0.83176(6) 0.28123(8) 0.65582(4)
C1 C 0.7377(2) 0.3668(3) 0.52482(15)
O1 O 0.44724(18) 0.1631(2) 0.28598(11)
Cl2 Cl 0.90539(6) 0.74154(8) 0.57037(3)
C2 C 0.7717(2) 0.5689(3) 0.48710(15)
O2 O 0.52732(17) 0.5719(2) 0.20798(11)
C3 C 0.5928(2) 0.4992(3) 0.31210(15)
C4 C 0.6994(2) 0.6341(3) 0.38169(16)
H1 H 0.7228 0.7721 0.3565
C5 C 0.5555(2) 0.2985(3) 0.35086(15)
C6 C 0.6285(2) 0.2325(3) 0.45672(15)
H2 H 0.6040 0.0955 0.4826
C7 C 0.4370(2) 0.4157(3) 0.13362(16)
H3 H 0.5177 0.3261 0.1013
C8 C 0.3381(2) 0.2754(3) 0.19920(15)
H4 H 0.2598 0.3646 0.2324
H5 H 0.2718 0.1714 0.1485
C9 C 0.3250(2) 0.5337(3) 0.04167(16)
C10 C 0.2910(2) 0.4469(4) -0.06526(17)
H6 H 0.3381 0.3139 -0.0800
C11 C 0.1876(2) 0.5564(4) -0.15031(16)
H7 H 0.1648 0.4976 -0.2231
C12 C 0.1183(2) 0.7491(4) -0.12964(16)
H8 H 0.0491 0.8235 -0.1883
C13 C 0.1492(2) 0.8346(4) -0.02341(17)
H9 H 0.0996 0.9661 -0.0087
C14 C 0.2529(2) 0.7272(3) 0.06156(15)
H10 H 0.2750 0.7868 0.1342
loop_
_geom_bond_atom_site_label_1
_geom_bond_atom_site_label_2
_geom_bond_site_symmetry_1
_geom_bond_site_symmetry_2
Cl1 C1 1_555 1_555
C1 C2 1_555 1_555
O1 C5 1_555 1_555
Cl2 C2 1_555 1_555
C2 C4 1_555 1_555
O2 C3 1_555 1_555
C3 C4 1_555 1_555
C4 H1 1_555 1_555
C5 C3 1_555 1_555
C6 C1 1_555 1_555
H2 C6 1_555 1_555
C7 O2 1_555 1_555
H3 C7 1_555 1_555
C8 O1 1_555 1_555
H4 C8 1_555 1_555
H5 C8 1_555 1_555
C9 C7 1_555 1_555
C10 C9 1_555 1_555
H6 C10 1_555 1_555
C11 C10 1_555 1_555
H7 C11 1_555 1_555
C12 C11 1_555 1_555
H8 C12 1_555 1_555
C13 C12 1_555 1_555
H9 C13 1_555 1_555
C14 C9 1_555 1_555
H10 C14 1_555 1_555
C5 C6 1_555 1_555
C7 C8 1_555 1_555
C13 C14 1_555 1_555

#END
