
#######################################################################
#
#                 Cambridge Crystallographic Data Centre
#                                CCDC 
#
#######################################################################
#
# If this CIF has been generated from an entry in the Cambridge 
# Structural Database, then it will include bibliographic, chemical, 
# crystal, experimental, refinement or atomic coordinate data resulting 
# from the CCDC's data processing and validation procedures.
#
#######################################################################

data_TEMJON
_chemical_formula_moiety         'C23 H23 F7 N2 O5 S2'
_chemical_name_systematic        
2-{4-[(4-fluorophenyl)sulfonyl]-7-(1,1,1,3,3,3-hexafluoro-2-hydroxypropan-2-yl)-3,4-dihydro-2H-1,4-benzothiazin-2-yl}-N-(2-hydroxy-2-methylpropyl)acetamide
_symmetry_cell_setting           triclinic
_symmetry_space_group_name_H-M   'P 1'
_symmetry_Int_Tables_number      1
_space_group_name_Hall           'P 1'
loop_
_symmetry_equiv_pos_site_id
_symmetry_equiv_pos_as_xyz
1 x,y,z
_cell_length_a                   10.9742(9)
_cell_length_b                   11.1209(9)
_cell_length_c                   11.9522(10)
_cell_angle_alpha                104.185(3)
_cell_angle_beta                 107.771(3)
_cell_angle_gamma                102.398(3)
_cell_volume                     1278.81
_exptl_crystal_colour            colorless
_exptl_crystal_description       prism
_cell_formula_units_Z            2
_exptl_crystal_recrystallization_method isopropanol/heptane
loop_
_atom_site_label
_atom_site_type_symbol
_atom_site_fract_x
_atom_site_fract_y
_atom_site_fract_z
S1 S 0.35503(12) 0.95445(12) 0.64617(10)
C1 C 0.4575(4) 0.8531(4) 0.6932(4)
H1 H 0.407138 0.759937 0.640046
C2 C 0.4842(4) 0.8654(5) 0.8276(4)
H2 H 0.543487 0.813367 0.853323
H3 H 0.531674 0.957888 0.880673
N1 N 0.3584(4) 0.8199(4) 0.8469(4)
C3 C 0.1934(5) 0.9099(5) 0.9020(4)
H4 H 0.197640 0.865646 0.961092
C4 C 0.1118(5) 0.9876(5) 0.8904(4)
H5 H 0.060657 0.996499 0.941616
C5 C 0.1029(4) 1.0538(4) 0.8045(4)
C6 C 0.1797(4) 1.0393(4) 0.7321(4)
H6 H 0.175207 1.083714 0.673155
C7 C 0.2636(4) 0.9607(4) 0.7439(4)
C8 C 0.2692(4) 0.8948(4) 0.8297(4)
S2 S 0.30479(10) 0.66531(10) 0.83807(10)
O1 O 0.1629(3) 0.6241(4) 0.7849(3)
O2 O 0.3803(4) 0.5977(4) 0.7821(4)
C9 C 0.3544(4) 0.6637(4) 0.9917(4)
C10 C 0.2677(5) 0.6707(5) 1.0530(5)
H7 H 0.180866 0.675852 1.012294
C11 C 0.3070(6) 0.6701(5) 1.1740(5)
H8 H 0.247699 0.673708 1.217503
C12 C 0.4341(6) 0.6642(5) 1.2300(5)
C13 C 0.5193(5) 0.6510(6) 1.1687(6)
H9 H 0.603987 0.641147 1.208743
C14 C 0.4811(5) 0.6521(5) 1.0478(5)
H10 H 0.539655 0.645147 1.003827
F1 F 0.4735(4) 0.6681(5) 1.3489(3)
C15 C 0.5852(5) 0.8964(4) 0.6676(4)
H11 H 0.560629 0.881173 0.577259
H12 H 0.630234 0.991171 0.712349
C16 C 0.6819(4) 0.8229(4) 0.7088(4)
O3 O 0.7913(3) 0.8783(3) 0.7958(3)
N2 N 0.6421(4) 0.6956(4) 0.6478(4)
H13 H 0.560982 0.659351 0.588958
C17 C 0.7262(5) 0.6131(5) 0.6734(4)
H14 H 0.678088 0.541037 0.694279
H15 H 0.810211 0.665183 0.746515
C18 C 0.7614(4) 0.5563(4) 0.5630(4)
O4 O 0.6330(3) 0.4918(3) 0.4621(3)
H16 H 0.641555 0.491234 0.394495
C19 C 0.8314(5) 0.4560(5) 0.5850(5)
H17 H 0.773001 0.386819 0.600000
H18 H 0.916158 0.498122 0.657722
H19 H 0.850273 0.418030 0.511455
C20 C 0.8450(6) 0.6609(5) 0.5325(6)
H20 H 0.859025 0.620942 0.456613
H21 H 0.932399 0.704942 0.601774
H22 H 0.797793 0.724763 0.519212
C21 C 0.0121(4) 1.1403(4) 0.7975(5)
O5 O -0.0747(3) 1.1223(3) 0.8595(3)
H23 H -0.121693 1.043322 0.832168
C22 C 0.0990(5) 1.2857(5) 0.8655(6)
C23 C -0.0751(5) 1.1184(5) 0.6604(5)
F2 F 0.1827(4) 1.3246(3) 0.8127(4)
F3 F 0.1726(4) 1.3030(3) 0.9818(4)
F4 F 0.0241(3) 1.3650(3) 0.8667(4)
F5 F -0.1664(3) 1.1798(3) 0.6531(3)
F6 F -0.0057(4) 1.1551(4) 0.5945(4)
F7 F -0.1426(3) 0.9917(3) 0.6015(3)
S3 S 0.61695(14) 0.00346(13) 0.33182(13)
C24 C 0.4772(5) 0.0541(5) 0.2506(5)
H24 H 0.393022 -0.021777 0.217499
C25 C 0.4945(5) 0.0910(6) 0.1395(5)
H25 H 0.467480 0.010220 0.067919
H26 H 0.433867 0.142234 0.114796
N3 N 0.6335(4) 0.1674(5) 0.1678(4)
C26 C 0.8117(6) 0.0959(6) 0.1123(5)
H27 H 0.813606 0.151006 0.062940
C27 C 0.8964(5) 0.0202(6) 0.1215(5)
H28 H 0.957752 0.025072 0.080050
C28 C 0.8926(5) -0.0625(5) 0.1905(4)
C29 C 0.8025(5) -0.0689(5) 0.2507(5)
H29 H 0.798041 -0.127016 0.296908
C30 C 0.7192(5) 0.0086(4) 0.2439(4)
C31 C 0.7244(5) 0.0922(5) 0.1741(4)
S4 S 0.67136(12) 0.31686(12) 0.16560(10)
O6 O 0.8120(4) 0.3734(4) 0.2278(4)
O7 O 0.5821(5) 0.3738(5) 0.2088(4)
C32 C 0.6308(5) 0.3143(4) 0.0099(4)
C33 C 0.7300(5) 0.3238(5) -0.0394(6)
H30 H 0.819750 0.333081 0.010259
C34 C 0.6969(6) 0.3197(6) -0.1616(6)
H31 H 0.762734 0.324398 -0.198136
C35 C 0.5684(6) 0.3087(5) -0.2282(5)
C36 C 0.4702(5) 0.3072(6) -0.1787(5)
H32 H 0.383066 0.306687 -0.226359
C37 C 0.5017(5) 0.3064(6) -0.0591(5)
H33 H 0.434848 0.300434 -0.023837
F8 F 0.5341(4) 0.3028(4) -0.3484(3)
C38 C 0.4634(5) 0.1619(5) 0.3459(4)
H34 H 0.544146 0.239367 0.377096
H35 H 0.460459 0.133116 0.417455
C39 C 0.3385(5) 0.2012(5) 0.2958(4)
O8 O 0.2319(3) 0.1212(3) 0.2151(3)
N4 N 0.3534(4) 0.3257(4) 0.3467(4)
H36 H 0.434366 0.376994 0.399153
C40 C 0.2471(5) 0.3837(5) 0.3227(4)
H37 H 0.162718 0.316791 0.259878
H38 H 0.270634 0.453918 0.288324
C41 C 0.2250(4) 0.4401(4) 0.4417(4)
O9 O 0.3570(3) 0.5207(3) 0.5315(3)
H39 H 0.357646 0.532143 0.603804
C42 C 0.1369(6) 0.5279(6) 0.4227(7)
H40 H 0.124480 0.564612 0.500275
H41 H 0.049036 0.476718 0.356283
H42 H 0.180657 0.599036 0.399339
C43 C 0.1664(7) 0.3349(6) 0.4865(6)
H43 H 0.217078 0.272335 0.485760
H44 H 0.071809 0.289604 0.431362
H45 H 0.172040 0.374267 0.571555
C44 C 0.9876(5) -0.1461(5) 0.1970(5)
O10 O 1.0775(3) -0.1198(3) 0.1395(3)
H46 H 1.128008 -0.042114 0.175403
C45 C 0.9058(5) -0.2909(5) 0.1244(6)
C46 C 1.0719(6) -0.1256(5) 0.3347(5)
F9 F 0.8197(4) -0.3384(3) 0.1717(5)
F10 F 0.9829(4) -0.3660(3) 0.1193(4)
F11 F 0.8340(5) -0.3055(4) 0.0089(4)
F12 F 0.9992(4) -0.1682(5) 0.3951(4)
F13 F 1.1628(4) -0.1882(4) 0.3417(3)
F14 F 1.1368(4) -0.0016(3) 0.3954(3)
loop_
_geom_bond_atom_site_label_1
_geom_bond_atom_site_label_2
_geom_bond_site_symmetry_1
_geom_bond_site_symmetry_2
S1 C1 1_555 1_555
C1 H1 1_555 1_555
C2 C1 1_555 1_555
H2 C2 1_555 1_555
H3 C2 1_555 1_555
N1 C2 1_555 1_555
C3 H4 1_555 1_555
C4 C3 1_555 1_555
H5 C4 1_555 1_555
C5 C4 1_555 1_555
C6 C5 1_555 1_555
H6 C6 1_555 1_555
C7 S1 1_555 1_555
C8 N1 1_555 1_555
S2 N1 1_555 1_555
O1 S2 1_555 1_555
O2 S2 1_555 1_555
C9 S2 1_555 1_555
C10 C9 1_555 1_555
H7 C10 1_555 1_555
C11 C10 1_555 1_555
H8 C11 1_555 1_555
C12 C11 1_555 1_555
C13 C12 1_555 1_555
H9 C13 1_555 1_555
C14 C9 1_555 1_555
H10 C14 1_555 1_555
F1 C12 1_555 1_555
C15 C1 1_555 1_555
H11 C15 1_555 1_555
H12 C15 1_555 1_555
C16 C15 1_555 1_555
O3 C16 1_555 1_555
N2 C16 1_555 1_555
H13 N2 1_555 1_555
C17 N2 1_555 1_555
H14 C17 1_555 1_555
H15 C17 1_555 1_555
C18 C17 1_555 1_555
O4 C18 1_555 1_555
H16 O4 1_555 1_555
C19 C18 1_555 1_555
H17 C19 1_555 1_555
H18 C19 1_555 1_555
H19 C19 1_555 1_555
C20 C18 1_555 1_555
H20 C20 1_555 1_555
H21 C20 1_555 1_555
H22 C20 1_555 1_555
C21 C5 1_555 1_555
O5 C21 1_555 1_555
H23 O5 1_555 1_555
C22 C21 1_555 1_555
C23 C21 1_555 1_555
F2 C22 1_555 1_555
F3 C22 1_555 1_555
F4 C22 1_555 1_555
F5 C23 1_555 1_555
F6 C23 1_555 1_555
F7 C23 1_555 1_555
S3 C24 1_555 1_555
C24 H24 1_555 1_555
C25 C24 1_555 1_555
H25 C25 1_555 1_555
H26 C25 1_555 1_555
N3 C25 1_555 1_555
C26 H27 1_555 1_555
C27 C26 1_555 1_555
H28 C27 1_555 1_555
C28 C27 1_555 1_555
C29 C28 1_555 1_555
H29 C29 1_555 1_555
C30 S3 1_555 1_555
C31 N3 1_555 1_555
S4 N3 1_555 1_555
O6 S4 1_555 1_555
O7 S4 1_555 1_555
C32 S4 1_555 1_555
C33 C32 1_555 1_555
H30 C33 1_555 1_555
C34 C33 1_555 1_555
H31 C34 1_555 1_555
C35 C34 1_555 1_555
C36 C35 1_555 1_555
H32 C36 1_555 1_555
C37 C32 1_555 1_555
H33 C37 1_555 1_555
F8 C35 1_555 1_555
C38 C24 1_555 1_555
H34 C38 1_555 1_555
H35 C38 1_555 1_555
C39 C38 1_555 1_555
O8 C39 1_555 1_555
N4 C39 1_555 1_555
H36 N4 1_555 1_555
C40 N4 1_555 1_555
H37 C40 1_555 1_555
H38 C40 1_555 1_555
C41 C40 1_555 1_555
O9 C41 1_555 1_555
H39 O9 1_555 1_555
C42 C41 1_555 1_555
H40 C42 1_555 1_555
H41 C42 1_555 1_555
H42 C42 1_555 1_555
C43 C41 1_555 1_555
H43 C43 1_555 1_555
H44 C43 1_555 1_555
H45 C43 1_555 1_555
C44 C28 1_555 1_555
O10 C44 1_555 1_555
H46 O10 1_555 1_555
C45 C44 1_555 1_555
C46 C44 1_555 1_555
F9 C45 1_555 1_555
F10 C45 1_555 1_555
F11 C45 1_555 1_555
F12 C46 1_555 1_555
F13 C46 1_555 1_555
F14 C46 1_555 1_555
C3 C8 1_555 1_555
C6 C7 1_555 1_555
C7 C8 1_555 1_555
C13 C14 1_555 1_555
C26 C31 1_555 1_555
C29 C30 1_555 1_555
C30 C31 1_555 1_555
C36 C37 1_555 1_555

#END
