
#######################################################################
#
#                 Cambridge Crystallographic Data Centre
#                                CCDC 
#
#######################################################################
#
# If this CIF has been generated from an entry in the Cambridge 
# Structural Database, then it will include bibliographic, chemical, 
# crystal, experimental, refinement or atomic coordinate data resulting 
# from the CCDC's data processing and validation procedures.
#
#######################################################################

data_TEMJUT
_chemical_formula_moiety         'C24 H25 F7 N2 O5 S1'
_chemical_name_systematic        
2-{1-[(4-fluorophenyl)sulfonyl]-6-(1,1,1,3,3,3-hexafluoro-2-hydroxypropan-2-yl)-1,2,3,4-tetrahydroquinolin-2-yl}-N-(2-hydroxy-2-methylpropyl)acetamide
_symmetry_cell_setting           orthorhombic
_symmetry_space_group_name_H-M   'P 21 21 21'
_symmetry_Int_Tables_number      19
_space_group_name_Hall           'P 2ac 2ab'
loop_
_symmetry_equiv_pos_site_id
_symmetry_equiv_pos_as_xyz
1 x,y,z
2 1/2-x,-y,1/2+z
3 -x,1/2+y,1/2-z
4 1/2+x,1/2-y,-z
_cell_length_a                   7.6188(3)
_cell_length_b                   21.5562(9)
_cell_length_c                   31.9655(16)
_cell_angle_alpha                90
_cell_angle_beta                 90
_cell_angle_gamma                90
_cell_volume                     5249.77
_exptl_crystal_colour            colorless
_exptl_crystal_description       needle
_cell_formula_units_Z            8
_exptl_crystal_recrystallization_method acetonitrile,water
loop_
_atom_site_label
_atom_site_type_symbol
_atom_site_fract_x
_atom_site_fract_y
_atom_site_fract_z
C1 C 0.7555(9) 0.1751(3) 0.84972(18)
C2 C 0.9009(8) 0.2195(2) 0.83316(15)
C3 C 1.0826(8) 0.1946(2) 0.84423(17)
C4 C 0.8678(7) 0.2843(2) 0.84997(14)
C5 C 0.9264(7) 0.3033(2) 0.88906(15)
H1 H 0.994760 0.276099 0.905275
C6 C 0.8862(6) 0.3615(2) 0.90458(14)
C7 C 0.7848(6) 0.4008(2) 0.88028(14)
C8 C 0.7301(6) 0.3838(2) 0.84019(14)
H2 H 0.666797 0.411666 0.823342
C9 C 0.7711(7) 0.3250(2) 0.82580(14)
H3 H 0.732548 0.312607 0.799146
C10 C 0.8438(6) 0.4919(2) 0.92933(15)
H4 H 0.777271 0.495846 0.955789
C11 C 1.0056(7) 0.4530(2) 0.93807(16)
H5 H 1.065811 0.469110 0.962887
H6 H 1.086504 0.455829 0.914321
C12 C 0.9557(7) 0.3856(2) 0.94525(15)
H7 H 1.058557 0.361602 0.954012
H8 H 0.865850 0.382485 0.967089
C13 C 0.4661(6) 0.4007(2) 0.94100(16)
C14 C 0.4394(7) 0.3421(2) 0.92434(17)
H9 H 0.441392 0.336038 0.895221
C15 C 0.4097(8) 0.2924(2) 0.95090(19)
H10 H 0.393405 0.252187 0.940231
C16 C 0.4046(9) 0.3033(3) 0.9927(2)
C17 C 0.4291(9) 0.3605(3) 1.01001(19)
H11 H 0.424189 0.365989 1.039156
C18 C 0.4612(7) 0.4100(3) 0.98389(17)
H12 H 0.479534 0.449786 0.995069
C19 C 0.8919(7) 0.5574(2) 0.91444(17)
H13 H 1.018897 0.563209 0.917361
H14 H 0.862984 0.561168 0.884674
C20 C 0.7994(7) 0.6080(2) 0.93807(18)
C21 C 0.6087(9) 0.7008(3) 0.9309(2)
H15 H 0.612029 0.733949 0.909876
H16 H 0.667762 0.716248 0.956026
C22 C 0.4152(9) 0.6868(3) 0.94169(18)
C23 C 0.3959(10) 0.6564(3) 0.98392(19)
H17 H 0.273367 0.646540 0.988826
H18 H 0.437137 0.684465 1.005495
H19 H 0.464782 0.618546 0.984613
C24 C 0.3103(10) 0.7468(3) 0.9400(2)
H20 H 0.318899 0.764644 0.912268
H21 H 0.356862 0.775830 0.960401
H22 H 0.188235 0.738170 0.946428
F1 F 0.5995(5) 0.19527(17) 0.83854(14)
F2 F 0.7584(5) 0.17119(16) 0.89126(10)
F3 F 0.7726(6) 0.11766(14) 0.83475(12)
F4 F 1.1074(5) 0.18264(14) 0.88467(10)
F5 F 1.1177(5) 0.14202(14) 0.82361(10)
F6 F 1.2067(5) 0.23591(16) 0.83377(12)
F7 F 0.3725(7) 0.25447(19) 1.01848(13)
N1 N 0.7271(5) 0.45961(17) 0.89788(11)
N2 N 0.7063(6) 0.64755(19) 0.91487(14)
H23 H 0.703419 0.641058 0.888018
O1 O 0.8904(7) 0.22237(16) 0.78979(10)
H24 H 0.903751 0.187096 0.779863
O2 O 0.4229(4) 0.45021(15) 0.86885(10)
O3 O 0.4831(4) 0.51948(14) 0.92881(11)
O4 O 0.8114(5) 0.61303(16) 0.97658(12)
O5 O 0.3419(5) 0.64637(17) 0.91019(12)
H25 H 0.373530 0.610153 0.914738
S1 S 0.51320(16) 0.46247(5) 0.90707(4)
C25 C 0.3710(7) 0.9841(2) 0.93092(15)
C26 C 0.5686(8) 0.9733(3) 0.92957(19)
C27 C 0.3259(10) 1.0496(3) 0.91511(19)
C28 C 0.2687(6) 0.93674(19) 0.90470(14)
C29 C 0.3161(6) 0.9199(2) 0.86456(14)
H26 H 0.416704 0.937815 0.852552
C30 C 0.2196(6) 0.87735(19) 0.84140(14)
C31 C 0.0732(6) 0.84986(19) 0.86025(14)
C32 C 0.0236(6) 0.8659(2) 0.90054(15)
H27 H -0.074768 0.847178 0.913029
C33 C 0.1200(7) 0.9096(2) 0.92212(15)
H28 H 0.084485 0.921243 0.949157
C34 C 0.0778(6) 0.76025(19) 0.80852(15)
H29 H 0.017184 0.758737 0.781141
C35 C 0.2648(6) 0.78280(19) 0.80125(15)
H30 H 0.309010 0.765538 0.774918
H31 H 0.340309 0.767856 0.823929
C36 C 0.2735(6) 0.8536(2) 0.79941(14)
H32 H 0.393102 0.867183 0.792818
H33 H 0.194174 0.869373 0.777742
C37 C -0.1993(6) 0.8728(2) 0.77979(16)
C38 C -0.1600(6) 0.9345(2) 0.78833(17)
H34 H -0.159282 0.948997 0.816072
C39 C -0.1221(7) 0.9746(2) 0.75567(17)
H35 H -0.094464 1.016394 0.760695
C40 C -0.1260(7) 0.9511(2) 0.71562(17)
C41 C -0.1682(7) 0.8908(2) 0.70614(18)
H36 H -0.172310 0.877030 0.678258
C42 C -0.2044(7) 0.8510(2) 0.73905(16)
H37 H -0.232481 0.809262 0.733737
C43 C 0.0720(6) 0.69530(19) 0.82776(15)
H38 H 0.124551 0.696680 0.855728
H39 H -0.050668 0.682415 0.830843
C44 C 0.1681(6) 0.6480(2) 0.80165(17)
C45 C 0.4174(6) 0.5751(2) 0.80147(17)
H40 H 0.358493 0.557688 0.776876
H41 H 0.435772 0.541395 0.821573
C46 C 0.5935(6) 0.6012(2) 0.78851(17)
C47 C 0.5786(7) 0.6443(2) 0.75141(17)
H42 H 0.494405 0.676740 0.757591
H43 H 0.539621 0.620998 0.727154
H44 H 0.692235 0.662676 0.745662
C48 C 0.7201(8) 0.5485(3) 0.7805(2)
H45 H 0.834436 0.565232 0.773374
H46 H 0.677109 0.523344 0.757514
H47 H 0.729858 0.523142 0.805446
F8 F 0.6035(5) 0.91511(19) 0.94096(12)
F9 F 0.6426(4) 0.98155(16) 0.89239(11)
F10 F 0.6541(5) 1.0102(2) 0.95609(13)
F11 F 0.4016(7) 1.09399(15) 0.93763(13)
F12 F 0.3710(6) 1.05824(14) 0.87550(10)
F13 F 0.1525(6) 1.05867(15) 0.91767(12)
F14 F -0.0875(4) 0.98992(13) 0.68321(10)
N3 N -0.0230(5) 0.80358(16) 0.83676(12)
N4 N 0.3052(5) 0.62214(17) 0.82029(13)
H48 H 0.329948 0.634115 0.845601
O6 O 0.3214(5) 0.98532(15) 0.97304(10)
H49 H 0.321424 0.949453 0.982490
O7 O -0.3079(4) 0.85251(15) 0.85506(11)
O8 O -0.2981(4) 0.76493(14) 0.80494(11)
O9 O 0.1211(5) 0.63433(14) 0.76568(11)
O10 O 0.6624(5) 0.63640(17) 0.82405(11)
H50 H 0.662909 0.673936 0.818249
S2 S -0.22296(15) 0.82100(5) 0.82161(4)
loop_
_geom_bond_atom_site_label_1
_geom_bond_atom_site_label_2
_geom_bond_site_symmetry_1
_geom_bond_site_symmetry_2
C1 C2 1_555 1_555
C2 C3 1_555 1_555
C3 F4 1_555 1_555
C4 C2 1_555 1_555
C5 C4 1_555 1_555
H1 C5 1_555 1_555
C6 C5 1_555 1_555
C7 C6 1_555 1_555
C8 C7 1_555 1_555
H2 C8 1_555 1_555
C9 C4 1_555 1_555
H3 C9 1_555 1_555
C10 H4 1_555 1_555
C11 C10 1_555 1_555
H5 C11 1_555 1_555
H6 C11 1_555 1_555
C12 C6 1_555 1_555
H7 C12 1_555 1_555
H8 C12 1_555 1_555
C13 C14 1_555 1_555
C14 H9 1_555 1_555
C15 C14 1_555 1_555
H10 C15 1_555 1_555
C16 C15 1_555 1_555
C17 C16 1_555 1_555
H11 C17 1_555 1_555
C18 C13 1_555 1_555
H12 C18 1_555 1_555
C19 C10 1_555 1_555
H13 C19 1_555 1_555
H14 C19 1_555 1_555
C20 C19 1_555 1_555
C21 H15 1_555 1_555
H16 C21 1_555 1_555
C22 C21 1_555 1_555
C23 C22 1_555 1_555
H17 C23 1_555 1_555
H18 C23 1_555 1_555
H19 C23 1_555 1_555
C24 C22 1_555 1_555
H20 C24 1_555 1_555
H21 C24 1_555 1_555
H22 C24 1_555 1_555
F1 C1 1_555 1_555
F2 C1 1_555 1_555
F3 C1 1_555 1_555
F5 C3 1_555 1_555
F6 C3 1_555 1_555
F7 C16 1_555 1_555
N1 C7 1_555 1_555
N2 C20 1_555 1_555
H23 N2 1_555 1_555
O1 C2 1_555 1_555
H24 O1 1_555 1_555
O2 S1 1_555 1_555
O3 S1 1_555 1_555
O4 C20 1_555 1_555
O5 C22 1_555 1_555
H25 O5 1_555 1_555
S1 C13 1_555 1_555
C25 C26 1_555 1_555
C26 F8 1_555 1_555
C27 C25 1_555 1_555
C28 C25 1_555 1_555
C29 C28 1_555 1_555
H26 C29 1_555 1_555
C30 C29 1_555 1_555
C31 C30 1_555 1_555
C32 C31 1_555 1_555
H27 C32 1_555 1_555
C33 C28 1_555 1_555
H28 C33 1_555 1_555
C34 H29 1_555 1_555
C35 C34 1_555 1_555
H30 C35 1_555 1_555
H31 C35 1_555 1_555
C36 C30 1_555 1_555
H32 C36 1_555 1_555
H33 C36 1_555 1_555
C37 C38 1_555 1_555
C38 H34 1_555 1_555
C39 C38 1_555 1_555
H35 C39 1_555 1_555
C40 C39 1_555 1_555
C41 C40 1_555 1_555
H36 C41 1_555 1_555
C42 C37 1_555 1_555
H37 C42 1_555 1_555
C43 C34 1_555 1_555
H38 C43 1_555 1_555
H39 C43 1_555 1_555
C44 C43 1_555 1_555
C45 H40 1_555 1_555
H41 C45 1_555 1_555
C46 C45 1_555 1_555
C47 C46 1_555 1_555
H42 C47 1_555 1_555
H43 C47 1_555 1_555
H44 C47 1_555 1_555
C48 C46 1_555 1_555
H45 C48 1_555 1_555
H46 C48 1_555 1_555
H47 C48 1_555 1_555
F9 C26 1_555 1_555
F10 C26 1_555 1_555
F11 C27 1_555 1_555
F12 C27 1_555 1_555
F13 C27 1_555 1_555
F14 C40 1_555 1_555
N3 C31 1_555 1_555
N4 C44 1_555 1_555
H48 N4 1_555 1_555
O6 C25 1_555 1_555
H49 O6 1_555 1_555
O7 S2 1_555 1_555
O8 S2 1_555 1_555
O9 C44 1_555 1_555
O10 C46 1_555 1_555
H50 O10 1_555 1_555
S2 C37 1_555 1_555
C8 C9 1_555 1_555
C10 N1 1_555 1_555
C11 C12 1_555 1_555
C17 C18 1_555 1_555
C21 N2 1_555 1_555
N1 S1 1_555 1_555
C32 C33 1_555 1_555
C34 N3 1_555 1_555
C35 C36 1_555 1_555
C41 C42 1_555 1_555
C45 N4 1_555 1_555
N3 S2 1_555 1_555

#END
