
#######################################################################
#
#                 Cambridge Crystallographic Data Centre
#                                CCDC 
#
#######################################################################
#
# If this CIF has been generated from an entry in the Cambridge 
# Structural Database, then it will include bibliographic, chemical, 
# crystal, experimental, refinement or atomic coordinate data resulting 
# from the CCDC's data processing and validation procedures.
#
#######################################################################

data_TEMKAA
_chemical_formula_moiety         'C20 H16 F7 N1 O5 S1'
_chemical_name_systematic        
'{1-[(4-fluorophenyl)sulfonyl]-6-(1,1,1,3,3,3-hexafluoro-2-hydroxypropan-2-yl)-1,2,3,4-tetrahydroquinolin-2-yl}acetic acid'
_symmetry_cell_setting           monoclinic
_symmetry_space_group_name_H-M   'P 21'
_symmetry_Int_Tables_number      4
_space_group_name_Hall           'P 2yb'
loop_
_symmetry_equiv_pos_site_id
_symmetry_equiv_pos_as_xyz
1 x,y,z
2 -x,1/2+y,-z
_cell_length_a                   9.8518(6)
_cell_length_b                   7.4845(6)
_cell_length_c                   14.5193(9)
_cell_angle_alpha                90
_cell_angle_beta                 100.410(4)
_cell_angle_gamma                90
_cell_volume                     1052.97
_exptl_crystal_colour            colorless
_exptl_crystal_description       prism
_cell_formula_units_Z            2
_exptl_crystal_recrystallization_method acetone,MtBE,heptane
loop_
_atom_site_label
_atom_site_type_symbol
_atom_site_fract_x
_atom_site_fract_y
_atom_site_fract_z
S1 S 0.59094(17) 0.3643(3) 0.84807(12)
C1 C 0.3282(7) 0.8691(14) 0.7407(4)
H1 H 0.326840 0.966071 0.698266
C2 C 0.7884(6) 0.6599(12) 0.9987(5)
H2 H 0.735515 0.724379 1.040133
H3 H 0.791744 0.532194 1.016715
C3 C 0.2033(7) 0.8001(13) 0.7598(5)
C4 C 0.6841(7) 0.8672(12) 0.8666(4)
H4 H 0.771761 0.929066 0.862734
H5 H 0.639288 0.930834 0.912801
C5 C 0.7129(7) 0.6777(10) 0.8970(5)
H6 H 0.772760 0.623666 0.855658
C6 C 0.4369(7) 0.3877(13) 0.6738(5)
H7 H 0.358871 0.382130 0.703780
C7 C 0.4530(7) 0.7963(11) 0.7834(4)
C8 C 0.0630(8) 0.8719(19) 0.7080(5)
C9 C 0.4516(7) 0.6582(11) 0.8477(5)
C10 C 0.5891(7) 0.8690(13) 0.7703(4)
H8 H 0.578199 0.992454 0.745556
H9 H 0.628503 0.794280 0.725408
C11 C 0.5690(7) 0.3775(13) 0.7253(5)
C12 C 0.5348(11) 0.4197(16) 0.5377(6)
C13 C 0.6834(8) 0.3903(13) 0.6824(6)
H10 H 0.773647 0.386947 0.718929
C14 C 0.2072(7) 0.6662(14) 0.8261(5)
H11 H 0.123531 0.619444 0.839981
C15 C 0.3306(7) 0.6012(14) 0.8715(5)
H12 H 0.332625 0.515668 0.920067
C16 C 0.0679(10) 1.0677(18) 0.6752(7)
C17 C 0.6655(9) 0.4078(16) 0.5874(6)
H13 H 0.742717 0.411472 0.556571
C18 C 0.0190(10) 0.7475(19) 0.6210(7)
C19 C 0.9321(9) 0.7322(14) 1.0133(5)
C20 C 0.4206(9) 0.4062(15) 0.5781(6)
H14 H 0.330902 0.409504 0.540654
O1 O 0.7294(5) 0.3067(7) 0.8836(4)
O2 O -0.0428(5) 0.8494(16) 0.7585(4)
H15 H -0.022637 0.902707 0.810057
O3 O 0.9973(7) 0.7245(15) 1.0974(4)
H16 H 1.082555 0.729642 1.097708
O4 O 0.9906(7) 0.7846(14) 0.9501(5)
F1 F -0.1014(5) 0.7993(12) 0.5700(4)
F2 F 0.1095(5) 0.7465(11) 0.5653(4)
F3 F -0.0597(7) 1.1303(12) 0.6476(5)
F4 F 0.1342(6) 1.0883(10) 0.6041(4)
F5 F 0.0015(7) 0.5822(13) 0.6457(6)
F6 F 0.1307(7) 1.1735(11) 0.7438(5)
F7 F 0.5161(7) 0.4425(11) 0.4425(4)
N1 N 0.5815(5) 0.5696(9) 0.8859(4)
O5 O 0.4770(5) 0.2658(8) 0.8707(4)
loop_
_geom_bond_atom_site_label_1
_geom_bond_atom_site_label_2
_geom_bond_site_symmetry_1
_geom_bond_site_symmetry_2
S1 C11 1_555 1_555
C1 H1 1_555 1_555
C2 H2 1_555 1_555
H3 C2 1_555 1_555
C3 C1 1_555 1_555
C4 H4 1_555 1_555
H5 C4 1_555 1_555
C5 C2 1_555 1_555
H6 C5 1_555 1_555
C6 H7 1_555 1_555
C7 C1 1_555 1_555
C8 C3 1_555 1_555
C9 C7 1_555 1_555
C10 C4 1_555 1_555
H8 C10 1_555 1_555
H9 C10 1_555 1_555
C11 C6 1_555 1_555
C12 C17 1_555 1_555
C13 C11 1_555 1_555
H10 C13 1_555 1_555
C14 C3 1_555 1_555
H11 C14 1_555 1_555
C15 C9 1_555 1_555
H12 C15 1_555 1_555
C16 C8 1_555 1_555
C17 C13 1_555 1_555
H13 C17 1_555 1_555
C18 C8 1_555 1_555
C19 C2 1_555 1_555
C20 C6 1_555 1_555
H14 C20 1_555 1_555
O1 S1 1_555 1_555
O2 C8 1_555 1_555
H15 O2 1_555 1_555
O3 C19 1_555 1_555
H16 O3 1_555 1_555
O4 C19 1_555 1_555
F1 C18 1_555 1_555
F2 C18 1_555 1_555
F3 C16 1_555 1_555
F4 C16 1_555 1_555
F5 C18 1_555 1_555
F6 C16 1_555 1_555
F7 C12 1_555 1_555
N1 S1 1_555 1_555
O5 S1 1_555 1_555
C4 C5 1_555 1_555
C5 N1 1_555 1_555
C7 C10 1_555 1_555
C9 N1 1_555 1_555
C12 C20 1_555 1_555
C14 C15 1_555 1_555

#END
