
#######################################################################
#
#                 Cambridge Crystallographic Data Centre
#                                CCDC 
#
#######################################################################
#
# If this CIF has been generated from an entry in the Cambridge 
# Structural Database, then it will include bibliographic, chemical, 
# crystal, experimental, refinement or atomic coordinate data resulting 
# from the CCDC's data processing and validation procedures.
#
#######################################################################

data_TEMPIN
_chemical_compound_source        'roots of Pieris formosa'
_chemical_name_common            'Pierisformosoid A'
_chemical_formula_moiety         'C33 H46 O15,H2 O1'
_chemical_name_systematic        
'6,7,11,15,16-pentakis(acetyloxy)-5,10-dihydroxy-3-oxograyanotoxan-14-yl propanoate monohydrate'
_symmetry_cell_setting           orthorhombic
_symmetry_space_group_name_H-M   'P 21 21 21'
_symmetry_Int_Tables_number      19
_space_group_name_Hall           'P 2ac 2ab'
loop_
_symmetry_equiv_pos_site_id
_symmetry_equiv_pos_as_xyz
1 x,y,z
2 1/2-x,-y,1/2+z
3 1/2+x,1/2-y,-z
4 -x,1/2+y,1/2-z
_cell_length_a                   8.7194(3)
_cell_length_b                   11.0438(5)
_cell_length_c                   36.7424(15)
_cell_angle_alpha                90
_cell_angle_beta                 90
_cell_angle_gamma                90
_cell_volume                     3538.12
_cell_formula_units_Z            4
loop_
_atom_site_label
_atom_site_type_symbol
_atom_site_fract_x
_atom_site_fract_y
_atom_site_fract_z
O1 O 0.3037(3) 0.0875(2) 0.17523(7)
O2 O 0.2135(3) 0.1550(2) 0.10874(7)
O3 O 0.5068(3) 0.1719(2) 0.11906(7)
O4 O 0.6982(3) 0.2444(3) 0.08394(8)
O5 O -0.0968(3) 0.4001(2) 0.12148(8)
H1 H -0.1325 0.3538 0.1062
C1 C 0.6197(4) 0.1621(4) 0.09436(11)
O6 O 0.5803(3) 0.1027(3) 0.19329(8)
O7 O 0.2782(3) 0.0419(3) 0.23480(8)
O8 O 0.1882(3) 0.6002(3) 0.19515(8)
H2 H 0.1124 0.6218 0.2067
O9 O 0.4526(3) 0.5518(3) 0.12763(8)
O10 O 0.0995(3) 0.3029(3) 0.06466(7)
O11 O 0.3398(4) 0.2822(3) 0.04287(9)
O12 O -0.0134(4) 0.0794(3) 0.12835(9)
O13 O 0.8199(3) 0.1618(3) 0.20928(9)
O14 O -0.1332(4) 0.7431(3) 0.08457(10)
C2 C 0.3414(4) 0.2094(3) 0.18508(11)
H3 H 0.2748 0.2357 0.2050
C3 C -0.0697(4) 0.6566(4) 0.09793(13)
C4 C -0.1393(5) 0.5029(4) 0.05060(13)
H4 H -0.2233 0.4730 0.0649
H5 H -0.1006 0.4392 0.0354
H6 H -0.1740 0.5687 0.0356
C5 C -0.0260(5) 0.6435(4) 0.13776(12)
H7 H -0.1131 0.6184 0.1523
H8 H 0.0147 0.7186 0.1474
C6 C 0.0376(4) 0.4574(4) 0.10704(11)
C7 C 0.2744(4) 0.0120(4) 0.20300(11)
C8 C 0.5953(4) 0.4449(4) 0.17568(11)
H9 H 0.6154 0.4559 0.2014
H10 H 0.6796 0.4810 0.1623
C9 C 0.1580(4) 0.3645(4) 0.09622(11)
H11 H 0.2543 0.4055 0.0902
C10 C 0.3087(4) 0.4273(3) 0.17201(11)
H12 H 0.3229 0.4049 0.1976
C11 C 0.1864(4) 0.2692(3) 0.12683(10)
H13 H 0.0931 0.2622 0.1416
C12 C 0.1051(5) 0.0690(4) 0.11174(11)
C13 C 0.4831(4) 0.2917(3) 0.13444(11)
H14 H 0.4972 0.3556 0.1163
C14 C 0.2047(5) 0.2627(4) 0.04034(11)
C15 C 0.5106(5) 0.6631(4) 0.12207(15)
C16 C 0.0973(4) 0.5447(4) 0.13659(11)
H15 H 0.1880 0.5835 0.1260
C17 C 0.1541(7) -0.0422(4) 0.09118(14)
H16 H 0.1954 -0.0189 0.0680
H17 H 0.0672 -0.0942 0.0876
H18 H 0.2311 -0.0845 0.1049
C18 C 0.1502(4) 0.4946(4) 0.17354(11)
C19 C 0.0302(4) 0.4227(4) 0.19498(11)
H19 H 0.0657 0.4106 0.2194
H20 H 0.0143 0.3456 0.1835
H21 H -0.0646 0.4669 0.1954
O15 O 0.5601(6) 0.7257(4) 0.14606(14)
C20 C 0.5160(4) 0.2253(4) 0.19681(11)
C21 C 0.5308(5) 0.2663(4) 0.23628(11)
H22 H 0.4959 0.2030 0.2521
H23 H 0.4695 0.3375 0.2400
H24 H 0.6362 0.2845 0.2415
C22 C 0.5075(6) 0.6965(5) 0.08232(17)
H25 H 0.5019 0.6242 0.0679
H26 H 0.5992 0.7403 0.0763
H27 H 0.4196 0.7463 0.0775
C23 C -0.0125(5) 0.5472(4) 0.07571(12)
C24 C 0.7316(8) 0.0173(5) 0.04847(15)
H28 H 0.6847 0.0586 0.0284
H29 H 0.7413 -0.0673 0.0428
H30 H 0.8314 0.0509 0.0529
C25 C 0.6336(6) 0.0323(4) 0.08188(14)
H31 H 0.6771 -0.0156 0.1015
H32 H 0.5319 0.0009 0.0768
C26 C 0.7313(5) 0.0836(4) 0.20009(11)
C27 C 0.2366(6) -0.1123(4) 0.18999(13)
H33 H 0.1718 -0.1070 0.1689
H34 H 0.1842 -0.1557 0.2089
H35 H 0.3295 -0.1541 0.1838
C28 C 0.7710(5) -0.0461(5) 0.19438(14)
H36 H 0.6791 -0.0916 0.1900
H37 H 0.8215 -0.0769 0.2157
H38 H 0.8381 -0.0533 0.1738
C29 C 0.5890(4) 0.3084(4) 0.16716(11)
H39 H 0.6920 0.2790 0.1612
C30 C 0.4465(4) 0.5106(4) 0.16574(12)
H40 H 0.4360 0.5816 0.1815
C31 C 0.1282(6) 0.1934(5) 0.01025(13)
H41 H 0.1389 0.1081 0.0146
H42 H 0.1753 0.2137 -0.0126
H43 H 0.0213 0.2141 0.0094
C32 C 0.1224(5) 0.5916(4) 0.05250(12)
H44 H 0.0876 0.6538 0.0362
H45 H 0.1630 0.5252 0.0387
H46 H 0.2009 0.6236 0.0681
C33 C 0.3226(4) 0.2973(3) 0.15231(11)
O16 O 0.0439(3) 0.1996(3) 0.26273(8)
H47 H 0.1113 0.1433 0.2608
H48 H -0.0127 0.1899 0.2439
loop_
_geom_bond_atom_site_label_1
_geom_bond_atom_site_label_2
_geom_bond_site_symmetry_1
_geom_bond_site_symmetry_2
O1 C2 1_555 1_555
O2 C11 1_555 1_555
O3 C1 1_555 1_555
O4 C1 1_555 1_555
O5 H1 1_555 1_555
C1 C25 1_555 1_555
O6 C20 1_555 1_555
O7 C7 1_555 1_555
O8 H2 1_555 1_555
O9 C15 1_555 1_555
O10 C9 1_555 1_555
O11 C14 1_555 1_555
O12 C12 1_555 1_555
O13 C26 1_555 1_555
O14 C3 1_555 1_555
C2 H3 1_555 1_555
C3 C5 1_555 1_555
C4 H4 1_555 1_555
H5 C4 1_555 1_555
H6 C4 1_555 1_555
C5 H7 1_555 1_555
H8 C5 1_555 1_555
C6 O5 1_555 1_555
C7 O1 1_555 1_555
C8 H9 1_555 1_555
H10 C8 1_555 1_555
C9 C6 1_555 1_555
H11 C9 1_555 1_555
C10 H12 1_555 1_555
C11 C9 1_555 1_555
H13 C11 1_555 1_555
C12 O2 1_555 1_555
C13 O3 1_555 1_555
H14 C13 1_555 1_555
C14 O10 1_555 1_555
C15 O15 1_555 1_555
C16 C5 1_555 1_555
H15 C16 1_555 1_555
C17 C12 1_555 1_555
H16 C17 1_555 1_555
H17 C17 1_555 1_555
H18 C17 1_555 1_555
C18 O8 1_555 1_555
C19 C18 1_555 1_555
H19 C19 1_555 1_555
H20 C19 1_555 1_555
H21 C19 1_555 1_555
C20 C2 1_555 1_555
C21 C20 1_555 1_555
H22 C21 1_555 1_555
H23 C21 1_555 1_555
H24 C21 1_555 1_555
C22 C15 1_555 1_555
H25 C22 1_555 1_555
H26 C22 1_555 1_555
H27 C22 1_555 1_555
C23 C3 1_555 1_555
C24 H28 1_555 1_555
H29 C24 1_555 1_555
H30 C24 1_555 1_555
C25 C24 1_555 1_555
H31 C25 1_555 1_555
H32 C25 1_555 1_555
C26 O6 1_555 1_555
C27 C7 1_555 1_555
H33 C27 1_555 1_555
H34 C27 1_555 1_555
H35 C27 1_555 1_555
C28 C26 1_555 1_555
H36 C28 1_555 1_555
H37 C28 1_555 1_555
H38 C28 1_555 1_555
C29 C8 1_555 1_555
H39 C29 1_555 1_555
C30 O9 1_555 1_555
H40 C30 1_555 1_555
C31 C14 1_555 1_555
H41 C31 1_555 1_555
H42 C31 1_555 1_555
H43 C31 1_555 1_555
C32 C23 1_555 1_555
H44 C32 1_555 1_555
H45 C32 1_555 1_555
H46 C32 1_555 1_555
C33 C2 1_555 1_555
O16 H47 1_555 1_555
H48 O16 1_555 1_555
C4 C23 1_555 1_555
C6 C16 1_555 1_555
C6 C23 1_555 1_555
C8 C30 1_555 1_555
C10 C18 1_555 1_555
C10 C30 1_555 1_555
C10 C33 1_555 1_555
C11 C33 1_555 1_555
C13 C29 1_555 1_555
C13 C33 1_555 1_555
C16 C18 1_555 1_555
C20 C29 1_555 1_555

#END
