
#######################################################################
#
#                 Cambridge Crystallographic Data Centre
#                                CCDC 
#
#######################################################################
#
# If this CIF has been generated from an entry in the Cambridge 
# Structural Database, then it will include bibliographic, chemical, 
# crystal, experimental, refinement or atomic coordinate data resulting 
# from the CCDC's data processing and validation procedures.
#
#######################################################################

data_TEMREL
_chemical_formula_moiety         'C38 H50 O8,C1 H4 O1'
_chemical_name_systematic        
"5-hydroxy-2,2,8,8,10,10,14,14,16,16-decamethyl-12-(2-methylpropanoyl)-6-(propan-2-yl)-2,3,3a,4-tetrahydro-6H-4,13a-propanofuro[3',2':5,6]pyrano[3,2-b]xanthene-7,9,15(8H,10H)-trione methanol solvate"
_symmetry_cell_setting           triclinic
_symmetry_space_group_name_H-M   'P -1'
_symmetry_Int_Tables_number      2
_space_group_name_Hall           '-P 1'
loop_
_symmetry_equiv_pos_site_id
_symmetry_equiv_pos_as_xyz
1 x,y,z
2 -x,-y,-z
_cell_length_a                   10.6706(10)
_cell_length_b                   13.8828(12)
_cell_length_c                   14.1078(13)
_cell_angle_alpha                70.567(3)
_cell_angle_beta                 84.605(3)
_cell_angle_gamma                69.424(3)
_cell_volume                     1844.49
_exptl_crystal_colour            colorless
_exptl_crystal_description       block
_cell_formula_units_Z            2
loop_
_atom_site_label
_atom_site_type_symbol
_atom_site_fract_x
_atom_site_fract_y
_atom_site_fract_z
O1 O 0.50490(18) 0.18055(13) 0.67204(17)
O2 O 0.82898(16) 0.34877(12) 0.62168(13)
O3 O 0.40786(13) 0.50552(10) 0.73604(11)
O4 O 0.14934(15) 0.65627(14) 0.68662(12)
O5 O 0.71350(13) 0.69399(11) 0.72750(12)
H1 H 0.7673 0.6438 0.7108
O6 O 0.25069(12) 0.85351(10) 0.76819(11)
O7 O 0.38226(17) 0.85428(15) 1.01749(13)
O8 O 0.15918(13) 1.03694(11) 0.69812(11)
C1 C 0.5404(2) 0.25569(16) 0.66663(17)
C2 C 0.6850(2) 0.24704(16) 0.64333(17)
C3 C 0.7223(2) 0.33966(16) 0.65345(16)
C4 C 0.63166(19) 0.41527(15) 0.70171(15)
C5 C 0.50262(19) 0.42564(15) 0.70672(15)
C6 C 0.4368(2) 0.35917(15) 0.67813(16)
C7 C 0.7097(3) 0.2435(2) 0.5355(2)
H2 H 0.8007 0.2380 0.5188
H3 H 0.6936 0.1815 0.5303
H4 H 0.6503 0.3086 0.4898
C8 C 0.7755(3) 0.14193(19) 0.7183(2)
H5 H 0.8676 0.1350 0.7047
H6 H 0.7565 0.1442 0.7855
H7 H 0.7592 0.0808 0.7114
C9 C 0.3644(2) 0.42523(18) 0.57545(18)
H8 H 0.3221 0.3834 0.5566
H9 H 0.2979 0.4913 0.5798
H10 H 0.4281 0.4422 0.5258
C10 C 0.3357(3) 0.3303(2) 0.7569(2)
H11 H 0.2947 0.2879 0.7375
H12 H 0.3810 0.2890 0.8210
H13 H 0.2681 0.3957 0.7616
C11 C 0.68253(19) 0.48745(15) 0.73601(15)
H14 H 0.7510 0.5058 0.6893
C12 C 0.7469(2) 0.43161(17) 0.84367(17)
H15 H 0.7746 0.4848 0.8596
C13 C 0.6463(3) 0.4030(2) 0.92186(19)
H16 H 0.5685 0.4665 0.9157
H17 H 0.6208 0.3475 0.9114
H18 H 0.6861 0.3771 0.9879
C14 C 0.8722(3) 0.3333(2) 0.8505(2)
H19 H 0.9337 0.3538 0.8004
H20 H 0.9137 0.3068 0.9161
H21 H 0.8484 0.2772 0.8395
C15 C 0.56931(18) 0.59167(15) 0.73146(15)
C16 C 0.43851(19) 0.59464(15) 0.73669(15)
C17 C 0.32876(18) 0.68105(15) 0.74833(15)
C18 C 0.18955(19) 0.67927(15) 0.75075(16)
C19 C 0.1022(2) 0.6996(2) 0.83667(18)
H22 H 0.1482 0.7227 0.8775
C20 C -0.0310(3) 0.7898(3) 0.7984(3)
H23 H -0.0853 0.8015 0.8544
H24 H -0.0150 0.8555 0.7595
H25 H -0.0766 0.7691 0.7571
C21 C 0.0845(4) 0.5936(3) 0.9010(2)
H26 H 0.0287 0.6051 0.9565
H27 H 0.0431 0.5683 0.8611
H28 H 0.1703 0.5404 0.9260
C22 C 0.35741(18) 0.76871(15) 0.75689(15)
C23 C 0.48687(18) 0.77134(15) 0.75116(15)
C24 C 0.59058(18) 0.68431(15) 0.73507(15)
C25 C 0.50798(19) 0.86845(15) 0.76295(15)
H29 H 0.5904 0.8755 0.7292
C26 C 0.39092(19) 0.96921(15) 0.71131(15)
H30 H 0.4037 1.0320 0.7208
C27 C 0.26350(19) 0.95822(15) 0.76149(16)
C28 C 0.2521(2) 0.96432(16) 0.86802(16)
C29 C 0.1339(2) 0.9334(2) 0.9225(2)
H31 H 0.1301 0.9382 0.9891
H32 H 0.0521 0.9822 0.8861
H33 H 0.1454 0.8604 0.9266
C30 C 0.2319(3) 1.08041(18) 0.8661(2)
H34 H 0.2249 1.0829 0.9337
H35 H 0.3069 1.1006 0.8350
H36 H 0.1514 1.1301 0.8285
C31 C 0.3839(2) 0.88795(17) 0.92674(18)
C32 C 0.5202(2) 0.85996(16) 0.87483(16)
C33 C 0.6099(2) 0.74638(19) 0.93600(18)
H37 H 0.6948 0.7281 0.9044
H38 H 0.6232 0.7451 1.0028
H39 H 0.5679 0.6945 0.9392
C34 C 0.5848(2) 0.9421(2) 0.8799(2)
H40 H 0.5302 1.0143 0.8419
H41 H 0.5917 0.9378 0.9487
H42 H 0.6725 0.9253 0.8522
C35 C 0.3547(2) 0.99850(18) 0.60150(17)
H43 H 0.3690 0.9339 0.5834
H44 H 0.4068 1.0399 0.5581
C36 C 0.2056(2) 1.06734(18) 0.59455(18)
C37 C 0.1242(3) 1.0410(3) 0.5310(2)
H45 H 0.1522 1.0600 0.4626
H46 H 0.1376 0.9647 0.5561
H47 H 0.0311 1.0816 0.5340
C38 C 0.1821(3) 1.1881(2) 0.5634(2)
H48 H 0.2110 1.2123 0.4958
H49 H 0.0885 1.2269 0.5669
H50 H 0.2321 1.2014 0.6079
O9 O -0.05194(16) 0.57586(16) 0.67975(14)
C39 C -0.0125(3) 0.5350(3) 0.5995(3)
H51 H 0.043(4) 0.459(3) 0.624(3)
H52 H 0.000(3) 0.612(3) 0.682(2)
H53 H 0.046(4) 0.572(3) 0.550(3)
H54 H -0.093(4) 0.540(3) 0.564(3)
loop_
_geom_bond_atom_site_label_1
_geom_bond_atom_site_label_2
_geom_bond_site_symmetry_1
_geom_bond_site_symmetry_2
O1 C1 1_555 1_555
O2 C3 1_555 1_555
O3 C5 1_555 1_555
O4 C18 1_555 1_555
O5 H1 1_555 1_555
O6 C22 1_555 1_555
O7 C31 1_555 1_555
O8 C27 1_555 1_555
C1 C2 1_555 1_555
C2 C3 1_555 1_555
C3 C4 1_555 1_555
C4 C5 1_555 1_555
C5 C6 1_555 1_555
C6 C1 1_555 1_555
C7 C2 1_555 1_555
H2 C7 1_555 1_555
H3 C7 1_555 1_555
H4 C7 1_555 1_555
C8 C2 1_555 1_555
H5 C8 1_555 1_555
H6 C8 1_555 1_555
H7 C8 1_555 1_555
C9 C6 1_555 1_555
H8 C9 1_555 1_555
H9 C9 1_555 1_555
H10 C9 1_555 1_555
C10 C6 1_555 1_555
H11 C10 1_555 1_555
H12 C10 1_555 1_555
H13 C10 1_555 1_555
C11 C4 1_555 1_555
H14 C11 1_555 1_555
C12 C11 1_555 1_555
H15 C12 1_555 1_555
C13 C12 1_555 1_555
H16 C13 1_555 1_555
H17 C13 1_555 1_555
H18 C13 1_555 1_555
C14 C12 1_555 1_555
H19 C14 1_555 1_555
H20 C14 1_555 1_555
H21 C14 1_555 1_555
C15 C11 1_555 1_555
C16 O3 1_555 1_555
C17 C16 1_555 1_555
C18 C17 1_555 1_555
C19 C18 1_555 1_555
H22 C19 1_555 1_555
C20 C19 1_555 1_555
H23 C20 1_555 1_555
H24 C20 1_555 1_555
H25 C20 1_555 1_555
C21 C19 1_555 1_555
H26 C21 1_555 1_555
H27 C21 1_555 1_555
H28 C21 1_555 1_555
C22 C17 1_555 1_555
C23 C22 1_555 1_555
C24 O5 1_555 1_555
C25 C23 1_555 1_555
H29 C25 1_555 1_555
C26 C25 1_555 1_555
H30 C26 1_555 1_555
C27 O6 1_555 1_555
C28 C27 1_555 1_555
C29 C28 1_555 1_555
H31 C29 1_555 1_555
H32 C29 1_555 1_555
H33 C29 1_555 1_555
C30 C28 1_555 1_555
H34 C30 1_555 1_555
H35 C30 1_555 1_555
H36 C30 1_555 1_555
C31 C28 1_555 1_555
C32 C25 1_555 1_555
C33 C32 1_555 1_555
H37 C33 1_555 1_555
H38 C33 1_555 1_555
H39 C33 1_555 1_555
C34 C32 1_555 1_555
H40 C34 1_555 1_555
H41 C34 1_555 1_555
H42 C34 1_555 1_555
C35 C26 1_555 1_555
H43 C35 1_555 1_555
H44 C35 1_555 1_555
C36 O8 1_555 1_555
C37 C36 1_555 1_555
H45 C37 1_555 1_555
H46 C37 1_555 1_555
H47 C37 1_555 1_555
C38 C36 1_555 1_555
H48 C38 1_555 1_555
H49 C38 1_555 1_555
H50 C38 1_555 1_555
O9 C39 1_555 1_555
C39 H51 1_555 1_555
H52 O9 1_555 1_555
H53 C39 1_555 1_555
H54 C39 1_555 1_555
C15 C16 1_555 1_555
C15 C24 1_555 1_555
C23 C24 1_555 1_555
C26 C27 1_555 1_555
C31 C32 1_555 1_555
C35 C36 1_555 1_555

#END
