
#######################################################################
#
#                 Cambridge Crystallographic Data Centre
#                                CCDC 
#
#######################################################################
#
# If this CIF has been generated from an entry in the Cambridge 
# Structural Database, then it will include bibliographic, chemical, 
# crystal, experimental, refinement or atomic coordinate data resulting 
# from the CCDC's data processing and validation procedures.
#
#######################################################################

data_TEMROV
_chemical_formula_moiety         'C34 H44 O6'
_chemical_name_systematic        
7-hydroxy-2,2,4,4,11a-pentamethyl-6-(2-methylpropanoyl)-9,13-bis(propan-2-yl)-4,7b,8,9,11a,13-hexahydro-1H-[1]benzofuro[2,3-a]xanthene-1,3(2H)-dione
_symmetry_cell_setting           monoclinic
_symmetry_space_group_name_H-M   'P 21'
_symmetry_Int_Tables_number      4
_space_group_name_Hall           'P 2yb'
loop_
_symmetry_equiv_pos_site_id
_symmetry_equiv_pos_as_xyz
1 x,y,z
2 -x,1/2+y,-z
_cell_length_a                   11.5410(2)
_cell_length_b                   16.4653(3)
_cell_length_c                   32.9338(5)
_cell_angle_alpha                90
_cell_angle_beta                 95.7200(10)
_cell_angle_gamma                90
_cell_volume                     6227.12
_exptl_crystal_colour            colorless
_exptl_crystal_description       block
_cell_formula_units_Z            8
loop_
_atom_site_label
_atom_site_type_symbol
_atom_site_fract_x
_atom_site_fract_y
_atom_site_fract_z
O1 O 0.7139(4) 0.1202(3) 0.31585(12)
H1 H 0.7309 0.0706 0.3162
O2 O 0.7078(4) -0.0230(3) 0.33720(13)
O3 O 0.5924(3) 0.0514(2) 0.44774(11)
O4 O 0.5788(4) 0.2602(3) 0.54370(13)
O5 O 0.6395(5) -0.0066(3) 0.58895(14)
O6 O 0.5848(3) 0.3241(2) 0.39716(12)
C1 C 0.6688(5) 0.1401(3) 0.35077(16)
C2 C 0.6470(4) 0.0792(3) 0.38011(17)
C3 C 0.6638(5) -0.0063(4) 0.36970(17)
C4 C 0.6225(5) -0.0766(3) 0.39398(18)
H2 H 0.6449 -0.0657 0.4236
C5 C 0.6819(6) -0.1569(4) 0.3824(2)
H3 H 0.6530 -0.1723 0.3545
H4 H 0.6637 -0.2000 0.4013
H5 H 0.7664 -0.1490 0.3842
C6 C 0.4907(6) -0.0823(4) 0.3871(2)
H6 H 0.4565 -0.0296 0.3928
H7 H 0.4631 -0.1235 0.4054
H8 H 0.4674 -0.0976 0.3587
C7 C 0.6059(4) 0.1083(3) 0.41706(16)
C8 C 0.5873(4) 0.0786(3) 0.48700(16)
C9 C 0.5602(4) 0.1567(3) 0.49499(16)
C10 C 0.5736(5) 0.1879(3) 0.53708(16)
C11 C 0.5781(5) 0.1276(3) 0.57208(18)
C12 C 0.6131(5) 0.0422(3) 0.56208(17)
C13 C 0.6094(5) 0.0117(3) 0.51733(17)
C14 C 0.7282(5) -0.0313(3) 0.51353(17)
H9 H 0.7300 -0.0520 0.4857
H10 H 0.7375 -0.0767 0.5329
H11 H 0.7919 0.0076 0.5196
C15 C 0.5110(5) -0.0505(3) 0.51086(19)
H12 H 0.4358 -0.0225 0.5093
H13 H 0.5165 -0.0888 0.5338
H14 H 0.5176 -0.0802 0.4854
C16 C 0.4519(6) 0.1203(4) 0.5837(2)
H15 H 0.4232 0.1743 0.5904
H16 H 0.4506 0.0846 0.6075
H17 H 0.4020 0.0976 0.5607
C17 C 0.6572(8) 0.1585(4) 0.6092(2)
H18 H 0.7381 0.1599 0.6026
H19 H 0.6511 0.1220 0.6324
H20 H 0.6328 0.2133 0.6163
C18 C 0.5226(4) 0.2134(3) 0.46087(16)
H21 H 0.5516 0.2688 0.4690
C19 C 0.5792(4) 0.1887(3) 0.42398(17)
C20 C 0.6022(4) 0.2439(3) 0.39330(16)
C21 C 0.6099(5) 0.3637(3) 0.35748(16)
C22 C 0.6659(5) 0.2964(3) 0.33307(17)
H22 H 0.7517 0.3065 0.3348
C23 C 0.6457(4) 0.2214(3) 0.35738(16)
C24 C 0.6184(6) 0.2951(4) 0.28798(18)
H23 H 0.6499 0.2471 0.2747
H24 H 0.6454 0.3442 0.2744
C25 C 0.4840(7) 0.2920(4) 0.2822(2)
H25 H 0.4608 0.2408 0.2956
C26 C 0.4381(6) 0.3604(5) 0.3057(2)
H26 H 0.3638 0.3820 0.2963
C27 C 0.4942(5) 0.3925(4) 0.33852(19)
H27 H 0.4589 0.4369 0.3510
C28 C 0.4261(8) 0.2896(6) 0.2383(3)
H28 H 0.3399 0.2915 0.2396
C29 C 0.4597(8) 0.3643(6) 0.2145(3)
H29 H 0.4327 0.4135 0.2275
H30 H 0.4234 0.3610 0.1863
H31 H 0.5446 0.3664 0.2145
C30 C 0.4546(11) 0.2089(7) 0.2188(4)
H32 H 0.5355 0.2096 0.2122
H33 H 0.4024 0.2006 0.1938
H34 H 0.4442 0.1645 0.2380
C31 C 0.6914(5) 0.4335(4) 0.36969(19)
H35 H 0.6502 0.4744 0.3844
H36 H 0.7182 0.4581 0.3452
H37 H 0.7586 0.4133 0.3873
C32 C 0.3883(5) 0.2186(4) 0.45110(18)
H38 H 0.3721 0.2614 0.4297
C33 C 0.3344(5) 0.1394(4) 0.4338(2)
H39 H 0.3666 0.1263 0.4082
H40 H 0.2498 0.1458 0.4287
H41 H 0.3523 0.0954 0.4535
C34 C 0.3258(6) 0.2444(4) 0.4885(2)
H42 H 0.3283 0.1995 0.5082
H43 H 0.2446 0.2580 0.4797
H44 H 0.3650 0.2919 0.5015
O7 O 0.3290(4) 0.8817(3) 0.18722(13)
H45 H 0.3411 0.9320 0.1874
O8 O 0.3108(4) 1.0249(3) 0.16356(14)
O9 O 0.1275(3) 0.9451(2) 0.05548(12)
O10 O 0.0387(4) 0.7354(3) -0.03829(13)
O11 O 0.0696(6) 0.9991(3) -0.08593(15)
O12 O 0.1466(3) 0.6755(2) 0.10990(12)
C35 C 0.2626(5) 0.8612(4) 0.15271(17)
C36 C 0.2227(5) 0.9193(4) 0.12251(17)
C37 C 0.2469(5) 1.0057(4) 0.13215(18)
C38 C 0.1909(5) 1.0758(4) 0.1068(2)
H46 H 0.1971 1.0646 0.0773
C39 C 0.0609(6) 1.0803(4) 0.1141(2)
H47 H 0.0225 1.0290 0.1057
H48 H 0.0237 1.1250 0.0981
H49 H 0.0541 1.0897 0.1431
C40 C 0.2501(7) 1.1566(4) 0.1181(2)
H50 H 0.2293 1.1742 0.1449
H51 H 0.2243 1.1976 0.0976
H52 H 0.3348 1.1501 0.1192
C41 C 0.1586(4) 0.8902(3) 0.08660(17)
C42 C 0.0947(4) 0.9160(3) 0.01674(17)
C43 C 0.0582(4) 0.8398(3) 0.01033(18)
C44 C 0.0408(5) 0.8077(4) -0.03181(19)
C45 C 0.0203(6) 0.8668(4) -0.0675(2)
C46 C 0.0644(5) 0.9533(4) -0.05805(19)
C47 C 0.1000(5) 0.9831(3) -0.01443(18)
C48 C 0.2235(5) 1.0203(4) -0.0139(2)
H53 H 0.2470 1.0432 0.0131
H54 H 0.2228 1.0634 -0.0345
H55 H 0.2788 0.9780 -0.0200
C49 C 0.0118(5) 1.0492(4) -0.0057(2)
H56 H -0.0634 1.0239 -0.0020
H57 H 0.0022 1.0873 -0.0286
H58 H 0.0402 1.0786 0.0192
C50 C 0.0324(17) 0.8341(11) -0.1053(5)
H59 H 0.1152 0.8259 -0.1083
H60 H -0.0011 0.8713 -0.1265
H61 H -0.0083 0.7818 -0.1079
C51 C -0.1085(7) 0.8812(11) -0.0689(6)
H62 H -0.1494 0.8290 -0.0702
H63 H -0.1346 0.9134 -0.0932
H64 H -0.1256 0.9107 -0.0444
C52 C 0.0448(5) 0.7830(3) 0.04527(17)
H65 H 0.0679 0.7272 0.0371
C53 C 0.1256(4) 0.8093(3) 0.08097(17)
C54 C 0.1673(5) 0.7559(3) 0.11193(17)
C55 C 0.1828(5) 0.6405(4) 0.15099(17)
C56 C 0.2686(5) 0.7046(4) 0.17195(18)
H66 H 0.3495 0.6891 0.1667
C57 C 0.2344(4) 0.7800(4) 0.14695(17)
C58 C 0.2636(5) 0.7089(4) 0.21786(18)
H67 H 0.3187 0.7509 0.2294
H68 H 0.2886 0.6561 0.2301
C59 C 0.1407(6) 0.7290(4) 0.22942(18)
H69 H 0.1231 0.7865 0.2210
C60 C 0.0537(5) 0.6754(5) 0.2052(2)
H70 H -0.0207 0.6696 0.2149
C61 C 0.0725(5) 0.6361(4) 0.17185(19)
H71 H 0.0117 0.6022 0.1599
C62 C 0.1297(6) 0.7228(4) 0.27566(19)
H72 H 0.0507 0.7438 0.2802
C63 C 0.2174(7) 0.7769(4) 0.3000(2)
H73 H 0.2962 0.7561 0.2980
H74 H 0.2014 0.7774 0.3286
H75 H 0.2114 0.8322 0.2890
C64 C 0.1367(7) 0.6365(5) 0.2919(2)
H76 H 0.0717 0.6047 0.2787
H77 H 0.1325 0.6372 0.3214
H78 H 0.2105 0.6119 0.2859
C65 C 0.2380(6) 0.5596(4) 0.1446(2)
H79 H 0.1781 0.5211 0.1336
H80 H 0.2751 0.5394 0.1707
H81 H 0.2967 0.5656 0.1253
C66 C -0.0828(5) 0.7794(4) 0.0570(2)
H82 H -0.0845 0.7376 0.0789
C67 C -0.1239(5) 0.8586(4) 0.0743(2)
H83 H -0.0732 0.8729 0.0989
H84 H -0.2041 0.8522 0.0812
H85 H -0.1210 0.9018 0.0539
C68 C -0.1700(5) 0.7520(4) 0.0213(2)
H86 H -0.1846 0.7969 0.0020
H87 H -0.2432 0.7360 0.0318
H88 H -0.1378 0.7057 0.0075
O13 O 0.8891(4) 0.0669(3) 0.45708(13)
H95 H 0.9466 0.0359 0.4622
O14 O 0.9432(5) -0.0292(3) 0.40432(14)
O15 O 1.0133(3) 0.1641(3) 0.33040(12)
O16 O 0.8921(4) 0.4231(3) 0.28720(14)
O17 O 1.0570(6) 0.2461(4) 0.19697(16)
O18 O 0.9088(3) 0.3435(2) 0.43576(11)
C71 C 0.9181(5) 0.1276(3) 0.43257(17)
C72 C 0.9621(5) 0.1107(3) 0.39420(17)
C73 C 0.9821(5) 0.0259(4) 0.3843(2)
C74 C 1.0628(8) -0.0013(5) 0.3537(3)
H96 H 1.0944 0.0458 0.3391
C75 C 1.0046(7) -0.0612(8) 0.3246(3)
H97 H 0.9906 -0.1116 0.3392
H98 H 1.0547 -0.0726 0.3029
H99 H 0.9302 -0.0390 0.3126
C76 C 1.1649(8) -0.0508(6) 0.3800(3)
H100 H 1.1983 -0.0170 0.4027
H101 H 1.2258 -0.0650 0.3625
H102 H 1.1327 -0.1006 0.3907
C77 C 0.9811(4) 0.1808(3) 0.36973(17)
C78 C 1.0004(5) 0.2247(4) 0.30171(17)
C79 C 0.9812(5) 0.3026(4) 0.31115(17)
C80 C 0.9409(5) 0.3590(4) 0.27910(18)
C81 C 0.9560(7) 0.3408(5) 0.23417(19)
C82 C 1.0132(7) 0.2598(5) 0.2280(2)
C83 C 1.0095(6) 0.1908(4) 0.25924(19)
C84 C 1.1234(6) 0.1406(5) 0.2598(2)
H103 H 1.1894 0.1738 0.2710
H104 H 1.1352 0.1242 0.2319
H105 H 1.1175 0.0922 0.2767
C85 C 0.9041(7) 0.1353(5) 0.24583(19)
H106 H 0.9054 0.0879 0.2639
H107 H 0.9087 0.1173 0.2177
H108 H 0.8317 0.1657 0.2475
C86 C 0.8343(8) 0.3402(6) 0.2100(2)
H109 H 0.7846 0.3005 0.2222
H110 H 0.8416 0.3253 0.1816
H111 H 0.7993 0.3943 0.2110
C87 C 1.0320(9) 0.4080(6) 0.2187(3)
H112 H 0.9919 0.4603 0.2199
H113 H 1.0465 0.3965 0.1905
H114 H 1.1063 0.4103 0.2359
C88 C 0.9895(5) 0.3310(3) 0.35504(17)
H115 H 0.9273 0.3724 0.3577
C89 C 0.9662(4) 0.2587(3) 0.38127(16)
C90 C 0.9279(4) 0.2695(3) 0.42051(17)
C91 C 0.8874(5) 0.3317(4) 0.47956(17)
C92 C 0.8539(4) 0.2401(3) 0.48265(16)
H116 H 0.7672 0.2348 0.4787
C93 C 0.9051(5) 0.2060(4) 0.44564(16)
C94 C 0.8989(5) 0.2035(4) 0.52378(16)
H117 H 0.8589 0.2301 0.5454
H118 H 0.8784 0.1451 0.5237
C95 C 1.0287(5) 0.2120(4) 0.53396(17)
H119 H 1.0661 0.1782 0.5137
C96 C 1.0640(5) 0.2984(4) 0.52709(17)
H120 H 1.1365 0.3164 0.5402
C97 C 1.0008(5) 0.3512(4) 0.50389(17)
H121 H 1.0294 0.4051 0.5026
C98 C 1.0764(5) 0.1813(4) 0.57627(19)
H122 H 1.1622 0.1915 0.5791
C99 C 1.0258(6) 0.2281(5) 0.61091(19)
H123 H 1.0355 0.2866 0.6068
H124 H 1.0669 0.2121 0.6372
H125 H 0.9428 0.2154 0.6108
C100 C 1.0594(8) 0.0900(5) 0.5811(3)
H126 H 0.9767 0.0767 0.5753
H127 H 1.0865 0.0739 0.6091
H128 H 1.1043 0.0609 0.5619
C101 C 0.7917(6) 0.3895(4) 0.48766(19)
H129 H 0.8197 0.4454 0.4859
H130 H 0.7683 0.3796 0.5150
H131 H 0.7248 0.3811 0.4674
C102 C 1.1094(5) 0.3705(4) 0.36873(19)
H132 H 1.1093 0.3857 0.3981
C103 C 1.1288(6) 0.4478(4) 0.3453(2)
H133 H 1.1408 0.4341 0.3170
H134 H 1.1977 0.4760 0.3581
H135 H 1.0605 0.4831 0.3455
C104 C 1.2099(6) 0.3108(5) 0.3657(3)
H136 H 1.2004 0.2641 0.3835
H137 H 1.2840 0.3379 0.3741
H138 H 1.2096 0.2921 0.3374
O19 O 0.4142(4) 0.9191(3) 0.04398(13)
H139 H 0.4381 0.9641 0.0536
O20 O 0.5081(5) 1.0162(3) 0.09426(15)
O21 O 0.6237(3) 0.8235(2) 0.16882(12)
O22 O 0.5173(4) 0.5746(3) 0.22042(14)
O23 O 0.7849(5) 0.7454(3) 0.29757(16)
O24 O 0.4337(3) 0.6440(2) 0.06859(11)
C105 C 0.4561(5) 0.8591(4) 0.06896(17)
C106 C 0.5274(5) 0.8758(4) 0.10661(18)
C107 C 0.5596(6) 0.9612(4) 0.1148(2)
C108 C 0.6608(7) 0.9881(4) 0.1431(3)
H140 H 0.7054 0.9399 0.1547
C109 C 0.6159(7) 1.0370(7) 0.1771(3)
H141 H 0.5639 1.0798 0.1654
H142 H 0.6816 1.0616 0.1938
H143 H 0.5730 1.0012 0.1941
C110 C 0.7404(8) 1.0429(6) 0.1198(3)
H144 H 0.7615 1.0143 0.0955
H145 H 0.8112 1.0561 0.1375
H146 H 0.6990 1.0932 0.1115
C111 C 0.5602(4) 0.8077(3) 0.13143(16)
C112 C 0.6322(5) 0.7641(4) 0.19824(17)
C113 C 0.6004(5) 0.6864(3) 0.19054(17)
C114 C 0.5823(5) 0.6323(4) 0.22524(17)
C115 C 0.6505(6) 0.6495(4) 0.26649(19)
C116 C 0.7102(6) 0.7312(4) 0.26963(18)
C117 C 0.6732(5) 0.7992(4) 0.23956(19)
C118 C 0.5727(6) 0.8469(4) 0.25681(19)
H147 H 0.5476 0.8914 0.2382
H148 H 0.6002 0.8692 0.2836
H149 H 0.5071 0.8102 0.2595
C119 C 0.7780(7) 0.8561(5) 0.2364(2)
H150 H 0.8398 0.8266 0.2243
H151 H 0.8073 0.8752 0.2636
H152 H 0.7535 0.9028 0.2191
C120 C 0.5685(8) 0.6415(6) 0.3003(2)
H153 H 0.5077 0.6832 0.2966
H154 H 0.6130 0.6487 0.3270
H155 H 0.5324 0.5876 0.2990
C121 C 0.7466(8) 0.5824(5) 0.2725(2)
H156 H 0.7099 0.5287 0.2706
H157 H 0.7903 0.5888 0.2994
H158 H 0.7997 0.5877 0.2512
C122 C 0.5693(4) 0.6566(3) 0.14772(16)
H159 H 0.5009 0.6194 0.1480
C123 C 0.5316(4) 0.7288(3) 0.12140(16)
C124 C 0.4673(4) 0.7182(4) 0.08291(16)
C125 C 0.3888(5) 0.6550(4) 0.02468(17)
C126 C 0.3569(5) 0.7462(4) 0.02153(17)
H160 H 0.2731 0.7525 0.0262
C127 C 0.4308(5) 0.7808(4) 0.05779(17)
C128 C 0.3751(5) 0.7813(4) -0.02079(18)
H161 H 0.3245 0.7522 -0.0420
H162 H 0.3525 0.8393 -0.0218
C129 C 0.5014(5) 0.7733(4) -0.02964(18)
H163 H 0.5489 0.8076 -0.0092
C130 C 0.5409(5) 0.6870(4) -0.02258(19)
H164 H 0.6054 0.6685 -0.0358
C131 C 0.4907(5) 0.6349(4) 0.00110(18)
H165 H 0.5211 0.5813 0.0033
C132 C 0.5261(7) 0.8037(4) -0.0725(2)
H166 H 0.6097 0.7918 -0.0757
C133 C 0.4531(7) 0.7596(5) -0.10672(19)
H167 H 0.4557 0.7011 -0.1014
H168 H 0.4843 0.7708 -0.1328
H169 H 0.3724 0.7786 -0.1080
C134 C 0.5093(9) 0.8953(5) -0.0770(3)
H170 H 0.4291 0.9095 -0.0724
H171 H 0.5244 0.9120 -0.1045
H172 H 0.5635 0.9233 -0.0569
C135 C 0.2877(6) 0.5975(5) 0.01615(19)
H173 H 0.3151 0.5414 0.0201
H174 H 0.2535 0.6046 -0.0121
H175 H 0.2288 0.6091 0.0348
C136 C 0.6690(5) 0.6083(4) 0.12989(17)
H176 H 0.6393 0.5915 0.1016
C137 C 0.7006(6) 0.5315(4) 0.1538(2)
H177 H 0.7256 0.5454 0.1822
H178 H 0.7641 0.5036 0.1418
H179 H 0.6325 0.4957 0.1527
C138 C 0.7743(5) 0.6608(4) 0.1266(2)
H180 H 0.7512 0.7102 0.1112
H181 H 0.8316 0.6309 0.1124
H182 H 0.8088 0.6756 0.1540
C69? C -0.0853(15) 0.8580(11) -0.0919(6)
H89? H -0.0942 0.8015 -0.1011
H90? H -0.0859 0.8938 -0.1157
H91? H -0.1497 0.8725 -0.0761
C70? C 0.1017(17) 0.8406(14) -0.0979(6)
H92? H 0.1821 0.8425 -0.0851
H93? H 0.0935 0.8772 -0.1214
H94? H 0.0826 0.7850 -0.1069
loop_
_geom_bond_atom_site_label_1
_geom_bond_atom_site_label_2
_geom_bond_site_symmetry_1
_geom_bond_site_symmetry_2
O1 H1 1_555 1_555
O2 C3 1_555 1_555
O3 C7 1_555 1_555
O4 C10 1_555 1_555
O5 C12 1_555 1_555
O6 C20 1_555 1_555
C1 O1 1_555 1_555
C2 C1 1_555 1_555
C3 C2 1_555 1_555
C4 C3 1_555 1_555
H2 C4 1_555 1_555
C5 C4 1_555 1_555
H3 C5 1_555 1_555
H4 C5 1_555 1_555
H5 C5 1_555 1_555
C6 C4 1_555 1_555
H6 C6 1_555 1_555
H7 C6 1_555 1_555
H8 C6 1_555 1_555
C7 C2 1_555 1_555
C8 O3 1_555 1_555
C9 C8 1_555 1_555
C10 C9 1_555 1_555
C11 C10 1_555 1_555
C12 C11 1_555 1_555
C13 C8 1_555 1_555
C14 C13 1_555 1_555
H9 C14 1_555 1_555
H10 C14 1_555 1_555
H11 C14 1_555 1_555
C15 C13 1_555 1_555
H12 C15 1_555 1_555
H13 C15 1_555 1_555
H14 C15 1_555 1_555
C16 C11 1_555 1_555
H15 C16 1_555 1_555
H16 C16 1_555 1_555
H17 C16 1_555 1_555
C17 C11 1_555 1_555
H18 C17 1_555 1_555
H19 C17 1_555 1_555
H20 C17 1_555 1_555
C18 C9 1_555 1_555
H21 C18 1_555 1_555
C19 C7 1_555 1_555
C20 C19 1_555 1_555
C21 O6 1_555 1_555
C22 C21 1_555 1_555
H22 C22 1_555 1_555
C23 C1 1_555 1_555
C24 C22 1_555 1_555
H23 C24 1_555 1_555
H24 C24 1_555 1_555
C25 C24 1_555 1_555
H25 C25 1_555 1_555
C26 C25 1_555 1_555
H26 C26 1_555 1_555
C27 C21 1_555 1_555
H27 C27 1_555 1_555
C28 C25 1_555 1_555
H28 C28 1_555 1_555
C29 C28 1_555 1_555
H29 C29 1_555 1_555
H30 C29 1_555 1_555
H31 C29 1_555 1_555
C30 C28 1_555 1_555
H32 C30 1_555 1_555
H33 C30 1_555 1_555
H34 C30 1_555 1_555
C31 C21 1_555 1_555
H35 C31 1_555 1_555
H36 C31 1_555 1_555
H37 C31 1_555 1_555
C32 C18 1_555 1_555
H38 C32 1_555 1_555
C33 C32 1_555 1_555
H39 C33 1_555 1_555
H40 C33 1_555 1_555
H41 C33 1_555 1_555
C34 C32 1_555 1_555
H42 C34 1_555 1_555
H43 C34 1_555 1_555
H44 C34 1_555 1_555
O7 H45 1_555 1_555
O8 C37 1_555 1_555
O9 C41 1_555 1_555
O10 C44 1_555 1_555
O11 C46 1_555 1_555
O12 C54 1_555 1_555
C35 O7 1_555 1_555
C36 C35 1_555 1_555
C37 C36 1_555 1_555
C38 C37 1_555 1_555
H46 C38 1_555 1_555
C39 C38 1_555 1_555
H47 C39 1_555 1_555
H48 C39 1_555 1_555
H49 C39 1_555 1_555
C40 C38 1_555 1_555
H50 C40 1_555 1_555
H51 C40 1_555 1_555
H52 C40 1_555 1_555
C41 C36 1_555 1_555
C42 O9 1_555 1_555
C43 C42 1_555 1_555
C44 C43 1_555 1_555
C45 C44 1_555 1_555
C46 C45 1_555 1_555
C47 C42 1_555 1_555
C48 C47 1_555 1_555
H53 C48 1_555 1_555
H54 C48 1_555 1_555
H55 C48 1_555 1_555
C49 C47 1_555 1_555
H56 C49 1_555 1_555
H57 C49 1_555 1_555
H58 C49 1_555 1_555
C50 C45 1_555 1_555
H59 C50 1_555 1_555
H60 C50 1_555 1_555
H61 C50 1_555 1_555
C51 C45 1_555 1_555
H62 C51 1_555 1_555
H63 C51 1_555 1_555
H64 C51 1_555 1_555
C52 C43 1_555 1_555
H65 C52 1_555 1_555
C53 C41 1_555 1_555
C54 C53 1_555 1_555
C55 O12 1_555 1_555
C56 C55 1_555 1_555
H66 C56 1_555 1_555
C57 C35 1_555 1_555
C58 C56 1_555 1_555
H67 C58 1_555 1_555
H68 C58 1_555 1_555
C59 C58 1_555 1_555
H69 C59 1_555 1_555
C60 C59 1_555 1_555
H70 C60 1_555 1_555
C61 C55 1_555 1_555
H71 C61 1_555 1_555
C62 C59 1_555 1_555
H72 C62 1_555 1_555
C63 C62 1_555 1_555
H73 C63 1_555 1_555
H74 C63 1_555 1_555
H75 C63 1_555 1_555
C64 C62 1_555 1_555
H76 C64 1_555 1_555
H77 C64 1_555 1_555
H78 C64 1_555 1_555
C65 C55 1_555 1_555
H79 C65 1_555 1_555
H80 C65 1_555 1_555
H81 C65 1_555 1_555
C66 C52 1_555 1_555
H82 C66 1_555 1_555
C67 C66 1_555 1_555
H83 C67 1_555 1_555
H84 C67 1_555 1_555
H85 C67 1_555 1_555
C68 C66 1_555 1_555
H86 C68 1_555 1_555
H87 C68 1_555 1_555
H88 C68 1_555 1_555
O13 H95 1_555 1_555
O14 C73 1_555 1_555
O15 C77 1_555 1_555
O16 C80 1_555 1_555
O17 C82 1_555 1_555
O18 C90 1_555 1_555
C71 O13 1_555 1_555
C72 C71 1_555 1_555
C73 C72 1_555 1_555
C74 C73 1_555 1_555
H96 C74 1_555 1_555
C75 C74 1_555 1_555
H97 C75 1_555 1_555
H98 C75 1_555 1_555
H99 C75 1_555 1_555
C76 C74 1_555 1_555
H100 C76 1_555 1_555
H101 C76 1_555 1_555
H102 C76 1_555 1_555
C77 C72 1_555 1_555
C78 O15 1_555 1_555
C79 C78 1_555 1_555
C80 C79 1_555 1_555
C81 C80 1_555 1_555
C82 C81 1_555 1_555
C83 C78 1_555 1_555
C84 C83 1_555 1_555
H103 C84 1_555 1_555
H104 C84 1_555 1_555
H105 C84 1_555 1_555
C85 C83 1_555 1_555
H106 C85 1_555 1_555
H107 C85 1_555 1_555
H108 C85 1_555 1_555
C86 C81 1_555 1_555
H109 C86 1_555 1_555
H110 C86 1_555 1_555
H111 C86 1_555 1_555
C87 C81 1_555 1_555
H112 C87 1_555 1_555
H113 C87 1_555 1_555
H114 C87 1_555 1_555
C88 C79 1_555 1_555
H115 C88 1_555 1_555
C89 C77 1_555 1_555
C90 C89 1_555 1_555
C91 O18 1_555 1_555
C92 C91 1_555 1_555
H116 C92 1_555 1_555
C93 C71 1_555 1_555
C94 C92 1_555 1_555
H117 C94 1_555 1_555
H118 C94 1_555 1_555
C95 C94 1_555 1_555
H119 C95 1_555 1_555
C96 C95 1_555 1_555
H120 C96 1_555 1_555
C97 C91 1_555 1_555
H121 C97 1_555 1_555
C98 C95 1_555 1_555
H122 C98 1_555 1_555
C99 C98 1_555 1_555
H123 C99 1_555 1_555
H124 C99 1_555 1_555
H125 C99 1_555 1_555
C100 C98 1_555 1_555
H126 C100 1_555 1_555
H127 C100 1_555 1_555
H128 C100 1_555 1_555
C101 C91 1_555 1_555
H129 C101 1_555 1_555
H130 C101 1_555 1_555
H131 C101 1_555 1_555
C102 C88 1_555 1_555
H132 C102 1_555 1_555
C103 C102 1_555 1_555
H133 C103 1_555 1_555
H134 C103 1_555 1_555
H135 C103 1_555 1_555
C104 C102 1_555 1_555
H136 C104 1_555 1_555
H137 C104 1_555 1_555
H138 C104 1_555 1_555
O19 H139 1_555 1_555
O20 C107 1_555 1_555
O21 C111 1_555 1_555
O22 C114 1_555 1_555
O23 C116 1_555 1_555
O24 C124 1_555 1_555
C105 O19 1_555 1_555
C106 C105 1_555 1_555
C107 C106 1_555 1_555
C108 C107 1_555 1_555
H140 C108 1_555 1_555
C109 C108 1_555 1_555
H141 C109 1_555 1_555
H142 C109 1_555 1_555
H143 C109 1_555 1_555
C110 C108 1_555 1_555
H144 C110 1_555 1_555
H145 C110 1_555 1_555
H146 C110 1_555 1_555
C111 C106 1_555 1_555
C112 O21 1_555 1_555
C113 C112 1_555 1_555
C114 C113 1_555 1_555
C115 C114 1_555 1_555
C116 C115 1_555 1_555
C117 C112 1_555 1_555
C118 C117 1_555 1_555
H147 C118 1_555 1_555
H148 C118 1_555 1_555
H149 C118 1_555 1_555
C119 C117 1_555 1_555
H150 C119 1_555 1_555
H151 C119 1_555 1_555
H152 C119 1_555 1_555
C120 C115 1_555 1_555
H153 C120 1_555 1_555
H154 C120 1_555 1_555
H155 C120 1_555 1_555
C121 C115 1_555 1_555
H156 C121 1_555 1_555
H157 C121 1_555 1_555
H158 C121 1_555 1_555
C122 C113 1_555 1_555
H159 C122 1_555 1_555
C123 C111 1_555 1_555
C124 C123 1_555 1_555
C125 O24 1_555 1_555
C126 C125 1_555 1_555
H160 C126 1_555 1_555
C127 C105 1_555 1_555
C128 C126 1_555 1_555
H161 C128 1_555 1_555
H162 C128 1_555 1_555
C129 C128 1_555 1_555
H163 C129 1_555 1_555
C130 C129 1_555 1_555
H164 C130 1_555 1_555
C131 C125 1_555 1_555
H165 C131 1_555 1_555
C132 C129 1_555 1_555
H166 C132 1_555 1_555
C133 C132 1_555 1_555
H167 C133 1_555 1_555
H168 C133 1_555 1_555
H169 C133 1_555 1_555
C134 C132 1_555 1_555
H170 C134 1_555 1_555
H171 C134 1_555 1_555
H172 C134 1_555 1_555
C135 C125 1_555 1_555
H173 C135 1_555 1_555
H174 C135 1_555 1_555
H175 C135 1_555 1_555
C136 C122 1_555 1_555
H176 C136 1_555 1_555
C137 C136 1_555 1_555
H177 C137 1_555 1_555
H178 C137 1_555 1_555
H179 C137 1_555 1_555
C138 C136 1_555 1_555
H180 C138 1_555 1_555
H181 C138 1_555 1_555
H182 C138 1_555 1_555
C12 C13 1_555 1_555
C18 C19 1_555 1_555
C20 C23 1_555 1_555
C22 C23 1_555 1_555
C26 C27 1_555 1_555
C46 C47 1_555 1_555
C52 C53 1_555 1_555
C54 C57 1_555 1_555
C56 C57 1_555 1_555
C60 C61 1_555 1_555
C82 C83 1_555 1_555
C88 C89 1_555 1_555
C90 C93 1_555 1_555
C92 C93 1_555 1_555
C96 C97 1_555 1_555
C116 C117 1_555 1_555
C122 C123 1_555 1_555
C124 C127 1_555 1_555
C126 C127 1_555 1_555
C130 C131 1_555 1_555

#END
