
#######################################################################
#
#                 Cambridge Crystallographic Data Centre
#                                CCDC 
#
#######################################################################
#
# If this CIF has been generated from an entry in the Cambridge 
# Structural Database, then it will include bibliographic, chemical, 
# crystal, experimental, refinement or atomic coordinate data resulting 
# from the CCDC's data processing and validation procedures.
#
#######################################################################

data_TEMTEN
_chemical_formula_moiety         'C38 H52 O9,C1 H1 Cl3'
_chemical_name_systematic        
'4-{1-[5,7-dihydroxy-2,2,10,10,12,12-hexamethyl-8-(2-methylpropanoyl)-11-oxo-2,3,3a,4-tetrahydro-4,9a-propanofuro[2,3-b][1]benzopyran-6-yl]-2-methylpropyl}-5-hydroxy-2,2,6,6-tetramethylcyclohex-4-ene-1,3-dione chloroform solvate'
_symmetry_cell_setting           triclinic
_symmetry_space_group_name_H-M   'P -1'
_symmetry_Int_Tables_number      2
_space_group_name_Hall           '-P 1'
loop_
_symmetry_equiv_pos_site_id
_symmetry_equiv_pos_as_xyz
1 x,y,z
2 -x,-y,-z
_cell_length_a                   12.7541(5)
_cell_length_b                   13.5008(6)
_cell_length_c                   13.6961(6)
_cell_angle_alpha                94.892(4)
_cell_angle_beta                 105.455(4)
_cell_angle_gamma                113.791(4)
_cell_volume                     2029.61
_exptl_crystal_colour            'light colorless'
_exptl_crystal_description       block
_cell_formula_units_Z            2
loop_
_atom_site_label
_atom_site_type_symbol
_atom_site_fract_x
_atom_site_fract_y
_atom_site_fract_z
Cl1 Cl 0.2057(3) 0.9004(3) 0.5143(2)
Cl2 Cl -0.0299(4) 0.8632(3) 0.5295(3)
Cl3 Cl 0.0026(3) 0.6909(3) 0.4371(3)
C1 C 0.0493(7) 0.8308(7) 0.4581(5)
H1 H 0.027392 0.849775 0.390532
O1 O 0.4296(2) 0.10965(18) -0.02115(18)
O2 O 0.2867(2) 0.13994(17) 0.02868(17)
O3 O 0.1705(2) 0.2572(2) 0.30270(19)
H2 H 0.157892 0.194173 0.310026
O4 O 0.3393(2) 0.50736(18) 0.10238(18)
H3 H 0.356699 0.554540 0.153508
O5 O 0.0998(3) 0.1497(2) -0.2418(2)
O6 O 0.2410(3) 0.4199(2) 0.4628(2)
H4 H 0.217100 0.373641 0.409092
O7 O 0.4756(5) 0.7958(3) 0.6120(3)
O8 O 0.4042(3) 0.6654(2) 0.26372(19)
O9 O 0.1714(3) 0.0790(2) 0.2834(2)
C2 C 0.3561(3) 0.1623(2) -0.0441(2)
C3 C 0.3001(3) 0.5439(3) 0.3533(2)
C4 C 0.3031(3) 0.5201(3) 0.4485(3)
C5 C 0.2785(3) 0.2211(2) 0.0875(2)
C6 C 0.3717(3) 0.6022(3) 0.5516(3)
C7 C 0.2349(3) 0.1941(2) 0.1711(2)
C8 C 0.4412(4) 0.7198(3) 0.5401(3)
C9 C 0.2164(3) 0.2785(3) 0.2249(2)
C10 C 0.4722(3) 0.7417(3) 0.4430(3)
C11 C 0.2444(3) 0.3827(3) 0.2017(2)
C12 C 0.3896(3) 0.6481(3) 0.3474(3)
C13 C 0.2991(3) 0.4060(2) 0.1253(2)
C14 C 0.2094(3) 0.0911(3) 0.2076(3)
C15 C 0.3115(3) 0.3244(2) 0.0647(2)
C16 C 0.2243(4) -0.0055(3) 0.1604(3)
H5 H 0.284055 0.021701 0.124597
C17 C 0.3639(3) 0.3482(2) -0.0222(2)
H6 H 0.418026 0.427771 -0.007290
C18 C 0.1025(6) -0.0851(4) 0.0814(5)
H7 H 0.043007 -0.111031 0.115564
H8 H 0.109218 -0.146981 0.048592
H9 H 0.078236 -0.047532 0.029833
C19 C 0.4381(3) 0.2845(2) -0.0252(2)
H10 H 0.468465 0.297478 -0.083819
C20 C 0.2692(7) -0.0597(5) 0.2444(5)
H11 H 0.345770 -0.006189 0.293064
H12 H 0.278924 -0.120495 0.213239
H13 H 0.211176 -0.086701 0.279960
C21 C 0.5427(3) 0.2996(3) 0.0690(3)
H14 H 0.524622 0.308876 0.132696
H15 H 0.617037 0.362905 0.073349
C22 C 0.2788(4) 0.6000(4) 0.6047(3)
H16 H 0.220064 0.618553 0.560861
H17 H 0.319939 0.652967 0.669853
H18 H 0.238466 0.527168 0.616544
C23 C 0.5524(3) 0.1893(3) 0.0478(3)
C24 C 0.4634(4) 0.5698(4) 0.6218(3)
H19 H 0.421399 0.496408 0.631809
H20 H 0.503775 0.621366 0.687772
H21 H 0.522193 0.571450 0.589629
C25 C 0.4690(6) 0.8496(4) 0.4194(4)
H22 H 0.487280 0.861505 0.356598
H23 H 0.528043 0.910580 0.475743
H24 H 0.389622 0.844246 0.411224
C26 C 0.2622(3) 0.1131(3) -0.1528(2)
C27 C 0.6038(4) 0.7549(4) 0.4641(3)
H25 H 0.608691 0.690633 0.485707
H26 H 0.659404 0.819731 0.517803
H27 H 0.624458 0.762422 0.401764
C28 C 0.2002(3) 0.1889(3) -0.1786(3)
C29 C 0.2654(3) 0.3157(3) -0.1315(2)
C30 C 0.2068(3) 0.4620(3) 0.2525(3)
H28 H 0.145653 0.411438 0.278424
C31 C 0.1325(7) 0.5050(7) 0.1788(6)
H29 H 0.182804 0.552634 0.142649
C32 C 0.0212(11) 0.4065(11) 0.0980(9)
H30 H 0.047505 0.358652 0.066417
H31 H -0.018995 0.434141 0.045560
H32 H -0.034075 0.365559 0.131919
C33 C 0.0873(13) 0.5730(13) 0.2394(9)
H33 H 0.038236 0.526641 0.275102
H34 H 0.039940 0.599359 0.191665
H35 H 0.155825 0.635046 0.288918
C34 C 0.5797(5) 0.1452(4) 0.1440(4)
H36 H 0.519859 0.137437 0.176877
H37 H 0.658674 0.195809 0.191124
H38 H 0.577813 0.074164 0.125398
C35 C 0.6373(4) 0.1956(4) -0.0133(4)
H39 H 0.628658 0.122530 -0.035749
H40 H 0.719554 0.242479 0.030005
H41 H 0.617403 0.225649 -0.072699
C36 C 0.1664(4) -0.0050(3) -0.1628(3)
H42 H 0.205738 -0.047797 -0.132554
H43 H 0.121541 -0.039087 -0.234835
H44 H 0.111845 -0.001997 -0.127271
C37 C 0.3253(4) 0.1084(3) -0.2336(3)
H45 H 0.393636 0.178899 -0.222096
H46 H 0.269012 0.091523 -0.302130
H47 H 0.352664 0.051899 -0.226768
C38 C 0.1699(4) 0.3544(3) -0.1269(3)
H48 H 0.121472 0.311519 -0.088939
H49 H 0.118852 0.344863 -0.196126
H50 H 0.209094 0.431394 -0.092787
C39 C 0.3272(4) 0.3723(3) -0.2078(3)
H51 H 0.364572 0.451329 -0.183556
H52 H 0.267440 0.351807 -0.275266
H53 H 0.387868 0.348814 -0.212056
H54? H 0.222(10) 0.518(8) 0.208(8)
C40? C 0.0769(8) 0.4183(9) 0.2473(8)
H55? H 0.065914 0.370502 0.297472
C41? C -0.0073(13) 0.3473(19) 0.1424(15)
H56? H -0.012185 0.393764 0.093773
H57? H -0.086497 0.304698 0.146449
H58? H 0.023043 0.298135 0.119872
C42? C 0.0429(14) 0.5096(15) 0.2783(17)
H59? H 0.108102 0.564155 0.336404
H60? H -0.029251 0.478044 0.296982
H61? H 0.028381 0.543917 0.220852
loop_
_geom_bond_atom_site_label_1
_geom_bond_atom_site_label_2
_geom_bond_site_symmetry_1
_geom_bond_site_symmetry_2
Cl1 C1 1_555 1_555
Cl2 C1 1_555 1_555
Cl3 C1 1_555 1_555
C1 H1 1_555 1_555
O1 C2 1_555 1_555
O2 C2 1_555 1_555
O3 H2 1_555 1_555
O4 H3 1_555 1_555
O5 C28 1_555 1_555
O6 H4 1_555 1_555
O7 C8 1_555 1_555
O8 C12 1_555 1_555
O9 C14 1_555 1_555
C2 C19 1_555 1_555
C3 C4 1_555 1_555
C4 O6 1_555 1_555
C5 O2 1_555 1_555
C6 C4 1_555 1_555
C7 C5 1_555 1_555
C8 C6 1_555 1_555
C9 O3 1_555 1_555
C10 C8 1_555 1_555
C11 C9 1_555 1_555
C12 C3 1_555 1_555
C13 O4 1_555 1_555
C14 C7 1_555 1_555
C15 C5 1_555 1_555
C16 C14 1_555 1_555
H5 C16 1_555 1_555
C17 C15 1_555 1_555
H6 C17 1_555 1_555
C18 C16 1_555 1_555
H7 C18 1_555 1_555
H8 C18 1_555 1_555
H9 C18 1_555 1_555
C19 C17 1_555 1_555
H10 C19 1_555 1_555
C20 C16 1_555 1_555
H11 C20 1_555 1_555
H12 C20 1_555 1_555
H13 C20 1_555 1_555
C21 C19 1_555 1_555
H14 C21 1_555 1_555
H15 C21 1_555 1_555
C22 C6 1_555 1_555
H16 C22 1_555 1_555
H17 C22 1_555 1_555
H18 C22 1_555 1_555
C23 O1 1_555 1_555
C24 C6 1_555 1_555
H19 C24 1_555 1_555
H20 C24 1_555 1_555
H21 C24 1_555 1_555
C25 C10 1_555 1_555
H22 C25 1_555 1_555
H23 C25 1_555 1_555
H24 C25 1_555 1_555
C26 C2 1_555 1_555
C27 C10 1_555 1_555
H25 C27 1_555 1_555
H26 C27 1_555 1_555
H27 C27 1_555 1_555
C28 C26 1_555 1_555
C29 C17 1_555 1_555
C30 C3 1_555 1_555
H28 C30 1_555 1_555
C31 C30 1_555 1_555
H29 C31 1_555 1_555
C32 C31 1_555 1_555
H30 C32 1_555 1_555
H31 C32 1_555 1_555
H32 C32 1_555 1_555
C33 C31 1_555 1_555
H33 C33 1_555 1_555
H34 C33 1_555 1_555
H35 C33 1_555 1_555
C34 C23 1_555 1_555
H36 C34 1_555 1_555
H37 C34 1_555 1_555
H38 C34 1_555 1_555
C35 C23 1_555 1_555
H39 C35 1_555 1_555
H40 C35 1_555 1_555
H41 C35 1_555 1_555
C36 C26 1_555 1_555
H42 C36 1_555 1_555
H43 C36 1_555 1_555
H44 C36 1_555 1_555
C37 C26 1_555 1_555
H45 C37 1_555 1_555
H46 C37 1_555 1_555
H47 C37 1_555 1_555
C38 C29 1_555 1_555
H48 C38 1_555 1_555
H49 C38 1_555 1_555
H50 C38 1_555 1_555
C39 C29 1_555 1_555
H51 C39 1_555 1_555
H52 C39 1_555 1_555
H53 C39 1_555 1_555
C7 C9 1_555 1_555
C10 C12 1_555 1_555
C11 C13 1_555 1_555
C11 C30 1_555 1_555
C13 C15 1_555 1_555
C21 C23 1_555 1_555
C28 C29 1_555 1_555

#END
