
#######################################################################
#
#                 Cambridge Crystallographic Data Centre
#                                CCDC 
#
#######################################################################
#
# If this CIF has been generated from an entry in the Cambridge 
# Structural Database, then it will include bibliographic, chemical, 
# crystal, experimental, refinement or atomic coordinate data resulting 
# from the CCDC's data processing and validation procedures.
#
#######################################################################

data_TEMVUC
_chemical_formula_moiety         'C25 H15 F3 N5 P1'
_chemical_name_systematic        
4-Azido-2-(triphenylphosphinimino)-3,5,6-trifluorobenzonitrile
_symmetry_cell_setting           monoclinic
_symmetry_space_group_name_H-M   'P 21/c'
_symmetry_Int_Tables_number      14
_space_group_name_Hall           '-P 2ybc'
loop_
_symmetry_equiv_pos_site_id
_symmetry_equiv_pos_as_xyz
1 x,y,z
2 -x,1/2+y,1/2-z
3 -x,-y,-z
4 x,1/2-y,1/2+z
_cell_length_a                   16.425(7)
_cell_length_b                   18.653(5)
_cell_length_c                   14.861(9)
_cell_angle_alpha                90
_cell_angle_beta                 100.490(10)
_cell_angle_gamma                90
_cell_volume                     4476.95
_chemical_melting_point          '126 deg.C'
_cell_formula_units_Z            8
loop_
_atom_site_label
_atom_site_type_symbol
_atom_site_fract_x
_atom_site_fract_y
_atom_site_fract_z
P1 P 0.01999(6) 0.71093(4) 0.03818(6)
N1 N -0.1581(3) 0.91371(17) 0.0490(3)
N2 N -0.06188(17) 0.74678(14) 0.05584(19)
N3 N -0.28652(22) 0.57253(18) 0.0674(3)
N4 N -0.24543(23) 0.52165(19) 0.0555(3)
N5 N -0.2160(3) 0.46771(23) 0.0483(4)
F1 F -0.11850(13) 0.60319(10) 0.05843(17)
F2 F -0.38853(14) 0.68326(15) 0.06691(23)
F3 F -0.33610(15) 0.81976(13) 0.06119(22)
C1 C -0.20116(22) 0.78246(18) 0.05610(24)
C2 C -0.14132(21) 0.72724(17) 0.05561(22)
C3 C -0.17236(23) 0.65808(18) 0.05811(25)
C4 C -0.25349(24) 0.64146(20) 0.0608(3)
C5 C -0.30873(23) 0.69794(22) 0.0623(3)
C6 C -0.28165(23) 0.76627(21) 0.0589(3)
C7 C -0.1760(3) 0.85593(20) 0.0529(3)
C8 C 0.07086(22) 0.65417(17) 0.12992(22)
C9 C 0.0398(3) 0.65039(18) 0.21000(24)
C10 C 0.0798(3) 0.60785(22) 0.2823(3)
C11 C 0.1485(3) 0.56915(22) 0.2730(3)
C12 C 0.1793(3) 0.57189(22) 0.1945(3)
C13 C 0.14116(25) 0.61498(19) 0.1221(3)
C14 C 0.01403(20) 0.66015(16) -0.06567(21)
C15 C 0.0111(3) 0.58590(17) -0.06729(23)
C16 C 0.0010(3) 0.54960(18) -0.1496(3)
C17 C -0.00813(24) 0.58637(18) -0.23082(24)
C18 C -0.00668(24) 0.66008(18) -0.23050(23)
C19 C 0.00495(22) 0.69653(16) -0.14827(24)
C20 C 0.08782(21) 0.78592(17) 0.02971(22)
C21 C 0.05896(22) 0.85496(17) 0.03667(23)
C22 C 0.11112(3) 0.91283(18) 0.0305(3)
C23 C 0.1904(3) 0.90273(19) 0.0186(3)
C24 C 0.22002(24) 0.83429(21) 0.0111(3)
C25 C 0.16884(23) 0.77614(19) 0.0158(3)
H1 H -0.015 0.681 0.216
H2 H 0.053 0.605 0.343
H3 H 0.177 0.538 0.332
H4 H 0.233 0.540 0.189
H5 H 0.167 0.620 0.061
H6 H 0.017 0.557 -0.004
H7 H -0.001 0.492 -0.151
H8 H -0.018 0.558 -0.295
H9 H -0.012 0.690 -0.294
H10 H 0.005 0.754 -0.148
H11 H -0.003 0.864 0.049
H12 H 0.089 0.967 0.037
H13 H 0.230 0.948 0.014
H14 H 0.283 0.827 0.000
H15 H 0.191 0.722 0.008
P2 P 0.55413(6) 0.19790(5) 0.20749(7)
N6 N 0.3934(3) 0.41411(20) 0.2211(4)
N7 N 0.47240(18) 0.24420(16) 0.18893(23)
N8 N 0.25076(20) 0.07473(18) 0.1802(3)
N9 N 0.18046(25) 0.06118(19) 0.1897(3)
N10 N 0.1180(3) 0.03738(25) 0.1978(5)
F4 F 0.40313(13) 0.10377(11) 0.17067(18)
F5 F 0.14323(14) 0.19401(14) 0.20030(23)
F6 F 0.20444(16) 0.32800(13) 0.21036(23)
C26 C 0.33749(23) 0.28533(19) 0.1994(3)
C27 C 0.39159(22) 0.22866(18) 0.1900(3)
C28 C 0.35525(22) 0.16056(19) 0.1832(3)
C29 C 0.27370(23) 0.14669(20) 0.1858(3)
C30 C 0.22394(22) 0.20526(22) 0.1960(3)
C31 C 0.25516(25) 0.27254(20) 0.2007(3)
C32 C 0.3691(3) 0.35545(22) 0.2101(3)
C33 C 0.57177(22) 0.15100(19) 0.31481(24)
C34 C 0.6060(3) 0.18916(21) 0.3926(3)
C35 C 0.6139(3) 0.15804(25) 0.4793(3)
C36 C 0.5887(3) 0.08874(23) 0.4878(3)
C37 C 0.5573(3) 0.04993(23) 0.4117(3)
C38 C 0.5476(3) 0.08015(21) 0.3250(3)
C39 C 0.56752(20) 0.13722(19) 0.11713(25)
C40 C 0.61309(24) 0.07455(20) 0.1305(3)
C41 C 0.6202(3) 0.03210(23) 0.0540(3)
C42 C 0.5835(3) 0.0514(3) -0.0314(3)
C43 C 0.5380(3) 0.1137(3) -0.0451(3)
C44 C 0.53004(24) 0.15686(23) 0.0280(3)
C45 C 0.63640(21) 0.26263(19) 0.21531(23)
C46 C 0.71621(23) 0.23968(21) 0.2107(3)
C47 C 0.78028(24) 0.28871(24) 0.2187(3)
C48 C 0.7647(3) 0.36022(24) 0.2328(3)
C49 C 0.6862(3) 0.38366(21) 0.2367(3)
C50 C 0.62138(24) 0.33477(20) 0.2276(3)
H16 H 0.627 0.243 0.384
H17 H 0.640 0.187 0.540
H18 H 0.590 0.064 0.554
H19 H 0.540 -0.005 0.419
H20 H 0.519 0.050 0.265
H21 H 0.643 0.060 0.199
H22 H 0.655 -0.017 0.063
H23 H 0.589 0.018 -0.089
H24 H 0.510 0.130 -0.114
H25 H 0.496 0.207 0.018
H26 H 0.729 0.184 0.202
H27 H 0.842 0.273 0.212
H28 H 0.815 0.398 0.242
H29 H 0.677 0.440 0.250
H30 H 0.560 0.354 0.230
loop_
_geom_bond_atom_site_label_1
_geom_bond_atom_site_label_2
_geom_bond_site_symmetry_1
_geom_bond_site_symmetry_2
P1 N2 1_555 1_555
N1 C7 1_555 1_555
N2 C2 1_555 1_555
N3 N4 1_555 1_555
N4 N5 1_555 1_555
F1 C3 1_555 1_555
F2 C5 1_555 1_555
F3 C6 1_555 1_555
C1 C2 1_555 1_555
C2 C3 1_555 1_555
C3 C4 1_555 1_555
C4 N3 1_555 1_555
C5 C4 1_555 1_555
C6 C1 1_555 1_555
C7 C1 1_555 1_555
C8 P1 1_555 1_555
C9 C8 1_555 1_555
C10 C9 1_555 1_555
C11 C10 1_555 1_555
C12 C11 1_555 1_555
C13 C8 1_555 1_555
C14 P1 1_555 1_555
C15 C14 1_555 1_555
C16 C15 1_555 1_555
C17 C16 1_555 1_555
C18 C17 1_555 1_555
C19 C14 1_555 1_555
C20 P1 1_555 1_555
C21 C20 1_555 1_555
C22 C21 1_555 1_555
C23 C22 1_555 1_555
C24 C23 1_555 1_555
C25 C20 1_555 1_555
P2 N7 1_555 1_555
N6 C32 1_555 1_555
N7 C27 1_555 1_555
N8 N9 1_555 1_555
N9 N10 1_555 1_555
F4 C28 1_555 1_555
F5 C30 1_555 1_555
F6 C31 1_555 1_555
C26 C27 1_555 1_555
C27 C28 1_555 1_555
C28 C29 1_555 1_555
C29 N8 1_555 1_555
C30 C29 1_555 1_555
C31 C26 1_555 1_555
C32 C26 1_555 1_555
C33 P2 1_555 1_555
C34 C33 1_555 1_555
C35 C34 1_555 1_555
C36 C35 1_555 1_555
C37 C36 1_555 1_555
C38 C33 1_555 1_555
C39 P2 1_555 1_555
C40 C39 1_555 1_555
C41 C40 1_555 1_555
C42 C41 1_555 1_555
C43 C42 1_555 1_555
C44 C39 1_555 1_555
C45 P2 1_555 1_555
C46 C45 1_555 1_555
C47 C46 1_555 1_555
C48 C47 1_555 1_555
C49 C48 1_555 1_555
C50 C45 1_555 1_555
H1 C9 1_555 1_555
H2 C10 1_555 1_555
H3 C11 1_555 1_555
H4 C12 1_555 1_555
H5 C13 1_555 1_555
H6 C15 1_555 1_555
H7 C16 1_555 1_555
H8 C17 1_555 1_555
H9 C18 1_555 1_555
H10 C19 1_555 1_555
H11 C21 1_555 1_555
H12 C22 1_555 1_555
H13 C23 1_555 1_555
H14 C24 1_555 1_555
H15 C25 1_555 1_555
H16 C34 1_555 1_555
H17 C35 1_555 1_555
H18 C36 1_555 1_555
H19 C37 1_555 1_555
H20 C38 1_555 1_555
H21 C40 1_555 1_555
H22 C41 1_555 1_555
H23 C42 1_555 1_555
H24 C43 1_555 1_555
H25 C44 1_555 1_555
H26 C46 1_555 1_555
H27 C47 1_555 1_555
H28 C48 1_555 1_555
H29 C49 1_555 1_555
H30 C50 1_555 1_555
C5 C6 1_555 1_555
C12 C13 1_555 1_555
C18 C19 1_555 1_555
C24 C25 1_555 1_555
C30 C31 1_555 1_555
C37 C38 1_555 1_555
C43 C44 1_555 1_555
C49 C50 1_555 1_555

#END
