
#######################################################################
#
#                 Cambridge Crystallographic Data Centre
#                                CCDC 
#
#######################################################################
#
# If this CIF has been generated from an entry in the Cambridge 
# Structural Database, then it will include bibliographic, chemical, 
# crystal, experimental, refinement or atomic coordinate data resulting 
# from the CCDC's data processing and validation procedures.
#
#######################################################################

data_TEMXUH
_chemical_formula_moiety         
'C44 H50 N8 2+,C2 H3 O3 1-,F6 P1 1-,0.75(C1 H4 O1),3(H2 O1)'
_chemical_name_systematic        
"2,2'-(5,10,10,15,20,20-hexamethyl-5,10,15,20,22,24-hexahydroporphyrin-5,15-diyl)bis(1,3-dimethyl-1H-benzimidazol-3-ium) hexafluorophosphate methyl carbonate methanol solvate trihydrate"
_symmetry_cell_setting           monoclinic
_symmetry_space_group_name_H-M   'P 2/n'
_symmetry_Int_Tables_number      13
_space_group_name_Hall           '-P 2yac'
loop_
_symmetry_equiv_pos_site_id
_symmetry_equiv_pos_as_xyz
1 x,y,z
2 1/2-x,y,1/2-z
3 -x,-y,-z
4 1/2+x,-y,1/2+z
_cell_length_a                   21.1512(4)
_cell_length_b                   11.7702(2)
_cell_length_c                   39.6327(8)
_cell_angle_alpha                90
_cell_angle_beta                 98.618(2)
_cell_angle_gamma                90
_cell_volume                     9755.31
_exptl_crystal_colour            yellow
_exptl_crystal_description       plate
_cell_formula_units_Z            8
loop_
_atom_site_label
_atom_site_type_symbol
_atom_site_fract_x
_atom_site_fract_y
_atom_site_fract_z
O1 O 0.0014(7) 1.0970(14) 0.3730(3)
O2 O 0.0761(4) 1.0261(11) 0.4136(3)
O3 O -0.0246(4) 1.0529(8) 0.4231(3)
C1 C 0.0217(5) 1.0577(7) 0.4027(3)
C2 C -0.0069(9) 1.0101(12) 0.4570(3)
H1 H 0.039376 0.996893 0.461260
H2 H -0.029375 0.938462 0.459415
H3 H -0.018502 1.065573 0.473418
N1 N 0.02332(18) 0.9814(3) 0.31025(11)
H4 H 0.018816 1.008823 0.330407
N2 N 0.07904(18) 1.2301(3) 0.33551(11)
H5 H 0.061124 1.187330 0.349628
N3 N -0.06317(19) 1.3028(3) 0.35502(11)
H6 H -0.043874 1.240421 0.363390
N4 N -0.11836(18) 1.0544(3) 0.32988(10)
H7 H -0.084823 1.058504 0.345914
N5 N 0.1985(2) 1.0773(4) 0.36976(12)
N6 N 0.1582(2) 0.9092(4) 0.35511(12)
N7 N -0.1428(2) 1.2407(5) 0.41658(12)
N8 N -0.1798(2) 1.0734(4) 0.39841(13)
C3 C -0.0209(2) 0.9137(4) 0.29032(13)
C4 C 0.0034(2) 0.8894(4) 0.26092(14)
H8 H -0.016643 0.844293 0.242492
C5 C 0.0644(2) 0.9442(4) 0.26297(13)
H9 H 0.092015 0.942487 0.246153
C6 C 0.0755(2) 0.9996(4) 0.29389(13)
C7 C 0.1330(2) 1.0668(4) 0.31006(13)
C8 C 0.1156(2) 1.1906(4) 0.31213(13)
C9 C 0.1338(2) 1.2824(4) 0.29481(14)
H10 H 0.159079 1.280555 0.276907
C10 C 0.1081(2) 1.3817(4) 0.30844(15)
H11 H 0.113304 1.457867 0.301425
C11 C 0.0746(2) 1.3463(4) 0.33354(14)
C12 C 0.0391(3) 1.4160(4) 0.35738(15)
C13 C -0.0329(2) 1.4028(4) 0.34866(14)
C14 C -0.0789(3) 1.4785(4) 0.33496(15)
H12 H -0.071912 1.553680 0.327610
C15 C -0.1395(3) 1.4232(4) 0.33378(14)
H13 H -0.180134 1.455496 0.325782
C16 C -0.1285(2) 1.3159(4) 0.34618(13)
C17 C -0.1749(2) 1.2227(4) 0.35180(12)
C18 C -0.1700(2) 1.1278(4) 0.32621(12)
C19 C -0.2120(2) 1.0952(4) 0.29852(13)
H14 H -0.251706 1.130441 0.290218
C20 C -0.1853(2) 0.9981(4) 0.28426(14)
H15 H -0.203777 0.957700 0.264471
C21 C -0.1278(2) 0.9736(4) 0.30443(13)
C22 C -0.0820(2) 0.8752(4) 0.30265(14)
C23 C -0.1140(3) 0.7861(5) 0.27740(18)
H16 H -0.151270 0.754201 0.286006
H17 H -0.083401 0.725199 0.274885
H18 H -0.127610 0.821914 0.255183
C24 C -0.0665(3) 0.8197(4) 0.33780(16)
H19 H -0.045655 0.875315 0.354216
H20 H -0.037762 0.755038 0.336484
H21 H -0.106108 0.793127 0.345231
C25 C 0.1866(2) 1.0548(5) 0.28741(15)
H22 H 0.171272 1.084268 0.264523
H23 H 0.198054 0.974461 0.285830
H24 H 0.224297 1.097966 0.297592
C26 C 0.0560(3) 1.5404(5) 0.35422(19)
H25 H 0.035875 1.569267 0.331983
H26 H 0.102498 1.548521 0.356198
H27 H 0.040451 1.583786 0.372424
C27 C 0.0611(3) 1.3795(5) 0.39457(16)
H28 H 0.037159 1.422358 0.409705
H29 H 0.106874 1.394891 0.400762
H30 H 0.053148 1.298081 0.396945
C28 C -0.2439(2) 1.2703(5) 0.34660(15)
H31 H -0.247699 1.328254 0.363925
H32 H -0.274067 1.208448 0.348742
H33 H -0.253591 1.304222 0.323832
C29 C 0.1615(2) 1.0196(4) 0.34501(13)
C30 C 0.2201(3) 1.0030(5) 0.39672(14)
C31 C 0.2621(3) 1.0198(6) 0.42697(17)
H34 H 0.280393 1.092089 0.432998
C32 C 0.2758(4) 0.9263(6) 0.44764(18)
H35 H 0.303562 0.934364 0.468677
C33 C 0.2499(4) 0.8203(6) 0.43842(18)
H36 H 0.260805 0.757869 0.453352
C34 C 0.2084(3) 0.8021(6) 0.40806(18)
H37 H 0.190696 0.729550 0.401851
C35 C 0.1947(3) 0.8978(5) 0.38741(15)
C36 C 0.2208(3) 1.1955(5) 0.37088(17)
H38 H 0.222149 1.222496 0.347612
H39 H 0.263659 1.199914 0.384185
H40 H 0.191350 1.243099 0.381604
C37 C 0.1310(3) 0.8093(5) 0.33655(18)
H41 H 0.091221 0.787809 0.344809
H42 H 0.161486 0.746302 0.340234
H43 H 0.121881 0.826801 0.312123
C38 C -0.1638(2) 1.1776(5) 0.38828(14)
C39 C -0.1452(3) 1.1748(6) 0.44575(16)
C40 C -0.1311(4) 1.2024(8) 0.48018(18)
H44 H -0.115721 1.275264 0.487816
C41 C -0.1410(4) 1.1162(9) 0.5025(2)
H45 H -0.132549 1.130622 0.526305
C42 C -0.1621(4) 1.0121(10) 0.4917(2)
H46 H -0.167456 0.956427 0.508392
C43 C -0.1768(4) 0.9814(8) 0.4567(2)
H47 H -0.191258 0.907908 0.449218
C44 C -0.1680(3) 1.0697(6) 0.43432(17)
C45 C -0.1205(4) 1.3578(6) 0.41997(19)
H48 H -0.073957 1.359497 0.420681
H49 H -0.131471 1.390332 0.441095
H50 H -0.140895 1.402207 0.400425
C46 C -0.2111(3) 0.9808(5) 0.37802(18)
H51 H -0.241267 1.012048 0.359128
H52 H -0.234184 0.933002 0.392335
H53 H -0.178846 0.935041 0.368877
O4 O 0.55305(16) 0.4084(3) 0.36328(9)
O5 O 0.4538(2) 0.3811(5) 0.37447(17)
O6 O 0.4860(2) 0.5486(4) 0.35857(14)
C47 C 0.4962(2) 0.4399(5) 0.36609(13)
C48 C 0.4246(5) 0.5926(9) 0.3609(2)
H54 H 0.392568 0.552329 0.344840
H55 H 0.423540 0.673725 0.355294
H56 H 0.415264 0.582233 0.384180
N9 N 0.6691(2) 0.5231(4) 0.38830(10)
H57 H 0.630699 0.496746 0.380606
N10 N 0.6298(2) 0.2718(4) 0.41169(11)
H58 H 0.605453 0.311998 0.396153
N11 N 0.58371(19) 0.2004(3) 0.33361(11)
H59 H 0.572028 0.262328 0.343473
N12 N 0.62224(18) 0.4514(3) 0.30878(10)
H60 H 0.596876 0.447058 0.324418
N13 N 0.5908(2) 0.6046(5) 0.44556(13)
N14 N 0.5519(2) 0.4377(5) 0.45514(12)
N15 N 0.45572(19) 0.2774(4) 0.28924(12)
N16 N 0.4834(2) 0.4412(4) 0.26933(12)
C49 C 0.7060(2) 0.5878(4) 0.36964(13)
C50 C 0.7630(3) 0.6107(4) 0.39047(15)
H61 H 0.797703 0.653644 0.384505
C51 C 0.7599(3) 0.5576(5) 0.42284(14)
H62 H 0.792647 0.558299 0.442087
C52 C 0.7017(2) 0.5059(4) 0.42103(13)
C53 C 0.6716(3) 0.4420(5) 0.44758(14)
C54 C 0.6689(3) 0.3166(5) 0.43953(14)
C55 C 0.6995(3) 0.2286(6) 0.45729(16)
H63 H 0.729737 0.233999 0.477530
C56 C 0.6781(3) 0.1281(5) 0.44012(17)
H64 H 0.691355 0.053402 0.446900
C57 C 0.6345(3) 0.1559(5) 0.41171(14)
C58 C 0.5917(3) 0.0806(4) 0.38721(14)
C59 C 0.5998(2) 0.0995(4) 0.34982(14)
C60 C 0.6189(2) 0.0267(4) 0.32639(15)
H65 H 0.634753 -0.048273 0.330652
C61 C 0.6107(2) 0.0844(4) 0.29431(14)
H66 H 0.619098 0.054288 0.273196
C62 C 0.5886(2) 0.1900(4) 0.29955(13)
C63 C 0.5702(2) 0.2872(4) 0.27442(12)
C64 C 0.6198(2) 0.3801(4) 0.28111(12)
C65 C 0.6677(2) 0.4113(5) 0.26346(13)
H67 H 0.677536 0.376228 0.243291
C66 C 0.7003(2) 0.5053(4) 0.28054(13)
H68 H 0.736052 0.543662 0.274010
C67 C 0.6704(2) 0.5312(4) 0.30848(12)
C68 C 0.6811(2) 0.6275(4) 0.33390(13)
C69 C 0.7303(3) 0.7092(4) 0.32217(16)
H69 H 0.736914 0.773946 0.337849
H70 H 0.714367 0.736488 0.299097
H71 H 0.770912 0.669222 0.322091
C70 C 0.6175(3) 0.6925(4) 0.33387(15)
H72 H 0.584461 0.639687 0.339083
H73 H 0.604164 0.726379 0.311341
H74 H 0.623579 0.752587 0.351168
C71 C 0.7131(3) 0.4608(7) 0.48286(15)
H75 H 0.693974 0.420384 0.500437
H76 H 0.715287 0.542155 0.488135
H77 H 0.756370 0.431641 0.482290
C72 C 0.6046(3) -0.0429(5) 0.39624(18)
H78 H 0.648189 -0.062537 0.392811
H79 H 0.574017 -0.090830 0.381571
H80 H 0.599837 -0.055535 0.420174
C73 C 0.5211(3) 0.1067(5) 0.39094(16)
H81 H 0.514583 0.092866 0.414558
H82 H 0.492665 0.057380 0.375581
H83 H 0.511576 0.186377 0.385047
C74 C 0.5666(2) 0.2427(4) 0.23765(13)
H84 H 0.553350 0.304402 0.221538
H85 H 0.535337 0.180727 0.233921
H86 H 0.608670 0.214536 0.234094
C75 C 0.6046(3) 0.4933(5) 0.44925(13)
C76 C 0.5261(3) 0.6210(6) 0.44720(16)
C77 C 0.4881(3) 0.7203(7) 0.44283(18)
H87 H 0.505828 0.792370 0.438828
C78 C 0.4244(4) 0.7071(7) 0.4447(2)
H88 H 0.396705 0.770967 0.441704
C79 C 0.3997(3) 0.5989(7) 0.45102(16)
H89 H 0.355425 0.592565 0.452397
C80 C 0.4368(3) 0.5018(7) 0.45530(16)
H90 H 0.419268 0.429792 0.459545
C81 C 0.5019(3) 0.5163(6) 0.45299(15)
C82 C 0.6333(4) 0.7007(6) 0.44219(19)
H91 H 0.674981 0.686850 0.456001
H92 H 0.614539 0.770165 0.450118
H93 H 0.638659 0.709630 0.418205
C83 C 0.5418(3) 0.3213(6) 0.46395(16)
H94 H 0.517420 0.282291 0.444351
H95 H 0.517976 0.318571 0.483309
H96 H 0.583259 0.283630 0.470194
C84 C 0.5037(2) 0.3349(4) 0.27775(12)
C85 C 0.4041(2) 0.3506(5) 0.28861(14)
C86 C 0.3437(3) 0.3332(6) 0.29806(16)
H97 H 0.332154 0.262830 0.307174
C87 C 0.3023(3) 0.4228(7) 0.29350(18)
H98 H 0.260722 0.413710 0.299403
C88 C 0.3184(3) 0.5253(7) 0.28072(19)
H99 H 0.287720 0.584742 0.277968
C89 C 0.3793(3) 0.5445(5) 0.27159(17)
H100 H 0.391141 0.615588 0.263043
C90 C 0.4209(2) 0.4526(5) 0.27592(14)
C91 C 0.4505(3) 0.1575(4) 0.29817(16)
H101 H 0.485661 0.114784 0.290654
H102 H 0.409584 0.127242 0.286885
H103 H 0.452825 0.150148 0.322956
C92 C 0.5151(3) 0.5297(5) 0.25241(15)
H104 H 0.542954 0.574126 0.269528
H105 H 0.482950 0.579681 0.239724
H106 H 0.540869 0.494745 0.236597
P1 P 0.35173(8) 0.90915(15) 0.33055(5)
F1 F 0.3471(3) 1.0327(5) 0.34803(16)
F2 F 0.3579(2) 0.7908(4) 0.31188(13)
F3 F 0.2788(2) 0.8867(5) 0.33296(15)
F4 F 0.33101(18) 0.9684(4) 0.29414(11)
F5 F 0.4247(2) 0.9340(4) 0.32749(14)
F6 F 0.3719(3) 0.8524(5) 0.36671(13)
P2 P -0.0580(3) 0.6237(6) 0.48817(17)
F7 F -0.1127(6) 0.5313(11) 0.4929(4)
F8 F -0.0023(9) 0.7096(17) 0.4826(6)
F9 F -0.0240(10) 0.599(2) 0.5260(4)
F10 F -0.0175(11) 0.5211(16) 0.4755(7)
F11 F -0.0885(11) 0.644(2) 0.4494(3)
F12 F -0.0968(12) 0.7233(15) 0.5018(7)
C93 C 0.2600(5) 0.5006(9) 0.3896(3)
O7 O 0.2396(4) 0.5085(9) 0.4242(3)
O8 O -0.1519(7) 0.8006(14) 0.5507(4)
O9 O 0.3779(3) 0.2266(7) 0.3993(2)
O10 O 0.1404(5) 0.6038(7) 0.4523(3)
O11 O 0.3793(5) 0.2284(10) 0.4666(3)
O12 O 0.2572(7) 0.3158(10) 0.4593(4)
O13 O 0.0529(6) 0.7560(11) 0.4165(3)
O14? O 0.0013(10) 1.0841(17) 0.3699(4)
O15? O 0.0560(6) 0.9653(11) 0.4077(3)
O16? O -0.0118(5) 1.0929(9) 0.4241(3)
C94? C 0.0178(5) 1.0424(9) 0.3997(3)
C95? C 0.0037(10) 1.0520(17) 0.4582(4)
H107? H 0.006124 0.968852 0.458037
H108? H -0.029427 1.075876 0.471575
H109? H 0.045076 1.083187 0.468571
C96? C -0.0414(18) 0.698(3) 0.4363(10)
O17? O -0.0802(15) 0.764(3) 0.4205(8)
O18? O 0.2294(8) 0.7737(14) 0.2580(5)
P3? P 0.5112(4) 0.0017(9) 0.5029(3)
F13? F 0.4710(7) -0.0026(13) 0.4653(3)
F14? F 0.5518(7) 0.0034(14) 0.5405(3)
F15? F 0.5670(6) -0.0709(12) 0.4904(4)
F16? F 0.4783(6) -0.1132(9) 0.5121(3)
F17? F 0.4570(7) 0.0711(13) 0.5181(4)
F18? F 0.5488(8) 0.1125(13) 0.4953(5)
loop_
_geom_bond_atom_site_label_1
_geom_bond_atom_site_label_2
_geom_bond_site_symmetry_1
_geom_bond_site_symmetry_2
O1 C1 1_555 1_555
O2 C1 1_555 1_555
O3 C1 1_555 1_555
C2 O3 1_555 1_555
H1 C2 1_555 1_555
H2 C2 1_555 1_555
H3 C2 1_555 1_555
N1 H4 1_555 1_555
N2 H5 1_555 1_555
N3 H6 1_555 1_555
N4 H7 1_555 1_555
N5 C29 1_555 1_555
N6 C29 1_555 1_555
N7 C38 1_555 1_555
N8 C38 1_555 1_555
C3 N1 1_555 1_555
C4 C3 1_555 1_555
H8 C4 1_555 1_555
C5 C4 1_555 1_555
H9 C5 1_555 1_555
C6 N1 1_555 1_555
C7 C6 1_555 1_555
C8 N2 1_555 1_555
C9 C8 1_555 1_555
H10 C9 1_555 1_555
C10 C9 1_555 1_555
H11 C10 1_555 1_555
C11 N2 1_555 1_555
C12 C11 1_555 1_555
C13 N3 1_555 1_555
C14 C13 1_555 1_555
H12 C14 1_555 1_555
C15 C14 1_555 1_555
H13 C15 1_555 1_555
C16 N3 1_555 1_555
C17 C16 1_555 1_555
C18 N4 1_555 1_555
C19 C18 1_555 1_555
H14 C19 1_555 1_555
C20 C19 1_555 1_555
H15 C20 1_555 1_555
C21 N4 1_555 1_555
C22 C3 1_555 1_555
C23 C22 1_555 1_555
H16 C23 1_555 1_555
H17 C23 1_555 1_555
H18 C23 1_555 1_555
C24 C22 1_555 1_555
H19 C24 1_555 1_555
H20 C24 1_555 1_555
H21 C24 1_555 1_555
C25 C7 1_555 1_555
H22 C25 1_555 1_555
H23 C25 1_555 1_555
H24 C25 1_555 1_555
C26 C12 1_555 1_555
H25 C26 1_555 1_555
H26 C26 1_555 1_555
H27 C26 1_555 1_555
C27 C12 1_555 1_555
H28 C27 1_555 1_555
H29 C27 1_555 1_555
H30 C27 1_555 1_555
C28 C17 1_555 1_555
H31 C28 1_555 1_555
H32 C28 1_555 1_555
H33 C28 1_555 1_555
C29 C7 1_555 1_555
C30 N5 1_555 1_555
C31 C30 1_555 1_555
H34 C31 1_555 1_555
C32 C31 1_555 1_555
H35 C32 1_555 1_555
C33 C32 1_555 1_555
H36 C33 1_555 1_555
C34 C33 1_555 1_555
H37 C34 1_555 1_555
C35 N6 1_555 1_555
C36 N5 1_555 1_555
H38 C36 1_555 1_555
H39 C36 1_555 1_555
H40 C36 1_555 1_555
C37 N6 1_555 1_555
H41 C37 1_555 1_555
H42 C37 1_555 1_555
H43 C37 1_555 1_555
C38 C17 1_555 1_555
C39 N7 1_555 1_555
C40 C39 1_555 1_555
H44 C40 1_555 1_555
C41 C40 1_555 1_555
H45 C41 1_555 1_555
C42 C41 1_555 1_555
H46 C42 1_555 1_555
C43 C42 1_555 1_555
H47 C43 1_555 1_555
C44 N8 1_555 1_555
C45 N7 1_555 1_555
H48 C45 1_555 1_555
H49 C45 1_555 1_555
H50 C45 1_555 1_555
C46 N8 1_555 1_555
H51 C46 1_555 1_555
H52 C46 1_555 1_555
H53 C46 1_555 1_555
O4 C47 1_555 1_555
O5 C47 1_555 1_555
O6 C47 1_555 1_555
C48 O6 1_555 1_555
H54 C48 1_555 1_555
H55 C48 1_555 1_555
H56 C48 1_555 1_555
N9 H57 1_555 1_555
N10 H58 1_555 1_555
N11 H59 1_555 1_555
N12 H60 1_555 1_555
N13 C75 1_555 1_555
N14 C75 1_555 1_555
N15 C84 1_555 1_555
N16 C84 1_555 1_555
C49 N9 1_555 1_555
C50 C49 1_555 1_555
H61 C50 1_555 1_555
C51 C50 1_555 1_555
H62 C51 1_555 1_555
C52 N9 1_555 1_555
C53 C52 1_555 1_555
C54 N10 1_555 1_555
C55 C54 1_555 1_555
H63 C55 1_555 1_555
C56 C55 1_555 1_555
H64 C56 1_555 1_555
C57 N10 1_555 1_555
C58 C57 1_555 1_555
C59 N11 1_555 1_555
C60 C59 1_555 1_555
H65 C60 1_555 1_555
C61 C60 1_555 1_555
H66 C61 1_555 1_555
C62 N11 1_555 1_555
C63 C62 1_555 1_555
C64 N12 1_555 1_555
C65 C64 1_555 1_555
H67 C65 1_555 1_555
C66 C65 1_555 1_555
H68 C66 1_555 1_555
C67 N12 1_555 1_555
C68 C49 1_555 1_555
C69 C68 1_555 1_555
H69 C69 1_555 1_555
H70 C69 1_555 1_555
H71 C69 1_555 1_555
C70 C68 1_555 1_555
H72 C70 1_555 1_555
H73 C70 1_555 1_555
H74 C70 1_555 1_555
C71 C53 1_555 1_555
H75 C71 1_555 1_555
H76 C71 1_555 1_555
H77 C71 1_555 1_555
C72 C58 1_555 1_555
H78 C72 1_555 1_555
H79 C72 1_555 1_555
H80 C72 1_555 1_555
C73 C58 1_555 1_555
H81 C73 1_555 1_555
H82 C73 1_555 1_555
H83 C73 1_555 1_555
C74 C63 1_555 1_555
H84 C74 1_555 1_555
H85 C74 1_555 1_555
H86 C74 1_555 1_555
C75 C53 1_555 1_555
C76 N13 1_555 1_555
C77 C76 1_555 1_555
H87 C77 1_555 1_555
C78 C77 1_555 1_555
H88 C78 1_555 1_555
C79 C78 1_555 1_555
H89 C79 1_555 1_555
C80 C79 1_555 1_555
H90 C80 1_555 1_555
C81 N14 1_555 1_555
C82 N13 1_555 1_555
H91 C82 1_555 1_555
H92 C82 1_555 1_555
H93 C82 1_555 1_555
C83 N14 1_555 1_555
H94 C83 1_555 1_555
H95 C83 1_555 1_555
H96 C83 1_555 1_555
C84 C63 1_555 1_555
C85 N15 1_555 1_555
C86 C85 1_555 1_555
H97 C86 1_555 1_555
C87 C86 1_555 1_555
H98 C87 1_555 1_555
C88 C87 1_555 1_555
H99 C88 1_555 1_555
C89 C88 1_555 1_555
H100 C89 1_555 1_555
C90 N16 1_555 1_555
C91 N15 1_555 1_555
H101 C91 1_555 1_555
H102 C91 1_555 1_555
H103 C91 1_555 1_555
C92 N16 1_555 1_555
H104 C92 1_555 1_555
H105 C92 1_555 1_555
H106 C92 1_555 1_555
P1 F1 1_555 1_555
F2 P1 1_555 1_555
F3 P1 1_555 1_555
F4 P1 1_555 1_555
F5 P1 1_555 1_555
F6 P1 1_555 1_555
P2 F7 1_555 1_555
F8 P2 1_555 1_555
F9 P2 1_555 1_555
F10 P2 1_555 1_555
F11 P2 1_555 1_555
F12 P2 1_555 1_555
C93 O7 1_555 1_555
C5 C6 1_555 1_555
C7 C8 1_555 1_555
C10 C11 1_555 1_555
C12 C13 1_555 1_555
C15 C16 1_555 1_555
C17 C18 1_555 1_555
C20 C21 1_555 1_555
C21 C22 1_555 1_555
C30 C35 1_555 1_555
C34 C35 1_555 1_555
C39 C44 1_555 1_555
C43 C44 1_555 1_555
C51 C52 1_555 1_555
C53 C54 1_555 1_555
C56 C57 1_555 1_555
C58 C59 1_555 1_555
C61 C62 1_555 1_555
C63 C64 1_555 1_555
C66 C67 1_555 1_555
C67 C68 1_555 1_555
C76 C81 1_555 1_555
C80 C81 1_555 1_555
C85 C90 1_555 1_555
C89 C90 1_555 1_555

#END
