
#######################################################################
#
#                 Cambridge Crystallographic Data Centre
#                                CCDC 
#
#######################################################################
#
# If this CIF has been generated from an entry in the Cambridge 
# Structural Database, then it will include bibliographic, chemical, 
# crystal, experimental, refinement or atomic coordinate data resulting 
# from the CCDC's data processing and validation procedures.
#
#######################################################################

data_TEMXUE
_chemical_formula_moiety         'C13 H16 O4'
_chemical_name_systematic        
4,4,8,10-Tetramethyl-1-oxaspiro(4.5)dec-7-en-2,6,9-trione
_symmetry_cell_setting           monoclinic
_symmetry_space_group_name_H-M   'P 21/c'
_symmetry_Int_Tables_number      14
_space_group_name_Hall           '-P 2ybc'
loop_
_symmetry_equiv_pos_site_id
_symmetry_equiv_pos_as_xyz
1 x,y,z
2 -x,1/2+y,1/2-z
3 -x,-y,-z
4 x,1/2-y,1/2+z
_cell_length_a                   13.467(1)
_cell_length_b                   13.297(2)
_cell_length_c                   13.626(8)
_cell_angle_alpha                90
_cell_angle_beta                 92.120(6)
_cell_angle_gamma                90
_cell_volume                     2438.35
_exptl_crystal_colour            colorless
_cell_formula_units_Z            8
loop_
_atom_site_label
_atom_site_type_symbol
_atom_site_fract_x
_atom_site_fract_y
_atom_site_fract_z
O1 O 0.8911(1) 0.1484(1) 0.2244(1)
O2 O 0.7369(2) 0.1753(2) 0.2708(2)
O3 O 0.9848(2) 0.1092(2) 0.0607(1)
O4 O 1.1769(1) 0.0124(2) 0.3880(1)
C1 C 0.8066(2) 0.1196(2) 0.2667(2)
C2 C 0.8170(2) 0.0152(2) 0.3048(2)
C3 C 0.9062(2) -0.0279(2) 0.2520(2)
C4 C 0.9658(2) 0.0710(2) 0.2312(2)
C5 C 1.0178(2) 0.0676(2) 0.1338(2)
C6 C 1.1109(2) 0.0103(2) 0.1349(2)
C7 C 1.1657(2) -0.0069(2) 0.2162(2)
C8 C 1.1328(2) 0.0338(2) 0.3116(2)
C9 C 1.0466(2) 0.1061(2) 0.3081(2)
C10 C 0.9620(2) -0.1080(2) 0.3112(2)
C11 C 0.8674(3) -0.0740(3) 0.1546(2)
C12 C 1.2609(3) -0.0649(3) 0.2181(3)
C13 C 1.0110(3) 0.1335(3) 0.4090(2)
H1 H 0.828(2) 0.015(2) 0.379(2)
H2 H 0.756(2) -0.024(2) 0.288(2)
H3 H 1.134(2) -0.012(2) 0.071(2)
H4 H 1.073(2) 0.169(2) 0.275(2)
H5 H 0.918(2) -0.164(3) 0.329(2)
H6 H 1.021(2) -0.143(2) 0.273(2)
H7 H 0.991(2) -0.086(2) 0.370(2)
H8 H 0.827(2) -0.026(2) 0.116(2)
H9 H 0.821(2) -0.129(2) 0.172(2)
H10 H 0.923(2) -0.102(2) 0.111(2)
H11 H 1.247(2) -0.131(3) 0.254(2)
H12 H 1.281(4) -0.078(4) 0.158(4)
H13 H 1.314(3) -0.024(3) 0.254(3)
H14 H 0.978(2) 0.076(2) 0.440(2)
H15 H 0.966(3) 0.192(3) 0.403(3)
H16 H 1.070(2) 0.163(2) 0.447(2)
O5 O 0.3869(1) 0.2775(1) 0.1722(1)
O6 O 0.2338(2) 0.2294(2) 0.2014(2)
O7 O 0.4833(2) 0.4410(2) 0.1204(2)
O8 O 0.6590(2) 0.0949(2) 0.0538(2)
C14 C 0.3011(2) 0.2320(2) 0.1455(2)
C15 C 0.3065(2) 0.1905(3) 0.0453(3)
C16 C 0.3981(2) 0.2402(2) 0.0021(2)
C17 C 0.4606(2) 0.2637(2) 0.0989(2)
C18 C 0.5175(2) 0.3623(2) 0.0927(2)
C19 C 0.6161(2) 0.3558(2) 0.0523(2)
C20 C 0.6692(2) 0.2712(2) 0.0458(2)
C21 C 0.6237(2) 0.1757(2) 0.0765(2)
C22 C 0.5334(2) 0.1830(2) 0.1394(2)
C23 C 0.4490(3) 0.1746(3) -0.0711(2)
C24 C 0.3651(3) 0.3386(3) -0.0483(3)
C25 C 0.7723(3) 0.2675(4) 0.0106(3)
C26 C 0.4902(3) 0.0815(3) 0.1653(3)
H17 H 0.313(2) 0.117(3) 0.048(2)
H18 H 0.243(3) 0.207(3) 0.005(3)
H19 H 0.644(2) 0.416(2) 0.033(2)
H20 H 0.559(2) 0.217(2) 0.205(2)
H21 H 0.407(2) 0.163(2) -0.128(3)
H22 H 0.506(2) 0.205(2) -0.099(2)
H23 H 0.471(3) 0.109(3) -0.043(3)
H24 H 0.336(3) 0.383(3) 0.004(3)
H25 H 0.323(3) 0.325(3) -0.098(3)
H26 H 0.424(3) 0.373(3) -0.078(3)
H27 H 0.776(3) 0.231(3) -0.050(3)
H28 H 0.798(3) 0.332(4) 0.004(3)
H29 H 0.819(3) 0.231(3) 0.053(3)
H30 H 0.464(3) 0.049(3) 0.101(3)
H31 H 0.441(3) 0.090(2) 0.216(2)
H32 H 0.541(3) 0.042(3) 0.195(2)
loop_
_geom_bond_atom_site_label_1
_geom_bond_atom_site_label_2
_geom_bond_site_symmetry_1
_geom_bond_site_symmetry_2
O1 C1 1_555 1_555
O2 C1 1_555 1_555
O3 C5 1_555 1_555
O4 C8 1_555 1_555
C1 C2 1_555 1_555
C2 C3 1_555 1_555
C3 C4 1_555 1_555
C4 O1 1_555 1_555
C5 C4 1_555 1_555
C6 C5 1_555 1_555
C7 C6 1_555 1_555
C8 C7 1_555 1_555
C9 C4 1_555 1_555
C10 C3 1_555 1_555
C11 C3 1_555 1_555
C12 C7 1_555 1_555
C13 C9 1_555 1_555
H1 C2 1_555 1_555
H2 C2 1_555 1_555
H3 C6 1_555 1_555
H4 C9 1_555 1_555
H5 C10 1_555 1_555
H6 C10 1_555 1_555
H7 C10 1_555 1_555
H8 C11 1_555 1_555
H9 C11 1_555 1_555
H10 C11 1_555 1_555
H11 C12 1_555 1_555
H12 C12 1_555 1_555
H13 C12 1_555 1_555
H14 C13 1_555 1_555
H15 C13 1_555 1_555
H16 C13 1_555 1_555
O5 C14 1_555 1_555
O6 C14 1_555 1_555
O7 C18 1_555 1_555
O8 C21 1_555 1_555
C14 C15 1_555 1_555
C15 C16 1_555 1_555
C16 C17 1_555 1_555
C17 O5 1_555 1_555
C18 C17 1_555 1_555
C19 C18 1_555 1_555
C20 C19 1_555 1_555
C21 C20 1_555 1_555
C22 C17 1_555 1_555
C23 C16 1_555 1_555
C24 C16 1_555 1_555
C25 C20 1_555 1_555
C26 C22 1_555 1_555
H17 C15 1_555 1_555
H18 C15 1_555 1_555
H19 C19 1_555 1_555
H20 C22 1_555 1_555
H21 C23 1_555 1_555
H22 C23 1_555 1_555
H23 C23 1_555 1_555
H24 C24 1_555 1_555
H25 C24 1_555 1_555
H26 C24 1_555 1_555
H27 C25 1_555 1_555
H28 C25 1_555 1_555
H29 C25 1_555 1_555
H30 C26 1_555 1_555
H31 C26 1_555 1_555
H32 C26 1_555 1_555
C8 C9 1_555 1_555
C21 C22 1_555 1_555

#END
