
#######################################################################
#
#                 Cambridge Crystallographic Data Centre
#                                CCDC 
#
#######################################################################
#
# If this CIF has been generated from an entry in the Cambridge 
# Structural Database, then it will include bibliographic, chemical, 
# crystal, experimental, refinement or atomic coordinate data resulting 
# from the CCDC's data processing and validation procedures.
#
#######################################################################

data_TEMXOB
_chemical_formula_moiety         
'2(C44 H50 N8 2+),C1 H1 O3 1-,0.9(C2 H3 O3 1-),0.1(I1 1-),2(F6 P1 1-),2(H2 O1)'
_chemical_name_systematic        
'bis(2,7,7,12,17,17-octamethyl-2,7-bis(1,3-dimethyl-1H-benzimidazol-3-ium-2-yl)calix(4)pyrrole) (hydrogen carbonate) clathrate (methyl carbonate iodide) clathrate bis(hexafluorophosphate) unknown solvate dihydrate'
_symmetry_cell_setting           monoclinic
_symmetry_space_group_name_H-M   'P 2/n'
_symmetry_Int_Tables_number      13
_space_group_name_Hall           '-P 2yac'
loop_
_symmetry_equiv_pos_site_id
_symmetry_equiv_pos_as_xyz
1 x,y,z
2 1/2-x,y,1/2-z
3 -x,-y,-z
4 1/2+x,-y,1/2+z
_cell_length_a                   20.1194(9)
_cell_length_b                   11.7416(4)
_cell_length_c                   40.0177(14)
_cell_angle_alpha                90
_cell_angle_beta                 99.066(4)
_cell_angle_gamma                90
_cell_volume                     9335.44
_exptl_crystal_colour            'yellow orange'
_exptl_crystal_description       needle
_cell_formula_units_Z            4
loop_
_atom_site_label
_atom_site_type_symbol
_atom_site_fract_x
_atom_site_fract_y
_atom_site_fract_z
P1 P 0.3733(3) 0.1894(5) 0.33935(12)
F1 F 0.3388(5) 0.2154(8) 0.30260(16)
F2 F 0.4056(6) 0.1651(8) 0.3787(2)
F3 F 0.4450(4) 0.1865(10) 0.3327(3)
F4 F 0.3783(6) 0.3221(7) 0.3494(3)
F5 F 0.2999(4) 0.1907(9) 0.3501(2)
F6 F 0.3664(6) 0.0601(6) 0.3326(3)
O4 O 0.54979(16) 0.6261(3) 0.36355(7)
O5 O 0.4857(3) 0.4752(4) 0.35525(13)
H4 H 0.449674 0.448828 0.360208
O6 O 0.4455(2) 0.6315(4) 0.37583(12)
C3 C 0.4932(3) 0.5851(5) 0.36582(11)
N1 N -0.11258(17) 0.0020(3) 0.32766(8)
H5 H -0.077413 0.004057 0.343807
N2 N -0.05156(19) -0.2436(3) 0.35477(9)
H6 H -0.030898 -0.179751 0.361686
N3 N 0.09688(18) -0.1705(3) 0.33416(9)
H7 H 0.079679 -0.127961 0.348769
N4 N 0.03503(18) 0.0741(3) 0.30612(8)
H8 H 0.029868 0.047019 0.326055
N5 N -0.1723(2) -0.0032(5) 0.39575(12)
N6 N -0.1236(3) -0.1627(5) 0.41641(11)
N7 N 0.2111(2) -0.0123(4) 0.36988(9)
N8 N 0.1629(2) 0.1496(4) 0.35459(11)
C4 C -0.1232(2) 0.0738(4) 0.30045(10)
C5 C -0.1817(2) 0.0429(4) 0.28074(12)
H9 H -0.200898 0.077416 0.259974
C6 C -0.2093(2) -0.0511(4) 0.29691(11)
H10 H -0.250174 -0.089965 0.289025
C7 C -0.1652(2) -0.0742(4) 0.32607(10)
C8 C -0.1685(2) -0.1643(4) 0.35290(11)
C9 C -0.1198(2) -0.2571(4) 0.34814(11)
C10 C -0.1321(3) -0.3681(4) 0.33740(13)
H11 H -0.175049 -0.402190 0.331010
C11 C -0.0696(3) -0.4210(4) 0.33769(13)
H12 H -0.063019 -0.497416 0.331100
C12 C -0.0194(3) -0.3446(4) 0.34905(12)
C13 C 0.0560(3) -0.3542(4) 0.35658(14)
C14 C 0.0904(3) -0.2862(4) 0.33149(13)
C15 C 0.1224(3) -0.3196(4) 0.30554(13)
H13 H 0.125792 -0.395479 0.297770
C16 C 0.1498(2) -0.2221(4) 0.29219(12)
H14 H 0.174379 -0.220541 0.273785
C17 C 0.1344(2) -0.1299(4) 0.31059(10)
C18 C 0.1515(2) -0.0045(4) 0.30857(11)
C19 C 0.0914(2) 0.0594(4) 0.29091(10)
C20 C 0.0799(2) 0.1118(4) 0.26007(11)
H15 H 0.110041 0.114492 0.244029
C21 C 0.0148(2) 0.1616(4) 0.25631(11)
H16 H -0.006296 0.203645 0.237277
C22 C -0.0123(2) 0.1383(4) 0.28509(11)
C23 C -0.0775(2) 0.1743(4) 0.29582(12)
C24 C -0.2407(2) -0.2131(4) 0.34934(12)
H17 H -0.253089 -0.247049 0.326845
H18 H -0.272301 -0.151691 0.352257
H19 H -0.242575 -0.271513 0.366672
C25 C 0.0735(3) -0.4817(5) 0.35304(19)
H20 H 0.056943 -0.507281 0.329909
H21 H 0.052285 -0.526880 0.369047
H22 H 0.122460 -0.491695 0.357909
C26 C 0.0829(3) -0.3169(6) 0.39265(15)
H23 H 0.132156 -0.321894 0.396541
H24 H 0.064709 -0.366774 0.408649
H25 H 0.069225 -0.238159 0.395963
C27 C 0.2106(2) 0.0094(5) 0.28817(12)
H26 H 0.196883 -0.019011 0.265089
H27 H 0.249603 -0.034081 0.299175
H28 H 0.222752 0.090110 0.287367
C28 C -0.1144(3) 0.2538(5) 0.26852(15)
H29 H -0.124169 0.212644 0.246994
H30 H -0.085921 0.319813 0.265833
H31 H -0.156629 0.279561 0.275310
C29 C -0.0622(3) 0.2419(4) 0.32929(14)
H32 H -0.104530 0.267695 0.335996
H33 H -0.034196 0.308028 0.326082
H34 H -0.038250 0.192785 0.347018
C30 C -0.1543(3) -0.1126(5) 0.38826(12)
C31 C -0.1514(4) 0.0159(8) 0.42990(17)
C32 C -0.1574(5) 0.1128(9) 0.4496(2)
H35 H -0.178535 0.180667 0.440366
C33 C -0.1299(6) 0.1020(11) 0.4839(3)
H36 H -0.131793 0.165460 0.498458
C34 C -0.1007(6) 0.0038(10) 0.4971(2)
H37 H -0.084526 0.001413 0.520667
C35 C -0.0926(5) -0.0969(10) 0.4774(2)
H38 H -0.070905 -0.164524 0.486441
C36 C -0.1210(4) -0.0829(7) 0.44291(15)
C37 C -0.2106(4) 0.0796(6) 0.37478(18)
H39 H -0.180087 0.134991 0.366907
H40 H -0.241021 0.118902 0.387804
H41 H -0.236955 0.041592 0.355253
C38 C -0.1010(4) -0.2833(7) 0.42162(15)
H42 H -0.124193 -0.330533 0.403223
H43 H -0.111512 -0.310860 0.443295
H44 H -0.052268 -0.287560 0.421771
C39 C 0.1754(2) 0.0442(4) 0.34386(11)
C40 C 0.2206(3) 0.0563(6) 0.39816(13)
C41 C 0.2524(4) 0.0364(8) 0.43102(16)
H45 H 0.273397 -0.034301 0.437675
C42 C 0.2515(5) 0.1261(9) 0.45355(18)
H46 H 0.272855 0.117036 0.476324
C43 C 0.2209(6) 0.2268(10) 0.4438(2)
H47 H 0.221595 0.285490 0.460191
C44 C 0.1889(4) 0.2476(8) 0.4114(2)
H48 H 0.167942 0.318520 0.405046
C45 C 0.1892(3) 0.1592(6) 0.38887(15)
C46 C 0.2432(3) -0.1242(5) 0.37064(14)
H49 H 0.230472 -0.161774 0.348689
H50 H 0.228440 -0.170841 0.388417
H51 H 0.292203 -0.115100 0.375314
C47 C 0.1362(4) 0.2512(5) 0.3354(2)
H52 H 0.145296 0.245609 0.312139
H53 H 0.158075 0.319475 0.346156
H54 H 0.087555 0.256134 0.335276
N9 N 0.6783(2) 0.5243(3) 0.38631(8)
H55 H 0.638258 0.552536 0.378725
N10 N 0.6290(2) 0.7709(3) 0.41156(9)
H56 H 0.598963 0.729192 0.398608
N11 N 0.57356(18) 0.8413(3) 0.33367(8)
H57 H 0.562861 0.777728 0.343186
N12 N 0.62101(17) 0.5943(3) 0.30817(8)
H58 H 0.593438 0.592953 0.323191
N13 N 0.5888(2) 0.4499(4) 0.43938(10)
N14 N 0.5618(2) 0.6147(4) 0.45862(10)
N15 N 0.44150(19) 0.7521(3) 0.28957(9)
N16 N 0.47704(19) 0.5936(3) 0.26907(9)
C48 C 0.7168(2) 0.4587(4) 0.36751(10)
C49 C 0.7755(3) 0.4351(4) 0.38830(11)
H59 H 0.811749 0.391923 0.382289
C50 C 0.7737(3) 0.4853(4) 0.42037(11)
H60 H 0.808221 0.482882 0.439521
C51 C 0.7125(3) 0.5379(4) 0.41833(10)
C52 C 0.6813(3) 0.6027(4) 0.44511(10)
C53 C 0.6779(3) 0.7294(4) 0.43603(11)
C54 C 0.7160(3) 0.8184(5) 0.45019(12)
H61 H 0.753966 0.814166 0.467587
C55 C 0.6879(3) 0.9178(5) 0.43387(13)
H62 H 0.703940 0.993105 0.438564
C56 C 0.6337(3) 0.8883(4) 0.41013(11)
C57 C 0.5830(3) 0.9581(4) 0.38727(12)
C58 C 0.5889(2) 0.9423(4) 0.35017(11)
C59 C 0.6043(3) 1.0191(4) 0.32673(12)
H63 H 0.617141 1.096178 0.331101
C60 C 0.5976(2) 0.9642(4) 0.29498(11)
H64 H 0.605674 0.997006 0.274282
C61 C 0.5775(2) 0.8548(4) 0.29965(10)
C62 C 0.5616(2) 0.7584(4) 0.27462(10)
C63 C 0.6169(2) 0.6701(4) 0.28159(9)
C64 C 0.6694(2) 0.6457(4) 0.26460(10)
H65 H 0.679754 0.684120 0.245161
C65 C 0.7052(2) 0.5537(4) 0.28122(10)
H66 H 0.744347 0.519533 0.275052
C66 C 0.6740(2) 0.5215(4) 0.30790(9)
C67 C 0.6887(2) 0.4220(4) 0.33180(10)
C68 C 0.7260(3) 0.5850(5) 0.47986(11)
H67 H 0.729779 0.503345 0.484925
H68 H 0.705590 0.623689 0.497439
H69 H 0.770811 0.616600 0.479231
C69 C 0.5939(3) 1.0843(4) 0.39653(14)
H70 H 0.588491 1.095829 0.420217
H71 H 0.560671 1.130578 0.381895
H72 H 0.639313 1.107217 0.393398
C70 C 0.5109(3) 0.9243(5) 0.39261(13)
H73 H 0.502546 0.844537 0.386085
H74 H 0.478087 0.973022 0.378615
H75 H 0.506590 0.934077 0.416488
C71 C 0.5565(2) 0.8039(4) 0.23811(10)
H76 H 0.519486 0.858741 0.233675
H77 H 0.548092 0.740365 0.222114
H78 H 0.598842 0.841425 0.235362
C72 C 0.7412(3) 0.3450(4) 0.31890(12)
H79 H 0.724629 0.321848 0.295540
H80 H 0.748929 0.277151 0.333266
H81 H 0.783587 0.386855 0.319669
C73 C 0.6234(3) 0.3523(4) 0.33219(11)
H82 H 0.588596 0.401850 0.338922
H83 H 0.632501 0.289395 0.348349
H84 H 0.607752 0.321677 0.309530
C74 C 0.6118(3) 0.5559(4) 0.44779(11)
C75 C 0.5225(3) 0.4411(6) 0.44357(13)
C76 C 0.4762(4) 0.3520(7) 0.43613(15)
H85 H 0.488545 0.280788 0.427625
C77 C 0.4115(5) 0.3743(9) 0.4419(2)
H86 H 0.377833 0.317406 0.436806
C78 C 0.3946(4) 0.4776(9) 0.4551(2)
H87 H 0.349707 0.487653 0.459130
C79 C 0.4414(4) 0.5713(8) 0.46306(17)
H88 H 0.429660 0.642072 0.472078
C80 C 0.5051(3) 0.5463(6) 0.45605(14)
C81 C 0.6250(4) 0.3478(5) 0.42980(15)
H89 H 0.608597 0.328331 0.406125
H90 H 0.616985 0.283682 0.444344
H91 H 0.673360 0.363890 0.432622
C82 C 0.5638(4) 0.7308(6) 0.47318(15)
H92 H 0.610424 0.757911 0.477418
H93 H 0.545668 0.729119 0.494520
H94 H 0.536605 0.782237 0.457249
C83 C 0.4938(2) 0.7025(4) 0.27742(10)
C84 C 0.3907(2) 0.6698(5) 0.28939(11)
C85 C 0.3292(3) 0.6783(5) 0.30098(14)
H95 H 0.313939 0.746831 0.309844
C86 C 0.2920(3) 0.5780(6) 0.29851(16)
H96 H 0.249357 0.577872 0.305881
C87 C 0.3147(3) 0.4787(6) 0.28573(17)
H97 H 0.287190 0.412708 0.284726
C88 C 0.3755(3) 0.4715(5) 0.27444(15)
H98 H 0.390638 0.402885 0.265534
C89 C 0.4136(2) 0.5711(4) 0.27684(12)
C90 C 0.4314(3) 0.8700(4) 0.29863(13)
H99 H 0.465801 0.917877 0.290841
H100 H 0.434907 0.876432 0.323267
H101 H 0.386657 0.895225 0.287901
C91 C 0.5135(3) 0.5104(4) 0.25161(13)
H102 H 0.542170 0.550461 0.237785
H103 H 0.481251 0.462380 0.237031
H104 H 0.541535 0.462698 0.268329
O7 O 0.3152(3) 0.6524(6) 0.38610(17)
H105 H 0.354436 0.648740 0.380850
H106 H 0.301208 0.585625 0.389396
O8 O 0.2520(4) 0.4542(7) 0.3737(2)
O1 O 0.0147(4) -0.0293(6) 0.3681(2)
O2 O 0.0261(7) -0.0396(10) 0.4249(2)
O3 O 0.0270(6) 0.1318(8) 0.3993(3)
C1 C 0.0226(4) 0.0212(8) 0.3975(3)
C2 C 0.0378(13) 0.182(2) 0.4321(5)
H1 H 0.016620 0.134104 0.447638
H2 H 0.018057 0.257959 0.431075
H3 H 0.086280 0.186687 0.440308
O9? O 0.0168(6) -0.0294(10) 0.3680(3)
O10? O 0.0697(8) -0.0314(15) 0.4221(3)
O11? O -0.0060(7) 0.1089(12) 0.4023(3)
C92? C 0.0274(5) 0.0163(10) 0.3982(3)
C93? C 0.0069(13) 0.167(2) 0.4337(5)
H107? H -0.033338 0.165075 0.444615
H108? H 0.018534 0.246817 0.429731
H109? H 0.044455 0.130736 0.448325
P2? P 0.3697(4) 0.2001(7) 0.34811(17)
F7? F 0.3788(6) 0.2217(11) 0.3107(2)
F8? F 0.3562(7) 0.1811(10) 0.3867(2)
F9? F 0.4430(5) 0.1893(11) 0.3632(4)
F10? F 0.3715(6) 0.3349(7) 0.3563(3)
F11? F 0.2906(5) 0.2184(12) 0.3359(3)
F12? F 0.3564(8) 0.0711(9) 0.3435(4)
I1? I 0.0276(4) 0.0048(6) 0.39592(14)
loop_
_geom_bond_atom_site_label_1
_geom_bond_atom_site_label_2
_geom_bond_site_symmetry_1
_geom_bond_site_symmetry_2
O1 C1 1_555 1_555
O2 C1 1_555 1_555
O3 C1 1_555 1_555
C2 O3 1_555 1_555
H1 C2 1_555 1_555
H2 C2 1_555 1_555
H3 C2 1_555 1_555
P1 F1 1_555 1_555
F2 P1 1_555 1_555
F3 P1 1_555 1_555
F4 P1 1_555 1_555
F5 P1 1_555 1_555
F6 P1 1_555 1_555
O4 C3 1_555 1_555
O5 H4 1_555 1_555
O6 C3 1_555 1_555
C3 O5 1_555 1_555
N1 H5 1_555 1_555
N2 H6 1_555 1_555
N3 H7 1_555 1_555
N4 H8 1_555 1_555
N5 C30 1_555 1_555
N6 C30 1_555 1_555
N7 C39 1_555 1_555
N8 C39 1_555 1_555
C4 N1 1_555 1_555
C5 C4 1_555 1_555
H9 C5 1_555 1_555
C6 C5 1_555 1_555
H10 C6 1_555 1_555
C7 N1 1_555 1_555
C8 C7 1_555 1_555
C9 N2 1_555 1_555
C10 C9 1_555 1_555
H11 C10 1_555 1_555
C11 C10 1_555 1_555
H12 C11 1_555 1_555
C12 N2 1_555 1_555
C13 C12 1_555 1_555
C14 N3 1_555 1_555
C15 C14 1_555 1_555
H13 C15 1_555 1_555
C16 C15 1_555 1_555
H14 C16 1_555 1_555
C17 N3 1_555 1_555
C18 C17 1_555 1_555
C19 N4 1_555 1_555
C20 C19 1_555 1_555
H15 C20 1_555 1_555
C21 C20 1_555 1_555
H16 C21 1_555 1_555
C22 N4 1_555 1_555
C23 C4 1_555 1_555
C24 C8 1_555 1_555
H17 C24 1_555 1_555
H18 C24 1_555 1_555
H19 C24 1_555 1_555
C25 C13 1_555 1_555
H20 C25 1_555 1_555
H21 C25 1_555 1_555
H22 C25 1_555 1_555
C26 C13 1_555 1_555
H23 C26 1_555 1_555
H24 C26 1_555 1_555
H25 C26 1_555 1_555
C27 C18 1_555 1_555
H26 C27 1_555 1_555
H27 C27 1_555 1_555
H28 C27 1_555 1_555
C28 C23 1_555 1_555
H29 C28 1_555 1_555
H30 C28 1_555 1_555
H31 C28 1_555 1_555
C29 C23 1_555 1_555
H32 C29 1_555 1_555
H33 C29 1_555 1_555
H34 C29 1_555 1_555
C30 C8 1_555 1_555
C31 N5 1_555 1_555
C32 C31 1_555 1_555
H35 C32 1_555 1_555
C33 C32 1_555 1_555
H36 C33 1_555 1_555
C34 C33 1_555 1_555
H37 C34 1_555 1_555
C35 C34 1_555 1_555
H38 C35 1_555 1_555
C36 N6 1_555 1_555
C37 N5 1_555 1_555
H39 C37 1_555 1_555
H40 C37 1_555 1_555
H41 C37 1_555 1_555
C38 N6 1_555 1_555
H42 C38 1_555 1_555
H43 C38 1_555 1_555
H44 C38 1_555 1_555
C39 C18 1_555 1_555
C40 N7 1_555 1_555
C41 C40 1_555 1_555
H45 C41 1_555 1_555
C42 C41 1_555 1_555
H46 C42 1_555 1_555
C43 C42 1_555 1_555
H47 C43 1_555 1_555
C44 C43 1_555 1_555
H48 C44 1_555 1_555
C45 N8 1_555 1_555
C46 N7 1_555 1_555
H49 C46 1_555 1_555
H50 C46 1_555 1_555
H51 C46 1_555 1_555
C47 N8 1_555 1_555
H52 C47 1_555 1_555
H53 C47 1_555 1_555
H54 C47 1_555 1_555
N9 H55 1_555 1_555
N10 H56 1_555 1_555
N11 H57 1_555 1_555
N12 H58 1_555 1_555
N13 C74 1_555 1_555
N14 C74 1_555 1_555
N15 C83 1_555 1_555
N16 C83 1_555 1_555
C48 N9 1_555 1_555
C49 C48 1_555 1_555
H59 C49 1_555 1_555
C50 C49 1_555 1_555
H60 C50 1_555 1_555
C51 N9 1_555 1_555
C52 C51 1_555 1_555
C53 N10 1_555 1_555
C54 C53 1_555 1_555
H61 C54 1_555 1_555
C55 C54 1_555 1_555
H62 C55 1_555 1_555
C56 N10 1_555 1_555
C57 C56 1_555 1_555
C58 N11 1_555 1_555
C59 C58 1_555 1_555
H63 C59 1_555 1_555
C60 C59 1_555 1_555
H64 C60 1_555 1_555
C61 N11 1_555 1_555
C62 C61 1_555 1_555
C63 N12 1_555 1_555
C64 C63 1_555 1_555
H65 C64 1_555 1_555
C65 C64 1_555 1_555
H66 C65 1_555 1_555
C66 N12 1_555 1_555
C67 C48 1_555 1_555
C68 C52 1_555 1_555
H67 C68 1_555 1_555
H68 C68 1_555 1_555
H69 C68 1_555 1_555
C69 C57 1_555 1_555
H70 C69 1_555 1_555
H71 C69 1_555 1_555
H72 C69 1_555 1_555
C70 C57 1_555 1_555
H73 C70 1_555 1_555
H74 C70 1_555 1_555
H75 C70 1_555 1_555
C71 C62 1_555 1_555
H76 C71 1_555 1_555
H77 C71 1_555 1_555
H78 C71 1_555 1_555
C72 C67 1_555 1_555
H79 C72 1_555 1_555
H80 C72 1_555 1_555
H81 C72 1_555 1_555
C73 C67 1_555 1_555
H82 C73 1_555 1_555
H83 C73 1_555 1_555
H84 C73 1_555 1_555
C74 C52 1_555 1_555
C75 N13 1_555 1_555
C76 C75 1_555 1_555
H85 C76 1_555 1_555
C77 C76 1_555 1_555
H86 C77 1_555 1_555
C78 C77 1_555 1_555
H87 C78 1_555 1_555
C79 C78 1_555 1_555
H88 C79 1_555 1_555
C80 N14 1_555 1_555
C81 N13 1_555 1_555
H89 C81 1_555 1_555
H90 C81 1_555 1_555
H91 C81 1_555 1_555
C82 N14 1_555 1_555
H92 C82 1_555 1_555
H93 C82 1_555 1_555
H94 C82 1_555 1_555
C83 C62 1_555 1_555
C84 N15 1_555 1_555
C85 C84 1_555 1_555
H95 C85 1_555 1_555
C86 C85 1_555 1_555
H96 C86 1_555 1_555
C87 C86 1_555 1_555
H97 C87 1_555 1_555
C88 C87 1_555 1_555
H98 C88 1_555 1_555
C89 N16 1_555 1_555
C90 N15 1_555 1_555
H99 C90 1_555 1_555
H100 C90 1_555 1_555
H101 C90 1_555 1_555
C91 N16 1_555 1_555
H102 C91 1_555 1_555
H103 C91 1_555 1_555
H104 C91 1_555 1_555
O7 H105 1_555 1_555
H106 O7 1_555 1_555
C6 C7 1_555 1_555
C8 C9 1_555 1_555
C11 C12 1_555 1_555
C13 C14 1_555 1_555
C16 C17 1_555 1_555
C18 C19 1_555 1_555
C21 C22 1_555 1_555
C22 C23 1_555 1_555
C31 C36 1_555 1_555
C35 C36 1_555 1_555
C40 C45 1_555 1_555
C44 C45 1_555 1_555
C50 C51 1_555 1_555
C52 C53 1_555 1_555
C55 C56 1_555 1_555
C57 C58 1_555 1_555
C60 C61 1_555 1_555
C62 C63 1_555 1_555
C65 C66 1_555 1_555
C66 C67 1_555 1_555
C75 C80 1_555 1_555
C79 C80 1_555 1_555
C84 C89 1_555 1_555
C88 C89 1_555 1_555

#END
