
#######################################################################
#
#                 Cambridge Crystallographic Data Centre
#                                CCDC 
#
#######################################################################
#
# If this CIF has been generated from an entry in the Cambridge 
# Structural Database, then it will include bibliographic, chemical, 
# crystal, experimental, refinement or atomic coordinate data resulting 
# from the CCDC's data processing and validation procedures.
#
#######################################################################

data_TEMYIT
_chemical_formula_moiety         'C15 H12 O2 S1'
_chemical_name_systematic        'p-Tolyl phenylthioglyoxylate'
_symmetry_cell_setting           triclinic
_symmetry_space_group_name_H-M   'P -1'
_symmetry_Int_Tables_number      2
_space_group_name_Hall           '-P 1'
loop_
_symmetry_equiv_pos_site_id
_symmetry_equiv_pos_as_xyz
1 x,y,z
2 -x,-y,-z
_cell_length_a                   7.077(10)
_cell_length_b                   8.825(2)
_cell_length_c                   11.068(2)
_cell_angle_alpha                90.63
_cell_angle_beta                 106.66(3)
_cell_angle_gamma                102.98
_cell_volume                     643.202
_exptl_crystal_colour            'pale yellow'
_chemical_melting_point          '55-56 deg.C'
_cell_formula_units_Z            2
loop_
_atom_site_label
_atom_site_type_symbol
_atom_site_fract_x
_atom_site_fract_y
_atom_site_fract_z
S1 S 0.2756(1) 0.5283(1) 0.7511(1)
O1 O 0.4773(3) 0.8206(2) 0.8442(2)
O2 O 0.6495(2) 0.5049(2) 0.9044(2)
C1 C 0.0874(3) 0.6205(2) 0.6620(2)
C2 C 0.1275(3) 0.7201(3) 0.5731(2)
C3 C -0.0252(3) 0.7810(3) 0.4981(2)
C4 C -0.2194(3) 0.7447(2) 0.5091(2)
C5 C -0.2566(3) 0.6451(3) 0.5984(2)
C6 C -0.1053(3) 0.5833(3) 0.6746(2)
C7 C -0.3849(5) 0.8084(4) 0.4236(2)
C8 C 0.4531(3) 0.6911(11) 0.8446(2)
C9 C 0.6424(3) 0.6387(2) 0.9272(2)
C10 C 0.8063(3) 0.7519(2) 1.0214(2)
C11 C 1.0013(3) 0.7254(3) 1.0490(2)
C12 C 1.1612(3) 0.8242(3) 1.1380(2)
C13 C 1.1279(4) 0.9485(3) 1.2012(2)
C14 C 0.9362(4) 0.9756(3) 1.1747(2)
C15 C 0.7743(3) 0.8785(3) 1.0837(2)
H1 H 0.2556(42) 0.7426(31) 0.5683(25)
H2 H -0.0006(45) 0.8419(35) 0.4339(29)
H3 H -0.3777(42) 0.6264(32) 0.6098(26)
H4 H -0.1313(40) 0.5256(32) 0.7309(26)
H5 H -0.3662(70) 0.8213(56) 0.3488(46)
H6 H -0.3986(66) 0.9053(58) 0.4705(45)
H7 H -0.5061(60) 0.7467(47) 0.4027(34)
H8 H 1.0226(39) 0.6381(32) 1.0062(25)
H9 H 1.2964(40) 0.8046(30) 1.1522(24)
H10 H 1.2336(46) 1.0243(36) 1.2612(29)
H11 H 0.9263(40) 1.0650(34) 1.2155(26)
H12 H 0.6462(39) 0.8971(29) 1.0636(22)
loop_
_geom_bond_atom_site_label_1
_geom_bond_atom_site_label_2
_geom_bond_site_symmetry_1
_geom_bond_site_symmetry_2
S1 C1 1_555 1_555
O1 C8 1_555 1_555
O2 C9 1_555 1_555
C1 C2 1_555 1_555
C2 C3 1_555 1_555
C3 C4 1_555 1_555
C4 C5 1_555 1_555
C5 C6 1_555 1_555
C6 C1 1_555 1_555
C7 C4 1_555 1_555
C8 S1 1_555 1_555
C9 C8 1_555 1_555
C10 C9 1_555 1_555
C11 C10 1_555 1_555
C12 C11 1_555 1_555
C13 C12 1_555 1_555
C14 C13 1_555 1_555
C15 C10 1_555 1_555
H1 C2 1_555 1_555
H2 C3 1_555 1_555
H3 C5 1_555 1_555
H4 C6 1_555 1_555
H5 C7 1_555 1_555
H6 C7 1_555 1_555
H7 C7 1_555 1_555
H8 C11 1_555 1_555
H9 C12 1_555 1_555
H10 C13 1_555 1_555
H11 C14 1_555 1_555
H12 C15 1_555 1_555
C14 C15 1_555 1_555

#END
