
#######################################################################
#
#                 Cambridge Crystallographic Data Centre
#                                CCDC 
#
#######################################################################
#
# If this CIF has been generated from an entry in the Cambridge 
# Structural Database, then it will include bibliographic, chemical, 
# crystal, experimental, refinement or atomic coordinate data resulting 
# from the CCDC's data processing and validation procedures.
#
#######################################################################

data_TENCIB
_chemical_formula_moiety         'C42 H38 N2 O4 S4,2(C1 H2 Cl2)'
_chemical_name_systematic        
'6-[2,6-di-isopropylphenyl]-2-{6-[2,6-di-isopropylphenyl]-5,7-dioxo-6,7-dihydro-2H,5H-[1,3]dithiolo[4,5-f]isoindol-2-ylidene}-2H,5H-[1,3]dithiolo[4,5-f]isoindole-5,7(6H)-dione dichloromethane solvate'
_symmetry_cell_setting           monoclinic
_symmetry_space_group_name_H-M   'P 21/c'
_symmetry_Int_Tables_number      14
_space_group_name_Hall           '-P 2ybc'
loop_
_symmetry_equiv_pos_site_id
_symmetry_equiv_pos_as_xyz
1 x,y,z
2 -x,1/2+y,1/2-z
3 -x,-y,-z
4 x,1/2-y,1/2+z
_cell_length_a                   13.944(2)
_cell_length_b                   22.861(4)
_cell_length_c                   13.702(2)
_cell_angle_alpha                90
_cell_angle_beta                 92.586(3)
_cell_angle_gamma                90
_cell_volume                     4363.39
_exptl_crystal_colour            red
_exptl_crystal_description       prism
_cell_formula_units_Z            4
loop_
_atom_site_label
_atom_site_type_symbol
_atom_site_fract_x
_atom_site_fract_y
_atom_site_fract_z
C1 C 0.2486(3) 0.47891(19) 0.7448(3)
C2 C 0.2554(3) 0.36537(19) 0.7618(3)
C3 C 0.2379(3) 0.3762(2) 0.6612(3)
C4 C 0.2267(3) 0.32993(18) 0.5942(3)
H1 H 0.2139 0.3367 0.5265
C5 C 0.2351(3) 0.27419(19) 0.6317(3)
C6 C 0.2558(3) 0.26411(19) 0.7308(3)
C7 C 0.2678(3) 0.30869(18) 0.7977(3)
H2 H 0.2836 0.3013 0.8647
C8 C 0.2228(3) 0.21654(19) 0.5835(3)
C9 C 0.2616(3) 0.19976(19) 0.7477(3)
C10 C 0.2391(3) 0.11216(19) 0.6375(3)
C11 C 0.3260(3) 0.0834(2) 0.6269(3)
C12 C 0.3239(4) 0.0231(2) 0.6152(3)
H3 H 0.3824 0.0023 0.6091
C13 C 0.2377(4) -0.0074(2) 0.6123(3)
H4 H 0.2373 -0.0488 0.6060
C14 C 0.1525(3) 0.0228(2) 0.6185(3)
H5 H 0.0937 0.0018 0.6145
C15 C 0.1506(3) 0.0832(2) 0.6304(3)
C16 C 0.4216(3) 0.1154(2) 0.6286(3)
H6 H 0.4077 0.1583 0.6309
C17 C 0.4848(3) 0.1003(2) 0.7189(4)
H7 H 0.4483 0.1060 0.7777
H8 H 0.5414 0.1258 0.7219
H9 H 0.5054 0.0594 0.7152
C18 C 0.4750(4) 0.1036(2) 0.5349(4)
H10 H 0.4894 0.0617 0.5304
H11 H 0.5350 0.1259 0.5367
H12 H 0.4346 0.1155 0.4780
C19 C 0.0559(3) 0.1148(2) 0.6362(4)
H13 H 0.0686 0.1577 0.6310
C20 C -0.0138(4) 0.0977(3) 0.5522(4)
H14 H 0.0174 0.1028 0.4900
H15 H -0.0709 0.1226 0.5530
H16 H -0.0326 0.0567 0.5594
C21 C 0.0107(4) 0.1037(2) 0.7340(4)
H17 H -0.0022 0.0618 0.7410
H18 H -0.0496 0.1256 0.7364
H19 H 0.0550 0.1166 0.7873
C22 C 0.2532(3) 0.53659(19) 0.7605(3)
C23 C 0.2633(3) 0.64023(18) 0.8399(3)
C24 C 0.2487(3) 0.64961(18) 0.7382(3)
C25 C 0.2381(3) 0.70559(18) 0.6999(3)
H20 H 0.2253 0.7121 0.6321
C26 C 0.2470(3) 0.75141(19) 0.7653(3)
C27 C 0.2643(3) 0.74229(19) 0.8652(3)
C28 C 0.2722(3) 0.68677(19) 0.9046(3)
H21 H 0.2831 0.6808 0.9728
C29 C 0.2412(3) 0.81478(19) 0.7462(3)
C30 C 0.2734(3) 0.80081(19) 0.9116(3)
C31 C 0.2579(3) 0.90437(19) 0.8528(3)
C32 C 0.3461(3) 0.9332(2) 0.8589(3)
C33 C 0.3444(3) 0.9940(2) 0.8700(3)
H22 H 0.4031 1.0152 0.8736
C34 C 0.2587(3) 1.0234(2) 0.8757(3)
H23 H 0.2587 1.0648 0.8817
C35 C 0.1733(3) 0.9935(2) 0.8728(3)
H24 H 0.1151 1.0146 0.8780
C36 C 0.1699(3) 0.93292(19) 0.8624(3)
C37 C 0.4413(3) 0.9012(2) 0.8532(4)
H25 H 0.4280 0.8584 0.8595
C38 C 0.5108(4) 0.9182(2) 0.9375(4)
H26 H 0.5316 0.9588 0.9291
H27 H 0.5669 0.8924 0.9383
H28 H 0.4787 0.9145 0.9994
C39 C 0.4854(4) 0.9108(3) 0.7547(4)
H29 H 0.4395 0.8986 0.7023
H30 H 0.5442 0.8875 0.7515
H31 H 0.5007 0.9523 0.7469
C40 C 0.0754(3) 0.9003(2) 0.8609(3)
H32 H 0.0898 0.8575 0.8601
C41 C 0.0141(4) 0.9147(2) 0.7692(4)
H33 H -0.0042 0.9561 0.7703
H34 H -0.0439 0.8904 0.7671
H35 H 0.0508 0.9069 0.7113
C42 C 0.0217(4) 0.9136(2) 0.9534(4)
H36 H 0.0643 0.9067 1.0111
H37 H -0.0345 0.8880 0.9560
H38 H 0.0008 0.9545 0.9524
N1 N 0.2403(3) 0.17426(15) 0.6552(3)
N2 N 0.2575(3) 0.84193(15) 0.8374(3)
O1 O 0.2005(2) 0.20602(14) 0.4989(2)
O2 O 0.2797(2) 0.17344(13) 0.8221(2)
O3 O 0.2244(2) 0.83993(13) 0.6697(2)
O4 O 0.2923(2) 0.81307(14) 0.9961(2)
S1 S 0.25925(8) 0.42666(5) 0.83878(8)
S2 S 0.23043(8) 0.44978(5) 0.62625(8)
S3 S 0.26994(8) 0.56702(5) 0.87761(8)
S4 S 0.24465(8) 0.58740(5) 0.66376(8)
C43 C 0.4954(4) 0.2913(2) 0.4125(4)
H39 H 0.4397 0.3165 0.3940
H40 H 0.5529 0.3166 0.4187
Cl1 Cl 0.47614(12) 0.25836(7) 0.52727(15)
Cl2 Cl 0.51118(12) 0.24010(9) 0.31936(18)
C44 C 0.0016(4) 0.7142(3) 0.1179(4)
H41 H 0.0543 0.6852 0.1178
H42 H -0.0589 0.6937 0.0986
Cl3 Cl -0.00702(10) 0.74300(7) 0.23776(14)
Cl4 Cl 0.02316(14) 0.76943(10) 0.03188(18)
loop_
_geom_bond_atom_site_label_1
_geom_bond_atom_site_label_2
_geom_bond_site_symmetry_1
_geom_bond_site_symmetry_2
C1 C22 1_555 1_555
C2 C3 1_555 1_555
C3 C4 1_555 1_555
C4 H1 1_555 1_555
C5 C4 1_555 1_555
C6 C5 1_555 1_555
C7 C2 1_555 1_555
H2 C7 1_555 1_555
C8 C5 1_555 1_555
C9 C6 1_555 1_555
C10 C11 1_555 1_555
C11 C12 1_555 1_555
C12 H3 1_555 1_555
C13 C12 1_555 1_555
H4 C13 1_555 1_555
C14 C13 1_555 1_555
H5 C14 1_555 1_555
C15 C10 1_555 1_555
C16 C11 1_555 1_555
H6 C16 1_555 1_555
C17 C16 1_555 1_555
H7 C17 1_555 1_555
H8 C17 1_555 1_555
H9 C17 1_555 1_555
C18 C16 1_555 1_555
H10 C18 1_555 1_555
H11 C18 1_555 1_555
H12 C18 1_555 1_555
C19 C15 1_555 1_555
H13 C19 1_555 1_555
C20 C19 1_555 1_555
H14 C20 1_555 1_555
H15 C20 1_555 1_555
H16 C20 1_555 1_555
C21 C19 1_555 1_555
H17 C21 1_555 1_555
H18 C21 1_555 1_555
H19 C21 1_555 1_555
C22 S3 1_555 1_555
C23 C24 1_555 1_555
C24 C25 1_555 1_555
C25 H20 1_555 1_555
C26 C25 1_555 1_555
C27 C26 1_555 1_555
C28 C23 1_555 1_555
H21 C28 1_555 1_555
C29 C26 1_555 1_555
C30 C27 1_555 1_555
C31 C32 1_555 1_555
C32 C33 1_555 1_555
C33 H22 1_555 1_555
C34 C33 1_555 1_555
H23 C34 1_555 1_555
C35 C34 1_555 1_555
H24 C35 1_555 1_555
C36 C31 1_555 1_555
C37 C32 1_555 1_555
H25 C37 1_555 1_555
C38 C37 1_555 1_555
H26 C38 1_555 1_555
H27 C38 1_555 1_555
H28 C38 1_555 1_555
C39 C37 1_555 1_555
H29 C39 1_555 1_555
H30 C39 1_555 1_555
H31 C39 1_555 1_555
C40 C36 1_555 1_555
H32 C40 1_555 1_555
C41 C40 1_555 1_555
H33 C41 1_555 1_555
H34 C41 1_555 1_555
H35 C41 1_555 1_555
C42 C40 1_555 1_555
H36 C42 1_555 1_555
H37 C42 1_555 1_555
H38 C42 1_555 1_555
N1 C8 1_555 1_555
N2 C29 1_555 1_555
O1 C8 1_555 1_555
O2 C9 1_555 1_555
O3 C29 1_555 1_555
O4 C30 1_555 1_555
S1 C1 1_555 1_555
S2 C1 1_555 1_555
S3 C23 1_555 1_555
S4 C22 1_555 1_555
C43 H39 1_555 1_555
H40 C43 1_555 1_555
Cl1 C43 1_555 1_555
Cl2 C43 1_555 1_555
C44 H41 1_555 1_555
H42 C44 1_555 1_555
Cl3 C44 1_555 1_555
Cl4 C44 1_555 1_555
C2 S1 1_555 1_555
C3 S2 1_555 1_555
C6 C7 1_555 1_555
C9 N1 1_555 1_555
C10 N1 1_555 1_555
C14 C15 1_555 1_555
C24 S4 1_555 1_555
C27 C28 1_555 1_555
C30 N2 1_555 1_555
C31 N2 1_555 1_555
C35 C36 1_555 1_555

#END
