
#######################################################################
#
#                 Cambridge Crystallographic Data Centre
#                                CCDC 
#
#######################################################################
#
# If this CIF has been generated from an entry in the Cambridge 
# Structural Database, then it will include bibliographic, chemical, 
# crystal, experimental, refinement or atomic coordinate data resulting 
# from the CCDC's data processing and validation procedures.
#
#######################################################################

data_TENLED
_chemical_name_common            
"C-pentyl-5,11,17,23-tetrahydroxy-6,10:12,16:18,22:24,4-O,O'-tetrakis(ethylene)calix[4]resorcinarene acetone clathrate dihydrate"
_chemical_formula_moiety         'C56 H72 O12,C3 H6 O1,2(H2 O1)'
_chemical_name_systematic        
"8,13,18,32-Tetrahydroxy-5,6,10,11,15,16,20,21-octahydro-1,25,27,29-tetrapentyl-2,24:3,23-dimetheno-1H,25H,27H,29H-bis(1,4)-dioxonino(6,5-j:6',5'-j')benzo(1,2-e:5,4-e')-bis(1,4)benzodioxinine acetone clathrate dihydrate"
_symmetry_cell_setting           monoclinic
_symmetry_space_group_name_H-M   'P 21/n'
_symmetry_Int_Tables_number      14
_space_group_name_Hall           '-P 2yn'
loop_
_symmetry_equiv_pos_site_id
_symmetry_equiv_pos_as_xyz
1 x,y,z
2 1/2-x,1/2+y,1/2-z
3 -x,-y,-z
4 1/2+x,1/2-y,1/2+z
_cell_length_a                   16.24(1)
_cell_length_b                   22.81(2)
_cell_length_c                   17.58(1)
_cell_angle_alpha                90
_cell_angle_beta                 101.36(2)
_cell_angle_gamma                90
_cell_volume                     6384.66
_exptl_crystal_colour            yellow
_chemical_melting_point          '282-284 deg.C'
_cell_formula_units_Z            4
loop_
_atom_site_label
_atom_site_type_symbol
_atom_site_fract_x
_atom_site_fract_y
_atom_site_fract_z
O1 O 0.6236(4) 0.2478(4) 1.0182(4)
O2 O 0.7899(4) 0.2244(3) 1.0387(4)
O3 O 0.8901(4) 0.1641(3) 0.9466(4)
O4 O 0.9173(5) 0.1045(3) 0.8170(4)
O5 O 0.9751(4) 0.1643(3) 0.6997(4)
O6 O 0.9671(4) 0.2249(3) 0.5548(4)
O7 O 0.8388(5) 0.2544(4) 0.4351(4)
O8 O 0.7323(4) 0.3477(3) 0.4466(4)
O9 O 0.5896(4) 0.3632(3) 0.5223(4)
O10 O 0.4697(4) 0.3435(4) 0.6102(4)
O11 O 0.4982(4) 0.3689(4) 0.7637(4)
O12 O 0.5522(4) 0.3418(3) 0.9270(4)
C1 C 0.9526(6) 0.3437(4) 0.9819(5)
C2 C 0.9402(7) 0.3710(5) 1.0571(6)
C3 C 0.9919(7) 0.4293(5) 1.0752(6)
C4 C 0.9818(8) 0.4575(6) 1.1517(7)
C5 C 1.0337(11) 0.5114(6) 1.1683(9)
C6 C 0.7043(7) 0.4695(5) 0.8702(6)
C7 C 0.7077(8) 0.4881(5) 0.9535(7)
C8 C 0.7637(9) 0.5426(7) 0.9757(8)
C9 C 0.7584(11) 0.5689(8) 1.0536(9)
C10 C 0.8094(14) 0.6260(9) 1.0670(11)
C11 C 0.7991(7) 0.4709(5) 0.6163(6)
C12 C 0.8575(8) 0.4947(6) 0.5627(7)
C13 C 0.9096(9) 0.5491(6) 0.6011(9)
C14 C 0.9632(11) 0.5723(8) 0.5559(10)
C15 C 1.0115(12) 0.6254(8) 0.5935(11)
C16 C 1.0533(6) 0.3409(5) 0.7267(6)
C17 C 1.0937(8) 0.3666(7) 0.6639(7)
C18 C 1.1480(16) 0.4194(12) 0.6907(14)
C19 C 1.1681(34) 0.4635(15) 0.6352(20)
C20 C 1.1834(25) 0.5116(18) 0.6946(23)
C21 C 0.7728(3) 0.3471(3) 0.9014(3)
C22 C 0.8067(3) 0.3005(3) 0.9487(3)
C23 C 0.7553(3) 0.2671(3) 0.9868(3)
C24 C 0.6700(3) 0.2803(3) 0.9776(3)
C25 C 0.6362(3) 0.3269(3) 0.9302(3)
C26 C 0.6875(3) 0.3603(3) 0.8921(3)
H1 H 0.813 0.373 0.872
C27 C 0.7742(7) 0.1655(5) 1.0123(6)
H2 H 0.808 0.136 1.056
H3 H 0.708 0.157 1.006
C28 C 0.7996(7) 0.1534(5) 0.9370(6)
H4 H 0.766 0.182 0.893
H5 H 0.786 0.108 0.920
C29 C 0.9486(4) 0.2861(2) 0.8299(4)
C30 C 0.9654(4) 0.2557(2) 0.7657(4)
C31 C 0.9556(4) 0.1949(2) 0.7613(4)
C32 C 0.9290(4) 0.1646(2) 0.8210(4)
C33 C 0.9122(4) 0.1950(2) 0.8851(4)
C34 C 0.9220(4) 0.2557(2) 0.8895(4)
H6 H 0.956 0.333 0.833
C35 C 0.9040(7) 0.1560(5) 0.6359(6)
H7 H 0.880 0.112 0.637
H8 H 0.855 0.187 0.641
C36 C 0.9341(7) 0.1661(5) 0.5608(6)
H9 H 0.882 0.159 0.513
H10 H 0.983 0.135 0.557
C37 C 0.8701(4) 0.3489(3) 0.6410(3)
C38 C 0.8053(4) 0.3637(3) 0.5793(3)
C39 C 0.7937(4) 0.3316(3) 0.5104(3)
C40 C 0.8470(4) 0.2849(3) 0.5032(3)
C41 C 0.9118(4) 0.2701(3) 0.5648(3)
C42 C 0.9234(4) 0.3022(3) 0.6337(3)
H11 H 0.879 0.374 0.694
C43 C 0.6572(7) 0.3095(5) 0.4352(6)
H12 H 0.675 0.266 0.421
H13 H 0.611 0.327 0.388
C44 C 0.6176(7) 0.3051(5) 0.5038(6)
H14 H 0.663 0.289 0.552
H15 H 0.565 0.276 0.491
C45 C 0.6990(3) 0.4140(3) 0.7155(3)
C46 C 0.6374(3) 0.4028(3) 0.7587(3)
C47 C 0.5605(3) 0.3787(3) 0.7229(3)
C48 C 0.5453(3) 0.3658(3) 0.6438(3)
C49 C 0.6069(3) 0.3770(3) 0.6005(3)
C50 C 0.6838(3) 0.4011(3) 0.6364(3)
H16 H 0.759 0.433 0.743
C51 C 0.5046(8) 0.3060(6) 0.7956(7)
H17 H 0.566 0.288 0.793
H18 H 0.456 0.279 0.762
C52 C 0.4938(9) 0.3078(6) 0.8751(8)
H19 H 0.497 0.263 0.897
H20 H 0.432 0.326 0.875
C53 C 0.9001(6) 0.2877(4) 0.9609(5)
H21 H 0.916 0.258 1.010
H22 H 0.935 0.375 0.936
H23 H 1.018 0.333 0.987
H24 H 0.874 0.380 1.053
H25 H 0.961 0.340 1.104
H26 H 0.971 0.460 1.029
H27 H 1.058 0.420 1.078
H28 H 1.001 0.427 1.198
H29 H 0.917 0.469 1.148
H30 H 1.023 0.533 1.220
H31 H 1.004 0.536 1.118
H32 H 1.100 0.509 1.170
C54 C 0.6509(6) 0.4147(4) 0.8464(5)
H33 H 0.590 0.423 0.861
H34 H 0.678 0.505 0.833
H35 H 0.767 0.461 0.863
H36 H 0.645 0.498 0.961
H37 H 0.733 0.452 0.991
H38 H 0.745 0.576 0.932
H39 H 0.828 0.530 0.977
H40 H 0.693 0.578 1.055
H41 H 0.783 0.538 1.099
H42 H 0.796 0.641 1.121
H43 H 0.790 0.659 1.023
H44 H 0.876 0.618 1.074
C55 C 0.7483(6) 0.4150(4) 0.5867(6)
H45 H 0.713 0.424 0.529
H46 H 0.755 0.505 0.623
H47 H 0.838 0.461 0.672
H48 H 0.900 0.460 0.553
H49 H 0.819 0.508 0.508
H50 H 0.947 0.535 0.656
H51 H 0.866 0.583 0.611
H52 H 1.008 0.539 0.547
H53 H 0.926 0.585 0.501
H54 H 1.068 0.649 0.588
H55 H 1.028 0.582 0.614
H56 H 0.980 0.648 0.634
C56 C 0.9965(6) 0.2861(4) 0.6995(5)
H57 H 1.036 0.255 0.678
H58 H 1.102 0.328 0.775
H59 H 1.015 0.375 0.745
H60 H 1.126 0.332 0.640
H61 H 1.046 0.385 0.619
H62 H 1.207 0.403 0.721
H63 H 1.117 0.443 0.730
H64 H 1.223 0.452 0.612
H65 H 1.116 0.472 0.588
H66 H 1.200 0.551 0.668
H67 H 1.234 0.499 0.741
H68 H 1.127 0.519 0.717
H69 H 0.563 0.255 1.016
H70 H 0.975 0.101 0.785
H71 H 0.465 0.338 0.557
O13 O 0.7540(19) 0.2838(11) 0.2947(9)
C57 C 0.7484(15) 0.3068(11) 0.2440(15)
C58 C 0.6921(23) 0.3420(16) 0.1771(20)
H72 H 0.627 0.344 0.183
H73 H 0.699 0.311 0.132
H74 H 0.712 0.385 0.162
C59 C 0.8287(24) 0.3124(17) 0.2145(23)
H75 H 0.826 0.319 0.153
H76 H 0.853 0.269 0.231
H77 H 0.869 0.345 0.247
O14 O 0.9751(19) 0.0183(7) 0.9557(9)
H78 H 0.917 0.039 0.938
H79 H 0.944 0.007 0.997
O15 O 1.0022(15) 0.0277(7) 0.7104(11)
O16 O 0.6808(10) 0.1884(7) 0.6227(11)
C60 C 0.6842(15) 0.1926(11) 0.7023(16)
C61 C 0.7204(9) 0.2474(7) 0.7269(8)
H80 H 0.713 0.249 0.787
H81 H 0.702 0.289 0.700
H82 H 0.785 0.238 0.725
C62 C 0.6984(13) 0.1309(10) 0.7259(11)
H83 H 0.703 0.127 0.788
H84 H 0.756 0.116 0.711
H85 H 0.647 0.104 0.696
C63? C 1.2283(17) 0.4534(17) 0.7073(75)
C64? C 0.6341(29) 0.1719(21) 0.7576(26)
loop_
_geom_bond_atom_site_label_1
_geom_bond_atom_site_label_2
_geom_bond_site_symmetry_1
_geom_bond_site_symmetry_2
O1 C24 1_555 1_555
O2 C23 1_555 1_555
O3 C28 1_555 1_555
O4 C32 1_555 1_555
O5 C31 1_555 1_555
O6 C36 1_555 1_555
O7 C40 1_555 1_555
O8 C39 1_555 1_555
O9 C44 1_555 1_555
O10 C48 1_555 1_555
O11 C47 1_555 1_555
O12 C25 1_555 1_555
C1 C2 1_555 1_555
C2 C3 1_555 1_555
C3 C4 1_555 1_555
C4 C5 1_555 1_555
C5 H30 1_555 1_555
C6 C7 1_555 1_555
C7 C8 1_555 1_555
C8 C9 1_555 1_555
C9 C10 1_555 1_555
C10 H42 1_555 1_555
C11 C12 1_555 1_555
C12 C13 1_555 1_555
C13 C14 1_555 1_555
C14 C15 1_555 1_555
C15 H54 1_555 1_555
C16 C17 1_555 1_555
C17 C18 1_555 1_555
C18 C19 1_555 1_555
C19 C20 1_555 1_555
C20 H66 1_555 1_555
C21 C22 1_555 1_555
C22 C23 1_555 1_555
C23 C24 1_555 1_555
C24 C25 1_555 1_555
C25 C26 1_555 1_555
C26 C21 1_555 1_555
H1 C21 1_555 1_555
C27 O2 1_555 1_555
H2 C27 1_555 1_555
H3 C27 1_555 1_555
C28 C27 1_555 1_555
H4 C28 1_555 1_555
H5 C28 1_555 1_555
C29 C30 1_555 1_555
C30 C31 1_555 1_555
C31 C32 1_555 1_555
C32 C33 1_555 1_555
C33 O3 1_555 1_555
C34 C29 1_555 1_555
H6 C29 1_555 1_555
C35 O5 1_555 1_555
H7 C35 1_555 1_555
H8 C35 1_555 1_555
C36 C35 1_555 1_555
H9 C36 1_555 1_555
H10 C36 1_555 1_555
C37 C38 1_555 1_555
C38 C39 1_555 1_555
C39 C40 1_555 1_555
C40 C41 1_555 1_555
C41 O6 1_555 1_555
C42 C37 1_555 1_555
H11 C37 1_555 1_555
C43 O8 1_555 1_555
H12 C43 1_555 1_555
H13 C43 1_555 1_555
C44 C43 1_555 1_555
H14 C44 1_555 1_555
H15 C44 1_555 1_555
C45 C46 1_555 1_555
C46 C47 1_555 1_555
C47 C48 1_555 1_555
C48 C49 1_555 1_555
C49 O9 1_555 1_555
C50 C45 1_555 1_555
H16 C45 1_555 1_555
C51 O11 1_555 1_555
H17 C51 1_555 1_555
H18 C51 1_555 1_555
C52 O12 1_555 1_555
H19 C52 1_555 1_555
H20 C52 1_555 1_555
C53 C1 1_555 1_555
H21 C53 1_555 1_555
H22 C1 1_555 1_555
H23 C1 1_555 1_555
H24 C2 1_555 1_555
H25 C2 1_555 1_555
H26 C3 1_555 1_555
H27 C3 1_555 1_555
H28 C4 1_555 1_555
H29 C4 1_555 1_555
H31 C5 1_555 1_555
H32 C5 1_555 1_555
C54 C6 1_555 1_555
H33 C54 1_555 1_555
H34 C6 1_555 1_555
H35 C6 1_555 1_555
H36 C7 1_555 1_555
H37 C7 1_555 1_555
H38 C8 1_555 1_555
H39 C8 1_555 1_555
H40 C9 1_555 1_555
H41 C9 1_555 1_555
H43 C10 1_555 1_555
H44 C10 1_555 1_555
C55 C11 1_555 1_555
H45 C55 1_555 1_555
H46 C11 1_555 1_555
H47 C11 1_555 1_555
H48 C12 1_555 1_555
H49 C12 1_555 1_555
H50 C13 1_555 1_555
H51 C13 1_555 1_555
H52 C14 1_555 1_555
H53 C14 1_555 1_555
H55 C15 1_555 1_555
H56 C15 1_555 1_555
C56 C16 1_555 1_555
H57 C56 1_555 1_555
H58 C16 1_555 1_555
H59 C16 1_555 1_555
H60 C17 1_555 1_555
H61 C17 1_555 1_555
H62 C18 1_555 1_555
H63 C18 1_555 1_555
H64 C19 1_555 1_555
H65 C19 1_555 1_555
H67 C20 1_555 1_555
H68 C20 1_555 1_555
H69 O1 1_555 1_555
H70 O4 1_555 1_555
H71 O10 1_555 1_555
O13 C57 1_555 1_555
C57 C58 1_555 1_555
C58 H72 1_555 1_555
H73 C58 1_555 1_555
H74 C58 1_555 1_555
C59 C57 1_555 1_555
H75 C59 1_555 1_555
H76 C59 1_555 1_555
H77 C59 1_555 1_555
O14 H78 1_555 1_555
H79 O14 1_555 1_555
O16 C60 1_555 1_555
C60 C61 1_555 1_555
C61 H80 1_555 1_555
H81 C61 1_555 1_555
H82 C61 1_555 1_555
C62 C60 1_555 1_555
H83 C62 1_555 1_555
H84 C62 1_555 1_555
H85 C62 1_555 1_555
C22 C53 1_555 1_555
C26 C54 1_555 1_555
C30 C56 1_555 1_555
C33 C34 1_555 1_555
C34 C53 1_555 1_555
C38 C55 1_555 1_555
C41 C42 1_555 1_555
C42 C56 1_555 1_555
C46 C54 1_555 1_555
C49 C50 1_555 1_555
C50 C55 1_555 1_555
C51 C52 1_555 1_555

#END
