
#######################################################################
#
#                 Cambridge Crystallographic Data Centre
#                                CCDC 
#
#######################################################################
#
# If this CIF has been generated from an entry in the Cambridge 
# Structural Database, then it will include bibliographic, chemical, 
# crystal, experimental, refinement or atomic coordinate data resulting 
# from the CCDC's data processing and validation procedures.
#
#######################################################################

data_TENLUT
_chemical_name_common            
"5,5':11,11':17,17':23,23'-tetrakis(propane-1,3-dioxy)-bis(6,10:12,16:18,22:24,4-O,O'-tetrakis(methylene)-2,8,14,20-tetrakis(phenylethyl)calix[4]resorcinarene) N,N-dimethylacetamide clathrate chloroform solvate nitrobenzene solvate"
_chemical_formula_moiety         'C140 H128 O24,C4 H9 N1 O1,8(C1 H1 Cl3)'
_chemical_name_systematic        
"33,45-(Epoxypropanoxy)-9,10,39,40-tetrahydro-1,17,25,27,51,53,61,76-octakis(2-phenylethyl)-19,23:55,59-dimethano-2,50:16,28-dimetheno-3,49,15,29-(methynoxypropanoxymethyno)-1H,8H,17H,25H,27H,38H,51H,53H-bis(1,3)benzodioxocino(9,8-d:9',8'-d')-bis(1,3)benzodioxocino(9',10':16,17;10'',9'':23,24)(1,3,6 10,13,15,18,22)octaoxacyclotetracosino(4,5-j:12,11-j')-bis(1,3)benzodioxocine N,N-dimethylacetamide clathrate chloroform solvate nitrobenzene solvate"
_symmetry_cell_setting           triclinic
_symmetry_space_group_name_H-M   'P -1'
_symmetry_Int_Tables_number      2
_space_group_name_Hall           '-P 1'
loop_
_symmetry_equiv_pos_site_id
_symmetry_equiv_pos_as_xyz
1 x,y,z
2 -x,-y,-z
_cell_length_a                   16.457(7)
_cell_length_b                   19.459(2)
_cell_length_c                   12.457(4)
_cell_angle_alpha                93.712(16)
_cell_angle_beta                 96.47(3)
_cell_angle_gamma                102.008(17)
_cell_volume                     3861.06
_exptl_crystal_colour            colorless
_cell_formula_units_Z            1
loop_
_atom_site_label
_atom_site_type_symbol
_atom_site_fract_x
_atom_site_fract_y
_atom_site_fract_z
O1 O 0.7039(10) -0.0206(7) 0.7873(13)
C2 C 0.7549(19) 0.0080(15) 0.8738(24)
H1 H 0.742 -0.028 0.935
H2 H 0.818 0.011 0.856
C3 C 0.7505(13) 0.0746(10) 0.9229(16)
H3 H 0.768 0.071 1.008
H4 H 0.800 0.109 0.891
C4 C 0.6863(17) 0.1122(13) 0.9217(21)
H5 H 0.717 0.167 0.931
H6 H 0.654 0.099 0.991
O2 O 0.6278(8) 0.1025(6) 0.8375(9)
C5 C 0.4616(5) 0.2336(4) 0.7912(7)
C6 C 0.4402(5) 0.1737(4) 0.8467(7)
C7 C 0.4978(5) 0.1317(4) 0.8679(7)
C8 C 0.5768(5) 0.1488(4) 0.8336(7)
C9 C 0.5981(5) 0.2087(4) 0.7782(7)
C10 C 0.5405(5) 0.2511(4) 0.7569(7)
H7 H 0.417 0.266 0.775
O3 O 0.4805(6) 0.0741(5) 0.9270(8)
C11 C 0.4362(10) 0.0098(8) 0.8639(13)
H8 H 0.458 -0.034 0.896
H9 H 0.449 0.013 0.781
O4 O 0.3492(7) -0.0002(5) 0.8641(8)
C12 C 0.2532(6) 0.1200(3) 0.6982(7)
C13 C 0.2111(6) 0.0722(3) 0.6114(7)
C14 C 0.2187(6) 0.0020(3) 0.6077(7)
C15 C 0.2684(6) -0.0204(3) 0.6908(7)
C16 C 0.3105(6) 0.0274(3) 0.7775(7)
C17 C 0.3029(6) 0.0976(3) 0.7813(7)
H10 H 0.247 0.174 0.701
O5 O 0.2831(7) -0.0881(5) 0.6811(8)
C18 C 0.2322(16) -0.1373(12) 0.7222(20)
H11 H 0.221 -0.112 0.797
H12 H 0.174 -0.153 0.668
C19 C 0.2600(16) -0.1975(11) 0.7512(18)
H13 H 0.299 -0.185 0.828
H14 H 0.202 -0.233 0.761
C20 C 0.3068(15) -0.2381(12) 0.6861(19)
H15 H 0.263 -0.267 0.619
H16 H 0.331 -0.275 0.735
O6 O 0.3656(8) -0.1990(6) 0.6410(9)
O7 O 0.1716(6) -0.0491(5) 0.5281(8)
C21 C 0.2073(11) -0.0530(8) 0.4298(12)
H17 H 0.275 -0.037 0.447
H18 H 0.190 -0.107 0.394
O8 O 0.1757(7) -0.0095(5) 0.3571(8)
C22 C 0.7425(6) -0.1819(4) 0.5759(7)
C23 C 0.6903(6) -0.1965(4) 0.6561(7)
C24 C 0.6833(6) -0.1426(4) 0.7317(7)
C25 C 0.7286(6) -0.0741(4) 0.7271(7)
C26 C 0.2192(6) 0.0594(4) 0.3531(7)
C27 C 0.7878(6) -0.1133(4) 0.5713(7)
H19 H 0.748 -0.224 0.517
O9 O 0.6378(7) -0.1564(5) 0.8172(8)
C28 C 0.5520(11) -0.1595(8) 0.7953(14)
H20 H 0.530 -0.139 0.867
H21 H 0.543 -0.126 0.730
O10 O 0.5049(7) -0.2248(5) 0.7609(8)
C29 C 0.5312(5) -0.2922(4) 0.4874(7)
C30 C 0.4549(5) -0.2879(4) 0.4300(7)
C31 C 0.3969(5) -0.2600(4) 0.4826(7)
C32 C 0.4151(5) -0.2365(4) 0.5926(7)
C33 C 0.4915(5) -0.2408(4) 0.6500(7)
C34 C 0.5495(5) -0.2687(4) 0.5974(7)
H22 H 0.576 -0.314 0.447
O11 O 0.3206(7) -0.2576(5) 0.4296(8)
C35 C 0.3164(10) -0.2025(7) 0.3623(12)
H23 H 0.366 -0.157 0.391
H24 H 0.256 -0.189 0.365
O12 O 0.6776(6) 0.2254(5) 0.7459(8)
C36 C 0.5650(10) 0.3140(7) 0.6884(11)
H25 H 0.632 0.335 0.706
C37 C 0.5333(10) 0.3804(7) 0.7197(11)
H26 H 0.549 0.419 0.662
H27 H 0.466 0.366 0.717
C38 C 0.5699(11) 0.4147(7) 0.8328(12)
H28 H 0.637 0.419 0.841
H29 H 0.543 0.380 0.891
C39 C 0.6211(6) 0.5347(5) 0.9202(9)
C40 C 0.6119(6) 0.6033(5) 0.9452(9)
C41 C 0.5364(6) 0.6222(5) 0.9117(9)
C42 C 0.4701(6) 0.5725(5) 0.8533(9)
C43 C 0.4794(6) 0.5038(5) 0.8283(9)
C44 C 0.5549(6) 0.4849(5) 0.8617(9)
H30 H 0.680 0.520 0.946
H31 H 0.663 0.642 0.990
H32 H 0.529 0.675 0.931
H33 H 0.412 0.587 0.827
H34 H 0.428 0.465 0.783
C45 C 0.6341(9) -0.2688(7) 0.6608(12)
H35 H 0.624 -0.279 0.743
C46 C 0.6734(9) -0.3298(6) 0.6209(11)
H36 H 0.676 -0.328 0.535
H37 H 0.736 -0.322 0.663
C47 C 0.6228(11) -0.4014(7) 0.6360(14)
H38 H 0.627 -0.404 0.723
H39 H 0.558 -0.405 0.603
C48 C 0.6178(7) -0.4970(6) 0.4902(9)
C49 C 0.6493(7) -0.5528(6) 0.4477(9)
C50 C 0.7145(7) -0.5749(6) 0.5076(9)
C51 C 0.7483(7) -0.5412(6) 0.6100(9)
C52 C 0.7169(7) -0.4854(6) 0.6525(9)
C53 C 0.6516(7) -0.4633(6) 0.5926(9)
H40 H 0.567 -0.480 0.444
H41 H 0.623 -0.579 0.368
H42 H 0.739 -0.618 0.475
H43 H 0.799 -0.558 0.656
H44 H 0.743 -0.459 0.732
C54 C 0.1566(10) 0.0939(8) 0.5164(12)
H45 H 0.105 0.049 0.489
C55 C 0.1123(10) 0.1533(8) 0.5452(13)
H46 H 0.156 0.195 0.597
H47 H 0.090 0.174 0.472
C56 C 0.0378(12) 0.1222(9) 0.6044(15)
H48 H 0.061 0.101 0.677
H49 H -0.005 0.081 0.552
C57 C -0.0382(10) 0.2179(8) 0.5583(10)
C58 C -0.0836(10) 0.2680(8) 0.5862(10)
C59 C -0.1001(10) 0.2779(8) 0.6928(10)
C60 C -0.0712(10) 0.2378(8) 0.7716(10)
C61 C -0.0258(10) 0.1877(8) 0.7437(10)
C62 C -0.0093(10) 0.1778(8) 0.6370(10)
H50 H -0.025 0.210 0.476
H51 H -0.106 0.299 0.525
H52 H -0.135 0.317 0.714
H53 H -0.084 0.246 0.854
H54 H -0.003 0.157 0.805
C63 C 0.3529(9) 0.1484(7) 0.8767(12)
H55 H 0.358 0.122 0.950
C64 C 0.3104(9) 0.2095(7) 0.9116(12)
H56 H 0.299 0.238 0.842
H57 H 0.352 0.245 0.975
C65 C 0.2275(10) 0.1826(7) 0.9534(13)
H58 H 0.238 0.152 1.020
H59 H 0.185 0.150 0.889
C66 C 0.1522(9) 0.2779(7) 0.9133(8)
C67 C 0.1193(9) 0.3348(7) 0.9480(8)
C68 C 0.1212(9) 0.3528(7) 1.0587(8)
C69 C 0.1560(9) 0.3139(7) 1.1345(8)
C70 C 0.1890(9) 0.2570(7) 1.0998(8)
C71 C 0.1870(9) 0.2390(7) 0.9892(8)
H60 H 0.151 0.264 0.828
H61 H 0.092 0.365 0.889
H62 H 0.096 0.397 1.086
H63 H 0.158 0.328 1.220
H64 H 0.216 0.227 1.159
C35A C 0.6836(10) 0.2025(7) 0.6377(12)
O11A O 0.6794(7) 0.2576(5) 0.5704(8)
C31A C 0.6031(5) 0.2600(4) 0.5174(7)
C30A C 0.5451(5) 0.2879(4) 0.5700(7)
C29A C 0.4688(5) 0.2922(4) 0.5126(7)
C34A C 0.4505(5) 0.2687(4) 0.4026(7)
C33A C 0.5085(5) 0.2408(4) 0.3500(7)
O10A O 0.4951(7) 0.2248(5) 0.2391(8)
C28A C 0.4480(11) 0.1595(8) 0.2047(14)
O9A O 0.3622(7) 0.1564(5) 0.1828(8)
C24A C 0.3167(6) 0.1426(4) 0.2683(7)
C23A C 0.3097(6) 0.1965(4) 0.3439(7)
C22A C 0.2575(6) 0.1819(4) 0.4241(7)
C27A C 0.2122(6) 0.1133(4) 0.4287(7)
C26A C 0.7808(6) -0.0594(4) 0.6469(7)
O8A O 0.8243(7) 0.0095(5) 0.6429(8)
C21A C 0.7927(11) 0.0530(8) 0.5702(12)
O7A O 0.8284(6) 0.0491(5) 0.4719(8)
C14A C 0.7813(6) -0.0020(3) 0.3923(7)
C13A C 0.7889(6) -0.0722(3) 0.3886(7)
C12A C 0.7468(6) -0.1200(3) 0.3018(7)
C17A C 0.6971(6) -0.0976(3) 0.2187(7)
C16A C 0.6895(6) -0.0274(3) 0.2225(7)
O4A O 0.6508(7) 0.0002(5) 0.1359(8)
C11A C 0.5638(10) -0.0098(8) 0.1361(13)
O3A O 0.5195(6) -0.0741(5) 0.0730(8)
C7A C 0.5022(5) -0.1317(4) 0.1321(7)
C6A C 0.5598(5) -0.1737(4) 0.1533(7)
C5A C 0.5384(5) -0.2336(4) 0.2088(7)
C10A C 0.4595(5) -0.2511(4) 0.2431(7)
C9A C 0.4019(5) -0.2087(4) 0.2218(7)
C8A C 0.4232(5) -0.1488(4) 0.1664(7)
O2A O 0.3722(8) -0.1025(6) 0.1625(9)
C4A C 0.3137(17) -0.1122(13) 0.0783(21)
C3A C 0.2495(13) -0.0746(10) 0.0771(16)
C2A C 0.2451(19) -0.0080(15) 0.1262(24)
O1A O 0.2961(10) 0.0206(7) 0.2127(13)
C25A C 0.2714(6) 0.0741(4) 0.2729(7)
H1A H 0.258 0.028 0.065
H2A H 0.182 -0.011 0.144
H3A H 0.232 -0.071 -0.008
H4A H 0.200 -0.109 0.109
H5A H 0.283 -0.167 0.069
H6A H 0.346 -0.099 0.009
O12A O 0.3224(6) -0.2254(5) 0.2541(8)
C36A C 0.4350(10) -0.3140(7) 0.3116(11)
H25A H 0.368 -0.335 0.294
C37A C 0.4667(10) -0.3804(7) 0.2803(11)
H26A H 0.451 -0.419 0.338
H27A H 0.534 -0.366 0.283
C38A C 0.4301(11) -0.4147(7) 0.1672(12)
H28A H 0.363 -0.419 0.159
H29A H 0.457 -0.380 0.109
C44A C 0.4451(6) -0.4849(5) 0.1383(9)
C39A C 0.3789(6) -0.5347(5) 0.0798(9)
C40A C 0.3881(6) -0.6033(5) 0.0548(9)
C41A C 0.4636(6) -0.6222(5) 0.0883(9)
C42A C 0.5299(6) -0.5725(5) 0.1467(9)
C43A C 0.5206(6) -0.5038(5) 0.1717(9)
H34A H 0.572 -0.465 0.217
H33A H 0.588 -0.587 0.173
H32A H 0.471 -0.675 0.069
H31A H 0.337 -0.642 0.010
H30A H 0.320 -0.520 0.054
H7A H 0.583 -0.266 0.225
C63A C 0.6471(9) -0.1484(7) 0.1233(12)
H55A H 0.642 -0.122 0.050
C64A C 0.6896(9) -0.2095(7) 0.0884(12)
H56A H 0.701 -0.238 0.158
H57A H 0.648 -0.245 0.025
C65A C 0.7725(10) -0.1826(7) 0.0466(13)
H58A H 0.762 -0.152 -0.020
H59A H 0.815 -0.150 0.111
C71A C 0.8130(9) -0.2390(7) 0.0108(8)
C66A C 0.8478(9) -0.2779(7) 0.0867(8)
C67A C 0.8807(9) -0.3348(7) 0.0520(8)
C68A C 0.8788(9) -0.3528(7) -0.0587(8)
C69A C 0.8440(9) -0.3139(7) -0.1345(8)
C70A C 0.8110(9) -0.2570(7) -0.0998(8)
H64A H 0.784 -0.227 -0.159
H63A H 0.842 -0.328 -0.220
H62A H 0.904 -0.397 -0.086
H61A H 0.908 -0.365 0.111
H60A H 0.849 -0.264 0.172
H8A H 0.542 0.034 0.104
H9A H 0.551 -0.013 0.219
C15A C 0.7316(6) 0.0204(3) 0.3092(7)
O5A O 0.7169(7) 0.0881(5) 0.3189(8)
C18A C 0.7678(16) 0.1373(12) 0.2778(20)
H11A H 0.779 0.112 0.203
H12A H 0.826 0.153 0.332
C19A C 0.7400(16) 0.1975(11) 0.2488(18)
H13A H 0.701 0.185 0.172
H14A H 0.798 0.233 0.239
C20A C 0.6932(15) 0.2381(12) 0.3139(19)
H15A H 0.737 0.267 0.381
H16A H 0.669 0.275 0.265
O6A O 0.6344(8) 0.1990(6) 0.3590(9)
C32A C 0.5849(5) 0.2365(4) 0.4074(7)
H10A H 0.753 -0.174 0.299
C54A C 0.8434(10) -0.0939(8) 0.4836(12)
H45A H 0.895 -0.049 0.511
C55A C 0.8877(10) -0.1533(8) 0.4548(13)
H46A H 0.844 -0.195 0.403
H47A H 0.910 -0.174 0.528
C56A C 0.9622(12) -0.1222(9) 0.3956(15)
H48A H 0.939 -0.101 0.323
H49A H 1.005 -0.081 0.448
C62A C 1.0093(10) -0.1778(8) 0.3630(10)
C57A C 1.0382(10) -0.2179(8) 0.4417(10)
C58A C 1.0836(10) -0.2680(8) 0.4138(10)
C59A C 1.1001(10) -0.2779(8) 0.3072(10)
C60A C 1.0712(10) -0.2378(8) 0.2284(10)
C61A C 1.0258(10) -0.1877(8) 0.2563(10)
H54A H 1.003 -0.157 0.195
H53A H 1.084 -0.246 0.146
H52A H 1.135 -0.317 0.286
H51A H 1.106 -0.299 0.475
H50A H 1.025 -0.210 0.524
H17A H 0.725 0.037 0.553
H18A H 0.810 0.107 0.606
H19A H 0.252 0.224 0.483
C45A C 0.3659(9) 0.2688(7) 0.3392(12)
H35A H 0.376 0.279 0.257
C46A C 0.3266(9) 0.3298(6) 0.3791(11)
H36A H 0.324 0.328 0.465
H37A H 0.264 0.322 0.337
C47A C 0.3772(11) 0.4014(7) 0.3640(14)
H38A H 0.373 0.404 0.277
H39A H 0.442 0.405 0.397
C53A C 0.3484(7) 0.4633(6) 0.4074(9)
C48A C 0.3822(7) 0.4970(6) 0.5098(9)
C49A C 0.3507(7) 0.5528(6) 0.5523(9)
C50A C 0.2855(7) 0.5749(6) 0.4924(9)
C51A C 0.2517(7) 0.5412(6) 0.3900(9)
C52A C 0.2831(7) 0.4854(6) 0.3475(9)
H44A H 0.257 0.459 0.268
H43A H 0.201 0.558 0.344
H42A H 0.261 0.618 0.525
H41A H 0.377 0.579 0.632
H40A H 0.433 0.480 0.556
H20A H 0.470 0.139 0.133
H21A H 0.457 0.126 0.270
H22A H 0.424 0.314 0.553
H23A H 0.634 0.157 0.609
H24A H 0.744 0.189 0.635
C72 C 0.4453(15) 0.0802(11) 0.5420(18)
C73 C 0.4860(26) 0.0174(20) 0.4890(38)
C74 C 0.4676(19) 0.0137(14) 0.3644(25)
C73A C 0.5140(26) -0.0174(20) 0.5110(38)
C72A C 0.5547(15) -0.0802(11) 0.4580(18)
C74A C 0.5324(19) -0.0137(14) 0.6356(25)
Cl4 Cl 0.2829(5) 0.3445(4) 0.6875(6)
Cl5 Cl 0.2358(6) 0.4675(5) 0.7749(8)
Cl6 Cl 0.1258(6) 0.3656(6) 0.6219(13)
C75 C 0.2253(20) 0.4057(15) 0.6570(23)
Cl1 Cl 0.7074(8) 0.3359(7) 1.0429(9)
Cl2 Cl 0.8622(7) 0.3054(7) 1.0247(9)
Cl3 Cl 0.8216(9) 0.4179(7) 0.9267(13)
C1 C 0.7812(23) 0.3370(17) 0.9505(26)
Cl7? Cl 0.0049(15) 0.9280(11) 0.7347(18)
Cl8? Cl 0.0808(13) -0.0065(9) 0.8688(15)
Cl9? Cl 0.0154(16) 0.8554(18) 0.8866(35)
Cl10? Cl 0.1013(15) 0.5762(11) 0.6197(23)
Cl11? Cl -0.0061(16) 0.5146(13) 0.7562(26)
Cl12? Cl -0.0165(17) 0.3402(17) 0.3146(20)
C76? C -0.0581(33) 0.9016(24) 0.8739(42)
C77? C -0.0641(30) 0.5861(25) 0.6449(34)
loop_
_geom_bond_atom_site_label_1
_geom_bond_atom_site_label_2
_geom_bond_site_symmetry_1
_geom_bond_site_symmetry_2
Cl1 C1 1_555 1_555
Cl2 C1 1_555 1_555
Cl3 C1 1_555 1_555
O1 C2 1_555 1_555
C2 H1 1_555 1_555
H2 C2 1_555 1_555
C3 C2 1_555 1_555
H3 C3 1_555 1_555
H4 C3 1_555 1_555
C4 C3 1_555 1_555
H5 C4 1_555 1_555
H6 C4 1_555 1_555
O2 C4 1_555 1_555
C5 C6 1_555 1_555
C6 C7 1_555 1_555
C7 C8 1_555 1_555
C8 O2 1_555 1_555
C9 C8 1_555 1_555
C10 C5 1_555 1_555
H7 C5 1_555 1_555
O3 C7 1_555 1_555
C11 O3 1_555 1_555
H8 C11 1_555 1_555
H9 C11 1_555 1_555
O4 C11 1_555 1_555
C12 C13 1_555 1_555
C13 C14 1_555 1_555
C14 C15 1_555 1_555
C15 C16 1_555 1_555
C16 O4 1_555 1_555
C17 C12 1_555 1_555
H10 C12 1_555 1_555
O5 C15 1_555 1_555
C18 O5 1_555 1_555
H11 C18 1_555 1_555
H12 C18 1_555 1_555
C19 C18 1_555 1_555
H13 C19 1_555 1_555
H14 C19 1_555 1_555
C20 C19 1_555 1_555
H15 C20 1_555 1_555
H16 C20 1_555 1_555
O6 C20 1_555 1_555
O7 C14 1_555 1_555
C21 O7 1_555 1_555
H17 C21 1_555 1_555
H18 C21 1_555 1_555
O8 C21 1_555 1_555
C22 C23 1_555 1_555
C23 C24 1_555 1_555
C24 C25 1_555 1_555
C25 O1 1_555 1_555
C26 O8 1_555 1_555
C27 C22 1_555 1_555
H19 C22 1_555 1_555
O9 C24 1_555 1_555
C28 O9 1_555 1_555
H20 C28 1_555 1_555
H21 C28 1_555 1_555
O10 C28 1_555 1_555
C29 C30 1_555 1_555
C30 C31 1_555 1_555
C31 C32 1_555 1_555
C32 O6 1_555 1_555
C33 O10 1_555 1_555
C34 C29 1_555 1_555
H22 C29 1_555 1_555
O11 C31 1_555 1_555
C35 O11 1_555 1_555
H23 C35 1_555 1_555
H24 C35 1_555 1_555
O12 C9 1_555 1_555
C36 C10 1_555 1_555
H25 C36 1_555 1_555
C37 C36 1_555 1_555
H26 C37 1_555 1_555
H27 C37 1_555 1_555
C38 C37 1_555 1_555
H28 C38 1_555 1_555
H29 C38 1_555 1_555
C39 C40 1_555 1_555
C40 C41 1_555 1_555
C41 C42 1_555 1_555
C42 C43 1_555 1_555
C43 C44 1_555 1_555
C44 C38 1_555 1_555
H30 C39 1_555 1_555
H31 C40 1_555 1_555
H32 C41 1_555 1_555
H33 C42 1_555 1_555
H34 C43 1_555 1_555
C45 C23 1_555 1_555
H35 C45 1_555 1_555
C46 C45 1_555 1_555
H36 C46 1_555 1_555
H37 C46 1_555 1_555
C47 C46 1_555 1_555
H38 C47 1_555 1_555
H39 C47 1_555 1_555
C48 C49 1_555 1_555
C49 C50 1_555 1_555
C50 C51 1_555 1_555
C51 C52 1_555 1_555
C52 C53 1_555 1_555
C53 C47 1_555 1_555
H40 C48 1_555 1_555
H41 C49 1_555 1_555
H42 C50 1_555 1_555
H43 C51 1_555 1_555
H44 C52 1_555 1_555
C54 C13 1_555 1_555
H45 C54 1_555 1_555
C55 C54 1_555 1_555
H46 C55 1_555 1_555
H47 C55 1_555 1_555
C56 C55 1_555 1_555
H48 C56 1_555 1_555
H49 C56 1_555 1_555
C57 C58 1_555 1_555
C58 C59 1_555 1_555
C59 C60 1_555 1_555
C60 C61 1_555 1_555
C61 C62 1_555 1_555
C62 C56 1_555 1_555
H50 C57 1_555 1_555
H51 C58 1_555 1_555
H52 C59 1_555 1_555
H53 C60 1_555 1_555
H54 C61 1_555 1_555
C63 C6 1_555 1_555
H55 C63 1_555 1_555
C64 C63 1_555 1_555
H56 C64 1_555 1_555
H57 C64 1_555 1_555
C65 C64 1_555 1_555
H58 C65 1_555 1_555
H59 C65 1_555 1_555
C66 C67 1_555 1_555
C67 C68 1_555 1_555
C68 C69 1_555 1_555
C69 C70 1_555 1_555
C70 C71 1_555 1_555
C71 C65 1_555 1_555
H60 C66 1_555 1_555
H61 C67 1_555 1_555
H62 C68 1_555 1_555
H63 C69 1_555 1_555
H64 C70 1_555 1_555
C72 C73 1_555 1_555
C73 C74 1_555 1_555
Cl4 C75 1_555 1_555
Cl5 C75 1_555 1_555
Cl6 C75 1_555 1_555
C35A O12 1_555 1_555
O11A C35A 1_555 1_555
C31A O11A 1_555 1_555
C30A C36 1_555 1_555
C29A C30A 1_555 1_555
C34A C29A 1_555 1_555
C33A C34A 1_555 1_555
O10A C33A 1_555 1_555
C28A O10A 1_555 1_555
O9A C28A 1_555 1_555
C24A O9A 1_555 1_555
C23A C24A 1_555 1_555
C22A C23A 1_555 1_555
C27A C26 1_555 1_555
C26A C25 1_555 1_555
O8A C26A 1_555 1_555
C21A O8A 1_555 1_555
O7A C21A 1_555 1_555
C14A O7A 1_555 1_555
C13A C14A 1_555 1_555
C12A C13A 1_555 1_555
C17A C12A 1_555 1_555
C16A C17A 1_555 1_555
O4A C16A 1_555 1_555
C11A O4A 1_555 1_555
O3A C11A 1_555 1_555
C7A O3A 1_555 1_555
C6A C7A 1_555 1_555
C5A C6A 1_555 1_555
C10A C5A 1_555 1_555
C9A C10A 1_555 1_555
C8A C7A 1_555 1_555
O2A C8A 1_555 1_555
C4A O2A 1_555 1_555
C3A C4A 1_555 1_555
C2A C3A 1_555 1_555
O1A C2A 1_555 1_555
C25A C26 1_555 1_555
H1A C2A 1_555 1_555
H2A C2A 1_555 1_555
H3A C3A 1_555 1_555
H4A C3A 1_555 1_555
H5A C4A 1_555 1_555
H6A C4A 1_555 1_555
O12A C35 1_555 1_555
C36A C30 1_555 1_555
H25A C36A 1_555 1_555
C37A C36A 1_555 1_555
H26A C37A 1_555 1_555
H27A C37A 1_555 1_555
C38A C37A 1_555 1_555
H28A C38A 1_555 1_555
H29A C38A 1_555 1_555
C44A C38A 1_555 1_555
C39A C44A 1_555 1_555
C40A C39A 1_555 1_555
C41A C40A 1_555 1_555
C42A C41A 1_555 1_555
C43A C44A 1_555 1_555
H34A C43A 1_555 1_555
H33A C42A 1_555 1_555
H32A C41A 1_555 1_555
H31A C40A 1_555 1_555
H30A C39A 1_555 1_555
H7A C5A 1_555 1_555
C63A C17A 1_555 1_555
H55A C63A 1_555 1_555
C64A C63A 1_555 1_555
H56A C64A 1_555 1_555
H57A C64A 1_555 1_555
C65A C64A 1_555 1_555
H58A C65A 1_555 1_555
H59A C65A 1_555 1_555
C71A C65A 1_555 1_555
C66A C71A 1_555 1_555
C67A C66A 1_555 1_555
C68A C67A 1_555 1_555
C69A C68A 1_555 1_555
C70A C71A 1_555 1_555
H64A C70A 1_555 1_555
H63A C69A 1_555 1_555
H62A C68A 1_555 1_555
H61A C67A 1_555 1_555
H60A C66A 1_555 1_555
H8A C11A 1_555 1_555
H9A C11A 1_555 1_555
C15A C14A 1_555 1_555
O5A C15A 1_555 1_555
C18A O5A 1_555 1_555
H11A C18A 1_555 1_555
H12A C18A 1_555 1_555
C19A C18A 1_555 1_555
H13A C19A 1_555 1_555
H14A C19A 1_555 1_555
C20A C19A 1_555 1_555
H15A C20A 1_555 1_555
H16A C20A 1_555 1_555
O6A C20A 1_555 1_555
C32A C31A 1_555 1_555
H10A C12A 1_555 1_555
C54A C27 1_555 1_555
H45A C54A 1_555 1_555
C55A C54A 1_555 1_555
H46A C55A 1_555 1_555
H47A C55A 1_555 1_555
C56A C55A 1_555 1_555
H48A C56A 1_555 1_555
H49A C56A 1_555 1_555
C62A C56A 1_555 1_555
C57A C62A 1_555 1_555
C58A C57A 1_555 1_555
C59A C58A 1_555 1_555
C60A C59A 1_555 1_555
C61A C62A 1_555 1_555
H54A C61A 1_555 1_555
H53A C60A 1_555 1_555
H52A C59A 1_555 1_555
H51A C58A 1_555 1_555
H50A C57A 1_555 1_555
H17A C21A 1_555 1_555
H18A C21A 1_555 1_555
H19A C22A 1_555 1_555
C45A C34A 1_555 1_555
H35A C45A 1_555 1_555
C46A C45A 1_555 1_555
H36A C46A 1_555 1_555
H37A C46A 1_555 1_555
C47A C46A 1_555 1_555
H38A C47A 1_555 1_555
H39A C47A 1_555 1_555
C53A C47A 1_555 1_555
C48A C53A 1_555 1_555
C49A C48A 1_555 1_555
C50A C49A 1_555 1_555
C51A C50A 1_555 1_555
C52A C53A 1_555 1_555
H44A C52A 1_555 1_555
H43A C51A 1_555 1_555
H42A C50A 1_555 1_555
H41A C49A 1_555 1_555
H40A C48A 1_555 1_555
H20A C28A 1_555 1_555
H21A C28A 1_555 1_555
H22A C29A 1_555 1_555
H23A C35A 1_555 1_555
H24A C35A 1_555 1_555
C73A C73 1_555 1_555
C72A C73A 1_555 1_555
C74A C73A 1_555 1_555
C9 C10 1_555 1_555
C16 C17 1_555 1_555
C17 C63 1_555 1_555
C27 C26A 1_555 1_555
C32 C33 1_555 1_555
C33 C34 1_555 1_555
C34 C45 1_555 1_555
C39 C44 1_555 1_555
C48 C53 1_555 1_555
C54 C27A 1_555 1_555
C57 C62 1_555 1_555
C66 C71 1_555 1_555
C31A C30A 1_555 1_555
C33A C32A 1_555 1_555
C24A C25A 1_555 1_555
C23A C45A 1_555 1_555
C22A C27A 1_555 1_555
C13A C54A 1_555 1_555
C16A C15A 1_555 1_555
C6A C63A 1_555 1_555
C10A C36A 1_555 1_555
C9A C8A 1_555 1_555
C9A O12A 1_555 1_555
O1A C25A 1_555 1_555
C42A C43A 1_555 1_555
C69A C70A 1_555 1_555
O6A C32A 1_555 1_555
C60A C61A 1_555 1_555
C51A C52A 1_555 1_555

#END
