
#######################################################################
#
#                 Cambridge Crystallographic Data Centre
#                                CCDC 
#
#######################################################################
#
# If this CIF has been generated from an entry in the Cambridge 
# Structural Database, then it will include bibliographic, chemical, 
# crystal, experimental, refinement or atomic coordinate data resulting 
# from the CCDC's data processing and validation procedures.
#
#######################################################################

data_TENMAA
_chemical_name_common            
"5,5':11,11':17,17':23,23'-tetrakis(butane-1,3-dioxy)-bis(6,10:12,16:18,22:24,4-O,O'-tetrakis(ethylene)-2,8,14,20-tetrakis(pentyl)calix[4]resorcinarene) dimethylsulfoxide clathrate nitrobenzene solvate"
_chemical_formula_moiety         'C128 H168 O24,C2 H6 O1 S1,2(C6 H5 N1 O2)'
_chemical_name_systematic        
"2,3,5,6,9,10,11,12,15,16,19,20,24,25,35,36,40,41,44,45,46,47 50,51,55,56,66,67-Octacosahydro-1,20,29,31,60,62,71,88-octapentyl-38,53-(epoxybutanoxy)-22,27:64,69-dimethano-2,59:19,32-dimetheno-3,58,18,33-(methynoxybutanoxymethyno)-1H,18H,29H,31H,60H,62H-bis(1,4)benzodioxonino(10,9-e:10',9'-e')-bis(1,4)benzodioxonino-(10',11':8,9;11'',10'':16,17)(1,4,7,10,15,18,21,24)octaoxacyclo-octacosino(3,2-k:22,23-k')-bis(1,4)benzodioxonine dimethylsulfoxide clathrate nitrobenzene solvate"
_symmetry_cell_setting           triclinic
_symmetry_space_group_name_H-M   'P -1'
_symmetry_Int_Tables_number      2
_space_group_name_Hall           '-P 1'
loop_
_symmetry_equiv_pos_site_id
_symmetry_equiv_pos_as_xyz
1 x,y,z
2 -x,-y,-z
_cell_length_a                   12.984(4)
_cell_length_b                   14.664(4)
_cell_length_c                   20.454(6)
_cell_angle_alpha                68.501(6)
_cell_angle_beta                 73.722(6)
_cell_angle_gamma                65.177(5)
_cell_volume                     3251.59
_exptl_crystal_colour            colorless
_chemical_melting_point          'above 300 deg.C'
_cell_formula_units_Z            1
loop_
_atom_site_label
_atom_site_type_symbol
_atom_site_fract_x
_atom_site_fract_y
_atom_site_fract_z
O3 O 0.5797(28) 0.0877(23) 0.0114(14)
S1 S 0.4805(15) 0.0702(13) 0.0154(9)
C7 C 0.4284(29) 0.0472(25) 0.1109(15)
H6 H 0.346 0.040 0.120
H7 H 0.416 0.120 0.119
H8 H 0.482 -0.018 0.148
C8 C 0.5327(45) -0.0075(44) 0.0427(25)
S1A S 0.5195(15) -0.0702(13) -0.0154(9)
O3A O 0.4203(28) -0.0877(23) -0.0114(14)
C8A C 0.4673(45) 0.0075(44) -0.0427(25)
C7A C 0.5716(29) -0.0472(25) -0.1109(15)
H6A H 0.654 -0.040 -0.120
H7A H 0.584 -0.120 -0.119
H8A H 0.518 0.018 -0.148
O4 O 0.7180(9) -0.0949(7) 0.2524(5)
C9 C 0.7492(14) -0.0365(11) 0.1796(8)
H9 H 0.676 -0.001 0.152
H10 H 0.819 -0.089 0.153
C10 C 0.7840(14) 0.0450(11) 0.1805(8)
H11 H 0.795 0.094 0.127
H12 H 0.865 0.008 0.201
O5 O 0.7024(9) 0.1108(7) 0.2239(5)
C11 C 0.3906(8) 0.1990(7) 0.2354(4)
C12 C 0.3717(8) 0.2843(7) 0.1746(4)
C13 C 0.4644(8) 0.3085(7) 0.1282(4)
C14 C 0.5760(8) 0.2474(7) 0.1426(4)
C15 C 0.5949(8) 0.1621(7) 0.2035(4)
C16 C 0.5023(8) 0.1379(7) 0.2499(4)
H13 H 0.319 0.180 0.271
O6 O 0.6699(9) 0.2706(7) 0.1035(5)
C17 C 0.6937(14) 0.2795(12) 0.0294(8)
H14 H 0.635 0.352 0.001
H15 H 0.685 0.215 0.021
C18 C 0.8144(14) 0.2776(12) 0.0031(7)
H16 H 0.873 0.198 0.019
H17 H 0.830 0.325 0.027
C19 C 0.8374(14) 0.3212(11) -0.0782(7)
H18 H 0.759 0.382 -0.095
H19 H 0.903 0.355 -0.091
C20 C 0.8759(14) 0.2449(12) -0.1210(8)
H20 H 0.881 0.286 -0.177
H21 H 0.959 0.186 -0.110
O7 O 0.7906(9) 0.1958(7) -0.0999(5)
O8 O 0.4461(9) 0.3893(7) 0.0670(5)
C21 C 0.4299(13) 0.3623(11) 0.0096(7)
H22 H 0.414 0.289 0.032
H23 H 0.507 0.353 -0.029
C22 C 0.3320(13) 0.4436(11) -0.0257(8)
H24 H 0.347 0.517 -0.046
H25 H 0.327 0.421 -0.069
O9 O 0.2264(9) 0.4581(7) 0.0199(5)
C23 C 0.1428(8) 0.2511(7) 0.1616(3)
C24 C 0.1039(8) 0.2134(7) 0.1234(3)
C25 C 0.1127(8) 0.2533(7) 0.0496(3)
C26 C 0.1605(8) 0.3311(7) 0.0140(3)
C27 C 0.1994(8) 0.3688(7) 0.0522(3)
C28 C 0.1906(8) 0.3288(7) 0.1260(3)
H26 H 0.136 0.220 0.219
O10 O 0.1821(9) 0.3592(7) -0.0585(5)
C29 C 0.0924(13) 0.4460(11) -0.0932(7)
H27 H 0.012 0.433 -0.075
H28 H 0.083 0.518 -0.085
C30 C 0.1383(15) 0.4463(13) -0.1737(8)
H29 H 0.231 0.424 -0.184
H30 H 0.100 0.523 -0.209
C31 C 0.1051(17) 0.3714(14) -0.1836(9)
H31 H 0.102 0.309 -0.135
H32 H 0.022 0.409 -0.201
C32 C 0.2017(15) 0.3252(13) -0.2446(9)
H33 H 0.231 0.385 -0.284
H34 H 0.169 0.292 -0.270
O11 O 0.2905(9) 0.2466(8) -0.2059(5)
O12 O 0.0853(8) 0.2099(7) 0.0109(4)
C33 C 0.1759(13) 0.1175(10) -0.0034(7)
H35 H 0.219 0.137 -0.057
H36 H 0.237 0.086 0.033
C34 C 0.1214(13) 0.0383(11) 0.0070(7)
H37 H 0.189 -0.0328 0.003
H38 H 0.062 0.071 -0.031
O13 O 0.0598(8) 0.0100(7) 0.0767(5)
C35 C 0.8246(8) 0.0232(7) -0.2330(4)
C36 C 0.7557(8) 0.1292(7) -0.2473(4)
C37 C 0.7476(8) 0.1875(7) -0.2042(4)
C38 C 0.8084(8) 0.1398(7) -0.1467(4)
C39 C 0.1227(8) -0.0339(7) 0.1324(4)
C40 C 0.8854(8) -0.0244(7) -0.1756(4)
H39 H 0.831 -0.022 -0.266
O14 O 0.6857(9) 0.2939(7) -0.2193(5)
C41 C 0.5803(15) 0.3219(12) -0.1740(8)
H40 H 0.539 0.406 -0.191
H41 H 0.599 0.298 -0.121
C42 C 0.4978(14) 0.2732(12) -0.1723(8)
H42 H 0.533 0.189 -0.151
H43 H 0.417 0.304 -0.140
O15 O 0.4809(9) 0.2997(7) -0.2451(5)
C43 C 0.4149(8) -0.0729(7) 0.3146(4)
C44 C 0.5150(8) -0.0505(7) 0.2988(4)
C45 C 0.6154(8) -0.1111(7) 0.2648(4)
C46 C 0.3842(8) 0.1941(7) -0.2466(4)
C47 C 0.4843(8) 0.2165(7) -0.2624(4)
C48 C 0.4153(8) -0.1559(7) 0.2964(4)
H44 H 0.337 -0.026 0.341
C49 C 0.6891(13) 0.1840(12) -0.3114(7)
H45 H 0.657 0.268 -0.320
C50 C 0.7676(14) 0.1654(12) -0.3791(7)
H46 H 0.794 0.083 -0.375
H47 H 0.842 0.184 -0.383
C51 C 0.7184(17) 0.2283(16) -0.4488(10)
H48 H 0.644 0.209 -0.445
H49 H 0.781 0.207 -0.492
C52 C 0.655(4) 0.3449(35) -0.4539(22)
H50 H 0.749 0.365 -0.458
H51 H 0.608 0.369 -0.418
C53 C 0.628(9) 0.442(10) -0.532(7)
C54 C 0.764(6) 0.431(6) -0.562(4)
C55 C 0.0347(12) 0.1400(10) 0.1609(7)
H52 H -0.020 0.155 0.124
C56 C -0.0475(12) 0.1640(11) 0.2277(7)
H53 H 0.000 0.167 0.262
H54 H -0.082 0.102 0.255
C57 C -0.1452(13) 0.2674(11) 0.2094(8)
H55 H -0.184 0.268 0.169
H56 H -0.111 0.330 0.189
C58 C -0.2365(15) 0.2870(13) 0.2724(8)
H57 H -0.262 0.219 0.298
H58 H -0.202 0.299 0.309
C59 C -0.3423(17) 0.3832(15) 0.2504(10)
H59 H -0.370 0.374 0.209
H60 H -0.317 0.451 0.229
C60 C -0.4377(22) 0.4015(20) 0.3056(13)
H61 H -0.506 0.475 0.308
H62 H -0.393 0.371 0.350
H63 H -0.474 0.346 0.307
C61 C 0.2508(12) 0.3608(10) 0.1649(7)
H64 H 0.261 0.434 0.131
C62 C 0.1769(13) 0.3814(11) 0.2337(7)
H65 H 0.091 0.430 0.223
H66 H 0.176 0.307 0.271
C63 C 0.2182(14) 0.4341(12) 0.2678(8)
H67 H 0.183 0.517 0.241
H68 H 0.311 0.407 0.254
C64 C 0.1223(25) 0.4630(21) 0.3384(14)
H69 H 0.147 0.379 0.377
H70 H 0.050 0.495 0.328
C65 C 0.1615(44) 0.5473(37) 0.3579(25)
C66 C 0.0638(52) 0.5362(44) 0.4204(30)
H71 H 0.075 0.495 0.454
C67 C 0.5209(14) 0.0397(10) 0.3154(7)
H72 H 0.607 0.014 0.327
C68 C 0.4383(13) 0.0653(10) 0.3814(7)
H73 H 0.352 0.100 0.370
H74 H 0.448 -0.006 0.424
C69 C 0.4612(14) 0.1428(11) 0.4053(7)
H75 H 0.454 0.214 0.362
H76 H 0.547 0.107 0.418
C70 C 0.3779(14) 0.1712(12) 0.4687(8)
H77 H 0.293 0.212 0.454
H78 H 0.380 0.100 0.511
C71 C 0.4061 0.2406(13) 0.4960(9)
H79 H 0.407 0.311 0.453
H80 H 0.490 0.199 0.512
C72 C 0.3201(17) 0.2718(15) 0.5585(10)
H81 H 0.353 0.315 0.575
H82 H 0.302 0.211 0.604
H83 H 0.243 0.324 0.536
C47A C 0.5157(8) -0.2165(7) 0.2624(4)
O15A O 0.5191(9) -0.2997(7) 0.2451(5)
C42A C 0.5022(14) -0.2732(12) 0.1723(8)
C41A C 0.4197(15) -0.3219(12) 0.1740(8)
O14A O 0.3143(9) -0.2939(7) 0.2193(5)
C37A C 0.2524(8) -0.1875(7) 0.2042(4)
C36A C 0.2443(8) -0.1292(7) 0.2473(4)
C35A C 0.1754(8) -0.0232(7) 0.2330(4)
C40A C 0.1146(8) 0.0244(7) 0.1756(4)
C45A C 0.3846(8) 0.1111(7) -0.2648(4)
O4A O 0.2820(9) 0.0949(7) -0.2524(5)
C9A C 0.2508(14) 0.0365(11) -0.1796(8)
H9A H 0.324 0.001 -0.152
H10A H 0.181 0.089 -0.153
C10A C 0.2160(14) -0.0450(11) -0.1805(8)
H11A H 0.205 -0.094 -0.127
H12A H 0.135 -0.008 -0.201
O5A O 0.2976(9) -0.1108(7) -0.2239(5)
C15A C 0.4051(8) -0.1621(7) -0.2035(4)
C14A C 0.4240(8) -0.2474(7) -0.1426(4)
C13A C 0.5356(8) -0.3085(7) -0.1282(4)
C12A C 0.6283(8) -0.2843(7) -0.1746(4)
C11A C 0.6094(8) -0.1990(7) -0.2354(4)
C16A C 0.4977(8) -0.1379(7) -0.2499(4)
C67A C 0.4791(14) -0.0397(10) -0.3154(7)
C44A C 0.4850(8) 0.0505(7) -0.2988(4)
C43A C 0.5851(8) 0.0729(7) -0.3146(4)
C48A C 0.5847(8) 0.1559(7) -0.2964(4)
C39A C 0.8773(8) 0.0339(7) -0.1324(4)
O13A O 0.9402(8) -0.0100(7) -0.0767(5)
C34A C 0.8786(13) -0.0383(11) -0.0070(7)
C33A C 0.8241(13) -0.1175(10) 0.0034(7)
O12A O 0.9147(8) -0.2099(7) -0.0109(4)
C25A C 0.8873(8) -0.2533(7) -0.0496(3)
C24A C 0.8961(8) -0.2134(7) -0.1234(3)
C23A C 0.8572(8) -0.2511(7) -0.1616(3)
C28A C 0.8094(8) -0.3288(7) -0.1260(3)
C27A C 0.8006(8) -0.3688(7) -0.0522(3)
O9A O 0.7736(9) -0.4581(7) -0.0199(5)
C22A C 0.6680(13) -0.4436(11) 0.0257(8)
C21A C 0.5701(13) -0.3623(11) -0.0096(7)
O8A O 0.5539(9) -0.3893(7) -0.0670(5)
H22A H 0.586 -0.289 -0.032
H23A H 0.493 -0.353 0.029
H24A H 0.653 -0.517 0.046
H25A H 0.673 -0.421 0.069
C26A C 0.8395(8) -0.3311(7) -0.0140(3)
O10A O 0.8179(9) -0.3592(7) 0.0585(5)
C29A C 0.9076(13) -0.4460(11) 0.0932(7)
H27A H 0.988 -0.433 0.075
H28A H 0.917 -0.518 0.085
C30A C 0.8617(15) -0.4463(13) 0.1737(8)
H29A H 0.769 -0.424 0.184
H30A H 0.900 -0.523 0.209
C31A C 0.8949(17) -0.3714(14) 0.1836(9)
H31A H 0.898 -0.309 0.135
H32A H 0.978 -0.409 0.201
C32A C 0.7983(15) -0.3252(13) 0.2446(9)
H33A H 0.769 -0.385 0.284
H34A H 0.831 -0.292 0.270
O11A O 0.7095(9) -0.2466(8) 0.2059(5)
C46A C 0.6158(8) -0.1941(7) 0.2466(4)
C61A C 0.7492(12) -0.3608(10) -0.1649(7)
H64A H 0.739 -0.434 -0.131
C62A C 0.8231(13) -0.3814(11) -0.2337(7)
H65A H 0.909 -0.430 -0.223
H66A H 0.824 -0.307 -0.271
C63A C 0.7818(14) -0.4341(12) -0.2678(8)
H67A H 0.817 -0.517 -0.241
H68A H 0.689 -0.407 -0.254
C64A C 0.8777(25) -0.4630(21) -0.3384(14)
H69A H 0.853 -0.379 -0.377
H70A H 0.950 -0.495 -0.328
C65A C 0.8385(44) -0.5473(37) -0.3579(25)
C66A C 0.9362(52) -0.5362(44) -0.4204(30)
H71A H 0.925 -0.495 -0.454
H26A H 0.864 -0.220 -0.219
C55A C 0.9653(12) -0.1400(10) -0.1609(7)
H52A H 1.020 -0.155 -0.124
C56A C 1.0475(12) -0.1640(11) -0.2277(7)
H53A H 1.000 -0.167 -0.262
H54A H 1.082 -0.102 -0.255
C57A C 1.1452(13) -0.2674(11) -0.2094(8)
H55A H 1.184 -0.268 -0.169
H56A H 1.111 -0.330 -0.189
C58A C 1.2365(15) -0.2870(13) -0.2724(8)
H57A H 1.262 -0.219 -0.298
H58A H 1.202 -0.299 -0.309
C59A C 1.3423(17) -0.3832(15) -0.2504(10)
H59A H 1.370 -0.374 -0.209
H60A H 1.317 -0.451 -0.229
C60A C 1.4377(22) -0.4015(20) -0.3056(13)
H61A H 1.506 -0.475 -0.308
H62A H 1.393 -0.371 -0.350
H63A H 1.474 -0.346 -0.307
H35A H 0.781 -0.137 0.057
H36A H 0.763 -0.086 -0.033
H37A H 0.811 0.0328 -0.003
H38A H 0.938 -0.071 0.031
H44A H 0.663 0.026 -0.341
H72A H 0.393 -0.014 -0.327
C68A C 0.5617(13) -0.0653(10) -0.3814(7)
H73A H 0.648 -0.100 -0.370
H74A H 0.552 0.006 -0.424
C69A C 0.5388(14) -0.1428(11) -0.4053(7)
H75A H 0.546 -0.214 -0.362
H76A H 0.453 -0.107 -0.418
C70A C 0.6221(14) -0.1712(12) -0.4687(8)
H77A H 0.707 -0.212 -0.454
H78A H 0.620 -0.100 -0.511
C71A C 0.5939 -0.2406(13) -0.4960(9)
H79A H 0.593 -0.311 -0.453
H80A H 0.510 -0.199 -0.512
C72A C 0.6799(17) -0.2718(15) -0.5585(10)
H81A H 0.647 -0.315 -0.575
H82A H 0.698 -0.211 -0.604
H83A H 0.757 -0.324 -0.536
H13A H 0.681 -0.180 -0.271
O6A O 0.3301(9) -0.2706(7) -0.1035(5)
C17A C 0.3063(14) -0.2795(12) -0.0294(8)
H14A H 0.365 -0.352 -0.001
H15A H 0.315 -0.215 -0.021
C18A C 0.1856(14) -0.2776(12) -0.0031(7)
H16A H 0.127 -0.198 -0.019
H17A H 0.170 -0.325 -0.027
C19A C 0.1626(14) -0.3212(11) 0.0782(7)
H18A H 0.241 -0.382 0.095
H19A H 0.097 -0.355 0.091
C20A C 0.1241(14) -0.2449(12) 0.1210(8)
H20A H 0.119 -0.286 0.177
H21A H 0.041 -0.186 0.110
O7A O 0.2094(9) -0.1958(7) 0.0999(5)
C38A C 0.1916(8) -0.1398(7) 0.1467(4)
H39A H 0.169 0.022 0.266
C49A C 0.3109(13) -0.1840(12) 0.3114(7)
H45A H 0.343 -0.268 0.320
C50A C 0.2324(14) -0.1654(12) 0.3791(7)
H46A H 0.206 -0.083 0.375
H47A H 0.158 -0.184 0.383
C51A C 0.2816(17) -0.2283(16) 0.4488(10)
H48A H 0.356 -0.209 0.445
H49A H 0.219 -0.207 0.492
C52A C 0.345(4) -0.3449(35) 0.4539(22)
H50A H 0.251 -0.365 0.458
H51A H 0.392 -0.369 0.418
C53A C 0.372(9) -0.442(10) 0.532(7)
C54A C 0.236(6) -0.431(6) 0.562(4)
H40A H 0.461 -0.406 0.191
H41A H 0.401 -0.298 0.121
H42A H 0.467 -0.189 0.151
H43A H 0.583 -0.304 0.140
O1 O -0.0030(17) 0.2565(16) 0.3979(9)
O2 O 0.1213(14) 0.1199(12) 0.3691(8)
N1 N 0.0581(20) 0.1725(18) 0.4073(11)
C1 C 0.1577(12) 0.0202(12) 0.5009(7)
C2 C 0.1935(12) -0.0272(12) 0.5675(7)
C3 C 0.1645(12) 0.0322(12) 0.6142(7)
C4 C 0.0997(12) 0.1391(12) 0.5942(7)
C5 C 0.0638(12) 0.1864(12) 0.5276(7)
C6 C 0.0928(12) 0.1270(12) 0.4809(7)
H1 H 0.180 -0.026 0.465
H2 H 0.244 -0.110 0.583
H3 H 0.192 -0.004 0.666
H4 H 0.077 0.185 0.630
H5 H 0.014 0.269 0.512
C73? C 0.264(7) -0.352(6) 0.470(4)
C74? C 0.337(7) -0.376(6) 0.546(4)
C75? C 0.336(10) -0.488(8) 0.572(6)
C76? C 0.1981(64) 0.4865(54) 0.3770(35)
C77? C 0.1898(75) 0.4319(54) 0.3393(37)
C78? C 0.0613(77) 0.6285(62) 0.3444(40)
loop_
_geom_bond_atom_site_label_1
_geom_bond_atom_site_label_2
_geom_bond_site_symmetry_1
_geom_bond_site_symmetry_2
O1 N1 1_555 1_555
O2 N1 1_555 1_555
N1 C6 1_555 1_555
C1 C2 1_555 1_555
C2 C3 1_555 1_555
C3 C4 1_555 1_555
C4 C5 1_555 1_555
C5 C6 1_555 1_555
C6 C1 1_555 1_555
H1 C1 1_555 1_555
H2 C2 1_555 1_555
H3 C3 1_555 1_555
H4 C4 1_555 1_555
H5 C5 1_555 1_555
O3 S1 1_555 1_555
S1 C7 1_555 1_555
C7 H6 1_555 1_555
H7 C7 1_555 1_555
H8 C7 1_555 1_555
C8 O3 1_555 1_555
O4 C9 1_555 1_555
C9 H9 1_555 1_555
H10 C9 1_555 1_555
C10 C9 1_555 1_555
H11 C10 1_555 1_555
H12 C10 1_555 1_555
O5 C10 1_555 1_555
C11 C12 1_555 1_555
C12 C13 1_555 1_555
C13 C14 1_555 1_555
C14 C15 1_555 1_555
C15 O5 1_555 1_555
C16 C11 1_555 1_555
H13 C11 1_555 1_555
O6 C14 1_555 1_555
C17 O6 1_555 1_555
H14 C17 1_555 1_555
H15 C17 1_555 1_555
C18 C17 1_555 1_555
H16 C18 1_555 1_555
H17 C18 1_555 1_555
C19 C18 1_555 1_555
H18 C19 1_555 1_555
H19 C19 1_555 1_555
C20 C19 1_555 1_555
H20 C20 1_555 1_555
H21 C20 1_555 1_555
O7 C20 1_555 1_555
O8 C13 1_555 1_555
C21 O8 1_555 1_555
H22 C21 1_555 1_555
H23 C21 1_555 1_555
C22 C21 1_555 1_555
H24 C22 1_555 1_555
H25 C22 1_555 1_555
O9 C22 1_555 1_555
C23 C24 1_555 1_555
C24 C25 1_555 1_555
C25 C26 1_555 1_555
C26 C27 1_555 1_555
C27 O9 1_555 1_555
C28 C23 1_555 1_555
H26 C23 1_555 1_555
O10 C26 1_555 1_555
C29 O10 1_555 1_555
H27 C29 1_555 1_555
H28 C29 1_555 1_555
C30 C29 1_555 1_555
H29 C30 1_555 1_555
H30 C30 1_555 1_555
C31 C30 1_555 1_555
H31 C31 1_555 1_555
H32 C31 1_555 1_555
C32 C31 1_555 1_555
H33 C32 1_555 1_555
H34 C32 1_555 1_555
O11 C32 1_555 1_555
O12 C25 1_555 1_555
C33 O12 1_555 1_555
H35 C33 1_555 1_555
H36 C33 1_555 1_555
C34 C33 1_555 1_555
H37 C34 1_555 1_555
H38 C34 1_555 1_555
O13 C34 1_555 1_555
C35 C36 1_555 1_555
C36 C37 1_555 1_555
C37 C38 1_555 1_555
C38 O7 1_555 1_555
C39 O13 1_555 1_555
C40 C35 1_555 1_555
H39 C35 1_555 1_555
O14 C37 1_555 1_555
C41 O14 1_555 1_555
H40 C41 1_555 1_555
H41 C41 1_555 1_555
C42 C41 1_555 1_555
H42 C42 1_555 1_555
H43 C42 1_555 1_555
O15 C42 1_555 1_555
C43 C44 1_555 1_555
C44 C45 1_555 1_555
C45 O4 1_555 1_555
C46 O11 1_555 1_555
C47 O15 1_555 1_555
C48 C43 1_555 1_555
H44 C43 1_555 1_555
C49 C36 1_555 1_555
H45 C49 1_555 1_555
C50 C49 1_555 1_555
H46 C50 1_555 1_555
H47 C50 1_555 1_555
C51 C50 1_555 1_555
H48 C51 1_555 1_555
H49 C51 1_555 1_555
C52 C51 1_555 1_555
H50 C52 1_555 1_555
H51 C52 1_555 1_555
C53 C52 1_555 1_555
C54 C53 1_555 1_555
C55 C24 1_555 1_555
H52 C55 1_555 1_555
C56 C55 1_555 1_555
H53 C56 1_555 1_555
H54 C56 1_555 1_555
C57 C56 1_555 1_555
H55 C57 1_555 1_555
H56 C57 1_555 1_555
C58 C57 1_555 1_555
H57 C58 1_555 1_555
H58 C58 1_555 1_555
C59 C58 1_555 1_555
H59 C59 1_555 1_555
H60 C59 1_555 1_555
C60 C59 1_555 1_555
H61 C60 1_555 1_555
H62 C60 1_555 1_555
H63 C60 1_555 1_555
C61 C12 1_555 1_555
H64 C61 1_555 1_555
C62 C61 1_555 1_555
H65 C62 1_555 1_555
H66 C62 1_555 1_555
C63 C62 1_555 1_555
H67 C63 1_555 1_555
H68 C63 1_555 1_555
C64 C63 1_555 1_555
H69 C64 1_555 1_555
H70 C64 1_555 1_555
C65 C64 1_555 1_555
C66 C65 1_555 1_555
H71 C66 1_555 1_555
C67 C16 1_555 1_555
H72 C67 1_555 1_555
C68 C67 1_555 1_555
H73 C68 1_555 1_555
H74 C68 1_555 1_555
C69 C68 1_555 1_555
H75 C69 1_555 1_555
H76 C69 1_555 1_555
C70 C69 1_555 1_555
H77 C70 1_555 1_555
H78 C70 1_555 1_555
C71 C70 1_555 1_555
H79 C71 1_555 1_555
H80 C71 1_555 1_555
C72 C71 1_555 1_555
H81 C72 1_555 1_555
H82 C72 1_555 1_555
H83 C72 1_555 1_555
S1A S1 1_555 1_555
O3A S1A 1_555 1_555
C8A S1 1_555 1_555
C7A S1A 1_555 1_555
H6A C7A 1_555 1_555
H7A C7A 1_555 1_555
H8A C7A 1_555 1_555
C47A C48 1_555 1_555
O15A C47A 1_555 1_555
C42A O15A 1_555 1_555
C41A C42A 1_555 1_555
O14A C41A 1_555 1_555
C37A O14A 1_555 1_555
C36A C37A 1_555 1_555
C35A C36A 1_555 1_555
C40A C39 1_555 1_555
C45A C46 1_555 1_555
O4A C45A 1_555 1_555
C9A O4A 1_555 1_555
H9A C9A 1_555 1_555
H10A C9A 1_555 1_555
C10A C9A 1_555 1_555
H11A C10A 1_555 1_555
H12A C10A 1_555 1_555
O5A C10A 1_555 1_555
C15A O5A 1_555 1_555
C14A C15A 1_555 1_555
C13A C14A 1_555 1_555
C12A C13A 1_555 1_555
C11A C12A 1_555 1_555
C16A C15A 1_555 1_555
C67A C16A 1_555 1_555
C44A C45A 1_555 1_555
C43A C44A 1_555 1_555
C48A C47 1_555 1_555
C39A C38 1_555 1_555
O13A C39A 1_555 1_555
C34A O13A 1_555 1_555
C33A C34A 1_555 1_555
O12A C33A 1_555 1_555
C25A O12A 1_555 1_555
C24A C25A 1_555 1_555
C23A C24A 1_555 1_555
C28A C23A 1_555 1_555
C27A C28A 1_555 1_555
O9A C27A 1_555 1_555
C22A O9A 1_555 1_555
C21A C22A 1_555 1_555
O8A C13A 1_555 1_555
H22A C21A 1_555 1_555
H23A C21A 1_555 1_555
H24A C22A 1_555 1_555
H25A C22A 1_555 1_555
C26A C25A 1_555 1_555
O10A C26A 1_555 1_555
C29A O10A 1_555 1_555
H27A C29A 1_555 1_555
H28A C29A 1_555 1_555
C30A C29A 1_555 1_555
H29A C30A 1_555 1_555
H30A C30A 1_555 1_555
C31A C30A 1_555 1_555
H31A C31A 1_555 1_555
H32A C31A 1_555 1_555
C32A C31A 1_555 1_555
H33A C32A 1_555 1_555
H34A C32A 1_555 1_555
O11A C32A 1_555 1_555
C46A C45 1_555 1_555
C61A C12A 1_555 1_555
H64A C61A 1_555 1_555
C62A C61A 1_555 1_555
H65A C62A 1_555 1_555
H66A C62A 1_555 1_555
C63A C62A 1_555 1_555
H67A C63A 1_555 1_555
H68A C63A 1_555 1_555
C64A C63A 1_555 1_555
H69A C64A 1_555 1_555
H70A C64A 1_555 1_555
C65A C64A 1_555 1_555
C66A C65A 1_555 1_555
H71A C66A 1_555 1_555
H26A C23A 1_555 1_555
C55A C40 1_555 1_555
H52A C55A 1_555 1_555
C56A C55A 1_555 1_555
H53A C56A 1_555 1_555
H54A C56A 1_555 1_555
C57A C56A 1_555 1_555
H55A C57A 1_555 1_555
H56A C57A 1_555 1_555
C58A C57A 1_555 1_555
H57A C58A 1_555 1_555
H58A C58A 1_555 1_555
C59A C58A 1_555 1_555
H59A C59A 1_555 1_555
H60A C59A 1_555 1_555
C60A C59A 1_555 1_555
H61A C60A 1_555 1_555
H62A C60A 1_555 1_555
H63A C60A 1_555 1_555
H35A C33A 1_555 1_555
H36A C33A 1_555 1_555
H37A C34A 1_555 1_555
H38A C34A 1_555 1_555
H44A C43A 1_555 1_555
H72A C67A 1_555 1_555
C68A C67A 1_555 1_555
H73A C68A 1_555 1_555
H74A C68A 1_555 1_555
C69A C68A 1_555 1_555
H75A C69A 1_555 1_555
H76A C69A 1_555 1_555
C70A C69A 1_555 1_555
H77A C70A 1_555 1_555
H78A C70A 1_555 1_555
C71A C70A 1_555 1_555
H79A C71A 1_555 1_555
H80A C71A 1_555 1_555
C72A C71A 1_555 1_555
H81A C72A 1_555 1_555
H82A C72A 1_555 1_555
H83A C72A 1_555 1_555
H13A C11A 1_555 1_555
O6A C14A 1_555 1_555
C17A O6A 1_555 1_555
H14A C17A 1_555 1_555
H15A C17A 1_555 1_555
C18A C17A 1_555 1_555
H16A C18A 1_555 1_555
H17A C18A 1_555 1_555
C19A C18A 1_555 1_555
H18A C19A 1_555 1_555
H19A C19A 1_555 1_555
C20A C19A 1_555 1_555
H20A C20A 1_555 1_555
H21A C20A 1_555 1_555
O7A C20A 1_555 1_555
C38A C39 1_555 1_555
H39A C35A 1_555 1_555
C49A C48 1_555 1_555
H45A C49A 1_555 1_555
C50A C49A 1_555 1_555
H46A C50A 1_555 1_555
H47A C50A 1_555 1_555
C51A C50A 1_555 1_555
H48A C51A 1_555 1_555
H49A C51A 1_555 1_555
C52A C51A 1_555 1_555
H50A C52A 1_555 1_555
H51A C52A 1_555 1_555
C53A C52A 1_555 1_555
C54A C53A 1_555 1_555
H40A C41A 1_555 1_555
H41A C41A 1_555 1_555
H42A C42A 1_555 1_555
H43A C42A 1_555 1_555
S1 C8 1_555 1_555
C7 C8 1_555 1_555
C8 S1A 1_555 1_555
C15 C16 1_555 1_555
C27 C28 1_555 1_555
C28 C61 1_555 1_555
C40 C39A 1_555 1_555
C44 C67 1_555 1_555
C46 C47 1_555 1_555
C49 C48A 1_555 1_555
C55 C40A 1_555 1_555
S1A C8A 1_555 1_555
O3A C8A 1_555 1_555
C8A C7A 1_555 1_555
C47A C46A 1_555 1_555
C37A C38A 1_555 1_555
C36A C49A 1_555 1_555
C35A C40A 1_555 1_555
C11A C16A 1_555 1_555
C67A C44A 1_555 1_555
C43A C48A 1_555 1_555
C24A C55A 1_555 1_555
C28A C61A 1_555 1_555
C27A C26A 1_555 1_555
C21A O8A 1_555 1_555
O11A C46A 1_555 1_555
O7A C38A 1_555 1_555

#END
