
#######################################################################
#
#                 Cambridge Crystallographic Data Centre
#                                CCDC 
#
#######################################################################
#
# If this CIF has been generated from an entry in the Cambridge 
# Structural Database, then it will include bibliographic, chemical, 
# crystal, experimental, refinement or atomic coordinate data resulting 
# from the CCDC's data processing and validation procedures.
#
#######################################################################

data_TENPAG
_chemical_name_common            
't-butyl 10-hydroxy-8-phenyl-3,11-diazatricyclo[5.3.1.0$1,5!]undecane-3-carboxylate'
_chemical_formula_moiety         'C20 H28 N2 O3'
_chemical_name_systematic        
't-Butyl (1R*,5R*,7R*,8R*,10R*)-10-hydroxy-8-phenyl-3,11-diazatricyclo[5.3.1.01,5]undecane-3-carboxylate'
_symmetry_cell_setting           orthorhombic
_symmetry_space_group_name_H-M   'P c a 21'
_symmetry_Int_Tables_number      29
_space_group_name_Hall           'P 2c -2ac'
loop_
_symmetry_equiv_pos_site_id
_symmetry_equiv_pos_as_xyz
1 x,y,z
2 -x,-y,1/2+z
3 1/2-x,y,1/2+z
4 1/2+x,-y,z
_cell_length_a                   12.0466(6)
_cell_length_b                   14.6319(8)
_cell_length_c                   10.5171(5)
_cell_angle_alpha                90
_cell_angle_beta                 90
_cell_angle_gamma                90
_cell_volume                     1853.79
_exptl_crystal_colour            colorless
_exptl_crystal_description       plate
_cell_formula_units_Z            4
loop_
_atom_site_label
_atom_site_type_symbol
_atom_site_fract_x
_atom_site_fract_y
_atom_site_fract_z
O1 O -0.2052(2) -0.40020(18) -0.3998(3)
H1 H -0.1952 -0.4147 -0.4742
N1 N -0.3164(3) -0.2213(2) -0.1037(3)
C1 C -0.2515(3) -0.2716(2) -0.1985(4)
H2 H -0.1853 -0.2978 -0.1608
H3 H -0.2300 -0.2321 -0.2684
O2 O -0.3346(3) -0.1060(2) 0.0393(3)
N2 N -0.3211(3) -0.4311(2) -0.1671(3)
H4 H -0.266(4) -0.468(3) -0.195(5)
C2 C -0.3307(3) -0.3462(3) -0.2435(4)
O3 O -0.1675(2) -0.14043(18) -0.0538(3)
C3 C -0.4480(3) -0.3137(3) -0.2096(4)
H5 H -0.4818 -0.2818 -0.2818
C4 C -0.4323(3) -0.2484(3) -0.0973(4)
H6 H -0.4806 -0.1957 -0.1053
H7 H -0.4481 -0.2790 -0.0175
C5 C -0.3167(3) -0.3693(3) -0.3837(4)
H8 H -0.3266 -0.3133 -0.4334
C6 C -0.4034(3) -0.4392(3) -0.4270(4)
H9 H -0.3786 -0.4658 -0.5065
H10 H -0.4722 -0.4071 -0.4440
C7 C -0.4281(3) -0.5178(3) -0.3326(4)
H11 H -0.5048 -0.5368 -0.3490
C8 C -0.4268(3) -0.4789(3) -0.1955(4)
H12 H -0.4399 -0.5278 -0.1336
C9 C -0.5128(3) -0.4019(3) -0.1787(4)
H13 H -0.5408 -0.4005 -0.0922
H14 H -0.5747 -0.4099 -0.2367
C10 C -0.3573(4) -0.6042(3) -0.3439(4)
C11 C -0.2640(3) -0.6126(3) -0.4198(4)
H15 H -0.2392 -0.5625 -0.4661
C12 C -0.2069(4) -0.6948(3) -0.4276(5)
H16 H -0.1447 -0.6990 -0.4795
C13 C -0.2408(5) -0.7701(3) -0.3600(5)
H17 H -0.2011 -0.8245 -0.3641
C14 C -0.3344(7) -0.7633(4) -0.2863(7)
H18 H -0.3589 -0.8139 -0.2408
C15 C -0.3928(6) -0.6820(4) -0.2788(6)
H19 H -0.4567 -0.6791 -0.2295
C16 C -0.2780(3) -0.1511(3) -0.0331(4)
C17 C -0.1094(4) -0.0589(3) -0.0073(5)
C18 C 0.0075(4) -0.0750(4) -0.0563(6)
H20 H 0.0365 -0.1303 -0.0200
H21 H 0.0540 -0.0245 -0.0327
H22 H 0.0060 -0.0806 -0.1473
C19 C -0.1111(5) -0.0549(4) 0.1357(6)
H23 H -0.1858 -0.0452 0.1645
H24 H -0.0649 -0.0056 0.1642
H25 H -0.0837 -0.1115 0.1697
C20 C -0.1593(5) 0.0253(3) -0.0697(7)
H26 H -0.1566 0.0185 -0.1605
H27 H -0.1176 0.0783 -0.0451
H28 H -0.2350 0.0321 -0.0430
loop_
_geom_bond_atom_site_label_1
_geom_bond_atom_site_label_2
_geom_bond_site_symmetry_1
_geom_bond_site_symmetry_2
O1 H1 1_555 1_555
N1 C1 1_555 1_555
C1 H2 1_555 1_555
H3 C1 1_555 1_555
O2 C16 1_555 1_555
N2 H4 1_555 1_555
C2 C1 1_555 1_555
O3 C16 1_555 1_555
C3 C2 1_555 1_555
H5 C3 1_555 1_555
C4 N1 1_555 1_555
H6 C4 1_555 1_555
H7 C4 1_555 1_555
C5 O1 1_555 1_555
H8 C5 1_555 1_555
C6 C5 1_555 1_555
H9 C6 1_555 1_555
H10 C6 1_555 1_555
C7 C6 1_555 1_555
H11 C7 1_555 1_555
C8 N2 1_555 1_555
H12 C8 1_555 1_555
C9 C3 1_555 1_555
H13 C9 1_555 1_555
H14 C9 1_555 1_555
C10 C7 1_555 1_555
C11 C10 1_555 1_555
H15 C11 1_555 1_555
C12 C11 1_555 1_555
H16 C12 1_555 1_555
C13 C12 1_555 1_555
H17 C13 1_555 1_555
C14 C13 1_555 1_555
H18 C14 1_555 1_555
C15 C10 1_555 1_555
H19 C15 1_555 1_555
C16 N1 1_555 1_555
C17 O3 1_555 1_555
C18 C17 1_555 1_555
H20 C18 1_555 1_555
H21 C18 1_555 1_555
H22 C18 1_555 1_555
C19 C17 1_555 1_555
H23 C19 1_555 1_555
H24 C19 1_555 1_555
H25 C19 1_555 1_555
C20 C17 1_555 1_555
H26 C20 1_555 1_555
H27 C20 1_555 1_555
H28 C20 1_555 1_555
N2 C2 1_555 1_555
C2 C5 1_555 1_555
C3 C4 1_555 1_555
C7 C8 1_555 1_555
C8 C9 1_555 1_555
C14 C15 1_555 1_555

#END
