
#######################################################################
#
#                 Cambridge Crystallographic Data Centre
#                                CCDC 
#
#######################################################################
#
# If this CIF has been generated from an entry in the Cambridge 
# Structural Database, then it will include bibliographic, chemical, 
# crystal, experimental, refinement or atomic coordinate data resulting 
# from the CCDC's data processing and validation procedures.
#
#######################################################################

data_TENSAG
_chemical_formula_moiety         'C35 H66 N2 S2 Si4'
_chemical_name_systematic        
bis(3,6-bis(t-Butyldimethylsilyl)-2-pyridylsulfanyl)methane
_symmetry_cell_setting           monoclinic
_symmetry_space_group_name_H-M   'C 2/c'
_symmetry_Int_Tables_number      15
_space_group_name_Hall           '-C 2yn'
loop_
_symmetry_equiv_pos_site_id
_symmetry_equiv_pos_as_xyz
1 x,y,z
2 -x,y,1/2-z
3 1/2+x,1/2+y,z
4 1/2-x,1/2+y,1/2-z
5 -x,-y,-z
6 x,-y,1/2+z
7 1/2-x,1/2-y,-z
8 1/2+x,1/2-y,1/2+z
_cell_length_a                   23.955(5)
_cell_length_b                   15.818(3)
_cell_length_c                   12.327(2)
_cell_angle_alpha                90
_cell_angle_beta                 115.04(3)
_cell_angle_gamma                90
_cell_volume                     4231.94
_exptl_crystal_colour            colorless
_cell_formula_units_Z            4
loop_
_atom_site_label
_atom_site_type_symbol
_atom_site_fract_x
_atom_site_fract_y
_atom_site_fract_z
S1 S 0.4435(1) 0.6652(1) -0.3704(1)
Si1 Si 0.4031(1) 0.6761(1) 0.0244(1)
Si2 Si 0.3449(1) 0.8266(1) -0.5115(1)
N1 N 0.4119(1) 0.6851(1) -0.1911(2)
C1 C 0.5000 0.6052(2) -0.2500
C2 C 0.4023(1) 0.7155(1) -0.2978(2)
C3 C 0.3636(1) 0.7846(1) -0.3556(2)
C4 C 0.3363(1) 0.8226(1) -0.2881(2)
C5 C 0.3473(1) 0.7943(2) -0.1747(2)
C6 C 0.3846(1) 0.7239(1) -0.1275(2)
C7 C 0.2677(1) 0.8781(2) -0.5639(2)
C8 C 0.3376(1) 0.7406(2) -0.6205(2)
C9 C 0.4038(1) 0.9084(2) -0.5070(2)
C10 C 0.4676(1) 0.8693(2) -0.4705(3)
C11 C 0.4089(2) 0.9777(2) -0.4178(3)
C12 C 0.3829(2) 0.9472(2) -0.6317(3)
C13 C 0.4794(1) 0.6231(2) 0.0740(2)
C14 C 0.4062(1) 0.7633(2) 0.1285(2)
C15 C 0.3416(1) 0.5963(1) 0.0121(2)
C16 C 0.2783(1) 0.6388(2) -0.0318(3)
C17 C 0.3388(1) 0.5267(2) -0.0758(2)
C18 C 0.3578(1) 0.5568(2) 0.1353(2)
H1 H 0.4784 0.5729 -0.2123
H2 H 0.3091 0.8698 -0.3212
H3 H 0.3293 0.8231 -0.1287
H4 H 0.2560 0.9006 -0.6429
H5 H 0.2377 0.8371 -0.5657
H6 H 0.2696 0.9231 -0.5102
H7 H 0.3281 0.7649 -0.6976
H8 H 0.3757 0.7100 -0.5936
H9 H 0.3052 0.7027 -0.6262
H10 H 0.4961 0.9123 -0.4691
H11 H 0.4812 0.8445 -0.3924
H12 H 0.4654 0.8264 -0.5273
H13 H 0.4387 1.0187 -0.4162
H14 H 0.3695 1.0046 -0.4415
H15 H 0.4215 0.9535 -0.3396
H16 H 0.4123 0.9887 -0.6306
H17 H 0.3798 0.9035 -0.6881
H18 H 0.3434 0.9735 -0.6547
H19 H 0.5101 0.6641 0.0800
H20 H 0.4902 0.5972 0.1508
H21 H 0.4771 0.5805 0.0169
H22 H 0.4376 0.8030 0.1336
H23 H 0.3670 0.7914 0.0989
H24 H 0.4157 0.7404 0.2064
H25 H 0.2479 0.5974 -0.0374
H26 H 0.2797 0.6822 0.0238
H27 H 0.2678 0.6636 -0.1091
H28 H 0.3076 0.4865 -0.0818
H29 H 0.3290 0.5510 -0.1531
H30 H 0.3780 0.4988 -0.0478
H31 H 0.3267 0.5164 0.1294
H32 H 0.3970 0.5294 0.1627
H33 H 0.3596 0.6004 0.1909
S1A S 0.5565(1) 0.6652(1) -0.1296(1)
C2A C 0.5977(1) 0.7155(1) -0.2022(2)
N1A N 0.5881(1) 0.6851(1) -0.3089(2)
C6A C 0.6154(1) 0.7239(1) -0.3725(2)
Si1A Si 0.5969(1) 0.6761(1) -0.5244(1)
C13A C 0.5206(1) 0.6231(2) -0.5740(2)
H19A H 0.4899 0.6641 -0.5800
H20A H 0.5098 0.5972 -0.6508
H21A H 0.5229 0.5805 -0.5169
C14A C 0.5938(1) 0.7633(2) -0.6285(2)
H22A H 0.5624 0.8030 -0.6336
H23A H 0.6330 0.7914 -0.5989
H24A H 0.5843 0.7404 -0.7064
C15A C 0.6584(1) 0.5963(1) -0.5121(2)
C16A C 0.7217(1) 0.6388(2) -0.4682(3)
H25A H 0.7521 0.5974 -0.4626
H26A H 0.7203 0.6822 -0.5238
H27A H 0.7322 0.6636 -0.3909
C17A C 0.6612(1) 0.5267(2) -0.4242(2)
H28A H 0.6924 0.4865 -0.4182
H29A H 0.6710 0.5510 -0.3469
H30A H 0.6220 0.4988 -0.4522
C18A C 0.6422(1) 0.5568(2) -0.6353(2)
H31A H 0.6733 0.5164 -0.6294
H32A H 0.6030 0.5294 -0.6627
H33A H 0.6404 0.6004 -0.6909
C5A C 0.6527(1) 0.7943(2) -0.3253(2)
C4A C 0.6637(1) 0.8226(1) -0.2119(2)
C3A C 0.6364(1) 0.7846(1) -0.1444(2)
Si2A Si 0.6551(1) 0.8266(1) 0.0115(1)
C7A C 0.7323(1) 0.8781(2) 0.0639(2)
H4A H 0.7440 0.9006 0.1429
H5A H 0.7623 0.8371 0.0657
H6A H 0.7304 0.9231 0.0102
C8A C 0.6624(1) 0.7406(2) 0.1205(2)
H7A H 0.6719 0.7649 0.1976
H8A H 0.6243 0.7100 0.0936
H9A H 0.6948 0.7027 0.1262
C9A C 0.5962(1) 0.9084(2) 0.0070(2)
C10A C 0.5324(1) 0.8693(2) -0.0295(3)
H10A H 0.5039 0.9123 -0.0309
H11A H 0.5188 0.8445 -0.1076
H12A H 0.5346 0.8264 0.0273
C11A C 0.5911(2) 0.9777(2) -0.0822(3)
H13A H 0.5613 1.0187 -0.0838
H14A H 0.6305 1.0046 -0.0585
H15A H 0.5785 0.9535 -0.1604
C12A C 0.6171(2) 0.9472(2) 0.1317(3)
H16A H 0.5877 0.9887 0.1306
H17A H 0.6202 0.9035 0.1881
H18A H 0.6566 0.9735 0.1547
H2A H 0.6909 0.8698 -0.1788
H3A H 0.6707 0.8231 -0.3713
H1A H 0.5216 0.5729 -0.2877
loop_
_geom_bond_atom_site_label_1
_geom_bond_atom_site_label_2
_geom_bond_site_symmetry_1
_geom_bond_site_symmetry_2
S1 C1 1_555 1_555
Si1 C6 1_555 1_555
Si2 C3 1_555 1_555
N1 C2 1_555 1_555
C1 H1 1_555 1_555
C2 S1 1_555 1_555
C3 C2 1_555 1_555
C4 C3 1_555 1_555
C5 C4 1_555 1_555
C6 N1 1_555 1_555
C7 Si2 1_555 1_555
C8 Si2 1_555 1_555
C9 Si2 1_555 1_555
C10 C9 1_555 1_555
C11 C9 1_555 1_555
C12 C9 1_555 1_555
C13 Si1 1_555 1_555
C14 Si1 1_555 1_555
C15 Si1 1_555 1_555
C16 C15 1_555 1_555
C17 C15 1_555 1_555
C18 C15 1_555 1_555
H2 C4 1_555 1_555
H3 C5 1_555 1_555
H4 C7 1_555 1_555
H5 C7 1_555 1_555
H6 C7 1_555 1_555
H7 C8 1_555 1_555
H8 C8 1_555 1_555
H9 C8 1_555 1_555
H10 C10 1_555 1_555
H11 C10 1_555 1_555
H12 C10 1_555 1_555
H13 C11 1_555 1_555
H14 C11 1_555 1_555
H15 C11 1_555 1_555
H16 C12 1_555 1_555
H17 C12 1_555 1_555
H18 C12 1_555 1_555
H19 C13 1_555 1_555
H20 C13 1_555 1_555
H21 C13 1_555 1_555
H22 C14 1_555 1_555
H23 C14 1_555 1_555
H24 C14 1_555 1_555
H25 C16 1_555 1_555
H26 C16 1_555 1_555
H27 C16 1_555 1_555
H28 C17 1_555 1_555
H29 C17 1_555 1_555
H30 C17 1_555 1_555
H31 C18 1_555 1_555
H32 C18 1_555 1_555
H33 C18 1_555 1_555
S1A C1 1_555 1_555
C2A S1A 1_555 1_555
N1A C2A 1_555 1_555
C6A N1A 1_555 1_555
Si1A C6A 1_555 1_555
C13A Si1A 1_555 1_555
H19A C13A 1_555 1_555
H20A C13A 1_555 1_555
H21A C13A 1_555 1_555
C14A Si1A 1_555 1_555
H22A C14A 1_555 1_555
H23A C14A 1_555 1_555
H24A C14A 1_555 1_555
C15A Si1A 1_555 1_555
C16A C15A 1_555 1_555
H25A C16A 1_555 1_555
H26A C16A 1_555 1_555
H27A C16A 1_555 1_555
C17A C15A 1_555 1_555
H28A C17A 1_555 1_555
H29A C17A 1_555 1_555
H30A C17A 1_555 1_555
C18A C15A 1_555 1_555
H31A C18A 1_555 1_555
H32A C18A 1_555 1_555
H33A C18A 1_555 1_555
C5A C6A 1_555 1_555
C4A C5A 1_555 1_555
C3A C2A 1_555 1_555
Si2A C3A 1_555 1_555
C7A Si2A 1_555 1_555
H4A C7A 1_555 1_555
H5A C7A 1_555 1_555
H6A C7A 1_555 1_555
C8A Si2A 1_555 1_555
H7A C8A 1_555 1_555
H8A C8A 1_555 1_555
H9A C8A 1_555 1_555
C9A Si2A 1_555 1_555
C10A C9A 1_555 1_555
H10A C10A 1_555 1_555
H11A C10A 1_555 1_555
H12A C10A 1_555 1_555
C11A C9A 1_555 1_555
H13A C11A 1_555 1_555
H14A C11A 1_555 1_555
H15A C11A 1_555 1_555
C12A C9A 1_555 1_555
H16A C12A 1_555 1_555
H17A C12A 1_555 1_555
H18A C12A 1_555 1_555
H2A C4A 1_555 1_555
H3A C5A 1_555 1_555
H1A C1 1_555 1_555
C5 C6 1_555 1_555
C4A C3A 1_555 1_555

#END
