
#######################################################################
#
#                 Cambridge Crystallographic Data Centre
#                                CCDC 
#
#######################################################################
#
# If this CIF has been generated from an entry in the Cambridge 
# Structural Database, then it will include bibliographic, chemical, 
# crystal, experimental, refinement or atomic coordinate data resulting 
# from the CCDC's data processing and validation procedures.
#
#######################################################################

data_TENSUD
_chemical_formula_moiety         'C25 H22 Br1 N1 O3 S1'
_chemical_name_systematic        
6-bromo-4-ethenyl-3-methyl-1-[(4-methylphenyl)sulfonyl]-3-phenyl-3,4-dihydroquinolin-2(1H)-one
_symmetry_cell_setting           orthorhombic
_symmetry_space_group_name_H-M   'P 21 21 21'
_symmetry_Int_Tables_number      19
_space_group_name_Hall           'P 2ac 2ab'
loop_
_symmetry_equiv_pos_site_id
_symmetry_equiv_pos_as_xyz
1 x,y,z
2 1/2-x,-y,1/2+z
3 -x,1/2+y,1/2-z
4 1/2+x,1/2-y,-z
_cell_length_a                   8.7365(10)
_cell_length_b                   10.9891(12)
_cell_length_c                   23.906(3)
_cell_angle_alpha                90
_cell_angle_beta                 90
_cell_angle_gamma                90
_cell_volume                     2295.13
_exptl_crystal_colour            colorless
_exptl_crystal_description       block
_cell_formula_units_Z            4
loop_
_atom_site_label
_atom_site_type_symbol
_atom_site_fract_x
_atom_site_fract_y
_atom_site_fract_z
Br1 Br 0.19752(5) 0.79810(3) 0.501542(15)
C1 C 0.2296(4) 0.6457(3) 0.46619(12)
C2 C 0.3411(3) 0.6366(3) 0.42574(13)
H1 H 0.3962 0.7048 0.4146
C3 C 0.3702(3) 0.5232(3) 0.40167(13)
C4 C 0.2875(4) 0.4240(3) 0.41853(12)
C5 C 0.1723(4) 0.4356(3) 0.45799(13)
H2 H 0.1142 0.3682 0.4682
C6 C 0.1440(4) 0.5475(3) 0.48207(13)
H3 H 0.0676 0.5561 0.5089
C7 C 0.4866(3) 0.5065(3) 0.35550(15)
H4 H 0.5166 0.5860 0.3405
C8 C 0.4108(4) 0.4294(3) 0.30923(13)
C9 C 0.3671(4) 0.3059(3) 0.33482(13)
C10 C 0.6262(5) 0.4430(6) 0.3815(3)
H5 H 0.6134 0.3629 0.3932
C11 C 0.7619(7) 0.4918(7) 0.3887(3)
H6 H 0.7798 0.5717 0.3776
H7 H 0.8402 0.4465 0.4048
C12 C 0.5221(4) 0.4044(4) 0.26149(16)
H8 H 0.4717 0.3571 0.2332
H9 H 0.6088 0.3602 0.2755
H10 H 0.5558 0.4801 0.2457
C13 C 0.2667(4) 0.4933(3) 0.28686(12)
C14 C 0.2814(4) 0.5982(3) 0.25491(17)
H11 H 0.3785 0.6297 0.2483
C15 C 0.1577(6) 0.6560(4) 0.2330(2)
H12 H 0.1712 0.7255 0.2114
C16 C 0.0130(6) 0.6122(4) 0.24262(19)
H13 H -0.0721 0.6532 0.2288
C17 C -0.0043(4) 0.5089(4) 0.27247(16)
H14 H -0.1015 0.4766 0.2779
C18 C 0.1215(4) 0.4508(3) 0.29498(13)
H15 H 0.1070 0.3808 0.3162
C19 C 0.1971(12) 0.0859(11) 0.4070(8)
C20 C 0.2440(13) -0.0118(11) 0.3743(6)
H16 H 0.3460 -0.0187 0.3636
C21 C 0.138(2) -0.0991(7) 0.3575(4)
H17 H 0.1698 -0.1644 0.3356
C22 C -0.0140(18) -0.0887(12) 0.3734(4)
C23 C -0.0609(12) 0.0089(14) 0.4062(6)
H18 H -0.1629 0.0159 0.4168
C24 C 0.0446(14) 0.0962(12) 0.4230(8)
H19 H 0.0132 0.1616 0.4449
C25 C -0.132(2) -0.1771(15) 0.3571(6)
H20 H -0.1456 -0.1753 0.3172
H21 H -0.2274 -0.1565 0.3749
H22 H -0.1017 -0.2573 0.3684
N1 N 0.3201(3) 0.3087(2) 0.39107(10)
O1 O 0.3731(3) 0.2115(2) 0.31013(10)
O2 O 0.4858(4) 0.1251(3) 0.41256(14)
O3 O 0.3201(4) 0.2126(2) 0.48498(10)
S1 S 0.34332(13) 0.17789(8) 0.42869(4)
H23? H 0.4544 0.5919 0.3539
C26? C 0.677(2) 0.4394(13) 0.4117(7)
H24? H 0.5913 0.4185 0.4330
H25? H 0.7743 0.4221 0.4249
C27? C 0.6582(11) 0.4950(17) 0.3615(7)
H26? H 0.7336 0.5202 0.3366
C28? C 0.1952(15) 0.0798(15) 0.4074(9)
C29? C 0.198(3) -0.0229(18) 0.3707(9)
H27? H 0.2883 -0.0456 0.3530
C30? C 0.073(2) -0.0843(14) 0.3623(7)
H28? H 0.0852 -0.1572 0.3430
C31? C -0.068(2) -0.0579(13) 0.3773(6)
C32? C -0.079(2) 0.0409(19) 0.4122(8)
H29? H -0.1745 0.0645 0.4254
C33? C 0.0522(18) 0.1078(13) 0.4286(9)
H30? H 0.0419 0.1715 0.4539
C34? C -0.208(3) -0.1352(18) 0.3583(6)
H31? H -0.2048 -0.2129 0.3766
H32? H -0.2037 -0.1467 0.3185
H33? H -0.3006 -0.0937 0.3681
loop_
_geom_bond_atom_site_label_1
_geom_bond_atom_site_label_2
_geom_bond_site_symmetry_1
_geom_bond_site_symmetry_2
Br1 C1 1_555 1_555
C1 C2 1_555 1_555
C2 H1 1_555 1_555
C3 C2 1_555 1_555
C4 C3 1_555 1_555
C5 C4 1_555 1_555
H2 C5 1_555 1_555
C6 C1 1_555 1_555
H3 C6 1_555 1_555
C7 C3 1_555 1_555
H4 C7 1_555 1_555
C8 C7 1_555 1_555
C9 C8 1_555 1_555
C10 C7 1_555 1_555
H5 C10 1_555 1_555
C11 C10 1_555 1_555
H6 C11 1_555 1_555
H7 C11 1_555 1_555
C12 C8 1_555 1_555
H8 C12 1_555 1_555
H9 C12 1_555 1_555
H10 C12 1_555 1_555
C13 C8 1_555 1_555
C14 C13 1_555 1_555
H11 C14 1_555 1_555
C15 C14 1_555 1_555
H12 C15 1_555 1_555
C16 C15 1_555 1_555
H13 C16 1_555 1_555
C17 C16 1_555 1_555
H14 C17 1_555 1_555
C18 C13 1_555 1_555
H15 C18 1_555 1_555
C19 C20 1_555 1_555
C20 H16 1_555 1_555
C21 C20 1_555 1_555
H17 C21 1_555 1_555
C22 C21 1_555 1_555
C23 C22 1_555 1_555
H18 C23 1_555 1_555
C24 C19 1_555 1_555
H19 C24 1_555 1_555
C25 C22 1_555 1_555
H20 C25 1_555 1_555
H21 C25 1_555 1_555
H22 C25 1_555 1_555
N1 C4 1_555 1_555
O1 C9 1_555 1_555
O2 S1 1_555 1_555
O3 S1 1_555 1_555
S1 C19 1_555 1_555
C5 C6 1_555 1_555
C9 N1 1_555 1_555
C17 C18 1_555 1_555
C23 C24 1_555 1_555
N1 S1 1_555 1_555

#END
