
#######################################################################
#
#                 Cambridge Crystallographic Data Centre
#                                CCDC 
#
#######################################################################
#
# If this CIF has been generated from an entry in the Cambridge 
# Structural Database, then it will include bibliographic, chemical, 
# crystal, experimental, refinement or atomic coordinate data resulting 
# from the CCDC's data processing and validation procedures.
#
#######################################################################

data_TEPBUT05
_chemical_formula_moiety         'C28 H22'
_chemical_name_systematic        
1,1',1'',1'''-Buta-1,3-diene-1,2,3,4-tetrayltetrabenzene
_symmetry_cell_setting           monoclinic
_symmetry_space_group_name_H-M   'P 21/c'
_symmetry_Int_Tables_number      14
_space_group_name_Hall           '-P 2ybc'
loop_
_symmetry_equiv_pos_site_id
_symmetry_equiv_pos_as_xyz
1 x,y,z
2 -x,1/2+y,1/2-z
3 -x,-y,-z
4 x,1/2-y,1/2+z
_cell_length_a                   7.860(3)
_cell_length_b                   5.7022(19)
_cell_length_c                   22.413(8)
_cell_angle_alpha                90
_cell_angle_beta                 103.090(17)
_cell_angle_gamma                90
_cell_volume                     978.432
_exptl_crystal_colour            colorless
_exptl_crystal_description       block
_cell_formula_units_Z            2
loop_
_atom_site_label
_atom_site_type_symbol
_atom_site_fract_x
_atom_site_fract_y
_atom_site_fract_z
C1 C 0.60003(12) 0.80334(17) 0.35560(4)
H1 H 0.5292 0.6686 0.3440
C2 C 0.63101(13) 0.95573(18) 0.31084(4)
H2 H 0.5804 0.9247 0.2689
C3 C 0.73528(13) 1.15327(18) 0.32674(5)
H3 H 0.7538 1.2584 0.2959
C4 C 0.81216(13) 1.19578(18) 0.38800(5)
H4 H 0.8850 1.3290 0.3992
C5 C 0.78213(12) 1.04283(17) 0.43283(4)
H5 H 0.8370 1.0715 0.4745
C6 C 0.67240(12) 0.84672(16) 0.41792(4)
C7 C 0.64177(12) 0.70349(16) 0.46911(4)
H6 H 0.7312 0.7102 0.5056
C8 C 0.50416(11) 0.56332(15) 0.47171(4)
C9 C 0.35560(11) 0.53432(15) 0.41745(4)
C10 C 0.34498(12) 0.33450(16) 0.38080(4)
H7 H 0.4262 0.2103 0.3926
C11 C 0.21605(13) 0.31645(17) 0.32707(4)
H8 H 0.2111 0.1817 0.3018
C12 C 0.09432(12) 0.49543(19) 0.31026(4)
H9 H 0.0077 0.4843 0.2732
C13 C 0.09953(13) 0.69066(18) 0.34780(5)
H10 H 0.0140 0.8104 0.3371
C14 C 0.23049(12) 0.71038(17) 0.40114(4)
H11 H 0.2345 0.8446 0.4265
C1B C 0.39997(12) 0.19666(17) 0.64440(4)
H1B H 0.4708 0.3314 0.6560
C2B C 0.36899(13) 0.04427(18) 0.68916(4)
H2B H 0.4196 0.0753 0.7311
C3B C 0.26472(13) -0.15327(18) 0.67326(5)
H3B H 0.2462 -0.2584 0.7041
C4B C 0.18784(13) -0.19578(18) 0.61200(5)
H4B H 0.1150 -0.3290 0.6008
C5B C 0.21787(12) -0.04283(17) 0.56717(4)
H5B H 0.1630 -0.0715 0.5255
C6B C 0.32760(12) 0.15328(16) 0.58208(4)
C7B C 0.35823(12) 0.29651(16) 0.53089(4)
H6B H 0.2688 0.2898 0.4944
C8B C 0.49584(11) 0.43668(15) 0.52829(4)
C9B C 0.64440(11) 0.46568(15) 0.58255(4)
C10B C 0.65502(12) 0.66550(16) 0.61920(4)
H7B H 0.5738 0.7897 0.6074
C11B C 0.78395(13) 0.68355(17) 0.67293(4)
H8B H 0.7889 0.8183 0.6982
C12B C 0.90568(12) 0.50457(19) 0.68974(4)
H9B H 0.9923 0.5157 0.7268
C13B C 0.90047(13) 0.30934(18) 0.65220(5)
H10B H 0.9860 0.1896 0.6629
C14B C 0.76951(12) 0.28962(17) 0.59886(4)
H11B H 0.7655 0.1554 0.5735
loop_
_geom_bond_atom_site_label_1
_geom_bond_atom_site_label_2
_geom_bond_site_symmetry_1
_geom_bond_site_symmetry_2
C1 H1 1_555 1_555
C2 C1 1_555 1_555
H2 C2 1_555 1_555
C3 C2 1_555 1_555
H3 C3 1_555 1_555
C4 C3 1_555 1_555
H4 C4 1_555 1_555
C5 C4 1_555 1_555
H5 C5 1_555 1_555
C6 C1 1_555 1_555
C7 C6 1_555 1_555
H6 C7 1_555 1_555
C8 C7 1_555 1_555
C9 C8 1_555 1_555
C10 C9 1_555 1_555
H7 C10 1_555 1_555
C11 C10 1_555 1_555
H8 C11 1_555 1_555
C12 C11 1_555 1_555
H9 C12 1_555 1_555
C13 C12 1_555 1_555
H10 C13 1_555 1_555
C14 C9 1_555 1_555
H11 C14 1_555 1_555
C1B H1B 1_555 1_555
C2B C1B 1_555 1_555
H2B C2B 1_555 1_555
C3B C2B 1_555 1_555
H3B C3B 1_555 1_555
C4B C3B 1_555 1_555
H4B C4B 1_555 1_555
C5B C4B 1_555 1_555
H5B C5B 1_555 1_555
C6B C1B 1_555 1_555
C7B C6B 1_555 1_555
H6B C7B 1_555 1_555
C8B C8 1_555 1_555
C9B C8B 1_555 1_555
C10B C9B 1_555 1_555
H7B C10B 1_555 1_555
C11B C10B 1_555 1_555
H8B C11B 1_555 1_555
C12B C11B 1_555 1_555
H9B C12B 1_555 1_555
C13B C12B 1_555 1_555
H10B C13B 1_555 1_555
C14B C9B 1_555 1_555
H11B C14B 1_555 1_555
C5 C6 1_555 1_555
C13 C14 1_555 1_555
C5B C6B 1_555 1_555
C7B C8B 1_555 1_555
C13B C14B 1_555 1_555

#END
