
#######################################################################
#
#                 Cambridge Crystallographic Data Centre
#                                CCDC 
#
#######################################################################
#
# If this CIF has been generated from an entry in the Cambridge 
# Structural Database, then it will include bibliographic, chemical, 
# crystal, experimental, refinement or atomic coordinate data resulting 
# from the CCDC's data processing and validation procedures.
#
#######################################################################

data_TEPKIK
_chemical_formula_moiety         'C26 H18 N4,2(C6 F3 I3)'
_chemical_name_systematic        
'1,2,4,5-tetrakis(3-Pyridyl)benzene bis(1,3,5-trifluoro-2,4,6-tri-iodobenzene)'
_symmetry_cell_setting           triclinic
_symmetry_space_group_name_H-M   'P -1'
_symmetry_Int_Tables_number      2
_space_group_name_Hall           '-P 1'
loop_
_symmetry_equiv_pos_site_id
_symmetry_equiv_pos_as_xyz
1 x,y,z
2 -x,-y,-z
_cell_length_a                   8.9547(11)
_cell_length_b                   11.1438(14)
_cell_length_c                   11.4320(14)
_cell_angle_alpha                74.6900(10)
_cell_angle_beta                 85.6220(10)
_cell_angle_gamma                69.1360(10)
_cell_volume                     1027.96
_exptl_crystal_colour            colorless
_exptl_crystal_description       block
_cell_formula_units_Z            1
loop_
_atom_site_label
_atom_site_type_symbol
_atom_site_fract_x
_atom_site_fract_y
_atom_site_fract_z
F1 F 0.8139(3) 0.3387(3) 0.5314(2)
F2 F 0.3456(3) 0.3550(3) 0.3603(3)
F3 F 0.6304(3) 0.6223(3) 0.1477(2)
I1 I 0.92646(4) 0.53767(4) 0.32189(3)
I2 I 0.55002(4) 0.20086(3) 0.60064(3)
I3 I 0.30653(3) 0.57558(3) 0.11094(2)
C14 C 0.7292(4) 0.4791(4) 0.3375(4)
C15 C 0.7073(5) 0.3870(4) 0.4383(4)
C16 C 0.5800(5) 0.3419(4) 0.4484(4)
C17 C 0.4708(5) 0.3960(4) 0.3529(4)
C18 C 0.4819(4) 0.4915(4) 0.2505(4)
C19 C 0.6138(5) 0.5300(4) 0.2455(4)
N1 N 0.6112(5) 0.9908(5) 0.2027(4)
N2 N 1.0629(4) 0.6781(3) 0.9229(3)
C1 C 0.6992(7) 0.9505(6) 0.1114(5)
H1 H 0.6476 0.9395 0.0495
C2 C 0.8609(7) 0.9243(5) 0.1031(4)
H2 H 0.9165 0.8978 0.0368
C3 C 0.9395(5) 0.9383(4) 0.1958(4)
H3 H 1.0494 0.9197 0.1933
C4 C 0.8533(4) 0.9800(4) 0.2917(3)
C5 C 0.6903(5) 1.0050(5) 0.2896(4)
H4 H 0.6314 1.0340 0.3537
C6 C 0.9286(4) 0.9947(4) 0.3967(3)
C7 C 0.9109(4) 0.9202(4) 0.5124(3)
H5 H 0.8502 0.8661 0.5208
C8 C 0.9799(4) 0.9235(3) 0.6156(3)
C9 C 0.9171(5) 0.6743(4) 0.9509(4)
H6 H 0.9041 0.6185 1.0243
C10 C 0.7852(5) 0.7486(4) 0.8767(4)
H7 H 0.6853 0.7434 0.8994
C11 C 0.8044(5) 0.8312(4) 0.7676(4)
H8 H 0.7168 0.8829 0.7159
C12 C 0.9554(4) 0.8371(4) 0.7350(3)
C13 C 1.0804(4) 0.7577(4) 0.8173(3)
H9 H 1.1820 0.7604 0.7974
N1A N 1.3888(5) 1.0092(5) 0.7973(4)
N2A N 0.9371(4) 1.3219(3) 0.0771(3)
C1A C 1.3008(7) 1.0495(6) 0.8886(5)
H1A H 1.3524 1.0605 0.9505
C2A C 1.1391(7) 1.0757(5) 0.8969(4)
H2A H 1.0835 1.1022 0.9632
C3A C 1.0605(5) 1.0617(4) 0.8042(4)
H3A H 0.9506 1.0803 0.8067
C4A C 1.1467(4) 1.0200(4) 0.7083(3)
C5A C 1.3097(5) 0.9950(5) 0.7104(4)
H4A H 1.3686 0.9660 0.6463
C6A C 1.0714(4) 1.0053(4) 0.6033(3)
C7A C 1.0891(4) 1.0798(4) 0.4876(3)
H5A H 1.1498 1.1339 0.4792
C8A C 1.0201(4) 1.0765(3) 0.3844(3)
C9A C 1.0829(5) 1.3257(4) 0.0491(4)
H6A H 1.0959 1.3815 -0.0243
C10A C 1.2148(5) 1.2514(4) 0.1233(4)
H7A H 1.3147 1.2566 0.1006
C11A C 1.1956(5) 1.1688(4) 0.2324(4)
H8A H 1.2832 1.1171 0.2841
C12A C 1.0446(4) 1.1629(4) 0.2650(3)
C13A C 0.9196(4) 1.2423(4) 0.1827(3)
H9A H 0.8180 1.2396 0.2026
loop_
_geom_bond_atom_site_label_1
_geom_bond_atom_site_label_2
_geom_bond_site_symmetry_1
_geom_bond_site_symmetry_2
F1 C15 1_555 1_555
F2 C17 1_555 1_555
F3 C19 1_555 1_555
I1 C14 1_555 1_555
I2 C16 1_555 1_555
I3 C18 1_555 1_555
N1 C1 1_555 1_555
N2 C9 1_555 1_555
C1 H1 1_555 1_555
C2 C1 1_555 1_555
H2 C2 1_555 1_555
C3 C2 1_555 1_555
H3 C3 1_555 1_555
C4 C3 1_555 1_555
C5 N1 1_555 1_555
H4 C5 1_555 1_555
C6 C4 1_555 1_555
C7 C6 1_555 1_555
H5 C7 1_555 1_555
C8 C7 1_555 1_555
C9 H6 1_555 1_555
C10 C9 1_555 1_555
H7 C10 1_555 1_555
C11 C10 1_555 1_555
H8 C11 1_555 1_555
C12 C8 1_555 1_555
C13 N2 1_555 1_555
H9 C13 1_555 1_555
C14 C15 1_555 1_555
C15 C16 1_555 1_555
C16 C17 1_555 1_555
C17 C18 1_555 1_555
C18 C19 1_555 1_555
C19 C14 1_555 1_555
N1A C1A 1_555 1_555
N2A C9A 1_555 1_555
C1A H1A 1_555 1_555
C2A C1A 1_555 1_555
H2A C2A 1_555 1_555
C3A C2A 1_555 1_555
H3A C3A 1_555 1_555
C4A C3A 1_555 1_555
C5A N1A 1_555 1_555
H4A C5A 1_555 1_555
C6A C8 1_555 1_555
C7A C6A 1_555 1_555
H5A C7A 1_555 1_555
C8A C6 1_555 1_555
C9A H6A 1_555 1_555
C10A C9A 1_555 1_555
H7A C10A 1_555 1_555
C11A C10A 1_555 1_555
H8A C11A 1_555 1_555
C12A C8A 1_555 1_555
C13A N2A 1_555 1_555
H9A C13A 1_555 1_555
C4 C5 1_555 1_555
C11 C12 1_555 1_555
C12 C13 1_555 1_555
C4A C5A 1_555 1_555
C4A C6A 1_555 1_555
C7A C8A 1_555 1_555
C11A C12A 1_555 1_555
C12A C13A 1_555 1_555

#END
