
#######################################################################
#
#                 Cambridge Crystallographic Data Centre
#                                CCDC 
#
#######################################################################
#
# If this CIF has been generated from an entry in the Cambridge 
# Structural Database, then it will include bibliographic, chemical, 
# crystal, experimental, refinement or atomic coordinate data resulting 
# from the CCDC's data processing and validation procedures.
#
#######################################################################

data_TEPPOW
_chemical_formula_moiety         'C26 H28 N2 O4 S1'
_chemical_name_systematic        
'ethyl 3-(4-methylphenyl)-1-((4-methylphenyl)sulfonyl)-4-phenylimidazolidine-2-carboxylate'
_symmetry_cell_setting           monoclinic
_symmetry_space_group_name_H-M   'P 21/c'
_symmetry_Int_Tables_number      14
_space_group_name_Hall           '-P 2ybc'
loop_
_symmetry_equiv_pos_site_id
_symmetry_equiv_pos_as_xyz
1 x,y,z
2 -x,1/2+y,1/2-z
3 -x,-y,-z
4 x,1/2-y,1/2+z
_cell_length_a                   13.8518(6)
_cell_length_b                   11.4298(6)
_cell_length_c                   16.7903(8)
_cell_angle_alpha                90
_cell_angle_beta                 106.527(5)
_cell_angle_gamma                90
_cell_volume                     2548.47
_exptl_crystal_colour            colorless
_exptl_crystal_description       plate
_cell_formula_units_Z            4
loop_
_atom_site_label
_atom_site_type_symbol
_atom_site_fract_x
_atom_site_fract_y
_atom_site_fract_z
S1 S -0.02385(5) 0.97023(9) 0.24091(5)
O1 O 0.0956(3) 1.1610(3) 0.47122(18)
O2 O 0.1707(2) 0.9954(3) 0.50292(16)
O3 O -0.07249(15) 1.0793(2) 0.24665(14)
O4 O -0.07984(16) 0.8637(2) 0.22682(15)
N1 N 0.06071(17) 0.9525(2) 0.33215(14)
N2 N 0.22641(16) 1.0144(2) 0.35439(14)
C1 C 0.12889(19) 1.0510(3) 0.36265(16)
H1 H 0.1052 1.1203 0.3282
C2 C 0.1252(2) 0.8478(3) 0.34405(19)
H2 H 0.0955 0.7885 0.3031
H3 H 0.1346 0.8153 0.3991
C3 C 0.2258(2) 0.8905(3) 0.33317(17)
H4 H 0.2234 0.8834 0.2745
C4 C 0.3149(2) 0.8217(3) 0.38467(18)
C5 C 0.3818(3) 0.8661(3) 0.4551(2)
H5 H 0.3731 0.9415 0.4726
C6 C 0.4620(3) 0.7993(4) 0.4999(3)
H6 H 0.5071 0.8304 0.5472
C7 C 0.4758(3) 0.6873(4) 0.4754(3)
H7 H 0.5297 0.6424 0.5059
C8 C 0.4101(3) 0.6432(4) 0.4063(3)
H8 H 0.4189 0.5676 0.3892
C9 C 0.3298(3) 0.7100(3) 0.3609(2)
H9 H 0.2853 0.6785 0.3135
C10 C 0.28657(19) 1.0950(3) 0.32737(17)
C11 C 0.2779(2) 1.2139(3) 0.33983(19)
H10 H 0.2317 1.2405 0.3665
C12 C 0.3366(2) 1.2929(3) 0.3132(3)
H11 H 0.3287 1.3724 0.3215
C13 C 0.4072(3) 1.2575(4) 0.2743(3)
C14 C 0.4152(3) 1.1392(4) 0.2625(3)
H12 H 0.4614 1.1129 0.2358
C15 C 0.3571(2) 1.0580(3) 0.2887(2)
H13 H 0.3654 0.9786 0.2805
C16 C 0.4747(4) 1.3457(5) 0.2489(4)
H14 H 0.4551 1.3527 0.1894
H15 H 0.5434 1.3198 0.2679
H16 H 0.4684 1.4203 0.2731
C17 C 0.1310(3) 1.0761(4) 0.4519(2)
C18 C 0.2496(6) 0.9408(7) 0.6377(4)
H17 H 0.3099 0.9509 0.6211
H18 H 0.2284 0.8606 0.6299
H19 H 0.2626 0.9615 0.6952
C19 C 0.1758(5) 1.0110(5) 0.5907(3)
H20 H 0.1352 1.0608 0.6109
C20 C 0.0412(2) 0.9834(3) 0.16540(18)
C21 C 0.0805(2) 1.0910(3) 0.15311(19)
H21 H 0.0681 1.1572 0.1810
C22 C 0.1385(3) 1.0982(4) 0.0985(2)
H22 H 0.1661 1.1699 0.0906
C23 C 0.1566(3) 1.0021(5) 0.0556(2)
C24 C 0.1143(3) 0.8974(4) 0.0676(2)
H23 H 0.1246 0.8322 0.0379
C25 C 0.0567(3) 0.8859(4) 0.1223(2)
H24 H 0.0291 0.8140 0.1298
C26 C 0.2214(4) 1.0109(5) -0.0033(3)
H25 H 0.2043 1.0807 -0.0361
H26 H 0.2098 0.9439 -0.0393
H27 H 0.2911 1.0136 0.0281
loop_
_geom_bond_atom_site_label_1
_geom_bond_atom_site_label_2
_geom_bond_site_symmetry_1
_geom_bond_site_symmetry_2
S1 O3 1_555 1_555
O1 C17 1_555 1_555
O2 C17 1_555 1_555
O4 S1 1_555 1_555
N1 S1 1_555 1_555
N2 C1 1_555 1_555
C1 N1 1_555 1_555
H1 C1 1_555 1_555
C2 N1 1_555 1_555
H2 C2 1_555 1_555
H3 C2 1_555 1_555
C3 N2 1_555 1_555
H4 C3 1_555 1_555
C4 C3 1_555 1_555
C5 C4 1_555 1_555
H5 C5 1_555 1_555
C6 C5 1_555 1_555
H6 C6 1_555 1_555
C7 C6 1_555 1_555
H7 C7 1_555 1_555
C8 C7 1_555 1_555
H8 C8 1_555 1_555
C9 C4 1_555 1_555
H9 C9 1_555 1_555
C10 N2 1_555 1_555
C11 C10 1_555 1_555
H10 C11 1_555 1_555
C12 C11 1_555 1_555
H11 C12 1_555 1_555
C13 C12 1_555 1_555
C14 C13 1_555 1_555
H12 C14 1_555 1_555
C15 C10 1_555 1_555
H13 C15 1_555 1_555
C16 C13 1_555 1_555
H14 C16 1_555 1_555
H15 C16 1_555 1_555
H16 C16 1_555 1_555
C17 C1 1_555 1_555
C18 H17 1_555 1_555
H18 C18 1_555 1_555
H19 C18 1_555 1_555
C19 O2 1_555 1_555
H20 C19 1_555 1_555
C20 S1 1_555 1_555
C21 C20 1_555 1_555
H21 C21 1_555 1_555
C22 C21 1_555 1_555
H22 C22 1_555 1_555
C23 C22 1_555 1_555
C24 C23 1_555 1_555
H23 C24 1_555 1_555
C25 C20 1_555 1_555
H24 C25 1_555 1_555
C26 C23 1_555 1_555
H25 C26 1_555 1_555
H26 C26 1_555 1_555
H27 C26 1_555 1_555
C2 C3 1_555 1_555
C8 C9 1_555 1_555
C14 C15 1_555 1_555
C18 C19 1_555 1_555
C24 C25 1_555 1_555

#END
