
#######################################################################
#
#                 Cambridge Crystallographic Data Centre
#                                CCDC 
#
#######################################################################
#
# If this CIF has been generated from an entry in the Cambridge 
# Structural Database, then it will include bibliographic, chemical, 
# crystal, experimental, refinement or atomic coordinate data resulting 
# from the CCDC's data processing and validation procedures.
#
#######################################################################

data_TEPQEN
_chemical_formula_moiety         'C25 H22 Cl1 N1 O3 S1'
_chemical_name_systematic        
'(3R,4S)-6-chloro-4-ethenyl-3-(4-methylphenyl)-1-((4-methylphenyl)sulfonyl)-3,4-dihydroquinolin-2(1H)-one unknown solvate'
_symmetry_cell_setting           orthorhombic
_symmetry_space_group_name_H-M   'P 21 21 2'
_symmetry_Int_Tables_number      18
_space_group_name_Hall           'P 2 2ab'
loop_
_symmetry_equiv_pos_site_id
_symmetry_equiv_pos_as_xyz
1 x,y,z
2 -x,-y,z
3 1/2-x,1/2+y,-z
4 1/2+x,1/2-y,-z
_cell_length_a                   23.9386(9)
_cell_length_b                   8.9365(4)
_cell_length_c                   11.8823(5)
_cell_angle_alpha                90
_cell_angle_beta                 90
_cell_angle_gamma                90
_cell_volume                     2541.95
_exptl_crystal_colour            colorless
_exptl_crystal_description       block
_cell_formula_units_Z            4
loop_
_atom_site_label
_atom_site_type_symbol
_atom_site_fract_x
_atom_site_fract_y
_atom_site_fract_z
Cl1 Cl 0.54036(8) 0.7382(3) 0.75003(15)
S1 S 0.75878(4) 0.74784(14) 0.36398(9)
O1 O 0.69909(15) 0.6304(4) 0.1732(3)
O2 O 0.78947(13) 0.6247(4) 0.3206(3)
O3 O 0.76664(13) 0.7903(4) 0.4796(2)
N1 N 0.68970(14) 0.7029(4) 0.3559(3)
C1 C 0.67140(19) 0.6270(5) 0.2588(4)
C2 C 0.61781(17) 0.5367(5) 0.2742(4)
H1 H 0.5866 0.6075 0.2722
C3 C 0.61889(17) 0.4670(5) 0.3923(4)
H2 H 0.6541 0.4123 0.4011
C4 C 0.61867(18) 0.5947(5) 0.4740(4)
C5 C 0.58382(19) 0.6047(7) 0.5688(4)
H3 H 0.5608 0.5249 0.5879
C6 C 0.5837(2) 0.7321(7) 0.6333(4)
C7 C 0.6156(2) 0.8537(6) 0.6062(4)
H4 H 0.6140 0.9402 0.6496
C8 C 0.6498(2) 0.8462(5) 0.5138(4)
H5 H 0.6712 0.9290 0.4937
C9 C 0.65302(17) 0.7176(5) 0.4507(3)
C10 C 0.5717(2) 0.3599(6) 0.4116(5)
H6 H 0.5368 0.3837 0.3820
C11 C 0.5768(3) 0.2334(9) 0.4683(7)
H7 H 0.6112 0.2068 0.4988
H8 H 0.5461 0.1710 0.4777
C12 C 0.61048(17) 0.4302(5) 0.1759(4)
C13 C 0.64057(19) 0.3000(6) 0.1663(4)
H9 H 0.6649 0.2724 0.2236
C14 C 0.6351(2) 0.2084(6) 0.0716(5)
H10 H 0.6561 0.1210 0.0672
C15 C 0.59977(19) 0.2437(7) -0.0148(5)
C16 C 0.5703(2) 0.3798(6) -0.0061(5)
H11 H 0.5474 0.4098 -0.0651
C17 C 0.5749(2) 0.4701(6) 0.0889(4)
H12 H 0.5539 0.5575 0.0940
C18 C 0.5951(3) 0.1542(9) -0.1200(6)
H13 H 0.5701 0.0717 -0.1078
H14 H 0.6313 0.1169 -0.1407
H15 H 0.5808 0.2163 -0.1793
C19 C 0.76908(16) 0.9044(5) 0.2793(3)
C20 C 0.78425(18) 0.8930(5) 0.1700(4)
H16 H 0.7875 0.7993 0.1365
C21 C 0.7949(2) 1.0206(6) 0.1084(4)
H17 H 0.8052 1.0119 0.0332
C22 C 0.79060(19) 1.1611(5) 0.1561(4)
C23 C 0.77409(17) 1.1712(5) 0.2661(4)
H18 H 0.7703 1.2651 0.2989
C24 C 0.76314(18) 1.0471(5) 0.3285(4)
H19 H 0.7518 1.0562 0.4031
C25 C 0.8036(3) 1.2994(6) 0.0913(5)
H20 H 0.8431 1.3186 0.0946
H21 H 0.7838 1.3825 0.1233
H22 H 0.7925 1.2864 0.0144
loop_
_geom_bond_atom_site_label_1
_geom_bond_atom_site_label_2
_geom_bond_site_symmetry_1
_geom_bond_site_symmetry_2
Cl1 C6 1_555 1_555
S1 O2 1_555 1_555
O1 C1 1_555 1_555
O3 S1 1_555 1_555
N1 S1 1_555 1_555
C1 N1 1_555 1_555
C2 C1 1_555 1_555
H1 C2 1_555 1_555
C3 C2 1_555 1_555
H2 C3 1_555 1_555
C4 C3 1_555 1_555
C5 C4 1_555 1_555
H3 C5 1_555 1_555
C6 C5 1_555 1_555
C7 C6 1_555 1_555
H4 C7 1_555 1_555
C8 C7 1_555 1_555
H5 C8 1_555 1_555
C9 N1 1_555 1_555
C10 C3 1_555 1_555
H6 C10 1_555 1_555
C11 C10 1_555 1_555
H7 C11 1_555 1_555
H8 C11 1_555 1_555
C12 C2 1_555 1_555
C13 C12 1_555 1_555
H9 C13 1_555 1_555
C14 C13 1_555 1_555
H10 C14 1_555 1_555
C15 C14 1_555 1_555
C16 C15 1_555 1_555
H11 C16 1_555 1_555
C17 C12 1_555 1_555
H12 C17 1_555 1_555
C18 C15 1_555 1_555
H13 C18 1_555 1_555
H14 C18 1_555 1_555
H15 C18 1_555 1_555
C19 S1 1_555 1_555
C20 C19 1_555 1_555
H16 C20 1_555 1_555
C21 C20 1_555 1_555
H17 C21 1_555 1_555
C22 C21 1_555 1_555
C23 C22 1_555 1_555
H18 C23 1_555 1_555
C24 C19 1_555 1_555
H19 C24 1_555 1_555
C25 C22 1_555 1_555
H20 C25 1_555 1_555
H21 C25 1_555 1_555
H22 C25 1_555 1_555
C4 C9 1_555 1_555
C8 C9 1_555 1_555
C16 C17 1_555 1_555
C23 C24 1_555 1_555

#END
