
#######################################################################
#
#                 Cambridge Crystallographic Data Centre
#                                CCDC 
#
#######################################################################
#
# If this CIF has been generated from an entry in the Cambridge 
# Structural Database, then it will include bibliographic, chemical, 
# crystal, experimental, refinement or atomic coordinate data resulting 
# from the CCDC's data processing and validation procedures.
#
#######################################################################

data_TEPYIZ
_chemical_formula_moiety         'C20 H19 N1 O2'
_chemical_name_systematic        4-(4-methoxyphenyl)-3-(oxolan-2-yl)quinoline
_symmetry_cell_setting           monoclinic
_symmetry_space_group_name_H-M   'P 21/c'
_symmetry_Int_Tables_number      14
_space_group_name_Hall           '-P 2ybc'
loop_
_symmetry_equiv_pos_site_id
_symmetry_equiv_pos_as_xyz
1 x,y,z
2 -x,1/2+y,1/2-z
3 -x,-y,-z
4 x,1/2-y,1/2+z
_cell_length_a                   7.6879(3)
_cell_length_b                   13.3936(5)
_cell_length_c                   15.6960(6)
_cell_angle_alpha                90
_cell_angle_beta                 103.3590(10)
_cell_angle_gamma                90
_cell_volume                     1572.46
_exptl_crystal_colour            colorless
_exptl_crystal_description       block
_cell_formula_units_Z            4
loop_
_atom_site_label
_atom_site_type_symbol
_atom_site_fract_x
_atom_site_fract_y
_atom_site_fract_z
C1 C 0.5185(2) 0.09821(12) 0.85096(10)
H1 H 0.5205 0.0310 0.8362
C2 C 0.40521(19) 0.12642(11) 0.90602(9)
C3 C 0.40350(18) 0.22537(11) 0.93078(9)
C4 C 0.5113(2) 0.39882(12) 0.91274(11)
H2 H 0.4444 0.4242 0.9502
C5 C 0.6101(2) 0.46204(14) 0.87510(13)
H3 H 0.6087 0.5302 0.8864
C6 C 0.7140(2) 0.42553(14) 0.81944(12)
H4 H 0.7807 0.4694 0.7939
C7 C 0.7175(2) 0.32589(14) 0.80271(11)
H5 H 0.7885 0.3022 0.7665
C8 C 0.6148(2) 0.25801(12) 0.83961(10)
C9 C 0.50892(19) 0.29455(11) 0.89561(9)
C10 C 0.29433(19) 0.25967(10) 0.99279(9)
C11 C 0.1370(2) 0.31266(12) 0.96318(10)
H6 H 0.1008 0.3283 0.9040
C12 C 0.0321(2) 0.34304(12) 1.01951(10)
H7 H -0.0731 0.3783 0.9982
C13 C 0.08555(19) 0.32044(11) 1.10758(10)
C14 C 0.2432(2) 0.26857(12) 1.13840(10)
H8 H 0.2802 0.2539 1.1977
C15 C 0.34578(19) 0.23855(11) 1.08173(10)
H9 H 0.4512 0.2036 1.1034
C16 C -0.1684(2) 0.40077(15) 1.14136(13)
H10 H -0.1418 0.4636 1.1178
H11 H -0.2202 0.4124 1.1906
H12 H -0.2514 0.3643 1.0972
C17 C 0.2834(2) 0.05113(11) 0.93316(10)
H13 H 0.2928 0.0569 0.9963
C18 C 0.0876(2) 0.06066(14) 0.88508(13)
H14 H 0.0765 0.0915 0.8281
H15 H 0.0214 0.1000 0.9187
C19 C 0.0207(3) -0.04707(15) 0.87579(15)
H16 H -0.0747 -0.0568 0.9060
H17 H -0.0229 -0.0648 0.8146
C20 C 0.1819(3) -0.10810(14) 0.91714(13)
H18 H 0.1810 -0.1242 0.9773
H19 H 0.1842 -0.1698 0.8850
N1 N 0.62128(18) 0.15910(10) 0.81895(9)
O1 O -0.00840(15) 0.34464(9) 1.16875(7)
O2 O 0.33310(16) -0.04754(8) 0.91374(8)
loop_
_geom_bond_atom_site_label_1
_geom_bond_atom_site_label_2
_geom_bond_site_symmetry_1
_geom_bond_site_symmetry_2
C1 H1 1_555 1_555
C2 C1 1_555 1_555
C3 C2 1_555 1_555
C4 H2 1_555 1_555
C5 C4 1_555 1_555
H3 C5 1_555 1_555
C6 C5 1_555 1_555
H4 C6 1_555 1_555
C7 C6 1_555 1_555
H5 C7 1_555 1_555
C8 C7 1_555 1_555
C9 C3 1_555 1_555
C10 C3 1_555 1_555
C11 C10 1_555 1_555
H6 C11 1_555 1_555
C12 C11 1_555 1_555
H7 C12 1_555 1_555
C13 C12 1_555 1_555
C14 C13 1_555 1_555
H8 C14 1_555 1_555
C15 C10 1_555 1_555
H9 C15 1_555 1_555
C16 H10 1_555 1_555
H11 C16 1_555 1_555
H12 C16 1_555 1_555
C17 C2 1_555 1_555
H13 C17 1_555 1_555
C18 C17 1_555 1_555
H14 C18 1_555 1_555
H15 C18 1_555 1_555
C19 C18 1_555 1_555
H16 C19 1_555 1_555
H17 C19 1_555 1_555
C20 C19 1_555 1_555
H18 C20 1_555 1_555
H19 C20 1_555 1_555
N1 C1 1_555 1_555
O1 C13 1_555 1_555
O2 C17 1_555 1_555
C4 C9 1_555 1_555
C8 C9 1_555 1_555
C8 N1 1_555 1_555
C14 C15 1_555 1_555
C16 O1 1_555 1_555
C20 O2 1_555 1_555

#END
