
#######################################################################
#
#                 Cambridge Crystallographic Data Centre
#                                CCDC 
#
#######################################################################
#
# If this CIF has been generated from an entry in the Cambridge 
# Structural Database, then it will include bibliographic, chemical, 
# crystal, experimental, refinement or atomic coordinate data resulting 
# from the CCDC's data processing and validation procedures.
#
#######################################################################

data_TEQMUZ
_chemical_formula_moiety         'C35 H36 B2 F2 N2'
_chemical_name_systematic        
10-(4-(Dimesitylboryl)phenyl)-5,5-difluoro-3,7-dimethyl-5H-4\l^5^,5\l^5^-dipyrrolo[1,2-c:2',1'-f][1,3,2]diazaborinine
_symmetry_cell_setting           orthorhombic
_symmetry_space_group_name_H-M   'P c a 21'
_symmetry_Int_Tables_number      29
_space_group_name_Hall           'P 2c -2ac'
loop_
_symmetry_equiv_pos_site_id
_symmetry_equiv_pos_as_xyz
1 x,y,z
2 -x,-y,1/2+z
3 1/2+x,-y,z
4 1/2-x,y,1/2+z
_cell_length_a                   36.823(8)
_cell_length_b                   8.3144(17)
_cell_length_c                   9.7870(17)
_cell_angle_alpha                90
_cell_angle_beta                 90
_cell_angle_gamma                90
_cell_volume                     2996.4
_exptl_crystal_colour            red
_exptl_crystal_description       prism
_cell_formula_units_Z            4
loop_
_atom_site_label
_atom_site_type_symbol
_atom_site_fract_x
_atom_site_fract_y
_atom_site_fract_z
B1 B 0.16828(12) 0.5007(5) 0.2186(4)
B2 B 0.39591(9) 0.8348(4) 0.2630(4)
F1 F 0.13942(5) 0.5057(3) 0.1290(2)
F2 F 0.15742(6) 0.4242(3) 0.3387(2)
N1 N 0.18173(7) 0.6709(3) 0.2529(3)
N2 N 0.20077(7) 0.4089(3) 0.1567(3)
C1 C 0.16199(9) 0.8030(5) 0.2865(4)
C2 C 0.18533(10) 0.9301(5) 0.3205(3)
H1 H 0.1784 1.0328 0.3479
C3 C 0.22044(10) 0.8748(4) 0.3061(3)
H2 H 0.2415 0.9336 0.3214
C4 C 0.21859(8) 0.7116(4) 0.2634(3)
C5 C 0.24579(9) 0.6054(4) 0.2270(3)
C6 C 0.23710(9) 0.4562(4) 0.1704(3)
C7 C 0.25877(10) 0.3323(4) 0.1153(4)
H3 H 0.2840 0.3301 0.1116
C8 C 0.23546(12) 0.2153(5) 0.0681(5)
H4 H 0.2422 0.1200 0.0253
C9 C 0.19996(11) 0.2642(5) 0.0954(4)
C10 C 0.28422(8) 0.6552(4) 0.2389(3)
C11 C 0.29908(8) 0.6937(4) 0.3645(3)
H5 H 0.2850 0.6862 0.4430
C12 C 0.33482(9) 0.7434(4) 0.3737(3)
H6 H 0.3448 0.7629 0.4593
C13 C 0.35637(8) 0.7651(3) 0.2566(3)
C14 C 0.34077(9) 0.7240(4) 0.1330(3)
H7 H 0.3544 0.7360 0.0536
C15 C 0.30589(8) 0.6662(4) 0.1230(3)
H8 H 0.2968 0.6344 0.0386
C16 C 0.40895(8) 0.9474(3) 0.1447(3)
C17 C 0.38893(8) 1.0872(4) 0.1098(3)
C18 C 0.40169(10) 1.1907(4) 0.0089(3)
H9 H 0.3883 1.2826 -0.0116
C19 C 0.43314(10) 1.1622(4) -0.0612(3)
C20 C 0.45222(9) 1.0215(4) -0.0314(3)
H10 H 0.4730 0.9969 -0.0813
C21 C 0.44081(8) 0.9167(4) 0.0716(3)
C22 C 0.42125(8) 0.7876(4) 0.3858(3)
C23 C 0.43923(8) 0.9039(3) 0.4655(3)
C24 C 0.46259(8) 0.8582(4) 0.5693(3)
H11 H 0.4734 0.9372 0.6230
C25 C 0.47043(8) 0.6975(4) 0.5955(3)
C26 C 0.45289(8) 0.5819(4) 0.5178(3)
H12 H 0.4577 0.4739 0.5343
C27 C 0.42817(8) 0.6228(3) 0.4152(3)
C28 C 0.12120(9) 0.8031(5) 0.2830(4)
H13 H 0.1131 0.8114 0.1901
H14 H 0.1122 0.8929 0.3345
H15 H 0.1123 0.7049 0.3223
C29 C 0.16523(13) 0.1799(5) 0.0619(5)
H16 H 0.1503 0.1746 0.1420
H17 H 0.1705 0.0730 0.0305
H18 H 0.1527 0.2380 -0.0085
C30 C 0.35359(9) 1.1322(4) 0.1796(4)
H19 H 0.3497 1.2459 0.1712
H20 H 0.3549 1.1037 0.2745
H21 H 0.3339 1.0754 0.1372
C31 C 0.44677(11) 1.2785(5) -0.1662(4)
H22 H 0.4513 1.2225 -0.2503
H23 H 0.4689 1.3269 -0.1346
H24 H 0.4289 1.3606 -0.1812
C32 C 0.46290(9) 0.7665(4) 0.0961(4)
H25 H 0.4700 0.7617 0.1903
H26 H 0.4842 0.7685 0.0393
H27 H 0.4486 0.6736 0.0740
C33 C 0.43273(9) 1.0812(3) 0.4422(3)
H28 H 0.4476 1.1425 0.5035
H29 H 0.4076 1.1055 0.4586
H30 H 0.4388 1.1081 0.3496
C34 C 0.49790(10) 0.6530(4) 0.7023(4)
H31 H 0.5216 0.6867 0.6731
H32 H 0.4978 0.5386 0.7154
H33 H 0.4919 0.7053 0.7868
C35 C 0.41021(9) 0.4882(3) 0.3367(3)
H34 H 0.3870 0.4646 0.3766
H35 H 0.4253 0.3940 0.3402
H36 H 0.4069 0.5203 0.2432
loop_
_geom_bond_atom_site_label_1
_geom_bond_atom_site_label_2
_geom_bond_site_symmetry_1
_geom_bond_site_symmetry_2
B1 F1 1_555 1_555
B2 C13 1_555 1_555
F2 B1 1_555 1_555
N1 B1 1_555 1_555
N2 B1 1_555 1_555
C1 N1 1_555 1_555
C2 C1 1_555 1_555
H1 C2 1_555 1_555
C3 C2 1_555 1_555
H2 C3 1_555 1_555
C4 N1 1_555 1_555
C5 C4 1_555 1_555
C6 N2 1_555 1_555
C7 C6 1_555 1_555
H3 C7 1_555 1_555
C8 C7 1_555 1_555
H4 C8 1_555 1_555
C9 N2 1_555 1_555
C10 C5 1_555 1_555
C11 C10 1_555 1_555
H5 C11 1_555 1_555
C12 C11 1_555 1_555
H6 C12 1_555 1_555
C13 C12 1_555 1_555
C14 C13 1_555 1_555
H7 C14 1_555 1_555
C15 C10 1_555 1_555
H8 C15 1_555 1_555
C16 B2 1_555 1_555
C17 C16 1_555 1_555
C18 C17 1_555 1_555
H9 C18 1_555 1_555
C19 C18 1_555 1_555
C20 C19 1_555 1_555
H10 C20 1_555 1_555
C21 C16 1_555 1_555
C22 B2 1_555 1_555
C23 C22 1_555 1_555
C24 C23 1_555 1_555
H11 C24 1_555 1_555
C25 C24 1_555 1_555
C26 C25 1_555 1_555
H12 C26 1_555 1_555
C27 C22 1_555 1_555
C28 C1 1_555 1_555
H13 C28 1_555 1_555
H14 C28 1_555 1_555
H15 C28 1_555 1_555
C29 C9 1_555 1_555
H16 C29 1_555 1_555
H17 C29 1_555 1_555
H18 C29 1_555 1_555
C30 C17 1_555 1_555
H19 C30 1_555 1_555
H20 C30 1_555 1_555
H21 C30 1_555 1_555
C31 C19 1_555 1_555
H22 C31 1_555 1_555
H23 C31 1_555 1_555
H24 C31 1_555 1_555
C32 C21 1_555 1_555
H25 C32 1_555 1_555
H26 C32 1_555 1_555
H27 C32 1_555 1_555
C33 C23 1_555 1_555
H28 C33 1_555 1_555
H29 C33 1_555 1_555
H30 C33 1_555 1_555
C34 C25 1_555 1_555
H31 C34 1_555 1_555
H32 C34 1_555 1_555
H33 C34 1_555 1_555
C35 C27 1_555 1_555
H34 C35 1_555 1_555
H35 C35 1_555 1_555
H36 C35 1_555 1_555
C3 C4 1_555 1_555
C5 C6 1_555 1_555
C8 C9 1_555 1_555
C14 C15 1_555 1_555
C20 C21 1_555 1_555
C26 C27 1_555 1_555

#END
