
#######################################################################
#
#                 Cambridge Crystallographic Data Centre
#                                CCDC 
#
#######################################################################
#
# If this CIF has been generated from an entry in the Cambridge 
# Structural Database, then it will include bibliographic, chemical, 
# crystal, experimental, refinement or atomic coordinate data resulting 
# from the CCDC's data processing and validation procedures.
#
#######################################################################

data_TEQSUG
_chemical_formula_moiety         'C23 H22 O3'
_chemical_name_systematic        
'methyl 5-benzylidene-4-hydroxy-1-phenyl-1,3a,4,5,6,6a-hexahydropentalene-2-carboxylate'
_symmetry_cell_setting           monoclinic
_symmetry_space_group_name_H-M   'P 21'
_symmetry_Int_Tables_number      4
_space_group_name_Hall           'P 2yb'
loop_
_symmetry_equiv_pos_site_id
_symmetry_equiv_pos_as_xyz
1 x,y,z
2 -x,1/2+y,-z
_cell_length_a                   9.139(4)
_cell_length_b                   10.409(4)
_cell_length_c                   9.569(4)
_cell_angle_alpha                90
_cell_angle_beta                 99.930(6)
_cell_angle_gamma                90
_cell_volume                     896.642
_exptl_crystal_colour            colorless
_exptl_crystal_description       block
_cell_formula_units_Z            2
loop_
_atom_site_label
_atom_site_type_symbol
_atom_site_fract_x
_atom_site_fract_y
_atom_site_fract_z
C1 C 0.6202(3) 0.6679(2) 0.5273(2)
H1 H 0.555623 0.589881 0.520915
C2 C 0.5888(2) 0.7419(3) 0.3893(2)
C3 C 0.7135(3) 0.7747(2) 0.3427(3)
H2 H 0.716011 0.819281 0.256472
C4 C 0.8496(2) 0.7322(3) 0.4442(2)
H3 H 0.892253 0.804566 0.506918
C5 C 0.9700(3) 0.6638(2) 0.3804(3)
H4 H 1.061145 0.658951 0.454904
C6 C 0.9120(3) 0.5285(2) 0.3506(3)
C7 C 0.7993(3) 0.5014(2) 0.4459(3)
H5 H 0.833634 0.429979 0.511776
H6 H 0.702354 0.477598 0.388609
C8 C 0.7847(3) 0.6273(2) 0.5301(3)
H7 H 0.840707 0.621684 0.629377
C9 C 0.6025(2) 0.7463(3) 0.6583(2)
C10 C 0.5664(3) 0.6824(3) 0.7752(3)
H8 H 0.546376 0.592777 0.769514
C11 C 0.5594(3) 0.7480(3) 0.9006(3)
H9 H 0.535058 0.702966 0.979929
C12 C 0.5876(3) 0.8785(3) 0.9101(3)
H10 H 0.582579 0.923586 0.995462
C13 C 0.6232(3) 0.9426(3) 0.7940(3)
H11 H 0.642913 1.032260 0.799777
C14 C 0.6305(3) 0.8770(3) 0.6689(3)
H12 H 0.654888 0.922222 0.589883
C15 C 0.4362(3) 0.7724(2) 0.3199(3)
C16 C 0.2858(3) 0.8638(3) 0.1183(3)
H13 H 0.295214 0.913298 0.033160
H14 H 0.226950 0.912746 0.176330
H15 H 0.236385 0.781937 0.090459
C17 C 0.9628(3) 0.4534(2) 0.2562(3)
H16 H 1.029640 0.494793 0.205063
C18 C 0.9333(3) 0.3179(3) 0.2177(2)
C19 C 1.0186(3) 0.2614(3) 0.1256(3)
H17 H 1.088877 0.312338 0.088093
C20 C 1.0025(3) 0.1327(3) 0.0880(3)
H18 H 1.060689 0.096745 0.024566
C21 C 0.9020(3) 0.0571(3) 0.1429(3)
H19 H 0.892336 -0.031492 0.119363
C22 C 0.8155(3) 0.1116(3) 0.2324(3)
H20 H 0.745634 0.060015 0.269679
C23 C 0.8298(3) 0.2410(3) 0.2684(3)
H21 H 0.767958 0.277249 0.328435
O1 O 0.43200(18) 0.83947(19) 0.19946(18)
O2 O 0.32561(18) 0.7385(2) 0.36353(19)
O3 O 1.00746(19) 0.72905(19) 0.2617(2)
H22 H 1.098545 0.746571 0.277072
loop_
_geom_bond_atom_site_label_1
_geom_bond_atom_site_label_2
_geom_bond_site_symmetry_1
_geom_bond_site_symmetry_2
C1 H1 1_555 1_555
C2 C1 1_555 1_555
C3 C2 1_555 1_555
H2 C3 1_555 1_555
C4 C3 1_555 1_555
H3 C4 1_555 1_555
C5 C4 1_555 1_555
H4 C5 1_555 1_555
C6 C5 1_555 1_555
C7 C6 1_555 1_555
H5 C7 1_555 1_555
H6 C7 1_555 1_555
C8 C1 1_555 1_555
H7 C8 1_555 1_555
C9 C1 1_555 1_555
C10 C9 1_555 1_555
H8 C10 1_555 1_555
C11 C10 1_555 1_555
H9 C11 1_555 1_555
C12 C11 1_555 1_555
H10 C12 1_555 1_555
C13 C12 1_555 1_555
H11 C13 1_555 1_555
C14 C9 1_555 1_555
H12 C14 1_555 1_555
C15 C2 1_555 1_555
C16 H13 1_555 1_555
H14 C16 1_555 1_555
H15 C16 1_555 1_555
C17 C6 1_555 1_555
H16 C17 1_555 1_555
C18 C17 1_555 1_555
C19 C18 1_555 1_555
H17 C19 1_555 1_555
C20 C19 1_555 1_555
H18 C20 1_555 1_555
C21 C20 1_555 1_555
H19 C21 1_555 1_555
C22 C21 1_555 1_555
H20 C22 1_555 1_555
C23 C18 1_555 1_555
H21 C23 1_555 1_555
O1 C15 1_555 1_555
O2 C15 1_555 1_555
O3 C5 1_555 1_555
H22 O3 1_555 1_555
C4 C8 1_555 1_555
C7 C8 1_555 1_555
C13 C14 1_555 1_555
C16 O1 1_555 1_555
C22 C23 1_555 1_555

#END
