
#######################################################################
#
#                 Cambridge Crystallographic Data Centre
#                                CCDC 
#
#######################################################################
#
# If this CIF has been generated from an entry in the Cambridge 
# Structural Database, then it will include bibliographic, chemical, 
# crystal, experimental, refinement or atomic coordinate data resulting 
# from the CCDC's data processing and validation procedures.
#
#######################################################################

data_TEQTIV
_chemical_formula_moiety         'C36 H36 N24 O24,22(H2 O1)'
_chemical_name_systematic        'dodecahydroxycucurbit[6]uril docosahydrate'
_symmetry_cell_setting           monoclinic
_symmetry_space_group_name_H-M   'C 2/c'
_symmetry_Int_Tables_number      15
_space_group_name_Hall           '-C 2yn'
loop_
_symmetry_equiv_pos_site_id
_symmetry_equiv_pos_as_xyz
1 x,y,z
2 -x,y,1/2-z
3 1/2+x,1/2+y,z
4 1/2-x,1/2+y,1/2-z
5 -x,-y,-z
6 x,-y,1/2+z
7 1/2-x,1/2-y,-z
8 1/2+x,1/2-y,1/2+z
_cell_length_a                   15.359(12)
_cell_length_b                   21.896(12)
_cell_length_c                   18.644(12)
_cell_angle_alpha                90
_cell_angle_beta                 100.105(12)
_cell_angle_gamma                90
_cell_volume                     6172.73
_exptl_crystal_colour            colorless
_exptl_crystal_description       prism
_cell_formula_units_Z            4
loop_
_atom_site_label
_atom_site_type_symbol
_atom_site_fract_x
_atom_site_fract_y
_atom_site_fract_z
O1 O 0.31587(19) 0.3105(2) 0.03150(15)
O2 O 0.9897(3) 0.2835(4) 0.1722(4)
O3 O 0.7015(6) -0.0495(6) 0.0181(5)
O4 O 0.5202(7) 0.5596(4) 0.0772(5)
O5 O 0.6399(8) 0.4861(5) 0.0126(5)
O6 O 0.5556(11) -0.1224(5) 0.0827(5)
O7 O 0.764(2) 0.2634(8) 0.4331(7)
O8 O 0.9908(5) 0.1465(8) 0.1742(8)
O9 O 0.8933(17) 0.225(2) 0.4460(12)
O10 O 0.605(2) 0.2126(14) 0.3825(13)
C1 C 0.5201(4) 0.3708(3) 0.1093(3)
C2 C 0.5951(4) 0.4313(3) 0.2014(4)
C3 C 0.6631(4) 0.3943(3) 0.1670(3)
C4 C 0.6789(4) 0.3716(3) 0.2887(4)
C5 C 0.6386(4) 0.3199(3) 0.0597(3)
H1 H 0.6880 0.3409 0.0436
H2 H 0.5914 0.3152 0.0173
C6 C 0.7890(4) 0.3261(3) 0.2252(4)
H3 H 0.8238 0.3480 0.1941
H4 H 0.8239 0.3248 0.2746
C7 C 0.6241(4) 0.2104(3) 0.0613(3)
C8 C 0.7573(4) 0.2476(3) 0.1229(3)
C9 C 0.7601(4) 0.1762(3) 0.1245(3)
C10 C 0.7817(4) 0.2157(3) 0.2423(3)
C11 C 0.6533(5) 0.0980(3) 0.0601(3)
H5 H 0.7076 0.0781 0.0511
H6 H 0.6118 0.0994 0.0138
C12 C 0.7863(4) 0.1035(3) 0.2307(4)
H7 H 0.8185 0.1068 0.2809
H8 H 0.8241 0.0811 0.2025
C13 C 0.5276(4) 0.0494(3) 0.1049(3)
C14 C 0.6681(4) 0.0313(3) 0.1704(3)
C15 C 0.5962(4) -0.0064(3) 0.2044(3)
C16 C 0.6743(4) 0.0566(3) 0.2924(3)
C17 C 0.5732(4) 0.4386(3) 0.3318(4)
H9 H 0.5661 0.4823 0.3206
H10 H 0.6146 0.4347 0.3780
C18 C 0.5694(4) -0.0128(3) 0.3339(3)
H11 H 0.5625 -0.0566 0.3236
H12 H 0.6098 -0.0081 0.3805
N1 N 0.5116(3) 0.4138(2) 0.1591(3)
N2 N 0.6067(3) 0.3568(3) 0.1131(3)
N3 N 0.6105(3) 0.4096(2) 0.2756(3)
N4 N 0.7087(3) 0.3594(2) 0.2270(3)
N5 N 0.6677(3) 0.2598(3) 0.0871(3)
N6 N 0.6739(3) 0.1594(3) 0.0848(3)
N7 N 0.7742(3) 0.2647(3) 0.1987(3)
N8 N 0.7714(3) 0.1639(2) 0.2009(3)
N9 N 0.6151(3) 0.0614(2) 0.1116(3)
N10 N 0.5141(3) 0.0120(2) 0.1593(3)
N11 N 0.7064(3) 0.0685(2) 0.2310(3)
N12 N 0.6078(3) 0.0158(2) 0.2775(3)
O11 O 0.4595(3) 0.3473(2) 0.0669(3)
O12 O 0.5499(3) 0.2069(2) 0.0257(3)
O13 O 0.4694(3) 0.0685(2) 0.0568(3)
O14 O 0.7106(3) 0.3491(2) 0.3483(3)
O15 O 0.7980(4) 0.2159(2) 0.3085(3)
O16 O 0.7003(3) 0.0785(2) 0.3515(3)
O17 O 0.6068(4) 0.4934(2) 0.2022(3)
H13 H 0.5981 0.5065 0.1598
O18 O 0.7230(3) 0.4278(2) 0.1387(3)
H14 H 0.6972 0.4480 0.1036
O19 O 0.8140(3) 0.2745(2) 0.0833(3)
H15 H 0.8656 0.2646 0.1004
O20 O 0.8223(4) 0.1490(3) 0.0942(3)
H16 H 0.8719 0.1585 0.1168
O21 O 0.7335(3) -0.0036(2) 0.1503(3)
H17 H 0.7112 -0.0299 0.1206
O22 O 0.6096(3) -0.0672(2) 0.2048(3)
H18 H 0.5628 -0.0848 0.1874
C1A C 0.4799(4) 0.3708(3) 0.3907(3)
C2A C 0.4049(4) 0.4313(3) 0.2986(4)
C3A C 0.3369(4) 0.3943(3) 0.3330(3)
C4A C 0.3211(4) 0.3716(3) 0.2113(4)
C5A C 0.3614(4) 0.3199(3) 0.4403(3)
H1A H 0.3120 0.3409 0.4564
H2A H 0.4086 0.3152 0.4827
C6A C 0.2110(4) 0.3261(3) 0.2748(4)
H3A H 0.1762 0.3480 0.3059
H4A H 0.1761 0.3248 0.2254
C7A C 0.3759(4) 0.2104(3) 0.4387(3)
C8A C 0.2427(4) 0.2476(3) 0.3771(3)
C9A C 0.2399(4) 0.1762(3) 0.3755(3)
C10A C 0.2183(4) 0.2157(3) 0.2577(3)
C11A C 0.3467(5) 0.0980(3) 0.4399(3)
H5A H 0.2924 0.0781 0.4489
H6A H 0.3882 0.0994 0.4862
C12A C 0.2137(4) 0.1035(3) 0.2693(4)
H7A H 0.1815 0.1068 0.2191
H8A H 0.1759 0.0811 0.2975
C13A C 0.4724(4) 0.0494(3) 0.3951(3)
C14A C 0.3319(4) 0.0313(3) 0.3296(3)
C15A C 0.4038(4) -0.0064(3) 0.2956(3)
C16A C 0.3257(4) 0.0566(3) 0.2076(3)
C17A C 0.4268(4) 0.4386(3) 0.1682(4)
H9A H 0.4339 0.4823 0.1794
H10A H 0.3854 0.4347 0.1220
C18A C 0.4306(4) -0.0128(3) 0.1661(3)
H11A H 0.4375 -0.0566 0.1764
H12A H 0.3902 -0.0081 0.1195
N1A N 0.4884(3) 0.4138(2) 0.3409(3)
N2A N 0.3933(3) 0.3568(3) 0.3869(3)
N3A N 0.3895(3) 0.4096(2) 0.2244(3)
N4A N 0.2913(3) 0.3594(2) 0.2730(3)
N5A N 0.3323(3) 0.2598(3) 0.4129(3)
N6A N 0.3261(3) 0.1594(3) 0.4152(3)
N7A N 0.2258(3) 0.2647(3) 0.3013(3)
N8A N 0.2286(3) 0.1639(2) 0.2991(3)
N9A N 0.3849(3) 0.0614(2) 0.3884(3)
N10A N 0.4859(3) 0.0120(2) 0.3407(3)
N11A N 0.2936(3) 0.0685(2) 0.2690(3)
N12A N 0.3922(3) 0.0158(2) 0.2225(3)
O11A O 0.5405(3) 0.3473(2) 0.4331(3)
O12A O 0.4501(3) 0.2069(2) 0.4743(3)
O13A O 0.5306(3) 0.0685(2) 0.4432(3)
O14A O 0.2894(3) 0.3491(2) 0.1517(3)
O15A O 0.2020(4) 0.2159(2) 0.1915(3)
O16A O 0.2997(3) 0.0785(2) 0.1485(3)
O17A O 0.3932(4) 0.4934(2) 0.2978(3)
H13A H 0.4019 0.5065 0.3402
O18A O 0.2770(3) 0.4278(2) 0.3613(3)
H14A H 0.3028 0.4480 0.3964
O19A O 0.1860(3) 0.2745(2) 0.4167(3)
H15A H 0.1344 0.2646 0.3996
O20A O 0.1777(4) 0.1490(3) 0.4058(3)
H16A H 0.1281 0.1585 0.3832
O21A O 0.2665(3) -0.0036(2) 0.3497(3)
H17A H 0.2888 -0.0299 0.3794
O22A O 0.3904(3) -0.0672(2) 0.2952(3)
H18A H 0.4372 -0.0848 0.3126
O23? O 0.3137(19) 0.3642(14) -0.0406(14)
loop_
_geom_bond_atom_site_label_1
_geom_bond_atom_site_label_2
_geom_bond_site_symmetry_1
_geom_bond_site_symmetry_2
C1 N1 1_555 1_555
C2 C3 1_555 1_555
C3 N2 1_555 1_555
C4 N3 1_555 1_555
C5 H1 1_555 1_555
H2 C5 1_555 1_555
C6 H3 1_555 1_555
H4 C6 1_555 1_555
C7 N5 1_555 1_555
C8 C9 1_555 1_555
C9 N6 1_555 1_555
C10 N7 1_555 1_555
C11 H5 1_555 1_555
H6 C11 1_555 1_555
C12 H7 1_555 1_555
H8 C12 1_555 1_555
C13 N9 1_555 1_555
C14 C15 1_555 1_555
C15 N10 1_555 1_555
C16 N11 1_555 1_555
C17 H9 1_555 1_555
H10 C17 1_555 1_555
C18 H11 1_555 1_555
H12 C18 1_555 1_555
N1 C2 1_555 1_555
N2 C1 1_555 1_555
N3 C2 1_555 1_555
N4 C3 1_555 1_555
N5 C5 1_555 1_555
N6 C7 1_555 1_555
N7 C6 1_555 1_555
N8 C9 1_555 1_555
N9 C11 1_555 1_555
N10 C13 1_555 1_555
N11 C12 1_555 1_555
N12 C15 1_555 1_555
O11 C1 1_555 1_555
O12 C7 1_555 1_555
O13 C13 1_555 1_555
O14 C4 1_555 1_555
O15 C10 1_555 1_555
O16 C16 1_555 1_555
O17 C2 1_555 1_555
H13 O17 1_555 1_555
O18 C3 1_555 1_555
H14 O18 1_555 1_555
O19 C8 1_555 1_555
H15 O19 1_555 1_555
O20 C9 1_555 1_555
H16 O20 1_555 1_555
O21 C14 1_555 1_555
H17 O21 1_555 1_555
O22 C15 1_555 1_555
H18 O22 1_555 1_555
C1A N1A 1_555 1_555
C2A C3A 1_555 1_555
C3A N2A 1_555 1_555
C4A N3A 1_555 1_555
C5A H1A 1_555 1_555
H2A C5A 1_555 1_555
C6A H3A 1_555 1_555
H4A C6A 1_555 1_555
C7A N5A 1_555 1_555
C8A C9A 1_555 1_555
C9A N6A 1_555 1_555
C10A N7A 1_555 1_555
C11A H5A 1_555 1_555
H6A C11A 1_555 1_555
C12A H7A 1_555 1_555
H8A C12A 1_555 1_555
C13A N9A 1_555 1_555
C14A C15A 1_555 1_555
C15A N10A 1_555 1_555
C16A N11A 1_555 1_555
C17A N1 1_555 1_555
H9A C17A 1_555 1_555
H10A C17A 1_555 1_555
C18A N10 1_555 1_555
H11A C18A 1_555 1_555
H12A C18A 1_555 1_555
N1A C17 1_555 1_555
N2A C1A 1_555 1_555
N3A C2A 1_555 1_555
N4A C3A 1_555 1_555
N5A C5A 1_555 1_555
N6A C7A 1_555 1_555
N7A C6A 1_555 1_555
N8A C9A 1_555 1_555
N9A C11A 1_555 1_555
N10A C18 1_555 1_555
N11A C12A 1_555 1_555
N12A C15A 1_555 1_555
O11A C1A 1_555 1_555
O12A C7A 1_555 1_555
O13A C13A 1_555 1_555
O14A C4A 1_555 1_555
O15A C10A 1_555 1_555
O16A C16A 1_555 1_555
O17A C2A 1_555 1_555
H13A O17A 1_555 1_555
O18A C3A 1_555 1_555
H14A O18A 1_555 1_555
O19A C8A 1_555 1_555
H15A O19A 1_555 1_555
O20A C9A 1_555 1_555
H16A O20A 1_555 1_555
O21A C14A 1_555 1_555
H17A O21A 1_555 1_555
O22A C15A 1_555 1_555
H18A O22A 1_555 1_555
C4 N4 1_555 1_555
C5 N2 1_555 1_555
C6 N4 1_555 1_555
C8 N5 1_555 1_555
C8 N7 1_555 1_555
C10 N8 1_555 1_555
C11 N6 1_555 1_555
C12 N8 1_555 1_555
C14 N9 1_555 1_555
C14 N11 1_555 1_555
C16 N12 1_555 1_555
C17 N3 1_555 1_555
C18 N12 1_555 1_555
C2A N1A 1_555 1_555
C4A N4A 1_555 1_555
C5A N2A 1_555 1_555
C6A N4A 1_555 1_555
C8A N5A 1_555 1_555
C8A N7A 1_555 1_555
C10A N8A 1_555 1_555
C11A N6A 1_555 1_555
C12A N8A 1_555 1_555
C13A N10A 1_555 1_555
C14A N9A 1_555 1_555
C14A N11A 1_555 1_555
C16A N12A 1_555 1_555
C17A N3A 1_555 1_555
C18A N12A 1_555 1_555

#END
