
#######################################################################
#
#                 Cambridge Crystallographic Data Centre
#                                CCDC 
#
#######################################################################
#
# If this CIF has been generated from an entry in the Cambridge 
# Structural Database, then it will include bibliographic, chemical, 
# crystal, experimental, refinement or atomic coordinate data resulting 
# from the CCDC's data processing and validation procedures.
#
#######################################################################

data_TEQVAP
_chemical_name_common            'phenylethyl monobenzoylcinnamate'
_chemical_formula_moiety         'C24 H20 O5'
_chemical_name_systematic        
'2-hydroxy-4-[3-oxo-3-(2-phenylethoxy)prop-1-en-1-yl]phenyl benzoate'
_symmetry_cell_setting           monoclinic
_symmetry_space_group_name_H-M   'P 21/n'
_symmetry_Int_Tables_number      14
_space_group_name_Hall           '-P 2yn'
loop_
_symmetry_equiv_pos_site_id
_symmetry_equiv_pos_as_xyz
1 x,y,z
2 1/2-x,1/2+y,1/2-z
3 -x,-y,-z
4 1/2+x,1/2-y,1/2+z
_cell_length_a                   5.4283(9)
_cell_length_b                   33.960(5)
_cell_length_c                   10.6370(15)
_cell_angle_alpha                90
_cell_angle_beta                 99.070(8)
_cell_angle_gamma                90
_cell_volume                     1936.36
_cell_formula_units_Z            4
loop_
_atom_site_label
_atom_site_type_symbol
_atom_site_fract_x
_atom_site_fract_y
_atom_site_fract_z
O1 O 0.6745(2) 0.4625(1) 0.2310(1)
O2 O 0.2912(2) 0.4747(1) 0.1251(1)
O3 O 1.0260(2) 0.6021(1) 0.7561(1)
O4 O 0.6431(2) 0.6541(1) 0.7353(1)
O5 O 0.9647(2) 0.6823(1) 0.6578(1)
C1 C 0.4861(2) 0.4822(1) 0.2151(1)
C2 C 0.4451(2) 0.5172(1) 0.2914(1)
C3 C 0.6181(2) 0.5280(1) 0.3884(1)
C4 C 0.6153(2) 0.5614(1) 0.4755(1)
C5 C 0.8215(2) 0.5658(1) 0.5720(1)
C6 C 0.8348(2) 0.5967(1) 0.6587(1)
C7 C 0.6377(2) 0.6238(1) 0.6457(1)
C8 C 0.4315(2) 0.6198(1) 0.5516(1)
C9 C 0.4190(2) 0.5885(1) 0.4657(1)
C10 C 0.8289(2) 0.6814(1) 0.7367(1)
C11 C 0.8350(2) 0.7097(1) 0.8437(1)
C12 C 1.0205(2) 0.7384(1) 0.8584(1)
C13 C 1.0329(2) 0.7660(1) 0.9561(1)
C14 C 0.8583(2) 0.7651(1) 1.0377(1)
C15 C 0.6730(3) 0.7365(1) 1.0228(1)
C16 C 0.6606(2) 0.7087(1) 0.9264(1)
C17 C 0.3067(2) 0.4395(1) 0.0477(1)
C18 C 0.0622(2) 0.4376(1) -0.0438(1)
C19 C 0.0329(2) 0.3993(1) -0.1184(1)
C20 C 0.1781(3) 0.3913(1) -0.2111(1)
C21 C 0.1480(3) 0.3566(1) -0.2816(1)
C22 C -0.0269(3) 0.3292(1) -0.2594(1)
C23 C -0.1716(3) 0.3368(1) -0.1668(2)
C24 C -0.1414(3) 0.3714(1) -0.0965(2)
loop_
_geom_bond_atom_site_label_1
_geom_bond_atom_site_label_2
_geom_bond_site_symmetry_1
_geom_bond_site_symmetry_2
O1 C1 1_555 1_555
O2 C1 1_555 1_555
O3 C6 1_555 1_555
O4 C7 1_555 1_555
O5 C10 1_555 1_555
C1 C2 1_555 1_555
C2 C3 1_555 1_555
C3 C4 1_555 1_555
C4 C5 1_555 1_555
C5 C6 1_555 1_555
C6 C7 1_555 1_555
C7 C8 1_555 1_555
C8 C9 1_555 1_555
C9 C4 1_555 1_555
C10 O4 1_555 1_555
C11 C10 1_555 1_555
C12 C11 1_555 1_555
C13 C12 1_555 1_555
C14 C13 1_555 1_555
C15 C14 1_555 1_555
C16 C11 1_555 1_555
C17 O2 1_555 1_555
C18 C17 1_555 1_555
C19 C18 1_555 1_555
C20 C19 1_555 1_555
C21 C20 1_555 1_555
C22 C21 1_555 1_555
C23 C22 1_555 1_555
C24 C19 1_555 1_555
C15 C16 1_555 1_555
C23 C24 1_555 1_555

#END
