
#######################################################################
#
#                 Cambridge Crystallographic Data Centre
#                                CCDC 
#
#######################################################################
#
# If this CIF has been generated from an entry in the Cambridge 
# Structural Database, then it will include bibliographic, chemical, 
# crystal, experimental, refinement or atomic coordinate data resulting 
# from the CCDC's data processing and validation procedures.
#
#######################################################################

data_TEQWAO
_chemical_formula_moiety         'C11 H11 Br1 F3 N1 O2'
_chemical_name_systematic        
'Methyl 2-(amino(4-bromophenyl)methyl)-3,3,3-trifluoropropanoate'
_symmetry_cell_setting           monoclinic
_symmetry_space_group_name_H-M   'C 2/c'
_symmetry_Int_Tables_number      15
_space_group_name_Hall           '-C 2yn'
loop_
_symmetry_equiv_pos_site_id
_symmetry_equiv_pos_as_xyz
1 x,y,z
2 1/2+x,1/2+y,z
3 -x,y,1/2-z
4 1/2-x,1/2+y,1/2-z
5 -x,-y,-z
6 1/2-x,1/2-y,-z
7 x,-y,1/2+z
8 1/2+x,1/2-y,1/2+z
_cell_length_a                   21.606(3)
_cell_length_b                   5.4235(7)
_cell_length_c                   24.378(3)
_cell_angle_alpha                90
_cell_angle_beta                 114.506(2)
_cell_angle_gamma                90
_cell_volume                     2599.29
_exptl_crystal_colour            colorless
_chemical_melting_point          72-74deg.C
_cell_formula_units_Z            8
loop_
_atom_site_label
_atom_site_type_symbol
_atom_site_fract_x
_atom_site_fract_y
_atom_site_fract_z
Br1 Br 0.34176(2) 0.44455(9) 1.065260(18)
N1 N 0.27937(17) 0.9629(8) 0.78952(15)
O1 O 0.33909(12) 0.7471(4) 0.69746(11)
O2 O 0.40508(12) 1.0563(4) 0.75041(11)
F1 F 0.48796(10) 0.6075(4) 0.81132(10)
F2 F 0.48972(10) 0.8872(5) 0.87346(11)
F3 F 0.46356(12) 0.5190(4) 0.88561(12)
C1 C 0.34752(17) 0.9050(6) 0.83598(15)
C2 C 0.38220(16) 0.7418(6) 0.80542(15)
C3 C 0.37253(17) 0.8444(7) 0.74481(16)
C4 C 0.4000(2) 1.1656(7) 0.69463(16)
H1 H 0.4163 1.0509 0.6737
H2 H 0.4269 1.3131 0.7033
H3 H 0.3534 1.2054 0.6699
C5 C 0.45525(19) 0.6900(8) 0.84446(18)
C6 C 0.34717(16) 0.7896(6) 0.89252(14)
C7 C 0.38517(18) 0.8862(7) 0.94860(16)
H4 H 0.4123 1.0236 0.9520
C8 C 0.3841(2) 0.7849(8) 0.99987(16)
H5 H 0.4103 0.8525 1.0375
C9 C 0.34431(18) 0.5844(7) 0.99493(15)
C10 C 0.30548(18) 0.4842(6) 0.93993(16)
H6 H 0.2781 0.3482 0.9370
C11 C 0.30719(17) 0.5855(6) 0.88887(15)
H7 H 0.2812 0.5161 0.8514
H8 H 0.3738(14) 1.057(5) 0.8467(13)
H9 H 0.3637(13) 0.586(5) 0.7981(11)
H10 H 0.2572(19) 1.046(6) 0.8047(17)
H11 H 0.2581(17) 0.834(6) 0.7740(16)
loop_
_geom_bond_atom_site_label_1
_geom_bond_atom_site_label_2
_geom_bond_site_symmetry_1
_geom_bond_site_symmetry_2
Br1 C9 1_555 1_555
N1 C1 1_555 1_555
O1 C3 1_555 1_555
O2 C3 1_555 1_555
F1 C5 1_555 1_555
F2 C5 1_555 1_555
F3 C5 1_555 1_555
C1 C2 1_555 1_555
C2 C3 1_555 1_555
C4 O2 1_555 1_555
H1 C4 1_555 1_555
H2 C4 1_555 1_555
H3 C4 1_555 1_555
C5 C2 1_555 1_555
C6 C1 1_555 1_555
C7 C6 1_555 1_555
H4 C7 1_555 1_555
C8 C7 1_555 1_555
H5 C8 1_555 1_555
C9 C8 1_555 1_555
C10 C9 1_555 1_555
H6 C10 1_555 1_555
C11 C6 1_555 1_555
H7 C11 1_555 1_555
H8 C1 1_555 1_555
H9 C2 1_555 1_555
H10 N1 1_555 1_555
H11 N1 1_555 1_555
C10 C11 1_555 1_555

#END
