
#######################################################################
#
#                 Cambridge Crystallographic Data Centre
#                                CCDC 
#
#######################################################################
#
# If this CIF has been generated from an entry in the Cambridge 
# Structural Database, then it will include bibliographic, chemical, 
# crystal, experimental, refinement or atomic coordinate data resulting 
# from the CCDC's data processing and validation procedures.
#
#######################################################################

data_TEQWIV
_chemical_formula_moiety         'C50 H42 N4 O2 P1 1+,Cl1 1-,H2 O1'
_chemical_name_systematic        
'bis(2-Propanolato)-(meso-tetraphenylporphyrinato)-phosphorus(v) chloride monohydrate'
_symmetry_cell_setting           triclinic
_symmetry_space_group_name_H-M   'P -1'
_symmetry_Int_Tables_number      2
_space_group_name_Hall           '-P 1'
loop_
_symmetry_equiv_pos_site_id
_symmetry_equiv_pos_as_xyz
1 x,y,z
2 -x,-y,-z
_cell_length_a                   11.904(2)
_cell_length_b                   12.462(2)
_cell_length_c                   14.816(2)
_cell_angle_alpha                102.63(2)
_cell_angle_beta                 106.93(2)
_cell_angle_gamma                90.51(2)
_cell_volume                     2045.57
_exptl_crystal_colour            red
_cell_formula_units_Z            2
loop_
_atom_site_label
_atom_site_type_symbol
_atom_site_fract_x
_atom_site_fract_y
_atom_site_fract_z
Cl1 Cl 0.2797(2) 0.9199(2) 0.3883(2)
P1 P 0.3677(1) 0.4910(1) 0.2414(1)
O1 O 0.3195(2) 0.4422(2) 0.1229(2)
O2 O 0.4083(2) 0.5289(2) 0.3589(2)
N1 N 0.3475(3) 0.3463(3) 0.2541(2)
N2 N 0.5247(3) 0.4689(3) 0.2476(2)
N3 N 0.3888(3) 0.6333(3) 0.2260(2)
N4 N 0.2109(3) 0.5111(3) 0.2337(2)
C1 C 0.2644(3) 0.3056(3) 0.2902(3)
C2 C 0.2785(4) 0.1908(3) 0.2871(3)
C3 C 0.3602(4) 0.1602(3) 0.2439(3)
C4 C 0.4085(3) 0.2570(3) 0.2269(3)
C5 C 0.5158(4) 0.2660(3) 0.2074(3)
C6 C 0.5738(3) 0.3704(3) 0.2299(3)
C7 C 0.6994(4) 0.3905(4) 0.2574(3)
C8 C 0.7257(3) 0.4991(4) 0.2944(3)
C9 C 0.6179(3) 0.5511(3) 0.2840(3)
C10 C 0.6055(3) 0.6623(3) 0.2905(3)
C11 C 0.4944(3) 0.6983(3) 0.2537(3)
C12 C 0.4720(4) 0.7998(3) 0.2265(3)
C13 C 0.3557(4) 0.7962(3) 0.1792(3)
C14 C 0.3021(3) 0.6954(3) 0.1810(3)
C15 C 0.1822(3) 0.6679(3) 0.1557(3)
C16 C 0.1411(3) 0.5835(3) 0.1878(3)
C17 C 0.0259(4) 0.5701(4) 0.1965(3)
C18 C 0.0263(4) 0.4947(4) 0.2490(4)
C19 C 0.1412(3) 0.4553(3) 0.2708(3)
C20 C 0.1699(4) 0.3620(3) 0.3067(3)
C21 C 0.5764(4) 0.1688(4) 0.1739(3)
C22 C 0.6108(4) 0.0902(4) 0.2280(4)
C23 C 0.6697(5) 0.0011(4) 0.1940(5)
C24 C 0.6930(6) -0.0095(5) 0.1080(6)
C25 C 0.6632(8) 0.0687(7) 0.0574(6)
C26 C 0.6052(6) 0.1569(5) 0.0876(4)
C27 C 0.7104(3) 0.7433(3) 0.3239(3)
C28 C 0.7962(4) 0.7324(4) 0.2761(3)
C29 C 0.8938(4) 0.8081(4) 0.3071(4)
C30 C 0.9061(4) 0.8951(4) 0.3851(4)
C31 C 0.8209(5) 0.9074(4) 0.4322(4)
C32 C 0.7235(4) 0.8329(4) 0.4018(4)
C33 C 0.0958(3) 0.7369(3) 0.1047(3)
C34 C 0.0883(4) 0.8473(4) 0.1465(4)
C35 C 0.0057(5) 0.9070(4) 0.0967(4)
C36 C -0.0697(5) 0.8598(5) 0.0063(4)
C37 C -0.0642(5) 0.7508(5) -0.0335(4)
C38 C 0.0185(5) 0.6901(4) 0.0143(4)
C39 C 0.0852(4) 0.3126(4) 0.3468(4)
C40 C 0.0773(5) 0.3622(5) 0.4379(4)
C41 C -0.0029(6) 0.3204(6) 0.4742(5)
C42 C -0.0733(5) 0.2270(6) 0.4234(6)
C43 C -0.0671(5) 0.1785(5) 0.3340(6)
C44 C 0.0119(5) 0.2204(4) 0.2945(4)
C45 C 0.3942(4) 0.6330(3) 0.4228(3)
C46 C 0.3085(5) 0.6146(6) 0.4751(4)
C47 C 0.5129(5) 0.6734(4) 0.4943(4)
C48 C 0.3727(4) 0.4478(4) 0.0471(3)
C49 C 0.3668(7) 0.3336(5) -0.0115(4)
C50 C 0.3094(5) 0.5213(5) -0.0145(4)
H1 H 0.2367 0.1434 0.3231
H4 H 0.3830 0.0843 0.2235
H5 H 0.7515 0.3342 0.2468
H6 H 0.8095 0.5364 0.3144
H7 H 0.5280 0.8618 0.2387
H8 H 0.3137 0.8503 0.1389
H9 H -0.0396 0.6075 0.1618
H10 H -0.0349 0.4658 0.2617
H11 H 0.5960 0.1039 0.2953
H12 H 0.6916 -0.0461 0.2326
H13 H 0.7199 -0.0715 0.0841
H14 H 0.6661 0.0554 0.0137
H15 H 0.5842 0.2137 0.0450
H16 H 0.7782 0.6704 0.2235
H17 H 0.9557 0.7978 0.2755
H18 H 0.9718 0.9493 0.4023
H19 H 0.8269 0.9647 0.4840
H20 H 0.6586 0.8439 0.4362
H21 H 0.1320 0.8759 0.2145
H22 H 0.0011 0.9776 0.1300
H23 H -0.1261 0.8938 -0.0329
H24 H -0.1174 0.7215 -0.0885
H25 H 0.0198 0.6163 -0.0093
H26 H 0.1335 0.4230 0.4805
H27 H -0.0067 0.3534 0.5302
H28 H -0.1216 0.2035 0.4530
H29 H -0.1131 0.1104 0.2947
H30 H 0.0116 0.1915 0.2323
H31 H 0.3633 0.6789 0.3868
H32 H 0.3323 0.5542 0.5095
H33 H 0.3087 0.6712 0.5294
H34 H 0.2275 0.6067 0.4338
H35 H 0.5752 0.6674 0.4604
H36 H 0.5065 0.7519 0.5288
H37 H 0.5270 0.6305 0.5367
H38 H 0.4493 0.4756 0.0751
H39 H 0.3994 0.3245 -0.0686
H40 H 0.2796 0.3160 -0.0388
H41 H 0.3892 0.2841 0.0251
H42 H 0.3192 0.6024 0.0251
H43 H 0.3378 0.5089 -0.0696
H44 H 0.2281 0.5007 -0.0278
O3 O 0.5295(5) 0.0380(4) 0.4008(3)
H2 H 0.4498 0.0095 0.3884
H3 H 0.5787 0.0606 0.4686
loop_
_geom_bond_atom_site_label_1
_geom_bond_atom_site_label_2
_geom_bond_site_symmetry_1
_geom_bond_site_symmetry_2
P1 O1 1_555 1_555
O1 C48 1_555 1_555
O2 P1 1_555 1_555
O3 H2 1_555 1_555
N1 P1 1_555 1_555
N2 P1 1_555 1_555
N3 P1 1_555 1_555
N4 P1 1_555 1_555
C1 N1 1_555 1_555
C2 C1 1_555 1_555
C3 C2 1_555 1_555
C4 N1 1_555 1_555
C5 C4 1_555 1_555
C6 N2 1_555 1_555
C7 C6 1_555 1_555
C8 C7 1_555 1_555
C9 N2 1_555 1_555
C10 C9 1_555 1_555
C11 N3 1_555 1_555
C12 C11 1_555 1_555
C13 C12 1_555 1_555
C14 N3 1_555 1_555
C15 C14 1_555 1_555
C16 N4 1_555 1_555
C17 C16 1_555 1_555
C18 C17 1_555 1_555
C19 N4 1_555 1_555
C20 C1 1_555 1_555
C21 C5 1_555 1_555
C22 C21 1_555 1_555
C23 C22 1_555 1_555
C24 C23 1_555 1_555
C25 C24 1_555 1_555
C26 C21 1_555 1_555
C27 C10 1_555 1_555
C28 C27 1_555 1_555
C29 C28 1_555 1_555
C30 C29 1_555 1_555
C31 C30 1_555 1_555
C32 C27 1_555 1_555
C33 C15 1_555 1_555
C34 C33 1_555 1_555
C35 C34 1_555 1_555
C36 C35 1_555 1_555
C37 C36 1_555 1_555
C38 C33 1_555 1_555
C39 C20 1_555 1_555
C40 C39 1_555 1_555
C41 C40 1_555 1_555
C42 C41 1_555 1_555
C43 C42 1_555 1_555
C44 C39 1_555 1_555
C45 O2 1_555 1_555
C46 C45 1_555 1_555
C47 C45 1_555 1_555
C48 C49 1_555 1_555
C49 H39 1_555 1_555
C50 C48 1_555 1_555
H1 C2 1_555 1_555
H3 O3 1_555 1_555
H4 C3 1_555 1_555
H5 C7 1_555 1_555
H6 C8 1_555 1_555
H7 C12 1_555 1_555
H8 C13 1_555 1_555
H9 C17 1_555 1_555
H10 C18 1_555 1_555
H11 C22 1_555 1_555
H12 C23 1_555 1_555
H13 C24 1_555 1_555
H14 C25 1_555 1_555
H15 C26 1_555 1_555
H16 C28 1_555 1_555
H17 C29 1_555 1_555
H18 C30 1_555 1_555
H19 C31 1_555 1_555
H20 C32 1_555 1_555
H21 C34 1_555 1_555
H22 C35 1_555 1_555
H23 C36 1_555 1_555
H24 C37 1_555 1_555
H25 C38 1_555 1_555
H26 C40 1_555 1_555
H27 C41 1_555 1_555
H28 C42 1_555 1_555
H29 C43 1_555 1_555
H30 C44 1_555 1_555
H31 C45 1_555 1_555
H32 C46 1_555 1_555
H33 C46 1_555 1_555
H34 C46 1_555 1_555
H35 C47 1_555 1_555
H36 C47 1_555 1_555
H37 C47 1_555 1_555
H38 C48 1_555 1_555
H40 C49 1_555 1_555
H41 C49 1_555 1_555
H42 C50 1_555 1_555
H43 C50 1_555 1_555
H44 C50 1_555 1_555
C3 C4 1_555 1_555
C5 C6 1_555 1_555
C8 C9 1_555 1_555
C10 C11 1_555 1_555
C13 C14 1_555 1_555
C15 C16 1_555 1_555
C18 C19 1_555 1_555
C19 C20 1_555 1_555
C25 C26 1_555 1_555
C31 C32 1_555 1_555
C37 C38 1_555 1_555
C43 C44 1_555 1_555

#END
