
#######################################################################
#
#                 Cambridge Crystallographic Data Centre
#                                CCDC 
#
#######################################################################
#
# If this CIF has been generated from an entry in the Cambridge 
# Structural Database, then it will include bibliographic, chemical, 
# crystal, experimental, refinement or atomic coordinate data resulting 
# from the CCDC's data processing and validation procedures.
#
#######################################################################

data_TERDUQ
_chemical_formula_moiety         'C24 H26 O6'
_chemical_name_systematic        
"2,2-Diphenyl-octahydrospiro((1,3-dioxolo(4,5-c)pyran)-6,2'-pyran)-7-yl acetate"
_symmetry_cell_setting           triclinic
_symmetry_space_group_name_H-M   'P -1'
_symmetry_Int_Tables_number      2
_space_group_name_Hall           '-P 1'
loop_
_symmetry_equiv_pos_site_id
_symmetry_equiv_pos_as_xyz
1 x,y,z
2 -x,-y,-z
_cell_length_a                   8.1563(12)
_cell_length_b                   11.1004(16)
_cell_length_c                   11.9881(17)
_cell_angle_alpha                86.125(2)
_cell_angle_beta                 71.596(2)
_cell_angle_gamma                84.730(2)
_cell_volume                     1024.66
_exptl_crystal_colour            colorless
_exptl_crystal_description       plate
_cell_formula_units_Z            2
loop_
_atom_site_label
_atom_site_type_symbol
_atom_site_fract_x
_atom_site_fract_y
_atom_site_fract_z
O1 O 0.53125(15) 0.65155(10) 0.39245(10)
O2 O 0.74693(14) 0.74241(11) 0.25413(10)
O3 O 0.50865(15) 0.63258(10) 0.65334(10)
O4 O 0.59531(15) 0.82148(10) 0.66057(10)
O5 O 0.75608(14) 0.91393(10) 0.41412(10)
O6 O 1.01822(17) 0.82084(13) 0.40267(14)
C1 C 0.3820(2) 0.65584(16) 0.49466(14)
H1 H 0.3489 0.5723 0.5199
H2 H 0.2844 0.7012 0.4743
C2 C 0.4118(2) 0.71523(15) 0.59617(15)
H3 H 0.2977 0.7410 0.6541
C3 C 0.5267(2) 0.82153(15) 0.56402(14)
H4 H 0.4561 0.8991 0.5589
C4 C 0.6724(2) 0.80185(14) 0.44928(14)
H5 H 0.7582 0.7364 0.4620
C5 C 0.6018(2) 0.76619(15) 0.35342(14)
C6 C 0.4734(2) 0.86149(16) 0.32350(15)
H6 H 0.3676 0.8701 0.3923
H7 H 0.5253 0.9405 0.3066
C7 C 0.4238(2) 0.82852(18) 0.21774(16)
H8 H 0.3527 0.8968 0.1947
H9 H 0.3541 0.7571 0.2386
C8 C 0.5868(2) 0.80014(19) 0.11519(16)
H10 H 0.5550 0.7707 0.0492
H11 H 0.6488 0.8745 0.0873
C9 C 0.7027(2) 0.70478(18) 0.15458(16)
H12 H 0.6433 0.6288 0.1765
H13 H 0.8102 0.6883 0.0886
C10 C 0.5686(2) 0.70540(15) 0.72322(14)
C11 C 0.4309(2) 0.72117(16) 0.84296(15)
C12 C 0.3417(2) 0.83129(17) 0.87838(16)
H14 H 0.3686 0.9018 0.8286
C13 C 0.2126(2) 0.83908(19) 0.98674(17)
H15 H 0.1520 0.9150 1.0106
C14 C 0.1720(2) 0.7374(2) 1.05969(17)
H16 H 0.0836 0.7431 1.1335
C15 C 0.2605(2) 0.62729(19) 1.02489(16)
H17 H 0.2329 0.5569 1.0748
C16 C 0.3890(2) 0.61929(17) 0.91772(16)
H18 H 0.4498 0.5433 0.8947
C17 C 0.7408(2) 0.64875(15) 0.73271(14)
C18 C 0.8209(2) 0.70282(16) 0.80118(15)
H19 H 0.7663 0.7729 0.8429
C19 C 0.9801(2) 0.65459(18) 0.80863(17)
H20 H 1.0346 0.6921 0.8551
C20 C 1.0600(2) 0.55228(18) 0.74889(17)
H21 H 1.1696 0.5198 0.7536
C21 C 0.9801(2) 0.49759(18) 0.68246(17)
H22 H 1.0342 0.4266 0.6422
C22 C 0.8212(2) 0.54540(17) 0.67385(16)
H23 H 0.7673 0.5072 0.6275
C23 C 0.9303(2) 0.90958(17) 0.38913(16)
C24 C 0.9935(3) 1.03120(18) 0.3428(2)
H24 H 1.1165 1.0312 0.3360
H25 H 0.9267 1.0933 0.3968
H26 H 0.9788 1.0487 0.2651
loop_
_geom_bond_atom_site_label_1
_geom_bond_atom_site_label_2
_geom_bond_site_symmetry_1
_geom_bond_site_symmetry_2
O1 C1 1_555 1_555
O2 C5 1_555 1_555
O3 C2 1_555 1_555
O4 C3 1_555 1_555
O5 C4 1_555 1_555
O6 C23 1_555 1_555
C1 H1 1_555 1_555
H2 C1 1_555 1_555
C2 C1 1_555 1_555
H3 C2 1_555 1_555
C3 C2 1_555 1_555
H4 C3 1_555 1_555
C4 C3 1_555 1_555
H5 C4 1_555 1_555
C5 O1 1_555 1_555
C6 C5 1_555 1_555
H6 C6 1_555 1_555
H7 C6 1_555 1_555
C7 C6 1_555 1_555
H8 C7 1_555 1_555
H9 C7 1_555 1_555
C8 C7 1_555 1_555
H10 C8 1_555 1_555
H11 C8 1_555 1_555
C9 O2 1_555 1_555
H12 C9 1_555 1_555
H13 C9 1_555 1_555
C10 O3 1_555 1_555
C11 C10 1_555 1_555
C12 C11 1_555 1_555
H14 C12 1_555 1_555
C13 C12 1_555 1_555
H15 C13 1_555 1_555
C14 C13 1_555 1_555
H16 C14 1_555 1_555
C15 C14 1_555 1_555
H17 C15 1_555 1_555
C16 C11 1_555 1_555
H18 C16 1_555 1_555
C17 C10 1_555 1_555
C18 C17 1_555 1_555
H19 C18 1_555 1_555
C19 C18 1_555 1_555
H20 C19 1_555 1_555
C20 C19 1_555 1_555
H21 C20 1_555 1_555
C21 C20 1_555 1_555
H22 C21 1_555 1_555
C22 C17 1_555 1_555
H23 C22 1_555 1_555
C23 O5 1_555 1_555
C24 C23 1_555 1_555
H24 C24 1_555 1_555
H25 C24 1_555 1_555
H26 C24 1_555 1_555
O4 C10 1_555 1_555
C4 C5 1_555 1_555
C8 C9 1_555 1_555
C15 C16 1_555 1_555
C21 C22 1_555 1_555

#END
