
#######################################################################
#
#                 Cambridge Crystallographic Data Centre
#                                CCDC 
#
#######################################################################
#
# If this CIF has been generated from an entry in the Cambridge 
# Structural Database, then it will include bibliographic, chemical, 
# crystal, experimental, refinement or atomic coordinate data resulting 
# from the CCDC's data processing and validation procedures.
#
#######################################################################

data_TERHEG
_chemical_formula_moiety         'C34 H38 N4 O1 S2'
_chemical_name_systematic        
2,2'-(furan-2,5-diylidenebis(4-octylthiene-5,2-diylidene))dimalononitrile
_symmetry_cell_setting           triclinic
_symmetry_space_group_name_H-M   'P -1'
_symmetry_Int_Tables_number      2
_space_group_name_Hall           '-P 1'
loop_
_symmetry_equiv_pos_site_id
_symmetry_equiv_pos_as_xyz
1 x,y,z
2 -x,-y,-z
_cell_length_a                   10.3888(3)
_cell_length_b                   11.1298(4)
_cell_length_c                   16.3300(4)
_cell_angle_alpha                79.705(3)
_cell_angle_beta                 86.214(4)
_cell_angle_gamma                63.245(5)
_cell_volume                     1658.65
_exptl_crystal_colour            yellow
_exptl_crystal_description       prismatic
_cell_formula_units_Z            2
loop_
_atom_site_label
_atom_site_type_symbol
_atom_site_fract_x
_atom_site_fract_y
_atom_site_fract_z
S1 S 0.84347(6) 0.48043(6) -0.03764(4)
S2 S 1.16845(6) 0.02267(6) -0.04849(4)
O1 O 1.01093(15) 0.21891(14) 0.05475(10)
N1 N 0.5247(3) 0.9996(2) -0.10235(19)
N2 N 0.7596(4) 0.6657(3) -0.2475(2)
N3 N 1.2332(3) -0.0293(3) -0.2653(2)
N4 N 1.4826(3) -0.4492(2) -0.12903(17)
C1 C 0.6864(2) 0.7461(2) -0.10677(17)
C2 C 0.7367(2) 0.6515(2) -0.03465(16)
C3 C 0.7134(2) 0.6763(2) 0.04891(16)
H1 H 0.6580 0.7629 0.0621
C4 C 0.7782(2) 0.5640(2) 0.10770(16)
C5 C 0.8582(2) 0.4433(2) 0.07067(15)
C6 C 0.9402(2) 0.3114(2) 0.10804(16)
C7 C 0.9744(3) 0.2402(2) 0.18983(17)
H2 H 0.9418 0.2778 0.2381
C8 C 1.0630(3) 0.1072(2) 0.18643(18)
H3 H 1.1006 0.0377 0.2319
C9 C 1.0882(2) 0.0926(2) 0.10250(16)
C10 C 1.1691(2) -0.0125(2) 0.05986(16)
C11 C 1.2594(2) -0.1542(2) 0.09012(17)
C12 C 1.3185(2) -0.2257(2) 0.02762(17)
H4 H 1.3793 -0.3189 0.0370
C13 C 1.2807(2) -0.1476(2) -0.05355(17)
C14 C 1.3227(2) -0.1939(2) -0.12860(17)
C15 C 1.2753(3) -0.1039(3) -0.2048(2)
C16 C 1.4121(3) -0.3354(3) -0.12924(17)
C17 C 0.5958(3) 0.8872(3) -0.10443(18)
C18 C 0.7245(3) 0.7034(3) -0.1860(2)
C19 C 0.7720(3) 0.5608(3) 0.20005(17)
H5 H 0.8699 0.5211 0.2217
H6 H 0.7300 0.5008 0.2247
C20 C 0.6878(4) 0.6966(3) 0.22844(19)
H7 H 0.5935 0.7422 0.2015
H8 H 0.7370 0.7529 0.2107
C21 C 0.6686(4) 0.6850(4) 0.3225(2)
H9 H 0.6278 0.6218 0.3409
H10 H 0.7626 0.6471 0.3492
C22 C 0.5748(5) 0.8164(5) 0.3500(3)
H11 H 0.4793 0.8514 0.3258
H12 H 0.6124 0.8812 0.3285
C23 C 0.5614(7) 0.8086(7) 0.4439(4)
H13 H 0.6580 0.7683 0.4675
H14 H 0.5126 0.9013 0.4553
C24 C 0.4900(6) 0.7367(5) 0.4866(3)
H15 H 0.5430 0.6420 0.4794
H16 H 0.3956 0.7723 0.4608
C25 C 0.4700(8) 0.7410(8) 0.5797(4)
H17 H 0.5631 0.7144 0.6046
H18 H 0.4083 0.8346 0.5868
C26 C 0.4116(9) 0.6594(8) 0.6227(4)
H19 H 0.4042 0.6683 0.6805
H20 H 0.4725 0.5660 0.6174
H21 H 0.3175 0.6869 0.6004
C27 C 1.2814(3) -0.2159(3) 0.17958(17)
H22 H 1.2893 -0.1531 0.2109
H23 H 1.3716 -0.2988 0.1865
C28 C 1.1618(3) -0.2495(3) 0.21488(18)
H24 H 1.1620 -0.3212 0.1886
H25 H 1.0702 -0.1695 0.2016
C29 C 1.1751(5) -0.2959(4) 0.3093(3)
H26 H 1.2686 -0.3733 0.3227
H27 H 1.1707 -0.2226 0.3357
C30 C 1.0658(6) -0.3333(5) 0.3428(3)
H28 H 1.0801 -0.4158 0.3234
H29 H 0.9727 -0.2616 0.3218
C31 C 1.0637(8) -0.3585(8) 0.4410(4)
H30 H 1.0118 -0.4120 0.4595
H31 H 1.1620 -0.4116 0.4621
C32 C 0.9976(11) -0.2339(9) 0.4767(4)
H32 H 1.0657 -0.1954 0.4705
H33 H 0.9144 -0.1704 0.4419
C33 C 0.9516(10) -0.2333(10) 0.5594(5)
H34 H 0.8846 -0.2730 0.5664
H35 H 1.0349 -0.2944 0.5948
C34 C 0.8866(10) -0.1118(9) 0.5899(4)
H36 H 0.8650 -0.1292 0.6476
H37 H 0.7990 -0.0516 0.5591
H38 H 0.9507 -0.0701 0.5843
loop_
_geom_bond_atom_site_label_1
_geom_bond_atom_site_label_2
_geom_bond_site_symmetry_1
_geom_bond_site_symmetry_2
S1 C2 1_555 1_555
S2 C10 1_555 1_555
O1 C6 1_555 1_555
N1 C17 1_555 1_555
N2 C18 1_555 1_555
N3 C15 1_555 1_555
N4 C16 1_555 1_555
C1 C2 1_555 1_555
C2 C3 1_555 1_555
C3 H1 1_555 1_555
C4 C3 1_555 1_555
C5 S1 1_555 1_555
C6 C5 1_555 1_555
C7 C6 1_555 1_555
H2 C7 1_555 1_555
C8 C7 1_555 1_555
H3 C8 1_555 1_555
C9 O1 1_555 1_555
C10 C9 1_555 1_555
C11 C10 1_555 1_555
C12 C11 1_555 1_555
H4 C12 1_555 1_555
C13 S2 1_555 1_555
C14 C13 1_555 1_555
C15 C14 1_555 1_555
C16 C14 1_555 1_555
C17 C1 1_555 1_555
C18 C1 1_555 1_555
C19 C4 1_555 1_555
H5 C19 1_555 1_555
H6 C19 1_555 1_555
C20 C19 1_555 1_555
H7 C20 1_555 1_555
H8 C20 1_555 1_555
C21 C20 1_555 1_555
H9 C21 1_555 1_555
H10 C21 1_555 1_555
C22 C21 1_555 1_555
H11 C22 1_555 1_555
H12 C22 1_555 1_555
C23 C22 1_555 1_555
H13 C23 1_555 1_555
H14 C23 1_555 1_555
C24 C23 1_555 1_555
H15 C24 1_555 1_555
H16 C24 1_555 1_555
C25 C24 1_555 1_555
H17 C25 1_555 1_555
H18 C25 1_555 1_555
C26 C25 1_555 1_555
H19 C26 1_555 1_555
H20 C26 1_555 1_555
H21 C26 1_555 1_555
C27 C11 1_555 1_555
H22 C27 1_555 1_555
H23 C27 1_555 1_555
C28 C27 1_555 1_555
H24 C28 1_555 1_555
H25 C28 1_555 1_555
C29 C28 1_555 1_555
H26 C29 1_555 1_555
H27 C29 1_555 1_555
C30 C29 1_555 1_555
H28 C30 1_555 1_555
H29 C30 1_555 1_555
C31 C30 1_555 1_555
H30 C31 1_555 1_555
H31 C31 1_555 1_555
C32 C31 1_555 1_555
H32 C32 1_555 1_555
H33 C32 1_555 1_555
C33 C32 1_555 1_555
H34 C33 1_555 1_555
H35 C33 1_555 1_555
C34 C33 1_555 1_555
H36 C34 1_555 1_555
H37 C34 1_555 1_555
H38 C34 1_555 1_555
C4 C5 1_555 1_555
C8 C9 1_555 1_555
C12 C13 1_555 1_555

#END
