
#######################################################################
#
#                 Cambridge Crystallographic Data Centre
#                                CCDC 
#
#######################################################################
#
# If this CIF has been generated from an entry in the Cambridge 
# Structural Database, then it will include bibliographic, chemical, 
# crystal, experimental, refinement or atomic coordinate data resulting 
# from the CCDC's data processing and validation procedures.
#
#######################################################################

data_TERLEI
_chemical_formula_moiety         'C22 H26 Cl1 N1 O5'
_chemical_name_systematic        
2-Chloroacetyl-1-(3,4-dimethoxybenzyl)-6,7-dimethoxy-1,2,3,4-tetrahydroisoquinoline
_symmetry_cell_setting           monoclinic
_symmetry_space_group_name_H-M   'P 21/n'
_symmetry_Int_Tables_number      14
_space_group_name_Hall           '-P 2yn'
loop_
_symmetry_equiv_pos_site_id
_symmetry_equiv_pos_as_xyz
1 x,y,z
2 1/2-x,1/2+y,1/2-z
3 -x,-y,-z
4 1/2+x,1/2-y,1/2+z
_cell_length_a                   16.380(3)
_cell_length_b                   15.396(3)
_cell_length_c                   16.536(3)
_cell_angle_alpha                90
_cell_angle_beta                 92.24(3)
_cell_angle_gamma                90
_cell_volume                     4166.97
_exptl_crystal_colour            colorless
_exptl_crystal_description       block
_chemical_melting_point          '399 K'
_cell_formula_units_Z            8
_exptl_crystal_recrystallization_method 'ethyl acetate/ethanol'
loop_
_atom_site_label
_atom_site_type_symbol
_atom_site_fract_x
_atom_site_fract_y
_atom_site_fract_z
Cl1 Cl 0.24271(7) 0.68469(8) 0.19169(8)
O1 O 0.40172(16) 0.95490(15) 0.42181(18)
O2 O 0.53271(15) 0.90412(14) 0.35446(17)
O3 O 0.54951(14) 0.19205(14) 0.34776(15)
O4 O 0.64440(13) 0.31732(14) 0.31061(15)
O5 O 0.21620(16) 0.5896(2) 0.3395(2)
N1 N 0.34404(16) 0.54171(17) 0.36854(17)
C1 C 0.3381(3) 0.9881(3) 0.4683(3)
H1 H 0.3353 1.0500 0.4619
H2 H 0.3487 0.9742 0.5243
H3 H 0.2871 0.9627 0.4501
C2 C 0.6068(2) 0.8789(2) 0.3195(3)
H4 H 0.6343 0.9294 0.3002
H5 H 0.5951 0.8400 0.2751
H6 H 0.6412 0.8501 0.3595
C3 C 0.4859(2) 0.8396(2) 0.3856(2)
C4 C 0.50551(19) 0.7521(2) 0.3839(2)
H7 H 0.5522 0.7341 0.3583
C5 C 0.4560(2) 0.6905(2) 0.4202(2)
C6 C 0.3872(2) 0.7191(2) 0.4574(2)
H8 H 0.3537 0.6791 0.4821
C7 C 0.3672(2) 0.8067(2) 0.4586(2)
H9 H 0.3202 0.8245 0.4839
C8 C 0.4156(2) 0.8677(2) 0.4230(2)
C9 C 0.4798(2) 0.59601(19) 0.4200(2)
H10 H 0.4718 0.5724 0.4735
H11 H 0.5376 0.5920 0.4098
C10 C 0.43226(18) 0.53877(19) 0.35722(19)
H12 H 0.4424 0.5616 0.3032
C11 C 0.3172(2) 0.4907(2) 0.4367(2)
H13 H 0.2596 0.5012 0.4444
H14 H 0.3474 0.5083 0.4856
C12 C 0.3310(2) 0.3948(2) 0.4216(2)
H15 H 0.3265 0.3632 0.4719
H16 H 0.2890 0.3735 0.3837
C13 C 0.41365(19) 0.3779(2) 0.38803(19)
C14 C 0.4427(2) 0.2922(2) 0.3849(2)
H17 H 0.4099 0.2471 0.4023
C15 C 0.5181(2) 0.2735(2) 0.3568(2)
C16 C 0.56884(19) 0.3418(2) 0.33407(19)
C17 C 0.54007(18) 0.4261(2) 0.33493(18)
H18 H 0.5734 0.4710 0.3182
C18 C 0.46174(18) 0.44490(19) 0.36050(18)
C19 C 0.6980(2) 0.3838(2) 0.2865(2)
H19 H 0.7488 0.3585 0.2714
H20 H 0.7079 0.4234 0.3306
H21 H 0.6737 0.4145 0.2411
C20 C 0.4975(3) 0.1202(2) 0.3656(3)
H22 H 0.5262 0.0668 0.3571
H23 H 0.4494 0.1221 0.3307
H24 H 0.4823 0.1236 0.4210
C21 C 0.2883(2) 0.5873(2) 0.3239(2)
C22 C 0.3210(2) 0.6370(2) 0.2528(2)
H25 H 0.3521 0.5977 0.2200
H26 H 0.3577 0.6822 0.2730
Cl2 Cl -0.27754(8) 0.59172(8) 0.20884(8)
O6 O -0.10387(14) 0.30533(14) 0.40113(15)
O7 O 0.02825(14) 0.36487(14) 0.33959(16)
O8 O 0.14145(13) 0.94120(14) 0.33332(15)
O9 O 0.05266(14) 1.06827(13) 0.37901(15)
O10 O -0.29576(15) 0.67920(19) 0.3619(2)
N2 N -0.16624(16) 0.72515(16) 0.38667(17)
C23 C -0.1691(2) 0.2694(2) 0.4447(2)
H27 H -0.1722 0.2080 0.4350
H28 H -0.2196 0.2962 0.4269
H29 H -0.1595 0.2799 0.5015
C24 C 0.1012(2) 0.3949(3) 0.3051(3)
H30 H 0.1300 0.3465 0.2831
H31 H 0.1351 0.4226 0.3461
H32 H 0.0878 0.4357 0.2627
C25 C -0.02070(19) 0.4252(2) 0.3739(2)
C26 C -0.00278(19) 0.5132(2) 0.37955(19)
H33 H 0.0435 0.5346 0.3555
C27 C -0.05300(19) 0.57003(19) 0.42074(19)
C28 C -0.1213(2) 0.5365(2) 0.4545(2)
H34 H -0.1552 0.5733 0.4826
C29 C -0.1411(2) 0.4490(2) 0.4479(2)
H35 H -0.1884 0.4281 0.4704
C30 C -0.09097(19) 0.3934(2) 0.40816(19)
C31 C -0.0301(2) 0.66468(19) 0.4292(2)
H36 H 0.0276 0.6708 0.4191
H37 H -0.0379 0.6824 0.4846
C32 C -0.07867(18) 0.72711(19) 0.37233(19)
H38 H -0.0712 0.7079 0.3166
C33 C -0.1897(2) 0.7757(2) 0.4577(2)
H39 H -0.1584 0.7559 0.5052
H40 H -0.2472 0.7666 0.4670
C34 C -0.1740(2) 0.8712(2) 0.4445(2)
H41 H -0.2161 0.8946 0.4078
H42 H -0.1769 0.9017 0.4956
C35 C -0.09184(18) 0.88676(19) 0.41002(19)
C36 C -0.05933(19) 0.9712(2) 0.40980(19)
H43 H -0.0905 1.0169 0.4286
C37 C 0.01732(19) 0.98791(19) 0.38258(19)
C38 C 0.06527(18) 0.9182(2) 0.35644(19)
C39 C 0.03330(18) 0.83571(19) 0.35413(18)
H44 H 0.0645 0.7901 0.3352
C40 C -0.04604(18) 0.81943(19) 0.37996(18)
C41 C 0.0011(2) 1.1422(2) 0.3906(2)
H45 H 0.0328 1.1945 0.3869
H46 H -0.0220 1.1390 0.4430
H47 H -0.0421 1.1428 0.3496
C42 C 0.1928(2) 0.8735(2) 0.3077(2)
H48 H 0.2443 0.8973 0.2929
H49 H 0.1674 0.8446 0.2618
H50 H 0.2015 0.8326 0.3510
C43 C -0.2246(2) 0.6806(2) 0.3439(2)
C44 C -0.1952(2) 0.6321(2) 0.2701(2)
H51 H -0.1606 0.5841 0.2879
H52 H -0.1626 0.6710 0.2383
loop_
_geom_bond_atom_site_label_1
_geom_bond_atom_site_label_2
_geom_bond_site_symmetry_1
_geom_bond_site_symmetry_2
Cl1 C22 1_555 1_555
O1 C1 1_555 1_555
O2 C2 1_555 1_555
O3 C15 1_555 1_555
O4 C16 1_555 1_555
O5 C21 1_555 1_555
N1 C10 1_555 1_555
C1 H1 1_555 1_555
H2 C1 1_555 1_555
H3 C1 1_555 1_555
C2 H4 1_555 1_555
H5 C2 1_555 1_555
H6 C2 1_555 1_555
C3 O2 1_555 1_555
C4 C3 1_555 1_555
H7 C4 1_555 1_555
C5 C4 1_555 1_555
C6 C5 1_555 1_555
H8 C6 1_555 1_555
C7 C6 1_555 1_555
H9 C7 1_555 1_555
C8 O1 1_555 1_555
C9 C5 1_555 1_555
H10 C9 1_555 1_555
H11 C9 1_555 1_555
C10 C9 1_555 1_555
H12 C10 1_555 1_555
C11 N1 1_555 1_555
H13 C11 1_555 1_555
H14 C11 1_555 1_555
C12 C11 1_555 1_555
H15 C12 1_555 1_555
H16 C12 1_555 1_555
C13 C12 1_555 1_555
C14 C13 1_555 1_555
H17 C14 1_555 1_555
C15 C14 1_555 1_555
C16 C15 1_555 1_555
C17 C16 1_555 1_555
H18 C17 1_555 1_555
C18 C10 1_555 1_555
C19 O4 1_555 1_555
H19 C19 1_555 1_555
H20 C19 1_555 1_555
H21 C19 1_555 1_555
C20 O3 1_555 1_555
H22 C20 1_555 1_555
H23 C20 1_555 1_555
H24 C20 1_555 1_555
C21 N1 1_555 1_555
C22 C21 1_555 1_555
H25 C22 1_555 1_555
H26 C22 1_555 1_555
Cl2 C44 1_555 1_555
O6 C23 1_555 1_555
O7 C24 1_555 1_555
O8 C38 1_555 1_555
O9 C37 1_555 1_555
O10 C43 1_555 1_555
N2 C32 1_555 1_555
C23 H27 1_555 1_555
H28 C23 1_555 1_555
H29 C23 1_555 1_555
C24 H30 1_555 1_555
H31 C24 1_555 1_555
H32 C24 1_555 1_555
C25 O7 1_555 1_555
C26 C25 1_555 1_555
H33 C26 1_555 1_555
C27 C26 1_555 1_555
C28 C27 1_555 1_555
H34 C28 1_555 1_555
C29 C28 1_555 1_555
H35 C29 1_555 1_555
C30 O6 1_555 1_555
C31 C27 1_555 1_555
H36 C31 1_555 1_555
H37 C31 1_555 1_555
C32 C31 1_555 1_555
H38 C32 1_555 1_555
C33 N2 1_555 1_555
H39 C33 1_555 1_555
H40 C33 1_555 1_555
C34 C33 1_555 1_555
H41 C34 1_555 1_555
H42 C34 1_555 1_555
C35 C34 1_555 1_555
C36 C35 1_555 1_555
H43 C36 1_555 1_555
C37 C36 1_555 1_555
C38 C37 1_555 1_555
C39 C38 1_555 1_555
H44 C39 1_555 1_555
C40 C32 1_555 1_555
C41 O9 1_555 1_555
H45 C41 1_555 1_555
H46 C41 1_555 1_555
H47 C41 1_555 1_555
C42 O8 1_555 1_555
H48 C42 1_555 1_555
H49 C42 1_555 1_555
H50 C42 1_555 1_555
C43 N2 1_555 1_555
C44 C43 1_555 1_555
H51 C44 1_555 1_555
H52 C44 1_555 1_555
C3 C8 1_555 1_555
C7 C8 1_555 1_555
C13 C18 1_555 1_555
C17 C18 1_555 1_555
C25 C30 1_555 1_555
C29 C30 1_555 1_555
C35 C40 1_555 1_555
C39 C40 1_555 1_555

#END
