
#######################################################################
#
#                 Cambridge Crystallographic Data Centre
#                                CCDC 
#
#######################################################################
#
# If this CIF has been generated from an entry in the Cambridge 
# Structural Database, then it will include bibliographic, chemical, 
# crystal, experimental, refinement or atomic coordinate data resulting 
# from the CCDC's data processing and validation procedures.
#
#######################################################################

data_TERPUE
_chemical_formula_moiety         'C26 H19 N1'
_chemical_name_systematic        6,7-diphenyl-7H-dibenzo[b,d]azepine
_symmetry_cell_setting           monoclinic
_symmetry_space_group_name_H-M   'P 21/c'
_symmetry_Int_Tables_number      14
_space_group_name_Hall           '-P 2ybc'
loop_
_symmetry_equiv_pos_site_id
_symmetry_equiv_pos_as_xyz
1 x,y,z
2 -x,1/2+y,1/2-z
3 -x,-y,-z
4 x,1/2-y,1/2+z
_cell_length_a                   9.317(3)
_cell_length_b                   13.458(4)
_cell_length_c                   14.998(5)
_cell_angle_alpha                90
_cell_angle_beta                 103.396(7)
_cell_angle_gamma                90
_cell_volume                     1829.41
_exptl_crystal_colour            colorless
_exptl_crystal_description       block
_cell_formula_units_Z            4
loop_
_atom_site_label
_atom_site_type_symbol
_atom_site_fract_x
_atom_site_fract_y
_atom_site_fract_z
N1 N 0.3761(3) 0.78110(18) 0.2176(2)
C1 C 0.4612(3) 0.8407(2) 0.2881(2)
C2 C 0.5635(4) 0.7902(3) 0.3544(2)
H1 H 0.5733 0.7218 0.3494
C3 C 0.6510(4) 0.8398(3) 0.4278(2)
H2 H 0.7225 0.8054 0.4701
C4 C 0.6323(4) 0.9400(3) 0.4380(2)
H3 H 0.6901 0.9735 0.4877
C5 C 0.5272(4) 0.9908(3) 0.3740(2)
H4 H 0.5134 1.0583 0.3822
C6 C 0.4413(3) 0.9428(2) 0.2974(2)
C7 C 0.3336(3) 1.0019(2) 0.2298(2)
C8 C 0.2477(4) 1.0756(2) 0.2571(2)
H5 H 0.2577 1.0876 0.3193
C9 C 0.1479(4) 1.1314(3) 0.1941(3)
H6 H 0.0931 1.1810 0.2139
C10 C 0.1301(4) 1.1130(3) 0.1017(3)
H7 H 0.0615 1.1491 0.0590
C11 C 0.2145(4) 1.0410(2) 0.0729(2)
H8 H 0.2022 1.0289 0.0106
C12 C 0.3173(3) 0.9862(2) 0.1352(2)
C13 C 0.4072(3) 0.9064(2) 0.1026(2)
H9 H 0.3796 0.9070 0.0355
C14 C 0.5745(3) 0.9160(2) 0.1310(2)
C15 C 0.6449(4) 1.0048(3) 0.1602(2)
H10 H 0.5891 1.0612 0.1647
C16 C 0.7971(4) 1.0107(3) 0.1827(2)
H11 H 0.8425 1.0708 0.2029
C17 C 0.8824(4) 0.9286(3) 0.1758(2)
H12 H 0.9848 0.9326 0.1916
C18 C 0.8132(4) 0.8409(3) 0.1452(3)
H13 H 0.8692 0.7852 0.1390
C19 C 0.6613(4) 0.8346(3) 0.1235(2)
H14 H 0.6163 0.7743 0.1035
C20 C 0.3496(3) 0.8090(2) 0.1336(2)
C21 C 0.2486(3) 0.7457(2) 0.0646(2)
C22 C 0.2589(4) 0.7418(2) -0.0265(3)
H15 H 0.3311 0.7785 -0.0453
C23 C 0.1621(4) 0.6835(3) -0.0892(3)
H16 H 0.1711 0.6804 -0.1496
C24 C 0.0531(4) 0.6304(3) -0.0631(3)
H17 H -0.0143 0.5935 -0.1058
C25 C 0.0448(4) 0.6326(3) 0.0273(3)
H18 H -0.0269 0.5950 0.0457
C26 C 0.1405(4) 0.6893(2) 0.0912(2)
H19 H 0.1328 0.6898 0.1519
loop_
_geom_bond_atom_site_label_1
_geom_bond_atom_site_label_2
_geom_bond_site_symmetry_1
_geom_bond_site_symmetry_2
N1 C1 1_555 1_555
C1 C2 1_555 1_555
C2 H1 1_555 1_555
C3 C2 1_555 1_555
H2 C3 1_555 1_555
C4 C3 1_555 1_555
H3 C4 1_555 1_555
C5 C4 1_555 1_555
H4 C5 1_555 1_555
C6 C1 1_555 1_555
C7 C6 1_555 1_555
C8 C7 1_555 1_555
H5 C8 1_555 1_555
C9 C8 1_555 1_555
H6 C9 1_555 1_555
C10 C9 1_555 1_555
H7 C10 1_555 1_555
C11 C10 1_555 1_555
H8 C11 1_555 1_555
C12 C7 1_555 1_555
C13 C12 1_555 1_555
H9 C13 1_555 1_555
C14 C13 1_555 1_555
C15 C14 1_555 1_555
H10 C15 1_555 1_555
C16 C15 1_555 1_555
H11 C16 1_555 1_555
C17 C16 1_555 1_555
H12 C17 1_555 1_555
C18 C17 1_555 1_555
H13 C18 1_555 1_555
C19 C14 1_555 1_555
H14 C19 1_555 1_555
C20 N1 1_555 1_555
C21 C20 1_555 1_555
C22 C21 1_555 1_555
H15 C22 1_555 1_555
C23 C22 1_555 1_555
H16 C23 1_555 1_555
C24 C23 1_555 1_555
H17 C24 1_555 1_555
C25 C24 1_555 1_555
H18 C25 1_555 1_555
C26 C21 1_555 1_555
H19 C26 1_555 1_555
C5 C6 1_555 1_555
C11 C12 1_555 1_555
C13 C20 1_555 1_555
C18 C19 1_555 1_555
C25 C26 1_555 1_555

#END
