
#######################################################################
#
#                 Cambridge Crystallographic Data Centre
#                                CCDC 
#
#######################################################################
#
# If this CIF has been generated from an entry in the Cambridge 
# Structural Database, then it will include bibliographic, chemical, 
# crystal, experimental, refinement or atomic coordinate data resulting 
# from the CCDC's data processing and validation procedures.
#
#######################################################################

data_TERPEM01
_chemical_formula_moiety         'C27 H17 F1 O1'
_chemical_name_systematic        14-(4-fluorophenyl)-14H-dibenzo[a,j]xanthene
_symmetry_cell_setting           orthorhombic
_symmetry_space_group_name_H-M   'P n a 21'
_symmetry_Int_Tables_number      33
_space_group_name_Hall           'P 2c -2n'
loop_
_symmetry_equiv_pos_site_id
_symmetry_equiv_pos_as_xyz
1 x,y,z
2 -x,-y,1/2+z
3 1/2+x,1/2-y,z
4 1/2-x,1/2+y,1/2+z
_cell_length_a                   13.757(4)
_cell_length_b                   17.346(6)
_cell_length_c                   7.846(3)
_cell_angle_alpha                90
_cell_angle_beta                 90
_cell_angle_gamma                90
_cell_volume                     1872.28
_cell_formula_units_Z            4
loop_
_atom_site_label
_atom_site_type_symbol
_atom_site_fract_x
_atom_site_fract_y
_atom_site_fract_z
C1 C 0.85367(19) 0.46078(14) 0.1226(4)
C2 C 0.75570(16) 0.46790(14) 0.1135(4)
H1 H 0.7239 0.4712 0.0091
C3 C 0.70476(15) 0.47008(12) 0.2654(3)
H2 H 0.6375 0.4753 0.2620
C4 C 0.75035(13) 0.46480(10) 0.4226(3)
C5 C 0.85089(15) 0.45684(11) 0.4247(4)
H3 H 0.8835 0.4527 0.5281
C6 C 0.90288(16) 0.45510(13) 0.2727(5)
H4 H 0.9702 0.4501 0.2735
C7 C 0.69041(13) 0.47109(11) 0.5873(3)
H5 H 0.7340 0.4633 0.6846
C8 C 0.64619(14) 0.55106(11) 0.6008(3)
C9 C 0.70138(15) 0.61610(12) 0.6568(3)
C10 C 0.79828(16) 0.61064(13) 0.7163(3)
H6 H 0.8282 0.5626 0.7202
C11 C 0.8491(2) 0.67443(15) 0.7683(4)
H7 H 0.9128 0.6690 0.8061
C12 C 0.8070(2) 0.74666(15) 0.7652(4)
H8 H 0.8423 0.7896 0.8001
C13 C 0.7144(2) 0.75471(13) 0.7115(4)
H9 H 0.6864 0.8035 0.7114
C14 C 0.65825(17) 0.69052(12) 0.6547(3)
C15 C 0.56178(18) 0.69809(14) 0.5957(4)
H10 H 0.5336 0.7468 0.5914
C16 C 0.50934(16) 0.63639(14) 0.5452(4)
H11 H 0.4456 0.6424 0.5082
C17 C 0.55263(15) 0.56274(12) 0.5495(3)
C18 C 0.51899(13) 0.42863(12) 0.5437(3)
C19 C 0.44379(15) 0.37432(15) 0.5332(3)
H12 H 0.3824 0.3889 0.4954
C20 C 0.46144(17) 0.30052(14) 0.5787(4)
H13 H 0.4124 0.2640 0.5670
C21 C 0.55243(16) 0.27785(13) 0.6432(3)
C22 C 0.5701(2) 0.20167(14) 0.7024(4)
H14 H 0.5200 0.1657 0.6992
C23 C 0.6574(2) 0.18043(15) 0.7627(4)
H15 H 0.6674 0.1302 0.8003
C24 C 0.7329(2) 0.23383(14) 0.7689(4)
H16 H 0.7932 0.2189 0.8110
C25 C 0.71971(15) 0.30807(13) 0.7139(3)
H17 H 0.7714 0.3425 0.7182
C26 C 0.62925(14) 0.33312(12) 0.6509(3)
C27 C 0.61062(13) 0.41047(11) 0.5947(3)
F1 F 0.90571(12) 0.45814(10) -0.0271(3)
O1 O 0.49277(10) 0.50293(10) 0.4960(3)
loop_
_geom_bond_atom_site_label_1
_geom_bond_atom_site_label_2
_geom_bond_site_symmetry_1
_geom_bond_site_symmetry_2
C1 C2 1_555 1_555
C2 H1 1_555 1_555
C3 C2 1_555 1_555
H2 C3 1_555 1_555
C4 C3 1_555 1_555
C5 C4 1_555 1_555
H3 C5 1_555 1_555
C6 C1 1_555 1_555
H4 C6 1_555 1_555
C7 C4 1_555 1_555
H5 C7 1_555 1_555
C8 C7 1_555 1_555
C9 C8 1_555 1_555
C10 C9 1_555 1_555
H6 C10 1_555 1_555
C11 C10 1_555 1_555
H7 C11 1_555 1_555
C12 C11 1_555 1_555
H8 C12 1_555 1_555
C13 C12 1_555 1_555
H9 C13 1_555 1_555
C14 C9 1_555 1_555
C15 C14 1_555 1_555
H10 C15 1_555 1_555
C16 C15 1_555 1_555
H11 C16 1_555 1_555
C17 C8 1_555 1_555
C18 C19 1_555 1_555
C19 H12 1_555 1_555
C20 C19 1_555 1_555
H13 C20 1_555 1_555
C21 C20 1_555 1_555
C22 C21 1_555 1_555
H14 C22 1_555 1_555
C23 C22 1_555 1_555
H15 C23 1_555 1_555
C24 C23 1_555 1_555
H16 C24 1_555 1_555
C25 C24 1_555 1_555
H17 C25 1_555 1_555
C26 C21 1_555 1_555
C27 C7 1_555 1_555
F1 C1 1_555 1_555
O1 C17 1_555 1_555
C5 C6 1_555 1_555
C13 C14 1_555 1_555
C16 C17 1_555 1_555
C18 C27 1_555 1_555
C18 O1 1_555 1_555
C25 C26 1_555 1_555
C26 C27 1_555 1_555

#END
