
#######################################################################
#
#                 Cambridge Crystallographic Data Centre
#                                CCDC 
#
#######################################################################
#
# If this CIF has been generated from an entry in the Cambridge 
# Structural Database, then it will include bibliographic, chemical, 
# crystal, experimental, refinement or atomic coordinate data resulting 
# from the CCDC's data processing and validation procedures.
#
#######################################################################

data_TERQOX
_chemical_formula_moiety         'C14 H18 Cl1 N1 O2'
_chemical_name_systematic        
'Methyl 4-(4-chlorophenyl)-1-methylpiperidine-3-carboxylate'
_symmetry_cell_setting           triclinic
_symmetry_space_group_name_H-M   'P -1'
_symmetry_Int_Tables_number      2
_space_group_name_Hall           '-P 1'
loop_
_symmetry_equiv_pos_site_id
_symmetry_equiv_pos_as_xyz
1 x,y,z
2 -x,-y,-z
_cell_length_a                   5.4546(11)
_cell_length_b                   10.238(2)
_cell_length_c                   13.615(3)
_cell_angle_alpha                69.01(3)
_cell_angle_beta                 84.09(3)
_cell_angle_gamma                83.24(3)
_cell_volume                     703.414
_exptl_crystal_colour            colorless
_exptl_crystal_description       prism
_cell_formula_units_Z            2
_exptl_crystal_recrystallization_method 'ethyl acetate/hexane'
loop_
_atom_site_label
_atom_site_type_symbol
_atom_site_fract_x
_atom_site_fract_y
_atom_site_fract_z
Cl1 Cl 0.43404(12) 0.67712(6) 0.27134(4)
O1 O 0.06892(19) 0.62876(12) 0.73732(9)
O2 O 0.25666(19) 0.48660(10) 0.87963(8)
N1 N 0.3172(3) 0.82552(14) 0.87380(10)
C1 C 0.2488(3) 0.79405(19) 0.41425(13)
H1 H 0.112(4) 0.827(2) 0.3727(16)
C2 C 0.6381(3) 0.65966(18) 0.44864(14)
H2 H 0.772(4) 0.605(2) 0.4300(17)
C3 C 0.3212(5) 0.95217(18) 0.77948(15)
H3 H 0.481(4) 0.996(2) 0.7699(16)
H4 H 0.201(4) 1.020(2) 0.7900(16)
C4 C 0.2779(4) 0.92191(16) 0.68180(13)
H5 H 0.112(3) 0.8902(17) 0.6893(13)
H6 H 0.289(3) 1.008(2) 0.6198(15)
C5 C 0.4705(2) 0.67748(14) 0.76952(10)
H7 H 0.609(3) 0.6114(16) 0.7637(12)
C6 C 0.6423(3) 0.69100(17) 0.53889(12)
H8 H 0.776(3) 0.6566(18) 0.5811(14)
C7 C 0.2549(3) 0.82377(18) 0.50507(12)
H9 H 0.125(4) 0.881(2) 0.5223(15)
C8 C 0.2422(2) 0.59953(14) 0.79079(10)
C9 C 0.5120(3) 0.72103(17) 0.86209(12)
H10 H 0.513(3) 0.6380(18) 0.9289(14)
H11 H 0.678(3) 0.7572(18) 0.8494(14)
C10 C 0.4412(3) 0.71253(16) 0.38681(12)
C11 C 0.0520(4) 0.4003(2) 0.90636(17)
H12 H 0.044(4) 0.371(2) 0.851(2)
H13 H 0.078(4) 0.332(3) 0.972(2)
H14 H -0.112(5) 0.458(3) 0.913(2)
C12 C 0.4511(2) 0.77338(14) 0.56916(11)
C13 C 0.4679(3) 0.80729(15) 0.66755(11)
H15 H 0.628(3) 0.8388(16) 0.6619(12)
C14 C 0.3544(6) 0.8595(3) 0.96614(17)
H16 H 0.235(5) 0.927(3) 0.974(2)
H17 H 0.351(4) 0.773(3) 1.030(2)
H18 H 0.506(5) 0.902(3) 0.9574(19)
loop_
_geom_bond_atom_site_label_1
_geom_bond_atom_site_label_2
_geom_bond_site_symmetry_1
_geom_bond_site_symmetry_2
Cl1 C10 1_555 1_555
O1 C8 1_555 1_555
O2 C8 1_555 1_555
N1 C3 1_555 1_555
C1 H1 1_555 1_555
C2 H2 1_555 1_555
C3 H3 1_555 1_555
H4 C3 1_555 1_555
C4 C3 1_555 1_555
H5 C4 1_555 1_555
H6 C4 1_555 1_555
C5 H7 1_555 1_555
C6 C2 1_555 1_555
H8 C6 1_555 1_555
C7 C1 1_555 1_555
H9 C7 1_555 1_555
C8 C5 1_555 1_555
C9 N1 1_555 1_555
H10 C9 1_555 1_555
H11 C9 1_555 1_555
C10 C1 1_555 1_555
C11 O2 1_555 1_555
H12 C11 1_555 1_555
H13 C11 1_555 1_555
H14 C11 1_555 1_555
C12 C6 1_555 1_555
C13 C4 1_555 1_555
H15 C13 1_555 1_555
C14 N1 1_555 1_555
H16 C14 1_555 1_555
H17 C14 1_555 1_555
H18 C14 1_555 1_555
C2 C10 1_555 1_555
C5 C9 1_555 1_555
C5 C13 1_555 1_555
C7 C12 1_555 1_555
C12 C13 1_555 1_555

#END
