
#######################################################################
#
#                 Cambridge Crystallographic Data Centre
#                                CCDC 
#
#######################################################################
#
# If this CIF has been generated from an entry in the Cambridge 
# Structural Database, then it will include bibliographic, chemical, 
# crystal, experimental, refinement or atomic coordinate data resulting 
# from the CCDC's data processing and validation procedures.
#
#######################################################################

data_TERQEP
_chemical_formula_moiety         'C26 H19 N1 O2,0.5(C1 H2 Cl2)'
_chemical_name_systematic        
'6,7-diphenyl-7H-dibenzo[b,d]azepine-7-peroxol dichloromethane solvate'
_symmetry_cell_setting           triclinic
_symmetry_space_group_name_H-M   'P -1'
_symmetry_Int_Tables_number      2
_space_group_name_Hall           '-P 1'
loop_
_symmetry_equiv_pos_site_id
_symmetry_equiv_pos_as_xyz
1 x,y,z
2 -x,-y,-z
_cell_length_a                   10.2129(17)
_cell_length_b                   12.631(2)
_cell_length_c                   17.689(3)
_cell_angle_alpha                85.673(3)
_cell_angle_beta                 85.608(3)
_cell_angle_gamma                71.221(3)
_cell_volume                     2150.93
_exptl_crystal_colour            colorless
_exptl_crystal_description       block
_cell_formula_units_Z            4
loop_
_atom_site_label
_atom_site_type_symbol
_atom_site_fract_x
_atom_site_fract_y
_atom_site_fract_z
O1 O 0.5864(3) 1.0815(2) 0.22512(18)
O2 O 0.5411(4) 1.1516(3) 0.15697(18)
H1 H 0.5086 1.2200 0.1556
N1 N 0.3920(4) 0.8855(3) 0.2146(2)
C1 C 0.5289(4) 0.9765(3) 0.3287(2)
C2 C 0.4811(5) 0.9377(3) 0.2032(2)
C3 C 0.3406(5) 1.1284(3) 0.2596(3)
C4 C 0.4809(5) 1.0333(3) 0.2526(3)
C5 C 0.4451(5) 0.9232(4) 0.3734(3)
C6 C 0.5915(5) 0.8981(4) 0.1424(3)
C7 C 0.2885(5) 0.9070(4) 0.2740(3)
C8 C 0.3119(5) 0.9209(4) 0.3488(3)
C9 C 0.6529(5) 0.9764(4) 0.3564(3)
H2 H 0.7076 1.0128 0.3279
C10 C 0.4932(6) 0.8708(4) 0.4437(3)
H3 H 0.4393 0.8355 0.4740
C11 C 0.3195(5) 1.1995(4) 0.3177(3)
H4 H 0.3865 1.1866 0.3531
C12 C 0.1996(6) 1.2904(5) 0.3241(4)
H5 H 0.1857 1.3376 0.3639
C13 C 0.6958(6) 0.9230(5) 0.4253(3)
H6 H 0.7796 0.9229 0.4426
C14 C 0.1226(6) 1.2413(5) 0.2121(4)
H7 H 0.0561 1.2555 0.1763
C15 C 0.1594(5) 0.9007(4) 0.2560(4)
H8 H 0.1457 0.8871 0.2067
C16 C 0.0536(6) 0.9146(5) 0.3109(5)
H9 H -0.0328 0.9135 0.2983
C17 C 0.5543(7) 0.8827(5) 0.0717(3)
H10 H 0.4611 0.9027 0.0618
C18 C 0.2422(5) 1.1505(4) 0.2055(3)
H11 H 0.2566 1.1046 0.1650
C19 C 0.6158(6) 0.8703(5) 0.4684(3)
H12 H 0.6456 0.8341 0.5147
C20 C 0.6535(10) 0.8382(6) 0.0157(4)
H13 H 0.6269 0.8280 -0.0316
C21 C 0.7899(11) 0.8090(6) 0.0289(5)
H14 H 0.8567 0.7797 -0.0094
C22 C 0.7305(6) 0.8681(5) 0.1560(4)
H15 H 0.7574 0.8783 0.2033
C23 C 0.2017(6) 0.9321(5) 0.4032(4)
H16 H 0.2149 0.9412 0.4535
C24 C 0.0752(6) 0.9300(5) 0.3843(4)
H17 H 0.0035 0.9391 0.4214
C25 C 0.8292(7) 0.8230(5) 0.0996(4)
H18 H 0.9227 0.8019 0.1091
C26 C 0.1015(6) 1.3103(5) 0.2714(4)
H19 H 0.0205 1.3707 0.2757
O3 O 0.3349(4) 0.6522(3) 0.22325(19)
O4 O 0.4011(4) 0.6809(3) 0.15266(18)
H20 H 0.4187 0.7391 0.1568
N2 N 0.5168(4) 0.3508(3) 0.2302(2)
C27 C 0.5569(5) 0.3658(4) 0.3657(3)
C28 C 0.3568(5) 0.4612(4) 0.1438(3)
C29 C 0.5670(5) 0.5681(3) 0.2645(3)
C30 C 0.4381(5) 0.4487(3) 0.2119(3)
C31 C 0.6014(5) 0.3253(4) 0.2933(3)
C32 C 0.4253(6) 0.4161(4) 0.0772(3)
H21 H 0.5201 0.3789 0.0763
C33 C 0.4272(5) 0.5514(4) 0.2571(2)
C34 C 0.3517(5) 0.5343(4) 0.3332(3)
C35 C 0.4181(5) 0.4453(4) 0.3831(3)
C36 C 0.2196(6) 0.6052(4) 0.3528(3)
H22 H 0.1759 0.6643 0.3194
C37 C 0.6753(5) 0.5312(4) 0.2112(3)
H23 H 0.6653 0.4908 0.1714
C38 C 0.3466(6) 0.4332(5) 0.4531(3)
H24 H 0.3891 0.3754 0.4878
C39 C 0.7807(7) 0.2559(5) 0.4103(4)
H25 H 0.8416 0.2341 0.4493
C40 C 0.2149(6) 0.5174(5) 0.1439(3)
H26 H 0.1671 0.5488 0.1878
C41 C 0.7329(5) 0.2484(4) 0.2815(3)
H27 H 0.7603 0.2191 0.2341
C42 C 0.6510(6) 0.3277(4) 0.4235(3)
H28 H 0.6235 0.3524 0.4722
C43 C 0.8226(6) 0.2152(5) 0.3391(4)
H29 H 0.9112 0.1655 0.3302
C44 C 0.5844(5) 0.6292(4) 0.3229(3)
H30 H 0.5126 0.6553 0.3593
C45 C 0.7979(6) 0.5533(5) 0.2160(3)
H31 H 0.8699 0.5272 0.1797
C46 C 0.7073(6) 0.6518(5) 0.3275(4)
H32 H 0.7174 0.6929 0.3669
C47 C 0.3547(8) 0.4258(5) 0.0125(3)
H33 H 0.4019 0.3950 -0.0318
C48 C 0.1532(7) 0.5888(6) 0.4209(4)
H34 H 0.0643 0.6358 0.4329
C49 C 0.2136(8) 0.4812(6) 0.0133(4)
H35 H 0.1657 0.4876 -0.0304
C50 C 0.2178(7) 0.5030(6) 0.4716(3)
H36 H 0.1734 0.4930 0.5182
C51 C 0.1453(7) 0.5262(6) 0.0783(4)
H37 H 0.0505 0.5634 0.0787
C52 C 0.8147(6) 0.6138(5) 0.2743(4)
H38 H 0.8975 0.6287 0.2775
Cl1 Cl 0.9499(3) 0.0734(2) 0.11102(15)
Cl2 Cl 0.7863(3) 0.2148(3) -0.0052(2)
C53 C 0.8208(8) 0.0939(7) 0.0480(4)
H39 H 0.8479 0.0322 0.0145
H40 H 0.7366 0.0920 0.0766
loop_
_geom_bond_atom_site_label_1
_geom_bond_atom_site_label_2
_geom_bond_site_symmetry_1
_geom_bond_site_symmetry_2
O1 O2 1_555 1_555
O2 H1 1_555 1_555
N1 C2 1_555 1_555
C1 C4 1_555 1_555
C2 C4 1_555 1_555
C3 C4 1_555 1_555
C4 O1 1_555 1_555
C5 C1 1_555 1_555
C6 C2 1_555 1_555
C7 N1 1_555 1_555
C8 C5 1_555 1_555
C9 C1 1_555 1_555
H2 C9 1_555 1_555
C10 C5 1_555 1_555
H3 C10 1_555 1_555
C11 C3 1_555 1_555
H4 C11 1_555 1_555
C12 C11 1_555 1_555
H5 C12 1_555 1_555
C13 C9 1_555 1_555
H6 C13 1_555 1_555
C14 H7 1_555 1_555
C15 C7 1_555 1_555
H8 C15 1_555 1_555
C16 C15 1_555 1_555
H9 C16 1_555 1_555
C17 C6 1_555 1_555
H10 C17 1_555 1_555
C18 C3 1_555 1_555
H11 C18 1_555 1_555
C19 C10 1_555 1_555
H12 C19 1_555 1_555
C20 C17 1_555 1_555
H13 C20 1_555 1_555
C21 C20 1_555 1_555
H14 C21 1_555 1_555
C22 C6 1_555 1_555
H15 C22 1_555 1_555
C23 C8 1_555 1_555
H16 C23 1_555 1_555
C24 C16 1_555 1_555
H17 C24 1_555 1_555
C25 C21 1_555 1_555
H18 C25 1_555 1_555
C26 C12 1_555 1_555
H19 C26 1_555 1_555
O3 O4 1_555 1_555
O4 H20 1_555 1_555
N2 C30 1_555 1_555
C27 C31 1_555 1_555
C28 C30 1_555 1_555
C29 C33 1_555 1_555
C30 C33 1_555 1_555
C31 N2 1_555 1_555
C32 C28 1_555 1_555
H21 C32 1_555 1_555
C33 O3 1_555 1_555
C34 C33 1_555 1_555
C35 C27 1_555 1_555
C36 C34 1_555 1_555
H22 C36 1_555 1_555
C37 C29 1_555 1_555
H23 C37 1_555 1_555
C38 C35 1_555 1_555
H24 C38 1_555 1_555
C39 H25 1_555 1_555
C40 C28 1_555 1_555
H26 C40 1_555 1_555
C41 C31 1_555 1_555
H27 C41 1_555 1_555
C42 C27 1_555 1_555
H28 C42 1_555 1_555
C43 C39 1_555 1_555
H29 C43 1_555 1_555
C44 C29 1_555 1_555
H30 C44 1_555 1_555
C45 C37 1_555 1_555
H31 C45 1_555 1_555
C46 C44 1_555 1_555
H32 C46 1_555 1_555
C47 C32 1_555 1_555
H33 C47 1_555 1_555
C48 C36 1_555 1_555
H34 C48 1_555 1_555
C49 C47 1_555 1_555
H35 C49 1_555 1_555
C50 C38 1_555 1_555
H36 C50 1_555 1_555
C51 C40 1_555 1_555
H37 C51 1_555 1_555
C52 C45 1_555 1_555
H38 C52 1_555 1_555
Cl1 C53 1_555 1_555
Cl2 C53 1_555 1_555
C53 H39 1_555 1_555
H40 C53 1_555 1_555
C7 C8 1_555 1_555
C13 C19 1_555 1_555
C14 C18 1_555 1_555
C14 C26 1_555 1_555
C22 C25 1_555 1_555
C23 C24 1_555 1_555
C34 C35 1_555 1_555
C39 C42 1_555 1_555
C41 C43 1_555 1_555
C46 C52 1_555 1_555
C48 C50 1_555 1_555
C49 C51 1_555 1_555

#END
