
#######################################################################
#
#                 Cambridge Crystallographic Data Centre
#                                CCDC 
#
#######################################################################
#
# If this CIF has been generated from an entry in the Cambridge 
# Structural Database, then it will include bibliographic, chemical, 
# crystal, experimental, refinement or atomic coordinate data resulting 
# from the CCDC's data processing and validation procedures.
#
#######################################################################

data_TERQAJ
_chemical_formula_moiety         'C8 H8 Br2'
_chemical_name_systematic        1,3-bis(Bromomethyl)benzene
_symmetry_cell_setting           monoclinic
_symmetry_space_group_name_H-M   'P 21/n'
_symmetry_Int_Tables_number      14
_space_group_name_Hall           '-P 2yn'
loop_
_symmetry_equiv_pos_site_id
_symmetry_equiv_pos_as_xyz
1 x,y,z
2 1/2-x,1/2+y,1/2-z
3 -x,-y,-z
4 1/2+x,1/2-y,1/2+z
_cell_length_a                   13.084(2)
_cell_length_b                   4.5374(8)
_cell_length_c                   15.075(3)
_cell_angle_alpha                90
_cell_angle_beta                 93.846(3)
_cell_angle_gamma                90
_cell_volume                     892.947
_exptl_crystal_colour            colorless
_exptl_crystal_description       'thick plate'
_cell_formula_units_Z            4
_exptl_crystal_recrystallization_method acetonitrile
loop_
_atom_site_label
_atom_site_type_symbol
_atom_site_fract_x
_atom_site_fract_y
_atom_site_fract_z
Br1 Br 1.14084(4) 0.13612(12) 0.54062(4)
Br2 Br 0.78109(4) -0.11695(13) 0.88989(4)
C1 C 1.0528(4) 0.2013(10) 0.7084(3)
C2 C 0.9747(3) 0.0101(10) 0.7284(3)
H1 H 0.9224 -0.0293 0.6852
C3 C 0.9724(4) -0.1217(9) 0.8098(4)
C4 C 1.0508(4) -0.0605(12) 0.8732(4)
H2 H 1.0511 -0.1488 0.9289
C5 C 1.1285(4) 0.1305(12) 0.8546(4)
H3 H 1.1806 0.1726 0.8977
C6 C 1.1286(4) 0.2572(13) 0.7726(4)
H4 H 1.1814 0.3846 0.7602
C7 C 1.0501(5) 0.3407(12) 0.6194(4)
H5 H 1.0712 0.5451 0.6257
H6 H 0.9805 0.3372 0.5929
C8 C 0.8883(4) -0.3254(12) 0.8302(5)
H7 H 0.9157 -0.4834 0.8681
H8 H 0.8591 -0.4124 0.7754
loop_
_geom_bond_atom_site_label_1
_geom_bond_atom_site_label_2
_geom_bond_site_symmetry_1
_geom_bond_site_symmetry_2
Br1 C7 1_555 1_555
Br2 C8 1_555 1_555
C1 C2 1_555 1_555
C2 H1 1_555 1_555
C3 C2 1_555 1_555
C4 C3 1_555 1_555
H2 C4 1_555 1_555
C5 C4 1_555 1_555
H3 C5 1_555 1_555
C6 C1 1_555 1_555
H4 C6 1_555 1_555
C7 C1 1_555 1_555
H5 C7 1_555 1_555
H6 C7 1_555 1_555
C8 C3 1_555 1_555
H7 C8 1_555 1_555
H8 C8 1_555 1_555
C5 C6 1_555 1_555

#END
