
#######################################################################
#
#                 Cambridge Crystallographic Data Centre
#                                CCDC 
#
#######################################################################
#
# If this CIF has been generated from an entry in the Cambridge 
# Structural Database, then it will include bibliographic, chemical, 
# crystal, experimental, refinement or atomic coordinate data resulting 
# from the CCDC's data processing and validation procedures.
#
#######################################################################

data_TERVEU
_chemical_formula_moiety         'C18 H20 N2 O6'
_chemical_name_systematic        
1,1'-(butane-1,4-diylbis(oxy))bis(4-methyl-2-nitrobenzene)
_symmetry_cell_setting           monoclinic
_symmetry_space_group_name_H-M   'P 21/n'
_symmetry_Int_Tables_number      14
_space_group_name_Hall           '-P 2yn'
loop_
_symmetry_equiv_pos_site_id
_symmetry_equiv_pos_as_xyz
1 x,y,z
2 1/2-x,1/2+y,1/2-z
3 -x,-y,-z
4 1/2+x,1/2-y,1/2+z
_cell_length_a                   4.7936(7)
_cell_length_b                   12.9828(19)
_cell_length_c                   14.632(2)
_cell_angle_alpha                90
_cell_angle_beta                 92.986(2)
_cell_angle_gamma                90
_cell_volume                     909.377
_exptl_crystal_colour            white
_exptl_crystal_description       block
_cell_formula_units_Z            2
loop_
_atom_site_label
_atom_site_type_symbol
_atom_site_fract_x
_atom_site_fract_y
_atom_site_fract_z
C1 C 0.5424(3) 0.69514(12) 0.46590(10)
C2 C 0.7120(4) 0.62215(12) 0.42827(11)
H1 H 0.8114 0.5764 0.4665
C3 C 0.7361(3) 0.61619(12) 0.33476(11)
C4 C 0.5797(4) 0.68498(13) 0.28134(11)
H2 H 0.5918 0.6826 0.2181
C5 C 0.4057(3) 0.75731(12) 0.31813(11)
H3 H 0.3029 0.8018 0.2796
C6 C 0.3835(3) 0.76397(11) 0.41205(10)
C7 C -0.0937(3) 0.97110(12) 0.46540(12)
H4 H -0.2184 0.9270 0.4978
H5 H -0.2074 1.0203 0.4303
C8 C 0.9223(4) 0.53703(15) 0.29328(15)
H6 H 1.0814 0.5243 0.3343
H7 H 0.9840 0.5623 0.2361
H8 H 0.8200 0.4742 0.2831
C9 C 0.0657(3) 0.90647(13) 0.40078(11)
H9 H -0.0619 0.8727 0.3567
H10 H 0.1926 0.9491 0.3678
O1 O 0.2189(2) 0.83138(8) 0.45505(7)
N1 N 0.5373(4) 0.69963(13) 0.56589(11)
O2 O 0.5488(9) 0.6235(2) 0.6110(2)
O3 O 0.5494(5) 0.78584(16) 0.60470(12)
C1B C -0.5424(3) 1.30486(12) 0.53410(10)
C2B C -0.7120(4) 1.37785(12) 0.57173(11)
H1B H -0.8114 1.4236 0.5335
C3B C -0.7361(3) 1.38381(12) 0.66524(11)
C4B C -0.5797(4) 1.31502(13) 0.71866(11)
H2B H -0.5918 1.3174 0.7819
C5B C -0.4057(3) 1.24269(12) 0.68187(11)
H3B H -0.3029 1.1982 0.7204
C6B C -0.3835(3) 1.23603(11) 0.58795(10)
C7B C 0.0937(3) 1.02890(12) 0.53460(12)
H4B H 0.2184 1.0730 0.5022
H5B H 0.2074 0.9797 0.5697
C8B C -0.9223(4) 1.46297(15) 0.70672(15)
H6B H -1.0814 1.4757 0.6657
H7B H -0.9840 1.4377 0.7639
H8B H -0.8200 1.5258 0.7169
C9B C -0.0657(3) 1.09353(13) 0.59922(11)
H9B H 0.0619 1.1273 0.6433
H10B H -0.1926 1.0509 0.6322
O1B O -0.2189(2) 1.16862(8) 0.54495(7)
N1B N -0.5373(4) 1.30037(13) 0.43411(11)
O2B O -0.5488(9) 1.3765(2) 0.3890(2)
O3B O -0.5494(5) 1.21416(16) 0.39530(12)
O4? O 0.739(2) 0.6707(9) 0.6058(5)
O5? O 0.2837(15) 0.6876(6) 0.5918(4)
loop_
_geom_bond_atom_site_label_1
_geom_bond_atom_site_label_2
_geom_bond_site_symmetry_1
_geom_bond_site_symmetry_2
C1 C2 1_555 1_555
C2 H1 1_555 1_555
C3 C2 1_555 1_555
C4 C3 1_555 1_555
H2 C4 1_555 1_555
C5 C4 1_555 1_555
H3 C5 1_555 1_555
C6 C1 1_555 1_555
C7 H4 1_555 1_555
H5 C7 1_555 1_555
C8 C3 1_555 1_555
H6 C8 1_555 1_555
H7 C8 1_555 1_555
H8 C8 1_555 1_555
C9 C7 1_555 1_555
H9 C9 1_555 1_555
H10 C9 1_555 1_555
O1 C6 1_555 1_555
N1 C1 1_555 1_555
O2 N1 1_555 1_555
O3 N1 1_555 1_555
C1B C2B 1_555 1_555
C2B H1B 1_555 1_555
C3B C2B 1_555 1_555
C4B C3B 1_555 1_555
H2B C4B 1_555 1_555
C5B C4B 1_555 1_555
H3B C5B 1_555 1_555
C6B C1B 1_555 1_555
C7B C7 1_555 1_555
H4B C7B 1_555 1_555
H5B C7B 1_555 1_555
C8B C3B 1_555 1_555
H6B C8B 1_555 1_555
H7B C8B 1_555 1_555
H8B C8B 1_555 1_555
C9B C7B 1_555 1_555
H9B C9B 1_555 1_555
H10B C9B 1_555 1_555
O1B C6B 1_555 1_555
N1B C1B 1_555 1_555
O2B N1B 1_555 1_555
O3B N1B 1_555 1_555
C5 C6 1_555 1_555
C9 O1 1_555 1_555
C5B C6B 1_555 1_555
C9B O1B 1_555 1_555

#END
