
#######################################################################
#
#                 Cambridge Crystallographic Data Centre
#                                CCDC 
#
#######################################################################
#
# If this CIF has been generated from an entry in the Cambridge 
# Structural Database, then it will include bibliographic, chemical, 
# crystal, experimental, refinement or atomic coordinate data resulting 
# from the CCDC's data processing and validation procedures.
#
#######################################################################

data_TERYUK
_chemical_formula_moiety         'C16 H14 O2'
_chemical_name_systematic        
2,3,5,6-Tetrahydrocyclopenta(1,2-e)naphtho(1,2-b)pyran-4(1H)-one
_symmetry_cell_setting           monoclinic
_symmetry_space_group_name_H-M   'P 21/n'
_symmetry_Int_Tables_number      14
_space_group_name_Hall           '-P 2yn'
loop_
_symmetry_equiv_pos_site_id
_symmetry_equiv_pos_as_xyz
1 x,y,z
2 1/2-x,1/2+y,1/2-z
3 -x,-y,-z
4 1/2+x,1/2-y,1/2+z
_cell_length_a                   8.2300(10)
_cell_length_b                   18.205(2)
_cell_length_c                   16.384(2)
_cell_angle_alpha                90
_cell_angle_beta                 99.000(10)
_cell_angle_gamma                90
_cell_volume                     2424.55
_exptl_crystal_colour            colorless
_cell_formula_units_Z            8
loop_
_atom_site_label
_atom_site_type_symbol
_atom_site_fract_x
_atom_site_fract_y
_atom_site_fract_z
O1 O 0.4364(2) 0.73943(8) 0.21498(10)
O2 O 0.6081(2) 0.92946(7) 0.12654(8)
C1 C 0.4874(2) 0.79699(12) 0.18767(15)
C2 C 0.5726(2) 0.85353(11) 0.24156(12)
C3 C 0.5976(3) 0.84393(14) 0.33344(14)
C4 C 0.7410(4) 0.8864(2) 0.3783(2)
C5 C 0.7585(3) 0.96239(12) 0.34378(13)
C6 C 0.8342(3) 1.0199(2) 0.3915(2)
C7 C 0.8631(3) 1.0864(2) 0.3577(2)
C8 C 0.8185(3) 1.09725(15) 0.2748(2)
C9 C 0.7420(3) 1.04213(12) 0.22619(14)
C10 C 0.7108(2) 0.97487(10) 0.25988(12)
C11 C 0.6272(2) 0.91542(11) 0.21007(12)
C12 C 0.5320(3) 0.87687(12) 0.07562(13)
C13 C 0.5092(4) 0.8881(2) -0.01503(15)
C14 C 0.4374(4) 0.8136(2) -0.0468(2)
C15 C 0.3982(4) 0.76975(15) 0.0274(2)
C16 C 0.4735(2) 0.81390(11) 0.10109(14)
H1 H 0.6062(26) 0.7934(12) 0.3457(13)
H2 H 0.4879(31) 0.8636(13) 0.3566(15)
H3 H 0.8489(37) 0.8522(16) 0.3750(18)
H4 H 0.7289(26) 0.8890(13) 0.4378(14)
H5 H 0.8613(26) 1.0127(11) 0.4490(14)
H6 H 0.9146(30) 1.1274(14) 0.3920(15)
H7 H 0.8410(27) 1.1424(13) 0.2524(14)
H8 H 0.7096(23) 1.0478(10) 0.1649(12)
H9 H 0.4330(28) 0.9288(13) -0.0327(14)
H10 H 0.6118(28) 0.9010(13) -0.0346(14)
H11 H 0.3365(31) 0.8186(14) -0.0900(16)
H12 H 0.5217(34) 0.7894(15) -0.0694(17)
H13 H 0.2722(29) 0.7642(12) 0.0297(14)
H14 H 0.4451(27) 0.7204(13) 0.0316(13)
O3 O 0.1708(2) 0.85553(9) 0.39600(10)
O4 O 0.1563(2) 0.96869(7) 0.17986(8)
C17 C 0.1686(3) 0.88998(13) 0.33063(13)
C18 C 0.1062(2) 0.85825(10) 0.25028(13)
C19 C 0.0524(4) 0.77859(13) 0.2427(2)
C20 C -0.0739(4) 0.7638(2) 0.1675(2)
C21 C -0.0406(3) 0.80133(12) 0.09117(15)
C22 C -0.0980(3) 0.7739(2) 0.0125(2)
C23 C -0.0772(3) 0.8120(2) -0.0575(2)
C24 C 0.0017(3) 0.8788(2) -0.0510(2)
C25 C 0.0614(3) 0.90731(13) 0.02640(14)
C26 C 0.0408(2) 0.86913(11) 0.09761(13)
C27 C 0.1009(2) 0.89716(10) 0.18027(12)
C28 C 0.2194(3) 0.99836(11) 0.25389(13)
C29 C 0.2825(4) 1.07509(13) 0.2588(2)
C30 C 0.3543(4) 1.0820(2) 0.3498(2)
C31 C 0.3028(4) 1.0141(2) 0.3941(2)
C32 C 0.2279(2) 0.96411(11) 0.32595(12)
H15 H 0.1532(30) 0.7458(13) 0.2341(14)
H16 H 0.0153(27) 0.7651(12) 0.2919(14)
H17 H -0.1885(33) 0.7864(15) 0.1831(16)
H18 H -0.0828(26) 0.7115(14) 0.1590(13)
H19 H -0.1515(28) 0.7265(14) 0.0082(14)
H20 H -0.1194(29) 0.7923(13) -0.1122(15)
H21 H 0.0144(27) 0.9056(13) -0.1012(15)
H22 H 0.1189(24) 0.9517(11) 0.0300(12)
H23 H 0.1935(28) 1.1080(13) 0.2421(14)
H24 H 0.3617(28) 1.0833(12) 0.2226(14)
H25 H 0.4693(36) 1.0793(16) 0.3564(18)
H26 H 0.3269(34) 1.1288(17) 0.3739(17)
H27 H 0.3933(31) 0.9908(12) 0.4273(15)
H28 H 0.2252(30) 1.0259(14) 0.4287(16)
loop_
_geom_bond_atom_site_label_1
_geom_bond_atom_site_label_2
_geom_bond_site_symmetry_1
_geom_bond_site_symmetry_2
O1 C1 1_555 1_555
O2 C11 1_555 1_555
O3 C17 1_555 1_555
O4 C27 1_555 1_555
C1 C2 1_555 1_555
C2 C3 1_555 1_555
C3 C4 1_555 1_555
C4 C5 1_555 1_555
C5 C6 1_555 1_555
C6 C7 1_555 1_555
C7 C8 1_555 1_555
C8 C9 1_555 1_555
C9 C10 1_555 1_555
C10 C5 1_555 1_555
C11 C2 1_555 1_555
C12 O2 1_555 1_555
C13 C12 1_555 1_555
C14 C13 1_555 1_555
C15 C14 1_555 1_555
C16 C1 1_555 1_555
C17 C18 1_555 1_555
C18 C19 1_555 1_555
C19 C20 1_555 1_555
C20 C21 1_555 1_555
C21 C22 1_555 1_555
C22 C23 1_555 1_555
C23 C24 1_555 1_555
C24 C25 1_555 1_555
C25 C26 1_555 1_555
C26 C21 1_555 1_555
C27 C18 1_555 1_555
C28 O4 1_555 1_555
C29 C28 1_555 1_555
C30 C29 1_555 1_555
C31 C30 1_555 1_555
C32 C17 1_555 1_555
H1 C3 1_555 1_555
H2 C3 1_555 1_555
H3 C4 1_555 1_555
H4 C4 1_555 1_555
H5 C6 1_555 1_555
H6 C7 1_555 1_555
H7 C8 1_555 1_555
H8 C9 1_555 1_555
H9 C13 1_555 1_555
H10 C13 1_555 1_555
H11 C14 1_555 1_555
H12 C14 1_555 1_555
H13 C15 1_555 1_555
H14 C15 1_555 1_555
H15 C19 1_555 1_555
H16 C19 1_555 1_555
H17 C20 1_555 1_555
H18 C20 1_555 1_555
H19 C22 1_555 1_555
H20 C23 1_555 1_555
H21 C24 1_555 1_555
H22 C25 1_555 1_555
H23 C29 1_555 1_555
H24 C29 1_555 1_555
H25 C30 1_555 1_555
H26 C30 1_555 1_555
H27 C31 1_555 1_555
H28 C31 1_555 1_555
C10 C11 1_555 1_555
C12 C16 1_555 1_555
C15 C16 1_555 1_555
C26 C27 1_555 1_555
C28 C32 1_555 1_555
C31 C32 1_555 1_555

#END
