
#######################################################################
#
#                 Cambridge Crystallographic Data Centre
#                                CCDC 
#
#######################################################################
#
# If this CIF has been generated from an entry in the Cambridge 
# Structural Database, then it will include bibliographic, chemical, 
# crystal, experimental, refinement or atomic coordinate data resulting 
# from the CCDC's data processing and validation procedures.
#
#######################################################################

data_TERYUL
_chemical_formula_moiety         'C14 H13 N1'
_chemical_name_systematic        3-(2-Pyrrolylmethyl)indene
_symmetry_cell_setting           monoclinic
_symmetry_space_group_name_H-M   'P 21/n'
_symmetry_Int_Tables_number      14
_space_group_name_Hall           '-P 2yn'
loop_
_symmetry_equiv_pos_site_id
_symmetry_equiv_pos_as_xyz
1 x,y,z
2 1/2-x,1/2+y,1/2-z
3 -x,-y,-z
4 1/2+x,1/2-y,1/2+z
_cell_length_a                   9.144(8)
_cell_length_b                   11.761(10)
_cell_length_c                   10.372(9)
_cell_angle_alpha                90
_cell_angle_beta                 103.654(13)
_cell_angle_gamma                90
_cell_volume                     1083.91
_chemical_melting_point          '27-28 deg.C'
_cell_formula_units_Z            4
loop_
_atom_site_label
_atom_site_type_symbol
_atom_site_fract_x
_atom_site_fract_y
_atom_site_fract_z
N1 N 0.23094(18) -0.22774(15) 1.07804(16)
H1 H 0.1347 -0.2314 1.0659
C1 C 0.3232(3) -0.31851(19) 1.0755(2)
H2 H 0.2931 -0.3939 1.0612
C2 C 0.4649(3) -0.2798(2) 1.0973(2)
H3 H 0.5507 -0.3231 1.1003
C3 C 0.4595(2) -0.16130(19) 1.1148(2)
H4 H 0.5418 -0.1125 1.1318
C4 C 0.3141(2) -0.13030(16) 1.10270(18)
C5 C 0.2450(2) -0.01567(16) 1.10769(18)
H5 H 0.3191 0.0336 1.1630
H6 H 0.1616 -0.0232 1.1500
C6 C 0.18863(19) 0.04079(16) 0.97528(17)
C7 C 0.1630(2) -0.00636(18) 0.85454(18)
H7 H 0.1746 -0.0834 0.8391
C8 C 0.1135(2) 0.08042(17) 0.74756(18)
H8 H 0.0136 0.0635 0.6943
H9 H 0.1831 0.0846 0.6902
C9 C 0.11427(19) 0.18881(17) 0.82456(18)
C10 C 0.15726(18) 0.16309(16) 0.96052(17)
C11 C 0.1660(2) 0.24886(17) 1.0543(2)
H10 H 0.1929 0.2323 1.1445
C12 C 0.1338(2) 0.35951(18) 1.0109(2)
H11 H 0.1391 0.4174 1.0729
C13 C 0.0940(2) 0.38536(18) 0.8773(2)
H12 H 0.0741 0.4603 0.8503
C14 C 0.0834(2) 0.29980(18) 0.7825(2)
H13 H 0.0561 0.3170 0.6925
loop_
_geom_bond_atom_site_label_1
_geom_bond_atom_site_label_2
_geom_bond_site_symmetry_1
_geom_bond_site_symmetry_2
N1 H1 1_555 1_555
C1 N1 1_555 1_555
H2 C1 1_555 1_555
C2 C1 1_555 1_555
H3 C2 1_555 1_555
C3 C2 1_555 1_555
H4 C3 1_555 1_555
C4 N1 1_555 1_555
C5 C4 1_555 1_555
H5 C5 1_555 1_555
H6 C5 1_555 1_555
C6 C5 1_555 1_555
C7 C6 1_555 1_555
H7 C7 1_555 1_555
C8 C7 1_555 1_555
H8 C8 1_555 1_555
H9 C8 1_555 1_555
C9 C8 1_555 1_555
C10 C6 1_555 1_555
C11 C10 1_555 1_555
H10 C11 1_555 1_555
C12 C11 1_555 1_555
H11 C12 1_555 1_555
C13 C12 1_555 1_555
H12 C13 1_555 1_555
C14 C9 1_555 1_555
H13 C14 1_555 1_555
C3 C4 1_555 1_555
C9 C10 1_555 1_555
C13 C14 1_555 1_555

#END
