
#######################################################################
#
#                 Cambridge Crystallographic Data Centre
#                                CCDC 
#
#######################################################################
#
# If this CIF has been generated from an entry in the Cambridge 
# Structural Database, then it will include bibliographic, chemical, 
# crystal, experimental, refinement or atomic coordinate data resulting 
# from the CCDC's data processing and validation procedures.
#
#######################################################################

data_TESBIE
_chemical_formula_moiety         'C13 H11 N3 O2'
_chemical_name_systematic        
2-(1H-Imidazo[4,5-c]pyridin-2-yl)-6-methoxyphenol
_symmetry_cell_setting           monoclinic
_symmetry_space_group_name_H-M   'P 21/n'
_symmetry_Int_Tables_number      14
_space_group_name_Hall           '-P 2yn'
loop_
_symmetry_equiv_pos_site_id
_symmetry_equiv_pos_as_xyz
1 x,y,z
2 1/2-x,1/2+y,1/2-z
3 -x,-y,-z
4 1/2+x,1/2-y,1/2+z
_cell_length_a                   7.6199(9)
_cell_length_b                   12.3567(15)
_cell_length_c                   12.4602(14)
_cell_angle_alpha                90
_cell_angle_beta                 95.139(2)
_cell_angle_gamma                90
_cell_volume                     1168.5
_exptl_crystal_colour            yellow
_exptl_crystal_description       block
_cell_formula_units_Z            4
loop_
_atom_site_label
_atom_site_type_symbol
_atom_site_fract_x
_atom_site_fract_y
_atom_site_fract_z
O1 O 0.2200(2) 0.23303(16) 0.51223(12)
H1 H 0.3096 0.1962 0.5217
O2 O -0.0693(2) 0.33842(17) 0.51088(14)
N1 N 0.9186(3) 0.0084(2) 0.6362(2)
N2 N 0.4975(2) 0.15539(16) 0.61427(15)
N3 N 0.5769(2) 0.20185(16) 0.78633(15)
H2 H 0.5875 0.2329 0.8570
C1 C 0.7643(3) 0.0434(2) 0.5852(2)
H3 H 0.7295 0.0233 0.5146
C2 C 0.6596(3) 0.11089(19) 0.64301(18)
C3 C 0.7110(3) 0.14030(18) 0.75081(18)
C4 C 0.8683(3) 0.1065(2) 0.8028(2)
H4 H 0.9039 0.1266 0.8733
C5 C 0.9699(3) 0.0408(2) 0.7438(2)
H5 H 1.0775 0.0165 0.7761
C6 C 0.4526(3) 0.20814(18) 0.70209(17)
C7 C 0.2884(3) 0.26614(18) 0.70551(17)
C8 C 0.1803(3) 0.27543(18) 0.60870(17)
C9 C 0.0232(3) 0.33235(19) 0.61092(19)
C10 C -0.0269(3) 0.3770(2) 0.7058(2)
H6 H -0.1323 0.4151 0.7050
C11 C 0.0794(3) 0.3652(2) 0.8027(2)
H7 H 0.0444 0.3938 0.8664
C12 C 0.2338(3) 0.3115(2) 0.80200(18)
H8 H 0.3057 0.3040 0.8659
C13 C -0.2226(4) 0.4020(3) 0.5053(3)
H9 H -0.3036 0.3725 0.5524
H10 H -0.2764 0.4021 0.4327
H11 H -0.1927 0.4747 0.5269
loop_
_geom_bond_atom_site_label_1
_geom_bond_atom_site_label_2
_geom_bond_site_symmetry_1
_geom_bond_site_symmetry_2
O1 H1 1_555 1_555
O2 C9 1_555 1_555
N1 C1 1_555 1_555
N2 C2 1_555 1_555
N3 H2 1_555 1_555
C1 H3 1_555 1_555
C2 C1 1_555 1_555
C3 N3 1_555 1_555
C4 C3 1_555 1_555
H4 C4 1_555 1_555
C5 N1 1_555 1_555
H5 C5 1_555 1_555
C6 N2 1_555 1_555
C7 C6 1_555 1_555
C8 O1 1_555 1_555
C9 C8 1_555 1_555
C10 C9 1_555 1_555
H6 C10 1_555 1_555
C11 C10 1_555 1_555
H7 C11 1_555 1_555
C12 C7 1_555 1_555
H8 C12 1_555 1_555
C13 O2 1_555 1_555
H9 C13 1_555 1_555
H10 C13 1_555 1_555
H11 C13 1_555 1_555
N3 C6 1_555 1_555
C2 C3 1_555 1_555
C4 C5 1_555 1_555
C7 C8 1_555 1_555
C11 C12 1_555 1_555

#END
