
#######################################################################
#
#                 Cambridge Crystallographic Data Centre
#                                CCDC 
#
#######################################################################
#
# If this CIF has been generated from an entry in the Cambridge 
# Structural Database, then it will include bibliographic, chemical, 
# crystal, experimental, refinement or atomic coordinate data resulting 
# from the CCDC's data processing and validation procedures.
#
#######################################################################

data_TESBRP
_chemical_formula_moiety         'C19 H28 O2,C6 H5 Br1 O1'
_chemical_name_systematic        Testosterone-p-bromophenol
_symmetry_cell_setting           orthorhombic
_symmetry_space_group_name_H-M   'P 21 21 21'
_symmetry_Int_Tables_number      19
_space_group_name_Hall           'P 2ac 2ab'
loop_
_symmetry_equiv_pos_site_id
_symmetry_equiv_pos_as_xyz
1 x,y,z
2 1/2+x,1/2-y,-z
3 -x,1/2+y,1/2-z
4 1/2-x,-y,1/2+z
_cell_length_a                   13.104
_cell_length_b                   22.714
_cell_length_c                   7.665
_cell_angle_alpha                90
_cell_angle_beta                 90
_cell_angle_gamma                90
_cell_volume                     2281.44
_cell_formula_units_Z            4
loop_
_atom_site_label
_atom_site_type_symbol
_atom_site_fract_x
_atom_site_fract_y
_atom_site_fract_z
Br1 Br 0.23370 0.06150 -0.04580
C1 C 0.26260 0.12440 -0.21300
C2 C 0.26840 0.17780 -0.15150
C3 C 0.28760 0.22240 -0.28170
C4 C 0.29850 0.20940 -0.44590
C5 C 0.28090 0.15130 -0.50610
C6 C 0.26580 0.11130 -0.38680
O1 O 0.31490 0.25370 -0.56770
C7 C 0.06630 0.33020 0.23350
C8 C 0.09840 0.35840 0.05380
C9 C 0.08760 0.45620 0.21080
C10 C 0.04940 0.52300 0.19820
C11 C 0.07870 0.55140 0.03730
C12 C 0.03010 0.51460 -0.11710
C13 C 0.04220 0.55380 -0.26790
C14 C 0.03100 0.61850 -0.19220
C15 C 0.02780 0.61220 -0.00250
C16 C 0.19710 0.55490 0.02310
C17 C 0.21360 0.35800 0.03770
C18 C 0.07600 0.26110 0.22670
C19 C 0.01480 0.23660 0.08080
C20 C 0.00710 0.27180 -0.08380
C21 C 0.04760 0.32410 -0.09650
C22 C 0.05280 0.35410 -0.27840
C23 C 0.01150 0.41900 -0.26310
C24 C 0.06920 0.45120 -0.11870
C25 C 0.04930 0.42170 0.05240
O2 O 0.08450 0.65960 0.07890
O3 O -0.03010 0.18960 0.09120
loop_
_geom_bond_atom_site_label_1
_geom_bond_atom_site_label_2
_geom_bond_site_symmetry_1
_geom_bond_site_symmetry_2
Br1 C1 1_555 1_555
C1 C2 1_555 1_555
C2 C3 1_555 1_555
C3 C4 1_555 1_555
C4 C5 1_555 1_555
C5 C6 1_555 1_555
C6 C1 1_555 1_555
O1 C4 1_555 1_555
C7 C8 1_555 1_555
C8 C17 1_555 1_555
C9 C10 1_555 1_555
C10 C11 1_555 1_555
C11 C12 1_555 1_555
C12 C13 1_555 1_555
C13 C14 1_555 1_555
C14 C15 1_555 1_555
C15 C11 1_555 1_555
C16 C11 1_555 1_555
C18 C7 1_555 1_555
C19 C18 1_555 1_555
C20 C19 1_555 1_555
C21 C8 1_555 1_555
C22 C21 1_555 1_555
C23 C22 1_555 1_555
C24 C12 1_555 1_555
C25 C8 1_555 1_555
O2 C15 1_555 1_555
O3 C19 1_555 1_555
C9 C25 1_555 1_555
C20 C21 1_555 1_555
C23 C24 1_555 1_555
C24 C25 1_555 1_555

#END
