
#######################################################################
#
#                 Cambridge Crystallographic Data Centre
#                                CCDC 
#
#######################################################################
#
# If this CIF has been generated from an entry in the Cambridge 
# Structural Database, then it will include bibliographic, chemical, 
# crystal, experimental, refinement or atomic coordinate data resulting 
# from the CCDC's data processing and validation procedures.
#
#######################################################################

data_TESFUV
_chemical_formula_moiety         'C36 H43 N1 O7'
_chemical_name_systematic        
't-butyl 9-(acetyloxy)-6-[2-(acetyloxy)-3-methylbut-2-en-1-yl]-3-methoxy-8,8-dimethyl-7-phenyl-7,8-dihydrocyclohepta[b]indole-5(6H)-carboxylate'
_symmetry_cell_setting           monoclinic
_symmetry_space_group_name_H-M   'P 21/n'
_symmetry_Int_Tables_number      14
_space_group_name_Hall           '-P 2yn'
loop_
_symmetry_equiv_pos_site_id
_symmetry_equiv_pos_as_xyz
1 x,y,z
2 1/2-x,1/2+y,1/2-z
3 -x,-y,-z
4 1/2+x,1/2-y,1/2+z
_cell_length_a                   10.3540(5)
_cell_length_b                   34.6470(17)
_cell_length_c                   10.4870(5)
_cell_angle_alpha                90
_cell_angle_beta                 116.610(2)
_cell_angle_gamma                90
_cell_volume                     3363.56
_exptl_crystal_colour            colorless
_exptl_crystal_description       block
_cell_formula_units_Z            4
loop_
_atom_site_label
_atom_site_type_symbol
_atom_site_fract_x
_atom_site_fract_y
_atom_site_fract_z
O1 O 0.18215(16) 0.20916(4) 1.08475(16)
O2 O 0.27521(14) 0.24485(3) 0.96739(14)
O3 O 0.7132(2) 0.24788(5) 0.9086(2)
O4 O 0.38680(19) 0.00067(5) 1.0710(2)
O5 O 0.56737(13) 0.03155(4) 1.25041(15)
O6 O 0.16295(14) 0.10682(4) 0.78151(13)
O7 O 0.0730(2) 0.16066(6) 0.6571(2)
N1 N 0.34664(15) 0.18359(4) 1.01750(14)
C1 C 0.54611(19) 0.15441(5) 1.02791(18)
C2 C 0.6770(2) 0.15181(6) 1.0193(2)
H1 H 0.7287 0.1288 1.0410
C3 C 0.7276(3) 0.18371(6) 0.9784(3)
H2 H 0.8142 0.1823 0.9719
C4 C 0.6510(3) 0.21813(6) 0.9467(2)
C5 C 0.5215(2) 0.22155(6) 0.9535(2)
H3 H 0.4701 0.2446 0.9312
C6 C 0.47090(19) 0.18896(5) 0.99516(18)
C7 C 0.34704(18) 0.14464(5) 1.06259(17)
C8 C 0.22200(17) 0.12880(5) 1.08272(17)
H4 H 0.2128 0.1454 1.1539
C9 C 0.23900(17) 0.08714(5) 1.14157(17)
H5 H 0.2272 0.0699 1.0631
C10 C 0.39014(19) 0.07696(5) 1.27078(18)
C11 C 0.49220(18) 0.06709(5) 1.20753(19)
C12 C 0.52228(19) 0.08850(5) 1.11998(19)
H6 H 0.5839 0.0779 1.0867
C13 C 0.46796(18) 0.12704(5) 1.07104(18)
C14 C 0.11570(18) 0.07831(5) 1.17801(18)
C15 C 0.0410(2) 0.04381(6) 1.1328(2)
H7 H 0.0632 0.0273 1.0755
C16 C -0.0653(3) 0.03349(8) 1.1712(3)
H8 H -0.1140 0.0102 1.1396
C17 C -0.0998(2) 0.05730(9) 1.2554(3)
H9 H -0.1706 0.0501 1.2823
C18 C -0.0292(2) 0.09187(8) 1.2999(3)
H10 H -0.0528 0.1083 1.3564
C19 C 0.0770(2) 0.10231(6) 1.2609(2)
H11 H 0.1235 0.1259 1.2909
C20 C 0.3764(2) 0.04238(6) 1.3565(2)
H12 H 0.4690 0.0369 1.4344
H13 H 0.3429 0.0202 1.2954
H14 H 0.3088 0.0485 1.3929
C21 C 0.4525(2) 0.11065(6) 1.37661(19)
H15 H 0.5437 0.1031 1.4528
H16 H 0.3868 0.1172 1.4149
H17 H 0.4660 0.1326 1.3281
C22 C 0.5025(3) -0.00008(6) 1.1707(3)
C23 C 0.5972(3) -0.03473(7) 1.2293(3)
H18 H 0.5503 -0.0570 1.1730
H19 H 0.6145 -0.0389 1.3262
H20 H 0.6875 -0.0305 1.2265
C24 C 0.07614(19) 0.13244(5) 0.94454(19)
H21 H -0.0017 0.1288 0.9709
H22 H 0.0688 0.1587 0.9095
C25 C 0.0507(2) 0.10575(5) 0.82415(19)
C26 C -0.0615(2) 0.08284(7) 0.7530(2)
C27 C -0.1859(3) 0.07902(9) 0.7897(3)
H23 H -0.1673 0.0943 0.8724
H24 H -0.1968 0.0525 0.8091
H25 H -0.2730 0.0878 0.7109
C28 C -0.0768(3) 0.06026(9) 0.6245(3)
H26 H 0.0072 0.0642 0.6095
H27 H -0.1610 0.0689 0.5421
H28 H -0.0862 0.0333 0.6399
C29 C 0.1638(2) 0.13637(7) 0.6986(2)
C30 C 0.2893(3) 0.13472(8) 0.6668(3)
H29 H 0.2862 0.1563 0.6081
H30 H 0.2862 0.1111 0.6174
H31 H 0.3770 0.1356 0.7544
C31 C 0.2589(2) 0.21309(5) 1.02819(18)
C32 C 0.1901(2) 0.28035(5) 0.9570(2)
C33 C 0.2256(3) 0.29551(7) 1.1024(3)
H32 H 0.3276 0.3002 1.1532
H33 H 0.1980 0.2769 1.1534
H34 H 0.1741 0.3192 1.0940
C34 C 0.0324(2) 0.27115(7) 0.8672(3)
H35 H -0.0002 0.2540 0.9189
H36 H 0.0199 0.2590 0.7802
H37 H -0.0230 0.2946 0.8455
C35 C 0.2447(3) 0.30746(6) 0.8787(3)
H38 H 0.3449 0.3130 0.9377
H39 H 0.1901 0.3310 0.8570
H40 H 0.2336 0.2955 0.7918
C36 C 0.6373(4) 0.28329(7) 0.8690(4)
H41 H 0.6926 0.3016 0.8452
H42 H 0.6224 0.2930 0.9471
H43 H 0.5456 0.2793 0.7878
loop_
_geom_bond_atom_site_label_1
_geom_bond_atom_site_label_2
_geom_bond_site_symmetry_1
_geom_bond_site_symmetry_2
O1 C31 1_555 1_555
O2 C31 1_555 1_555
O3 C4 1_555 1_555
O4 C22 1_555 1_555
O5 C11 1_555 1_555
O6 C25 1_555 1_555
O7 C29 1_555 1_555
N1 C6 1_555 1_555
C1 C2 1_555 1_555
C2 H1 1_555 1_555
C3 C2 1_555 1_555
H2 C3 1_555 1_555
C4 C3 1_555 1_555
C5 C4 1_555 1_555
H3 C5 1_555 1_555
C6 C1 1_555 1_555
C7 N1 1_555 1_555
C8 C7 1_555 1_555
H4 C8 1_555 1_555
C9 C8 1_555 1_555
H5 C9 1_555 1_555
C10 C9 1_555 1_555
C11 C10 1_555 1_555
C12 C11 1_555 1_555
H6 C12 1_555 1_555
C13 C1 1_555 1_555
C14 C9 1_555 1_555
C15 C14 1_555 1_555
H7 C15 1_555 1_555
C16 C15 1_555 1_555
H8 C16 1_555 1_555
C17 C16 1_555 1_555
H9 C17 1_555 1_555
C18 C17 1_555 1_555
H10 C18 1_555 1_555
C19 C14 1_555 1_555
H11 C19 1_555 1_555
C20 C10 1_555 1_555
H12 C20 1_555 1_555
H13 C20 1_555 1_555
H14 C20 1_555 1_555
C21 C10 1_555 1_555
H15 C21 1_555 1_555
H16 C21 1_555 1_555
H17 C21 1_555 1_555
C22 O5 1_555 1_555
C23 C22 1_555 1_555
H18 C23 1_555 1_555
H19 C23 1_555 1_555
H20 C23 1_555 1_555
C24 C8 1_555 1_555
H21 C24 1_555 1_555
H22 C24 1_555 1_555
C25 C24 1_555 1_555
C26 C25 1_555 1_555
C27 C26 1_555 1_555
H23 C27 1_555 1_555
H24 C27 1_555 1_555
H25 C27 1_555 1_555
C28 C26 1_555 1_555
H26 C28 1_555 1_555
H27 C28 1_555 1_555
H28 C28 1_555 1_555
C29 O6 1_555 1_555
C30 C29 1_555 1_555
H29 C30 1_555 1_555
H30 C30 1_555 1_555
H31 C30 1_555 1_555
C31 N1 1_555 1_555
C32 O2 1_555 1_555
C33 C32 1_555 1_555
H32 C33 1_555 1_555
H33 C33 1_555 1_555
H34 C33 1_555 1_555
C34 C32 1_555 1_555
H35 C34 1_555 1_555
H36 C34 1_555 1_555
H37 C34 1_555 1_555
C35 C32 1_555 1_555
H38 C35 1_555 1_555
H39 C35 1_555 1_555
H40 C35 1_555 1_555
C36 O3 1_555 1_555
H41 C36 1_555 1_555
H42 C36 1_555 1_555
H43 C36 1_555 1_555
C5 C6 1_555 1_555
C7 C13 1_555 1_555
C12 C13 1_555 1_555
C18 C19 1_555 1_555

#END
