
#######################################################################
#
#                 Cambridge Crystallographic Data Centre
#                                CCDC 
#
#######################################################################
#
# If this CIF has been generated from an entry in the Cambridge 
# Structural Database, then it will include bibliographic, chemical, 
# crystal, experimental, refinement or atomic coordinate data resulting 
# from the CCDC's data processing and validation procedures.
#
#######################################################################

data_TESGUW
_chemical_formula_moiety         'C22 H22 Si1'
_chemical_name_systematic        
trimethyl{8-[(4-methylphenyl)ethynyl]naphthalen-1-yl}silane
_symmetry_cell_setting           orthorhombic
_symmetry_space_group_name_H-M   'P b c a'
_symmetry_Int_Tables_number      61
_space_group_name_Hall           '-P 2ac 2ab'
loop_
_symmetry_equiv_pos_site_id
_symmetry_equiv_pos_as_xyz
1 x,y,z
2 1/2-x,-y,1/2+z
3 1/2+x,1/2-y,-z
4 -x,1/2+y,1/2-z
5 -x,-y,-z
6 1/2+x,y,1/2-z
7 1/2-x,1/2+y,z
8 x,1/2-y,1/2+z
_cell_length_a                   8.8464(4)
_cell_length_b                   13.6195(6)
_cell_length_c                   30.1026(12)
_cell_angle_alpha                90
_cell_angle_beta                 90
_cell_angle_gamma                90
_cell_volume                     3626.87
_exptl_crystal_colour            'metallic whiteish colorless'
_exptl_crystal_description       block
_cell_formula_units_Z            8
loop_
_atom_site_label
_atom_site_type_symbol
_atom_site_fract_x
_atom_site_fract_y
_atom_site_fract_z
Si1 Si 0.34503(4) 0.18907(3) 0.444308(12)
C1 C 0.14303(14) 0.14196(9) 0.36585(4)
C2 C 0.17373(14) 0.14054(9) 0.41306(5)
C3 C 0.06501(16) 0.09797(11) 0.44016(5)
H1 H 0.0828 0.0963 0.4706
C4 C -0.07144(16) 0.05703(11) 0.42406(6)
H2 H -0.1405 0.0295 0.4437
C5 C -0.10093(16) 0.05816(10) 0.38000(5)
H3 H -0.1904 0.0310 0.3694
C6 C 0.00364(14) 0.10052(9) 0.34973(5)
C7 C -0.03319(16) 0.10195(11) 0.30404(5)
H4 H -0.1245 0.0752 0.2946
C8 C 0.06308(16) 0.14203(11) 0.27342(5)
H5 H 0.0377 0.1425 0.2434
C9 C 0.20038(16) 0.18229(10) 0.28784(5)
H6 H 0.2658 0.2094 0.2670
C10 C 0.24168(14) 0.18289(9) 0.33252(4)
C11 C 0.38787(15) 0.22594(10) 0.34066(4)
C12 C 0.51129(15) 0.26341(10) 0.33924(4)
C13 C 0.65806(14) 0.30870(9) 0.33658(4)
C14 C 0.70206(15) 0.35646(10) 0.29754(4)
H7 H 0.6356 0.3594 0.2736
C15 C 0.84395(15) 0.39965(10) 0.29401(5)
H8 H 0.8710 0.4310 0.2677
C16 C 0.94663(15) 0.39685(9) 0.32921(5)
C17 C 0.90176(16) 0.34968(10) 0.36827(5)
H9 H 0.9680 0.3475 0.3922
C18 C 0.76071(16) 0.30610(10) 0.37211(4)
H10 H 0.7339 0.2749 0.3984
C19 C 1.10124(17) 0.44322(11) 0.32547(6)
H11 H 1.1756 0.3929 0.3208
H12 H 1.1239 0.4782 0.3524
H13 H 1.1025 0.4880 0.3009
C20 C 0.51739(16) 0.11393(12) 0.43167(6)
H14 H 0.5393 0.1177 0.4005
H15 H 0.4994 0.0468 0.4398
H16 H 0.6017 0.1389 0.4483
C21 C 0.36526(19) 0.32576(11) 0.43844(5)
H17 H 0.3354 0.3452 0.4091
H18 H 0.4687 0.3440 0.4434
H19 H 0.3020 0.3579 0.4599
C22 C 0.3147(2) 0.17003(15) 0.50553(5)
H20 H 0.3972 0.1985 0.5217
H21 H 0.3094 0.1010 0.5118
H22 H 0.2218 0.2009 0.5144
loop_
_geom_bond_atom_site_label_1
_geom_bond_atom_site_label_2
_geom_bond_site_symmetry_1
_geom_bond_site_symmetry_2
Si1 C2 1_555 1_555
C1 C2 1_555 1_555
C2 C3 1_555 1_555
C3 H1 1_555 1_555
C4 C3 1_555 1_555
H2 C4 1_555 1_555
C5 C4 1_555 1_555
H3 C5 1_555 1_555
C6 C1 1_555 1_555
C7 C6 1_555 1_555
H4 C7 1_555 1_555
C8 C7 1_555 1_555
H5 C8 1_555 1_555
C9 C8 1_555 1_555
H6 C9 1_555 1_555
C10 C1 1_555 1_555
C11 C10 1_555 1_555
C12 C11 1_555 1_555
C13 C12 1_555 1_555
C14 C13 1_555 1_555
H7 C14 1_555 1_555
C15 C14 1_555 1_555
H8 C15 1_555 1_555
C16 C15 1_555 1_555
C17 C16 1_555 1_555
H9 C17 1_555 1_555
C18 C13 1_555 1_555
H10 C18 1_555 1_555
C19 C16 1_555 1_555
H11 C19 1_555 1_555
H12 C19 1_555 1_555
H13 C19 1_555 1_555
C20 Si1 1_555 1_555
H14 C20 1_555 1_555
H15 C20 1_555 1_555
H16 C20 1_555 1_555
C21 Si1 1_555 1_555
H17 C21 1_555 1_555
H18 C21 1_555 1_555
H19 C21 1_555 1_555
C22 Si1 1_555 1_555
H20 C22 1_555 1_555
H21 C22 1_555 1_555
H22 C22 1_555 1_555
C5 C6 1_555 1_555
C9 C10 1_555 1_555
C17 C18 1_555 1_555

#END
