
#######################################################################
#
#                 Cambridge Crystallographic Data Centre
#                                CCDC 
#
#######################################################################
#
# If this CIF has been generated from an entry in the Cambridge 
# Structural Database, then it will include bibliographic, chemical, 
# crystal, experimental, refinement or atomic coordinate data resulting 
# from the CCDC's data processing and validation procedures.
#
#######################################################################

data_TESHUV
_chemical_formula_moiety         'C26 H40 N6 S2'
_chemical_name_systematic        
S,S'-bis(2-(bis(Isopropylamino)methyleneamino)phenyl)disulfide
_symmetry_cell_setting           monoclinic
_symmetry_space_group_name_H-M   'P 21/c'
_symmetry_Int_Tables_number      14
_space_group_name_Hall           '-P 2ybc'
loop_
_symmetry_equiv_pos_site_id
_symmetry_equiv_pos_as_xyz
1 x,y,z
2 -x,1/2+y,1/2-z
3 -x,-y,-z
4 x,1/2-y,1/2+z
_cell_length_a                   8.8220(11)
_cell_length_b                   16.951(2)
_cell_length_c                   19.423(2)
_cell_angle_alpha                90
_cell_angle_beta                 100.784(2)
_cell_angle_gamma                90
_cell_volume                     2853.25
_exptl_crystal_colour            colorless
_cell_formula_units_Z            4
_exptl_crystal_recrystallization_method tetrahydrofuran
loop_
_atom_site_label
_atom_site_type_symbol
_atom_site_fract_x
_atom_site_fract_y
_atom_site_fract_z
S1 S -0.04289(8) 0.72513(5) 0.31610(4)
S2 S 0.15796(9) 0.67931(5) 0.29735(5)
C1 C -0.0114(4) 1.0346(2) 0.3642(2)
H1 H 0.0129 1.0102 0.3230
H2 H 0.0662 1.0211 0.4041
H3 H -0.0146 1.0908 0.3583
C2 C -0.2115(4) 1.0406(2) 0.43981(19)
H4 H -0.3108 1.0207 0.4448
H5 H -0.2162 1.0970 0.4354
H6 H -0.1364 1.0265 0.4804
C3 C -0.1665(3) 1.00564(16) 0.37568(15)
H7 H -0.2441 1.0212 0.3350
C4 C -0.6186(4) 0.8694(3) 0.4000(2)
H8 H -0.5425 0.8473 0.4368
H9 H -0.7152 0.8426 0.3984
H10 H -0.6313 0.9245 0.4089
C5 C -0.6840(4) 0.8929(3) 0.2704(2)
H11 H -0.6478 0.8853 0.2273
H12 H -0.6973 0.9483 0.2779
H13 H -0.7809 0.8663 0.2681
C6 C -0.5666(3) 0.8595(2) 0.33082(19)
H14 H -0.5545 0.8030 0.3225
C7 C -0.2832(3) 0.86918(17) 0.36716(15)
C8 C -0.1379(3) 0.77203(15) 0.43331(17)
C9 C -0.1239(4) 0.78112(19) 0.50490(19)
H15 H -0.2003 0.8080 0.5225
C10 C 0.0013(5) 0.7511(2) 0.55094(19)
H16 H 0.0080 0.7570 0.5990
C11 C 0.1152(4) 0.7127(2) 0.5254(2)
H17 H 0.1993 0.6922 0.5564
C12 C 0.1071(4) 0.70404(19) 0.45494(19)
H18 H 0.1854 0.6780 0.4381
C13 C -0.0186(3) 0.73420(16) 0.40842(16)
C14 C 0.1552(3) 0.57699(17) 0.31931(15)
C15 C 0.0345(4) 0.54170(19) 0.34461(18)
H19 H -0.0481 0.5723 0.3524
C16 C 0.0360(4) 0.4628(2) 0.35808(18)
H20 H -0.0447 0.4397 0.3756
C17 C 0.1567(4) 0.41762(19) 0.34576(17)
H21 H 0.1574 0.3636 0.3543
C18 C 0.2774(3) 0.45193(18) 0.32072(15)
H22 H 0.3582 0.4204 0.3122
C19 C 0.2809(3) 0.53258(16) 0.30786(13)
C20 C 0.4902(3) 0.61926(17) 0.30326(14)
C21 C 0.5337(4) 0.6604(2) 0.18643(16)
H23 H 0.4436 0.6262 0.1725
C22 C 0.6568(9) 0.6272(5) 0.1579(3)
H24 H 0.6292 0.6265 0.1077
H25 H 0.6760 0.5743 0.1749
H26 H 0.7481 0.6584 0.1719
C23 C 0.4937(11) 0.7357(4) 0.1581(3)
H27 H 0.4700 0.7323 0.1079
H28 H 0.5787 0.7712 0.1719
H29 H 0.4052 0.7549 0.1751
C24 C 0.5362(3) 0.58961(18) 0.43108(15)
H30 H 0.4443 0.5561 0.4256
C25 C 0.6762(5) 0.5376(2) 0.4351(2)
H31 H 0.6677 0.5076 0.3926
H32 H 0.6826 0.5022 0.4742
H33 H 0.7673 0.5697 0.4412
C26 C 0.5444(4) 0.6387(2) 0.49668(15)
H34 H 0.4532 0.6706 0.4926
H35 H 0.6336 0.6722 0.5025
H36 H 0.5515 0.6045 0.5366
N1 N -0.1624(3) 0.92018(13) 0.37866(14)
H37 H -0.0722 0.8992 0.3890
N2 N -0.4194(2) 0.89810(15) 0.33166(13)
H38 H -0.4182 0.9413 0.3086
N3 N -0.2723(2) 0.79583(14) 0.38647(14)
N4 N 0.3980(2) 0.56407(14) 0.27566(11)
N5 N 0.5681(3) 0.66171(16) 0.26171(12)
H39 H 0.6427 0.6912 0.2818
N6 N 0.5205(3) 0.64288(15) 0.37153(12)
H40 H 0.5310 0.6926 0.3799
loop_
_geom_bond_atom_site_label_1
_geom_bond_atom_site_label_2
_geom_bond_site_symmetry_1
_geom_bond_site_symmetry_2
S1 S2 1_555 1_555
S2 C14 1_555 1_555
C1 H1 1_555 1_555
H2 C1 1_555 1_555
H3 C1 1_555 1_555
C2 H4 1_555 1_555
H5 C2 1_555 1_555
H6 C2 1_555 1_555
C3 C1 1_555 1_555
H7 C3 1_555 1_555
C4 H8 1_555 1_555
H9 C4 1_555 1_555
H10 C4 1_555 1_555
C5 H11 1_555 1_555
H12 C5 1_555 1_555
H13 C5 1_555 1_555
C6 C4 1_555 1_555
H14 C6 1_555 1_555
C7 N1 1_555 1_555
C8 C9 1_555 1_555
C9 H15 1_555 1_555
C10 C9 1_555 1_555
H16 C10 1_555 1_555
C11 C10 1_555 1_555
H17 C11 1_555 1_555
C12 C11 1_555 1_555
H18 C12 1_555 1_555
C13 S1 1_555 1_555
C14 C15 1_555 1_555
C15 H19 1_555 1_555
C16 C15 1_555 1_555
H20 C16 1_555 1_555
C17 C16 1_555 1_555
H21 C17 1_555 1_555
C18 C17 1_555 1_555
H22 C18 1_555 1_555
C19 C14 1_555 1_555
C20 N4 1_555 1_555
C21 H23 1_555 1_555
C22 C21 1_555 1_555
H24 C22 1_555 1_555
H25 C22 1_555 1_555
H26 C22 1_555 1_555
C23 C21 1_555 1_555
H27 C23 1_555 1_555
H28 C23 1_555 1_555
H29 C23 1_555 1_555
C24 H30 1_555 1_555
C25 C24 1_555 1_555
H31 C25 1_555 1_555
H32 C25 1_555 1_555
H33 C25 1_555 1_555
C26 C24 1_555 1_555
H34 C26 1_555 1_555
H35 C26 1_555 1_555
H36 C26 1_555 1_555
N1 C3 1_555 1_555
H37 N1 1_555 1_555
N2 C6 1_555 1_555
H38 N2 1_555 1_555
N3 C7 1_555 1_555
N4 C19 1_555 1_555
N5 C20 1_555 1_555
H39 N5 1_555 1_555
N6 C20 1_555 1_555
H40 N6 1_555 1_555
C2 C3 1_555 1_555
C5 C6 1_555 1_555
C7 N2 1_555 1_555
C8 C13 1_555 1_555
C8 N3 1_555 1_555
C12 C13 1_555 1_555
C18 C19 1_555 1_555
C21 N5 1_555 1_555
C24 N6 1_555 1_555

#END
