
#######################################################################
#
#                 Cambridge Crystallographic Data Centre
#                                CCDC 
#
#######################################################################
#
# If this CIF has been generated from an entry in the Cambridge 
# Structural Database, then it will include bibliographic, chemical, 
# crystal, experimental, refinement or atomic coordinate data resulting 
# from the CCDC's data processing and validation procedures.
#
#######################################################################

data_TESQEO
_chemical_formula_moiety         'C16 H13 F2 N1 O1 S1'
_chemical_name_systematic        
3-(2-fluorobenzyl)-2-(2-fluorophenyl)-1,3-thiazolidin-4-one
_symmetry_cell_setting           monoclinic
_symmetry_space_group_name_H-M   'P 21/a'
_symmetry_Int_Tables_number      14
_space_group_name_Hall           '-P 2yab'
loop_
_symmetry_equiv_pos_site_id
_symmetry_equiv_pos_as_xyz
1 x,y,z
2 1/2-x,1/2+y,-z
3 -x,-y,-z
4 1/2+x,1/2-y,z
_cell_length_a                   10.1491(4)
_cell_length_b                   10.1236(3)
_cell_length_c                   13.9981(6)
_cell_angle_alpha                90
_cell_angle_beta                 106.333(2)
_cell_angle_gamma                90
_cell_volume                     1380.2
_exptl_crystal_colour            colorless
_exptl_crystal_description       plate
_cell_formula_units_Z            4
loop_
_atom_site_label
_atom_site_type_symbol
_atom_site_fract_x
_atom_site_fract_y
_atom_site_fract_z
S1 S 0.72637(7) 0.21040(7) 0.54773(5)
O1 O 1.0169(2) 0.46112(19) 0.66163(18)
F1 F 1.0107(2) 0.21787(19) 1.01173(15)
N1 N 0.9214(2) 0.2774(2) 0.70929(16)
C1 C 0.8222(3) 0.1703(2) 0.67699(18)
H1 H 0.758(3) 0.170(3) 0.716(2)
C2 C 0.9357(3) 0.3690(2) 0.6418(2)
C3 C 0.8392(3) 0.3455(3) 0.5395(2)
H2 H 0.8380 0.3934 0.4809
C4 C 0.8897(2) 0.0358(2) 0.68501(17)
C5 C 0.9904(3) 0.0065(3) 0.63775(19)
H3 H 1.0211 0.0747 0.6027
C6 C 1.0470(3) -0.1181(3) 0.6400(2)
H4 H 1.1162 -0.1346 0.6078
C7 C 1.0010(4) -0.2191(3) 0.6904(2)
H5 H 1.0368 -0.3059 0.6910
C8 C 0.9034(4) -0.1926(3) 0.7392(2)
H6 H 0.8725 -0.2608 0.7743
C9 C 0.8505(3) -0.0659(3) 0.73699(19)
C10 C 0.9952(3) 0.2884(3) 0.8144(2)
H8 H 1.0789 0.3421 0.8218
H9 H 1.0240 0.1993 0.8415
C11 C 0.9073(3) 0.3515(2) 0.87374(19)
C12 C 0.9210(3) 0.3159(3) 0.9710(2)
C13 C 0.8474(3) 0.3744(3) 1.0294(2)
H10 H 0.8603 0.3467 1.0962
C14 C 0.7546(3) 0.4739(3) 0.9887(2)
H11 H 0.7031 0.5150 1.0276
C15 C 0.7374(3) 0.5128(3) 0.8915(2)
H12 H 0.6738 0.5808 0.8633
C16 C 0.8127(3) 0.4529(3) 0.8352(2)
H13 H 0.8002 0.4811 0.7685
F2 F 0.7709(3) -0.0409(3) 0.79270(19)
H7? H 0.745(9) -0.118(10) 0.751(7)
F3? F 1.0413(5) 0.0911(5) 0.5979(3)
loop_
_geom_bond_atom_site_label_1
_geom_bond_atom_site_label_2
_geom_bond_site_symmetry_1
_geom_bond_site_symmetry_2
S1 C1 1_555 1_555
O1 C2 1_555 1_555
F1 C12 1_555 1_555
N1 C1 1_555 1_555
C1 H1 1_555 1_555
C2 N1 1_555 1_555
C3 S1 1_555 1_555
H2 C3 1_555 1_555
C4 C1 1_555 1_555
C5 C4 1_555 1_555
H3 C5 1_555 1_555
C6 C5 1_555 1_555
H4 C6 1_555 1_555
C7 C6 1_555 1_555
H5 C7 1_555 1_555
C8 C7 1_555 1_555
H6 C8 1_555 1_555
C9 C4 1_555 1_555
C10 N1 1_555 1_555
H8 C10 1_555 1_555
H9 C10 1_555 1_555
C11 C10 1_555 1_555
C12 C11 1_555 1_555
C13 C12 1_555 1_555
H10 C13 1_555 1_555
C14 C13 1_555 1_555
H11 C14 1_555 1_555
C15 C14 1_555 1_555
H12 C15 1_555 1_555
C16 C11 1_555 1_555
H13 C16 1_555 1_555
F2 C9 1_555 1_555
C2 C3 1_555 1_555
C8 C9 1_555 1_555
C15 C16 1_555 1_555

#END
