
#######################################################################
#
#                 Cambridge Crystallographic Data Centre
#                                CCDC 
#
#######################################################################
#
# If this CIF has been generated from an entry in the Cambridge 
# Structural Database, then it will include bibliographic, chemical, 
# crystal, experimental, refinement or atomic coordinate data resulting 
# from the CCDC's data processing and validation procedures.
#
#######################################################################

data_TESSUI
_chemical_compound_source        'aerial parts of Salvia hispanica'
_chemical_name_common            
'(1 R,2 S,4 R,5 R,2S,5S,9R,10R,12R)-salvihispin A-2-O- -d-3-keto-glucopyranoside'
_chemical_formula_moiety         'C26 H32 O10'
_chemical_name_systematic        
'5-{[3,5-dihydroxy-6-(hydroxymethyl)-4-oxooxan-2-yl]oxy}-7-[2-(furan-3-yl)-2-hydroxyethyl]-7-methyl-8-methylidene-6,6a,7,8,9,10-hexahydro-1H-naphtho[1,8a-c]furan-3(5H)-one unknown solvate'
_symmetry_cell_setting           monoclinic
_symmetry_space_group_name_H-M   'P 21'
_symmetry_Int_Tables_number      4
_space_group_name_Hall           'P 2yb'
loop_
_symmetry_equiv_pos_site_id
_symmetry_equiv_pos_as_xyz
1 x,y,z
2 -x,1/2+y,-z
_cell_length_a                   19.2801(6)
_cell_length_b                   7.7242(3)
_cell_length_c                   20.6958(7)
_cell_angle_alpha                90
_cell_angle_beta                 114.830(2)
_cell_angle_gamma                90
_cell_volume                     2797.17
_exptl_crystal_colour            colorless
_exptl_crystal_description       plate
_cell_formula_units_Z            4
loop_
_atom_site_label
_atom_site_type_symbol
_atom_site_fract_x
_atom_site_fract_y
_atom_site_fract_z
C27 C 0.2536(4) 0.1696(9) 0.3393(3)
H33 H 0.2811 0.1154 0.3867
H34 H 0.2686 0.1084 0.3051
O11 O 0.3109(5) 0.4505(11) 0.4783(3)
O12 O 0.1338(4) 0.4813(9) 0.4854(3)
C28 C 0.1449(4) 0.2549(10) 0.3669(3)
H35 H 0.1006 0.2225 0.3732
C29 C 0.2460(4) 0.6501(7) 0.3739(3)
H36 H 0.2480 0.7246 0.4136
H37 H 0.1952 0.6647 0.3337
C30 C 0.3099(4) 0.7073(9) 0.3501(3)
H38 H 0.2886 0.7098 0.2974
H39 H 0.3274 0.8256 0.3678
O13 O 0.5142(5) 0.8379(12) 0.2907(5)
C31 C 0.4424(7) 0.8707(17) 0.2425(8)
H40 H 0.4249 0.9837 0.2252
C32 C 0.3982(5) 0.7300(16) 0.2211(6)
H41 H 0.3466 0.7223 0.1870
C33 C 0.4475(5) 0.5936(14) 0.2619(5)
C34 C 0.4252(6) 0.4058(15) 0.2641(6)
H42 H 0.4681 0.3449 0.3032
C35 C 0.3526(5) 0.3803(13) 0.2745(5)
H43 H 0.3329 0.2628 0.2574
H44 H 0.3141 0.4639 0.2434
C36 C 0.3580(4) 0.4005(9) 0.3506(3)
C37 C 0.2759(4) 0.3586(7) 0.3430(3)
H45 H 0.2409 0.4084 0.2959
C38 C 0.1680(5) 0.1519(10) 0.3160(3)
H46 H 0.1545 0.0272 0.3168
C39 C 0.2571(4) 0.4575(8) 0.3983(3)
C40 C 0.2585(3) 0.4955(7) 0.5124(2)
H47 H 0.2737 0.4311 0.5577
H48 H 0.2620 0.6209 0.5232
C41 C 0.1854(5) 0.4541(11) 0.4676(4)
C42 C 0.1853(4) 0.3866(8) 0.4016(3)
C43 C 0.3754(4) 0.5870(9) 0.3779(4)
C44 C 0.4453(5) 0.6386(11) 0.4242(5)
H49 H 0.4537 0.7555 0.4398
H50 H 0.4863 0.5581 0.4412
C45 C 0.4161(5) 0.2703(11) 0.4021(4)
H51 H 0.4666 0.2910 0.4029
H52 H 0.3997 0.1519 0.3858
H53 H 0.4189 0.2857 0.4501
C46 C 0.5124(6) 0.6654(16) 0.2993(7)
H54 H 0.5557 0.6016 0.3304
O14 O 0.4116(7) 0.3241(14) 0.1974(6)
H55 H 0.4423 0.3636 0.1820
C47 C 0.1080(6) 0.1215(13) 0.1898(4)
H56 H 0.1041 -0.0031 0.2009
O15 O 0.1221(4) 0.2252(8) 0.2467(3)
C48 C 0.0383(6) 0.1828(14) 0.1285(4)
H57 H 0.0424 0.3088 0.1196
O16 O -0.0262(4) 0.1504(14) 0.1421(4)
H58 H -0.0213 0.2022 0.1795
C49 C 0.0314(8) 0.0721(18) 0.0625(5)
O17 O -0.0266(9) 0.095(4) 0.0084(6)
C50 C 0.1034(8) 0.0952(19) 0.0494(5)
H59 H 0.1061 0.2176 0.0350
O18 O 0.0963(10) -0.014(2) -0.0061(6)
H60 H 0.0918 0.0453 -0.0417
C51 C 0.1755(9) 0.0546(19) 0.1177(6)
H61 H 0.1732 -0.0696 0.1303
O19 O 0.1751(4) 0.1548(11) 0.1721(3)
C52 C 0.2473(10) 0.083(2) 0.1107(9)
H62 H 0.2901 0.0376 0.1538
H63 H 0.2459 0.0155 0.0694
O20 O 0.2612(8) 0.2505(18) 0.1019(6)
H64 H 0.2574 0.3104 0.1341
C1 C 0.7729(4) 0.1801(8) 0.3351(3)
H1 H 0.7937 0.1272 0.3034
H2 H 0.8005 0.1297 0.3832
C2 C 0.8711(5) 0.4364(10) 0.2773(4)
H3 H 0.8561 0.3191 0.2569
H4 H 0.8317 0.5177 0.2459
O1 O 1.0319(7) 0.9081(13) 0.3313(9)
C3 C 0.9381(5) 0.6875(12) 0.4292(4)
H5 H 0.9386 0.8028 0.4454
H6 H 0.9831 0.6189 0.4487
C4 C 0.8026(4) 0.7272(9) 0.3475(4)
H7 H 0.7846 0.7301 0.2952
H8 H 0.8135 0.8477 0.3653
C5 C 0.7388(4) 0.6523(8) 0.3658(3)
H9 H 0.7346 0.7219 0.4042
H10 H 0.6893 0.6584 0.3234
C6 C 0.5914(5) 0.0981(11) 0.1925(3)
H11 H 0.5610 0.0636 0.2195
O2 O 0.6513(4) 0.1952(7) 0.2337(2)
C7 C 0.5411(6) 0.2039(11) 0.1258(4)
H12 H 0.5730 0.2361 0.1000
O3 O 0.5155(4) 0.3551(9) 0.1446(3)
H13 H 0.4676 0.3599 0.1235
C8 C 0.4766(7) 0.0940(15) 0.0776(4)
O4 O 0.4105(5) 0.1346(14) 0.0569(4)
C9 C 0.5053(8) -0.0786(15) 0.0617(5)
H14 H 0.5339 -0.0544 0.0320
O5 O 0.4431(7) -0.1930(12) 0.0224(4)
H15 H 0.4492 -0.2872 0.0444
C10 C 0.5590(7) -0.1667(14) 0.1293(4)
H16 H 0.5307 -0.2077 0.1572
O6 O 0.6197(4) -0.0526(9) 0.1712(3)
C11 C 0.6002(8) -0.3213(15) 0.1113(5)
H17 H 0.5622 -0.3913 0.0724
H18 H 0.6379 -0.2762 0.0946
O7 O 0.6364(5) -0.4232(10) 0.1697(3)
H19 H 0.6361 -0.3738 0.2057
C12 C 0.6892(5) 0.1382(9) 0.3079(3)
H20 H 0.6829 0.0102 0.3101
C13 C 0.7861(4) 0.3749(8) 0.3386(3)
H21 H 0.7517 0.4185 0.2902
C14 C 0.8677(4) 0.4381(8) 0.3508(3)
C15 C 0.9460(6) 0.4817(14) 0.2732(5)
H22 H 0.9879 0.4157 0.3113
C16 C 0.9648(6) 0.6694(13) 0.2843(6)
C17 C 0.9202(8) 0.8195(14) 0.2502(7)
H23 H 0.8700 0.8222 0.2130
C18 C 0.9665(14) 0.9592(16) 0.2834(12)
H24 H 0.9522 1.0770 0.2726
O8 O 0.9431(6) 0.4299(13) 0.2068(4)
H25 H 0.9162 0.3403 0.1929
C19 C 1.0318(8) 0.7366(18) 0.3323(9)
H26 H 1.0738 0.6685 0.3630
C20 C 0.9287(5) 0.3180(11) 0.4021(4)
H27 H 0.9785 0.3476 0.4028
H28 H 0.9160 0.1978 0.3864
H29 H 0.9310 0.3314 0.4500
C21 C 0.8747(4) 0.6226(9) 0.3795(4)
C22 C 0.7567(4) 0.4634(8) 0.3901(3)
C23 C 0.8050(3) 0.4569(8) 0.4711(3)
H30 H 0.8309 0.3436 0.4857
H31 H 0.8439 0.5499 0.4866
O9 O 0.7490(3) 0.4823(6) 0.5009(2)
C24 C 0.6802(4) 0.4283(9) 0.4540(3)
O10 O 0.6245(3) 0.4273(9) 0.4677(3)
C25 C 0.6879(4) 0.3707(8) 0.3894(3)
C26 C 0.6544(4) 0.2277(9) 0.3524(3)
H32 H 0.6093 0.1832 0.3542
O21? O 0.0192(13) -0.098(2) 0.0746(9)
loop_
_geom_bond_atom_site_label_1
_geom_bond_atom_site_label_2
_geom_bond_site_symmetry_1
_geom_bond_site_symmetry_2
C1 H1 1_555 1_555
H2 C1 1_555 1_555
C2 H3 1_555 1_555
H4 C2 1_555 1_555
O1 C18 1_555 1_555
C3 H5 1_555 1_555
H6 C3 1_555 1_555
C4 H7 1_555 1_555
H8 C4 1_555 1_555
C5 C4 1_555 1_555
H9 C5 1_555 1_555
H10 C5 1_555 1_555
C6 H11 1_555 1_555
O2 C6 1_555 1_555
C7 C6 1_555 1_555
H12 C7 1_555 1_555
O3 C7 1_555 1_555
H13 O3 1_555 1_555
C8 C7 1_555 1_555
O4 C8 1_555 1_555
C9 C8 1_555 1_555
H14 C9 1_555 1_555
O5 C9 1_555 1_555
H15 O5 1_555 1_555
C10 C9 1_555 1_555
H16 C10 1_555 1_555
O6 C6 1_555 1_555
C11 C10 1_555 1_555
H17 C11 1_555 1_555
H18 C11 1_555 1_555
O7 C11 1_555 1_555
H19 O7 1_555 1_555
C12 C1 1_555 1_555
H20 C12 1_555 1_555
C13 C1 1_555 1_555
H21 C13 1_555 1_555
C14 C2 1_555 1_555
C15 C2 1_555 1_555
H22 C15 1_555 1_555
C16 C15 1_555 1_555
C17 C16 1_555 1_555
H23 C17 1_555 1_555
C18 C17 1_555 1_555
H24 C18 1_555 1_555
O8 C15 1_555 1_555
H25 O8 1_555 1_555
C19 O1 1_555 1_555
H26 C19 1_555 1_555
C20 C14 1_555 1_555
H27 C20 1_555 1_555
H28 C20 1_555 1_555
H29 C20 1_555 1_555
C21 C3 1_555 1_555
C22 C5 1_555 1_555
C23 C22 1_555 1_555
H30 C23 1_555 1_555
H31 C23 1_555 1_555
O9 C23 1_555 1_555
C24 O9 1_555 1_555
O10 C24 1_555 1_555
C25 C22 1_555 1_555
C26 C12 1_555 1_555
H32 C26 1_555 1_555
C27 H33 1_555 1_555
H34 C27 1_555 1_555
O11 C39 1_555 1_555
O12 C41 1_555 1_555
C28 H35 1_555 1_555
C29 H36 1_555 1_555
H37 C29 1_555 1_555
C30 C29 1_555 1_555
H38 C30 1_555 1_555
H39 C30 1_555 1_555
O13 C31 1_555 1_555
C31 H40 1_555 1_555
C32 C31 1_555 1_555
H41 C32 1_555 1_555
C33 C32 1_555 1_555
C34 C33 1_555 1_555
H42 C34 1_555 1_555
C35 C34 1_555 1_555
H43 C35 1_555 1_555
H44 C35 1_555 1_555
C36 C35 1_555 1_555
C37 C27 1_555 1_555
H45 C37 1_555 1_555
C38 C27 1_555 1_555
H46 C38 1_555 1_555
C39 C29 1_555 1_555
C40 O11 1_555 1_555
H47 C40 1_555 1_555
H48 C40 1_555 1_555
C41 C40 1_555 1_555
C42 C28 1_555 1_555
C43 C30 1_555 1_555
C44 C43 1_555 1_555
H49 C44 1_555 1_555
H50 C44 1_555 1_555
C45 C36 1_555 1_555
H51 C45 1_555 1_555
H52 C45 1_555 1_555
H53 C45 1_555 1_555
C46 O13 1_555 1_555
H54 C46 1_555 1_555
O14 C34 1_555 1_555
H55 O14 1_555 1_555
C47 H56 1_555 1_555
O15 C38 1_555 1_555
C48 C47 1_555 1_555
H57 C48 1_555 1_555
O16 C48 1_555 1_555
H58 O16 1_555 1_555
C49 C48 1_555 1_555
O17 C49 1_555 1_555
C50 C49 1_555 1_555
H59 C50 1_555 1_555
O18 C50 1_555 1_555
H60 O18 1_555 1_555
C51 C50 1_555 1_555
H61 C51 1_555 1_555
O19 C47 1_555 1_555
C52 C51 1_555 1_555
H62 C52 1_555 1_555
H63 C52 1_555 1_555
O20 C52 1_555 1_555
H64 O20 1_555 1_555
C4 C21 1_555 1_555
O2 C12 1_555 1_555
C10 O6 1_555 1_555
C13 C14 1_555 1_555
C13 C22 1_555 1_555
C14 C21 1_555 1_555
C16 C19 1_555 1_555
C24 C25 1_555 1_555
C25 C26 1_555 1_555
C28 C38 1_555 1_555
C33 C46 1_555 1_555
C36 C37 1_555 1_555
C36 C43 1_555 1_555
C37 C39 1_555 1_555
C39 C42 1_555 1_555
C41 C42 1_555 1_555
C47 O15 1_555 1_555
C51 O19 1_555 1_555

#END
