
#######################################################################
#
#                 Cambridge Crystallographic Data Centre
#                                CCDC 
#
#######################################################################
#
# If this CIF has been generated from an entry in the Cambridge 
# Structural Database, then it will include bibliographic, chemical, 
# crystal, experimental, refinement or atomic coordinate data resulting 
# from the CCDC's data processing and validation procedures.
#
#######################################################################

data_TETAMI02
_chemical_formula_moiety         'C8 H20 N1 1+,I3 1-'
_chemical_name_systematic        'Tetraethylammonium tri-iodide'
_symmetry_cell_setting           orthorhombic
_symmetry_space_group_name_H-M   'C m c a'
_symmetry_Int_Tables_number      64
_space_group_name_Hall           '-C 2ac 2'
loop_
_symmetry_equiv_pos_site_id
_symmetry_equiv_pos_as_xyz
1 x,y,z
2 -x,1/2-y,1/2+z
3 -x,1/2+y,1/2-z
4 x,-y,-z
5 1/2+x,1/2+y,z
6 1/2-x,-y,1/2+z
7 1/2-x,y,1/2-z
8 1/2+x,1/2-y,-z
9 -x,-y,-z
10 x,1/2+y,1/2-z
11 x,1/2-y,1/2+z
12 -x,y,z
13 1/2-x,1/2-y,-z
14 1/2+x,y,1/2-z
15 1/2+x,-y,1/2+z
16 1/2-x,1/2+y,z
_cell_length_a                   14.2476(9)
_cell_length_b                   15.2357(15)
_cell_length_c                   14.0967(15)
_cell_angle_alpha                90
_cell_angle_beta                 90
_cell_angle_gamma                90
_cell_volume                     3060
_exptl_crystal_colour            brown
_exptl_crystal_description       strip
_cell_formula_units_Z            8
loop_
_atom_site_label
_atom_site_type_symbol
_atom_site_fract_x
_atom_site_fract_y
_atom_site_fract_z
C1 C 0.1973(4) 0.1514(4) 0.1797(5)
H1 H 0.1652 0.1898 0.1354
H2 H 0.1497 0.1185 0.2137
C2 C 0.2572(4) 0.0872(5) 0.1236(5)
H3 H 0.2180 0.0547 0.0808
H4 H 0.2877 0.0475 0.1664
H5 H 0.3036 0.1190 0.0881
C3 C 0.3232(4) 0.2636(4) 0.2009(5)
H6 H 0.3682 0.2257 0.1695
H7 H 0.3568 0.2976 0.2482
C4 C 0.2804(6) 0.3266(5) 0.1273(6)
H8 H 0.3294 0.3608 0.0986
H9 H 0.2365 0.3650 0.1581
H10 H 0.2485 0.2933 0.0793
N1 N 0.2500 0.2075(4) 0.2500
C1F C 0.3027(4) 0.1514(4) 0.3203(5)
H1F H 0.3348 0.1898 0.3646
H2F H 0.3503 0.1185 0.2863
C2F C 0.2428(4) 0.0872(5) 0.3764(5)
H3F H 0.2820 0.0547 0.4192
H4F H 0.2123 0.0475 0.3336
H5F H 0.1964 0.1190 0.4119
C3F C 0.1768(4) 0.2636(4) 0.2991(5)
H6F H 0.1318 0.2257 0.3305
H7F H 0.1432 0.2976 0.2518
C4F C 0.2196(6) 0.3266(5) 0.3727(6)
H8F H 0.1706 0.3608 0.4014
H9F H 0.2635 0.3650 0.3419
H10F H 0.2515 0.2933 0.4207
I1 I 0.5000 0.47118(5) 0.20693(5)
I2 I 0.5000 0.5000 0.0000
I1C I 0.5000 0.52882(5) -0.20693(5)
I3 I 0.5000 1.0000 0.0000
I4 I 0.5000 0.80899(6) 0.02493(6)
I4C I 0.5000 1.19101(6) -0.02493(6)
loop_
_geom_bond_atom_site_label_1
_geom_bond_atom_site_label_2
_geom_bond_site_symmetry_1
_geom_bond_site_symmetry_2
C1 H1 1_555 1_555
H2 C1 1_555 1_555
C2 C1 1_555 1_555
H3 C2 1_555 1_555
H4 C2 1_555 1_555
H5 C2 1_555 1_555
C3 H6 1_555 1_555
H7 C3 1_555 1_555
C4 C3 1_555 1_555
H8 C4 1_555 1_555
H9 C4 1_555 1_555
H10 C4 1_555 1_555
N1 C1 1_555 1_555
I1 I2 1_555 1_555
I2 I1C 1_555 1_555
I3 I4 1_555 1_555
C1F N1 1_555 1_555
H1F C1F 1_555 1_555
H2F C1F 1_555 1_555
C2F C1F 1_555 1_555
H3F C2F 1_555 1_555
H4F C2F 1_555 1_555
H5F C2F 1_555 1_555
C3F N1 1_555 1_555
H6F C3F 1_555 1_555
H7F C3F 1_555 1_555
C4F C3F 1_555 1_555
H8F C4F 1_555 1_555
H9F C4F 1_555 1_555
H10F C4F 1_555 1_555
I4C I3 1_555 1_555
C3 N1 1_555 1_555

#END
