
#######################################################################
#
#                 Cambridge Crystallographic Data Centre
#                                CCDC 
#
#######################################################################
#
# If this CIF has been generated from an entry in the Cambridge 
# Structural Database, then it will include bibliographic, chemical, 
# crystal, experimental, refinement or atomic coordinate data resulting 
# from the CCDC's data processing and validation procedures.
#
#######################################################################

data_TETGOR
_chemical_formula_moiety         'C28 H24 N4 O5,C1 H4 O1'
_chemical_name_systematic        
'methyl 8-methyl-10-[2-(methylamino)-2-oxoethyl]-1-oxo-2,3-dihydro-1H,8H,10H-9-oxa-2,7b,10a-triazabenzo[2,3]azuleno[7,8,1-lma]cyclopenta[c]fluorene-8-carboxylate methanol solvate'
_symmetry_cell_setting           monoclinic
_symmetry_space_group_name_H-M   'P 21'
_symmetry_Int_Tables_number      4
_space_group_name_Hall           'P 2yb'
loop_
_symmetry_equiv_pos_site_id
_symmetry_equiv_pos_as_xyz
1 x,y,z
2 -x,1/2+y,-z
_cell_length_a                   15.4258(5)
_cell_length_b                   8.2007(2)
_cell_length_c                   20.1539(6)
_cell_angle_alpha                90
_cell_angle_beta                 98.481(3)
_cell_angle_gamma                90
_cell_volume                     2521.64
_exptl_crystal_colour            yellow
_exptl_crystal_description       plate
_cell_formula_units_Z            4
loop_
_atom_site_label
_atom_site_type_symbol
_atom_site_fract_x
_atom_site_fract_y
_atom_site_fract_z
O1 O 0.87257(19) 0.4985(4) 0.09000(15)
O2 O 0.50971(17) 0.2992(3) 0.26973(12)
O3 O 0.4657(3) -0.0011(4) 0.36397(17)
O4 O 0.3068(2) 0.3622(4) 0.25998(19)
O5 O 0.39561(19) 0.5622(4) 0.23640(15)
N1 N 0.7552(2) 0.5883(5) 0.01502(19)
H1 H 0.785937 0.634963 -0.013206
N2 N 0.4712(2) 0.3587(4) 0.15590(16)
N3 N 0.6511(2) 0.2483(4) 0.24785(16)
N4 N 0.4959(3) 0.2349(5) 0.41939(18)
H2 H 0.533498 0.315502 0.428317
C1 C 0.7922(3) 0.5111(5) 0.0712(2)
C2 C 0.6604(3) 0.5878(6) 0.0053(2)
H3 H 0.636057 0.530102 -0.036433
H4 H 0.636514 0.699933 0.004201
C3 C 0.6423(3) 0.4970(5) 0.0663(2)
C4 C 0.7196(3) 0.4516(5) 0.10483(19)
C5 C 0.7185(3) 0.3654(4) 0.16599(19)
C6 C 0.6371(3) 0.3286(5) 0.18631(19)
C7 C 0.5587(3) 0.3767(5) 0.14691(19)
C8 C 0.5613(3) 0.4605(5) 0.08575(19)
C9 C 0.4716(3) 0.4946(5) 0.05714(19)
C10 C 0.4180(3) 0.4291(5) 0.10135(19)
C11 C 0.3270(3) 0.4392(6) 0.0878(2)
H5 H 0.291063 0.393175 0.117457
C12 C 0.2907(3) 0.5184(6) 0.0298(2)
H6 H 0.228754 0.527033 0.019357
C13 C 0.3432(3) 0.5861(6) -0.0139(2)
H7 H 0.316388 0.640594 -0.053274
C14 C 0.4332(3) 0.5753(5) -0.0010(2)
H8 H 0.468444 0.621634 -0.030991
C15 C 0.7847(3) 0.3013(5) 0.2166(2)
C16 C 0.7419(3) 0.2281(5) 0.2663(2)
C17 C 0.7908(3) 0.1531(6) 0.3218(2)
H9 H 0.762600 0.102497 0.355185
C18 C 0.8802(3) 0.1539(6) 0.3270(2)
H10 H 0.913816 0.103607 0.364793
C19 C 0.9234(3) 0.2263(6) 0.2786(2)
H11 H 0.985612 0.225408 0.283768
C20 C 0.8762(3) 0.2987(5) 0.2236(2)
H12 H 0.905494 0.347013 0.190281
C21 C 0.5765(3) 0.1781(5) 0.2754(2)
H13 H 0.554627 0.079000 0.249251
C22 C 0.4395(3) 0.2914(5) 0.21513(19)
C23 C 0.5977(3) 0.1362(6) 0.3493(2)
H14 H 0.631812 0.033493 0.354853
H15 H 0.633725 0.223919 0.373252
C24 C 0.5133(3) 0.1167(5) 0.3786(2)
C25 C 0.4160(3) 0.2342(7) 0.4498(3)
H16 H 0.366060 0.262313 0.415797
H17 H 0.421138 0.314463 0.486174
H18 H 0.407107 0.125533 0.467781
C26 C 0.3992(3) 0.1245(5) 0.2013(2)
H19 H 0.439537 0.055249 0.180656
H20 H 0.343802 0.134955 0.170777
H21 H 0.388046 0.075235 0.243543
C27 C 0.3719(3) 0.4080(5) 0.2397(2)
C28 C 0.3329(4) 0.6838(6) 0.2504(3)
H22 H 0.293140 0.709199 0.209135
H23 H 0.363963 0.782984 0.267422
H24 H 0.298971 0.641709 0.284168
O6 O 0.61960(19) 0.5158(4) 0.40927(15)
O7 O 0.98041(17) 0.8526(3) 0.24675(13)
O8 O 1.0080(3) 1.0249(5) 0.1098(2)
O9 O 1.1840(2) 0.8894(5) 0.2710(2)
O10 O 1.1025(2) 0.9854(4) 0.34434(16)
N5 N 0.7391(2) 0.4137(5) 0.47732(19)
H25 H 0.709620 0.363072 0.505357
N6 N 1.0181(2) 0.6818(4) 0.33988(16)
N7 N 0.8357(2) 0.7761(4) 0.24729(15)
N8 N 0.9876(2) 0.7660(5) 0.07501(17)
H26 H 0.955531 0.677390 0.075219
C29 C 0.7001(3) 0.4995(5) 0.4244(2)
C30 C 0.8342(3) 0.4115(6) 0.4843(2)
H27 H 0.856871 0.299619 0.480098
H28 H 0.861166 0.458824 0.527663
C31 C 0.8501(3) 0.5168(5) 0.42633(19)
C32 C 0.7714(3) 0.5641(5) 0.38991(19)
C33 C 0.7705(3) 0.6545(5) 0.32962(19)
C34 C 0.8509(3) 0.6956(5) 0.30878(19)
C35 C 0.9309(2) 0.6526(5) 0.34778(19)
C36 C 0.9300(3) 0.5594(5) 0.40653(19)
C37 C 1.0200(3) 0.5266(5) 0.43418(19)
C38 C 1.0718(3) 0.6032(5) 0.3916(2)
C39 C 1.1639(3) 0.5939(5) 0.4043(2)
H29 H 1.199287 0.644204 0.375336
C40 C 1.2010(3) 0.5085(6) 0.4607(2)
H30 H 1.262970 0.501236 0.470737
C41 C 1.1496(3) 0.4330(5) 0.5032(2)
H31 H 1.177121 0.374825 0.541329
C42 C 1.0596(3) 0.4415(5) 0.4907(2)
H32 H 1.025010 0.390381 0.520014
C43 C 0.7026(2) 0.7117(5) 0.27771(19)
C44 C 0.7449(2) 0.7862(5) 0.22751(19)
C45 C 0.6952(3) 0.8553(5) 0.1709(2)
H33 H 0.722858 0.910161 0.138205
C46 C 0.6056(3) 0.8422(5) 0.1636(2)
H34 H 0.571366 0.886767 0.124818
C47 C 0.5635(3) 0.7649(5) 0.2119(2)
H35 H 0.501371 0.756108 0.205051
C48 C 0.6110(3) 0.7014(5) 0.2693(2)
H36 H 0.582222 0.651549 0.302594
C49 C 0.9066(2) 0.7794(5) 0.20628(18)
H37 H 0.921438 0.665714 0.194016
C50 C 1.0474(2) 0.7523(5) 0.28020(19)
C51 C 0.8870(3) 0.8830(5) 0.14336(19)
H38 H 0.838137 0.833389 0.112583
H39 H 0.868485 0.993231 0.155532
C52 C 0.9666(3) 0.8966(5) 0.1082(2)
C53 C 1.0620(3) 0.7649(7) 0.0384(3)
H40 H 1.056988 0.856261 0.006737
H41 H 1.062798 0.662036 0.013726
H42 H 1.116392 0.775521 0.070043
C54 C 1.0799(3) 0.6202(5) 0.2375(2)
H43 H 1.133078 0.570765 0.261917
H44 H 1.093040 0.667786 0.195526
H45 H 1.034530 0.536412 0.227466
C55 C 1.1206(3) 0.8820(5) 0.2989(2)
C56 C 1.1653(4) 1.1230(7) 0.3554(3)
H46 H 1.174032 1.169283 0.312036
H47 H 1.221518 1.083439 0.378983
H48 H 1.142042 1.207057 0.382469
O11 O 0.1439(3) 0.2027(5) 0.0864(2)
H49 H 0.109950 0.123146 0.087919
C57 C 0.1133(4) 0.3354(8) 0.1190(4)
H50 H 0.134353 0.436558 0.101028
H51 H 0.134950 0.328403 0.167188
H52 H 0.049091 0.334736 0.111956
O12 O 0.3616(2) 0.7924(4) 0.42071(19)
H53 H 0.385952 0.871641 0.404545
C58 C 0.4126(4) 0.6515(7) 0.4175(3)
H54 H 0.461552 0.675855 0.393192
H55 H 0.376312 0.565098 0.394064
H56 H 0.435426 0.615215 0.463080
loop_
_geom_bond_atom_site_label_1
_geom_bond_atom_site_label_2
_geom_bond_site_symmetry_1
_geom_bond_site_symmetry_2
O1 C1 1_555 1_555
O2 C21 1_555 1_555
O3 C24 1_555 1_555
O4 C27 1_555 1_555
O5 C27 1_555 1_555
N1 H1 1_555 1_555
N2 C7 1_555 1_555
N3 C6 1_555 1_555
N4 H2 1_555 1_555
C1 N1 1_555 1_555
C2 N1 1_555 1_555
H3 C2 1_555 1_555
H4 C2 1_555 1_555
C3 C2 1_555 1_555
C4 C1 1_555 1_555
C5 C4 1_555 1_555
C6 C5 1_555 1_555
C7 C6 1_555 1_555
C8 C3 1_555 1_555
C9 C8 1_555 1_555
C10 N2 1_555 1_555
C11 C10 1_555 1_555
H5 C11 1_555 1_555
C12 C11 1_555 1_555
H6 C12 1_555 1_555
C13 C12 1_555 1_555
H7 C13 1_555 1_555
C14 C9 1_555 1_555
H8 C14 1_555 1_555
C15 C5 1_555 1_555
C16 N3 1_555 1_555
C17 C16 1_555 1_555
H9 C17 1_555 1_555
C18 C17 1_555 1_555
H10 C18 1_555 1_555
C19 C18 1_555 1_555
H11 C19 1_555 1_555
C20 C15 1_555 1_555
H12 C20 1_555 1_555
C21 N3 1_555 1_555
H13 C21 1_555 1_555
C22 O2 1_555 1_555
C23 C21 1_555 1_555
H14 C23 1_555 1_555
H15 C23 1_555 1_555
C24 N4 1_555 1_555
C25 N4 1_555 1_555
H16 C25 1_555 1_555
H17 C25 1_555 1_555
H18 C25 1_555 1_555
C26 C22 1_555 1_555
H19 C26 1_555 1_555
H20 C26 1_555 1_555
H21 C26 1_555 1_555
C27 C22 1_555 1_555
C28 O5 1_555 1_555
H22 C28 1_555 1_555
H23 C28 1_555 1_555
H24 C28 1_555 1_555
O6 C29 1_555 1_555
O7 C49 1_555 1_555
O8 C52 1_555 1_555
O9 C55 1_555 1_555
O10 C55 1_555 1_555
N5 H25 1_555 1_555
N6 C35 1_555 1_555
N7 C34 1_555 1_555
N8 H26 1_555 1_555
C29 N5 1_555 1_555
C30 N5 1_555 1_555
H27 C30 1_555 1_555
H28 C30 1_555 1_555
C31 C30 1_555 1_555
C32 C29 1_555 1_555
C33 C32 1_555 1_555
C34 C33 1_555 1_555
C35 C34 1_555 1_555
C36 C31 1_555 1_555
C37 C36 1_555 1_555
C38 N6 1_555 1_555
C39 C38 1_555 1_555
H29 C39 1_555 1_555
C40 C39 1_555 1_555
H30 C40 1_555 1_555
C41 C40 1_555 1_555
H31 C41 1_555 1_555
C42 C37 1_555 1_555
H32 C42 1_555 1_555
C43 C33 1_555 1_555
C44 N7 1_555 1_555
C45 C44 1_555 1_555
H33 C45 1_555 1_555
C46 C45 1_555 1_555
H34 C46 1_555 1_555
C47 C46 1_555 1_555
H35 C47 1_555 1_555
C48 C43 1_555 1_555
H36 C48 1_555 1_555
C49 N7 1_555 1_555
H37 C49 1_555 1_555
C50 O7 1_555 1_555
C51 C49 1_555 1_555
H38 C51 1_555 1_555
H39 C51 1_555 1_555
C52 N8 1_555 1_555
C53 N8 1_555 1_555
H40 C53 1_555 1_555
H41 C53 1_555 1_555
H42 C53 1_555 1_555
C54 C50 1_555 1_555
H43 C54 1_555 1_555
H44 C54 1_555 1_555
H45 C54 1_555 1_555
C55 C50 1_555 1_555
C56 O10 1_555 1_555
H46 C56 1_555 1_555
H47 C56 1_555 1_555
H48 C56 1_555 1_555
O11 H49 1_555 1_555
C57 O11 1_555 1_555
H50 C57 1_555 1_555
H51 C57 1_555 1_555
H52 C57 1_555 1_555
O12 H53 1_555 1_555
C58 O12 1_555 1_555
H54 C58 1_555 1_555
H55 C58 1_555 1_555
H56 C58 1_555 1_555
N2 C22 1_555 1_555
C3 C4 1_555 1_555
C7 C8 1_555 1_555
C9 C10 1_555 1_555
C13 C14 1_555 1_555
C15 C16 1_555 1_555
C19 C20 1_555 1_555
C23 C24 1_555 1_555
N6 C50 1_555 1_555
C31 C32 1_555 1_555
C35 C36 1_555 1_555
C37 C38 1_555 1_555
C41 C42 1_555 1_555
C43 C44 1_555 1_555
C47 C48 1_555 1_555
C51 C52 1_555 1_555

#END
