
#######################################################################
#
#                 Cambridge Crystallographic Data Centre
#                                CCDC 
#
#######################################################################
#
# If this CIF has been generated from an entry in the Cambridge 
# Structural Database, then it will include bibliographic, chemical, 
# crystal, experimental, refinement or atomic coordinate data resulting 
# from the CCDC's data processing and validation procedures.
#
#######################################################################

data_TETMIR
_chemical_formula_moiety         'C46 H34 N2 O4 S2'
_chemical_name_systematic        
2,9-bis(pentan-3-yl)-5,12-bis[(thiophen-3-yl)ethynyl]isoquinolino[4',5',6':6,5,10]anthra[2,1,9-def]isoquinoline-1,3,8,10(2H,9H)-tetrone
_symmetry_cell_setting           triclinic
_symmetry_space_group_name_H-M   'P -1'
_symmetry_Int_Tables_number      2
_space_group_name_Hall           '-P 1'
loop_
_symmetry_equiv_pos_site_id
_symmetry_equiv_pos_as_xyz
1 x,y,z
2 -x,-y,-z
_cell_length_a                   7.2661(9)
_cell_length_b                   7.4190(9)
_cell_length_c                   16.444(2)
_cell_angle_alpha                91.005(3)
_cell_angle_beta                 102.408(4)
_cell_angle_gamma                98.557(2)
_cell_volume                     854.982
_exptl_crystal_colour            brown
_exptl_crystal_description       plate
_cell_formula_units_Z            1
loop_
_atom_site_label
_atom_site_type_symbol
_atom_site_fract_x
_atom_site_fract_y
_atom_site_fract_z
O1 O 1.2314(3) 0.7676(3) 0.76057(12)
O2 O 0.7523(3) 0.5084(3) 0.87956(12)
N1 N 0.9974(3) 0.6361(3) 0.82259(13)
C1 C 1.2401(4) 0.3684(4) 0.90013(18)
H1 H 1.1567 0.3182 0.9365
H2 H 1.3549 0.3101 0.9101
H3 H 1.1723 0.3449 0.8417
C2 C 1.2967(4) 0.5728(4) 0.91885(17)
H4 H 1.3790 0.6229 0.8812
H5 H 1.3722 0.5952 0.9768
C3 C 1.1251(4) 0.6729(4) 0.90822(16)
H6 H 1.0483 0.6211 0.9484
C4 C 1.1760(4) 0.8771(4) 0.92992(17)
H7 H 1.2674 0.9313 0.8969
H8 H 1.0594 0.9341 0.9143
C5 C 1.2626(4) 0.9195(4) 1.02117(18)
H9 H 1.1777 0.8572 1.0544
H10 H 1.2798 1.0516 1.0332
H11 H 1.3867 0.8774 1.0354
C6 C 1.0676(4) 0.6906(4) 0.75324(17)
C7 C 0.9377(4) 0.6544(4) 0.66998(16)
C8 C 0.7478(4) 0.5686(4) 0.66085(16)
C9 C 0.6828(4) 0.5169(4) 0.73316(16)
C10 C 0.8092(4) 0.5512(4) 0.81725(17)
C11 C 0.4994(4) 0.4339(4) 0.72600(17)
H12 H 0.4563 0.3997 0.7750
C12 C 0.3723(4) 0.3977(4) 0.64803(17)
C13 C 0.6236(4) 0.5341(4) 0.58072(16)
C14 C 0.6951(4) 0.5886(4) 0.50885(16)
C15 C 1.0020(4) 0.7066(4) 0.60128(18)
H13 H 1.1298 0.7658 0.6072
C16 C 0.4304(4) 0.4468(4) 0.57412(17)
C17 C 0.8839(4) 0.6750(4) 0.52207(18)
H14 H 0.9337 0.7137 0.4753
C18 C 0.1901(6) 0.2896(6) 0.6544(2)
C19 C 0.0463(6) 0.2107(6) 0.6681(2)
C20 C -0.1343(7) 0.1164(8) 0.6810(4)
C21 C -0.1860(8) 0.0649(8) 0.7556(4)
H15 H -0.0999 0.0861 0.8084
C22 C -0.3803(10) -0.0228(11) 0.7454(6)
H16 H -0.4403 -0.0653 0.7888
C23 C -0.2850(8) 0.0690(7) 0.6121(4)
H17 H -0.2786 0.0923 0.5560
S1 S -0.48331(19) -0.0371(2) 0.64265(10)
O1A O -0.2314(3) 0.2324(3) 0.23943(12)
O2A O 0.2477(3) 0.4916(3) 0.12044(12)
N1A N 0.0026(3) 0.3639(3) 0.17741(13)
C1A C -0.2401(4) 0.6316(4) 0.09987(18)
H1A H -0.1567 0.6818 0.0635
H2A H -0.3549 0.6899 0.0899
H3A H -0.1723 0.6551 0.1583
C2A C -0.2967(4) 0.4272(4) 0.08115(17)
H4A H -0.3790 0.3771 0.1188
H5A H -0.3722 0.4048 0.0232
C3A C -0.1251(4) 0.3271(4) 0.09178(16)
H6A H -0.0483 0.3789 0.0516
C4A C -0.1760(4) 0.1229(4) 0.07008(17)
H7A H -0.2674 0.0687 0.1031
H8A H -0.0594 0.0659 0.0857
C5A C -0.2626(4) 0.0805(4) -0.02117(18)
H9A H -0.1777 0.1428 -0.0544
H10A H -0.2798 -0.0516 -0.0332
H11A H -0.3867 0.1226 -0.0354
C6A C -0.0676(4) 0.3094(4) 0.24676(17)
C7A C 0.0623(4) 0.3456(4) 0.33002(16)
C8A C 0.2522(4) 0.4314(4) 0.33915(16)
C9A C 0.3172(4) 0.4831(4) 0.26684(16)
C10A C 0.1908(4) 0.4488(4) 0.18275(17)
C11A C 0.5006(4) 0.5661(4) 0.27400(17)
H12A H 0.5437 0.6003 0.2250
C12A C 0.6277(4) 0.6023(4) 0.35197(17)
C13A C 0.3764(4) 0.4659(4) 0.41928(16)
C14A C 0.3049(4) 0.4114(4) 0.49115(16)
C15A C -0.0020(4) 0.2934(4) 0.39872(18)
H13A H -0.1298 0.2342 0.3928
C16A C 0.5696(4) 0.5532(4) 0.42588(17)
C17A C 0.1161(4) 0.3250(4) 0.47793(18)
H14A H 0.0663 0.2863 0.5247
C18A C 0.8099(6) 0.7104(6) 0.3456(2)
C19A C 0.9537(6) 0.7893(6) 0.3319(2)
C20A C 1.1343(7) 0.8836(8) 0.3190(4)
C21A C 1.1860(8) 0.9351(8) 0.2444(4)
H15A H 1.0999 0.9139 0.1916
C22A C 1.3803(10) 1.0228(11) 0.2546(6)
H16A H 1.4403 1.0653 0.2112
C23A C 1.2850(8) 0.9310(7) 0.3879(4)
H17A H 1.2786 0.9077 0.4440
S1A S 1.48331(19) 1.0371(2) 0.35735(10)
C24? C 0.9775(11) 0.7683(12) 0.4552(5)
C25? C 1.0725(12) 0.8295(11) 0.4143(5)
C26? C -0.1835(18) 0.1009(13) 0.6455(6)
C27? C -0.3862(16) 0.0458(12) 0.6137(6)
H18? H -0.4517 0.0517 0.5574
C28? C -0.4758(17) -0.0215(14) 0.6827(7)
H19? H -0.6083 -0.0616 0.6777
C29? C -0.1353(15) 0.0681(13) 0.7319(6)
H20? H -0.0095 0.0935 0.7653
S2? S -0.3173(4) -0.0165(4) 0.76613(17)
loop_
_geom_bond_atom_site_label_1
_geom_bond_atom_site_label_2
_geom_bond_site_symmetry_1
_geom_bond_site_symmetry_2
O1 C6 1_555 1_555
O2 C10 1_555 1_555
N1 C3 1_555 1_555
C1 H1 1_555 1_555
H2 C1 1_555 1_555
H3 C1 1_555 1_555
C2 C1 1_555 1_555
H4 C2 1_555 1_555
H5 C2 1_555 1_555
C3 C2 1_555 1_555
H6 C3 1_555 1_555
C4 C3 1_555 1_555
H7 C4 1_555 1_555
H8 C4 1_555 1_555
C5 C4 1_555 1_555
H9 C5 1_555 1_555
H10 C5 1_555 1_555
H11 C5 1_555 1_555
C6 N1 1_555 1_555
C7 C6 1_555 1_555
C8 C7 1_555 1_555
C9 C8 1_555 1_555
C10 N1 1_555 1_555
C11 C9 1_555 1_555
H12 C11 1_555 1_555
C12 C11 1_555 1_555
C13 C8 1_555 1_555
C14 C13 1_555 1_555
C15 C7 1_555 1_555
H13 C15 1_555 1_555
C16 C12 1_555 1_555
C17 C14 1_555 1_555
H14 C17 1_555 1_555
C18 C12 1_555 1_555
C19 C18 1_555 1_555
C20 C19 1_555 1_555
C21 C20 1_555 1_555
H15 C21 1_555 1_555
C22 C21 1_555 1_555
H16 C22 1_555 1_555
C23 C20 1_555 1_555
H17 C23 1_555 1_555
S1 C22 1_555 1_555
O1A C6A 1_555 1_555
O2A C10A 1_555 1_555
N1A C3A 1_555 1_555
C1A H1A 1_555 1_555
H2A C1A 1_555 1_555
H3A C1A 1_555 1_555
C2A C1A 1_555 1_555
H4A C2A 1_555 1_555
H5A C2A 1_555 1_555
C3A C2A 1_555 1_555
H6A C3A 1_555 1_555
C4A C3A 1_555 1_555
H7A C4A 1_555 1_555
H8A C4A 1_555 1_555
C5A C4A 1_555 1_555
H9A C5A 1_555 1_555
H10A C5A 1_555 1_555
H11A C5A 1_555 1_555
C6A N1A 1_555 1_555
C7A C6A 1_555 1_555
C8A C7A 1_555 1_555
C9A C8A 1_555 1_555
C10A N1A 1_555 1_555
C11A C9A 1_555 1_555
H12A C11A 1_555 1_555
C12A C11A 1_555 1_555
C13A C8A 1_555 1_555
C14A C16 1_555 1_555
C15A C7A 1_555 1_555
H13A C15A 1_555 1_555
C16A C14 1_555 1_555
C17A C14A 1_555 1_555
H14A C17A 1_555 1_555
C18A C12A 1_555 1_555
C19A C18A 1_555 1_555
C20A C19A 1_555 1_555
C21A C20A 1_555 1_555
H15A C21A 1_555 1_555
C22A C21A 1_555 1_555
H16A C22A 1_555 1_555
C23A C20A 1_555 1_555
H17A C23A 1_555 1_555
S1A C22A 1_555 1_555
C9 C10 1_555 1_555
C13 C16 1_555 1_555
C15 C17 1_555 1_555
C23 S1 1_555 1_555
C9A C10A 1_555 1_555
C12A C16A 1_555 1_555
C13A C14A 1_555 1_555
C13A C16A 1_555 1_555
C15A C17A 1_555 1_555
C23A S1A 1_555 1_555

#END
