
#######################################################################
#
#                 Cambridge Crystallographic Data Centre
#                                CCDC 
#
#######################################################################
#
# If this CIF has been generated from an entry in the Cambridge 
# Structural Database, then it will include bibliographic, chemical, 
# crystal, experimental, refinement or atomic coordinate data resulting 
# from the CCDC's data processing and validation procedures.
#
#######################################################################

data_TETMEN
_chemical_formula_moiety         'C40 H32 N2 O4 S1,C1 H2 Cl2'
_chemical_name_systematic        
"2,9-bis(pentan-3-yl)-5-[(thiophen-2-yl)ethynyl]isoquinolino[4',5',6':6,5,10]anthra[2,1,9-def]isoquinoline-1,3,8,10(2H,9H)-tetrone dichloromethane solvate"
_symmetry_cell_setting           monoclinic
_symmetry_space_group_name_H-M   'P 21/n'
_symmetry_Int_Tables_number      14
_space_group_name_Hall           '-P 2yn'
loop_
_symmetry_equiv_pos_site_id
_symmetry_equiv_pos_as_xyz
1 x,y,z
2 1/2-x,1/2+y,1/2-z
3 -x,-y,-z
4 1/2+x,1/2-y,1/2+z
_cell_length_a                   17.987(7)
_cell_length_b                   7.440(2)
_cell_length_c                   27.623(10)
_cell_angle_alpha                90
_cell_angle_beta                 105.357(13)
_cell_angle_gamma                90
_cell_volume                     3564.61
_exptl_crystal_colour            red
_exptl_crystal_description       'thin sheets'
_cell_formula_units_Z            4
_chemical_properties_physical    Photo-sensitive
_exptl_crystal_recrystallization_method 'dichloromethane / hexane'
_exptl_crystal_preparation       Luminescent
loop_
_atom_site_label
_atom_site_type_symbol
_atom_site_fract_x
_atom_site_fract_y
_atom_site_fract_z
Cl1 Cl 0.1376(2) 0.6982(5) 0.70187(14)
Cl2 Cl 0.1370(2) 1.0672(5) 0.7367(2)
C1 C 0.1899(7) 0.8708(15) 0.7385(5)
H1 H 0.2079 0.8292 0.7737
H2 H 0.2361 0.8973 0.7266
O1 O 0.2281(4) 1.1238(9) 0.4942(3)
O2 O 0.2692(4) 1.0786(9) 0.6664(3)
O3 O 0.7895(4) 0.3463(9) 0.5287(3)
O4 O 0.8438(4) 0.3926(9) 0.7010(3)
N1 N 0.2457(4) 1.1004(10) 0.5796(3)
N2 N 0.8185(4) 0.3666(10) 0.6156(3)
C2 C 0.2909(6) 1.0461(14) 0.6275(4)
C3 C 0.2684(6) 1.0692(13) 0.5352(4)
C4 C 0.3386(5) 0.9707(12) 0.5382(4)
C5 C 0.3875(5) 0.9138(12) 0.5860(4)
C6 C 0.3636(5) 0.9534(12) 0.6302(4)
C7 C 0.4119(6) 0.9023(12) 0.6772(4)
H3 H 0.3953 0.9259 0.7065
C8 C 0.4821(6) 0.8200(12) 0.6825(4)
H4 H 0.5127 0.7876 0.7150
C9 C 0.5086(5) 0.7839(11) 0.6404(3)
C10 C 0.4604(5) 0.8277(12) 0.5893(4)
C11 C 0.4826(5) 0.7869(11) 0.5455(4)
C12 C 0.4326(5) 0.8417(12) 0.4965(4)
C13 C 0.3633(6) 0.9344(12) 0.4967(4)
H5 H 0.3317 0.9741 0.4653
C14 C 0.5571(5) 0.6942(11) 0.5493(3)
C15 C 0.6060(5) 0.6512(11) 0.5990(3)
C16 C 0.5843(5) 0.7026(11) 0.6441(3)
C17 C 0.6365(5) 0.6661(12) 0.6906(4)
H6 H 0.6234 0.7027 0.7202
C18 C 0.7053(5) 0.5803(13) 0.6953(4)
H7 H 0.7388 0.5579 0.7277
C19 C 0.7264(5) 0.5245(13) 0.6509(4)
C20 C 0.6772(5) 0.5626(12) 0.6039(3)
C21 C 0.6994(5) 0.5052(11) 0.5602(3)
C22 C 0.6528(5) 0.5473(12) 0.5137(4)
H8 H 0.6685 0.5148 0.4846
C23 C 0.7711(6) 0.4009(12) 0.5652(4)
C24 C 0.8002(6) 0.4258(13) 0.6580(5)
C25 C 0.1716(6) 1.1982(15) 0.5758(4)
H9 H 0.1690 1.1871 0.6114
C26 C 0.1036(7) 1.0980(19) 0.5514(8)
H10 H 0.0618 1.1437 0.5653
H11 H 0.0901 1.1338 0.5157
C27 C 0.0985(8) 0.9068(19) 0.5520(6)
H12 H 0.1438 0.8545 0.5440
H13 H 0.0517 0.8678 0.5271
H14 H 0.0965 0.8666 0.5854
C28 C 0.1817(9) 1.394(2) 0.5735(10)
H15 H 0.1760 1.4223 0.5377
H16 H 0.1363 1.4479 0.5820
C29 C 0.2463(7) 1.4966(15) 0.6007(4)
H17 H 0.2397 1.5275 0.6338
H18 H 0.2502 1.6071 0.5822
H19 H 0.2935 1.4257 0.6048
C30 C 0.8920(5) 0.2602(15) 0.6203(5)
H20 H 0.8859 0.2241 0.5846
C31 C 0.8929(9) 0.081(2) 0.6446(8)
H21 H 0.9307 0.0059 0.6335
H22 H 0.9140 0.0995 0.6812
C32 C 0.8242(8) -0.0242(16) 0.6380(5)
H23 H 0.7828 0.0513 0.6438
H24 H 0.8340 -0.1242 0.6619
H25 H 0.8089 -0.0715 0.6037
C33 C 0.9595(9) 0.382(2) 0.6286(10)
H26 H 0.9742 0.4126 0.6648
H27 H 1.0024 0.3099 0.6225
C34 C 0.9576(8) 0.546(2) 0.6019(6)
H28 H 0.9515 0.5203 0.5663
H29 H 1.0059 0.6118 0.6155
H30 H 0.9141 0.6194 0.6056
C35 C 0.5823(6) 0.6379(12) 0.5081(4)
H31 H 0.5509 0.6615 0.4753
C36 C 0.4407(10) 0.812(2) 0.4485(7)
C37 C 0.4397(10) 0.795(2) 0.4051(6)
C38 C 0.4539(13) 0.761(3) 0.3646(9)
C39 C 0.5127(18) 0.677(3) 0.3451(12)
H32 H 0.5583 0.6272 0.3666
C40 C 0.4974(14) 0.672(3) 0.2883(10)
H33 H 0.5307 0.6202 0.2705
C41 C 0.4225(17) 0.759(3) 0.2649(10)
H34 H 0.3974 0.7741 0.2302
S1 S 0.3931(5) 0.8246(10) 0.3145(4)
C42? C 0.5481(10) 0.671(2) 0.4541(6)
C43? C 0.5285(10) 0.682(2) 0.4102(6)
C44? C 0.4926(17) 0.706(4) 0.3664(11)
C45? C 0.418(2) 0.793(4) 0.3377(15)
H35? H 0.3820 0.8426 0.3536
C46? C 0.4058(19) 0.795(4) 0.2809(13)
H36? H 0.3625 0.8451 0.2574
C47? C 0.4733(19) 0.703(4) 0.2678(11)
H37? H 0.4802 0.6826 0.2353
S2? S 0.5337(5) 0.6443(12) 0.3239(5)
loop_
_geom_bond_atom_site_label_1
_geom_bond_atom_site_label_2
_geom_bond_site_symmetry_1
_geom_bond_site_symmetry_2
Cl1 C1 1_555 1_555
Cl2 C1 1_555 1_555
C1 H1 1_555 1_555
H2 C1 1_555 1_555
O1 C3 1_555 1_555
O2 C2 1_555 1_555
O3 C23 1_555 1_555
O4 C24 1_555 1_555
N1 C2 1_555 1_555
N2 C23 1_555 1_555
C2 C6 1_555 1_555
C3 N1 1_555 1_555
C4 C3 1_555 1_555
C5 C4 1_555 1_555
C6 C5 1_555 1_555
C7 C6 1_555 1_555
H3 C7 1_555 1_555
C8 C7 1_555 1_555
H4 C8 1_555 1_555
C9 C8 1_555 1_555
C10 C5 1_555 1_555
C11 C10 1_555 1_555
C12 C11 1_555 1_555
C13 C4 1_555 1_555
H5 C13 1_555 1_555
C14 C11 1_555 1_555
C15 C14 1_555 1_555
C16 C9 1_555 1_555
C17 C16 1_555 1_555
H6 C17 1_555 1_555
C18 C17 1_555 1_555
H7 C18 1_555 1_555
C19 C18 1_555 1_555
C20 C15 1_555 1_555
C21 C20 1_555 1_555
C22 C21 1_555 1_555
H8 C22 1_555 1_555
C23 C21 1_555 1_555
C24 N2 1_555 1_555
C25 N1 1_555 1_555
H9 C25 1_555 1_555
C26 C25 1_555 1_555
H10 C26 1_555 1_555
H11 C26 1_555 1_555
C27 C26 1_555 1_555
H12 C27 1_555 1_555
H13 C27 1_555 1_555
H14 C27 1_555 1_555
C28 C25 1_555 1_555
H15 C28 1_555 1_555
H16 C28 1_555 1_555
C29 C28 1_555 1_555
H17 C29 1_555 1_555
H18 C29 1_555 1_555
H19 C29 1_555 1_555
C30 N2 1_555 1_555
H20 C30 1_555 1_555
C31 C30 1_555 1_555
H21 C31 1_555 1_555
H22 C31 1_555 1_555
C32 C31 1_555 1_555
H23 C32 1_555 1_555
H24 C32 1_555 1_555
H25 C32 1_555 1_555
C33 C30 1_555 1_555
H26 C33 1_555 1_555
H27 C33 1_555 1_555
C34 C33 1_555 1_555
H28 C34 1_555 1_555
H29 C34 1_555 1_555
H30 C34 1_555 1_555
C35 C14 1_555 1_555
H31 C35 1_555 1_555
C36 C12 1_555 1_555
C37 C36 1_555 1_555
C38 C37 1_555 1_555
C39 C38 1_555 1_555
H32 C39 1_555 1_555
C40 C39 1_555 1_555
H33 C40 1_555 1_555
C41 C40 1_555 1_555
H34 C41 1_555 1_555
S1 C38 1_555 1_555
C9 C10 1_555 1_555
C12 C13 1_555 1_555
C15 C16 1_555 1_555
C19 C20 1_555 1_555
C19 C24 1_555 1_555
C22 C35 1_555 1_555
C41 S1 1_555 1_555

#END
