
#######################################################################
#
#                 Cambridge Crystallographic Data Centre
#                                CCDC 
#
#######################################################################
#
# If this CIF has been generated from an entry in the Cambridge 
# Structural Database, then it will include bibliographic, chemical, 
# crystal, experimental, refinement or atomic coordinate data resulting 
# from the CCDC's data processing and validation procedures.
#
#######################################################################

data_TETMIP
_chemical_name_common            
3,14-bis((4-(octyloxy)phenyl)ethynyl)nonacyclo(14.6.6.6$5,12!.0$2,15!.0$4,13!.0$6,11!.0$17,22!.0$23,28!.0$29,34!)tetratriaconta-2(15),3,6,8,10,13,17,19,21,23,25,27,29,31,33-pentadecaene
_chemical_formula_moiety         'C66 H62 O2'
_chemical_name_systematic        
1,10-bis(4-(octyloxy)phenylacetyl)pentiptycene
_symmetry_cell_setting           triclinic
_symmetry_space_group_name_H-M   'P -1'
_symmetry_Int_Tables_number      2
_space_group_name_Hall           '-P 1'
loop_
_symmetry_equiv_pos_site_id
_symmetry_equiv_pos_as_xyz
1 x,y,z
2 -x,-y,-z
_cell_length_a                   10.9408(8)
_cell_length_b                   11.0503(8)
_cell_length_c                   11.3483(8)
_cell_angle_alpha                104.682(2)
_cell_angle_beta                 94.383(2)
_cell_angle_gamma                109.870(2)
_cell_volume                     1228.1
_exptl_crystal_colour            colorless
_exptl_crystal_description       plate
_chemical_melting_point          'above 300 deg.C'
_cell_formula_units_Z            1
_exptl_crystal_preparation       fluorescent
loop_
_atom_site_label
_atom_site_type_symbol
_atom_site_fract_x
_atom_site_fract_y
_atom_site_fract_z
O1 O 0.31578(14) 0.11560(13) 0.77385(13)
C1 C 1.01635(19) 0.88729(18) 1.01833(17)
C2 C 1.0525(2) 0.77182(19) 1.04069(18)
H1 H 0.9736 0.6881 1.0297
C3 C 1.1359(2) 0.82647(19) 1.17025(19)
C4 C 1.1112(2) 0.7724(2) 1.2673(2)
H2 H 1.0362 0.6928 1.2569
C5 C 1.1974(2) 0.8358(2) 1.3805(2)
H3 H 1.1812 0.7991 1.4475
C6 C 1.3063(2) 0.9517(2) 1.3960(2)
H4 H 1.3645 0.9944 1.4736
C7 C 1.3314(2) 1.0063(2) 1.29836(19)
H5 H 1.4062 1.0861 1.3090
C8 C 1.2466(2) 0.9437(2) 1.18656(19)
C9 C 1.25674(19) 0.98969(19) 1.06976(17)
H6 H 1.3355 1.0736 1.0805
C10 C 1.25512(19) 0.8690(2) 0.96573(19)
C11 C 1.3466(2) 0.8697(2) 0.88745(19)
H7 H 1.4208 0.9496 0.8964
C12 C 1.2181(2) 0.6356(2) 0.7801(2)
H8 H 1.2055 0.5560 0.7158
C13 C 1.3275(2) 0.7509(2) 0.7953(2)
H9 H 1.3905 0.7492 0.7423
C14 C 1.1262(2) 0.6349(2) 0.85811(19)
H10 H 1.0514 0.5552 0.8479
C15 C 1.1449(2) 0.7518(2) 0.95099(18)
C16 C 0.87385(18) 0.99504(19) 0.96312(17)
C17 C 0.88805(19) 0.87788(19) 0.97860(17)
C18 C 0.77876(19) 0.7517(2) 0.94913(18)
C19 C 0.6953(2) 0.6409(2) 0.91720(19)
C20 C 0.5959(2) 0.50657(19) 0.87765(18)
C21 C 0.6240(2) 0.3987(2) 0.8999(2)
H11 H 0.7094 0.4140 0.9406
C22 C 0.5285(2) 0.2708(2) 0.8628(2)
H12 H 0.5489 0.1985 0.8780
C23 C 0.4035(2) 0.2461(2) 0.80396(19)
C24 C 0.3740(2) 0.3518(2) 0.78043(19)
H13 H 0.2886 0.3357 0.7391
C25 C 0.4700(2) 0.4803(2) 0.81766(19)
H14 H 0.4493 0.5522 0.8019
C26 C 0.1857(2) 0.0839(2) 0.7090(2)
H15 H 0.1905 0.0974 0.6262
H16 H 0.1445 0.1437 0.7557
C27 C 0.1044(2) -0.0614(2) 0.69597(19)
H17 H 0.0952 -0.0726 0.7791
H18 H 0.1502 -0.1197 0.6556
C28 C -0.0323(2) -0.1045(2) 0.6190(2)
H19 H -0.0232 -0.1125 0.5315
H20 H -0.0680 -0.0332 0.6478
C29 C -0.1321(2) -0.2393(2) 0.6256(2)
H21 H -0.1342 -0.2350 0.7136
H22 H -0.2213 -0.2517 0.5866
C30 C -0.1005(2) -0.3580(2) 0.5635(2)
H23 H -0.0082 -0.3418 0.5972
H24 H -0.1065 -0.3673 0.4740
C31 C -0.1935(2) -0.4920(2) 0.5804(2)
H25 H -0.1670 -0.5659 0.5360
H26 H -0.1806 -0.4853 0.6694
C32 C -0.3393(2) -0.5290(2) 0.5344(2)
H27 H -0.3512 -0.5218 0.4495
H28 H -0.3703 -0.4639 0.5882
C33 C -0.4233(2) -0.6714(2) 0.5337(2)
H29 H -0.5163 -0.6902 0.5040
H30 H -0.4129 -0.6787 0.6178
H31 H -0.3947 -0.7365 0.4788
O1A O 1.68422(14) 1.88440(13) 1.22615(13)
C1A C 0.98365(19) 1.11271(18) 0.98167(17)
C2A C 0.9475(2) 1.22818(19) 0.95931(18)
H1A H 1.0264 1.3119 0.9703
C3A C 0.8641(2) 1.17353(19) 0.82975(19)
C4A C 0.8888(2) 1.2276(2) 0.7327(2)
H2A H 0.9638 1.3072 0.7431
C5A C 0.8026(2) 1.1642(2) 0.6195(2)
H3A H 0.8188 1.2009 0.5525
C6A C 0.6937(2) 1.0483(2) 0.6040(2)
H4A H 0.6355 1.0056 0.5264
C7A C 0.6686(2) 0.9937(2) 0.70164(19)
H5A H 0.5938 0.9139 0.6910
C8A C 0.7534(2) 1.0563(2) 0.81344(19)
C9A C 0.74326(19) 1.01031(19) 0.93024(17)
H6A H 0.6645 0.9264 0.9195
C10A C 0.74488(19) 1.1310(2) 1.03427(19)
C11A C 0.6534(2) 1.1303(2) 1.11255(19)
H7A H 0.5792 1.0504 1.1036
C12A C 0.7819(2) 1.3644(2) 1.2199(2)
H8A H 0.7945 1.4440 1.2842
C13A C 0.6725(2) 1.2491(2) 1.2047(2)
H9A H 0.6095 1.2508 1.2577
C14A C 0.8738(2) 1.3651(2) 1.14189(19)
H10A H 0.9486 1.4448 1.1521
C15A C 0.8551(2) 1.2482(2) 1.04901(18)
C16A C 1.12615(18) 1.00496(19) 1.03688(17)
C17A C 1.11195(19) 1.12212(19) 1.02140(17)
C18A C 1.22124(19) 1.2483(2) 1.05087(18)
C19A C 1.3047(2) 1.3591(2) 1.08280(19)
C20A C 1.4041(2) 1.49343(19) 1.12235(18)
C21A C 1.3760(2) 1.6013(2) 1.1001(2)
H11A H 1.2906 1.5860 1.0594
C22A C 1.4715(2) 1.7292(2) 1.1372(2)
H12A H 1.4511 1.8015 1.1220
C23A C 1.5965(2) 1.7539(2) 1.19604(19)
C24A C 1.6260(2) 1.6482(2) 1.21957(19)
H13A H 1.7114 1.6643 1.2609
C25A C 1.5300(2) 1.5197(2) 1.18234(19)
H14A H 1.5507 1.4478 1.1981
C26A C 1.8143(2) 1.9161(2) 1.2910(2)
H15A H 1.8095 1.9026 1.3738
H16A H 1.8555 1.8563 1.2443
C27A C 1.8956(2) 2.0614(2) 1.30403(19)
H17A H 1.9048 2.0726 1.2209
H18A H 1.8498 2.1197 1.3444
C28A C 2.0323(2) 2.1045(2) 1.3810(2)
H19A H 2.0232 2.1125 1.4685
H20A H 2.0680 2.0332 1.3522
C29A C 2.1321(2) 2.2393(2) 1.3744(2)
H21A H 2.1342 2.2350 1.2864
H22A H 2.2213 2.2517 1.4134
C30A C 2.1005(2) 2.3580(2) 1.4365(2)
H23A H 2.0082 2.3418 1.4028
H24A H 2.1065 2.3673 1.5260
C31A C 2.1935(2) 2.4920(2) 1.4196(2)
H25A H 2.1670 2.5659 1.4640
H26A H 2.1806 2.4853 1.3306
C32A C 2.3393(2) 2.5290(2) 1.4656(2)
H27A H 2.3512 2.5218 1.5505
H28A H 2.3703 2.4639 1.4118
C33A C 2.4233(2) 2.6714(2) 1.4663(2)
H29A H 2.5163 2.6902 1.4960
H30A H 2.4129 2.6787 1.3822
H31A H 2.3947 2.7365 1.5212
loop_
_geom_bond_atom_site_label_1
_geom_bond_atom_site_label_2
_geom_bond_site_symmetry_1
_geom_bond_site_symmetry_2
O1 C23 1_555 1_555
C1 C2 1_555 1_555
C2 H1 1_555 1_555
C3 C2 1_555 1_555
C4 C3 1_555 1_555
H2 C4 1_555 1_555
C5 C4 1_555 1_555
H3 C5 1_555 1_555
C6 C5 1_555 1_555
H4 C6 1_555 1_555
C7 C6 1_555 1_555
H5 C7 1_555 1_555
C8 C3 1_555 1_555
C9 C8 1_555 1_555
H6 C9 1_555 1_555
C10 C9 1_555 1_555
C11 C10 1_555 1_555
H7 C11 1_555 1_555
C12 H8 1_555 1_555
C13 C11 1_555 1_555
H9 C13 1_555 1_555
C14 C12 1_555 1_555
H10 C14 1_555 1_555
C15 C2 1_555 1_555
C16 C17 1_555 1_555
C17 C1 1_555 1_555
C18 C17 1_555 1_555
C19 C18 1_555 1_555
C20 C19 1_555 1_555
C21 C20 1_555 1_555
H11 C21 1_555 1_555
C22 C21 1_555 1_555
H12 C22 1_555 1_555
C23 C22 1_555 1_555
C24 C23 1_555 1_555
H13 C24 1_555 1_555
C25 C20 1_555 1_555
H14 C25 1_555 1_555
C26 O1 1_555 1_555
H15 C26 1_555 1_555
H16 C26 1_555 1_555
C27 C26 1_555 1_555
H17 C27 1_555 1_555
H18 C27 1_555 1_555
C28 C27 1_555 1_555
H19 C28 1_555 1_555
H20 C28 1_555 1_555
C29 C28 1_555 1_555
H21 C29 1_555 1_555
H22 C29 1_555 1_555
C30 C29 1_555 1_555
H23 C30 1_555 1_555
H24 C30 1_555 1_555
C31 C30 1_555 1_555
H25 C31 1_555 1_555
H26 C31 1_555 1_555
C32 C31 1_555 1_555
H27 C32 1_555 1_555
H28 C32 1_555 1_555
C33 C32 1_555 1_555
H29 C33 1_555 1_555
H30 C33 1_555 1_555
H31 C33 1_555 1_555
O1A C23A 1_555 1_555
C1A C16 1_555 1_555
C2A C1A 1_555 1_555
H1A C2A 1_555 1_555
C3A C2A 1_555 1_555
C4A C3A 1_555 1_555
H2A C4A 1_555 1_555
C5A C4A 1_555 1_555
H3A C5A 1_555 1_555
C6A C5A 1_555 1_555
H4A C6A 1_555 1_555
C7A C6A 1_555 1_555
H5A C7A 1_555 1_555
C8A C3A 1_555 1_555
C9A C16 1_555 1_555
H6A C9A 1_555 1_555
C10A C9A 1_555 1_555
C11A C10A 1_555 1_555
H7A C11A 1_555 1_555
C12A H8A 1_555 1_555
C13A C11A 1_555 1_555
H9A C13A 1_555 1_555
C14A C12A 1_555 1_555
H10A C14A 1_555 1_555
C15A C2A 1_555 1_555
C16A C1 1_555 1_555
C17A C1A 1_555 1_555
C18A C17A 1_555 1_555
C19A C18A 1_555 1_555
C20A C19A 1_555 1_555
C21A C20A 1_555 1_555
H11A C21A 1_555 1_555
C22A C21A 1_555 1_555
H12A C22A 1_555 1_555
C23A C22A 1_555 1_555
C24A C23A 1_555 1_555
H13A C24A 1_555 1_555
C25A C20A 1_555 1_555
H14A C25A 1_555 1_555
C26A O1A 1_555 1_555
H15A C26A 1_555 1_555
H16A C26A 1_555 1_555
C27A C26A 1_555 1_555
H17A C27A 1_555 1_555
H18A C27A 1_555 1_555
C28A C27A 1_555 1_555
H19A C28A 1_555 1_555
H20A C28A 1_555 1_555
C29A C28A 1_555 1_555
H21A C29A 1_555 1_555
H22A C29A 1_555 1_555
C30A C29A 1_555 1_555
H23A C30A 1_555 1_555
H24A C30A 1_555 1_555
C31A C30A 1_555 1_555
H25A C31A 1_555 1_555
H26A C31A 1_555 1_555
C32A C31A 1_555 1_555
H27A C32A 1_555 1_555
H28A C32A 1_555 1_555
C33A C32A 1_555 1_555
H29A C33A 1_555 1_555
H30A C33A 1_555 1_555
H31A C33A 1_555 1_555
C7 C8 1_555 1_555
C9 C16A 1_555 1_555
C10 C15 1_555 1_555
C12 C13 1_555 1_555
C14 C15 1_555 1_555
C24 C25 1_555 1_555
C7A C8A 1_555 1_555
C8A C9A 1_555 1_555
C10A C15A 1_555 1_555
C12A C13A 1_555 1_555
C14A C15A 1_555 1_555
C16A C17A 1_555 1_555
C24A C25A 1_555 1_555

#END
