
#######################################################################
#
#                 Cambridge Crystallographic Data Centre
#                                CCDC 
#
#######################################################################
#
# If this CIF has been generated from an entry in the Cambridge 
# Structural Database, then it will include bibliographic, chemical, 
# crystal, experimental, refinement or atomic coordinate data resulting 
# from the CCDC's data processing and validation procedures.
#
#######################################################################

data_TETMEL
_chemical_name_common            
"14-hydroxy-14'-octyloxybis(nonacyclo(14.6.6.6$5,12!.0$2,15!.0$4,13!.0$6,11!.0$17,22!.0$23,28!.0$29,34!)tetratriaconta-2(15),3,6,8,10,13,17,19,21,23,25,27,29,31,33-pentadecaen-3-yl)ethyne methanol solvate monohydrate"
_chemical_formula_moiety         'C78 H58 O2,3(C1 H4 O1),H2 O1'
_chemical_name_systematic        
'1-(10-hydroxypentiptycenyl)-2-(10-octyloxypentiptycenyl)acetylene methanol solvate monohydrate'
_symmetry_cell_setting           monoclinic
_symmetry_space_group_name_H-M   'P c'
_symmetry_Int_Tables_number      7
_space_group_name_Hall           'P -2yc'
loop_
_symmetry_equiv_pos_site_id
_symmetry_equiv_pos_as_xyz
1 x,y,z
2 x,-y,1/2+z
_cell_length_a                   11.7699(1)
_cell_length_b                   17.4973(2)
_cell_length_c                   16.1714(1)
_cell_angle_alpha                90
_cell_angle_beta                 108.201(1)
_cell_angle_gamma                90
_cell_volume                     3163.73
_exptl_crystal_colour            colorless
_exptl_crystal_description       plate
_chemical_melting_point          'above 360 deg.C'
_cell_formula_units_Z            2
loop_
_atom_site_label
_atom_site_type_symbol
_atom_site_fract_x
_atom_site_fract_y
_atom_site_fract_z
O1 O -0.7831(4) -0.3322(2) -0.3912(3)
O2 O -0.7258(4) -1.0153(2) -0.5988(3)
H1 H -0.7880 -1.0273 -0.6389
C1 C -0.7763(5) -0.4093(3) -0.4125(4)
C2 C -0.8623(5) -0.4608(3) -0.4022(4)
C3 C -0.8544(5) -0.5370(3) -0.4213(4)
C4 C -0.7632(5) -0.5652(3) -0.4524(4)
C5 C -0.6801(5) -0.5125(3) -0.4624(4)
C6 C -0.6861(5) -0.4358(3) -0.4441(4)
C7 C -0.7560(5) -0.6449(3) -0.4742(4)
C8 C -0.7489(5) -0.7086(3) -0.4940(4)
C9 C -0.7436(5) -0.7890(3) -0.5213(4)
C10 C -0.8482(5) -0.8295(3) -0.5577(4)
C11 C -0.8459(6) -0.9047(4) -0.5874(4)
C12 C -0.7358(5) -0.9427(3) -0.5733(4)
C13 C -0.6309(5) -0.9008(4) -0.5367(4)
C14 C -0.6333(5) -0.8253(3) -0.5113(4)
C15 C -0.9696(5) -0.4421(3) -0.3723(4)
H2 H -0.9739 -0.3867 -0.3583
C16 C -0.9577(5) -0.4951(3) -0.2926(4)
C17 C -0.9552(6) -0.4716(4) -0.2100(4)
H3 H -0.9585 -0.4191 -0.1962
C18 C -0.9476(6) -0.5288(5) -0.1481(5)
H4 H -0.9458 -0.5153 -0.0908
C19 C -0.9427(7) -0.6049(4) -0.1698(5)
H5 H -0.9389 -0.6430 -0.1271
C20 C -0.9430(6) -0.6271(4) -0.2516(5)
H6 H -0.9364 -0.6795 -0.2646
C21 C -0.9532(5) -0.5716(4) -0.3144(4)
C22 C -0.9565(5) -0.5850(3) -0.4086(4)
H7 H -0.9506 -0.6403 -0.4224
C23 C -1.0739(6) -0.5481(4) -0.4645(4)
C24 C -1.0803(5) -0.4696(4) -0.4454(4)
C25 C -1.1785(6) -0.4261(4) -0.4886(4)
H8 H -1.1839 -0.3739 -0.4741
C26 C -1.2706(6) -0.4616(4) -0.5552(4)
H9 H -1.3386 -0.4325 -0.5868
C27 C -1.2637(6) -0.5367(4) -0.5749(5)
H10 H -1.3266 -0.5593 -0.6202
C28 C -1.1654(5) -0.5812(4) -0.5295(4)
H11 H -1.1617 -0.6337 -0.5433
C29 C -0.5858(6) -0.3890(4) -0.4620(4)
H12 H -0.5903 -0.3334 -0.4488
C30 C -0.4713(5) -0.4261(4) -0.4057(4)
C31 C -0.3796(6) -0.3906(4) -0.3417(4)
H13 H -0.3834 -0.3377 -0.3299
C32 C -0.2804(6) -0.4351(4) -0.2946(4)
H14 H -0.2177 -0.4121 -0.2495
C33 C -0.2734(7) -0.5114(4) -0.3134(5)
H15 H -0.2056 -0.5406 -0.2820
C34 C -0.3640(5) -0.5452(4) -0.3772(4)
H16 H -0.3588 -0.5977 -0.3904
C35 C -0.4641(5) -0.5027(4) -0.4230(4)
C36 C -0.5746(5) -0.5318(3) -0.4949(4)
H17 H -0.5699 -0.5874 -0.5077
C37 C -0.5849(5) -0.4815(3) -0.5725(4)
C38 C -0.5895(6) -0.5049(4) -0.6546(4)
H18 H -0.5858 -0.5578 -0.6669
C39 C -0.5999(6) -0.4497(5) -0.7209(4)
H19 H -0.5985 -0.4656 -0.7767
C40 C -0.6116(7) -0.3746(5) -0.7051(5)
H20 H -0.6225 -0.3388 -0.7511
C41 C -0.6078(7) -0.3481(5) -0.6210(5)
H21 H -0.6136 -0.2952 -0.6097
C42 C -0.5952(6) -0.4031(4) -0.5551(4)
C43 C -0.9741(5) -0.7976(3) -0.5759(4)
H22 H -0.9754 -0.7438 -0.5553
C44 C -1.0384(5) -0.8538(3) -0.5334(4)
C45 C -1.0949(6) -0.8361(4) -0.4715(4)
H23 H -1.0939 -0.7853 -0.4506
C46 C -1.1525(6) -0.8937(4) -0.4410(5)
H24 H -1.1921 -0.8821 -0.3996
C47 C -1.1526(6) -0.9671(4) -0.4702(5)
H25 H -1.1924 -1.0058 -0.4487
C48 C -1.0944(5) -0.9863(4) -0.5321(4)
H26 H -1.0943 -1.0376 -0.5515
C49 C -1.0390(5) -0.9304(4) -0.5630(4)
C50 C -0.9719(5) -0.9380(3) -0.6300(4)
H27 H -0.9706 -0.9916 -0.6513
C51 C -1.0334(6) -0.8823(4) -0.7020(4)
C52 C -1.0834(6) -0.8996(4) -0.7885(4)
H28 H -1.0802 -0.9503 -0.8089
C53 C -1.1383(7) -0.8422(4) -0.8456(5)
H29 H -1.1732 -0.8541 -0.9055
C54 C -1.1438(7) -0.7681(4) -0.8182(5)
H30 H -1.1848 -0.7300 -0.8583
C55 C -1.0888(5) -0.7498(4) -0.7312(4)
H31 H -1.0880 -0.6985 -0.7118
C56 C -1.0352(5) -0.8071(3) -0.6731(4)
C57 C -0.5043(6) -0.9301(4) -0.5233(4)
H32 H -0.5025 -0.9843 -0.5422
C58 C -0.4495(5) -0.8743(4) -0.5737(4)
C59 C -0.3995(5) -0.8916(4) -0.6377(4)
H33 H -0.3985 -0.9427 -0.6573
C60 C -0.3497(6) -0.8315(4) -0.6738(5)
H34 H -0.3141 -0.8424 -0.7177
C61 C -0.3524(6) -0.7569(4) -0.6456(5)
H35 H -0.3181 -0.7173 -0.6701
C62 C -0.4040(6) -0.7396(4) -0.5826(5)
H36 H -0.4071 -0.6882 -0.5645
C63 C -0.4515(5) -0.7981(4) -0.5457(4)
C64 C -0.5107(5) -0.7906(4) -0.4731(4)
H37 H -0.5136 -0.7366 -0.4536
C65 C -0.4405(5) -0.8427(4) -0.4000(4)
C66 C -0.3821(6) -0.8226(5) -0.3133(5)
H38 H -0.3836 -0.7712 -0.2949
C67 C -0.3225(7) -0.8776(5) -0.2549(5)
H39 H -0.2830 -0.8639 -0.1961
C68 C -0.3195(6) -0.9542(5) -0.2816(5)
H40 H -0.2780 -0.9919 -0.2412
C69 C -0.3787(6) -0.9738(4) -0.3688(5)
H41 H -0.3777 -1.0252 -0.3876
C70 C -0.4382(6) -0.9183(4) -0.4272(5)
C71 C -0.7317(7) -0.3161(4) -0.2980(4)
H42 H -0.6442 -0.3246 -0.2798
H43 H -0.7663 -0.3515 -0.2645
C72 C -0.7566(8) -0.2360(4) -0.2789(5)
H44 H -0.7288 -0.2284 -0.2150
H45 H -0.8441 -0.2275 -0.2997
C73 C -0.6966(9) -0.1769(4) -0.3206(6)
H46 H -0.7251 -0.1839 -0.3846
H47 H -0.6091 -0.1857 -0.3003
C74 C -0.7221(11) -0.0940(5) -0.2990(6)
H48 H -0.8083 -0.0829 -0.3261
H49 H -0.7033 -0.0886 -0.2352
C75 C -0.6489(12) -0.0361(6) -0.3314(9)
H52 H -0.6808 -0.0342 -0.3957
H53 H -0.5655 -0.0549 -0.3158
C76 C -0.6466(13) 0.0464(8) -0.2960(11)
H54 H -0.6206 0.0451 -0.2315
H55 H -0.5881 0.0773 -0.3141
C77 C -0.7694(15) 0.0834(8) -0.3297(13)
H56 H -0.8259 0.0589 -0.3035
H57 H -0.8018 0.0789 -0.3938
C78 C -0.7494(15) 0.1680(7) -0.3020(10)
H58 H -0.8257 0.1955 -0.3224
H59 H -0.6924 0.1910 -0.3278
H60 H -0.7176 0.1713 -0.2385
O3 O -0.8948(7) -1.1245(3) -0.6311(5)
H70 H -0.8648 -1.0819 -0.6366
C83 C -0.9832(10) -1.1434(5) -0.7090(6)
H75 H -1.0562 -1.1589 -0.6965
H76 H -0.9551 -1.1855 -0.7374
H77 H -1.0004 -1.0988 -0.7476
O4 O -0.5175(6) -0.1607(4) -0.4913(5)
H71 H -0.4950 -0.1753 -0.5332
C84 C -0.4453(10) -0.1888(7) -0.4173(7)
H78 H -0.4294 -0.2429 -0.4253
H79 H -0.4833 -0.1840 -0.3716
H80 H -0.3698 -0.1604 -0.4003
O5 O -0.9102(7) -1.2369(4) -0.5251(5)
H72 H -0.8985 -1.1969 -0.5500
C85 C -1.0239(16) -1.2331(9) -0.5125(12)
H81 H -1.0601 -1.2841 -0.5201
H82 H -1.0754 -1.1980 -0.5552
H83 H -1.0147 -1.2146 -0.4536
O6 O -0.3437(5) -0.2353(3) -0.5646(4)
H73 H -0.3226 -0.2467 -0.6123
H74 H -0.3045 -0.1899 -0.5533
H50? H -0.7769 -0.0959 -0.2635
H51? H -0.6461 -0.0711 -0.2624
C79? C -0.777(4) -0.0400(15) -0.3756(14)
H61? H -0.8532 -0.0605 -0.4151
H62? H -0.7213 -0.0298 -0.4091
C80? C -0.798(3) 0.0319(16) -0.328(2)
H63? H -0.8066 0.0176 -0.2707
H64? H -0.8729 0.0576 -0.3624
C81? C -0.691(4) 0.0868(17) -0.314(3)
H65? H -0.6201 0.0584 -0.2783
H66? H -0.6807 0.0931 -0.3722
C82? C -0.681(4) 0.1673(17) -0.275(2)
H67? H -0.6004 0.1874 -0.2663
H68? H -0.6959 0.1649 -0.2184
H69? H -0.7400 0.2010 -0.3141
loop_
_geom_bond_atom_site_label_1
_geom_bond_atom_site_label_2
_geom_bond_site_symmetry_1
_geom_bond_site_symmetry_2
O1 C1 1_555 1_555
O2 H1 1_555 1_555
C1 C2 1_555 1_555
C2 C3 1_555 1_555
C3 C4 1_555 1_555
C4 C5 1_555 1_555
C5 C6 1_555 1_555
C6 C1 1_555 1_555
C7 C4 1_555 1_555
C8 C7 1_555 1_555
C9 C8 1_555 1_555
C10 C9 1_555 1_555
C11 C10 1_555 1_555
C12 O2 1_555 1_555
C13 C12 1_555 1_555
C14 C9 1_555 1_555
C15 C2 1_555 1_555
H2 C15 1_555 1_555
C16 C15 1_555 1_555
C17 C16 1_555 1_555
H3 C17 1_555 1_555
C18 C17 1_555 1_555
H4 C18 1_555 1_555
C19 C18 1_555 1_555
H5 C19 1_555 1_555
C20 C19 1_555 1_555
H6 C20 1_555 1_555
C21 C16 1_555 1_555
C22 C3 1_555 1_555
H7 C22 1_555 1_555
C23 C22 1_555 1_555
C24 C15 1_555 1_555
C25 C24 1_555 1_555
H8 C25 1_555 1_555
C26 C25 1_555 1_555
H9 C26 1_555 1_555
C27 C26 1_555 1_555
H10 C27 1_555 1_555
C28 C23 1_555 1_555
H11 C28 1_555 1_555
C29 C6 1_555 1_555
H12 C29 1_555 1_555
C30 C29 1_555 1_555
C31 C30 1_555 1_555
H13 C31 1_555 1_555
C32 C31 1_555 1_555
H14 C32 1_555 1_555
C33 C32 1_555 1_555
H15 C33 1_555 1_555
C34 C33 1_555 1_555
H16 C34 1_555 1_555
C35 C30 1_555 1_555
C36 C5 1_555 1_555
H17 C36 1_555 1_555
C37 C36 1_555 1_555
C38 C37 1_555 1_555
H18 C38 1_555 1_555
C39 C38 1_555 1_555
H19 C39 1_555 1_555
C40 C39 1_555 1_555
H20 C40 1_555 1_555
C41 C40 1_555 1_555
H21 C41 1_555 1_555
C42 C29 1_555 1_555
C43 C10 1_555 1_555
H22 C43 1_555 1_555
C44 C43 1_555 1_555
C45 C44 1_555 1_555
H23 C45 1_555 1_555
C46 C45 1_555 1_555
H24 C46 1_555 1_555
C47 C46 1_555 1_555
H25 C47 1_555 1_555
C48 C47 1_555 1_555
H26 C48 1_555 1_555
C49 C44 1_555 1_555
C50 C11 1_555 1_555
H27 C50 1_555 1_555
C51 C50 1_555 1_555
C52 C51 1_555 1_555
H28 C52 1_555 1_555
C53 C52 1_555 1_555
H29 C53 1_555 1_555
C54 C53 1_555 1_555
H30 C54 1_555 1_555
C55 C54 1_555 1_555
H31 C55 1_555 1_555
C56 C43 1_555 1_555
C57 C13 1_555 1_555
H32 C57 1_555 1_555
C58 C57 1_555 1_555
C59 C58 1_555 1_555
H33 C59 1_555 1_555
C60 C59 1_555 1_555
H34 C60 1_555 1_555
C61 C60 1_555 1_555
H35 C61 1_555 1_555
C62 C61 1_555 1_555
H36 C62 1_555 1_555
C63 C58 1_555 1_555
C64 C14 1_555 1_555
H37 C64 1_555 1_555
C65 C64 1_555 1_555
C66 C65 1_555 1_555
H38 C66 1_555 1_555
C67 C66 1_555 1_555
H39 C67 1_555 1_555
C68 C67 1_555 1_555
H40 C68 1_555 1_555
C69 C68 1_555 1_555
H41 C69 1_555 1_555
C70 C57 1_555 1_555
C71 O1 1_555 1_555
H42 C71 1_555 1_555
H43 C71 1_555 1_555
C72 C71 1_555 1_555
H44 C72 1_555 1_555
H45 C72 1_555 1_555
C73 C72 1_555 1_555
H46 C73 1_555 1_555
H47 C73 1_555 1_555
C74 C73 1_555 1_555
H48 C74 1_555 1_555
H49 C74 1_555 1_555
C75 C74 1_555 1_555
H52 C75 1_555 1_555
H53 C75 1_555 1_555
C76 C75 1_555 1_555
H54 C76 1_555 1_555
H55 C76 1_555 1_555
C77 C76 1_555 1_555
H56 C77 1_555 1_555
H57 C77 1_555 1_555
C78 C77 1_555 1_555
H58 C78 1_555 1_555
H59 C78 1_555 1_555
H60 C78 1_555 1_555
O3 H70 1_555 1_555
O4 H71 1_555 1_555
O5 H72 1_555 1_555
O6 H73 1_555 1_555
H74 O6 1_555 1_555
C83 O3 1_555 1_555
H75 C83 1_555 1_555
H76 C83 1_555 1_555
H77 C83 1_555 1_555
C84 O4 1_555 1_555
H78 C84 1_555 1_555
H79 C84 1_555 1_555
H80 C84 1_555 1_555
C85 O5 1_555 1_555
H81 C85 1_555 1_555
H82 C85 1_555 1_555
H83 C85 1_555 1_555
C11 C12 1_555 1_555
C13 C14 1_555 1_555
C20 C21 1_555 1_555
C21 C22 1_555 1_555
C23 C24 1_555 1_555
C27 C28 1_555 1_555
C34 C35 1_555 1_555
C35 C36 1_555 1_555
C37 C42 1_555 1_555
C41 C42 1_555 1_555
C48 C49 1_555 1_555
C49 C50 1_555 1_555
C51 C56 1_555 1_555
C55 C56 1_555 1_555
C62 C63 1_555 1_555
C63 C64 1_555 1_555
C65 C70 1_555 1_555
C69 C70 1_555 1_555

#END
