
#######################################################################
#
#                 Cambridge Crystallographic Data Centre
#                                CCDC 
#
#######################################################################
#
# If this CIF has been generated from an entry in the Cambridge 
# Structural Database, then it will include bibliographic, chemical, 
# crystal, experimental, refinement or atomic coordinate data resulting 
# from the CCDC's data processing and validation procedures.
#
#######################################################################

data_TETQOA
_chemical_formula_moiety         'C26 H24 O8,3(C3 H7 N1 O1)'
_chemical_name_systematic        
"4,4'-(2,3,5,6,8,9-Hexahydro-1,4,7,10-benzotetraoxacyclododecine-11,14-diyl)dibenzoic acid N,N-dimethylformamide solvate"
_symmetry_cell_setting           triclinic
_symmetry_space_group_name_H-M   'P -1'
_symmetry_Int_Tables_number      2
_space_group_name_Hall           '-P 1'
loop_
_symmetry_equiv_pos_site_id
_symmetry_equiv_pos_as_xyz
1 x,y,z
2 -x,-y,-z
_cell_length_a                   9.2812(5)
_cell_length_b                   10.8141(7)
_cell_length_c                   17.5421(12)
_cell_angle_alpha                90.146(4)
_cell_angle_beta                 96.815(4)
_cell_angle_gamma                99.763(3)
_cell_volume                     1722.44
_exptl_crystal_colour            colorless
_exptl_crystal_description       block
_cell_formula_units_Z            2
loop_
_atom_site_label
_atom_site_type_symbol
_atom_site_fract_x
_atom_site_fract_y
_atom_site_fract_z
C1 C 0.4438(3) -0.5319(3) 0.72396(18)
C2 C 0.4979(3) -0.4429(3) 0.66398(17)
C3 C 0.4083(3) -0.4204(3) 0.59812(18)
H1 H 0.3096 -0.4636 0.5894
C4 C 0.4619(3) -0.3352(3) 0.54495(18)
H2 H 0.4003 -0.3210 0.4998
C5 C 0.6068(3) -0.2702(3) 0.55784(17)
C6 C 0.6963(3) -0.2943(3) 0.62349(18)
H3 H 0.7951 -0.2511 0.6324
C7 C 0.6436(3) -0.3802(3) 0.67580(18)
H4 H 0.7065 -0.3967 0.7200
C8 C 0.6632(3) -0.1780(3) 0.50071(17)
C9 C 0.6594(3) -0.2148(3) 0.42453(17)
H5 H 0.6180 -0.2987 0.4089
C10 C 0.7147(3) -0.1316(3) 0.37058(18)
H6 H 0.7135 -0.1599 0.3192
C11 C 0.7722(3) -0.0062(3) 0.39150(17)
C12 C 0.7692(3) 0.0327(3) 0.46702(17)
C13 C 0.7222(3) -0.0533(3) 0.52201(17)
C14 C 0.6370(3) 0.0589(3) 0.62065(18)
H7 H 0.5399 0.0060 0.6236
H8 H 0.6245 0.1249 0.5827
C15 C 0.6996(3) 0.1169(3) 0.69779(18)
H9 H 0.6235 0.1551 0.7197
H10 H 0.7267 0.0506 0.7327
C16 C 0.7919(4) 0.3338(3) 0.6819(2)
H11 H 0.7855 0.3731 0.7322
H12 H 0.6953 0.3286 0.6503
C17 C 0.9088(4) 0.4128(3) 0.64261(19)
H13 H 0.9098 0.5024 0.6547
H14 H 1.0061 0.3926 0.6628
C18 C 0.9915(3) 0.3343(3) 0.5293(2)
H15 H 1.0898 0.3624 0.5585
H16 H 0.9965 0.3613 0.4757
C19 C 0.9558(3) 0.1934(3) 0.53010(19)
H17 H 1.0297 0.1560 0.5057
H18 H 0.9557 0.1641 0.5835
C20 C 0.8390(3) 0.0804(3) 0.33442(17)
C21 C 0.9326(3) 0.0385(3) 0.28712(17)
H19 H 0.9527 -0.0446 0.2917
C22 C 0.9962(3) 0.1168(3) 0.23384(18)
H20 H 1.0588 0.0869 0.2017
C23 C 0.9692(3) 0.2392(3) 0.22684(17)
C24 C 1.0390(3) 0.3276(3) 0.17129(18)
C25 C 0.8750(3) 0.2812(3) 0.27366(17)
H21 H 0.8551 0.3644 0.2690
C26 C 0.8108(3) 0.2030(3) 0.32662(17)
H22 H 0.7467 0.2327 0.3581
O1 O 0.3017(2) -0.5763(2) 0.71155(13)
H44 H 0.2777 -0.6254 0.7467
O2 O 0.5242(3) -0.5595(3) 0.77780(14)
O3 O 0.7404(2) -0.01661(18) 0.59848(11)
O4 O 0.8258(2) 0.21033(19) 0.69312(13)
O5 O 0.8863(2) 0.39342(19) 0.56156(13)
O6 O 0.8120(2) 0.15770(18) 0.48774(12)
O7 O 1.0319(3) 0.4385(2) 0.17126(14)
O8 O 1.1098(3) 0.2740(2) 0.12328(14)
H45 H 1.1470 0.3280 0.0937
C27 C 0.1002(3) 0.2919(3) 0.83433(18)
H23 H 0.0638 0.3632 0.8135
C28 C 0.0834(4) 0.1265(3) 0.9263(2)
H24 H 0.1620 0.1020 0.9000
H25 H 0.0020 0.0554 0.9255
H26 H 0.1217 0.1510 0.9797
C29 C -0.0921(4) 0.2779(3) 0.9165(2)
H27 H -0.0625 0.3088 0.9696
H28 H -0.1765 0.2095 0.9149
H29 H -0.1195 0.3463 0.8845
N1 N 0.0305(3) 0.2318(2) 0.88757(15)
O9 O 0.2105(2) 0.2634(2) 0.80866(13)
C30 C 0.3451(3) 0.0611(3) 0.0944(2)
H30 H 0.2664 0.1056 0.0986
C31 C 0.4655(4) 0.1767(3) 0.2089(2)
H31 H 0.3737 0.2109 0.2037
H32 H 0.5491 0.2452 0.2077
H33 H 0.4759 0.1335 0.2578
C32 C 0.5883(4) 0.0248(3) 0.1446(2)
H34 H 0.5775 -0.0482 0.1777
H35 H 0.6791 0.0825 0.1630
H36 H 0.5929 -0.0031 0.0918
N2 N 0.4623(3) 0.0888(2) 0.14620(16)
O10 O 0.3281(2) -0.0165(2) 0.04146(14)
C33 C 0.3119(3) 0.5126(3) 0.04942(19)
H37 H 0.3408 0.5187 0.1033
C34 C 0.3282(4) 0.6031(4) -0.0752(2)
H38 H 0.2379 0.5419 -0.0885
H39 H 0.4070 0.5801 -0.1020
H40 H 0.3106 0.6868 -0.0907
C35 C 0.4809(4) 0.7084(3) 0.0408(2)
H41 H 0.5015 0.6962 0.0961
H42 H 0.4430 0.7871 0.0321
H43 H 0.5717 0.7120 0.0169
N3 N 0.3712(3) 0.6038(2) 0.00678(16)
O11 O 0.2213(2) 0.4198(2) 0.02388(13)
loop_
_geom_bond_atom_site_label_1
_geom_bond_atom_site_label_2
_geom_bond_site_symmetry_1
_geom_bond_site_symmetry_2
C1 C2 1_555 1_555
C2 C3 1_555 1_555
C3 H1 1_555 1_555
C4 C3 1_555 1_555
H2 C4 1_555 1_555
C5 C4 1_555 1_555
C6 C5 1_555 1_555
H3 C6 1_555 1_555
C7 C2 1_555 1_555
H4 C7 1_555 1_555
C8 C5 1_555 1_555
C9 C8 1_555 1_555
H5 C9 1_555 1_555
C10 C9 1_555 1_555
H6 C10 1_555 1_555
C11 C10 1_555 1_555
C12 C11 1_555 1_555
C13 C8 1_555 1_555
C14 H7 1_555 1_555
H8 C14 1_555 1_555
C15 C14 1_555 1_555
H9 C15 1_555 1_555
H10 C15 1_555 1_555
C16 H11 1_555 1_555
H12 C16 1_555 1_555
C17 C16 1_555 1_555
H13 C17 1_555 1_555
H14 C17 1_555 1_555
C18 H15 1_555 1_555
H16 C18 1_555 1_555
C19 C18 1_555 1_555
H17 C19 1_555 1_555
H18 C19 1_555 1_555
C20 C11 1_555 1_555
C21 C20 1_555 1_555
H19 C21 1_555 1_555
C22 C21 1_555 1_555
H20 C22 1_555 1_555
C23 C22 1_555 1_555
C24 C23 1_555 1_555
C25 C23 1_555 1_555
H21 C25 1_555 1_555
C26 C20 1_555 1_555
H22 C26 1_555 1_555
C27 H23 1_555 1_555
C28 H24 1_555 1_555
H25 C28 1_555 1_555
H26 C28 1_555 1_555
C29 H27 1_555 1_555
H28 C29 1_555 1_555
H29 C29 1_555 1_555
C30 H30 1_555 1_555
C31 H31 1_555 1_555
H32 C31 1_555 1_555
H33 C31 1_555 1_555
C32 H34 1_555 1_555
H35 C32 1_555 1_555
H36 C32 1_555 1_555
C33 H37 1_555 1_555
C34 H38 1_555 1_555
H39 C34 1_555 1_555
H40 C34 1_555 1_555
C35 H41 1_555 1_555
H42 C35 1_555 1_555
H43 C35 1_555 1_555
N1 C27 1_555 1_555
N2 C30 1_555 1_555
N3 C33 1_555 1_555
O1 C1 1_555 1_555
H44 O1 1_555 1_555
O2 C1 1_555 1_555
O3 C13 1_555 1_555
O4 C15 1_555 1_555
O5 C17 1_555 1_555
O6 C12 1_555 1_555
O7 C24 1_555 1_555
O8 C24 1_555 1_555
H45 O8 1_555 1_555
O9 C27 1_555 1_555
O10 C30 1_555 1_555
O11 C33 1_555 1_555
C6 C7 1_555 1_555
C12 C13 1_555 1_555
C14 O3 1_555 1_555
C16 O4 1_555 1_555
C18 O5 1_555 1_555
C19 O6 1_555 1_555
C25 C26 1_555 1_555
C28 N1 1_555 1_555
C29 N1 1_555 1_555
C31 N2 1_555 1_555
C32 N2 1_555 1_555
C34 N3 1_555 1_555
C35 N3 1_555 1_555

#END
