
#######################################################################
#
#                 Cambridge Crystallographic Data Centre
#                                CCDC 
#
#######################################################################
#
# If this CIF has been generated from an entry in the Cambridge 
# Structural Database, then it will include bibliographic, chemical, 
# crystal, experimental, refinement or atomic coordinate data resulting 
# from the CCDC's data processing and validation procedures.
#
#######################################################################

data_TETQUG
_chemical_formula_moiety         'C28 H28 O9,2(C2 H6 O1 S1)'
_chemical_name_systematic        
"4,4'-(2,3,5,6,8,9,11,12-Octahydro-1,4,7,10,13-benzopentaoxacyclopentadecine-14,17-diyl)dibenzoic acid dimethyl sulfoxide solvate"
_symmetry_cell_setting           triclinic
_symmetry_space_group_name_H-M   'P -1'
_symmetry_Int_Tables_number      2
_space_group_name_Hall           '-P 1'
loop_
_symmetry_equiv_pos_site_id
_symmetry_equiv_pos_as_xyz
1 x,y,z
2 -x,-y,-z
_cell_length_a                   9.5432(16)
_cell_length_b                   10.5250(19)
_cell_length_c                   17.119(3)
_cell_angle_alpha                105.358(8)
_cell_angle_beta                 93.281(9)
_cell_angle_gamma                96.235(9)
_cell_volume                     1641.61
_exptl_crystal_colour            colorless
_exptl_crystal_description       prism
_cell_formula_units_Z            2
loop_
_atom_site_label
_atom_site_type_symbol
_atom_site_fract_x
_atom_site_fract_y
_atom_site_fract_z
C1 C -0.1230(5) -0.6336(4) 0.7443(2)
C2 C -0.0436(4) -0.5143(4) 0.8057(2)
C3 C 0.0855(4) -0.4528(4) 0.7926(2)
H1 H 0.1252 -0.4848 0.7426
C4 C 0.1578(4) -0.3447(4) 0.8520(2)
H2 H 0.2463 -0.3036 0.8424
C5 C 0.0999(4) -0.2965(4) 0.9257(2)
C6 C -0.0315(4) -0.3576(4) 0.9387(2)
H3 H -0.0718 -0.3254 0.9885
C7 C -0.1031(4) -0.4652(4) 0.8787(2)
H4 H -0.1927 -0.5055 0.8874
C8 C 0.1748(4) -0.1816(4) 0.9904(2)
C9 C 0.2037(4) -0.1927(4) 1.0697(2)
H5 H 0.1726 -0.2733 1.0821
C10 C 0.2771(4) -0.0870(4) 1.1300(2)
H6 H 0.2995 -0.0985 1.1823
C11 C 0.3185(4) 0.0347(4) 1.1158(2)
C12 C 0.2836(4) 0.0494(4) 1.0380(2)
C13 C 0.2193(4) -0.0599(4) 0.9752(2)
C14 C 0.0800(4) 0.0040(4) 0.8738(2)
H7 H 0.1046 0.0990 0.8764
H8 H 0.0075 -0.0028 0.9121
C15 C 0.0222(5) -0.0736(4) 0.7880(2)
H9 H 0.0099 -0.1696 0.7845
H10 H -0.0722 -0.0485 0.7763
C16 C 0.0813(5) 0.0614(4) 0.7023(3)
H11 H 0.0686 0.1354 0.7499
H12 H -0.0072 0.0392 0.6656
C17 C 0.2014(5) 0.1023(5) 0.6588(3)
H13 H 0.2243 0.0232 0.6178
H14 H 0.1720 0.1659 0.6296
C18 C 0.3195(5) 0.2989(5) 0.7541(3)
H15 H 0.2223 0.3102 0.7695
H16 H 0.3435 0.3556 0.7178
C19 C 0.4216(5) 0.3405(5) 0.8291(3)
H17 H 0.5177 0.3221 0.8146
H18 H 0.4250 0.4370 0.8547
C20 C 0.4559(5) 0.3116(4) 0.9609(3)
H19 H 0.4160 0.3864 0.9968
H20 H 0.5552 0.3422 0.9543
C21 C 0.4502(4) 0.1973(4) 0.9973(3)
H21 H 0.4740 0.1178 0.9571
H22 H 0.5203 0.2186 1.0453
C22 C 0.4057(4) 0.1421(4) 1.1808(2)
C23 C 0.3682(4) 0.2705(4) 1.2057(2)
H23 H 0.2882 0.2924 1.1788
C24 C 0.4469(4) 0.3666(4) 1.2695(2)
H24 H 0.4207 0.4537 1.2860
C25 C 0.5648(4) 0.3345(4) 1.3090(2)
C26 C 0.6502(5) 0.4320(4) 1.3806(2)
C27 C 0.6053(4) 0.2082(4) 1.2828(2)
H25 H 0.6875 0.1872 1.3082
C28 C 0.5251(4) 0.1127(4) 1.2193(2)
H26 H 0.5524 0.0262 1.2021
O1 O -0.0564(3) -0.6731(3) 0.67743(16)
H39 H -0.0935 -0.7494 0.6506
O2 O -0.2363(3) -0.6865(3) 0.75565(17)
O3 O 0.7611(3) 0.4120(3) 1.41092(18)
O4 O 0.5898(3) 0.5415(3) 1.40804(17)
H40 H 0.6417 0.5938 1.4472
O5 O 0.2042(3) -0.0494(3) 0.89626(14)
O6 O 0.1105(3) -0.0514(3) 0.72843(15)
O7 O 0.3260(3) 0.1626(3) 0.71236(18)
O8 O 0.3755(3) 0.2684(3) 0.88352(18)
O9 O 0.3105(3) 0.1707(3) 1.02109(15)
C29 C 0.8680(5) 0.5867(4) 0.6053(3)
H27 H 0.7964 0.5572 0.6378
H28 H 0.9623 0.5945 0.6333
H29 H 0.8623 0.5219 0.5519
C30 C 0.9758(5) 0.7623(5) 0.5301(3)
H30 H 0.9646 0.6864 0.4815
H31 H 1.0672 0.7664 0.5605
H32 H 0.9722 0.8445 0.5139
O10 O 0.7007(3) 0.7220(3) 0.53831(16)
S1 S 0.83712(11) 0.74318(11) 0.59268(6)
C31 C 0.5914(5) 0.2263(4) 0.5635(3)
H33 H 0.6143 0.2804 0.6198
H34 H 0.4884 0.2075 0.5517
H35 H 0.6312 0.2747 0.5265
C32 C 0.5980(4) 0.0231(4) 0.6331(2)
H36 H 0.6313 -0.0612 0.6346
H37 H 0.4944 0.0114 0.6267
H38 H 0.6318 0.0910 0.6839
O11 O 0.8243(3) 0.1111(3) 0.57158(15)
S2 S 0.66464(11) 0.07379(11) 0.54984(6)
loop_
_geom_bond_atom_site_label_1
_geom_bond_atom_site_label_2
_geom_bond_site_symmetry_1
_geom_bond_site_symmetry_2
C1 C2 1_555 1_555
C2 C3 1_555 1_555
C3 H1 1_555 1_555
C4 C3 1_555 1_555
H2 C4 1_555 1_555
C5 C4 1_555 1_555
C6 C5 1_555 1_555
H3 C6 1_555 1_555
C7 C2 1_555 1_555
H4 C7 1_555 1_555
C8 C5 1_555 1_555
C9 C8 1_555 1_555
H5 C9 1_555 1_555
C10 C9 1_555 1_555
H6 C10 1_555 1_555
C11 C10 1_555 1_555
C12 C11 1_555 1_555
C13 C8 1_555 1_555
C14 H7 1_555 1_555
H8 C14 1_555 1_555
C15 C14 1_555 1_555
H9 C15 1_555 1_555
H10 C15 1_555 1_555
C16 H11 1_555 1_555
H12 C16 1_555 1_555
C17 C16 1_555 1_555
H13 C17 1_555 1_555
H14 C17 1_555 1_555
C18 H15 1_555 1_555
H16 C18 1_555 1_555
C19 C18 1_555 1_555
H17 C19 1_555 1_555
H18 C19 1_555 1_555
C20 H19 1_555 1_555
H20 C20 1_555 1_555
C21 C20 1_555 1_555
H21 C21 1_555 1_555
H22 C21 1_555 1_555
C22 C11 1_555 1_555
C23 C22 1_555 1_555
H23 C23 1_555 1_555
C24 C23 1_555 1_555
H24 C24 1_555 1_555
C25 C24 1_555 1_555
C26 C25 1_555 1_555
C27 C25 1_555 1_555
H25 C27 1_555 1_555
C28 C22 1_555 1_555
H26 C28 1_555 1_555
C29 H27 1_555 1_555
H28 C29 1_555 1_555
H29 C29 1_555 1_555
C30 H30 1_555 1_555
H31 C30 1_555 1_555
H32 C30 1_555 1_555
C31 H33 1_555 1_555
H34 C31 1_555 1_555
H35 C31 1_555 1_555
C32 H36 1_555 1_555
H37 C32 1_555 1_555
H38 C32 1_555 1_555
O1 C1 1_555 1_555
H39 O1 1_555 1_555
O2 C1 1_555 1_555
O3 C26 1_555 1_555
O4 C26 1_555 1_555
H40 O4 1_555 1_555
O5 C13 1_555 1_555
O6 C15 1_555 1_555
O7 C17 1_555 1_555
O8 C19 1_555 1_555
O9 C12 1_555 1_555
O10 S1 1_555 1_555
O11 S2 1_555 1_555
S1 C29 1_555 1_555
S2 C31 1_555 1_555
C6 C7 1_555 1_555
C12 C13 1_555 1_555
C14 O5 1_555 1_555
C16 O6 1_555 1_555
C18 O7 1_555 1_555
C20 O8 1_555 1_555
C21 O9 1_555 1_555
C27 C28 1_555 1_555
C30 S1 1_555 1_555
C32 S2 1_555 1_555

#END
