
#######################################################################
#
#                 Cambridge Crystallographic Data Centre
#                                CCDC 
#
#######################################################################
#
# If this CIF has been generated from an entry in the Cambridge 
# Structural Database, then it will include bibliographic, chemical, 
# crystal, experimental, refinement or atomic coordinate data resulting 
# from the CCDC's data processing and validation procedures.
#
#######################################################################

data_TETWOH
_chemical_formula_moiety         'C23 H17 N3 O3 S1'
_chemical_name_systematic        
5-methyl-1-phenyl-3-(phenylsulfonyl)-3,5-dihydro-4H-pyrazolo[3,4-c]quinolin-4-one
_symmetry_cell_setting           monoclinic
_symmetry_space_group_name_H-M   'P 21/n'
_symmetry_Int_Tables_number      14
_space_group_name_Hall           '-P 2yn'
loop_
_symmetry_equiv_pos_site_id
_symmetry_equiv_pos_as_xyz
1 x,y,z
2 1/2-x,1/2+y,1/2-z
3 -x,-y,-z
4 1/2+x,1/2-y,1/2+z
_cell_length_a                   5.4320(2)
_cell_length_b                   19.9758(9)
_cell_length_c                   17.4712(8)
_cell_angle_alpha                90
_cell_angle_beta                 97.033(2)
_cell_angle_gamma                90
_cell_volume                     1881.51
_exptl_crystal_colour            colorless
_exptl_crystal_description       rod
_cell_formula_units_Z            4
loop_
_atom_site_label
_atom_site_type_symbol
_atom_site_fract_x
_atom_site_fract_y
_atom_site_fract_z
S1 S 0.45986(13) 0.17650(3) 0.92368(5)
O1 O 0.3304(4) 0.20233(10) 0.85443(14)
O2 O 0.3302(5) 0.15984(10) 0.98686(16)
O3 O 0.7894(5) 0.14630(11) 1.08936(14)
N1 N 1.1062(7) 0.21819(13) 1.13170(14)
N2 N 0.6712(4) 0.23776(11) 0.95280(14)
N3 N 0.6953(4) 0.28811(10) 0.90068(13)
C1 C 0.8899(5) 0.32365(12) 0.92982(14)
C2 C 0.9577(4) 0.38279(12) 0.88536(14)
C3 C 1.1479(7) 0.3803(2) 0.8417(3)
H1 H 1.2474 0.3412 0.8418
C4 C 1.1968(7) 0.4353(2) 0.7967(3)
H2 H 1.3308 0.4331 0.7666
C5 C 1.0595(5) 0.49130(14) 0.79484(16)
H3 H 1.0943 0.5282 0.7636
C6 C 0.8706(9) 0.49408(17) 0.8384(3)
H4 H 0.7716 0.5333 0.8379
C7 C 0.8201(8) 0.43982(17) 0.8839(2)
H5 H 0.6873 0.4426 0.9144
C8 C 1.0010(5) 0.29649(13) 1.00090(14)
C9 C 1.2132(6) 0.31372(14) 1.05509(15)
C10 C 1.3728(5) 0.36707(15) 1.04505(16)
H6 H 1.3392 0.3950 1.0010
C11 C 1.5777(6) 0.37999(18) 1.09757(17)
H7 H 1.6845 0.4164 1.0899
C12 C 1.6257(8) 0.3391(2) 1.1618(2)
H8 H 1.7670 0.3476 1.1982
C13 C 1.4723(9) 0.2863(2) 1.17379(18)
H9 H 1.5087 0.2591 1.2183
C14 C 1.2623(7) 0.27227(15) 1.12088(16)
C15 C 0.9072(7) 0.19709(15) 1.07958(17)
C16 C 0.8590(5) 0.24161(13) 1.01387(15)
C17 C 0.6667(10) 0.11301(17) 0.9096(3)
C18 C 0.7819(12) 0.1174(3) 0.8430(3)
H10 H 0.7634 0.1567 0.8121
C19 C 0.9240(11) 0.0643(3) 0.8215(2)
H11 H 1.0028 0.0673 0.7759
C20 C 0.9510(8) 0.0069(3) 0.8666(3)
H12 H 1.0482 -0.0294 0.8519
C21 C 0.8358(10) 0.00249(18) 0.9332(3)
H13 H 0.8543 -0.0368 0.9640
C22 C 0.6937(10) 0.05555(19) 0.9547(3)
H14 H 0.6150 0.0526 1.0002
C23 C 1.222(3) 0.1793(4) 1.2021(4)
H15 H 1.1187 0.1403 1.2101
H16 H 1.2338 0.2082 1.2477
H17 H 1.3885 0.1642 1.1937
C24? C 0.6263(10) 0.10747(17) 0.8964(3)
C25? C 0.8372(12) 0.1174(3) 0.8601(4)
H18? H 0.8790 0.1611 0.8446
C26? C 0.9871(8) 0.0634(4) 0.8465(4)
H19? H 1.1312 0.0701 0.8217
C27? C 0.9260(8) -0.0006(3) 0.8692(3)
H20? H 1.0285 -0.0375 0.8599
C28? C 0.7151(10) -0.01054(18) 0.9055(3)
H21? H 0.6734 -0.0543 0.9210
C29? C 0.5653(9) 0.04350(19) 0.9191(3)
H22? H 0.4211 0.0367 0.9439
C30? C 1.091(4) 0.1748(4) 1.2005(4)
H23? H 0.9273 0.1533 1.1962
H24? H 1.1144 0.2021 1.2473
H25? H 1.2199 0.1403 1.2030
loop_
_geom_bond_atom_site_label_1
_geom_bond_atom_site_label_2
_geom_bond_site_symmetry_1
_geom_bond_site_symmetry_2
S1 O1 1_555 1_555
O2 S1 1_555 1_555
O3 C15 1_555 1_555
N1 C14 1_555 1_555
N2 S1 1_555 1_555
N3 N2 1_555 1_555
C1 N3 1_555 1_555
C2 C1 1_555 1_555
C3 C2 1_555 1_555
H1 C3 1_555 1_555
C4 C3 1_555 1_555
H2 C4 1_555 1_555
C5 C4 1_555 1_555
H3 C5 1_555 1_555
C6 C5 1_555 1_555
H4 C6 1_555 1_555
C7 C2 1_555 1_555
H5 C7 1_555 1_555
C8 C1 1_555 1_555
C9 C8 1_555 1_555
C10 C9 1_555 1_555
H6 C10 1_555 1_555
C11 C10 1_555 1_555
H7 C11 1_555 1_555
C12 C11 1_555 1_555
H8 C12 1_555 1_555
C13 C12 1_555 1_555
H9 C13 1_555 1_555
C14 C9 1_555 1_555
C15 N1 1_555 1_555
C16 N2 1_555 1_555
C17 S1 1_555 1_555
C18 C17 1_555 1_555
H10 C18 1_555 1_555
C19 C18 1_555 1_555
H11 C19 1_555 1_555
C20 C19 1_555 1_555
H12 C20 1_555 1_555
C21 C20 1_555 1_555
H13 C21 1_555 1_555
C22 C17 1_555 1_555
H14 C22 1_555 1_555
C23 N1 1_555 1_555
H15 C23 1_555 1_555
H16 C23 1_555 1_555
H17 C23 1_555 1_555
C6 C7 1_555 1_555
C8 C16 1_555 1_555
C13 C14 1_555 1_555
C15 C16 1_555 1_555
C21 C22 1_555 1_555

#END
