
#######################################################################
#
#                 Cambridge Crystallographic Data Centre
#                                CCDC 
#
#######################################################################
#
# If this CIF has been generated from an entry in the Cambridge 
# Structural Database, then it will include bibliographic, chemical, 
# crystal, experimental, refinement or atomic coordinate data resulting 
# from the CCDC's data processing and validation procedures.
#
#######################################################################

data_TETZIC01
_chemical_formula_moiety         'C16 H14 N4'
_chemical_name_systematic        1,2-bis(2-Pyrrolylmethyleneamino)benzene
_symmetry_cell_setting           monoclinic
_symmetry_space_group_name_H-M   'C 2/c'
_symmetry_Int_Tables_number      15
_space_group_name_Hall           '-C 2yn'
loop_
_symmetry_equiv_pos_site_id
_symmetry_equiv_pos_as_xyz
1 x,y,z
2 1/2+x,1/2+y,z
3 -x,y,1/2-z
4 1/2-x,1/2+y,1/2-z
5 -x,-y,-z
6 1/2-x,1/2-y,-z
7 x,-y,1/2+z
8 1/2+x,1/2-y,1/2+z
_cell_length_a                   34.919(7)
_cell_length_b                   17.106(3)
_cell_length_c                   14.362(3)
_cell_angle_alpha                90
_cell_angle_beta                 93.49(3)
_cell_angle_gamma                90
_cell_volume                     8562.86
_exptl_crystal_colour            brown
_exptl_crystal_description       'thin platelet'
_chemical_melting_point          '194-196 deg.C'
_cell_formula_units_Z            24
_exptl_crystal_recrystallization_method ethanol/acetonitrile
loop_
_atom_site_label
_atom_site_type_symbol
_atom_site_fract_x
_atom_site_fract_y
_atom_site_fract_z
N1 N 0.28319(16) 0.0526(4) 0.1266(4)
H1 H 0.3078 0.0530 0.1350
N2 N 0.30837(16) 0.2096(3) 0.1566(4)
N3 N 0.36200(15) 0.2343(3) 0.3012(4)
N4 N 0.39025(16) 0.1057(3) 0.4059(4)
H2 H 0.3658 0.1025 0.3956
C1 C 0.2613(2) -0.0104(5) 0.1099(5)
H3 H 0.2707 -0.0612 0.1068
C2 C 0.2230(2) 0.0093(6) 0.0976(6)
H4 H 0.2022 -0.0233 0.0830
C3 C 0.2230(2) 0.0904(5) 0.1126(5)
H5 H 0.2012 0.1216 0.1121
C4 C 0.2596(2) 0.1164(5) 0.1280(4)
C5 C 0.2734(2) 0.1944(5) 0.1467(5)
H6 H 0.2557 0.2347 0.1515
C6 C 0.31941(18) 0.2870(4) 0.1778(5)
C7 C 0.3057(2) 0.3521(5) 0.1287(5)
H7 H 0.2877 0.3446 0.0790
C8 C 0.3174(2) 0.4276(5) 0.1504(6)
H8 H 0.3065 0.4694 0.1169
C9 C 0.3446(3) 0.4409(5) 0.2205(7)
H9 H 0.3529 0.4915 0.2342
C10 C 0.36033(19) 0.3764(4) 0.2724(5)
H10 H 0.3782 0.3852 0.3219
C11 C 0.34913(19) 0.3002(4) 0.2499(5)
C12 C 0.39771(18) 0.2265(4) 0.3204(4)
H11 H 0.4144 0.2634 0.2981
C13 C 0.41298(18) 0.1633(4) 0.3745(5)
C14 C 0.4499(2) 0.1463(5) 0.4052(5)
H12 H 0.4715 0.1749 0.3915
C15 C 0.4498(2) 0.0798(5) 0.4599(5)
H13 H 0.4709 0.0574 0.4925
C16 C 0.4130(2) 0.0535(4) 0.4568(5)
H14 H 0.4046 0.0080 0.4845
N5 N 0.21302(16) 0.7017(4) 0.1253(4)
H15 H 0.1884 0.7004 0.1267
N6 N 0.18708(16) 0.5438(3) 0.1469(4)
N7 N 0.14224(15) 0.5153(3) 0.2892(4)
N8 N 0.11671(15) 0.6459(3) 0.3924(4)
H16 H 0.1409 0.6493 0.3844
C17 C 0.2343(2) 0.7654(5) 0.1219(5)
H17 H 0.2246 0.8161 0.1205
C18 C 0.2721(2) 0.7470(5) 0.1207(5)
H18 H 0.2926 0.7812 0.1179
C19 C 0.2734(2) 0.6665(5) 0.1246(5)
H19 H 0.2955 0.6362 0.1258
C20 C 0.2367(2) 0.6385(4) 0.1264(5)
C21 C 0.2226(2) 0.5603(4) 0.1398(5)
H20 H 0.2402 0.5196 0.1436
C22 C 0.17747(18) 0.4653(4) 0.1624(5)
C23 C 0.1892(2) 0.4026(4) 0.1123(5)
H21 H 0.2055 0.4118 0.0646
C24 C 0.1782(2) 0.3263(4) 0.1283(5)
H22 H 0.1867 0.2855 0.0920
C25 C 0.1548(2) 0.3128(4) 0.1988(6)
H23 H 0.1477 0.2618 0.2120
C26 C 0.1416(2) 0.3727(4) 0.2504(5)
H24 H 0.1252 0.3618 0.2973
C27 C 0.15224(18) 0.4505(4) 0.2346(5)
C28 C 0.10678(19) 0.5238(4) 0.3064(4)
H25 H 0.0890 0.4871 0.2830
C29 C 0.09375(17) 0.5870(4) 0.3599(4)
C30 C 0.05788(18) 0.6029(4) 0.3913(5)
H26 H 0.0361 0.5723 0.3800
C31 C 0.0598(2) 0.6709(5) 0.4415(5)
H27 H 0.0399 0.6943 0.4718
C32 C 0.0966(2) 0.6979(5) 0.4386(5)
H28 H 0.1060 0.7445 0.4643
N9 N 0.04549(15) 0.0804(3) 0.1065(4)
H29 H 0.0218 0.0789 0.1193
N10 N 0.02224(15) 0.2279(3) 0.1751(3)
C33 C 0.0649(2) 0.0205(4) 0.0702(5)
H30 H 0.0549 -0.0285 0.0549
C34 C 0.1013(2) 0.0443(5) 0.0598(5)
H31 H 0.1207 0.0144 0.0364
C35 C 0.1045(2) 0.1213(5) 0.0901(5)
H32 H 0.1264 0.1522 0.0903
C36 C 0.06907(19) 0.1438(4) 0.1201(5)
C37 C 0.05660(19) 0.2150(3) 0.1576(4)
H33 H 0.0746 0.2543 0.1700
C38 C 0.01264(16) 0.3017(4) 0.2137(4)
C39 C 0.02447(18) 0.3747(4) 0.1800(4)
H34 H 0.0410 0.3757 0.1316
C40 C 0.01287(17) 0.4424(4) 0.2147(5)
H35 H 0.0219 0.4894 0.1920
N9B N -0.04549(15) 0.0804(3) 0.3935(4)
H29B H -0.0218 0.0789 0.3807
N10B N -0.02224(15) 0.2279(3) 0.3249(3)
C33B C -0.0649(2) 0.0205(4) 0.4298(5)
H30B H -0.0549 -0.0285 0.4451
C34B C -0.1013(2) 0.0443(5) 0.4402(5)
H31B H -0.1207 0.0144 0.4636
C35B C -0.1045(2) 0.1213(5) 0.4099(5)
H32B H -0.1264 0.1522 0.4097
C36B C -0.06907(19) 0.1438(4) 0.3799(5)
C37B C -0.05660(19) 0.2150(3) 0.3424(4)
H33B H -0.0746 0.2543 0.3300
C38B C -0.01264(16) 0.3017(4) 0.2863(4)
C39B C -0.02447(18) 0.3747(4) 0.3200(4)
H34B H -0.0410 0.3757 0.3684
C40B C -0.01287(17) 0.4424(4) 0.2853(5)
H35B H -0.0219 0.4894 0.3080
N11 N 0.05722(15) 0.1774(3) 0.3843(3)
H36 H 0.0328 0.1808 0.3722
N12 N 0.02724(15) 0.0296(3) 0.3221(4)
C41 C 0.0803(2) 0.2352(5) 0.4172(5)
H37 H 0.0725 0.2859 0.4299
C42 C 0.1168(2) 0.2077(5) 0.4289(5)
H38 H 0.1381 0.2359 0.4516
C43 C 0.1164(2) 0.1310(4) 0.4014(5)
H39 H 0.1376 0.0980 0.4019
C44 C 0.0795(2) 0.1113(4) 0.3732(5)
C45 C 0.0632(2) 0.0404(4) 0.3383(5)
H40 H 0.0797 -0.0007 0.3265
C46 C 0.01535(18) -0.0445(3) 0.2850(4)
C47 C 0.02819(18) -0.1151(4) 0.3213(5)
H41 H 0.0463 -0.1153 0.3717
C48 C 0.01508(19) -0.1850(4) 0.2853(5)
H42 H 0.0258 -0.2318 0.3070
N11B N -0.05722(15) 0.1774(3) 0.1157(3)
H36B H -0.0328 0.1808 0.1278
N12B N -0.02724(15) 0.0296(3) 0.1779(4)
C41B C -0.0803(2) 0.2352(5) 0.0828(5)
H37B H -0.0725 0.2859 0.0701
C42B C -0.1168(2) 0.2077(5) 0.0711(5)
H38B H -0.1381 0.2359 0.0484
C43B C -0.1164(2) 0.1310(4) 0.0986(5)
H39B H -0.1376 0.0980 0.0981
C44B C -0.0795(2) 0.1113(4) 0.1268(5)
C45B C -0.0632(2) 0.0404(4) 0.1617(5)
H40B H -0.0797 -0.0007 0.1735
C46B C -0.01535(18) -0.0445(3) 0.2150(4)
C47B C -0.02819(18) -0.1151(4) 0.1787(5)
H41B H -0.0463 -0.1153 0.1283
C48B C -0.01508(19) -0.1850(4) 0.2147(5)
H42B H -0.0258 -0.2318 0.1930
loop_
_geom_bond_atom_site_label_1
_geom_bond_atom_site_label_2
_geom_bond_site_symmetry_1
_geom_bond_site_symmetry_2
N1 H1 1_555 1_555
N2 C5 1_555 1_555
N3 C11 1_555 1_555
N4 H2 1_555 1_555
C1 N1 1_555 1_555
H3 C1 1_555 1_555
C2 C1 1_555 1_555
H4 C2 1_555 1_555
C3 C2 1_555 1_555
H5 C3 1_555 1_555
C4 N1 1_555 1_555
C5 C4 1_555 1_555
H6 C5 1_555 1_555
C6 N2 1_555 1_555
C7 C6 1_555 1_555
H7 C7 1_555 1_555
C8 C7 1_555 1_555
H8 C8 1_555 1_555
C9 C8 1_555 1_555
H9 C9 1_555 1_555
C10 C9 1_555 1_555
H10 C10 1_555 1_555
C11 C6 1_555 1_555
C12 N3 1_555 1_555
H11 C12 1_555 1_555
C13 N4 1_555 1_555
C14 C13 1_555 1_555
H12 C14 1_555 1_555
C15 C14 1_555 1_555
H13 C15 1_555 1_555
C16 N4 1_555 1_555
H14 C16 1_555 1_555
N5 H15 1_555 1_555
N6 C21 1_555 1_555
N7 C27 1_555 1_555
N8 H16 1_555 1_555
C17 N5 1_555 1_555
H17 C17 1_555 1_555
C18 C17 1_555 1_555
H18 C18 1_555 1_555
C19 C18 1_555 1_555
H19 C19 1_555 1_555
C20 N5 1_555 1_555
C21 C20 1_555 1_555
H20 C21 1_555 1_555
C22 N6 1_555 1_555
C23 C22 1_555 1_555
H21 C23 1_555 1_555
C24 C23 1_555 1_555
H22 C24 1_555 1_555
C25 C24 1_555 1_555
H23 C25 1_555 1_555
C26 C25 1_555 1_555
H24 C26 1_555 1_555
C27 C22 1_555 1_555
C28 N7 1_555 1_555
H25 C28 1_555 1_555
C29 N8 1_555 1_555
C30 C29 1_555 1_555
H26 C30 1_555 1_555
C31 C30 1_555 1_555
H27 C31 1_555 1_555
C32 N8 1_555 1_555
H28 C32 1_555 1_555
N9 H29 1_555 1_555
N10 C37 1_555 1_555
C33 N9 1_555 1_555
H30 C33 1_555 1_555
C34 C33 1_555 1_555
H31 C34 1_555 1_555
C35 C34 1_555 1_555
H32 C35 1_555 1_555
C36 N9 1_555 1_555
C37 C36 1_555 1_555
H33 C37 1_555 1_555
C38 N10 1_555 1_555
C39 C38 1_555 1_555
H34 C39 1_555 1_555
C40 C39 1_555 1_555
H35 C40 1_555 1_555
N11 H36 1_555 1_555
N12 C45 1_555 1_555
C41 N11 1_555 1_555
H37 C41 1_555 1_555
C42 C41 1_555 1_555
H38 C42 1_555 1_555
C43 C42 1_555 1_555
H39 C43 1_555 1_555
C44 N11 1_555 1_555
C45 C44 1_555 1_555
H40 C45 1_555 1_555
C46 N12 1_555 1_555
C47 C46 1_555 1_555
H41 C47 1_555 1_555
C48 C47 1_555 1_555
H42 C48 1_555 1_555
N9B H29B 1_555 1_555
N10B C37B 1_555 1_555
C33B N9B 1_555 1_555
H30B C33B 1_555 1_555
C34B C33B 1_555 1_555
H31B C34B 1_555 1_555
C35B C34B 1_555 1_555
H32B C35B 1_555 1_555
C36B N9B 1_555 1_555
C37B C36B 1_555 1_555
H33B C37B 1_555 1_555
C38B C38 1_555 1_555
C39B C38B 1_555 1_555
H34B C39B 1_555 1_555
C40B C40 1_555 1_555
H35B C40B 1_555 1_555
N11B H36B 1_555 1_555
N12B C45B 1_555 1_555
C41B N11B 1_555 1_555
H37B C41B 1_555 1_555
C42B C41B 1_555 1_555
H38B C42B 1_555 1_555
C43B C42B 1_555 1_555
H39B C43B 1_555 1_555
C44B N11B 1_555 1_555
C45B C44B 1_555 1_555
H40B C45B 1_555 1_555
C46B C46 1_555 1_555
C47B C46B 1_555 1_555
H41B C47B 1_555 1_555
C48B C48 1_555 1_555
H42B C48B 1_555 1_555
C3 C4 1_555 1_555
C10 C11 1_555 1_555
C12 C13 1_555 1_555
C15 C16 1_555 1_555
C19 C20 1_555 1_555
C26 C27 1_555 1_555
C28 C29 1_555 1_555
C31 C32 1_555 1_555
C35 C36 1_555 1_555
C43 C44 1_555 1_555
N10B C38B 1_555 1_555
C35B C36B 1_555 1_555
C39B C40B 1_555 1_555
N12B C46B 1_555 1_555
C43B C44B 1_555 1_555
C47B C48B 1_555 1_555

#END
