
#######################################################################
#
#                 Cambridge Crystallographic Data Centre
#                                CCDC 
#
#######################################################################
#
# If this CIF has been generated from an entry in the Cambridge 
# Structural Database, then it will include bibliographic, chemical, 
# crystal, experimental, refinement or atomic coordinate data resulting 
# from the CCDC's data processing and validation procedures.
#
#######################################################################

data_TETZUP
_chemical_formula_moiety         'C19 H16 N2 O2'
_chemical_name_systematic        
3-(Di-1H-pyrrol-2-ylmethyl)-6-methyl-4H-chromen-4-one
_symmetry_cell_setting           monoclinic
_symmetry_space_group_name_H-M   'P 21/c'
_symmetry_Int_Tables_number      14
_space_group_name_Hall           '-P 2ybc'
loop_
_symmetry_equiv_pos_site_id
_symmetry_equiv_pos_as_xyz
1 x,y,z
2 -x,1/2+y,1/2-z
3 -x,-y,-z
4 x,1/2-y,1/2+z
_cell_length_a                   15.688(5)
_cell_length_b                   22.176(5)
_cell_length_c                   8.850(5)
_cell_angle_alpha                90
_cell_angle_beta                 103.392(5)
_cell_angle_gamma                90
_cell_volume                     2995.17
_exptl_crystal_colour            yellow
_exptl_crystal_description       block
_cell_formula_units_Z            8
loop_
_atom_site_label
_atom_site_type_symbol
_atom_site_fract_x
_atom_site_fract_y
_atom_site_fract_z
O1 O 0.16716(8) 0.65501(6) 0.90362(15)
O2 O 0.24937(8) 0.51507(6) 1.20543(16)
C1 C 0.19063(10) 0.61108(7) 0.98916(18)
C2 C 0.28241(10) 0.59078(7) 1.03062(19)
N1 N -0.08437(9) 0.60709(7) 0.78126(18)
H1 H -0.1148 0.6288 0.8300
C3 C 0.13141(10) 0.57506(7) 1.05831(19)
N2 N 0.03190(10) 0.70058(7) 1.03754(18)
H2 H 0.0618 0.7063 0.9687
C4 C 0.30771(11) 0.54409(8) 1.1369(2)
C5 C 0.34645(11) 0.61797(8) 0.9650(2)
H3 H 0.3306 0.6494 0.8944
C6 C 0.16404(11) 0.53088(8) 1.1608(2)
H4 H 0.1245 0.5096 1.2041
C7 C 0.03349(10) 0.58674(8) 1.02020(19)
H5 H 0.0073 0.5546 1.0704
C8 C -0.00544(10) 0.58111(7) 0.84752(19)
C9 C 0.39442(12) 0.52477(8) 1.1803(2)
H6 H 0.4107 0.4942 1.2533
C10 C 0.43279(12) 0.59864(9) 1.0041(2)
C11 C 0.00915(11) 0.64531(8) 1.08545(19)
C12 C 0.02187(11) 0.55063(8) 0.7313(2)
H7 H 0.0735 0.5287 0.7425
C13 C 0.45573(11) 0.55187(9) 1.1128(2)
H8 H 0.5136 0.5388 1.1400
C14 C -0.00027(13) 0.74544(9) 1.1161(2)
H9 H 0.0065 0.7867 1.1040
C15 C -0.03871(12) 0.65496(10) 1.1960(2)
H10 H -0.0629 0.6255 1.2481
C16 C -0.04399(12) 0.71862(10) 1.2153(2)
H11 H -0.0720 0.7383 1.2829
C17 C -0.04322(12) 0.55872(9) 0.5909(2)
H12 H -0.0418 0.5432 0.4939
C18 C 0.50180(13) 0.62668(11) 0.9336(3)
H13 H 0.5571 0.6074 0.9745
H14 H 0.5065 0.6689 0.9584
H15 H 0.4858 0.6217 0.8229
C19 C -0.10811(12) 0.59351(9) 0.6252(2)
H16 H -0.1591 0.6058 0.5557
O3 O 0.50662(8) 0.59291(6) 0.52521(16)
O4 O 0.42098(9) 0.73824(6) 0.24497(17)
C20 C 0.38964(11) 0.65758(8) 0.4087(2)
C21 C 0.54087(11) 0.67880(8) 0.3885(2)
C22 C 0.64013(11) 0.67155(8) 0.43134(19)
H17 H 0.6625 0.7065 0.3848
C23 C 0.48176(11) 0.63905(8) 0.44707(19)
C24 C 0.68019(11) 0.67669(8) 0.60329(19)
C25 C 0.64872(11) 0.55910(7) 0.3782(2)
H18 H 0.6112 0.5471 0.4400
C26 C 0.32652(11) 0.62775(9) 0.4707(2)
H19 H 0.3433 0.5948 0.5359
C27 C 0.67188(11) 0.61748(8) 0.35680(19)
C28 C 0.36306(12) 0.70635(8) 0.3093(2)
C29 C 0.21581(12) 0.69556(9) 0.3355(2)
H20 H 0.1578 0.7084 0.3118
C30 C 0.23992(11) 0.64621(9) 0.4372(2)
C31 C 0.76669(12) 0.69881(9) 0.8386(2)
H21 H 0.8088 0.7171 0.9164
N3 N 0.74555(12) 0.71445(8) 0.6784(2)
H22 H 0.7696 0.7427 0.6361
C32 C 0.27571(12) 0.72515(9) 0.2706(2)
H23 H 0.2583 0.7571 0.2022
C33 C 0.71353(12) 0.65192(10) 0.8566(2)
H24 H 0.7130 0.6323 0.9492
C34 C 0.50657(12) 0.72424(8) 0.2912(2)
H25 H 0.5457 0.7479 0.2528
C35 C 0.66097(11) 0.63882(8) 0.71322(19)
H26 H 0.6186 0.6087 0.6937
N4 N 0.72986(12) 0.61616(9) 0.2611(2)
H27 H 0.7549 0.6469 0.2307
C36 C 0.74100(13) 0.55490(9) 0.2217(2)
H28 H 0.7765 0.5406 0.1586
C37 C 0.68940(13) 0.52105(9) 0.2945(2)
H29 H 0.6830 0.4794 0.2883
C38 C 0.17290(13) 0.61517(11) 0.5077(3)
H30 H 0.1169 0.6341 0.4714
H31 H 0.1903 0.6181 0.6188
H32 H 0.1689 0.5735 0.4778
loop_
_geom_bond_atom_site_label_1
_geom_bond_atom_site_label_2
_geom_bond_site_symmetry_1
_geom_bond_site_symmetry_2
O1 C1 1_555 1_555
O2 C4 1_555 1_555
C1 C2 1_555 1_555
C2 C4 1_555 1_555
N1 H1 1_555 1_555
C3 C1 1_555 1_555
N2 H2 1_555 1_555
C4 C9 1_555 1_555
C5 C2 1_555 1_555
H3 C5 1_555 1_555
C6 O2 1_555 1_555
H4 C6 1_555 1_555
C7 C3 1_555 1_555
H5 C7 1_555 1_555
C8 N1 1_555 1_555
C9 H6 1_555 1_555
C10 C5 1_555 1_555
C11 N2 1_555 1_555
C12 C8 1_555 1_555
H7 C12 1_555 1_555
C13 C9 1_555 1_555
H8 C13 1_555 1_555
C14 N2 1_555 1_555
H9 C14 1_555 1_555
C15 C11 1_555 1_555
H10 C15 1_555 1_555
C16 C14 1_555 1_555
H11 C16 1_555 1_555
C17 C12 1_555 1_555
H12 C17 1_555 1_555
C18 C10 1_555 1_555
H13 C18 1_555 1_555
H14 C18 1_555 1_555
H15 C18 1_555 1_555
C19 N1 1_555 1_555
H16 C19 1_555 1_555
O3 C23 1_555 1_555
O4 C28 1_555 1_555
C20 C23 1_555 1_555
C21 C22 1_555 1_555
C22 H17 1_555 1_555
C23 C21 1_555 1_555
C24 C22 1_555 1_555
C25 H18 1_555 1_555
C26 C20 1_555 1_555
H19 C26 1_555 1_555
C27 C22 1_555 1_555
C28 C20 1_555 1_555
C29 H20 1_555 1_555
C30 C26 1_555 1_555
C31 H21 1_555 1_555
N3 C24 1_555 1_555
H22 N3 1_555 1_555
C32 C28 1_555 1_555
H23 C32 1_555 1_555
C33 C31 1_555 1_555
H24 C33 1_555 1_555
C34 O4 1_555 1_555
H25 C34 1_555 1_555
C35 C24 1_555 1_555
H26 C35 1_555 1_555
N4 C27 1_555 1_555
H27 N4 1_555 1_555
C36 N4 1_555 1_555
H28 C36 1_555 1_555
C37 C25 1_555 1_555
H29 C37 1_555 1_555
C38 C30 1_555 1_555
H30 C38 1_555 1_555
H31 C38 1_555 1_555
H32 C38 1_555 1_555
C3 C6 1_555 1_555
C7 C8 1_555 1_555
C7 C11 1_555 1_555
C10 C13 1_555 1_555
C15 C16 1_555 1_555
C17 C19 1_555 1_555
C21 C34 1_555 1_555
C25 C27 1_555 1_555
C29 C30 1_555 1_555
C29 C32 1_555 1_555
C31 N3 1_555 1_555
C33 C35 1_555 1_555
C36 C37 1_555 1_555

#END
