
#######################################################################
#
#                 Cambridge Crystallographic Data Centre
#                                CCDC 
#
#######################################################################
#
# If this CIF has been generated from an entry in the Cambridge 
# Structural Database, then it will include bibliographic, chemical, 
# crystal, experimental, refinement or atomic coordinate data resulting 
# from the CCDC's data processing and validation procedures.
#
#######################################################################

data_TEVBUU
_chemical_formula_moiety         'C48 H46 N4 O8 S2'
_chemical_name_systematic        
"dimethyl 1,1'-(1,4-phenylene)bis(4-((4-methylphenyl)sulfonyl)-1,6,7,11b-tetrahydro-4H-pyridazino[6,1-a]isoquinoline-2-carboxylate)"
_symmetry_cell_setting           triclinic
_symmetry_space_group_name_H-M   'P -1'
_symmetry_Int_Tables_number      2
_space_group_name_Hall           '-P 1'
loop_
_symmetry_equiv_pos_site_id
_symmetry_equiv_pos_as_xyz
1 x,y,z
2 -x,-y,-z
_cell_length_a                   11.343(2)
_cell_length_b                   12.801(3)
_cell_length_c                   15.591(3)
_cell_angle_alpha                101.98(3)
_cell_angle_beta                 92.44(3)
_cell_angle_gamma                101.02(3)
_cell_volume                     2165.71
_exptl_crystal_colour            colorless
_exptl_crystal_description       Plate
_cell_formula_units_Z            2
loop_
_atom_site_label
_atom_site_type_symbol
_atom_site_fract_x
_atom_site_fract_y
_atom_site_fract_z
S1 S 0.16571(5) 0.44045(5) 0.49138(3)
S2 S 0.43580(6) 0.11336(5) -0.32059(4)
O1 O 0.10593(16) 0.37942(15) 0.54948(10)
O2 O 0.19427(17) 0.55739(14) 0.51481(11)
O3 O 0.39321(17) 0.01595(14) -0.29088(12)
O4 O 0.36417(19) 0.14425(16) -0.38497(11)
O5 O 0.32732(14) 0.51960(13) -0.06764(11)
O6 O 0.28781(17) 0.46927(14) -0.21431(11)
N1 N 0.07822(16) 0.40964(15) 0.39690(11)
N2 N 0.05467(15) 0.29610(15) 0.35800(11)
N3 N 0.52770(17) 0.20338(15) -0.16168(12)
N4 N 0.4613(2) 0.21996(17) -0.23488(12)
C1 C 0.5889(2) 0.2511(2) 0.35984(18)
H1 H 0.5795 0.2350 0.2967
H2 H 0.5890 0.1850 0.3798
H3 H 0.6638 0.3016 0.3802
C2 C 0.4861(2) 0.30086(19) 0.39568(14)
C3 C 0.4737(2) 0.40357(19) 0.38418(15)
H4 H 0.5302 0.4422 0.3546
C4 C 0.3783(2) 0.44878(19) 0.41626(15)
H5 H 0.3701 0.5171 0.4082
C5 C 0.29485(19) 0.39013(18) 0.46076(13)
C6 C 0.3058(2) 0.28918(19) 0.47399(15)
H6 H 0.2497 0.2510 0.5040
C7 C 0.4023(2) 0.2455(2) 0.44157(15)
H7 H 0.4109 0.1778 0.4508
C8 C -0.07624(18) 0.2515(2) 0.34578(15)
H8 H -0.1128 0.2772 0.2989
H9 H -0.1132 0.2751 0.3994
C9 C -0.0954(2) 0.1284(2) 0.32267(16)
H10 H -0.1791 0.0983 0.3014
H11 H -0.0793 0.1028 0.3755
C10 C -0.0157(2) 0.0863(2) 0.25331(15)
C11 C 0.08756(19) 0.15463(19) 0.23622(14)
C12 C 0.11277(18) 0.27556(18) 0.27494(13)
H12 H 0.2000 0.2996 0.2892
C13 C 0.1663(2) 0.1112(2) 0.17883(16)
H13 H 0.2373 0.1559 0.1697
C14 C 0.1400(3) 0.0031(2) 0.1357(2)
H14 H 0.1920 -0.0247 0.0968
C15 C 0.0358(3) -0.0637(3) 0.1508(2)
H15 H 0.0169 -0.1365 0.1211
C16 C -0.0405(3) -0.0229(2) 0.2098(2)
H16 H -0.1095 -0.0691 0.2205
C17 C 0.07454(18) 0.34009(19) 0.20752(13)
H17 H -0.0067 0.3044 0.1805
C18 C 0.07238(19) 0.4547(2) 0.25581(14)
C19 C 0.08182(19) 0.48449(19) 0.34333(14)
H18 H 0.0912 0.5581 0.3696
C20 C 0.0532(2) 0.5376(3) 0.20555(17)
C21 C 0.16156(18) 0.33890(18) 0.13601(13)
C22 C 0.12856(19) 0.2757(2) 0.05161(15)
H19 H 0.0500 0.2362 0.0370
C23 C 0.2117(2) 0.2708(2) -0.01122(15)
H20 H 0.1879 0.2279 -0.0674
C24 C 0.32968(18) 0.32882(17) 0.00824(13)
C25 C 0.36274(19) 0.39082(17) 0.09291(14)
H21 H 0.4416 0.4296 0.1077
C26 C 0.27986(19) 0.39586(18) 0.15586(14)
H22 H 0.3040 0.4381 0.2122
C27 C 0.42146(18) 0.32590(17) -0.06007(13)
H23 H 0.4947 0.3795 -0.0346
C28 C 0.37735(19) 0.35519(17) -0.14376(14)
C29 C 0.3927(2) 0.29950(18) -0.22387(15)
H24 H 0.3564 0.3147 -0.2732
C30 C 0.45537(19) 0.21187(17) -0.08506(13)
H25 H 0.3804 0.1570 -0.1012
C31 C 0.5244(2) 0.18295(17) -0.01149(13)
C32 C 0.6499(2) 0.20153(17) -0.00668(15)
C33 C 0.7201(2) 0.2525(2) -0.07303(17)
H26 H 0.7668 0.2017 -0.1024
H27 H 0.7765 0.3175 -0.0417
C34 C 0.6441(2) 0.28346(19) -0.14241(16)
H28 H 0.6298 0.3563 -0.1211
H29 H 0.6858 0.2827 -0.1955
C35 C 0.7108(2) 0.1680(2) 0.05901(17)
H30 H 0.7945 0.1798 0.0625
C36 C 0.6494(3) 0.1176(2) 0.11892(16)
H31 H 0.6916 0.0959 0.1623
C37 C 0.5244(3) 0.0996(2) 0.11421(15)
H32 H 0.4825 0.0659 0.1544
C38 C 0.4629(2) 0.13210(18) 0.04940(14)
H33 H 0.3792 0.1199 0.0462
C39 C 0.32777(18) 0.45487(18) -0.13562(15)
C40 C 0.2561(3) 0.5734(2) -0.2124(2)
H34 H 0.2225 0.5744 -0.2696
H35 H 0.3269 0.6302 -0.1958
H36 H 0.1979 0.5849 -0.1703
C41 C 0.5816(2) 0.11246(19) -0.35300(15)
C42 C 0.6317(3) 0.1870(2) -0.40168(17)
H37 H 0.5868 0.2336 -0.4194
C43 C 0.7492(3) 0.1908(2) -0.42329(18)
H38 H 0.7832 0.2405 -0.4557
C44 C 0.8170(3) 0.1219(2) -0.39746(17)
C45 C 0.7651(3) 0.0470(2) -0.34949(17)
H39 H 0.8096 -0.0003 -0.3325
C46 C 0.6475(2) 0.0427(2) -0.32700(16)
H40 H 0.6134 -0.0070 -0.2946
C47 C 0.9476(3) 0.1295(4) -0.4174(2)
H41 H 0.9569 0.0617 -0.4538
H42 H 0.9978 0.1443 -0.3634
H43 H 0.9708 0.1872 -0.4478
O7 O 0.0893(7) 0.6462(6) 0.2357(5)
O8 O 0.0006(7) 0.5033(7) 0.1282(7)
C48 C -0.0301(4) 0.5795(4) 0.0786(3)
H44 H -0.0891 0.5413 0.0309
H45 H 0.0409 0.6133 0.0555
H46 H -0.0625 0.6344 0.1164
O9? O 0.0130(12) 0.4942(11) 0.1235(8)
O10? O 0.0537(8) 0.6231(7) 0.2496(6)
C49? C 0.0109(6) 0.6970(5) 0.2031(5)
H47? H 0.0186 0.6740 0.1413
H48? H 0.0578 0.7694 0.2245
H49? H -0.0723 0.6967 0.2125
loop_
_geom_bond_atom_site_label_1
_geom_bond_atom_site_label_2
_geom_bond_site_symmetry_1
_geom_bond_site_symmetry_2
S1 O1 1_555 1_555
S2 O3 1_555 1_555
O2 S1 1_555 1_555
O4 S2 1_555 1_555
O5 C39 1_555 1_555
O6 C39 1_555 1_555
N1 S1 1_555 1_555
N2 N1 1_555 1_555
N3 N4 1_555 1_555
N4 S2 1_555 1_555
C1 H1 1_555 1_555
H2 C1 1_555 1_555
H3 C1 1_555 1_555
C2 C1 1_555 1_555
C3 C2 1_555 1_555
H4 C3 1_555 1_555
C4 C3 1_555 1_555
H5 C4 1_555 1_555
C5 S1 1_555 1_555
C6 C5 1_555 1_555
H6 C6 1_555 1_555
C7 C2 1_555 1_555
H7 C7 1_555 1_555
C8 N2 1_555 1_555
H8 C8 1_555 1_555
H9 C8 1_555 1_555
C9 C8 1_555 1_555
H10 C9 1_555 1_555
H11 C9 1_555 1_555
C10 C9 1_555 1_555
C11 C10 1_555 1_555
C12 N2 1_555 1_555
H12 C12 1_555 1_555
C13 C11 1_555 1_555
H13 C13 1_555 1_555
C14 C13 1_555 1_555
H14 C14 1_555 1_555
C15 C14 1_555 1_555
H15 C15 1_555 1_555
C16 C10 1_555 1_555
H16 C16 1_555 1_555
C17 C12 1_555 1_555
H17 C17 1_555 1_555
C18 C17 1_555 1_555
C19 N1 1_555 1_555
H18 C19 1_555 1_555
C20 C18 1_555 1_555
C21 C17 1_555 1_555
C22 C21 1_555 1_555
H19 C22 1_555 1_555
C23 C22 1_555 1_555
H20 C23 1_555 1_555
C24 C23 1_555 1_555
C25 C24 1_555 1_555
H21 C25 1_555 1_555
C26 C21 1_555 1_555
H22 C26 1_555 1_555
C27 C24 1_555 1_555
H23 C27 1_555 1_555
C28 C27 1_555 1_555
C29 N4 1_555 1_555
H24 C29 1_555 1_555
C30 N3 1_555 1_555
H25 C30 1_555 1_555
C31 C30 1_555 1_555
C32 C31 1_555 1_555
C33 C32 1_555 1_555
H26 C33 1_555 1_555
H27 C33 1_555 1_555
C34 N3 1_555 1_555
H28 C34 1_555 1_555
H29 C34 1_555 1_555
C35 C32 1_555 1_555
H30 C35 1_555 1_555
C36 C35 1_555 1_555
H31 C36 1_555 1_555
C37 C36 1_555 1_555
H32 C37 1_555 1_555
C38 C31 1_555 1_555
H33 C38 1_555 1_555
C39 C28 1_555 1_555
C40 O6 1_555 1_555
H34 C40 1_555 1_555
H35 C40 1_555 1_555
H36 C40 1_555 1_555
C41 S2 1_555 1_555
C42 C41 1_555 1_555
H37 C42 1_555 1_555
C43 C42 1_555 1_555
H38 C43 1_555 1_555
C44 C43 1_555 1_555
C45 C44 1_555 1_555
H39 C45 1_555 1_555
C46 C41 1_555 1_555
H40 C46 1_555 1_555
C47 C44 1_555 1_555
H41 C47 1_555 1_555
H42 C47 1_555 1_555
H43 C47 1_555 1_555
O7 C20 1_555 1_555
O8 C20 1_555 1_555
C48 O8 1_555 1_555
H44 C48 1_555 1_555
H45 C48 1_555 1_555
H46 C48 1_555 1_555
C4 C5 1_555 1_555
C6 C7 1_555 1_555
C11 C12 1_555 1_555
C15 C16 1_555 1_555
C18 C19 1_555 1_555
C25 C26 1_555 1_555
C27 C30 1_555 1_555
C28 C29 1_555 1_555
C33 C34 1_555 1_555
C37 C38 1_555 1_555
C45 C46 1_555 1_555

#END
