
#######################################################################
#
#                 Cambridge Crystallographic Data Centre
#                                CCDC 
#
#######################################################################
#
# If this CIF has been generated from an entry in the Cambridge 
# Structural Database, then it will include bibliographic, chemical, 
# crystal, experimental, refinement or atomic coordinate data resulting 
# from the CCDC's data processing and validation procedures.
#
#######################################################################

data_TEVBOO
_chemical_formula_moiety         'C48 H46 N4 O8 S2'
_chemical_name_systematic        
"dimethyl 1,1'-(1,4-phenylene)bis(4-((4-methylphenyl)sulfonyl)-1,6,7,11b-tetrahydro-4H-pyridazino[6,1-a]isoquinoline-2-carboxylate)"
_symmetry_cell_setting           triclinic
_symmetry_space_group_name_H-M   'P -1'
_symmetry_Int_Tables_number      2
_space_group_name_Hall           '-P 1'
loop_
_symmetry_equiv_pos_site_id
_symmetry_equiv_pos_as_xyz
1 x,y,z
2 -x,-y,-z
_cell_length_a                   12.833(3)
_cell_length_b                   13.907(3)
_cell_length_c                   14.034(3)
_cell_angle_alpha                72.45(3)
_cell_angle_beta                 68.11(3)
_cell_angle_gamma                74.09(3)
_cell_volume                     2178.54
_exptl_crystal_colour            colorless
_exptl_crystal_description       block
_cell_formula_units_Z            2
loop_
_atom_site_label
_atom_site_type_symbol
_atom_site_fract_x
_atom_site_fract_y
_atom_site_fract_z
S1 S 0.71417(8) 1.82550(6) -0.09072(7)
S2 S 0.96791(7) 0.94342(6) 0.32184(6)
O1 O 0.8248(2) 1.8525(2) -0.14120(19)
O2 O 0.6166(2) 1.89190(18) -0.1147(2)
O3 O 0.9721(2) 1.6867(2) 0.1491(2)
O4 O 0.85084(19) 1.64482(17) 0.31105(19)
O5 O 1.08883(18) 0.93837(17) 0.28699(19)
O6 O 0.9195(2) 0.85510(16) 0.38580(18)
O7 O 0.94578(19) 1.33891(17) 0.4532(2)
O8 O 1.09859(17) 1.24211(16) 0.36136(17)
N1 N 0.6913(2) 1.81046(19) 0.0388(2)
N2 N 0.5825(2) 1.78308(18) 0.1006(2)
N3 N 0.9142(2) 1.03339(18) 0.3918(2)
N4 N 0.7934(2) 1.04685(18) 0.4374(2)
C1 C 0.7220(4) 1.3836(3) -0.0647(4)
H1 H 0.7133 1.3504 0.0078
H2 H 0.7930 1.3526 -0.1086
H3 H 0.6600 1.3761 -0.0829
C2 C 0.7214(3) 1.4961(3) -0.0811(3)
C3 C 0.6248(3) 1.5699(3) -0.0845(3)
H4 H 0.5595 1.5504 -0.0813
C4 C 0.6226(3) 1.6721(3) -0.0927(3)
H5 H 0.5564 1.7205 -0.0935
C5 C 0.7200(3) 1.7011(2) -0.0997(3)
C6 C 0.8199(3) 1.6295(3) -0.1007(3)
H6 H 0.8863 1.6498 -0.1080
C7 C 0.8194(3) 1.5280(3) -0.0907(3)
H7 H 0.8859 1.4797 -0.0904
C8 C 0.7827(3) 1.7687(2) 0.0781(3)
H8 H 0.8536 1.7858 0.0365
C9 C 0.7740(3) 1.7053(2) 0.1728(3)
C10 C 0.6672(2) 1.6609(2) 0.2388(2)
H9 H 0.6234 1.6987 0.2944
C11 C 0.5949(3) 1.6775(2) 0.1660(2)
H10 H 0.6351 1.6313 0.1177
C12 C 0.4768(3) 1.6531(2) 0.2228(2)
C13 C 0.3816(3) 1.7303(2) 0.2482(3)
C14 C 0.3933(3) 1.8419(2) 0.2139(3)
H11 H 0.3526 1.8770 0.1634
H12 H 0.3570 1.8725 0.2747
C15 C 0.5150(3) 1.8595(2) 0.1650(3)
H13 H 0.5169 1.9283 0.1210
H14 H 0.5471 1.8527 0.2197
C16 C 0.2737(3) 1.7044(3) 0.3013(3)
H15 H 0.2106 1.7557 0.3183
C17 C 0.2593(3) 1.6041(3) 0.3289(3)
H16 H 0.1869 1.5880 0.3650
C18 C 0.3521(3) 1.5275(3) 0.3031(3)
H17 H 0.3423 1.4598 0.3208
C19 C 0.4600(3) 1.5519(2) 0.2505(3)
H18 H 0.5224 1.4999 0.2334
C20 C 0.6947(2) 1.5479(2) 0.2898(2)
C21 C 0.6453(2) 1.5113(2) 0.3966(2)
H19 H 0.5918 1.5558 0.4371
C22 C 0.6744(2) 1.4092(2) 0.4442(2)
H20 H 0.6402 1.3863 0.5161
C23 C 0.7539(2) 1.3405(2) 0.3860(2)
C24 C 0.8012(2) 1.3767(2) 0.2782(2)
H21 H 0.8533 1.3318 0.2375
C25 C 0.7717(3) 1.4790(2) 0.2304(2)
H22 H 0.8038 1.5016 0.1581
C26 C 0.8766(3) 1.6789(2) 0.2077(3)
C27 C 0.9460(3) 1.6080(3) 0.3525(3)
H23 H 1.0047 1.5638 0.3110
H24 H 0.9205 1.5707 0.4242
H25 H 0.9759 1.6653 0.3499
C28 C 0.7896(2) 1.2295(2) 0.4391(2)
H26 H 0.7599 1.2223 0.5156
C29 C 0.9183(2) 1.1991(2) 0.4063(2)
C30 C 0.9722(3) 1.1097(2) 0.3787(2)
H27 H 1.0514 1.0983 0.3497
C31 C 0.7403(2) 1.1554(2) 0.4093(2)
H28 H 0.7565 1.1743 0.3327
C32 C 0.6120(3) 1.1648(2) 0.4595(3)
C33 C 0.5639(3) 1.0916(2) 0.5476(2)
C34 C 0.6372(3) 0.9971(2) 0.5922(3)
H29 H 0.6289 0.9382 0.5740
H30 H 0.6103 0.9858 0.6684
C35 C 0.7629(3) 1.0050(2) 0.5518(2)
H31 H 0.7759 1.0498 0.5858
H32 H 0.8092 0.9378 0.5670
C36 C 0.5393(3) 1.2484(2) 0.4186(3)
H33 H 0.5702 1.2970 0.3595
C37 C 0.4227(3) 1.2597(3) 0.4643(3)
H34 H 0.3759 1.3167 0.4368
C38 C 0.3744(3) 1.1876(3) 0.5506(3)
H35 H 0.2955 1.1953 0.5811
C39 C 0.4453(3) 1.1039(2) 0.5908(3)
H36 H 0.4131 1.0545 0.6481
C40 C 0.9148(3) 0.9928(2) 0.2150(2)
C41 C 0.8295(3) 0.9522(3) 0.2116(3)
H37 H 0.8021 0.8975 0.2645
C42 C 0.7857(3) 0.9937(3) 0.1292(3)
H38 H 0.7273 0.9673 0.1277
C43 C 0.8266(3) 1.0738(3) 0.0484(3)
C44 C 0.9114(3) 1.1134(3) 0.0532(3)
H39 H 0.9392 1.1677 -0.0001
C45 C 0.9558(3) 1.0738(3) 0.1357(3)
H40 H 1.0129 1.1014 0.1381
C46 C 0.7785(4) 1.1152(3) -0.0422(3)
H41 H 0.7791 1.0594 -0.0695
H42 H 0.8242 1.1616 -0.0968
H43 H 0.7014 1.1510 -0.0180
C47 C 0.9856(3) 1.2678(2) 0.4102(2)
C48 C 1.1703(3) 1.2994(3) 0.3719(3)
H44 H 1.2487 1.2759 0.3347
H45 H 1.1612 1.2895 0.4451
H46 H 1.1488 1.3710 0.3429
loop_
_geom_bond_atom_site_label_1
_geom_bond_atom_site_label_2
_geom_bond_site_symmetry_1
_geom_bond_site_symmetry_2
S1 O1 1_555 1_555
S2 O5 1_555 1_555
O2 S1 1_555 1_555
O3 C26 1_555 1_555
O4 C26 1_555 1_555
O6 S2 1_555 1_555
O7 C47 1_555 1_555
O8 C47 1_555 1_555
N1 S1 1_555 1_555
N2 N1 1_555 1_555
N3 S2 1_555 1_555
N4 N3 1_555 1_555
C1 H1 1_555 1_555
H2 C1 1_555 1_555
H3 C1 1_555 1_555
C2 C1 1_555 1_555
C3 C2 1_555 1_555
H4 C3 1_555 1_555
C4 C3 1_555 1_555
H5 C4 1_555 1_555
C5 S1 1_555 1_555
C6 C5 1_555 1_555
H6 C6 1_555 1_555
C7 C2 1_555 1_555
H7 C7 1_555 1_555
C8 N1 1_555 1_555
H8 C8 1_555 1_555
C9 C8 1_555 1_555
C10 C9 1_555 1_555
H9 C10 1_555 1_555
C11 N2 1_555 1_555
H10 C11 1_555 1_555
C12 C11 1_555 1_555
C13 C12 1_555 1_555
C14 C13 1_555 1_555
H11 C14 1_555 1_555
H12 C14 1_555 1_555
C15 N2 1_555 1_555
H13 C15 1_555 1_555
H14 C15 1_555 1_555
C16 C13 1_555 1_555
H15 C16 1_555 1_555
C17 C16 1_555 1_555
H16 C17 1_555 1_555
C18 C17 1_555 1_555
H17 C18 1_555 1_555
C19 C12 1_555 1_555
H18 C19 1_555 1_555
C20 C10 1_555 1_555
C21 C20 1_555 1_555
H19 C21 1_555 1_555
C22 C21 1_555 1_555
H20 C22 1_555 1_555
C23 C22 1_555 1_555
C24 C23 1_555 1_555
H21 C24 1_555 1_555
C25 C20 1_555 1_555
H22 C25 1_555 1_555
C26 C9 1_555 1_555
C27 O4 1_555 1_555
H23 C27 1_555 1_555
H24 C27 1_555 1_555
H25 C27 1_555 1_555
C28 C23 1_555 1_555
H26 C28 1_555 1_555
C29 C28 1_555 1_555
C30 N3 1_555 1_555
H27 C30 1_555 1_555
C31 N4 1_555 1_555
H28 C31 1_555 1_555
C32 C31 1_555 1_555
C33 C32 1_555 1_555
C34 C33 1_555 1_555
H29 C34 1_555 1_555
H30 C34 1_555 1_555
C35 N4 1_555 1_555
H31 C35 1_555 1_555
H32 C35 1_555 1_555
C36 C32 1_555 1_555
H33 C36 1_555 1_555
C37 C36 1_555 1_555
H34 C37 1_555 1_555
C38 C37 1_555 1_555
H35 C38 1_555 1_555
C39 C33 1_555 1_555
H36 C39 1_555 1_555
C40 S2 1_555 1_555
C41 C40 1_555 1_555
H37 C41 1_555 1_555
C42 C41 1_555 1_555
H38 C42 1_555 1_555
C43 C42 1_555 1_555
C44 C43 1_555 1_555
H39 C44 1_555 1_555
C45 C40 1_555 1_555
H40 C45 1_555 1_555
C46 C43 1_555 1_555
H41 C46 1_555 1_555
H42 C46 1_555 1_555
H43 C46 1_555 1_555
C47 C29 1_555 1_555
C48 O8 1_555 1_555
H44 C48 1_555 1_555
H45 C48 1_555 1_555
H46 C48 1_555 1_555
C4 C5 1_555 1_555
C6 C7 1_555 1_555
C10 C11 1_555 1_555
C14 C15 1_555 1_555
C18 C19 1_555 1_555
C24 C25 1_555 1_555
C28 C31 1_555 1_555
C29 C30 1_555 1_555
C34 C35 1_555 1_555
C38 C39 1_555 1_555
C44 C45 1_555 1_555

#END
