
#######################################################################
#
#                 Cambridge Crystallographic Data Centre
#                                CCDC 
#
#######################################################################
#
# If this CIF has been generated from an entry in the Cambridge 
# Structural Database, then it will include bibliographic, chemical, 
# crystal, experimental, refinement or atomic coordinate data resulting 
# from the CCDC's data processing and validation procedures.
#
#######################################################################

data_TEVBAZ
_chemical_formula_moiety         'C18 H11 B1 F2 N2 O2'
_chemical_name_systematic        
13,13-Difluoro-6bH,13H-7,12-dioxa-6a,13a-diaza-13-boradicyclopenta[a,h]naphtho[3,2,1-cd]azulene
_symmetry_cell_setting           monoclinic
_symmetry_space_group_name_H-M   'P 21'
_symmetry_Int_Tables_number      4
_space_group_name_Hall           'P 2yb'
loop_
_symmetry_equiv_pos_site_id
_symmetry_equiv_pos_as_xyz
1 x,y,z
2 -x,1/2+y,-z
_cell_length_a                   7.5389(5)
_cell_length_b                   9.8159(5)
_cell_length_c                   9.8152(6)
_cell_angle_alpha                90
_cell_angle_beta                 95.303(5)
_cell_angle_gamma                90
_cell_volume                     723.227
_exptl_crystal_colour            orange
_exptl_crystal_description       plate
_cell_formula_units_Z            2
loop_
_atom_site_label
_atom_site_type_symbol
_atom_site_fract_x
_atom_site_fract_y
_atom_site_fract_z
B1 B 0.2535(4) 0.1802(3) 0.7710(3)
F1 F 0.41469(17) 0.23444(13) 0.73890(13)
F2 F 0.22537(19) 0.05276(12) 0.71642(13)
N1 N 0.1029(2) 0.27624(17) 0.71330(18)
N2 N 0.2395(3) 0.62636(16) 1.0359(2)
O1 O 0.2579(2) 0.16578(14) 0.92165(15)
O2 O 0.2736(2) 0.46343(14) 1.21586(15)
C1 C 0.2941(3) 0.2694(2) 1.0061(2)
C2 C 0.3550(3) 0.2354(2) 1.1467(2)
C3 C 0.4189(3) 0.1065(2) 1.1864(2)
H1 H 0.4276 0.0379 1.1191
C4 C 0.4692(3) 0.0774(2) 1.3213(2)
H2 H 0.5176 -0.0093 1.3464
C5 C 0.4491(3) 0.1751(2) 1.4203(2)
H3 H 0.4815 0.1540 1.5138
C6 C 0.3824(3) 0.3032(2) 1.3855(2)
H4 H 0.3660 0.3688 1.4545
C7 C 0.3402(3) 0.3342(2) 1.2493(2)
C8 C 0.3285(3) 0.50444(19) 1.0864(2)
H5 H 0.4606 0.5168 1.0924
C9 C 0.2689(3) 0.4038(2) 0.9747(2)
C10 C -0.0125(3) 0.2508(2) 0.6034(2)
H6 H -0.0272 0.1648 0.5593
C11 C -0.1077(4) 0.3684(2) 0.5632(3)
H7 H -0.1968 0.3768 0.4886
C12 C -0.0474(3) 0.4695(2) 0.6524(2)
H8 H -0.0871 0.5614 0.6504
C13 C 0.0830(3) 0.4132(2) 0.7470(2)
C14 C 0.1688(3) 0.4712(2) 0.8650(2)
C15 C 0.1586(3) 0.6117(2) 0.9038(2)
C16 C 0.1092(3) 0.7400(2) 0.8569(2)
H9 H 0.0514 0.7619 0.7695
C17 C 0.1606(3) 0.8319(2) 0.9629(3)
H10 H 0.1420 0.9276 0.9599
C18 C 0.2426(3) 0.7602(2) 1.0721(3)
H11 H 0.2918 0.7973 1.1566
loop_
_geom_bond_atom_site_label_1
_geom_bond_atom_site_label_2
_geom_bond_site_symmetry_1
_geom_bond_site_symmetry_2
B1 F1 1_555 1_555
F2 B1 1_555 1_555
N1 B1 1_555 1_555
N2 C8 1_555 1_555
O1 B1 1_555 1_555
O2 C7 1_555 1_555
C1 O1 1_555 1_555
C2 C1 1_555 1_555
C3 C2 1_555 1_555
H1 C3 1_555 1_555
C4 C3 1_555 1_555
H2 C4 1_555 1_555
C5 C4 1_555 1_555
H3 C5 1_555 1_555
C6 C5 1_555 1_555
H4 C6 1_555 1_555
C7 C2 1_555 1_555
C8 O2 1_555 1_555
H5 C8 1_555 1_555
C9 C1 1_555 1_555
C10 N1 1_555 1_555
H6 C10 1_555 1_555
C11 C10 1_555 1_555
H7 C11 1_555 1_555
C12 C11 1_555 1_555
H8 C12 1_555 1_555
C13 N1 1_555 1_555
C14 C9 1_555 1_555
C15 N2 1_555 1_555
C16 C15 1_555 1_555
H9 C16 1_555 1_555
C17 C16 1_555 1_555
H10 C17 1_555 1_555
C18 N2 1_555 1_555
H11 C18 1_555 1_555
C6 C7 1_555 1_555
C8 C9 1_555 1_555
C12 C13 1_555 1_555
C13 C14 1_555 1_555
C14 C15 1_555 1_555
C17 C18 1_555 1_555

#END
