
#######################################################################
#
#                 Cambridge Crystallographic Data Centre
#                                CCDC 
#
#######################################################################
#
# If this CIF has been generated from an entry in the Cambridge 
# Structural Database, then it will include bibliographic, chemical, 
# crystal, experimental, refinement or atomic coordinate data resulting 
# from the CCDC's data processing and validation procedures.
#
#######################################################################

data_TEVBII
_chemical_formula_moiety         'C29 H30 N2 O4 S1'
_chemical_name_systematic        
'ethyl 1-(4-methylphenyl)-4-((4-methylphenyl)sulfonyl)-1,6,7,11b-tetrahydro-4H-pyridazino[6,1-a]isoquinoline-2-carboxylate'
_symmetry_cell_setting           triclinic
_symmetry_space_group_name_H-M   'P -1'
_symmetry_Int_Tables_number      2
_space_group_name_Hall           '-P 1'
loop_
_symmetry_equiv_pos_site_id
_symmetry_equiv_pos_as_xyz
1 x,y,z
2 -x,-y,-z
_cell_length_a                   11.3577(5)
_cell_length_b                   11.9713(3)
_cell_length_c                   18.9388(10)
_cell_angle_alpha                83.189(5)
_cell_angle_beta                 89.642(5)
_cell_angle_gamma                87.090(5)
_cell_volume                     2553.57
_exptl_crystal_colour            colorless
_exptl_crystal_description       block
_cell_formula_units_Z            4
_exptl_crystal_recrystallization_method hexane/dichloromethane
loop_
_atom_site_label
_atom_site_type_symbol
_atom_site_fract_x
_atom_site_fract_y
_atom_site_fract_z
S1 S 0.21729(4) 0.78983(4) -0.10964(2)
O1 O 0.22583(11) 0.70392(11) -0.15626(6)
O2 O 0.14557(11) 0.89007(11) -0.12855(7)
O3 O 0.17419(12) 0.37043(11) 0.01624(7)
O4 O 0.12552(11) 0.40612(10) 0.12680(6)
N1 N 0.14950(12) 0.79399(11) 0.02140(7)
N2 N 0.16544(12) 0.72514(12) -0.03455(7)
C1 C 0.02324(14) 0.80273(14) 0.03969(9)
H1 H -0.0023 0.7291 0.0623
H2 H -0.0242 0.8247 -0.0039
C2 C 0.00492(15) 0.89081(15) 0.09054(9)
H3 H 0.0069 0.9665 0.0633
H4 H -0.0742 0.8838 0.1124
C3 C 0.09601(15) 0.88101(13) 0.14886(9)
C4 C 0.07704(18) 0.93931(15) 0.20784(10)
H5 H 0.0036 0.9793 0.2128
C5 C 0.1629(2) 0.94000(16) 0.25911(10)
H6 H 0.1480 0.9789 0.2994
C6 C 0.2713(2) 0.88340(16) 0.25127(10)
H7 H 0.3321 0.8863 0.2851
C7 C 0.29030(17) 0.82298(15) 0.19408(10)
H8 H 0.3637 0.7828 0.1895
C8 C 0.20282(15) 0.82029(14) 0.14289(9)
C9 C 0.22328(14) 0.74816(13) 0.08322(8)
H9 H 0.3078 0.7524 0.0685
C10 C 0.20042(13) 0.62224(13) 0.11004(8)
H10 H 0.1293 0.6201 0.1415
C11 C 0.17733(13) 0.55836(14) 0.04772(8)
C12 C 0.17025(14) 0.60813(14) -0.01919(9)
H11 H 0.1685 0.5629 -0.0571
C13 C 0.16029(14) 0.43565(14) 0.06004(9)
C14 C 0.11408(18) 0.28697(15) 0.14947(10)
H12 H 0.1920 0.2460 0.1492
H13 H 0.0607 0.2544 0.1171
C15 C 0.06442(19) 0.27773(17) 0.22334(10)
H14 H -0.0121 0.3195 0.2229
H15 H 0.1186 0.3094 0.2548
H16 H 0.0543 0.1983 0.2405
C16 C 0.30581(14) 0.56784(13) 0.15298(8)
C17 C 0.41667(15) 0.55832(15) 0.12180(9)
H17 H 0.4259 0.5829 0.0726
C18 C 0.51369(15) 0.51359(15) 0.16133(10)
H18 H 0.5886 0.5093 0.1390
C19 C 0.50350(15) 0.47483(15) 0.23331(9)
C20 C 0.39214(15) 0.48117(14) 0.26367(9)
H19 H 0.3823 0.4532 0.3123
C21 C 0.29485(14) 0.52747(14) 0.22454(9)
H20 H 0.2199 0.5316 0.2469
C22 C 0.61078(17) 0.43024(18) 0.27631(11)
H21 H 0.6601 0.3817 0.2487
H22 H 0.5859 0.3867 0.3205
H23 H 0.6560 0.4934 0.2876
C23 C 0.35948(15) 0.82832(15) -0.08936(9)
C24 C 0.38691(17) 0.94055(16) -0.09794(10)
H24 H 0.3283 0.9980 -0.1125
C25 C 0.50127(18) 0.96761(16) -0.08500(11)
H25 H 0.5207 1.0444 -0.0913
C26 C 0.58834(16) 0.88509(16) -0.06299(11)
C27 C 0.55821(16) 0.77295(16) -0.05478(11)
H26 H 0.6165 0.7155 -0.0396
C28 C 0.44496(15) 0.74381(15) -0.06829(10)
H27 H 0.4258 0.6670 -0.0632
C29 C 0.71187(18) 0.91643(19) -0.04932(14)
H28 H 0.7535 0.9314 -0.0947
H29 H 0.7533 0.8543 -0.0196
H30 H 0.7093 0.9841 -0.0248
S2 S 0.80614(4) 0.62054(4) 0.53965(2)
O5 O 0.80968(11) 0.65242(12) 0.61006(7)
O6 O 0.86410(11) 0.51848(11) 0.52323(7)
O7 O 0.82389(15) 1.05872(13) 0.54139(7)
O8 O 0.85565(11) 1.11787(11) 0.42605(7)
N3 N 0.86282(11) 0.70915(12) 0.41442(7)
N4 N 0.86568(12) 0.72681(12) 0.48732(7)
C30 C 0.98265(14) 0.71125(15) 0.38405(9)
H31 H 1.0390 0.6664 0.4171
H32 H 1.0082 0.7896 0.3760
C31 C 0.97897(15) 0.66152(17) 0.31408(10)
H33 H 1.0497 0.6832 0.2859
H34 H 0.9824 0.5783 0.3240
C32 C 0.87030(15) 0.69922(15) 0.27029(9)
C33 C 0.86159(17) 0.66959(17) 0.20151(10)
H35 H 0.9251 0.6276 0.1827
C34 C 0.76265(19) 0.69992(18) 0.16001(10)
H36 H 0.7591 0.6801 0.1130
C35 C 0.66905(18) 0.75924(17) 0.18737(10)
H37 H 0.6007 0.7802 0.1593
C36 C 0.67505(16) 0.78812(15) 0.25610(10)
H38 H 0.6100 0.8280 0.2750
C37 C 0.77560(15) 0.75933(14) 0.29795(9)
C38 C 0.77813(13) 0.78883(14) 0.37352(8)
H39 H 0.6984 0.7742 0.3943
C39 C 0.80029(14) 0.91486(14) 0.37956(9)
H40 H 0.8671 0.9394 0.3478
C40 C 0.83129(14) 0.92611(15) 0.45594(9)
C41 C 0.85130(14) 0.83683(15) 0.50493(9)
H41 H 0.8559 0.8488 0.5535
C42 C 0.83575(15) 1.03920(16) 0.48047(10)
C43 C 0.85204(16) 1.23384(16) 0.44212(11)
H42 H 0.9073 1.2414 0.4813
H43 H 0.7716 1.2568 0.4571
C44 C 0.8865(2) 1.30651(19) 0.37646(13)
H44 H 0.8326 1.2969 0.3377
H45 H 0.9672 1.2848 0.3631
H46 H 0.8824 1.3855 0.3855
C45 C 0.68911(14) 0.98679(14) 0.35730(9)
C46 C 0.58638(15) 0.97447(15) 0.39731(9)
H47 H 0.5880 0.9254 0.4406
C47 C 0.48148(15) 1.03247(15) 0.37518(10)
H48 H 0.4121 1.0213 0.4029
C48 C 0.47706(16) 1.10691(15) 0.31261(10)
C49 C 0.58038(17) 1.12206(16) 0.27460(10)
H49 H 0.5799 1.1742 0.2326
C50 C 0.68478(16) 1.06305(15) 0.29620(9)
H50 H 0.7542 1.0751 0.2687
C51 C 0.36286(18) 1.16708(18) 0.28610(12)
H51 H 0.3322 1.1303 0.2470
H52 H 0.3770 1.2458 0.2692
H53 H 0.3052 1.1641 0.3249
C52 C 0.66010(14) 0.62764(14) 0.50930(9)
C53 C 0.63256(15) 0.57086(14) 0.45238(9)
H54 H 0.6876 0.5174 0.4358
C54 C 0.52374(15) 0.59324(15) 0.42013(9)
H55 H 0.5043 0.5546 0.3811
C55 C 0.44195(14) 0.67134(14) 0.44371(9)
C56 C 0.47158(14) 0.72622(14) 0.50161(9)
H56 H 0.4164 0.7791 0.5186
C57 C 0.58035(14) 0.70473(15) 0.53469(9)
H57 H 0.5999 0.7423 0.5742
C58 C 0.32428(16) 0.69404(17) 0.40705(10)
H58 H 0.3333 0.6849 0.3565
H59 H 0.2950 0.7712 0.4119
H60 H 0.2681 0.6408 0.4289
loop_
_geom_bond_atom_site_label_1
_geom_bond_atom_site_label_2
_geom_bond_site_symmetry_1
_geom_bond_site_symmetry_2
S1 O1 1_555 1_555
O2 S1 1_555 1_555
O3 C13 1_555 1_555
O4 C13 1_555 1_555
N1 N2 1_555 1_555
N2 S1 1_555 1_555
C1 N1 1_555 1_555
H1 C1 1_555 1_555
H2 C1 1_555 1_555
C2 C1 1_555 1_555
H3 C2 1_555 1_555
H4 C2 1_555 1_555
C3 C2 1_555 1_555
C4 C3 1_555 1_555
H5 C4 1_555 1_555
C5 C4 1_555 1_555
H6 C5 1_555 1_555
C6 C5 1_555 1_555
H7 C6 1_555 1_555
C7 C6 1_555 1_555
H8 C7 1_555 1_555
C8 C3 1_555 1_555
C9 N1 1_555 1_555
H9 C9 1_555 1_555
C10 C9 1_555 1_555
H10 C10 1_555 1_555
C11 C10 1_555 1_555
C12 N2 1_555 1_555
H11 C12 1_555 1_555
C13 C11 1_555 1_555
C14 O4 1_555 1_555
H12 C14 1_555 1_555
H13 C14 1_555 1_555
C15 C14 1_555 1_555
H14 C15 1_555 1_555
H15 C15 1_555 1_555
H16 C15 1_555 1_555
C16 C10 1_555 1_555
C17 C16 1_555 1_555
H17 C17 1_555 1_555
C18 C17 1_555 1_555
H18 C18 1_555 1_555
C19 C18 1_555 1_555
C20 C19 1_555 1_555
H19 C20 1_555 1_555
C21 C16 1_555 1_555
H20 C21 1_555 1_555
C22 C19 1_555 1_555
H21 C22 1_555 1_555
H22 C22 1_555 1_555
H23 C22 1_555 1_555
C23 S1 1_555 1_555
C24 C23 1_555 1_555
H24 C24 1_555 1_555
C25 C24 1_555 1_555
H25 C25 1_555 1_555
C26 C25 1_555 1_555
C27 C26 1_555 1_555
H26 C27 1_555 1_555
C28 C23 1_555 1_555
H27 C28 1_555 1_555
C29 C26 1_555 1_555
H28 C29 1_555 1_555
H29 C29 1_555 1_555
H30 C29 1_555 1_555
S2 O5 1_555 1_555
O6 S2 1_555 1_555
O7 C42 1_555 1_555
O8 C42 1_555 1_555
N3 N4 1_555 1_555
N4 S2 1_555 1_555
C30 N3 1_555 1_555
H31 C30 1_555 1_555
H32 C30 1_555 1_555
C31 C30 1_555 1_555
H33 C31 1_555 1_555
H34 C31 1_555 1_555
C32 C31 1_555 1_555
C33 C32 1_555 1_555
H35 C33 1_555 1_555
C34 C33 1_555 1_555
H36 C34 1_555 1_555
C35 C34 1_555 1_555
H37 C35 1_555 1_555
C36 C35 1_555 1_555
H38 C36 1_555 1_555
C37 C32 1_555 1_555
C38 N3 1_555 1_555
H39 C38 1_555 1_555
C39 C38 1_555 1_555
H40 C39 1_555 1_555
C40 C39 1_555 1_555
C41 N4 1_555 1_555
H41 C41 1_555 1_555
C42 C40 1_555 1_555
C43 O8 1_555 1_555
H42 C43 1_555 1_555
H43 C43 1_555 1_555
C44 C43 1_555 1_555
H44 C44 1_555 1_555
H45 C44 1_555 1_555
H46 C44 1_555 1_555
C45 C39 1_555 1_555
C46 C45 1_555 1_555
H47 C46 1_555 1_555
C47 C46 1_555 1_555
H48 C47 1_555 1_555
C48 C47 1_555 1_555
C49 C48 1_555 1_555
H49 C49 1_555 1_555
C50 C45 1_555 1_555
H50 C50 1_555 1_555
C51 C48 1_555 1_555
H51 C51 1_555 1_555
H52 C51 1_555 1_555
H53 C51 1_555 1_555
C52 S2 1_555 1_555
C53 C52 1_555 1_555
H54 C53 1_555 1_555
C54 C53 1_555 1_555
H55 C54 1_555 1_555
C55 C54 1_555 1_555
C56 C55 1_555 1_555
H56 C56 1_555 1_555
C57 C52 1_555 1_555
H57 C57 1_555 1_555
C58 C55 1_555 1_555
H58 C58 1_555 1_555
H59 C58 1_555 1_555
H60 C58 1_555 1_555
C7 C8 1_555 1_555
C8 C9 1_555 1_555
C11 C12 1_555 1_555
C20 C21 1_555 1_555
C27 C28 1_555 1_555
C36 C37 1_555 1_555
C37 C38 1_555 1_555
C40 C41 1_555 1_555
C49 C50 1_555 1_555
C56 C57 1_555 1_555

#END
