
#######################################################################
#
#                 Cambridge Crystallographic Data Centre
#                                CCDC 
#
#######################################################################
#
# If this CIF has been generated from an entry in the Cambridge 
# Structural Database, then it will include bibliographic, chemical, 
# crystal, experimental, refinement or atomic coordinate data resulting 
# from the CCDC's data processing and validation procedures.
#
#######################################################################

data_TEVBED
_chemical_formula_moiety         'C19 H13 B1 F2 N2 O2'
_chemical_name_systematic        
13,13-Difluoro-10-methyl-6bH,13H-7,12-dioxa-6a,13a-diaza-13-boradicyclopenta[a,h]naphtho[3,2,1-cd]azulene
_symmetry_cell_setting           monoclinic
_symmetry_space_group_name_H-M   'C c'
_symmetry_Int_Tables_number      9
_space_group_name_Hall           'C -2yc'
loop_
_symmetry_equiv_pos_site_id
_symmetry_equiv_pos_as_xyz
1 x,y,z
2 x,-y,1/2+z
3 1/2+x,1/2+y,z
4 1/2+x,1/2-y,1/2+z
_cell_length_a                   12.4354(7)
_cell_length_b                   16.4185(9)
_cell_length_c                   7.8451(5)
_cell_angle_alpha                90
_cell_angle_beta                 99.368(5)
_cell_angle_gamma                90
_cell_volume                     1580.38
_exptl_crystal_colour            orange
_exptl_crystal_description       block
_cell_formula_units_Z            4
loop_
_atom_site_label
_atom_site_type_symbol
_atom_site_fract_x
_atom_site_fract_y
_atom_site_fract_z
B1 B 0.7235(2) 0.25884(16) 0.6310(4)
F1 F 0.78163(11) 0.24356(8) 0.79310(19)
F2 F 0.63009(10) 0.21221(8) 0.5979(2)
N1 N 0.79469(14) 0.23859(11) 0.4911(3)
N2 N 1.02315(14) 0.46891(11) 0.6034(2)
O1 O 0.68755(11) 0.34532(9) 0.6216(2)
O2 O 0.86790(11) 0.55218(9) 0.5957(2)
C1 C 0.75480(17) 0.40703(14) 0.6461(3)
C2 C 0.70953(17) 0.48643(14) 0.6774(3)
C3 C 0.60650(17) 0.49496(16) 0.7261(3)
H1 H 0.5679 0.4477 0.7515
C4 C 0.55981(17) 0.57101(15) 0.7381(3)
C5 C 0.4514(2) 0.58014(19) 0.8001(4)
H2 H 0.3950 0.5946 0.7024
H3 H 0.4568 0.6232 0.8877
H4 H 0.4321 0.5286 0.8505
C6 C 0.61689(18) 0.63896(15) 0.6945(3)
H5 H 0.5846 0.6912 0.6981
C7 C 0.71879(18) 0.63312(15) 0.6461(3)
H6 H 0.7556 0.6805 0.6165
C8 C 0.76590(17) 0.55710(14) 0.6418(3)
C9 C 0.92599(17) 0.48354(14) 0.6757(3)
H7 H 0.9436 0.4910 0.8037
C10 C 0.86368(17) 0.40523(14) 0.6309(3)
C11 C 0.78106(18) 0.17460(14) 0.3835(3)
H8 H 0.7207 0.1384 0.3714
C12 C 0.86775(18) 0.16855(15) 0.2919(3)
H9 H 0.8766 0.1288 0.2072
C13 C 0.93804(17) 0.23126(14) 0.3477(3)
H10 H 1.0052 0.2423 0.3095
C14 C 0.89288(16) 0.27599(14) 0.4711(3)
C15 C 0.92555(16) 0.35056(13) 0.5473(3)
C16 C 1.02758(17) 0.39127(13) 0.5364(3)
C17 C 1.12690(16) 0.38289(15) 0.4825(3)
H11 H 1.1535 0.3359 0.4324
C18 C 1.18121(17) 0.45780(15) 0.5166(3)
H12 H 1.2514 0.4703 0.4908
C19 C 1.11701(17) 0.50984(15) 0.5926(3)
H13 H 1.1346 0.5639 0.6305
loop_
_geom_bond_atom_site_label_1
_geom_bond_atom_site_label_2
_geom_bond_site_symmetry_1
_geom_bond_site_symmetry_2
B1 F1 1_555 1_555
F2 B1 1_555 1_555
N1 B1 1_555 1_555
N2 C9 1_555 1_555
O1 B1 1_555 1_555
O2 C8 1_555 1_555
C1 O1 1_555 1_555
C2 C1 1_555 1_555
C3 C2 1_555 1_555
H1 C3 1_555 1_555
C4 C3 1_555 1_555
C5 C4 1_555 1_555
H2 C5 1_555 1_555
H3 C5 1_555 1_555
H4 C5 1_555 1_555
C6 C4 1_555 1_555
H5 C6 1_555 1_555
C7 C6 1_555 1_555
H6 C7 1_555 1_555
C8 C2 1_555 1_555
C9 O2 1_555 1_555
H7 C9 1_555 1_555
C10 C1 1_555 1_555
C11 N1 1_555 1_555
H8 C11 1_555 1_555
C12 C11 1_555 1_555
H9 C12 1_555 1_555
C13 C12 1_555 1_555
H10 C13 1_555 1_555
C14 N1 1_555 1_555
C15 C10 1_555 1_555
C16 N2 1_555 1_555
C17 C16 1_555 1_555
H11 C17 1_555 1_555
C18 C17 1_555 1_555
H12 C18 1_555 1_555
C19 N2 1_555 1_555
H13 C19 1_555 1_555
C7 C8 1_555 1_555
C9 C10 1_555 1_555
C13 C14 1_555 1_555
C14 C15 1_555 1_555
C15 C16 1_555 1_555
C18 C19 1_555 1_555

#END
