
#######################################################################
#
#                 Cambridge Crystallographic Data Centre
#                                CCDC 
#
#######################################################################
#
# If this CIF has been generated from an entry in the Cambridge 
# Structural Database, then it will include bibliographic, chemical, 
# crystal, experimental, refinement or atomic coordinate data resulting 
# from the CCDC's data processing and validation procedures.
#
#######################################################################

data_TEVCOM
_chemical_formula_moiety         'C49 H50 O9 Si1'
_chemical_name_systematic        
(+-)-4,5,6-Tri-O-benzoyl-1-(O-t-butyldiphenylsilyl)-2,3-O-cyclohexylidene-myo-inositol
_symmetry_cell_setting           monoclinic
_symmetry_space_group_name_H-M   'P n'
_symmetry_Int_Tables_number      7
_space_group_name_Hall           'P -2yac'
loop_
_symmetry_equiv_pos_site_id
_symmetry_equiv_pos_as_xyz
1 x,y,z
2 1/2+x,-y,1/2+z
_cell_length_a                   14.358(4)
_cell_length_b                   11.448(5)
_cell_length_c                   14.603(6)
_cell_angle_alpha                90
_cell_angle_beta                 111.60(3)
_cell_angle_gamma                90
_cell_volume                     2231.74
_exptl_crystal_colour            colorless
_chemical_melting_point          173-175deg.C
_cell_formula_units_Z            2
loop_
_atom_site_label
_atom_site_type_symbol
_atom_site_fract_x
_atom_site_fract_y
_atom_site_fract_z
C1 C -0.0620(5) 0.2967(8) 0.9640(6)
H1 H -0.0916(44) 0.2618(59) 0.8999(48)
C2 C 0.0373(5) 0.3610(7) 0.9868(6)
H2 H 0.0375(46) 0.4011(65) 0.9282(51)
C3 C 0.1309(5) 0.2848(7) 1.0198(6)
H3 H 0.1339(63) 0.2406(83) 0.9539(68)
C4 C 0.1291(6) 0.1954(7) 1.0955(6)
H4 H 0.1323(55) 0.2446(71) 1.1657(59)
C5 C 0.0333(6) 0.1231(7) 1.0556(6)
H5 H 0.0255(38) 0.0867(54) 0.9919(43)
C6 C -0.0551(6) 0.2032(7) 1.0412(6)
H6 H -0.0494(33) 0.2411(46) 1.1014(37)
O1 O -0.1274(3) 0.3887(5) 0.9695(4)
O2 O 0.0357(4) 0.4393(5) 1.0615(4)
O3 O 0.2187(3) 0.3541(5) 1.0594(3)
O4 O 0.2103(3) 0.1157(5) 1.1104(3)
O5 O 0.0361(4) 0.0356(5) 1.1268(4)
O6 O -0.1455(4) 0.1336(5) 1.0039(4)
Si1 Si 0.29843(14) 0.3892(2) 1.0057(2)
C7 C 0.2765(6) 0.0997(9) 1.2005(6)
O7 O 0.2795(5) 0.1536(7) 1.2715(5)
C8 C 0.3504(5) 0.0051(9) 1.2030(6)
C9 C 0.3279(6) -0.0780(8) 1.1332(7)
H7 H 0.2664(6) -0.0754(8) 1.0810(7)
C10 C 0.3946(7) -0.1678(9) 1.1374(8)
H8 H 0.3776(7) -0.2267(9) 1.0902(8)
C11 C 0.4867(8) -0.1668(11) 1.2138(10)
H9 H 0.5323(8) -0.2259(11) 1.2171(10)
C12 C 0.5132(7) -0.0821(11) 1.2846(9)
H10 H 0.5766(7) -0.0819(11) 1.3340(9)
C13 C 0.4423(6) 0.0057(10) 1.2815(7)
H11 H 0.4568(6) 0.0622(10) 1.3305(7)
C14 C 0.0562(5) -0.0744(8) 1.1058(7)
O8 O 0.0633(4) -0.1022(5) 1.0294(4)
C15 C 0.0710(5) -0.1569(8) 1.188(86)
C16 C 0.0224(6) -0.1406(7) 1.2553(6)
H12 H -0.0197(6) -0.0768(7) 1.2484(6)
C17 C 0.0366(8) -0.2178(10) 1.3299(8)
H13 H 0.001(8) -0.2082(10) 1.3731(8)
C18 C 0.1006(9) -0.3099(11) 1.3409(8)
H14 H 0.1113(9) -0.3623(11) 1.3924(8)
C19 C 0.1492(8) -0.3256(10) 1.2766(10)
H15 H 0.1934(8) -0.3876(10) 1.2848(10)
C20 C 0.1318(6) -0.2487(8) 1.2002(8)
H16 H 0.1630(6) -0.2606(8) 1.1553(8)
C21 C -0.1995(6) 0.1279(9) 1.0613(7)
O9 O -0.1822(5) 0.1779(8) 1.1354(6)
C22 C -0.2850(6) 0.0477(10) 1.0179(7)
C23 C -0.3612(7) 0.0464(11) 1.0579(8)
H17 H -0.3578(7) 0.0974(11) 1.1086(8)
C24 C -0.4384(8) -0.0282(16) 1.0226(11)
H18 H -0.4872(8) -0.0289(16) 1.0503(11)
C25 C -0.4472(8) -0.1036(13) 0.9468(13)
H19 H -0.5023(8) -0.1530(13) 0.9231(13)
C26 C -0.3752(8) -0.1067(10) 0.9056(10)
H20 H -0.3806(8) -0.1579(10) 0.8544(10)
C27 C -0.2926(6) -0.0299(9) 0.9432(8)
H21 H -0.2425(6) -0.0317(9) 0.9171(8)
C28 C -0.0652(6) 0.4796(7) 1.0328(6)
C29 C -0.0916(6) 0.4934(9) 1.1233(6)
H22 H -0.0826(6) 0.4193(9) 1.1577(6)
H23 H -0.0469(6) 0.5499(9) 1.1674(6)
C30 C -0.1982(8) 0.5336(10) 1.0958(8)
H24 H -0.2125(8) 0.5451(10) 1.1551(8)
H25 H -0.2432(8) 0.4738(10) 1.0566(8)
C31 C -0.2164(9) 0.6461(10) 1.0382(9)
H26 H -0.2863(9) 0.6681(10) 1.0189(9)
H27 H -0.1760(9) 0.7077(10) 1.0795(9)
C32 C -0.1906(8) 0.6332(9) 0.9478(8)
H28 H -0.1993(8) 0.7077(9) 0.9141(8)
H29 H -0.2359(8) 0.5775(9) 0.9033(8)
C33 C -0.0827(6) 0.5916(8) 0.9744(7)
H30 H -0.0695(6) 0.5790(8) 0.9147(7)
H31 H -0.0370(6) 0.6512(8) 1.0129(7)
C34 C 0.2614(6) 0.5330(8) 0.9409(6)
C35 C 0.1923(6) 0.6048(8) 0.9613(6)
H32 H 0.1625(6) 0.5784(8) 1.0042(6)
C36 C 0.1675(8) 0.7141(9) 0.9189(8)
H33 H 0.1220(8) 0.7604(9) 0.9341(8)
C37 C 0.2091(9) 0.7537(9) 0.8558(8)
H34 H 0.1914(9) 0.8269(9) 0.8270(8)
C38 C 0.2780(8) 0.6859(11) 0.8336(7)
H35 H 0.3068(8) 0.7139(11) 0.7903(7)
C39 C 0.3044(7) 0.5751(9) 0.8763(6)
H36 H 0.3507(7) 0.5298(9) 0.8614(6)
C40 C 0.4238(6) 0.4078(9) 1.1089(6)
C41 C 0.4112(10) 0.4975(12) 1.1800(8)
H37 H 0.3603(10) 0.4717(12) 1.2033(8)
H38 H 0.3920(10) 0.5710(12) 1.1468(8)
H39 H 0.4734(10) 0.5064(12) 1.2347(8)
C42 C 0.5019(8) 0.4473(18) 1.0729(10)
H40 H 0.5098(8) 0.3905(18) 1.0280(10)
H41 H 0.5641(8) 0.4563(18) 1.1276(10)
H42 H 0.4826(8) 0.5208(18) 1.0397(10)
C43 C 0.4574(9) 0.2961(10) 1.1689(10)
H43 H 0.4061(9) 0.2708(10) 1.1921(10)
H44 H 0.5181(9) 0.3107(10) 1.2242(10)
H45 H 0.4690(9) 0.2362(10) 1.1283(10)
C44 C 0.2940(6) 0.2712(8) 0.9147(6)
C45 C 0.3207(6) 0.1551(8) 0.9483(7)
H46 H 0.3424(6) 0.1402(8) 1.0155(7)
C46 C 0.3158(6) 0.0646(10) 0.8863(8)
H47 H 0.3358(6) -0.0099(10) 0.9111(8)
C47 C 0.2821(7) 0.0842(11) 0.7898(8)
H48 H 0.2786(7) 0.0224(11) 0.7473(8)
C48 C 0.2522(7) 0.1933(11) 0.7513(7)
H49 H 0.2285(7) 0.2052(11) 0.6836(7)
C49 C 0.2576(6) 0.2853(9) 0.8143(7)
H50 H 0.2360(6) 0.3588(9) 0.7880(7)
loop_
_geom_bond_atom_site_label_1
_geom_bond_atom_site_label_2
_geom_bond_site_symmetry_1
_geom_bond_site_symmetry_2
C1 H1 1_555 1_555
C2 C1 1_555 1_555
H2 C2 1_555 1_555
C3 C2 1_555 1_555
H3 C3 1_555 1_555
C4 C3 1_555 1_555
H4 C4 1_555 1_555
C5 C4 1_555 1_555
H5 C5 1_555 1_555
C6 C1 1_555 1_555
H6 C6 1_555 1_555
O1 C1 1_555 1_555
O2 C2 1_555 1_555
O3 C3 1_555 1_555
O4 C4 1_555 1_555
O5 C5 1_555 1_555
O6 C6 1_555 1_555
Si1 O3 1_555 1_555
C7 O4 1_555 1_555
O7 C7 1_555 1_555
C8 C7 1_555 1_555
C9 C8 1_555 1_555
H7 C9 1_555 1_555
C10 C9 1_555 1_555
H8 C10 1_555 1_555
C11 C10 1_555 1_555
H9 C11 1_555 1_555
C12 C11 1_555 1_555
H10 C12 1_555 1_555
C13 C8 1_555 1_555
H11 C13 1_555 1_555
C14 O5 1_555 1_555
O8 C14 1_555 1_555
C15 C14 1_555 1_555
C16 C15 1_555 1_555
H12 C16 1_555 1_555
C17 C16 1_555 1_555
H13 C17 1_555 1_555
C18 C17 1_555 1_555
H14 C18 1_555 1_555
C19 C18 1_555 1_555
H15 C19 1_555 1_555
C20 C15 1_555 1_555
H16 C20 1_555 1_555
C21 O6 1_555 1_555
O9 C21 1_555 1_555
C22 C21 1_555 1_555
C23 C22 1_555 1_555
H17 C23 1_555 1_555
C24 C23 1_555 1_555
H18 C24 1_555 1_555
C25 C24 1_555 1_555
H19 C25 1_555 1_555
C26 C25 1_555 1_555
H20 C26 1_555 1_555
C27 C22 1_555 1_555
H21 C27 1_555 1_555
C28 O1 1_555 1_555
C29 C28 1_555 1_555
H22 C29 1_555 1_555
H23 C29 1_555 1_555
C30 C29 1_555 1_555
H24 C30 1_555 1_555
H25 C30 1_555 1_555
C31 C30 1_555 1_555
H26 C31 1_555 1_555
H27 C31 1_555 1_555
C32 C31 1_555 1_555
H28 C32 1_555 1_555
H29 C32 1_555 1_555
C33 C28 1_555 1_555
H30 C33 1_555 1_555
H31 C33 1_555 1_555
C34 Si1 1_555 1_555
C35 C34 1_555 1_555
H32 C35 1_555 1_555
C36 C35 1_555 1_555
H33 C36 1_555 1_555
C37 C36 1_555 1_555
H34 C37 1_555 1_555
C38 C37 1_555 1_555
H35 C38 1_555 1_555
C39 C34 1_555 1_555
H36 C39 1_555 1_555
C40 Si1 1_555 1_555
C41 C40 1_555 1_555
H37 C41 1_555 1_555
H38 C41 1_555 1_555
H39 C41 1_555 1_555
C42 C40 1_555 1_555
H40 C42 1_555 1_555
H41 C42 1_555 1_555
H42 C42 1_555 1_555
C43 C40 1_555 1_555
H43 C43 1_555 1_555
H44 C43 1_555 1_555
H45 C43 1_555 1_555
C44 Si1 1_555 1_555
C45 C44 1_555 1_555
H46 C45 1_555 1_555
C46 C45 1_555 1_555
H47 C46 1_555 1_555
C47 C46 1_555 1_555
H48 C47 1_555 1_555
C48 C47 1_555 1_555
H49 C48 1_555 1_555
C49 C44 1_555 1_555
H50 C49 1_555 1_555
C5 C6 1_555 1_555
O2 C28 1_555 1_555
C12 C13 1_555 1_555
C19 C20 1_555 1_555
C26 C27 1_555 1_555
C32 C33 1_555 1_555
C38 C39 1_555 1_555
C48 C49 1_555 1_555

#END
