
#######################################################################
#
#                 Cambridge Crystallographic Data Centre
#                                CCDC 
#
#######################################################################
#
# If this CIF has been generated from an entry in the Cambridge 
# Structural Database, then it will include bibliographic, chemical, 
# crystal, experimental, refinement or atomic coordinate data resulting 
# from the CCDC's data processing and validation procedures.
#
#######################################################################

data_TEVCAZ
_chemical_formula_moiety         'C27 H25 N9'
_chemical_name_systematic        
N,N'-bis(6'-(Pyrid-2''-ylamino)pyrid-2'-yl)-N,N'-dimethyl-2,6-diaminopyridine
_symmetry_cell_setting           orthorhombic
_symmetry_space_group_name_H-M   'F d d 2'
_symmetry_Int_Tables_number      43
_space_group_name_Hall           'F 2 -2d'
loop_
_symmetry_equiv_pos_site_id
_symmetry_equiv_pos_as_xyz
1 x,y,z
2 -x,-y,z
3 1/4+x,1/4-y,1/4+z
4 1/4-x,1/4+y,1/4+z
5 x,1/2+y,1/2+z
6 -x,1/2-y,1/2+z
7 1/4+x,3/4-y,3/4+z
8 1/4-x,3/4+y,3/4+z
9 1/2+x,y,1/2+z
10 1/2-x,-y,1/2+z
11 3/4+x,1/4-y,3/4+z
12 3/4-x,1/4+y,3/4+z
13 1/2+x,1/2+y,z
14 1/2-x,1/2-y,z
15 3/4+x,3/4-y,1/4+z
16 3/4-x,3/4+y,1/4+z
_cell_length_a                   17.578(3)
_cell_length_b                   25.708(5)
_cell_length_c                   10.673(2)
_cell_angle_alpha                90
_cell_angle_beta                 90
_cell_angle_gamma                90
_cell_volume                     4823.08
_exptl_crystal_colour            white
_exptl_crystal_description       block
_cell_formula_units_Z            8
_exptl_crystal_recrystallization_method dichloromethane
loop_
_atom_site_label
_atom_site_type_symbol
_atom_site_fract_x
_atom_site_fract_y
_atom_site_fract_z
N1 N -0.00513(9) 0.26729(6) 0.95458(17)
N2 N 0.2500 0.2500 0.9339(2)
N3 N 0.12538(9) 0.27688(7) 0.92287(16)
N4 N -0.13653(9) 0.25474(6) 0.97946(18)
H1 H -0.1794 0.2711 0.9895
C1 C 0.2500 0.2500 1.1914(3)
H2 H 0.2500 0.2500 1.2795
C2 C 0.05680(10) 0.29646(7) 0.97492(18)
C3 C -0.01478(13) 0.36187(8) 1.0768(2)
H3 H -0.0181 0.3941 1.1179
C4 C 0.18581(11) 0.26653(8) 1.12787(18)
H4 H 0.1426 0.2785 1.1709
C5 C -0.07964(12) 0.33291(8) 1.0562(2)
H5 H -0.1275 0.3451 1.0822
C6 C 0.18798(10) 0.26466(7) 0.99729(18)
C7 C -0.14340(11) 0.20218(7) 0.9500(2)
N5 N -0.21478(10) 0.18444(7) 0.96539(19)
C8 C -0.07213(11) 0.28483(8) 0.99521(19)
C9 C -0.08466(13) 0.17046(8) 0.9071(2)
H6 H -0.0352 0.1837 0.8973
C10 C 0.05504(12) 0.34349(8) 1.0374(2)
H7 H 0.0999 0.3624 1.0525
C11 C -0.10051(14) 0.11955(9) 0.8796(3)
H8 H -0.0616 0.0974 0.8514
C12 C -0.17399(16) 0.10067(10) 0.8932(3)
H9 H -0.1861 0.0659 0.8742
C13 C -0.22806(14) 0.13463(10) 0.9356(3)
H10 H -0.2780 0.1222 0.9445
C14 C 0.12344(13) 0.25847(12) 0.7943(2)
H11 H 0.1736 0.2463 0.7704
H12 H 0.1082 0.2867 0.7395
H13 H 0.0872 0.2302 0.7873
N1M N 0.50513(9) 0.23271(6) 0.95458(17)
N3M N 0.37462(9) 0.22312(7) 0.92287(16)
N4M N 0.63653(9) 0.24526(6) 0.97946(18)
H1M H 0.6794 0.2289 0.9895
C2M C 0.44320(10) 0.20354(7) 0.97492(18)
C3M C 0.51478(13) 0.13813(8) 1.0768(2)
H3M H 0.5181 0.1059 1.1179
C4M C 0.31419(11) 0.23347(8) 1.12787(18)
H4M H 0.3574 0.2215 1.1709
C5M C 0.57964(12) 0.16709(8) 1.0562(2)
H5M H 0.6275 0.1549 1.0822
C6M C 0.31202(10) 0.23534(7) 0.99729(18)
C7M C 0.64340(11) 0.29782(7) 0.9500(2)
N5M N 0.71478(10) 0.31556(7) 0.96539(19)
C8M C 0.57213(11) 0.21517(8) 0.99521(19)
C9M C 0.58466(13) 0.32954(8) 0.9071(2)
H6M H 0.5352 0.3163 0.8973
C10M C 0.44496(12) 0.15651(8) 1.0374(2)
H7M H 0.4001 0.1376 1.0525
C11M C 0.60051(14) 0.38045(9) 0.8796(3)
H8M H 0.5616 0.4026 0.8514
C12M C 0.67399(16) 0.39933(10) 0.8932(3)
H9M H 0.6861 0.4341 0.8742
C13M C 0.72806(14) 0.36537(10) 0.9356(3)
H10M H 0.7780 0.3778 0.9445
C14M C 0.37656(13) 0.24153(12) 0.7943(2)
H11M H 0.3264 0.2537 0.7704
H12M H 0.3918 0.2133 0.7395
H13M H 0.4128 0.2698 0.7873
loop_
_geom_bond_atom_site_label_1
_geom_bond_atom_site_label_2
_geom_bond_site_symmetry_1
_geom_bond_site_symmetry_2
N1 C2 1_555 1_555
N2 C6 1_555 1_555
N3 C2 1_555 1_555
N4 H1 1_555 1_555
C1 H2 1_555 1_555
C2 C10 1_555 1_555
C3 H3 1_555 1_555
C4 C1 1_555 1_555
H4 C4 1_555 1_555
C5 C3 1_555 1_555
H5 C5 1_555 1_555
C6 N3 1_555 1_555
C7 N4 1_555 1_555
N5 C7 1_555 1_555
C8 N1 1_555 1_555
C9 C7 1_555 1_555
H6 C9 1_555 1_555
C10 C3 1_555 1_555
H7 C10 1_555 1_555
C11 C9 1_555 1_555
H8 C11 1_555 1_555
C12 C11 1_555 1_555
H9 C12 1_555 1_555
C13 N5 1_555 1_555
H10 C13 1_555 1_555
C14 N3 1_555 1_555
H11 C14 1_555 1_555
H12 C14 1_555 1_555
H13 C14 1_555 1_555
N1M C2M 1_555 1_555
N3M C2M 1_555 1_555
N4M H1M 1_555 1_555
C2M C10M 1_555 1_555
C3M H3M 1_555 1_555
C4M C1 1_555 1_555
H4M C4M 1_555 1_555
C5M C3M 1_555 1_555
H5M C5M 1_555 1_555
C6M N2 1_555 1_555
C7M N4M 1_555 1_555
N5M C7M 1_555 1_555
C8M N1M 1_555 1_555
C9M C7M 1_555 1_555
H6M C9M 1_555 1_555
C10M C3M 1_555 1_555
H7M C10M 1_555 1_555
C11M C9M 1_555 1_555
H8M C11M 1_555 1_555
C12M C11M 1_555 1_555
H9M C12M 1_555 1_555
C13M N5M 1_555 1_555
H10M C13M 1_555 1_555
C14M N3M 1_555 1_555
H11M C14M 1_555 1_555
H12M C14M 1_555 1_555
H13M C14M 1_555 1_555
N4 C8 1_555 1_555
C4 C6 1_555 1_555
C5 C8 1_555 1_555
C12 C13 1_555 1_555
N3M C6M 1_555 1_555
N4M C8M 1_555 1_555
C4M C6M 1_555 1_555
C5M C8M 1_555 1_555
C12M C13M 1_555 1_555

#END
