
#######################################################################
#
#                 Cambridge Crystallographic Data Centre
#                                CCDC 
#
#######################################################################
#
# If this CIF has been generated from an entry in the Cambridge 
# Structural Database, then it will include bibliographic, chemical, 
# crystal, experimental, refinement or atomic coordinate data resulting 
# from the CCDC's data processing and validation procedures.
#
#######################################################################

data_TEVFOR
_chemical_formula_moiety         'C30 H50 F3 N1 Si5'
_chemical_name_systematic        
7-Phenyl-6-(4-(trifluoromethyl)phenyl)-1,2,2,5-tetrakis(trimethylsilyl)-7-aza-1-silabicyclo[3.2.0]heptane
_symmetry_cell_setting           monoclinic
_symmetry_space_group_name_H-M   'P 21/n'
_symmetry_Int_Tables_number      14
_space_group_name_Hall           '-P 2yn'
loop_
_symmetry_equiv_pos_site_id
_symmetry_equiv_pos_as_xyz
1 x,y,z
2 1/2-x,1/2+y,1/2-z
3 -x,-y,-z
4 1/2+x,1/2-y,1/2+z
_cell_length_a                   11.6872(8)
_cell_length_b                   23.8106(16)
_cell_length_c                   14.0462(10)
_cell_angle_alpha                90
_cell_angle_beta                 112.988(2)
_cell_angle_gamma                90
_cell_volume                     3598.36
_exptl_crystal_colour            colorless
_exptl_crystal_description       block
_cell_formula_units_Z            4
loop_
_atom_site_label
_atom_site_type_symbol
_atom_site_fract_x
_atom_site_fract_y
_atom_site_fract_z
Si1 Si -0.07028(5) 0.12596(2) 0.20865(4)
Si2 Si 0.17133(7) 0.17669(3) 0.14746(6)
Si3 Si -0.18264(6) 0.23996(3) 0.25385(6)
Si4 Si -0.18819(6) 0.13212(3) 0.38175(5)
Si5 Si -0.21880(6) 0.10447(3) 0.03901(5)
N1 N 0.01556(14) 0.06486(6) 0.26498(12)
C1 C -0.10508(18) 0.16966(8) 0.30687(15)
C2 C 0.03310(19) 0.18066(9) 0.38506(16)
H1 H 0.0347 0.2125 0.4286
H2 H 0.0633 0.1481 0.4293
C3 C 0.1189(2) 0.19235(9) 0.32861(17)
H3 H 0.2046 0.1900 0.3775
H4 H 0.1044 0.2303 0.3012
C4 C 0.09835(19) 0.15056(8) 0.23900(16)
C5 C -0.0961(3) 0.07331(11) 0.4624(2)
H5 H -0.0174 0.0872 0.5099
H6 H -0.0828 0.0453 0.4186
H7 H -0.1406 0.0570 0.5003
C6 C -0.3433(2) 0.10227(14) 0.2989(3)
H8 H -0.3343 0.0777 0.2481
H9 H -0.3992 0.1322 0.2647
H10 H -0.3761 0.0816 0.3413
C7 C -0.2150(3) 0.17998(15) 0.4769(3)
H11 H -0.2558 0.1596 0.5136
H12 H -0.2662 0.2109 0.4407
H13 H -0.1366 0.1939 0.5250
C8 C -0.3558(3) 0.23394(14) 0.1900(3)
H14 H -0.3889 0.2257 0.2412
H15 H -0.3775 0.2043 0.1398
H16 H -0.3900 0.2687 0.1563
C9 C -0.1432(3) 0.29386(12) 0.3592(3)
H17 H -0.1777 0.3295 0.3298
H18 H -0.0545 0.2971 0.3932
H19 H -0.1771 0.2826 0.4084
C10 C -0.1326(3) 0.27193(12) 0.1540(3)
H20 H -0.1321 0.2436 0.1056
H21 H -0.0507 0.2874 0.1874
H22 H -0.1896 0.3012 0.1181
C11 C 0.0634(4) 0.2127(2) 0.0297(3)
H23 H 0.0364 0.2474 0.0488
H24 H -0.0073 0.1891 -0.0049
H25 H 0.1052 0.2201 -0.0157
C12 C 0.3007(3) 0.22644(18) 0.2169(3)
H26 H 0.3505 0.2319 0.1771
H27 H 0.3513 0.2112 0.2833
H28 H 0.2668 0.2618 0.2259
C13 C 0.2408(4) 0.11793(18) 0.0983(3)
H29 H 0.1760 0.0931 0.0563
H30 H 0.2988 0.0975 0.1558
H31 H 0.2832 0.1332 0.0577
C14 C 0.13780(18) 0.08762(8) 0.27619(15)
H32 H 0.1636 0.0691 0.2255
C15 C 0.24090(18) 0.08082(8) 0.38275(16)
C16 C 0.3614(2) 0.09717(12) 0.3997(2)
H33 H 0.3788 0.1115 0.3453
C17 C 0.4560(2) 0.09234(14) 0.4970(2)
H34 H 0.5362 0.1036 0.5071
C18 C 0.4326(2) 0.07134(11) 0.5777(2)
C19 C 0.3134(2) 0.05411(11) 0.56154(18)
H35 H 0.2963 0.0394 0.6159
C20 C 0.2198(2) 0.05889(10) 0.46429(17)
H36 H 0.1401 0.0468 0.4541
C21 C 0.5332(3) 0.06609(15) 0.6833(3)
C22 C -0.00915(18) 0.00723(8) 0.25514(14)
C23 C 0.0821(2) -0.03245(9) 0.26409(17)
H37 H 0.1634 -0.0209 0.2791
C24 C 0.0521(3) -0.08898(10) 0.2508(2)
H38 H 0.1134 -0.1150 0.2555
C25 C -0.0660(3) -0.10712(11) 0.2307(2)
H39 H -0.0851 -0.1452 0.2222
C26 C -0.1564(3) -0.06817(11) 0.2232(2)
H40 H -0.2372 -0.0801 0.2090
C27 C -0.1284(2) -0.01178(9) 0.23659(18)
H41 H -0.1900 0.0138 0.2332
C28 C -0.1366(3) 0.05382(14) -0.0126(2)
H42 H -0.1255 0.0189 0.0242
H43 H -0.0569 0.0688 -0.0040
H44 H -0.1849 0.0475 -0.0848
C29 C -0.3659(3) 0.07111(17) 0.0335(2)
H45 H -0.4162 0.0611 -0.0366
H46 H -0.4105 0.0971 0.0585
H47 H -0.3465 0.0380 0.0759
C30 C -0.2691(3) 0.16675(14) -0.0486(2)
H48 H -0.1974 0.1853 -0.0511
H49 H -0.3138 0.1923 -0.0229
H50 H -0.3221 0.1546 -0.1168
F1 F 0.6193(10) 0.1076(6) 0.7011(8)
F2 F 0.5965(11) 0.0208(5) 0.6952(10)
F3 F 0.4912(8) 0.0696(8) 0.7576(5)
F4? F 0.558(2) 0.0143(4) 0.7153(13)
F5? F 0.5076(16) 0.0917(7) 0.7535(10)
F6? F 0.6380(10) 0.0877(8) 0.6908(15)
loop_
_geom_bond_atom_site_label_1
_geom_bond_atom_site_label_2
_geom_bond_site_symmetry_1
_geom_bond_site_symmetry_2
Si1 Si5 1_555 1_555
Si2 C4 1_555 1_555
Si3 C1 1_555 1_555
Si4 C1 1_555 1_555
Si5 C28 1_555 1_555
N1 Si1 1_555 1_555
C1 Si1 1_555 1_555
C2 C1 1_555 1_555
H1 C2 1_555 1_555
H2 C2 1_555 1_555
C3 C2 1_555 1_555
H3 C3 1_555 1_555
H4 C3 1_555 1_555
C4 Si1 1_555 1_555
C5 Si4 1_555 1_555
H5 C5 1_555 1_555
H6 C5 1_555 1_555
H7 C5 1_555 1_555
C6 Si4 1_555 1_555
H8 C6 1_555 1_555
H9 C6 1_555 1_555
H10 C6 1_555 1_555
C7 Si4 1_555 1_555
H11 C7 1_555 1_555
H12 C7 1_555 1_555
H13 C7 1_555 1_555
C8 Si3 1_555 1_555
H14 C8 1_555 1_555
H15 C8 1_555 1_555
H16 C8 1_555 1_555
C9 Si3 1_555 1_555
H17 C9 1_555 1_555
H18 C9 1_555 1_555
H19 C9 1_555 1_555
C10 Si3 1_555 1_555
H20 C10 1_555 1_555
H21 C10 1_555 1_555
H22 C10 1_555 1_555
C11 Si2 1_555 1_555
H23 C11 1_555 1_555
H24 C11 1_555 1_555
H25 C11 1_555 1_555
C12 Si2 1_555 1_555
H26 C12 1_555 1_555
H27 C12 1_555 1_555
H28 C12 1_555 1_555
C13 Si2 1_555 1_555
H29 C13 1_555 1_555
H30 C13 1_555 1_555
H31 C13 1_555 1_555
C14 N1 1_555 1_555
H32 C14 1_555 1_555
C15 C14 1_555 1_555
C16 C15 1_555 1_555
H33 C16 1_555 1_555
C17 C16 1_555 1_555
H34 C17 1_555 1_555
C18 C17 1_555 1_555
C19 C18 1_555 1_555
H35 C19 1_555 1_555
C20 C15 1_555 1_555
H36 C20 1_555 1_555
C21 C18 1_555 1_555
C22 N1 1_555 1_555
C23 C22 1_555 1_555
H37 C23 1_555 1_555
C24 C23 1_555 1_555
H38 C24 1_555 1_555
C25 C24 1_555 1_555
H39 C25 1_555 1_555
C26 C25 1_555 1_555
H40 C26 1_555 1_555
C27 C22 1_555 1_555
H41 C27 1_555 1_555
C28 H42 1_555 1_555
H43 C28 1_555 1_555
H44 C28 1_555 1_555
C29 Si5 1_555 1_555
H45 C29 1_555 1_555
H46 C29 1_555 1_555
H47 C29 1_555 1_555
C30 Si5 1_555 1_555
H48 C30 1_555 1_555
H49 C30 1_555 1_555
H50 C30 1_555 1_555
F1 C21 1_555 1_555
F2 C21 1_555 1_555
F3 C21 1_555 1_555
C3 C4 1_555 1_555
C4 C14 1_555 1_555
C19 C20 1_555 1_555
C26 C27 1_555 1_555

#END
