
#######################################################################
#
#                 Cambridge Crystallographic Data Centre
#                                CCDC 
#
#######################################################################
#
# If this CIF has been generated from an entry in the Cambridge 
# Structural Database, then it will include bibliographic, chemical, 
# crystal, experimental, refinement or atomic coordinate data resulting 
# from the CCDC's data processing and validation procedures.
#
#######################################################################

data_TEVFUX
_chemical_formula_moiety         'C30 H55 N1 Si5'
_chemical_name_systematic        
N,N-Dibenzyl-2,2,5,5-tetrakis(trimethylsilyl)silolan-1-amine
_symmetry_cell_setting           triclinic
_symmetry_space_group_name_H-M   'P -1'
_symmetry_Int_Tables_number      2
_space_group_name_Hall           '-P 1'
loop_
_symmetry_equiv_pos_site_id
_symmetry_equiv_pos_as_xyz
1 x,y,z
2 -x,-y,-z
_cell_length_a                   11.4647(8)
_cell_length_b                   11.7712(9)
_cell_length_c                   14.2938(11)
_cell_angle_alpha                74.1470(10)
_cell_angle_beta                 82.1350(10)
_cell_angle_gamma                69.5230(10)
_cell_volume                     1736.55
_exptl_crystal_colour            colorless
_exptl_crystal_description       block
_cell_formula_units_Z            2
loop_
_atom_site_label
_atom_site_type_symbol
_atom_site_fract_x
_atom_site_fract_y
_atom_site_fract_z
Si1 Si 0.20305(4) 0.72773(4) 0.21688(3)
Si2 Si 0.32074(5) 0.41749(4) 0.24985(4)
Si3 Si 0.19205(5) 0.59188(5) 0.06128(3)
Si4 Si 0.44673(5) 0.78216(5) 0.27788(4)
Si5 Si 0.25142(6) 0.98161(5) 0.13222(4)
C1 C -0.10232(17) 0.79555(18) 0.35290(13)
C2 C 0.15193(17) 0.7143(2) 0.50738(13)
C3 C -0.1651(2) 0.8010(2) 0.44186(16)
H1 H -0.1377 0.7351 0.4959
C4 C -0.14603(19) 0.8946(2) 0.27392(15)
H2 H -0.1056 0.8928 0.2131
C5 C -0.2491(2) 0.9963(2) 0.28437(19)
H3 H -0.2776 1.0621 0.2305
C6 C -0.2683(2) 0.9032(3) 0.4520(2)
H4 H -0.3095 0.9051 0.5126
C7 C 0.1672(2) 0.5891(2) 0.54329(15)
H5 H 0.1709 0.5407 0.5006
C8 C -0.3098(2) 1.0010(2) 0.3737(2)
H6 H -0.3784 1.0700 0.3808
C9 C 0.1469(3) 0.7844(3) 0.57240(17)
H7 H 0.1352 0.8694 0.5500
C10 C 0.1774(2) 0.5338(3) 0.64274(18)
H8 H 0.1865 0.4495 0.6661
C11 C 0.1740(3) 0.6038(4) 0.70563(17)
H9 H 0.1817 0.5671 0.7719
C12 C 0.1594(4) 0.7277(4) 0.6709(2)
H10 H 0.1578 0.7749 0.7139
C13 C 0.14197(18) 0.78096(18) 0.40016(12)
H11 H 0.0696 0.8560 0.3936
H12 H 0.2147 0.8073 0.3795
C14 C 0.2581(2) 0.4508(2) 0.00911(17)
H13 H 0.2113 0.4622 -0.0455
H14 H 0.2530 0.3780 0.0579
H15 H 0.3436 0.4401 -0.0118
C15 C 0.1934(2) 0.7237(2) -0.04747(14)
H16 H 0.1490 0.7204 -0.0984
H17 H 0.2780 0.7163 -0.0700
H18 H 0.1540 0.8019 -0.0297
C16 C 0.4588(2) 0.30859(19) 0.19490(19)
H19 H 0.4696 0.2238 0.2302
H20 H 0.5325 0.3281 0.1985
H21 H 0.4448 0.3184 0.1280
C17 C 0.1878(2) 0.3547(2) 0.27095(19)
H22 H 0.2126 0.2719 0.3127
H23 H 0.1645 0.3519 0.2098
H24 H 0.1181 0.4080 0.3011
C18 C 0.3721(3) 0.3956(2) 0.37380(16)
H25 H 0.3193 0.4630 0.4014
H26 H 0.4567 0.3946 0.3692
H27 H 0.3666 0.3177 0.4146
C19 C 0.4810(2) 0.6321(2) 0.37369(17)
H28 H 0.5162 0.5631 0.3435
H29 H 0.4053 0.6265 0.4096
H30 H 0.5392 0.6295 0.4172
C20 C 0.4033(3) 0.9068(3) 0.34828(19)
H31 H 0.3355 0.8986 0.3941
H32 H 0.3785 0.9879 0.3040
H33 H 0.4738 0.8974 0.3825
C21 C 0.6002(2) 0.7808(3) 0.21185(19)
H34 H 0.6566 0.7801 0.2561
H35 H 0.5879 0.8542 0.1591
H36 H 0.6345 0.7076 0.1866
C22 C 0.3675(3) 1.0671(2) 0.1015(2)
H37 H 0.3269 1.1529 0.0695
H38 H 0.4330 1.0289 0.0590
H39 H 0.4022 1.0634 0.1601
C23 C 0.1228(3) 1.0575(2) 0.2133(2)
H40 H 0.1560 1.0514 0.2733
H41 H 0.0614 1.0161 0.2267
H42 H 0.0848 1.1439 0.1817
C24 C 0.1798(3) 1.0165(2) 0.0131(2)
H43 H 0.1146 0.9804 0.0225
H44 H 0.2423 0.9817 -0.0326
H45 H 0.1457 1.1054 -0.0116
C25 C 0.28317(15) 0.58202(14) 0.16763(11)
C26 C 0.32683(16) 0.80693(15) 0.18642(12)
C27 C 0.39646(17) 0.74363(16) 0.10067(12)
H46 H 0.3495 0.7851 0.0423
H47 H 0.4781 0.7534 0.0870
C28 C 0.41097(16) 0.60426(16) 0.12749(13)
H48 H 0.4725 0.5598 0.1766
H49 H 0.4407 0.5709 0.0704
N1 N 0.13196(13) 0.71188(13) 0.33309(10)
C29 C 0.01319(17) 0.68520(17) 0.34405(13)
H50 H 0.0157 0.6177 0.4015
H51 H 0.0064 0.6563 0.2883
C30 C 0.02321(19) 0.6112(2) 0.09433(16)
H52 H -0.0173 0.6898 0.1113
H53 H 0.0165 0.5445 0.1488
H54 H -0.0159 0.6092 0.0398
H55 H 0.1044(17) 0.8049(17) 0.1530(13)
loop_
_geom_bond_atom_site_label_1
_geom_bond_atom_site_label_2
_geom_bond_site_symmetry_1
_geom_bond_site_symmetry_2
Si1 C25 1_555 1_555
Si2 C16 1_555 1_555
Si3 C14 1_555 1_555
Si4 C19 1_555 1_555
Si5 C22 1_555 1_555
C1 C3 1_555 1_555
C2 C7 1_555 1_555
C3 H1 1_555 1_555
C4 C1 1_555 1_555
H2 C4 1_555 1_555
C5 C4 1_555 1_555
H3 C5 1_555 1_555
C6 C3 1_555 1_555
H4 C6 1_555 1_555
C7 H5 1_555 1_555
C8 C5 1_555 1_555
H6 C8 1_555 1_555
C9 C2 1_555 1_555
H7 C9 1_555 1_555
C10 C7 1_555 1_555
H8 C10 1_555 1_555
C11 C10 1_555 1_555
H9 C11 1_555 1_555
C12 C9 1_555 1_555
H10 C12 1_555 1_555
C13 C2 1_555 1_555
H11 C13 1_555 1_555
H12 C13 1_555 1_555
C14 H13 1_555 1_555
H14 C14 1_555 1_555
H15 C14 1_555 1_555
C15 Si3 1_555 1_555
H16 C15 1_555 1_555
H17 C15 1_555 1_555
H18 C15 1_555 1_555
C16 H19 1_555 1_555
H20 C16 1_555 1_555
H21 C16 1_555 1_555
C17 Si2 1_555 1_555
H22 C17 1_555 1_555
H23 C17 1_555 1_555
H24 C17 1_555 1_555
C18 Si2 1_555 1_555
H25 C18 1_555 1_555
H26 C18 1_555 1_555
H27 C18 1_555 1_555
C19 H28 1_555 1_555
H29 C19 1_555 1_555
H30 C19 1_555 1_555
C20 Si4 1_555 1_555
H31 C20 1_555 1_555
H32 C20 1_555 1_555
H33 C20 1_555 1_555
C21 Si4 1_555 1_555
H34 C21 1_555 1_555
H35 C21 1_555 1_555
H36 C21 1_555 1_555
C22 H37 1_555 1_555
H38 C22 1_555 1_555
H39 C22 1_555 1_555
C23 Si5 1_555 1_555
H40 C23 1_555 1_555
H41 C23 1_555 1_555
H42 C23 1_555 1_555
C24 Si5 1_555 1_555
H43 C24 1_555 1_555
H44 C24 1_555 1_555
H45 C24 1_555 1_555
C25 Si2 1_555 1_555
C26 Si1 1_555 1_555
C27 C26 1_555 1_555
H46 C27 1_555 1_555
H47 C27 1_555 1_555
C28 C25 1_555 1_555
H48 C28 1_555 1_555
H49 C28 1_555 1_555
N1 Si1 1_555 1_555
C29 C1 1_555 1_555
H50 C29 1_555 1_555
H51 C29 1_555 1_555
C30 Si3 1_555 1_555
H52 C30 1_555 1_555
H53 C30 1_555 1_555
H54 C30 1_555 1_555
H55 Si1 1_555 1_555
Si3 C25 1_555 1_555
Si4 C26 1_555 1_555
Si5 C26 1_555 1_555
C6 C8 1_555 1_555
C11 C12 1_555 1_555
C13 N1 1_555 1_555
C27 C28 1_555 1_555
N1 C29 1_555 1_555

#END
