
#######################################################################
#
#                 Cambridge Crystallographic Data Centre
#                                CCDC 
#
#######################################################################
#
# If this CIF has been generated from an entry in the Cambridge 
# Structural Database, then it will include bibliographic, chemical, 
# crystal, experimental, refinement or atomic coordinate data resulting 
# from the CCDC's data processing and validation procedures.
#
#######################################################################

data_TEVGIM
_chemical_formula_moiety         'C31 H49 F6 N1 Si5'
_chemical_name_systematic        
6-(3,5-bis(trifluoromethyl)phenyl)-7-phenyl-1,2,2,5-tetrakis(trimethylsilyl)-7-aza-1-silabicyclo[3.2.0]heptane
_symmetry_cell_setting           orthorhombic
_symmetry_space_group_name_H-M   'P b c a'
_symmetry_Int_Tables_number      61
_space_group_name_Hall           '-P 2ac 2ab'
loop_
_symmetry_equiv_pos_site_id
_symmetry_equiv_pos_as_xyz
1 x,y,z
2 1/2-x,-y,1/2+z
3 -x,1/2+y,1/2-z
4 1/2+x,1/2-y,-z
5 -x,-y,-z
6 1/2+x,y,1/2-z
7 x,1/2-y,1/2+z
8 1/2-x,1/2+y,z
_cell_length_a                   22.667(4)
_cell_length_b                   14.110(2)
_cell_length_c                   23.682(4)
_cell_angle_alpha                90
_cell_angle_beta                 90
_cell_angle_gamma                90
_cell_volume                     7574.25
_exptl_crystal_colour            colorless
_exptl_crystal_description       block
_cell_formula_units_Z            8
loop_
_atom_site_label
_atom_site_type_symbol
_atom_site_fract_x
_atom_site_fract_y
_atom_site_fract_z
Si1 Si 0.11430(4) 0.25266(6) 0.12049(3)
Si2 Si 0.12465(5) 0.37963(7) 0.00750(4)
Si3 Si 0.22379(5) 0.23517(7) 0.03765(4)
Si4 Si 0.18032(5) 0.21033(7) 0.25027(4)
Si5 Si 0.06847(5) 0.10253(7) 0.10801(5)
N1 N 0.06354(10) 0.33317(16) 0.15101(9)
C1 C 0.16319(14) 0.3140(2) 0.06743(12)
C2 C 0.19094(14) 0.3900(2) 0.10810(12)
H1 H 0.2271 0.4142 0.0915
H2 H 0.1638 0.4427 0.1121
C3 C 0.20444(14) 0.3494(2) 0.16607(13)
H3 H 0.2115 0.4011 0.1922
H4 H 0.2403 0.3120 0.1639
C4 C 0.15406(13) 0.28678(19) 0.18916(12)
C5 C 0.08184(17) 0.4837(3) 0.03339(15)
H5 H 0.0617 0.5129 0.0023
H6 H 0.1083 0.5287 0.0503
H7 H 0.0535 0.4631 0.0609
C6 C 0.0725(2) 0.3048(3) -0.03378(16)
H8 H 0.0428 0.2797 -0.0090
H9 H 0.0937 0.2535 -0.0511
H10 H 0.0541 0.3426 -0.0625
F1 F 0.12168(16) 0.76747(19) 0.18502(14)
C7 C 0.1791(2) 0.4307(3) -0.04310(16)
H11 H 0.1589 0.4694 -0.0702
H12 H 0.1994 0.3803 -0.0622
H13 H 0.2071 0.4687 -0.0229
C8 C 0.1993(2) 0.1695(3) -0.0265(2)
H14 H 0.1934 0.2134 -0.0570
H15 H 0.1629 0.1372 -0.0186
H16 H 0.2289 0.1242 -0.0370
C9 C 0.29147(19) 0.3049(3) 0.0199(2)
H17 H 0.3184 0.2656 -0.0009
H18 H 0.3100 0.3262 0.0540
H19 H 0.2807 0.3587 -0.0027
C10 C 0.2504(2) 0.1449(3) 0.08882(19)
H20 H 0.2173 0.1117 0.1045
H21 H 0.2719 0.1757 0.1186
H22 H 0.2758 0.1008 0.0698
C11 C 0.12084(19) 0.1829(3) 0.30121(16)
H23 H 0.0885 0.1534 0.2818
H24 H 0.1075 0.2404 0.3187
H25 H 0.1356 0.1406 0.3297
C12 C 0.2121(2) 0.0931(3) 0.22921(19)
H26 H 0.2201 0.0562 0.2624
H27 H 0.2481 0.1029 0.2087
H28 H 0.1844 0.0599 0.2057
C13 C 0.23925(19) 0.2756(3) 0.28949(18)
H29 H 0.2242 0.3357 0.3019
H30 H 0.2725 0.2857 0.2650
H31 H 0.2514 0.2390 0.3216
C14 C 0.0290(2) 0.0824(3) 0.1747(2)
H32 H 0.0065 0.0248 0.1721
H33 H 0.0028 0.1346 0.1819
H34 H 0.0569 0.0772 0.2050
C15 C 0.0129(3) 0.1002(4) 0.0501(2)
H35 H -0.0057 0.0391 0.0490
H36 H 0.0321 0.1121 0.0147
H37 H -0.0163 0.1482 0.0568
C16 C 0.1186(2) 0.0001(3) 0.0954(3)
H38 H 0.1491 -0.0004 0.1235
H39 H 0.1361 0.0057 0.0586
H40 H 0.0965 -0.0578 0.0975
C17 C 0.00292(13) 0.3485(2) 0.14863(13)
C18 C -0.02952(14) 0.3817(2) 0.19406(14)
H41 H -0.0106 0.3956 0.2279
C19 C -0.08935(17) 0.3943(3) 0.18963(18)
H42 H -0.1102 0.4166 0.2208
C20 C -0.11906(18) 0.3752(3) 0.1412(2)
H43 H -0.1597 0.3836 0.1391
C21 C -0.08771(18) 0.3433(3) 0.09568(19)
H44 H -0.1074 0.3300 0.0621
C22 C -0.02743(16) 0.3305(3) 0.09859(15)
H45 H -0.0069 0.3098 0.0669
C23 C 0.09580(13) 0.34360(19) 0.20411(12)
H46 H 0.0745 0.3080 0.2332
C24 C 0.10396(13) 0.4441(2) 0.22518(12)
C25 C 0.12370(13) 0.4586(2) 0.27963(12)
H47 H 0.1317 0.4065 0.3024
C26 C 0.13179(14) 0.5489(2) 0.30098(12)
C27 C 0.11980(14) 0.6273(2) 0.26847(13)
H48 H 0.1254 0.6880 0.2827
C28 C 0.09923(14) 0.6135(2) 0.21402(13)
C29 C 0.09153(13) 0.5229(2) 0.19241(12)
H49 H 0.0779 0.5150 0.1557
C30 C 0.1547(2) 0.5597(3) 0.35994(15)
C31 C 0.08425(19) 0.6973(2) 0.17837(16)
F2 F 0.0748(10) 0.6783(8) 0.1262(5)
F3 F 0.0383(7) 0.7428(10) 0.1974(6)
F4 F 0.1494(8) 0.6451(7) 0.3795(4)
F5 F 0.1256(4) 0.5034(7) 0.3947(3)
F6 F 0.2093(3) 0.5330(11) 0.3638(5)
F7? F 0.0990(13) 0.6848(15) 0.1265(7)
F8? F 0.0304(6) 0.720(2) 0.1793(15)
F9? F 0.180(2) 0.635(2) 0.3706(13)
F10? F 0.1144(14) 0.557(6) 0.3989(10)
F11? F 0.190(3) 0.496(3) 0.3757(18)
loop_
_geom_bond_atom_site_label_1
_geom_bond_atom_site_label_2
_geom_bond_site_symmetry_1
_geom_bond_site_symmetry_2
Si1 Si5 1_555 1_555
Si2 C1 1_555 1_555
Si3 C1 1_555 1_555
Si4 C4 1_555 1_555
Si5 C14 1_555 1_555
N1 Si1 1_555 1_555
C1 Si1 1_555 1_555
C2 C1 1_555 1_555
H1 C2 1_555 1_555
H2 C2 1_555 1_555
C3 C2 1_555 1_555
H3 C3 1_555 1_555
H4 C3 1_555 1_555
C4 Si1 1_555 1_555
C5 Si2 1_555 1_555
H5 C5 1_555 1_555
H6 C5 1_555 1_555
H7 C5 1_555 1_555
C6 Si2 1_555 1_555
H8 C6 1_555 1_555
H9 C6 1_555 1_555
H10 C6 1_555 1_555
F1 C31 1_555 1_555
C7 Si2 1_555 1_555
H11 C7 1_555 1_555
H12 C7 1_555 1_555
H13 C7 1_555 1_555
C8 Si3 1_555 1_555
H14 C8 1_555 1_555
H15 C8 1_555 1_555
H16 C8 1_555 1_555
C9 Si3 1_555 1_555
H17 C9 1_555 1_555
H18 C9 1_555 1_555
H19 C9 1_555 1_555
C10 Si3 1_555 1_555
H20 C10 1_555 1_555
H21 C10 1_555 1_555
H22 C10 1_555 1_555
C11 Si4 1_555 1_555
H23 C11 1_555 1_555
H24 C11 1_555 1_555
H25 C11 1_555 1_555
C12 Si4 1_555 1_555
H26 C12 1_555 1_555
H27 C12 1_555 1_555
H28 C12 1_555 1_555
C13 Si4 1_555 1_555
H29 C13 1_555 1_555
H30 C13 1_555 1_555
H31 C13 1_555 1_555
C14 H32 1_555 1_555
H33 C14 1_555 1_555
H34 C14 1_555 1_555
C15 Si5 1_555 1_555
H35 C15 1_555 1_555
H36 C15 1_555 1_555
H37 C15 1_555 1_555
C16 Si5 1_555 1_555
H38 C16 1_555 1_555
H39 C16 1_555 1_555
H40 C16 1_555 1_555
C17 N1 1_555 1_555
C18 C17 1_555 1_555
H41 C18 1_555 1_555
C19 C18 1_555 1_555
H42 C19 1_555 1_555
C20 C19 1_555 1_555
H43 C20 1_555 1_555
C21 C20 1_555 1_555
H44 C21 1_555 1_555
C22 C17 1_555 1_555
H45 C22 1_555 1_555
C23 N1 1_555 1_555
H46 C23 1_555 1_555
C24 C23 1_555 1_555
C25 C24 1_555 1_555
H47 C25 1_555 1_555
C26 C25 1_555 1_555
C27 C26 1_555 1_555
H48 C27 1_555 1_555
C28 C27 1_555 1_555
C29 C24 1_555 1_555
H49 C29 1_555 1_555
C30 C26 1_555 1_555
C31 C28 1_555 1_555
F2 C31 1_555 1_555
F3 C31 1_555 1_555
F4 C30 1_555 1_555
F5 C30 1_555 1_555
F6 C30 1_555 1_555
C3 C4 1_555 1_555
C4 C23 1_555 1_555
C21 C22 1_555 1_555
C28 C29 1_555 1_555

#END
