
#######################################################################
#
#                 Cambridge Crystallographic Data Centre
#                                CCDC 
#
#######################################################################
#
# If this CIF has been generated from an entry in the Cambridge 
# Structural Database, then it will include bibliographic, chemical, 
# crystal, experimental, refinement or atomic coordinate data resulting 
# from the CCDC's data processing and validation procedures.
#
#######################################################################

data_TEVGEI
_chemical_formula_moiety         'C29 H51 N1 Si5'
_chemical_name_systematic        
1,2-Diphenyl-4,4,7,7-tetrakis(trimethylsilyl)-1-aza-3-silaspiro[2.4]heptane
_symmetry_cell_setting           triclinic
_symmetry_space_group_name_H-M   'P -1'
_symmetry_Int_Tables_number      2
_space_group_name_Hall           '-P 1'
loop_
_symmetry_equiv_pos_site_id
_symmetry_equiv_pos_as_xyz
1 x,y,z
2 -x,-y,-z
_cell_length_a                   9.9889(8)
_cell_length_b                   10.8412(8)
_cell_length_c                   16.4060(13)
_cell_angle_alpha                81.7450(10)
_cell_angle_beta                 78.7950(10)
_cell_angle_gamma                78.6920(10)
_cell_volume                     1698.63
_exptl_crystal_colour            colorless
_exptl_crystal_description       block
_cell_formula_units_Z            2
loop_
_atom_site_label
_atom_site_type_symbol
_atom_site_fract_x
_atom_site_fract_y
_atom_site_fract_z
Si1 Si 0.28046(5) 0.86373(5) 0.25282(3)
Si2 Si 0.15804(8) 1.10053(7) 0.13270(4)
Si3 Si 0.37447(8) 1.12905(7) 0.24077(5)
Si4 Si 0.31413(7) 0.75172(7) 0.44366(4)
Si5 Si 0.04264(6) 0.74338(6) 0.37746(4)
N1 N 0.29735(17) 0.75918(17) 0.18110(11)
C1 C 0.2668(2) 0.70440(19) 0.11632(13)
C2 C 0.3709(3) 0.6627(2) 0.05156(16)
H1 H 0.4615 0.6733 0.0502
C3 C 0.3394(3) 0.6052(3) -0.01081(17)
H2 H 0.4094 0.5786 -0.0542
C4 C 0.2078(4) 0.5869(3) -0.00995(19)
H3 H 0.1884 0.5471 -0.0518
C5 C 0.1041(3) 0.6280(3) 0.05380(19)
H4 H 0.0139 0.6169 0.0547
C6 C 0.1336(3) 0.6860(2) 0.11663(15)
H5 H 0.0628 0.7128 0.1596
C7 C 0.5412(2) 0.6687(2) 0.21121(13)
C8 C 0.5040(2) 0.5553(2) 0.24826(18)
H6 H 0.4116 0.5458 0.2566
C9 C 0.6020(3) 0.4550(3) 0.2734(2)
H7 H 0.5744 0.3799 0.2996
C10 C 0.7394(3) 0.4657(3) 0.2599(2)
H8 H 0.8050 0.3984 0.2769
C11 C 0.7788(3) 0.5760(3) 0.2213(2)
H9 H 0.8719 0.5834 0.2114
C12 C 0.6815(2) 0.6774(3) 0.19654(17)
H10 H 0.7101 0.7519 0.1700
C13 C 0.0783(6) 1.2712(3) 0.1333(3)
H11 H 0.1432 1.3223 0.1020
H12 H 0.0542 1.2920 0.1899
H13 H -0.0037 1.2872 0.1083
C14 C 0.0154(5) 1.0245(4) 0.1209(3)
H14 H -0.0165 1.0593 0.0695
H15 H -0.0593 1.0393 0.1670
H16 H 0.0473 0.9351 0.1202
C15 C 0.2921(5) 1.0704(6) 0.0382(2)
H17 H 0.3274 0.9813 0.0393
H18 H 0.3664 1.1149 0.0376
H19 H 0.2515 1.0994 -0.0111
C16 C 0.3194(4) 0.5777(3) 0.4707(2)
H20 H 0.3566 0.5354 0.4215
H21 H 0.2273 0.5613 0.4921
H22 H 0.3771 0.5468 0.5123
C17 C 0.4996(3) 0.7723(4) 0.4103(2)
H23 H 0.5494 0.7404 0.4557
H24 H 0.5038 0.8605 0.3951
H25 H 0.5405 0.7264 0.3632
C18 C 0.2510(3) 0.8232(4) 0.54501(17)
H26 H 0.1570 0.8119 0.5658
H27 H 0.2553 0.9119 0.5359
H28 H 0.3085 0.7822 0.5851
C19 C 0.5529(5) 1.0561(6) 0.1928(5)
H29 H 0.6165 1.1119 0.1930
H30 H 0.5530 1.0423 0.1363
H31 H 0.5807 0.9767 0.2244
C20 C 0.3886(7) 1.1478(7) 0.3520(3)
H32 H 0.4082 1.0658 0.3825
H33 H 0.3028 1.1934 0.3786
H34 H 0.4620 1.1937 0.3510
C21 C 0.3523(8) 1.2977(5) 0.1908(5)
H35 H 0.2787 1.3485 0.2245
H36 H 0.3300 1.3009 0.1361
H37 H 0.4369 1.3296 0.1862
C22 C -0.0997(3) 0.8348(3) 0.3225(2)
H38 H -0.1738 0.7874 0.3307
H39 H -0.0647 0.8496 0.2639
H40 H -0.1336 0.9144 0.3449
C23 C 0.0910(3) 0.5834(2) 0.33912(17)
H41 H 0.0087 0.5488 0.3416
H42 H 0.1503 0.5285 0.3737
H43 H 0.1389 0.5909 0.2824
C24 C -0.0429(3) 0.7244(3) 0.48995(18)
H44 H -0.0710 0.8060 0.5101
H45 H 0.0214 0.6724 0.5226
H46 H -0.1226 0.6852 0.4947
C25 C 0.2292(2) 1.04033(19) 0.23371(13)
C26 C 0.1071(2) 1.0639(2) 0.30973(13)
H47 H 0.0965 1.1500 0.3231
H48 H 0.0212 1.0537 0.2944
C27 C 0.1357(2) 0.9710(2) 0.38670(13)
H49 H 0.0502 0.9710 0.4266
H50 H 0.2011 0.9999 0.4130
C28 C 0.1957(2) 0.83132(19) 0.36502(12)
C29 C 0.4376(2) 0.78021(19) 0.18735(13)
H51 H 0.4763 0.8358 0.1398
C30? C 0.4843(16) 1.1484(17) 0.1364(10)
C31? C 0.4848(14) 1.0524(13) 0.3151(10)
C32? C 0.2916(13) 1.2846(10) 0.2752(12)
H52? H 0.5691 1.1728 0.1421
H53? H 0.4358 1.2126 0.1008
H54? H 0.5049 1.0698 0.1124
H55? H 0.5585 1.0988 0.3121
H56? H 0.5232 0.9676 0.3022
H57? H 0.4313 1.0499 0.3705
H58? H 0.2654 1.2762 0.3350
H59? H 0.2106 1.3158 0.2500
H60? H 0.3556 1.3428 0.2586
loop_
_geom_bond_atom_site_label_1
_geom_bond_atom_site_label_2
_geom_bond_site_symmetry_1
_geom_bond_site_symmetry_2
Si1 N1 1_555 1_555
Si2 C13 1_555 1_555
Si3 C19 1_555 1_555
Si4 C16 1_555 1_555
Si5 C22 1_555 1_555
N1 C1 1_555 1_555
C1 C2 1_555 1_555
C2 H1 1_555 1_555
C3 C2 1_555 1_555
H2 C3 1_555 1_555
C4 C3 1_555 1_555
H3 C4 1_555 1_555
C5 C4 1_555 1_555
H4 C5 1_555 1_555
C6 C1 1_555 1_555
H5 C6 1_555 1_555
C7 C8 1_555 1_555
C8 H6 1_555 1_555
C9 C8 1_555 1_555
H7 C9 1_555 1_555
C10 C9 1_555 1_555
H8 C10 1_555 1_555
C11 C10 1_555 1_555
H9 C11 1_555 1_555
C12 C7 1_555 1_555
H10 C12 1_555 1_555
C13 H11 1_555 1_555
H12 C13 1_555 1_555
H13 C13 1_555 1_555
C14 Si2 1_555 1_555
H14 C14 1_555 1_555
H15 C14 1_555 1_555
H16 C14 1_555 1_555
C15 Si2 1_555 1_555
H17 C15 1_555 1_555
H18 C15 1_555 1_555
H19 C15 1_555 1_555
C16 H20 1_555 1_555
H21 C16 1_555 1_555
H22 C16 1_555 1_555
C17 Si4 1_555 1_555
H23 C17 1_555 1_555
H24 C17 1_555 1_555
H25 C17 1_555 1_555
C18 Si4 1_555 1_555
H26 C18 1_555 1_555
H27 C18 1_555 1_555
H28 C18 1_555 1_555
C19 H29 1_555 1_555
H30 C19 1_555 1_555
H31 C19 1_555 1_555
C20 Si3 1_555 1_555
H32 C20 1_555 1_555
H33 C20 1_555 1_555
H34 C20 1_555 1_555
C21 Si3 1_555 1_555
H35 C21 1_555 1_555
H36 C21 1_555 1_555
H37 C21 1_555 1_555
C22 H38 1_555 1_555
H39 C22 1_555 1_555
H40 C22 1_555 1_555
C23 Si5 1_555 1_555
H41 C23 1_555 1_555
H42 C23 1_555 1_555
H43 C23 1_555 1_555
C24 Si5 1_555 1_555
H44 C24 1_555 1_555
H45 C24 1_555 1_555
H46 C24 1_555 1_555
C25 Si1 1_555 1_555
C26 C25 1_555 1_555
H47 C26 1_555 1_555
H48 C26 1_555 1_555
C27 C26 1_555 1_555
H49 C27 1_555 1_555
H50 C27 1_555 1_555
C28 Si1 1_555 1_555
C29 Si1 1_555 1_555
H51 C29 1_555 1_555
Si2 C25 1_555 1_555
Si3 C25 1_555 1_555
Si4 C28 1_555 1_555
Si5 C28 1_555 1_555
N1 C29 1_555 1_555
C5 C6 1_555 1_555
C7 C29 1_555 1_555
C11 C12 1_555 1_555
C27 C28 1_555 1_555

#END
