
#######################################################################
#
#                 Cambridge Crystallographic Data Centre
#                                CCDC 
#
#######################################################################
#
# If this CIF has been generated from an entry in the Cambridge 
# Structural Database, then it will include bibliographic, chemical, 
# crystal, experimental, refinement or atomic coordinate data resulting 
# from the CCDC's data processing and validation procedures.
#
#######################################################################

data_TEVGAE
_chemical_formula_moiety         'C30 H53 N1 O1 Si5'
_chemical_name_systematic        
2-(4-Methoxyphenyl)-1-phenyl-4,4,7,7-tetrakis(trimethylsilyl)-1-aza-3-silaspiro[2.4]heptane
_symmetry_cell_setting           triclinic
_symmetry_space_group_name_H-M   'P -1'
_symmetry_Int_Tables_number      2
_space_group_name_Hall           '-P 1'
loop_
_symmetry_equiv_pos_site_id
_symmetry_equiv_pos_as_xyz
1 x,y,z
2 -x,-y,-z
_cell_length_a                   10.1986(8)
_cell_length_b                   11.4219(9)
_cell_length_c                   16.3207(12)
_cell_angle_alpha                77.5760(10)
_cell_angle_beta                 78.1960(10)
_cell_angle_gamma                71.5880(10)
_cell_volume                     1742.34
_exptl_crystal_colour            colorless
_exptl_crystal_description       block
_cell_formula_units_Z            2
loop_
_atom_site_label
_atom_site_type_symbol
_atom_site_fract_x
_atom_site_fract_y
_atom_site_fract_z
Si1 Si 0.33263(5) 0.80983(5) 0.27300(3)
Si2 Si 0.18712(7) 0.72277(7) 0.45840(4)
Si3 Si 0.46679(7) 1.00361(6) 0.31635(4)
Si4 Si 0.28945(8) 0.53895(6) 0.32531(4)
Si5 Si 0.64680(7) 0.80916(7) 0.19994(4)
C1 C 0.4942(2) 0.84200(19) 0.28953(13)
C2 C 0.3207(2) 0.67407(19) 0.36171(13)
C3 C 0.2758(2) 0.8019(2) 0.09823(13)
C4 C 0.1745(2) 0.9132(2) 0.22578(13)
H1 H 0.0924 0.8819 0.2455
C5 C 0.1374(2) 1.0506(2) 0.19583(13)
C6 C 0.5319(2) 0.7442(2) 0.37186(15)
H2 H 0.6328 0.7142 0.3688
H3 H 0.4948 0.7856 0.4212
C7 C 0.4736(2) 0.6316(2) 0.38300(15)
H4 H 0.4744 0.5884 0.4411
H5 H 0.5332 0.5736 0.3460
C8 C 0.2174(3) 1.1055(2) 0.12918(15)
H6 H 0.2947 1.0549 0.0997
C9 C 0.1512(3) 0.8502(2) 0.06402(16)
H7 H 0.0740 0.9023 0.0927
C10 C 0.3901(3) 0.7262(2) 0.05132(15)
H8 H 0.4755 0.6947 0.0714
C11 C 0.0715(3) 1.3106(2) 0.14736(17)
C12 C 0.1853(3) 1.2347(2) 0.10511(16)
H9 H 0.2412 1.2694 0.0603
C13 C 0.0181(3) 1.1300(2) 0.23499(17)
H10 H -0.0413 1.0962 0.2779
C14 C 0.1414(3) 0.8212(3) -0.01233(18)
H11 H 0.0576 0.8539 -0.0344
C15 C -0.0130(3) 1.2591(2) 0.21057(18)
H12 H -0.0925 1.3107 0.2378
C16 C 0.4944(4) 1.1260(3) 0.2243(2)
H13 H 0.4328 1.1348 0.1846
H14 H 0.5895 1.1022 0.1970
H15 H 0.4751 1.2042 0.2436
C17 C 0.3259(4) 0.3931(3) 0.4060(2)
H16 H 0.2453 0.3948 0.4486
H17 H 0.4042 0.3883 0.4321
H18 H 0.3470 0.3214 0.3788
C18 C 0.2540(4) 0.7448(3) -0.05569(17)
H19 H 0.2462 0.7252 -0.1066
C19 C 0.6077(3) 0.9016(3) 0.09383(16)
H20 H 0.6920 0.8892 0.0537
H21 H 0.5702 0.9887 0.0983
H22 H 0.5406 0.8741 0.0751
C20 C 0.3771(4) 0.6979(3) -0.02415(18)
H23 H 0.4533 0.6462 -0.0537
C21 C 0.5934(4) 0.9948(3) 0.3875(2)
H24 H 0.5665 1.0711 0.4104
H25 H 0.6855 0.9830 0.3556
H26 H 0.5931 0.9258 0.4330
C22 C 0.2873(3) 1.0657(3) 0.3732(2)
H27 H 0.2866 1.1297 0.4031
H28 H 0.2602 0.9991 0.4128
H29 H 0.2229 1.1002 0.3329
C23 C 0.1087(4) 0.5810(3) 0.3001(2)
H30 H 0.0937 0.5100 0.2850
H31 H 0.0964 0.6490 0.2535
H32 H 0.0428 0.6056 0.3489
C24 C 0.4110(4) 0.4918(3) 0.2282(2)
H33 H 0.3828 0.4317 0.2080
H34 H 0.5043 0.4553 0.2416
H35 H 0.4085 0.5640 0.1851
C25 C 0.1306(5) 0.5899(4) 0.5297(2)
H36 H 0.0624 0.6208 0.5759
H37 H 0.2100 0.5292 0.5515
H38 H 0.0903 0.5517 0.4981
C26 C 0.8014(3) 0.8455(4) 0.2229(2)
H39 H 0.8814 0.8162 0.1822
H40 H 0.8203 0.8048 0.2789
H41 H 0.7815 0.9343 0.2194
C27 C 0.2613(4) 0.7777(4) 0.5346(2)
H42 H 0.3088 0.8380 0.5040
H43 H 0.3261 0.7078 0.5629
H44 H 0.1870 0.8155 0.5757
C28 C 0.0264(3) 0.8457(4) 0.4317(2)
H45 H -0.0152 0.8189 0.3940
H46 H 0.0495 0.9215 0.4045
H47 H -0.0384 0.8604 0.4826
C29 C 0.1242(4) 1.4980(3) 0.0701(3)
H48 H 0.2142 1.4712 0.0884
H49 H 0.0874 1.5871 0.0664
H50 H 0.1332 1.4754 0.0154
O1 O 0.0327(2) 1.43961(17) 0.12894(15)
N1 N 0.28817(18) 0.83065(16) 0.17407(11)
C30 C 0.7070(4) 0.6394(3) 0.1905(2)
H51 H 0.6303 0.6142 0.1818
H52 H 0.7412 0.5911 0.2416
H53 H 0.7805 0.6258 0.1433
loop_
_geom_bond_atom_site_label_1
_geom_bond_atom_site_label_2
_geom_bond_site_symmetry_1
_geom_bond_site_symmetry_2
Si1 C1 1_555 1_555
Si2 C2 1_555 1_555
Si3 C1 1_555 1_555
Si4 C2 1_555 1_555
Si5 C1 1_555 1_555
C1 C6 1_555 1_555
C2 Si1 1_555 1_555
C3 C9 1_555 1_555
C4 Si1 1_555 1_555
H1 C4 1_555 1_555
C5 C4 1_555 1_555
C6 H2 1_555 1_555
H3 C6 1_555 1_555
C7 C2 1_555 1_555
H4 C7 1_555 1_555
H5 C7 1_555 1_555
C8 C5 1_555 1_555
H6 C8 1_555 1_555
C9 H7 1_555 1_555
C10 C3 1_555 1_555
H8 C10 1_555 1_555
C11 C12 1_555 1_555
C12 C8 1_555 1_555
H9 C12 1_555 1_555
C13 C5 1_555 1_555
H10 C13 1_555 1_555
C14 C9 1_555 1_555
H11 C14 1_555 1_555
C15 C11 1_555 1_555
H12 C15 1_555 1_555
C16 Si3 1_555 1_555
H13 C16 1_555 1_555
H14 C16 1_555 1_555
H15 C16 1_555 1_555
C17 Si4 1_555 1_555
H16 C17 1_555 1_555
H17 C17 1_555 1_555
H18 C17 1_555 1_555
C18 C14 1_555 1_555
H19 C18 1_555 1_555
C19 Si5 1_555 1_555
H20 C19 1_555 1_555
H21 C19 1_555 1_555
H22 C19 1_555 1_555
C20 C10 1_555 1_555
H23 C20 1_555 1_555
C21 Si3 1_555 1_555
H24 C21 1_555 1_555
H25 C21 1_555 1_555
H26 C21 1_555 1_555
C22 Si3 1_555 1_555
H27 C22 1_555 1_555
H28 C22 1_555 1_555
H29 C22 1_555 1_555
C23 Si4 1_555 1_555
H30 C23 1_555 1_555
H31 C23 1_555 1_555
H32 C23 1_555 1_555
C24 Si4 1_555 1_555
H33 C24 1_555 1_555
H34 C24 1_555 1_555
H35 C24 1_555 1_555
C25 Si2 1_555 1_555
H36 C25 1_555 1_555
H37 C25 1_555 1_555
H38 C25 1_555 1_555
C26 Si5 1_555 1_555
H39 C26 1_555 1_555
H40 C26 1_555 1_555
H41 C26 1_555 1_555
C27 Si2 1_555 1_555
H42 C27 1_555 1_555
H43 C27 1_555 1_555
H44 C27 1_555 1_555
C28 Si2 1_555 1_555
H45 C28 1_555 1_555
H46 C28 1_555 1_555
H47 C28 1_555 1_555
C29 H48 1_555 1_555
H49 C29 1_555 1_555
H50 C29 1_555 1_555
O1 C11 1_555 1_555
N1 Si1 1_555 1_555
C30 Si5 1_555 1_555
H51 C30 1_555 1_555
H52 C30 1_555 1_555
H53 C30 1_555 1_555
C3 N1 1_555 1_555
C4 N1 1_555 1_555
C6 C7 1_555 1_555
C13 C15 1_555 1_555
C18 C20 1_555 1_555
C29 O1 1_555 1_555

#END
