
#######################################################################
#
#                 Cambridge Crystallographic Data Centre
#                                CCDC 
#
#######################################################################
#
# If this CIF has been generated from an entry in the Cambridge 
# Structural Database, then it will include bibliographic, chemical, 
# crystal, experimental, refinement or atomic coordinate data resulting 
# from the CCDC's data processing and validation procedures.
#
#######################################################################

data_TEVGAF
_chemical_formula_moiety         'C13 H14 N4 O3'
_chemical_name_systematic        
N-((4-methylbenzyl)oxy)-1-(1-methyl-5-nitro-1H-imidazol-2-yl)methanimine
_chemical_properties_biological  'trypanocidal activity'
_symmetry_cell_setting           monoclinic
_symmetry_space_group_name_H-M   'P 21/c'
_symmetry_Int_Tables_number      14
_space_group_name_Hall           '-P 2ybc'
loop_
_symmetry_equiv_pos_site_id
_symmetry_equiv_pos_as_xyz
1 x,y,z
2 -x,1/2+y,1/2-z
3 -x,-y,-z
4 x,1/2-y,1/2+z
_cell_length_a                   7.2106(5)
_cell_length_b                   13.7834(10)
_cell_length_c                   13.0568(9)
_cell_angle_alpha                90
_cell_angle_beta                 97.148(2)
_cell_angle_gamma                90
_cell_volume                     1287.59
_exptl_crystal_colour            'light yellow'
_exptl_crystal_description       Block
_cell_formula_units_Z            4
loop_
_atom_site_label
_atom_site_type_symbol
_atom_site_fract_x
_atom_site_fract_y
_atom_site_fract_z
O1 O 0.7512(3) 0.06706(13) 0.52485(14)
O2 O 0.5557(3) -0.47774(13) 0.36440(15)
N1 N 0.7303(3) -0.02194(15) 0.47265(16)
N2 N 0.6740(3) -0.25659(15) 0.57360(16)
N3 N 0.5937(3) -0.22301(15) 0.40533(15)
N4 N 0.5448(3) -0.39115(16) 0.33934(16)
O3 O 0.4980(3) -0.36295(15) 0.25073(15)
C1 C 0.5911(3) -0.32213(17) 0.41913(19)
C2 C 0.8239(4) 0.31882(18) 0.4841(2)
H1 H 0.7658 0.3241 0.4149
C3 C 0.8683(3) 0.22758(18) 0.52547(19)
C4 C 0.9886(4) 0.30517(19) 0.6868(2)
H2 H 1.0441 0.2997 0.7564
C5 C 0.9433(4) 0.39690(18) 0.6451(2)
C6 C 0.8629(4) 0.40213(19) 0.5422(2)
H3 H 0.8346 0.4638 0.5116
C7 C 0.6412(4) -0.34099(19) 0.52151(19)
H4 H 0.6514 -0.4038 0.5516
C8 C 0.8286(4) 0.13799(18) 0.46066(19)
H5 H 0.7384 0.1528 0.3991
H6 H 0.9451 0.1131 0.4373
C9 C 0.9775(4) 0.4878(2) 0.7102(2)
H7 H 0.9789 0.5445 0.6650
H8 H 1.0981 0.4825 0.7536
H9 H 0.8776 0.4952 0.7541
C10 C 0.6744(4) -0.08607(18) 0.5320(2)
H10 H 0.641(4) -0.067(2) 0.600(2)
C11 C 0.6459(3) -0.18726(18) 0.50124(18)
C12 C 0.9530(4) 0.22188(18) 0.6272(2)
H11 H 0.9870 0.1603 0.6563
C13 C 0.5406(4) -0.16723(19) 0.31012(19)
H12 H 0.5589 -0.0979 0.3245
H13 H 0.4090 -0.1795 0.2849
H14 H 0.6187 -0.1872 0.2576
loop_
_geom_bond_atom_site_label_1
_geom_bond_atom_site_label_2
_geom_bond_site_symmetry_1
_geom_bond_site_symmetry_2
O1 N1 1_555 1_555
O2 N4 1_555 1_555
N1 C10 1_555 1_555
N2 C7 1_555 1_555
N3 C1 1_555 1_555
N4 O3 1_555 1_555
C1 N4 1_555 1_555
C2 H1 1_555 1_555
C3 C2 1_555 1_555
C4 H2 1_555 1_555
C5 C4 1_555 1_555
C6 C2 1_555 1_555
H3 C6 1_555 1_555
C7 C1 1_555 1_555
H4 C7 1_555 1_555
C8 O1 1_555 1_555
H5 C8 1_555 1_555
H6 C8 1_555 1_555
C9 C5 1_555 1_555
H7 C9 1_555 1_555
H8 C9 1_555 1_555
H9 C9 1_555 1_555
C10 H10 1_555 1_555
C11 N2 1_555 1_555
C12 C3 1_555 1_555
H11 C12 1_555 1_555
C13 N3 1_555 1_555
H12 C13 1_555 1_555
H13 C13 1_555 1_555
H14 C13 1_555 1_555
N3 C11 1_555 1_555
C3 C8 1_555 1_555
C4 C12 1_555 1_555
C5 C6 1_555 1_555
C10 C11 1_555 1_555

#END
