
#######################################################################
#
#                 Cambridge Crystallographic Data Centre
#                                CCDC 
#
#######################################################################
#
# If this CIF has been generated from an entry in the Cambridge 
# Structural Database, then it will include bibliographic, chemical, 
# crystal, experimental, refinement or atomic coordinate data resulting 
# from the CCDC's data processing and validation procedures.
#
#######################################################################

data_TEVHIN
_chemical_formula_moiety         'C23 H25 N1 O8'
_chemical_name_systematic        
'Methyl 13-(((4-nitrobenzoyl)oxy)methyl)-11-oxo-12-oxatetracyclo[6.5.1.0^1,10^.0^4,8^]tetradecane-10-carboxylate'
_symmetry_cell_setting           triclinic
_symmetry_space_group_name_H-M   'P -1'
_symmetry_Int_Tables_number      2
_space_group_name_Hall           '-P 1'
loop_
_symmetry_equiv_pos_site_id
_symmetry_equiv_pos_as_xyz
1 x,y,z
2 -x,-y,-z
_cell_length_a                   7.109(8)
_cell_length_b                   12.038(14)
_cell_length_c                   13.407(15)
_cell_angle_alpha                111.510(15)
_cell_angle_beta                 90.55(2)
_cell_angle_gamma                96.732(11)
_cell_volume                     1058.36
_exptl_crystal_colour            colorless
_exptl_crystal_description       Prism
_cell_formula_units_Z            2
loop_
_atom_site_label
_atom_site_type_symbol
_atom_site_fract_x
_atom_site_fract_y
_atom_site_fract_z
N1 N 0.7090(6) 1.7651(4) 0.5356(4)
O1 O 0.2817(4) 0.6821(3) 0.1968(2)
O2 O 0.3242(5) 0.8809(3) 0.2926(2)
O3 O 0.1883(4) 0.9348(2) 0.0804(2)
O4 O 0.4692(4) 1.0337(2) 0.1596(2)
O5 O 0.7743(4) 1.2144(3) 0.2543(2)
O6 O 0.8456(5) 1.2089(3) 0.4165(3)
O7 O 0.7112(6) 1.8186(3) 0.4746(3)
O8 O 0.6911(6) 1.8107(3) 0.6322(3)
C1 C 0.4127(5) 0.7176(3) 0.0042(3)
H1 H 0.3547 0.6407 0.0084
H2 H 0.3352 0.7368 -0.0476
C2 C 0.6183(5) 0.7100(3) -0.0291(3)
C3 C 0.6477(6) 0.6567(4) -0.1504(3)
H3 H 0.5576 0.5828 -0.1865
H4 H 0.6304 0.7157 -0.1842
C4 C 0.8534(6) 0.6279(4) -0.1567(3)
H5 H 0.9383 0.6911 -0.1709
H6 H 0.8622 0.5495 -0.2150
C5 C 0.9102(6) 0.6233(4) -0.0470(3)
H7 H 1.0057 0.6926 -0.0064
H8 H 0.9630 0.5478 -0.0565
C6 C 0.7232(5) 0.6290(4) 0.0116(3)
H9 H 0.6498 0.5466 -0.0167
C7 C 0.7422(6) 0.6713(3) 0.1359(3)
H10 H 0.6289 0.6348 0.1606
H11 H 0.8542 0.6409 0.1562
C8 C 0.7627(6) 0.8082(4) 0.1948(3)
H12 H 0.8980 0.8412 0.1990
H13 H 0.7230 0.8263 0.2691
C9 C 0.6453(6) 0.8716(4) 0.1406(3)
C10 C 0.6422(6) 1.0072(4) 0.2054(4)
H14 H 0.6254 1.0199 0.2826
C11 C 0.3422(6) 0.9322(4) 0.1149(3)
C12 C 0.4287(5) 0.8210(3) 0.1167(3)
C13 C 0.3358(6) 0.7827(4) 0.2043(3)
C14 C 0.2475(7) 0.8597(4) 0.3848(3)
H15 H 0.1207 0.8138 0.3648
H16 H 0.2392 0.9370 0.4431
H17 H 0.3307 0.8140 0.4089
C15 C 0.7082(6) 0.8423(4) 0.0261(3)
H18 H 0.8482 0.8503 0.0240
H19 H 0.6582 0.8946 -0.0074
C16 C 0.8009(6) 1.0870(4) 0.1979(4)
H20 H 0.8208 1.0721 0.1214
H21 H 0.9160 1.0703 0.2294
C17 C 0.7989(6) 1.2619(4) 0.3612(4)
C18 C 0.7718(6) 1.3926(4) 0.4054(3)
C19 C 0.7620(5) 1.4569(4) 0.3396(3)
H22 H 0.7678 1.4169 0.2642
C20 C 0.7438(6) 1.5799(4) 0.3812(3)
H23 H 0.7396 1.6245 0.3358
C21 C 0.7321(6) 1.6337(4) 0.4908(3)
C22 C 0.7402(6) 1.5735(4) 0.5595(3)
H24 H 0.7320 1.6140 0.6346
C23 C 0.7606(6) 1.4520(4) 0.5169(3)
H25 H 0.7670 1.4086 0.5631
loop_
_geom_bond_atom_site_label_1
_geom_bond_atom_site_label_2
_geom_bond_site_symmetry_1
_geom_bond_site_symmetry_2
N1 O7 1_555 1_555
O1 C13 1_555 1_555
O2 C13 1_555 1_555
O3 C11 1_555 1_555
O4 C10 1_555 1_555
O5 C16 1_555 1_555
O6 C17 1_555 1_555
O8 N1 1_555 1_555
C1 H1 1_555 1_555
H2 C1 1_555 1_555
C2 C1 1_555 1_555
C3 C2 1_555 1_555
H3 C3 1_555 1_555
H4 C3 1_555 1_555
C4 C3 1_555 1_555
H5 C4 1_555 1_555
H6 C4 1_555 1_555
C5 C4 1_555 1_555
H7 C5 1_555 1_555
H8 C5 1_555 1_555
C6 C2 1_555 1_555
H9 C6 1_555 1_555
C7 C6 1_555 1_555
H10 C7 1_555 1_555
H11 C7 1_555 1_555
C8 C7 1_555 1_555
H12 C8 1_555 1_555
H13 C8 1_555 1_555
C9 C8 1_555 1_555
C10 C9 1_555 1_555
H14 C10 1_555 1_555
C11 O4 1_555 1_555
C12 C1 1_555 1_555
C13 C12 1_555 1_555
C14 O2 1_555 1_555
H15 C14 1_555 1_555
H16 C14 1_555 1_555
H17 C14 1_555 1_555
C15 C2 1_555 1_555
H18 C15 1_555 1_555
H19 C15 1_555 1_555
C16 C10 1_555 1_555
H20 C16 1_555 1_555
H21 C16 1_555 1_555
C17 O5 1_555 1_555
C18 C17 1_555 1_555
C19 C18 1_555 1_555
H22 C19 1_555 1_555
C20 C19 1_555 1_555
H23 C20 1_555 1_555
C21 N1 1_555 1_555
C22 C21 1_555 1_555
H24 C22 1_555 1_555
C23 C18 1_555 1_555
H25 C23 1_555 1_555
C5 C6 1_555 1_555
C9 C12 1_555 1_555
C9 C15 1_555 1_555
C11 C12 1_555 1_555
C20 C21 1_555 1_555
C22 C23 1_555 1_555

#END
