
#######################################################################
#
#                 Cambridge Crystallographic Data Centre
#                                CCDC 
#
#######################################################################
#
# If this CIF has been generated from an entry in the Cambridge 
# Structural Database, then it will include bibliographic, chemical, 
# crystal, experimental, refinement or atomic coordinate data resulting 
# from the CCDC's data processing and validation procedures.
#
#######################################################################

data_TEVHIO
_chemical_formula_moiety         'C18 H16 N2'
_chemical_name_systematic        
N-(2,6-dimethylphenyl)-1-(quinolin-2-yl)methanimine
_symmetry_cell_setting           monoclinic
_symmetry_space_group_name_H-M   'P 21/n'
_symmetry_Int_Tables_number      14
_space_group_name_Hall           '-P 2yn'
loop_
_symmetry_equiv_pos_site_id
_symmetry_equiv_pos_as_xyz
1 x,y,z
2 1/2-x,1/2+y,1/2-z
3 -x,-y,-z
4 1/2+x,1/2-y,1/2+z
_cell_length_a                   13.1018(18)
_cell_length_b                   8.2767(11)
_cell_length_c                   14.528(2)
_cell_angle_alpha                90
_cell_angle_beta                 113.434(2)
_cell_angle_gamma                90
_cell_volume                     1445.47
_exptl_crystal_colour            yellow
_exptl_crystal_description       block
_cell_formula_units_Z            4
loop_
_atom_site_label
_atom_site_type_symbol
_atom_site_fract_x
_atom_site_fract_y
_atom_site_fract_z
N1 N 0.78111(10) 0.23990(15) 0.24561(9)
N2 N 0.86206(10) 0.29675(15) 0.50476(9)
C1 C 0.84829(11) 0.29090(18) 0.33495(10)
C2 C 0.94182(11) 0.3903(2) 0.35118(11)
H1 H 0.9867 0.4253 0.4155
C3 C 0.96478(12) 0.43359(19) 0.27184(12)
H2 H 1.0270 0.4965 0.2815
C4 C 0.89436(11) 0.38340(17) 0.17407(11)
C5 C 0.90884(14) 0.4263(2) 0.08595(13)
H3 H 0.9705 0.4870 0.0908
C6 C 0.83386(16) 0.3803(2) -0.00602(13)
H4 H 0.8441 0.4110 -0.0634
C7 C 0.74167(17) 0.2870(2) -0.01468(13)
H5 H 0.6908 0.2561 -0.0778
C8 C 0.72563(15) 0.2414(2) 0.06767(12)
H6 H 0.6640 0.1790 0.0607
C9 C 0.80164(11) 0.28752(17) 0.16477(11)
C10 C 0.81862(12) 0.23863(19) 0.41772(11)
H7 H 0.7650 0.1585 0.4051
C11 C 0.82641(12) 0.24213(17) 0.58002(10)
C12 C 0.90199(13) 0.1517(2) 0.65941(11)
C13 C 0.87127(18) 0.1055(2) 0.73627(13)
H8 H 0.9202 0.0441 0.7890
C14 C 0.7708(2) 0.1479(3) 0.73642(14)
H9 H 0.7522 0.1167 0.7893
C15 C 0.69798(18) 0.2358(2) 0.65946(16)
H10 H 0.6299 0.2643 0.6607
C16 C 0.72245(14) 0.28500(19) 0.57805(13)
C17 C 1.01181(15) 0.1016(3) 0.65927(14)
H11 H 1.0191 0.1443 0.6007
H12 H 1.0708 0.1427 0.7183
H13 H 1.0159 -0.0141 0.6587
C18 C 0.63862(16) 0.3778(3) 0.49268(17)
H14 H 0.5730 0.3951 0.5055
H15 H 0.6696 0.4802 0.4863
H16 H 0.6196 0.3175 0.4316
loop_
_geom_bond_atom_site_label_1
_geom_bond_atom_site_label_2
_geom_bond_site_symmetry_1
_geom_bond_site_symmetry_2
N1 C1 1_555 1_555
N2 C10 1_555 1_555
C1 C2 1_555 1_555
C2 H1 1_555 1_555
C3 C2 1_555 1_555
H2 C3 1_555 1_555
C4 C3 1_555 1_555
C5 C4 1_555 1_555
H3 C5 1_555 1_555
C6 C5 1_555 1_555
H4 C6 1_555 1_555
C7 C6 1_555 1_555
H5 C7 1_555 1_555
C8 C7 1_555 1_555
H6 C8 1_555 1_555
C9 N1 1_555 1_555
C10 C1 1_555 1_555
H7 C10 1_555 1_555
C11 N2 1_555 1_555
C12 C11 1_555 1_555
C13 C12 1_555 1_555
H8 C13 1_555 1_555
C14 C13 1_555 1_555
H9 C14 1_555 1_555
C15 C14 1_555 1_555
H10 C15 1_555 1_555
C16 C11 1_555 1_555
C17 C12 1_555 1_555
H11 C17 1_555 1_555
H12 C17 1_555 1_555
H13 C17 1_555 1_555
C18 C16 1_555 1_555
H14 C18 1_555 1_555
H15 C18 1_555 1_555
H16 C18 1_555 1_555
C4 C9 1_555 1_555
C8 C9 1_555 1_555
C15 C16 1_555 1_555

#END
