
#######################################################################
#
#                 Cambridge Crystallographic Data Centre
#                                CCDC 
#
#######################################################################
#
# If this CIF has been generated from an entry in the Cambridge 
# Structural Database, then it will include bibliographic, chemical, 
# crystal, experimental, refinement or atomic coordinate data resulting 
# from the CCDC's data processing and validation procedures.
#
#######################################################################

data_TEVJEJ
_chemical_formula_moiety         'C11 H8 Cl6 O2'
_chemical_name_systematic        
1,2,3,4,9,9-Hexachloro-5-hydroxy-1\a,4\a,4a\a,5\a,6,7,8\b,8a\a-octahydro-1,4-methanonaphthalen-8-one
_symmetry_cell_setting           triclinic
_symmetry_space_group_name_H-M   'P -1'
_symmetry_Int_Tables_number      2
_space_group_name_Hall           '-P 1'
loop_
_symmetry_equiv_pos_site_id
_symmetry_equiv_pos_as_xyz
1 x,y,z
2 -x,-y,-z
_cell_length_a                   8.953(1)
_cell_length_b                   9.592(2)
_cell_length_c                   8.543(1)
_cell_angle_alpha                91.94(1)
_cell_angle_beta                 91.55(1)
_cell_angle_gamma                92.49(1)
_cell_volume                     732.237
_exptl_crystal_colour            colorless
_chemical_melting_point          190-191deg.C
_cell_formula_units_Z            2
loop_
_atom_site_label
_atom_site_type_symbol
_atom_site_fract_x
_atom_site_fract_y
_atom_site_fract_z
Cl1 Cl 0.2796(2) 0.4802(2) 0.0389(2)
Cl2 Cl 0.4193(2) 0.1705(2) 0.0134(2)
Cl3 Cl 0.3746(3) 0.0438(3) -0.3604(3)
Cl4 Cl 0.2074(3) 0.2763(3) -0.5705(2)
Cl5 Cl 0.4409(3) 0.4710(3) -0.3170(2)
Cl6 Cl 0.1451(3) 0.5695(2) -0.3236(3)
O1 O 0.0434(6) 0.0265(6) -0.2683(6)
O2 O 0.0735(6) 0.1965(5) 0.0992(5)
C1 C 0.2260(7) 0.3675(7) -0.1186(7)
C2 C 0.3161(7) 0.2358 -0.1332(7)
C3 C 0.2971(8) 0.1858(9) -0.2794(8)
C4 C 0.1960(8) 0.2835(9) -0.3680(7)
C5 C -0.0505(9) 0.1314(8) -0.3243(8)
C6 C -0.1913(9) 0.139(1) -0.230(1)
C7 C -0.1509(8) 0.154(1) -0.0535(9)
C8 C 0.0013(7) 0.2200(7) -0.0193(7)
C9 C 0.2545(8) 0.4244(8) -0.2840(8)
C10 C 0.0583(7) 0.3236(7) -0.1319(7)
C11 C 0.0356(8) 0.2704(8) -0.3085(7)
loop_
_geom_bond_atom_site_label_1
_geom_bond_atom_site_label_2
_geom_bond_site_symmetry_1
_geom_bond_site_symmetry_2
Cl1 C1 1_555 1_555
Cl2 C2 1_555 1_555
Cl3 C3 1_555 1_555
Cl4 C4 1_555 1_555
Cl5 C9 1_555 1_555
Cl6 C9 1_555 1_555
O1 C5 1_555 1_555
O2 C8 1_555 1_555
C1 C2 1_555 1_555
C2 C3 1_555 1_555
C3 C4 1_555 1_555
C4 C9 1_555 1_555
C5 C6 1_555 1_555
C6 C7 1_555 1_555
C7 C8 1_555 1_555
C8 C10 1_555 1_555
C9 C1 1_555 1_555
C10 C1 1_555 1_555
C11 C4 1_555 1_555
C5 C11 1_555 1_555
C10 C11 1_555 1_555

#END
