
#######################################################################
#
#                 Cambridge Crystallographic Data Centre
#                                CCDC 
#
#######################################################################
#
# If this CIF has been generated from an entry in the Cambridge 
# Structural Database, then it will include bibliographic, chemical, 
# crystal, experimental, refinement or atomic coordinate data resulting 
# from the CCDC's data processing and validation procedures.
#
#######################################################################

data_TEVJUA
_chemical_formula_moiety         'C42 H42 N6,0.5(C1 H2 Cl2)'
_chemical_name_systematic        
"1,3,5-tris(2'-((3,5-Dimethylpyrazol-1-yl)methyl)phenyl)benzene dichloromethane solvate"
_symmetry_cell_setting           triclinic
_symmetry_space_group_name_H-M   'P -1'
_symmetry_Int_Tables_number      2
_space_group_name_Hall           '-P 1'
loop_
_symmetry_equiv_pos_site_id
_symmetry_equiv_pos_as_xyz
1 x,y,z
2 -x,-y,-z
_cell_length_a                   11.3556(5)
_cell_length_b                   12.7654(5)
_cell_length_c                   15.4291(7)
_cell_angle_alpha                107.600(3)
_cell_angle_beta                 108.654(3)
_cell_angle_gamma                101.637(4)
_cell_volume                     1906.43
_exptl_crystal_colour            colorless
_exptl_crystal_description       block
_cell_formula_units_Z            2
loop_
_atom_site_label
_atom_site_type_symbol
_atom_site_fract_x
_atom_site_fract_y
_atom_site_fract_z
N1 N 0.29839(17) 1.38667(13) 0.16892(12)
N2 N -0.18113(18) 0.82559(15) 0.18026(13)
C1 C 0.16953(19) 0.92521(16) -0.07323(14)
C2 C 0.15770(19) 0.90198(16) 0.09817(14)
C3 C 0.08236(18) 0.82476(16) -0.08209(14)
N3 N -0.19710(17) 0.83664(15) -0.35246(12)
C4 C 0.24389(19) 1.00198(16) 0.10511(14)
N4 N -0.31721(17) 0.80706(15) -0.34898(12)
N5 N 0.22824(18) 1.41686(15) 0.09620(13)
C5 C 0.0772(2) 0.81470(16) 0.00445(14)
N6 N -0.18252(18) 0.92933(15) 0.23839(13)
C6 C 0.25109(18) 1.01499(15) 0.01989(14)
C7 C 0.1629(2) 0.88436(15) 0.19115(14)
C8 C 0.35183(19) 1.11669(16) 0.02665(14)
C9 C 0.00308(19) 0.72324(16) -0.17980(14)
C10 C 0.3769(2) 1.48021(17) 0.25489(16)
C11 C -0.0818(2) 0.84920(18) -0.26921(15)
C12 C 0.2936(2) 1.26602(17) 0.14404(17)
C13 C 0.2870(2) 0.90618(19) 0.26307(16)
C14 C 0.4266(2) 1.09342(18) -0.02860(16)
C15 C 0.3544(2) 1.57517(18) 0.23684(18)
C16 C -0.07172(19) 0.73265(17) -0.26763(14)
C17 C -0.0865(2) 0.82433(19) 0.13532(16)
C18 C -0.1412(2) 0.63167(19) -0.35428(16)
C19 C 0.3754(2) 1.23302(16) 0.08574(15)
C20 C 0.0511(2) 0.84489(16) 0.20805(14)
C21 C 0.0035(2) 0.61271(18) -0.18257(17)
C22 C -0.2068(2) 0.83808(19) -0.44192(15)
C23 C -0.4029(2) 0.79115(18) -0.43804(16)
C24 C 0.0680(3) 0.82596(19) 0.29528(16)
C25 C 0.2624(2) 1.53236(18) 0.13902(17)
C26 C -0.2667(3) 0.7340(2) 0.17954(17)
C27 C -0.3384(2) 0.8092(2) -0.49819(17)
C28 C 0.5252(2) 1.1810(2) -0.02388(19)
C29 C 0.4738(2) 1.3200(2) 0.0882(2)
C30 C -0.0673(2) 0.51380(19) -0.26934(18)
H1 H -0.0668 0.4410 -0.2695
C31 C 0.3014(3) 0.8868(2) 0.34873(17)
C32 C -0.2716(2) 0.9007(2) 0.27331(17)
C33 C -0.1385(2) 0.5238(2) -0.35559(18)
C34 C 0.4630(3) 1.4705(2) 0.34564(18)
H2 H 0.4095 1.4293 0.3699
H3 H 0.5151 1.5471 0.3960
H4 H 0.5200 1.4291 0.3297
C35 C -0.3257(3) 0.7810(2) 0.23899(18)
H5 H -0.3896 0.7405 0.2535
C36 C 0.1920(3) 0.8457(2) 0.36424(17)
C37 C -0.0899(3) 0.8663(3) -0.46571(19)
H6 H -0.0322 0.9438 -0.4208
H7 H -0.1184 0.8613 -0.5329
H8 H -0.0439 0.8119 -0.4587
C38 C 0.5486(3) 1.2941(2) 0.0346(2)
H9 H 0.6150 1.3537 0.0384
C39 C 0.1985(4) 1.5964(3) 0.0819(3)
C40 C -0.5463(3) 0.7607(3) -0.4604(2)
H10 H -0.5674 0.7142 -0.4254
H11 H -0.5964 0.7176 -0.5307
H12 H -0.5673 0.8308 -0.4395
C41 C -0.3040(3) 0.9938(3) 0.3383(2)
H13 H -0.2261 1.0606 0.3793
H14 H -0.3366 0.9651 0.3798
H15 H -0.3700 1.0153 0.2973
C42 C -0.2834(4) 0.6106(2) 0.1229(2)
H16 H -0.3002 0.5983 0.0549
H17 H -0.3562 0.5598 0.1251
H18 H -0.2045 0.5944 0.1521
H19 H 0.017(2) 0.7422(18) -0.0034(14)
H20 H 0.3038(19) 1.0617(17) 0.1713(15)
H21 H 0.199(2) 0.828(2) 0.4219(19)
H22 H -0.378(2) 0.805(2) -0.5627(19)
H23 H 0.389(2) 1.654(2) 0.2812(18)
H24 H 0.366(2) 0.938(2) 0.2502(17)
H25 H -0.006(2) 0.8943(18) -0.2767(15)
H26 H 0.205(2) 1.2199(19) 0.1052(16)
H27 H -0.088(2) 0.8946(19) -0.2080(17)
H28 H 0.576(3) 1.164(2) -0.0622(19)
H29 H 0.325(2) 1.2553(19) 0.2078(17)
H30 H -0.085(2) 0.882(2) 0.1078(16)
H31 H 0.057(2) 0.6070(19) -0.1194(18)
H32 H 0.490(3) 1.401(2) 0.1310(19)
H33 H -0.124(2) 0.748(2) 0.0815(17)
H34 H 0.385(3) 0.902(2) 0.3965(19)
H35 H -0.193(3) 0.456(2) -0.418(2)
H36 H 0.257(4) 1.658(3) 0.087(3)
H37 H 0.1781(19) 0.9324(16) -0.1330(15)
H38 H 0.408(2) 1.013(2) -0.0708(17)
H39 H -0.197(2) 0.6381(19) -0.4163(18)
H40 H 0.138(4) 1.621(3) 0.109(3)
H41 H 0.140(4) 1.544(3) 0.011(3)
H42 H -0.013(3) 0.801(2) 0.3089(19)
Cl1 Cl 0.1896(6) 0.4791(7) 0.6427(6)
Cl2 Cl 0.1677(4) 0.6814(3) 0.6028(4)
C46 C 0.1970(12) 0.6166(11) 0.6878(14)
C43? C 0.2542(15) 0.692(2) 0.7108(11)
C44? C 0.3385(10) 0.7706(9) 0.7500(5)
C45? C 0.1805(13) 0.5247(18) 0.6060(8)
C47? C 0.2139(14) 0.457(2) 0.6385(11)
C48? C 0.2916(12) 0.7146(12) 0.6863(14)
loop_
_geom_bond_atom_site_label_1
_geom_bond_atom_site_label_2
_geom_bond_site_symmetry_1
_geom_bond_site_symmetry_2
N1 N5 1_555 1_555
N2 N6 1_555 1_555
C1 C3 1_555 1_555
C2 C4 1_555 1_555
C3 C5 1_555 1_555
N3 N4 1_555 1_555
C4 C6 1_555 1_555
N4 C23 1_555 1_555
N5 C25 1_555 1_555
C5 C2 1_555 1_555
N6 C32 1_555 1_555
C6 C1 1_555 1_555
C7 C2 1_555 1_555
C8 C6 1_555 1_555
C9 C3 1_555 1_555
C10 N1 1_555 1_555
C11 N3 1_555 1_555
C12 N1 1_555 1_555
C13 C7 1_555 1_555
C14 C8 1_555 1_555
C15 C10 1_555 1_555
C16 C9 1_555 1_555
C17 N2 1_555 1_555
C18 C16 1_555 1_555
C19 C8 1_555 1_555
C20 C7 1_555 1_555
C21 C9 1_555 1_555
C22 N3 1_555 1_555
C23 C27 1_555 1_555
C24 C20 1_555 1_555
C25 C15 1_555 1_555
C26 N2 1_555 1_555
C27 C22 1_555 1_555
C28 C14 1_555 1_555
C29 C19 1_555 1_555
C30 C21 1_555 1_555
H1 C30 1_555 1_555
C31 C13 1_555 1_555
C32 C35 1_555 1_555
C33 C18 1_555 1_555
C34 C10 1_555 1_555
H2 C34 1_555 1_555
H3 C34 1_555 1_555
H4 C34 1_555 1_555
C35 C26 1_555 1_555
H5 C35 1_555 1_555
C36 C24 1_555 1_555
C37 C22 1_555 1_555
H6 C37 1_555 1_555
H7 C37 1_555 1_555
H8 C37 1_555 1_555
C38 C28 1_555 1_555
H9 C38 1_555 1_555
C39 C25 1_555 1_555
C40 C23 1_555 1_555
H10 C40 1_555 1_555
H11 C40 1_555 1_555
H12 C40 1_555 1_555
C41 C32 1_555 1_555
H13 C41 1_555 1_555
H14 C41 1_555 1_555
H15 C41 1_555 1_555
C42 C26 1_555 1_555
H16 C42 1_555 1_555
H17 C42 1_555 1_555
H18 C42 1_555 1_555
Cl1 C46 1_555 1_555
Cl2 C46 1_555 1_555
H19 C5 1_555 1_555
H20 C4 1_555 1_555
H21 C36 1_555 1_555
H22 C27 1_555 1_555
H23 C15 1_555 1_555
H24 C13 1_555 1_555
H25 C11 1_555 1_555
H26 C12 1_555 1_555
H27 C11 1_555 1_555
H28 C28 1_555 1_555
H29 C12 1_555 1_555
H30 C17 1_555 1_555
H31 C21 1_555 1_555
H32 C29 1_555 1_555
H33 C17 1_555 1_555
H34 C31 1_555 1_555
H35 C33 1_555 1_555
H36 C39 1_555 1_555
H37 C1 1_555 1_555
H38 C14 1_555 1_555
H39 C18 1_555 1_555
H40 C39 1_555 1_555
H41 C39 1_555 1_555
H42 C24 1_555 1_555
C11 C16 1_555 1_555
C12 C19 1_555 1_555
C17 C20 1_555 1_555
C29 C38 1_555 1_555
C30 C33 1_555 1_555
C31 C36 1_555 1_555

#END
