
#######################################################################
#
#                 Cambridge Crystallographic Data Centre
#                                CCDC 
#
#######################################################################
#
# If this CIF has been generated from an entry in the Cambridge 
# Structural Database, then it will include bibliographic, chemical, 
# crystal, experimental, refinement or atomic coordinate data resulting 
# from the CCDC's data processing and validation procedures.
#
#######################################################################

data_TEVJUZ
_chemical_formula_moiety         'C13 H10 Cl4 O5'
_chemical_name_systematic        
6,7-Epoxy-1,2,3,4-tetrachloro-9,9-dimethoxy-1\a,4\a,4a\a,6,7,8a\a-hexahydro-1,4-methanonaphthalen-5,8-dione
_symmetry_cell_setting           monoclinic
_symmetry_space_group_name_H-M   'P 21/c'
_symmetry_Int_Tables_number      14
_space_group_name_Hall           '-P 2ybc'
loop_
_symmetry_equiv_pos_site_id
_symmetry_equiv_pos_as_xyz
1 x,y,z
2 -x,1/2+y,1/2-z
3 -x,-y,-z
4 x,1/2-y,1/2+z
_cell_length_a                   13.3079(9)
_cell_length_b                   12.6729(8)
_cell_length_c                   8.8710(7)
_cell_angle_alpha                90
_cell_angle_beta                 93.608(6)
_cell_angle_gamma                90
_cell_volume                     1493.13
_exptl_crystal_colour            colorless
_chemical_melting_point          269-271deg.C
_cell_formula_units_Z            4
loop_
_atom_site_label
_atom_site_type_symbol
_atom_site_fract_x
_atom_site_fract_y
_atom_site_fract_z
Cl1 Cl 0.96302(9) 0.0608(1) 0.6878(2)
Cl2 Cl 0.8645(1) 0.0512(1) 1.0209(2)
Cl3 Cl 0.6362(1) -0.0679(1) 0.9822(1)
Cl4 Cl 0.5982(1) -0.1495(1) 0.6328(2)
O1 O 0.5100(3) 0.0785(4) 0.7316(5)
O2 O 0.6270(3) 0.2658(3) 0.5045(4)
O3 O 0.8204(3) 0.2529(3) 0.7984(4)
O4 O 0.8048(3) -0.0549(2) 0.4667(4)
O5 O 0.8276(3) -0.1639(3) 0.6763(4)
C1 C 0.8340(3) 0.0351(4) 0.7012(5)
C2 C 0.7998(4) 0.0165(4) 0.8576(5)
C3 C 0.7115(4) -0.0310(4) 0.8422(5)
C4 C 0.6855(3) -0.0479(4) 0.6743(5)
C5 C 0.5743(4) 0.1190(4) 0.6625(6)
C6 C 0.5728(4) 0.2340(5) 0.6318(6)
C7 C 0.6716(5) 0.2893(4) 0.6526(6)
C8 C 0.7597(4) 0.2241(4) 0.7007(6)
C9 C 0.7933(4) -0.0675(4) 0.6184(5)
C10 C 0.7649(4) 0.1186(4) 0.6189(5)
C11 C 0.6608(3) 0.0598(4) 0.6000(5)
C12 C 0.7641(5) -0.1369(5) 0.3673(6)
C13 C 0.9282(5) -0.1946(5) 0.6473(8)
loop_
_geom_bond_atom_site_label_1
_geom_bond_atom_site_label_2
_geom_bond_site_symmetry_1
_geom_bond_site_symmetry_2
Cl1 C1 1_555 1_555
Cl2 C2 1_555 1_555
Cl3 C3 1_555 1_555
Cl4 C4 1_555 1_555
O1 C5 1_555 1_555
O2 C6 1_555 1_555
O3 C8 1_555 1_555
O4 C9 1_555 1_555
O5 C9 1_555 1_555
C1 C2 1_555 1_555
C2 C3 1_555 1_555
C3 C4 1_555 1_555
C4 C9 1_555 1_555
C5 C6 1_555 1_555
C6 C7 1_555 1_555
C7 O2 1_555 1_555
C8 C7 1_555 1_555
C9 C1 1_555 1_555
C10 C1 1_555 1_555
C11 C4 1_555 1_555
C12 O4 1_555 1_555
C13 O5 1_555 1_555
C5 C11 1_555 1_555
C8 C10 1_555 1_555
C10 C11 1_555 1_555

#END
