
#######################################################################
#
#                 Cambridge Crystallographic Data Centre
#                                CCDC 
#
#######################################################################
#
# If this CIF has been generated from an entry in the Cambridge 
# Structural Database, then it will include bibliographic, chemical, 
# crystal, experimental, refinement or atomic coordinate data resulting 
# from the CCDC's data processing and validation procedures.
#
#######################################################################

data_TEVKEK
_chemical_formula_moiety         'C12 H17 Cl3 O4'
_chemical_name_systematic        
anti-3-Methyl-6,8-endo-9-trichloro-1,7,7-trimethoxy-2-oxatricyclo(4.2.1.0^4,8^)nonane
_symmetry_cell_setting           monoclinic
_symmetry_space_group_name_H-M   'P 21/n'
_symmetry_Int_Tables_number      14
_space_group_name_Hall           '-P 2yn'
loop_
_symmetry_equiv_pos_site_id
_symmetry_equiv_pos_as_xyz
1 x,y,z
2 1/2-x,1/2+y,1/2-z
3 -x,-y,-z
4 1/2+x,1/2-y,1/2+z
_cell_length_a                   10.5229(7)
_cell_length_b                   12.1529(9)
_cell_length_c                   12.2878(8)
_cell_angle_alpha                90
_cell_angle_beta                 111.261(5)
_cell_angle_gamma                90
_cell_volume                     1464.46
_exptl_crystal_colour            colorless
_chemical_melting_point          81-82deg.C
_cell_formula_units_Z            4
loop_
_atom_site_label
_atom_site_type_symbol
_atom_site_fract_x
_atom_site_fract_y
_atom_site_fract_z
Cl1 Cl 0.45210(9) -0.20366(9) 0.39870(8)
Cl2 Cl 0.58536(9) 0.11598(8) 0.13248(7)
Cl3 Cl 0.79762(9) -0.15878(9) 0.50828(8)
O1 O 0.7314(2) 0.1220(2) 0.3910(2)
O2 O 0.8364(2) -0.0167(2) 0.3313(2)
O3 O 0.4330(2) 0.0439(2) 0.3257(2)
O4 O 0.3695(2) -0.0511(2) 0.1496(2)
C1 C 0.7165(3) 0.0160(3) 0.3477(3)
C2 C 0.8029(3) -0.0947(3) 0.2362(3)
C3 C 0.6476(3) -0.1029(3) 0.1876(3)
C4 C 0.5915(4) -0.1930(3) 0.2474(3)
C5 C 0.5475(3) -0.1267(3) 0.3318(3)
C6 C 0.4731(3) -0.0270(3) 0.2551(3)
C7 C 0.6008(3) 0.0045(3) 0.2283(3)
C8 C 0.6685(3) -0.0676(3) 0.4224(3)
C9 C 0.8377(4) 0.1357(4) 0.5020(3)
C10 C 0.8667(4) -0.0559(5) 0.1507(3)
C11 C 0.3858(4) 0.1511(3) 0.2791(3)
C12 C 0.2387(4) -0.0769(4) 0.1526(4)
loop_
_geom_bond_atom_site_label_1
_geom_bond_atom_site_label_2
_geom_bond_site_symmetry_1
_geom_bond_site_symmetry_2
Cl1 C5 1_555 1_555
Cl2 C7 1_555 1_555
Cl3 C8 1_555 1_555
O1 C1 1_555 1_555
O2 C1 1_555 1_555
O3 C6 1_555 1_555
O4 C6 1_555 1_555
C1 C7 1_555 1_555
C2 O2 1_555 1_555
C3 C2 1_555 1_555
C4 C3 1_555 1_555
C5 C4 1_555 1_555
C6 C5 1_555 1_555
C7 C3 1_555 1_555
C8 C1 1_555 1_555
C9 O1 1_555 1_555
C10 C2 1_555 1_555
C11 O3 1_555 1_555
C12 O4 1_555 1_555
C5 C8 1_555 1_555
C6 C7 1_555 1_555

#END
