
#######################################################################
#
#                 Cambridge Crystallographic Data Centre
#                                CCDC 
#
#######################################################################
#
# If this CIF has been generated from an entry in the Cambridge 
# Structural Database, then it will include bibliographic, chemical, 
# crystal, experimental, refinement or atomic coordinate data resulting 
# from the CCDC's data processing and validation procedures.
#
#######################################################################

data_TEVKAI
_chemical_name_common            Glutarimidedioxime
_chemical_formula_moiety         'C5 H9 N3 O2'
_chemical_name_systematic        N,N'-Dihydroxypiperidine-2,6-diimine
_symmetry_cell_setting           orthorhombic
_symmetry_space_group_name_H-M   'P b a m'
_symmetry_Int_Tables_number      55
_space_group_name_Hall           '-P 2 2ab'
loop_
_symmetry_equiv_pos_site_id
_symmetry_equiv_pos_as_xyz
1 x,y,z
2 -x,-y,z
3 1/2-x,1/2+y,-z
4 1/2+x,1/2-y,-z
5 -x,-y,-z
6 x,y,-z
7 1/2+x,1/2-y,z
8 1/2-x,1/2+y,z
_cell_length_a                   7.1205(7)
_cell_length_b                   14.1467(13)
_cell_length_c                   13.5789(12)
_cell_angle_alpha                90
_cell_angle_beta                 90
_cell_angle_gamma                90
_cell_volume                     1367.82
_exptl_crystal_colour            colorless
_exptl_crystal_description       lath
_cell_formula_units_Z            8
loop_
_atom_site_label
_atom_site_type_symbol
_atom_site_fract_x
_atom_site_fract_y
_atom_site_fract_z
O1 O 0.68320(14) 0.40570(6) 0.15400(7)
H1 H 0.607(3) 0.3951(16) 0.2105(19)
N1 N 0.73902(16) 0.50098(8) 0.17088(7)
N2 N 0.7586(2) 0.49961(11) 0.0000
H2 H 0.708(4) 0.442(2) 0.0000
C1 C 0.77590(17) 0.54333(9) 0.09002(8)
C2 C 0.83881(19) 0.64519(9) 0.09189(9)
H3 H 0.9776 0.6481 0.0942
H4 H 0.7890 0.6767 0.1515
C3 C 0.7678(3) 0.69618(13) 0.0000
H5 H 0.8133 0.7623 0.0000
H6 H 0.6288 0.6972 0.0000
O1E O 0.68320(14) 0.40570(6) -0.15400(7)
H1E H 0.607(3) 0.3951(16) -0.2105(19)
N1E N 0.73902(16) 0.50098(8) -0.17088(7)
C1E C 0.77590(17) 0.54333(9) -0.09002(8)
C2E C 0.83881(19) 0.64519(9) -0.09189(9)
H3E H 0.9776 0.6481 -0.0942
H4E H 0.7890 0.6767 -0.1515
O2 O 0.69252(13) 0.59167(7) 0.34588(7)
H7 H 0.724(3) 0.5570(17) 0.2942(18)
N3 N 0.50240(16) 0.61691(8) 0.32884(7)
N4 N 0.5028(2) 0.62358(10) 0.5000
H8 H 0.623(4) 0.6023(18) 0.5000
C4 C 0.41580(18) 0.63303(8) 0.41003(8)
C5 C 0.21438(19) 0.66376(10) 0.40796(9)
H9 H 0.1523 0.6378 0.3486
H10 H 0.2078 0.7336 0.4046
C6 C 0.1123(3) 0.62918(14) 0.5000
H11 H 0.1075 0.5592 0.5000
H12 H -0.0182 0.6533 0.5000
O2E O 0.69252(13) 0.59167(7) 0.65412(7)
H7E H 0.724(3) 0.5570(17) 0.7058(18)
N3E N 0.50240(16) 0.61691(8) 0.67116(7)
C4E C 0.41580(18) 0.63303(8) 0.58997(8)
C5E C 0.21438(19) 0.66376(10) 0.59204(9)
H9E H 0.1523 0.6378 0.6514
H10E H 0.2078 0.7336 0.5954
loop_
_geom_bond_atom_site_label_1
_geom_bond_atom_site_label_2
_geom_bond_site_symmetry_1
_geom_bond_site_symmetry_2
O1 H1 1_555 1_555
N1 O1 1_555 1_555
N2 H2 1_555 1_555
C1 N1 1_555 1_555
C2 C1 1_555 1_555
H3 C2 1_555 1_555
H4 C2 1_555 1_555
C3 C2 1_555 1_555
H5 C3 1_555 1_555
H6 C3 1_555 1_555
O2 H7 1_555 1_555
N3 O2 1_555 1_555
N4 H8 1_555 1_555
C4 N3 1_555 1_555
C5 C4 1_555 1_555
H9 C5 1_555 1_555
H10 C5 1_555 1_555
C6 C5 1_555 1_555
H11 C6 1_555 1_555
H12 C6 1_555 1_555
O1E H1E 1_555 1_555
N1E O1E 1_555 1_555
C1E N2 1_555 1_555
C2E C3 1_555 1_555
H3E C2E 1_555 1_555
H4E C2E 1_555 1_555
O2E H7E 1_555 1_555
N3E O2E 1_555 1_555
C4E N4 1_555 1_555
C5E C6 1_555 1_555
H9E C5E 1_555 1_555
H10E C5E 1_555 1_555
N2 C1 1_555 1_555
N4 C4 1_555 1_555
N1E C1E 1_555 1_555
C1E C2E 1_555 1_555
N3E C4E 1_555 1_555
C4E C5E 1_555 1_555

#END
