
#######################################################################
#
#                 Cambridge Crystallographic Data Centre
#                                CCDC 
#
#######################################################################
#
# If this CIF has been generated from an entry in the Cambridge 
# Structural Database, then it will include bibliographic, chemical, 
# crystal, experimental, refinement or atomic coordinate data resulting 
# from the CCDC's data processing and validation procedures.
#
#######################################################################

data_TEVKUC
_chemical_formula_moiety         'C34 H28 N2 O1,C1 H2 Cl2'
_chemical_name_systematic        
'11-(2-Furyl)-5,9-dimethyl-2-(4-methylphenyl)-1-phenyl-6,11-dihydro-2H-indolo[4,3-bc][1]benzazepine dichloromethane solvate'
_symmetry_cell_setting           monoclinic
_symmetry_space_group_name_H-M   'C 2/c'
_symmetry_Int_Tables_number      15
_space_group_name_Hall           '-C 2yn'
loop_
_symmetry_equiv_pos_site_id
_symmetry_equiv_pos_as_xyz
1 x,y,z
2 -x,y,1/2-z
3 1/2+x,1/2+y,z
4 1/2-x,1/2+y,1/2-z
5 -x,-y,-z
6 x,-y,1/2+z
7 1/2-x,1/2-y,-z
8 1/2+x,1/2-y,1/2+z
_cell_length_a                   28.121(7)
_cell_length_b                   9.598(2)
_cell_length_c                   23.181(6)
_cell_angle_alpha                90
_cell_angle_beta                 116.640(3)
_cell_angle_gamma                90
_cell_volume                     5592.48
_exptl_crystal_colour            colorless
_exptl_crystal_description       block
_cell_formula_units_Z            8
loop_
_atom_site_label
_atom_site_type_symbol
_atom_site_fract_x
_atom_site_fract_y
_atom_site_fract_z
N1 N 0.05554(12) 0.5538(3) 0.49198(15)
N2 N 0.17395(12) 0.5633(3) 0.40249(13)
O1 O 0.00889(16) 0.1981(5) 0.39483(18)
C1 C 0.07771(12) 0.4354(3) 0.53104(15)
C2 C 0.07883(15) 0.4319(4) 0.59159(16)
H1 H 0.0657 0.5073 0.6052
C3 C 0.09888(17) 0.3195(4) 0.63157(18)
H2 H 0.0989 0.3198 0.6717
C4 C 0.11940(16) 0.2042(4) 0.61340(18)
C5 C 0.11756(14) 0.2087(4) 0.55307(18)
H3 H 0.1309 0.1333 0.5398
C6 C 0.09666(13) 0.3205(3) 0.51113(15)
C7 C 0.1436(2) 0.0819(5) 0.6576(2)
H4 H 0.1554 0.0142 0.6364
H5 H 0.1175 0.0406 0.6683
H6 H 0.1734 0.1129 0.6964
C8 C 0.09519(13) 0.3108(3) 0.44471(15)
H7 H 0.1133 0.2247 0.4432
C9 C 0.03907(15) 0.3037(4) 0.39266(17)
C10 C 0.01073(18) 0.3818(5) 0.3407(2)
H8 H 0.0223 0.4618 0.3281
C11 C -0.0397(2) 0.3202(8) 0.3089(3)
H9 H -0.0680 0.3516 0.2711
C12 C -0.0395(2) 0.2157(9) 0.3407(3)
H10 H -0.0684 0.1562 0.3294
C13 C 0.12341(12) 0.4297(3) 0.43237(14)
C14 C 0.15901(12) 0.4264(3) 0.40691(15)
C15 C 0.17898(13) 0.3047(3) 0.38677(15)
C16 C 0.14301(15) 0.2054(4) 0.34654(16)
H11 H 0.1067 0.2195 0.3318
C17 C 0.16036(17) 0.0878(4) 0.32848(18)
H12 H 0.1357 0.0232 0.3017
C18 C 0.2133(2) 0.0638(4) 0.3492(2)
H13 H 0.2247 -0.0165 0.3367
C19 C 0.24994(18) 0.1606(5) 0.3891(2)
H14 H 0.2861 0.1448 0.4035
C20 C 0.23316(16) 0.2795(4) 0.4075(2)
H15 H 0.2581 0.3439 0.4340
C21 C 0.20849(13) 0.6108(3) 0.37619(15)
C22 C 0.19451(14) 0.5978(4) 0.31164(16)
H16 H 0.1633 0.5518 0.2846
C23 C 0.22658(16) 0.6527(4) 0.28699(18)
H17 H 0.2169 0.6425 0.2432
C24 C 0.27301(15) 0.7228(4) 0.3256(2)
C25 C 0.28680(16) 0.7314(4) 0.3902(2)
H18 H 0.3185 0.7751 0.4176
C26 C 0.25487(15) 0.6769(4) 0.41575(18)
H19 H 0.2648 0.6851 0.4597
C27 C 0.3071(2) 0.7872(5) 0.2976(3)
H20 H 0.2847 0.8334 0.2579
H21 H 0.3272 0.7156 0.2896
H22 H 0.3310 0.8536 0.3276
C28 C 0.14627(13) 0.6528(4) 0.42310(15)
C29 C 0.11559(12) 0.5715(3) 0.44369(14)
C30 C 0.08287(13) 0.6364(4) 0.46684(15)
C31 C 0.07796(15) 0.7796(4) 0.46373(17)
C32 C 0.10848(15) 0.8563(4) 0.44035(17)
H23 H 0.1048 0.9527 0.4379
C33 C 0.14312(16) 0.7967(4) 0.42118(18)
H24 H 0.1637 0.8503 0.4075
C34 C 0.04161(18) 0.8545(4) 0.4854(2)
H25 H 0.0240 0.7876 0.5000
H26 H 0.0156 0.9066 0.4500
H27 H 0.0621 0.9168 0.5201
H28 H 0.0425(15) 0.599(4) 0.5050(17)
C35? C 0.9877(6) 0.8006(14) 0.2187(5)
Cl1? Cl 0.94940(14) 0.7327(5) 0.2445(2)
Cl2? Cl 0.9945(6) 0.9679(12) 0.2682(10)
loop_
_geom_bond_atom_site_label_1
_geom_bond_atom_site_label_2
_geom_bond_site_symmetry_1
_geom_bond_site_symmetry_2
N1 C1 1_555 1_555
N2 C14 1_555 1_555
O1 C9 1_555 1_555
C1 C2 1_555 1_555
C2 H1 1_555 1_555
C3 C2 1_555 1_555
H2 C3 1_555 1_555
C4 C3 1_555 1_555
C5 C4 1_555 1_555
H3 C5 1_555 1_555
C6 C1 1_555 1_555
C7 C4 1_555 1_555
H4 C7 1_555 1_555
H5 C7 1_555 1_555
H6 C7 1_555 1_555
C8 C6 1_555 1_555
H7 C8 1_555 1_555
C9 C8 1_555 1_555
C10 C9 1_555 1_555
H8 C10 1_555 1_555
C11 C10 1_555 1_555
H9 C11 1_555 1_555
C12 O1 1_555 1_555
H10 C12 1_555 1_555
C13 C8 1_555 1_555
C14 C13 1_555 1_555
C15 C14 1_555 1_555
C16 C15 1_555 1_555
H11 C16 1_555 1_555
C17 C16 1_555 1_555
H12 C17 1_555 1_555
C18 C17 1_555 1_555
H13 C18 1_555 1_555
C19 C18 1_555 1_555
H14 C19 1_555 1_555
C20 C15 1_555 1_555
H15 C20 1_555 1_555
C21 N2 1_555 1_555
C22 C21 1_555 1_555
H16 C22 1_555 1_555
C23 C22 1_555 1_555
H17 C23 1_555 1_555
C24 C23 1_555 1_555
C25 C24 1_555 1_555
H18 C25 1_555 1_555
C26 C21 1_555 1_555
H19 C26 1_555 1_555
C27 C24 1_555 1_555
H20 C27 1_555 1_555
H21 C27 1_555 1_555
H22 C27 1_555 1_555
C28 N2 1_555 1_555
C29 C13 1_555 1_555
C30 N1 1_555 1_555
C31 C30 1_555 1_555
C32 C31 1_555 1_555
H23 C32 1_555 1_555
C33 C28 1_555 1_555
H24 C33 1_555 1_555
C34 C31 1_555 1_555
H25 C34 1_555 1_555
H26 C34 1_555 1_555
H27 C34 1_555 1_555
H28 N1 1_555 1_555
C5 C6 1_555 1_555
C11 C12 1_555 1_555
C19 C20 1_555 1_555
C25 C26 1_555 1_555
C28 C29 1_555 1_555
C29 C30 1_555 1_555
C32 C33 1_555 1_555

#END
