
#######################################################################
#
#                 Cambridge Crystallographic Data Centre
#                                CCDC 
#
#######################################################################
#
# If this CIF has been generated from an entry in the Cambridge 
# Structural Database, then it will include bibliographic, chemical, 
# crystal, experimental, refinement or atomic coordinate data resulting 
# from the CCDC's data processing and validation procedures.
#
#######################################################################

data_TEVPOA
_chemical_formula_moiety         'C18 H14 O4'
_chemical_name_systematic        
1-(2-Furyl)-3-hydroxy-3-(6-methoxy-2-naphthyl)prop-2-en-1-one
_symmetry_cell_setting           monoclinic
_symmetry_space_group_name_H-M   'P 21/c'
_symmetry_Int_Tables_number      14
_space_group_name_Hall           '-P 2ybc'
loop_
_symmetry_equiv_pos_site_id
_symmetry_equiv_pos_as_xyz
1 x,y,z
2 -x,1/2+y,1/2-z
3 -x,-y,-z
4 x,1/2-y,1/2+z
_cell_length_a                   3.9333(7)
_cell_length_b                   10.986(2)
_cell_length_c                   33.046(6)
_cell_angle_alpha                90
_cell_angle_beta                 90.956(3)
_cell_angle_gamma                90
_cell_volume                     1427.76
_exptl_crystal_colour            yellow
_exptl_crystal_description       plate
_chemical_melting_point          '414 K'
_cell_formula_units_Z            4
_exptl_crystal_recrystallization_method dichloromethane/ethanol
loop_
_atom_site_label
_atom_site_type_symbol
_atom_site_fract_x
_atom_site_fract_y
_atom_site_fract_z
C1 C -0.1024(5) 0.8204(2) 0.07103(6)
H1 H -0.3200 0.8265 0.0836
H2 H -0.1319 0.8243 0.0422
H3 H 0.0400 0.8864 0.0800
C2 C 0.1202(4) 0.68768(16) 0.12223(5)
C3 C 0.2824(4) 0.57585(16) 0.13100(5)
H4 H 0.3351 0.5230 0.1100
C4 C 0.3620(4) 0.54479(15) 0.16959(5)
H5 H 0.4690 0.4708 0.1748
C5 C 0.2845(4) 0.62343(14) 0.20230(5)
C6 C 0.1204(4) 0.73537(14) 0.19331(5)
C7 C 0.0410(4) 0.76652(15) 0.15269(5)
H6 H -0.0647 0.8403 0.1467
C8 C 0.0372(4) 0.81324(14) 0.22593(5)
H7 H -0.0703 0.8871 0.2206
C9 C 0.1118(4) 0.78177(14) 0.26490(5)
H8 H 0.0511 0.8337 0.2858
C10 C 0.2809(4) 0.67091(14) 0.27409(5)
C11 C 0.3654(4) 0.59430(14) 0.24279(5)
H9 H 0.4784 0.5218 0.2486
C12 C 0.3712(4) 0.63633(14) 0.31594(5)
C13 C 0.3062(4) 0.70662(15) 0.34963(5)
H10 H 0.1955 0.7810 0.3467
C14 C 0.4078(4) 0.66573(16) 0.38859(5)
C15 C 0.3530(4) 0.74153(16) 0.42410(5)
C16 C 0.4249(5) 0.7246(2) 0.46355(6)
H11 H 0.5212 0.6555 0.4752
C17 C 0.3273(5) 0.8313(2) 0.48400(6)
H12 H 0.3462 0.8462 0.5116
C18 C 0.2027(5) 0.9065(2) 0.45581(6)
H13 H 0.1205 0.9843 0.4609
O1 O 0.0532(3) 0.70755(12) 0.08189(4)
O2 O 0.5271(3) 0.53100(11) 0.31994(4)
H14 H 0.565(6) 0.525(2) 0.3494(7)
O3 O 0.5542(4) 0.56387(12) 0.39448(4)
O4 O 0.2119(3) 0.85424(12) 0.41856(4)
loop_
_geom_bond_atom_site_label_1
_geom_bond_atom_site_label_2
_geom_bond_site_symmetry_1
_geom_bond_site_symmetry_2
C1 H1 1_555 1_555
H2 C1 1_555 1_555
H3 C1 1_555 1_555
C2 C3 1_555 1_555
C3 H4 1_555 1_555
C4 C3 1_555 1_555
H5 C4 1_555 1_555
C5 C4 1_555 1_555
C6 C5 1_555 1_555
C7 C2 1_555 1_555
H6 C7 1_555 1_555
C8 C6 1_555 1_555
H7 C8 1_555 1_555
C9 C8 1_555 1_555
H8 C9 1_555 1_555
C10 C9 1_555 1_555
C11 C5 1_555 1_555
H9 C11 1_555 1_555
C12 C10 1_555 1_555
C13 C12 1_555 1_555
H10 C13 1_555 1_555
C14 C13 1_555 1_555
C15 C14 1_555 1_555
C16 C15 1_555 1_555
H11 C16 1_555 1_555
C17 C16 1_555 1_555
H12 C17 1_555 1_555
C18 C17 1_555 1_555
H13 C18 1_555 1_555
O1 C1 1_555 1_555
O2 C12 1_555 1_555
H14 O2 1_555 1_555
O3 C14 1_555 1_555
O4 C15 1_555 1_555
C2 O1 1_555 1_555
C6 C7 1_555 1_555
C10 C11 1_555 1_555
C18 O4 1_555 1_555

#END
