
#######################################################################
#
#                 Cambridge Crystallographic Data Centre
#                                CCDC 
#
#######################################################################
#
# If this CIF has been generated from an entry in the Cambridge 
# Structural Database, then it will include bibliographic, chemical, 
# crystal, experimental, refinement or atomic coordinate data resulting 
# from the CCDC's data processing and validation procedures.
#
#######################################################################

data_TEVTUK
_chemical_formula_moiety         'C19 H18 N2 O4'
_chemical_name_systematic        
(E,E)-N,N'-bis(3,4-methylenedioxybenzylidene)propane-1,2-diamine
_symmetry_cell_setting           monoclinic
_symmetry_space_group_name_H-M   'P 21/c'
_symmetry_Int_Tables_number      14
_space_group_name_Hall           '-P 2ybc'
loop_
_symmetry_equiv_pos_site_id
_symmetry_equiv_pos_as_xyz
1 x,y,z
2 -x,1/2+y,1/2-z
3 -x,-y,-z
4 x,1/2-y,1/2+z
_cell_length_a                   14.325(3)
_cell_length_b                   5.058(2)
_cell_length_c                   12.250(2)
_cell_angle_alpha                90
_cell_angle_beta                 105.968(2)
_cell_angle_gamma                90
_cell_volume                     853.337
_exptl_crystal_colour            yellow
_exptl_crystal_description       block
_chemical_melting_point          '401 K'
_cell_formula_units_Z            2
_exptl_crystal_recrystallization_method ethanol
loop_
_atom_site_label
_atom_site_type_symbol
_atom_site_fract_x
_atom_site_fract_y
_atom_site_fract_z
N1 N 0.61853(17) 0.8866(5) 0.59208(19)
O1 O 0.90116(12) 0.2061(3) 0.74854(12)
O2 O 0.92816(13) 0.2010(4) 0.94279(13)
C1 C 0.64363(19) 0.8817(6) 0.6983(2)
H1 H 0.6131 0.9965 0.7369
C2 C 0.71890(17) 0.7037(5) 0.76508(19)
C3 C 0.77210(15) 0.5400(4) 0.71201(17)
H2 H 0.7614 0.5403 0.6336
C4 C 0.83968(14) 0.3817(4) 0.77966(17)
C5 C 0.85645(15) 0.3766(5) 0.89600(17)
C6 C 0.8056(2) 0.5290(6) 0.9499(2)
H3 H 0.8165 0.5230 1.0282
C7 C 0.73595(19) 0.6961(6) 0.8818(2)
H4 H 0.7000 0.8055 0.9159
C8 C 0.95755(19) 0.0902(6) 0.8514(2)
H5 H 0.9478 -0.0997 0.8493
H6 H 1.0259 0.1249 0.8611
C9 C 0.5423(2) 1.0743(7) 0.5358(3)
H7 H 0.5230 1.1805 0.5918
C10 C 0.5746(4) 1.2285(12) 0.4580(6)
H9 H 0.6314 1.3256 0.4975
H10 H 0.5243 1.3497 0.4208
H11 H 0.5901 1.1154 0.4025
N1B N 0.38147(17) 1.1134(5) 0.40792(19)
O1B O 0.09884(12) 1.7939(3) 0.25146(12)
O2B O 0.07184(13) 1.7990(4) 0.05721(13)
C1B C 0.35637(19) 1.1183(6) 0.3017(2)
H1B H 0.3869 1.0035 0.2631
C2B C 0.28110(17) 1.2963(5) 0.23492(19)
C3B C 0.22790(15) 1.4600(4) 0.28799(17)
H2B H 0.2386 1.4597 0.3664
C4B C 0.16032(14) 1.6183(4) 0.22034(17)
C5B C 0.14355(15) 1.6234(5) 0.10400(17)
C6B C 0.1944(2) 1.4710(6) 0.0501(2)
H3B H 0.1835 1.4770 -0.0282
C7B C 0.26405(19) 1.3039(6) 0.1182(2)
H4B H 0.3000 1.1945 0.0841
C8B C 0.04245(19) 1.9098(6) 0.1486(2)
H5B H 0.0522 2.0997 0.1507
H6B H -0.0259 1.8751 0.1389
C9B C 0.4577(2) 0.9257(7) 0.4642(3)
H7B H 0.4770 0.8195 0.4082
C10B C 0.4254(4) 0.7715(12) 0.5420(6)
H9B H 0.3686 0.6744 0.5025
H10B H 0.4757 0.6503 0.5792
H11B H 0.4099 0.8846 0.5975
H8? H 0.5674 1.1924 0.4881
loop_
_geom_bond_atom_site_label_1
_geom_bond_atom_site_label_2
_geom_bond_site_symmetry_1
_geom_bond_site_symmetry_2
N1 C1 1_555 1_555
O1 C4 1_555 1_555
O2 C5 1_555 1_555
C1 H1 1_555 1_555
C2 C1 1_555 1_555
C3 C2 1_555 1_555
H2 C3 1_555 1_555
C4 C3 1_555 1_555
C5 C4 1_555 1_555
C6 C5 1_555 1_555
H3 C6 1_555 1_555
C7 C2 1_555 1_555
H4 C7 1_555 1_555
C8 O1 1_555 1_555
H5 C8 1_555 1_555
H6 C8 1_555 1_555
C9 N1 1_555 1_555
H7 C9 1_555 1_555
C10 C9 1_555 1_555
H9 C10 1_555 1_555
H10 C10 1_555 1_555
H11 C10 1_555 1_555
N1B C1B 1_555 1_555
O1B C4B 1_555 1_555
O2B C5B 1_555 1_555
C1B H1B 1_555 1_555
C2B C1B 1_555 1_555
C3B C2B 1_555 1_555
H2B C3B 1_555 1_555
C4B C3B 1_555 1_555
C5B C4B 1_555 1_555
C6B C5B 1_555 1_555
H3B C6B 1_555 1_555
C7B C2B 1_555 1_555
H4B C7B 1_555 1_555
C8B O1B 1_555 1_555
H5B C8B 1_555 1_555
H6B C8B 1_555 1_555
C9B C9 1_555 1_555
H7B C9B 1_555 1_555
C10B C9B 1_555 1_555
H9B C10B 1_555 1_555
H10B C10B 1_555 1_555
H11B C10B 1_555 1_555
O2 C8 1_555 1_555
C6 C7 1_555 1_555
N1B C9B 1_555 1_555
O2B C8B 1_555 1_555
C6B C7B 1_555 1_555

#END
