
#######################################################################
#
#                 Cambridge Crystallographic Data Centre
#                                CCDC 
#
#######################################################################
#
# If this CIF has been generated from an entry in the Cambridge 
# Structural Database, then it will include bibliographic, chemical, 
# crystal, experimental, refinement or atomic coordinate data resulting 
# from the CCDC's data processing and validation procedures.
#
#######################################################################

data_TEVTIY
_chemical_formula_moiety         'C25 H21 Br1 N2 O2'
_chemical_name_systematic        
3,3'-(4-Bromophenylmethanediyl)bis(5-methoxy-1H-indole)
_symmetry_cell_setting           monoclinic
_symmetry_space_group_name_H-M   'P 21/n'
_symmetry_Int_Tables_number      14
_space_group_name_Hall           '-P 2yn'
loop_
_symmetry_equiv_pos_site_id
_symmetry_equiv_pos_as_xyz
1 x,y,z
2 1/2-x,1/2+y,1/2-z
3 -x,-y,-z
4 1/2+x,1/2-y,1/2+z
_cell_length_a                   11.227(2)
_cell_length_b                   10.382(2)
_cell_length_c                   18.246(4)
_cell_angle_alpha                90
_cell_angle_beta                 90.06(3)
_cell_angle_gamma                90
_cell_volume                     2126.73
_exptl_crystal_colour            green
_exptl_crystal_description       Block
_cell_formula_units_Z            4
_exptl_crystal_recrystallization_method methanol
loop_
_atom_site_label
_atom_site_type_symbol
_atom_site_fract_x
_atom_site_fract_y
_atom_site_fract_z
Br1 Br 0.22620(6) 0.77986(6) 0.00859(3)
O1 O -0.4108(3) 0.7727(4) 0.30266(19)
O2 O 0.0988(4) 0.5790(4) 0.63382(18)
N1 N -0.0414(4) 1.0466(4) 0.42014(19)
H1 H -0.0373 1.1188 0.4431
N2 N 0.3954(4) 0.7216(4) 0.4097(2)
H2 H 0.4716 0.7268 0.4062
C1 C -0.3853(5) 0.6656(6) 0.2568(3)
H3 H -0.4585 0.6265 0.2411
H4 H -0.3388 0.6038 0.2835
H5 H -0.3414 0.6942 0.2147
C2 C -0.3152(5) 0.8402(5) 0.3304(2)
C3 C -0.3451(5) 0.9561(5) 0.3654(3)
H6 H -0.4243 0.9821 0.3665
C4 C -0.2611(5) 1.0312(5) 0.3978(3)
H7 H -0.2820 1.1068 0.4220
C5 C -0.1430(5) 0.9919(4) 0.3937(2)
C6 C 0.0529(4) 0.9684(5) 0.4045(2)
H8 H 0.1314 0.9850 0.4178
C7 C 0.0161(4) 0.8634(4) 0.3668(2)
C8 C -0.1099(4) 0.8765(4) 0.3583(2)
C9 C -0.1981(4) 0.8005(5) 0.3256(2)
H9 H -0.1782 0.7248 0.3012
C10 C -0.0236(5) 0.6065(5) 0.6294(3)
H10 H -0.0628 0.5753 0.6726
H11 H -0.0568 0.5652 0.5870
H12 H -0.0348 0.6980 0.6256
C11 C 0.1697(5) 0.6159(5) 0.5759(3)
C12 C 0.2914(6) 0.6094(5) 0.5910(3)
H13 H 0.3161 0.5822 0.6371
C13 C 0.3750(5) 0.6415(5) 0.5402(3)
H14 H 0.4560 0.6370 0.5506
C14 C 0.3327(4) 0.6822(5) 0.4709(3)
C15 C 0.3156(5) 0.7506(5) 0.3558(3)
H15 H 0.3359 0.7786 0.3090
C16 C 0.2022(4) 0.7330(4) 0.3799(2)
C17 C 0.2119(4) 0.6896(4) 0.4546(2)
C18 C 0.1280(4) 0.6547(4) 0.5088(2)
H16 H 0.0467 0.6580 0.4992
C19 C 0.0884(4) 0.7529(4) 0.3377(2)
H17 H 0.0404 0.6750 0.3446
C20 C 0.1143(4) 0.7631(4) 0.2553(2)
C21 C 0.1207(4) 0.6526(5) 0.2125(2)
H18 H 0.1031 0.5732 0.2333
C22 C 0.1528(5) 0.6587(5) 0.1395(3)
H19 H 0.1564 0.5840 0.1114
C23 C 0.1792(4) 0.7754(5) 0.1087(2)
C24 C 0.1732(4) 0.8858(5) 0.1491(2)
H20 H 0.1911 0.9649 0.1278
C25 C 0.1401(4) 0.8789(5) 0.2220(2)
H21 H 0.1352 0.9544 0.2493
loop_
_geom_bond_atom_site_label_1
_geom_bond_atom_site_label_2
_geom_bond_site_symmetry_1
_geom_bond_site_symmetry_2
Br1 C23 1_555 1_555
O1 C1 1_555 1_555
O2 C10 1_555 1_555
N1 H1 1_555 1_555
N2 H2 1_555 1_555
C1 H3 1_555 1_555
H4 C1 1_555 1_555
H5 C1 1_555 1_555
C2 O1 1_555 1_555
C3 C2 1_555 1_555
H6 C3 1_555 1_555
C4 C3 1_555 1_555
H7 C4 1_555 1_555
C5 N1 1_555 1_555
C6 N1 1_555 1_555
H8 C6 1_555 1_555
C7 C6 1_555 1_555
C8 C5 1_555 1_555
C9 C2 1_555 1_555
H9 C9 1_555 1_555
C10 H10 1_555 1_555
H11 C10 1_555 1_555
H12 C10 1_555 1_555
C11 O2 1_555 1_555
C12 C11 1_555 1_555
H13 C12 1_555 1_555
C13 C12 1_555 1_555
H14 C13 1_555 1_555
C14 N2 1_555 1_555
C15 N2 1_555 1_555
H15 C15 1_555 1_555
C16 C15 1_555 1_555
C17 C14 1_555 1_555
C18 C11 1_555 1_555
H16 C18 1_555 1_555
C19 C7 1_555 1_555
H17 C19 1_555 1_555
C20 C19 1_555 1_555
C21 C20 1_555 1_555
H18 C21 1_555 1_555
C22 C21 1_555 1_555
H19 C22 1_555 1_555
C23 C22 1_555 1_555
C24 C23 1_555 1_555
H20 C24 1_555 1_555
C25 C20 1_555 1_555
H21 C25 1_555 1_555
C4 C5 1_555 1_555
C7 C8 1_555 1_555
C8 C9 1_555 1_555
C13 C14 1_555 1_555
C16 C17 1_555 1_555
C16 C19 1_555 1_555
C17 C18 1_555 1_555
C24 C25 1_555 1_555

#END
