
#######################################################################
#
#                 Cambridge Crystallographic Data Centre
#                                CCDC 
#
#######################################################################
#
# If this CIF has been generated from an entry in the Cambridge 
# Structural Database, then it will include bibliographic, chemical, 
# crystal, experimental, refinement or atomic coordinate data resulting 
# from the CCDC's data processing and validation procedures.
#
#######################################################################

data_TEVTAQ
_chemical_formula_moiety         'C16 H23 N2 1+,H2 O1,Cl1 1-'
_chemical_name_systematic        
'N-(2-Pyridylmethyl)adamantan-1-ylammonium chloride monohydrate'
_symmetry_cell_setting           monoclinic
_symmetry_space_group_name_H-M   'P 21/a'
_symmetry_Int_Tables_number      14
_space_group_name_Hall           '-P 2yab'
loop_
_symmetry_equiv_pos_site_id
_symmetry_equiv_pos_as_xyz
1 x,y,z
2 1/2-x,1/2+y,-z
3 -x,-y,-z
4 1/2+x,1/2-y,z
_cell_length_a                   12.6019(6)
_cell_length_b                   7.1780(4)
_cell_length_c                   17.6949(9)
_cell_angle_alpha                90
_cell_angle_beta                 94.783(3)
_cell_angle_gamma                90
_cell_volume                     1595.04
_exptl_crystal_colour            colorless
_exptl_crystal_description       prism
_cell_formula_units_Z            4
loop_
_atom_site_label
_atom_site_type_symbol
_atom_site_fract_x
_atom_site_fract_y
_atom_site_fract_z
C1 C 0.54527(12) 0.2434(2) 1.03701(8)
H1 H 0.4889 0.3120 1.0534
C2 C 0.62635(13) 0.1917(2) 1.08972(8)
H2 H 0.6235 0.2204 1.1408
C3 C 0.71117(13) 0.0973(2) 1.06537(9)
H3 H 0.7678 0.0627 1.0995
C4 C 0.71186(12) 0.0539(2) 0.98938(9)
H4 H 0.7694 -0.0087 0.9715
C5 C 0.62563(11) 0.1050(2) 0.94017(7)
C6 C 0.61545(14) 0.0456(2) 0.85795(8)
H5 H 0.6449 -0.0785 0.8540
H6 H 0.5406 0.0397 0.8402
C7 C 0.67349(11) 0.1155(2) 0.72547(7)
C8 C 0.73446(13) -0.0668(2) 0.71984(8)
H7 H 0.6986 -0.1658 0.7450
H8 H 0.8059 -0.0539 0.7443
C9 C 0.73954(16) -0.1143(3) 0.63520(10)
H9 H 0.7787 -0.2312 0.6305
C10 C 0.79659(18) 0.0423(3) 0.59644(11)
H10 H 0.8683 0.0563 0.6202
H11 H 0.8014 0.0119 0.5434
C11 C 0.73565(17) 0.2234(3) 0.60285(9)
H12 H 0.7721 0.3233 0.5776
C12 C 0.73017(13) 0.2727(3) 0.68660(8)
H13 H 0.8015 0.2889 0.7108
H14 H 0.6916 0.3886 0.6910
C13 C 0.56002(12) 0.0935(3) 0.68880(8)
H15 H 0.5206 0.2084 0.6937
H16 H 0.5237 -0.0052 0.7138
C14 C 0.56604(16) 0.0458(3) 0.60450(9)
H17 H 0.4938 0.0316 0.5801
C15 C 0.62250(18) 0.2026(4) 0.56580(10)
H18 H 0.5838 0.3183 0.5704
H19 H 0.6246 0.1748 0.5123
C16 C 0.62640(18) -0.1367(3) 0.59824(10)
H20 H 0.6286 -0.1703 0.5453
H21 H 0.5902 -0.2355 0.6233
N1 N 0.54342(9) 0.20029(18) 0.96373(6)
N2 N 0.67077(8) 0.17419(17) 0.80799(6)
H22 H 0.7383 0.1885 0.8280
H23 H 0.6390 0.2864 0.8090
O1 O 0.88111(8) 0.1824(2) 0.85766(7)
H24 H 0.9197 0.2302 0.8948
H25 H 0.9251 0.0960 0.8350
Cl1 Cl 0.55171(3) 0.56337(6) 0.79151(2)
loop_
_geom_bond_atom_site_label_1
_geom_bond_atom_site_label_2
_geom_bond_site_symmetry_1
_geom_bond_site_symmetry_2
C1 H1 1_555 1_555
C2 C1 1_555 1_555
H2 C2 1_555 1_555
C3 C2 1_555 1_555
H3 C3 1_555 1_555
C4 C3 1_555 1_555
H4 C4 1_555 1_555
C5 C4 1_555 1_555
C6 C5 1_555 1_555
H5 C6 1_555 1_555
H6 C6 1_555 1_555
C7 C8 1_555 1_555
C8 H7 1_555 1_555
H8 C8 1_555 1_555
C9 C8 1_555 1_555
H9 C9 1_555 1_555
C10 C9 1_555 1_555
H10 C10 1_555 1_555
H11 C10 1_555 1_555
C11 C10 1_555 1_555
H12 C11 1_555 1_555
C12 C7 1_555 1_555
H13 C12 1_555 1_555
H14 C12 1_555 1_555
C13 C7 1_555 1_555
H15 C13 1_555 1_555
H16 C13 1_555 1_555
C14 C13 1_555 1_555
H17 C14 1_555 1_555
C15 C11 1_555 1_555
H18 C15 1_555 1_555
H19 C15 1_555 1_555
C16 C9 1_555 1_555
H20 C16 1_555 1_555
H21 C16 1_555 1_555
N1 C1 1_555 1_555
N2 C6 1_555 1_555
H22 N2 1_555 1_555
H23 N2 1_555 1_555
O1 H24 1_555 1_555
H25 O1 1_555 1_555
C5 N1 1_555 1_555
C7 N2 1_555 1_555
C11 C12 1_555 1_555
C14 C15 1_555 1_555
C14 C16 1_555 1_555

#END
