
#######################################################################
#
#                 Cambridge Crystallographic Data Centre
#                                CCDC 
#
#######################################################################
#
# If this CIF has been generated from an entry in the Cambridge 
# Structural Database, then it will include bibliographic, chemical, 
# crystal, experimental, refinement or atomic coordinate data resulting 
# from the CCDC's data processing and validation procedures.
#
#######################################################################

data_TEVVOG
_chemical_compound_source        'roots of Polygonum cuspidatum Siev. et Zucc'
_chemical_name_common            'emodin monohydrate'
_chemical_formula_moiety         'C15 H10 O5,H2 O1'
_chemical_name_systematic        
'1,3,8-Trihydroxy-6-methylanthraquinone monohydrate'
_chemical_properties_biological  
'dehydrated complex has variety of potent effects including inhibition of growth of the murine leukaemia virus, antimicrobial activity, an immunosuppressive effect and vasorelaxant activity'
_symmetry_cell_setting           monoclinic
_symmetry_space_group_name_H-M   'P 21/c'
_symmetry_Int_Tables_number      14
_space_group_name_Hall           '-P 2ybc'
loop_
_symmetry_equiv_pos_site_id
_symmetry_equiv_pos_as_xyz
1 x,y,z
2 -x,1/2+y,1/2-z
3 -x,-y,-z
4 x,1/2-y,1/2+z
_cell_length_a                   9.570(3)
_cell_length_b                   15.142(3)
_cell_length_c                   9.245(3)
_cell_angle_alpha                90
_cell_angle_beta                 113.140(6)
_cell_angle_gamma                90
_cell_volume                     1231.9
_exptl_crystal_colour            orange
_exptl_crystal_description       block
_chemical_melting_point          '529-530 K'
_cell_formula_units_Z            4
_exptl_crystal_recrystallization_method acetone
loop_
_atom_site_label
_atom_site_type_symbol
_atom_site_fract_x
_atom_site_fract_y
_atom_site_fract_z
O1 O 0.8799(3) 0.07541(14) 0.4666(3)
O2 O 0.8105(3) 0.42744(14) 0.4925(3)
O3 O 0.6639(3) 0.04776(14) 0.5600(3)
H1 H 0.7320 0.0340 0.5281
O4 O 0.4300(3) 0.29036(16) 0.6820(3)
H2 H 0.4309 0.3458 0.6843
O5 O 1.0916(3) 0.09803(15) 0.3627(3)
H3 H 1.0321 0.0689 0.3911
C1 C 0.8635(4) 0.1582(2) 0.4716(4)
C2 C 0.7498(3) 0.1937(2) 0.5229(4)
C3 C 0.7312(3) 0.2851(2) 0.5335(4)
C4 C 0.8276(4) 0.3473(2) 0.4880(4)
C5 C 0.9428(3) 0.3102(2) 0.4353(4)
C6 C 0.9588(3) 0.2178(2) 0.4266(4)
C7 C 0.6544(4) 0.1371(2) 0.5655(4)
C8 C 0.5475(4) 0.1713(2) 0.6169(4)
H4 H 0.4839 0.1326 0.6447
C9 C 0.5336(4) 0.2612(2) 0.6276(4)
C10 C 0.6256(4) 0.3193(2) 0.5851(4)
H5 H 0.6150 0.3814 0.5918
C11 C 1.0683(4) 0.1855(2) 0.3750(4)
C12 C 1.1571(4) 0.2440(2) 0.3304(4)
H6 H 1.2293 0.2213 0.2931
C13 C 1.1417(4) 0.3344(2) 0.3398(4)
C14 C 1.0330(4) 0.3673(2) 0.3925(4)
H7 H 1.0212 0.4293 0.3990
C15 C 1.2403(4) 0.3964(2) 0.2936(4)
H8 H 1.3473 0.3861 0.3615
H9 H 1.2132 0.4575 0.3056
H10 H 1.2247 0.3857 0.1837
O6 O 0.5802(4) 0.53768(19) 0.2925(4)
H11 H 0.654(5) 0.516(4) 0.371(5)
H12 H 0.582(9) 0.528(5) 0.202(4)
loop_
_geom_bond_atom_site_label_1
_geom_bond_atom_site_label_2
_geom_bond_site_symmetry_1
_geom_bond_site_symmetry_2
O1 C1 1_555 1_555
O2 C4 1_555 1_555
O3 H1 1_555 1_555
O4 H2 1_555 1_555
O5 H3 1_555 1_555
C1 C2 1_555 1_555
C2 C3 1_555 1_555
C3 C4 1_555 1_555
C4 C5 1_555 1_555
C5 C6 1_555 1_555
C6 C1 1_555 1_555
C7 O3 1_555 1_555
C8 C7 1_555 1_555
H4 C8 1_555 1_555
C9 O4 1_555 1_555
C10 C3 1_555 1_555
H5 C10 1_555 1_555
C11 O5 1_555 1_555
C12 C11 1_555 1_555
H6 C12 1_555 1_555
C13 C12 1_555 1_555
C14 C5 1_555 1_555
H7 C14 1_555 1_555
C15 C13 1_555 1_555
H8 C15 1_555 1_555
H9 C15 1_555 1_555
H10 C15 1_555 1_555
O6 H11 1_555 1_555
H12 O6 1_555 1_555
C2 C7 1_555 1_555
C6 C11 1_555 1_555
C8 C9 1_555 1_555
C9 C10 1_555 1_555
C13 C14 1_555 1_555

#END
