
#######################################################################
#
#                 Cambridge Crystallographic Data Centre
#                                CCDC 
#
#######################################################################
#
# If this CIF has been generated from an entry in the Cambridge 
# Structural Database, then it will include bibliographic, chemical, 
# crystal, experimental, refinement or atomic coordinate data resulting 
# from the CCDC's data processing and validation procedures.
#
#######################################################################

data_TEVWEX
_chemical_formula_moiety         'C21 H24 N4 O8'
_chemical_name_systematic        
'Diethyl 2,13-dioxo-16,18-dioxa-1,3,12,14-tetraazapentacyclo(10.7.2.0^3,21^.0^5,10^.0^14,20^)undeca-5,7,9-triene-20,21-dicarboxylate'
_symmetry_cell_setting           monoclinic
_symmetry_space_group_name_H-M   'P 21/c'
_symmetry_Int_Tables_number      14
_space_group_name_Hall           '-P 2ybc'
loop_
_symmetry_equiv_pos_site_id
_symmetry_equiv_pos_as_xyz
1 x,y,z
2 -x,1/2+y,1/2-z
3 -x,-y,-z
4 x,1/2-y,1/2+z
_cell_length_a                   8.4954(8)
_cell_length_b                   15.0557(13)
_cell_length_c                   17.2379(16)
_cell_angle_alpha                90
_cell_angle_beta                 91.541(2)
_cell_angle_gamma                90
_cell_volume                     2204
_exptl_crystal_colour            colorless
_exptl_crystal_description       block
_cell_formula_units_Z            4
_exptl_crystal_recrystallization_method dichloroethane/methanol
loop_
_atom_site_label
_atom_site_type_symbol
_atom_site_fract_x
_atom_site_fract_y
_atom_site_fract_z
C1 C 0.0541(3) 0.06890(15) 1.08561(14)
C2 C -0.0688(3) 0.05135(19) 1.13462(17)
H1 H -0.1629 0.0824 1.1282
C3 C -0.0543(4) -0.0113(2) 1.19282(18)
H2 H -0.1384 -0.0228 1.2248
C4 C 0.0847(4) -0.0567(2) 1.20335(18)
H3 H 0.0955 -0.0982 1.2431
C5 C 0.2068(3) -0.04089(17) 1.15567(15)
H4 H 0.3000 -0.0726 1.1629
C6 C 0.1952(3) 0.02168(15) 1.09638(13)
C7 C 0.3346(3) 0.03534(15) 1.04531(15)
H5 H 0.4196 -0.0031 1.0634
H6 H 0.3054 0.0173 0.9929
C8 C 0.0341(3) 0.13723(16) 1.02221(15)
H7 H 0.0414 0.1079 0.9723
H8 H -0.0704 0.1629 1.0249
C9 C 0.1241(3) 0.28863(16) 1.06034(15)
C10 C 0.4920(3) 0.15982(18) 1.10016(16)
C11 C 0.3083(3) 0.19595(14) 1.00258(13)
C12 C 0.3130(3) 0.18132(15) 0.91360(14)
O3 O 0.4406(18) 0.4005(5) 0.9379(8)
O4 O 0.6179(8) 0.2855(5) 0.9560(4)
C15 C 0.7530(12) 0.3173(7) 0.9096(5)
H14 H 0.7743 0.3792 0.9215
H15 H 0.8465 0.2831 0.9233
C16 C 0.7162(15) 0.3076(7) 0.8263(4)
H16 H 0.7099 0.2457 0.8134
H17 H 0.7975 0.3351 0.7971
H18 H 0.6171 0.3357 0.8141
C17 C 0.3917(3) 0.28388(15) 1.03130(14)
C18 C 0.4850(4) 0.33147(19) 0.96881(19)
C19 C 0.2767(4) 0.42308(16) 1.09315(17)
H19 H 0.3560 0.4570 1.0667
H20 H 0.1775 0.4545 1.0869
C20 C 0.6113(3) 0.3055(2) 1.1340(2)
H21 H 0.7013 0.2686 1.1481
H22 H 0.6476 0.3520 1.0999
C21 C 0.4786(4) 0.4271(2) 1.19290(19)
H23 H 0.5304 0.4612 1.1532
H24 H 0.4890 0.4597 1.2413
C22 C 0.2066(19) 0.2439(6) 0.7938(5)
H25 H 0.1041 0.2243 0.7744
H26 H 0.2860 0.2055 0.7723
C23 C 0.2347(13) 0.3376(6) 0.7702(5)
H27 H 0.1549 0.3751 0.7912
H28 H 0.2309 0.3418 0.7146
H29 H 0.3363 0.3564 0.7895
O5 O 0.3929(18) 0.1282(7) 0.8839(13)
O6 O 0.2139(12) 0.2392(5) 0.8791(4)
N1 N 0.1500(2) 0.20809(12) 1.02691(11)
N2 N 0.3929(2) 0.12718(12) 1.04331(11)
N3 N 0.2615(3) 0.33674(13) 1.05653(12)
N4 N 0.4963(3) 0.25166(14) 1.09201(13)
O9 O 0.0013(2) 0.31394(13) 1.08677(14)
O10 O 0.5646(2) 0.11707(13) 1.14815(13)
O11 O 0.3180(2) 0.41891(13) 1.17247(11)
O12 O 0.5545(3) 0.34474(14) 1.20144(12)
O1? O 0.363(3) 0.1156(11) 0.882(3)
O2? O 0.2620(19) 0.2548(7) 0.8790(8)
C13? C 0.271(2) 0.2511(12) 0.7946(8)
H9? H 0.2343 0.1937 0.7760
H10? H 0.3800 0.2580 0.7798
C14? C 0.173(4) 0.324(2) 0.7584(11)
H11? H 0.0761 0.3290 0.7857
H12? H 0.1493 0.3091 0.7050
H13? H 0.2292 0.3786 0.7612
C24? C 0.6589(9) 0.3204(6) 0.8669(5)
H30? H 0.6182 0.3800 0.8591
H31? H 0.6411 0.2873 0.8192
C25? C 0.8305(9) 0.3243(10) 0.8860(8)
H32? H 0.8469 0.3514 0.9360
H33? H 0.8824 0.3588 0.8474
H34? H 0.8731 0.2652 0.8869
O7? O 0.472(2) 0.4130(5) 0.9552(9)
O8? O 0.5759(9) 0.2768(5) 0.9309(5)
loop_
_geom_bond_atom_site_label_1
_geom_bond_atom_site_label_2
_geom_bond_site_symmetry_1
_geom_bond_site_symmetry_2
C1 C2 1_555 1_555
C2 H1 1_555 1_555
C3 C2 1_555 1_555
H2 C3 1_555 1_555
C4 C3 1_555 1_555
H3 C4 1_555 1_555
C5 C4 1_555 1_555
H4 C5 1_555 1_555
C6 C1 1_555 1_555
C7 C6 1_555 1_555
H5 C7 1_555 1_555
H6 C7 1_555 1_555
C8 C1 1_555 1_555
H7 C8 1_555 1_555
H8 C8 1_555 1_555
C9 N1 1_555 1_555
C10 N2 1_555 1_555
C11 C12 1_555 1_555
C12 O5 1_555 1_555
O3 C18 1_555 1_555
O4 C15 1_555 1_555
C15 H14 1_555 1_555
H15 C15 1_555 1_555
C16 C15 1_555 1_555
H16 C16 1_555 1_555
H17 C16 1_555 1_555
H18 C16 1_555 1_555
C17 C11 1_555 1_555
C18 O4 1_555 1_555
C19 H19 1_555 1_555
H20 C19 1_555 1_555
C20 H21 1_555 1_555
H22 C20 1_555 1_555
C21 H23 1_555 1_555
H24 C21 1_555 1_555
C22 H25 1_555 1_555
H26 C22 1_555 1_555
C23 C22 1_555 1_555
H27 C23 1_555 1_555
H28 C23 1_555 1_555
H29 C23 1_555 1_555
O6 C12 1_555 1_555
N1 C8 1_555 1_555
N2 C7 1_555 1_555
N3 C9 1_555 1_555
N4 C10 1_555 1_555
O9 C9 1_555 1_555
O10 C10 1_555 1_555
O11 C19 1_555 1_555
O12 C20 1_555 1_555
C5 C6 1_555 1_555
C11 N1 1_555 1_555
C11 N2 1_555 1_555
C17 C18 1_555 1_555
C17 N3 1_555 1_555
C17 N4 1_555 1_555
C19 N3 1_555 1_555
C20 N4 1_555 1_555
C21 O11 1_555 1_555
C21 O12 1_555 1_555
C22 O6 1_555 1_555

#END
