
#######################################################################
#
#                 Cambridge Crystallographic Data Centre
#                                CCDC 
#
#######################################################################
#
# If this CIF has been generated from an entry in the Cambridge 
# Structural Database, then it will include bibliographic, chemical, 
# crystal, experimental, refinement or atomic coordinate data resulting 
# from the CCDC's data processing and validation procedures.
#
#######################################################################

data_TEVWEY
_chemical_formula_moiety         'C11 H8 Cl1 N3 O1'
_chemical_name_systematic        
3-(5-(Chloromethyl)-1,3,4-oxadiazol-2-yl)-1H-indole
_symmetry_cell_setting           monoclinic
_symmetry_space_group_name_H-M   'P 21/c'
_symmetry_Int_Tables_number      14
_space_group_name_Hall           '-P 2ybc'
loop_
_symmetry_equiv_pos_site_id
_symmetry_equiv_pos_as_xyz
1 x,y,z
2 -x,1/2+y,1/2-z
3 -x,-y,-z
4 x,1/2-y,1/2+z
_cell_length_a                   11.4641(12)
_cell_length_b                   12.3123(13)
_cell_length_c                   7.3605(8)
_cell_angle_alpha                90
_cell_angle_beta                 101.4180(10)
_cell_angle_gamma                90
_cell_volume                     1018.37
_cell_formula_units_Z            4
loop_
_atom_site_label
_atom_site_type_symbol
_atom_site_fract_x
_atom_site_fract_y
_atom_site_fract_z
C1 C 0.44891(8) 0.11746(8) 0.61909(13)
C2 C 0.40803(9) 0.20353(8) 0.49846(13)
H1 H 0.4592 0.2622 0.4834
C3 C 0.29124(9) 0.20115(9) 0.40159(14)
H2 H 0.2625 0.2584 0.3182
C4 C 0.21480(9) 0.11511(9) 0.42503(14)
H3 H 0.1349 0.1162 0.3583
C5 C 0.25292(9) 0.02870(9) 0.54289(14)
H4 H 0.2010 -0.0292 0.5584
C6 C 0.37112(8) 0.03095(8) 0.63753(13)
C7 C 0.54827(8) -0.01109(8) 0.81148(13)
H5 H 0.6093 -0.0500 0.8916
C8 C 0.56189(8) 0.08923(7) 0.73388(13)
C9 C 0.66941(8) 0.15141(8) 0.76280(13)
C10 C 0.85166(8) 0.18829(8) 0.86740(13)
C11 C 0.97540(9) 0.16949(9) 0.96507(14)
H6 H 0.9755 0.1291 1.0814
H7 H 1.0157 0.2400 0.9974
Cl1 Cl 1.05431(2) 0.09301(2) 0.81950(4)
N1 N 0.43434(7) -0.04545(7) 0.75566(11)
H8 H 0.4102(13) -0.1065(12) 0.782(2)
N2 N 0.68766(7) 0.24904(7) 0.70443(12)
N3 N 0.80874(7) 0.27279(7) 0.77454(12)
O1 O 0.77020(6) 0.10757(6) 0.86670(10)
loop_
_geom_bond_atom_site_label_1
_geom_bond_atom_site_label_2
_geom_bond_site_symmetry_1
_geom_bond_site_symmetry_2
C1 C2 1_555 1_555
C2 H1 1_555 1_555
C3 C2 1_555 1_555
H2 C3 1_555 1_555
C4 C3 1_555 1_555
H3 C4 1_555 1_555
C5 C4 1_555 1_555
H4 C5 1_555 1_555
C6 C1 1_555 1_555
C7 H5 1_555 1_555
C8 C1 1_555 1_555
C9 C8 1_555 1_555
C10 C11 1_555 1_555
C11 H6 1_555 1_555
H7 C11 1_555 1_555
Cl1 C11 1_555 1_555
N1 C6 1_555 1_555
H8 N1 1_555 1_555
N2 C9 1_555 1_555
N3 C10 1_555 1_555
O1 C9 1_555 1_555
C5 C6 1_555 1_555
C7 C8 1_555 1_555
C7 N1 1_555 1_555
C10 O1 1_555 1_555
N2 N3 1_555 1_555

#END
