
#######################################################################
#
#                 Cambridge Crystallographic Data Centre
#                                CCDC 
#
#######################################################################
#
# If this CIF has been generated from an entry in the Cambridge 
# Structural Database, then it will include bibliographic, chemical, 
# crystal, experimental, refinement or atomic coordinate data resulting 
# from the CCDC's data processing and validation procedures.
#
#######################################################################

data_TEVXID
_chemical_formula_moiety         'C16 H14 Br2 N2 O4'
_chemical_name_systematic        
'Benzyl (2,2-dibromo-2-nitro-1-phenylethyl)carbamate'
_symmetry_cell_setting           monoclinic
_symmetry_space_group_name_H-M   'C 2/c'
_symmetry_Int_Tables_number      15
_space_group_name_Hall           '-C 2yn'
loop_
_symmetry_equiv_pos_site_id
_symmetry_equiv_pos_as_xyz
1 x,y,z
2 -x,y,1/2-z
3 1/2+x,1/2+y,z
4 1/2-x,1/2+y,1/2-z
5 -x,-y,-z
6 x,-y,1/2+z
7 1/2-x,1/2-y,-z
8 1/2+x,1/2-y,1/2+z
_cell_length_a                   25.383(8)
_cell_length_b                   21.318(7)
_cell_length_c                   15.956(5)
_cell_angle_alpha                90
_cell_angle_beta                 123.863(4)
_cell_angle_gamma                90
_cell_volume                     7169.46
_exptl_crystal_colour            colorless
_exptl_crystal_description       block
_chemical_melting_point          '86-87 deg.C'
_cell_formula_units_Z            16
loop_
_atom_site_label
_atom_site_type_symbol
_atom_site_fract_x
_atom_site_fract_y
_atom_site_fract_z
Br1 Br 0.62653(3) -0.03452(3) 0.62441(5)
Br2 Br 0.61782(3) 0.10555(3) 0.56088(5)
O1 O 0.81384(18) 0.06183(17) 0.6442(3)
O2 O 0.73983(18) 0.09569(16) 0.4872(3)
O3 O 0.5236(2) 0.0479(2) 0.3603(3)
O4 O 0.5130(2) -0.0333(2) 0.4265(3)
N1 N 0.5407(2) 0.0114(2) 0.4255(4)
N2 N 0.7197(2) 0.01884(19) 0.5630(3)
H1 H 0.7352 -0.0035 0.6167
C1 C 0.6212(4) -0.1685(3) 0.3322(5)
H2 H 0.6139 -0.2066 0.2988
C2 C 0.5890(4) -0.1167(3) 0.2801(5)
H3 H 0.5586 -0.1196 0.2110
C3 C 0.6006(3) -0.0597(3) 0.3279(4)
H4 H 0.5796 -0.0240 0.2903
C4 C 0.6426(3) -0.0551(2) 0.4295(4)
C5 C 0.6759(3) -0.1081(3) 0.4833(4)
H5 H 0.7060 -0.1054 0.5525
C6 C 0.6647(4) -0.1650(3) 0.4346(5)
H6 H 0.6865 -0.2007 0.4710
C7 C 0.6547(3) 0.0080(2) 0.4807(4)
H7 H 0.6442 0.0400 0.4295
C8 C 0.8615(3) 0.1005(3) 0.6462(5)
H8 H 0.8477 0.1439 0.6324
H9 H 0.8685 0.0864 0.5953
C9 C 0.9211(3) 0.0947(3) 0.7486(4)
C10 C 0.9460(3) 0.0369(3) 0.7891(6)
H10 H 0.9262 0.0005 0.7528
C11 C 1.0027(4) 0.0336(4) 0.8878(6)
H11 H 1.0194 -0.0053 0.9170
C12 C 1.0322(4) 0.0860(5) 0.9389(6)
H12 H 1.0699 0.0836 1.0024
C13 C 1.0066(4) 0.1421(4) 0.8975(6)
H13 H 1.0268 0.1784 0.9337
C14 C 0.9522(3) 0.1472(3) 0.8045(5)
H14 H 0.9357 0.1867 0.7782
C15 C 0.7570(3) 0.0613(2) 0.5602(4)
C16 C 0.6103(2) 0.0199(2) 0.5187(4)
Br3 Br 0.77766(4) 0.26294(3) 0.42439(5)
Br4 Br 0.73585(4) 0.30482(3) 0.20671(5)
O5 O 0.8826(3) 0.2470(2) 0.4036(4)
O6 O 0.8395(2) 0.2009(2) 0.2626(4)
O7 O 0.78349(17) 0.06870(15) 0.2326(3)
O8 O 0.80360(18) 0.03112(14) 0.3798(3)
N3 N 0.7646(2) 0.12674(16) 0.3315(3)
H15 H 0.7715 0.1303 0.3905
N4 N 0.8383(3) 0.2274(2) 0.3270(5)
C17 C 0.5338(3) 0.1876(3) 0.1426(7)
H16 H 0.4908 0.1895 0.1171
C18 C 0.5766(4) 0.1720(3) 0.2407(6)
H17 H 0.5620 0.1623 0.2812
C19 C 0.6411(3) 0.1701(2) 0.2822(5)
H18 H 0.6697 0.1603 0.3500
C20 C 0.6621(3) 0.1829(2) 0.2214(4)
C21 C 0.6190(3) 0.1984(3) 0.1214(4)
H19 H 0.6335 0.2075 0.0805
C22 C 0.5548(4) 0.2006(3) 0.0810(5)
H20 H 0.5261 0.2106 0.0134
C23 C 0.7324(3) 0.1765(2) 0.2588(4)
H21 H 0.7335 0.1659 0.2000
C24 C 0.7838(2) 0.0748(2) 0.3078(4)
C25 C 0.8186(3) -0.0288(2) 0.3555(4)
H22 H 0.8482 -0.0233 0.3360
H23 H 0.7804 -0.0483 0.2998
C26 C 0.8475(3) -0.0696(2) 0.4481(4)
C27 C 0.8227(3) -0.0724(3) 0.5063(5)
H24 H 0.7876 -0.0481 0.4891
C28 C 0.8495(4) -0.1109(3) 0.5892(6)
H25 H 0.8324 -0.1125 0.6277
C29 C 0.9001(4) -0.1461(3) 0.6150(5)
H26 H 0.9184 -0.1717 0.6718
C30 C 0.9249(3) -0.1444(3) 0.5575(6)
H27 H 0.9594 -0.1695 0.5745
C31 C 0.8988(3) -0.1059(3) 0.4757(5)
H28 H 0.9165 -0.1045 0.4380
C32 C 0.7702(3) 0.2379(2) 0.3032(4)
loop_
_geom_bond_atom_site_label_1
_geom_bond_atom_site_label_2
_geom_bond_site_symmetry_1
_geom_bond_site_symmetry_2
Br1 C16 1_555 1_555
Br2 C16 1_555 1_555
O1 C8 1_555 1_555
O2 C15 1_555 1_555
O3 N1 1_555 1_555
O4 N1 1_555 1_555
N1 C16 1_555 1_555
N2 H1 1_555 1_555
C1 H2 1_555 1_555
C2 C1 1_555 1_555
H3 C2 1_555 1_555
C3 C2 1_555 1_555
H4 C3 1_555 1_555
C4 C3 1_555 1_555
C5 C4 1_555 1_555
H5 C5 1_555 1_555
C6 C1 1_555 1_555
H6 C6 1_555 1_555
C7 N2 1_555 1_555
H7 C7 1_555 1_555
C8 H8 1_555 1_555
H9 C8 1_555 1_555
C9 C8 1_555 1_555
C10 C9 1_555 1_555
H10 C10 1_555 1_555
C11 C10 1_555 1_555
H11 C11 1_555 1_555
C12 C11 1_555 1_555
H12 C12 1_555 1_555
C13 C12 1_555 1_555
H13 C13 1_555 1_555
C14 C9 1_555 1_555
H14 C14 1_555 1_555
C15 O1 1_555 1_555
C16 C7 1_555 1_555
Br3 C32 1_555 1_555
Br4 C32 1_555 1_555
O5 N4 1_555 1_555
O6 N4 1_555 1_555
O7 C24 1_555 1_555
O8 C24 1_555 1_555
N3 H15 1_555 1_555
N4 C32 1_555 1_555
C17 H16 1_555 1_555
C18 C17 1_555 1_555
H17 C18 1_555 1_555
C19 C18 1_555 1_555
H18 C19 1_555 1_555
C20 C19 1_555 1_555
C21 C20 1_555 1_555
H19 C21 1_555 1_555
C22 C17 1_555 1_555
H20 C22 1_555 1_555
C23 N3 1_555 1_555
H21 C23 1_555 1_555
C24 N3 1_555 1_555
C25 O8 1_555 1_555
H22 C25 1_555 1_555
H23 C25 1_555 1_555
C26 C25 1_555 1_555
C27 C26 1_555 1_555
H24 C27 1_555 1_555
C28 C27 1_555 1_555
H25 C28 1_555 1_555
C29 C28 1_555 1_555
H26 C29 1_555 1_555
C30 C29 1_555 1_555
H27 C30 1_555 1_555
C31 C26 1_555 1_555
H28 C31 1_555 1_555
C32 C23 1_555 1_555
N2 C15 1_555 1_555
C4 C7 1_555 1_555
C5 C6 1_555 1_555
C13 C14 1_555 1_555
C20 C23 1_555 1_555
C21 C22 1_555 1_555
C30 C31 1_555 1_555

#END
