
#######################################################################
#
#                 Cambridge Crystallographic Data Centre
#                                CCDC 
#
#######################################################################
#
# If this CIF has been generated from an entry in the Cambridge 
# Structural Database, then it will include bibliographic, chemical, 
# crystal, experimental, refinement or atomic coordinate data resulting 
# from the CCDC's data processing and validation procedures.
#
#######################################################################

data_TEWBEE
_chemical_formula_moiety         'C18 H26 N2 O1'
_chemical_name_systematic        
1,3,4,6a,8,9,9a,9b,10,10a,11,14a-Dodecahydro-2H,6H-cyclopenta[5,6]pyrido[3,2,1-ij]pyrido[2,1-b]quinazolin-12(7H)-one
_symmetry_cell_setting           orthorhombic
_symmetry_space_group_name_H-M   'P 21 21 21'
_symmetry_Int_Tables_number      19
_space_group_name_Hall           'P 2ac 2ab'
loop_
_symmetry_equiv_pos_site_id
_symmetry_equiv_pos_as_xyz
1 x,y,z
2 1/2+x,1/2-y,-z
3 -x,1/2+y,1/2-z
4 1/2-x,-y,1/2+z
_cell_length_a                   6.3850(2)
_cell_length_b                   8.7697(2)
_cell_length_c                   27.5194(7)
_cell_angle_alpha                90
_cell_angle_beta                 90
_cell_angle_gamma                90
_cell_volume                     1540.94
_exptl_crystal_colour            colorless
_exptl_crystal_description       piece
_cell_formula_units_Z            4
loop_
_atom_site_label
_atom_site_type_symbol
_atom_site_fract_x
_atom_site_fract_y
_atom_site_fract_z
O1 O 1.04539(19) 0.55836(13) 0.21992(4)
C1 C 0.8948(2) 0.56902(16) 0.24768(5)
C2 C 0.8438(3) 0.47210(16) 0.28818(5)
H1 H 0.9248 0.3877 0.2989
C3 C 0.6602(2) 0.52031(15) 0.30890(5)
N1 N 0.5703(2) 0.47196(13) 0.35059(4)
C4 C 0.6858(2) 0.36256(15) 0.38099(5)
H2 H 0.8391 0.3839 0.3781
N2 N 0.6220(2) 0.38366(13) 0.43204(4)
C5 C 0.7482(3) 0.28351(17) 0.46310(5)
H3 H 0.7094 0.3003 0.4975
H4 H 0.8981 0.3097 0.4593
C6 C 0.7157(3) 0.11626(17) 0.45028(6)
H5 H 0.5681 0.0874 0.4564
H6 H 0.8062 0.0518 0.4711
C7 C 0.7315(3) 0.69587(17) 0.24513(5)
H7 H 0.6823 0.7108 0.2114
H8 H 0.7897 0.7932 0.2574
C8 C 0.5528(2) 0.63983(16) 0.27778(5)
H9 H 0.4493 0.5860 0.2566
C9 C 0.4330(3) 0.75628(16) 0.30790(5)
H10 H 0.3521 0.8253 0.2865
H11 H 0.5310 0.8183 0.3276
C10 C 0.2852(3) 0.66574(16) 0.34105(5)
H12 H 0.1999 0.5979 0.3196
C11 C 0.4076(2) 0.56204(16) 0.37546(5)
H13 H 0.3063 0.4893 0.3907
C12 C 0.5156(3) 0.65119(16) 0.41638(5)
H14 H 0.6109 0.7276 0.4009
C13 C 0.6517(3) 0.54241(16) 0.44684(5)
H15 H 0.8010 0.5704 0.4430
H16 H 0.6148 0.5534 0.4816
C14 C 0.6446(3) 0.19951(16) 0.36527(5)
H17 H 0.6854 0.1866 0.3308
H18 H 0.4933 0.1768 0.3682
C15 C 0.7693(3) 0.08926(17) 0.39683(5)
H19 H 0.9211 0.1052 0.3916
H20 H 0.7349 -0.0171 0.3878
C16 C 0.3528(3) 0.73886(17) 0.44583(5)
H21 H 0.4232 0.7974 0.4719
H22 H 0.2543 0.6663 0.4612
C17 C 0.2318(3) 0.84813(18) 0.41266(6)
H23 H 0.1218 0.9005 0.4318
H24 H 0.3286 0.9267 0.3999
C18 C 0.1307(3) 0.76325(17) 0.37023(5)
H25 H 0.0650 0.8385 0.3482
H26 H 0.0182 0.6966 0.3830
loop_
_geom_bond_atom_site_label_1
_geom_bond_atom_site_label_2
_geom_bond_site_symmetry_1
_geom_bond_site_symmetry_2
O1 C1 1_555 1_555
C1 C2 1_555 1_555
C2 H1 1_555 1_555
C3 C2 1_555 1_555
N1 C3 1_555 1_555
C4 N1 1_555 1_555
H2 C4 1_555 1_555
N2 C4 1_555 1_555
C5 N2 1_555 1_555
H3 C5 1_555 1_555
H4 C5 1_555 1_555
C6 C5 1_555 1_555
H5 C6 1_555 1_555
H6 C6 1_555 1_555
C7 C1 1_555 1_555
H7 C7 1_555 1_555
H8 C7 1_555 1_555
C8 C3 1_555 1_555
H9 C8 1_555 1_555
C9 C8 1_555 1_555
H10 C9 1_555 1_555
H11 C9 1_555 1_555
C10 C9 1_555 1_555
H12 C10 1_555 1_555
C11 N1 1_555 1_555
H13 C11 1_555 1_555
C12 C11 1_555 1_555
H14 C12 1_555 1_555
C13 N2 1_555 1_555
H15 C13 1_555 1_555
H16 C13 1_555 1_555
C14 C4 1_555 1_555
H17 C14 1_555 1_555
H18 C14 1_555 1_555
C15 C6 1_555 1_555
H19 C15 1_555 1_555
H20 C15 1_555 1_555
C16 C12 1_555 1_555
H21 C16 1_555 1_555
H22 C16 1_555 1_555
C17 C16 1_555 1_555
H23 C17 1_555 1_555
H24 C17 1_555 1_555
C18 C10 1_555 1_555
H25 C18 1_555 1_555
H26 C18 1_555 1_555
C7 C8 1_555 1_555
C10 C11 1_555 1_555
C12 C13 1_555 1_555
C14 C15 1_555 1_555
C17 C18 1_555 1_555

#END
