
#######################################################################
#
#                 Cambridge Crystallographic Data Centre
#                                CCDC 
#
#######################################################################
#
# If this CIF has been generated from an entry in the Cambridge 
# Structural Database, then it will include bibliographic, chemical, 
# crystal, experimental, refinement or atomic coordinate data resulting 
# from the CCDC's data processing and validation procedures.
#
#######################################################################

data_TEWBUT
_chemical_formula_moiety         'C42 H42 N6,0.5(C3 H6 O1),0.5(C4 H10 O1)'
_chemical_name_systematic        
"1,3,5-tris(2'-((3,5-Dimethylpyrazol-1-yl)methyl) phenyl)benzene acetone diethyl ether solvate"
_symmetry_cell_setting           triclinic
_symmetry_space_group_name_H-M   'P -1'
_symmetry_Int_Tables_number      2
_space_group_name_Hall           '-P 1'
loop_
_symmetry_equiv_pos_site_id
_symmetry_equiv_pos_as_xyz
1 x,y,z
2 -x,-y,-z
_cell_length_a                   11.0407(12)
_cell_length_b                   12.7954(13)
_cell_length_c                   15.3217(16)
_cell_angle_alpha                107.973(2)
_cell_angle_beta                 108.147(2)
_cell_angle_gamma                101.022(2)
_cell_volume                     1855.02
_exptl_crystal_colour            colorless
_exptl_crystal_description       lath
_cell_formula_units_Z            2
loop_
_atom_site_label
_atom_site_type_symbol
_atom_site_fract_x
_atom_site_fract_y
_atom_site_fract_z
C43 C 0.6983(13) 0.1683(13) 0.6384(11)
O1 O 0.6369(6) 0.1949(6) 0.5692(5)
C44 C 0.7854(17) 0.262(2) 0.7397(16)
H43 H 0.7645 0.3339 0.7438
H44 H 0.8802 0.2743 0.7503
H45 H 0.7686 0.2386 0.7912
C45 C 0.6849(16) 0.0433(13) 0.6191(13)
H46 H 0.6178 -0.0058 0.5514
H47 H 0.6563 0.0228 0.6678
H48 H 0.7718 0.0313 0.6255
N1 N 0.3143(3) 0.3266(3) 1.1799(2)
N2 N 0.3150(3) 0.4302(3) 1.2417(2)
N3 N 0.7924(3) 0.8876(3) 1.1694(2)
N4 N 0.7205(3) 0.9166(3) 1.0947(2)
N5 N 0.3001(3) 0.3383(3) 0.6482(2)
N6 N 0.1764(3) 0.3047(3) 0.6513(2)
C1 C 0.6631(4) 0.4044(3) 1.0984(3)
C2 C 0.7495(4) 0.5046(3) 1.1059(3)
H1 H 0.8049 0.5639 1.1699
C3 C 0.7559(4) 0.5191(3) 1.0213(3)
C4 C 0.6745(4) 0.4306(3) 0.9274(3)
H2 H 0.6777 0.4397 0.8688
C5 C 0.5885(4) 0.3292(3) 0.9190(3)
C6 C 0.5826(4) 0.3176(3) 1.0052(3)
H3 H 0.5229 0.2497 1.0000
C7 C 0.6667(4) 0.3855(3) 1.1914(3)
C8 C 0.5517(4) 0.3449(3) 1.2083(3)
C9 C 0.5661(4) 0.3251(3) 1.2942(3)
H4 H 0.4885 0.2981 1.3057
C10 C 0.6928(4) 0.3442(4) 1.3640(3)
H5 H 0.7011 0.3282 1.4218
C11 C 0.8059(4) 0.3861(3) 1.3493(3)
H6 H 0.8926 0.4008 1.3977
C12 C 0.7932(4) 0.4067(3) 1.2641(3)
H7 H 0.8718 0.4358 1.2545
C13 C 0.4117(4) 0.3255(3) 1.1346(3)
H8 H 0.4156 0.3868 1.1080
H9 H 0.3818 0.2500 1.0778
C14 C 0.2287(4) 0.2352(3) 1.1800(3)
C15 C 0.1701(4) 0.2820(4) 1.2426(3)
H10 H 0.1039 0.2409 1.2579
C16 C 0.2269(4) 0.4023(4) 1.2793(3)
C17 C 0.2118(5) 0.1117(4) 1.1210(3)
H11 H 0.1348 0.0601 1.1221
H12 H 0.2933 0.0935 1.1505
H13 H 0.1963 0.1007 1.0518
C18 C 0.1971(5) 0.4932(4) 1.3498(3)
H14 H 0.2670 0.5678 1.3751
H15 H 0.1951 0.4723 1.4058
H16 H 0.1095 0.4994 1.3148
C19 C 0.8567(4) 0.6212(3) 1.0272(3)
C20 C 0.8767(4) 0.7368(3) 1.0861(3)
C21 C 0.9745(4) 0.8245(4) 1.0872(3)
H17 H 0.9876 0.9031 1.1256
C22 C 1.0528(4) 0.7996(4) 1.0338(3)
H18 H 1.1206 0.8608 1.0372
C23 C 1.0332(4) 0.6871(3) 0.9757(3)
H19 H 1.0865 0.6699 0.9384
C24 C 0.9350(4) 0.5991(3) 0.9721(3)
H20 H 0.9204 0.5213 0.9309
C25 C 0.7902(4) 0.7678(3) 1.1437(3)
H21 H 0.6964 0.7162 1.1029
H22 H 0.8224 0.7540 1.2058
C26 C 0.8694(4) 0.9806(3) 1.2549(3)
C27 C 0.8446(4) 1.0756(3) 1.2365(3)
H23 H 0.8824 1.1546 1.2819
C28 C 0.7528(4) 1.0312(3) 1.1380(3)
C29 C 0.9575(4) 0.9713(4) 1.3463(3)
H24 H 0.9018 0.9303 1.3719
H25 H 1.0113 1.0491 1.3974
H26 H 1.0173 0.9283 1.3297
C30 C 0.6889(5) 1.0964(4) 1.0811(3)
H27 H 0.6382 1.0443 1.0106
H28 H 0.7589 1.1610 1.0865
H29 H 0.6279 1.1265 1.1089
C31 C 0.5103(4) 0.2286(3) 0.8206(3)
C32 C 0.4333(4) 0.2368(3) 0.7324(3)
C33 C 0.3673(4) 0.1379(3) 0.6452(3)
H30 H 0.3165 0.1440 0.5853
C34 C 0.3737(4) 0.0299(4) 0.6433(3)
H31 H 0.3280 -0.0371 0.5827
C35 C 0.4471(4) 0.0210(4) 0.7299(3)
H32 H 0.4512 -0.0525 0.7298
C36 C 0.5148(4) 0.1193(3) 0.8172(3)
H33 H 0.5658 0.1123 0.8765
C37 C 0.4178(4) 0.3524(3) 0.7313(3)
H34 H 0.4119 0.3972 0.7944
H35 H 0.4985 0.3973 0.7279
C38 C 0.2900(4) 0.3389(3) 0.5578(3)
C39 C 0.1553(4) 0.3061(3) 0.5007(3)
H36 H 0.1151 0.2989 0.4337
C40 C 0.0885(4) 0.2854(3) 0.5610(3)
C41 C 0.4105(4) 0.3708(4) 0.5345(3)
H37 H 0.4662 0.4508 0.5795
H38 H 0.3811 0.3642 0.4651
H39 H 0.4630 0.3184 0.5435
C42 C -0.0589(4) 0.2498(4) 0.5374(3)
H40 H -0.0794 0.1983 0.5703
H41 H -0.1089 0.2091 0.4649
H42 H -0.0850 0.3188 0.5614
C46? C 0.6676(18) -0.0935(11) 0.6192(11)
H49? H 0.6572 -0.1370 0.6604
H50? H 0.7261 -0.1190 0.5862
H51? H 0.5794 -0.1076 0.5685
C47? C 0.7278(16) 0.0305(13) 0.6825(12)
H52? H 0.6708 0.0564 0.7179
H53? H 0.8179 0.0457 0.7330
O2? O 0.7387(15) 0.0931(12) 0.6188(11)
C48? C 0.717(3) 0.2056(18) 0.653(3)
H54? H 0.6336 0.1956 0.6650
H55? H 0.7065 0.2365 0.6001
C49? C 0.832(3) 0.289(3) 0.746(3)
H56? H 0.8118 0.3616 0.7704
H57? H 0.9131 0.3052 0.7325
H58? H 0.8466 0.2565 0.7970
loop_
_geom_bond_atom_site_label_1
_geom_bond_atom_site_label_2
_geom_bond_site_symmetry_1
_geom_bond_site_symmetry_2
N1 N2 1_555 1_555
N2 C16 1_555 1_555
N3 N4 1_555 1_555
N4 C28 1_555 1_555
N5 N6 1_555 1_555
N6 C40 1_555 1_555
C1 C2 1_555 1_555
C2 H1 1_555 1_555
C3 C2 1_555 1_555
C4 C3 1_555 1_555
H2 C4 1_555 1_555
C5 C4 1_555 1_555
C6 C1 1_555 1_555
H3 C6 1_555 1_555
C7 C1 1_555 1_555
C8 C7 1_555 1_555
C9 C8 1_555 1_555
H4 C9 1_555 1_555
C10 C9 1_555 1_555
H5 C10 1_555 1_555
C11 C10 1_555 1_555
H6 C11 1_555 1_555
C12 C7 1_555 1_555
H7 C12 1_555 1_555
C13 N1 1_555 1_555
H8 C13 1_555 1_555
H9 C13 1_555 1_555
C14 N1 1_555 1_555
C15 C14 1_555 1_555
H10 C15 1_555 1_555
C16 C15 1_555 1_555
C17 C14 1_555 1_555
H11 C17 1_555 1_555
H12 C17 1_555 1_555
H13 C17 1_555 1_555
C18 C16 1_555 1_555
H14 C18 1_555 1_555
H15 C18 1_555 1_555
H16 C18 1_555 1_555
C19 C3 1_555 1_555
C20 C19 1_555 1_555
C21 C20 1_555 1_555
H17 C21 1_555 1_555
C22 C21 1_555 1_555
H18 C22 1_555 1_555
C23 C22 1_555 1_555
H19 C23 1_555 1_555
C24 C19 1_555 1_555
H20 C24 1_555 1_555
C25 N3 1_555 1_555
H21 C25 1_555 1_555
H22 C25 1_555 1_555
C26 N3 1_555 1_555
C27 C26 1_555 1_555
H23 C27 1_555 1_555
C28 C27 1_555 1_555
C29 C26 1_555 1_555
H24 C29 1_555 1_555
H25 C29 1_555 1_555
H26 C29 1_555 1_555
C30 C28 1_555 1_555
H27 C30 1_555 1_555
H28 C30 1_555 1_555
H29 C30 1_555 1_555
C31 C5 1_555 1_555
C32 C31 1_555 1_555
C33 C32 1_555 1_555
H30 C33 1_555 1_555
C34 C33 1_555 1_555
H31 C34 1_555 1_555
C35 C34 1_555 1_555
H32 C35 1_555 1_555
C36 C31 1_555 1_555
H33 C36 1_555 1_555
C37 N5 1_555 1_555
H34 C37 1_555 1_555
H35 C37 1_555 1_555
C38 N5 1_555 1_555
C39 C38 1_555 1_555
H36 C39 1_555 1_555
C40 C39 1_555 1_555
C41 C38 1_555 1_555
H37 C41 1_555 1_555
H38 C41 1_555 1_555
H39 C41 1_555 1_555
C42 C40 1_555 1_555
H40 C42 1_555 1_555
H41 C42 1_555 1_555
H42 C42 1_555 1_555
C43 O1 1_555 1_555
C44 C43 1_555 1_555
H43 C44 1_555 1_555
H44 C44 1_555 1_555
H45 C44 1_555 1_555
C45 C43 1_555 1_555
H46 C45 1_555 1_555
H47 C45 1_555 1_555
H48 C45 1_555 1_555
C5 C6 1_555 1_555
C8 C13 1_555 1_555
C11 C12 1_555 1_555
C20 C25 1_555 1_555
C23 C24 1_555 1_555
C32 C37 1_555 1_555
C35 C36 1_555 1_555

#END
