
#######################################################################
#
#                 Cambridge Crystallographic Data Centre
#                                CCDC 
#
#######################################################################
#
# If this CIF has been generated from an entry in the Cambridge 
# Structural Database, then it will include bibliographic, chemical, 
# crystal, experimental, refinement or atomic coordinate data resulting 
# from the CCDC's data processing and validation procedures.
#
#######################################################################

data_TEWDUW
_chemical_formula_moiety         'C7 H6 N1 O5 S1 1-,H5 O2 1+'
_chemical_name_systematic        'Dihydronium 2-methyl-5-nitrobenzenesulfonate'
_symmetry_cell_setting           triclinic
_symmetry_space_group_name_H-M   'P -1'
_symmetry_Int_Tables_number      2
_space_group_name_Hall           '-P 1'
loop_
_symmetry_equiv_pos_site_id
_symmetry_equiv_pos_as_xyz
1 x,y,z
2 -x,-y,-z
_cell_length_a                   8.0749(10)
_cell_length_b                   8.1219(10)
_cell_length_c                   9.3829(10)
_cell_angle_alpha                87.639(10)
_cell_angle_beta                 87.839(10)
_cell_angle_gamma                61.801(10)
_cell_volume                     541.751
_cell_formula_units_Z            2
loop_
_atom_site_label
_atom_site_type_symbol
_atom_site_fract_x
_atom_site_fract_y
_atom_site_fract_z
S1 S 0.50847(7) 0.26174(7) 0.80321(5)
O1 O 0.3959(2) 0.4571(2) 0.83895(17)
O2 O 0.7087(2) 0.1922(2) 0.83009(15)
O3 O 0.4411(2) 0.1393(2) 0.86957(16)
O4 O 0.8310(3) 0.1065(3) 0.18008(17)
O5 O 0.9438(3) 0.1818(3) 0.3557(2)
C1 C 0.3275(3) 0.2752(3) 0.5510(2)
N1 N 0.8198(3) 0.1609(3) 0.3018(2)
C2 C 0.6483(3) 0.2025(3) 0.3872(2)
C3 C 0.3314(3) 0.2588(3) 0.4036(2)
H1 H 0.2239 0.2732 0.3597
C4 C 0.6533(3) 0.2162(3) 0.5331(2)
H2 H 0.7615 0.2023 0.5758
C5 C 0.4895(3) 0.2219(3) 0.3201(2)
H3 H 0.4894 0.2104 0.2219
C6 C 0.1509(3) 0.3148(3) 0.6364(3)
H4 H 0.0542 0.3288 0.5731
H5 H 0.1101 0.4278 0.6877
H6 H 0.1763 0.2128 0.7028
C7 C 0.4943(3) 0.2511(3) 0.6144(2)
O6 O 0.1458(3) 0.6176(3) 1.04645(19)
O7 O -0.1612(3) 0.8156(3) 0.94210(19)
H7 H 0.176(4) 0.694(3) 1.075(3)
H8 H 0.226(3) 0.558(4) 0.986(2)
H9 H -0.184(5) 0.917(2) 0.904(3)
H10 H -0.258(5) 0.850(5) 1.010(4)
H11 H -0.006(5) 0.710(5) 0.999(3)
loop_
_geom_bond_atom_site_label_1
_geom_bond_atom_site_label_2
_geom_bond_site_symmetry_1
_geom_bond_site_symmetry_2
S1 O1 1_555 1_555
O2 S1 1_555 1_555
O3 S1 1_555 1_555
O4 N1 1_555 1_555
O5 N1 1_555 1_555
C1 C3 1_555 1_555
N1 C2 1_555 1_555
C2 C4 1_555 1_555
C3 H1 1_555 1_555
C4 H2 1_555 1_555
C5 C2 1_555 1_555
H3 C5 1_555 1_555
C6 C1 1_555 1_555
H4 C6 1_555 1_555
H5 C6 1_555 1_555
H6 C6 1_555 1_555
C7 S1 1_555 1_555
O6 H7 1_555 1_555
O7 H9 1_555 1_555
H8 O6 1_555 1_555
H10 O7 1_555 1_555
H11 O6 1_555 1_555
C1 C7 1_555 1_555
C3 C5 1_555 1_555
C4 C7 1_555 1_555
O7 H11 1_555 1_555

#END
