
#######################################################################
#
#                 Cambridge Crystallographic Data Centre
#                                CCDC 
#
#######################################################################
#
# If this CIF has been generated from an entry in the Cambridge 
# Structural Database, then it will include bibliographic, chemical, 
# crystal, experimental, refinement or atomic coordinate data resulting 
# from the CCDC's data processing and validation procedures.
#
#######################################################################

data_TEWJUC
_chemical_formula_moiety         'C32 H50 O7,H2 O1'
_chemical_name_systematic        'Diosgenyl \b-D-ribofuranoside monohydrate'
_symmetry_cell_setting           triclinic
_symmetry_space_group_name_H-M   'P 1'
_symmetry_Int_Tables_number      1
_space_group_name_Hall           'P 1'
loop_
_symmetry_equiv_pos_site_id
_symmetry_equiv_pos_as_xyz
1 x,y,z
_cell_length_a                   6.6023(12)
_cell_length_b                   6.6337(12)
_cell_length_c                   37.831(6)
_cell_angle_alpha                94.504(15)
_cell_angle_beta                 90.801(14)
_cell_angle_gamma                113.293(17)
_cell_volume                     1515.33
_exptl_crystal_colour            colorless
_exptl_crystal_description       block
_cell_formula_units_Z            2
loop_
_atom_site_label
_atom_site_type_symbol
_atom_site_fract_x
_atom_site_fract_y
_atom_site_fract_z
O1 O 0.1357(6) 0.6442(5) 0.12141(11)
H1 H 0.236(8) 0.684(8) 0.1384(12)
H2 H 0.117(7) 0.519(5) 0.1101(10)
O2 O -0.0040(5) 1.1823(4) 0.10038(7)
O3 O -0.0722(5) 1.0191(4) 0.17478(7)
H3 H -0.1478 0.8876 0.1699
O4 O -0.5258(5) 0.8813(4) 0.16920(8)
H4 H -0.5228 0.8499 0.1897
O5 O -0.3495(5) 1.1824(4) 0.10700(7)
O6 O -0.2448(6) 1.5784(4) 0.15596(9)
H5 H -0.1543 1.5393 0.1463
O7 O 0.0029(5) 0.1909(4) -0.16362(8)
O8 O 0.0613(6) 0.3698(5) -0.21586(8)
C1 C 0.1809(8) 1.1806(6) 0.00746(11)
H6 H 0.3124 1.2817 -0.0027
H7 H 0.0541 1.1873 -0.0048
C2 C -0.2015(7) 1.0885(6) 0.11752(11)
H8 H -0.2673 0.9283 0.1118
C3 C 0.1826(8) 1.2582(6) 0.04645(11)
H9 H 0.3147 1.2636 0.0588
H10 H 0.1842 1.4055 0.0485
C4 C -0.1658(7) 1.1448(6) 0.15756(10)
H11 H -0.078(6) 1.302(5) 0.1625(9)
C5 C -0.0190(8) 1.1030(6) 0.06311(10)
H12 H -0.1520 1.1049 0.0516
C6 C -0.3953(7) 1.1127(6) 0.16763(11)
H13 H -0.3930 1.1973 0.1902
C7 C -0.0266(8) 0.8722(6) 0.05911(11)
H14 H 0.0964 0.8680 0.0729
H15 H -0.1619 0.7730 0.0686
C8 C -0.4803(7) 1.1985(6) 0.13665(11)
H16 H -0.6353 1.1017 0.1308
C9 C -0.0162(7) 0.7931(6) 0.02108(10)
C10 C -0.4607(8) 1.4330(6) 0.14342(13)
H17 H -0.4980 1.4809 0.1216
H18 H -0.5653 1.4389 0.1608
C11 C -0.1622(8) 0.6012(6) 0.00685(11)
H19 H -0.2742 0.5204 0.0210
C12 C -0.1624(7) 0.5043(6) -0.02962(11)
H20 H -0.2828 0.5116 -0.0437
H21 H -0.1884 0.3501 -0.0290
C13 C 0.0538(7) 0.6213(6) -0.04744(10)
H22 H 0.1666 0.5769 -0.0377
C14 C 0.1286(7) 0.8729(5) -0.03935(10)
H23 H 0.0026 0.9060 -0.0465
C15 C 0.1722(7) 0.9435(6) 0.00061(10)
C16 C 0.3203(8) 1.0075(6) -0.06180(11)
H24 H 0.3367 1.1599 -0.0593
H25 H 0.4555 1.0032 -0.0523
C17 C 0.2928(8) 0.9287(6) -0.10125(11)
H26 H 0.4267 1.0115 -0.1129
H27 H 0.1726 0.9555 -0.1120
C18 C 0.2444(7) 0.6826(6) -0.10673(11)
C19 C 0.0295(7) 0.5650(6) -0.08719(10)
H28 H -0.0766 0.6218 -0.0958
C20 C -0.0530(8) 0.3257(6) -0.10331(11)
H29 H 0.0410 0.2539 -0.0959
H30 H -0.2040 0.2406 -0.0975
C21 C -0.0351(8) 0.3629(6) -0.14247(12)
H31 H -0.1678 0.3774 -0.1516
C22 C 0.1704(7) 0.5783(6) -0.14541(11)
H32 H 0.1281 0.6783 -0.1586
C23 C 0.4374(8) 0.6385(7) -0.09248(13)
H33 H 0.5659 0.7143 -0.1053
H34 H 0.4022 0.4830 -0.0953
H35 H 0.4664 0.6902 -0.0678
C24 C 0.3885(8) 0.9350(8) 0.01444(12)
H36 H 0.3927 0.7961 0.0062
H37 H 0.3962 0.9512 0.0399
H38 H 0.5117 1.0525 0.0058
C25 C 0.3219(8) 0.5000(7) -0.16784(12)
H39 H 0.4085 0.4537 -0.1515
C26 C 0.4845(10) 0.6742(8) -0.18917(15)
H40 H 0.4046 0.7273 -0.2048
H41 H 0.5691 0.6104 -0.2029
H42 H 0.5820 0.7945 -0.1732
C27 C 0.1609(8) 0.2954(7) -0.18886(12)
C28 C 0.2507(10) 0.1340(8) -0.20408(13)
H43 H 0.3015 0.0745 -0.1848
H44 H 0.3766 0.2101 -0.2179
C29 C 0.0794(11) -0.0539(8) -0.22752(14)
H45 H 0.1483 -0.1442 -0.2392
H46 H -0.0350 -0.1458 -0.2131
C30 C -0.0212(11) 0.0351(9) -0.25483(14)
H47 H 0.0954 0.1162 -0.2703
C31 C -0.1073(11) 0.1948(9) -0.23711(14)
H48 H -0.1661 0.2561 -0.2551
H49 H -0.2269 0.1166 -0.2223
C32 C -0.2061(13) -0.1471(11) -0.27824(17)
H50 H -0.1445 -0.2331 -0.2924
H51 H -0.2754 -0.0812 -0.2935
H52 H -0.3138 -0.2406 -0.2634
O9 O 0.0134(5) 0.2477(4) 0.30199(7)
O10 O 0.1975(5) 0.2990(5) 0.22799(8)
O11 O 0.3312(5) 0.7526(5) 0.23284(8)
H53 H 0.452(13) 0.75(2) 0.244(3)
O12 O 0.0151(5) 0.5912(4) 0.29530(7)
O13 O -0.3670(6) 0.4749(5) 0.24672(10)
O14 O 0.9374(5) 0.3080(5) 0.56669(8)
O15 O 0.7441(6) 0.2705(6) 0.61836(8)
C33 C -0.0089(7) 0.0837(7) 0.39494(11)
H54 H -0.1128 -0.0464 0.4047
H55 H -0.0209 0.2112 0.4076
C34 C 0.1113(7) 0.4404(6) 0.28484(10)
H56 H 0.2709 0.5073 0.2903
C35 C -0.0757(7) 0.0752(7) 0.35612(11)
H57 H -0.0784 -0.0592 0.3436
H58 H -0.2232 0.0731 0.3542
C36 C 0.0637(7) 0.3968(6) 0.24521(10)
H59 H -0.0920 0.2986 0.2404
C37 C 0.0829(7) 0.2712(6) 0.33929(10)
H60 H 0.0777 0.4064 0.3509
C38 C 0.0993(7) 0.6248(6) 0.23497(11)
H61 H 0.0187 0.6162 0.2126
C39 C 0.3141(7) 0.2802(7) 0.34342(11)
H62 H 0.3225 0.1545 0.3296
H63 H 0.4164 0.4127 0.3341
C40 C 0.0047(7) 0.7147(6) 0.26611(11)
H64 H 0.0999 0.8705 0.2722
C41 C 0.3827(7) 0.2791(6) 0.38160(10)
C42 C -0.2278(7) 0.6930(7) 0.25945(13)
H65 H -0.2826 0.7341 0.2813
H66 H -0.2299 0.7929 0.2422
C43 C 0.5706(7) 0.4284(7) 0.39584(12)
H67 H 0.6548 0.5371 0.3817
C44 C 0.6590(7) 0.4377(6) 0.43229(11)
H68 H 0.6489 0.5616 0.4464
H69 H 0.8138 0.4627 0.4315
C45 C 0.5357(7) 0.2263(6) 0.45022(10)
H70 H 0.5832 0.1117 0.4404
C46 C 0.2875(7) 0.1491(6) 0.44203(10)
H71 H 0.2519 0.2760 0.4492
C47 C 0.2255(7) 0.0958(5) 0.40194(10)
C48 C 0.1465(8) -0.0359(7) 0.46470(11)
H72 H -0.0060 -0.0531 0.4622
H73 H 0.1534 -0.1731 0.4552
C49 C 0.2156(7) 0.0022(7) 0.50419(11)
H74 H 0.1836 0.1233 0.5150
H75 H 0.1310 -0.1287 0.5157
C50 C 0.4600(7) 0.0551(6) 0.50968(11)
C51 C 0.5835(7) 0.2609(6) 0.48976(11)
H76 H 0.5239 0.3688 0.4983
C52 C 0.8169(7) 0.3490(7) 0.50600(11)
H77 H 0.9021 0.4983 0.5003
H78 H 0.8929 0.2555 0.4984
C53 C 0.7725(8) 0.3410(7) 0.54543(11)
H79 H 0.7552 0.4752 0.5547
C54 C 0.5545(8) 0.1374(6) 0.54814(11)
H80 H 0.4511 0.1842 0.5612
C55 C 0.5099(9) -0.1436(6) 0.49536(12)
H81 H 0.4600 -0.1829 0.4709
H82 H 0.4348 -0.2663 0.5088
H83 H 0.6661 -0.1054 0.4975
C56 C 0.2373(9) -0.1244(6) 0.38797(12)
H84 H 0.3781 -0.1232 0.3950
H85 H 0.2191 -0.1427 0.3625
H86 H 0.1220 -0.2442 0.3977
C57 C 0.6240(8) -0.0078(7) 0.57088(12)
H87 H 0.6752 -0.0997 0.5549
C58 C 0.4440(10) -0.1605(9) 0.59273(17)
H88 H 0.3843 -0.0753 0.6075
H89 H 0.5057 -0.2362 0.6073
H90 H 0.3287 -0.2662 0.5771
C59 C 0.8240(9) 0.1604(7) 0.59218(12)
C60 C 0.9802(10) 0.0739(9) 0.60795(14)
H91 H 1.0485 0.0204 0.5890
H92 H 0.8978 -0.0495 0.6213
C61 C 1.1586(11) 0.2481(11) 0.63221(17)
H93 H 1.2418 0.1803 0.6445
H94 H 1.2597 0.3572 0.6181
C62 C 1.0613(11) 0.3594(10) 0.65893(15)
H95 H 0.9698 0.2487 0.6741
C63 C 0.9146(11) 0.4439(10) 0.63977(15)
H96 H 0.8481 0.5124 0.6570
H97 H 1.0027 0.5554 0.6248
C64 C 1.2385(14) 0.5442(12) 0.68259(18)
H98 H 1.3498 0.4952 0.6900
H99 H 1.1725 0.5824 0.7031
H100 H 1.3045 0.6709 0.6695
H101 H 0.123(10) 0.189(8) 0.2129(14)
H102 H -0.501(5) 0.446(11) 0.239(2)
O16 O 0.5555(6) 0.1017(5) 0.28071(11)
H103 H 0.502(8) -0.030(5) 0.2692(14)
H104 H 0.689(5) 0.123(8) 0.2897(14)
loop_
_geom_bond_atom_site_label_1
_geom_bond_atom_site_label_2
_geom_bond_site_symmetry_1
_geom_bond_site_symmetry_2
O1 H1 1_555 1_555
H2 O1 1_555 1_555
O2 C2 1_555 1_555
O3 H3 1_555 1_555
O4 H4 1_555 1_555
O5 C2 1_555 1_555
O6 H5 1_555 1_555
O7 C21 1_555 1_555
O8 C27 1_555 1_555
C1 H6 1_555 1_555
H7 C1 1_555 1_555
C2 H8 1_555 1_555
C3 C1 1_555 1_555
H9 C3 1_555 1_555
H10 C3 1_555 1_555
C4 O3 1_555 1_555
H11 C4 1_555 1_555
C5 O2 1_555 1_555
H12 C5 1_555 1_555
C6 O4 1_555 1_555
H13 C6 1_555 1_555
C7 C5 1_555 1_555
H14 C7 1_555 1_555
H15 C7 1_555 1_555
C8 O5 1_555 1_555
H16 C8 1_555 1_555
C9 C7 1_555 1_555
C10 O6 1_555 1_555
H17 C10 1_555 1_555
H18 C10 1_555 1_555
C11 C9 1_555 1_555
H19 C11 1_555 1_555
C12 C11 1_555 1_555
H20 C12 1_555 1_555
H21 C12 1_555 1_555
C13 C12 1_555 1_555
H22 C13 1_555 1_555
C14 C13 1_555 1_555
H23 C14 1_555 1_555
C15 C1 1_555 1_555
C16 C14 1_555 1_555
H24 C16 1_555 1_555
H25 C16 1_555 1_555
C17 C16 1_555 1_555
H26 C17 1_555 1_555
H27 C17 1_555 1_555
C18 C17 1_555 1_555
C19 C13 1_555 1_555
H28 C19 1_555 1_555
C20 C19 1_555 1_555
H29 C20 1_555 1_555
H30 C20 1_555 1_555
C21 C20 1_555 1_555
H31 C21 1_555 1_555
C22 C18 1_555 1_555
H32 C22 1_555 1_555
C23 C18 1_555 1_555
H33 C23 1_555 1_555
H34 C23 1_555 1_555
H35 C23 1_555 1_555
C24 C15 1_555 1_555
H36 C24 1_555 1_555
H37 C24 1_555 1_555
H38 C24 1_555 1_555
C25 C22 1_555 1_555
H39 C25 1_555 1_555
C26 C25 1_555 1_555
H40 C26 1_555 1_555
H41 C26 1_555 1_555
H42 C26 1_555 1_555
C27 O7 1_555 1_555
C28 C27 1_555 1_555
H43 C28 1_555 1_555
H44 C28 1_555 1_555
C29 C28 1_555 1_555
H45 C29 1_555 1_555
H46 C29 1_555 1_555
C30 C29 1_555 1_555
H47 C30 1_555 1_555
C31 O8 1_555 1_555
H48 C31 1_555 1_555
H49 C31 1_555 1_555
C32 C30 1_555 1_555
H50 C32 1_555 1_555
H51 C32 1_555 1_555
H52 C32 1_555 1_555
O9 C34 1_555 1_555
O10 C36 1_555 1_555
O11 H53 1_555 1_555
O12 C34 1_555 1_555
O13 C42 1_555 1_555
O14 C53 1_555 1_555
O15 C59 1_555 1_555
C33 H54 1_555 1_555
H55 C33 1_555 1_555
C34 H56 1_555 1_555
C35 C33 1_555 1_555
H57 C35 1_555 1_555
H58 C35 1_555 1_555
C36 C34 1_555 1_555
H59 C36 1_555 1_555
C37 O9 1_555 1_555
H60 C37 1_555 1_555
C38 O11 1_555 1_555
H61 C38 1_555 1_555
C39 C37 1_555 1_555
H62 C39 1_555 1_555
H63 C39 1_555 1_555
C40 O12 1_555 1_555
H64 C40 1_555 1_555
C41 C39 1_555 1_555
C42 C40 1_555 1_555
H65 C42 1_555 1_555
H66 C42 1_555 1_555
C43 C41 1_555 1_555
H67 C43 1_555 1_555
C44 C43 1_555 1_555
H68 C44 1_555 1_555
H69 C44 1_555 1_555
C45 C44 1_555 1_555
H70 C45 1_555 1_555
C46 C45 1_555 1_555
H71 C46 1_555 1_555
C47 C33 1_555 1_555
C48 C46 1_555 1_555
H72 C48 1_555 1_555
H73 C48 1_555 1_555
C49 C48 1_555 1_555
H74 C49 1_555 1_555
H75 C49 1_555 1_555
C50 C49 1_555 1_555
C51 C45 1_555 1_555
H76 C51 1_555 1_555
C52 C51 1_555 1_555
H77 C52 1_555 1_555
H78 C52 1_555 1_555
C53 C52 1_555 1_555
H79 C53 1_555 1_555
C54 C50 1_555 1_555
H80 C54 1_555 1_555
C55 C50 1_555 1_555
H81 C55 1_555 1_555
H82 C55 1_555 1_555
H83 C55 1_555 1_555
C56 C47 1_555 1_555
H84 C56 1_555 1_555
H85 C56 1_555 1_555
H86 C56 1_555 1_555
C57 C54 1_555 1_555
H87 C57 1_555 1_555
C58 C57 1_555 1_555
H88 C58 1_555 1_555
H89 C58 1_555 1_555
H90 C58 1_555 1_555
C59 O14 1_555 1_555
C60 C59 1_555 1_555
H91 C60 1_555 1_555
H92 C60 1_555 1_555
C61 C60 1_555 1_555
H93 C61 1_555 1_555
H94 C61 1_555 1_555
C62 C61 1_555 1_555
H95 C62 1_555 1_555
C63 O15 1_555 1_555
H96 C63 1_555 1_555
H97 C63 1_555 1_555
C64 C62 1_555 1_555
H98 C64 1_555 1_555
H99 C64 1_555 1_555
H100 C64 1_555 1_555
H101 O10 1_555 1_555
H102 O13 1_555 1_555
O16 H103 1_555 1_555
H104 O16 1_555 1_555
C2 C4 1_555 1_555
C3 C5 1_555 1_555
C4 C6 1_555 1_555
C6 C8 1_555 1_555
C8 C10 1_555 1_555
C9 C15 1_555 1_555
C14 C15 1_555 1_555
C18 C19 1_555 1_555
C21 C22 1_555 1_555
C25 C27 1_555 1_555
C30 C31 1_555 1_555
C35 C37 1_555 1_555
C36 C38 1_555 1_555
C38 C40 1_555 1_555
C41 C47 1_555 1_555
C46 C47 1_555 1_555
C50 C51 1_555 1_555
C53 C54 1_555 1_555
C57 C59 1_555 1_555
C62 C63 1_555 1_555

#END
