
#######################################################################
#
#                 Cambridge Crystallographic Data Centre
#                                CCDC 
#
#######################################################################
#
# If this CIF has been generated from an entry in the Cambridge 
# Structural Database, then it will include bibliographic, chemical, 
# crystal, experimental, refinement or atomic coordinate data resulting 
# from the CCDC's data processing and validation procedures.
#
#######################################################################

data_TEWJOV
_chemical_formula_moiety         'C17 H24 Cl1 N3 O2 S1'
_chemical_name_systematic        
S-(+)-N'-t-Butylaminocarbonyl-N-(3-methyl-2-(4-chlorophenyl)butyryl)thiourea
_chemical_properties_biological  'potent inhibitor of influenza virus'
_symmetry_cell_setting           monoclinic
_symmetry_space_group_name_H-M   'C 2/c'
_symmetry_Int_Tables_number      15
_space_group_name_Hall           '-C 2yn'
loop_
_symmetry_equiv_pos_site_id
_symmetry_equiv_pos_as_xyz
1 x,y,z
2 1/2+x,1/2+y,z
3 -x,y,1/2-z
4 1/2-x,1/2+y,1/2-z
5 -x,-y,-z
6 1/2-x,1/2-y,-z
7 x,-y,1/2+z
8 1/2+x,1/2-y,1/2+z
_cell_length_a                   22.9922(19)
_cell_length_b                   14.4844(12)
_cell_length_c                   12.4618(11)
_cell_angle_alpha                90
_cell_angle_beta                 92.608(2)
_cell_angle_gamma                90
_cell_volume                     4145.83
_exptl_crystal_colour            colorless
_exptl_crystal_description       block
_chemical_melting_point          209-210deg.C
_cell_formula_units_Z            8
_exptl_crystal_recrystallization_method chloroform
loop_
_atom_site_label
_atom_site_type_symbol
_atom_site_fract_x
_atom_site_fract_y
_atom_site_fract_z
C1 C 0.38200(17) -0.0381(2) 0.6540(4)
C2 C 0.38191(15) -0.0612(2) 0.7607(4)
H1 H 0.4140 -0.0480 0.8063
C3 C 0.33354(15) -0.1043(2) 0.7997(3)
H2 H 0.3333 -0.1203 0.8719
C4 C 0.28554(12) -0.12386(19) 0.7329(3)
C5 C 0.28736(14) -0.0998(2) 0.6267(3)
H3 H 0.2555 -0.1127 0.5805
C6 C 0.33512(19) -0.0569(3) 0.5870(3)
H4 H 0.3354 -0.0409 0.5148
C7 C 0.23058(12) -0.16720(18) 0.7746(2)
H5 H 0.2042 -0.1794 0.7122
C8 C 0.23876(13) -0.2580(2) 0.8357(3)
H6 H 0.2646 -0.2466 0.8990
C9 C 0.26721(18) -0.3300(2) 0.7666(4)
H7 H 0.2699 -0.3875 0.8049
H8 H 0.3055 -0.3097 0.7502
H9 H 0.2442 -0.3384 0.7011
C10 C 0.18077(14) -0.2931(2) 0.8737(3)
H10 H 0.1548 -0.3048 0.8127
H11 H 0.1640 -0.2474 0.9188
H12 H 0.1869 -0.3492 0.9137
C11 C 0.20187(11) -0.09481(18) 0.8426(3)
C12 C 0.12342(11) 0.02336(18) 0.8244(2)
C13 C 0.10825(11) 0.11276(18) 0.9954(2)
C14 C 0.02458(13) 0.2188(2) 1.0181(3)
C15 C -0.01503(16) 0.2686(2) 0.9357(3)
H13 H 0.0081 0.3065 0.8908
H14 H -0.0420 0.3068 0.9721
H15 H -0.0361 0.2241 0.8922
C16 C -0.01162(17) 0.1582(3) 1.0884(4)
H16 H -0.0321 0.1131 1.0447
H17 H -0.0391 0.1957 1.1244
H18 H 0.0134 0.1274 1.1408
C17 C 0.05943(16) 0.2899(3) 1.0828(3)
H19 H 0.0827 0.2594 1.1381
H20 H 0.0334 0.3325 1.1150
H21 H 0.0844 0.3229 1.0364
Cl1 Cl 0.44234(5) 0.01768(8) 0.60605(11)
N1 N 0.15743(9) -0.04807(14) 0.78961(17)
H22 H 0.1496 -0.0660 0.7248
N2 N 0.13498(9) 0.04916(14) 0.92804(17)
H23 H 0.1643 0.0212 0.9583
N3 N 0.06263(9) 0.15905(15) 0.95713(19)
H24 H 0.0543 0.1537 0.8894
O1 O 0.21843(9) -0.07729(14) 0.93435(17)
O2 O 0.13065(9) 0.12023(14) 1.08579(16)
S1 S 0.07465(4) 0.06826(6) 0.73910(7)
loop_
_geom_bond_atom_site_label_1
_geom_bond_atom_site_label_2
_geom_bond_site_symmetry_1
_geom_bond_site_symmetry_2
C1 C2 1_555 1_555
C2 H1 1_555 1_555
C3 C2 1_555 1_555
H2 C3 1_555 1_555
C4 C3 1_555 1_555
C5 C4 1_555 1_555
H3 C5 1_555 1_555
C6 C1 1_555 1_555
H4 C6 1_555 1_555
C7 C4 1_555 1_555
H5 C7 1_555 1_555
C8 C7 1_555 1_555
H6 C8 1_555 1_555
C9 C8 1_555 1_555
H7 C9 1_555 1_555
H8 C9 1_555 1_555
H9 C9 1_555 1_555
C10 C8 1_555 1_555
H10 C10 1_555 1_555
H11 C10 1_555 1_555
H12 C10 1_555 1_555
C11 C7 1_555 1_555
C12 N1 1_555 1_555
C13 N2 1_555 1_555
C14 C15 1_555 1_555
C15 H13 1_555 1_555
H14 C15 1_555 1_555
H15 C15 1_555 1_555
C16 C14 1_555 1_555
H16 C16 1_555 1_555
H17 C16 1_555 1_555
H18 C16 1_555 1_555
C17 C14 1_555 1_555
H19 C17 1_555 1_555
H20 C17 1_555 1_555
H21 C17 1_555 1_555
Cl1 C1 1_555 1_555
N1 C11 1_555 1_555
H22 N1 1_555 1_555
N2 C12 1_555 1_555
H23 N2 1_555 1_555
N3 C13 1_555 1_555
H24 N3 1_555 1_555
O1 C11 1_555 1_555
O2 C13 1_555 1_555
S1 C12 1_555 1_555
C5 C6 1_555 1_555
C14 N3 1_555 1_555

#END
