
#######################################################################
#
#                 Cambridge Crystallographic Data Centre
#                                CCDC 
#
#######################################################################
#
# If this CIF has been generated from an entry in the Cambridge 
# Structural Database, then it will include bibliographic, chemical, 
# crystal, experimental, refinement or atomic coordinate data resulting 
# from the CCDC's data processing and validation procedures.
#
#######################################################################

data_TEWNAN
_chemical_formula_moiety         'C33 H36 N2 O4'
_chemical_name_systematic        
'ethyl 6-benzyl-3,9-bis(2,4,6-trimethylphenyl)-1,7-dioxa-2,8-diazaspiro[4.4]nona-2,8-diene-6-carboxylate'
_symmetry_cell_setting           monoclinic
_symmetry_space_group_name_H-M   'P 21/c'
_symmetry_Int_Tables_number      14
_space_group_name_Hall           '-P 2ybc'
loop_
_symmetry_equiv_pos_site_id
_symmetry_equiv_pos_as_xyz
1 x,y,z
2 -x,1/2+y,1/2-z
3 -x,-y,-z
4 x,1/2-y,1/2+z
_cell_length_a                   11.988(4)
_cell_length_b                   11.280(4)
_cell_length_c                   21.220(7)
_cell_angle_alpha                90
_cell_angle_beta                 90.616(6)
_cell_angle_gamma                90
_cell_volume                     2869.3
_exptl_crystal_colour            colorless
_exptl_crystal_description       block
_cell_formula_units_Z            4
loop_
_atom_site_label
_atom_site_type_symbol
_atom_site_fract_x
_atom_site_fract_y
_atom_site_fract_z
O1 O 0.61282(19) 0.1402(2) 0.62937(11)
O2 O 0.3872(2) 0.0519(2) 0.67690(11)
O3 O 0.4271(2) 0.2297(2) 0.53999(12)
O4 O 0.3779(2) 0.0395(2) 0.55819(11)
N1 N 0.6976(2) 0.2251(3) 0.61460(13)
N2 N 0.4534(3) 0.0456(3) 0.73262(14)
C1 C 0.5301(3) 0.1950(3) 0.67056(15)
C2 C 0.4119(3) 0.1639(3) 0.64606(16)
C3 C 0.5301(3) 0.1241(3) 0.73142(16)
C4 C 0.5655(3) 0.3244(3) 0.67500(17)
H1 H 0.509844 0.377170 0.654622
H2 H 0.576606 0.349110 0.719384
C5 C 0.6729(3) 0.3243(3) 0.64009(15)
C6 C 0.7441(3) 0.4316(3) 0.63460(16)
C7 C 0.7180(3) 0.5176(3) 0.58938(17)
C8 C 0.7806(3) 0.6218(3) 0.58843(18)
H3 H 0.764095 0.680141 0.557432
C9 C 0.8666(3) 0.6425(3) 0.63171(18)
C10 C 0.8907(3) 0.5551(3) 0.67548(18)
H4 H 0.949510 0.567878 0.705065
C11 C 0.8317(3) 0.4492(3) 0.67760(17)
C12 C 0.6197(3) 0.5034(4) 0.54428(19)
H5 H 0.610034 0.419337 0.533901
H6 H 0.633826 0.548317 0.505651
H7 H 0.551945 0.533338 0.564185
C13 C 0.9274(3) 0.7605(4) 0.6326(2)
H8 H 0.936117 0.789155 0.589336
H9 H 1.001140 0.750316 0.652279
H10 H 0.884299 0.818249 0.656783
C14 C 0.8599(4) 0.3579(4) 0.7274(2)
H11 H 0.795392 0.346152 0.754708
H12 H 0.923554 0.385542 0.752736
H13 H 0.878968 0.282652 0.707057
C15 C 0.4079(3) 0.1484(3) 0.57493(17)
C16 C 0.3547(4) 0.0178(4) 0.49142(19)
H14 H 0.379719 -0.063026 0.480049
H15 H 0.396575 0.075274 0.465528
C17 C 0.2339(4) 0.0297(4) 0.4782(2)
H16 H 0.219271 0.014467 0.433393
H17 H 0.209702 0.110231 0.488716
H18 H 0.192743 -0.027612 0.503679
C18 C 0.3222(3) 0.2552(3) 0.66540(18)
H19 H 0.317435 0.256424 0.711945
H20 H 0.346120 0.334954 0.651555
C19 C 0.2073(3) 0.2301(4) 0.63815(17)
C20 C 0.1624(3) 0.3057(4) 0.5938(2)
H21 H 0.205549 0.370971 0.579691
C21 C 0.0559(3) 0.2892(4) 0.5690(2)
H22 H 0.026449 0.343269 0.538827
C22 C -0.0064(4) 0.1947(5) 0.5884(2)
H23 H -0.079682 0.182757 0.572197
C23 C 0.0386(4) 0.1172(5) 0.6318(3)
H24 H -0.003661 0.050361 0.644584
C24 C 0.1443(3) 0.1347(4) 0.6571(2)
H25 H 0.173353 0.080877 0.687582
C25 C 0.6083(3) 0.1367(3) 0.78632(16)
C26 C 0.7131(3) 0.0820(3) 0.78788(17)
C27 C 0.7791(3) 0.0969(4) 0.84211(19)
H26 H 0.850313 0.060002 0.843609
C28 C 0.7459(4) 0.1626(4) 0.89350(19)
C29 C 0.6425(4) 0.2164(4) 0.89014(19)
H27 H 0.618230 0.262339 0.924915
C30 C 0.5731(3) 0.2058(4) 0.83788(17)
C31 C 0.7560(3) 0.0087(3) 0.73421(18)
H28 H 0.693604 -0.032782 0.713703
H29 H 0.809905 -0.049447 0.750366
H30 H 0.792442 0.060436 0.703585
C32 C 0.8207(4) 0.1738(5) 0.9517(2)
H31 H 0.867526 0.102929 0.955633
H32 H 0.774464 0.181805 0.989214
H33 H 0.868312 0.243983 0.947539
C33 C 0.4606(4) 0.2656(4) 0.83788(19)
H34 H 0.456871 0.323777 0.803631
H35 H 0.449867 0.305840 0.878295
H36 H 0.401991 0.206024 0.831733
loop_
_geom_bond_atom_site_label_1
_geom_bond_atom_site_label_2
_geom_bond_site_symmetry_1
_geom_bond_site_symmetry_2
O1 N1 1_555 1_555
O2 N2 1_555 1_555
O3 C15 1_555 1_555
O4 C15 1_555 1_555
N1 C5 1_555 1_555
N2 C3 1_555 1_555
C1 O1 1_555 1_555
C2 O2 1_555 1_555
C3 C1 1_555 1_555
C4 C1 1_555 1_555
H1 C4 1_555 1_555
H2 C4 1_555 1_555
C5 C4 1_555 1_555
C6 C5 1_555 1_555
C7 C6 1_555 1_555
C8 C7 1_555 1_555
H3 C8 1_555 1_555
C9 C8 1_555 1_555
C10 C9 1_555 1_555
H4 C10 1_555 1_555
C11 C6 1_555 1_555
C12 C7 1_555 1_555
H5 C12 1_555 1_555
H6 C12 1_555 1_555
H7 C12 1_555 1_555
C13 C9 1_555 1_555
H8 C13 1_555 1_555
H9 C13 1_555 1_555
H10 C13 1_555 1_555
C14 C11 1_555 1_555
H11 C14 1_555 1_555
H12 C14 1_555 1_555
H13 C14 1_555 1_555
C15 C2 1_555 1_555
C16 O4 1_555 1_555
H14 C16 1_555 1_555
H15 C16 1_555 1_555
C17 C16 1_555 1_555
H16 C17 1_555 1_555
H17 C17 1_555 1_555
H18 C17 1_555 1_555
C18 C2 1_555 1_555
H19 C18 1_555 1_555
H20 C18 1_555 1_555
C19 C18 1_555 1_555
C20 C19 1_555 1_555
H21 C20 1_555 1_555
C21 C20 1_555 1_555
H22 C21 1_555 1_555
C22 C21 1_555 1_555
H23 C22 1_555 1_555
C23 C22 1_555 1_555
H24 C23 1_555 1_555
C24 C19 1_555 1_555
H25 C24 1_555 1_555
C25 C3 1_555 1_555
C26 C25 1_555 1_555
C27 C26 1_555 1_555
H26 C27 1_555 1_555
C28 C27 1_555 1_555
C29 C28 1_555 1_555
H27 C29 1_555 1_555
C30 C25 1_555 1_555
C31 C26 1_555 1_555
H28 C31 1_555 1_555
H29 C31 1_555 1_555
H30 C31 1_555 1_555
C32 C28 1_555 1_555
H31 C32 1_555 1_555
H32 C32 1_555 1_555
H33 C32 1_555 1_555
C33 C30 1_555 1_555
H34 C33 1_555 1_555
H35 C33 1_555 1_555
H36 C33 1_555 1_555
C1 C2 1_555 1_555
C10 C11 1_555 1_555
C23 C24 1_555 1_555
C29 C30 1_555 1_555

#END
