
#######################################################################
#
#                 Cambridge Crystallographic Data Centre
#                                CCDC 
#
#######################################################################
#
# If this CIF has been generated from an entry in the Cambridge 
# Structural Database, then it will include bibliographic, chemical, 
# crystal, experimental, refinement or atomic coordinate data resulting 
# from the CCDC's data processing and validation procedures.
#
#######################################################################

data_TEWSIA
_chemical_formula_moiety         'C17 H19 N3 O2 P2'
_chemical_name_systematic        
1,1'-(4-methyl-3,5-diphenyl-1,2,4,3,5-triazadiphospholidine-1,2-diyl)bis(ethan-1-one)
_symmetry_cell_setting           monoclinic
_symmetry_space_group_name_H-M   'C 2/c'
_symmetry_Int_Tables_number      15
_space_group_name_Hall           '-C 2yn'
loop_
_symmetry_equiv_pos_site_id
_symmetry_equiv_pos_as_xyz
1 x,y,z
2 -x,y,1/2-z
3 1/2+x,1/2+y,z
4 1/2-x,1/2+y,1/2-z
5 -x,-y,-z
6 x,-y,1/2+z
7 1/2-x,1/2-y,-z
8 1/2+x,1/2-y,1/2+z
_cell_length_a                   18.0669(7)
_cell_length_b                   9.3123(4)
_cell_length_c                   10.3436(5)
_cell_angle_alpha                90
_cell_angle_beta                 94.2301(15)
_cell_angle_gamma                90
_cell_volume                     1735.51
_exptl_crystal_colour            colorless
_exptl_crystal_description       prism
_cell_formula_units_Z            4
loop_
_atom_site_label
_atom_site_type_symbol
_atom_site_fract_x
_atom_site_fract_y
_atom_site_fract_z
C1 C 0.63863(6) 0.14384(12) 0.72430(11)
C2 C 0.69411(7) 0.21001(15) 0.65843(13)
H1 H 0.6827 0.2467 0.5736
C3 C 0.76565(7) 0.22272(17) 0.71569(14)
H2 H 0.8027 0.2704 0.6711
C4 C 0.78315(7) 0.16591(17) 0.83770(14)
H3 H 0.8324 0.1727 0.8762
C5 C 0.72879(8) 0.09920(16) 0.90343(14)
H4 H 0.7409 0.0607 0.9874
C6 C 0.65670(7) 0.08808(14) 0.84778(12)
H5 H 0.6197 0.0425 0.8938
C7 C 0.5000 -0.12460(18) 0.7500
C8 C 0.46066(6) 0.36702(12) 0.59546(11)
C9 C 0.41046(7) 0.47654(14) 0.64986(12)
H6 H 0.3932 0.5440 0.5814
H7 H 0.4377 0.5290 0.7204
H8 H 0.3677 0.4281 0.6833
N1 N 0.5000 0.03307(15) 0.7500
N2 N 0.50742(5) 0.28899(10) 0.68327(8)
O1 O 0.46362(5) 0.34660(10) 0.48000(8)
P1 P 0.54649(2) 0.12577(3) 0.63920(3)
C1A C 0.36137(6) 0.14384(12) 0.77570(11)
C2A C 0.30589(7) 0.21001(15) 0.84157(13)
H1A H 0.3173 0.2467 0.9264
C3A C 0.23435(7) 0.22272(17) 0.78431(14)
H2A H 0.1973 0.2704 0.8289
C4A C 0.21685(7) 0.16591(17) 0.66230(14)
H3A H 0.1676 0.1727 0.6238
C5A C 0.27121(8) 0.09920(16) 0.59657(14)
H4A H 0.2591 0.0607 0.5126
C6A C 0.34330(7) 0.08808(14) 0.65222(12)
H5A H 0.3803 0.0425 0.6062
C8A C 0.53934(6) 0.36702(12) 0.90454(11)
C9A C 0.58954(7) 0.47654(14) 0.85014(12)
H6A H 0.6068 0.5440 0.9186
H7A H 0.5623 0.5290 0.7796
H8A H 0.6323 0.4281 0.8167
N2A N 0.49258(5) 0.28899(10) 0.81673(8)
O1A O 0.53638(5) 0.34660(10) 1.02000(8)
P1A P 0.45351(2) 0.12577(3) 0.86080(3)
H9? H 0.5195 -0.1597 0.6699
H10? H 0.4492 -0.1597 0.7553
H11? H 0.5313 -0.1597 0.8248
loop_
_geom_bond_atom_site_label_1
_geom_bond_atom_site_label_2
_geom_bond_site_symmetry_1
_geom_bond_site_symmetry_2
C1 C2 1_555 1_555
C2 H1 1_555 1_555
C3 C2 1_555 1_555
H2 C3 1_555 1_555
C4 C3 1_555 1_555
H3 C4 1_555 1_555
C5 C4 1_555 1_555
H4 C5 1_555 1_555
C6 C1 1_555 1_555
H5 C6 1_555 1_555
C7 N1 1_555 1_555
C8 C9 1_555 1_555
C9 H6 1_555 1_555
H7 C9 1_555 1_555
H8 C9 1_555 1_555
N1 P1 1_555 1_555
N2 C8 1_555 1_555
O1 C8 1_555 1_555
P1 C1 1_555 1_555
C1A C2A 1_555 1_555
C2A H1A 1_555 1_555
C3A C2A 1_555 1_555
H2A C3A 1_555 1_555
C4A C3A 1_555 1_555
H3A C4A 1_555 1_555
C5A C4A 1_555 1_555
H4A C5A 1_555 1_555
C6A C1A 1_555 1_555
H5A C6A 1_555 1_555
C8A C9A 1_555 1_555
C9A H6A 1_555 1_555
H7A C9A 1_555 1_555
H8A C9A 1_555 1_555
N2A N2 1_555 1_555
O1A C8A 1_555 1_555
P1A N1 1_555 1_555
C5 C6 1_555 1_555
N2 P1 1_555 1_555
C1A P1A 1_555 1_555
C5A C6A 1_555 1_555
C8A N2A 1_555 1_555
N2A P1A 1_555 1_555

#END
