
#######################################################################
#
#                 Cambridge Crystallographic Data Centre
#                                CCDC 
#
#######################################################################
#
# If this CIF has been generated from an entry in the Cambridge 
# Structural Database, then it will include bibliographic, chemical, 
# crystal, experimental, refinement or atomic coordinate data resulting 
# from the CCDC's data processing and validation procedures.
#
#######################################################################

data_TEWTAS
_chemical_formula_moiety         'C23 H17 Cl1 N2 O5'
_chemical_name_systematic        
"Methyl 5'-chloro-1'-methyl-1,2',3-trioxo-2-phenyl-1',2,2',3,3a,6a-hexahydro-1H-spiro[cyclopenta[c]pyrrole-4,3'-indole]-5-carboxylate"
_symmetry_cell_setting           monoclinic
_symmetry_space_group_name_H-M   'P 21'
_symmetry_Int_Tables_number      4
_space_group_name_Hall           'P 2yb'
loop_
_symmetry_equiv_pos_site_id
_symmetry_equiv_pos_as_xyz
1 x,y,z
2 -x,1/2+y,-z
_cell_length_a                   6.0223(12)
_cell_length_b                   15.207(3)
_cell_length_c                   22.588(5)
_cell_angle_alpha                90
_cell_angle_beta                 93.22(3)
_cell_angle_gamma                90
_cell_volume                     2065.37
_exptl_crystal_colour            colorless
_exptl_crystal_description       plate
_cell_formula_units_Z            4
loop_
_atom_site_label
_atom_site_type_symbol
_atom_site_fract_x
_atom_site_fract_y
_atom_site_fract_z
Cl1 Cl 1.23246(17) 0.58726(6) 0.24913(4)
O1 O 0.5711(3) 0.57040(14) 0.52137(10)
O2 O 0.4605(4) 0.44137(15) 0.39763(11)
O3 O 0.5836(4) 0.30776(14) 0.42447(11)
O4 O 1.0237(4) 0.67139(14) 0.54522(10)
O5 O 1.1143(5) 0.39547(17) 0.62195(11)
N1 N 0.6013(4) 0.64447(16) 0.43297(12)
N2 N 1.0593(4) 0.54101(17) 0.59620(12)
C1 C 0.7327(5) 0.6372(2) 0.38316(14)
C2 C 0.7295(6) 0.6904(2) 0.33388(15)
H1 H 0.6260 0.7374 0.3289
C3 C 0.8831(6) 0.6731(2) 0.29156(15)
H2 H 0.8851 0.7081 0.2567
C4 C 1.0332(6) 0.6046(2) 0.30053(14)
C5 C 1.0316(5) 0.5501(2) 0.34964(14)
H3 H 1.1329 0.5024 0.3545
C6 C 0.8789(5) 0.5670(2) 0.39116(13)
C7 C 0.8510(5) 0.52685(19) 0.45126(13)
C8 C 0.6581(5) 0.5821(2) 0.47429(13)
C9 C 0.4341(6) 0.7122(2) 0.43905(17)
H4 H 0.5013 0.7702 0.4338
H5 H 0.3756 0.7086 0.4786
H6 H 0.3127 0.7036 0.4089
C10 C 0.8000(5) 0.42964(19) 0.45411(14)
C11 C 0.5977(5) 0.3948(2) 0.42191(14)
C12 C 0.3844(6) 0.2688(2) 0.39678(18)
H7 H 0.3872 0.2746 0.3536
H8 H 0.2533 0.2991 0.4106
H9 H 0.3780 0.2064 0.4074
C13 C 0.9416(5) 0.3844(2) 0.49010(14)
H10 H 0.9318 0.3228 0.4967
C14 C 1.1169(5) 0.4421(2) 0.51861(14)
H11 H 1.2687 0.4214 0.5093
C15 C 1.0700(5) 0.53354(19) 0.49280(13)
H12 H 1.1970 0.5532 0.4694
C16 C 1.0487(5) 0.5927(2) 0.54564(13)
C17 C 1.0984(6) 0.4524(2) 0.58515(15)
C18 C 1.0294(5) 0.5757(2) 0.65459(14)
C19 C 0.8399(6) 0.5572(3) 0.68281(16)
H13 H 0.7266 0.5219 0.6639
C20 C 0.8144(7) 0.5905(3) 0.73962(17)
H14 H 0.6842 0.5775 0.7598
C21 C 0.9777(7) 0.6420(3) 0.76600(17)
H15 H 0.9593 0.6657 0.8043
C22 C 1.1673(9) 0.6598(3) 0.73758(19)
H16 H 1.2807 0.6950 0.7565
C23 C 1.1946(7) 0.6267(3) 0.68153(18)
H17 H 1.3262 0.6390 0.6617
Cl2 Cl 0.29028(14) 0.83218(6) 0.26946(4)
O6 O 0.9093(3) 0.81781(14) -0.01111(10)
O7 O 1.0399(4) 0.68619(16) 0.11395(11)
O8 O 0.9423(4) 0.55638(14) 0.07400(11)
O9 O 0.4553(4) 0.91596(13) -0.02961(10)
O10 O 0.3566(5) 0.64227(17) -0.10912(11)
N3 N 0.8949(4) 0.88824(16) 0.07870(12)
N4 N 0.4092(4) 0.78722(16) -0.08164(11)
C24 C 0.7721(5) 0.8793(2) 0.13033(14)
C25 C 0.7881(6) 0.9300(2) 0.18090(16)
H18 H 0.8954 0.9756 0.1857
C26 C 0.6421(6) 0.9121(2) 0.22451(16)
H19 H 0.6498 0.9451 0.2603
C27 C 0.4855(5) 0.8465(2) 0.21608(13)
C28 C 0.4729(5) 0.7934(2) 0.16586(14)
H20 H 0.3666 0.7474 0.1612
C29 C 0.6218(5) 0.81060(18) 0.12308(13)
C30 C 0.6428(5) 0.7713(2) 0.06166(14)
C31 C 0.8316(5) 0.8271(2) 0.03733(13)
C32 C 1.0570(6) 0.9581(2) 0.07090(17)
H21 H 1.1118 0.9546 0.0309
H22 H 1.1818 0.9513 0.1003
H23 H 0.9863 1.0154 0.0763
C33 C 0.7003(5) 0.67463(18) 0.05666(13)
C34 C 0.9099(5) 0.6412(2) 0.08561(14)
C35 C 1.1472(6) 0.5171(2) 0.09728(16)
H24 H 1.1648 0.4590 0.0795
H25 H 1.1434 0.5111 0.1404
H26 H 1.2727 0.5546 0.0878
C36 C 0.5621(5) 0.6297(2) 0.02052(13)
H27 H 0.5795 0.5690 0.0118
C37 C 0.3758(5) 0.6851(2) -0.00491(14)
H28 H 0.2289 0.6616 0.0063
C38 C 0.4193(5) 0.77663(19) 0.02191(13)
H29 H 0.2938 0.7941 0.0466
C39 C 0.4302(5) 0.8371(2) -0.03064(13)
C40 C 0.3790(6) 0.6979(2) -0.07151(15)
C41 C 0.4176(5) 0.8243(2) -0.14008(13)
C42 C 0.6023(6) 0.8133(3) -0.17213(17)
H30 H 0.7250 0.7801 -0.1561
C43 C 0.6096(8) 0.8505(4) -0.22758(18)
H31 H 0.7372 0.8425 -0.2499
C44 C 0.4347(9) 0.8989(3) -0.25056(18)
H32 H 0.4399 0.9247 -0.2888
C45 C 0.2528(10) 0.9100(3) -0.2184(2)
H33 H 0.1313 0.9441 -0.2343
C46 C 0.2417(8) 0.8724(3) -0.16266(18)
H34 H 0.1134 0.8801 -0.1406
loop_
_geom_bond_atom_site_label_1
_geom_bond_atom_site_label_2
_geom_bond_site_symmetry_1
_geom_bond_site_symmetry_2
Cl1 C4 1_555 1_555
O1 C8 1_555 1_555
O2 C11 1_555 1_555
O3 C11 1_555 1_555
O4 C16 1_555 1_555
O5 C17 1_555 1_555
N1 C1 1_555 1_555
N2 C16 1_555 1_555
C1 C2 1_555 1_555
C2 H1 1_555 1_555
C3 C2 1_555 1_555
H2 C3 1_555 1_555
C4 C3 1_555 1_555
C5 C4 1_555 1_555
H3 C5 1_555 1_555
C6 C1 1_555 1_555
C7 C6 1_555 1_555
C8 N1 1_555 1_555
C9 N1 1_555 1_555
H4 C9 1_555 1_555
H5 C9 1_555 1_555
H6 C9 1_555 1_555
C10 C7 1_555 1_555
C11 C10 1_555 1_555
C12 O3 1_555 1_555
H7 C12 1_555 1_555
H8 C12 1_555 1_555
H9 C12 1_555 1_555
C13 C10 1_555 1_555
H10 C13 1_555 1_555
C14 C13 1_555 1_555
H11 C14 1_555 1_555
C15 C7 1_555 1_555
H12 C15 1_555 1_555
C16 C15 1_555 1_555
C17 N2 1_555 1_555
C18 N2 1_555 1_555
C19 C18 1_555 1_555
H13 C19 1_555 1_555
C20 C19 1_555 1_555
H14 C20 1_555 1_555
C21 C20 1_555 1_555
H15 C21 1_555 1_555
C22 C21 1_555 1_555
H16 C22 1_555 1_555
C23 C18 1_555 1_555
H17 C23 1_555 1_555
Cl2 C27 1_555 1_555
O6 C31 1_555 1_555
O7 C34 1_555 1_555
O8 C34 1_555 1_555
O9 C39 1_555 1_555
O10 C40 1_555 1_555
N3 C24 1_555 1_555
N4 C39 1_555 1_555
C24 C25 1_555 1_555
C25 H18 1_555 1_555
C26 C25 1_555 1_555
H19 C26 1_555 1_555
C27 C26 1_555 1_555
C28 C27 1_555 1_555
H20 C28 1_555 1_555
C29 C24 1_555 1_555
C30 C29 1_555 1_555
C31 N3 1_555 1_555
C32 N3 1_555 1_555
H21 C32 1_555 1_555
H22 C32 1_555 1_555
H23 C32 1_555 1_555
C33 C30 1_555 1_555
C34 C33 1_555 1_555
C35 O8 1_555 1_555
H24 C35 1_555 1_555
H25 C35 1_555 1_555
H26 C35 1_555 1_555
C36 C33 1_555 1_555
H27 C36 1_555 1_555
C37 C36 1_555 1_555
H28 C37 1_555 1_555
C38 C30 1_555 1_555
H29 C38 1_555 1_555
C39 C38 1_555 1_555
C40 N4 1_555 1_555
C41 N4 1_555 1_555
C42 C41 1_555 1_555
H30 C42 1_555 1_555
C43 C42 1_555 1_555
H31 C43 1_555 1_555
C44 C43 1_555 1_555
H32 C44 1_555 1_555
C45 C44 1_555 1_555
H33 C45 1_555 1_555
C46 C41 1_555 1_555
H34 C46 1_555 1_555
C5 C6 1_555 1_555
C7 C8 1_555 1_555
C14 C15 1_555 1_555
C14 C17 1_555 1_555
C22 C23 1_555 1_555
C28 C29 1_555 1_555
C30 C31 1_555 1_555
C37 C38 1_555 1_555
C37 C40 1_555 1_555
C45 C46 1_555 1_555

#END
