
#######################################################################
#
#                 Cambridge Crystallographic Data Centre
#                                CCDC 
#
#######################################################################
#
# If this CIF has been generated from an entry in the Cambridge 
# Structural Database, then it will include bibliographic, chemical, 
# crystal, experimental, refinement or atomic coordinate data resulting 
# from the CCDC's data processing and validation procedures.
#
#######################################################################

data_TEWWIE
_chemical_formula_moiety         'C30 H22'
_chemical_name_systematic        
4,5,14,15-tetrahydro-13,9:16,20-bis(metheno)cyclotetradeca[e]pyrene
_symmetry_cell_setting           monoclinic
_symmetry_space_group_name_H-M   'C 2/c'
_symmetry_Int_Tables_number      15
_space_group_name_Hall           '-C 2yn'
loop_
_symmetry_equiv_pos_site_id
_symmetry_equiv_pos_as_xyz
1 x,y,z
2 -x,y,1/2-z
3 1/2+x,1/2+y,z
4 1/2-x,1/2+y,1/2-z
5 -x,-y,-z
6 x,-y,1/2+z
7 1/2-x,1/2-y,-z
8 1/2+x,1/2-y,1/2+z
_cell_length_a                   18.2724(17)
_cell_length_b                   19.5178(15)
_cell_length_c                   18.301(2)
_cell_angle_alpha                90
_cell_angle_beta                 113.791(12)
_cell_angle_gamma                90
_cell_volume                     5972.19
_exptl_crystal_colour            colorless
_exptl_crystal_description       block
_cell_formula_units_Z            12
loop_
_atom_site_label
_atom_site_type_symbol
_atom_site_fract_x
_atom_site_fract_y
_atom_site_fract_z
C1 C 0.16055(15) 0.34871(15) 0.11421(17)
C2 C 0.20338(15) 0.28935(14) 0.14436(17)
C3 C 0.2843(2) 0.45193(19) 0.3818(2)
H1 H 0.2464 0.4306 0.4005
H2 H 0.3030 0.4950 0.4110
C4 C 0.17996(16) 0.41365(15) 0.16121(18)
C5 C 0.19315(17) 0.41545(17) 0.2422(2)
H3 H 0.1689 0.3827 0.2629
C6 C 0.24281(19) 0.46652(18) 0.2924(2)
C7 C 0.26447(19) 0.52251(16) 0.2586(2)
H4 H 0.2957 0.5579 0.2913
C8 C 0.24007(18) 0.52597(16) 0.1772(2)
H5 H 0.2497 0.5659 0.1538
C9 C 0.20115(16) 0.47079(15) 0.1290(2)
H6 H 0.1891 0.4722 0.0740
C10 C 0.35568(19) 0.40383(19) 0.3981(2)
H7 H 0.3920 0.4238 0.3765
H8 H 0.3853 0.3978 0.4558
C11 C 0.25005(16) 0.28000(15) 0.23213(18)
C12 C 0.30670(16) 0.32847(16) 0.27763(19)
H9 H 0.3322 0.3565 0.2532
C13 C 0.32531(18) 0.33509(17) 0.3590(2)
C14 C 0.2964(2) 0.28589(19) 0.3968(2)
H10 H 0.3087 0.2895 0.4517
C15 C 0.2502(2) 0.23246(18) 0.3536(2)
H11 H 0.2358 0.1970 0.3800
C16 C 0.22464(18) 0.23060(16) 0.2714(2)
H12 H 0.1899 0.1957 0.2419
C17 C 0.01466(19) 0.22248(19) -0.1389(2)
H13 H -0.0178 0.2314 -0.1955
H14 H -0.0141 0.1893 -0.1200
C18 C 0.09965(16) 0.34906(15) 0.03268(18)
C19 C 0.09092(16) 0.29172(15) -0.01661(17)
C20 C 0.02565(17) 0.28814(18) -0.09235(19)
C21 C -0.02699(18) 0.34222(19) -0.1177(2)
H15 H -0.0699 0.3402 -0.1681
C22 C -0.01778(18) 0.39961(19) -0.07035(19)
H16 H -0.0538 0.4364 -0.0893
C23 C 0.04376(16) 0.40320(17) 0.00425(18)
H17 H 0.0487 0.4419 0.0365
C24 C 0.09421(19) 0.19241(18) -0.12968(19)
H18 H 0.0856 0.1477 -0.1562
H19 H 0.1197 0.2226 -0.1553
C25 C 0.20005(16) 0.23309(15) 0.09151(18)
C26 C 0.14665(16) 0.23570(15) 0.01102(18)
C27 C 0.14784(18) 0.18429(16) -0.0432(2)
C28 C 0.2005(2) 0.13074(17) -0.0154(2)
H20 H 0.2010 0.0961 -0.0509
C29 C 0.25327(19) 0.12694(16) 0.0647(2)
H21 H 0.2889 0.0899 0.0827
C30 C 0.25342(18) 0.17710(15) 0.1173(2)
H22 H 0.2894 0.1742 0.1711
C31 C 0.48181(16) 0.24096(14) 0.70898(17)
C32 C 0.46300(18) 0.49203(15) 0.7090(2)
H23 H 0.4136 0.4914 0.7180
H24 H 0.4632 0.5338 0.6794
C33 C 0.47408(16) 0.30561(16) 0.66232(18)
C34 C 0.44337(16) 0.36586(15) 0.67975(19)
H25 H 0.4073 0.3636 0.7046
C35 C 0.46573(18) 0.42970(17) 0.6606(2)
C36 C 0.50823(19) 0.43174(17) 0.6118(2)
H26 H 0.5220 0.4743 0.5969
C37 C 0.53014(18) 0.37214(17) 0.5852(2)
H27 H 0.5546 0.3739 0.5489
C38 C 0.51546(17) 0.30948(17) 0.61288(18)
H28 H 0.5337 0.2690 0.5980
C39 C 0.45873(17) -0.01314(15) 0.71648(19)
H29 H 0.4534 -0.0528 0.6818
H30 H 0.4185 -0.0174 0.7389
C40 C 0.45649(16) 0.17691(15) 0.66637(17)
C41 C 0.47511(16) 0.11386(14) 0.70760(16)
C42 C 0.44386(17) 0.05152(16) 0.66785(19)
C43 C 0.39715(18) 0.05257(17) 0.58762(19)
H31 H 0.3771 0.0112 0.5607
C44 C 0.37874(18) 0.11400(18) 0.54506(19)
H32 H 0.3465 0.1136 0.4900
C45 C 0.40757(17) 0.17520(17) 0.58318(18)
H33 H 0.3948 0.2163 0.5539
C31A C 0.51819(16) 0.24096(14) 0.79102(17)
C32A C 0.53700(18) 0.49203(15) 0.7910(2)
H23A H 0.5864 0.4914 0.7820
H24A H 0.5368 0.5338 0.8206
C33A C 0.52592(16) 0.30561(16) 0.83768(18)
C34A C 0.55663(16) 0.36586(15) 0.82025(19)
H25A H 0.5927 0.3636 0.7954
C35A C 0.53427(18) 0.42970(17) 0.8394(2)
C36A C 0.49177(19) 0.43174(17) 0.8882(2)
H26A H 0.4780 0.4743 0.9031
C37A C 0.46986(18) 0.37214(17) 0.9148(2)
H27A H 0.4454 0.3739 0.9511
C38A C 0.48454(17) 0.30948(17) 0.88712(18)
H28A H 0.4663 0.2690 0.9020
C39A C 0.54127(17) -0.01314(15) 0.78352(19)
H29A H 0.5466 -0.0528 0.8182
H30A H 0.5815 -0.0174 0.7611
C40A C 0.54351(16) 0.17691(15) 0.83363(17)
C41A C 0.52489(16) 0.11386(14) 0.79240(16)
C42A C 0.55614(17) 0.05152(16) 0.83215(19)
C43A C 0.60285(18) 0.05257(17) 0.91238(19)
H31A H 0.6229 0.0112 0.9393
C44A C 0.62126(18) 0.11400(18) 0.95494(19)
H32A H 0.6535 0.1136 1.0100
C45A C 0.59243(17) 0.17520(17) 0.91682(18)
H33A H 0.6052 0.2163 0.9461
loop_
_geom_bond_atom_site_label_1
_geom_bond_atom_site_label_2
_geom_bond_site_symmetry_1
_geom_bond_site_symmetry_2
C1 C2 1_555 1_555
C2 C11 1_555 1_555
C3 H1 1_555 1_555
H2 C3 1_555 1_555
C4 C1 1_555 1_555
C5 C4 1_555 1_555
H3 C5 1_555 1_555
C6 C3 1_555 1_555
C7 C6 1_555 1_555
H4 C7 1_555 1_555
C8 C7 1_555 1_555
H5 C8 1_555 1_555
C9 C4 1_555 1_555
H6 C9 1_555 1_555
C10 C3 1_555 1_555
H7 C10 1_555 1_555
H8 C10 1_555 1_555
C11 C12 1_555 1_555
C12 H9 1_555 1_555
C13 C10 1_555 1_555
C14 C13 1_555 1_555
H10 C14 1_555 1_555
C15 C14 1_555 1_555
H11 C15 1_555 1_555
C16 C11 1_555 1_555
H12 C16 1_555 1_555
C17 H13 1_555 1_555
H14 C17 1_555 1_555
C18 C1 1_555 1_555
C19 C18 1_555 1_555
C20 C17 1_555 1_555
C21 C20 1_555 1_555
H15 C21 1_555 1_555
C22 C21 1_555 1_555
H16 C22 1_555 1_555
C23 C18 1_555 1_555
H17 C23 1_555 1_555
C24 C17 1_555 1_555
H18 C24 1_555 1_555
H19 C24 1_555 1_555
C25 C2 1_555 1_555
C26 C19 1_555 1_555
C27 C24 1_555 1_555
C28 C27 1_555 1_555
H20 C28 1_555 1_555
C29 C28 1_555 1_555
H21 C29 1_555 1_555
C30 C25 1_555 1_555
H22 C30 1_555 1_555
C31 C33 1_555 1_555
C32 H23 1_555 1_555
H24 C32 1_555 1_555
C33 C34 1_555 1_555
C34 H25 1_555 1_555
C35 C32 1_555 1_555
C36 C35 1_555 1_555
H26 C36 1_555 1_555
C37 C36 1_555 1_555
H27 C37 1_555 1_555
C38 C33 1_555 1_555
H28 C38 1_555 1_555
C39 H29 1_555 1_555
H30 C39 1_555 1_555
C40 C31 1_555 1_555
C41 C40 1_555 1_555
C42 C39 1_555 1_555
C43 C42 1_555 1_555
H31 C43 1_555 1_555
C44 C43 1_555 1_555
H32 C44 1_555 1_555
C45 C40 1_555 1_555
H33 C45 1_555 1_555
C31A C31 1_555 1_555
C32A C32 1_555 1_555
H23A C32A 1_555 1_555
H24A C32A 1_555 1_555
C33A C31A 1_555 1_555
C34A C33A 1_555 1_555
H25A C34A 1_555 1_555
C35A C32A 1_555 1_555
C36A C35A 1_555 1_555
H26A C36A 1_555 1_555
C37A C36A 1_555 1_555
H27A C37A 1_555 1_555
C38A C33A 1_555 1_555
H28A C38A 1_555 1_555
C39A C39 1_555 1_555
H29A C39A 1_555 1_555
H30A C39A 1_555 1_555
C40A C31A 1_555 1_555
C41A C41 1_555 1_555
C42A C39A 1_555 1_555
C43A C42A 1_555 1_555
H31A C43A 1_555 1_555
C44A C43A 1_555 1_555
H32A C44A 1_555 1_555
C45A C40A 1_555 1_555
H33A C45A 1_555 1_555
C5 C6 1_555 1_555
C8 C9 1_555 1_555
C12 C13 1_555 1_555
C15 C16 1_555 1_555
C19 C20 1_555 1_555
C22 C23 1_555 1_555
C25 C26 1_555 1_555
C26 C27 1_555 1_555
C29 C30 1_555 1_555
C34 C35 1_555 1_555
C37 C38 1_555 1_555
C41 C42 1_555 1_555
C44 C45 1_555 1_555
C34A C35A 1_555 1_555
C37A C38A 1_555 1_555
C40A C41A 1_555 1_555
C41A C42A 1_555 1_555
C44A C45A 1_555 1_555

#END
