
#######################################################################
#
#                 Cambridge Crystallographic Data Centre
#                                CCDC 
#
#######################################################################
#
# If this CIF has been generated from an entry in the Cambridge 
# Structural Database, then it will include bibliographic, chemical, 
# crystal, experimental, refinement or atomic coordinate data resulting 
# from the CCDC's data processing and validation procedures.
#
#######################################################################

data_TEWWUQ
_chemical_formula_moiety         'C30 H24'
_chemical_name_systematic        
hexacyclo[21.3.1.1^3,7^.1^10,14^.1^16,20^.0^2,15^]triaconta-1(27),2(15),3(30),4,6,10(29),11,13,16(28),17,19,23,25-tridecaene
_symmetry_cell_setting           monoclinic
_symmetry_space_group_name_H-M   'P 21/c'
_symmetry_Int_Tables_number      14
_space_group_name_Hall           '-P 2ybc'
loop_
_symmetry_equiv_pos_site_id
_symmetry_equiv_pos_as_xyz
1 x,y,z
2 -x,1/2+y,1/2-z
3 -x,-y,-z
4 x,1/2-y,1/2+z
_cell_length_a                   11.90924(15)
_cell_length_b                   17.5617(2)
_cell_length_c                   9.90343(13)
_cell_angle_alpha                90
_cell_angle_beta                 101.3933(13)
_cell_angle_gamma                90
_cell_volume                     2030.45
_exptl_crystal_colour            colorless
_exptl_crystal_description       block
_cell_formula_units_Z            4
loop_
_atom_site_label
_atom_site_type_symbol
_atom_site_fract_x
_atom_site_fract_y
_atom_site_fract_z
C1 C 0.23436(9) 0.20310(6) 0.29124(11)
C2 C 0.31174(9) 0.14425(6) 0.31173(11)
C3 C -0.07642(10) 0.01845(7) 0.27916(13)
H1 H -0.1592 0.0091 0.2459
H2 H -0.0589 0.0108 0.3802
C4 C -0.00493(10) -0.03933(7) 0.20879(12)
H3 H -0.0292 -0.0921 0.2236
H4 H -0.0187 -0.0297 0.1084
C5 C 0.54320(10) 0.37630(6) 0.23411(12)
H5 H 0.5686 0.4301 0.2377
H6 H 0.5427 0.3566 0.1404
C6 C 0.62802(9) 0.32814(6) 0.34283(12)
H7 H 0.7072 0.3348 0.3278
H8 H 0.6253 0.3462 0.4368
C7 C 0.10734(9) 0.19057(6) 0.25798(12)
C8 C 0.05271(9) 0.13278(7) 0.31833(12)
H9 H 0.0843 0.1163 0.4092
C9 C -0.04795(9) 0.09914(7) 0.24601(12)
C10 C -0.10453(10) 0.13414(7) 0.12464(13)
H10 H -0.1733 0.1125 0.0743
C11 C -0.06155(10) 0.20000(7) 0.07686(13)
H11 H -0.1051 0.2266 0.0006
C12 C 0.04572(10) 0.22711(7) 0.14090(13)
H12 H 0.0772 0.2706 0.1050
C13 C 0.27518(9) 0.06316(6) 0.32130(11)
C14 C 0.18001(9) 0.03250(6) 0.23108(11)
H13 H 0.1555 0.0544 0.1425
C15 C 0.12091(9) -0.02983(6) 0.27004(12)
C16 C 0.17117(10) -0.07088(6) 0.38699(12)
H14 H 0.1341 -0.1150 0.4126
C17 C 0.27506(10) -0.04768(7) 0.46624(12)
H15 H 0.3125 -0.0785 0.5405
C18 C 0.32427(9) 0.02061(6) 0.43690(12)
H16 H 0.3919 0.0384 0.4960
C19 C 0.27250(9) 0.28439(6) 0.29320(11)
C20 C 0.35559(9) 0.30857(6) 0.22027(11)
H17 H 0.3651 0.2819 0.1399
C21 C 0.42439(10) 0.37155(6) 0.26486(11)
C22 C 0.39372(10) 0.41857(6) 0.36564(12)
H18 H 0.4379 0.4627 0.3951
C23 C 0.29965(10) 0.40158(6) 0.42304(12)
H19 H 0.2749 0.4365 0.4843
C24 C 0.24155(9) 0.33321(6) 0.39084(12)
H20 H 0.1807 0.3197 0.4354
C25 C 0.43768(9) 0.15578(6) 0.31821(11)
C26 C 0.49846(9) 0.21994(6) 0.37652(11)
H21 H 0.4735 0.2467 0.4486
C27 C 0.59569(9) 0.24505(6) 0.32970(11)
C28 C 0.64561(9) 0.19672(6) 0.24626(11)
H22 H 0.7128 0.2121 0.2156
C29 C 0.59702(9) 0.12626(6) 0.20821(11)
H23 H 0.6358 0.0910 0.1608
C30 C 0.49166(9) 0.10704(6) 0.23938(11)
H24 H 0.4561 0.0603 0.2067
loop_
_geom_bond_atom_site_label_1
_geom_bond_atom_site_label_2
_geom_bond_site_symmetry_1
_geom_bond_site_symmetry_2
C1 C2 1_555 1_555
C2 C13 1_555 1_555
C3 H1 1_555 1_555
H2 C3 1_555 1_555
C4 C3 1_555 1_555
H3 C4 1_555 1_555
H4 C4 1_555 1_555
C5 H5 1_555 1_555
H6 C5 1_555 1_555
C6 C5 1_555 1_555
H7 C6 1_555 1_555
H8 C6 1_555 1_555
C7 C1 1_555 1_555
C8 C7 1_555 1_555
H9 C8 1_555 1_555
C9 C3 1_555 1_555
C10 C9 1_555 1_555
H10 C10 1_555 1_555
C11 C10 1_555 1_555
H11 C11 1_555 1_555
C12 C7 1_555 1_555
H12 C12 1_555 1_555
C13 C14 1_555 1_555
C14 H13 1_555 1_555
C15 C4 1_555 1_555
C16 C15 1_555 1_555
H14 C16 1_555 1_555
C17 C16 1_555 1_555
H15 C17 1_555 1_555
C18 C13 1_555 1_555
H16 C18 1_555 1_555
C19 C1 1_555 1_555
C20 C19 1_555 1_555
H17 C20 1_555 1_555
C21 C5 1_555 1_555
C22 C21 1_555 1_555
H18 C22 1_555 1_555
C23 C22 1_555 1_555
H19 C23 1_555 1_555
C24 C19 1_555 1_555
H20 C24 1_555 1_555
C25 C2 1_555 1_555
C26 C25 1_555 1_555
H21 C26 1_555 1_555
C27 C6 1_555 1_555
C28 C27 1_555 1_555
H22 C28 1_555 1_555
C29 C28 1_555 1_555
H23 C29 1_555 1_555
C30 C25 1_555 1_555
H24 C30 1_555 1_555
C8 C9 1_555 1_555
C11 C12 1_555 1_555
C14 C15 1_555 1_555
C17 C18 1_555 1_555
C20 C21 1_555 1_555
C23 C24 1_555 1_555
C26 C27 1_555 1_555
C29 C30 1_555 1_555

#END
