
#######################################################################
#
#                 Cambridge Crystallographic Data Centre
#                                CCDC 
#
#######################################################################
#
# If this CIF has been generated from an entry in the Cambridge 
# Structural Database, then it will include bibliographic, chemical, 
# crystal, experimental, refinement or atomic coordinate data resulting 
# from the CCDC's data processing and validation procedures.
#
#######################################################################

data_TEWXEB
_chemical_formula_moiety         'C29 H24'
_chemical_name_systematic        
10-(2,6-dimethylphenyl)-1-methyl-9-phenylphenanthrene
_symmetry_cell_setting           monoclinic
_symmetry_space_group_name_H-M   'P 21/c'
_symmetry_Int_Tables_number      14
_space_group_name_Hall           '-P 2ybc'
loop_
_symmetry_equiv_pos_site_id
_symmetry_equiv_pos_as_xyz
1 x,y,z
2 -x,1/2+y,1/2-z
3 -x,-y,-z
4 x,1/2-y,1/2+z
_cell_length_a                   7.3960(2)
_cell_length_b                   30.1314(11)
_cell_length_c                   18.3110(7)
_cell_angle_alpha                90
_cell_angle_beta                 91.801(3)
_cell_angle_gamma                90
_cell_volume                     4078.62
_exptl_crystal_colour            colorless
_exptl_crystal_description       needle
_cell_formula_units_Z            8
loop_
_atom_site_label
_atom_site_type_symbol
_atom_site_fract_x
_atom_site_fract_y
_atom_site_fract_z
C1 C 0.4166(2) 0.36550(6) 0.17880(10)
C2 C 0.4417(2) 0.36350(6) 0.10508(10)
C3 C 0.3330(2) 0.33438(6) 0.05875(10)
C4 C 0.3379(2) 0.33691(6) -0.01826(10)
H1 H 0.4211 0.3565 -0.0401
C5 C 0.2248(2) 0.31160(6) -0.06206(11)
H2 H 0.2289 0.3139 -0.1137
C6 C 0.1031(2) 0.28233(6) -0.03011(11)
H3 H 0.0245 0.2648 -0.0603
C7 C 0.0968(2) 0.27890(6) 0.04442(11)
H4 H 0.0136 0.2589 0.0651
C8 C 0.2114(2) 0.30453(6) 0.09124(10)
C9 C 0.2055(2) 0.30178(6) 0.17048(10)
C10 C 0.1057(2) 0.26787(6) 0.20346(11)
H5 H 0.0450 0.2464 0.1736
C11 C 0.0944(3) 0.26524(7) 0.27760(11)
H6 H 0.0279 0.2420 0.2992
C12 C 0.1816(2) 0.29701(6) 0.32123(11)
H7 H 0.1712 0.2952 0.3727
C13 C 0.2823(2) 0.33103(6) 0.29285(11)
C14 C 0.3007(2) 0.33357(6) 0.21514(10)
C15 C 0.3635(3) 0.36331(7) 0.34856(11)
H8 H 0.4956 0.3631 0.3456
H9 H 0.3296 0.3544 0.3977
H10 H 0.3177 0.3933 0.3383
C16 C 0.5075(2) 0.40279(6) 0.21942(10)
C17 C 0.4123(3) 0.44266(7) 0.22686(12)
C18 C 0.4968(3) 0.47797(7) 0.26198(13)
H11 H 0.4332 0.5051 0.2675
C19 C 0.6722(4) 0.47432(8) 0.28906(14)
H12 H 0.7294 0.4990 0.3122
C20 C 0.7649(3) 0.43486(9) 0.28263(12)
H13 H 0.8846 0.4325 0.3026
C21 C 0.6859(3) 0.39831(7) 0.24739(11)
C22 C 0.2198(3) 0.44733(8) 0.19860(14)
H14 H 0.2169 0.4470 0.1451
H15 H 0.1697 0.4754 0.2157
H16 H 0.1475 0.4226 0.2166
C23 C 0.7850(3) 0.35512(8) 0.24121(12)
H17 H 0.7107 0.3311 0.2603
H18 H 0.8995 0.3567 0.2695
H19 H 0.8096 0.3493 0.1898
C24 C 0.5831(2) 0.39122(6) 0.06956(10)
C25 C 0.5633(3) 0.43636(6) 0.05695(11)
H20 H 0.4560 0.4510 0.0709
C26 C 0.6989(3) 0.46041(7) 0.02412(12)
H21 H 0.6838 0.4913 0.0157
C27 C 0.8556(3) 0.43952(7) 0.00364(12)
H22 H 0.9482 0.4561 -0.0186
C28 C 0.8777(3) 0.39458(7) 0.01542(11)
H23 H 0.9853 0.3801 0.0012
C29 C 0.7417(2) 0.37060(7) 0.04821(11)
H24 H 0.7571 0.3397 0.0562
C30 C 0.0694(2) 0.63480(6) 0.36613(10)
C31 C 0.0617(2) 0.63580(6) 0.29137(10)
C32 C 0.1774(2) 0.66512(6) 0.25110(10)
C33 C 0.1826(2) 0.66380(6) 0.17425(11)
H25 H 0.1070 0.6434 0.1481
C34 C 0.2943(2) 0.69124(6) 0.13633(11)
H26 H 0.2961 0.6898 0.0845
C35 C 0.4054(2) 0.72139(6) 0.17466(11)
H27 H 0.4846 0.7401 0.1488
C36 C 0.4008(2) 0.72415(6) 0.24927(11)
H28 H 0.4762 0.7451 0.2743
C37 C 0.2863(2) 0.69653(6) 0.28967(10)
C38 C 0.2788(2) 0.69897(6) 0.36880(11)
C39 C 0.3661(2) 0.73396(7) 0.40738(11)
H29 H 0.4226 0.7570 0.3810
C40 C 0.3706(2) 0.73525(7) 0.48173(11)
H30 H 0.4260 0.7595 0.5070
C41 C 0.2931(2) 0.70065(7) 0.52033(11)
H31 H 0.3033 0.7010 0.5722
C42 C 0.2020(2) 0.66596(7) 0.48642(11)
C43 C 0.1840(2) 0.66576(6) 0.40796(10)
C44 C 0.1372(3) 0.62927(7) 0.53573(11)
H32 H 0.0050 0.6303 0.5376
H33 H 0.1899 0.6333 0.5850
H34 H 0.1747 0.6005 0.5165
C45 C -0.0561(2) 0.60296(6) 0.40281(10)
C46 C -0.0132(3) 0.55789(7) 0.40814(11)
C47 C -0.1365(3) 0.52929(7) 0.43998(12)
H35 H -0.1090 0.4986 0.4444
C48 C -0.2987(3) 0.54527(8) 0.46523(13)
H36 H -0.3822 0.5254 0.4863
C49 C -0.3392(3) 0.58940(8) 0.46000(12)
H37 H -0.4509 0.5999 0.4775
C50 C -0.2198(2) 0.61903(7) 0.42953(11)
C51 C 0.1646(3) 0.54001(7) 0.38288(13)
H38 H 0.1765 0.5465 0.3308
H39 H 0.1687 0.5078 0.3905
H40 H 0.2641 0.5541 0.4109
C52 C -0.2643(3) 0.66750(7) 0.42849(12)
H41 H -0.1864 0.6831 0.4644
H42 H -0.3913 0.6716 0.4407
H43 H -0.2445 0.6795 0.3797
C53 C -0.0713(2) 0.60824(6) 0.24763(10)
C54 C -0.0188(3) 0.57078(6) 0.20904(11)
H44 H 0.1036 0.5612 0.2125
C55 C -0.1423(3) 0.54716(7) 0.16564(12)
H45 H -0.1044 0.5216 0.1400
C56 C -0.3207(3) 0.56093(7) 0.15974(12)
H46 H -0.4054 0.5448 0.1301
C57 C -0.3753(3) 0.59821(7) 0.19704(12)
H47 H -0.4974 0.6079 0.1927
C58 C -0.2515(2) 0.62160(7) 0.24091(11)
H48 H -0.2904 0.6471 0.2667
loop_
_geom_bond_atom_site_label_1
_geom_bond_atom_site_label_2
_geom_bond_site_symmetry_1
_geom_bond_site_symmetry_2
C1 C2 1_555 1_555
C2 C3 1_555 1_555
C3 C4 1_555 1_555
C4 H1 1_555 1_555
C5 C4 1_555 1_555
H2 C5 1_555 1_555
C6 C5 1_555 1_555
H3 C6 1_555 1_555
C7 C6 1_555 1_555
H4 C7 1_555 1_555
C8 C3 1_555 1_555
C9 C8 1_555 1_555
C10 C9 1_555 1_555
H5 C10 1_555 1_555
C11 C10 1_555 1_555
H6 C11 1_555 1_555
C12 C11 1_555 1_555
H7 C12 1_555 1_555
C13 C12 1_555 1_555
C14 C1 1_555 1_555
C15 C13 1_555 1_555
H8 C15 1_555 1_555
H9 C15 1_555 1_555
H10 C15 1_555 1_555
C16 C1 1_555 1_555
C17 C16 1_555 1_555
C18 C17 1_555 1_555
H11 C18 1_555 1_555
C19 C18 1_555 1_555
H12 C19 1_555 1_555
C20 C19 1_555 1_555
H13 C20 1_555 1_555
C21 C16 1_555 1_555
C22 C17 1_555 1_555
H14 C22 1_555 1_555
H15 C22 1_555 1_555
H16 C22 1_555 1_555
C23 C21 1_555 1_555
H17 C23 1_555 1_555
H18 C23 1_555 1_555
H19 C23 1_555 1_555
C24 C2 1_555 1_555
C25 C24 1_555 1_555
H20 C25 1_555 1_555
C26 C25 1_555 1_555
H21 C26 1_555 1_555
C27 C26 1_555 1_555
H22 C27 1_555 1_555
C28 C27 1_555 1_555
H23 C28 1_555 1_555
C29 C24 1_555 1_555
H24 C29 1_555 1_555
C30 C31 1_555 1_555
C31 C32 1_555 1_555
C32 C33 1_555 1_555
C33 H25 1_555 1_555
C34 C33 1_555 1_555
H26 C34 1_555 1_555
C35 C34 1_555 1_555
H27 C35 1_555 1_555
C36 C35 1_555 1_555
H28 C36 1_555 1_555
C37 C32 1_555 1_555
C38 C37 1_555 1_555
C39 C38 1_555 1_555
H29 C39 1_555 1_555
C40 C39 1_555 1_555
H30 C40 1_555 1_555
C41 C40 1_555 1_555
H31 C41 1_555 1_555
C42 C41 1_555 1_555
C43 C30 1_555 1_555
C44 C42 1_555 1_555
H32 C44 1_555 1_555
H33 C44 1_555 1_555
H34 C44 1_555 1_555
C45 C30 1_555 1_555
C46 C45 1_555 1_555
C47 C46 1_555 1_555
H35 C47 1_555 1_555
C48 C47 1_555 1_555
H36 C48 1_555 1_555
C49 C48 1_555 1_555
H37 C49 1_555 1_555
C50 C45 1_555 1_555
C51 C46 1_555 1_555
H38 C51 1_555 1_555
H39 C51 1_555 1_555
H40 C51 1_555 1_555
C52 C50 1_555 1_555
H41 C52 1_555 1_555
H42 C52 1_555 1_555
H43 C52 1_555 1_555
C53 C31 1_555 1_555
C54 C53 1_555 1_555
H44 C54 1_555 1_555
C55 C54 1_555 1_555
H45 C55 1_555 1_555
C56 C55 1_555 1_555
H46 C56 1_555 1_555
C57 C56 1_555 1_555
H47 C57 1_555 1_555
C58 C53 1_555 1_555
H48 C58 1_555 1_555
C7 C8 1_555 1_555
C9 C14 1_555 1_555
C13 C14 1_555 1_555
C20 C21 1_555 1_555
C28 C29 1_555 1_555
C36 C37 1_555 1_555
C38 C43 1_555 1_555
C42 C43 1_555 1_555
C49 C50 1_555 1_555
C57 C58 1_555 1_555

#END
