
#######################################################################
#
#                 Cambridge Crystallographic Data Centre
#                                CCDC 
#
#######################################################################
#
# If this CIF has been generated from an entry in the Cambridge 
# Structural Database, then it will include bibliographic, chemical, 
# crystal, experimental, refinement or atomic coordinate data resulting 
# from the CCDC's data processing and validation procedures.
#
#######################################################################

data_TEWXAX
_chemical_formula_moiety         'C28 H22'
_chemical_name_systematic        
5-(diphenylmethylidene)-10,11-dihydro-5H-dibenzo[a,d][7]annulene
_symmetry_cell_setting           triclinic
_symmetry_space_group_name_H-M   'P -1'
_symmetry_Int_Tables_number      2
_space_group_name_Hall           '-P 1'
loop_
_symmetry_equiv_pos_site_id
_symmetry_equiv_pos_as_xyz
1 x,y,z
2 -x,-y,-z
_cell_length_a                   11.9827(13)
_cell_length_b                   13.0612(15)
_cell_length_c                   14.0684(17)
_cell_angle_alpha                117.413(6)
_cell_angle_beta                 92.608(6)
_cell_angle_gamma                90.268(7)
_cell_volume                     1951.74
_exptl_crystal_colour            colorless
_exptl_crystal_description       plate
_cell_formula_units_Z            4
loop_
_atom_site_label
_atom_site_type_symbol
_atom_site_fract_x
_atom_site_fract_y
_atom_site_fract_z
C1 C -0.1545(3) 0.8132(3) 0.0511(3)
C2 C -0.1685(3) 0.9318(3) 0.0893(3)
H1 H -0.1140 0.9749 0.0774
C3 C -0.2613(3) 0.9871(3) 0.1444(3)
H2 H -0.2692 1.0659 0.1688
C4 C -0.3420(3) 0.9226(3) 0.1622(3)
H3 H -0.4035 0.9591 0.2006
C5 C -0.3329(3) 0.8053(3) 0.1240(3)
H4 H -0.3889 0.7633 0.1354
C6 C -0.2391(3) 0.7488(3) 0.0677(3)
C7 C -0.2397(3) 0.6216(3) 0.0320(3)
H5 H -0.3086 0.5885 -0.0107
H6 H -0.2427 0.6106 0.0955
C8 C -0.1436(3) 0.5514(3) -0.0324(3)
H7 H -0.0753 0.5754 0.0130
H8 H -0.1582 0.4706 -0.0530
C9 C -0.1260(3) 0.5643(3) -0.1325(3)
C10 C -0.1527(3) 0.4775(3) -0.2355(2)
H9 H -0.1838 0.4079 -0.2448
C11 C -0.1337(3) 0.4930(3) -0.3253(3)
H10 H -0.1534 0.4341 -0.3935
C12 C -0.0857(3) 0.5954(3) -0.3143(3)
H11 H -0.0718 0.6049 -0.3743
C13 C -0.0588(3) 0.6835(3) -0.2114(2)
H12 H -0.0278 0.7530 -0.2024
C14 C -0.0781(2) 0.6679(3) -0.1218(2)
C15 C -0.0529(3) 0.7616(3) -0.0099(2)
C16 C 0.0524(3) 0.7998(3) 0.0325(3)
C17 C 0.1568(3) 0.7531(3) -0.0262(2)
C18 C 0.1686(3) 0.6368(3) -0.0938(3)
H13 H 0.1103 0.5850 -0.1036
C19 C 0.2662(3) 0.5961(3) -0.1470(3)
H14 H 0.2724 0.5175 -0.1916
C20 C 0.3540(3) 0.6706(3) -0.1346(3)
H15 H 0.4183 0.6428 -0.1720
C21 C 0.3457(3) 0.7855(3) -0.0670(3)
H16 H 0.4052 0.8361 -0.0567
C22 C 0.2481(3) 0.8270(3) -0.0133(3)
H17 H 0.2433 0.9055 0.0323
C23 C 0.0693(3) 0.8876(3) 0.1483(2)
C24 C 0.1066(3) 1.0009(3) 0.1809(3)
H18 H 0.1222 1.0245 0.1297
C25 C 0.1207(3) 1.0782(3) 0.2887(3)
H19 H 0.1469 1.1530 0.3093
C26 C 0.0960(3) 1.0452(3) 0.3667(3)
H20 H 0.1060 1.0977 0.4390
C27 C 0.0565(3) 0.9340(3) 0.3363(3)
H21 H 0.0379 0.9122 0.3880
C28 C 0.0448(3) 0.8550(3) 0.2282(3)
H22 H 0.0205 0.7798 0.2081
C29 C 0.4416(19) 0.6939(12) 0.3527(9)
C30 C 0.4855(16) 0.5927(13) 0.2759(8)
H23 H 0.5267 0.5462 0.2976
C31 C 0.4686(9) 0.5600(9) 0.1668(8)
H24 H 0.4951 0.4902 0.1162
C32 C 0.4118(8) 0.6323(9) 0.1336(7)
H25 H 0.4010 0.6108 0.0609
C33 C 0.3717(8) 0.7357(8) 0.2088(7)
H26 H 0.3348 0.7844 0.1869
C34 C 0.3870(12) 0.7669(8) 0.3180(7)
C35 C 0.3371(7) 0.8787(7) 0.3921(7)
H27 H 0.2592 0.8752 0.3684
H28 H 0.3736 0.9390 0.3817
C36 C 0.3407(8) 0.9180(5) 0.5129(6)
H29 H 0.4174 0.9395 0.5409
H30 H 0.2969 0.9867 0.5464
C37 C 0.2984(9) 0.8307(9) 0.5464(11)
C38 C 0.1954(8) 0.8430(9) 0.5913(9)
H31 H 0.1504 0.9036 0.5980
C39 C 0.1592(7) 0.7653(9) 0.6263(8)
H32 H 0.0896 0.7742 0.6554
C40 C 0.2251(8) 0.6745(9) 0.6187(9)
H33 H 0.2021 0.6243 0.6446
C41 C 0.3271(10) 0.6620(14) 0.5708(15)
H34 H 0.3728 0.6027 0.5661
C42 C 0.3636(17) 0.735(2) 0.529(3)
C43 C 0.4677(2) 0.7230(3) 0.4696(2)
C44 C 0.5716(3) 0.7269(3) 0.5143(2)
C45 C 0.5884(2) 0.7538(3) 0.6302(2)
C46 C 0.5762(3) 0.8669(3) 0.7080(3)
H35 H 0.5556 0.9228 0.6876
C47 C 0.5946(3) 0.8976(3) 0.8171(3)
H36 H 0.5858 0.9735 0.8684
C48 C 0.6259(3) 0.8154(3) 0.8493(3)
H37 H 0.6388 0.8364 0.9217
C49 C 0.6376(3) 0.7028(3) 0.7731(3)
H38 H 0.6588 0.6474 0.7940
C50 C 0.6178(3) 0.6717(3) 0.6649(3)
H39 H 0.6242 0.5950 0.6143
C51 C 0.6779(3) 0.7154(3) 0.4559(2)
C52 C 0.7644(3) 0.6498(3) 0.4662(3)
H40 H 0.7569 0.6132 0.5089
C53 C 0.8628(3) 0.6387(3) 0.4126(3)
H41 H 0.9193 0.5931 0.4187
C54 C 0.8774(3) 0.6951(3) 0.3502(3)
H42 H 0.9431 0.6871 0.3151
C55 C 0.7936(3) 0.7626(3) 0.3411(3)
H43 H 0.8030 0.8014 0.3006
C56 C 0.6941(3) 0.7725(3) 0.3932(3)
H44 H 0.6377 0.8175 0.3862
C57? C 0.454(3) 0.7093(19) 0.3571(16)
C58? C 0.469(3) 0.605(2) 0.2667(12)
H45? H 0.4951 0.5424 0.2753
C59? C 0.4448(16) 0.5912(13) 0.1635(12)
H46? H 0.4647 0.5241 0.1044
C60? C 0.3913(13) 0.6773(12) 0.1483(11)
H47? H 0.3705 0.6671 0.0799
C61? C 0.3703(17) 0.7789(14) 0.2389(11)
H48? H 0.3362 0.8381 0.2303
C62? C 0.3983(18) 0.7954(15) 0.3420(11)
C63? C 0.3745(10) 0.9047(10) 0.4389(11)
H49? H 0.3592 0.9638 0.4169
H50? H 0.4409 0.9295 0.4868
C64? C 0.2756(13) 0.8955(12) 0.5011(11)
H51? H 0.2697 0.9698 0.5636
H52? H 0.2081 0.8832 0.4560
C65? C 0.2761(13) 0.8054(14) 0.5384(15)
C66? C 0.1831(12) 0.8050(14) 0.5942(14)
H53? H 0.1267 0.8572 0.6046
C67? C 0.1751(11) 0.7256(12) 0.6342(11)
H54? H 0.1128 0.7262 0.6715
C68? C 0.2571(12) 0.6453(13) 0.6203(13)
H55? H 0.2493 0.5916 0.6459
C69? C 0.3510(15) 0.6483(18) 0.5669(19)
H56? H 0.4060 0.5942 0.5547
C70? C 0.364(3) 0.732(4) 0.531(5)
loop_
_geom_bond_atom_site_label_1
_geom_bond_atom_site_label_2
_geom_bond_site_symmetry_1
_geom_bond_site_symmetry_2
C1 C2 1_555 1_555
C2 H1 1_555 1_555
C3 C2 1_555 1_555
H2 C3 1_555 1_555
C4 C3 1_555 1_555
H3 C4 1_555 1_555
C5 C4 1_555 1_555
H4 C5 1_555 1_555
C6 C1 1_555 1_555
C7 C6 1_555 1_555
H5 C7 1_555 1_555
H6 C7 1_555 1_555
C8 C7 1_555 1_555
H7 C8 1_555 1_555
H8 C8 1_555 1_555
C9 C8 1_555 1_555
C10 C9 1_555 1_555
H9 C10 1_555 1_555
C11 C10 1_555 1_555
H10 C11 1_555 1_555
C12 C11 1_555 1_555
H11 C12 1_555 1_555
C13 C12 1_555 1_555
H12 C13 1_555 1_555
C14 C9 1_555 1_555
C15 C1 1_555 1_555
C16 C15 1_555 1_555
C17 C16 1_555 1_555
C18 C17 1_555 1_555
H13 C18 1_555 1_555
C19 C18 1_555 1_555
H14 C19 1_555 1_555
C20 C19 1_555 1_555
H15 C20 1_555 1_555
C21 C20 1_555 1_555
H16 C21 1_555 1_555
C22 C17 1_555 1_555
H17 C22 1_555 1_555
C23 C16 1_555 1_555
C24 C23 1_555 1_555
H18 C24 1_555 1_555
C25 C24 1_555 1_555
H19 C25 1_555 1_555
C26 C25 1_555 1_555
H20 C26 1_555 1_555
C27 C26 1_555 1_555
H21 C27 1_555 1_555
C28 C23 1_555 1_555
H22 C28 1_555 1_555
C29 C30 1_555 1_555
C30 H23 1_555 1_555
C31 C30 1_555 1_555
H24 C31 1_555 1_555
C32 C31 1_555 1_555
H25 C32 1_555 1_555
C33 C32 1_555 1_555
H26 C33 1_555 1_555
C34 C29 1_555 1_555
C35 C34 1_555 1_555
H27 C35 1_555 1_555
H28 C35 1_555 1_555
C36 C35 1_555 1_555
H29 C36 1_555 1_555
H30 C36 1_555 1_555
C37 C36 1_555 1_555
C38 C37 1_555 1_555
H31 C38 1_555 1_555
C39 C38 1_555 1_555
H32 C39 1_555 1_555
C40 C39 1_555 1_555
H33 C40 1_555 1_555
C41 C40 1_555 1_555
H34 C41 1_555 1_555
C42 C37 1_555 1_555
C43 C29 1_555 1_555
C44 C43 1_555 1_555
C45 C44 1_555 1_555
C46 C45 1_555 1_555
H35 C46 1_555 1_555
C47 C46 1_555 1_555
H36 C47 1_555 1_555
C48 C47 1_555 1_555
H37 C48 1_555 1_555
C49 C48 1_555 1_555
H38 C49 1_555 1_555
C50 C45 1_555 1_555
H39 C50 1_555 1_555
C51 C44 1_555 1_555
C52 C51 1_555 1_555
H40 C52 1_555 1_555
C53 C52 1_555 1_555
H41 C53 1_555 1_555
C54 C53 1_555 1_555
H42 C54 1_555 1_555
C55 C54 1_555 1_555
H43 C55 1_555 1_555
C56 C51 1_555 1_555
H44 C56 1_555 1_555
C5 C6 1_555 1_555
C13 C14 1_555 1_555
C14 C15 1_555 1_555
C21 C22 1_555 1_555
C27 C28 1_555 1_555
C33 C34 1_555 1_555
C41 C42 1_555 1_555
C42 C43 1_555 1_555
C49 C50 1_555 1_555
C55 C56 1_555 1_555

#END
