
#######################################################################
#
#                 Cambridge Crystallographic Data Centre
#                                CCDC 
#
#######################################################################
#
# If this CIF has been generated from an entry in the Cambridge 
# Structural Database, then it will include bibliographic, chemical, 
# crystal, experimental, refinement or atomic coordinate data resulting 
# from the CCDC's data processing and validation procedures.
#
#######################################################################

data_TEWXOK
_chemical_formula_moiety         'C18 H29 N3 O11'
_chemical_name_systematic        
'2-(Acetoxymethyl)-6-(((2,2-diethyl-1-oxido-1\l^5^-diazan-1-ylidene)amino)oxy)tetrahydro-2H-pyran-3,4,5-triyl triacetate'
_symmetry_cell_setting           monoclinic
_symmetry_space_group_name_H-M   'P 21'
_symmetry_Int_Tables_number      4
_space_group_name_Hall           'P 2yb'
loop_
_symmetry_equiv_pos_site_id
_symmetry_equiv_pos_as_xyz
1 x,y,z
2 -x,1/2+y,-z
_cell_length_a                   6.8046(4)
_cell_length_b                   18.0754(17)
_cell_length_c                   10.0662(10)
_cell_angle_alpha                90
_cell_angle_beta                 93.540(6)
_cell_angle_gamma                90
_cell_volume                     1235.74
_exptl_crystal_colour            colorless
_exptl_crystal_description       prism
_cell_formula_units_Z            2
loop_
_atom_site_label
_atom_site_type_symbol
_atom_site_fract_x
_atom_site_fract_y
_atom_site_fract_z
N1 N 0.3901(4) 1.11101(16) 0.5872(3)
C1 C 0.6061(6) 1.1144(3) 0.5891(5)
H1 H 0.6458 1.1637 0.5638
H2 H 0.6522 1.0798 0.5242
C2 C 0.7004(8) 1.0962(4) 0.7233(6)
H3 H 0.8410 1.0968 0.7194
H4 H 0.6590 1.0479 0.7497
H5 H 0.6617 1.1321 0.7869
C3 C 0.2991(6) 1.1284(3) 0.4528(4)
H6 H 0.3535 1.0957 0.3881
H7 H 0.3320 1.1788 0.4296
C4 C 0.0784(8) 1.1200(4) 0.4459(7)
H8 H 0.0251 1.1349 0.3595
H9 H 0.0244 1.1504 0.5127
H10 H 0.0451 1.0692 0.4610
N2 N 0.3377(4) 1.03629(14) 0.6175(2)
O1 O 0.3767(4) 0.98408(14) 0.5447(2)
N3 N 0.2537(4) 1.03458(14) 0.7270(2)
O2 O 0.2129(3) 0.96060(11) 0.7532(2)
C5 C 0.1551(4) 0.95706(17) 0.8857(3)
H11 H 0.0625 0.9969 0.9035
O3 O 0.3271(3) 0.96297(12) 0.9689(2)
C6 C 0.2872(4) 0.96162(18) 1.1069(3)
H12 H 0.1905 0.9998 1.1253
C7 C 0.4788(5) 0.9776(2) 1.1829(4)
H13 H 0.4701 0.9645 1.2758
H14 H 0.5835 0.9486 1.1472
O4 O 0.5204(3) 1.05567(13) 1.1708(3)
C8 C 0.6910(5) 1.0769(2) 1.1283(4)
O5 O 0.8137(4) 1.0354(2) 1.0955(4)
C9 C 0.7067(6) 1.1592(2) 1.1230(5)
H15 H 0.8423 1.1735 1.1368
H16 H 0.6322 1.1806 1.1913
H17 H 0.6556 1.1765 1.0375
C10 C 0.2060(4) 0.88565(19) 1.1377(3)
H18 H 0.3080 0.8478 1.1306
O6 O 0.1375(4) 0.88674(15) 1.2705(2)
C11 C 0.2147(8) 0.8378(3) 1.3616(4)
O7 O 0.3565(9) 0.8031(3) 1.3445(4)
C12 C 0.0999(10) 0.8382(3) 1.4824(5)
H19 H 0.1470 0.7996 1.5417
H20 H -0.0368 0.8300 1.4572
H21 H 0.1152 0.8851 1.5263
C13 C 0.0279(4) 0.86734(17) 1.0461(3)
H22 H -0.0847 0.8966 1.0722
O8 O -0.0126(3) 0.79024(12) 1.0652(2)
C14 C -0.2009(5) 0.7680(2) 1.0700(4)
O9 O -0.3381(4) 0.80793(19) 1.0537(4)
C15 C -0.2099(7) 0.6872(3) 1.0940(6)
H23 H -0.2461 0.6622 1.0119
H24 H -0.3062 0.6770 1.1573
H25 H -0.0833 0.6699 1.1282
C16 C 0.0605(4) 0.88187(17) 0.9009(3)
H26 H 0.1430 0.8430 0.8654
O10 O -0.1254(3) 0.88584(11) 0.8258(2)
C17 C -0.1939(5) 0.8246(2) 0.7613(3)
O11 O -0.1051(4) 0.76804(14) 0.7601(3)
C18 C -0.3932(6) 0.8380(3) 0.6983(5)
H27 H -0.4511 0.7918 0.6698
H28 H -0.3837 0.8700 0.6228
H29 H -0.4739 0.8610 0.7615
loop_
_geom_bond_atom_site_label_1
_geom_bond_atom_site_label_2
_geom_bond_site_symmetry_1
_geom_bond_site_symmetry_2
N1 C1 1_555 1_555
C1 H1 1_555 1_555
H2 C1 1_555 1_555
C2 C1 1_555 1_555
H3 C2 1_555 1_555
H4 C2 1_555 1_555
H5 C2 1_555 1_555
C3 N1 1_555 1_555
H6 C3 1_555 1_555
H7 C3 1_555 1_555
C4 C3 1_555 1_555
H8 C4 1_555 1_555
H9 C4 1_555 1_555
H10 C4 1_555 1_555
N2 N1 1_555 1_555
O1 N2 1_555 1_555
N3 N2 1_555 1_555
O2 N3 1_555 1_555
C5 O2 1_555 1_555
H11 C5 1_555 1_555
O3 C5 1_555 1_555
C6 O3 1_555 1_555
H12 C6 1_555 1_555
C7 C6 1_555 1_555
H13 C7 1_555 1_555
H14 C7 1_555 1_555
O4 C7 1_555 1_555
C8 O4 1_555 1_555
O5 C8 1_555 1_555
C9 C8 1_555 1_555
H15 C9 1_555 1_555
H16 C9 1_555 1_555
H17 C9 1_555 1_555
C10 C6 1_555 1_555
H18 C10 1_555 1_555
O6 C10 1_555 1_555
C11 O6 1_555 1_555
O7 C11 1_555 1_555
C12 C11 1_555 1_555
H19 C12 1_555 1_555
H20 C12 1_555 1_555
H21 C12 1_555 1_555
C13 C10 1_555 1_555
H22 C13 1_555 1_555
O8 C13 1_555 1_555
C14 O8 1_555 1_555
O9 C14 1_555 1_555
C15 C14 1_555 1_555
H23 C15 1_555 1_555
H24 C15 1_555 1_555
H25 C15 1_555 1_555
C16 C5 1_555 1_555
H26 C16 1_555 1_555
O10 C16 1_555 1_555
C17 O10 1_555 1_555
O11 C17 1_555 1_555
C18 C17 1_555 1_555
H27 C18 1_555 1_555
H28 C18 1_555 1_555
H29 C18 1_555 1_555
C13 C16 1_555 1_555

#END
