
#######################################################################
#
#                 Cambridge Crystallographic Data Centre
#                                CCDC 
#
#######################################################################
#
# If this CIF has been generated from an entry in the Cambridge 
# Structural Database, then it will include bibliographic, chemical, 
# crystal, experimental, refinement or atomic coordinate data resulting 
# from the CCDC's data processing and validation procedures.
#
#######################################################################

data_TEWXIE
_chemical_formula_moiety         'C18 H27 N3 O11'
_chemical_name_systematic        
'2-(Acetoxymethyl)-6-((2-oxido-2-(pyrrolidin-1-yl)-2\l^5^-diazen-1-yl)oxy)tetrahydro-2H-pyran-3,4,5-triyl triacetate'
_symmetry_cell_setting           orthorhombic
_symmetry_space_group_name_H-M   'P 21 21 21'
_symmetry_Int_Tables_number      19
_space_group_name_Hall           'P 2ac 2ab'
loop_
_symmetry_equiv_pos_site_id
_symmetry_equiv_pos_as_xyz
1 x,y,z
2 1/2-x,-y,1/2+z
3 -x,1/2+y,1/2-z
4 1/2+x,1/2-y,-z
_cell_length_a                   5.6135(7)
_cell_length_b                   18.202(2)
_cell_length_c                   23.189(2)
_cell_angle_alpha                90
_cell_angle_beta                 90
_cell_angle_gamma                90
_cell_volume                     2369.38
_exptl_crystal_colour            colorless
_exptl_crystal_description       rod
_cell_formula_units_Z            4
loop_
_atom_site_label
_atom_site_type_symbol
_atom_site_fract_x
_atom_site_fract_y
_atom_site_fract_z
N1 N -0.2924(16) 0.1275(4) 0.9589(3)
C1 C -0.487(2) 0.1756(5) 0.9724(5)
H1 H -0.5726 0.1898 0.9378
H2 H -0.4314 0.2194 0.9919
C2 C -0.642(2) 0.1297(6) 1.0116(4)
H3 H -0.6233 0.1450 1.0514
H4 H -0.8085 0.1347 1.0009
C3 C -0.564(3) 0.0543(6) 1.0042(6)
H5 H -0.6941 0.0246 0.9898
H6 H -0.5135 0.0343 1.0410
C4 C -0.365(2) 0.0523(5) 0.9634(4)
H7 H -0.2365 0.0219 0.9779
H8 H -0.4162 0.0334 0.9263
N2 N -0.1543(14) 0.1478(4) 0.9123(3)
O1 O -0.1211(15) 0.2139(3) 0.9042(3)
N3 N -0.0658(15) 0.0941(4) 0.8849(3)
O2 O 0.0956(11) 0.1248(3) 0.8441(2)
C5 C 0.1586(17) 0.0679(4) 0.8065(3)
H9 H 0.0171 0.0401 0.7948
O3 O 0.3234(11) 0.0214(3) 0.8346(2)
C6 C 0.3727(16) -0.0427(4) 0.8011(3)
H10 H 0.2236 -0.0683 0.7920
C7 C 0.5282(17) -0.0911(4) 0.8363(3)
H11 H 0.5822 -0.1328 0.8138
H12 H 0.6664 -0.0643 0.8500
O4 O 0.3839(11) -0.1157(3) 0.8846(2)
O5 O 0.6947(18) -0.1683(6) 0.9240(4)
C8 C 0.490(3) -0.1535(6) 0.9257(5)
C9 C 0.4953(16) -0.0186(4) 0.7453(3)
H13 H 0.6577 -0.0020 0.7538
O6 O 0.5032(11) -0.0799(3) 0.7057(2)
C10 C 0.720(2) -0.1074(5) 0.6913(4)
O7 O 0.8986(12) -0.0854(4) 0.7131(3)
C11 C 0.691(2) -0.1671(5) 0.6476(4)
H14 H 0.8452 -0.1865 0.6377
H15 H 0.6168 -0.1476 0.6136
H16 H 0.5942 -0.2056 0.6633
C12 C 0.3603(15) 0.0420(4) 0.7140(3)
H17 H 0.2236 0.0211 0.6935
O8 O 0.5238(10) 0.0745(3) 0.6734(2)
C13 C 0.463(2) 0.0808(6) 0.6171(4)
O9 O 0.2658(19) 0.0649(6) 0.6018(3)
C14 C 0.660(2) 0.1124(6) 0.5827(4)
H18 H 0.6120 0.1164 0.5431
H19 H 0.7972 0.0810 0.5853
H20 H 0.6996 0.1602 0.5973
C15 C 0.2767(14) 0.1025(4) 0.7547(3)
H21 H 0.4114 0.1331 0.7667
O10 O 0.1002(10) 0.1463(3) 0.7254(2)
C16 C 0.150(2) 0.2174(5) 0.7175(5)
O11 O 0.3370(14) 0.2447(3) 0.7288(4)
C17 C -0.0635(17) 0.2574(5) 0.6931(4)
H22 H -0.0241 0.3082 0.6873
H23 H -0.1944 0.2537 0.7195
H24 H -0.1073 0.2357 0.6568
C18 C 0.318(2) -0.1736(5) 0.9722(4)
H25 H 0.3998 -0.2004 1.0019
H26 H 0.1936 -0.2036 0.9564
H27 H 0.2504 -0.1297 0.9883
loop_
_geom_bond_atom_site_label_1
_geom_bond_atom_site_label_2
_geom_bond_site_symmetry_1
_geom_bond_site_symmetry_2
N1 C1 1_555 1_555
C1 H1 1_555 1_555
H2 C1 1_555 1_555
C2 C1 1_555 1_555
H3 C2 1_555 1_555
H4 C2 1_555 1_555
C3 C2 1_555 1_555
H5 C3 1_555 1_555
H6 C3 1_555 1_555
C4 N1 1_555 1_555
H7 C4 1_555 1_555
H8 C4 1_555 1_555
N2 N1 1_555 1_555
O1 N2 1_555 1_555
N3 N2 1_555 1_555
O2 N3 1_555 1_555
C5 O2 1_555 1_555
H9 C5 1_555 1_555
O3 C5 1_555 1_555
C6 O3 1_555 1_555
H10 C6 1_555 1_555
C7 C6 1_555 1_555
H11 C7 1_555 1_555
H12 C7 1_555 1_555
O4 C7 1_555 1_555
O5 C8 1_555 1_555
C8 O4 1_555 1_555
C9 C6 1_555 1_555
H13 C9 1_555 1_555
O6 C9 1_555 1_555
C10 O6 1_555 1_555
O7 C10 1_555 1_555
C11 C10 1_555 1_555
H14 C11 1_555 1_555
H15 C11 1_555 1_555
H16 C11 1_555 1_555
C12 C9 1_555 1_555
H17 C12 1_555 1_555
O8 C12 1_555 1_555
C13 O8 1_555 1_555
O9 C13 1_555 1_555
C14 C13 1_555 1_555
H18 C14 1_555 1_555
H19 C14 1_555 1_555
H20 C14 1_555 1_555
C15 C5 1_555 1_555
H21 C15 1_555 1_555
O10 C15 1_555 1_555
C16 O10 1_555 1_555
O11 C16 1_555 1_555
C17 C16 1_555 1_555
H22 C17 1_555 1_555
H23 C17 1_555 1_555
H24 C17 1_555 1_555
C18 C8 1_555 1_555
H25 C18 1_555 1_555
H26 C18 1_555 1_555
H27 C18 1_555 1_555
C3 C4 1_555 1_555
C12 C15 1_555 1_555

#END
