
#######################################################################
#
#                 Cambridge Crystallographic Data Centre
#                                CCDC 
#
#######################################################################
#
# If this CIF has been generated from an entry in the Cambridge 
# Structural Database, then it will include bibliographic, chemical, 
# crystal, experimental, refinement or atomic coordinate data resulting 
# from the CCDC's data processing and validation procedures.
#
#######################################################################

data_TEWZEC
_chemical_formula_moiety         'C10 H14 N2 O2'
_chemical_name_systematic        
'Ethyl 4,5,6,7-tetrahydro-1H-indazole-3-carboxylate'
_symmetry_cell_setting           monoclinic
_symmetry_space_group_name_H-M   'P 21/n'
_symmetry_Int_Tables_number      14
_space_group_name_Hall           '-P 2yn'
loop_
_symmetry_equiv_pos_site_id
_symmetry_equiv_pos_as_xyz
1 x,y,z
2 1/2-x,1/2+y,1/2-z
3 -x,-y,-z
4 1/2+x,1/2-y,1/2+z
_cell_length_a                   12.4631(10)
_cell_length_b                   15.2751(13)
_cell_length_c                   16.8492(14)
_cell_angle_alpha                90
_cell_angle_beta                 108.852(2)
_cell_angle_gamma                90
_cell_volume                     3035.6
_exptl_crystal_colour            colorless
_exptl_crystal_description       Block
_cell_formula_units_Z            12
loop_
_atom_site_label
_atom_site_type_symbol
_atom_site_fract_x
_atom_site_fract_y
_atom_site_fract_z
O1 O 0.64391(11) -0.12828(8) 0.03792(8)
O2 O 0.55037(11) -0.13592(9) -0.10090(8)
N1 N 0.57870(12) 0.04790(9) -0.10713(9)
N2 N 0.61095(13) 0.13067(10) -0.08353(9)
H1 H 0.5972(17) 0.1749(14) -0.1233(13)
C1 C 0.69144(19) -0.24408(14) 0.13649(13)
H2 H 0.7699 -0.2230 0.1557
H3 H 0.6906 -0.3076 0.1443
H4 H 0.6488 -0.2156 0.1690
C2 C 0.63760(17) -0.22255(12) 0.04495(12)
H5 H 0.6789 -0.2518 0.0111
H6 H 0.5576 -0.2422 0.0249
C3 C 0.59674(14) -0.09360(12) -0.03861(10)
C4 C 0.61353(14) 0.00188(11) -0.03541(10)
C5 C 0.66837(14) 0.05532(11) 0.03420(10)
C6 C 0.72098(16) 0.03644(12) 0.12608(11)
H7 H 0.7727 -0.0144 0.1341
H8 H 0.6611 0.0220 0.1508
C7 C 0.7876(5) 0.1176(4) 0.1699(4)
H9 H 0.7547 0.1345 0.2139
H10 H 0.8658 0.0973 0.1996
C8 C 0.7977(4) 0.1900(2) 0.1313(2)
H11 H 0.8722 0.1872 0.1223
H12 H 0.8027 0.2383 0.1716
C9 C 0.71210(16) 0.21876(12) 0.04837(11)
H13 H 0.6508 0.2536 0.0585
H14 H 0.7497 0.2552 0.0165
C10 C 0.66461(14) 0.13777(12) 0.00040(11)
O3 O 0.45911(11) 0.52826(8) 0.16825(8)
O4 O 0.45140(12) 0.64943(10) 0.09091(9)
N3 N 0.41638(12) 0.74597(10) 0.22482(9)
N4 N 0.39498(12) 0.76466(11) 0.29636(9)
H19 H 0.3863(19) 0.8174(16) 0.3059(14)
C13 C 0.5006(2) 0.38386(14) 0.13517(16)
H20 H 0.5626 0.3799 0.1886
H21 H 0.5180 0.3469 0.0933
H22 H 0.4300 0.3639 0.1430
C14 C 0.48741(17) 0.47676(14) 0.10565(12)
H23 H 0.5589 0.4982 0.0988
H24 H 0.4264 0.4813 0.0509
C15 C 0.44421(14) 0.61434(12) 0.15319(11)
C16 C 0.41964(14) 0.65818(12) 0.22336(11)
C17 C 0.40017(14) 0.62070(11) 0.29412(11)
C18 C 0.39566(15) 0.52788(11) 0.32220(11)
H25 H 0.4732 0.5033 0.3429
H26 H 0.3502 0.4918 0.2743
C19 C 0.34214(15) 0.52553(12) 0.39221(11)
H27 H 0.2593 0.5348 0.3677
H28 H 0.3546 0.4671 0.4191
C20 C 0.39246(16) 0.59566(12) 0.45860(11)
H29 H 0.4759 0.5891 0.4803
H30 H 0.3629 0.5878 0.5060
C21 C 0.36210(15) 0.68782(12) 0.42139(11)
H31 H 0.2812 0.7004 0.4128
H32 H 0.4086 0.7322 0.4604
C22 C 0.38446(14) 0.69171(11) 0.33946(11)
O5 O 0.17172(11) 0.50847(9) -0.00065(8)
O6 O 0.18617(14) 0.37846(9) 0.06487(10)
N5 N 0.11045(13) 0.46228(10) 0.18713(10)
N6 N 0.07764(13) 0.52527(11) 0.23036(10)
H33 H 0.0630(19) 0.5110(15) 0.2744(15)
C23 C 0.20149(18) 0.53913(15) -0.12991(13)
H34 H 0.1293 0.5710 -0.1476
H35 H 0.2153 0.5138 -0.1792
H36 H 0.2631 0.5796 -0.1018
C24 C 0.19643(17) 0.46722(13) -0.07032(13)
H37 H 0.1363 0.4246 -0.0985
H38 H 0.2698 0.4359 -0.0502
C25 C 0.16558(15) 0.45560(12) 0.06146(12)
C26 C 0.13051(14) 0.50584(12) 0.12392(11)
C27 C 0.11155(14) 0.59602(12) 0.12760(11)
C28 C 0.12316(16) 0.67123(12) 0.07357(11)
H39 H 0.0621 0.6683 0.0187
H40 H 0.1969 0.6673 0.0634
C29 C 0.11581(16) 0.75812(12) 0.11648(12)
H41 H 0.1025 0.8061 0.0749
H42 H 0.1889 0.7696 0.1609
C30 C 0.02030(17) 0.75771(13) 0.15539(12)
H43 H -0.0523 0.7433 0.1116
H44 H 0.0131 0.8168 0.1773
C31 C 0.04357(17) 0.69077(13) 0.22694(12)
H45 H 0.1052 0.7121 0.2766
H46 H -0.0254 0.6823 0.2431
C32 C 0.07727(15) 0.60644(12) 0.19715(11)
C11? C 0.7484(6) 0.1196(5) 0.1756(4)
H15? H 0.7070 0.1167 0.2167
H16? H 0.8300 0.1162 0.2085
C12? C 0.7304(4) 0.2041(3) 0.1416(2)
H17? H 0.7963 0.2401 0.1734
H18? H 0.6634 0.2283 0.1534
loop_
_geom_bond_atom_site_label_1
_geom_bond_atom_site_label_2
_geom_bond_site_symmetry_1
_geom_bond_site_symmetry_2
O1 C2 1_555 1_555
O2 C3 1_555 1_555
N1 N2 1_555 1_555
N2 H1 1_555 1_555
C1 H2 1_555 1_555
H3 C1 1_555 1_555
H4 C1 1_555 1_555
C2 C1 1_555 1_555
H5 C2 1_555 1_555
H6 C2 1_555 1_555
C3 O1 1_555 1_555
C4 N1 1_555 1_555
C5 C4 1_555 1_555
C6 C5 1_555 1_555
H7 C6 1_555 1_555
H8 C6 1_555 1_555
C7 C6 1_555 1_555
H9 C7 1_555 1_555
H10 C7 1_555 1_555
C8 C7 1_555 1_555
H11 C8 1_555 1_555
H12 C8 1_555 1_555
C9 C8 1_555 1_555
H13 C9 1_555 1_555
H14 C9 1_555 1_555
C10 N2 1_555 1_555
O3 C14 1_555 1_555
O4 C15 1_555 1_555
N3 N4 1_555 1_555
N4 H19 1_555 1_555
C13 H20 1_555 1_555
H21 C13 1_555 1_555
H22 C13 1_555 1_555
C14 C13 1_555 1_555
H23 C14 1_555 1_555
H24 C14 1_555 1_555
C15 O3 1_555 1_555
C16 N3 1_555 1_555
C17 C16 1_555 1_555
C18 C17 1_555 1_555
H25 C18 1_555 1_555
H26 C18 1_555 1_555
C19 C18 1_555 1_555
H27 C19 1_555 1_555
H28 C19 1_555 1_555
C20 C19 1_555 1_555
H29 C20 1_555 1_555
H30 C20 1_555 1_555
C21 C20 1_555 1_555
H31 C21 1_555 1_555
H32 C21 1_555 1_555
C22 N4 1_555 1_555
O5 C24 1_555 1_555
O6 C25 1_555 1_555
N5 N6 1_555 1_555
N6 H33 1_555 1_555
C23 H34 1_555 1_555
H35 C23 1_555 1_555
H36 C23 1_555 1_555
C24 C23 1_555 1_555
H37 C24 1_555 1_555
H38 C24 1_555 1_555
C25 O5 1_555 1_555
C26 N5 1_555 1_555
C27 C26 1_555 1_555
C28 C27 1_555 1_555
H39 C28 1_555 1_555
H40 C28 1_555 1_555
C29 C28 1_555 1_555
H41 C29 1_555 1_555
H42 C29 1_555 1_555
C30 C29 1_555 1_555
H43 C30 1_555 1_555
H44 C30 1_555 1_555
C31 C30 1_555 1_555
H45 C31 1_555 1_555
H46 C31 1_555 1_555
C32 N6 1_555 1_555
C3 C4 1_555 1_555
C5 C10 1_555 1_555
C9 C10 1_555 1_555
C15 C16 1_555 1_555
C17 C22 1_555 1_555
C21 C22 1_555 1_555
C25 C26 1_555 1_555
C27 C32 1_555 1_555
C31 C32 1_555 1_555

#END
