
#######################################################################
#
#                 Cambridge Crystallographic Data Centre
#                                CCDC 
#
#######################################################################
#
# If this CIF has been generated from an entry in the Cambridge 
# Structural Database, then it will include bibliographic, chemical, 
# crystal, experimental, refinement or atomic coordinate data resulting 
# from the CCDC's data processing and validation procedures.
#
#######################################################################

data_TEXGOV
_chemical_formula_moiety         'C28 H20'
_chemical_name_systematic        
14-phenyl-8,9-dihydrobenzo[4,5]cyclohepta[1,2,3-jk]phenanthrene
_symmetry_cell_setting           orthorhombic
_symmetry_space_group_name_H-M   'P 21 21 21'
_symmetry_Int_Tables_number      19
_space_group_name_Hall           'P 2ac 2ab'
loop_
_symmetry_equiv_pos_site_id
_symmetry_equiv_pos_as_xyz
1 x,y,z
2 1/2-x,-y,1/2+z
3 1/2+x,1/2-y,-z
4 -x,1/2+y,1/2-z
_cell_length_a                   8.34750(16)
_cell_length_b                   10.3140(2)
_cell_length_c                   21.0732(4)
_cell_angle_alpha                90
_cell_angle_beta                 90
_cell_angle_gamma                90
_cell_volume                     1814.32
_exptl_crystal_colour            colorless
_exptl_crystal_description       plate
_cell_formula_units_Z            4
loop_
_atom_site_label
_atom_site_type_symbol
_atom_site_fract_x
_atom_site_fract_y
_atom_site_fract_z
C1 C 0.3952(2) 0.48254(16) 0.43282(8)
C2 C 0.5454(2) 0.52165(17) 0.41377(9)
C3 C 0.6657(2) 0.55864(16) 0.45980(9)
C4 C 0.8267(2) 0.58295(18) 0.44195(9)
H1 H 0.8587 0.5688 0.3993
C5 C 0.9370(2) 0.62652(18) 0.48528(9)
H2 H 1.0444 0.6421 0.4726
C6 C 0.8908(2) 0.64780(18) 0.54798(10)
H3 H 0.9661 0.6803 0.5778
C7 C 0.7367(2) 0.62182(17) 0.56673(9)
H4 H 0.7074 0.6358 0.6098
C8 C 0.6207(2) 0.57496(17) 0.52391(9)
C9 C 0.4616(2) 0.53416(17) 0.54451(9)
C10 C 0.4138(2) 0.54908(18) 0.60815(9)
H5 H 0.4784 0.5986 0.6363
C11 C 0.2755(2) 0.4934(2) 0.63022(9)
H6 H 0.2408 0.5077 0.6726
C12 C 0.1866(2) 0.4151(2) 0.58915(9)
H7 H 0.0967 0.3695 0.6055
C13 C 0.2240(2) 0.40120(17) 0.52577(9)
C14 C 0.3583(2) 0.47024(17) 0.50076(9)
C15 C 0.1231(2) 0.30191(19) 0.49061(10)
H8 H 0.0155 0.3397 0.4836
H9 H 0.1095 0.2255 0.5185
C16 C 0.1870(2) 0.25472(18) 0.42669(9)
H10 H 0.3015 0.2308 0.4307
H11 H 0.1267 0.1772 0.4127
C17 C 0.2636(2) 0.47223(17) 0.38474(8)
C18 C 0.1682(2) 0.36166(18) 0.37906(9)
C19 C 0.0477(2) 0.35705(19) 0.33317(9)
H12 H -0.0171 0.2817 0.3296
C20 C 0.0212(2) 0.4609(2) 0.29272(10)
H13 H -0.0594 0.4561 0.2610
C21 C 0.1135(2) 0.5718(2) 0.29907(9)
H14 H 0.0945 0.6442 0.2723
C22 C 0.2334(2) 0.57706(19) 0.34450(9)
H15 H 0.2962 0.6535 0.3484
C23 C 0.5863(2) 0.53137(17) 0.34484(9)
C24 C 0.5679(2) 0.42551(19) 0.30429(9)
H16 H 0.5343 0.3445 0.3211
C25 C 0.5981(2) 0.4367(2) 0.23957(9)
H17 H 0.5843 0.3638 0.2126
C26 C 0.6486(2) 0.5544(2) 0.21447(9)
H18 H 0.6673 0.5628 0.1702
C27 C 0.6715(2) 0.65996(19) 0.25453(10)
H19 H 0.7078 0.7402 0.2377
C28 C 0.6413(2) 0.64813(19) 0.31908(9)
H20 H 0.6583 0.7205 0.3462
loop_
_geom_bond_atom_site_label_1
_geom_bond_atom_site_label_2
_geom_bond_site_symmetry_1
_geom_bond_site_symmetry_2
C1 C2 1_555 1_555
C2 C3 1_555 1_555
C3 C4 1_555 1_555
C4 H1 1_555 1_555
C5 C4 1_555 1_555
H2 C5 1_555 1_555
C6 C5 1_555 1_555
H3 C6 1_555 1_555
C7 C6 1_555 1_555
H4 C7 1_555 1_555
C8 C3 1_555 1_555
C9 C8 1_555 1_555
C10 C9 1_555 1_555
H5 C10 1_555 1_555
C11 C10 1_555 1_555
H6 C11 1_555 1_555
C12 C11 1_555 1_555
H7 C12 1_555 1_555
C13 C12 1_555 1_555
C14 C1 1_555 1_555
C15 C13 1_555 1_555
H8 C15 1_555 1_555
H9 C15 1_555 1_555
C16 C15 1_555 1_555
H10 C16 1_555 1_555
H11 C16 1_555 1_555
C17 C1 1_555 1_555
C18 C16 1_555 1_555
C19 C18 1_555 1_555
H12 C19 1_555 1_555
C20 C19 1_555 1_555
H13 C20 1_555 1_555
C21 C20 1_555 1_555
H14 C21 1_555 1_555
C22 C17 1_555 1_555
H15 C22 1_555 1_555
C23 C2 1_555 1_555
C24 C23 1_555 1_555
H16 C24 1_555 1_555
C25 C24 1_555 1_555
H17 C25 1_555 1_555
C26 C25 1_555 1_555
H18 C26 1_555 1_555
C27 C26 1_555 1_555
H19 C27 1_555 1_555
C28 C23 1_555 1_555
H20 C28 1_555 1_555
C7 C8 1_555 1_555
C9 C14 1_555 1_555
C13 C14 1_555 1_555
C17 C18 1_555 1_555
C21 C22 1_555 1_555
C27 C28 1_555 1_555

#END
