
#######################################################################
#
#                 Cambridge Crystallographic Data Centre
#                                CCDC 
#
#######################################################################
#
# If this CIF has been generated from an entry in the Cambridge 
# Structural Database, then it will include bibliographic, chemical, 
# crystal, experimental, refinement or atomic coordinate data resulting 
# from the CCDC's data processing and validation procedures.
#
#######################################################################

data_TEXJEM
_chemical_formula_moiety         'C22 H28 N2 O4 S8'
_chemical_name_systematic        
2-(4,5-(3,6,9,12-Tetraoxatetradecane-1,14-disulfanyl)-1,3-dithiol-2-ylidene)-4,5-bis(2-cyanoethylsulfanyl)-1,3-dithiole
_symmetry_cell_setting           triclinic
_symmetry_space_group_name_H-M   'P -1'
_symmetry_Int_Tables_number      2
_space_group_name_Hall           '-P 1'
loop_
_symmetry_equiv_pos_site_id
_symmetry_equiv_pos_as_xyz
1 x,y,z
2 -x,-y,-z
_cell_length_a                   9.6569(19)
_cell_length_b                   10.571(2)
_cell_length_c                   16.174(3)
_cell_angle_alpha                95.221(4)
_cell_angle_beta                 97.852(4)
_cell_angle_gamma                116.704(4)
_cell_volume                     1439.33
_exptl_crystal_colour            orange
_exptl_crystal_description       block
_cell_formula_units_Z            2
_exptl_crystal_recrystallization_method 'dichloromethane/diethyl ether'
loop_
_atom_site_label
_atom_site_type_symbol
_atom_site_fract_x
_atom_site_fract_y
_atom_site_fract_z
C1 C -0.0016(6) 0.0582(6) 1.2557(3)
C2 C 0.1034(5) 0.1893(5) 1.2223(3)
H1 H 0.1429 0.2735 1.2658
H2 H 0.1935 0.1798 1.2088
C3 C 0.0164(5) 0.2091(5) 1.1448(3)
H3 H -0.0835 0.2007 1.1556
H4 H -0.0068 0.1329 1.0986
C4 C 0.4627(6) 0.4752(6) 1.3727(3)
C5 C 0.5924(6) 0.4934(5) 1.3278(3)
H5 H 0.5570 0.4075 1.2862
H6 H 0.6813 0.5019 1.3684
C6 C 0.6490(6) 0.6229(6) 1.2833(3)
H7 H 0.7329 0.6260 1.2554
H8 H 0.6930 0.7096 1.3254
C7 C 0.2919(5) 0.3680(4) 1.0944(2)
C8 C 0.4427(5) 0.4695(4) 1.1314(2)
C9 C 0.4738(5) 0.2909(4) 1.0238(2)
C10 C 0.5293(5) 0.2174(4) 0.9803(2)
C11 C 0.7084(5) 0.1330(4) 0.9115(3)
C12 C 0.5560(5) 0.0303(5) 0.8766(3)
C13 C 0.4035(5) -0.0956(5) 0.7143(3)
H9 H 0.3317 -0.1871 0.6782
H10 H 0.3412 -0.0506 0.7311
C14 C 0.5241(6) 0.0030(5) 0.6626(3)
H11 H 0.4772 0.0407 0.6212
H12 H 0.6194 0.0800 0.6984
C15 C 0.5587(6) -0.1315(5) 0.5571(3)
H13 H 0.5007 -0.0958 0.5209
H14 H 0.5050 -0.2354 0.5413
C16 C 0.7221(5) -0.0773(5) 0.5347(3)
H15 H 0.7964 -0.0803 0.5804
H16 H 0.7173 -0.1358 0.4835
C17 C 0.9263(6) 0.1309(6) 0.5073(3)
H17 H 0.9305 0.0802 0.4554
H18 H 0.9974 0.1251 0.5535
C18 C 0.9777(6) 0.2850(5) 0.5000(3)
H19 H 1.0656 0.3177 0.4707
H20 H 0.8913 0.2911 0.4653
C19 C 0.9000(5) 0.3859(5) 0.6076(3)
H21 H 0.8215 0.2904 0.6123
H22 H 0.8496 0.4239 0.5682
C20 C 0.9576(5) 0.4791(5) 0.6911(3)
H23 H 1.0344 0.5745 0.6852
H24 H 0.8694 0.4870 0.7088
C21 C 0.9165(5) 0.3023(5) 0.7789(3)
H25 H 0.8898 0.2204 0.7359
H26 H 0.8207 0.3084 0.7840
C22 C 0.9906(5) 0.2869(5) 0.8610(3)
H27 H 1.0069 0.3652 0.9039
H28 H 1.0938 0.2961 0.8565
N1 N -0.0845(4) -0.0347(4) 1.2811(2)
N2 N 0.3653(5) 0.4593(4) 1.4049(3)
O1 O 0.5453(4) -0.1039(4) 0.6284(2)
O2 O 0.7684(4) 0.0650(4) 0.5225(2)
O3 O 1.0232(4) 0.3772(4) 0.5765(2)
O4 O 1.0297(3) 0.4309(3) 0.75731(19)
S1 S 0.12627(12) 0.38094(12) 1.11298(7)
S2 S 0.49371(14) 0.62136(12) 1.20548(7)
S3 S 0.27281(14) 0.23261(12) 1.01673(8)
S4 S 0.59665(13) 0.45174(12) 1.09353(7)
S5 S 0.40785(13) 0.05453(11) 0.91208(7)
S6 S 0.73315(13) 0.27466(12) 0.98616(8)
S7 S 0.50094(13) -0.12690(12) 0.80730(7)
S8 S 0.87843(12) 0.11970(12) 0.89566(7)
loop_
_geom_bond_atom_site_label_1
_geom_bond_atom_site_label_2
_geom_bond_site_symmetry_1
_geom_bond_site_symmetry_2
C1 C2 1_555 1_555
C2 H1 1_555 1_555
H2 C2 1_555 1_555
C3 C2 1_555 1_555
H3 C3 1_555 1_555
H4 C3 1_555 1_555
C4 C5 1_555 1_555
C5 H5 1_555 1_555
H6 C5 1_555 1_555
C6 C5 1_555 1_555
H7 C6 1_555 1_555
H8 C6 1_555 1_555
C7 C8 1_555 1_555
C8 S2 1_555 1_555
C9 C10 1_555 1_555
C10 S5 1_555 1_555
C11 C12 1_555 1_555
C12 S5 1_555 1_555
C13 H9 1_555 1_555
H10 C13 1_555 1_555
C14 C13 1_555 1_555
H11 C14 1_555 1_555
H12 C14 1_555 1_555
C15 H13 1_555 1_555
H14 C15 1_555 1_555
C16 C15 1_555 1_555
H15 C16 1_555 1_555
H16 C16 1_555 1_555
C17 H17 1_555 1_555
H18 C17 1_555 1_555
C18 C17 1_555 1_555
H19 C18 1_555 1_555
H20 C18 1_555 1_555
C19 H21 1_555 1_555
H22 C19 1_555 1_555
C20 C19 1_555 1_555
H23 C20 1_555 1_555
H24 C20 1_555 1_555
C21 H25 1_555 1_555
H26 C21 1_555 1_555
C22 C21 1_555 1_555
H27 C22 1_555 1_555
H28 C22 1_555 1_555
N1 C1 1_555 1_555
N2 C4 1_555 1_555
O1 C14 1_555 1_555
O2 C16 1_555 1_555
O3 C18 1_555 1_555
O4 C20 1_555 1_555
S1 C3 1_555 1_555
S2 C6 1_555 1_555
S3 C7 1_555 1_555
S4 C8 1_555 1_555
S6 C10 1_555 1_555
S7 C12 1_555 1_555
S8 C11 1_555 1_555
C7 S1 1_555 1_555
C9 S3 1_555 1_555
C9 S4 1_555 1_555
C11 S6 1_555 1_555
C13 S7 1_555 1_555
C15 O1 1_555 1_555
C17 O2 1_555 1_555
C19 O3 1_555 1_555
C21 O4 1_555 1_555
C22 S8 1_555 1_555

#END
