
#######################################################################
#
#                 Cambridge Crystallographic Data Centre
#                                CCDC 
#
#######################################################################
#
# If this CIF has been generated from an entry in the Cambridge 
# Structural Database, then it will include bibliographic, chemical, 
# crystal, experimental, refinement or atomic coordinate data resulting 
# from the CCDC's data processing and validation procedures.
#
#######################################################################

data_TEXMIU
_chemical_formula_moiety         'C23 H22 N6 O5'
_chemical_name_systematic        
'Ethyl 6-methyl-4-(4-nitrophenyl)-2-oxo-3-((4-phenyl-1H-1,2,3-triazol-1-yl)methyl)-1,2,3,4-tetrahydropyrimidine-5-carboxylate'
_symmetry_cell_setting           orthorhombic
_symmetry_space_group_name_H-M   'A b a 2'
_symmetry_Int_Tables_number      41
_space_group_name_Hall           'A 2 -2ab'
loop_
_symmetry_equiv_pos_site_id
_symmetry_equiv_pos_as_xyz
1 x,y,z
2 -x,-y,z
3 1/2+x,1/2-y,z
4 1/2-x,1/2+y,z
5 x,1/2+y,1/2+z
6 -x,1/2-y,1/2+z
7 1/2+x,-y,1/2+z
8 1/2-x,y,1/2+z
_cell_length_a                   29.117(17)
_cell_length_b                   12.967(8)
_cell_length_c                   12.067(8)
_cell_angle_alpha                90
_cell_angle_beta                 90
_cell_angle_gamma                90
_cell_volume                     4556.02
_exptl_crystal_colour            colorless
_exptl_crystal_description       block
_cell_formula_units_Z            8
loop_
_atom_site_label
_atom_site_type_symbol
_atom_site_fract_x
_atom_site_fract_y
_atom_site_fract_z
C1 C 0.23506(11) 0.2056(3) 0.4327(3)
H1 H 0.2331 0.1817 0.5096
C2 C 0.18812(12) 0.2451(3) 0.3993(3)
C3 C 0.17305(12) 0.2299(3) 0.2962(4)
C4 C 0.23518(13) 0.1079(3) 0.2557(3)
C5 C 0.28229(11) 0.0469(3) 0.4061(4)
H2 H 0.2815 -0.0162 0.3630
H3 H 0.2748 0.0294 0.4822
C6 C 0.35711(13) 0.1033(3) 0.3171(4)
H4 H 0.3529 0.0820 0.2443
C7 C 0.39365(13) 0.1553(3) 0.3591(3)
C8 C 0.43500(15) 0.1925(4) 0.3039(4)
C9 C 0.45715(16) 0.2803(4) 0.3403(5)
H5 H 0.4465 0.3149 0.4027
C10 C 0.49631(19) 0.3180(5) 0.2826(6)
H6 H 0.5117 0.3768 0.3067
C11 C 0.5107(2) 0.2655(6) 0.1906(6)
H7 H 0.5362 0.2897 0.1521
C12 C 0.4896(2) 0.1811(6) 0.1543(6)
H8 H 0.5003 0.1475 0.0912
C13 C 0.45181(17) 0.1433(5) 0.2104(5)
H9 H 0.4374 0.0839 0.1850
C14 C 0.27095(11) 0.2912(3) 0.4280(3)
C15 C 0.29457(13) 0.3138(3) 0.3312(3)
H10 H 0.2874 0.2778 0.2669
C16 C 0.32831(13) 0.3880(3) 0.3275(4)
H11 H 0.3441 0.4019 0.2622
C17 C 0.33804(13) 0.4410(3) 0.4239(4)
C18 C 0.31433(15) 0.4246(3) 0.5199(4)
H12 H 0.3208 0.4634 0.5828
C19 C 0.28051(14) 0.3495(3) 0.5225(3)
H13 H 0.2641 0.3379 0.5875
C20 C 0.16260(13) 0.2951(3) 0.4894(3)
C21 C 0.09624(14) 0.3862(4) 0.5440(4)
H14 H 0.1119 0.4443 0.5778
H15 H 0.0899 0.3353 0.6009
C22 C 0.05258(16) 0.4209(4) 0.4910(5)
H16 H 0.0595 0.4662 0.4303
H17 H 0.0341 0.4567 0.5445
H18 H 0.0360 0.3620 0.4639
C23 C 0.12892(14) 0.2678(4) 0.2437(4)
H19 H 0.1033 0.2323 0.2761
H20 H 0.1297 0.2546 0.1655
H21 H 0.1258 0.3405 0.2564
N1 N 0.19930(11) 0.1711(2) 0.2233(3)
H22 H 0.1928 0.1742 0.1538
N2 N 0.24785(10) 0.1171(2) 0.3637(2)
N3 N 0.32842(10) 0.0891(2) 0.4026(3)
N4 N 0.34579(11) 0.1326(2) 0.4957(3)
N5 N 0.38575(11) 0.1733(3) 0.4685(3)
N6 N 0.37573(15) 0.5164(3) 0.4228(5)
O1 O 0.25281(10) 0.0480(2) 0.1907(2)
O2 O 0.38450(17) 0.5615(3) 0.5086(5)
O3 O 0.39598(15) 0.5309(3) 0.3356(5)
O4 O 0.17562(11) 0.2944(3) 0.5837(3)
O5 O 0.12425(9) 0.3419(2) 0.4576(2)
loop_
_geom_bond_atom_site_label_1
_geom_bond_atom_site_label_2
_geom_bond_site_symmetry_1
_geom_bond_site_symmetry_2
C1 H1 1_555 1_555
C2 C1 1_555 1_555
C3 C2 1_555 1_555
C4 N1 1_555 1_555
C5 H2 1_555 1_555
H3 C5 1_555 1_555
C6 H4 1_555 1_555
C7 C6 1_555 1_555
C8 C7 1_555 1_555
C9 C8 1_555 1_555
H5 C9 1_555 1_555
C10 C9 1_555 1_555
H6 C10 1_555 1_555
C11 C10 1_555 1_555
H7 C11 1_555 1_555
C12 C11 1_555 1_555
H8 C12 1_555 1_555
C13 C8 1_555 1_555
H9 C13 1_555 1_555
C14 C1 1_555 1_555
C15 C14 1_555 1_555
H10 C15 1_555 1_555
C16 C15 1_555 1_555
H11 C16 1_555 1_555
C17 C16 1_555 1_555
C18 C17 1_555 1_555
H12 C18 1_555 1_555
C19 C14 1_555 1_555
H13 C19 1_555 1_555
C20 C2 1_555 1_555
C21 H14 1_555 1_555
H15 C21 1_555 1_555
C22 C21 1_555 1_555
H16 C22 1_555 1_555
H17 C22 1_555 1_555
H18 C22 1_555 1_555
C23 C3 1_555 1_555
H19 C23 1_555 1_555
H20 C23 1_555 1_555
H21 C23 1_555 1_555
N1 C3 1_555 1_555
H22 N1 1_555 1_555
N2 C1 1_555 1_555
N3 C5 1_555 1_555
N4 N3 1_555 1_555
N5 C7 1_555 1_555
N6 C17 1_555 1_555
O1 C4 1_555 1_555
O2 N6 1_555 1_555
O3 N6 1_555 1_555
O4 C20 1_555 1_555
O5 C20 1_555 1_555
C4 N2 1_555 1_555
C5 N2 1_555 1_555
C6 N3 1_555 1_555
C12 C13 1_555 1_555
C18 C19 1_555 1_555
C21 O5 1_555 1_555
N4 N5 1_555 1_555

#END
