
#######################################################################
#
#                 Cambridge Crystallographic Data Centre
#                                CCDC 
#
#######################################################################
#
# If this CIF has been generated from an entry in the Cambridge 
# Structural Database, then it will include bibliographic, chemical, 
# crystal, experimental, refinement or atomic coordinate data resulting 
# from the CCDC's data processing and validation procedures.
#
#######################################################################

data_TEXQEU
_chemical_formula_moiety         'C80 H130 Na6 O12'
_chemical_name_systematic        
bis(\m~5~-2,2'-Methylenebis(4,6-di-tert-butylphenolato))-bis(\m~3~-2-methoxyethanolato)-tetrakis(tetrahydrofuran)-hexa-sodium
_symmetry_cell_setting           orthorhombic
_symmetry_space_group_name_H-M   'P b c a'
_symmetry_Int_Tables_number      61
_space_group_name_Hall           '-P 2ac 2ab'
loop_
_symmetry_equiv_pos_site_id
_symmetry_equiv_pos_as_xyz
1 x,y,z
2 1/2-x,-y,1/2+z
3 1/2+x,1/2-y,-z
4 -x,1/2+y,1/2-z
5 -x,-y,-z
6 1/2+x,y,1/2-z
7 1/2-x,1/2+y,z
8 x,1/2-y,1/2+z
_cell_length_a                   21.588(4)
_cell_length_b                   18.468(3)
_cell_length_c                   23.753(4)
_cell_angle_alpha                90
_cell_angle_beta                 90
_cell_angle_gamma                90
_cell_volume                     9470.02
_cell_formula_units_Z            4
loop_
_atom_site_label
_atom_site_type_symbol
_atom_site_fract_x
_atom_site_fract_y
_atom_site_fract_z
C1 C 0.5204(11) 0.0650(9) 0.6953(6)
H1 H 0.5594 0.0573 0.6761
H2 H 0.4868 0.0552 0.6693
C2 C 0.5159(6) 0.0207(5) 0.7430(5)
H3 H 0.4802 -0.0108 0.7392
H4 H 0.5526 -0.0095 0.7455
Na1 Na 0.50606(11) 0.02569(11) 0.88256(8)
Na2 Na 0.58901(11) -0.05668(10) 0.96789(9)
Na3 Na 0.42381(11) -0.08205(10) 0.95574(8)
O1 O 0.41775(16) 0.04287(16) 0.93675(13)
O2 O 0.58408(17) 0.06248(17) 0.94566(14)
O3 O 0.51302(17) -0.09144(17) 0.90686(16)
O4 O 0.6263(3) -0.1634(3) 0.9304(2)
O5 O 0.3652(3) -0.1865(3) 0.9376(2)
C3 C 0.4001(3) 0.1022(3) 0.9086(2)
C4 C 0.3486(3) 0.1020(3) 0.8711(2)
C5 C 0.3338(3) 0.1660(3) 0.8430(2)
H5 H 0.2997 0.1656 0.8190
C6 C 0.3667(3) 0.2305(3) 0.8485(3)
C7 C 0.4155(3) 0.2284(3) 0.8850(2)
H6 H 0.4379 0.2709 0.8903
C8 C 0.4344(3) 0.1676(3) 0.9149(2)
C9 C 0.4911(2) 0.1727(3) 0.9528(2)
H7 H 0.4929 0.1292 0.9757
H8 H 0.4853 0.2133 0.9782
C10 C 0.5530(3) 0.1819(3) 0.9235(2)
C11 C 0.5665(3) 0.2489(3) 0.9001(2)
H9 H 0.5383 0.2866 0.9045
C12 C 0.6211(3) 0.2616(3) 0.8700(3)
C13 C 0.6610(3) 0.2044(3) 0.8651(2)
H10 H 0.6970 0.2115 0.8444
C14 C 0.6518(3) 0.1362(3) 0.8889(2)
C15 C 0.5962(3) 0.1246(3) 0.9198(2)
C16 C 0.3099(3) 0.0331(3) 0.8620(3)
C17 C 0.2821(3) 0.0075(3) 0.9170(3)
H11 H 0.3144 0.0012 0.9443
H12 H 0.2612 -0.0378 0.9111
H13 H 0.2530 0.0429 0.9304
C18 C 0.2549(4) 0.0472(4) 0.8214(3)
H14 H 0.2316 0.0033 0.8166
H15 H 0.2705 0.0628 0.7856
H16 H 0.2286 0.0840 0.8369
C19 C 0.3502(3) -0.0259(3) 0.8354(3)
H17 H 0.3855 -0.0350 0.8591
H18 H 0.3641 -0.0102 0.7990
H19 H 0.3265 -0.0696 0.8315
C20 C 0.3488(4) 0.2958(3) 0.8147(4)
C21 C 0.2817(5) 0.3160(5) 0.8216(4)
H20 H 0.2741 0.3294 0.8601
H21 H 0.2561 0.2754 0.8119
H22 H 0.2721 0.3561 0.7974
C22 C 0.3560(8) 0.2778(6) 0.7518(5)
H23 H 0.3492 0.3207 0.7299
H24 H 0.3264 0.2415 0.7414
H25 H 0.3971 0.2600 0.7450
C23 C 0.3856(7) 0.3584(6) 0.8281(9)
H26 H 0.3718 0.3787 0.8631
H27 H 0.3813 0.3938 0.7988
H28 H 0.4283 0.3445 0.8313
C24 C 0.6329(4) 0.3340(4) 0.8416(4)
C25 C 0.5982(7) 0.3928(5) 0.8662(7)
H29 H 0.6153 0.4047 0.9023
H30 H 0.5557 0.3785 0.8706
H31 H 0.6004 0.4343 0.8420
C26 C 0.6998(5) 0.3506(5) 0.8340(7)
H32 H 0.7196 0.3110 0.8149
H33 H 0.7188 0.3576 0.8701
H34 H 0.7041 0.3939 0.8119
C27 C 0.6079(8) 0.3290(7) 0.7823(6)
H35 H 0.6232 0.3689 0.7605
H36 H 0.5634 0.3305 0.7832
H37 H 0.6212 0.2843 0.7655
C28 C 0.6999(3) 0.0761(3) 0.8803(2)
C29 C 0.7560(3) 0.1011(3) 0.8462(3)
H38 H 0.7427 0.1165 0.8096
H39 H 0.7848 0.0618 0.8425
H40 H 0.7757 0.1407 0.8653
C30 C 0.7243(3) 0.0502(4) 0.9382(3)
H41 H 0.7514 0.0863 0.9537
H42 H 0.7467 0.0056 0.9335
H43 H 0.6901 0.0425 0.9632
C31 C 0.6709(3) 0.0131(3) 0.8485(3)
H44 H 0.6341 -0.0024 0.8677
H45 H 0.6998 -0.0263 0.8467
H46 H 0.6605 0.0283 0.8110
C32 C 0.5407(4) -0.1423(3) 0.8708(3)
H47 H 0.5656 -0.1163 0.8435
H48 H 0.5081 -0.1671 0.8503
C33 C 0.5794(4) -0.1963(3) 0.8974(3)
H49 H 0.5540 -0.2271 0.9212
H50 H 0.5983 -0.2264 0.8688
C34 C 0.6657(4) -0.2131(5) 0.9597(4)
H51 H 0.6412 -0.2432 0.9839
H52 H 0.6953 -0.1867 0.9818
H53 H 0.6872 -0.2429 0.9329
C35 C 0.3199(4) -0.2220(5) 0.9702(4)
H54 H 0.2792 -0.2017 0.9629
H55 H 0.3289 -0.2171 1.0100
C36 C 0.3219(7) -0.2966(6) 0.9536(6)
H56 H 0.3339 -0.3266 0.9853
H57 H 0.2815 -0.3122 0.9406
C37 C 0.3667(7) -0.3029(7) 0.9090(8)
H58 H 0.3471 -0.3210 0.8751
H59 H 0.3994 -0.3360 0.9198
C38 C 0.3905(5) -0.2347(7) 0.8998(5)
H60 H 0.4352 -0.2357 0.9041
H61 H 0.3811 -0.2194 0.8617
C39 C 0.5100(5) 0.1324(5) 0.7740(4)
H62 H 0.4713 0.1548 0.7853
H63 H 0.5437 0.1580 0.7921
C40 C 0.5165(9) 0.1358(8) 0.7159(6)
H64 H 0.5537 0.1625 0.7063
H65 H 0.4812 0.1604 0.6994
O6 O 0.5105(2) 0.0596(3) 0.78985(18)
C1D C 0.4796(11) -0.0650(9) 1.3047(6)
H1D H 0.4406 -0.0573 1.3239
H2D H 0.5132 -0.0552 1.3307
C2D C 0.4841(6) -0.0207(5) 1.2570(5)
H3D H 0.5198 0.0108 1.2608
H4D H 0.4474 0.0095 1.2545
Na1D Na 0.49394(11) -0.02569(11) 1.11744(8)
Na2D Na 0.41099(11) 0.05668(10) 1.03211(9)
Na3D Na 0.57619(11) 0.08205(10) 1.04426(8)
O1D O 0.58225(16) -0.04287(16) 1.06325(13)
O2D O 0.41592(17) -0.06248(17) 1.05434(14)
O3D O 0.48698(17) 0.09144(17) 1.09314(16)
O4D O 0.3737(3) 0.1634(3) 1.0696(2)
O5D O 0.6348(3) 0.1865(3) 1.0624(2)
C3D C 0.5999(3) -0.1022(3) 1.0914(2)
C4D C 0.6514(3) -0.1020(3) 1.1289(2)
C5D C 0.6662(3) -0.1660(3) 1.1570(2)
H5D H 0.7003 -0.1656 1.1810
C6D C 0.6333(3) -0.2305(3) 1.1515(3)
C7D C 0.5845(3) -0.2284(3) 1.1150(2)
H6D H 0.5621 -0.2709 1.1097
C8D C 0.5656(3) -0.1676(3) 1.0851(2)
C9D C 0.5089(2) -0.1727(3) 1.0472(2)
H7D H 0.5071 -0.1292 1.0243
H8D H 0.5147 -0.2133 1.0218
C10D C 0.4470(3) -0.1819(3) 1.0765(2)
C11D C 0.4335(3) -0.2489(3) 1.0999(2)
H9D H 0.4617 -0.2866 1.0955
C12D C 0.3789(3) -0.2616(3) 1.1300(3)
C13D C 0.3390(3) -0.2044(3) 1.1349(2)
H10D H 0.3030 -0.2115 1.1556
C14D C 0.3482(3) -0.1362(3) 1.1111(2)
C15D C 0.4038(3) -0.1246(3) 1.0802(2)
C16D C 0.6901(3) -0.0331(3) 1.1380(3)
C17D C 0.7179(3) -0.0075(3) 1.0830(3)
H11D H 0.6856 -0.0012 1.0557
H12D H 0.7388 0.0378 1.0889
H13D H 0.7470 -0.0429 1.0696
C18D C 0.7451(4) -0.0472(4) 1.1786(3)
H14D H 0.7684 -0.0033 1.1834
H15D H 0.7295 -0.0628 1.2144
H16D H 0.7714 -0.0840 1.1631
C19D C 0.6498(3) 0.0259(3) 1.1646(3)
H17D H 0.6145 0.0350 1.1409
H18D H 0.6359 0.0102 1.2010
H19D H 0.6735 0.0696 1.1685
C20D C 0.6512(4) -0.2958(3) 1.1853(4)
C21D C 0.7183(5) -0.3160(5) 1.1784(4)
H20D H 0.7259 -0.3294 1.1399
H21D H 0.7439 -0.2754 1.1881
H22D H 0.7279 -0.3561 1.2026
C22D C 0.6440(8) -0.2778(6) 1.2482(5)
H23D H 0.6508 -0.3207 1.2701
H24D H 0.6736 -0.2415 1.2586
H25D H 0.6029 -0.2600 1.2550
C23D C 0.6144(7) -0.3584(6) 1.1719(9)
H26D H 0.6282 -0.3787 1.1369
H27D H 0.6187 -0.3938 1.2012
H28D H 0.5717 -0.3445 1.1687
C24D C 0.3671(4) -0.3340(4) 1.1584(4)
C25D C 0.4018(7) -0.3928(5) 1.1338(7)
H29D H 0.3847 -0.4047 1.0977
H30D H 0.4443 -0.3785 1.1294
H31D H 0.3996 -0.4343 1.1580
C26D C 0.3002(5) -0.3506(5) 1.1660(7)
H32D H 0.2804 -0.3110 1.1851
H33D H 0.2812 -0.3576 1.1299
H34D H 0.2959 -0.3939 1.1881
C27D C 0.3921(8) -0.3290(7) 1.2177(6)
H35D H 0.3768 -0.3689 1.2395
H36D H 0.4366 -0.3305 1.2168
H37D H 0.3788 -0.2843 1.2345
C28D C 0.3001(3) -0.0761(3) 1.1197(2)
C29D C 0.2440(3) -0.1011(3) 1.1538(3)
H38D H 0.2573 -0.1165 1.1904
H39D H 0.2152 -0.0618 1.1575
H40D H 0.2243 -0.1407 1.1347
C30D C 0.2757(3) -0.0502(4) 1.0618(3)
H41D H 0.2486 -0.0863 1.0463
H42D H 0.2533 -0.0056 1.0665
H43D H 0.3099 -0.0425 1.0368
C31D C 0.3291(3) -0.0131(3) 1.1515(3)
H44D H 0.3659 0.0024 1.1323
H45D H 0.3002 0.0263 1.1533
H46D H 0.3395 -0.0283 1.1890
C32D C 0.4593(4) 0.1423(3) 1.1292(3)
H47D H 0.4344 0.1163 1.1565
H48D H 0.4919 0.1671 1.1497
C33D C 0.4206(4) 0.1963(3) 1.1026(3)
H49D H 0.4460 0.2271 1.0788
H50D H 0.4017 0.2264 1.1312
C34D C 0.3343(4) 0.2131(5) 1.0403(4)
H51D H 0.3588 0.2432 1.0161
H52D H 0.3047 0.1867 1.0182
H53D H 0.3128 0.2429 1.0671
C35D C 0.6801(4) 0.2220(5) 1.0298(4)
H54D H 0.7208 0.2017 1.0371
H55D H 0.6711 0.2171 0.9900
C36D C 0.6781(7) 0.2966(6) 1.0464(6)
H56D H 0.6661 0.3266 1.0147
H57D H 0.7185 0.3122 1.0594
C37D C 0.6333(7) 0.3029(7) 1.0910(8)
H58D H 0.6529 0.3210 1.1249
H59D H 0.6006 0.3360 1.0802
C38D C 0.6095(5) 0.2347(7) 1.1002(5)
H60D H 0.5648 0.2357 1.0959
H61D H 0.6189 0.2194 1.1383
C39D C 0.4900(5) -0.1324(5) 1.2260(4)
H62D H 0.5287 -0.1548 1.2147
H63D H 0.4563 -0.1580 1.2079
C40D C 0.4835(9) -0.1358(8) 1.2841(6)
H64D H 0.4463 -0.1625 1.2937
H65D H 0.5188 -0.1604 1.3006
O6D O 0.4895(2) -0.0596(3) 1.21015(18)
loop_
_geom_bond_atom_site_label_1
_geom_bond_atom_site_label_2
_geom_bond_site_symmetry_1
_geom_bond_site_symmetry_2
C1 H1 1_555 1_555
H2 C1 1_555 1_555
C2 C1 1_555 1_555
H3 C2 1_555 1_555
H4 C2 1_555 1_555
Na1 O1 1_555 1_555
Na2 O2 1_555 1_555
Na3 O1 1_555 1_555
O1 C3 1_555 1_555
O2 Na1 1_555 1_555
O3 Na1 1_555 1_555
O4 Na2 1_555 1_555
O5 Na3 1_555 1_555
C3 Na1 1_555 1_555
C4 C3 1_555 1_555
C5 C4 1_555 1_555
H5 C5 1_555 1_555
C6 C5 1_555 1_555
C7 C6 1_555 1_555
H6 C7 1_555 1_555
C8 C3 1_555 1_555
C9 C8 1_555 1_555
H7 C9 1_555 1_555
H8 C9 1_555 1_555
C10 C9 1_555 1_555
C11 C10 1_555 1_555
H9 C11 1_555 1_555
C12 C11 1_555 1_555
C13 C12 1_555 1_555
H10 C13 1_555 1_555
C14 C13 1_555 1_555
C15 Na1 1_555 1_555
C16 C4 1_555 1_555
C17 C16 1_555 1_555
H11 C17 1_555 1_555
H12 C17 1_555 1_555
H13 C17 1_555 1_555
C18 C16 1_555 1_555
H14 C18 1_555 1_555
H15 C18 1_555 1_555
H16 C18 1_555 1_555
C19 C16 1_555 1_555
H17 C19 1_555 1_555
H18 C19 1_555 1_555
H19 C19 1_555 1_555
C20 C6 1_555 1_555
C21 C20 1_555 1_555
H20 C21 1_555 1_555
H21 C21 1_555 1_555
H22 C21 1_555 1_555
C22 C20 1_555 1_555
H23 C22 1_555 1_555
H24 C22 1_555 1_555
H25 C22 1_555 1_555
C23 C20 1_555 1_555
H26 C23 1_555 1_555
H27 C23 1_555 1_555
H28 C23 1_555 1_555
C24 C12 1_555 1_555
C25 C24 1_555 1_555
H29 C25 1_555 1_555
H30 C25 1_555 1_555
H31 C25 1_555 1_555
C26 C24 1_555 1_555
H32 C26 1_555 1_555
H33 C26 1_555 1_555
H34 C26 1_555 1_555
C27 C24 1_555 1_555
H35 C27 1_555 1_555
H36 C27 1_555 1_555
H37 C27 1_555 1_555
C28 C14 1_555 1_555
C29 C28 1_555 1_555
H38 C29 1_555 1_555
H39 C29 1_555 1_555
H40 C29 1_555 1_555
C30 C28 1_555 1_555
H41 C30 1_555 1_555
H42 C30 1_555 1_555
H43 C30 1_555 1_555
C31 C28 1_555 1_555
H44 C31 1_555 1_555
H45 C31 1_555 1_555
H46 C31 1_555 1_555
C32 O3 1_555 1_555
H47 C32 1_555 1_555
H48 C32 1_555 1_555
C33 O4 1_555 1_555
H49 C33 1_555 1_555
H50 C33 1_555 1_555
C34 O4 1_555 1_555
H51 C34 1_555 1_555
H52 C34 1_555 1_555
H53 C34 1_555 1_555
C35 O5 1_555 1_555
H54 C35 1_555 1_555
H55 C35 1_555 1_555
C36 C35 1_555 1_555
H56 C36 1_555 1_555
H57 C36 1_555 1_555
C37 C36 1_555 1_555
H58 C37 1_555 1_555
H59 C37 1_555 1_555
C38 O5 1_555 1_555
H60 C38 1_555 1_555
H61 C38 1_555 1_555
C39 H62 1_555 1_555
H63 C39 1_555 1_555
C40 C1 1_555 1_555
H64 C40 1_555 1_555
H65 C40 1_555 1_555
O6 C2 1_555 1_555
C1D H1D 1_555 1_555
H2D C1D 1_555 1_555
C2D C1D 1_555 1_555
H3D C2D 1_555 1_555
H4D C2D 1_555 1_555
Na1D O1D 1_555 1_555
Na2D O1 1_555 1_555
Na3D O2 1_555 1_555
O1D Na2 1_555 1_555
O2D Na3 1_555 1_555
O3D Na1D 1_555 1_555
O4D Na2D 1_555 1_555
O5D Na3D 1_555 1_555
C3D Na1D 1_555 1_555
C4D C3D 1_555 1_555
C5D C4D 1_555 1_555
H5D C5D 1_555 1_555
C6D C5D 1_555 1_555
C7D C6D 1_555 1_555
H6D C7D 1_555 1_555
C8D C3D 1_555 1_555
C9D C8D 1_555 1_555
H7D C9D 1_555 1_555
H8D C9D 1_555 1_555
C10D C9D 1_555 1_555
C11D C10D 1_555 1_555
H9D C11D 1_555 1_555
C12D C11D 1_555 1_555
C13D C12D 1_555 1_555
H10D C13D 1_555 1_555
C14D C13D 1_555 1_555
C15D Na1D 1_555 1_555
C16D C4D 1_555 1_555
C17D C16D 1_555 1_555
H11D C17D 1_555 1_555
H12D C17D 1_555 1_555
H13D C17D 1_555 1_555
C18D C16D 1_555 1_555
H14D C18D 1_555 1_555
H15D C18D 1_555 1_555
H16D C18D 1_555 1_555
C19D C16D 1_555 1_555
H17D C19D 1_555 1_555
H18D C19D 1_555 1_555
H19D C19D 1_555 1_555
C20D C6D 1_555 1_555
C21D C20D 1_555 1_555
H20D C21D 1_555 1_555
H21D C21D 1_555 1_555
H22D C21D 1_555 1_555
C22D C20D 1_555 1_555
H23D C22D 1_555 1_555
H24D C22D 1_555 1_555
H25D C22D 1_555 1_555
C23D C20D 1_555 1_555
H26D C23D 1_555 1_555
H27D C23D 1_555 1_555
H28D C23D 1_555 1_555
C24D C12D 1_555 1_555
C25D C24D 1_555 1_555
H29D C25D 1_555 1_555
H30D C25D 1_555 1_555
H31D C25D 1_555 1_555
C26D C24D 1_555 1_555
H32D C26D 1_555 1_555
H33D C26D 1_555 1_555
H34D C26D 1_555 1_555
C27D C24D 1_555 1_555
H35D C27D 1_555 1_555
H36D C27D 1_555 1_555
H37D C27D 1_555 1_555
C28D C14D 1_555 1_555
C29D C28D 1_555 1_555
H38D C29D 1_555 1_555
H39D C29D 1_555 1_555
H40D C29D 1_555 1_555
C30D C28D 1_555 1_555
H41D C30D 1_555 1_555
H42D C30D 1_555 1_555
H43D C30D 1_555 1_555
C31D C28D 1_555 1_555
H44D C31D 1_555 1_555
H45D C31D 1_555 1_555
H46D C31D 1_555 1_555
C32D O3D 1_555 1_555
H47D C32D 1_555 1_555
H48D C32D 1_555 1_555
C33D O4D 1_555 1_555
H49D C33D 1_555 1_555
H50D C33D 1_555 1_555
C34D O4D 1_555 1_555
H51D C34D 1_555 1_555
H52D C34D 1_555 1_555
H53D C34D 1_555 1_555
C35D O5D 1_555 1_555
H54D C35D 1_555 1_555
H55D C35D 1_555 1_555
C36D C35D 1_555 1_555
H56D C36D 1_555 1_555
H57D C36D 1_555 1_555
C37D C36D 1_555 1_555
H58D C37D 1_555 1_555
H59D C37D 1_555 1_555
C38D O5D 1_555 1_555
H60D C38D 1_555 1_555
H61D C38D 1_555 1_555
C39D H62D 1_555 1_555
H63D C39D 1_555 1_555
C40D C1D 1_555 1_555
H64D C40D 1_555 1_555
H65D C40D 1_555 1_555
O6D C2D 1_555 1_555
Na1 O6 1_555 1_555
Na2 O3 1_555 1_555
Na3 O3 1_555 1_555
O2 C15 1_555 1_555
C7 C8 1_555 1_555
C10 C15 1_555 1_555
C14 C15 1_555 1_555
C32 C33 1_555 1_555
C37 C38 1_555 1_555
C39 C40 1_555 1_555
C39 O6 1_555 1_555
Na1D O2D 1_555 1_555
Na1D O6D 1_555 1_555
Na2D O2D 1_555 1_555
Na2D O3D 1_555 1_555
Na3D O1D 1_555 1_555
Na3D O3D 1_555 1_555
O1D C3D 1_555 1_555
O2D C15D 1_555 1_555
C7D C8D 1_555 1_555
C10D C15D 1_555 1_555
C14D C15D 1_555 1_555
C32D C33D 1_555 1_555
C37D C38D 1_555 1_555
C39D C40D 1_555 1_555
C39D O6D 1_555 1_555

#END
