
#######################################################################
#
#                 Cambridge Crystallographic Data Centre
#                                CCDC 
#
#######################################################################
#
# If this CIF has been generated from an entry in the Cambridge 
# Structural Database, then it will include bibliographic, chemical, 
# crystal, experimental, refinement or atomic coordinate data resulting 
# from the CCDC's data processing and validation procedures.
#
#######################################################################

data_TEXRIY
_chemical_formula_moiety         'C26 H16 Cl2 F2 N4 O2,2(C3 H6 O1)'
_chemical_name_systematic        
'4,5-bis(3-Chloro-4-fluorophenyldiazenyl)-9,10-dihydroanthracene-1,8-diol acetone solvate'
_symmetry_cell_setting           monoclinic
_symmetry_space_group_name_H-M   'P 21/c'
_symmetry_Int_Tables_number      14
_space_group_name_Hall           '-P 2ybc'
loop_
_symmetry_equiv_pos_site_id
_symmetry_equiv_pos_as_xyz
1 x,y,z
2 -x,1/2+y,1/2-z
3 -x,-y,-z
4 x,1/2-y,1/2+z
_cell_length_a                   4.7937(17)
_cell_length_b                   42.242(14)
_cell_length_c                   16.031(5)
_cell_angle_alpha                90
_cell_angle_beta                 107.400(3)
_cell_angle_gamma                90
_cell_volume                     3097.66
_cell_formula_units_Z            4
loop_
_atom_site_label
_atom_site_type_symbol
_atom_site_fract_x
_atom_site_fract_y
_atom_site_fract_z
C1 C 1.2149(6) 0.05497(6) 0.30379(16)
H1 H 1.3073 0.0376 0.3362
C2 C 1.2354(6) 0.06066(6) 0.21865(17)
H2 H 1.3424 0.0472 0.1938
C3 C 1.0888(6) 0.08728(6) 0.17262(15)
C4 C 0.9267(6) 0.10769(6) 0.20707(16)
C5 C 0.7887(6) 0.13578(6) 0.15033(16)
H3 H 0.9415 0.1480 0.1372
H4 H 0.6590 0.1280 0.0955
C6 C 0.6182(6) 0.15718(6) 0.19259(16)
C7 C 0.4728(6) 0.18284(6) 0.14435(17)
C8 C 0.3050(6) 0.20426(6) 0.17441(17)
H5 H 0.2138 0.2213 0.1402
C9 C 0.2783(6) 0.19938(6) 0.25747(17)
H6 H 0.1666 0.2132 0.2796
C10 C 0.4211(6) 0.17352(6) 0.30809(16)
C11 C 0.5867(6) 0.15214(6) 0.27612(16)
C12 C 0.7314(5) 0.12371(5) 0.33174(15)
H7 H 0.8592 0.1315 0.3868
H8 H 0.5800 0.1112 0.3448
C13 C 0.9075(6) 0.10222(5) 0.29115(15)
C14 C 1.0531(6) 0.07599(6) 0.33749(16)
C15 C 1.1265(6) 0.04415(6) 0.54883(17)
C16 C 0.9655(6) 0.06482(6) 0.58419(17)
H9 H 0.8717 0.0822 0.5521
C17 C 0.9467(7) 0.05945(7) 0.66585(18)
C18 C 1.0772(7) 0.03179(7) 0.70907(18)
C19 C 1.2332(7) 0.01077(7) 0.67738(18)
H10 H 1.3182 -0.0070 0.7090
C20 C 1.2601(7) 0.01742(7) 0.59273(17)
H11 H 1.3659 0.0040 0.5676
C21 C 0.2105(6) 0.17963(6) 0.50169(17)
C22 C 0.0593(6) 0.20324(7) 0.53167(17)
H12 H 0.0028 0.2219 0.5003
C23 C -0.0032(7) 0.19803(7) 0.60899(19)
C24 C 0.0831(7) 0.17116(7) 0.65347(19)
C25 C 0.2290(7) 0.14655(7) 0.62647(19)
H13 H 0.2794 0.1280 0.6586
C26 C 0.2967(7) 0.15144(7) 0.54666(18)
H14 H 0.3963 0.1361 0.5252
Cl1 Cl 0.7593(2) 0.08392(2) 0.71442(5)
Cl2 Cl -0.1913(2) 0.22684(2) 0.64885(7)
F1 F 1.0421(4) 0.02536(4) 0.78915(11)
F2 F 0.0230(5) 0.16612(5) 0.73054(12)
N1 N 1.0241(5) 0.07140(5) 0.42203(13)
N2 N 1.1650(5) 0.04876(5) 0.46445(13)
N3 N 0.3888(5) 0.16659(5) 0.39154(13)
N4 N 0.2614(5) 0.18748(5) 0.42068(14)
O1 O 1.1065(4) 0.09360(4) 0.09116(10)
H27 H 1.2920 0.0865 0.0868
O2 O 0.4975(4) 0.18626(4) 0.06235(12)
H28 H 0.3422 0.1995 0.0283
C27 C 0.5824(9) 0.22880(10) 0.8536(3)
H15 H 0.4359 0.2317 0.8827
H16 H 0.4946 0.2196 0.7970
H17 H 0.6672 0.2489 0.8471
C28 C 0.8188(10) 0.20688(10) 0.9074(3)
C29 C 0.7899(10) 0.17247(9) 0.9046(3)
H18 H 0.7935 0.1649 0.8485
H19 H 0.6081 0.1666 0.9141
H20 H 0.9490 0.1633 0.9495
O3 O 1.0430(6) 0.21986(5) 0.95463(16)
C30 C 0.4751(8) 0.08876(9) 0.9199(2)
H21 H 0.3351 0.1010 0.9383
H22 H 0.3982 0.0841 0.8586
H23 H 0.6531 0.1006 0.9303
C31 C 0.5354(7) 0.05865(8) 0.9701(2)
C32 C 0.7132(8) 0.03271(8) 0.9456(2)
H24 H 0.7220 0.0147 0.9830
H25 H 0.9075 0.0403 0.9523
H26 H 0.6231 0.0266 0.8859
O4 O 0.4446(5) 0.05310(5) 1.03247(15)
loop_
_geom_bond_atom_site_label_1
_geom_bond_atom_site_label_2
_geom_bond_site_symmetry_1
_geom_bond_site_symmetry_2
C1 H1 1_555 1_555
C2 C1 1_555 1_555
H2 C2 1_555 1_555
C3 C2 1_555 1_555
C4 C3 1_555 1_555
C5 C4 1_555 1_555
H3 C5 1_555 1_555
H4 C5 1_555 1_555
C6 C5 1_555 1_555
C7 C6 1_555 1_555
C8 C7 1_555 1_555
H5 C8 1_555 1_555
C9 C8 1_555 1_555
H6 C9 1_555 1_555
C10 C9 1_555 1_555
C11 C6 1_555 1_555
C12 C11 1_555 1_555
H7 C12 1_555 1_555
H8 C12 1_555 1_555
C13 C4 1_555 1_555
C14 C1 1_555 1_555
C15 C16 1_555 1_555
C16 H9 1_555 1_555
C17 C16 1_555 1_555
C18 C17 1_555 1_555
C19 C18 1_555 1_555
H10 C19 1_555 1_555
C20 C15 1_555 1_555
H11 C20 1_555 1_555
C21 C22 1_555 1_555
C22 H12 1_555 1_555
C23 C22 1_555 1_555
C24 C23 1_555 1_555
C25 C24 1_555 1_555
H13 C25 1_555 1_555
C26 C21 1_555 1_555
H14 C26 1_555 1_555
C27 H15 1_555 1_555
H16 C27 1_555 1_555
H17 C27 1_555 1_555
C28 C27 1_555 1_555
C29 C28 1_555 1_555
H18 C29 1_555 1_555
H19 C29 1_555 1_555
H20 C29 1_555 1_555
C30 H21 1_555 1_555
H22 C30 1_555 1_555
H23 C30 1_555 1_555
C31 C30 1_555 1_555
C32 C31 1_555 1_555
H24 C32 1_555 1_555
H25 C32 1_555 1_555
H26 C32 1_555 1_555
Cl1 C17 1_555 1_555
Cl2 C23 1_555 1_555
F1 C18 1_555 1_555
F2 C24 1_555 1_555
N1 C14 1_555 1_555
N2 C15 1_555 1_555
N3 C10 1_555 1_555
N4 C21 1_555 1_555
O1 C3 1_555 1_555
H27 O1 1_555 1_555
O2 C7 1_555 1_555
H28 O2 1_555 1_555
O3 C28 1_555 1_555
O4 C31 1_555 1_555
C10 C11 1_555 1_555
C12 C13 1_555 1_555
C13 C14 1_555 1_555
C19 C20 1_555 1_555
C25 C26 1_555 1_555
N1 N2 1_555 1_555
N3 N4 1_555 1_555

#END
