
#######################################################################
#
#                 Cambridge Crystallographic Data Centre
#                                CCDC 
#
#######################################################################
#
# If this CIF has been generated from an entry in the Cambridge 
# Structural Database, then it will include bibliographic, chemical, 
# crystal, experimental, refinement or atomic coordinate data resulting 
# from the CCDC's data processing and validation procedures.
#
#######################################################################

data_TEXZAA
_chemical_formula_moiety         'C13 H12 N4 O3'
_chemical_name_systematic        
"N'-(2-hydroxy-3-methoxybenzylidene)pyrazine-2-carbohydrazide unknown solvate"
_symmetry_cell_setting           monoclinic
_symmetry_space_group_name_H-M   'C 2/c'
_symmetry_Int_Tables_number      15
_space_group_name_Hall           '-C 2yn'
loop_
_symmetry_equiv_pos_site_id
_symmetry_equiv_pos_as_xyz
1 x,y,z
2 -x,y,1/2-z
3 1/2+x,1/2+y,z
4 1/2-x,1/2+y,1/2-z
5 -x,-y,-z
6 x,-y,1/2+z
7 1/2-x,1/2-y,-z
8 1/2+x,1/2-y,1/2+z
_cell_length_a                   16.984(17)
_cell_length_b                   11.257(11)
_cell_length_c                   15.463(16)
_cell_angle_alpha                90
_cell_angle_beta                 97.034(17)
_cell_angle_gamma                90
_cell_volume                     2934.1
_exptl_crystal_colour            orange
_exptl_crystal_description       Prism
_cell_formula_units_Z            8
loop_
_atom_site_label
_atom_site_type_symbol
_atom_site_fract_x
_atom_site_fract_y
_atom_site_fract_z
C1 C 1.29069(14) 0.0863(3) 0.4927(2)
H1 H 1.27617(19) 0.0464(17) 0.4382(7)
H2 H 1.3167(7) 0.1598(3) 0.4825(12)
H3 H 1.3260(6) 0.0368(16) 0.5302(6)
C2 C 1.17363(12) 0.01502(19) 0.54863(14)
C3 C 1.19068(13) -0.1022(2) 0.53320(16)
H4 H 1.23804(13) -0.1220(2) 0.51225(16)
C4 C 1.13778(14) -0.1906(2) 0.54869(17)
H5 H 1.14964(14) -0.2694(2) 0.53788(17)
C5 C 1.06786(13) -0.1628(2) 0.57991(15)
H6 H 1.03234(13) -0.2230(2) 0.58914(15)
C6 C 1.04930(11) -0.04519(18) 0.59803(13)
C7 C 1.10242(11) 0.04513(18) 0.58194(13)
C8 C 0.97465(11) -0.02015(18) 0.63084(13)
H7 H 0.94058(11) -0.08284(18) 0.63869(13)
C9 C 0.85261(12) 0.20299(17) 0.69793(14)
C10 C 0.77498(11) 0.20161(16) 0.73404(13)
C11 C 0.66953(15) 0.1034(2) 0.7732(2)
H8 H 0.64185(15) 0.0333(2) 0.7796(2)
C12 C 0.63815(14) 0.2084(2) 0.79858(19)
H9 H 0.58966(14) 0.2067(2) 0.82072(19)
C13 C 0.74271(13) 0.30568(18) 0.76056(15)
H10 H 0.77072(13) 0.37583(18) 0.75559(15)
N1 N 0.95411(9) 0.08497(15) 0.64933(11)
N2 N 0.88173(9) 0.09556(14) 0.68198(11)
H11 H 0.85546(9) 0.03278(14) 0.69202(11)
N3 N 0.73802(10) 0.09819(15) 0.73993(14)
O1 O 1.22056(9) 0.10997(15) 0.53339(12)
O2 O 1.08868(8) 0.16142(13) 0.59544(11)
H12 H 1.0453(7) 0.1692(2) 0.6129(17)
O3 O 0.88540(10) 0.29664(14) 0.68470(13)
N4 N 0.67388(11) 0.31158(16) 0.79284(13)
loop_
_geom_bond_atom_site_label_1
_geom_bond_atom_site_label_2
_geom_bond_site_symmetry_1
_geom_bond_site_symmetry_2
C1 H1 1_555 1_555
H2 C1 1_555 1_555
H3 C1 1_555 1_555
C2 C3 1_555 1_555
C3 H4 1_555 1_555
C4 C3 1_555 1_555
H5 C4 1_555 1_555
C5 C4 1_555 1_555
H6 C5 1_555 1_555
C6 C5 1_555 1_555
C7 C2 1_555 1_555
C8 C6 1_555 1_555
H7 C8 1_555 1_555
C9 C10 1_555 1_555
C10 C13 1_555 1_555
C11 H8 1_555 1_555
C12 C11 1_555 1_555
H9 C12 1_555 1_555
C13 H10 1_555 1_555
N1 C8 1_555 1_555
N2 C9 1_555 1_555
H11 N2 1_555 1_555
N3 C10 1_555 1_555
O1 C1 1_555 1_555
O2 C7 1_555 1_555
H12 O2 1_555 1_555
O3 C9 1_555 1_555
N4 C12 1_555 1_555
C2 O1 1_555 1_555
C6 C7 1_555 1_555
C11 N3 1_555 1_555
C13 N4 1_555 1_555
N1 N2 1_555 1_555

#END
