
#######################################################################
#
#                 Cambridge Crystallographic Data Centre
#                                CCDC 
#
#######################################################################
#
# If this CIF has been generated from an entry in the Cambridge 
# Structural Database, then it will include bibliographic, chemical, 
# crystal, experimental, refinement or atomic coordinate data resulting 
# from the CCDC's data processing and validation procedures.
#
#######################################################################

data_TEYDIK
_chemical_formula_moiety         'C16 H15 N2 1+,C4 H3 O4 1-'
_chemical_name_systematic        
'4-(1-(1-Naphthyl)-(1Z)-propenyl)-3H-imidazolium hydrogen maleate'
_chemical_properties_biological  
'potent alpha!1$-antagonistic activity , alpha!1$-selective'
_symmetry_cell_setting           monoclinic
_symmetry_space_group_name_H-M   'P 21/c'
_symmetry_Int_Tables_number      14
_space_group_name_Hall           '-P 2ybc'
loop_
_symmetry_equiv_pos_site_id
_symmetry_equiv_pos_as_xyz
1 x,y,z
2 -x,1/2+y,1/2-z
3 -x,-y,-z
4 x,1/2-y,1/2+z
_cell_length_a                   7.050(1)
_cell_length_b                   34.165(5)
_cell_length_c                   7.899(1)
_cell_angle_alpha                90
_cell_angle_beta                 110.80(1)
_cell_angle_gamma                90
_cell_volume                     1778.58
_exptl_crystal_colour            colorless
_cell_formula_units_Z            4
loop_
_atom_site_label
_atom_site_type_symbol
_atom_site_fract_x
_atom_site_fract_y
_atom_site_fract_z
C1 C -0.1142(3) 0.33503(5) -0.5353(2)
C2 C -0.3183(3) 0.32803(7) -0.6118(3)
H1 H -0.3942(3) 0.34041(7) -0.7249(3)
C3 C -0.4183(4) 0.30339(8) -0.5287(4)
H2 H -0.5616(4) 0.29903(8) -0.5850(4)
C4 C -0.3142(4) 0.28588(7) -0.3705(4)
H3 H -0.3843(4) 0.26915(7) -0.3145(4)
C5 C -0.1028(3) 0.29143(6) -0.2846(3)
C6 C 0.0094(4) 0.27243(7) -0.1220(3)
H4 H -0.0602(4) 0.25570(7) -0.0654(3)
C7 C 0.2114(5) 0.27712(7) -0.0450(3)
H5 H 0.2843(5) 0.26392(7) 0.0667(3)
C8 C 0.3168(4) 0.30132(7) -0.1270(3)
H6 H 0.4612(4) 0.30433(7) -0.0718(3)
C9 C 0.2135(3) 0.32069(6) -0.2851(3)
H7 H 0.2850(3) 0.33710(6) -0.3411(3)
C10 C 0.0003(3) 0.31646(5) -0.3679(2)
C11 C -0.0137(3) 0.36141(5) -0.6289(2)
C12 C 0.0515(3) 0.39981(6) -0.5448(3)
N1 N -0.0387(3) 0.41610(5) -0.4305(2)
C13 C 0.0472(4) 0.45028(6) -0.3710(3)
H8 H 0.0120(4) 0.46753(6) -0.2907(3)
N2 N 0.1879(3) 0.45706(5) -0.4402(3)
C14 C 0.1954(3) 0.42607(6) -0.5484(3)
H9 H 0.2860(3) 0.42332(6) -0.6142(3)
C15 C 0.0092(3) 0.34941(7) -0.7821(3)
C16 C 0.0980(4) 0.37145(7) -0.8978(3)
H10 H 0.0948(4) 0.35552(7) -0.9990(3)
H11 H 0.2360(4) 0.37823(7) -0.8281(3)
H12 H 0.0209(4) 0.39489(7) -0.9411(3)
H19 H -0.1420(41) 0.4065(8) -0.3988(35)
H20 H 0.2814(39) 0.4791(8) -0.4072(35)
H21 H -0.0453(36) 0.3235(8) -0.8255(33)
C17 C -0.3297(3) 0.41962(7) -0.1727(3)
C18 C -0.4709(4) 0.41417(8) -0.0748(4)
C19 C -0.4888(5) 0.43301(8) 0.0653(4)
C20 C -0.3703(4) 0.46559(7) 0.1765(3)
O1 O -0.2051(3) 0.44839(5) -0.1282(3)
O2 O -0.3374(3) 0.39653(5) -0.2943(3)
O3 O -0.4115(3) 0.47643(5) 0.3083(2)
O4 O -0.2335(3) 0.48171(5) 0.1300(3)
H16 H -0.2048(37) 0.4652(8) 0.0070(37)
H17 H -0.5562(41) 0.3925(8) -0.1209(34)
H18 H -0.5859(38) 0.4254(8) 0.1137(35)
H13? H 0.1397(4) 0.39690(7) -0.8465(3)
H14? H -0.0015(4) 0.37420(7) -1.0174(3)
H15? H 0.2135(4) 0.35753(7) -0.9043(3)
loop_
_geom_bond_atom_site_label_1
_geom_bond_atom_site_label_2
_geom_bond_site_symmetry_1
_geom_bond_site_symmetry_2
C1 C2 1_555 1_555
C2 H1 1_555 1_555
C3 C2 1_555 1_555
H2 C3 1_555 1_555
C4 C3 1_555 1_555
H3 C4 1_555 1_555
C5 C4 1_555 1_555
C6 C5 1_555 1_555
H4 C6 1_555 1_555
C7 C6 1_555 1_555
H5 C7 1_555 1_555
C8 C7 1_555 1_555
H6 C8 1_555 1_555
C9 C8 1_555 1_555
H7 C9 1_555 1_555
C10 C1 1_555 1_555
C11 C1 1_555 1_555
C12 C11 1_555 1_555
N1 C12 1_555 1_555
C13 N1 1_555 1_555
H8 C13 1_555 1_555
N2 C13 1_555 1_555
C14 C12 1_555 1_555
H9 C14 1_555 1_555
C15 C11 1_555 1_555
C16 C15 1_555 1_555
H10 C16 1_555 1_555
H11 C16 1_555 1_555
H12 C16 1_555 1_555
C17 C18 1_555 1_555
C18 C19 1_555 1_555
C19 C20 1_555 1_555
C20 O3 1_555 1_555
O1 C17 1_555 1_555
O2 C17 1_555 1_555
O4 C20 1_555 1_555
H16 O4 1_555 1_555
H17 C18 1_555 1_555
H18 C19 1_555 1_555
H19 N1 1_555 1_555
H20 N2 1_555 1_555
H21 C15 1_555 1_555
C5 C10 1_555 1_555
C9 C10 1_555 1_555
N2 C14 1_555 1_555

#END
