
#######################################################################
#
#                 Cambridge Crystallographic Data Centre
#                                CCDC 
#
#######################################################################
#
# If this CIF has been generated from an entry in the Cambridge 
# Structural Database, then it will include bibliographic, chemical, 
# crystal, experimental, refinement or atomic coordinate data resulting 
# from the CCDC's data processing and validation procedures.
#
#######################################################################

data_TEYFOV
_chemical_formula_moiety         'C25 H28 B1 N1 O4'
_chemical_name_systematic        
'ethyl 4-[1-amino-3-(4,4,5,5-tetramethyl-1,3,2-dioxaborolan-2-yl)naphthalen-2-yl]benzoate'
_symmetry_cell_setting           triclinic
_symmetry_space_group_name_H-M   'P -1'
_symmetry_Int_Tables_number      2
_space_group_name_Hall           '-P 1'
loop_
_symmetry_equiv_pos_site_id
_symmetry_equiv_pos_as_xyz
1 x,y,z
2 -x,-y,-z
_cell_length_a                   9.8020(7)
_cell_length_b                   10.2325(6)
_cell_length_c                   12.8653(9)
_cell_angle_alpha                73.978(2)
_cell_angle_beta                 85.961(2)
_cell_angle_gamma                67.018(2)
_cell_volume                     1140.79
_exptl_crystal_colour            colorless
_exptl_crystal_description       prismatic
_cell_formula_units_Z            2
loop_
_atom_site_label
_atom_site_type_symbol
_atom_site_fract_x
_atom_site_fract_y
_atom_site_fract_z
N1 N 0.52168(15) 0.71188(14) 0.64405(11)
O1 O 0.97999(11) 0.22905(10) 0.44731(7)
O2 O 0.82715(11) 0.44638(10) 0.33510(7)
O3 O 0.55112(15) 1.15408(12) 0.15808(8)
O4 O 0.40187(12) 1.06082(11) 0.10826(8)
B1 B 0.86999(17) 0.36543(16) 0.43927(12)
C1 C 0.67516(15) 0.46053(15) 0.74145(10)
C2 C 0.61161(17) 0.47788(17) 0.84157(11)
H1 H 0.5344 0.5688 0.8441
C3 C 0.65968(19) 0.36577(18) 0.93462(12)
H2 H 0.6151 0.3795 1.0009
C4 C 0.77369(19) 0.23137(17) 0.93329(12)
H3 H 0.8072 0.1546 0.9985
C5 C 0.83689(18) 0.21049(16) 0.83825(11)
H4 H 0.9144 0.1188 0.8380
C6 C 0.78889(15) 0.32336(15) 0.73971(11)
C7 C 0.84961(16) 0.30138(15) 0.64049(11)
H5 H 0.9252 0.2088 0.6398
C8 C 0.80273(15) 0.41027(14) 0.54418(10)
C9 C 0.69371(14) 0.55114(14) 0.54611(10)
C10 C 0.63070(15) 0.57638(14) 0.64236(11)
C11 C 0.64732(14) 0.67715(14) 0.44593(10)
C12 C 0.71376(17) 0.77859(16) 0.42392(12)
H6 H 0.7925 0.7641 0.4704
C13 C 0.66675(18) 0.90080(16) 0.33503(12)
H7 H 0.7128 0.9698 0.3212
C14 C 0.55257(16) 0.92251(14) 0.26620(10)
C15 C 0.48726(16) 0.82057(15) 0.28635(11)
H8 H 0.4105 0.8337 0.2386
C16 C 0.53367(15) 0.69940(15) 0.37605(11)
H9 H 0.4872 0.6307 0.3900
C17 C 0.99036(15) 0.20457(15) 0.33999(11)
C18 C 0.92956(15) 0.36548(15) 0.26533(11)
C19 C 1.04743(19) 0.42967(19) 0.23799(13)
H10 H 1.0001 0.5361 0.2048
H11 H 1.1151 0.3829 0.1872
H12 H 1.1033 0.4115 0.3043
C20 C 0.84331(18) 0.38730(18) 0.16441(12)
H13 H 0.7598 0.3569 0.1851
H14 H 0.9086 0.3275 0.1192
H15 H 0.8058 0.4916 0.1237
C21 C 0.89149(18) 0.12213(16) 0.33827(13)
H16 H 0.9236 0.0307 0.3971
H17 H 0.8985 0.0986 0.2687
H18 H 0.7885 0.1839 0.3478
C22 C 1.15068(17) 0.11120(18) 0.32456(13)
H19 H 1.2148 0.1599 0.3356
H20 H 1.1607 0.0994 0.2510
H21 H 1.1800 0.0141 0.3771
C23 C 0.50408(17) 1.05760(15) 0.17349(11)
C24 C 0.3482(2) 1.18863(17) 0.01500(12)
H22 H 0.4287 1.1898 -0.0358
H23 H 0.3115 1.2807 0.0381
C25 C 0.2247(2) 1.1755(2) -0.03817(15)
H24 H 0.2590 1.0781 -0.0514
H25 H 0.1938 1.2520 -0.1071
H26 H 0.1404 1.1880 0.0093
H27 H 0.506(2) 0.7369(19) 0.7057(16)
H28 H 0.507(2) 0.786(2) 0.5837(16)
loop_
_geom_bond_atom_site_label_1
_geom_bond_atom_site_label_2
_geom_bond_site_symmetry_1
_geom_bond_site_symmetry_2
N1 C10 1_555 1_555
O1 B1 1_555 1_555
O2 B1 1_555 1_555
O3 C23 1_555 1_555
O4 C23 1_555 1_555
B1 C8 1_555 1_555
C1 C2 1_555 1_555
C2 H1 1_555 1_555
C3 C2 1_555 1_555
H2 C3 1_555 1_555
C4 C3 1_555 1_555
H3 C4 1_555 1_555
C5 C4 1_555 1_555
H4 C5 1_555 1_555
C6 C1 1_555 1_555
C7 C6 1_555 1_555
H5 C7 1_555 1_555
C8 C7 1_555 1_555
C9 C8 1_555 1_555
C10 C1 1_555 1_555
C11 C9 1_555 1_555
C12 C11 1_555 1_555
H6 C12 1_555 1_555
C13 C12 1_555 1_555
H7 C13 1_555 1_555
C14 C13 1_555 1_555
C15 C14 1_555 1_555
H8 C15 1_555 1_555
C16 C11 1_555 1_555
H9 C16 1_555 1_555
C17 O1 1_555 1_555
C18 O2 1_555 1_555
C19 C18 1_555 1_555
H10 C19 1_555 1_555
H11 C19 1_555 1_555
H12 C19 1_555 1_555
C20 C18 1_555 1_555
H13 C20 1_555 1_555
H14 C20 1_555 1_555
H15 C20 1_555 1_555
C21 C17 1_555 1_555
H16 C21 1_555 1_555
H17 C21 1_555 1_555
H18 C21 1_555 1_555
C22 C17 1_555 1_555
H19 C22 1_555 1_555
H20 C22 1_555 1_555
H21 C22 1_555 1_555
C23 C14 1_555 1_555
C24 O4 1_555 1_555
H22 C24 1_555 1_555
H23 C24 1_555 1_555
C25 C24 1_555 1_555
H24 C25 1_555 1_555
H25 C25 1_555 1_555
H26 C25 1_555 1_555
H27 N1 1_555 1_555
H28 N1 1_555 1_555
C5 C6 1_555 1_555
C9 C10 1_555 1_555
C15 C16 1_555 1_555
C17 C18 1_555 1_555

#END
