
#######################################################################
#
#                 Cambridge Crystallographic Data Centre
#                                CCDC 
#
#######################################################################
#
# If this CIF has been generated from an entry in the Cambridge 
# Structural Database, then it will include bibliographic, chemical, 
# crystal, experimental, refinement or atomic coordinate data resulting 
# from the CCDC's data processing and validation procedures.
#
#######################################################################

data_TEYHOX
_chemical_name_common            
'1-phenyl-2-(4-(trifluoromethyl)phenyl) diazene oxide'
_chemical_formula_moiety         'C13 H9 F3 N2 O1'
_chemical_name_systematic        
1-(phenyl-ONN-azoxy)-4-(trifluoromethyl)benzene
_symmetry_cell_setting           orthorhombic
_symmetry_space_group_name_H-M   'P b c a'
_symmetry_Int_Tables_number      61
_space_group_name_Hall           '-P 2ac 2ab'
loop_
_symmetry_equiv_pos_site_id
_symmetry_equiv_pos_as_xyz
1 x,y,z
2 1/2-x,-y,1/2+z
3 -x,1/2+y,1/2-z
4 1/2+x,1/2-y,-z
5 -x,-y,-z
6 1/2+x,y,1/2-z
7 x,1/2-y,1/2+z
8 1/2-x,1/2+y,z
_cell_length_a                   15.165(2)
_cell_length_b                   6.1395(9)
_cell_length_c                   26.016(4)
_cell_angle_alpha                90
_cell_angle_beta                 90
_cell_angle_gamma                90
_cell_volume                     2422.23
_exptl_crystal_colour            colorless
_exptl_crystal_description       prismatic
_cell_formula_units_Z            8
loop_
_atom_site_label
_atom_site_type_symbol
_atom_site_fract_x
_atom_site_fract_y
_atom_site_fract_z
F1 F 0.9170(6) 0.2766(15) 0.2480(3)
F2 F 0.9057(7) 0.5804(12) 0.2823(3)
F3 F 0.7889(4) 0.4139(14) 0.2644(2)
N1 N 0.8965(3) -0.1368(7) 0.50110(19)
N2 N 0.8623(3) 0.0370(8) 0.4854(2)
O1 O 0.9433(3) -0.2628(8) 0.47533(17)
C1 C 0.8817(3) -0.1842(8) 0.55460(18)
C2 C 0.8424(3) -0.0508(8) 0.5894(2)
H1 H 0.8196 0.0825 0.5788
C3 C 0.8363(4) -0.1105(12) 0.6393(2)
H2 H 0.8096 -0.0176 0.6628
C4 C 0.8677(4) -0.2992(13) 0.6547(2)
H3 H 0.8621 -0.3359 0.6892
C5 C 0.9070(4) -0.4398(10) 0.6234(3)
H4 H 0.9287 -0.5710 0.6361
C6 C 0.9153(3) -0.3887(9) 0.5719(3)
H5 H 0.9421 -0.4850 0.5491
C7 C 0.8722(2) 0.0991(7) 0.43201(18)
C8 C 0.9095(3) -0.0101(8) 0.3908(2)
H6 H 0.9349 -0.1463 0.3958
C9 C 0.9092(3) 0.0819(8) 0.3422(2)
H7 H 0.9348 0.0076 0.3148
C10 C 0.8713(3) 0.2824(8) 0.33409(19)
C11 C 0.8341(3) 0.3914(7) 0.37466(18)
H8 H 0.8086 0.5273 0.3695
C12 C 0.8346(3) 0.3001(7) 0.42305(18)
H9 H 0.8090 0.3756 0.4502
C13 C 0.8701(4) 0.3810(10) 0.2830(2)
F4? F 0.9506(8) 0.456(2) 0.2690(4)
F5? F 0.8231(10) 0.553(2) 0.2773(4)
F6? F 0.8534(8) 0.240(2) 0.2453(4)
N3? N 0.8538(16) 0.001(4) 0.5081(8)
N4? N 0.8923(13) -0.052(4) 0.4678(7)
O2? O 0.7992(9) 0.153(2) 0.5142(5)
loop_
_geom_bond_atom_site_label_1
_geom_bond_atom_site_label_2
_geom_bond_site_symmetry_1
_geom_bond_site_symmetry_2
F1 C13 1_555 1_555
F2 C13 1_555 1_555
F3 C13 1_555 1_555
N1 N2 1_555 1_555
N2 C7 1_555 1_555
O1 N1 1_555 1_555
C1 N1 1_555 1_555
C2 C1 1_555 1_555
H1 C2 1_555 1_555
C3 C2 1_555 1_555
H2 C3 1_555 1_555
C4 C3 1_555 1_555
H3 C4 1_555 1_555
C5 C4 1_555 1_555
H4 C5 1_555 1_555
C6 C1 1_555 1_555
H5 C6 1_555 1_555
C7 C8 1_555 1_555
C8 H6 1_555 1_555
C9 C8 1_555 1_555
H7 C9 1_555 1_555
C10 C9 1_555 1_555
C11 C10 1_555 1_555
H8 C11 1_555 1_555
C12 C7 1_555 1_555
H9 C12 1_555 1_555
C13 C10 1_555 1_555
C5 C6 1_555 1_555
C11 C12 1_555 1_555

#END
