
#######################################################################
#
#                 Cambridge Crystallographic Data Centre
#                                CCDC 
#
#######################################################################
#
# If this CIF has been generated from an entry in the Cambridge 
# Structural Database, then it will include bibliographic, chemical, 
# crystal, experimental, refinement or atomic coordinate data resulting 
# from the CCDC's data processing and validation procedures.
#
#######################################################################

data_TEYHUC
_chemical_formula_moiety         'C29 H30 O3,0.5(C4 H8 O2)'
_chemical_name_systematic        
'(4b,8b,12b,12d-Tetramethyl-4b,8b,12b,12d-tetrahydrodibenzo[2,3:4,5]pentaleno[1,6-ab]indene-2,6,10-triyl)trimethanol ethyl acetate solvate'
_symmetry_cell_setting           trigonal
_symmetry_space_group_name_H-M   'P -3'
_symmetry_Int_Tables_number      147
_space_group_name_Hall           '-P 3'
loop_
_symmetry_equiv_pos_site_id
_symmetry_equiv_pos_as_xyz
1 x,y,z
2 -y,x-y,z
3 -x+y,-x,z
4 -x,-y,-z
5 y,-x+y,-z
6 x-y,x,-z
_cell_length_a                   11.9712(12)
_cell_length_b                   11.9712(12)
_cell_length_c                   9.9653(13)
_cell_angle_alpha                90
_cell_angle_beta                 90
_cell_angle_gamma                120
_cell_volume                     1236.79
_exptl_crystal_colour            colorless
_exptl_crystal_description       block
_cell_formula_units_Z            2
loop_
_atom_site_label
_atom_site_type_symbol
_atom_site_fract_x
_atom_site_fract_y
_atom_site_fract_z
C1 C 1.0380(2) 0.5174(3) 0.1641(3)
H1 H 1.1074 0.5808 0.1160
C2 C 1.0159(2) 0.3920(2) 0.1633(2)
C3 C 0.9101(2) 0.2979(2) 0.2341(2)
H2 H 0.8931 0.2131 0.2341
C4 C 0.8299(2) 0.3299(2) 0.3046(2)
C5 C 1.1107(3) 0.3649(3) 0.0942(3)
H3 H 1.1569 0.4308 0.0270
H4 H 1.1731 0.3694 0.1593
C6 C 0.7138(2) 0.2411(2) 0.3901(2)
C7 C 0.6667 0.3333 0.4500(4)
C8 C 0.6667 0.3333 0.6041(4)
H5 H 0.6073 0.2482 0.6362
C9 C 0.6013(2) 0.1455(2) 0.3054(2)
C10 C 0.5909(2) 0.0409(2) 0.2347(3)
H6 H 0.6588 0.0240 0.2347
C11 C 0.7509(3) 0.1693(3) 0.4923(3)
H7 H 0.6771 0.1141 0.5462
H8 H 0.8188 0.2306 0.5489
H9 H 0.7799 0.1183 0.4457
O1 O 1.05116(18) 0.24310(19) 0.0323(2)
H10 H 1.1066 0.2286 0.0027
C1A C 0.4826(3) 0.5206(4) 0.1641(3)
H1A H 0.4192 0.5266 0.1160
C2A C 0.6080(2) 0.6239(3) 0.1633(2)
C3A C 0.7021(2) 0.6122(3) 0.2341(2)
H2A H 0.7869 0.6800 0.2341
C4A C 0.6701(2) 0.5000(3) 0.3046(2)
C5A C 0.6351(3) 0.7458(4) 0.0942(3)
H3A H 0.5692 0.7261 0.0270
H4A H 0.6306 0.8037 0.1593
C6A C 0.7589(2) 0.4727(3) 0.3901(2)
H5A H 0.7518 0.3591 0.6362
C9A C 0.8545(2) 0.4558(3) 0.3054(2)
C10A C 0.9591(2) 0.5500(3) 0.2347(3)
H6A H 0.9760 0.6348 0.2347
C11A C 0.8307(3) 0.5816(4) 0.4923(3)
H7A H 0.8859 0.5630 0.5462
H8A H 0.7694 0.5882 0.5489
H9A H 0.8817 0.6616 0.4457
O1A O 0.75690(19) 0.80806(26) 0.0323(2)
H10A H 0.7714 0.8780 0.0027
C1B C 0.4794(4) -0.0380(2) 0.1641(3)
H1B H 0.4734 -0.1074 0.1160
C2B C 0.3761(3) -0.0159(2) 0.1633(2)
C3B C 0.3878(3) 0.0899(2) 0.2341(2)
H2B H 0.3200 0.1069 0.2341
C4B C 0.5000(3) 0.1701(2) 0.3046(2)
C5B C 0.2542(4) -0.1107(3) 0.0942(3)
H3B H 0.2739 -0.1569 0.0270
H4B H 0.1963 -0.1731 0.1593
C6B C 0.5273(3) 0.2862(2) 0.3901(2)
H5B H 0.6409 0.3927 0.6362
C9B C 0.5442(3) 0.3987(2) 0.3054(2)
C10B C 0.4500(3) 0.4091(2) 0.2347(3)
H6B H 0.3652 0.3412 0.2347
C11B C 0.4184(4) 0.2491(3) 0.4923(3)
H7B H 0.4370 0.3229 0.5462
H8B H 0.4118 0.1812 0.5489
H9B H 0.3384 0.2201 0.4457
O1B O 0.19194(26) -0.05116(18) 0.0323(2)
H10B H 0.1220 -0.1066 0.0027
H11? H 0.6073 0.2483 0.6362
H12? H 0.6072 0.2482 0.6362
O2? O 0.0000 0.0000 0.282(2)
C12? C 0.0000 0.0000 0.3868(16)
O3? O 0.0000 0.0000 0.5000
loop_
_geom_bond_atom_site_label_1
_geom_bond_atom_site_label_2
_geom_bond_site_symmetry_1
_geom_bond_site_symmetry_2
C1 H1 1_555 1_555
C2 C1 1_555 1_555
C3 C2 1_555 1_555
H2 C3 1_555 1_555
C4 C3 1_555 1_555
C5 C2 1_555 1_555
H3 C5 1_555 1_555
H4 C5 1_555 1_555
C6 C4 1_555 1_555
C7 C6 1_555 1_555
C8 C7 1_555 1_555
H5 C8 1_555 1_555
C9 C6 1_555 1_555
C10 C9 1_555 1_555
H6 C10 1_555 1_555
C11 C6 1_555 1_555
H7 C11 1_555 1_555
H8 C11 1_555 1_555
H9 C11 1_555 1_555
O1 C5 1_555 1_555
H10 O1 1_555 1_555
C1A H1A 1_555 1_555
C2A C1A 1_555 1_555
C3A C2A 1_555 1_555
H2A C3A 1_555 1_555
C4A C3A 1_555 1_555
C5A C2A 1_555 1_555
H3A C5A 1_555 1_555
H4A C5A 1_555 1_555
C6A C7 1_555 1_555
H5A C8 1_555 1_555
C9A C4 1_555 1_555
C10A C1 1_555 1_555
H6A C10A 1_555 1_555
C11A C6A 1_555 1_555
H7A C11A 1_555 1_555
H8A C11A 1_555 1_555
H9A C11A 1_555 1_555
O1A C5A 1_555 1_555
H10A O1A 1_555 1_555
C1B C10 1_555 1_555
H1B C1B 1_555 1_555
C2B C1B 1_555 1_555
C3B C2B 1_555 1_555
H2B C3B 1_555 1_555
C4B C9 1_555 1_555
C5B C2B 1_555 1_555
H3B C5B 1_555 1_555
H4B C5B 1_555 1_555
C6B C7 1_555 1_555
H5B C8 1_555 1_555
C9B C4A 1_555 1_555
C10B C1A 1_555 1_555
H6B C10B 1_555 1_555
C11B C6B 1_555 1_555
H7B C11B 1_555 1_555
H8B C11B 1_555 1_555
H9B C11B 1_555 1_555
O1B C5B 1_555 1_555
H10B O1B 1_555 1_555
C4A C6A 1_555 1_555
C6A C9A 1_555 1_555
C9A C10A 1_555 1_555
C3B C4B 1_555 1_555
C4B C6B 1_555 1_555
C6B C9B 1_555 1_555
C9B C10B 1_555 1_555

#END
