
#######################################################################
#
#                 Cambridge Crystallographic Data Centre
#                                CCDC 
#
#######################################################################
#
# If this CIF has been generated from an entry in the Cambridge 
# Structural Database, then it will include bibliographic, chemical, 
# crystal, experimental, refinement or atomic coordinate data resulting 
# from the CCDC's data processing and validation procedures.
#
#######################################################################

data_TEYHIQ
_chemical_formula_moiety         'C29 H30 O3'
_chemical_name_systematic        
(+-)-(4b,8b,12b,12d-Tetramethyl-4b,8b,12b,12d-tetrahydrodibenzo[2,3:4,5]pentaleno[1,6-ab]indene-2,6,10-triyl)trimethanol
_symmetry_cell_setting           trigonal
_symmetry_space_group_name_H-M   'P -3'
_symmetry_Int_Tables_number      147
_space_group_name_Hall           '-P 3'
loop_
_symmetry_equiv_pos_site_id
_symmetry_equiv_pos_as_xyz
1 x,y,z
2 -y,x-y,z
3 -x+y,-x,z
4 -x,-y,-z
5 y,-x+y,-z
6 x-y,x,-z
_cell_length_a                   12.0399(7)
_cell_length_b                   12.0399(7)
_cell_length_c                   9.8716(7)
_cell_angle_alpha                90
_cell_angle_beta                 90
_cell_angle_gamma                120
_cell_volume                     1239.26
_exptl_crystal_colour            colorless
_exptl_crystal_description       block
_cell_formula_units_Z            2
_exptl_crystal_recrystallization_method tetrahydrofuran
loop_
_atom_site_label
_atom_site_type_symbol
_atom_site_fract_x
_atom_site_fract_y
_atom_site_fract_z
C1 C 0.7601(3) 0.4719(3) 0.3888(3)
C2 C 0.6732(3) 0.5010(3) 0.3032(3)
C3 C 0.7053(3) 0.6140(3) 0.2337(3)
H1 H 0.7896 0.6813 0.2344
C4 C 0.6125(3) 0.6267(3) 0.1636(3)
C5 C 0.4866(3) 0.5252(3) 0.1646(3)
H2 H 0.4237 0.5332 0.1182
C6 C 0.6417(3) 0.7501(3) 0.0960(4)
H3 H 0.5783 0.7320 0.0260
H4 H 0.6347 0.8057 0.1623
C7 C 0.8333(3) 0.5796(3) 0.4923(3)
H5 H 0.8859 0.6588 0.4454
H6 H 0.8865 0.5591 0.5471
H7 H 0.7732 0.5881 0.5490
C8 C 0.6667 0.3333 0.4499(4)
C9 C 0.6667 0.3333 0.6041(5)
H8 H 0.5993 0.2523 0.6365
C10 C 0.8539(3) 0.4532(3) 0.3032(3)
C11 C 0.9597(3) 0.5464(3) 0.2329(3)
H9 H 0.9770 0.6308 0.2320
O1 O 0.7627(3) 0.8139(3) 0.0385(3)
H10 H 0.7785 0.8853 0.0136
C1A C 0.5281(3) 0.2882(4) 0.3888(3)
C2A C 0.4990(3) 0.1722(4) 0.3032(3)
C3A C 0.3860(3) 0.0913(4) 0.2337(3)
H1A H 0.3187 0.1083 0.2344
C4A C 0.3733(3) -0.0142(4) 0.1636(3)
C5A C 0.4748(3) -0.0386(4) 0.1646(3)
H2A H 0.4668 -0.1095 0.1182
C6A C 0.2499(3) -0.1084(4) 0.0960(4)
H3A H 0.2680 -0.1537 0.0260
H4A H 0.1943 -0.1710 0.1623
C7A C 0.4204(3) 0.2537(4) 0.4923(3)
H5A H 0.3412 0.2271 0.4454
H6A H 0.4409 0.3274 0.5471
H7A H 0.4119 0.1851 0.5490
H8A H 0.7477 0.3470 0.6365
C10A C 0.5468(3) 0.4007(4) 0.3032(3)
C11A C 0.4536(3) 0.4133(4) 0.2329(3)
H9A H 0.3692 0.3462 0.2320
O1A O 0.1861(3) -0.0512(4) 0.0385(3)
H10A H 0.1147 -0.1068 0.0136
C1B C 0.7118(4) 0.2399(3) 0.3888(3)
C2B C 0.8278(4) 0.3268(3) 0.3032(3)
C3B C 0.9087(4) 0.2947(3) 0.2337(3)
H1B H 0.8917 0.2104 0.2344
C4B C 1.0142(4) 0.3875(3) 0.1636(3)
C5B C 1.0386(4) 0.5134(3) 0.1646(3)
H2B H 1.1095 0.5763 0.1182
C6B C 1.1084(4) 0.3583(3) 0.0960(4)
H3B H 1.1537 0.4217 0.0260
H4B H 1.1710 0.3653 0.1623
C7B C 0.7463(4) 0.1667(3) 0.4923(3)
H5B H 0.7729 0.1141 0.4454
H6B H 0.6726 0.1135 0.5471
H7B H 0.8149 0.2268 0.5490
H8B H 0.6530 0.4007 0.6365
C10B C 0.5993(4) 0.1461(3) 0.3032(3)
C11B C 0.5867(4) 0.0403(3) 0.2329(3)
H9B H 0.6538 0.0230 0.2320
O1B O 1.0512(4) 0.2373(3) 0.0385(3)
H10B H 1.1068 0.2215 0.0136
H11? H 0.5993 0.2523 0.6365
H12? H 0.5993 0.2523 0.6365
loop_
_geom_bond_atom_site_label_1
_geom_bond_atom_site_label_2
_geom_bond_site_symmetry_1
_geom_bond_site_symmetry_2
C1 C2 1_555 1_555
C2 C3 1_555 1_555
C3 H1 1_555 1_555
C4 C3 1_555 1_555
C5 C4 1_555 1_555
H2 C5 1_555 1_555
C6 C4 1_555 1_555
H3 C6 1_555 1_555
H4 C6 1_555 1_555
C7 C1 1_555 1_555
H5 C7 1_555 1_555
H6 C7 1_555 1_555
H7 C7 1_555 1_555
C8 C1 1_555 1_555
C9 C8 1_555 1_555
H8 C9 1_555 1_555
C10 C1 1_555 1_555
C11 C10 1_555 1_555
H9 C11 1_555 1_555
O1 C6 1_555 1_555
H10 O1 1_555 1_555
C1A C8 1_555 1_555
C2A C1A 1_555 1_555
C3A C2A 1_555 1_555
H1A C3A 1_555 1_555
C4A C3A 1_555 1_555
C5A C4A 1_555 1_555
H2A C5A 1_555 1_555
C6A C4A 1_555 1_555
H3A C6A 1_555 1_555
H4A C6A 1_555 1_555
C7A C1A 1_555 1_555
H5A C7A 1_555 1_555
H6A C7A 1_555 1_555
H7A C7A 1_555 1_555
H8A C9 1_555 1_555
C10A C2 1_555 1_555
C11A C5 1_555 1_555
H9A C11A 1_555 1_555
O1A C6A 1_555 1_555
H10A O1A 1_555 1_555
C1B C8 1_555 1_555
C2B C10 1_555 1_555
C3B C2B 1_555 1_555
H1B C3B 1_555 1_555
C4B C3B 1_555 1_555
C5B C11 1_555 1_555
H2B C5B 1_555 1_555
C6B C4B 1_555 1_555
H3B C6B 1_555 1_555
H4B C6B 1_555 1_555
C7B C1B 1_555 1_555
H5B C7B 1_555 1_555
H6B C7B 1_555 1_555
H7B C7B 1_555 1_555
H8B C9 1_555 1_555
C10B C2A 1_555 1_555
C11B C5A 1_555 1_555
H9B C11B 1_555 1_555
O1B C6B 1_555 1_555
H10B O1B 1_555 1_555
C1A C10A 1_555 1_555
C10A C11A 1_555 1_555
C1B C2B 1_555 1_555
C1B C10B 1_555 1_555
C4B C5B 1_555 1_555
C10B C11B 1_555 1_555

#END
