
#######################################################################
#
#                 Cambridge Crystallographic Data Centre
#                                CCDC 
#
#######################################################################
#
# If this CIF has been generated from an entry in the Cambridge 
# Structural Database, then it will include bibliographic, chemical, 
# crystal, experimental, refinement or atomic coordinate data resulting 
# from the CCDC's data processing and validation procedures.
#
#######################################################################

data_TEYMUF
_chemical_formula_moiety         'C21 H30 O4'
_chemical_name_systematic        
(1S,3R,6R,8S,9S)-1-Hydroxy-3-(3-m-methoxyphenylpropyl)-6,8,9-trimethyl-2-oxabicyclo(4.3.0)nonan-7-one
_symmetry_cell_setting           orthorhombic
_symmetry_space_group_name_H-M   'P 21 21 21'
_symmetry_Int_Tables_number      19
_space_group_name_Hall           'P 2ac 2ab'
loop_
_symmetry_equiv_pos_site_id
_symmetry_equiv_pos_as_xyz
1 x,y,z
2 1/2-x,-y,1/2+z
3 1/2+x,1/2-y,-z
4 -x,1/2+y,1/2-z
_cell_length_a                   7.302(3)
_cell_length_b                   14.688(6)
_cell_length_c                   18.816(6)
_cell_angle_alpha                90
_cell_angle_beta                 90
_cell_angle_gamma                90
_cell_volume                     2018.05
_exptl_crystal_colour            colorless
_chemical_melting_point          '65-66 deg.C'
_cell_formula_units_Z            4
loop_
_atom_site_label
_atom_site_type_symbol
_atom_site_fract_x
_atom_site_fract_y
_atom_site_fract_z
C1 C 0.4017(6) 0.8553(3) 0.83535(23)
C2 C 0.3805(7) 0.9118(3) 0.76802(23)
C3 C 0.1769(7) 0.9398(3) 0.77066(25)
C4 C 0.0873(7) 0.8651(3) 0.81205(24)
C5 C 0.2260(6) 0.7967(3) 0.83970(24)
C6 C 0.1910(7) 0.7615(3) 0.9129(3)
C7 C 0.2128(7) 0.8334(3) 0.96949(24)
C8 C 0.3931(7) 0.8826(3) 0.96117(23)
C9 C 0.4091(7) 0.9608(3) 1.01187(24)
C10 C 0.5619(8) 1.0292(3) 0.9990(3)
C11 C 0.7527(9) 0.9890(4) 1.0061(3)
C12 C 0.9005(7) 1.0604(3) 0.9948(3)
C13 C 0.9484(7) 1.0840(3) 0.9266(3)
C14 C 1.0803(7) 1.1506(3) 0.9136(3)
C15 C 1.1660(7) 1.1918(3) 0.9695(3)
C16 C 1.1177(8) 1.1687(3) 1.0374(3)
C17 C 0.9878(8) 1.1037(4) 1.0506(3)
C18 C 0.5120(9) 0.9901(4) 0.7599(3)
C19 C 0.0890(10) 0.9595(5) 0.7005(3)
C20 C 0.2266(8) 0.7183(4) 0.7857(3)
C21 C 1.2579(10) 1.2238(5) 0.8265(4)
O1 O 0.4054(4) 0.91910(19) 0.89092(14)
O2 O 0.5559(4) 0.79736(22) 0.83648(17)
O3 O -0.0763(4) 0.8589(3) 0.82317(18)
O4 O 1.1144(8) 1.1643(3) 0.84348(19)
H1 H 0.658 0.839 0.832
H2 H 0.396 0.874 0.726
H3 H 0.172 0.998 0.800
H4 H 0.071 0.736 0.917
H5 H 0.277 0.712 0.924
H6 H 0.207 0.803 1.016
H7 H 0.114 0.873 0.966
H8 H 0.493 0.841 0.971
H9 H 0.417 0.936 1.059
H10 H 0.291 0.992 1.010
H11 H 0.551 1.053 0.953
H12 H 0.552 1.077 1.033
H13 H 0.765 0.938 0.973
H14 H 0.767 0.962 1.054
H15 H 0.882 1.053 0.888
H16 H 1.255 1.241 0.960
H17 H 1.173 1.198 1.078
H18 H 0.951 1.084 1.098
H19 H 0.636 0.974 0.763
H20 H 0.494 1.024 0.716
H21 H 0.479 1.030 0.798
H22 H -0.034 0.988 0.707
H23 H 0.156 1.000 0.671
H24 H 0.073 0.903 0.679
H25 H 0.247 0.739 0.737
H26 H 0.323 0.673 0.795
H27 H 0.111 0.690 0.789
H28 H 1.222 1.288 0.831
H29 H 1.365 1.215 0.853
H30 H 1.288 1.214 0.775
loop_
_geom_bond_atom_site_label_1
_geom_bond_atom_site_label_2
_geom_bond_site_symmetry_1
_geom_bond_site_symmetry_2
C1 C2 1_555 1_555
C2 C3 1_555 1_555
C3 C4 1_555 1_555
C4 C5 1_555 1_555
C5 C1 1_555 1_555
C6 C5 1_555 1_555
C7 C6 1_555 1_555
C8 C7 1_555 1_555
C9 C8 1_555 1_555
C10 C9 1_555 1_555
C11 C10 1_555 1_555
C12 C11 1_555 1_555
C13 C12 1_555 1_555
C14 C13 1_555 1_555
C15 C14 1_555 1_555
C16 C15 1_555 1_555
C17 C12 1_555 1_555
C18 C2 1_555 1_555
C19 C3 1_555 1_555
C20 C5 1_555 1_555
C21 O4 1_555 1_555
O1 C1 1_555 1_555
O2 C1 1_555 1_555
O3 C4 1_555 1_555
O4 C14 1_555 1_555
H1 O2 1_555 1_555
H2 C2 1_555 1_555
H3 C3 1_555 1_555
H4 C6 1_555 1_555
H5 C6 1_555 1_555
H6 C7 1_555 1_555
H7 C7 1_555 1_555
H8 C8 1_555 1_555
H9 C9 1_555 1_555
H10 C9 1_555 1_555
H11 C10 1_555 1_555
H12 C10 1_555 1_555
H13 C11 1_555 1_555
H14 C11 1_555 1_555
H15 C13 1_555 1_555
H16 C15 1_555 1_555
H17 C16 1_555 1_555
H18 C17 1_555 1_555
H19 C18 1_555 1_555
H20 C18 1_555 1_555
H21 C18 1_555 1_555
H22 C19 1_555 1_555
H23 C19 1_555 1_555
H24 C19 1_555 1_555
H25 C20 1_555 1_555
H26 C20 1_555 1_555
H27 C20 1_555 1_555
H28 C21 1_555 1_555
H29 C21 1_555 1_555
H30 C21 1_555 1_555
C8 O1 1_555 1_555
C16 C17 1_555 1_555

#END
