
#######################################################################
#
#                 Cambridge Crystallographic Data Centre
#                                CCDC 
#
#######################################################################
#
# If this CIF has been generated from an entry in the Cambridge 
# Structural Database, then it will include bibliographic, chemical, 
# crystal, experimental, refinement or atomic coordinate data resulting 
# from the CCDC's data processing and validation procedures.
#
#######################################################################

data_TEYPIX
_chemical_formula_moiety         'C17 H19 Cl1 N2 O4'
_chemical_name_systematic        
'3-(4-chlorobutyl)-2-cyanocyclopentyl 4-nitrobenzoate'
_symmetry_cell_setting           monoclinic
_symmetry_space_group_name_H-M   'P 21/c'
_symmetry_Int_Tables_number      14
_space_group_name_Hall           '-P 2ybc'
loop_
_symmetry_equiv_pos_site_id
_symmetry_equiv_pos_as_xyz
1 x,y,z
2 -x,1/2+y,1/2-z
3 -x,-y,-z
4 x,1/2-y,1/2+z
_cell_length_a                   27.8483(10)
_cell_length_b                   5.3181(2)
_cell_length_c                   11.8833(4)
_cell_angle_alpha                90
_cell_angle_beta                 101.357(2)
_cell_angle_gamma                90
_cell_volume                     1725.46
_exptl_crystal_colour            colorless
_exptl_crystal_description       plate
_chemical_melting_point          '349 K'
_cell_formula_units_Z            4
loop_
_atom_site_label
_atom_site_type_symbol
_atom_site_fract_x
_atom_site_fract_y
_atom_site_fract_z
C1 C 0.22433(13) 0.4262(6) 0.8179(3)
H1 H 0.2107 0.2943 0.8600
Cl1 Cl 0.04693(5) 0.4882(2) 0.33716(12)
N1 N 0.22967(13) 0.8320(7) 0.9401(3)
O1 O 0.30543(8) 0.5258(4) 0.77928(17)
C2 C 0.27212(13) 0.3230(7) 0.7916(3)
H2 H 0.2873 0.2011 0.8497
N2 N 0.46554(11) 1.3802(6) 0.8030(3)
O2 O 0.33945(9) 0.4877(4) 0.9661(2)
C3 C 0.25657(13) 0.1991(7) 0.6729(3)
H3 H 0.2721 0.2828 0.6169
H4 H 0.2659 0.0231 0.6763
O3 O 0.45940(9) 1.4806(5) 0.7084(2)
C4 C 0.20172(12) 0.2252(7) 0.6406(3)
H5 H 0.1858 0.0777 0.6642
H6 H 0.1914 0.2456 0.5583
O4 O 0.49808(10) 1.4425(5) 0.8837(2)
C5 C 0.18895(13) 0.4574(6) 0.7031(3)
H7 H 0.1989 0.6060 0.6647
C6 C 0.22880(14) 0.6520(8) 0.8896(3)
C7 C 0.13596(15) 0.4904(8) 0.7133(5)
H8 H 0.1281 0.3553 0.7615
H9 H 0.1338 0.6460 0.7546
C8 C 0.09762(19) 0.4963(10) 0.6109(6)
H10 H 0.1009 0.3473 0.5659
H11 H 0.0663 0.4846 0.6346
C9 C 0.0963(2) 0.7052(10) 0.5395(4)
H12 H 0.1260 0.7032 0.5083
H13 H 0.0977 0.8539 0.5872
C10 C 0.05229(14) 0.7383(8) 0.4370(4)
H14 H 0.0562 0.8947 0.3979
H15 H 0.0223 0.7500 0.4665
C11 C 0.33851(12) 0.5870(7) 0.8749(3)
C12 C 0.37156(12) 0.7903(6) 0.8526(3)
C13 C 0.40494(13) 0.8890(7) 0.9450(3)
H16 H 0.4063 0.8237 1.0182
C14 C 0.43584(12) 1.0814(7) 0.9294(3)
H17 H 0.4581 1.1477 0.9909
C15 C 0.43282(12) 1.1733(6) 0.8199(3)
C16 C 0.40133(12) 1.0783(7) 0.7271(3)
H18 H 0.4008 1.1420 0.6540
C17 C 0.37058(12) 0.8881(7) 0.7434(3)
H19 H 0.3487 0.8229 0.6809
loop_
_geom_bond_atom_site_label_1
_geom_bond_atom_site_label_2
_geom_bond_site_symmetry_1
_geom_bond_site_symmetry_2
C1 H1 1_555 1_555
Cl1 C10 1_555 1_555
N1 C6 1_555 1_555
O1 C2 1_555 1_555
C2 C1 1_555 1_555
H2 C2 1_555 1_555
N2 O3 1_555 1_555
O2 C11 1_555 1_555
C3 C2 1_555 1_555
H3 C3 1_555 1_555
H4 C3 1_555 1_555
C4 C3 1_555 1_555
H5 C4 1_555 1_555
H6 C4 1_555 1_555
O4 N2 1_555 1_555
C5 C1 1_555 1_555
H7 C5 1_555 1_555
C6 C1 1_555 1_555
C7 C5 1_555 1_555
H8 C7 1_555 1_555
H9 C7 1_555 1_555
C8 C7 1_555 1_555
H10 C8 1_555 1_555
H11 C8 1_555 1_555
C9 C8 1_555 1_555
H12 C9 1_555 1_555
H13 C9 1_555 1_555
C10 C9 1_555 1_555
H14 C10 1_555 1_555
H15 C10 1_555 1_555
C11 O1 1_555 1_555
C12 C11 1_555 1_555
C13 C12 1_555 1_555
H16 C13 1_555 1_555
C14 C13 1_555 1_555
H17 C14 1_555 1_555
C15 N2 1_555 1_555
C16 C15 1_555 1_555
H18 C16 1_555 1_555
C17 C12 1_555 1_555
H19 C17 1_555 1_555
C4 C5 1_555 1_555
C14 C15 1_555 1_555
C16 C17 1_555 1_555

#END
