
#######################################################################
#
#                 Cambridge Crystallographic Data Centre
#                                CCDC 
#
#######################################################################
#
# If this CIF has been generated from an entry in the Cambridge 
# Structural Database, then it will include bibliographic, chemical, 
# crystal, experimental, refinement or atomic coordinate data resulting 
# from the CCDC's data processing and validation procedures.
#
#######################################################################

data_TEYSIC
_chemical_formula_moiety         'C6 H7 Cl1 N3 O2 1+,C7 H7 O3 S1 1-'
_chemical_name_systematic        
'4-amino-2-chloro-5-nitroanilinium 4-methylbenzene-1-sulfonate'
_symmetry_cell_setting           monoclinic
_symmetry_space_group_name_H-M   'P 21/c'
_symmetry_Int_Tables_number      14
_space_group_name_Hall           '-P 2ybc'
loop_
_symmetry_equiv_pos_site_id
_symmetry_equiv_pos_as_xyz
1 x,y,z
2 -x,1/2+y,1/2-z
3 -x,-y,-z
4 x,1/2-y,1/2+z
_cell_length_a                   7.2666(9)
_cell_length_b                   14.9473(14)
_cell_length_c                   15.224(2)
_cell_angle_alpha                90
_cell_angle_beta                 99.744(14)
_cell_angle_gamma                90
_cell_volume                     1629.72
_exptl_crystal_colour            colorless
_exptl_crystal_description       block
_cell_formula_units_Z            4
loop_
_atom_site_label
_atom_site_type_symbol
_atom_site_fract_x
_atom_site_fract_y
_atom_site_fract_z
C1 C 0.8647(7) 0.9208(3) 0.8986(6)
H1 H 0.938296 0.939285 0.855081
H2 H 0.930636 0.934213 0.957252
H3 H 0.747743 0.952245 0.888740
C2 C 0.8287(6) 0.8204(2) 0.8903(4)
C3 C 0.7493(5) 0.7827(2) 0.8131(3)
H4 H 0.714953 0.819204 0.763528
C4 C 0.7166(4) 0.6917(2) 0.8044(2)
H5 H 0.660376 0.667482 0.750204
C5 C 0.7689(4) 0.63782(18) 0.87738(18)
C6 C 0.8518(4) 0.6742(2) 0.9568(2)
H6 H 0.887333 0.638151 1.006523
C7 C 0.8819(5) 0.7664(3) 0.9618(3)
H7 H 0.939905 0.791456 1.015270
O1 O 0.8888(3) 0.48371(14) 0.8352(2)
O2 O 0.5631(3) 0.50852(14) 0.80212(15)
O3 O 0.7020(5) 0.4918(2) 0.95236(18)
S1 S 0.73002(10) 0.52150(4) 0.86686(5)
C8 C 0.2699(4) 0.84975(17) 0.37232(17)
C9 C 0.2220(4) 0.80021(19) 0.29490(18)
C10 C 0.2489(4) 0.7101(2) 0.2944(2)
H8 H 0.214904 0.678509 0.241481
C11 C 0.3269(4) 0.66373(18) 0.3719(2)
C12 C 0.3744(4) 0.71533(18) 0.44900(19)
C13 C 0.3459(4) 0.80756(18) 0.44824(18)
H9 H 0.379624 0.840292 0.500431
N1 N 0.2474(3) 0.94674(15) 0.37237(15)
H10 H 0.328447 0.971759 0.342026
H11 H 0.268432 0.966747 0.428240
H12 H 0.131675 0.960891 0.346895
N2 N 0.3510(4) 0.57478(17) 0.3672(2)
H13 H 0.398979 0.545313 0.414011
H14 H 0.318415 0.547357 0.317320
N3 N 0.4593(4) 0.67726(18) 0.53292(18)
O4 O 0.4828(4) 0.59632(17) 0.53775(18)
O5 O 0.5058(5) 0.72631(18) 0.59587(17)
Cl1 Cl 0.12630(14) 0.85472(6) 0.19807(5)
loop_
_geom_bond_atom_site_label_1
_geom_bond_atom_site_label_2
_geom_bond_site_symmetry_1
_geom_bond_site_symmetry_2
C1 H1 1_555 1_555
H2 C1 1_555 1_555
H3 C1 1_555 1_555
C2 C1 1_555 1_555
C3 C2 1_555 1_555
H4 C3 1_555 1_555
C4 C3 1_555 1_555
H5 C4 1_555 1_555
C5 C4 1_555 1_555
C6 C5 1_555 1_555
H6 C6 1_555 1_555
C7 C2 1_555 1_555
H7 C7 1_555 1_555
O1 S1 1_555 1_555
O2 S1 1_555 1_555
O3 S1 1_555 1_555
S1 C5 1_555 1_555
C8 C9 1_555 1_555
C9 C10 1_555 1_555
C10 H8 1_555 1_555
C11 C10 1_555 1_555
C12 C11 1_555 1_555
C13 C8 1_555 1_555
H9 C13 1_555 1_555
N1 C8 1_555 1_555
H10 N1 1_555 1_555
H11 N1 1_555 1_555
H12 N1 1_555 1_555
N2 C11 1_555 1_555
H13 N2 1_555 1_555
H14 N2 1_555 1_555
N3 C12 1_555 1_555
O4 N3 1_555 1_555
O5 N3 1_555 1_555
Cl1 C9 1_555 1_555
C6 C7 1_555 1_555
C12 C13 1_555 1_555

#END
