
#######################################################################
#
#                 Cambridge Crystallographic Data Centre
#                                CCDC 
#
#######################################################################
#
# If this CIF has been generated from an entry in the Cambridge 
# Structural Database, then it will include bibliographic, chemical, 
# crystal, experimental, refinement or atomic coordinate data resulting 
# from the CCDC's data processing and validation procedures.
#
#######################################################################

data_TEYSUO
_chemical_formula_moiety         'C6 H7 Cl1 N3 O2 1+,C6 H5 O3 S1 1-'
_chemical_name_systematic        
'4-amino-2-chloro-5-nitroanilinium benzenesulfonate'
_symmetry_cell_setting           orthorhombic
_symmetry_space_group_name_H-M   'P c c n'
_symmetry_Int_Tables_number      56
_space_group_name_Hall           '-P 2ab 2ac'
loop_
_symmetry_equiv_pos_site_id
_symmetry_equiv_pos_as_xyz
1 x,y,z
2 1/2-x,1/2-y,z
3 1/2+x,-y,1/2-z
4 -x,1/2+y,1/2-z
5 -x,-y,-z
6 1/2+x,1/2+y,-z
7 1/2-x,y,1/2+z
8 x,1/2-y,1/2+z
_cell_length_a                   21.7735(6)
_cell_length_b                   14.1989(4)
_cell_length_c                   9.4343(3)
_cell_angle_alpha                90
_cell_angle_beta                 90
_cell_angle_gamma                90
_cell_volume                     2916.71
_exptl_crystal_colour            colorless
_exptl_crystal_description       block
_cell_formula_units_Z            8
loop_
_atom_site_label
_atom_site_type_symbol
_atom_site_fract_x
_atom_site_fract_y
_atom_site_fract_z
C1 C 0.67260(9) -0.01554(16) 0.0978(3)
C2 C 0.64191(13) -0.08953(18) 0.0368(3)
H1 H 0.620599 -0.080894 -0.047648
C3 C 0.64272(15) -0.1765(2) 0.1009(4)
H2 H 0.621183 -0.226327 0.060522
C4 C 0.67502(15) -0.1903(2) 0.2236(4)
H3 H 0.675692 -0.249382 0.266057
C5 C 0.70657(13) -0.1163(2) 0.2841(3)
H4 H 0.728942 -0.125840 0.366824
C6 C 0.70510(11) -0.02820(19) 0.2225(3)
H5 H 0.725685 0.022058 0.264186
O1 O 0.73590(9) 0.11510(14) -0.0232(2)
O2 O 0.64946(11) 0.16209(13) 0.1197(2)
O3 O 0.63308(10) 0.08950(15) -0.1068(2)
S1 S 0.67268(3) 0.09647(4) 0.01562(6)
C7 C 0.46818(10) -0.02914(16) 0.7008(3)
C8 C 0.43704(10) 0.02851(16) 0.6026(3)
H6 H 0.442523 0.093420 0.606456
C9 C 0.39907(10) -0.00869(15) 0.5023(3)
C10 C 0.38982(10) -0.10590(15) 0.4905(2)
C11 C 0.42072(10) -0.16400(15) 0.5802(2)
H7 H 0.415890 -0.228872 0.572436
C12 C 0.45956(10) -0.12715(16) 0.6838(3)
N1 N 0.50305(11) 0.0119(2) 0.8010(3)
N2 N 0.34658(11) -0.14374(15) 0.3878(3)
N3 N 0.48821(10) -0.19380(15) 0.7772(2)
O4 O 0.47744(10) -0.27824(13) 0.7602(2)
O5 O 0.52148(11) -0.16628(16) 0.8736(3)
Cl1 Cl 0.36091(3) 0.06577(4) 0.38735(8)
H8 H 0.5196(14) -0.020(2) 0.859(3)
H9 H 0.5062(16) 0.068(3) 0.804(4)
H10 H 0.3485(13) -0.2033(13) 0.389(3)
H11 H 0.3538(15) -0.122(2) 0.293(4)
H12 H 0.3089(15) -0.135(2) 0.418(3)
loop_
_geom_bond_atom_site_label_1
_geom_bond_atom_site_label_2
_geom_bond_site_symmetry_1
_geom_bond_site_symmetry_2
C1 C2 1_555 1_555
C2 H1 1_555 1_555
C3 C2 1_555 1_555
H2 C3 1_555 1_555
C4 C3 1_555 1_555
H3 C4 1_555 1_555
C5 C4 1_555 1_555
H4 C5 1_555 1_555
C6 C1 1_555 1_555
H5 C6 1_555 1_555
O1 S1 1_555 1_555
O2 S1 1_555 1_555
O3 S1 1_555 1_555
S1 C1 1_555 1_555
C7 C8 1_555 1_555
C8 H6 1_555 1_555
C9 C8 1_555 1_555
C10 C9 1_555 1_555
C11 C10 1_555 1_555
H7 C11 1_555 1_555
C12 C7 1_555 1_555
N1 C7 1_555 1_555
N2 C10 1_555 1_555
N3 C12 1_555 1_555
O4 N3 1_555 1_555
O5 N3 1_555 1_555
Cl1 C9 1_555 1_555
H8 N1 1_555 1_555
H9 N1 1_555 1_555
H10 N2 1_555 1_555
H11 N2 1_555 1_555
H12 N2 1_555 1_555
C5 C6 1_555 1_555
C11 C12 1_555 1_555

#END
