
#######################################################################
#
#                 Cambridge Crystallographic Data Centre
#                                CCDC 
#
#######################################################################
#
# If this CIF has been generated from an entry in the Cambridge 
# Structural Database, then it will include bibliographic, chemical, 
# crystal, experimental, refinement or atomic coordinate data resulting 
# from the CCDC's data processing and validation procedures.
#
#######################################################################

data_TEYSOI
_chemical_formula_moiety         'C6 H7 Cl1 N3 O2 1+,C6 H5 O4 S1 1-'
_chemical_name_systematic        
'4-amino-2-chloro-5-nitroanilinium 4-hydroxybenzene-1-sulfonate'
_symmetry_cell_setting           triclinic
_symmetry_space_group_name_H-M   'P -1'
_symmetry_Int_Tables_number      2
_space_group_name_Hall           '-P 1'
loop_
_symmetry_equiv_pos_site_id
_symmetry_equiv_pos_as_xyz
1 x,y,z
2 -x,-y,-z
_cell_length_a                   7.4388(5)
_cell_length_b                   8.5190(4)
_cell_length_c                   12.2969(9)
_cell_angle_alpha                90.408(5)
_cell_angle_beta                 107.029(6)
_cell_angle_gamma                94.769(5)
_cell_volume                     742.118
_exptl_crystal_colour            colorless
_exptl_crystal_description       block
_cell_formula_units_Z            2
loop_
_atom_site_label
_atom_site_type_symbol
_atom_site_fract_x
_atom_site_fract_y
_atom_site_fract_z
C1 C 0.9442(3) 0.8713(3) -0.3464(2)
C2 C 1.0223(4) 0.8584(3) -0.2303(2)
H1 H 1.045488 0.947496 -0.182351
C3 C 1.0653(4) 0.7143(3) -0.1860(2)
H2 H 1.118128 0.706565 -0.107894
C4 C 1.0314(3) 0.5805(3) -0.25553(19)
C5 C 0.9539(4) 0.5933(3) -0.3716(2)
H3 H 0.929745 0.503852 -0.419244
C6 C 0.9121(4) 0.7383(3) -0.4170(2)
H4 H 0.862136 0.746608 -0.495242
O1 O 0.8937(3) 1.0106(2) -0.39558(16)
O2 O 0.9504(3) 0.3542(2) -0.13319(18)
O3 O 1.2753(2) 0.42050(19) -0.11836(13)
O4 O 1.0705(3) 0.28579(19) -0.28812(15)
S1 S 1.08393(8) 0.39564(6) -0.19589(5)
H5 H 0.946(5) 1.098(4) -0.344(3)
C7 C 0.5946(3) 0.6394(2) -0.17616(19)
C8 C 0.5086(3) 0.6258(3) -0.29376(19)
C9 C 0.4415(4) 0.7535(3) -0.3544(2)
H6 H 0.384459 0.740823 -0.432480
C10 C 0.4564(4) 0.9034(3) -0.3021(2)
C11 C 0.5527(3) 0.9138(3) -0.1845(2)
C12 C 0.6180(3) 0.7829(3) -0.12315(19)
H7 H 0.677991 0.793941 -0.045351
N1 N 0.6533(3) 0.5009(2) -0.11106(18)
N2 N 0.3838(4) 1.0240(3) -0.3654(2)
N3 N 0.5846(3) 1.0606(2) -0.12054(19)
O5 O 0.5062(3) 1.1744(2) -0.16655(19)
O6 O 0.6863(4) 1.0688(2) -0.02330(18)
Cl1 Cl 0.48421(11) 0.44485(7) -0.36148(5)
H8 H 0.755(4) 0.455(3) -0.126(2)
H9 H 0.692(3) 0.531(3) -0.037(2)
H10 H 0.554(5) 0.426(4) -0.123(3)
H11 H 0.373(5) 1.109(3) -0.329(3)
H12 H 0.310(4) 0.994(3) -0.427(3)
loop_
_geom_bond_atom_site_label_1
_geom_bond_atom_site_label_2
_geom_bond_site_symmetry_1
_geom_bond_site_symmetry_2
C1 C2 1_555 1_555
C2 H1 1_555 1_555
C3 C2 1_555 1_555
H2 C3 1_555 1_555
C4 C3 1_555 1_555
C5 C4 1_555 1_555
H3 C5 1_555 1_555
C6 C1 1_555 1_555
H4 C6 1_555 1_555
O1 C1 1_555 1_555
O2 S1 1_555 1_555
O3 S1 1_555 1_555
O4 S1 1_555 1_555
S1 C4 1_555 1_555
H5 O1 1_555 1_555
C7 C8 1_555 1_555
C8 C9 1_555 1_555
C9 H6 1_555 1_555
C10 C9 1_555 1_555
C11 C10 1_555 1_555
C12 C7 1_555 1_555
H7 C12 1_555 1_555
N1 C7 1_555 1_555
N2 C10 1_555 1_555
N3 C11 1_555 1_555
O5 N3 1_555 1_555
O6 N3 1_555 1_555
Cl1 C8 1_555 1_555
H8 N1 1_555 1_555
H9 N1 1_555 1_555
H10 N1 1_555 1_555
H11 N2 1_555 1_555
H12 N2 1_555 1_555
C5 C6 1_555 1_555
C11 C12 1_555 1_555

#END
