
#######################################################################
#
#                 Cambridge Crystallographic Data Centre
#                                CCDC 
#
#######################################################################
#
# If this CIF has been generated from an entry in the Cambridge 
# Structural Database, then it will include bibliographic, chemical, 
# crystal, experimental, refinement or atomic coordinate data resulting 
# from the CCDC's data processing and validation procedures.
#
#######################################################################

data_TEYTUP
_chemical_formula_moiety         'C14 H17 N2 O2 1+,C6 H6 N1 O3 S1 1-'
_chemical_name_systematic        
"4'-amino-3,3'-dimethoxy[1,1'-biphenyl]-4-aminium 2-aminobenzene-1-sulfonate"
_symmetry_cell_setting           monoclinic
_symmetry_space_group_name_H-M   'P 21/n'
_symmetry_Int_Tables_number      14
_space_group_name_Hall           '-P 2yn'
loop_
_symmetry_equiv_pos_site_id
_symmetry_equiv_pos_as_xyz
1 x,y,z
2 1/2-x,1/2+y,1/2-z
3 -x,-y,-z
4 1/2+x,1/2-y,1/2+z
_cell_length_a                   14.5751(6)
_cell_length_b                   7.3814(3)
_cell_length_c                   18.0511(8)
_cell_angle_alpha                90
_cell_angle_beta                 92.517(4)
_cell_angle_gamma                90
_cell_volume                     1940.15
_exptl_crystal_colour            colorless
_exptl_crystal_description       block
_cell_formula_units_Z            4
loop_
_atom_site_label
_atom_site_type_symbol
_atom_site_fract_x
_atom_site_fract_y
_atom_site_fract_z
C1 C 0.68974(14) 0.6173(3) 0.41979(11)
C2 C 0.64048(16) 0.5412(3) 0.47605(13)
H1 H 0.639121 0.415984 0.481485
C3 C 0.59368(19) 0.6486(4) 0.52382(15)
H2 H 0.561247 0.596661 0.561639
C4 C 0.59531(18) 0.8335(4) 0.51513(14)
H3 H 0.563484 0.906815 0.547120
C5 C 0.64322(17) 0.9107(3) 0.45997(13)
H4 H 0.643020 1.036087 0.454875
C6 C 0.69260(15) 0.8058(3) 0.41093(12)
N1 N 0.74276(18) 0.8879(4) 0.35859(14)
O1 O 0.70687(13) 0.5260(3) 0.28483(9)
O2 O 0.84197(11) 0.5105(2) 0.36466(10)
O3 O 0.72353(13) 0.2911(2) 0.37740(12)
S1 S 0.74435(4) 0.47421(8) 0.35708(3)
H5 H 0.761(2) 0.824(4) 0.3212(17)
H6 H 0.7344(18) 0.998(4) 0.3522(15)
C7 C 0.93276(16) 0.1629(3) 0.61120(13)
C8 C 0.93022(15) 0.2132(3) 0.68533(13)
C9 C 0.84721(15) 0.2341(3) 0.71900(13)
H7 H 0.846656 0.269577 0.768412
C10 C 0.76469(15) 0.2023(3) 0.67939(13)
C11 C 0.76828(17) 0.1499(3) 0.60608(14)
H8 H 0.713801 0.127172 0.578912
C12 C 0.85141(17) 0.1303(4) 0.57198(14)
H9 H 0.851993 0.095095 0.522538
C13 C 0.67548(15) 0.2297(3) 0.71494(12)
C14 C 0.66749(15) 0.1982(3) 0.79056(13)
H10 H 0.718373 0.158351 0.818895
C15 C 0.58485(15) 0.2254(3) 0.82418(12)
C16 C 0.50979(14) 0.2877(3) 0.78141(12)
C17 C 0.51608(16) 0.3171(3) 0.70652(13)
H11 H 0.465067 0.356524 0.678234
C18 C 0.59861(16) 0.2877(3) 0.67353(13)
H12 H 0.602637 0.307053 0.622868
C19 C 1.02005(19) 0.3152(4) 0.79123(15)
H13 H 1.083315 0.324682 0.807943
H14 H 0.992744 0.433584 0.789852
H15 H 0.987911 0.239447 0.824679
C20 C 0.64407(18) 0.1282(4) 0.94227(14)
H16 H 0.624955 0.113149 0.992120
H17 H 0.663256 0.013391 0.923309
H18 H 0.694345 0.212152 0.941948
N2 N 1.01982(17) 0.1360(4) 0.58089(16)
N3 N 0.42401(13) 0.3216(3) 0.81803(12)
O4 O 1.01443(11) 0.2384(3) 0.71928(9)
O5 O 0.56917(11) 0.1963(2) 0.89681(9)
H19 H 1.017(2) 0.156(5) 0.5321(19)
H20 H 1.060(2) 0.211(4) 0.6020(15)
H21 H 0.434(2) 0.407(3) 0.8554(14)
H22 H 0.4003(18) 0.217(4) 0.8374(15)
H23 H 0.3800(19) 0.367(4) 0.7845(15)
loop_
_geom_bond_atom_site_label_1
_geom_bond_atom_site_label_2
_geom_bond_site_symmetry_1
_geom_bond_site_symmetry_2
C1 C2 1_555 1_555
C2 H1 1_555 1_555
C3 C2 1_555 1_555
H2 C3 1_555 1_555
C4 C3 1_555 1_555
H3 C4 1_555 1_555
C5 C4 1_555 1_555
H4 C5 1_555 1_555
C6 C1 1_555 1_555
N1 C6 1_555 1_555
O1 S1 1_555 1_555
O2 S1 1_555 1_555
O3 S1 1_555 1_555
S1 C1 1_555 1_555
H5 N1 1_555 1_555
H6 N1 1_555 1_555
C7 C8 1_555 1_555
C8 C9 1_555 1_555
C9 H7 1_555 1_555
C10 C9 1_555 1_555
C11 C10 1_555 1_555
H8 C11 1_555 1_555
C12 C7 1_555 1_555
H9 C12 1_555 1_555
C13 C10 1_555 1_555
C14 C13 1_555 1_555
H10 C14 1_555 1_555
C15 C14 1_555 1_555
C16 C15 1_555 1_555
C17 C16 1_555 1_555
H11 C17 1_555 1_555
C18 C13 1_555 1_555
H12 C18 1_555 1_555
C19 H13 1_555 1_555
H14 C19 1_555 1_555
H15 C19 1_555 1_555
C20 H16 1_555 1_555
H17 C20 1_555 1_555
H18 C20 1_555 1_555
N2 C7 1_555 1_555
N3 C16 1_555 1_555
O4 C8 1_555 1_555
O5 C15 1_555 1_555
H19 N2 1_555 1_555
H20 N2 1_555 1_555
H21 N3 1_555 1_555
H22 N3 1_555 1_555
H23 N3 1_555 1_555
C5 C6 1_555 1_555
C11 C12 1_555 1_555
C17 C18 1_555 1_555
C19 O4 1_555 1_555
C20 O5 1_555 1_555

#END
