
#######################################################################
#
#                 Cambridge Crystallographic Data Centre
#                                CCDC 
#
#######################################################################
#
# If this CIF has been generated from an entry in the Cambridge 
# Structural Database, then it will include bibliographic, chemical, 
# crystal, experimental, refinement or atomic coordinate data resulting 
# from the CCDC's data processing and validation procedures.
#
#######################################################################

data_TEYTAV
_chemical_formula_moiety         'C6 H7 Cl1 N3 O2 1+,C6 H4 N1 O5 S1 1-'
_chemical_name_systematic        
'4-amino-2-chloro-5-nitroanilinium 4-nitrobenzene-1-sulfonate'
_symmetry_cell_setting           triclinic
_symmetry_space_group_name_H-M   'P -1'
_symmetry_Int_Tables_number      2
_space_group_name_Hall           '-P 1'
loop_
_symmetry_equiv_pos_site_id
_symmetry_equiv_pos_as_xyz
1 x,y,z
2 -x,-y,-z
_cell_length_a                   7.3874(4)
_cell_length_b                   9.6593(5)
_cell_length_c                   11.6166(7)
_cell_angle_alpha                74.226(5)
_cell_angle_beta                 82.828(4)
_cell_angle_gamma                72.285(4)
_cell_volume                     759.082
_exptl_crystal_colour            colorless
_exptl_crystal_description       block
_cell_formula_units_Z            2
loop_
_atom_site_label
_atom_site_type_symbol
_atom_site_fract_x
_atom_site_fract_y
_atom_site_fract_z
C1 C 0.3901(5) 0.8906(4) 0.6970(3)
C2 C 0.2800(5) 1.0016(5) 0.6106(4)
H1 H 0.230447 1.098809 0.620047
C3 C 0.2445(5) 0.9656(5) 0.5093(4)
H2 H 0.169786 1.038223 0.450261
C4 C 0.3217(5) 0.8204(5) 0.4973(4)
C5 C 0.4401(6) 0.7099(5) 0.5807(4)
H3 H 0.496073 0.614321 0.568955
C6 C 0.4719(5) 0.7464(4) 0.6812(4)
H4 H 0.548819 0.674019 0.739375
N1 N 0.2731(5) 0.7820(5) 0.3939(3)
O1 O 0.1444(4) 0.8733(4) 0.3316(3)
O2 O 0.3593(5) 0.6606(5) 0.3741(3)
O3 O 0.5105(4) 0.7964(3) 0.9126(3)
O4 O 0.5401(4) 1.0357(3) 0.7972(3)
O5 O 0.2291(3) 1.0091(3) 0.8709(2)
S1 S 0.42086(11) 0.93560(10) 0.83031(8)
C7 C 0.9124(5) 0.4176(5) 0.2247(3)
C8 C 0.7818(5) 0.5212(4) 0.1406(4)
C9 C 0.7648(5) 0.4765(4) 0.0379(4)
H5 H 0.680454 0.541298 -0.019537
C10 C 0.8703(5) 0.3390(4) 0.0206(3)
C11 C 0.9994(4) 0.2392(4) 0.1039(3)
C12 C 1.0188(5) 0.2778(5) 0.2050(3)
H6 H 1.103309 0.210974 0.261549
N2 N 0.6781(5) 0.6603(4) 0.1489(4)
H7 H 0.568659 0.683755 0.118077
H8 H 0.659892 0.661494 0.223654
N3 N 1.1068(4) 0.0913(3) 0.0884(3)
H9 H 1.138674 0.097061 0.011178
H10 H 1.035791 0.028329 0.114833
H11 H 1.211672 0.058093 0.129829
N4 N 0.9369(5) 0.4466(5) 0.3382(3)
O6 O 1.0446(6) 0.3495(5) 0.4062(3)
O7 O 0.8473(6) 0.5659(5) 0.3564(4)
Cl1 Cl 0.84434(14) 0.29363(12) -0.11028(9)
loop_
_geom_bond_atom_site_label_1
_geom_bond_atom_site_label_2
_geom_bond_site_symmetry_1
_geom_bond_site_symmetry_2
C1 C2 1_555 1_555
C2 H1 1_555 1_555
C3 C2 1_555 1_555
H2 C3 1_555 1_555
C4 C3 1_555 1_555
C5 C4 1_555 1_555
H3 C5 1_555 1_555
C6 C1 1_555 1_555
H4 C6 1_555 1_555
N1 C4 1_555 1_555
O1 N1 1_555 1_555
O2 N1 1_555 1_555
O3 S1 1_555 1_555
O4 S1 1_555 1_555
O5 S1 1_555 1_555
S1 C1 1_555 1_555
C7 C8 1_555 1_555
C8 C9 1_555 1_555
C9 H5 1_555 1_555
C10 C9 1_555 1_555
C11 C10 1_555 1_555
C12 C7 1_555 1_555
H6 C12 1_555 1_555
N2 C8 1_555 1_555
H7 N2 1_555 1_555
H8 N2 1_555 1_555
N3 C11 1_555 1_555
H9 N3 1_555 1_555
H10 N3 1_555 1_555
H11 N3 1_555 1_555
N4 C7 1_555 1_555
O6 N4 1_555 1_555
O7 N4 1_555 1_555
Cl1 C10 1_555 1_555
C5 C6 1_555 1_555
C11 C12 1_555 1_555

#END
