
#######################################################################
#
#                 Cambridge Crystallographic Data Centre
#                                CCDC 
#
#######################################################################
#
# If this CIF has been generated from an entry in the Cambridge 
# Structural Database, then it will include bibliographic, chemical, 
# crystal, experimental, refinement or atomic coordinate data resulting 
# from the CCDC's data processing and validation procedures.
#
#######################################################################

data_TEYVEB
_chemical_formula_moiety         'C12 H14 N2 O2 2+,2(C6 H4 N1 O5 S1 1-)'
_chemical_name_systematic        
"3,3'-dihydroxy[1,1'-biphenyl]-4,4'-diaminium bis(4-nitrobenzene-1-sulfonate)"
_symmetry_cell_setting           monoclinic
_symmetry_space_group_name_H-M   'P 21/n'
_symmetry_Int_Tables_number      14
_space_group_name_Hall           '-P 2yn'
loop_
_symmetry_equiv_pos_site_id
_symmetry_equiv_pos_as_xyz
1 x,y,z
2 1/2-x,1/2+y,1/2-z
3 -x,-y,-z
4 1/2+x,1/2-y,1/2+z
_cell_length_a                   12.9855(9)
_cell_length_b                   7.3929(5)
_cell_length_c                   13.8095(8)
_cell_angle_alpha                90
_cell_angle_beta                 100.742(6)
_cell_angle_gamma                90
_cell_volume                     1302.49
_exptl_crystal_colour            colorless
_exptl_crystal_description       block
_cell_formula_units_Z            2
loop_
_atom_site_label
_atom_site_type_symbol
_atom_site_fract_x
_atom_site_fract_y
_atom_site_fract_z
C1 C 0.31916(18) 0.3673(3) 0.51710(17)
C2 C 0.2227(2) 0.3947(4) 0.54267(19)
H1 H 0.213128 0.371482 0.606607
C3 C 0.1406(2) 0.4566(4) 0.4728(2)
H2 H 0.074977 0.474855 0.489012
C4 C 0.1562(2) 0.4909(4) 0.3792(2)
C5 C 0.2508(2) 0.4633(5) 0.3526(2)
H3 H 0.259710 0.486397 0.288456
C6 C 0.3329(2) 0.4007(4) 0.42195(19)
H4 H 0.397838 0.380670 0.404768
N1 N 0.0692(2) 0.5669(4) 0.3070(2)
O1 O 0.08508(19) 0.6018(4) 0.22461(19)
O2 O -0.01477(18) 0.5917(4) 0.33207(18)
O3 O 0.39029(14) 0.1742(2) 0.67225(12)
O4 O 0.50534(15) 0.2296(3) 0.55905(13)
O5 O 0.46041(13) 0.4724(2) 0.66195(13)
S1 S 0.42822(4) 0.30653(8) 0.60942(4)
C7 C 0.73528(16) 0.1373(3) 0.44302(16)
C8 C 0.77438(18) 0.0689(3) 0.53516(17)
H5 H 0.731302 0.056809 0.581556
C9 C 0.87917(18) 0.0181(4) 0.55798(17)
H6 H 0.906244 -0.025904 0.620650
C10 C 0.94423(16) 0.0316(3) 0.48916(16)
C11 C 0.90274(18) 0.1069(4) 0.39778(17)
H7 H 0.945401 0.120833 0.351159
C12 C 0.79867(18) 0.1616(4) 0.37510(16)
N2 N 0.62386(15) 0.1804(3) 0.41184(17)
O6 O 0.75472(15) 0.2420(4) 0.28916(13)
H8 H 0.613(2) 0.284(4) 0.381(2)
H9 H 0.593(2) 0.095(4) 0.373(2)
H10 H 0.589(2) 0.187(4) 0.459(2)
H11 H 0.802(2) 0.266(5) 0.248(2)
C7B C 1.26472(16) -0.1373(3) 0.55698(16)
C8B C 1.22562(18) -0.0689(3) 0.46484(17)
H5B H 1.268698 -0.056809 0.418444
C9B C 1.12083(18) -0.0181(4) 0.44202(17)
H6B H 1.093756 0.025904 0.379350
C10B C 1.05577(16) -0.0316(3) 0.51084(16)
C11B C 1.09726(18) -0.1069(4) 0.60222(17)
H7B H 1.054599 -0.120833 0.648841
C12B C 1.20133(18) -0.1616(4) 0.62490(16)
N2B N 1.37614(15) -0.1804(3) 0.58816(17)
O6B O 1.24528(15) -0.2420(4) 0.71084(13)
H8B H 1.387(2) -0.284(4) 0.619(2)
H9B H 1.407(2) -0.095(4) 0.627(2)
H10B H 1.411(2) -0.187(4) 0.541(2)
H11B H 1.198(2) -0.266(5) 0.752(2)
loop_
_geom_bond_atom_site_label_1
_geom_bond_atom_site_label_2
_geom_bond_site_symmetry_1
_geom_bond_site_symmetry_2
C1 C2 1_555 1_555
C2 H1 1_555 1_555
C3 C2 1_555 1_555
H2 C3 1_555 1_555
C4 C3 1_555 1_555
C5 C4 1_555 1_555
H3 C5 1_555 1_555
C6 C1 1_555 1_555
H4 C6 1_555 1_555
N1 C4 1_555 1_555
O1 N1 1_555 1_555
O2 N1 1_555 1_555
O3 S1 1_555 1_555
O4 S1 1_555 1_555
O5 S1 1_555 1_555
S1 C1 1_555 1_555
C7 C8 1_555 1_555
C8 H5 1_555 1_555
C9 C8 1_555 1_555
H6 C9 1_555 1_555
C10 C9 1_555 1_555
C11 C10 1_555 1_555
H7 C11 1_555 1_555
C12 C7 1_555 1_555
N2 C7 1_555 1_555
O6 C12 1_555 1_555
H8 N2 1_555 1_555
H9 N2 1_555 1_555
H10 N2 1_555 1_555
H11 O6 1_555 1_555
C7B C8B 1_555 1_555
C8B H5B 1_555 1_555
C9B C8B 1_555 1_555
H6B C9B 1_555 1_555
C10B C10 1_555 1_555
C11B C10B 1_555 1_555
H7B C11B 1_555 1_555
C12B C7B 1_555 1_555
N2B C7B 1_555 1_555
O6B C12B 1_555 1_555
H8B N2B 1_555 1_555
H9B N2B 1_555 1_555
H10B N2B 1_555 1_555
H11B O6B 1_555 1_555
C5 C6 1_555 1_555
C11 C12 1_555 1_555
C9B C10B 1_555 1_555
C11B C12B 1_555 1_555

#END
