
#######################################################################
#
#                 Cambridge Crystallographic Data Centre
#                                CCDC 
#
#######################################################################
#
# If this CIF has been generated from an entry in the Cambridge 
# Structural Database, then it will include bibliographic, chemical, 
# crystal, experimental, refinement or atomic coordinate data resulting 
# from the CCDC's data processing and validation procedures.
#
#######################################################################

data_TEYVIE
_chemical_formula_moiety         'C48 H76 Mg2 N4 O2'
_chemical_name_systematic        
bis(\m~2~-2,4-Di-t-butyl-6-((3,5-dimethyl-1H-pyrazol-1-yl)methyl)phenol)-di-n-butyl-di-magnesium
_symmetry_cell_setting           monoclinic
_symmetry_space_group_name_H-M   'P 21/c'
_symmetry_Int_Tables_number      14
_space_group_name_Hall           '-P 2ybc'
loop_
_symmetry_equiv_pos_site_id
_symmetry_equiv_pos_as_xyz
1 x,y,z
2 -x,1/2+y,1/2-z
3 -x,-y,-z
4 x,1/2-y,1/2+z
_cell_length_a                   13.5027(3)
_cell_length_b                   19.1081(5)
_cell_length_c                   9.5821(3)
_cell_angle_alpha                90
_cell_angle_beta                 106.152(3)
_cell_angle_gamma                90
_cell_volume                     2374.7
_exptl_crystal_colour            colorless
_exptl_crystal_description       parallelepiped
_cell_formula_units_Z            2
loop_
_atom_site_label
_atom_site_type_symbol
_atom_site_fract_x
_atom_site_fract_y
_atom_site_fract_z
Mg1 Mg 0.06237(5) 0.43476(4) 0.05327(7)
O1 O 0.07683(10) 0.52705(7) -0.04266(15)
N1 N 0.06992(13) 0.65543(9) 0.20180(19)
N2 N -0.01896(13) 0.65271(10) 0.0896(2)
C1 C 0.16832(14) 0.56130(10) -0.0160(2)
C2 C 0.20650(15) 0.59596(10) 0.1178(2)
C3 C 0.30253(15) 0.62801(11) 0.1539(2)
H1 H 0.3266 0.6511 0.2448
C4 C 0.36384(15) 0.62696(12) 0.0600(2)
C5 C 0.32394(15) 0.59453(12) -0.0737(2)
H2 H 0.3648 0.5944 -0.1400
C6 C 0.22747(15) 0.56210(11) -0.1166(2)
C7 C 0.47114(17) 0.66188(14) 0.1015(3)
C8 C 0.4541(3) 0.7414(2) 0.1019(6)
H3 H 0.3840 0.7511 0.1076
H4 H 0.4632 0.7618 0.0124
H5 H 0.5040 0.7622 0.1861
C9 C 0.5311(3) 0.6403(3) 0.2557(5)
H6 H 0.5072 0.6679 0.3262
H7 H 0.6048 0.6486 0.2699
H8 H 0.5195 0.5904 0.2698
C10 C 0.5354(3) 0.6422(3) 0.0004(6)
H9 H 0.5231 0.6760 -0.0796
H10 H 0.5161 0.5952 -0.0389
H11 H 0.6087 0.6427 0.0544
C11 C 0.18749(16) 0.52970(12) -0.2697(2)
C12 C 0.26516(18) 0.53883(14) -0.3587(3)
H12 H 0.2372 0.5179 -0.4550
H13 H 0.3301 0.5157 -0.3087
H14 H 0.2778 0.5888 -0.3693
C13 C 0.08837(17) 0.56731(14) -0.3531(2)
H15 H 0.0629 0.5469 -0.4504
H16 H 0.1028 0.6171 -0.3616
H17 H 0.0360 0.5619 -0.3008
C14 C 0.1678(2) 0.45116(14) -0.2616(3)
H18 H 0.1425 0.4322 -0.3602
H19 H 0.1161 0.4434 -0.2089
H20 H 0.2321 0.4276 -0.2107
C15 C 0.14372(16) 0.59790(11) 0.2261(2)
H21 H 0.1060 0.5531 0.2208
H22 H 0.1912 0.6021 0.3252
C16 C 0.07711(18) 0.71699(12) 0.2739(3)
C17 C -0.00941(18) 0.75463(13) 0.2074(3)
H23 H -0.0266 0.8000 0.2336
C18 C -0.06736(17) 0.71360(12) 0.0939(3)
C19 C 0.1657(2) 0.73524(14) 0.4012(3)
H24 H 0.2153 0.6966 0.4213
H25 H 0.1405 0.7434 0.4864
H26 H 0.1993 0.7777 0.3796
C20 C -0.16878(19) 0.73045(14) -0.0116(3)
H27 H -0.1904 0.6914 -0.0795
H28 H -0.1620 0.7729 -0.0656
H29 H -0.2205 0.7381 0.0412
C21 C 0.17853(16) 0.41205(12) 0.2501(2)
H30 H 0.1640 0.4404 0.3287
H31 H 0.1716 0.3623 0.2744
C22 C 0.29126(17) 0.42486(14) 0.2521(3)
H32 H 0.3053 0.3978 0.1715
H33 H 0.2991 0.4750 0.2317
C23 C 0.3709(2) 0.40651(17) 0.3877(3)
H34 H 0.3650 0.3560 0.4074
H35 H 0.3570 0.4329 0.4691
C24 C 0.4817(2) 0.42187(19) 0.3840(4)
H36 H 0.5298 0.4086 0.4772
H37 H 0.4889 0.4719 0.3669
H38 H 0.4971 0.3949 0.3056
Mg1B Mg -0.06237(5) 0.56524(4) -0.05327(7)
O1B O -0.07683(10) 0.47295(7) 0.04266(15)
N1B N -0.06992(13) 0.34457(9) -0.20180(19)
N2B N 0.01896(13) 0.34729(10) -0.0896(2)
C1B C -0.16832(14) 0.43870(10) 0.0160(2)
C2B C -0.20650(15) 0.40404(10) -0.1178(2)
C3B C -0.30253(15) 0.37199(11) -0.1539(2)
H1B H -0.3266 0.3489 -0.2448
C4B C -0.36384(15) 0.37304(12) -0.0600(2)
C5B C -0.32394(15) 0.40547(12) 0.0737(2)
H2B H -0.3648 0.4056 0.1400
C6B C -0.22747(15) 0.43790(11) 0.1166(2)
C7B C -0.47114(17) 0.33812(14) -0.1015(3)
C8B C -0.4541(3) 0.2586(2) -0.1019(6)
H3B H -0.3840 0.2489 -0.1076
H4B H -0.4632 0.2382 -0.0124
H5B H -0.5040 0.2378 -0.1861
C9B C -0.5311(3) 0.3597(3) -0.2557(5)
H6B H -0.5072 0.3321 -0.3262
H7B H -0.6048 0.3514 -0.2699
H8B H -0.5195 0.4096 -0.2698
C10B C -0.5354(3) 0.3578(3) -0.0004(6)
H9B H -0.5231 0.3240 0.0796
H10B H -0.5161 0.4048 0.0389
H11B H -0.6087 0.3573 -0.0544
C11B C -0.18749(16) 0.47030(12) 0.2697(2)
C12B C -0.26516(18) 0.46117(14) 0.3587(3)
H12B H -0.2372 0.4821 0.4550
H13B H -0.3301 0.4843 0.3087
H14B H -0.2778 0.4112 0.3693
C13B C -0.08837(17) 0.43269(14) 0.3531(2)
H15B H -0.0629 0.4531 0.4504
H16B H -0.1028 0.3829 0.3616
H17B H -0.0360 0.4381 0.3008
C14B C -0.1678(2) 0.54884(14) 0.2616(3)
H18B H -0.1425 0.5678 0.3602
H19B H -0.1161 0.5566 0.2089
H20B H -0.2321 0.5724 0.2107
C15B C -0.14372(16) 0.40210(11) -0.2261(2)
H21B H -0.1060 0.4469 -0.2208
H22B H -0.1912 0.3979 -0.3252
C16B C -0.07711(18) 0.28301(12) -0.2739(3)
C17B C 0.00941(18) 0.24537(13) -0.2074(3)
H23B H 0.0266 0.2000 -0.2336
C18B C 0.06736(17) 0.28640(12) -0.0939(3)
C19B C -0.1657(2) 0.26476(14) -0.4012(3)
H24B H -0.2153 0.3034 -0.4213
H25B H -0.1405 0.2566 -0.4864
H26B H -0.1993 0.2223 -0.3796
C20B C 0.16878(19) 0.26955(14) 0.0116(3)
H27B H 0.1904 0.3086 0.0795
H28B H 0.1620 0.2271 0.0656
H29B H 0.2205 0.2619 -0.0412
C21B C -0.17853(16) 0.58795(12) -0.2501(2)
H30B H -0.1640 0.5596 -0.3287
H31B H -0.1716 0.6377 -0.2744
C22B C -0.29126(17) 0.57514(14) -0.2521(3)
H32B H -0.3053 0.6022 -0.1715
H33B H -0.2991 0.5250 -0.2317
C23B C -0.3709(2) 0.59349(17) -0.3877(3)
H34B H -0.3650 0.6440 -0.4074
H35B H -0.3570 0.5671 -0.4691
C24B C -0.4817(2) 0.57813(19) -0.3840(4)
H36B H -0.5298 0.5914 -0.4772
H37B H -0.4889 0.5281 -0.3669
H38B H -0.4971 0.6051 -0.3056
C25? C 0.4801(6) 0.7112(5) -0.0230(9)
H39? H 0.4334 0.7511 -0.0293
H40? H 0.4615 0.6856 -0.1152
H41? H 0.5512 0.7282 -0.0031
C26? C 0.4975(4) 0.7007(4) 0.2380(7)
H42? H 0.4458 0.7373 0.2339
H43? H 0.5655 0.7223 0.2534
H44? H 0.4988 0.6687 0.3184
C27? C 0.5495(5) 0.6026(5) 0.1058(9)
H45? H 0.5468 0.5690 0.1820
H46? H 0.6191 0.6224 0.1266
H47? H 0.5325 0.5787 0.0116
loop_
_geom_bond_atom_site_label_1
_geom_bond_atom_site_label_2
_geom_bond_site_symmetry_1
_geom_bond_site_symmetry_2
Mg1 O1 1_555 1_555
O1 C1 1_555 1_555
N1 N2 1_555 1_555
N2 C18 1_555 1_555
C1 C2 1_555 1_555
C2 C3 1_555 1_555
C3 H1 1_555 1_555
C4 C3 1_555 1_555
C5 C4 1_555 1_555
H2 C5 1_555 1_555
C6 C1 1_555 1_555
C7 C4 1_555 1_555
C8 C7 1_555 1_555
H3 C8 1_555 1_555
H4 C8 1_555 1_555
H5 C8 1_555 1_555
C9 C7 1_555 1_555
H6 C9 1_555 1_555
H7 C9 1_555 1_555
H8 C9 1_555 1_555
C10 C7 1_555 1_555
H9 C10 1_555 1_555
H10 C10 1_555 1_555
H11 C10 1_555 1_555
C11 C6 1_555 1_555
C12 C11 1_555 1_555
H12 C12 1_555 1_555
H13 C12 1_555 1_555
H14 C12 1_555 1_555
C13 C11 1_555 1_555
H15 C13 1_555 1_555
H16 C13 1_555 1_555
H17 C13 1_555 1_555
C14 C11 1_555 1_555
H18 C14 1_555 1_555
H19 C14 1_555 1_555
H20 C14 1_555 1_555
C15 N1 1_555 1_555
H21 C15 1_555 1_555
H22 C15 1_555 1_555
C16 N1 1_555 1_555
C17 C16 1_555 1_555
H23 C17 1_555 1_555
C18 C17 1_555 1_555
C19 C16 1_555 1_555
H24 C19 1_555 1_555
H25 C19 1_555 1_555
H26 C19 1_555 1_555
C20 C18 1_555 1_555
H27 C20 1_555 1_555
H28 C20 1_555 1_555
H29 C20 1_555 1_555
C21 Mg1 1_555 1_555
H30 C21 1_555 1_555
H31 C21 1_555 1_555
C22 C21 1_555 1_555
H32 C22 1_555 1_555
H33 C22 1_555 1_555
C23 C22 1_555 1_555
H34 C23 1_555 1_555
H35 C23 1_555 1_555
C24 C23 1_555 1_555
H36 C24 1_555 1_555
H37 C24 1_555 1_555
H38 C24 1_555 1_555
Mg1B O1 1_555 1_555
O1B Mg1 1_555 1_555
N1B N2B 1_555 1_555
N2B Mg1 1_555 1_555
C1B O1B 1_555 1_555
C2B C1B 1_555 1_555
C3B C2B 1_555 1_555
H1B C3B 1_555 1_555
C4B C3B 1_555 1_555
C5B C4B 1_555 1_555
H2B C5B 1_555 1_555
C6B C1B 1_555 1_555
C7B C4B 1_555 1_555
C8B C7B 1_555 1_555
H3B C8B 1_555 1_555
H4B C8B 1_555 1_555
H5B C8B 1_555 1_555
C9B C7B 1_555 1_555
H6B C9B 1_555 1_555
H7B C9B 1_555 1_555
H8B C9B 1_555 1_555
C10B C7B 1_555 1_555
H9B C10B 1_555 1_555
H10B C10B 1_555 1_555
H11B C10B 1_555 1_555
C11B C6B 1_555 1_555
C12B C11B 1_555 1_555
H12B C12B 1_555 1_555
H13B C12B 1_555 1_555
H14B C12B 1_555 1_555
C13B C11B 1_555 1_555
H15B C13B 1_555 1_555
H16B C13B 1_555 1_555
H17B C13B 1_555 1_555
C14B C11B 1_555 1_555
H18B C14B 1_555 1_555
H19B C14B 1_555 1_555
H20B C14B 1_555 1_555
C15B N1B 1_555 1_555
H21B C15B 1_555 1_555
H22B C15B 1_555 1_555
C16B N1B 1_555 1_555
C17B C16B 1_555 1_555
H23B C17B 1_555 1_555
C18B N2B 1_555 1_555
C19B C16B 1_555 1_555
H24B C19B 1_555 1_555
H25B C19B 1_555 1_555
H26B C19B 1_555 1_555
C20B C18B 1_555 1_555
H27B C20B 1_555 1_555
H28B C20B 1_555 1_555
H29B C20B 1_555 1_555
C21B Mg1B 1_555 1_555
H30B C21B 1_555 1_555
H31B C21B 1_555 1_555
C22B C21B 1_555 1_555
H32B C22B 1_555 1_555
H33B C22B 1_555 1_555
C23B C22B 1_555 1_555
H34B C23B 1_555 1_555
H35B C23B 1_555 1_555
C24B C23B 1_555 1_555
H36B C24B 1_555 1_555
H37B C24B 1_555 1_555
H38B C24B 1_555 1_555
N2 Mg1B 1_555 1_555
C2 C15 1_555 1_555
C5 C6 1_555 1_555
Mg1B O1B 1_555 1_555
C2B C15B 1_555 1_555
C5B C6B 1_555 1_555
C17B C18B 1_555 1_555

#END
