
#######################################################################
#
#                 Cambridge Crystallographic Data Centre
#                                CCDC 
#
#######################################################################
#
# If this CIF has been generated from an entry in the Cambridge 
# Structural Database, then it will include bibliographic, chemical, 
# crystal, experimental, refinement or atomic coordinate data resulting 
# from the CCDC's data processing and validation procedures.
#
#######################################################################

data_TEYVUQ
_chemical_formula_moiety         'C28 H32 N2 O2'
_chemical_name_systematic        
N-Cyclohexyl-N-(cyclohexylcarbamoyl)anthracene-2-carboxamide
_symmetry_cell_setting           monoclinic
_symmetry_space_group_name_H-M   'P 21/n'
_symmetry_Int_Tables_number      14
_space_group_name_Hall           '-P 2yn'
loop_
_symmetry_equiv_pos_site_id
_symmetry_equiv_pos_as_xyz
1 x,y,z
2 1/2-x,1/2+y,1/2-z
3 -x,-y,-z
4 1/2+x,1/2-y,1/2+z
_cell_length_a                   10.6241(8)
_cell_length_b                   9.6218(7)
_cell_length_c                   22.9510(16)
_cell_angle_alpha                90
_cell_angle_beta                 93.646(2)
_cell_angle_gamma                90
_cell_volume                     2341.37
_exptl_crystal_colour            'pale yellow'
_exptl_crystal_description       rod
_cell_formula_units_Z            4
loop_
_atom_site_label
_atom_site_type_symbol
_atom_site_fract_x
_atom_site_fract_y
_atom_site_fract_z
O1 O 0.7451(3) 0.4917(3) 0.23070(12)
O2 O 0.4501(3) 0.1593(3) 0.24495(12)
N1 N 0.6185(3) 0.2939(4) 0.22447(14)
N2 N 0.8125(3) 0.2922(3) 0.27549(14)
H1 H 0.7949 0.2036 0.2801
C1 C 0.5596(4) 0.2731(5) 0.32510(17)
C2 C 0.5995(4) 0.2064(5) 0.42667(18)
C3 C 0.5379(5) 0.2349(5) 0.26202(19)
C4 C 0.6456(4) 0.1390(5) 0.52828(18)
C5 C 0.5930(4) 0.2775(4) 0.16091(16)
H2 H 0.5353 0.1960 0.1548
C6 C 0.6535(4) 0.2823(5) 0.54488(18)
C7 C 0.5795(4) 0.4514(4) 0.39926(18)
H3 H 0.5773 0.5468 0.4098
C8 C 0.5763(4) 0.1733(5) 0.36632(18)
H4 H 0.5725 0.0784 0.3548
C9 C 0.7299(4) 0.3697(5) 0.24410(17)
C10 C 0.5589(4) 0.4159(5) 0.34250(18)
H5 H 0.5438 0.4863 0.3139
C11 C 0.6851(4) 0.3169(5) 0.60427(19)
H6 H 0.6935 0.4118 0.6153
C12 C 0.6199(4) 0.1041(5) 0.47009(18)
H7 H 0.6160 0.0088 0.4593
C13 C 0.6323(4) 0.3835(5) 0.50229(18)
H8 H 0.6369 0.4786 0.5134
C14 C 0.6043(4) 0.3501(5) 0.44367(18)
C15 C 0.5270(4) 0.4007(5) 0.13289(16)
H9 H 0.5825 0.4832 0.1370
H10 H 0.4492 0.4206 0.1530
C16 C 0.7034(4) 0.2160(6) 0.64543(19)
H11 H 0.7250 0.2408 0.6849
C17 C 0.6635(4) 0.0362(5) 0.5729(2)
H12 H 0.6567 -0.0594 0.5629
C18 C 0.4930(4) 0.3728(5) 0.06808(17)
H13 H 0.4341 0.2932 0.0640
H14 H 0.4505 0.4553 0.0501
C19 C 1.0415(4) 0.2636(5) 0.28187(18)
H15 H 1.0434 0.2737 0.2390
H16 H 1.0299 0.1638 0.2907
C20 C 0.6113(4) 0.3409(5) 0.03693(18)
H17 H 0.5879 0.3181 -0.0044
H18 H 0.6661 0.4242 0.0377
C21 C 0.6903(4) 0.0730(6) 0.6297(2)
H19 H 0.7002 0.0032 0.6590
C22 C 0.9315(4) 0.3457(4) 0.30299(17)
H20 H 0.9411 0.4445 0.2905
C23 C 0.7130(4) 0.2441(5) 0.13104(17)
H21 H 0.7525 0.1596 0.1487
H22 H 0.7735 0.3219 0.1368
C24 C 0.9301(4) 0.3430(5) 0.36899(17)
H23 H 0.9130 0.2472 0.3821
H24 H 0.8614 0.4037 0.3814
C25 C 1.0559(4) 0.3927(5) 0.39761(19)
H25 H 1.0688 0.4916 0.3877
H26 H 1.0539 0.3854 0.4406
C26 C 1.1672(4) 0.3136(5) 0.31115(19)
H27 H 1.2366 0.2548 0.2982
H28 H 1.1832 0.4105 0.2991
C27 C 0.6834(5) 0.2202(5) 0.06531(17)
H29 H 0.7634 0.2073 0.0460
H30 H 0.6331 0.1342 0.0596
C28 C 1.1650(4) 0.3067(5) 0.37720(19)
H31 H 1.2455 0.3426 0.3953
H32 H 1.1555 0.2089 0.3896
loop_
_geom_bond_atom_site_label_1
_geom_bond_atom_site_label_2
_geom_bond_site_symmetry_1
_geom_bond_site_symmetry_2
O1 C9 1_555 1_555
O2 C3 1_555 1_555
N1 C3 1_555 1_555
N2 H1 1_555 1_555
C1 C3 1_555 1_555
C2 C8 1_555 1_555
C4 C6 1_555 1_555
C5 N1 1_555 1_555
H2 C5 1_555 1_555
C6 C11 1_555 1_555
C7 H3 1_555 1_555
C8 C1 1_555 1_555
H4 C8 1_555 1_555
C9 N1 1_555 1_555
C10 C1 1_555 1_555
H5 C10 1_555 1_555
C11 H6 1_555 1_555
C12 C2 1_555 1_555
H7 C12 1_555 1_555
C13 C6 1_555 1_555
H8 C13 1_555 1_555
C14 C2 1_555 1_555
C15 C5 1_555 1_555
H9 C15 1_555 1_555
H10 C15 1_555 1_555
C16 C11 1_555 1_555
H11 C16 1_555 1_555
C17 C4 1_555 1_555
H12 C17 1_555 1_555
C18 C15 1_555 1_555
H13 C18 1_555 1_555
H14 C18 1_555 1_555
C19 H15 1_555 1_555
H16 C19 1_555 1_555
C20 C18 1_555 1_555
H17 C20 1_555 1_555
H18 C20 1_555 1_555
C21 C16 1_555 1_555
H19 C21 1_555 1_555
C22 N2 1_555 1_555
H20 C22 1_555 1_555
C23 C5 1_555 1_555
H21 C23 1_555 1_555
H22 C23 1_555 1_555
C24 C22 1_555 1_555
H23 C24 1_555 1_555
H24 C24 1_555 1_555
C25 C24 1_555 1_555
H25 C25 1_555 1_555
H26 C25 1_555 1_555
C26 C19 1_555 1_555
H27 C26 1_555 1_555
H28 C26 1_555 1_555
C27 C20 1_555 1_555
H29 C27 1_555 1_555
H30 C27 1_555 1_555
C28 C25 1_555 1_555
H31 C28 1_555 1_555
H32 C28 1_555 1_555
N2 C9 1_555 1_555
C4 C12 1_555 1_555
C7 C10 1_555 1_555
C7 C14 1_555 1_555
C13 C14 1_555 1_555
C17 C21 1_555 1_555
C19 C22 1_555 1_555
C23 C27 1_555 1_555
C26 C28 1_555 1_555

#END
