
#######################################################################
#
#                 Cambridge Crystallographic Data Centre
#                                CCDC 
#
#######################################################################
#
# If this CIF has been generated from an entry in the Cambridge 
# Structural Database, then it will include bibliographic, chemical, 
# crystal, experimental, refinement or atomic coordinate data resulting 
# from the CCDC's data processing and validation procedures.
#
#######################################################################

data_TEYWAY
_chemical_formula_moiety         'C8 H14 N2 2+,2(C6 H5 O3 S1 1-)'
_chemical_name_systematic        
'2,5-dimethylbenzene-1,4-diaminium bis(benzenesulfonate)'
_symmetry_cell_setting           monoclinic
_symmetry_space_group_name_H-M   'P 21/n'
_symmetry_Int_Tables_number      14
_space_group_name_Hall           '-P 2yn'
loop_
_symmetry_equiv_pos_site_id
_symmetry_equiv_pos_as_xyz
1 x,y,z
2 1/2-x,1/2+y,1/2-z
3 -x,-y,-z
4 1/2+x,1/2-y,1/2+z
_cell_length_a                   8.8901(2)
_cell_length_b                   7.0512(2)
_cell_length_c                   16.8721(5)
_cell_angle_alpha                90
_cell_angle_beta                 95.229(3)
_cell_angle_gamma                90
_cell_volume                     1053.24
_exptl_crystal_colour            colorless
_exptl_crystal_description       block
_cell_formula_units_Z            2
loop_
_atom_site_label
_atom_site_type_symbol
_atom_site_fract_x
_atom_site_fract_y
_atom_site_fract_z
C1 C 0.6383(3) 0.9744(3) 0.15674(15)
C2 C 0.7285(3) 0.9075(4) 0.22156(16)
H1 H 0.685725 0.858333 0.265470
C3 C 0.8841(4) 0.9150(5) 0.2201(2)
H2 H 0.946463 0.870597 0.263337
C4 C 0.9464(4) 0.9878(5) 0.1550(3)
H3 H 1.050873 0.994777 0.154937
C5 C 0.8560(4) 1.0501(4) 0.0904(2)
H4 H 0.899102 1.096270 0.046018
C6 C 0.7012(4) 1.0447(4) 0.09082(18)
H5 H 0.639436 1.087950 0.047081
O1 O 0.4044(3) 0.9343(4) 0.23551(12)
O2 O 0.3914(2) 0.8067(3) 0.10409(12)
O3 O 0.3839(2) 1.1400(3) 0.12090(15)
S1 S 0.43915(7) 0.96392(9) 0.15516(4)
C7 C 0.1128(3) 0.4900(3) 0.05967(13)
C8 C 0.1510(2) 0.4698(3) -0.01742(14)
C9 C 0.0331(3) 0.4800(3) -0.07753(14)
C10 C 0.3106(3) 0.4449(4) -0.03738(19)
N1 N 0.2323(2) 0.4814(3) 0.12587(12)
H6 H 0.287469 0.377337 0.121236
H7 H 0.190502 0.478235 0.171835
H8 H 0.291060 0.583261 0.124612
H9 H 0.051(3) 0.463(3) -0.1282(16)
H10 H 0.375(4) 0.546(5) -0.022(2)
H11 H 0.355(4) 0.347(5) -0.0136(19)
H12 H 0.317(4) 0.441(5) -0.092(2)
C7B C -0.1128(3) 0.5100(3) -0.05967(13)
C8B C -0.1510(2) 0.5302(3) 0.01742(14)
C9B C -0.0331(3) 0.5200(3) 0.07753(14)
C10B C -0.3106(3) 0.5551(4) 0.03738(19)
N1B N -0.2323(2) 0.5186(3) -0.12587(12)
H6B H -0.287469 0.622663 -0.121236
H7B H -0.190502 0.521765 -0.171835
H8B H -0.291060 0.416739 -0.124612
H9B H -0.051(3) 0.537(3) 0.1282(16)
H10B H -0.375(4) 0.454(5) 0.022(2)
H11B H -0.355(4) 0.653(5) 0.0136(19)
H12B H -0.317(4) 0.559(5) 0.092(2)
loop_
_geom_bond_atom_site_label_1
_geom_bond_atom_site_label_2
_geom_bond_site_symmetry_1
_geom_bond_site_symmetry_2
C1 C2 1_555 1_555
C2 H1 1_555 1_555
C3 C2 1_555 1_555
H2 C3 1_555 1_555
C4 C3 1_555 1_555
H3 C4 1_555 1_555
C5 C4 1_555 1_555
H4 C5 1_555 1_555
C6 C1 1_555 1_555
H5 C6 1_555 1_555
O1 S1 1_555 1_555
O2 S1 1_555 1_555
O3 S1 1_555 1_555
S1 C1 1_555 1_555
C7 C8 1_555 1_555
C8 C9 1_555 1_555
C9 H9 1_555 1_555
C10 C8 1_555 1_555
N1 C7 1_555 1_555
H6 N1 1_555 1_555
H7 N1 1_555 1_555
H8 N1 1_555 1_555
H10 C10 1_555 1_555
H11 C10 1_555 1_555
H12 C10 1_555 1_555
C7B C9 1_555 1_555
C8B C7B 1_555 1_555
C9B C7 1_555 1_555
C10B C8B 1_555 1_555
N1B C7B 1_555 1_555
H6B N1B 1_555 1_555
H7B N1B 1_555 1_555
H8B N1B 1_555 1_555
H9B C9B 1_555 1_555
H10B C10B 1_555 1_555
H11B C10B 1_555 1_555
H12B C10B 1_555 1_555
C5 C6 1_555 1_555
C8B C9B 1_555 1_555

#END
