
#######################################################################
#
#                 Cambridge Crystallographic Data Centre
#                                CCDC 
#
#######################################################################
#
# If this CIF has been generated from an entry in the Cambridge 
# Structural Database, then it will include bibliographic, chemical, 
# crystal, experimental, refinement or atomic coordinate data resulting 
# from the CCDC's data processing and validation procedures.
#
#######################################################################

data_TEYXUT
_chemical_formula_moiety         
'C6 H8 N3 O2 1+,C6 H7 N1 O3 S1,C6 H6 N1 O3 S1 1-'
_chemical_name_systematic        
'4-amino-3-nitroanilinium 2-aminobenzene-1-sulfonate 2-ammoniumbenzene-1-sulfonate'
_symmetry_cell_setting           orthorhombic
_symmetry_space_group_name_H-M   'P b c a'
_symmetry_Int_Tables_number      61
_space_group_name_Hall           '-P 2ac 2ab'
loop_
_symmetry_equiv_pos_site_id
_symmetry_equiv_pos_as_xyz
1 x,y,z
2 1/2-x,-y,1/2+z
3 1/2+x,1/2-y,-z
4 -x,1/2+y,1/2-z
5 -x,-y,-z
6 1/2+x,y,1/2-z
7 1/2-x,1/2+y,z
8 x,1/2-y,1/2+z
_cell_length_a                   10.4132(3)
_cell_length_b                   13.5716(3)
_cell_length_c                   29.5470(8)
_cell_angle_alpha                90
_cell_angle_beta                 90
_cell_angle_gamma                90
_cell_volume                     4175.69
_exptl_crystal_colour            colorless
_exptl_crystal_description       block
_cell_formula_units_Z            8
loop_
_atom_site_label
_atom_site_type_symbol
_atom_site_fract_x
_atom_site_fract_y
_atom_site_fract_z
C1 C 0.12664(17) 0.43471(13) 0.33729(6)
C2 C 0.2222(2) 0.44443(14) 0.36938(7)
H1 H 0.307662 0.447668 0.360383
C3 C 0.1914(2) 0.44936(16) 0.41476(7)
H2 H 0.255926 0.457105 0.436229
C4 C 0.0652(2) 0.44281(17) 0.42823(7)
H3 H 0.044930 0.444469 0.458877
C5 C -0.0317(2) 0.43376(15) 0.39646(7)
H4 H -0.116994 0.429572 0.405619
C6 C -0.00074(17) 0.43100(13) 0.35112(6)
N1 N -0.10400(17) 0.42608(14) 0.31813(6)
O1 O 0.30242(13) 0.40801(12) 0.27660(5)
O2 O 0.13537(16) 0.52680(10) 0.26217(5)
O3 O 0.08689(14) 0.35458(11) 0.25932(5)
S1 S 0.16740(4) 0.43041(3) 0.27877(2)
H5 H -0.130(2) 0.484(2) 0.3124(8)
H6 H -0.080(3) 0.400(2) 0.2940(10)
H7 H -0.171(2) 0.3957(19) 0.3290(8)
C7 C 0.36773(18) 0.47263(14) 0.62432(7)
C8 C 0.3917(2) 0.52743(17) 0.58488(8)
H8 H 0.432681 0.588118 0.587151
C9 C 0.3559(3) 0.4932(2) 0.54315(8)
H9 H 0.372435 0.531174 0.517607
C10 C 0.2960(3) 0.4035(2) 0.53845(8)
H10 H 0.272594 0.380713 0.509924
C11 C 0.2708(2) 0.34748(17) 0.57641(7)
H11 H 0.230696 0.286602 0.573446
C12 C 0.30510(17) 0.38155(14) 0.61888(6)
N2 N 0.4029(2) 0.50833(16) 0.66544(7)
O4 O 0.21040(13) 0.21828(10) 0.64992(5)
O5 O 0.15998(12) 0.36863(10) 0.68933(5)
O6 O 0.37305(12) 0.29892(10) 0.69450(4)
S2 S 0.26006(4) 0.31119(3) 0.66682(2)
H12 H 0.400(3) 0.4701(18) 0.6905(7)
H13 H 0.430(3) 0.564(2) 0.6681(9)
C13 C 0.3059(2) 0.68987(14) 0.41191(7)
C14 C 0.3595(2) 0.68359(16) 0.36859(8)
H14 H 0.447723 0.674464 0.365901
C15 C 0.2877(2) 0.69031(15) 0.33023(7)
H15 H 0.326485 0.684671 0.301998
C16 C 0.15558(17) 0.70569(13) 0.33344(6)
C17 C 0.09810(18) 0.71312(14) 0.37460(6)
H16 H 0.010090 0.723858 0.376677
C18 C 0.17250(18) 0.70447(14) 0.41377(6)
N3 N 0.3845(2) 0.68184(18) 0.44844(9)
N4 N 0.08111(18) 0.71681(14) 0.29204(6)
N5 N 0.10609(18) 0.71159(14) 0.45617(6)
O7 O -0.00308(17) 0.74526(17) 0.45671(6)
O8 O 0.16059(19) 0.68554(16) 0.49101(6)
H17 H 0.471(3) 0.689(2) 0.4432(10)
H18 H 0.351(3) 0.690(2) 0.4745(11)
H19 H 0.107(3) 0.671(2) 0.2703(9)
H20 H -0.002(3) 0.7058(18) 0.2962(8)
H21 H 0.084(2) 0.779(2) 0.2822(9)
loop_
_geom_bond_atom_site_label_1
_geom_bond_atom_site_label_2
_geom_bond_site_symmetry_1
_geom_bond_site_symmetry_2
C1 C2 1_555 1_555
C2 H1 1_555 1_555
C3 C2 1_555 1_555
H2 C3 1_555 1_555
C4 C3 1_555 1_555
H3 C4 1_555 1_555
C5 C4 1_555 1_555
H4 C5 1_555 1_555
C6 C1 1_555 1_555
N1 C6 1_555 1_555
O1 S1 1_555 1_555
O2 S1 1_555 1_555
O3 S1 1_555 1_555
S1 C1 1_555 1_555
H5 N1 1_555 1_555
H6 N1 1_555 1_555
H7 N1 1_555 1_555
C7 C8 1_555 1_555
C8 H8 1_555 1_555
C9 C8 1_555 1_555
H9 C9 1_555 1_555
C10 C9 1_555 1_555
H10 C10 1_555 1_555
C11 C10 1_555 1_555
H11 C11 1_555 1_555
C12 C7 1_555 1_555
N2 C7 1_555 1_555
O4 S2 1_555 1_555
O5 S2 1_555 1_555
O6 S2 1_555 1_555
S2 C12 1_555 1_555
H12 N2 1_555 1_555
H13 N2 1_555 1_555
C13 C14 1_555 1_555
C14 H14 1_555 1_555
C15 C14 1_555 1_555
H15 C15 1_555 1_555
C16 C15 1_555 1_555
C17 C16 1_555 1_555
H16 C17 1_555 1_555
C18 C13 1_555 1_555
N3 C13 1_555 1_555
N4 C16 1_555 1_555
N5 C18 1_555 1_555
O7 N5 1_555 1_555
O8 N5 1_555 1_555
H17 N3 1_555 1_555
H18 N3 1_555 1_555
H19 N4 1_555 1_555
H20 N4 1_555 1_555
H21 N4 1_555 1_555
C5 C6 1_555 1_555
C11 C12 1_555 1_555
C17 C18 1_555 1_555

#END
