
#######################################################################
#
#                 Cambridge Crystallographic Data Centre
#                                CCDC 
#
#######################################################################
#
# If this CIF has been generated from an entry in the Cambridge 
# Structural Database, then it will include bibliographic, chemical, 
# crystal, experimental, refinement or atomic coordinate data resulting 
# from the CCDC's data processing and validation procedures.
#
#######################################################################

data_TEYXIH
_chemical_formula_moiety         'C4 H9 N5 2+,2(C6 H5 O3 S1 1-),2(H2 O1)'
_chemical_name_systematic        
'2,4,6-triaminopyrimidinediium bis(benzenesulfonate) dihydrate'
_symmetry_cell_setting           triclinic
_symmetry_space_group_name_H-M   'P -1'
_symmetry_Int_Tables_number      2
_space_group_name_Hall           '-P 1'
loop_
_symmetry_equiv_pos_site_id
_symmetry_equiv_pos_as_xyz
1 x,y,z
2 -x,-y,-z
_cell_length_a                   9.9888(15)
_cell_length_b                   10.2796(12)
_cell_length_c                   12.3288(19)
_cell_angle_alpha                68.939(13)
_cell_angle_beta                 79.698(13)
_cell_angle_gamma                69.115(12)
_cell_volume                     1101.88
_exptl_crystal_colour            colorless
_exptl_crystal_description       block
_cell_formula_units_Z            2
loop_
_atom_site_label
_atom_site_type_symbol
_atom_site_fract_x
_atom_site_fract_y
_atom_site_fract_z
C1 C 0.8292(5) 0.2906(5) 0.3377(4)
C2 C 0.9417(7) 0.2226(8) 0.4068(5)
H1 H 1.034896 0.207165 0.373549
C3 C 0.9185(12) 0.1753(11) 0.5279(7)
H2 H 0.995123 0.135533 0.575710
C4 C 0.7855(13) 0.1881(10) 0.5736(7)
H3 H 0.770036 0.150195 0.653843
C5 C 0.6709(11) 0.2558(12) 0.5049(7)
H4 H 0.577994 0.268057 0.538427
C6 C 0.6937(7) 0.3057(8) 0.3864(5)
H5 H 0.616253 0.349979 0.339144
O1 O 0.8750(4) 0.5032(3) 0.1621(3)
O2 O 0.7405(3) 0.3656(4) 0.1337(3)
O3 O 0.9953(3) 0.2598(3) 0.1559(3)
S1 S 0.86089(10) 0.35946(11) 0.18633(9)
C7 C 0.6646(4) 0.8388(5) 0.3306(4)
C8 C 0.7269(6) 0.6903(5) 0.3625(4)
H6 H 0.736323 0.641101 0.309941
C9 C 0.7762(8) 0.6122(8) 0.4731(5)
H7 H 0.819221 0.510739 0.495195
C10 C 0.7611(10) 0.6852(11) 0.5482(6)
H8 H 0.794319 0.632777 0.622442
C11 C 0.6996(8) 0.8315(12) 0.5190(7)
H9 H 0.687796 0.878402 0.573608
C12 C 0.6532(6) 0.9133(7) 0.4073(6)
H10 H 0.615574 1.015285 0.384780
O4 O 0.5922(4) 1.0839(3) 0.1598(3)
O5 O 0.4510(4) 0.9234(6) 0.2087(4)
O6 O 0.6842(4) 0.8573(3) 0.1144(3)
S2 S 0.59302(11) 0.93415(12) 0.19295(10)
C13 C 0.3836(4) 0.5918(4) 0.1251(3)
C14 C 0.2474(3) 0.6914(3) 0.1225(3)
H11 H 0.236245 0.786884 0.118022
C15 C 0.1309(4) 0.6544(4) 0.1262(3)
C16 C 0.2796(4) 0.4128(4) 0.1333(3)
N1 N 0.4910(4) 0.6397(4) 0.1211(3)
H12 H 0.573564 0.567062 0.123292
H13 H 0.490658 0.713919 0.055540
N2 N 0.0021(4) 0.7504(4) 0.1261(3)
H14 H -0.063360 0.708766 0.128853
H15 H -0.012303 0.780082 0.187968
N3 N 0.2818(4) 0.2817(4) 0.1380(3)
H16 H 0.372219 0.222690 0.138751
H17 H 0.233056 0.244176 0.202393
N4 N 0.1472(3) 0.5172(3) 0.1315(3)
H18 H 0.071990 0.493608 0.133907
N5 N 0.3996(4) 0.4496(4) 0.1321(3)
H19 H 0.483499 0.385103 0.135569
O7 O 0.2279(3) 0.9672(4) 0.0975(4)
H20 H 0.288(6) 0.967(5) 0.138(5)
H21 H 0.239(6) 1.013(7) 0.031(5)
O8 O -0.0923(3) 1.0287(4) 0.1337(5)
H22 H -0.182223 1.042907 0.142829
H23 H -0.066289 1.093966 0.143164
H24? H 0.481435 0.670315 0.181890
H25? H -0.005491 0.827333 0.061521
H26? H 0.241631 0.289918 0.075963
loop_
_geom_bond_atom_site_label_1
_geom_bond_atom_site_label_2
_geom_bond_site_symmetry_1
_geom_bond_site_symmetry_2
C1 C2 1_555 1_555
C2 H1 1_555 1_555
C3 C2 1_555 1_555
H2 C3 1_555 1_555
C4 C3 1_555 1_555
H3 C4 1_555 1_555
C5 C4 1_555 1_555
H4 C5 1_555 1_555
C6 C1 1_555 1_555
H5 C6 1_555 1_555
O1 S1 1_555 1_555
O2 S1 1_555 1_555
O3 S1 1_555 1_555
S1 C1 1_555 1_555
C7 C8 1_555 1_555
C8 H6 1_555 1_555
C9 C8 1_555 1_555
H7 C9 1_555 1_555
C10 C9 1_555 1_555
H8 C10 1_555 1_555
C11 C10 1_555 1_555
H9 C11 1_555 1_555
C12 C7 1_555 1_555
H10 C12 1_555 1_555
O4 S2 1_555 1_555
O5 S2 1_555 1_555
O6 S2 1_555 1_555
S2 C7 1_555 1_555
C13 C14 1_555 1_555
C14 H11 1_555 1_555
C15 C14 1_555 1_555
C16 N3 1_555 1_555
N1 C13 1_555 1_555
H12 N1 1_555 1_555
H13 N1 1_555 1_555
N2 C15 1_555 1_555
H14 N2 1_555 1_555
H15 N2 1_555 1_555
N3 H16 1_555 1_555
H17 N3 1_555 1_555
N4 C15 1_555 1_555
H18 N4 1_555 1_555
N5 C13 1_555 1_555
H19 N5 1_555 1_555
O7 H20 1_555 1_555
H21 O7 1_555 1_555
O8 H22 1_555 1_555
H23 O8 1_555 1_555
C5 C6 1_555 1_555
C11 C12 1_555 1_555
C16 N4 1_555 1_555
C16 N5 1_555 1_555

#END
