
#######################################################################
#
#                 Cambridge Crystallographic Data Centre
#                                CCDC 
#
#######################################################################
#
# If this CIF has been generated from an entry in the Cambridge 
# Structural Database, then it will include bibliographic, chemical, 
# crystal, experimental, refinement or atomic coordinate data resulting 
# from the CCDC's data processing and validation procedures.
#
#######################################################################

data_TEYYII
_chemical_formula_moiety         'C16 H22 N2 2+,2(C6 H4 N1 O5 S1 1-),H2 O1'
_chemical_name_systematic        
"3,3',5,5'-tetramethyl[1,1'-biphenyl]-4,4'-diaminium bis(4-nitrobenzene-1-sulfonate) monohydrate"
_symmetry_cell_setting           triclinic
_symmetry_space_group_name_H-M   'P -1'
_symmetry_Int_Tables_number      2
_space_group_name_Hall           '-P 1'
loop_
_symmetry_equiv_pos_site_id
_symmetry_equiv_pos_as_xyz
1 x,y,z
2 -x,-y,-z
_cell_length_a                   10.6823(15)
_cell_length_b                   11.4435(14)
_cell_length_c                   13.2985(17)
_cell_angle_alpha                87.212(10)
_cell_angle_beta                 70.525(12)
_cell_angle_gamma                81.733(11)
_cell_volume                     1516.71
_exptl_crystal_colour            colorless
_exptl_crystal_description       plate
_cell_formula_units_Z            2
loop_
_atom_site_label
_atom_site_type_symbol
_atom_site_fract_x
_atom_site_fract_y
_atom_site_fract_z
C1 C -0.0545(4) 0.0653(3) 0.7965(3)
C2 C -0.0827(5) 0.0691(4) 0.7031(3)
H1 H -0.168951 0.063732 0.703623
C3 C 0.0189(5) 0.0810(4) 0.6081(3)
H2 H 0.001574 0.084655 0.543925
C4 C 0.1449(5) 0.0874(4) 0.6093(3)
C5 C 0.1750(5) 0.0853(5) 0.7018(4)
H3 H 0.261661 0.090179 0.700638
C6 C 0.0724(5) 0.0758(4) 0.7968(3)
H4 H 0.088852 0.076419 0.861186
N1 N 0.2550(5) 0.0927(4) 0.5081(4)
O1 O 0.2304(5) 0.0840(4) 0.4257(3)
O2 O 0.3642(5) 0.1054(5) 0.5101(4)
O3 O -0.2961(3) 0.0214(3) 0.8921(2)
O4 O -0.1250(3) -0.0561(3) 0.9686(2)
O5 O -0.2081(4) 0.1532(3) 0.9774(3)
S1 S -0.18147(12) 0.04333(10) 0.91928(8)
C7 C 0.7478(4) 0.5479(4) 0.1887(3)
C8 C 0.6357(5) 0.5371(4) 0.2772(3)
H5 H 0.558842 0.515047 0.269633
C9 C 0.6404(5) 0.5599(4) 0.3777(3)
H6 H 0.566120 0.554153 0.438129
C10 C 0.7549(5) 0.5908(4) 0.3866(3)
C11 C 0.8663(5) 0.6023(5) 0.2994(4)
H7 H 0.943335 0.623813 0.307091
C12 C 0.8603(5) 0.5808(4) 0.2001(4)
H8 H 0.934044 0.588969 0.139847
N2 N 0.7581(6) 0.6123(4) 0.4936(4)
O6 O 0.6559(5) 0.6105(4) 0.5700(3)
O7 O 0.8643(6) 0.6283(5) 0.5013(3)
O8 O 0.6134(4) 0.4881(4) 0.0718(3)
O9 O 0.7715(5) 0.6276(3) 0.0007(3)
O10 O 0.8542(3) 0.4238(3) 0.0195(2)
S2 S 0.74618(13) 0.51935(11) 0.05908(9)
C13 C 0.3893(4) 0.7164(3) 0.1962(3)
C14 C 0.2968(5) 0.6458(4) 0.2578(3)
C15 C 0.2529(4) 0.6588(4) 0.3673(3)
H9 H 0.188563 0.614087 0.409516
C16 C 0.3032(4) 0.7377(3) 0.4158(3)
C17 C 0.3988(4) 0.8034(3) 0.3515(3)
H10 H 0.434146 0.855090 0.383136
C18 C 0.4437(4) 0.7943(4) 0.2406(3)
C19 C 0.5484(5) 0.8674(4) 0.1750(3)
H11 H 0.564442 0.921889 0.220543
H12 H 0.517629 0.910338 0.122003
H13 H 0.630029 0.816547 0.140678
C20 C 0.2460(6) 0.5552(5) 0.2077(4)
H14 H 0.194867 0.594629 0.165662
H15 H 0.190137 0.509860 0.262698
H16 H 0.320601 0.503635 0.162833
C21 C 0.2525(4) 0.7494(3) 0.5341(3)
C22 C 0.1220(4) 0.7362(4) 0.5906(3)
H17 H 0.065690 0.721498 0.553717
C23 C 0.0710(4) 0.7442(4) 0.7020(3)
C24 C 0.1580(5) 0.7672(3) 0.7532(3)
C25 C 0.2912(5) 0.7809(4) 0.6999(3)
C26 C 0.3363(5) 0.7721(4) 0.5900(3)
H18 H 0.424823 0.781577 0.552188
C27 C -0.0748(5) 0.7317(5) 0.7592(4)
H19 H -0.080949 0.670496 0.812020
H20 H -0.114793 0.711552 0.708733
H21 H -0.121043 0.804960 0.793283
C28 C 0.3848(6) 0.8011(5) 0.7582(4)
H22 H 0.343943 0.864552 0.808130
H23 H 0.466949 0.821148 0.707949
H24 H 0.403219 0.730483 0.795712
N3 N 0.4290(4) 0.7042(3) 0.0808(2)
H25 H 0.493998 0.747875 0.049433
H26 H 0.358774 0.728557 0.059619
H27 H 0.458368 0.628844 0.062843
N4 N 0.1039(4) 0.7773(3) 0.8706(3)
H28 H 0.168114 0.792067 0.895054
H29 H 0.036223 0.835953 0.888976
H30 H 0.074898 0.709923 0.898452
O11 O 0.6038(5) 0.8025(5) 0.9142(4)
H31 H 0.655979 0.847796 0.922579
H32 H 0.530228 0.842969 0.915098
loop_
_geom_bond_atom_site_label_1
_geom_bond_atom_site_label_2
_geom_bond_site_symmetry_1
_geom_bond_site_symmetry_2
C1 C2 1_555 1_555
C2 H1 1_555 1_555
C3 C2 1_555 1_555
H2 C3 1_555 1_555
C4 C3 1_555 1_555
C5 C4 1_555 1_555
H3 C5 1_555 1_555
C6 C1 1_555 1_555
H4 C6 1_555 1_555
N1 C4 1_555 1_555
O1 N1 1_555 1_555
O2 N1 1_555 1_555
O3 S1 1_555 1_555
O4 S1 1_555 1_555
O5 S1 1_555 1_555
S1 C1 1_555 1_555
C7 C8 1_555 1_555
C8 H5 1_555 1_555
C9 C8 1_555 1_555
H6 C9 1_555 1_555
C10 C9 1_555 1_555
C11 C10 1_555 1_555
H7 C11 1_555 1_555
C12 C7 1_555 1_555
H8 C12 1_555 1_555
N2 C10 1_555 1_555
O6 N2 1_555 1_555
O7 N2 1_555 1_555
O8 S2 1_555 1_555
O9 S2 1_555 1_555
O10 S2 1_555 1_555
S2 C7 1_555 1_555
C13 C14 1_555 1_555
C14 C15 1_555 1_555
C15 H9 1_555 1_555
C16 C15 1_555 1_555
C17 C16 1_555 1_555
H10 C17 1_555 1_555
C18 C13 1_555 1_555
C19 C18 1_555 1_555
H11 C19 1_555 1_555
H12 C19 1_555 1_555
H13 C19 1_555 1_555
C20 C14 1_555 1_555
H14 C20 1_555 1_555
H15 C20 1_555 1_555
H16 C20 1_555 1_555
C21 C16 1_555 1_555
C22 C21 1_555 1_555
H17 C22 1_555 1_555
C23 C22 1_555 1_555
C24 C23 1_555 1_555
C25 C24 1_555 1_555
C26 C21 1_555 1_555
H18 C26 1_555 1_555
C27 C23 1_555 1_555
H19 C27 1_555 1_555
H20 C27 1_555 1_555
H21 C27 1_555 1_555
C28 C25 1_555 1_555
H22 C28 1_555 1_555
H23 C28 1_555 1_555
H24 C28 1_555 1_555
N3 C13 1_555 1_555
H25 N3 1_555 1_555
H26 N3 1_555 1_555
H27 N3 1_555 1_555
N4 C24 1_555 1_555
H28 N4 1_555 1_555
H29 N4 1_555 1_555
H30 N4 1_555 1_555
O11 H31 1_555 1_555
H32 O11 1_555 1_555
C5 C6 1_555 1_555
C11 C12 1_555 1_555
C17 C18 1_555 1_555
C25 C26 1_555 1_555

#END
