
#######################################################################
#
#                 Cambridge Crystallographic Data Centre
#                                CCDC 
#
#######################################################################
#
# If this CIF has been generated from an entry in the Cambridge 
# Structural Database, then it will include bibliographic, chemical, 
# crystal, experimental, refinement or atomic coordinate data resulting 
# from the CCDC's data processing and validation procedures.
#
#######################################################################

data_TEYYOO
_chemical_formula_moiety         'C16 H22 N2 2+,2(C6 H5 O4 S1 1-)'
_chemical_name_systematic        
"3,3',5,5'-tetramethyl[1,1'-biphenyl]-4,4'-diaminium bis(4-hydroxybenzene-1-sulfonate)"
_symmetry_cell_setting           monoclinic
_symmetry_space_group_name_H-M   'C 2/c'
_symmetry_Int_Tables_number      15
_space_group_name_Hall           '-C 2yn'
loop_
_symmetry_equiv_pos_site_id
_symmetry_equiv_pos_as_xyz
1 x,y,z
2 -x,y,1/2-z
3 1/2+x,1/2+y,z
4 1/2-x,1/2+y,1/2-z
5 -x,-y,-z
6 x,-y,1/2+z
7 1/2-x,1/2-y,-z
8 1/2+x,1/2-y,1/2+z
_cell_length_a                   27.044(9)
_cell_length_b                   6.9584(14)
_cell_length_c                   15.834(6)
_cell_angle_alpha                90
_cell_angle_beta                 118.16(3)
_cell_angle_gamma                90
_cell_volume                     2626.99
_exptl_crystal_colour            colorless
_exptl_crystal_description       block
_cell_formula_units_Z            4
loop_
_atom_site_label
_atom_site_type_symbol
_atom_site_fract_x
_atom_site_fract_y
_atom_site_fract_z
C1 C -0.14300(9) -1.1230(3) -0.20044(16)
C2 C -0.08572(9) -1.1416(3) -0.16810(16)
H1 H -0.062078 -1.164051 -0.103376
C3 C -0.06356(10) -1.1279(3) -0.22869(17)
H2 H -0.025188 -1.141498 -0.206449
C4 C -0.09906(9) -1.0935(3) -0.32356(16)
C5 C -0.15705(9) -1.0766(3) -0.35730(16)
H3 H -0.180655 -1.054731 -0.422090
C6 C -0.17906(9) -1.0920(3) -0.29600(16)
H4 H -0.217502 -1.081808 -0.318142
O1 O -0.07516(7) -1.0813(3) -0.38010(12)
H5 H -0.097487 -1.029087 -0.431773
O2 O -0.12394(7) -1.1570(2) -0.02927(11)
O3 O -0.20179(7) -0.9542(2) -0.13451(12)
O4 O -0.20926(6) -1.2976(2) -0.15138(12)
S1 S -0.17101(2) -1.13307(7) -0.12252(4)
C7 C -0.12641(9) -0.6198(3) -0.23422(16)
C8 C -0.12943(9) -0.5934(3) -0.32174(15)
C9 C -0.07937(9) -0.5899(3) -0.32610(15)
H6 H -0.080940 -0.568596 -0.385304
C10 C -0.02666(9) -0.6168(3) -0.24654(16)
C11 C -0.02620(9) -0.6441(3) -0.16084(16)
H7 H 0.007914 -0.664214 -0.106278
C12 C -0.07516(9) -0.6429(3) -0.15253(15)
C13 C -0.07253(10) -0.6663(4) -0.05843(16)
H8 H -0.084906 -0.550076 -0.041542
H9 H -0.034615 -0.693301 -0.011298
H10 H -0.096360 -0.770732 -0.060865
C14 C -0.18510(9) -0.5702(4) -0.41024(16)
H11 H -0.179035 -0.539230 -0.463729
H12 H -0.205874 -0.468569 -0.400481
H13 H -0.205886 -0.687980 -0.422966
N1 N -0.17871(7) -0.6253(2) -0.22699(14)
H14 H -0.207614 -0.643672 -0.277402
H15 H -0.181244 -0.510521 -0.195482
H16 H -0.180044 -0.732472 -0.189662
C7A C 0.12641(9) -0.6198(3) -0.26578(16)
C8A C 0.12943(9) -0.5934(3) -0.17826(15)
C9A C 0.07937(9) -0.5899(3) -0.17390(15)
H6A H 0.080940 -0.568596 -0.114696
C10A C 0.02666(9) -0.6168(3) -0.25346(16)
C11A C 0.02620(9) -0.6441(3) -0.33916(16)
H7A H -0.007914 -0.664214 -0.393722
C12A C 0.07516(9) -0.6429(3) -0.34747(15)
C13A C 0.07253(10) -0.6663(4) -0.44157(16)
H8A H 0.084906 -0.550076 -0.458458
H9A H 0.034615 -0.693301 -0.488702
H10A H 0.096360 -0.770732 -0.439135
C14A C 0.18510(9) -0.5702(4) -0.08976(16)
H11A H 0.179035 -0.539230 -0.036271
H12A H 0.205874 -0.468569 -0.099519
H13A H 0.205886 -0.687980 -0.077034
N1A N 0.17871(7) -0.6253(2) -0.27301(14)
H14A H 0.207614 -0.643672 -0.222598
H15A H 0.181244 -0.510521 -0.304518
H16A H 0.180044 -0.732472 -0.310338
loop_
_geom_bond_atom_site_label_1
_geom_bond_atom_site_label_2
_geom_bond_site_symmetry_1
_geom_bond_site_symmetry_2
C1 C2 1_555 1_555
C2 H1 1_555 1_555
C3 C2 1_555 1_555
H2 C3 1_555 1_555
C4 C3 1_555 1_555
C5 C4 1_555 1_555
H3 C5 1_555 1_555
C6 C1 1_555 1_555
H4 C6 1_555 1_555
O1 C4 1_555 1_555
H5 O1 1_555 1_555
O2 S1 1_555 1_555
O3 S1 1_555 1_555
O4 S1 1_555 1_555
S1 C1 1_555 1_555
C7 C8 1_555 1_555
C8 C9 1_555 1_555
C9 H6 1_555 1_555
C10 C9 1_555 1_555
C11 C10 1_555 1_555
H7 C11 1_555 1_555
C12 C7 1_555 1_555
C13 C12 1_555 1_555
H8 C13 1_555 1_555
H9 C13 1_555 1_555
H10 C13 1_555 1_555
C14 C8 1_555 1_555
H11 C14 1_555 1_555
H12 C14 1_555 1_555
H13 C14 1_555 1_555
N1 C7 1_555 1_555
H14 N1 1_555 1_555
H15 N1 1_555 1_555
H16 N1 1_555 1_555
C7A C8A 1_555 1_555
C8A C9A 1_555 1_555
C9A H6A 1_555 1_555
C10A C10 1_555 1_555
C11A C10A 1_555 1_555
H7A C11A 1_555 1_555
C12A C7A 1_555 1_555
C13A C12A 1_555 1_555
H8A C13A 1_555 1_555
H9A C13A 1_555 1_555
H10A C13A 1_555 1_555
C14A C8A 1_555 1_555
H11A C14A 1_555 1_555
H12A C14A 1_555 1_555
H13A C14A 1_555 1_555
N1A C7A 1_555 1_555
H14A N1A 1_555 1_555
H15A N1A 1_555 1_555
H16A N1A 1_555 1_555
C5 C6 1_555 1_555
C11 C12 1_555 1_555
C9A C10A 1_555 1_555
C11A C12A 1_555 1_555

#END
