
#######################################################################
#
#                 Cambridge Crystallographic Data Centre
#                                CCDC 
#
#######################################################################
#
# If this CIF has been generated from an entry in the Cambridge 
# Structural Database, then it will include bibliographic, chemical, 
# crystal, experimental, refinement or atomic coordinate data resulting 
# from the CCDC's data processing and validation procedures.
#
#######################################################################

data_TEYZEF
_chemical_formula_moiety         
'0.5(C6 H8 Cl2 N2 2+),C6 H7 Cl2 N2 1+,2(C6 H5 O3 S1 1-)'
_chemical_name_systematic        
'4-amino-2,5-dichloroanilinium hemikis(2,5-dichlorobenzene-1,4-diaminium) bis(benzenesulfonate)'
_symmetry_cell_setting           triclinic
_symmetry_space_group_name_H-M   'P -1'
_symmetry_Int_Tables_number      2
_space_group_name_Hall           '-P 1'
loop_
_symmetry_equiv_pos_site_id
_symmetry_equiv_pos_as_xyz
1 x,y,z
2 -x,-y,-z
_cell_length_a                   10.1766(6)
_cell_length_b                   10.7552(7)
_cell_length_c                   12.5205(8)
_cell_angle_alpha                95.045(5)
_cell_angle_beta                 109.245(5)
_cell_angle_gamma                102.571(5)
_cell_volume                     1243.69
_exptl_crystal_colour            colorless
_exptl_crystal_description       block
_cell_formula_units_Z            2
loop_
_atom_site_label
_atom_site_type_symbol
_atom_site_fract_x
_atom_site_fract_y
_atom_site_fract_z
C1 C 0.0436(3) 0.1677(2) 0.8145(2)
C2 C -0.0250(4) 0.1045(3) 0.8797(3)
H1 H -0.062315 0.015123 0.862193
C3 C -0.0380(5) 0.1746(5) 0.9710(3)
H2 H -0.084170 0.132305 1.015630
C4 C 0.0164(5) 0.3063(4) 0.9969(3)
H3 H 0.009934 0.352896 1.060357
C5 C 0.0789(4) 0.3675(3) 0.9304(3)
H4 H 0.113281 0.457092 0.946839
C6 C 0.0933(4) 0.2991(3) 0.8374(3)
H5 H 0.136172 0.342346 0.791330
O1 O -0.0307(2) -0.04823(18) 0.67627(19)
O2 O 0.0167(2) 0.14687(19) 0.60080(15)
O3 O 0.21351(18) 0.0836(2) 0.72930(16)
S1 S 0.06309(6) 0.08004(6) 0.69723(5)
C7 C 0.7068(3) 0.3364(3) 0.1894(2)
C8 C 0.5906(3) 0.3877(4) 0.1528(3)
H6 H 0.587629 0.461853 0.195105
C9 C 0.4787(4) 0.3271(6) 0.0524(4)
H7 H 0.398991 0.360467 0.026928
C10 C 0.4830(6) 0.2196(7) -0.0099(4)
H8 H 0.407069 0.180535 -0.078232
C11 C 0.5981(6) 0.1684(5) 0.0269(4)
H9 H 0.599985 0.094234 -0.016135
C12 C 0.7120(4) 0.2259(3) 0.1278(3)
H10 H 0.790447 0.190957 0.153644
O4 O 0.98096(18) 0.42707(18) 0.29518(16)
O5 O 0.84484(19) 0.31211(17) 0.39621(15)
O6 O 0.8219(2) 0.52341(18) 0.36110(17)
S2 S 0.84966(6) 0.40649(6) 0.31972(5)
C13 C 0.6032(2) 0.3431(2) 0.5601(2)
C14 C 0.5301(3) 0.3254(2) 0.6360(2)
C15 C 0.3832(2) 0.3095(2) 0.6017(2)
H11 H 0.337340 0.298396 0.654564
C16 C 0.3050(2) 0.3100(2) 0.4891(2)
C17 C 0.3751(2) 0.3260(2) 0.4117(2)
C18 C 0.5215(3) 0.3431(2) 0.4463(2)
H12 H 0.566757 0.354807 0.393044
N1 N 0.1500(2) 0.2952(2) 0.4526(2)
N2 N 0.7486(3) 0.3556(3) 0.5941(3)
Cl1 Cl 0.27675(8) 0.32415(7) 0.26898(6)
Cl2 Cl 0.62672(8) 0.32327(8) 0.77836(6)
H13 H 0.116(3) 0.342(3) 0.402(2)
H14 H 0.133(4) 0.319(3) 0.512(3)
H15 H 0.102(3) 0.216(3) 0.422(2)
H16 H 0.789(4) 0.376(3) 0.544(3)
H17 H 0.792(4) 0.378(3) 0.664(3)
C19 C 0.6189(2) 0.0348(2) 0.46930(19)
C20 C 0.4826(2) 0.0224(2) 0.38998(19)
C21 C 0.3631(2) -0.0129(2) 0.4208(2)
N3 N 0.7440(2) 0.0730(2) 0.4362(2)
Cl3 Cl 0.46240(7) 0.05199(7) 0.25346(5)
H18 H 0.747(3) 0.153(3) 0.417(3)
H19 H 0.737(3) 0.017(3) 0.379(2)
H20 H 0.827(3) 0.087(2) 0.499(2)
H21 H 0.272(3) -0.023(2) 0.3684(19)
C19A C 0.3811(2) -0.0348(2) 0.53070(19)
C20A C 0.5174(2) -0.0224(2) 0.61002(19)
C21A C 0.6369(2) 0.0129(2) 0.5792(2)
N3A N 0.2560(2) -0.0730(2) 0.5638(2)
Cl3A Cl 0.53760(7) -0.05199(7) 0.74654(5)
H18A H 0.253(3) -0.153(3) 0.583(3)
H19A H 0.263(3) -0.017(3) 0.621(2)
H20A H 0.173(3) -0.087(2) 0.501(2)
H21A H 0.728(3) 0.023(2) 0.6316(19)
loop_
_geom_bond_atom_site_label_1
_geom_bond_atom_site_label_2
_geom_bond_site_symmetry_1
_geom_bond_site_symmetry_2
C1 C2 1_555 1_555
C2 H1 1_555 1_555
C3 C2 1_555 1_555
H2 C3 1_555 1_555
C4 C3 1_555 1_555
H3 C4 1_555 1_555
C5 C4 1_555 1_555
H4 C5 1_555 1_555
C6 C1 1_555 1_555
H5 C6 1_555 1_555
O1 S1 1_555 1_555
O2 S1 1_555 1_555
O3 S1 1_555 1_555
S1 C1 1_555 1_555
C7 C8 1_555 1_555
C8 H6 1_555 1_555
C9 C8 1_555 1_555
H7 C9 1_555 1_555
C10 C9 1_555 1_555
H8 C10 1_555 1_555
C11 C10 1_555 1_555
H9 C11 1_555 1_555
C12 C7 1_555 1_555
H10 C12 1_555 1_555
O4 S2 1_555 1_555
O5 S2 1_555 1_555
O6 S2 1_555 1_555
S2 C7 1_555 1_555
C13 C14 1_555 1_555
C14 C15 1_555 1_555
C15 H11 1_555 1_555
C16 C15 1_555 1_555
C17 C16 1_555 1_555
C18 C13 1_555 1_555
H12 C18 1_555 1_555
N1 C16 1_555 1_555
N2 C13 1_555 1_555
Cl1 C17 1_555 1_555
Cl2 C14 1_555 1_555
H13 N1 1_555 1_555
H14 N1 1_555 1_555
H15 N1 1_555 1_555
H16 N2 1_555 1_555
H17 N2 1_555 1_555
C19 C20 1_555 1_555
C20 C21 1_555 1_555
C21 H21 1_555 1_555
N3 C19 1_555 1_555
Cl3 C20 1_555 1_555
H18 N3 1_555 1_555
H19 N3 1_555 1_555
H20 N3 1_555 1_555
C19A C21 1_555 1_555
C20A C19A 1_555 1_555
C21A C19 1_555 1_555
N3A C19A 1_555 1_555
Cl3A C20A 1_555 1_555
H18A N3A 1_555 1_555
H19A N3A 1_555 1_555
H20A N3A 1_555 1_555
H21A C21A 1_555 1_555
C5 C6 1_555 1_555
C11 C12 1_555 1_555
C17 C18 1_555 1_555
C20A C21A 1_555 1_555

#END
