
#######################################################################
#
#                 Cambridge Crystallographic Data Centre
#                                CCDC 
#
#######################################################################
#
# If this CIF has been generated from an entry in the Cambridge 
# Structural Database, then it will include bibliographic, chemical, 
# crystal, experimental, refinement or atomic coordinate data resulting 
# from the CCDC's data processing and validation procedures.
#
#######################################################################

data_TEZBEG
_chemical_formula_moiety         'C23 H14 F6 O1 S2'
_chemical_name_systematic        
'1-(2-methyl-1-benzothiophene-1-oxide-3-yl)-2-(2-methyl-1-benzothiophene-3-yl) perfluorocyclopentene'
_symmetry_cell_setting           triclinic
_symmetry_space_group_name_H-M   'P -1'
_symmetry_Int_Tables_number      2
_space_group_name_Hall           '-P 1'
loop_
_symmetry_equiv_pos_site_id
_symmetry_equiv_pos_as_xyz
1 x,y,z
2 -x,-y,-z
_cell_length_a                   8.159(3)
_cell_length_b                   10.7247(18)
_cell_length_c                   13.1049(19)
_cell_angle_alpha                85.328(11)
_cell_angle_beta                 73.908(14)
_cell_angle_gamma                73.89(2)
_cell_volume                     1058.51
_exptl_crystal_colour            colorless
_exptl_crystal_description       block
_chemical_melting_point          '176 deg.C'
_cell_formula_units_Z            2
loop_
_atom_site_label
_atom_site_type_symbol
_atom_site_fract_x
_atom_site_fract_y
_atom_site_fract_z
S1 S 0.3959(2) -0.2889(2) 0.97612(14)
S2 S 0.2043(2) 0.02131(13) 0.58390(10)
F1 F 0.2721(6) -0.6116(3) 0.8021(4)
F2 F -0.0050(6) -0.5327(4) 0.8565(3)
F3 F -0.0258(10) -0.5902(6) 0.6856(5)
F4 F 0.2441(11) -0.6266(5) 0.6169(4)
F5 F -0.0762(6) -0.3719(4) 0.6053(4)
F6 F 0.1978(6) -0.4189(4) 0.5197(3)
O1 O 0.5020(7) -0.1970(6) 0.9370(5)
C1 C 0.5467(8) -0.4452(7) 0.7963(6)
H1 H 0.5214 -0.4814 0.7395
H2 H 0.6013 -0.5141 0.8374
H3 H 0.6255 -0.3917 0.7672
C2 C 0.3802(7) -0.3659(5) 0.8650(4)
C3 C 0.1664(7) -0.2141(5) 1.0107(4)
C4 C 0.0663(10) -0.1339(6) 1.0942(4)
H4 H 0.1215 -0.1088 1.1392
C5 C -0.1092(10) -0.0913(7) 1.1121(4)
H5 H -0.1749 -0.0364 1.1691
C6 C -0.1934(8) -0.1282(6) 1.0465(4)
H6 H -0.3157 -0.0976 1.0594
C7 C -0.0982(7) -0.2104(5) 0.9618(4)
H7 H -0.1557 -0.2368 0.9188
C8 C 0.0829(6) -0.2523(5) 0.9423(3)
C9 C 0.2114(6) -0.3380(4) 0.8575(4)
C10 C 0.1608(6) -0.3875(4) 0.7729(4)
C11 C 0.1394(8) -0.5222(5) 0.7783(5)
C12 C 0.1107(9) -0.5421(5) 0.6727(5)
C13 C 0.0870(8) -0.4116(5) 0.6172(4)
C14 C 0.1221(6) -0.3235(4) 0.6882(3)
C15 C 0.1150(6) -0.1870(4) 0.6586(3)
C16 C -0.0492(6) -0.0859(4) 0.6731(3)
C17 C -0.2219(7) -0.0924(5) 0.7204(4)
H8 H -0.2450 -0.1705 0.7474
C18 C -0.3580(8) 0.0193(7) 0.7265(5)
H9 H -0.4742 0.0157 0.7564
C19 C -0.3248(10) 0.1361(6) 0.6892(5)
H10 H -0.4189 0.2101 0.6952
C20 C -0.1553(10) 0.1454(5) 0.6431(4)
H11 H -0.1337 0.2243 0.6174
C21 C -0.0192(7) 0.0347(4) 0.6361(3)
C22 C 0.2606(7) -0.1443(5) 0.6119(3)
C23 C 0.4487(7) -0.2177(6) 0.5826(5)
H12 H 0.4590 -0.3071 0.6027
H13 H 0.5128 -0.1820 0.6187
H14 H 0.4967 -0.2117 0.5072
loop_
_geom_bond_atom_site_label_1
_geom_bond_atom_site_label_2
_geom_bond_site_symmetry_1
_geom_bond_site_symmetry_2
S1 O1 1_555 1_555
S2 C21 1_555 1_555
F1 C11 1_555 1_555
F2 C11 1_555 1_555
F3 C12 1_555 1_555
F4 C12 1_555 1_555
F5 C13 1_555 1_555
F6 C13 1_555 1_555
C1 H1 1_555 1_555
H2 C1 1_555 1_555
H3 C1 1_555 1_555
C2 S1 1_555 1_555
C3 S1 1_555 1_555
C4 C3 1_555 1_555
H4 C4 1_555 1_555
C5 C4 1_555 1_555
H5 C5 1_555 1_555
C6 C5 1_555 1_555
H6 C6 1_555 1_555
C7 C6 1_555 1_555
H7 C7 1_555 1_555
C8 C3 1_555 1_555
C9 C2 1_555 1_555
C10 C9 1_555 1_555
C11 C10 1_555 1_555
C12 C11 1_555 1_555
C13 C12 1_555 1_555
C14 C10 1_555 1_555
C15 C14 1_555 1_555
C16 C15 1_555 1_555
C17 C16 1_555 1_555
H8 C17 1_555 1_555
C18 C17 1_555 1_555
H9 C18 1_555 1_555
C19 C18 1_555 1_555
H10 C19 1_555 1_555
C20 C19 1_555 1_555
H11 C20 1_555 1_555
C21 C16 1_555 1_555
C22 S2 1_555 1_555
C23 C22 1_555 1_555
H12 C23 1_555 1_555
H13 C23 1_555 1_555
H14 C23 1_555 1_555
C1 C2 1_555 1_555
C7 C8 1_555 1_555
C8 C9 1_555 1_555
C13 C14 1_555 1_555
C15 C22 1_555 1_555
C20 C21 1_555 1_555

#END
