
#######################################################################
#
#                 Cambridge Crystallographic Data Centre
#                                CCDC 
#
#######################################################################
#
# If this CIF has been generated from an entry in the Cambridge 
# Structural Database, then it will include bibliographic, chemical, 
# crystal, experimental, refinement or atomic coordinate data resulting 
# from the CCDC's data processing and validation procedures.
#
#######################################################################

data_TEZBUY
_chemical_formula_moiety         'C25 H18 N1 P1 S1'
_chemical_name_systematic        
2-(2-(diphenylphosphino)phenyl)-1,3-benzothiazole
_symmetry_cell_setting           monoclinic
_symmetry_space_group_name_H-M   'P 21/c'
_symmetry_Int_Tables_number      14
_space_group_name_Hall           '-P 2ybc'
loop_
_symmetry_equiv_pos_site_id
_symmetry_equiv_pos_as_xyz
1 x,y,z
2 -x,1/2+y,1/2-z
3 -x,-y,-z
4 x,1/2-y,1/2+z
_cell_length_a                   9.039(6)
_cell_length_b                   15.335(10)
_cell_length_c                   15.174(10)
_cell_angle_alpha                90
_cell_angle_beta                 106.823(9)
_cell_angle_gamma                90
_cell_volume                     2013.3
_exptl_crystal_colour            orange
_exptl_crystal_description       cubic
_cell_formula_units_Z            4
loop_
_atom_site_label
_atom_site_type_symbol
_atom_site_fract_x
_atom_site_fract_y
_atom_site_fract_z
P1 P 0.79334(6) 0.18761(4) 0.37353(4)
S1 S 0.67998(7) 0.42789(4) 0.54427(5)
N1 N 0.83801(19) 0.35441(11) 0.44796(12)
C1 C 0.7630(2) 0.33743(14) 0.50625(14)
C2 C 0.7530(2) 0.49324(15) 0.47477(16)
C3 C 0.7416(3) 0.58266(17) 0.4614(2)
H1 H 0.6893 0.6170 0.4932
C4 C 0.8090(3) 0.61922(18) 0.4006(2)
H2 H 0.8014 0.6791 0.3906
C5 C 0.8878(3) 0.56911(18) 0.3539(2)
H3 H 0.9319 0.5957 0.3125
C6 C 0.9024(3) 0.48068(16) 0.36726(16)
H4 H 0.9570 0.4474 0.3360
C7 C 0.8343(2) 0.44200(14) 0.42837(15)
C8 C 0.7457(2) 0.24959(14) 0.53856(14)
C9 C 0.7610(2) 0.17585(13) 0.48717(14)
C10 C 0.7432(2) 0.09448(15) 0.52274(16)
H5 H 0.7529 0.0447 0.4897
C11 C 0.7118(3) 0.08572(17) 0.60558(18)
H6 H 0.7010 0.0304 0.6280
C12 C 0.6963(3) 0.15771(18) 0.65529(18)
H7 H 0.6752 0.1515 0.7114
C13 C 0.7119(3) 0.23876(16) 0.62176(16)
H8 H 0.6998 0.2877 0.6552
C14 C 1.0038(2) 0.18693(13) 0.40240(15)
C15 C 1.0699(3) 0.21519(16) 0.33683(18)
H9 H 1.0077 0.2366 0.2811
C16 C 1.2287(3) 0.21203(19) 0.3530(2)
H10 H 1.2722 0.2302 0.3075
C17 C 1.3217(3) 0.18264(19) 0.4350(2)
H11 H 1.4283 0.1812 0.4457
C18 C 1.2580(3) 0.15532(19) 0.5012(2)
H12 H 1.3212 0.1356 0.5575
C19 C 1.1004(3) 0.15688(17) 0.48515(18)
H13 H 1.0580 0.1374 0.5306
C20 C 0.7468(2) 0.07800(13) 0.32560(14)
C21 C 0.5905(3) 0.06176(16) 0.28397(16)
H14 H 0.5182 0.1044 0.2857
C22 C 0.5416(3) -0.01563(19) 0.24072(18)
H15 H 0.4366 -0.0256 0.2143
C23 C 0.6446(4) -0.07749(18) 0.2361(2)
H16 H 0.6105 -0.1299 0.2062
C24 C 0.7999(3) -0.06376(16) 0.2753(2)
H17 H 0.8707 -0.1065 0.2715
C25 C 0.8512(3) 0.01406(15) 0.32080(17)
H18 H 0.9563 0.0230 0.3481
loop_
_geom_bond_atom_site_label_1
_geom_bond_atom_site_label_2
_geom_bond_site_symmetry_1
_geom_bond_site_symmetry_2
P1 C9 1_555 1_555
S1 C1 1_555 1_555
N1 C1 1_555 1_555
C1 C8 1_555 1_555
C2 S1 1_555 1_555
C3 C2 1_555 1_555
H1 C3 1_555 1_555
C4 C3 1_555 1_555
H2 C4 1_555 1_555
C5 C4 1_555 1_555
H3 C5 1_555 1_555
C6 C5 1_555 1_555
H4 C6 1_555 1_555
C7 N1 1_555 1_555
C8 C9 1_555 1_555
C9 C10 1_555 1_555
C10 H5 1_555 1_555
C11 C10 1_555 1_555
H6 C11 1_555 1_555
C12 C11 1_555 1_555
H7 C12 1_555 1_555
C13 C8 1_555 1_555
H8 C13 1_555 1_555
C14 P1 1_555 1_555
C15 C14 1_555 1_555
H9 C15 1_555 1_555
C16 C15 1_555 1_555
H10 C16 1_555 1_555
C17 C16 1_555 1_555
H11 C17 1_555 1_555
C18 C17 1_555 1_555
H12 C18 1_555 1_555
C19 C14 1_555 1_555
H13 C19 1_555 1_555
C20 P1 1_555 1_555
C21 C20 1_555 1_555
H14 C21 1_555 1_555
C22 C21 1_555 1_555
H15 C22 1_555 1_555
C23 C22 1_555 1_555
H16 C23 1_555 1_555
C24 C23 1_555 1_555
H17 C24 1_555 1_555
C25 C20 1_555 1_555
H18 C25 1_555 1_555
C2 C7 1_555 1_555
C6 C7 1_555 1_555
C12 C13 1_555 1_555
C18 C19 1_555 1_555
C24 C25 1_555 1_555

#END
