
#######################################################################
#
#                 Cambridge Crystallographic Data Centre
#                                CCDC 
#
#######################################################################
#
# If this CIF has been generated from an entry in the Cambridge 
# Structural Database, then it will include bibliographic, chemical, 
# crystal, experimental, refinement or atomic coordinate data resulting 
# from the CCDC's data processing and validation procedures.
#
#######################################################################

data_TEZCIM
_chemical_formula_moiety         'C24 H48 Cl3 Mg2 O6 1+,C24 H20 B1 1-'
_chemical_name_systematic        
'tris(\m~2~-Chloro)-hexakis(tetrahydrofuran)-di-magnesium tetraphenylborate'
_symmetry_cell_setting           monoclinic
_symmetry_space_group_name_H-M   'P 21/c'
_symmetry_Int_Tables_number      14
_space_group_name_Hall           '-P 2ybc'
loop_
_symmetry_equiv_pos_site_id
_symmetry_equiv_pos_as_xyz
1 x,y,z
2 -x,1/2+y,1/2-z
3 -x,-y,-z
4 x,1/2-y,1/2+z
_cell_length_a                   16.4151(16)
_cell_length_b                   16.5787(16)
_cell_length_c                   18.5617(19)
_cell_angle_alpha                90
_cell_angle_beta                 109.3640(10)
_cell_angle_gamma                90
_cell_volume                     4765.65
_exptl_crystal_colour            colorless
_exptl_crystal_description       columnar
_cell_formula_units_Z            4
loop_
_atom_site_label
_atom_site_type_symbol
_atom_site_fract_x
_atom_site_fract_y
_atom_site_fract_z
Mg1 Mg 0.21996(3) 0.66751(3) 0.32592(3)
Mg2 Mg 0.34630(3) 0.80839(3) 0.32451(3)
Cl1 Cl 0.33264(2) 0.672045(19) 0.263824(18)
Cl2 Cl 0.32916(2) 0.735291(19) 0.438336(18)
Cl3 Cl 0.18627(2) 0.80968(2) 0.275034(19)
O1 O 0.13106(6) 0.66444(6) 0.38459(6)
O2 O 0.12439(6) 0.62304(6) 0.23001(6)
O3 O 0.26444(6) 0.55469(6) 0.37253(6)
O4 O 0.36454(6) 0.86283(6) 0.23040(6)
O5 O 0.35062(6) 0.92119(6) 0.37713(5)
O6 O 0.47939(6) 0.79999(6) 0.37280(6)
C1 C 0.06309(10) 0.72395(11) 0.37536(10)
H1 H 0.0064 0.6975 0.3660
H2 H 0.0591 0.7611 0.3325
C2 C 0.09104(13) 0.76825(12) 0.45049(12)
H3 H 0.0407 0.7913 0.4613
H4 H 0.1318 0.8123 0.4505
C3 C 0.13472(15) 0.70409(14) 0.50837(11)
H5 H 0.1894 0.7247 0.5451
H6 H 0.0966 0.6865 0.5370
C4 C 0.15203(12) 0.63522(10) 0.46210(9)
H7 H 0.2134 0.6189 0.4825
H8 H 0.1157 0.5881 0.4638
C5 C 0.03848(10) 0.59599(11) 0.22574(10)
H9 H 0.0001 0.6424 0.2245
H10 H 0.0411 0.5611 0.2697
C6 C 0.00789(11) 0.54949(12) 0.15238(10)
H11 H -0.0559 0.5465 0.1324
H12 H 0.0318 0.4941 0.1593
C7 C 0.04266(10) 0.59845(10) 0.09895(9)
H13 H -0.0028 0.6338 0.0653
H14 H 0.0644 0.5624 0.0668
C8 C 0.11619(10) 0.64858(10) 0.15272(8)
H15 H 0.1707 0.6387 0.1423
H16 H 0.1025 0.7068 0.1460
C9 C 0.21434(9) 0.48079(8) 0.36261(8)
H17 H 0.2064 0.4563 0.3121
H18 H 0.1569 0.4913 0.3672
C10 C 0.26749(10) 0.42641(9) 0.42626(9)
H19 H 0.2545 0.3688 0.4133
H20 H 0.2573 0.4385 0.4748
C11 C 0.35998(10) 0.44744(9) 0.43117(10)
H21 H 0.4005 0.4393 0.4836
H22 H 0.3789 0.4140 0.3954
C12 C 0.35534(10) 0.53518(9) 0.40904(10)
H23 H 0.3807 0.5692 0.4549
H24 H 0.3877 0.5447 0.3733
C13 C 0.40899(11) 0.82375(9) 0.18403(9)
H25 H 0.3698 0.7868 0.1463
H26 H 0.4596 0.7929 0.2162
C14 C 0.43660(11) 0.89331(10) 0.14468(9)
H27 H 0.4467 0.8754 0.0975
H28 H 0.4895 0.9194 0.1789
C15 C 0.35867(11) 0.94995(10) 0.12665(9)
H29 H 0.3769 1.0070 0.1279
H30 H 0.3164 0.9380 0.0757
C16 C 0.32022(12) 0.93299(10) 0.18961(10)
H31 H 0.3290 0.9798 0.2245
H32 H 0.2575 0.9223 0.1673
C17 C 0.28207(9) 0.98124(8) 0.35798(8)
H33 H 0.2366 0.9676 0.3092
H34 H 0.3052 1.0355 0.3535
C18 C 0.24660(10) 0.97840(9) 0.42408(9)
H35 H 0.1955 0.9426 0.4119
H36 H 0.2300 1.0330 0.4359
C19 C 0.32170(10) 0.94468(9) 0.49161(9)
H37 H 0.3390 0.9834 0.5347
H38 H 0.3056 0.8928 0.5097
C20 C 0.39396(9) 0.93290(9) 0.45820(8)
H39 H 0.4318 0.9810 0.4676
H40 H 0.4294 0.8852 0.4810
C21 C 0.52684(9) 0.72653(9) 0.40516(9)
H41 H 0.5150 0.6835 0.3661
H42 H 0.5099 0.7070 0.4486
C22 C 0.62207(9) 0.74956(9) 0.43194(9)
H43 H 0.6539 0.7229 0.4809
H44 H 0.6491 0.7347 0.3934
C23 C 0.62065(9) 0.84074(9) 0.44160(8)
H45 H 0.6146 0.8556 0.4912
H46 H 0.6733 0.8662 0.4372
C24 C 0.54129(9) 0.86382(9) 0.37553(9)
H47 H 0.5188 0.9169 0.3846
H48 H 0.5544 0.8662 0.3272
B1 B 0.77143(9) 0.72624(9) 0.26252(8)
C25 C 0.76945(8) 0.81080(8) 0.30874(7)
C26 C 0.83663(9) 0.83528(8) 0.37447(8)
H49 H 0.8823 0.7985 0.3974
C27 C 0.83912(10) 0.91124(9) 0.40743(8)
H50 H 0.8856 0.9250 0.4521
C28 C 0.77393(10) 0.96668(9) 0.37523(9)
H51 H 0.7757 1.0187 0.3971
C29 C 0.70607(10) 0.94498(9) 0.31064(9)
H52 H 0.6610 0.9824 0.2878
C30 C 0.70388(9) 0.86832(8) 0.27911(8)
H53 H 0.6560 0.8543 0.2357
C31 C 0.67135(8) 0.69515(8) 0.22044(7)
C32 C 0.63206(9) 0.64039(8) 0.25637(8)
H54 H 0.6652 0.6194 0.3049
C33 C 0.54647(9) 0.61542(9) 0.22397(9)
H55 H 0.5226 0.5784 0.2506
C34 C 0.49609(9) 0.64445(10) 0.15313(9)
H56 H 0.4379 0.6274 0.1307
C35 C 0.53230(9) 0.69895(9) 0.11567(8)
H57 H 0.4986 0.7195 0.0672
C36 C 0.61774(9) 0.72367(8) 0.14886(8)
H58 H 0.6408 0.7613 0.1222
C37 C 0.82517(8) 0.65266(8) 0.31805(7)
C38 C 0.83311(9) 0.64288(8) 0.39543(8)
H59 H 0.8085 0.6825 0.4189
C39 C 0.87564(9) 0.57726(9) 0.43909(8)
H60 H 0.8805 0.5737 0.4914
C40 C 0.91094(9) 0.51720(9) 0.40621(8)
H61 H 0.9400 0.4725 0.4356
C41 C 0.90303(9) 0.52378(8) 0.32970(8)
H62 H 0.9259 0.4828 0.3061
C42 C 0.86163(8) 0.59033(8) 0.28735(7)
H63 H 0.8579 0.5937 0.2353
C43 C 0.82087(8) 0.74700(8) 0.20018(7)
C44 C 0.80071(9) 0.70802(8) 0.12896(8)
H64 H 0.7550 0.6698 0.1151
C45 C 0.84494(9) 0.72309(9) 0.07784(8)
H65 H 0.8286 0.6959 0.0301
C46 C 0.91279(9) 0.77781(9) 0.09675(8)
H66 H 0.9431 0.7885 0.0622
C47 C 0.93569(9) 0.81674(9) 0.16686(8)
H67 H 0.9825 0.8538 0.1808
C48 C 0.89011(8) 0.80158(8) 0.21685(8)
H68 H 0.9066 0.8294 0.2643
loop_
_geom_bond_atom_site_label_1
_geom_bond_atom_site_label_2
_geom_bond_site_symmetry_1
_geom_bond_site_symmetry_2
Mg1 Cl1 1_555 1_555
Mg2 Cl1 1_555 1_555
Cl2 Mg1 1_555 1_555
Cl3 Mg1 1_555 1_555
O1 Mg1 1_555 1_555
O2 Mg1 1_555 1_555
O3 Mg1 1_555 1_555
O4 Mg2 1_555 1_555
O5 Mg2 1_555 1_555
O6 Mg2 1_555 1_555
C1 O1 1_555 1_555
H1 C1 1_555 1_555
H2 C1 1_555 1_555
C2 C1 1_555 1_555
H3 C2 1_555 1_555
H4 C2 1_555 1_555
C3 C2 1_555 1_555
H5 C3 1_555 1_555
H6 C3 1_555 1_555
C4 O1 1_555 1_555
H7 C4 1_555 1_555
H8 C4 1_555 1_555
C5 O2 1_555 1_555
H9 C5 1_555 1_555
H10 C5 1_555 1_555
C6 C5 1_555 1_555
H11 C6 1_555 1_555
H12 C6 1_555 1_555
C7 C6 1_555 1_555
H13 C7 1_555 1_555
H14 C7 1_555 1_555
C8 O2 1_555 1_555
H15 C8 1_555 1_555
H16 C8 1_555 1_555
C9 O3 1_555 1_555
H17 C9 1_555 1_555
H18 C9 1_555 1_555
C10 C9 1_555 1_555
H19 C10 1_555 1_555
H20 C10 1_555 1_555
C11 C10 1_555 1_555
H21 C11 1_555 1_555
H22 C11 1_555 1_555
C12 O3 1_555 1_555
H23 C12 1_555 1_555
H24 C12 1_555 1_555
C13 O4 1_555 1_555
H25 C13 1_555 1_555
H26 C13 1_555 1_555
C14 C13 1_555 1_555
H27 C14 1_555 1_555
H28 C14 1_555 1_555
C15 C14 1_555 1_555
H29 C15 1_555 1_555
H30 C15 1_555 1_555
C16 O4 1_555 1_555
H31 C16 1_555 1_555
H32 C16 1_555 1_555
C17 O5 1_555 1_555
H33 C17 1_555 1_555
H34 C17 1_555 1_555
C18 C17 1_555 1_555
H35 C18 1_555 1_555
H36 C18 1_555 1_555
C19 C18 1_555 1_555
H37 C19 1_555 1_555
H38 C19 1_555 1_555
C20 O5 1_555 1_555
H39 C20 1_555 1_555
H40 C20 1_555 1_555
C21 O6 1_555 1_555
H41 C21 1_555 1_555
H42 C21 1_555 1_555
C22 C21 1_555 1_555
H43 C22 1_555 1_555
H44 C22 1_555 1_555
C23 C22 1_555 1_555
H45 C23 1_555 1_555
H46 C23 1_555 1_555
C24 O6 1_555 1_555
H47 C24 1_555 1_555
H48 C24 1_555 1_555
B1 C25 1_555 1_555
C25 C26 1_555 1_555
C26 H49 1_555 1_555
C27 C26 1_555 1_555
H50 C27 1_555 1_555
C28 C27 1_555 1_555
H51 C28 1_555 1_555
C29 C28 1_555 1_555
H52 C29 1_555 1_555
C30 C25 1_555 1_555
H53 C30 1_555 1_555
C31 B1 1_555 1_555
C32 C31 1_555 1_555
H54 C32 1_555 1_555
C33 C32 1_555 1_555
H55 C33 1_555 1_555
C34 C33 1_555 1_555
H56 C34 1_555 1_555
C35 C34 1_555 1_555
H57 C35 1_555 1_555
C36 C31 1_555 1_555
H58 C36 1_555 1_555
C37 B1 1_555 1_555
C38 C37 1_555 1_555
H59 C38 1_555 1_555
C39 C38 1_555 1_555
H60 C39 1_555 1_555
C40 C39 1_555 1_555
H61 C40 1_555 1_555
C41 C40 1_555 1_555
H62 C41 1_555 1_555
C42 C37 1_555 1_555
H63 C42 1_555 1_555
C43 B1 1_555 1_555
C44 C43 1_555 1_555
H64 C44 1_555 1_555
C45 C44 1_555 1_555
H65 C45 1_555 1_555
C46 C45 1_555 1_555
H66 C46 1_555 1_555
C47 C46 1_555 1_555
H67 C47 1_555 1_555
C48 C43 1_555 1_555
H68 C48 1_555 1_555
Mg2 Cl2 1_555 1_555
Mg2 Cl3 1_555 1_555
C3 C4 1_555 1_555
C7 C8 1_555 1_555
C11 C12 1_555 1_555
C15 C16 1_555 1_555
C19 C20 1_555 1_555
C23 C24 1_555 1_555
C29 C30 1_555 1_555
C35 C36 1_555 1_555
C41 C42 1_555 1_555
C47 C48 1_555 1_555

#END
