
#######################################################################
#
#                 Cambridge Crystallographic Data Centre
#                                CCDC 
#
#######################################################################
#
# If this CIF has been generated from an entry in the Cambridge 
# Structural Database, then it will include bibliographic, chemical, 
# crystal, experimental, refinement or atomic coordinate data resulting 
# from the CCDC's data processing and validation procedures.
#
#######################################################################

data_TEZGOW
_chemical_formula_moiety         'C6 H14 N2 O6 P2 2-,H12 Mg1 O6 2+,4(H2 O1)'
_chemical_name_systematic        
'Hexaaqua-magnesium (piperazinediium-1,4-diylbis(methylene))bis(phosphonate) tetrahydrate'
_symmetry_cell_setting           triclinic
_symmetry_space_group_name_H-M   'P -1'
_symmetry_Int_Tables_number      2
_space_group_name_Hall           '-P 1'
loop_
_symmetry_equiv_pos_site_id
_symmetry_equiv_pos_as_xyz
1 x,y,z
2 -x,-y,-z
_cell_length_a                   5.7894(12)
_cell_length_b                   11.803(3)
_cell_length_c                   22.685(5)
_cell_angle_alpha                76.850(2)
_cell_angle_beta                 89.656(2)
_cell_angle_gamma                81.516(2)
_cell_volume                     1492.34
_exptl_crystal_colour            colorless
_exptl_crystal_description       block
_cell_formula_units_Z            3
loop_
_atom_site_label
_atom_site_type_symbol
_atom_site_fract_x
_atom_site_fract_y
_atom_site_fract_z
Mg1 Mg 0.54588(13) 0.65988(7) 0.70505(3)
O1 O 0.4326(3) 0.62427(17) 0.62527(7)
H1 H 0.5389 0.6263 0.5945
H2 H 0.3045 0.5919 0.6233
O2 O 0.4808(4) 0.83722(16) 0.66813(8)
H3 H 0.4367 0.8619 0.6294
H4 H 0.4906 0.8866 0.6931
O3 O 0.2239(3) 0.6592(2) 0.74116(8)
H5 H 0.1167 0.6636 0.7130
H6 H 0.1972 0.6487 0.7809
O4 O 0.6455(3) 0.70503(17) 0.78312(8)
H7 H 0.5591 0.7680 0.7940
H8 H 0.7717 0.6652 0.8070
O5 O 0.6666(3) 0.48492(15) 0.74206(8)
H9 H 0.7848 0.4678 0.7697
H10 H 0.5587 0.4403 0.7406
O6 O 0.8710(3) 0.66167(15) 0.66557(7)
H11 H 0.9265 0.5913 0.6574
H12 H 0.8725 0.7292 0.6369
Mg2 Mg 0.5000 1.0000 0.0000
O7 O 0.4174(3) 0.89987(17) 0.08210(8)
H13 H 0.5106 0.8962 0.1157
H14 H 0.2786 0.8738 0.0875
O8 O 0.6861(3) 1.09042(16) 0.04857(8)
H15 H 0.6434 1.0958 0.0870
H16 H 0.8315 1.0887 0.0369
O9 O 0.8137(3) 0.88530(17) -0.00013(8)
H17 H 0.8287 0.8495 -0.0304
H18 H 0.8662 0.8567 0.0375
O7A O 0.5826(3) 1.10013(17) -0.08210(8)
H13A H 0.4894 1.1038 -0.1157
H14A H 0.7214 1.1262 -0.0875
O8A O 0.3139(3) 0.90958(16) -0.04857(8)
H15A H 0.3566 0.9042 -0.0870
H16A H 0.1685 0.9113 -0.0369
O9A O 0.1863(3) 1.11470(17) 0.00013(8)
H17A H 0.1713 1.1505 0.0304
H18A H 0.1338 1.1433 -0.0375
N1 N 0.0961(3) 0.93659(17) 0.28271(8)
H19 H 0.2411 0.9552 0.2768
N2 N 0.1864(3) 0.76600(16) 0.39751(8)
H20 H 0.0448 0.7482 0.4025
P1 P 0.62256(10) 0.71634(5) 0.46856(3)
P2 P -0.34273(10) 1.00079(5) 0.21090(3)
C1 C 0.1083(4) 0.8082(2) 0.28682(11)
H21 H 0.1655 0.7900 0.2493
H22 H -0.0469 0.7866 0.2927
C2 C 0.2696(4) 0.7376(2) 0.33921(10)
H23 H 0.2737 0.6542 0.3417
H24 H 0.4269 0.7559 0.3322
C3 C 0.1734(4) 0.8948(2) 0.39302(10)
H25 H 0.3282 0.9167 0.3868
H26 H 0.1169 0.9133 0.4306
C4 C 0.0113(4) 0.9642(2) 0.34101(10)
H27 H -0.1450 0.9446 0.3480
H28 H 0.0047 1.0477 0.3386
C5 C -0.0380(4) 1.0168(2) 0.22792(10)
H29 H 0.0522 1.0083 0.1926
H30 H -0.0397 1.0971 0.2318
C6 C 0.3239(4) 0.6918(2) 0.45252(10)
H31 H 0.3336 0.6103 0.4499
H32 H 0.2321 0.7003 0.4876
O10 O 0.6088(3) 0.83848(15) 0.48072(8)
O11 O 0.6942(3) 0.61983(15) 0.52405(7)
O12 O 0.7650(3) 0.70604(15) 0.41292(7)
O13 O -0.4729(3) 0.99001(15) 0.26984(7)
O14 O -0.4273(3) 1.11343(15) 0.16415(7)
O15 O -0.3336(3) 0.89278(15) 0.18518(8)
N3 N 0.5114(3) 0.53505(16) 0.05648(8)
H33 H 0.3633 0.5439 0.0609
P3 P 0.93776(9) 0.52126(5) 0.12323(2)
C7 C 0.6202(4) 0.5647(2) 0.10986(10)
H34 H 0.5436 0.5285 0.1459
H35 H 0.5854 0.6492 0.1054
C8 C 0.5590(4) 0.6150(2) -0.00188(10)
H36 H 0.7247 0.6030 -0.0097
H37 H 0.5140 0.6963 0.0005
C9 C 0.5784(4) 0.41027(19) 0.05297(10)
H38 H 0.5469 0.3587 0.0910
H39 H 0.7444 0.3951 0.0459
O16 O 0.9927(3) 0.58526(15) 0.17145(7)
O17 O 0.9750(3) 0.38851(15) 0.14764(8)
O18 O 1.0566(3) 0.56154(17) 0.06439(7)
N3A N 0.4886(3) 0.46495(16) -0.05648(8)
H33A H 0.6367 0.4561 -0.0609
P3A P 0.06224(9) 0.47874(5) -0.12323(2)
C7A C 0.3798(4) 0.4353(2) -0.10986(10)
H34A H 0.4564 0.4715 -0.1459
H35A H 0.4146 0.3508 -0.1054
C8A C 0.4410(4) 0.3850(2) 0.00188(10)
H36A H 0.2753 0.3970 0.0097
H37A H 0.4860 0.3037 -0.0005
C9A C 0.4216(4) 0.58973(19) -0.05297(10)
H38A H 0.4531 0.6413 -0.0910
H39A H 0.2556 0.6049 -0.0459
O16A O 0.0073(3) 0.41474(15) -0.17145(7)
O17A O 0.0250(3) 0.61149(15) -0.14764(8)
O18A O -0.0566(3) 0.43846(17) -0.06439(7)
O19 O 1.0142(3) 0.81257(16) 0.11563(8)
H40 H 0.9274 0.8537 0.1383
H41 H 1.0429 0.7326 0.1255
O20 O 0.3117(3) 0.93646(16) 0.55332(8)
H42 H 0.3181 1.0143 0.5466
H43 H 0.3954 0.8906 0.5318
O21 O 0.3478(3) 0.33688(17) 0.75489(9)
H44 H 0.2345 0.3815 0.7700
H45 H 0.3842 0.2592 0.7700
O22 O 0.8582(4) 0.80036(18) 0.90163(8)
H46 H 0.9383 0.7349 0.8943
H47 H 0.7406 0.8469 0.8819
O23 O 0.0669(3) 0.51647(17) 0.59729(9)
H48 H 0.1442 0.4440 0.5963
H49 H -0.0508 0.5529 0.5697
O24 O 0.9055(4) 0.84319(19) 0.57550(9)
H50 H 0.8079 0.8396 0.5439
H51 H 1.0453 0.8668 0.5674
loop_
_geom_bond_atom_site_label_1
_geom_bond_atom_site_label_2
_geom_bond_site_symmetry_1
_geom_bond_site_symmetry_2
Mg1 O1 1_555 1_555
O1 H1 1_555 1_555
H2 O1 1_555 1_555
O2 Mg1 1_555 1_555
H3 O2 1_555 1_555
H4 O2 1_555 1_555
O3 Mg1 1_555 1_555
H5 O3 1_555 1_555
H6 O3 1_555 1_555
O4 Mg1 1_555 1_555
H7 O4 1_555 1_555
H8 O4 1_555 1_555
O5 Mg1 1_555 1_555
H9 O5 1_555 1_555
H10 O5 1_555 1_555
O6 Mg1 1_555 1_555
H11 O6 1_555 1_555
H12 O6 1_555 1_555
Mg2 O7 1_555 1_555
O7 H13 1_555 1_555
H14 O7 1_555 1_555
O8 Mg2 1_555 1_555
H15 O8 1_555 1_555
H16 O8 1_555 1_555
O9 Mg2 1_555 1_555
H17 O9 1_555 1_555
H18 O9 1_555 1_555
N1 H19 1_555 1_555
N2 H20 1_555 1_555
P1 C6 1_555 1_555
P2 C5 1_555 1_555
C1 N1 1_555 1_555
H21 C1 1_555 1_555
H22 C1 1_555 1_555
C2 N2 1_555 1_555
H23 C2 1_555 1_555
H24 C2 1_555 1_555
C3 N2 1_555 1_555
H25 C3 1_555 1_555
H26 C3 1_555 1_555
C4 N1 1_555 1_555
H27 C4 1_555 1_555
H28 C4 1_555 1_555
C5 N1 1_555 1_555
H29 C5 1_555 1_555
H30 C5 1_555 1_555
C6 N2 1_555 1_555
H31 C6 1_555 1_555
H32 C6 1_555 1_555
O10 P1 1_555 1_555
O11 P1 1_555 1_555
O12 P1 1_555 1_555
O13 P2 1_555 1_555
O14 P2 1_555 1_555
O15 P2 1_555 1_555
N3 H33 1_555 1_555
P3 C7 1_555 1_555
C7 N3 1_555 1_555
H34 C7 1_555 1_555
H35 C7 1_555 1_555
C8 N3 1_555 1_555
H36 C8 1_555 1_555
H37 C8 1_555 1_555
C9 N3 1_555 1_555
H38 C9 1_555 1_555
H39 C9 1_555 1_555
O16 P3 1_555 1_555
O17 P3 1_555 1_555
O18 P3 1_555 1_555
O19 H40 1_555 1_555
H41 O19 1_555 1_555
O20 H42 1_555 1_555
H43 O20 1_555 1_555
O21 H44 1_555 1_555
H45 O21 1_555 1_555
O22 H46 1_555 1_555
H47 O22 1_555 1_555
O23 H48 1_555 1_555
H49 O23 1_555 1_555
O24 H50 1_555 1_555
H51 O24 1_555 1_555
O7A Mg2 1_555 1_555
H13A O7A 1_555 1_555
H14A O7A 1_555 1_555
O8A Mg2 1_555 1_555
H15A O8A 1_555 1_555
H16A O8A 1_555 1_555
O9A Mg2 1_555 1_555
H17A O9A 1_555 1_555
H18A O9A 1_555 1_555
N3A H33A 1_555 1_555
P3A C7A 1_555 1_555
C7A N3A 1_555 1_555
H34A C7A 1_555 1_555
H35A C7A 1_555 1_555
C8A C9 1_555 1_555
H36A C8A 1_555 1_555
H37A C8A 1_555 1_555
C9A C8 1_555 1_555
H38A C9A 1_555 1_555
H39A C9A 1_555 1_555
O16A P3A 1_555 1_555
O17A P3A 1_555 1_555
O18A P3A 1_555 1_555
C1 C2 1_555 1_555
C3 C4 1_555 1_555
N3A C8A 1_555 1_555
N3A C9A 1_555 1_555

#END
