
#######################################################################
#
#                 Cambridge Crystallographic Data Centre
#                                CCDC 
#
#######################################################################
#
# If this CIF has been generated from an entry in the Cambridge 
# Structural Database, then it will include bibliographic, chemical, 
# crystal, experimental, refinement or atomic coordinate data resulting 
# from the CCDC's data processing and validation procedures.
#
#######################################################################

data_TEZHAJ
_chemical_formula_moiety         'C32 H50 O3'
_chemical_name_systematic        '28-Oxolup-20(29)-en-3-yl acetate'
_symmetry_cell_setting           monoclinic
_symmetry_space_group_name_H-M   'C 2'
_symmetry_Int_Tables_number      5
_space_group_name_Hall           'C 2y'
loop_
_symmetry_equiv_pos_site_id
_symmetry_equiv_pos_as_xyz
1 x,y,z
2 -x,y,-z
3 1/2+x,1/2+y,z
4 1/2-x,1/2+y,-z
_cell_length_a                   14.428(3)
_cell_length_b                   6.6620(13)
_cell_length_c                   30.399(6)
_cell_angle_alpha                90
_cell_angle_beta                 103.73(3)
_cell_angle_gamma                90
_cell_volume                     2838.44
_cell_formula_units_Z            4
loop_
_atom_site_label
_atom_site_type_symbol
_atom_site_fract_x
_atom_site_fract_y
_atom_site_fract_z
O1 O 0.7405(4) -0.5334(9) 0.42138(17)
C1 C 0.9087(4) -0.1140(10) 0.39479(19)
O2 O 0.7816(4) -0.2098(9) 0.43089(15)
C2 C 0.8058(4) -0.1968(11) 0.3873(2)
H1 H 0.8050 -0.3330 0.3751
O3 O 1.0009(4) 0.4218(8) 0.12184(18)
C3 C 0.7301(4) -0.0786(14) 0.3563(2)
H2 H 0.7272 0.0552 0.3685
H3 H 0.6687 -0.1426 0.3539
C4 C 0.7514(3) -0.0644(11) 0.30936(19)
H4 H 0.7019 0.0145 0.2897
H5 H 0.7498 -0.1980 0.2965
C5 C 0.8491(3) 0.0317(8) 0.31080(16)
C6 C 0.9256(3) -0.0872(8) 0.34607(17)
H6 H 0.9227 -0.2237 0.3338
C7 C 0.8732(3) -0.0023(7) 0.26405(14)
H7 H 0.8678 -0.1478 0.2595
C8 C 0.9759(3) 0.0476(7) 0.26016(15)
C9 C 1.0477(3) -0.0499(9) 0.30020(15)
H8 H 1.0491 -0.1934 0.2949
H9 H 1.1109 0.0023 0.3010
C10 C 1.0255(3) -0.0142(9) 0.34620(16)
H10 H 1.0717 -0.0850 0.3694
H11 H 1.0306 0.1279 0.3533
C11 C 0.7991(3) 0.0857(10) 0.22361(15)
H12 H 0.7358 0.0441 0.2257
H13 H 0.8016 0.2310 0.2254
C12 C 0.8151(3) 0.0203(10) 0.17807(16)
H14 H 0.7698 0.0893 0.1541
H15 H 0.8030 -0.1226 0.1743
C13 C 0.9163(3) 0.0646(7) 0.17338(14)
H16 H 0.9255 0.2102 0.1763
C14 C 0.9916(3) -0.0352(7) 0.21332(16)
C15 C 0.9348(3) 0.0050(8) 0.12841(14)
H17 H 0.9328 -0.1420 0.1274
C16 C 1.0346(3) 0.0654(9) 0.12378(16)
C17 C 1.1090(3) -0.0400(10) 0.16082(15)
H18 H 1.1726 0.0007 0.1590
H19 H 1.1039 -0.1842 0.1566
C18 C 1.0924(3) 0.0161(10) 0.20748(15)
H20 H 1.1031 0.1591 0.2122
H21 H 1.1391 -0.0535 0.2307
C19 C 0.8671(3) 0.0791(10) 0.08327(15)
H22 H 0.8486 0.2183 0.0872
C20 C 0.9323(3) 0.0749(13) 0.04916(17)
H23 H 0.9064 -0.0164 0.0244
H24 H 0.9362 0.2078 0.0367
C21 C 1.0303(3) 0.0053(12) 0.07464(17)
H25 H 1.0800 0.0718 0.0635
H26 H 1.0369 -0.1388 0.0719
C22 C 0.9789(5) -0.2736(13) 0.4192(2)
H27 H 0.9709 -0.2915 0.4494
H28 H 1.0430 -0.2310 0.4204
H29 H 0.9667 -0.3984 0.4030
C23 C 0.9213(4) 0.0783(12) 0.4233(2)
H30 H 0.9105 0.0493 0.4526
H31 H 0.8763 0.1774 0.4085
H32 H 0.9849 0.1286 0.4267
C24 C 0.8413(4) 0.2546(10) 0.32254(19)
H33 H 0.8005 0.2683 0.3431
H34 H 0.8150 0.3288 0.2954
H35 H 0.9035 0.3058 0.3364
C25 C 0.9931(3) 0.2755(8) 0.26284(18)
H36 H 0.9842 0.3252 0.2912
H37 H 0.9488 0.3403 0.2384
H38 H 1.0571 0.3035 0.2606
C26 C 0.9823(4) -0.2653(8) 0.21156(19)
H39 H 0.9914 -0.3133 0.1831
H40 H 0.9200 -0.3031 0.2147
H41 H 1.0298 -0.3233 0.2358
C27 C 1.0546(4) 0.2871(11) 0.12678(19)
H42 H 1.1188 0.3224 0.1335
C28 C 0.7769(4) -0.0458(13) 0.06581(18)
C29 C 0.6951(4) 0.0442(19) 0.0516(2)
H43 H 0.6403 -0.0306 0.0400
H44 H 0.6916 0.1834 0.0529
C30 C 0.7874(5) -0.2676(14) 0.0646(3)
H45 H 0.7261 -0.3277 0.0527
H46 H 0.8134 -0.3167 0.0946
H47 H 0.8294 -0.3016 0.0455
C31 C 0.7437(5) -0.3766(15) 0.4423(2)
C32 C 0.7061(5) -0.3460(17) 0.4841(2)
H48 H 0.6789 -0.4691 0.4915
H49 H 0.6582 -0.2432 0.4784
H50 H 0.7575 -0.3062 0.5089
loop_
_geom_bond_atom_site_label_1
_geom_bond_atom_site_label_2
_geom_bond_site_symmetry_1
_geom_bond_site_symmetry_2
O1 C31 1_555 1_555
C1 C2 1_555 1_555
O2 C2 1_555 1_555
C2 H1 1_555 1_555
O3 C27 1_555 1_555
C3 C2 1_555 1_555
H2 C3 1_555 1_555
H3 C3 1_555 1_555
C4 C3 1_555 1_555
H4 C4 1_555 1_555
H5 C4 1_555 1_555
C5 C4 1_555 1_555
C6 C1 1_555 1_555
H6 C6 1_555 1_555
C7 C5 1_555 1_555
H7 C7 1_555 1_555
C8 C7 1_555 1_555
C9 C8 1_555 1_555
H8 C9 1_555 1_555
H9 C9 1_555 1_555
C10 C6 1_555 1_555
H10 C10 1_555 1_555
H11 C10 1_555 1_555
C11 C7 1_555 1_555
H12 C11 1_555 1_555
H13 C11 1_555 1_555
C12 C11 1_555 1_555
H14 C12 1_555 1_555
H15 C12 1_555 1_555
C13 C12 1_555 1_555
H16 C13 1_555 1_555
C14 C8 1_555 1_555
C15 C13 1_555 1_555
H17 C15 1_555 1_555
C16 C15 1_555 1_555
C17 C16 1_555 1_555
H18 C17 1_555 1_555
H19 C17 1_555 1_555
C18 C14 1_555 1_555
H20 C18 1_555 1_555
H21 C18 1_555 1_555
C19 C15 1_555 1_555
H22 C19 1_555 1_555
C20 C19 1_555 1_555
H23 C20 1_555 1_555
H24 C20 1_555 1_555
C21 C16 1_555 1_555
H25 C21 1_555 1_555
H26 C21 1_555 1_555
C22 C1 1_555 1_555
H27 C22 1_555 1_555
H28 C22 1_555 1_555
H29 C22 1_555 1_555
C23 C1 1_555 1_555
H30 C23 1_555 1_555
H31 C23 1_555 1_555
H32 C23 1_555 1_555
C24 C5 1_555 1_555
H33 C24 1_555 1_555
H34 C24 1_555 1_555
H35 C24 1_555 1_555
C25 C8 1_555 1_555
H36 C25 1_555 1_555
H37 C25 1_555 1_555
H38 C25 1_555 1_555
C26 C14 1_555 1_555
H39 C26 1_555 1_555
H40 C26 1_555 1_555
H41 C26 1_555 1_555
C27 C16 1_555 1_555
H42 C27 1_555 1_555
C28 C19 1_555 1_555
C29 C28 1_555 1_555
H43 C29 1_555 1_555
H44 C29 1_555 1_555
C30 C28 1_555 1_555
H45 C30 1_555 1_555
H46 C30 1_555 1_555
H47 C30 1_555 1_555
C31 O2 1_555 1_555
C32 C31 1_555 1_555
H48 C32 1_555 1_555
H49 C32 1_555 1_555
H50 C32 1_555 1_555
C5 C6 1_555 1_555
C9 C10 1_555 1_555
C13 C14 1_555 1_555
C17 C18 1_555 1_555
C20 C21 1_555 1_555

#END
