
#######################################################################
#
#                 Cambridge Crystallographic Data Centre
#                                CCDC 
#
#######################################################################
#
# If this CIF has been generated from an entry in the Cambridge 
# Structural Database, then it will include bibliographic, chemical, 
# crystal, experimental, refinement or atomic coordinate data resulting 
# from the CCDC's data processing and validation procedures.
#
#######################################################################

data_TEZJOZ
_chemical_formula_moiety         'C25 H23 Br1 N2'
_chemical_name_systematic        
7-(4-Bromophenyl)-5,8a-diphenyl-1,2,3,7,8,8a-hexahydroimidazo[1,2-a]pyridine
_symmetry_cell_setting           triclinic
_symmetry_space_group_name_H-M   'P -1'
_symmetry_Int_Tables_number      2
_space_group_name_Hall           '-P 1'
loop_
_symmetry_equiv_pos_site_id
_symmetry_equiv_pos_as_xyz
1 x,y,z
2 -x,-y,-z
_cell_length_a                   9.852(9)
_cell_length_b                   13.847(12)
_cell_length_c                   16.961(15)
_cell_angle_alpha                83.157(13)
_cell_angle_beta                 80.043(15)
_cell_angle_gamma                72.698(16)
_cell_volume                     2170.21
_exptl_crystal_colour            colorless
_exptl_crystal_description       block
_cell_formula_units_Z            4
loop_
_atom_site_label
_atom_site_type_symbol
_atom_site_fract_x
_atom_site_fract_y
_atom_site_fract_z
Br1 Br 0.18659(10) 1.04213(5) 0.88055(5)
C1 C 0.4757(6) 0.5831(4) 0.8648(3)
H1 H 0.5688 0.5698 0.8834
N1 N 0.4492(5) 0.3882(3) 0.8333(3)
C2 C 0.3940(6) 0.5223(4) 0.9197(3)
H2 H 0.3516 0.5461 0.9697
C3 C 0.3769(6) 0.4357(4) 0.9026(3)
C4 C 0.4061(6) 0.6955(4) 0.8652(3)
C5 C 0.5597(6) 0.4307(4) 0.7847(3)
C6 C 0.2782(8) 0.9018(4) 0.8709(3)
C7 C 0.5064(6) 0.5461(4) 0.7796(3)
H3 H 0.4195 0.5689 0.7548
H4 H 0.5786 0.5740 0.7468
C8 C 0.2910(6) 0.3779(4) 0.9593(3)
C9 C 0.7023(6) 0.3936(4) 0.8183(3)
N2 N 0.5774(6) 0.3930(4) 0.7059(3)
H5 H 0.6544 0.3794 0.6715
C10 C 0.8518(8) 0.2984(5) 0.9136(4)
H6 H 0.8631 0.2557 0.9601
C11 C 0.3229(7) 0.2749(4) 0.9590(4)
H7 H 0.3970 0.2409 0.9215
C12 C 0.4178(8) 0.8624(4) 0.8804(4)
H8 H 0.4700 0.9049 0.8896
C13 C 0.7207(6) 0.3293(4) 0.8858(3)
H9 H 0.6446 0.3063 0.9132
C14 C 0.2639(7) 0.7384(4) 0.8553(4)
H10 H 0.2107 0.6966 0.8460
C15 C 0.4833(7) 0.7603(4) 0.8766(4)
H11 H 0.5801 0.7344 0.8818
C16 C 0.1987(7) 0.8398(5) 0.8585(4)
H12 H 0.1024 0.8666 0.8524
C17 C 0.1789(7) 0.4268(5) 1.0158(4)
H13 H 0.1530 0.4970 1.0165
C18 C 0.2464(8) 0.2196(5) 1.0138(5)
H14 H 0.2685 0.1497 1.0119
C19 C 0.9668(8) 0.3305(6) 0.8724(5)
H15 H 1.0555 0.3090 0.8907
C20 C 0.8206(7) 0.4251(5) 0.7767(4)
H16 H 0.8112 0.4671 0.7297
C21 C 0.1400(9) 0.2677(6) 1.0695(5)
H17 H 0.0904 0.2306 1.1067
C22 C 0.9484(8) 0.3936(6) 0.8054(5)
H18 H 1.0251 0.4160 0.7783
C23 C 0.1055(8) 0.3700(6) 1.0715(4)
H19 H 0.0325 0.4026 1.1101
C24 C 0.4329(8) 0.3827(6) 0.6969(4)
H20 H 0.3763 0.4445 0.6714
H21 H 0.4443 0.3268 0.6645
C25 C 0.3632(8) 0.3635(6) 0.7779(4)
H22 H 0.3629 0.2931 0.7874
H23 H 0.2647 0.4062 0.7858
Br2 Br 0.31988(11) 0.93655(6) 0.08825(4)
C26 C 0.2142(6) 0.8607(4) 0.4566(3)
H24 H 0.1260 0.8396 0.4715
N3 N 0.3117(5) 0.8969(4) 0.6007(3)
C27 C 0.2413(6) 0.9793(4) 0.5505(3)
C28 C 0.2928(8) 0.9065(4) 0.2012(3)
C29 C 0.1880(6) 0.9635(4) 0.4874(3)
H25 H 0.1310 1.0195 0.4608
C30 C 0.3066(7) 0.7966(5) 0.5855(3)
C31 C 0.3342(7) 0.7829(5) 0.4952(3)
H26 H 0.4265 0.7930 0.4719
H27 H 0.3355 0.7148 0.4859
C32 C 0.2479(6) 0.8698(4) 0.3655(3)
C33 C 0.2199(6) 1.0809(5) 0.5747(4)
C34 C 0.1648(7) 0.7762(5) 0.6259(4)
C35 C 0.3675(8) 0.9009(5) 0.3270(4)
H28 H 0.4308 0.9118 0.3575
C36 C 0.1559(7) 0.8560(5) 0.3184(4)
H29 H 0.0777 0.8332 0.3424
C37 C 0.1776(7) 0.8754(5) 0.2361(4)
H30 H 0.1134 0.8671 0.2050
C38 C 0.1925(7) 1.1645(5) 0.5210(4)
H31 H 0.1903 1.1560 0.4677
C39 C 0.0549(8) 0.8457(6) 0.6680(4)
H32 H 0.0648 0.9099 0.6707
C40 C 0.2239(7) 1.0989(5) 0.6536(4)
H33 H 0.2437 1.0439 0.6912
N4 N 0.4248(6) 0.7271(4) 0.6249(4)
H34 H 0.4316 0.6652 0.6424
C41 C 0.3921(8) 0.9155(5) 0.2453(4)
H35 H 0.4752 0.9313 0.2200
C42 C -0.0680(9) 0.8249(7) 0.7059(5)
H36 H -0.1385 0.8745 0.7342
C43 C 0.1998(8) 1.1940(6) 0.6775(5)
H37 H 0.2022 1.2032 0.7306
C44 C 0.1469(10) 0.6813(6) 0.6211(5)
H38 H 0.2179 0.6312 0.5935
C45 C 0.1677(9) 1.2618(5) 0.5451(5)
H39 H 0.1482 1.3172 0.5078
C46 C -0.0887(10) 0.7342(10) 0.7031(5)
H40 H -0.1718 0.7194 0.7297
C47 C 0.4579(8) 0.8897(6) 0.6122(5)
H41 H 0.4575 0.9272 0.6571
H42 H 0.5091 0.9159 0.5643
C48 C 0.0163(14) 0.6643(8) 0.6599(6)
H43 H 0.0012 0.6020 0.6557
C49 C 0.5241(9) 0.7806(6) 0.6284(6)
H44 H 0.6085 0.7574 0.5890
H45 H 0.5539 0.7682 0.6812
C50 C 0.1717(8) 1.2770(6) 0.6215(5)
H46 H 0.1558 1.3422 0.6368
loop_
_geom_bond_atom_site_label_1
_geom_bond_atom_site_label_2
_geom_bond_site_symmetry_1
_geom_bond_site_symmetry_2
Br1 C6 1_555 1_555
C1 H1 1_555 1_555
N1 C3 1_555 1_555
C2 C1 1_555 1_555
H2 C2 1_555 1_555
C3 C2 1_555 1_555
C4 C1 1_555 1_555
C5 N1 1_555 1_555
C6 C12 1_555 1_555
C7 C1 1_555 1_555
H3 C7 1_555 1_555
H4 C7 1_555 1_555
C8 C3 1_555 1_555
C9 C5 1_555 1_555
N2 C5 1_555 1_555
H5 N2 1_555 1_555
C10 H6 1_555 1_555
C11 C8 1_555 1_555
H7 C11 1_555 1_555
C12 H8 1_555 1_555
C13 C9 1_555 1_555
H9 C13 1_555 1_555
C14 C4 1_555 1_555
H10 C14 1_555 1_555
C15 C4 1_555 1_555
H11 C15 1_555 1_555
C16 C6 1_555 1_555
H12 C16 1_555 1_555
C17 C8 1_555 1_555
H13 C17 1_555 1_555
C18 C11 1_555 1_555
H14 C18 1_555 1_555
C19 C10 1_555 1_555
H15 C19 1_555 1_555
C20 C9 1_555 1_555
H16 C20 1_555 1_555
C21 C18 1_555 1_555
H17 C21 1_555 1_555
C22 C19 1_555 1_555
H18 C22 1_555 1_555
C23 C17 1_555 1_555
H19 C23 1_555 1_555
C24 N2 1_555 1_555
H20 C24 1_555 1_555
H21 C24 1_555 1_555
C25 N1 1_555 1_555
H22 C25 1_555 1_555
H23 C25 1_555 1_555
Br2 C28 1_555 1_555
C26 H24 1_555 1_555
N3 C27 1_555 1_555
C27 C29 1_555 1_555
C28 C37 1_555 1_555
C29 C26 1_555 1_555
H25 C29 1_555 1_555
C30 N3 1_555 1_555
C31 C26 1_555 1_555
H26 C31 1_555 1_555
H27 C31 1_555 1_555
C32 C26 1_555 1_555
C33 C27 1_555 1_555
C34 C30 1_555 1_555
C35 C32 1_555 1_555
H28 C35 1_555 1_555
C36 C32 1_555 1_555
H29 C36 1_555 1_555
C37 C36 1_555 1_555
H30 C37 1_555 1_555
C38 C33 1_555 1_555
H31 C38 1_555 1_555
C39 C34 1_555 1_555
H32 C39 1_555 1_555
C40 C33 1_555 1_555
H33 C40 1_555 1_555
N4 C30 1_555 1_555
H34 N4 1_555 1_555
C41 C28 1_555 1_555
H35 C41 1_555 1_555
C42 C39 1_555 1_555
H36 C42 1_555 1_555
C43 C40 1_555 1_555
H37 C43 1_555 1_555
C44 C34 1_555 1_555
H38 C44 1_555 1_555
C45 C38 1_555 1_555
H39 C45 1_555 1_555
C46 C42 1_555 1_555
H40 C46 1_555 1_555
C47 N3 1_555 1_555
H41 C47 1_555 1_555
H42 C47 1_555 1_555
C48 C44 1_555 1_555
H43 C48 1_555 1_555
C49 N4 1_555 1_555
H44 C49 1_555 1_555
H45 C49 1_555 1_555
C50 C43 1_555 1_555
H46 C50 1_555 1_555
C5 C7 1_555 1_555
C10 C13 1_555 1_555
C12 C15 1_555 1_555
C14 C16 1_555 1_555
C20 C22 1_555 1_555
C21 C23 1_555 1_555
C24 C25 1_555 1_555
C30 C31 1_555 1_555
C35 C41 1_555 1_555
C45 C50 1_555 1_555
C46 C48 1_555 1_555
C47 C49 1_555 1_555

#END
