
#######################################################################
#
#                 Cambridge Crystallographic Data Centre
#                                CCDC 
#
#######################################################################
#
# If this CIF has been generated from an entry in the Cambridge 
# Structural Database, then it will include bibliographic, chemical, 
# crystal, experimental, refinement or atomic coordinate data resulting 
# from the CCDC's data processing and validation procedures.
#
#######################################################################

data_TEZMAP
_chemical_formula_moiety         'C6 H8 N3 O2 1+,C6 H5 O3 S1 1-'
_chemical_name_systematic        '4-amino-3-nitroanilinium benzenesulfonate'
_symmetry_cell_setting           monoclinic
_symmetry_space_group_name_H-M   'P 21/n'
_symmetry_Int_Tables_number      14
_space_group_name_Hall           '-P 2yn'
loop_
_symmetry_equiv_pos_site_id
_symmetry_equiv_pos_as_xyz
1 x,y,z
2 1/2-x,1/2+y,1/2-z
3 -x,-y,-z
4 1/2+x,1/2-y,1/2+z
_cell_length_a                   7.3537(3)
_cell_length_b                   14.8454(11)
_cell_length_c                   12.3215(5)
_cell_angle_alpha                90
_cell_angle_beta                 94.038(4)
_cell_angle_gamma                90
_cell_volume                     1341.78
_exptl_crystal_colour            colorless
_exptl_crystal_description       block
_cell_formula_units_Z            4
loop_
_atom_site_label
_atom_site_type_symbol
_atom_site_fract_x
_atom_site_fract_y
_atom_site_fract_z
C1 C 1.2876(4) 0.20251(19) -0.1092(2)
C2 C 1.3669(4) 0.2155(2) -0.0052(3)
H1 H 1.395833 0.166389 0.039489
C3 C 1.4028(5) 0.3020(3) 0.0318(4)
H2 H 1.454685 0.311173 0.101971
C4 C 1.3624(5) 0.3736(3) -0.0339(5)
H3 H 1.390059 0.431481 -0.008972
C5 C 1.2820(5) 0.3620(2) -0.1359(4)
H4 H 1.253895 0.411735 -0.179758
C6 C 1.2414(5) 0.2751(2) -0.1749(3)
H5 H 1.184350 0.266656 -0.243885
O1 O 1.0981(3) 0.09296(17) -0.23670(19)
O2 O 1.2322(5) 0.03593(17) -0.0682(2)
O3 O 1.4214(3) 0.07184(15) -0.21494(17)
S1 S 1.25673(10) 0.09222(5) -0.16027(6)
C7 C 0.8557(4) 0.33491(18) -0.0037(2)
C8 C 0.7928(4) 0.31657(17) -0.1120(2)
C9 C 0.7656(3) 0.22869(18) -0.1501(2)
H6 H 0.722741 0.218310 -0.221865
C10 C 0.8024(4) 0.15855(17) -0.0813(2)
C11 C 0.8695(4) 0.17334(19) 0.0255(2)
H7 H 0.896352 0.124815 0.071609
C12 C 0.8958(4) 0.25891(19) 0.0622(2)
H8 H 0.942004 0.267698 0.133626
N1 N 0.8817(4) 0.41713(18) 0.0401(2)
N2 N 0.7769(4) 0.06638(16) -0.1222(2)
N3 N 0.7514(3) 0.38777(17) -0.18857(19)
O4 O 0.7698(3) 0.46661(14) -0.15869(17)
O5 O 0.6983(4) 0.36894(16) -0.28218(18)
H9 H 0.857(5) 0.461(3) 0.002(3)
H10 H 0.904(5) 0.420(2) 0.109(3)
H11 H 0.654(5) 0.063(2) -0.159(3)
H12 H 0.778(4) 0.031(2) -0.068(3)
H13 H 0.871(5) 0.057(3) -0.166(3)
loop_
_geom_bond_atom_site_label_1
_geom_bond_atom_site_label_2
_geom_bond_site_symmetry_1
_geom_bond_site_symmetry_2
C1 C2 1_555 1_555
C2 H1 1_555 1_555
C3 C2 1_555 1_555
H2 C3 1_555 1_555
C4 C3 1_555 1_555
H3 C4 1_555 1_555
C5 C4 1_555 1_555
H4 C5 1_555 1_555
C6 C1 1_555 1_555
H5 C6 1_555 1_555
O1 S1 1_555 1_555
O2 S1 1_555 1_555
O3 S1 1_555 1_555
S1 C1 1_555 1_555
C7 C8 1_555 1_555
C8 C9 1_555 1_555
C9 H6 1_555 1_555
C10 C9 1_555 1_555
C11 C10 1_555 1_555
H7 C11 1_555 1_555
C12 C7 1_555 1_555
H8 C12 1_555 1_555
N1 C7 1_555 1_555
N2 C10 1_555 1_555
N3 C8 1_555 1_555
O4 N3 1_555 1_555
O5 N3 1_555 1_555
H9 N1 1_555 1_555
H10 N1 1_555 1_555
H11 N2 1_555 1_555
H12 N2 1_555 1_555
H13 N2 1_555 1_555
C5 C6 1_555 1_555
C11 C12 1_555 1_555

#END
