
#######################################################################
#
#                 Cambridge Crystallographic Data Centre
#                                CCDC 
#
#######################################################################
#
# If this CIF has been generated from an entry in the Cambridge 
# Structural Database, then it will include bibliographic, chemical, 
# crystal, experimental, refinement or atomic coordinate data resulting 
# from the CCDC's data processing and validation procedures.
#
#######################################################################

data_TEZMIX
_chemical_formula_moiety         'C6 H8 Cl2 N2 2+,2(C6 H5 O4 S1 1-)'
_chemical_name_systematic        
'2,5-dichlorobenzene-1,4-diaminium bis(4-hydroxybenzene-1-sulfonate)'
_symmetry_cell_setting           monoclinic
_symmetry_space_group_name_H-M   'P 21/c'
_symmetry_Int_Tables_number      14
_space_group_name_Hall           '-P 2ybc'
loop_
_symmetry_equiv_pos_site_id
_symmetry_equiv_pos_as_xyz
1 x,y,z
2 -x,1/2+y,1/2-z
3 -x,-y,-z
4 x,1/2-y,1/2+z
_cell_length_a                   8.1551(3)
_cell_length_b                   5.7169(3)
_cell_length_c                   22.5197(9)
_cell_angle_alpha                90
_cell_angle_beta                 94.011(3)
_cell_angle_gamma                90
_cell_volume                     1047.34
_exptl_crystal_colour            colorless
_exptl_crystal_description       block
_cell_formula_units_Z            2
loop_
_atom_site_label
_atom_site_type_symbol
_atom_site_fract_x
_atom_site_fract_y
_atom_site_fract_z
C1 C 0.2854(3) 0.9770(5) 0.27929(10)
C2 C 0.3216(3) 0.7684(5) 0.25216(12)
H1 H 0.398730 0.667033 0.270452
C3 C 0.2427(3) 0.7105(4) 0.19759(11)
H2 H 0.266354 0.569836 0.179279
C4 C 0.1287(3) 0.8624(4) 0.17048(10)
C5 C 0.0998(3) 1.0769(4) 0.19647(10)
H3 H 0.027003 1.182293 0.177355
C6 C 0.1787(3) 1.1342(4) 0.25055(11)
H4 H 0.160148 1.278837 0.267721
O1 O 0.3569(3) 1.0221(4) 0.33450(9)
O2 O -0.1567(2) 0.8550(3) 0.11310(7)
O3 O 0.0318(2) 0.5397(3) 0.09468(8)
O4 O 0.0770(2) 0.9310(3) 0.05717(7)
S1 S 0.01367(7) 0.79023(11) 0.10425(2)
H5 H 0.315(5) 1.133(6) 0.3482(16)
C7 C 0.3478(3) 0.4336(4) 0.01809(10)
C8 C 0.3603(3) 0.6185(4) -0.02030(10)
C9 C 0.5118(3) 0.6861(4) -0.03882(10)
N1 N 0.2112(3) 0.7439(4) -0.04047(10)
Cl1 Cl 0.52885(8) 0.91996(11) -0.08630(3)
H6 H 0.230(3) 0.869(5) -0.0649(12)
H7 H 0.146(4) 0.647(5) -0.0577(12)
H8 H 0.167(3) 0.807(5) -0.0097(12)
H9 H 0.250(3) 0.396(4) 0.0301(10)
C7B C 0.6522(3) 0.5664(4) -0.01809(10)
C8B C 0.6397(3) 0.3815(4) 0.02030(10)
C9B C 0.4882(3) 0.3139(4) 0.03882(10)
N1B N 0.7888(3) 0.2561(4) 0.04047(10)
Cl1B Cl 0.47115(8) 0.08004(11) 0.08630(3)
H6B H 0.770(3) 0.131(5) 0.0649(12)
H7B H 0.854(4) 0.353(5) 0.0577(12)
H8B H 0.833(3) 0.193(5) 0.0097(12)
H9B H 0.750(3) 0.604(4) -0.0301(10)
loop_
_geom_bond_atom_site_label_1
_geom_bond_atom_site_label_2
_geom_bond_site_symmetry_1
_geom_bond_site_symmetry_2
C1 C2 1_555 1_555
C2 H1 1_555 1_555
C3 C2 1_555 1_555
H2 C3 1_555 1_555
C4 C3 1_555 1_555
C5 C4 1_555 1_555
H3 C5 1_555 1_555
C6 C1 1_555 1_555
H4 C6 1_555 1_555
O1 C1 1_555 1_555
O2 S1 1_555 1_555
O3 S1 1_555 1_555
O4 S1 1_555 1_555
S1 C4 1_555 1_555
H5 O1 1_555 1_555
C7 C8 1_555 1_555
C8 C9 1_555 1_555
C9 Cl1 1_555 1_555
N1 C8 1_555 1_555
H6 N1 1_555 1_555
H7 N1 1_555 1_555
H8 N1 1_555 1_555
H9 C7 1_555 1_555
C7B C9 1_555 1_555
C8B C7B 1_555 1_555
C9B C7 1_555 1_555
N1B C8B 1_555 1_555
Cl1B C9B 1_555 1_555
H6B N1B 1_555 1_555
H7B N1B 1_555 1_555
H8B N1B 1_555 1_555
H9B C7B 1_555 1_555
C5 C6 1_555 1_555
C8B C9B 1_555 1_555

#END
