
#######################################################################
#
#                 Cambridge Crystallographic Data Centre
#                                CCDC 
#
#######################################################################
#
# If this CIF has been generated from an entry in the Cambridge 
# Structural Database, then it will include bibliographic, chemical, 
# crystal, experimental, refinement or atomic coordinate data resulting 
# from the CCDC's data processing and validation procedures.
#
#######################################################################

data_TEZRAT
_chemical_formula_moiety         'C7 H3 N2 O7 1-,C6 H7 Cl1 N1 O1 1+,H2 O1'
_chemical_name_systematic        
'5-Chloro-2-hydroxyanilinium 2-carboxy-4,6-dinitrophenolate monohydrate'
_symmetry_cell_setting           monoclinic
_symmetry_space_group_name_H-M   'P 21/n'
_symmetry_Int_Tables_number      14
_space_group_name_Hall           '-P 2yn'
loop_
_symmetry_equiv_pos_site_id
_symmetry_equiv_pos_as_xyz
1 x,y,z
2 1/2-x,1/2+y,1/2-z
3 -x,-y,-z
4 1/2+x,1/2-y,1/2+z
_cell_length_a                   7.1541(6)
_cell_length_b                   7.2988(7)
_cell_length_c                   29.388(2)
_cell_angle_alpha                90
_cell_angle_beta                 96.3860(10)
_cell_angle_gamma                90
_cell_volume                     1525.01
_exptl_crystal_colour            colorless
_exptl_crystal_description       block
_cell_formula_units_Z            4
loop_
_atom_site_label
_atom_site_type_symbol
_atom_site_fract_x
_atom_site_fract_y
_atom_site_fract_z
Cl1 Cl 0.49893(12) 0.99178(12) 0.05744(2)
N1 N 0.6177(3) 0.7150(3) 0.21860(6)
H1 H 0.5993 0.8320 0.2254
H2 H 0.7258 0.6767 0.2334
H3 H 0.5237 0.6476 0.2270
O1 O 0.7492(3) 0.4014(3) 0.18370(6)
H4 H 0.7825 0.3109 0.1702
C1 C 0.6907(3) 0.5336(4) 0.15284(8)
C2 C 0.6247(3) 0.6966(3) 0.16907(8)
C3 C 0.5664(3) 0.8372(4) 0.14042(8)
H5 H 0.5250 0.9466 0.1521
C4 C 0.5695(4) 0.8149(4) 0.09414(8)
C5 C 0.6293(4) 0.6521(4) 0.07712(9)
H6 H 0.6286 0.6369 0.0457
C6 C 0.6897(4) 0.5126(4) 0.10611(8)
H7 H 0.7303 0.4031 0.0943
N2 N 0.2768(3) 0.3923(3) 0.15502(9)
N3 N 0.0717(4) 0.7117(4) 0.01406(8)
O2 O -0.0931(3) 1.1422(3) 0.14019(7)
O3 O 0.0246(3) 1.0104(3) 0.20417(6)
H8 H 0.0812 0.9158 0.2119
O4 O 0.1863(3) 0.7189(3) 0.20336(6)
O5 O 0.3047(4) 0.3875(3) 0.19692(7)
O6 O 0.3171(3) 0.2648(3) 0.13179(8)
O7 O 0.1767(3) 0.6141(3) -0.00559(7)
O8 O -0.0499(4) 0.8079(3) -0.00528(7)
C7 C -0.0077(4) 1.0162(4) 0.15967(9)
C8 C 0.0609(3) 0.8582(3) 0.13465(8)
C9 C 0.1487(3) 0.7088(4) 0.15909(8)
C10 C 0.1952(3) 0.5557(4) 0.13335(9)
C11 C 0.1721(3) 0.5576(4) 0.08614(9)
H9 H 0.2084 0.4576 0.0696
C12 C 0.0948(4) 0.7092(4) 0.06410(8)
C13 C 0.0337(3) 0.8584(4) 0.08727(8)
H10 H -0.0244 0.9569 0.0714
O9 O 0.5342(3) 0.0853(3) 0.23446(6)
H11 H 0.4865 0.1656 0.2157
H12 H 0.4845 0.0982 0.2592
loop_
_geom_bond_atom_site_label_1
_geom_bond_atom_site_label_2
_geom_bond_site_symmetry_1
_geom_bond_site_symmetry_2
Cl1 C4 1_555 1_555
N1 H1 1_555 1_555
H2 N1 1_555 1_555
H3 N1 1_555 1_555
O1 H4 1_555 1_555
C1 O1 1_555 1_555
C2 N1 1_555 1_555
C3 C2 1_555 1_555
H5 C3 1_555 1_555
C4 C3 1_555 1_555
C5 C4 1_555 1_555
H6 C5 1_555 1_555
C6 C1 1_555 1_555
H7 C6 1_555 1_555
N2 O5 1_555 1_555
N3 O7 1_555 1_555
O2 C7 1_555 1_555
O3 H8 1_555 1_555
O4 C9 1_555 1_555
O6 N2 1_555 1_555
O8 N3 1_555 1_555
C7 O3 1_555 1_555
C8 C7 1_555 1_555
C9 C8 1_555 1_555
C10 N2 1_555 1_555
C11 C10 1_555 1_555
H9 C11 1_555 1_555
C12 N3 1_555 1_555
C13 C8 1_555 1_555
H10 C13 1_555 1_555
O9 H11 1_555 1_555
H12 O9 1_555 1_555
C1 C2 1_555 1_555
C5 C6 1_555 1_555
C9 C10 1_555 1_555
C11 C12 1_555 1_555
C12 C13 1_555 1_555

#END
