
#######################################################################
#
#                 Cambridge Crystallographic Data Centre
#                                CCDC 
#
#######################################################################
#
# If this CIF has been generated from an entry in the Cambridge 
# Structural Database, then it will include bibliographic, chemical, 
# crystal, experimental, refinement or atomic coordinate data resulting 
# from the CCDC's data processing and validation procedures.
#
#######################################################################

data_TEZVIG
_chemical_formula_moiety         'C26 H28 B1 O2 P1'
_chemical_name_systematic        
diphenyl[2-phenyl-2-(4,4,5,5-tetramethyl-1,3,2-dioxaborolan-2-yl)ethenyl]phosphane
_symmetry_cell_setting           monoclinic
_symmetry_space_group_name_H-M   'P 21/n'
_symmetry_Int_Tables_number      14
_space_group_name_Hall           '-P 2yn'
loop_
_symmetry_equiv_pos_site_id
_symmetry_equiv_pos_as_xyz
1 x,y,z
2 1/2-x,1/2+y,1/2-z
3 -x,-y,-z
4 1/2+x,1/2-y,1/2+z
_cell_length_a                   11.420(14)
_cell_length_b                   7.124(10)
_cell_length_c                   29.97(3)
_cell_angle_alpha                90
_cell_angle_beta                 94.83(3)
_cell_angle_gamma                90
_cell_volume                     2429.58
_exptl_crystal_colour            colorless
_exptl_crystal_description       block
_cell_formula_units_Z            4
loop_
_atom_site_label
_atom_site_type_symbol
_atom_site_fract_x
_atom_site_fract_y
_atom_site_fract_z
P1 P 0.78057(5) 0.37136(8) 0.07649(2)
B1 B 0.57840(19) 0.2872(4) 0.18847(7)
C1 C 0.61798(17) 0.3560(3) 0.14216(6)
C2 C 0.71746(18) 0.2883(3) 0.12704(7)
H1 H 0.7567 0.1929 0.1434
O1 O 0.6196(5) 0.1301(7) 0.20867(16)
O2 O 0.4993(5) 0.3867(6) 0.21115(15)
C3 C 0.5817(4) 0.1456(7) 0.25650(15)
C4 C 0.4662(5) 0.2590(10) 0.2484(2)
C5 C 0.6760(4) 0.2130(10) 0.28816(15)
H2 H 0.7453 0.1390 0.2854
H3 H 0.6526 0.2024 0.3181
H4 H 0.6924 0.3420 0.2819
C6 C 0.5550(6) -0.0648(7) 0.2667(2)
H5 H 0.6273 -0.1344 0.2697
H6 H 0.5043 -0.1162 0.2426
H7 H 0.5172 -0.0730 0.2940
C7 C 0.4545(7) 0.4035(8) 0.28664(18)
H8 H 0.5258 0.4750 0.2912
H9 H 0.4407 0.3383 0.3137
H10 H 0.3900 0.4864 0.2785
C8 C 0.3557(4) 0.1643(11) 0.2375(3)
H11 H 0.2983 0.2531 0.2254
H12 H 0.3293 0.1087 0.2641
H13 H 0.3660 0.0680 0.2157
C9 C 0.54354(15) 0.4992(3) 0.11668(6)
C10 C 0.49012(19) 0.4597(4) 0.07470(7)
H14 H 0.4994 0.3416 0.0622
C11 C 0.4226(2) 0.5943(4) 0.05084(9)
H15 H 0.3877 0.5661 0.0225
C12 C 0.4075(2) 0.7678(5) 0.06889(10)
H16 H 0.3627 0.8577 0.0528
C13 C 0.4586(2) 0.8095(4) 0.11096(10)
H17 H 0.4485 0.9277 0.1233
C14 C 0.5250(2) 0.6751(4) 0.13487(8)
H18 H 0.5577 0.7028 0.1636
C15 C 0.9371(2) 0.3879(3) 0.09679(7)
C16 C 1.0032(2) 0.2390(4) 0.11571(8)
H19 H 0.9678 0.1227 0.1189
C17 C 1.1211(2) 0.2627(6) 0.12980(9)
H20 H 1.1646 0.1622 0.1421
C18 C 1.1744(3) 0.4357(7) 0.12551(10)
H21 H 1.2533 0.4511 0.1352
C19 C 1.1119(3) 0.5828(6) 0.10724(12)
H22 H 1.1482 0.6985 0.1044
C20 C 0.9928(3) 0.5613(5) 0.09258(10)
H23 H 0.9506 0.6627 0.0800
C21 C 0.78224(17) 0.1540(3) 0.04406(7)
C22 C 0.85342(19) 0.1450(4) 0.00849(8)
H24 H 0.9019 0.2458 0.0030
C23 C 0.8528(2) -0.0122(5) -0.01882(9)
H25 H 0.9022 -0.0167 -0.0419
C24 C 0.7799(3) -0.1619(4) -0.01214(10)
H26 H 0.7800 -0.2671 -0.0305
C25 C 0.7073(3) -0.1537(4) 0.02187(11)
H27 H 0.6566 -0.2529 0.0262
C26 C 0.7087(2) 0.0020(4) 0.05016(9)
H28 H 0.6598 0.0042 0.0734
O3? O 0.6400(10) 0.1878(19) 0.2194(4)
O4? O 0.4711(10) 0.3113(18) 0.2023(4)
C27? C 0.5449(12) 0.0998(19) 0.2466(4)
C28? C 0.4990(13) 0.290(2) 0.2528(5)
C29? C 0.6211(15) 0.022(4) 0.2850(6)
H29? H 0.6461 0.1211 0.3052
H30? H 0.6886 -0.0375 0.2741
H31? H 0.5775 -0.0694 0.3005
C30? C 0.437(2) -0.037(3) 0.2314(6)
H32? H 0.3930 -0.0620 0.2566
H33? H 0.4673 -0.1528 0.2206
H34? H 0.3877 0.0219 0.2081
C31? C 0.588(2) 0.394(3) 0.2873(6)
H35? H 0.5751 0.3546 0.3171
H36? H 0.5767 0.5270 0.2847
H37? H 0.6671 0.3632 0.2812
C32? C 0.3720(16) 0.293(3) 0.2695(6)
H38? H 0.3147 0.2857 0.2442
H39? H 0.3610 0.4066 0.2857
H40? H 0.3628 0.1869 0.2887
loop_
_geom_bond_atom_site_label_1
_geom_bond_atom_site_label_2
_geom_bond_site_symmetry_1
_geom_bond_site_symmetry_2
P1 C2 1_555 1_555
B1 C1 1_555 1_555
C1 C2 1_555 1_555
C2 H1 1_555 1_555
O1 B1 1_555 1_555
O2 B1 1_555 1_555
C3 O1 1_555 1_555
C4 O2 1_555 1_555
C5 C3 1_555 1_555
H2 C5 1_555 1_555
H3 C5 1_555 1_555
H4 C5 1_555 1_555
C6 C3 1_555 1_555
H5 C6 1_555 1_555
H6 C6 1_555 1_555
H7 C6 1_555 1_555
C7 C4 1_555 1_555
H8 C7 1_555 1_555
H9 C7 1_555 1_555
H10 C7 1_555 1_555
C8 C4 1_555 1_555
H11 C8 1_555 1_555
H12 C8 1_555 1_555
H13 C8 1_555 1_555
C9 C1 1_555 1_555
C10 C9 1_555 1_555
H14 C10 1_555 1_555
C11 C10 1_555 1_555
H15 C11 1_555 1_555
C12 C11 1_555 1_555
H16 C12 1_555 1_555
C13 C12 1_555 1_555
H17 C13 1_555 1_555
C14 C9 1_555 1_555
H18 C14 1_555 1_555
C15 P1 1_555 1_555
C16 C15 1_555 1_555
H19 C16 1_555 1_555
C17 C16 1_555 1_555
H20 C17 1_555 1_555
C18 C17 1_555 1_555
H21 C18 1_555 1_555
C19 C18 1_555 1_555
H22 C19 1_555 1_555
C20 C15 1_555 1_555
H23 C20 1_555 1_555
C21 P1 1_555 1_555
C22 C21 1_555 1_555
H24 C22 1_555 1_555
C23 C22 1_555 1_555
H25 C23 1_555 1_555
C24 C23 1_555 1_555
H26 C24 1_555 1_555
C25 C24 1_555 1_555
H27 C25 1_555 1_555
C26 C21 1_555 1_555
H28 C26 1_555 1_555
C3 C4 1_555 1_555
C13 C14 1_555 1_555
C19 C20 1_555 1_555
C25 C26 1_555 1_555

#END
