
#######################################################################
#
#                 Cambridge Crystallographic Data Centre
#                                CCDC 
#
#######################################################################
#
# If this CIF has been generated from an entry in the Cambridge 
# Structural Database, then it will include bibliographic, chemical, 
# crystal, experimental, refinement or atomic coordinate data resulting 
# from the CCDC's data processing and validation procedures.
#
#######################################################################

data_TEZVAW
_chemical_compound_source        'root of Aconitum sinomontanum'
_chemical_name_common            Lappaconitine
_chemical_formula_moiety         'C32 H44 N2 O8'
_chemical_name_systematic        
'(1S,4S,5S,7S,8S,9S,10S,11S,13R,14S,16S,17R)-20-Ethyl-8,9-dihydroxy-1,14,16-trimethoxyaconitan-4-yl 2-(acetylamino)benzoate'
_chemical_properties_biological  'antinociceptive activity'
_symmetry_cell_setting           trigonal
_symmetry_space_group_name_H-M   'P 31 2 1'
_symmetry_Int_Tables_number      152
_space_group_name_Hall           'P 31 2"'
loop_
_symmetry_equiv_pos_site_id
_symmetry_equiv_pos_as_xyz
1 x,y,z
2 -y,x-y,1/3+z
3 -x+y,-x,2/3+z
4 y,x,-z
5 x-y,-y,2/3-z
6 -x,-x+y,1/3-z
_cell_length_a                   10.8279(4)
_cell_length_b                   10.8279(4)
_cell_length_c                   44.2504(8)
_cell_angle_alpha                90
_cell_angle_beta                 90
_cell_angle_gamma                120
_cell_volume                     4493
_exptl_crystal_colour            colorless
_exptl_crystal_description       block
_chemical_melting_point          '224 deg.C'
_cell_formula_units_Z            6
_exptl_crystal_recrystallization_method acetone
loop_
_atom_site_label
_atom_site_type_symbol
_atom_site_fract_x
_atom_site_fract_y
_atom_site_fract_z
C1 C 0.4155(3) 0.7126(3) 0.88688(6)
H1 H 0.3143 0.6826 0.8848
C2 C 0.4973(3) 0.8403(3) 0.86626(6)
H2 H 0.5970 0.8905 0.8722
H3 H 0.4607 0.9051 0.8687
C3 C 0.4858(3) 0.7977(3) 0.83321(6)
H4 H 0.3885 0.7591 0.8263
H5 H 0.5471 0.8804 0.8210
C4 C 0.5307(3) 0.6865(3) 0.83017(5)
C5 C 0.4243(3) 0.5477(3) 0.84610(5)
H6 H 0.3276 0.5096 0.8381
C6 C 0.4763(3) 0.4392(3) 0.84289(5)
H7 H 0.5446 0.4659 0.8265
H8 H 0.3970 0.3443 0.8390
C7 C 0.5473(3) 0.4446(3) 0.87365(5)
H9 H 0.6383 0.4474 0.8705
C8 C 0.4493(3) 0.3180(3) 0.89370(6)
C9 C 0.2989(3) 0.3040(3) 0.89579(5)
C10 C 0.3089(3) 0.4504(3) 0.89867(5)
H10 H 0.2182 0.4385 0.8913
C11 C 0.4302(3) 0.5787(3) 0.88074(5)
C12 C 0.3107(3) 0.4715(3) 0.93392(6)
H11 H 0.3953 0.5592 0.9399
H12 H 0.2273 0.4761 0.9402
C13 C 0.3103(3) 0.3424(3) 0.94844(6)
H13 H 0.2595 0.3183 0.9678
C14 C 0.2273(3) 0.2281(3) 0.92513(6)
H14 H 0.1279 0.2064 0.9251
C15 C 0.5182(3) 0.3271(3) 0.92501(6)
H15 H 0.5084 0.2347 0.9292
H16 H 0.6194 0.3947 0.9233
C16 C 0.4620(3) 0.3698(3) 0.95263(5)
H17 H 0.5253 0.4717 0.9565
C17 C 0.5732(3) 0.5878(3) 0.88748(5)
H18 H 0.5868 0.5877 0.9094
C18 C 0.6833(3) 0.7360(3) 0.84106(5)
H19 H 0.7197 0.6828 0.8303
H20 H 0.7437 0.8360 0.8361
C19 C 0.7826(4) 0.9902(4) 0.69914(6)
C20 C 0.8836(4) 1.1390(4) 0.70960(7)
H21 H 0.9795 1.1634 0.7047
H22 H 0.8750 1.1448 0.7311
H23 H 0.8610 1.2043 0.6998
C21 C 0.5997(3) 0.7338(3) 0.77651(6)
C22 C 0.3952(6) 0.8379(5) 0.92929(9)
H24 H 0.4449 0.9332 0.9214
H25 H 0.4035 0.8411 0.9509
H26 H 0.2963 0.7932 0.9238
C23 C 0.1593(4) 0.0152(4) 0.95286(8)
H27 H 0.2134 0.0612 0.9707
H28 H 0.1497 -0.0775 0.9510
H29 H 0.0665 0.0057 0.9544
C24 C 0.6019(4) 0.3355(5) 0.98873(8)
H30 H 0.6508 0.3111 0.9739
H31 H 0.5971 0.2883 1.0074
H32 H 0.6526 0.4368 0.9918
C25 C 0.8305(3) 0.7331(3) 0.88187(6)
H33 H 0.8441 0.6645 0.8704
H34 H 0.8304 0.7115 0.9031
C26 C 0.9540(3) 0.8809(4) 0.87572(8)
H35 H 0.9667 0.8959 0.8543
H36 H 1.0392 0.8901 0.8845
H37 H 0.9344 0.9505 0.8844
C27 C 0.5646(3) 0.6655(3) 0.74604(6)
C28 C 0.6298(3) 0.7442(3) 0.71956(6)
C29 C 0.5976(4) 0.6730(4) 0.69187(6)
H38 H 0.6416 0.7230 0.6743
C30 C 0.5018(4) 0.5299(4) 0.69038(7)
H39 H 0.4812 0.4843 0.6717
C31 C 0.4348(4) 0.4517(4) 0.71597(7)
H40 H 0.3688 0.3549 0.7146
C32 C 0.4680(3) 0.5203(3) 0.74357(6)
H41 H 0.4247 0.4681 0.7609
N1 N 0.7249(3) 0.8911(3) 0.72174(5)
H42 H 0.7506 0.9235 0.7398
N2 N 0.6922(2) 0.7168(2) 0.87405(4)
O1 O 0.7567(3) 0.9629(3) 0.67265(5)
O2 O 0.6909(2) 0.8559(2) 0.78145(4)
O3 O 0.5170(2) 0.6422(2) 0.79807(4)
O4 O 0.2112(2) 0.2303(2) 0.87038(4)
H43 H 0.2199 0.1612 0.8663
O5 O 0.4340(3) 0.1928(2) 0.87853(4)
H44 H 0.3864 0.1223 0.8891
O6 O 0.2307(2) 0.0982(2) 0.92714(4)
O7 O 0.4625(2) 0.2919(3) 0.97851(4)
O8 O 0.4547(3) 0.7594(2) 0.91738(4)
loop_
_geom_bond_atom_site_label_1
_geom_bond_atom_site_label_2
_geom_bond_site_symmetry_1
_geom_bond_site_symmetry_2
C1 H1 1_555 1_555
C2 C1 1_555 1_555
H2 C2 1_555 1_555
H3 C2 1_555 1_555
C3 C2 1_555 1_555
H4 C3 1_555 1_555
H5 C3 1_555 1_555
C4 C3 1_555 1_555
C5 C4 1_555 1_555
H6 C5 1_555 1_555
C6 C5 1_555 1_555
H7 C6 1_555 1_555
H8 C6 1_555 1_555
C7 C6 1_555 1_555
H9 C7 1_555 1_555
C8 C7 1_555 1_555
C9 C8 1_555 1_555
C10 C9 1_555 1_555
H10 C10 1_555 1_555
C11 C1 1_555 1_555
C12 C10 1_555 1_555
H11 C12 1_555 1_555
H12 C12 1_555 1_555
C13 C12 1_555 1_555
H13 C13 1_555 1_555
C14 C9 1_555 1_555
H14 C14 1_555 1_555
C15 C8 1_555 1_555
H15 C15 1_555 1_555
H16 C15 1_555 1_555
C16 C13 1_555 1_555
H17 C16 1_555 1_555
C17 C7 1_555 1_555
H18 C17 1_555 1_555
C18 C4 1_555 1_555
H19 C18 1_555 1_555
H20 C18 1_555 1_555
C19 C20 1_555 1_555
C20 H21 1_555 1_555
H22 C20 1_555 1_555
H23 C20 1_555 1_555
C21 C27 1_555 1_555
C22 H24 1_555 1_555
H25 C22 1_555 1_555
H26 C22 1_555 1_555
C23 H27 1_555 1_555
H28 C23 1_555 1_555
H29 C23 1_555 1_555
C24 H30 1_555 1_555
H31 C24 1_555 1_555
H32 C24 1_555 1_555
C25 H33 1_555 1_555
H34 C25 1_555 1_555
C26 C25 1_555 1_555
H35 C26 1_555 1_555
H36 C26 1_555 1_555
H37 C26 1_555 1_555
C27 C28 1_555 1_555
C28 C29 1_555 1_555
C29 H38 1_555 1_555
C30 C29 1_555 1_555
H39 C30 1_555 1_555
C31 C30 1_555 1_555
H40 C31 1_555 1_555
C32 C27 1_555 1_555
H41 C32 1_555 1_555
N1 C19 1_555 1_555
H42 N1 1_555 1_555
N2 C17 1_555 1_555
O1 C19 1_555 1_555
O2 C21 1_555 1_555
O3 C4 1_555 1_555
O4 C9 1_555 1_555
H43 O4 1_555 1_555
O5 C8 1_555 1_555
H44 O5 1_555 1_555
O6 C14 1_555 1_555
O7 C16 1_555 1_555
O8 C1 1_555 1_555
C5 C11 1_555 1_555
C10 C11 1_555 1_555
C11 C17 1_555 1_555
C13 C14 1_555 1_555
C15 C16 1_555 1_555
C18 N2 1_555 1_555
C21 O3 1_555 1_555
C22 O8 1_555 1_555
C23 O6 1_555 1_555
C24 O7 1_555 1_555
C25 N2 1_555 1_555
C28 N1 1_555 1_555
C31 C32 1_555 1_555

#END
