
#######################################################################
#
#                 Cambridge Crystallographic Data Centre
#                                CCDC 
#
#######################################################################
#
# If this CIF has been generated from an entry in the Cambridge 
# Structural Database, then it will include bibliographic, chemical, 
# crystal, experimental, refinement or atomic coordinate data resulting 
# from the CCDC's data processing and validation procedures.
#
#######################################################################

data_TEZXED
_chemical_formula_moiety         'C15 H24 N2 O2,2(H2 O1)'
_chemical_name_systematic        
"Dodecahydro-1H,5H,10H-dipyrido[2,1-f:3',2',1'-ij][1,6]naphthyridin-10-one 4-oxide dihydrate"
_symmetry_cell_setting           orthorhombic
_symmetry_space_group_name_H-M   'P 21 21 21'
_symmetry_Int_Tables_number      19
_space_group_name_Hall           'P 2ac 2ab'
loop_
_symmetry_equiv_pos_site_id
_symmetry_equiv_pos_as_xyz
1 x,y,z
2 1/2-x,-y,1/2+z
3 -x,1/2+y,1/2-z
4 1/2+x,1/2-y,-z
_cell_length_a                   8.3210(17)
_cell_length_b                   15.650(3)
_cell_length_c                   24.352(5)
_cell_angle_alpha                90
_cell_angle_beta                 90
_cell_angle_gamma                90
_cell_volume                     3171.21
_exptl_crystal_colour            colorless
_exptl_crystal_description       Prism
_cell_formula_units_Z            8
loop_
_atom_site_label
_atom_site_type_symbol
_atom_site_fract_x
_atom_site_fract_y
_atom_site_fract_z
N1 N -0.63417(15) -0.38642(8) -0.08348(5)
O1 O -0.72094(14) -0.39689(8) -0.13225(4)
C1 C -0.5277(2) -0.30916(11) -0.09050(7)
H1 H -0.5947 -0.2590 -0.0953
H2 H -0.4641 -0.3161 -0.1236
N2 N -0.36041(19) -0.60931(10) -0.05672(7)
O2 O -0.1151(2) -0.65987(12) -0.07971(8)
C2 C -0.4158(2) -0.29458(12) -0.04240(8)
H3 H -0.4780 -0.2867 -0.0091
H4 H -0.3526 -0.2434 -0.0486
C3 C -0.3051(2) -0.37107(12) -0.03602(8)
H5 H -0.2394 -0.3634 -0.0035
H6 H -0.2339 -0.3741 -0.0675
C4 C -0.3986(2) -0.45518(11) -0.03118(7)
H7 H -0.4459 -0.4596 0.0056
C5 C -0.53064(18) -0.46538(9) -0.07446(6)
H8 H -0.4766 -0.4772 -0.1094
C6 C -0.6354(2) -0.54374(10) -0.06145(7)
H9 H -0.6903 -0.5607 -0.0954
C7 C -0.7645(2) -0.52571(12) -0.01778(9)
H10 H -0.8360 -0.5745 -0.0153
H11 H -0.7130 -0.5185 0.0177
C8 C -0.8621(2) -0.44668(12) -0.03076(8)
H12 H -0.9226 -0.4555 -0.0643
H13 H -0.9377 -0.4357 -0.0013
C9 C -0.7515(2) -0.37114(11) -0.03748(7)
H14 H -0.8144 -0.3204 -0.0453
H15 H -0.6932 -0.3616 -0.0035
C10 C -0.2824(2) -0.52948(13) -0.04034(10)
H16 H -0.2057 -0.5133 -0.0685
H17 H -0.2228 -0.5393 -0.0067
C11 C -0.5313(2) -0.61968(11) -0.04240(7)
H18 H -0.5383 -0.6221 -0.0023
C12 C -0.5979(3) -0.70387(12) -0.06460(11)
H19 H -0.7024 -0.7147 -0.0483
H20 H -0.6120 -0.6994 -0.1040
C13 C -0.4871(4) -0.77735(15) -0.05197(12)
H21 H -0.5343 -0.8306 -0.0645
H22 H -0.4695 -0.7814 -0.0127
C14 C -0.3288(4) -0.76149(15) -0.08131(11)
H23 H -0.2511 -0.8033 -0.0687
H24 H -0.3446 -0.7705 -0.1203
C15 C -0.2601(3) -0.67358(14) -0.07280(8)
N3 N -1.11314(16) -0.42771(8) -0.25159(6)
C16 C -1.1074(3) -0.34900(11) -0.28677(9)
H25 H -1.0457 -0.3054 -0.2678
H26 H -1.2158 -0.3274 -0.2915
N4 N -1.36375(18) -0.62178(9) -0.32752(6)
C17 C -1.0343(3) -0.36371(15) -0.34259(9)
H27 H -0.9236 -0.3822 -0.3386
H28 H -1.0351 -0.3109 -0.3634
O3 O -1.19935(15) -0.40694(8) -0.20380(5)
C18 C -1.1299(3) -0.43134(15) -0.37280(8)
H29 H -1.0781 -0.4433 -0.4076
H30 H -1.2365 -0.4093 -0.3805
O4 O -1.5951(2) -0.59528(12) -0.37231(8)
C19 C -1.1453(2) -0.51438(12) -0.34027(7)
H31 H -1.0406 -0.5430 -0.3392
C20 C -1.20278(19) -0.49846(10) -0.28126(6)
H32 H -1.3153 -0.4803 -0.2837
C21 C -1.2007(2) -0.58071(10) -0.24676(7)
H33 H -1.2724 -0.5727 -0.2153
C22 C -1.0340(3) -0.60477(13) -0.22506(9)
H34 H -1.0448 -0.6511 -0.1989
H35 H -0.9686 -0.6251 -0.2553
C23 C -0.9499(2) -0.53067(13) -0.19772(9)
H36 H -1.0064 -0.5153 -0.1643
H37 H -0.8413 -0.5472 -0.1879
C24 C -0.9449(2) -0.45484(12) -0.23586(8)
H38 H -0.8850 -0.4696 -0.2687
H39 H -0.8903 -0.4077 -0.2180
C25 C -1.2690(3) -0.57417(15) -0.36758(8)
H40 H -1.3407 -0.5405 -0.3903
H41 H -1.2130 -0.6142 -0.3912
C26 C -1.2668(3) -0.65535(11) -0.28197(8)
H42 H -1.1741 -0.6846 -0.2982
C27 C -1.3569(4) -0.72016(15) -0.24861(12)
H43 H -1.3654 -0.7731 -0.2691
H44 H -1.2985 -0.7319 -0.2150
C28 C -1.5218(4) -0.6878(2) -0.23497(12)
H45 H -1.5136 -0.6349 -0.2144
H46 H -1.5776 -0.7294 -0.2124
C29 C -1.6158(3) -0.67254(18) -0.28785(12)
H47 H -1.6509 -0.7273 -0.3021
H48 H -1.7112 -0.6396 -0.2792
C30 C -1.5237(3) -0.62656(13) -0.33211(9)
O5 O -0.53009(17) -0.44060(11) -0.21907(5)
H49 H -0.5818 -0.4186 -0.1971
H50 H -0.4209 -0.4360 -0.2167
O6 O -1.90362(17) -0.64900(10) -0.40970(6)
H51 H -1.9276 -0.6903 -0.3907
H52 H -1.8183 -0.6356 -0.3953
O7 O -1.00533(18) -0.29973(10) -0.14276(7)
H53 H -1.0730 -0.3339 -0.1539
H54 H -0.9089 -0.3437 -0.1292
O8 O -1.6026(3) -0.41371(12) -0.32946(8)
H55 H -1.6221 -0.4593 -0.3433
H56 H -1.5877 -0.4289 -0.2970
loop_
_geom_bond_atom_site_label_1
_geom_bond_atom_site_label_2
_geom_bond_site_symmetry_1
_geom_bond_site_symmetry_2
N1 O1 1_555 1_555
C1 N1 1_555 1_555
H1 C1 1_555 1_555
H2 C1 1_555 1_555
N2 C10 1_555 1_555
O2 C15 1_555 1_555
C2 C1 1_555 1_555
H3 C2 1_555 1_555
H4 C2 1_555 1_555
C3 C2 1_555 1_555
H5 C3 1_555 1_555
H6 C3 1_555 1_555
C4 C3 1_555 1_555
H7 C4 1_555 1_555
C5 N1 1_555 1_555
H8 C5 1_555 1_555
C6 C5 1_555 1_555
H9 C6 1_555 1_555
C7 C6 1_555 1_555
H10 C7 1_555 1_555
H11 C7 1_555 1_555
C8 C7 1_555 1_555
H12 C8 1_555 1_555
H13 C8 1_555 1_555
C9 N1 1_555 1_555
H14 C9 1_555 1_555
H15 C9 1_555 1_555
C10 C4 1_555 1_555
H16 C10 1_555 1_555
H17 C10 1_555 1_555
C11 N2 1_555 1_555
H18 C11 1_555 1_555
C12 C11 1_555 1_555
H19 C12 1_555 1_555
H20 C12 1_555 1_555
C13 C12 1_555 1_555
H21 C13 1_555 1_555
H22 C13 1_555 1_555
C14 C13 1_555 1_555
H23 C14 1_555 1_555
H24 C14 1_555 1_555
C15 N2 1_555 1_555
N3 C16 1_555 1_555
C16 H25 1_555 1_555
H26 C16 1_555 1_555
N4 C25 1_555 1_555
C17 C16 1_555 1_555
H27 C17 1_555 1_555
H28 C17 1_555 1_555
O3 N3 1_555 1_555
C18 C17 1_555 1_555
H29 C18 1_555 1_555
H30 C18 1_555 1_555
O4 C30 1_555 1_555
C19 C18 1_555 1_555
H31 C19 1_555 1_555
C20 N3 1_555 1_555
H32 C20 1_555 1_555
C21 C20 1_555 1_555
H33 C21 1_555 1_555
C22 C21 1_555 1_555
H34 C22 1_555 1_555
H35 C22 1_555 1_555
C23 C22 1_555 1_555
H36 C23 1_555 1_555
H37 C23 1_555 1_555
C24 N3 1_555 1_555
H38 C24 1_555 1_555
H39 C24 1_555 1_555
C25 C19 1_555 1_555
H40 C25 1_555 1_555
H41 C25 1_555 1_555
C26 N4 1_555 1_555
H42 C26 1_555 1_555
C27 C26 1_555 1_555
H43 C27 1_555 1_555
H44 C27 1_555 1_555
C28 C27 1_555 1_555
H45 C28 1_555 1_555
H46 C28 1_555 1_555
C29 C28 1_555 1_555
H47 C29 1_555 1_555
H48 C29 1_555 1_555
C30 N4 1_555 1_555
O5 H49 1_555 1_555
H50 O5 1_555 1_555
O6 H51 1_555 1_555
H52 O6 1_555 1_555
O7 H53 1_555 1_555
H54 O7 1_555 1_555
O8 H55 1_555 1_555
H56 O8 1_555 1_555
C4 C5 1_555 1_555
C6 C11 1_555 1_555
C8 C9 1_555 1_555
C14 C15 1_555 1_555
C19 C20 1_555 1_555
C21 C26 1_555 1_555
C23 C24 1_555 1_555
C29 C30 1_555 1_555

#END
