
#######################################################################
#
#                 Cambridge Crystallographic Data Centre
#                                CCDC 
#
#######################################################################
#
# If this CIF has been generated from an entry in the Cambridge 
# Structural Database, then it will include bibliographic, chemical, 
# crystal, experimental, refinement or atomic coordinate data resulting 
# from the CCDC's data processing and validation procedures.
#
#######################################################################

data_TEZXEC
_chemical_formula_moiety         'C21 H28 F1 N1 O3 S1'
_chemical_name_systematic        
(-)-N-((3R)-3-(4-Fluorophenyl)pentanoyl)bornane-10,2-sultam
_symmetry_cell_setting           monoclinic
_symmetry_space_group_name_H-M   'P 21'
_symmetry_Int_Tables_number      4
_space_group_name_Hall           'P 2yb'
loop_
_symmetry_equiv_pos_site_id
_symmetry_equiv_pos_as_xyz
1 x,y,z
2 -x,1/2+y,-z
_cell_length_a                   7.8481(11)
_cell_length_b                   16.659(2)
_cell_length_c                   7.8481(11)
_cell_angle_alpha                90
_cell_angle_beta                 90.840(10)
_cell_angle_gamma                90
_cell_volume                     1025.96
_exptl_crystal_colour            colorless
_exptl_crystal_description       block
_cell_formula_units_Z            2
_exptl_crystal_recrystallization_method dichloromethane
loop_
_atom_site_label
_atom_site_type_symbol
_atom_site_fract_x
_atom_site_fract_y
_atom_site_fract_z
C1 C 0.2937(5) 0.9757(2) 0.5302(4)
C2 C 0.1138(6) 1.0098(4) 0.5568(7)
H1 H 0.0275 0.9748 0.5075
H2 H 0.0910 1.0172 0.6770
C3 C 0.1194(8) 1.0899(4) 0.4640(7)
H3 H 0.0848 1.1334 0.5381
H4 H 0.0457 1.0893 0.3637
C4 C 0.3095(7) 1.0989(3) 0.4137(6)
H5 H 0.3478 1.1544 0.3979
C5 C 0.3345(5) 1.0439(2) 0.2591(5)
H6 H 0.4489 1.0485 0.2150
H7 H 0.2527 1.0558 0.1688
C6 C 0.3033(4) 0.9601(2) 0.3363(4)
H8 H 0.1943 0.9387 0.2940
C7 C 0.4051(6) 1.0522(2) 0.5559(5)
C8 C 0.3842(10) 1.0895(4) 0.7334(6)
H9 H 0.4453 1.1394 0.7391
H10 H 0.4286 1.0534 0.8183
H11 H 0.2655 1.0991 0.7535
C9 C 0.5958(7) 1.0450(3) 0.5254(7)
H12 H 0.6144 1.0124 0.4266
H13 H 0.6501 1.0207 0.6228
H14 H 0.6429 1.0974 0.5074
C10 C 0.3423(7) 0.9002(2) 0.6232(5)
H15 H 0.2409 0.8703 0.6533
H16 H 0.4050 0.9131 0.7271
C11 C 0.4719(4) 0.8730(2) 0.1480(4)
C12 C 0.6166(5) 0.8160(2) 0.1236(6)
H17 H 0.5748 0.7681 0.0663
H18 H 0.6622 0.8001 0.2341
C13 C 0.7569(5) 0.8528(3) 0.0202(5)
H19 H 0.7102 0.8636 -0.0940
C14 C 0.8156(6) 0.9324(3) 0.0951(7)
H20 H 0.7157 0.9652 0.1147
H21 H 0.8686 0.9219 0.2053
C15 C 0.9362(6) 0.9798(4) -0.0072(8)
H22 H 1.0356 0.9481 -0.0294
H23 H 0.9688 1.0272 0.0545
H24 H 0.8825 0.9948 -0.1132
C16 C 0.9076(5) 0.7958(3) 0.0003(5)
C17 C 0.9999(6) 0.7672(3) 0.1392(6)
H25 H 0.9671 0.7807 0.2490
C18 C 1.1423(6) 0.7181(3) 0.1152(7)
H26 H 1.2035 0.6979 0.2081
C19 C 1.1888(6) 0.7007(3) -0.0436(8)
C20 C 1.1012(6) 0.7285(3) -0.1828(7)
H27 H 1.1368 0.7154 -0.2918
C21 C 0.9608(5) 0.7756(3) -0.1613(6)
H28 H 0.9004 0.7943 -0.2562
F1 F 1.3280(4) 0.6527(2) -0.0662(6)
N1 N 0.4398(3) 0.90035(16) 0.3106(3)
O1 O 0.3970(6) 0.76620(18) 0.4578(4)
O2 O 0.6461(5) 0.8440(3) 0.5344(4)
O3 O 0.3933(4) 0.9023(2) 0.0306(3)
S1 S 0.47124(13) 0.84194(6) 0.48565(10)
loop_
_geom_bond_atom_site_label_1
_geom_bond_atom_site_label_2
_geom_bond_site_symmetry_1
_geom_bond_site_symmetry_2
C1 C2 1_555 1_555
C2 H1 1_555 1_555
H2 C2 1_555 1_555
C3 C2 1_555 1_555
H3 C3 1_555 1_555
H4 C3 1_555 1_555
C4 C3 1_555 1_555
H5 C4 1_555 1_555
C5 C4 1_555 1_555
H6 C5 1_555 1_555
H7 C5 1_555 1_555
C6 C1 1_555 1_555
H8 C6 1_555 1_555
C7 C1 1_555 1_555
C8 C7 1_555 1_555
H9 C8 1_555 1_555
H10 C8 1_555 1_555
H11 C8 1_555 1_555
C9 C7 1_555 1_555
H12 C9 1_555 1_555
H13 C9 1_555 1_555
H14 C9 1_555 1_555
C10 C1 1_555 1_555
H15 C10 1_555 1_555
H16 C10 1_555 1_555
C11 C12 1_555 1_555
C12 H17 1_555 1_555
H18 C12 1_555 1_555
C13 C12 1_555 1_555
H19 C13 1_555 1_555
C14 C13 1_555 1_555
H20 C14 1_555 1_555
H21 C14 1_555 1_555
C15 C14 1_555 1_555
H22 C15 1_555 1_555
H23 C15 1_555 1_555
H24 C15 1_555 1_555
C16 C13 1_555 1_555
C17 C16 1_555 1_555
H25 C17 1_555 1_555
C18 C17 1_555 1_555
H26 C18 1_555 1_555
C19 C18 1_555 1_555
C20 C19 1_555 1_555
H27 C20 1_555 1_555
C21 C16 1_555 1_555
H28 C21 1_555 1_555
F1 C19 1_555 1_555
N1 C6 1_555 1_555
O1 S1 1_555 1_555
O2 S1 1_555 1_555
O3 C11 1_555 1_555
S1 C10 1_555 1_555
C4 C7 1_555 1_555
C5 C6 1_555 1_555
C11 N1 1_555 1_555
C20 C21 1_555 1_555
N1 S1 1_555 1_555

#END
