
#######################################################################
#
#                 Cambridge Crystallographic Data Centre
#                                CCDC 
#
#######################################################################
#
# If this CIF has been generated from an entry in the Cambridge 
# Structural Database, then it will include bibliographic, chemical, 
# crystal, experimental, refinement or atomic coordinate data resulting 
# from the CCDC's data processing and validation procedures.
#
#######################################################################

data_TEZZOP
_chemical_formula_moiety         'C15 H12 N2 O3 S1'
_chemical_name_systematic        
N-(2-Methoxyphenyl)-3-oxo-1,2-benzothiazole-2(3H)-carboxamide
_symmetry_cell_setting           orthorhombic
_symmetry_space_group_name_H-M   'P 21 21 21'
_symmetry_Int_Tables_number      19
_space_group_name_Hall           'P 2ac 2ab'
loop_
_symmetry_equiv_pos_site_id
_symmetry_equiv_pos_as_xyz
1 x,y,z
2 1/2-x,-y,1/2+z
3 -x,1/2+y,1/2-z
4 1/2+x,1/2-y,-z
_cell_length_a                   6.0074(16)
_cell_length_b                   8.261(2)
_cell_length_c                   27.265(8)
_cell_angle_alpha                90
_cell_angle_beta                 90
_cell_angle_gamma                90
_cell_volume                     1353.08
_exptl_crystal_colour            colorless
_exptl_crystal_description       Prism
_cell_formula_units_Z            4
loop_
_atom_site_label
_atom_site_type_symbol
_atom_site_fract_x
_atom_site_fract_y
_atom_site_fract_z
S1 S 0.92314(7) 0.64031(5) 0.971354(13)
O1 O 0.8242(2) 0.42154(16) 0.84936(4)
O2 O 0.5706(2) 0.80745(14) 0.93128(4)
O3 O 0.4662(2) 0.63032(16) 0.76610(4)
N1 N 0.7984(2) 0.59417(17) 0.91615(5)
N2 N 0.5195(2) 0.65897(18) 0.86087(5)
C1 C 1.1272(3) 0.49569(18) 0.95950(6)
C2 C 1.3126(3) 0.46112(19) 0.98842(6)
H1 H 1.3399 0.5184 1.0180
C3 C 1.4557(3) 0.34059(19) 0.97259(6)
H2 H 1.5847 0.3171 0.9915
C4 C 1.4162(3) 0.2523(2) 0.92967(6)
H3 H 1.5144 0.1677 0.9203
C5 C 1.2328(3) 0.2891(2) 0.90093(6)
H4 H 1.2051 0.2312 0.8714
C6 C 1.0899(3) 0.41194(19) 0.91591(6)
C7 C 0.8952(3) 0.46906(19) 0.88899(6)
C8 C 0.6185(3) 0.6965(2) 0.90348(6)
C9 C 0.3370(3) 0.7425(2) 0.83993(6)
C10 C 0.1852(3) 0.8343(2) 0.86632(6)
H5 H 0.2032 0.8479 0.9007
C11 C 0.0063(3) 0.9066(2) 0.84222(7)
H6 H -0.0985 0.9685 0.8603
C12 C -0.0194(3) 0.8887(2) 0.79236(7)
H7 H -0.1424 0.9379 0.7763
C13 C 0.1326(3) 0.7994(2) 0.76538(6)
H8 H 0.1149 0.7887 0.7309
C14 C 0.3100(3) 0.7260(2) 0.78877(6)
C15 C 0.5188(3) 0.6707(2) 0.71631(6)
H9 H 0.5494 0.7869 0.7139
H10 H 0.3926 0.6430 0.6951
H11 H 0.6504 0.6096 0.7059
H12 H 0.583(3) 0.591(2) 0.8442(7)
loop_
_geom_bond_atom_site_label_1
_geom_bond_atom_site_label_2
_geom_bond_site_symmetry_1
_geom_bond_site_symmetry_2
S1 N1 1_555 1_555
O1 C7 1_555 1_555
O2 C8 1_555 1_555
O3 C14 1_555 1_555
N1 C7 1_555 1_555
N2 C8 1_555 1_555
C1 S1 1_555 1_555
C2 C1 1_555 1_555
H1 C2 1_555 1_555
C3 C2 1_555 1_555
H2 C3 1_555 1_555
C4 C3 1_555 1_555
H3 C4 1_555 1_555
C5 C4 1_555 1_555
H4 C5 1_555 1_555
C6 C1 1_555 1_555
C7 C6 1_555 1_555
C8 N1 1_555 1_555
C9 N2 1_555 1_555
C10 C9 1_555 1_555
H5 C10 1_555 1_555
C11 C10 1_555 1_555
H6 C11 1_555 1_555
C12 C11 1_555 1_555
H7 C12 1_555 1_555
C13 C12 1_555 1_555
H8 C13 1_555 1_555
C14 C9 1_555 1_555
C15 O3 1_555 1_555
H9 C15 1_555 1_555
H10 C15 1_555 1_555
H11 C15 1_555 1_555
H12 N2 1_555 1_555
C5 C6 1_555 1_555
C13 C14 1_555 1_555

#END
