
#######################################################################
#
#                 Cambridge Crystallographic Data Centre
#                                CCDC 
#
#######################################################################
#
# If this CIF has been generated from an entry in the Cambridge 
# Structural Database, then it will include bibliographic, chemical, 
# crystal, experimental, refinement or atomic coordinate data resulting 
# from the CCDC's data processing and validation procedures.
#
#######################################################################

data_TFBIPH01
_chemical_formula_moiety         'C12 H6 F4'
_chemical_name_systematic        2,3,5,6-tetrafluorobiphenyl
_symmetry_cell_setting           monoclinic
_symmetry_space_group_name_H-M   'P 21/c'
_symmetry_Int_Tables_number      14
_space_group_name_Hall           '-P 2ybc'
loop_
_symmetry_equiv_pos_site_id
_symmetry_equiv_pos_as_xyz
1 x,y,z
2 -x,1/2+y,1/2-z
3 -x,-y,-z
4 x,1/2-y,1/2+z
_cell_length_a                   12.8062(4)
_cell_length_b                   5.84755(16)
_cell_length_c                   12.6869(4)
_cell_angle_alpha                90
_cell_angle_beta                 105.223(3)
_cell_angle_gamma                90
_cell_volume                     916.721
_exptl_crystal_colour            colorless
_exptl_crystal_description       plate
_cell_formula_units_Z            4
loop_
_atom_site_label
_atom_site_type_symbol
_atom_site_fract_x
_atom_site_fract_y
_atom_site_fract_z
F1 F 0.30039(7) 1.11677(14) 0.37481(7)
F2 F 0.14002(7) 0.41751(14) 0.22806(7)
F3 F 0.16738(8) 1.13608(16) 0.50434(7)
C1 C 0.22488(10) 0.7669(2) 0.29628(10)
C2 C 0.29651(10) 0.7613(2) 0.22084(10)
C3 C 0.14988(11) 0.5956(2) 0.29720(11)
C4 C 0.08581(11) 0.7857(3) 0.43659(11)
H1 H 0.0403 0.7918 0.4829
C5 C 0.15979(12) 0.9560(2) 0.43649(11)
C6 C 0.42970(12) 0.7543(3) 0.07941(11)
H2 H 0.4741 0.7517 0.0320
C7 C 0.36416(12) 0.5753(2) 0.22051(11)
H3 H 0.3645 0.4527 0.2673
C8 C 0.22791(11) 0.9473(2) 0.36839(11)
C9 C 0.08159(11) 0.6055(3) 0.36562(11)
C10 C 0.36178(12) 0.9397(3) 0.07925(11)
H4 H 0.3606 1.0610 0.0315
C11 C 0.29583(11) 0.9443(2) 0.15012(11)
H5 H 0.2511 1.0694 0.1505
C12 C 0.43120(12) 0.5726(3) 0.15041(12)
H6 H 0.4771 0.4492 0.1510
F4 F 0.00891(7) 0.43719(16) 0.36035(7)
loop_
_geom_bond_atom_site_label_1
_geom_bond_atom_site_label_2
_geom_bond_site_symmetry_1
_geom_bond_site_symmetry_2
F1 C8 1_555 1_555
F2 C3 1_555 1_555
F3 C5 1_555 1_555
C1 C2 1_555 1_555
C2 C7 1_555 1_555
C3 C1 1_555 1_555
C4 H1 1_555 1_555
C5 C4 1_555 1_555
C6 H2 1_555 1_555
C7 H3 1_555 1_555
C8 C1 1_555 1_555
C9 C3 1_555 1_555
C10 C6 1_555 1_555
H4 C10 1_555 1_555
C11 C2 1_555 1_555
H5 C11 1_555 1_555
C12 C6 1_555 1_555
H6 C12 1_555 1_555
F4 C9 1_555 1_555
C4 C9 1_555 1_555
C5 C8 1_555 1_555
C7 C12 1_555 1_555
C10 C11 1_555 1_555

#END
