
#######################################################################
#
#                 Cambridge Crystallographic Data Centre
#                                CCDC 
#
#######################################################################
#
# If this CIF has been generated from an entry in the Cambridge 
# Structural Database, then it will include bibliographic, chemical, 
# crystal, experimental, refinement or atomic coordinate data resulting 
# from the CCDC's data processing and validation procedures.
#
#######################################################################

data_THEOPH01
_chemical_name_common            
'3,7-Dihydro-1,3-dimethyl-1H-purine-2,6-dione monohydrate'
_chemical_formula_moiety         'C7 H8 N4 O2,H2 O1'
_chemical_name_systematic        'Theophylline monohydrate'
_chemical_properties_biological  
'theophylline is a common therapeutic agent for the treatment of asthma'
_symmetry_cell_setting           monoclinic
_symmetry_space_group_name_H-M   'P 21/n'
_symmetry_Int_Tables_number      14
_space_group_name_Hall           '-P 2yn'
loop_
_symmetry_equiv_pos_site_id
_symmetry_equiv_pos_as_xyz
1 x,y,z
2 1/2+x,1/2-y,1/2+z
3 -x,-y,-z
4 1/2-x,1/2+y,1/2-z
_cell_length_a                   4.468(2)
_cell_length_b                   15.355(5)
_cell_length_c                   13.121(5)
_cell_angle_alpha                90
_cell_angle_beta                 97.792(7)
_cell_angle_gamma                90
_cell_volume                     891.87
_exptl_crystal_colour            'light yellow'
_exptl_crystal_description       needle
_cell_formula_units_Z            4
loop_
_atom_site_label
_atom_site_type_symbol
_atom_site_fract_x
_atom_site_fract_y
_atom_site_fract_z
N1 N 0.5006(4) 0.86445(11) 0.70804(13)
C1 C 0.4946(5) 0.77444(14) 0.72914(16)
N2 N 0.2779(4) 0.72580(11) 0.67088(13)
C2 C 0.0840(5) 0.76507(14) 0.59422(15)
C3 C 0.1007(5) 0.85251(13) 0.57384(16)
C4 C 0.3118(5) 0.90849(14) 0.63115(16)
N3 N -0.1274(4) 0.86794(11) 0.49419(13)
H1 H -0.1748 0.9182 0.4641
C5 C -0.2629(5) 0.79099(14) 0.47166(17)
H2 H -0.4280 0.7836 0.4186
N4 N -0.1431(4) 0.72607(12) 0.53104(14)
O1 O 0.3377(4) 0.98801(10) 0.61981(12)
C6 C 0.7207(5) 0.91660(16) 0.77636(18)
H3 H 0.7800 0.9676 0.7390
H4 H 0.8995 0.8811 0.7992
H5 H 0.6288 0.9357 0.8363
O2 O 0.6760(4) 0.74234(10) 0.79635(12)
C7 C 0.2595(6) 0.63201(15) 0.6900(2)
H6 H 0.3540 0.6191 0.7602
H7 H 0.3651 0.6002 0.6408
H8 H 0.0471 0.6141 0.6819
O3 O -0.2597(5) 0.54582(11) 0.47253(16)
H12 H -0.236(7) 0.5979(17) 0.495(2)
H13 H -0.098(8) 0.525(3) 0.506(4)
H9? H 0.1568 0.6032 0.6284
H10? H 0.1457 0.6220 0.7478
H11? H 0.4637 0.6082 0.7068
H14? H -0.378(11) 0.529(3) 0.515(4)
loop_
_geom_bond_atom_site_label_1
_geom_bond_atom_site_label_2
_geom_bond_site_symmetry_1
_geom_bond_site_symmetry_2
N1 C1 1_555 1_555
C1 N2 1_555 1_555
N2 C2 1_555 1_555
C2 C3 1_555 1_555
C3 C4 1_555 1_555
C4 N1 1_555 1_555
N3 C3 1_555 1_555
H1 N3 1_555 1_555
C5 N3 1_555 1_555
H2 C5 1_555 1_555
N4 C2 1_555 1_555
O1 C4 1_555 1_555
C6 N1 1_555 1_555
H3 C6 1_555 1_555
H4 C6 1_555 1_555
H5 C6 1_555 1_555
O2 C1 1_555 1_555
C7 N2 1_555 1_555
H6 C7 1_555 1_555
H7 C7 1_555 1_555
H8 C7 1_555 1_555
O3 H12 1_555 1_555
H13 O3 1_555 1_555
C5 N4 1_555 1_555

#END
