
#######################################################################
#
#                 Cambridge Crystallographic Data Centre
#                                CCDC 
#
#######################################################################
#
# If this CIF has been generated from an entry in the Cambridge 
# Structural Database, then it will include bibliographic, chemical, 
# crystal, experimental, refinement or atomic coordinate data resulting 
# from the CCDC's data processing and validation procedures.
#
#######################################################################

data_THIMNO10
_chemical_formula_moiety         'C12 H18 N4 O1 S1 2+,2(N1 O3 1-)'
_chemical_name_systematic        'Thiamine dinitrate'
_symmetry_cell_setting           triclinic
_symmetry_space_group_name_H-M   'P -1'
_symmetry_Int_Tables_number      2
_space_group_name_Hall           '-P 1'
loop_
_symmetry_equiv_pos_site_id
_symmetry_equiv_pos_as_xyz
1 x,y,z
2 -x,-y,-z
_cell_length_a                   8.9260(8)
_cell_length_b                   10.201(1)
_cell_length_c                   10.405(1)
_cell_angle_alpha                97.897(8)
_cell_angle_beta                 105.059(7)
_cell_angle_gamma                104.437(9)
_cell_volume                     865.041
_cell_formula_units_Z            2
loop_
_atom_site_label
_atom_site_type_symbol
_atom_site_fract_x
_atom_site_fract_y
_atom_site_fract_z
S1 S 0.4796(1) 0.6875(1) 0.9318(1)
C1 C 0.6035(3) 0.8019(3) 1.0738(3)
N1 N 0.7550(2) 0.8006(2) 1.0983(2)
C2 C 0.8938(3) 0.9034(3) 1.2079(3)
C3 C 0.7800(3) 0.7055(2) 1.0019(2)
C4 C 0.9458(4) 0.6957(3) 1.0121(3)
C5 C 0.6391(3) 0.6344(2) 0.9030(3)
C6 C 0.6190(4) 0.5367(3) 0.7734(3)
C7 C 0.6874(10) 0.6100(10) 0.6753(8)
O1 O 0.6154(5) 0.7099(4) 0.6320(3)
N2 N 0.7957(3) 1.1937(2) 1.3929(2)
C8 C 0.7429(3) 1.1382(3) 1.4888(3)
C9 C 0.6876(4) 1.2261(3) 1.5830(3)
N3 N 0.7396(3) 1.0125(2) 1.5022(2)
C10 C 0.7847(3) 0.9327(2) 1.4122(2)
N4 N 0.7743(4) 0.8052(2) 1.4293(3)
C11 C 0.8390(3) 0.9857(2) 1.3073(2)
C12 C 0.8425(3) 1.1183(3) 1.3026(3)
H1 H 0.5714(3) 0.8607(32) 1.1244(32)
H2 H 0.6785(44) 0.4726(39) 0.7929(36)
H3 H 0.5107(48) 0.4764(41) 0.7346(39)
H4 H 0.9541(36) 0.9613(31) 1.1654(30)
H5 H 0.9616(35) 0.8493(31) 1.2515(29)
H6 H 0.7957(42) 1.2729(41) 1.3855(35)
H7 H 0.8085(40) 0.7488(37) 1.3799(36)
H8 H 0.7474(42) 0.7844(36) 1.4878(40)
H9 H 0.8744(36) 1.1628(31) 1.2319(32)
H10 H 0.6698 0.5398 0.5945
H11 H 0.8004 0.6512 0.7148
H12 H 0.6635 0.7506 0.5689
H13 H 0.6971 1.3141 1.5619
H14 H 0.7529 1.2369 1.6752
H15 H 0.5772 1.1816 1.5756
H16 H 0.9416 0.6273 0.9391
H17 H 0.9915 0.6739 1.0964
H18 H 1.0135 0.7837 1.0080
O2 O 0.4544(3) 1.0109(3) 1.2227(2)
N5 N 0.3274(3) 0.9852(2) 1.1288(2)
O3 O 0.2990(3) 0.8966(3) 1.0242(3)
O4 O 0.2276(3) 1.0512(2) 1.1345(2)
N6 N 0.8818(3) 1.5070(2) 1.3140(2)
O5 O 0.9080(4) 1.6258(2) 1.2955(3)
O6 O 0.9459(3) 1.4282(2) 1.2658(3)
O7 O 0.7883(3) 1.4665(2) 1.3794(3)
loop_
_geom_bond_atom_site_label_1
_geom_bond_atom_site_label_2
_geom_bond_site_symmetry_1
_geom_bond_site_symmetry_2
S1 C1 1_555 1_555
C1 N1 1_555 1_555
N1 C2 1_555 1_555
C2 C11 1_555 1_555
C3 N1 1_555 1_555
C4 C3 1_555 1_555
C5 S1 1_555 1_555
C6 C5 1_555 1_555
C7 C6 1_555 1_555
O1 C7 1_555 1_555
N2 C8 1_555 1_555
C8 C9 1_555 1_555
C9 H13 1_555 1_555
N3 C8 1_555 1_555
C10 N3 1_555 1_555
N4 C10 1_555 1_555
C11 C10 1_555 1_555
C12 N2 1_555 1_555
H1 C1 1_555 1_555
H2 C6 1_555 1_555
H3 C6 1_555 1_555
H4 C2 1_555 1_555
H5 C2 1_555 1_555
H6 N2 1_555 1_555
H7 N4 1_555 1_555
H8 N4 1_555 1_555
H9 C12 1_555 1_555
H10 C7 1_555 1_555
H11 C7 1_555 1_555
H12 O1 1_555 1_555
H14 C9 1_555 1_555
H15 C9 1_555 1_555
H16 C4 1_555 1_555
H17 C4 1_555 1_555
H18 C4 1_555 1_555
O2 N5 1_555 1_555
N5 O3 1_555 1_555
O4 N5 1_555 1_555
N6 O5 1_555 1_555
O6 N6 1_555 1_555
O7 N6 1_555 1_555
C3 C5 1_555 1_555
C11 C12 1_555 1_555

#END
