
#######################################################################
#
#                 Cambridge Crystallographic Data Centre
#                                CCDC 
#
#######################################################################
#
# If this CIF has been generated from an entry in the Cambridge 
# Structural Database, then it will include bibliographic, chemical, 
# crystal, experimental, refinement or atomic coordinate data resulting 
# from the CCDC's data processing and validation procedures.
#
#######################################################################

data_THYMEA10
_chemical_formula_moiety         'C28 H48 O12,C7 H8'
_chemical_name_systematic        
'4,7,10,15,18,21,24,27,30,33,36,39-Dodecaoxatricyclo(11.9.9.9^2,12^)tetraconta-1,12-diene toluene solvate'
_symmetry_cell_setting           triclinic
_symmetry_space_group_name_H-M   'P -1'
_symmetry_Int_Tables_number      2
_space_group_name_Hall           '-P 1'
loop_
_symmetry_equiv_pos_site_id
_symmetry_equiv_pos_as_xyz
1 x,y,z
2 -x,-y,-z
_cell_length_a                   8.451(4)
_cell_length_b                   10.722(7)
_cell_length_c                   10.054(6)
_cell_angle_alpha                93.05(5)
_cell_angle_beta                 102.59(4)
_cell_angle_gamma                95.33
_cell_volume                     882.727
_cell_formula_units_Z            1
loop_
_atom_site_label
_atom_site_type_symbol
_atom_site_fract_x
_atom_site_fract_y
_atom_site_fract_z
O1 O 0.07260 0.33920 0.25630
O2 O 0.11170 0.34590 -0.02050
O3 O 0.05510 0.20470 -0.28820
O4 O 0.30010 -0.06690 0.37860
O5 O 0.39350 -0.13110 0.12860
O6 O 0.27080 -0.18770 -0.16850
C1 C -0.01420 0.11640 0.25660
C2 C 0.03970 0.24060 0.33930
C3 C 0.21920 0.33010 0.21170
C4 C 0.21890 0.40720 0.09470
C5 C 0.12420 0.39840 -0.14270
C6 C 0.00820 0.32390 -0.25850
C7 C 0.01070 0.11200 -0.20450
C8 C 0.04210 0.00900 0.29010
C9 C 0.17320 -0.00430 0.41400
C10 C 0.40360 0.01020 0.31610
C11 C 0.50060 -0.06820 0.24630
C12 C 0.47460 -0.19300 0.04110
C13 C 0.35140 -0.26380 -0.07190
C14 C -0.14200 0.13140 0.13050
C8A C -0.04210 -0.00900 -0.29010
C7A C -0.01070 -0.11200 0.20450
C14A C 0.14200 -0.13140 -0.13050
O6A O -0.27080 0.18770 0.16850
C1A C 0.01420 -0.11640 -0.25660
C9A C -0.17320 0.00430 -0.41400
O3A O -0.05510 -0.20470 0.28820
C13A C -0.35140 0.26380 0.07190
C2A C -0.03970 -0.24060 -0.33930
O4A O -0.30010 0.06690 -0.37860
C6A C -0.00820 -0.32390 0.25850
C12A C -0.47460 0.19300 -0.04110
O1A O -0.07260 -0.33920 -0.25630
C10A C -0.40360 -0.01020 -0.31610
C5A C -0.12420 -0.39840 0.14270
O5A O -0.39350 0.13110 -0.12860
C3A C -0.21920 -0.33010 -0.21170
C11A C -0.50060 0.06820 -0.24630
O2A O -0.11170 -0.34590 0.02050
C4A C -0.21890 -0.40720 -0.09470
loop_
_geom_bond_atom_site_label_1
_geom_bond_atom_site_label_2
_geom_bond_site_symmetry_1
_geom_bond_site_symmetry_2
O1 C2 1_555 1_555
O2 C4 1_555 1_555
O3 C6 1_555 1_555
O4 C9 1_555 1_555
O5 C11 1_555 1_555
O6 C13 1_555 1_555
C1 C2 1_555 1_555
C3 O1 1_555 1_555
C4 C3 1_555 1_555
C5 O2 1_555 1_555
C6 C5 1_555 1_555
C7 O3 1_555 1_555
C8 C1 1_555 1_555
C9 C8 1_555 1_555
C10 O4 1_555 1_555
C11 C10 1_555 1_555
C12 O5 1_555 1_555
C13 C12 1_555 1_555
C14 C1 1_555 1_555
C8A C7 1_555 1_555
C7A C8 1_555 1_555
C14A O6 1_555 1_555
O6A C14 1_555 1_555
C1A C8A 1_555 1_555
C9A C8A 1_555 1_555
O3A C7A 1_555 1_555
C13A O6A 1_555 1_555
C2A C1A 1_555 1_555
O4A C9A 1_555 1_555
C6A O3A 1_555 1_555
C12A C13A 1_555 1_555
O1A C2A 1_555 1_555
C10A O4A 1_555 1_555
C5A C6A 1_555 1_555
O5A C12A 1_555 1_555
C3A O1A 1_555 1_555
C11A C10A 1_555 1_555
O2A C5A 1_555 1_555
C4A C3A 1_555 1_555
C14A C1A 1_555 1_555
O5A C11A 1_555 1_555
O2A C4A 1_555 1_555

#END
