
#######################################################################
#
#                 Cambridge Crystallographic Data Centre
#                                CCDC 
#
#######################################################################
#
# If this CIF has been generated from an entry in the Cambridge 
# Structural Database, then it will include bibliographic, chemical, 
# crystal, experimental, refinement or atomic coordinate data resulting 
# from the CCDC's data processing and validation procedures.
#
#######################################################################

data_TIBBUE
_chemical_formula_moiety         'C27 H24 Cl1 N3 O2 S1'
_chemical_name_systematic        
'N-[(2-{[(4-methylphenyl)sulfonyl]amino}phenyl)methyl]-N-phenylbenzenecarbohydrazonoyl chloride'
_symmetry_cell_setting           triclinic
_symmetry_space_group_name_H-M   'P -1'
_symmetry_Int_Tables_number      2
_space_group_name_Hall           '-P 1'
loop_
_symmetry_equiv_pos_site_id
_symmetry_equiv_pos_as_xyz
1 x,y,z
2 -x,-y,-z
_cell_length_a                   10.065(2)
_cell_length_b                   10.409(2)
_cell_length_c                   13.298(3)
_cell_angle_alpha                67.708(12)
_cell_angle_beta                 69.529(13)
_cell_angle_gamma                72.268(14)
_cell_volume                     1183.67
_exptl_crystal_colour            colorless
_exptl_crystal_description       block
_cell_formula_units_Z            2
loop_
_atom_site_label
_atom_site_type_symbol
_atom_site_fract_x
_atom_site_fract_y
_atom_site_fract_z
S1 S 0.06728(5) 0.25757(4) 1.07028(4)
C1 C 0.17455(19) 0.25228(18) 0.85710(14)
N1 N 0.07764(16) 0.32609(15) 0.93552(12)
H1 H 0.088684 0.412290 0.912271
O1 O 0.05260(14) 0.11360(13) 1.10420(11)
N2 N 0.44744(16) 0.49019(16) 0.68872(12)
Cl1 Cl 0.15970(5) 0.57216(5) 0.62364(4)
C2 C 0.30152(19) 0.29914(18) 0.78426(14)
O2 O -0.04417(14) 0.35715(14) 1.12077(11)
N3 N 0.40707(16) 0.62578(16) 0.62187(12)
C3 C 0.3866(2) 0.2293(2) 0.70529(16)
H2 H 0.473505 0.258799 0.655385
C4 C 0.3469(2) 0.1173(2) 0.69819(16)
H3 H 0.406931 0.070458 0.644139
C5 C 0.2199(2) 0.07353(19) 0.76972(16)
H4 H 0.191845 -0.002031 0.763761
C6 C 0.1341(2) 0.14023(18) 0.84976(15)
H5 H 0.047692 0.109648 0.899661
C7 C 0.2324(2) 0.25896(18) 1.08783(14)
C8 C 0.3480(2) 0.14503(19) 1.08037(15)
H6 H 0.336871 0.063636 1.070327
C9 C 0.4800(2) 0.1518(2) 1.08778(16)
H7 H 0.559588 0.074899 1.081808
C10 C 0.4970(2) 0.2703(2) 1.10391(16)
C11 C 0.3785(2) 0.3814(2) 1.11327(16)
H8 H 0.388452 0.461598 1.125813
C12 C 0.2469(2) 0.37770(19) 1.10474(15)
H9 H 0.167451 0.454886 1.110308
C13 C 0.6387(2) 0.2782(2) 1.1138(2)
H10 H 0.637052 0.246727 1.193594
H11 H 0.653305 0.376077 1.079154
H12 H 0.717904 0.216774 1.075167
C14 C 0.34062(19) 0.42547(19) 0.78972(15)
H13 H 0.251437 0.498145 0.801422
H14 H 0.379297 0.395111 0.855925
C15 C 0.59333(19) 0.45532(19) 0.69156(15)
C16 C 0.6454(2) 0.3279(2) 0.76607(16)
H15 H 0.582085 0.264825 0.815301
C17 C 0.7894(2) 0.2931(2) 0.76843(17)
H16 H 0.823662 0.206745 0.819670
C18 C 0.8834(2) 0.3839(2) 0.69630(17)
H17 H 0.981391 0.360842 0.698556
C19 C 0.8323(2) 0.5084(2) 0.62120(17)
H18 H 0.896443 0.570470 0.571476
C20 C 0.6899(2) 0.54446(19) 0.61693(15)
H19 H 0.657484 0.629452 0.563555
C21 C 0.29037(19) 0.67230(19) 0.59115(15)
C22 C 0.25720(19) 0.82062(19) 0.52084(15)
C23 C 0.1754(2) 0.8599(2) 0.44397(16)
H20 H 0.136838 0.791086 0.438149
C24 C 0.1507(2) 0.9989(2) 0.37642(17)
H21 H 0.096724 1.024602 0.323299
C25 C 0.2039(2) 1.1010(2) 0.38541(17)
H22 H 0.185889 1.196398 0.339138
C26 C 0.2833(3) 1.0631(2) 0.46216(18)
H23 H 0.319253 1.133038 0.468968
C27 C 0.3109(2) 0.9237(2) 0.52940(17)
H24 H 0.366449 0.898420 0.581372
loop_
_geom_bond_atom_site_label_1
_geom_bond_atom_site_label_2
_geom_bond_site_symmetry_1
_geom_bond_site_symmetry_2
S1 N1 1_555 1_555
C1 N1 1_555 1_555
N1 H1 1_555 1_555
O1 S1 1_555 1_555
N2 N3 1_555 1_555
Cl1 C21 1_555 1_555
C2 C1 1_555 1_555
O2 S1 1_555 1_555
N3 C21 1_555 1_555
C3 C2 1_555 1_555
H2 C3 1_555 1_555
C4 C3 1_555 1_555
H3 C4 1_555 1_555
C5 C4 1_555 1_555
H4 C5 1_555 1_555
C6 C1 1_555 1_555
H5 C6 1_555 1_555
C7 S1 1_555 1_555
C8 C7 1_555 1_555
H6 C8 1_555 1_555
C9 C8 1_555 1_555
H7 C9 1_555 1_555
C10 C9 1_555 1_555
C11 C10 1_555 1_555
H8 C11 1_555 1_555
C12 C7 1_555 1_555
H9 C12 1_555 1_555
C13 C10 1_555 1_555
H10 C13 1_555 1_555
H11 C13 1_555 1_555
H12 C13 1_555 1_555
C14 N2 1_555 1_555
H13 C14 1_555 1_555
H14 C14 1_555 1_555
C15 N2 1_555 1_555
C16 C15 1_555 1_555
H15 C16 1_555 1_555
C17 C16 1_555 1_555
H16 C17 1_555 1_555
C18 C17 1_555 1_555
H17 C18 1_555 1_555
C19 C18 1_555 1_555
H18 C19 1_555 1_555
C20 C15 1_555 1_555
H19 C20 1_555 1_555
C21 C22 1_555 1_555
C22 C23 1_555 1_555
C23 H20 1_555 1_555
C24 C23 1_555 1_555
H21 C24 1_555 1_555
C25 C24 1_555 1_555
H22 C25 1_555 1_555
C26 C25 1_555 1_555
H23 C26 1_555 1_555
C27 C22 1_555 1_555
H24 C27 1_555 1_555
C2 C14 1_555 1_555
C5 C6 1_555 1_555
C11 C12 1_555 1_555
C19 C20 1_555 1_555
C26 C27 1_555 1_555

#END
