
#######################################################################
#
#                 Cambridge Crystallographic Data Centre
#                                CCDC 
#
#######################################################################
#
# If this CIF has been generated from an entry in the Cambridge 
# Structural Database, then it will include bibliographic, chemical, 
# crystal, experimental, refinement or atomic coordinate data resulting 
# from the CCDC's data processing and validation procedures.
#
#######################################################################

data_TIBBIQ
_chemical_formula_moiety         'C24 H20 O9'
_chemical_name_systematic        
'Diethyl 2,5-bis(1,3-benzodioxol-5-yl)furan-3,4-dicarboxylate'
_symmetry_cell_setting           triclinic
_symmetry_space_group_name_H-M   'P -1'
_symmetry_Int_Tables_number      2
_space_group_name_Hall           '-P 1'
loop_
_symmetry_equiv_pos_site_id
_symmetry_equiv_pos_as_xyz
1 x,y,z
2 -x,-y,-z
_cell_length_a                   9.7835(17)
_cell_length_b                   10.6602(18)
_cell_length_c                   11.3040(19)
_cell_angle_alpha                85.684(3)
_cell_angle_beta                 84.100(3)
_cell_angle_gamma                64.454(3)
_cell_volume                     1057.42
_exptl_crystal_colour            colorless
_exptl_crystal_description       block
_cell_formula_units_Z            2
_exptl_crystal_recrystallization_method methanol
loop_
_atom_site_label
_atom_site_type_symbol
_atom_site_fract_x
_atom_site_fract_y
_atom_site_fract_z
C1 C 1.5373(3) -0.2324(3) 0.6319(3)
H1 H 1.6361 -0.2308 0.6199
H2 H 1.5236 -0.2623 0.7137
C2 C 1.4050(3) -0.2483(3) 0.4899(2)
C3 C 1.3487(3) -0.2902(3) 0.4042(3)
H3 H 1.3909 -0.3825 0.3822
C4 C 1.2244(3) -0.1883(3) 0.3505(3)
H4 H 1.1831 -0.2143 0.2915
C5 C 1.1598(3) -0.0506(2) 0.3810(2)
C6 C 1.2193(3) -0.0105(3) 0.4717(2)
H5 H 1.1775 0.0809 0.4960
C7 C 1.3420(3) -0.1126(3) 0.5226(2)
C8 C 1.0338(3) 0.0507(2) 0.3154(2)
C9 C 0.9554(3) 0.1929(2) 0.3014(2)
C10 C 0.8499(3) 0.2183(2) 0.2132(2)
C11 C 0.8699(2) 0.0925(2) 0.1772(2)
C12 C 0.8094(2) 0.0436(2) 0.0885(2)
C13 C 0.8812(3) -0.0947(2) 0.0560(2)
H6 H 0.9668 -0.1548 0.0938
C14 C 0.8306(3) -0.1465(2) -0.0300(2)
H7 H 0.8796 -0.2395 -0.0500
C15 C 0.7052(3) -0.0546(2) -0.0842(2)
C16 C 0.6333(3) 0.0822(2) -0.0553(2)
C17 C 0.6797(3) 0.1357(2) 0.0305(2)
H8 H 0.6282 0.2288 0.0500
C18 C 0.5131(3) 0.0519(3) -0.2008(2)
H9 H 0.4165 0.0459 -0.1941
H10 H 0.5324 0.0800 -0.2821
C19 C 0.9734(3) 0.3031(3) 0.3591(2)
C20 C 0.8828(4) 0.5466(3) 0.3699(3)
H11 H 0.9853 0.5396 0.3674
H12 H 0.8428 0.5511 0.4524
C21 C 0.7863(4) 0.6721(3) 0.3025(3)
H13 H 0.8266 0.6665 0.2210
H14 H 0.7845 0.7529 0.3362
H15 H 0.6849 0.6787 0.3064
C22 C 0.7444(3) 0.3548(3) 0.1607(2)
C23 C 0.7199(4) 0.5202(3) 0.0023(3)
H16 H 0.6191 0.5258 -0.0031
H17 H 0.7099 0.5996 0.0450
C24 C 0.7901(6) 0.5223(4) -0.1135(4)
H18 H 0.8950 0.5017 -0.1082
H19 H 0.7395 0.6128 -0.1507
H20 H 0.7833 0.4538 -0.1602
O1 O 1.5289(2) -0.3252(2) 0.55368(18)
O2 O 1.4214(2) -0.0974(2) 0.60913(17)
O3 O 0.98038(17) -0.00952(16) 0.24080(14)
O4 O 0.63233(19) -0.08012(18) -0.17055(16)
O5 O 0.50915(19) 0.15117(18) -0.12015(16)
O6 O 1.0558(3) 0.2901(2) 0.4347(2)
O7 O 0.8842(2) 0.42694(18) 0.31612(18)
O8 O 0.6144(2) 0.4194(2) 0.1944(2)
O9 O 0.8122(2) 0.39163(19) 0.06604(18)
loop_
_geom_bond_atom_site_label_1
_geom_bond_atom_site_label_2
_geom_bond_site_symmetry_1
_geom_bond_site_symmetry_2
C1 H1 1_555 1_555
H2 C1 1_555 1_555
C2 C3 1_555 1_555
C3 H3 1_555 1_555
C4 C3 1_555 1_555
H4 C4 1_555 1_555
C5 C4 1_555 1_555
C6 C5 1_555 1_555
H5 C6 1_555 1_555
C7 C2 1_555 1_555
C8 C5 1_555 1_555
C9 C8 1_555 1_555
C10 C9 1_555 1_555
C11 C10 1_555 1_555
C12 C11 1_555 1_555
C13 C12 1_555 1_555
H6 C13 1_555 1_555
C14 C13 1_555 1_555
H7 C14 1_555 1_555
C15 C14 1_555 1_555
C16 C15 1_555 1_555
C17 C12 1_555 1_555
H8 C17 1_555 1_555
C18 H9 1_555 1_555
H10 C18 1_555 1_555
C19 C9 1_555 1_555
C20 H11 1_555 1_555
H12 C20 1_555 1_555
C21 C20 1_555 1_555
H13 C21 1_555 1_555
H14 C21 1_555 1_555
H15 C21 1_555 1_555
C22 C10 1_555 1_555
C23 H16 1_555 1_555
H17 C23 1_555 1_555
C24 C23 1_555 1_555
H18 C24 1_555 1_555
H19 C24 1_555 1_555
H20 C24 1_555 1_555
O1 C1 1_555 1_555
O2 C1 1_555 1_555
O3 C8 1_555 1_555
O4 C15 1_555 1_555
O5 C16 1_555 1_555
O6 C19 1_555 1_555
O7 C19 1_555 1_555
O8 C22 1_555 1_555
O9 C22 1_555 1_555
C2 O1 1_555 1_555
C6 C7 1_555 1_555
C7 O2 1_555 1_555
C11 O3 1_555 1_555
C16 C17 1_555 1_555
C18 O4 1_555 1_555
C18 O5 1_555 1_555
C20 O7 1_555 1_555
C23 O9 1_555 1_555

#END
