
#######################################################################
#
#                 Cambridge Crystallographic Data Centre
#                                CCDC 
#
#######################################################################
#
# If this CIF has been generated from an entry in the Cambridge 
# Structural Database, then it will include bibliographic, chemical, 
# crystal, experimental, refinement or atomic coordinate data resulting 
# from the CCDC's data processing and validation procedures.
#
#######################################################################

data_TIBDOA
_chemical_formula_moiety         'C28 H29 B2 N3,2(C18 H23 B1 O1)'
_chemical_name_systematic        
'3,9-bis(2,4,6-trimethylphenyl)-3,4,8,9-tetrahydro-4,8,9b-triaza-3,9-diboracyclopenta[cd]phenalene bis(bis(2,4,6-trimethylphenyl)borinic acid)'
_symmetry_cell_setting           triclinic
_symmetry_space_group_name_H-M   'P -1'
_symmetry_Int_Tables_number      2
_space_group_name_Hall           '-P 1'
loop_
_symmetry_equiv_pos_site_id
_symmetry_equiv_pos_as_xyz
1 x,y,z
2 -x,-y,-z
_cell_length_a                   13.3045(15)
_cell_length_b                   15.3661(16)
_cell_length_c                   17.0550(17)
_cell_angle_alpha                68.335(10)
_cell_angle_beta                 68.022(10)
_cell_angle_gamma                67.271(11)
_cell_volume                     2877.58
_exptl_crystal_colour            colorless
_exptl_crystal_description       block
_cell_formula_units_Z            2
loop_
_atom_site_label
_atom_site_type_symbol
_atom_site_fract_x
_atom_site_fract_y
_atom_site_fract_z
O1 O 0.08761(18) 0.86743(14) 0.57227(13)
H1 H 0.0482 0.9184 0.5863
C1 C -0.1377(3) 0.8745(2) 0.7207(2)
C2 C 0.1471(3) 0.6845(2) 0.6307(2)
C3 C -0.0287(3) 0.8126(2) 0.7274(2)
C4 C -0.0064(3) 0.7795(2) 0.8100(2)
C5 C -0.2181(3) 0.9041(2) 0.7943(2)
H2 H -0.2898 0.9440 0.7890
C6 C -0.0897(3) 0.8132(2) 0.8805(2)
H3 H -0.0730 0.7920 0.9340
C7 C -0.1958(3) 0.8766(2) 0.8746(2)
C8 C 0.2667(3) 0.6625(2) 0.6085(2)
C9 C 0.1035(3) 0.6076(2) 0.6461(2)
C10 C -0.1730(3) 0.9083(3) 0.6373(2)
H4 H -0.1487 0.9648 0.5996
H5 H -0.2539 0.9248 0.6512
H6 H -0.1390 0.8569 0.6082
C11 C 0.1754(4) 0.5151(2) 0.6410(2)
H7 H 0.1439 0.4660 0.6515
C12 C 0.3351(3) 0.5685(3) 0.6038(2)
H8 H 0.4132 0.5559 0.5885
C13 C 0.2912(4) 0.4924(3) 0.6211(2)
C14 C 0.1056(3) 0.7100(3) 0.8240(2)
H9 H 0.1237 0.6543 0.8029
H10 H 0.1011 0.6887 0.8854
H11 H 0.1636 0.7425 0.7926
C15 C 0.3237(3) 0.7387(3) 0.5921(3)
H12 H 0.3102 0.7898 0.5406
H13 H 0.4036 0.7086 0.5839
H14 H 0.2932 0.7658 0.6416
C16 C -0.0213(3) 0.6253(3) 0.6639(3)
H15 H -0.0624 0.6643 0.7050
H16 H -0.0384 0.5639 0.6878
H17 H -0.0430 0.6591 0.6102
B1 B 0.0679(3) 0.7887(3) 0.6425(3)
C17 C -0.2822(3) 0.9113(3) 0.9518(3)
H18 H -0.3283 0.9762 0.9317
H19 H -0.2445 0.9116 0.9899
H20 H -0.3291 0.8682 0.9832
C18 C 0.3690(4) 0.3895(3) 0.6184(3)
H21 H 0.4092 0.3650 0.6622
H22 H 0.4221 0.3913 0.5616
H23 H 0.3247 0.3474 0.6298
O2 O 0.01148(19) 0.93220(14) 0.42013(14)
H24 H 0.0422 0.8956 0.4590
C19 C -0.0398(3) 0.9427(2) 0.2908(2)
C20 C 0.0812(3) 0.7673(2) 0.3840(2)
C21 C 0.0245(3) 0.9464(2) 0.2029(2)
C22 C -0.1547(3) 0.9997(2) 0.3075(2)
C23 C 0.1968(3) 0.7321(2) 0.3831(2)
C24 C -0.1991(3) 1.0604(2) 0.2369(3)
H25 H -0.2748 1.0972 0.2484
C25 C -0.0244(3) 1.0101(3) 0.1347(2)
H26 H 0.0191 1.0132 0.0770
C26 C 0.0274(3) 0.6985(2) 0.3951(2)
C27 C -0.1355(4) 1.0684(3) 0.1506(3)
C28 C -0.2311(3) 0.9957(3) 0.3997(2)
H27 H -0.2328 0.9295 0.4300
H28 H -0.3063 1.0365 0.3974
H29 H -0.2028 1.0186 0.4303
C29 C 0.1462(3) 0.8858(3) 0.1786(2)
H30 H 0.1901 0.8998 0.2036
H31 H 0.1756 0.9015 0.1160
H32 H 0.1504 0.8177 0.2007
C30 C 0.2612(3) 0.7992(3) 0.3729(3)
H33 H 0.2431 0.8580 0.3278
H34 H 0.3409 0.7672 0.3570
H35 H 0.2405 0.8153 0.4272
C31 C 0.2544(4) 0.6334(3) 0.3886(3)
H36 H 0.3311 0.6116 0.3855
B2 B 0.0175(3) 0.8795(3) 0.3684(2)
C32 C 0.0883(5) 0.6013(3) 0.4020(3)
H37 H 0.0514 0.5572 0.4093
C33 C -0.0967(4) 0.7287(3) 0.4026(3)
H38 H -0.1393 0.7497 0.4552
H39 H -0.1170 0.6742 0.4047
H40 H -0.1132 0.7815 0.3528
C34 C 0.2019(5) 0.5673(3) 0.3983(3)
C35 C -0.1836(4) 1.1397(3) 0.0746(3)
H41 H -0.1794 1.1043 0.0368
H42 H -0.1406 1.1858 0.0421
H43 H -0.2612 1.1740 0.0969
C36 C 0.2682(5) 0.4598(3) 0.4029(4)
H44 H 0.3096 0.4527 0.3448
H45 H 0.2166 0.4208 0.4292
H46 H 0.3201 0.4385 0.4376
N1 N 0.68328(19) -0.25464(16) 0.15284(16)
N2 N 0.7572(2) -0.13880(18) 0.19763(18)
H47 H 0.7674 -0.1388 0.2445
N3 N 0.8308(2) -0.41769(18) 0.09506(18)
H48 H 0.8751 -0.4293 0.0460
C37 C 0.6015(2) -0.1740(2) 0.18046(19)
C38 C 0.7976(2) -0.2805(2) 0.14752(19)
C39 C 0.6374(2) -0.3042(2) 0.1272(2)
C40 C 0.6884(2) -0.4550(2) 0.0522(2)
C41 C 0.8352(2) -0.2223(2) 0.1708(2)
C42 C 0.5621(2) -0.0166(2) 0.2424(2)
C43 C 0.8729(2) -0.3633(2) 0.1189(2)
C44 C 0.5273(3) -0.0235(2) 0.3330(2)
C45 C 0.7159(3) -0.4371(2) -0.0388(2)
C46 C 0.5234(3) -0.2527(2) 0.1404(2)
H49 H 0.4699 -0.2682 0.1292
C47 C 0.5012(2) -0.1744(2) 0.1731(2)
H50 H 0.4308 -0.1297 0.1875
C48 C 0.6493(3) -0.5703(2) -0.0230(3)
C49 C 0.6372(3) -0.5298(2) 0.1052(2)
C50 C 0.5312(3) 0.0764(2) 0.1838(2)
C51 C 0.6197(3) -0.5865(2) 0.0664(3)
H51 H 0.5871 -0.6365 0.1020
C52 C 0.4688(3) 0.0610(3) 0.3625(3)
H52 H 0.4472 0.0555 0.4223
C53 C 0.6951(3) -0.4948(3) -0.0747(3)
H53 H 0.7128 -0.4817 -0.1353
C54 C 0.4422(3) 0.1522(3) 0.3057(3)
C55 C 0.9868(3) -0.3869(3) 0.1132(3)
H54 H 1.0383 -0.4412 0.0938
C56 C 0.9498(3) -0.2487(3) 0.1650(3)
H55 H 0.9767 -0.2115 0.1805
C57 C 0.4730(3) 0.1586(2) 0.2168(3)
H56 H 0.4544 0.2197 0.1779
C58 C 1.0233(3) -0.3295(3) 0.1364(3)
H57 H 1.0997 -0.3460 0.1326
B3 B 0.6386(3) -0.1103(3) 0.2076(2)
C59 C 0.7657(3) -0.3545(3) -0.0991(3)
H58 H 0.7174 -0.2945 -0.0842
H59 H 0.7719 -0.3486 -0.1587
H60 H 0.8394 -0.3679 -0.0928
C60 C 0.5986(3) -0.5474(3) 0.2039(3)
H61 H 0.6574 -0.5482 0.2240
H62 H 0.5822 -0.6091 0.2305
H63 H 0.5317 -0.4961 0.2197
C61 C 0.5582(4) 0.0872(3) 0.0864(3)
H64 H 0.6386 0.0642 0.0628
H65 H 0.5313 0.1548 0.0570
H66 H 0.5219 0.0495 0.0779
B4 B 0.7178(3) -0.3935(3) 0.0926(3)
C62 C 0.6297(3) -0.6343(3) -0.0625(3)
H67 H 0.6852 -0.6971 -0.0552
H68 H 0.6362 -0.6039 -0.1238
H69 H 0.5554 -0.6423 -0.0335
C63 C 0.5524(4) -0.1223(3) 0.3994(3)
H70 H 0.5293 -0.1675 0.3881
H71 H 0.5116 -0.1149 0.4575
H72 H 0.6321 -0.1468 0.3945
C64 C 0.3793(4) 0.2445(3) 0.3390(4)
H73 H 0.3168 0.2328 0.3889
H74 H 0.3517 0.2978 0.2934
H75 H 0.4302 0.2606 0.3555
loop_
_geom_bond_atom_site_label_1
_geom_bond_atom_site_label_2
_geom_bond_site_symmetry_1
_geom_bond_site_symmetry_2
O1 H1 1_555 1_555
C1 C3 1_555 1_555
C2 C8 1_555 1_555
C3 C4 1_555 1_555
C4 C6 1_555 1_555
C5 C1 1_555 1_555
H2 C5 1_555 1_555
C6 H3 1_555 1_555
C7 C5 1_555 1_555
C8 C12 1_555 1_555
C9 C2 1_555 1_555
C10 C1 1_555 1_555
H4 C10 1_555 1_555
H5 C10 1_555 1_555
H6 C10 1_555 1_555
C11 C9 1_555 1_555
H7 C11 1_555 1_555
C12 H8 1_555 1_555
C13 C11 1_555 1_555
C14 C4 1_555 1_555
H9 C14 1_555 1_555
H10 C14 1_555 1_555
H11 C14 1_555 1_555
C15 C8 1_555 1_555
H12 C15 1_555 1_555
H13 C15 1_555 1_555
H14 C15 1_555 1_555
C16 C9 1_555 1_555
H15 C16 1_555 1_555
H16 C16 1_555 1_555
H17 C16 1_555 1_555
B1 O1 1_555 1_555
C17 C7 1_555 1_555
H18 C17 1_555 1_555
H19 C17 1_555 1_555
H20 C17 1_555 1_555
C18 C13 1_555 1_555
H21 C18 1_555 1_555
H22 C18 1_555 1_555
H23 C18 1_555 1_555
O2 H24 1_555 1_555
C19 C21 1_555 1_555
C20 C23 1_555 1_555
C21 C25 1_555 1_555
C22 C19 1_555 1_555
C23 C30 1_555 1_555
C24 C22 1_555 1_555
H25 C24 1_555 1_555
C25 H26 1_555 1_555
C26 C20 1_555 1_555
C27 C24 1_555 1_555
C28 C22 1_555 1_555
H27 C28 1_555 1_555
H28 C28 1_555 1_555
H29 C28 1_555 1_555
C29 C21 1_555 1_555
H30 C29 1_555 1_555
H31 C29 1_555 1_555
H32 C29 1_555 1_555
C30 H33 1_555 1_555
H34 C30 1_555 1_555
H35 C30 1_555 1_555
C31 C23 1_555 1_555
H36 C31 1_555 1_555
B2 O2 1_555 1_555
C32 C26 1_555 1_555
H37 C32 1_555 1_555
C33 C26 1_555 1_555
H38 C33 1_555 1_555
H39 C33 1_555 1_555
H40 C33 1_555 1_555
C34 C31 1_555 1_555
C35 C27 1_555 1_555
H41 C35 1_555 1_555
H42 C35 1_555 1_555
H43 C35 1_555 1_555
C36 C34 1_555 1_555
H44 C36 1_555 1_555
H45 C36 1_555 1_555
H46 C36 1_555 1_555
N1 C37 1_555 1_555
N2 H47 1_555 1_555
N3 H48 1_555 1_555
C37 C47 1_555 1_555
C38 N1 1_555 1_555
C39 N1 1_555 1_555
C40 C45 1_555 1_555
C41 N2 1_555 1_555
C42 C44 1_555 1_555
C43 N3 1_555 1_555
C44 C52 1_555 1_555
C45 C53 1_555 1_555
C46 C39 1_555 1_555
H49 C46 1_555 1_555
C47 C46 1_555 1_555
H50 C47 1_555 1_555
C48 C51 1_555 1_555
C49 C40 1_555 1_555
C50 C42 1_555 1_555
C51 C49 1_555 1_555
H51 C51 1_555 1_555
C52 H52 1_555 1_555
C53 C48 1_555 1_555
H53 C53 1_555 1_555
C54 C52 1_555 1_555
C55 C43 1_555 1_555
H54 C55 1_555 1_555
C56 C41 1_555 1_555
H55 C56 1_555 1_555
C57 C50 1_555 1_555
H56 C57 1_555 1_555
C58 C55 1_555 1_555
H57 C58 1_555 1_555
B3 N2 1_555 1_555
C59 C45 1_555 1_555
H58 C59 1_555 1_555
H59 C59 1_555 1_555
H60 C59 1_555 1_555
C60 C49 1_555 1_555
H61 C60 1_555 1_555
H62 C60 1_555 1_555
H63 C60 1_555 1_555
C61 C50 1_555 1_555
H64 C61 1_555 1_555
H65 C61 1_555 1_555
H66 C61 1_555 1_555
B4 N3 1_555 1_555
C62 C48 1_555 1_555
H67 C62 1_555 1_555
H68 C62 1_555 1_555
H69 C62 1_555 1_555
C63 C44 1_555 1_555
H70 C63 1_555 1_555
H71 C63 1_555 1_555
H72 C63 1_555 1_555
C64 C54 1_555 1_555
H73 C64 1_555 1_555
H74 C64 1_555 1_555
H75 C64 1_555 1_555
C2 B1 1_555 1_555
C3 B1 1_555 1_555
C6 C7 1_555 1_555
C12 C13 1_555 1_555
C19 B2 1_555 1_555
C20 B2 1_555 1_555
C25 C27 1_555 1_555
C32 C34 1_555 1_555
C37 B3 1_555 1_555
C38 C41 1_555 1_555
C38 C43 1_555 1_555
C39 B4 1_555 1_555
C40 B4 1_555 1_555
C42 B3 1_555 1_555
C54 C57 1_555 1_555
C56 C58 1_555 1_555

#END
