
#######################################################################
#
#                 Cambridge Crystallographic Data Centre
#                                CCDC 
#
#######################################################################
#
# If this CIF has been generated from an entry in the Cambridge 
# Structural Database, then it will include bibliographic, chemical, 
# crystal, experimental, refinement or atomic coordinate data resulting 
# from the CCDC's data processing and validation procedures.
#
#######################################################################

data_TIBFEQ
_chemical_formula_moiety         'C30 H28 N2 S4'
_chemical_name_systematic        'bis(N,N-Dibenzylthiocarbamoyl) disulfide'
_symmetry_cell_setting           monoclinic
_symmetry_space_group_name_H-M   'C 2/c'
_symmetry_Int_Tables_number      15
_space_group_name_Hall           '-C 2yn'
loop_
_symmetry_equiv_pos_site_id
_symmetry_equiv_pos_as_xyz
1 x,y,z
2 1/2+x,1/2+y,z
3 -x,y,1/2-z
4 1/2-x,1/2+y,1/2-z
5 -x,-y,-z
6 1/2-x,1/2-y,-z
7 x,-y,1/2+z
8 1/2+x,1/2-y,1/2+z
_cell_length_a                   19.546(3)
_cell_length_b                   14.325(2)
_cell_length_c                   21.958(3)
_cell_angle_alpha                90
_cell_angle_beta                 115.860(2)
_cell_angle_gamma                90
_cell_volume                     5532.5
_exptl_crystal_colour            orange-yellow
_exptl_crystal_description       prism
_chemical_melting_point          '410 K'
_cell_formula_units_Z            8
_exptl_crystal_recrystallization_method hexane/dichloromethane
loop_
_atom_site_label
_atom_site_type_symbol
_atom_site_fract_x
_atom_site_fract_y
_atom_site_fract_z
N1 N 0.21398(13) 0.51242(18) 0.07818(12)
N2 N 0.27119(14) 0.09596(18) 0.14889(13)
S1 S 0.20674(5) 0.34265(6) 0.03094(4)
S2 S 0.17645(5) 0.39405(6) 0.15128(4)
S3 S 0.18381(5) 0.21972(6) 0.06016(4)
S4 S 0.35179(5) 0.24680(7) 0.15163(5)
C1 C 0.19899(16) 0.4248(2) 0.09056(15)
C2 C 0.22290(18) 0.5411(2) 0.01729(16)
H1 H 0.1938 0.5976 -0.0007
H2 H 0.2014 0.4928 -0.0168
C3 C 0.30436(18) 0.5585(2) 0.02933(15)
C4 C 0.36207(18) 0.4968(3) 0.06522(16)
H3 H 0.3523 0.4450 0.0857
C5 C 0.4342(2) 0.5116(3) 0.07087(19)
H4 H 0.4731 0.4701 0.0955
C6 C 0.4491(2) 0.5873(3) 0.0403(2)
H5 H 0.4977 0.5968 0.0437
C7 C 0.3922(2) 0.6485(3) 0.0049(2)
H6 H 0.4022 0.6999 -0.0158
C8 C 0.3201(2) 0.6349(2) -0.00042(17)
H7 H 0.2818 0.6776 -0.0242
C9 C 0.21621(17) 0.5881(2) 0.12350(16)
H8 H 0.2499 0.6365 0.1215
H9 H 0.2378 0.5643 0.1695
C10 C 0.13988(17) 0.63121(19) 0.10784(15)
C11 C 0.07478(17) 0.6101(2) 0.05038(16)
H10 H 0.0771 0.5669 0.0197
C12 C 0.00642(18) 0.6518(2) 0.03766(17)
H11 H -0.0366 0.6377 -0.0018
C13 C 0.0015(2) 0.7143(2) 0.08303(19)
H12 H -0.0446 0.7425 0.0745
C14 C 0.0655(2) 0.7346(2) 0.14119(19)
H13 H 0.0624 0.7757 0.1727
C15 C 0.13447(19) 0.6942(2) 0.15316(16)
H14 H 0.1777 0.7097 0.1922
C16 C 0.27573(17) 0.1812(2) 0.12609(15)
C17 C 0.33825(18) 0.0514(2) 0.20365(16)
H15 H 0.3220 0.0184 0.2337
H16 H 0.3738 0.0996 0.2298
C18 C 0.37838(18) -0.0163(2) 0.17723(15)
C19 C 0.43401(18) 0.0141(3) 0.15949(17)
H17 H 0.4455 0.0774 0.1623
C20 C 0.4730(2) -0.0470(3) 0.13763(19)
H18 H 0.5111 -0.0250 0.1268
C21 C 0.4559(2) -0.1400(3) 0.13184(18)
H19 H 0.4820 -0.1813 0.1169
C22 C 0.4002(2) -0.1718(3) 0.14810(19)
H20 H 0.3877 -0.2349 0.1433
C23 C 0.3618(2) -0.1108(3) 0.17174(18)
H21 H 0.3249 -0.1335 0.1839
C24 C 0.19998(19) 0.0420(2) 0.12655(17)
H22 H 0.2108 -0.0233 0.1228
H23 H 0.1645 0.0634 0.0820
C25 C 0.16274(17) 0.0505(2) 0.17425(16)
C26 C 0.1493(2) -0.0272(3) 0.20416(19)
H24 H 0.1638 -0.0857 0.1955
C27 C 0.1144(2) -0.0196(3) 0.2470(2)
H25 H 0.1059 -0.0726 0.2673
C28 C 0.0925(2) 0.0658(4) 0.2593(2)
H26 H 0.0689 0.0710 0.2879
C29 C 0.1048(2) 0.1438(3) 0.22995(18)
H27 H 0.0892 0.2018 0.2382
C30 C 0.14035(19) 0.1364(2) 0.18802(17)
H28 H 0.1494 0.1900 0.1687
loop_
_geom_bond_atom_site_label_1
_geom_bond_atom_site_label_2
_geom_bond_site_symmetry_1
_geom_bond_site_symmetry_2
N1 C1 1_555 1_555
N2 C16 1_555 1_555
S1 S3 1_555 1_555
S2 C1 1_555 1_555
S3 C16 1_555 1_555
S4 C16 1_555 1_555
C1 S1 1_555 1_555
C2 N1 1_555 1_555
H1 C2 1_555 1_555
H2 C2 1_555 1_555
C3 C2 1_555 1_555
C4 C3 1_555 1_555
H3 C4 1_555 1_555
C5 C4 1_555 1_555
H4 C5 1_555 1_555
C6 C5 1_555 1_555
H5 C6 1_555 1_555
C7 C6 1_555 1_555
H6 C7 1_555 1_555
C8 C3 1_555 1_555
H7 C8 1_555 1_555
C9 N1 1_555 1_555
H8 C9 1_555 1_555
H9 C9 1_555 1_555
C10 C9 1_555 1_555
C11 C10 1_555 1_555
H10 C11 1_555 1_555
C12 C11 1_555 1_555
H11 C12 1_555 1_555
C13 C12 1_555 1_555
H12 C13 1_555 1_555
C14 C13 1_555 1_555
H13 C14 1_555 1_555
C15 C10 1_555 1_555
H14 C15 1_555 1_555
C17 N2 1_555 1_555
H15 C17 1_555 1_555
H16 C17 1_555 1_555
C18 C17 1_555 1_555
C19 C18 1_555 1_555
H17 C19 1_555 1_555
C20 C19 1_555 1_555
H18 C20 1_555 1_555
C21 C20 1_555 1_555
H19 C21 1_555 1_555
C22 C21 1_555 1_555
H20 C22 1_555 1_555
C23 C18 1_555 1_555
H21 C23 1_555 1_555
C24 N2 1_555 1_555
H22 C24 1_555 1_555
H23 C24 1_555 1_555
C25 C24 1_555 1_555
C26 C25 1_555 1_555
H24 C26 1_555 1_555
C27 C26 1_555 1_555
H25 C27 1_555 1_555
C28 C27 1_555 1_555
H26 C28 1_555 1_555
C29 C28 1_555 1_555
H27 C29 1_555 1_555
C30 C25 1_555 1_555
H28 C30 1_555 1_555
C7 C8 1_555 1_555
C14 C15 1_555 1_555
C22 C23 1_555 1_555
C29 C30 1_555 1_555

#END
