
#######################################################################
#
#                 Cambridge Crystallographic Data Centre
#                                CCDC 
#
#######################################################################
#
# If this CIF has been generated from an entry in the Cambridge 
# Structural Database, then it will include bibliographic, chemical, 
# crystal, experimental, refinement or atomic coordinate data resulting 
# from the CCDC's data processing and validation procedures.
#
#######################################################################

data_TIBGIX
_chemical_formula_moiety         'C27 H23 N3 O2 S1'
_chemical_name_systematic        
1-[(4-methylphenyl)sulfonyl]-3,5-diphenyl-2,3-dihydro-1H-1,3,4-benzotriazepine
_symmetry_cell_setting           monoclinic
_symmetry_space_group_name_H-M   'P 21/n'
_symmetry_Int_Tables_number      14
_space_group_name_Hall           '-P 2yn'
loop_
_symmetry_equiv_pos_site_id
_symmetry_equiv_pos_as_xyz
1 x,y,z
2 1/2-x,1/2+y,1/2-z
3 -x,-y,-z
4 1/2+x,1/2-y,1/2+z
_cell_length_a                   9.913(2)
_cell_length_b                   16.570(3)
_cell_length_c                   13.815(3)
_cell_angle_alpha                90
_cell_angle_beta                 94.10(3)
_cell_angle_gamma                90
_cell_volume                     2263.42
_exptl_crystal_colour            colorless
_exptl_crystal_description       block
_cell_formula_units_Z            4
loop_
_atom_site_label
_atom_site_type_symbol
_atom_site_fract_x
_atom_site_fract_y
_atom_site_fract_z
S1 S -0.01846(9) 0.34305(6) 0.56007(7)
O1 O -0.1305(2) 0.32303(16) 0.61546(19)
O2 O -0.0370(3) 0.39430(16) 0.47693(19)
N1 N 0.0937(3) 0.38885(17) 0.6348(2)
N2 N 0.2997(3) 0.39464(17) 0.5484(2)
N3 N 0.3661(3) 0.33052(17) 0.5901(2)
C1 C 0.5741(4) 0.2321(2) 0.6716(3)
H1 H 0.605863 0.279429 0.645033
C2 C 0.6621(4) 0.1681(2) 0.6905(3)
H2 H 0.752498 0.172944 0.677396
C3 C 0.6157(4) 0.0974(2) 0.7286(3)
H3 H 0.674616 0.054464 0.741678
C4 C 0.4818(4) 0.0906(2) 0.7472(3)
H4 H 0.450152 0.042563 0.772084
C5 C 0.3934(4) 0.1546(2) 0.7293(3)
H5 H 0.303138 0.149283 0.742429
C6 C 0.4392(4) 0.2266(2) 0.6916(2)
C7 C 0.3452(4) 0.2964(2) 0.6720(3)
C8 C 0.2505(4) 0.3165(2) 0.7480(3)
C9 C 0.2843(4) 0.2937(2) 0.8445(3)
H6 H 0.367560 0.269419 0.860222
C10 C 0.1971(4) 0.3062(2) 0.9168(3)
H7 H 0.222056 0.290141 0.980002
C11 C 0.0724(4) 0.3428(2) 0.8955(3)
H8 H 0.012561 0.349979 0.943626
C12 C 0.0385(4) 0.3682(2) 0.8018(3)
H9 H -0.043602 0.394182 0.787187
C13 C 0.1260(4) 0.3554(2) 0.7290(3)
C14 C 0.1972(4) 0.4398(2) 0.5955(3)
H10 H 0.153683 0.477004 0.548977
H11 H 0.240872 0.471398 0.647873
C15 C 0.3568(3) 0.4240(2) 0.4642(2)
C16 C 0.4421(4) 0.3750(2) 0.4142(3)
H12 H 0.459932 0.322564 0.435454
C17 C 0.5005(4) 0.4038(3) 0.3330(3)
H13 H 0.559337 0.370980 0.301177
C18 C 0.4725(4) 0.4807(3) 0.2986(3)
H14 H 0.511094 0.499489 0.243454
C19 C 0.3871(4) 0.5288(2) 0.3469(3)
H15 H 0.367117 0.580511 0.323750
C20 C 0.3298(4) 0.5016(2) 0.4298(3)
H16 H 0.273236 0.535359 0.462350
C21 C 0.0559(4) 0.2519(2) 0.5257(3)
C22 C 0.0420(4) 0.1842(2) 0.5831(3)
H17 H -0.007682 0.186576 0.637621
C23 C 0.1034(4) 0.1131(2) 0.5579(3)
H18 H 0.094329 0.067501 0.596043
C24 C 0.1785(4) 0.1082(2) 0.4766(3)
C25 C 0.1887(4) 0.1769(2) 0.4196(3)
H19 H 0.236933 0.174566 0.364377
C26 C 0.1282(4) 0.2488(2) 0.4438(3)
H20 H 0.136190 0.294391 0.405426
C27 C 0.2472(5) 0.0305(3) 0.4522(4)
H21 H 0.325995 0.022786 0.495747
H22 H 0.273426 0.032791 0.386672
H23 H 0.185898 -0.013771 0.458560
loop_
_geom_bond_atom_site_label_1
_geom_bond_atom_site_label_2
_geom_bond_site_symmetry_1
_geom_bond_site_symmetry_2
S1 O1 1_555 1_555
O2 S1 1_555 1_555
N1 S1 1_555 1_555
N2 N3 1_555 1_555
N3 C7 1_555 1_555
C1 H1 1_555 1_555
C2 C1 1_555 1_555
H2 C2 1_555 1_555
C3 C2 1_555 1_555
H3 C3 1_555 1_555
C4 C3 1_555 1_555
H4 C4 1_555 1_555
C5 C4 1_555 1_555
H5 C5 1_555 1_555
C6 C1 1_555 1_555
C7 C6 1_555 1_555
C8 C7 1_555 1_555
C9 C8 1_555 1_555
H6 C9 1_555 1_555
C10 C9 1_555 1_555
H7 C10 1_555 1_555
C11 C10 1_555 1_555
H8 C11 1_555 1_555
C12 C11 1_555 1_555
H9 C12 1_555 1_555
C13 N1 1_555 1_555
C14 N1 1_555 1_555
H10 C14 1_555 1_555
H11 C14 1_555 1_555
C15 N2 1_555 1_555
C16 C15 1_555 1_555
H12 C16 1_555 1_555
C17 C16 1_555 1_555
H13 C17 1_555 1_555
C18 C17 1_555 1_555
H14 C18 1_555 1_555
C19 C18 1_555 1_555
H15 C19 1_555 1_555
C20 C15 1_555 1_555
H16 C20 1_555 1_555
C21 S1 1_555 1_555
C22 C21 1_555 1_555
H17 C22 1_555 1_555
C23 C22 1_555 1_555
H18 C23 1_555 1_555
C24 C23 1_555 1_555
C25 C24 1_555 1_555
H19 C25 1_555 1_555
C26 C21 1_555 1_555
H20 C26 1_555 1_555
C27 C24 1_555 1_555
H21 C27 1_555 1_555
H22 C27 1_555 1_555
H23 C27 1_555 1_555
N2 C14 1_555 1_555
C5 C6 1_555 1_555
C8 C13 1_555 1_555
C12 C13 1_555 1_555
C19 C20 1_555 1_555
C25 C26 1_555 1_555

#END
