
#######################################################################
#
#                 Cambridge Crystallographic Data Centre
#                                CCDC 
#
#######################################################################
#
# If this CIF has been generated from an entry in the Cambridge 
# Structural Database, then it will include bibliographic, chemical, 
# crystal, experimental, refinement or atomic coordinate data resulting 
# from the CCDC's data processing and validation procedures.
#
#######################################################################

data_TIBGUJ
_chemical_formula_moiety         'C27 H22 Br1 N3 O2 S1'
_chemical_name_systematic        
3-(4-bromophenyl)-1-[(4-methylphenyl)sulfonyl]-5-phenyl-2,3-dihydro-1H-1,3,4-benzotriazepine
_symmetry_cell_setting           monoclinic
_symmetry_space_group_name_H-M   'P 21/n'
_symmetry_Int_Tables_number      14
_space_group_name_Hall           '-P 2yn'
loop_
_symmetry_equiv_pos_site_id
_symmetry_equiv_pos_as_xyz
1 x,y,z
2 1/2-x,1/2+y,1/2-z
3 -x,-y,-z
4 1/2+x,1/2-y,1/2+z
_cell_length_a                   9.842(2)
_cell_length_b                   16.381(3)
_cell_length_c                   14.969(3)
_cell_angle_alpha                90
_cell_angle_beta                 97.50(3)
_cell_angle_gamma                90
_cell_volume                     2392.68
_exptl_crystal_colour            colorless
_exptl_crystal_description       block
_cell_formula_units_Z            4
loop_
_atom_site_label
_atom_site_type_symbol
_atom_site_fract_x
_atom_site_fract_y
_atom_site_fract_z
Br1 Br -0.03663(4) 0.52108(2) 0.76332(2)
S1 S 0.54491(6) 0.32574(4) 0.45545(5)
O1 O 0.5701(2) 0.37897(13) 0.53166(13)
O2 O 0.65551(18) 0.30026(13) 0.40870(14)
N1 N 0.4360(2) 0.37465(13) 0.38105(15)
N2 N 0.2243(2) 0.38465(13) 0.44831(15)
N3 N 0.1555(2) 0.32063(12) 0.40723(15)
C1 C 0.0460(3) 0.47808(16) 0.66549(18)
C2 C 0.1245(3) 0.52826(16) 0.61937(18)
H1 H 0.137739 0.582521 0.636614
C3 C 0.1837(3) 0.49804(16) 0.54731(18)
H2 H 0.236084 0.532115 0.515698
C4 C 0.1649(2) 0.41665(15) 0.52211(17)
C5 C 0.0853(3) 0.36613(16) 0.56965(18)
H3 H 0.072577 0.311645 0.553179
C6 C 0.0251(3) 0.39693(17) 0.64125(19)
H4 H -0.028658 0.363562 0.672679
C7 C 0.3343(3) 0.42867(15) 0.41267(19)
H5 H 0.379664 0.463999 0.459353
H6 H 0.295046 0.462983 0.363115
C8 C 0.4021(2) 0.34297(15) 0.29173(17)
C9 C 0.2751(3) 0.30557(15) 0.26723(17)
C10 C 0.1766(2) 0.28623(15) 0.33235(18)
C11 C 0.0778(3) 0.21750(16) 0.30768(17)
C12 C 0.1185(3) 0.14418(17) 0.2727(2)
H7 H 0.209537 0.136824 0.263834
C13 C 0.0250(3) 0.08218(19) 0.2509(2)
H8 H 0.053681 0.033425 0.227603
C14 C -0.1100(3) 0.09169(19) 0.2632(2)
H9 H -0.172756 0.050054 0.247258
C15 C -0.1519(3) 0.16337(19) 0.2994(2)
H10 H -0.242846 0.169844 0.308676
C16 C -0.0587(3) 0.22579(17) 0.3220(2)
H11 H -0.087585 0.273737 0.346950
C17 C 0.2398(3) 0.28610(17) 0.17597(19)
H12 H 0.154944 0.262424 0.157292
C18 C 0.3278(3) 0.30117(18) 0.11288(19)
H13 H 0.301358 0.288140 0.052642
C19 C 0.4551(3) 0.33564(17) 0.13946(19)
H14 H 0.515693 0.344148 0.097602
C20 C 0.4917(3) 0.35737(16) 0.22874(18)
H15 H 0.576284 0.381627 0.246693
C21 C 0.4604(3) 0.23822(16) 0.48784(18)
C22 C 0.3910(3) 0.24064(17) 0.56290(18)
H16 H 0.392431 0.287636 0.597870
C23 C 0.3197(3) 0.17227(18) 0.58502(19)
H17 H 0.274247 0.173550 0.635727
C24 C 0.3146(3) 0.10204(18) 0.5332(2)
C25 C 0.3861(3) 0.10094(18) 0.4589(2)
H18 H 0.384799 0.053955 0.423960
C26 C 0.4591(3) 0.16820(18) 0.4360(2)
H19 H 0.506690 0.166412 0.386290
C27 C 0.2327(4) 0.0283(2) 0.5545(3)
H20 H 0.204823 0.034533 0.613273
H21 H 0.288106 -0.019790 0.553438
H22 H 0.153051 0.023364 0.510445
loop_
_geom_bond_atom_site_label_1
_geom_bond_atom_site_label_2
_geom_bond_site_symmetry_1
_geom_bond_site_symmetry_2
Br1 C1 1_555 1_555
S1 O1 1_555 1_555
O2 S1 1_555 1_555
N1 S1 1_555 1_555
N2 N3 1_555 1_555
N3 C10 1_555 1_555
C1 C2 1_555 1_555
C2 H1 1_555 1_555
C3 C2 1_555 1_555
H2 C3 1_555 1_555
C4 N2 1_555 1_555
C5 C4 1_555 1_555
H3 C5 1_555 1_555
C6 C1 1_555 1_555
H4 C6 1_555 1_555
C7 N1 1_555 1_555
H5 C7 1_555 1_555
H6 C7 1_555 1_555
C8 N1 1_555 1_555
C9 C8 1_555 1_555
C10 C9 1_555 1_555
C11 C10 1_555 1_555
C12 C11 1_555 1_555
H7 C12 1_555 1_555
C13 C12 1_555 1_555
H8 C13 1_555 1_555
C14 C13 1_555 1_555
H9 C14 1_555 1_555
C15 C14 1_555 1_555
H10 C15 1_555 1_555
C16 C11 1_555 1_555
H11 C16 1_555 1_555
C17 C9 1_555 1_555
H12 C17 1_555 1_555
C18 C17 1_555 1_555
H13 C18 1_555 1_555
C19 C18 1_555 1_555
H14 C19 1_555 1_555
C20 C8 1_555 1_555
H15 C20 1_555 1_555
C21 S1 1_555 1_555
C22 C21 1_555 1_555
H16 C22 1_555 1_555
C23 C22 1_555 1_555
H17 C23 1_555 1_555
C24 C23 1_555 1_555
C25 C24 1_555 1_555
H18 C25 1_555 1_555
C26 C21 1_555 1_555
H19 C26 1_555 1_555
C27 C24 1_555 1_555
H20 C27 1_555 1_555
H21 C27 1_555 1_555
H22 C27 1_555 1_555
N2 C7 1_555 1_555
C3 C4 1_555 1_555
C5 C6 1_555 1_555
C15 C16 1_555 1_555
C19 C20 1_555 1_555
C25 C26 1_555 1_555

#END
