
#######################################################################
#
#                 Cambridge Crystallographic Data Centre
#                                CCDC 
#
#######################################################################
#
# If this CIF has been generated from an entry in the Cambridge 
# Structural Database, then it will include bibliographic, chemical, 
# crystal, experimental, refinement or atomic coordinate data resulting 
# from the CCDC's data processing and validation procedures.
#
#######################################################################

data_TIBGAP
_chemical_formula_moiety         'C10 H9 B1 N2'
_chemical_name_systematic        
4,5-dihydropyrrolo[2,1-c][1,4,2]benzodiazaborinine
_symmetry_cell_setting           monoclinic
_symmetry_space_group_name_H-M   'P 21/n'
_symmetry_Int_Tables_number      14
_space_group_name_Hall           '-P 2yn'
loop_
_symmetry_equiv_pos_site_id
_symmetry_equiv_pos_as_xyz
1 x,y,z
2 1/2-x,1/2+y,1/2-z
3 -x,-y,-z
4 1/2+x,1/2-y,1/2+z
_cell_length_a                   5.5429(15)
_cell_length_b                   9.319(3)
_cell_length_c                   17.454(5)
_cell_angle_alpha                90
_cell_angle_beta                 90.54(3)
_cell_angle_gamma                90
_cell_volume                     901.534
_exptl_crystal_colour            colorless
_exptl_crystal_description       Block
_cell_formula_units_Z            4
loop_
_atom_site_label
_atom_site_type_symbol
_atom_site_fract_x
_atom_site_fract_y
_atom_site_fract_z
N1 N 0.5900(6) 0.6289(4) 0.23999(19)
N2 N 0.2084(7) 0.8014(4) 0.2892(2)
H1 H 0.0944 0.8556 0.3056
C1 C 0.4337(9) 0.6859(5) 0.1838(2)
C2 C 0.3667(8) 0.7419(4) 0.3436(2)
C3 C 0.7594(8) 0.5432(5) 0.2050(3)
H2 H 0.8830 0.4933 0.2296
C4 C 0.5644(8) 0.6577(4) 0.3194(2)
C5 C 0.7141(10) 0.5443(5) 0.1277(3)
H3 H 0.8021 0.4956 0.0907
C6 C 0.5108(10) 0.6320(5) 0.1139(3)
H4 H 0.4406 0.6506 0.0663
C7 C 0.3395(10) 0.7667(5) 0.4223(2)
H5 H 0.2109 0.8225 0.4388
C8 C 0.7257(9) 0.6012(5) 0.3747(3)
H6 H 0.8546 0.5448 0.3590
C9 C 0.6944(11) 0.6288(5) 0.4524(3)
H7 H 0.8036 0.5928 0.4883
C10 C 0.4985(10) 0.7106(5) 0.4759(3)
H8 H 0.4745 0.7276 0.5278
B1 B 0.2227(10) 0.7789(6) 0.2098(3)
H9 H 0.2153 0.8587 0.1852
loop_
_geom_bond_atom_site_label_1
_geom_bond_atom_site_label_2
_geom_bond_site_symmetry_1
_geom_bond_site_symmetry_2
N1 C1 1_555 1_555
N2 H1 1_555 1_555
C1 C6 1_555 1_555
C2 N2 1_555 1_555
C3 N1 1_555 1_555
H2 C3 1_555 1_555
C4 N1 1_555 1_555
C5 C3 1_555 1_555
H3 C5 1_555 1_555
C6 C5 1_555 1_555
H4 C6 1_555 1_555
C7 C2 1_555 1_555
H5 C7 1_555 1_555
C8 C4 1_555 1_555
H6 C8 1_555 1_555
C9 C8 1_555 1_555
H7 C9 1_555 1_555
C10 C7 1_555 1_555
H8 C10 1_555 1_555
B1 N2 1_555 1_555
H9 B1 1_555 1_555
C1 B1 1_555 1_555
C2 C4 1_555 1_555
C9 C10 1_555 1_555

#END
