
#######################################################################
#
#                 Cambridge Crystallographic Data Centre
#                                CCDC 
#
#######################################################################
#
# If this CIF has been generated from an entry in the Cambridge 
# Structural Database, then it will include bibliographic, chemical, 
# crystal, experimental, refinement or atomic coordinate data resulting 
# from the CCDC's data processing and validation procedures.
#
#######################################################################

data_TIBGAN
_chemical_formula_moiety         'C20 H19 N1'
_chemical_name_systematic        N,N-Dibenzylaniline
_symmetry_cell_setting           monoclinic
_symmetry_space_group_name_H-M   'P 21/n'
_symmetry_Int_Tables_number      14
_space_group_name_Hall           '-P 2yn'
loop_
_symmetry_equiv_pos_site_id
_symmetry_equiv_pos_as_xyz
1 x,y,z
2 1/2-x,1/2+y,1/2-z
3 -x,-y,-z
4 1/2+x,1/2-y,1/2+z
_cell_length_a                   11.7514(16)
_cell_length_b                   9.0604(13)
_cell_length_c                   29.522(4)
_cell_angle_alpha                90
_cell_angle_beta                 94.589(3)
_cell_angle_gamma                90
_cell_volume                     3133.2
_exptl_crystal_colour            colorless
_exptl_crystal_description       block
_cell_formula_units_Z            8
loop_
_atom_site_label
_atom_site_type_symbol
_atom_site_fract_x
_atom_site_fract_y
_atom_site_fract_z
N1 N 0.20492(16) 0.79151(19) 0.33198(6)
C1 C 0.2869(2) 0.8091(2) 0.30098(7)
C2 C 0.2807(2) 0.7334(3) 0.25946(8)
H1 H 0.2197 0.6703 0.2521
C3 C 0.3633(3) 0.7509(3) 0.22953(9)
H2 H 0.3565 0.6997 0.2021
C4 C 0.4556(2) 0.8416(3) 0.23887(10)
H3 H 0.5114 0.8520 0.2185
C5 C 0.4625(2) 0.9162(3) 0.27926(10)
H4 H 0.5238 0.9795 0.2862
C6 C 0.3814(2) 0.9002(3) 0.30983(8)
H5 H 0.3899 0.9515 0.3372
C7 C 0.1856(2) 0.9054(2) 0.36565(7)
H6 H 0.1082 0.9422 0.3601
H7 H 0.2372 0.9871 0.3616
C8 C 0.20287(19) 0.8522(2) 0.41400(7)
C9 C 0.1152(2) 0.8538(3) 0.44236(9)
H8 H 0.0425 0.8831 0.4311
C10 C 0.1346(3) 0.8121(3) 0.48776(10)
H9 H 0.0750 0.8137 0.5067
C11 C 0.2411(3) 0.7688(3) 0.50454(9)
H10 H 0.2544 0.7420 0.5349
C12 C 0.3268(3) 0.7651(3) 0.47683(9)
H11 H 0.3991 0.7348 0.4882
C13 C 0.3084(2) 0.8058(3) 0.43195(8)
H12 H 0.3686 0.8018 0.4134
C14 C 0.10810(19) 0.6946(2) 0.32285(7)
H13 H 0.0853 0.6575 0.3516
H14 H 0.1321 0.6107 0.3056
C15 C 0.00501(19) 0.7639(2) 0.29713(7)
C16 C -0.1020(3) 0.7054(3) 0.30085(10)
H15 H -0.1104 0.6232 0.3192
C17 C -0.1973(2) 0.7677(4) 0.27759(13)
H16 H -0.2690 0.7267 0.2804
C18 C -0.1870(3) 0.8879(4) 0.25085(10)
H17 H -0.2511 0.9293 0.2352
C19 C -0.0818(2) 0.9470(3) 0.24716(9)
H18 H -0.0740 1.0301 0.2292
C20 C 0.0130(2) 0.8849(3) 0.26981(8)
H19 H 0.0844 0.9260 0.2665
N2 N 0.76841(17) 0.6938(2) 0.54883(7)
C21 C 0.6865(2) 0.7086(3) 0.57952(8)
C22 C 0.6943(2) 0.6304(3) 0.62023(9)
H20 H 0.7560 0.5675 0.6269
C23 C 0.6128(3) 0.6443(4) 0.65075(10)
H21 H 0.6202 0.5910 0.6777
C24 C 0.5213(3) 0.7349(4) 0.64204(12)
H22 H 0.4663 0.7439 0.6629
C25 C 0.5114(3) 0.8129(3) 0.60211(13)
H23 H 0.4492 0.8753 0.5961
C26 C 0.5924(2) 0.8006(3) 0.57053(10)
H24 H 0.5838 0.8536 0.5435
C27 C 0.7755(2) 0.7950(3) 0.51136(8)
H25 H 0.8551 0.8055 0.5054
H26 H 0.7488 0.8910 0.5205
C28 C 0.70797(19) 0.7503(3) 0.46755(8)
C29 C 0.7174(3) 0.8357(3) 0.42925(9)
H27 H 0.7659 0.9170 0.4305
C30 C 0.6545(3) 0.8003(4) 0.38895(10)
H28 H 0.6606 0.8582 0.3633
C31 C 0.5834(3) 0.6803(4) 0.38689(11)
H29 H 0.5409 0.6573 0.3599
C32 C 0.5750(2) 0.5949(3) 0.42422(10)
H30 H 0.5275 0.5126 0.4227
C33 C 0.6370(2) 0.6303(3) 0.46458(8)
H31 H 0.6304 0.5716 0.4901
C34 C 0.8562(2) 0.5822(3) 0.55406(8)
H32 H 0.8753 0.5521 0.5241
H33 H 0.8250 0.4967 0.5685
C35 C 0.9651(2) 0.6275(3) 0.58139(7)
C36 C 0.9746(2) 0.7601(3) 0.60403(8)
H34 H 0.9123 0.8237 0.6027
C37 C 1.0740(2) 0.8013(4) 0.62871(9)
H35 H 1.0786 0.8917 0.6437
C38 C 1.1659(3) 0.7084(6) 0.63100(11)
H36 H 1.2333 0.7353 0.6476
C39 C 1.1589(3) 0.5768(5) 0.60900(14)
H37 H 1.2215 0.5137 0.6105
C40 C 1.0585(3) 0.5365(3) 0.58436(10)
H38 H 1.0544 0.4459 0.5695
loop_
_geom_bond_atom_site_label_1
_geom_bond_atom_site_label_2
_geom_bond_site_symmetry_1
_geom_bond_site_symmetry_2
N1 C1 1_555 1_555
C1 C2 1_555 1_555
C2 H1 1_555 1_555
C3 C2 1_555 1_555
H2 C3 1_555 1_555
C4 C3 1_555 1_555
H3 C4 1_555 1_555
C5 C4 1_555 1_555
H4 C5 1_555 1_555
C6 C1 1_555 1_555
H5 C6 1_555 1_555
C7 N1 1_555 1_555
H6 C7 1_555 1_555
H7 C7 1_555 1_555
C8 C7 1_555 1_555
C9 C8 1_555 1_555
H8 C9 1_555 1_555
C10 C9 1_555 1_555
H9 C10 1_555 1_555
C11 C10 1_555 1_555
H10 C11 1_555 1_555
C12 C11 1_555 1_555
H11 C12 1_555 1_555
C13 C8 1_555 1_555
H12 C13 1_555 1_555
C14 N1 1_555 1_555
H13 C14 1_555 1_555
H14 C14 1_555 1_555
C15 C14 1_555 1_555
C16 C15 1_555 1_555
H15 C16 1_555 1_555
C17 C16 1_555 1_555
H16 C17 1_555 1_555
C18 C17 1_555 1_555
H17 C18 1_555 1_555
C19 C18 1_555 1_555
H18 C19 1_555 1_555
C20 C15 1_555 1_555
H19 C20 1_555 1_555
N2 C21 1_555 1_555
C21 C22 1_555 1_555
C22 H20 1_555 1_555
C23 C22 1_555 1_555
H21 C23 1_555 1_555
C24 C23 1_555 1_555
H22 C24 1_555 1_555
C25 C24 1_555 1_555
H23 C25 1_555 1_555
C26 C21 1_555 1_555
H24 C26 1_555 1_555
C27 N2 1_555 1_555
H25 C27 1_555 1_555
H26 C27 1_555 1_555
C28 C27 1_555 1_555
C29 C28 1_555 1_555
H27 C29 1_555 1_555
C30 C29 1_555 1_555
H28 C30 1_555 1_555
C31 C30 1_555 1_555
H29 C31 1_555 1_555
C32 C31 1_555 1_555
H30 C32 1_555 1_555
C33 C28 1_555 1_555
H31 C33 1_555 1_555
C34 N2 1_555 1_555
H32 C34 1_555 1_555
H33 C34 1_555 1_555
C35 C34 1_555 1_555
C36 C35 1_555 1_555
H34 C36 1_555 1_555
C37 C36 1_555 1_555
H35 C37 1_555 1_555
C38 C37 1_555 1_555
H36 C38 1_555 1_555
C39 C38 1_555 1_555
H37 C39 1_555 1_555
C40 C35 1_555 1_555
H38 C40 1_555 1_555
C5 C6 1_555 1_555
C12 C13 1_555 1_555
C19 C20 1_555 1_555
C25 C26 1_555 1_555
C32 C33 1_555 1_555
C39 C40 1_555 1_555

#END
