
#######################################################################
#
#                 Cambridge Crystallographic Data Centre
#                                CCDC 
#
#######################################################################
#
# If this CIF has been generated from an entry in the Cambridge 
# Structural Database, then it will include bibliographic, chemical, 
# crystal, experimental, refinement or atomic coordinate data resulting 
# from the CCDC's data processing and validation procedures.
#
#######################################################################

data_TIBLEY
_chemical_formula_moiety         'C20 H15 Cl1 N2 O6'
_chemical_name_systematic        
'5-(2-chlorophenyl)-2-methyl-7,9-dinitro-4a,5,6,10b-tetrahydro-4H-naphtho[2,1-c]pyran-4-one unknown solvate'
_symmetry_cell_setting           monoclinic
_symmetry_space_group_name_H-M   'C 2'
_symmetry_Int_Tables_number      5
_space_group_name_Hall           'C 2y'
loop_
_symmetry_equiv_pos_site_id
_symmetry_equiv_pos_as_xyz
1 x,y,z
2 -x,y,-z
3 1/2+x,1/2+y,z
4 1/2-x,1/2+y,-z
_cell_length_a                   19.679(2)
_cell_length_b                   9.0434(10)
_cell_length_c                   12.0075(13)
_cell_angle_alpha                90
_cell_angle_beta                 98.677(3)
_cell_angle_gamma                90
_cell_volume                     2112.46
_exptl_crystal_colour            colorless
_exptl_crystal_description       block
_cell_formula_units_Z            4
loop_
_atom_site_label
_atom_site_type_symbol
_atom_site_fract_x
_atom_site_fract_y
_atom_site_fract_z
Cl1 Cl 0.09300(7) 0.34316(12) 0.85888(12)
O1 O 0.27257(15) 0.5242(3) 0.8766(3)
C1 C 0.15907(16) 0.9055(4) 0.7538(3)
C2 C 0.04460(18) 0.9996(4) 0.7324(3)
C3 C 0.17148(19) 1.0003(4) 0.6688(3)
H1 H 0.2147 1.0023 0.6463
C4 C 0.0563(2) 1.0941(4) 0.6462(3)
H2 H 0.0221 1.1557 0.6100
C5 C 0.09381(16) 0.9040(4) 0.7888(2)
C6 C 0.1202(2) 1.0917(4) 0.6174(3)
N1 N 0.1355(2) 1.1930(4) 0.5279(3)
C7 C 0.07945(19) 0.8011(4) 0.8814(3)
H3 H 0.0334 0.7611 0.8620
H4 H 0.0809 0.8572 0.9506
C8 C 0.11693(18) 0.5787(4) 1.0001(3)
C9 C 0.10118(18) 0.4295(5) 0.9882(4)
C10 C 0.25575(19) 0.6206(4) 0.9557(4)
C11 C 0.13064(16) 0.6734(4) 0.9017(3)
H5 H 0.1247 0.6112 0.8341
C12 C 0.21668(17) 0.8056(4) 0.8054(3)
H6 H 0.2589 0.8646 0.8202
O2 O 0.0903(2) 1.2782(4) 0.4873(3)
C13 C 0.20330(17) 0.7379(4) 0.9168(3)
H7 H 0.2066 0.8160 0.9739
O3 O 0.28120(19) 0.6020(4) 1.0510(3)
N2 N -0.02404(19) 1.0093(5) 0.7653(3)
C14 C 0.2529(2) 0.5537(5) 0.7641(4)
O4 O 0.1921(2) 1.1867(5) 0.4999(3)
C15 C 0.0925(2) 0.3445(7) 1.0806(6)
H8 H 0.0825 0.2444 1.0708
O5 O -0.0718(2) 1.0373(9) 0.6922(4)
C16 C 0.1228(3) 0.6392(6) 1.1076(4)
H9 H 0.1335 0.7388 1.1183
O6 O -0.0313(2) 0.9954(5) 0.8614(4)
C17 C 0.22819(18) 0.6824(5) 0.7259(3)
H10 H 0.2177 0.6975 0.6486
C18 C 0.2641(3) 0.4197(7) 0.6953(5)
H11 H 0.2824 0.3409 0.7445
H12 H 0.2960 0.4433 0.6449
H13 H 0.2212 0.3893 0.6526
C19 C 0.1130(3) 0.5542(8) 1.1970(5)
H14 H 0.1161 0.5974 1.2679
C20 C 0.0984(3) 0.4038(8) 1.1851(5)
H15 H 0.0928 0.3459 1.2470
loop_
_geom_bond_atom_site_label_1
_geom_bond_atom_site_label_2
_geom_bond_site_symmetry_1
_geom_bond_site_symmetry_2
Cl1 C9 1_555 1_555
O1 C10 1_555 1_555
C1 C3 1_555 1_555
C2 C4 1_555 1_555
C3 H1 1_555 1_555
C4 H2 1_555 1_555
C5 C1 1_555 1_555
C6 C3 1_555 1_555
N1 C6 1_555 1_555
C7 C5 1_555 1_555
H3 C7 1_555 1_555
H4 C7 1_555 1_555
C8 C9 1_555 1_555
C9 C15 1_555 1_555
C10 C13 1_555 1_555
C11 C7 1_555 1_555
H5 C11 1_555 1_555
C12 C1 1_555 1_555
H6 C12 1_555 1_555
O2 N1 1_555 1_555
C13 C11 1_555 1_555
H7 C13 1_555 1_555
O3 C10 1_555 1_555
N2 C2 1_555 1_555
C14 O1 1_555 1_555
O4 N1 1_555 1_555
C15 H8 1_555 1_555
O5 N2 1_555 1_555
C16 C8 1_555 1_555
H9 C16 1_555 1_555
O6 N2 1_555 1_555
C17 C12 1_555 1_555
H10 C17 1_555 1_555
C18 C14 1_555 1_555
H11 C18 1_555 1_555
H12 C18 1_555 1_555
H13 C18 1_555 1_555
C19 C16 1_555 1_555
H14 C19 1_555 1_555
C20 C15 1_555 1_555
H15 C20 1_555 1_555
C2 C5 1_555 1_555
C4 C6 1_555 1_555
C8 C11 1_555 1_555
C12 C13 1_555 1_555
C14 C17 1_555 1_555
C19 C20 1_555 1_555

#END
