
#######################################################################
#
#                 Cambridge Crystallographic Data Centre
#                                CCDC 
#
#######################################################################
#
# If this CIF has been generated from an entry in the Cambridge 
# Structural Database, then it will include bibliographic, chemical, 
# crystal, experimental, refinement or atomic coordinate data resulting 
# from the CCDC's data processing and validation procedures.
#
#######################################################################

data_TIBMUO
_chemical_formula_moiety         'C20 H22 N2'
_chemical_name_systematic        (1-Benzyl-4-phenylpiperidin-2-yl)acetonitrile
_symmetry_cell_setting           triclinic
_symmetry_space_group_name_H-M   'P -1'
_symmetry_Int_Tables_number      2
_space_group_name_Hall           '-P 1'
loop_
_symmetry_equiv_pos_site_id
_symmetry_equiv_pos_as_xyz
1 x,y,z
2 -x,-y,-z
_cell_length_a                   5.7575(3)
_cell_length_b                   10.4335(5)
_cell_length_c                   14.3548(7)
_cell_angle_alpha                74.9440(10)
_cell_angle_beta                 84.1930(10)
_cell_angle_gamma                77.5330(10)
_cell_volume                     812.139
_exptl_crystal_colour            colorless
_exptl_crystal_description       needle
_cell_formula_units_Z            2
loop_
_atom_site_label
_atom_site_type_symbol
_atom_site_fract_x
_atom_site_fract_y
_atom_site_fract_z
N1 N 0.47118(16) 0.39964(9) 0.26869(6)
C1 C 0.60072(18) 0.26467(11) 0.31522(8)
H1 H 0.7525 0.2734 0.3391
N2 N 0.2794(2) 0.16508(12) 0.16210(8)
C2 C 0.44899(19) 0.19894(11) 0.40146(8)
H2 H 0.3065 0.1821 0.3769
H3 H 0.5424 0.1102 0.4345
C3 C 0.36816(18) 0.28427(11) 0.47502(8)
H4 H 0.5138 0.2927 0.5036
C4 C 0.24779(19) 0.42682(11) 0.42109(8)
H5 H 0.0966 0.4227 0.3958
H6 H 0.2102 0.4866 0.4663
C5 C 0.4103(2) 0.48470(11) 0.33814(8)
H7 H 0.3306 0.5768 0.3045
H8 H 0.5584 0.4923 0.3641
C6 C 0.65956(19) 0.17110(11) 0.24511(8)
H9 H 0.7801 0.2032 0.1953
H10 H 0.7287 0.0782 0.2812
C7 C 0.4465(2) 0.16822(12) 0.19776(8)
C8 C 0.60220(19) 0.47021(12) 0.18395(8)
H11 H 0.6753 0.4063 0.1440
H12 H 0.7316 0.5026 0.2059
C9 C 0.43674(19) 0.58937(11) 0.12370(8)
C10 C 0.2412(2) 0.56706(12) 0.08373(8)
H13 H 0.2118 0.4779 0.0959
C11 C 0.0901(2) 0.67413(13) 0.02650(8)
H14 H -0.0413 0.6577 -0.0005
C12 C 0.1302(2) 0.80547(13) 0.00847(8)
H15 H 0.0267 0.8785 -0.0308
C13 C 0.3220(2) 0.82897(12) 0.04818(9)
H16 H 0.3498 0.9184 0.0364
C14 C 0.4745(2) 0.72100(12) 0.10551(8)
H17 H 0.6058 0.7378 0.1324
C15 C 0.20715(18) 0.22316(10) 0.55738(8)
C16 C 0.2208(2) 0.24103(11) 0.64978(8)
H18 H 0.3400 0.2846 0.6613
C17 C 0.0630(2) 0.19617(12) 0.72505(8)
H19 H 0.0731 0.2111 0.7869
C18 C -0.10924(19) 0.12976(11) 0.71013(8)
H20 H -0.2168 0.0988 0.7615
C19 C -0.12276(19) 0.10899(12) 0.61938(9)
H21 H -0.2392 0.0628 0.6088
C20 C 0.03320(19) 0.15539(12) 0.54368(8)
H22 H 0.0214 0.1409 0.4818
loop_
_geom_bond_atom_site_label_1
_geom_bond_atom_site_label_2
_geom_bond_site_symmetry_1
_geom_bond_site_symmetry_2
N1 C1 1_555 1_555
C1 H1 1_555 1_555
N2 C7 1_555 1_555
C2 C1 1_555 1_555
H2 C2 1_555 1_555
H3 C2 1_555 1_555
C3 C2 1_555 1_555
H4 C3 1_555 1_555
C4 C3 1_555 1_555
H5 C4 1_555 1_555
H6 C4 1_555 1_555
C5 N1 1_555 1_555
H7 C5 1_555 1_555
H8 C5 1_555 1_555
C6 C1 1_555 1_555
H9 C6 1_555 1_555
H10 C6 1_555 1_555
C7 C6 1_555 1_555
C8 N1 1_555 1_555
H11 C8 1_555 1_555
H12 C8 1_555 1_555
C9 C8 1_555 1_555
C10 C9 1_555 1_555
H13 C10 1_555 1_555
C11 C10 1_555 1_555
H14 C11 1_555 1_555
C12 C11 1_555 1_555
H15 C12 1_555 1_555
C13 C12 1_555 1_555
H16 C13 1_555 1_555
C14 C9 1_555 1_555
H17 C14 1_555 1_555
C15 C3 1_555 1_555
C16 C15 1_555 1_555
H18 C16 1_555 1_555
C17 C16 1_555 1_555
H19 C17 1_555 1_555
C18 C17 1_555 1_555
H20 C18 1_555 1_555
C19 C18 1_555 1_555
H21 C19 1_555 1_555
C20 C15 1_555 1_555
H22 C20 1_555 1_555
C4 C5 1_555 1_555
C13 C14 1_555 1_555
C19 C20 1_555 1_555

#END
