
#######################################################################
#
#                 Cambridge Crystallographic Data Centre
#                                CCDC 
#
#######################################################################
#
# If this CIF has been generated from an entry in the Cambridge 
# Structural Database, then it will include bibliographic, chemical, 
# crystal, experimental, refinement or atomic coordinate data resulting 
# from the CCDC's data processing and validation procedures.
#
#######################################################################

data_TIBMOI
_chemical_formula_moiety         'C21 H27 N2 1+,Cl1 1-'
_chemical_name_systematic        
'2-(((4-Methylbenzyl)amino)methyl)-4-phenyl-1-azoniabicyclo[2.2.1]heptane chloride'
_symmetry_cell_setting           monoclinic
_symmetry_space_group_name_H-M   'P 21/c'
_symmetry_Int_Tables_number      14
_space_group_name_Hall           '-P 2ybc'
loop_
_symmetry_equiv_pos_site_id
_symmetry_equiv_pos_as_xyz
1 x,y,z
2 -x,1/2+y,1/2-z
3 -x,-y,-z
4 x,1/2-y,1/2+z
_cell_length_a                   8.5496(8)
_cell_length_b                   12.4412(11)
_cell_length_c                   17.5973(16)
_cell_angle_alpha                90
_cell_angle_beta                 93.2150(10)
_cell_angle_gamma                90
_cell_volume                     1868.83
_exptl_crystal_colour            colorless
_exptl_crystal_description       needle
_cell_formula_units_Z            4
loop_
_atom_site_label
_atom_site_type_symbol
_atom_site_fract_x
_atom_site_fract_y
_atom_site_fract_z
Cl1 Cl 0.22602(10) 0.36789(7) 0.46473(5)
N1 N 0.7020(4) 0.4623(3) 0.4179(2)
H1 H 0.705(4) 0.508(3) 0.457(2)
N2 N 0.7967(4) 0.3339(2) 0.55565(16)
H2 H 0.8354 0.4034 0.5506
C1 C 0.5901(4) 0.4974(3) 0.3546(2)
H3 H 0.6182 0.5662 0.3334
H4 H 0.4825 0.4992 0.3695
C2 C 0.7572(5) 0.2844(3) 0.48212(19)
H5 H 0.7127 0.2138 0.4898
H6 H 0.8517 0.2754 0.4547
C3 C 0.8010(4) 0.4118(3) 0.29982(19)
H7 H 0.8477 0.3418 0.2919
H8 H 0.8307 0.4601 0.2598
C4 C 0.6418(4) 0.3523(3) 0.43578(18)
H9 H 0.5477 0.3606 0.4645
C5 C 0.5914(5) 0.3089(3) 0.35536(17)
H10 H 0.6532 0.2467 0.3429
H11 H 0.4814 0.2892 0.3524
C6 C 0.8516(4) 0.4565(3) 0.37853(19)
H12 H 0.9259 0.4089 0.4052
H13 H 0.8985 0.5272 0.3745
C7 C 0.5428(4) 0.4036(3) 0.22266(15)
C8 C 0.5189(6) 0.5004(3) 0.1843(2)
H14 H 0.5486 0.5647 0.2079
C9 C 0.4506(7) 0.5011(3) 0.1108(2)
H15 H 0.4346 0.5659 0.0851
C10 C 0.4062(5) 0.4050(4) 0.07554(16)
H16 H 0.3605 0.4054 0.0263
C11 C 0.4302(5) 0.3082(4) 0.11387(17)
H17 H 0.4005 0.2439 0.0903
C12 C 0.4985(4) 0.3075(3) 0.18743(16)
H18 H 0.5145 0.2427 0.2131
C13 C 0.8952(9) 0.2637(4) 0.6033(2)
H19 H 0.9910 0.2491 0.5781
H20 H 0.8416 0.1959 0.6095
C14 C 0.6217(4) 0.4031(3) 0.3015(2)
C15 C 1.0163(6) 0.3892(4) 0.8272(2)
C16 C 1.1017(7) 0.3093(4) 0.7950(3)
H21 H 1.1869 0.2800 0.8230
C17 C 1.0652(6) 0.2714(4) 0.7233(3)
H22 H 1.1276 0.2185 0.7030
C18 C 0.9359(5) 0.3109(4) 0.6799(2)
C19 C 0.8512(4) 0.3907(3) 0.7117(2)
H23 H 0.7653 0.4195 0.6840
C20 C 0.8899(5) 0.4296(4) 0.7837(2)
H24 H 0.8297 0.4841 0.8034
C21 C 1.0596(8) 0.4314(6) 0.9065(2)
H25 H 0.9743 0.4731 0.9240
H26 H 1.1513 0.4757 0.9051
H27 H 1.0804 0.3720 0.9404
N3? N 0.697(2) 0.4602(18) 0.4117(14)
H28? H 0.7356 0.5065 0.4482
C22? C 0.833(3) 0.2871(15) 0.4542(8)
H29? H 0.7342 0.2487 0.4558
H30? H 0.9124 0.2367 0.4398
C23? C 0.656(3) 0.5190(16) 0.3395(12)
H31? H 0.7446 0.5522 0.3165
H32? H 0.5697 0.5690 0.3427
N4? N 0.876(2) 0.3317(15) 0.5289(8)
H33? H 0.8354 0.4034 0.5506
C24? C 0.758(2) 0.3418(18) 0.3156(10)
H34? H 0.8326 0.3596 0.2781
H35? H 0.7346 0.2656 0.3131
C25? C 0.550(2) 0.4088(18) 0.4353(9)
H36? H 0.4778 0.4611 0.4548
H37? H 0.5700 0.3527 0.4728
C26? C 0.488(2) 0.3622(18) 0.3566(9)
H38? H 0.4903 0.2843 0.3563
H39? H 0.3832 0.3871 0.3423
C27? C 0.913(5) 0.2595(19) 0.5925(12)
H40? H 0.9942 0.2107 0.5774
H41? H 0.8208 0.2165 0.6004
C28? C 0.609(2) 0.4099(16) 0.3056(11)
C29? C 0.817(2) 0.3763(14) 0.3963(9)
H42? H 0.9189 0.4113 0.3932
C30? C 0.531(3) 0.407(2) 0.2273(10)
C31? C 0.546(4) 0.492(2) 0.1774(15)
H43? H 0.5996 0.5538 0.1934
C32? C 0.479(5) 0.486(2) 0.1036(14)
H44? H 0.4888 0.5429 0.0702
C33? C 0.399(4) 0.394(3) 0.0798(10)
H45? H 0.3542 0.3892 0.0304
C34? C 0.384(3) 0.308(3) 0.1297(12)
H46? H 0.3303 0.2464 0.1137
C35? C 0.451(3) 0.314(2) 0.2035(11)
H47? H 0.4411 0.2572 0.2369
C36? C 0.967(3) 0.3078(17) 0.6679(10)
C37? C 1.070(3) 0.2518(19) 0.7170(13)
H48? H 1.1149 0.1879 0.7012
C38? C 1.108(3) 0.291(2) 0.7897(12)
H49? H 1.1772 0.2538 0.8225
C39? C 1.041(3) 0.387(2) 0.8133(9)
C40? C 0.938(2) 0.4428(16) 0.7642(10)
H50? H 0.8933 0.5067 0.7800
C41? C 0.900(2) 0.4033(16) 0.6915(10)
H51? H 0.8310 0.4408 0.6587
C42? C 1.080(4) 0.427(3) 0.8871(11)
H52? H 1.1525 0.3787 0.9133
H53? H 0.9867 0.4323 0.9148
H54? H 1.1271 0.4965 0.8834
loop_
_geom_bond_atom_site_label_1
_geom_bond_atom_site_label_2
_geom_bond_site_symmetry_1
_geom_bond_site_symmetry_2
N1 H1 1_555 1_555
N2 H2 1_555 1_555
C1 N1 1_555 1_555
H3 C1 1_555 1_555
H4 C1 1_555 1_555
C2 N2 1_555 1_555
H5 C2 1_555 1_555
H6 C2 1_555 1_555
C3 H7 1_555 1_555
H8 C3 1_555 1_555
C4 N1 1_555 1_555
H9 C4 1_555 1_555
C5 C4 1_555 1_555
H10 C5 1_555 1_555
H11 C5 1_555 1_555
C6 N1 1_555 1_555
H12 C6 1_555 1_555
H13 C6 1_555 1_555
C7 C8 1_555 1_555
C8 H14 1_555 1_555
C9 C8 1_555 1_555
H15 C9 1_555 1_555
C10 C9 1_555 1_555
H16 C10 1_555 1_555
C11 C10 1_555 1_555
H17 C11 1_555 1_555
C12 C7 1_555 1_555
H18 C12 1_555 1_555
C13 N2 1_555 1_555
H19 C13 1_555 1_555
H20 C13 1_555 1_555
C14 C1 1_555 1_555
C15 C16 1_555 1_555
C16 H21 1_555 1_555
C17 C16 1_555 1_555
H22 C17 1_555 1_555
C18 C13 1_555 1_555
C19 C18 1_555 1_555
H23 C19 1_555 1_555
C20 C15 1_555 1_555
H24 C20 1_555 1_555
C21 C15 1_555 1_555
H25 C21 1_555 1_555
H26 C21 1_555 1_555
H27 C21 1_555 1_555
C2 C4 1_555 1_555
C3 C6 1_555 1_555
C3 C14 1_555 1_555
C5 C14 1_555 1_555
C7 C14 1_555 1_555
C11 C12 1_555 1_555
C17 C18 1_555 1_555
C19 C20 1_555 1_555

#END
