
#######################################################################
#
#                 Cambridge Crystallographic Data Centre
#                                CCDC 
#
#######################################################################
#
# If this CIF has been generated from an entry in the Cambridge 
# Structural Database, then it will include bibliographic, chemical, 
# crystal, experimental, refinement or atomic coordinate data resulting 
# from the CCDC's data processing and validation procedures.
#
#######################################################################

data_TIBQIF
_chemical_formula_moiety         'C18 H24 N4 O2 2+,2(Br1 1-),2(H2 O1)'
_chemical_name_systematic        
"4,4'-bis(Propionylamino)-1,1'-ethylenedipyridinium dibromide dihydrate"
_symmetry_cell_setting           monoclinic
_symmetry_space_group_name_H-M   'P 21/n'
_symmetry_Int_Tables_number      14
_space_group_name_Hall           '-P 2yn'
loop_
_symmetry_equiv_pos_site_id
_symmetry_equiv_pos_as_xyz
1 x,y,z
2 1/2-x,1/2+y,1/2-z
3 -x,-y,-z
4 1/2+x,1/2-y,1/2+z
_cell_length_a                   8.7548(18)
_cell_length_b                   10.030(2)
_cell_length_c                   12.969(3)
_cell_angle_alpha                90
_cell_angle_beta                 97.951(3)
_cell_angle_gamma                90
_cell_volume                     1127.87
_exptl_crystal_colour            colorless
_exptl_crystal_description       block
_cell_formula_units_Z            2
_exptl_crystal_recrystallization_method water/methanol
loop_
_atom_site_label
_atom_site_type_symbol
_atom_site_fract_x
_atom_site_fract_y
_atom_site_fract_z
Br1 Br 0.08083(3) 0.00596(3) 0.30679(2)
O1 O 0.7223(2) 0.2309(2) 0.16953(16)
N1 N 0.5856(2) 0.2934(2) 0.01473(16)
H1 H 0.5897 0.3441 -0.0383
N2 N 0.2037(2) 0.0476(2) -0.01196(16)
C1 C 0.9749(9) 0.3936(10) 0.1332(8)
H2 H 1.0388 0.4687 0.1226
H3 H 1.0145 0.3154 0.1034
H4 H 0.9748 0.3801 0.2065
C2 C 0.8125(4) 0.4195(3) 0.0817(3)
H5 H 0.7739 0.4998 0.1109
H6 H 0.8133 0.4345 0.0079
C5 C 0.7062(3) 0.3053(3) 0.0960(2)
C6 C 0.4611(3) 0.2100(3) 0.00945(18)
C7 C 0.3558(3) 0.2085(3) -0.08244(19)
H12 H 0.3720 0.2633 -0.1378
C8 C 0.2301(3) 0.1275(3) -0.09106(19)
H13 H 0.1614 0.1273 -0.1525
C9 C 0.3033(3) 0.0481(3) 0.0780(2)
H14 H 0.2839 -0.0069 0.1324
C10 C 0.4303(3) 0.1265(3) 0.09044(19)
H15 H 0.4970 0.1249 0.1528
C11 C 0.0645(3) -0.0377(3) -0.0207(2)
H16 H 0.0873 -0.1190 0.0189
H17 H 0.0330 -0.0616 -0.0930
O1B O -0.7223(2) -0.2309(2) -0.16953(16)
N1B N -0.5856(2) -0.2934(2) -0.01473(16)
H1B H -0.5897 -0.3441 0.0383
N2B N -0.2037(2) -0.0476(2) 0.01196(16)
C1B C -0.9749(9) -0.3936(10) -0.1332(8)
H2B H -1.0388 -0.4687 -0.1226
H3B H -1.0145 -0.3154 -0.1034
H4B H -0.9748 -0.3801 -0.2065
C2B C -0.8125(4) -0.4195(3) -0.0817(3)
H5B H -0.7739 -0.4998 -0.1109
H6B H -0.8133 -0.4345 -0.0079
C5B C -0.7062(3) -0.3053(3) -0.0960(2)
C6B C -0.4611(3) -0.2100(3) -0.00945(18)
C7B C -0.3558(3) -0.2085(3) 0.08244(19)
H12B H -0.3720 -0.2633 0.1378
C8B C -0.2301(3) -0.1275(3) 0.09106(19)
H13B H -0.1614 -0.1273 0.1525
C9B C -0.3033(3) -0.0481(3) -0.0780(2)
H14B H -0.2839 0.0069 -0.1324
C10B C -0.4303(3) -0.1265(3) -0.09044(19)
H15B H -0.4970 -0.1249 -0.1528
C11B C -0.0645(3) 0.0377(3) 0.0207(2)
H16B H -0.0873 0.1190 -0.0189
H17B H -0.0330 0.0616 0.0930
O2 O 0.3423(3) 0.2490(3) 0.33428(19)
H18 H 0.2836 0.1801 0.3215
H19 H 0.3369 0.3061 0.2830
C3? C 0.9401(13) 0.4437(14) 0.1649(8)
H7? H 0.9984 0.5194 0.1473
H8? H 1.0057 0.3667 0.1731
H9? H 0.8999 0.4610 0.2288
C4? C 0.8125(4) 0.4195(3) 0.0817(3)
H10? H 0.8557 0.4045 0.0177
H11? H 0.7510 0.5002 0.0723
loop_
_geom_bond_atom_site_label_1
_geom_bond_atom_site_label_2
_geom_bond_site_symmetry_1
_geom_bond_site_symmetry_2
O1 C5 1_555 1_555
N1 H1 1_555 1_555
N2 C8 1_555 1_555
C1 H2 1_555 1_555
H3 C1 1_555 1_555
H4 C1 1_555 1_555
C2 C1 1_555 1_555
H5 C2 1_555 1_555
H6 C2 1_555 1_555
C5 N1 1_555 1_555
C6 N1 1_555 1_555
C7 C6 1_555 1_555
H12 C7 1_555 1_555
C8 C7 1_555 1_555
H13 C8 1_555 1_555
C9 N2 1_555 1_555
H14 C9 1_555 1_555
C10 C6 1_555 1_555
H15 C10 1_555 1_555
C11 N2 1_555 1_555
H16 C11 1_555 1_555
H17 C11 1_555 1_555
O2 H18 1_555 1_555
H19 O2 1_555 1_555
O1B C5B 1_555 1_555
N1B H1B 1_555 1_555
N2B C8B 1_555 1_555
C1B H2B 1_555 1_555
H3B C1B 1_555 1_555
H4B C1B 1_555 1_555
C2B C1B 1_555 1_555
H5B C2B 1_555 1_555
H6B C2B 1_555 1_555
C5B N1B 1_555 1_555
C6B N1B 1_555 1_555
C7B C6B 1_555 1_555
H12B C7B 1_555 1_555
C8B C7B 1_555 1_555
H13B C8B 1_555 1_555
C9B N2B 1_555 1_555
H14B C9B 1_555 1_555
C10B C6B 1_555 1_555
H15B C10B 1_555 1_555
C11B C11 1_555 1_555
H16B C11B 1_555 1_555
H17B C11B 1_555 1_555
C2 C5 1_555 1_555
C9 C10 1_555 1_555
N2B C11B 1_555 1_555
C2B C5B 1_555 1_555
C9B C10B 1_555 1_555

#END
