
#######################################################################
#
#                 Cambridge Crystallographic Data Centre
#                                CCDC 
#
#######################################################################
#
# If this CIF has been generated from an entry in the Cambridge 
# Structural Database, then it will include bibliographic, chemical, 
# crystal, experimental, refinement or atomic coordinate data resulting 
# from the CCDC's data processing and validation procedures.
#
#######################################################################

data_TIBRUS
_chemical_formula_moiety         'C18 H22 N6 O4 2+,2(Br1 1-),4(H2 O1)'
_chemical_name_systematic        
"4,4'-bis((2-Acetylhydrazino)carbonyl)-1,1'-ethylenedipyridinium dibromide tetrahydrate"
_symmetry_cell_setting           triclinic
_symmetry_space_group_name_H-M   'P -1'
_symmetry_Int_Tables_number      2
_space_group_name_Hall           '-P 1'
loop_
_symmetry_equiv_pos_site_id
_symmetry_equiv_pos_as_xyz
1 x,y,z
2 -x,-y,-z
_cell_length_a                   5.9315(13)
_cell_length_b                   9.374(2)
_cell_length_c                   11.721(3)
_cell_angle_alpha                107.570(3)
_cell_angle_beta                 92.101(4)
_cell_angle_gamma                96.389(3)
_cell_volume                     615.748
_exptl_crystal_colour            colorless
_exptl_crystal_description       block
_cell_formula_units_Z            1
loop_
_atom_site_label
_atom_site_type_symbol
_atom_site_fract_x
_atom_site_fract_y
_atom_site_fract_z
Br1 Br 0.05892(6) 0.20313(4) 0.39239(3)
O1 O 1.3817(5) 0.5801(4) -0.0779(3)
O2 O 0.7872(4) 0.8790(3) -0.0664(2)
N1 N 1.1310(5) 0.7225(3) -0.1210(3)
H1 H 1.0814 0.7650 -0.1708
N2 N 1.0330(5) 0.7405(3) -0.0125(3)
H2 H 1.0815 0.7010 0.0396
N3 N 0.5490(5) 0.8993(3) 0.3392(2)
C1 C 1.3949(7) 0.6270(5) -0.2684(4)
H3 H 1.5450 0.6817 -0.2568
H4 H 1.2971 0.6688 -0.3134
H5 H 1.4012 0.5228 -0.3116
C2 C 1.3034(6) 0.6388(4) -0.1487(3)
C3 C 0.8592(5) 0.8225(4) 0.0071(3)
C4 C 0.7557(5) 0.8449(3) 0.1263(3)
C5 C 0.5789(6) 0.9334(4) 0.1491(3)
H6 H 0.5293 0.9756 0.0918
C6 C 0.4780(6) 0.9587(4) 0.2551(3)
H7 H 0.3594 1.0173 0.2693
C7 C 0.7192(6) 0.8125(4) 0.3201(3)
H8 H 0.7658 0.7715 0.3787
C8 C 0.8248(6) 0.7844(4) 0.2135(3)
H9 H 0.9423 0.7247 0.2007
C9 C 0.4389(6) 0.9276(4) 0.4552(3)
H10 H 0.4480 0.8433 0.4863
H11 H 0.2797 0.9377 0.4426
O1A O -0.3817(5) 1.4199(4) 1.0779(3)
O2A O 0.2128(4) 1.1210(3) 1.0664(2)
N1A N -0.1310(5) 1.2775(3) 1.1210(3)
H1A H -0.0814 1.2350 1.1708
N2A N -0.0330(5) 1.2595(3) 1.0125(3)
H2A H -0.0815 1.2990 0.9604
N3A N 0.4510(5) 1.1007(3) 0.6608(2)
C1A C -0.3949(7) 1.3730(5) 1.2684(4)
H3A H -0.5450 1.3183 1.2568
H4A H -0.2971 1.3312 1.3134
H5A H -0.4012 1.4772 1.3116
C2A C -0.3034(6) 1.3612(4) 1.1487(3)
C3A C 0.1408(5) 1.1775(4) 0.9929(3)
C4A C 0.2443(5) 1.1551(3) 0.8737(3)
C5A C 0.4211(6) 1.0666(4) 0.8509(3)
H6A H 0.4707 1.0244 0.9082
C6A C 0.5220(6) 1.0413(4) 0.7449(3)
H7A H 0.6406 0.9827 0.7307
C7A C 0.2808(6) 1.1875(4) 0.6799(3)
H8A H 0.2342 1.2285 0.6213
C8A C 0.1752(6) 1.2156(4) 0.7865(3)
H9A H 0.0577 1.2753 0.7993
C9A C 0.5611(6) 1.0724(4) 0.5448(3)
H10A H 0.5520 1.1567 0.5137
H11A H 0.7203 1.0623 0.5574
O3 O 0.1787(7) 0.5681(4) 0.3847(3)
H12 H 0.0918 0.6207 0.4324
H13 H 0.1721 0.4761 0.3833
O4 O 0.2477(5) 0.6047(3) 0.1579(3)
H14 H 0.2096 0.5674 0.2133
H15 H 0.3431 0.5596 0.1116
loop_
_geom_bond_atom_site_label_1
_geom_bond_atom_site_label_2
_geom_bond_site_symmetry_1
_geom_bond_site_symmetry_2
O1 C2 1_555 1_555
O2 C3 1_555 1_555
N1 H1 1_555 1_555
N2 N1 1_555 1_555
H2 N2 1_555 1_555
N3 C6 1_555 1_555
C1 H3 1_555 1_555
H4 C1 1_555 1_555
H5 C1 1_555 1_555
C2 N1 1_555 1_555
C3 N2 1_555 1_555
C4 C3 1_555 1_555
C5 C4 1_555 1_555
H6 C5 1_555 1_555
C6 C5 1_555 1_555
H7 C6 1_555 1_555
C7 N3 1_555 1_555
H8 C7 1_555 1_555
C8 C4 1_555 1_555
H9 C8 1_555 1_555
C9 N3 1_555 1_555
H10 C9 1_555 1_555
H11 C9 1_555 1_555
O3 H12 1_555 1_555
H13 O3 1_555 1_555
O4 H14 1_555 1_555
H15 O4 1_555 1_555
O1A C2A 1_555 1_555
O2A C3A 1_555 1_555
N1A H1A 1_555 1_555
N2A N1A 1_555 1_555
H2A N2A 1_555 1_555
N3A C6A 1_555 1_555
C1A H3A 1_555 1_555
H4A C1A 1_555 1_555
H5A C1A 1_555 1_555
C2A N1A 1_555 1_555
C3A N2A 1_555 1_555
C4A C3A 1_555 1_555
C5A C4A 1_555 1_555
H6A C5A 1_555 1_555
C6A C5A 1_555 1_555
H7A C6A 1_555 1_555
C7A N3A 1_555 1_555
H8A C7A 1_555 1_555
C8A C4A 1_555 1_555
H9A C8A 1_555 1_555
C9A C9 1_555 1_555
H10A C9A 1_555 1_555
H11A C9A 1_555 1_555
C1 C2 1_555 1_555
C7 C8 1_555 1_555
N3A C9A 1_555 1_555
C1A C2A 1_555 1_555
C7A C8A 1_555 1_555

#END
