
#######################################################################
#
#                 Cambridge Crystallographic Data Centre
#                                CCDC 
#
#######################################################################
#
# If this CIF has been generated from an entry in the Cambridge 
# Structural Database, then it will include bibliographic, chemical, 
# crystal, experimental, refinement or atomic coordinate data resulting 
# from the CCDC's data processing and validation procedures.
#
#######################################################################

data_TIBSEF
_chemical_formula_moiety         'C27 H31 O1 P1'
_chemical_name_systematic        
'(RS~P~,RS~P~)-t-Butyl([2.2]paracyclophan-4-yl)(p-tolyl)phosphine oxide'
_symmetry_cell_setting           monoclinic
_symmetry_space_group_name_H-M   'C c'
_symmetry_Int_Tables_number      9
_space_group_name_Hall           'C -2yc'
loop_
_symmetry_equiv_pos_site_id
_symmetry_equiv_pos_as_xyz
1 x,y,z
2 x,-y,1/2+z
3 1/2+x,1/2+y,z
4 1/2+x,1/2-y,1/2+z
_cell_length_a                   9.95866(10)
_cell_length_b                   17.5913(2)
_cell_length_c                   12.49161(13)
_cell_angle_alpha                90
_cell_angle_beta                 90.5778(9)
_cell_angle_gamma                90
_cell_volume                     2188.24
_exptl_crystal_colour            colorless
_exptl_crystal_description       prism
_cell_formula_units_Z            4
_exptl_crystal_recrystallization_method 
'Re-crystallisation from solvent: dichloromethane and pentane'
loop_
_atom_site_label
_atom_site_type_symbol
_atom_site_fract_x
_atom_site_fract_y
_atom_site_fract_z
P1 P 0.27633(4) 0.05318(2) 0.71158(3)
O1 O 0.24254(14) 0.06463(8) 0.59614(10)
C1 C 0.3509(3) 0.22784(13) 0.54619(17)
H1 H 0.3796 0.2576 0.4831
H2 H 0.2733 0.1962 0.5241
C2 C 0.4697(2) 0.17437(13) 0.58350(16)
H3 H 0.4572 0.1235 0.5511
H4 H 0.5555 0.1953 0.5571
C3 C 0.47824(18) 0.16623(11) 0.70419(15)
C4 C 0.38322(17) 0.12778(10) 0.76747(14)
C5 C 0.36333(18) 0.15298(11) 0.87275(14)
H5 H 0.2985 0.1279 0.9154
C6 C 0.4352(2) 0.21348(11) 0.91703(15)
C7 C 0.54914(19) 0.23685(11) 0.86246(16)
H6 H 0.613 0.2689 0.8969
C8 C 0.56933(18) 0.21343(12) 0.75807(17)
H7 H 0.6475 0.2299 0.7219
C9 C 0.3744(2) 0.26196(12) 1.00434(16)
H8 H 0.4415 0.2692 1.0625
H9 H 0.2962 0.2351 1.0348
C10 C 0.3282(3) 0.34183(12) 0.96142(19)
H10 H 0.2486 0.3588 1.0018
H11 H 0.4009 0.3792 0.974
C11 C 0.2938(2) 0.33978(11) 0.84322(18)
C12 C 0.1939(2) 0.29154(12) 0.8032(2)
H12 H 0.1203 0.2781 0.8472
C13 C 0.2010(2) 0.26310(12) 0.6997(2)
H13 H 0.1323 0.2304 0.6736
C14 C 0.3078(2) 0.28192(12) 0.63363(17)
C15 C 0.3893(2) 0.34239(12) 0.66585(17)
H14 H 0.4501 0.3644 0.6165
C16 C 0.3823(2) 0.37065(12) 0.76939(18)
H15 H 0.4387 0.4117 0.7902
C17 C 0.12303(19) 0.05199(10) 0.78892(15)
C18 C 0.00710(19) 0.07624(11) 0.73397(15)
H16 H 0.0132 0.0912 0.6611
C19 C -0.11613(19) 0.07871(12) 0.78438(17)
H17 H -0.1929 0.0961 0.7458
C20 C -0.1294(2) 0.05612(11) 0.89068(17)
C21 C -0.01417(19) 0.03207(11) 0.94529(15)
H18 H -0.0209 0.0169 1.0181
C22 C 0.11012(18) 0.02966(10) 0.89615(15)
H19 H 0.1868 0.0128 0.9353
C23 C -0.2640(2) 0.05452(14) 0.9442(2)
H20 H -0.325 0.09 0.9077
H21 H -0.2535 0.0695 1.0194
H22 H -0.3011 0.003 0.9403
C24 C 0.36792(19) -0.03695(11) 0.73113(15)
C25 C 0.4897(2) -0.03416(13) 0.65705(19)
H23 H 0.548 0.0082 0.6781
H24 H 0.4591 -0.027 0.5829
H25 H 0.5398 -0.0819 0.6628
C26 C 0.2745(2) -0.10189(11) 0.69584(19)
H26 H 0.3226 -0.1504 0.7014
H27 H 0.2457 -0.0937 0.6214
H28 H 0.1958 -0.1031 0.7422
C27 C 0.4160(2) -0.05069(12) 0.84633(16)
H29 H 0.4794 -0.0932 0.8478
H30 H 0.3388 -0.0628 0.8913
H31 H 0.4604 -0.0048 0.8737
loop_
_geom_bond_atom_site_label_1
_geom_bond_atom_site_label_2
_geom_bond_site_symmetry_1
_geom_bond_site_symmetry_2
P1 O1 1_555 1_555
C1 H1 1_555 1_555
H2 C1 1_555 1_555
C2 C1 1_555 1_555
H3 C2 1_555 1_555
H4 C2 1_555 1_555
C3 C2 1_555 1_555
C4 P1 1_555 1_555
C5 C4 1_555 1_555
H5 C5 1_555 1_555
C6 C5 1_555 1_555
C7 C6 1_555 1_555
H6 C7 1_555 1_555
C8 C3 1_555 1_555
H7 C8 1_555 1_555
C9 C6 1_555 1_555
H8 C9 1_555 1_555
H9 C9 1_555 1_555
C10 C9 1_555 1_555
H10 C10 1_555 1_555
H11 C10 1_555 1_555
C11 C10 1_555 1_555
C12 C11 1_555 1_555
H12 C12 1_555 1_555
C13 C12 1_555 1_555
H13 C13 1_555 1_555
C14 C1 1_555 1_555
C15 C14 1_555 1_555
H14 C15 1_555 1_555
C16 C11 1_555 1_555
H15 C16 1_555 1_555
C17 P1 1_555 1_555
C18 C17 1_555 1_555
H16 C18 1_555 1_555
C19 C18 1_555 1_555
H17 C19 1_555 1_555
C20 C19 1_555 1_555
C21 C20 1_555 1_555
H18 C21 1_555 1_555
C22 C17 1_555 1_555
H19 C22 1_555 1_555
C23 C20 1_555 1_555
H20 C23 1_555 1_555
H21 C23 1_555 1_555
H22 C23 1_555 1_555
C24 P1 1_555 1_555
C25 C24 1_555 1_555
H23 C25 1_555 1_555
H24 C25 1_555 1_555
H25 C25 1_555 1_555
C26 C24 1_555 1_555
H26 C26 1_555 1_555
H27 C26 1_555 1_555
H28 C26 1_555 1_555
C27 C24 1_555 1_555
H29 C27 1_555 1_555
H30 C27 1_555 1_555
H31 C27 1_555 1_555
C3 C4 1_555 1_555
C7 C8 1_555 1_555
C13 C14 1_555 1_555
C15 C16 1_555 1_555
C21 C22 1_555 1_555

#END
