
#######################################################################
#
#                 Cambridge Crystallographic Data Centre
#                                CCDC 
#
#######################################################################
#
# If this CIF has been generated from an entry in the Cambridge 
# Structural Database, then it will include bibliographic, chemical, 
# crystal, experimental, refinement or atomic coordinate data resulting 
# from the CCDC's data processing and validation procedures.
#
#######################################################################

data_TIBSIJ
_chemical_formula_moiety         'C20 H25 O1 P1'
_chemical_name_systematic        
'(SR~P~,RS~P~)-t-butyl([2.2]paracyclophan-4-yl)phosphine oxide'
_symmetry_cell_setting           orthorhombic
_symmetry_space_group_name_H-M   'C 2 c b'
_symmetry_Int_Tables_number      41
_space_group_name_Hall           'C -2bc 2'
loop_
_symmetry_equiv_pos_site_id
_symmetry_equiv_pos_as_xyz
1 x,y,z
2 x,-y,-z
3 x,1/2+y,1/2-z
4 x,1/2-y,1/2+z
5 1/2+x,1/2+y,z
6 1/2+x,1/2-y,-z
7 1/2+x,y,1/2-z
8 1/2+x,-y,1/2+z
_cell_length_a                   7.6711(4)
_cell_length_b                   20.1302(9)
_cell_length_c                   21.6113(15)
_cell_angle_alpha                90
_cell_angle_beta                 90
_cell_angle_gamma                90
_cell_volume                     3337.23
_exptl_crystal_colour            colorless
_exptl_crystal_description       Platelet
_cell_formula_units_Z            8
_exptl_crystal_recrystallization_method 
'Re-crystallisation from solvent: dichloromethane and pentane'
loop_
_atom_site_label
_atom_site_type_symbol
_atom_site_fract_x
_atom_site_fract_y
_atom_site_fract_z
P1 P 1.0050(2) 0.23715(6) 0.32164(7)
O1 O 1.1953(5) 0.22631(17) 0.30836(15)
C1 C 1.0475(7) 0.3054(3) 0.4345(3)
C2 C 1.0519(9) 0.4838(3) 0.3561(3)
C3 C 0.9557(7) 0.3005(3) 0.3789(2)
C4 C 0.9800(7) 0.3488(3) 0.4785(2)
H1 H 1.0198 0.3466 0.5191
C5 C 0.8902(7) 0.1617(3) 0.3437(3)
C6 C 0.9694(7) 0.1337(2) 0.4031(2)
H2 H 1.0914 0.1254 0.3969
H3 H 0.9119 0.0929 0.4137
H4 H 0.9547 0.1651 0.4361
C7 C 0.8535(7) 0.3959(3) 0.4628(3)
H5 H 0.8094 0.4241 0.4930
C8 C 1.3054(7) 0.3881(3) 0.3874(3)
C9 C 0.9122(7) 0.1120(2) 0.2907(2)
H6 H 0.8668 0.1308 0.2532
H7 H 0.8500 0.0719 0.3002
H8 H 1.0337 0.1020 0.2853
C10 C 0.8322(6) 0.3487(3) 0.3635(2)
H9 H 0.7745 0.3455 0.3258
C11 C 1.2655(7) 0.4403(3) 0.4271(3)
H10 H 1.3238 0.4439 0.4647
C12 C 0.7932(7) 0.4008(3) 0.4024(3)
C13 C 0.6967(7) 0.1774(2) 0.3529(3)
H11 H 0.6838 0.2090 0.3859
H12 H 0.6353 0.1373 0.3632
H13 H 0.6497 0.1957 0.3155
C14 C 1.1179(8) 0.4400(3) 0.3125(3)
H14 H 1.0764 0.4422 0.2722
C15 C 1.2436(7) 0.3932(3) 0.3270(3)
H15 H 1.2867 0.3652 0.2964
C16 C 1.2305(7) 0.2784(2) 0.4439(2)
H16 H 1.2364 0.2336 0.4274
H17 H 1.2551 0.2761 0.4879
C17 C 1.3744(7) 0.3229(3) 0.4111(3)
H18 H 1.4676 0.3316 0.4403
H19 H 1.4237 0.2983 0.3767
C18 C 1.1404(8) 0.4872(3) 0.4117(3)
H20 H 1.1157 0.5215 0.4392
C19 C 0.8693(8) 0.5123(3) 0.3495(3)
H21 H 0.8450 0.5195 0.3060
H22 H 0.8650 0.5551 0.3701
C20 C 0.7235(7) 0.4662(2) 0.3775(3)
H23 H 0.6652 0.4897 0.4107
H24 H 0.6376 0.4569 0.3457
H25 H 0.910(5) 0.260(2) 0.264(2)
loop_
_geom_bond_atom_site_label_1
_geom_bond_atom_site_label_2
_geom_bond_site_symmetry_1
_geom_bond_site_symmetry_2
P1 O1 1_555 1_555
C1 C3 1_555 1_555
C2 C14 1_555 1_555
C3 P1 1_555 1_555
C4 C1 1_555 1_555
H1 C4 1_555 1_555
C5 P1 1_555 1_555
C6 C5 1_555 1_555
H2 C6 1_555 1_555
H3 C6 1_555 1_555
H4 C6 1_555 1_555
C7 C4 1_555 1_555
H5 C7 1_555 1_555
C8 C11 1_555 1_555
C9 C5 1_555 1_555
H6 C9 1_555 1_555
H7 C9 1_555 1_555
H8 C9 1_555 1_555
C10 C3 1_555 1_555
H9 C10 1_555 1_555
C11 H10 1_555 1_555
C12 C7 1_555 1_555
C13 C5 1_555 1_555
H11 C13 1_555 1_555
H12 C13 1_555 1_555
H13 C13 1_555 1_555
C14 H14 1_555 1_555
C15 C8 1_555 1_555
H15 C15 1_555 1_555
C16 C1 1_555 1_555
H16 C16 1_555 1_555
H17 C16 1_555 1_555
C17 C8 1_555 1_555
H18 C17 1_555 1_555
H19 C17 1_555 1_555
C18 C2 1_555 1_555
H20 C18 1_555 1_555
C19 C2 1_555 1_555
H21 C19 1_555 1_555
H22 C19 1_555 1_555
C20 C12 1_555 1_555
H23 C20 1_555 1_555
H24 C20 1_555 1_555
H25 P1 1_555 1_555
C10 C12 1_555 1_555
C11 C18 1_555 1_555
C14 C15 1_555 1_555
C16 C17 1_555 1_555
C19 C20 1_555 1_555

#END
