
#######################################################################
#
#                 Cambridge Crystallographic Data Centre
#                                CCDC 
#
#######################################################################
#
# If this CIF has been generated from an entry in the Cambridge 
# Structural Database, then it will include bibliographic, chemical, 
# crystal, experimental, refinement or atomic coordinate data resulting 
# from the CCDC's data processing and validation procedures.
#
#######################################################################

data_TIBXAF
_chemical_formula_moiety         'C15 H12 N2 O2 S1'
_chemical_name_systematic        
N-(2-Methylphenyl)-3-oxo-1,2-benzothiazole-2(3H)-carboxamide
_symmetry_cell_setting           monoclinic
_symmetry_space_group_name_H-M   'P 21/c'
_symmetry_Int_Tables_number      14
_space_group_name_Hall           '-P 2ybc'
loop_
_symmetry_equiv_pos_site_id
_symmetry_equiv_pos_as_xyz
1 x,y,z
2 -x,1/2+y,1/2-z
3 -x,-y,-z
4 x,1/2-y,1/2+z
_cell_length_a                   13.042(13)
_cell_length_b                   6.261(6)
_cell_length_c                   16.368(16)
_cell_angle_alpha                90
_cell_angle_beta                 94.308(11)
_cell_angle_gamma                90
_cell_volume                     1332.77
_exptl_crystal_colour            colorless
_exptl_crystal_description       Prism
_cell_formula_units_Z            4
loop_
_atom_site_label
_atom_site_type_symbol
_atom_site_fract_x
_atom_site_fract_y
_atom_site_fract_z
S1 S 0.40543(6) 0.24691(12) 0.24047(5)
O1 O 0.12681(15) 0.3883(3) 0.28278(14)
O2 O 0.42997(15) 0.5916(3) 0.34589(14)
N1 N 0.30509(18) 0.3852(4) 0.28038(15)
N2 N 0.2583(2) 0.6797(4) 0.35553(17)
C1 C 0.3175(2) 0.0593(5) 0.19829(18)
C2 C 0.3407(2) -0.1257(5) 0.15384(18)
H1 H 0.4095 -0.1593 0.1434
C3 C 0.2602(2) -0.2560(5) 0.12610(19)
H2 H 0.2742 -0.3813 0.0962
C4 C 0.1580(2) -0.2082(5) 0.1409(2)
H3 H 0.1042 -0.3016 0.1211
C5 C 0.1348(2) -0.0260(5) 0.18400(19)
H4 H 0.0657 0.0071 0.1939
C6 C 0.2154(2) 0.1078(5) 0.21251(18)
C7 C 0.2060(2) 0.3043(5) 0.26069(19)
C8 C 0.3374(2) 0.5622(5) 0.33056(19)
C9 C 0.2652(2) 0.8704(5) 0.40261(18)
C10 C 0.3579(3) 0.9719(5) 0.4269(2)
H5 H 0.4213 0.9113 0.4135
C11 C 0.3570(3) 1.1639(5) 0.4711(2)
H6 H 0.4200 1.2324 0.4880
C12 C 0.2650(3) 1.2540(5) 0.4903(2)
H7 H 0.2647 1.3851 0.5195
C13 C 0.1728(3) 1.1513(5) 0.4665(2)
H8 H 0.1099 1.2141 0.4797
C14 C 0.1706(2) 0.9566(5) 0.42337(19)
C15 C 0.0694(2) 0.8453(5) 0.3997(2)
H9 H 0.0558 0.8490 0.3400
H10 H 0.0138 0.9184 0.4254
H11 H 0.0733 0.6965 0.4182
H12 H 0.201(2) 0.629(5) 0.3396(19)
loop_
_geom_bond_atom_site_label_1
_geom_bond_atom_site_label_2
_geom_bond_site_symmetry_1
_geom_bond_site_symmetry_2
S1 N1 1_555 1_555
O1 C7 1_555 1_555
O2 C8 1_555 1_555
N1 C7 1_555 1_555
N2 C8 1_555 1_555
C1 S1 1_555 1_555
C2 C1 1_555 1_555
H1 C2 1_555 1_555
C3 C2 1_555 1_555
H2 C3 1_555 1_555
C4 C3 1_555 1_555
H3 C4 1_555 1_555
C5 C4 1_555 1_555
H4 C5 1_555 1_555
C6 C1 1_555 1_555
C7 C6 1_555 1_555
C8 N1 1_555 1_555
C9 N2 1_555 1_555
C10 C9 1_555 1_555
H5 C10 1_555 1_555
C11 C10 1_555 1_555
H6 C11 1_555 1_555
C12 C11 1_555 1_555
H7 C12 1_555 1_555
C13 C12 1_555 1_555
H8 C13 1_555 1_555
C14 C9 1_555 1_555
C15 C14 1_555 1_555
H9 C15 1_555 1_555
H10 C15 1_555 1_555
H11 C15 1_555 1_555
H12 N2 1_555 1_555
C5 C6 1_555 1_555
C13 C14 1_555 1_555

#END
