
#######################################################################
#
#                 Cambridge Crystallographic Data Centre
#                                CCDC 
#
#######################################################################
#
# If this CIF has been generated from an entry in the Cambridge 
# Structural Database, then it will include bibliographic, chemical, 
# crystal, experimental, refinement or atomic coordinate data resulting 
# from the CCDC's data processing and validation procedures.
#
#######################################################################

data_TIBYEJ
_chemical_formula_moiety         'C10 H16 N3 1+,Br1 1-'
_chemical_name_systematic        'N-(3-Phenylpropyl)guanidinium bromide'
_symmetry_cell_setting           monoclinic
_symmetry_space_group_name_H-M   'C c'
_symmetry_Int_Tables_number      9
_space_group_name_Hall           'C -2yc'
loop_
_symmetry_equiv_pos_site_id
_symmetry_equiv_pos_as_xyz
1 x,y,z
2 x,-y,1/2+z
3 1/2+x,1/2+y,z
4 1/2+x,1/2-y,1/2+z
_cell_length_a                   10.5205(18)
_cell_length_b                   11.784(2)
_cell_length_c                   10.3702(17)
_cell_angle_alpha                90
_cell_angle_beta                 111.056(3)
_cell_angle_gamma                90
_cell_volume                     1199.79
_exptl_crystal_colour            colorless
_exptl_crystal_description       plate
_cell_formula_units_Z            4
_exptl_crystal_recrystallization_method 'diethyl ether/acetone'
loop_
_atom_site_label
_atom_site_type_symbol
_atom_site_fract_x
_atom_site_fract_y
_atom_site_fract_z
Br1 Br 0.71055(8) 0.87770(5) 0.18953(8)
C1 C 0.3989(7) 0.3219(5) 0.5799(7)
C2 C 0.4699(7) 0.3874(6) 0.8195(7)
H1 H 0.3862 0.3679 0.8374
H2 H 0.4638 0.4681 0.7914
C3 C 0.5931(10) 0.3703(6) 0.9501(8)
H3 H 0.6761 0.3951 0.9341
H4 H 0.6031 0.2887 0.9743
C4 C 0.5783(8) 0.4381(7) 1.0694(9)
H5 H 0.5726 0.5198 1.0460
H6 H 0.4921 0.4162 1.0808
C5 C 0.6925(8) 0.4200(6) 1.2018(9)
C6 C 0.6836(9) 0.3459(7) 1.3034(8)
H7 H 0.6016 0.3047 1.2869
C7 C 0.7898(12) 0.3308(9) 1.4260(9)
H8 H 0.7808 0.2778 1.4912
C8 C 0.9082(11) 0.3904(8) 1.4565(9)
H9 H 0.9805 0.3811 1.5428
C9 C 0.9203(9) 0.4651(8) 1.3575(9)
H10 H 1.0024 0.5067 1.3759
C10 C 0.8159(8) 0.4793(7) 1.2346(9)
H11 H 0.8268 0.5309 1.1690
N1 N 0.2952(6) 0.3952(4) 0.5380(6)
H12 H 0.2803 0.4411 0.5979
H13 H 0.2418 0.3975 0.4504
N2 N 0.4190(6) 0.2529(5) 0.4873(6)
H14 H 0.4867 0.2040 0.5134
H15 H 0.3647 0.2563 0.4002
N3 N 0.4797(6) 0.3163(5) 0.7087(6)
H16 H 0.5455 0.2656 0.7305
loop_
_geom_bond_atom_site_label_1
_geom_bond_atom_site_label_2
_geom_bond_site_symmetry_1
_geom_bond_site_symmetry_2
C1 N1 1_555 1_555
C2 H1 1_555 1_555
H2 C2 1_555 1_555
C3 C2 1_555 1_555
H3 C3 1_555 1_555
H4 C3 1_555 1_555
C4 C3 1_555 1_555
H5 C4 1_555 1_555
H6 C4 1_555 1_555
C5 C4 1_555 1_555
C6 C5 1_555 1_555
H7 C6 1_555 1_555
C7 C6 1_555 1_555
H8 C7 1_555 1_555
C8 C7 1_555 1_555
H9 C8 1_555 1_555
C9 C8 1_555 1_555
H10 C9 1_555 1_555
C10 C5 1_555 1_555
H11 C10 1_555 1_555
N1 H12 1_555 1_555
H13 N1 1_555 1_555
N2 C1 1_555 1_555
H14 N2 1_555 1_555
H15 N2 1_555 1_555
N3 C1 1_555 1_555
H16 N3 1_555 1_555
C2 N3 1_555 1_555
C9 C10 1_555 1_555

#END
