
#######################################################################
#
#                 Cambridge Crystallographic Data Centre
#                                CCDC 
#
#######################################################################
#
# If this CIF has been generated from an entry in the Cambridge 
# Structural Database, then it will include bibliographic, chemical, 
# crystal, experimental, refinement or atomic coordinate data resulting 
# from the CCDC's data processing and validation procedures.
#
#######################################################################

data_TIBYAF
_chemical_formula_moiety         'C28 H22 N4 O2'
_chemical_name_systematic        
2'-((Phenyl)(1-phenyl-3-methyl-5-oxo-4,5-dihydro-1H-pyrazole-4-ylidene)methyl)-1-naphthohydrazide
_symmetry_cell_setting           monoclinic
_symmetry_space_group_name_H-M   'P 21/c'
_symmetry_Int_Tables_number      14
_space_group_name_Hall           '-P 2ybc'
loop_
_symmetry_equiv_pos_site_id
_symmetry_equiv_pos_as_xyz
1 x,y,z
2 -x,1/2+y,1/2-z
3 -x,-y,-z
4 x,1/2-y,1/2+z
_cell_length_a                   8.2430(5)
_cell_length_b                   21.8718(13)
_cell_length_c                   12.9224(8)
_cell_angle_alpha                90
_cell_angle_beta                 98.533(2)
_cell_angle_gamma                90
_cell_volume                     2303.98
_exptl_crystal_colour            yellow
_exptl_crystal_description       block
_cell_formula_units_Z            4
_exptl_crystal_recrystallization_method ethanol
loop_
_atom_site_label
_atom_site_type_symbol
_atom_site_fract_x
_atom_site_fract_y
_atom_site_fract_z
O1 O 0.92393(15) 0.65456(6) 0.70006(10)
O2 O 0.67124(14) 0.47842(6) 0.68958(11)
N1 N 1.05736(16) 0.57344(6) 0.78086(11)
H1 H 1.1508 0.5578 0.8056
N2 N 0.91347(16) 0.54358(6) 0.79558(12)
H2 H 0.8911 0.5088 0.7657
N3 N 0.43229(16) 0.49151(6) 0.76315(11)
N4 N 0.38278(15) 0.52339(6) 0.84703(10)
C1 C 0.59438(19) 0.50180(7) 0.75564(14)
C2 C 0.64984(18) 0.54400(7) 0.83993(13)
C3 C 0.50954(18) 0.55454(7) 0.89166(12)
C4 C 0.4886(2) 0.59411(8) 0.98269(13)
H3 H 0.4746 0.6358 0.9600
H4 H 0.5841 0.5909 1.0349
H5 H 0.3938 0.5811 1.0118
C5 C 0.31633(19) 0.45598(7) 0.69691(13)
C6 C 0.1942(2) 0.42561(9) 0.73836(15)
H6 H 0.1891 0.4277 0.8097
C7 C 0.0796(3) 0.39208(11) 0.67284(17)
H7 H -0.0037 0.3718 0.7002
C8 C 0.0877(3) 0.38838(10) 0.56762(17)
H8 H 0.0116 0.3650 0.5243
C9 C 0.2079(2) 0.41924(9) 0.52662(16)
H9 H 0.2124 0.4171 0.4552
C10 C 0.3226(2) 0.45351(8) 0.59059(14)
H10 H 0.4034 0.4748 0.5624
C11 C 0.80892(18) 0.56723(7) 0.85468(12)
C12 C 0.86981(19) 0.61493(7) 0.93172(13)
C13 C 0.7965(2) 0.67187(8) 0.92616(16)
H11 H 0.7082 0.6799 0.8743
C14 C 0.8536(3) 0.71670(10) 0.9971(2)
H12 H 0.8033 0.7549 0.9934
C15 C 0.9834(4) 0.70535(15) 1.0726(2)
H13 H 1.0210 0.7357 1.1206
C16 C 1.0595(3) 0.64920(15) 1.07834(17)
H14 H 1.1490 0.6419 1.1297
C17 C 1.0033(2) 0.60362(10) 1.00779(15)
H15 H 1.0547 0.5657 1.0115
C18 C 1.0511(2) 0.62698(8) 0.72793(13)
C19 C 1.21534(19) 0.64768(7) 0.70523(13)
C20 C 1.2908(2) 0.61460(9) 0.63651(14)
H16 H 1.2422 0.5787 0.6082
C21 C 1.4397(3) 0.63367(12) 0.60792(18)
H17 H 1.4897 0.6105 0.5612
C22 C 1.5115(3) 0.68635(12) 0.6487(2)
H18 H 1.6111 0.6988 0.6299
C23 C 1.4366(2) 0.72209(9) 0.71899(17)
C24 C 1.5073(3) 0.77700(13) 0.7617(3)
H19 H 1.6040 0.7911 0.7411
C25 C 1.4369(4) 0.80912(13) 0.8316(3)
H20 H 1.4846 0.8455 0.8582
C26 C 1.2925(3) 0.78851(12) 0.8650(2)
H21 H 1.2469 0.8107 0.9150
C27 C 1.2182(3) 0.73636(9) 0.82526(16)
H22 H 1.1219 0.7232 0.8476
C28 C 1.2876(2) 0.70206(8) 0.74968(14)
loop_
_geom_bond_atom_site_label_1
_geom_bond_atom_site_label_2
_geom_bond_site_symmetry_1
_geom_bond_site_symmetry_2
O1 C18 1_555 1_555
O2 C1 1_555 1_555
N1 H1 1_555 1_555
N2 N1 1_555 1_555
H2 N2 1_555 1_555
N3 N4 1_555 1_555
N4 C3 1_555 1_555
C1 N3 1_555 1_555
C2 C1 1_555 1_555
C3 C2 1_555 1_555
C4 C3 1_555 1_555
H3 C4 1_555 1_555
H4 C4 1_555 1_555
H5 C4 1_555 1_555
C5 N3 1_555 1_555
C6 C5 1_555 1_555
H6 C6 1_555 1_555
C7 C6 1_555 1_555
H7 C7 1_555 1_555
C8 C7 1_555 1_555
H8 C8 1_555 1_555
C9 C8 1_555 1_555
H9 C9 1_555 1_555
C10 C5 1_555 1_555
H10 C10 1_555 1_555
C11 N2 1_555 1_555
C12 C11 1_555 1_555
C13 C12 1_555 1_555
H11 C13 1_555 1_555
C14 C13 1_555 1_555
H12 C14 1_555 1_555
C15 C14 1_555 1_555
H13 C15 1_555 1_555
C16 C15 1_555 1_555
H14 C16 1_555 1_555
C17 C12 1_555 1_555
H15 C17 1_555 1_555
C18 N1 1_555 1_555
C19 C18 1_555 1_555
C20 C19 1_555 1_555
H16 C20 1_555 1_555
C21 C20 1_555 1_555
H17 C21 1_555 1_555
C22 C21 1_555 1_555
H18 C22 1_555 1_555
C23 C22 1_555 1_555
C24 C23 1_555 1_555
H19 C24 1_555 1_555
C25 C24 1_555 1_555
H20 C25 1_555 1_555
C26 C25 1_555 1_555
H21 C26 1_555 1_555
C27 C26 1_555 1_555
H22 C27 1_555 1_555
C28 C19 1_555 1_555
C2 C11 1_555 1_555
C9 C10 1_555 1_555
C16 C17 1_555 1_555
C23 C28 1_555 1_555
C27 C28 1_555 1_555

#END
