
#######################################################################
#
#                 Cambridge Crystallographic Data Centre
#                                CCDC 
#
#######################################################################
#
# If this CIF has been generated from an entry in the Cambridge 
# Structural Database, then it will include bibliographic, chemical, 
# crystal, experimental, refinement or atomic coordinate data resulting 
# from the CCDC's data processing and validation procedures.
#
#######################################################################

data_TICCIS
_chemical_formula_moiety         'C23 H27 N1 O4'
_chemical_name_systematic        
'Methyl 1-t-butyl-4-(hydroxydiphenylmethyl)-2-oxopyrrolidine-3-carboxylate'
_symmetry_cell_setting           monoclinic
_symmetry_space_group_name_H-M   'P 21/c'
_symmetry_Int_Tables_number      14
_space_group_name_Hall           '-P 2ybc'
loop_
_symmetry_equiv_pos_site_id
_symmetry_equiv_pos_as_xyz
1 x,y,z
2 -x,1/2+y,1/2-z
3 -x,-y,-z
4 x,1/2-y,1/2+z
_cell_length_a                   13.426(2)
_cell_length_b                   11.001(2)
_cell_length_c                   13.933(4)
_cell_angle_alpha                90
_cell_angle_beta                 97.850(10)
_cell_angle_gamma                90
_cell_volume                     2038.61
_exptl_crystal_colour            colorless
_exptl_crystal_description       parallelepiped
_chemical_melting_point          '421-423 K'
_cell_formula_units_Z            4
_exptl_crystal_recrystallization_method 'hexane/ethyl acetate'
loop_
_atom_site_label
_atom_site_type_symbol
_atom_site_fract_x
_atom_site_fract_y
_atom_site_fract_z
C1 C 0.39787(17) 0.1364(2) 0.82282(16)
O1 O 0.46232(13) 0.25622(18) 0.65430(13)
O2 O 0.68706(15) 0.24328(18) 0.55609(13)
O3 O 0.62358(15) 0.05846(17) 0.57340(11)
O4 O 0.77506(13) 0.23350(15) 0.87884(11)
H1 H 0.7472 0.2309 0.9276
C2 C 0.52047(19) 0.1969(2) 0.71149(17)
C3 C 0.63303(17) 0.1889(2) 0.70748(15)
H2 H 0.6641 0.2661 0.7304
C4 C 0.66995(17) 0.0891(2) 0.78102(14)
H3 H 0.6729 0.0122 0.7460
C5 C 0.58665(16) 0.0797(2) 0.84535(15)
H4 H 0.5750 -0.0044 0.8614
H5 H 0.6042 0.1252 0.9049
N1 N 0.49794(14) 0.13148(17) 0.78762(13)
C6 C 0.65241(18) 0.1685(2) 0.60464(17)
C7 C 0.6392(2) 0.0278(3) 0.47557(18)
H6 H 0.6024 0.0853 0.4301
H7 H 0.6148 -0.0548 0.4603
H8 H 0.7112 0.0322 0.4701
C8 C 0.3160(2) 0.0961(3) 0.74190(18)
H9 H 0.3175 0.1483 0.6851
H10 H 0.2501 0.1025 0.7643
H11 H 0.3279 0.0115 0.7244
C9 C 0.3967(2) 0.0505(3) 0.90838(18)
H12 H 0.4149 -0.0316 0.8897
H13 H 0.3292 0.0492 0.9277
H14 H 0.4452 0.0786 0.9628
C10 C 0.3799(2) 0.2649(3) 0.8549(2)
H15 H 0.4299 0.2858 0.9105
H16 H 0.3123 0.2710 0.8736
H17 H 0.3860 0.3212 0.8015
C11 C 0.77523(17) 0.1152(2) 0.83708(15)
C12 C 0.85193(17) 0.1184(2) 0.76491(16)
C13 C 0.90814(18) 0.2208(3) 0.75347(18)
H18 H 0.8994 0.2921 0.7912
C14 C 0.9776(2) 0.2222(3) 0.6876(2)
H19 H 1.0152 0.2918 0.6806
C15 C 0.9903(2) 0.1214(3) 0.6334(2)
H20 H 1.0367 0.1224 0.5896
C16 C 0.9350(2) 0.0190(3) 0.6435(2)
H21 H 0.9433 -0.0494 0.6062
C17 C 0.8667(2) 0.0173(3) 0.70931(18)
H22 H 0.8299 -0.0530 0.7164
C18 C 0.80686(16) 0.0190(2) 0.91525(15)
C19 C 0.86649(18) 0.0514(3) 1.00077(17)
H23 H 0.8853 0.1322 1.0113
C20 C 0.8983(2) -0.0347(3) 1.07053(19)
H24 H 0.9378 -0.0110 1.1276
C21 C 0.87245(19) -0.1537(3) 1.05662(19)
H25 H 0.8946 -0.2112 1.1036
C22 C 0.81324(18) -0.1883(3) 0.97243(18)
H26 H 0.7954 -0.2695 0.9622
C23 C 0.78040(18) -0.1018(2) 0.90307(16)
H27 H 0.7395 -0.1256 0.8469
loop_
_geom_bond_atom_site_label_1
_geom_bond_atom_site_label_2
_geom_bond_site_symmetry_1
_geom_bond_site_symmetry_2
C1 N1 1_555 1_555
O1 C2 1_555 1_555
O2 C6 1_555 1_555
O3 C6 1_555 1_555
O4 H1 1_555 1_555
C2 C3 1_555 1_555
C3 H2 1_555 1_555
C4 C3 1_555 1_555
H3 C4 1_555 1_555
C5 C4 1_555 1_555
H4 C5 1_555 1_555
H5 C5 1_555 1_555
N1 C2 1_555 1_555
C6 C3 1_555 1_555
C7 O3 1_555 1_555
H6 C7 1_555 1_555
H7 C7 1_555 1_555
H8 C7 1_555 1_555
C8 C1 1_555 1_555
H9 C8 1_555 1_555
H10 C8 1_555 1_555
H11 C8 1_555 1_555
C9 C1 1_555 1_555
H12 C9 1_555 1_555
H13 C9 1_555 1_555
H14 C9 1_555 1_555
C10 C1 1_555 1_555
H15 C10 1_555 1_555
H16 C10 1_555 1_555
H17 C10 1_555 1_555
C11 O4 1_555 1_555
C12 C11 1_555 1_555
C13 C12 1_555 1_555
H18 C13 1_555 1_555
C14 C13 1_555 1_555
H19 C14 1_555 1_555
C15 C14 1_555 1_555
H20 C15 1_555 1_555
C16 C15 1_555 1_555
H21 C16 1_555 1_555
C17 C12 1_555 1_555
H22 C17 1_555 1_555
C18 C11 1_555 1_555
C19 C18 1_555 1_555
H23 C19 1_555 1_555
C20 C19 1_555 1_555
H24 C20 1_555 1_555
C21 C20 1_555 1_555
H25 C21 1_555 1_555
C22 C21 1_555 1_555
H26 C22 1_555 1_555
C23 C18 1_555 1_555
H27 C23 1_555 1_555
C4 C11 1_555 1_555
C5 N1 1_555 1_555
C16 C17 1_555 1_555
C22 C23 1_555 1_555

#END
