
#######################################################################
#
#                 Cambridge Crystallographic Data Centre
#                                CCDC 
#
#######################################################################
#
# If this CIF has been generated from an entry in the Cambridge 
# Structural Database, then it will include bibliographic, chemical, 
# crystal, experimental, refinement or atomic coordinate data resulting 
# from the CCDC's data processing and validation procedures.
#
#######################################################################

data_TICGES
_chemical_formula_moiety         'C7 H9 N3 S3'
_chemical_name_systematic        
'Methyl 3-((Z)-1-(thiazol-2-yl)ethylidene)dithiocarbazate'
_symmetry_cell_setting           monoclinic
_symmetry_space_group_name_H-M   'P 21/c'
_symmetry_Int_Tables_number      14
_space_group_name_Hall           '-P 2ybc'
loop_
_symmetry_equiv_pos_site_id
_symmetry_equiv_pos_as_xyz
1 x,y,z
2 -x,1/2+y,1/2-z
3 -x,-y,-z
4 x,1/2-y,1/2+z
_cell_length_a                   7.7042(7)
_cell_length_b                   9.3628(8)
_cell_length_c                   14.8665(12)
_cell_angle_alpha                90
_cell_angle_beta                 105.536(12)
_cell_angle_gamma                90
_cell_volume                     1033.18
_exptl_crystal_colour            yellow
_exptl_crystal_description       prism
_cell_formula_units_Z            4
_exptl_crystal_recrystallization_method 'absolute ethanol'
loop_
_atom_site_label
_atom_site_type_symbol
_atom_site_fract_x
_atom_site_fract_y
_atom_site_fract_z
S1 S 0.26561(6) 0.12963(4) 0.35008(3)
S2 S 0.13808(7) 0.80767(5) 0.49759(3)
S3 S 0.32959(6) 0.64755(4) 0.67409(3)
N1 N 0.1700(2) 0.39179(13) 0.34694(9)
N2 N 0.31140(18) 0.41923(13) 0.55387(9)
N3 N 0.23963(18) 0.54058(13) 0.50653(9)
H1 H 0.1926 0.5399 0.4474
C1 C 0.2471(2) 0.29011(15) 0.40484(11)
C2 C 0.1233(3) 0.34276(18) 0.25698(12)
H2 H 0.0663 0.4007 0.2070
C3 C 0.1650(3) 0.20549(18) 0.24522(12)
H3 H 0.1421 0.1590 0.1880
C4 C 0.3136(2) 0.30408(15) 0.50606(11)
C5 C 0.3909(3) 0.17354(17) 0.56103(13)
H4 H 0.5012 0.1474 0.5468
H5 H 0.3064 0.0963 0.5449
H6 H 0.4147 0.1935 0.6265
C6 C 0.2323(2) 0.66234(15) 0.55371(11)
C7 C 0.2900(3) 0.82284(19) 0.71432(14)
H7 H 0.3730 0.8894 0.6995
H8 H 0.3070 0.8207 0.7807
H9 H 0.1689 0.8519 0.6842
loop_
_geom_bond_atom_site_label_1
_geom_bond_atom_site_label_2
_geom_bond_site_symmetry_1
_geom_bond_site_symmetry_2
S1 C1 1_555 1_555
S2 C6 1_555 1_555
S3 C6 1_555 1_555
N1 C1 1_555 1_555
N2 N3 1_555 1_555
N3 H1 1_555 1_555
C1 C4 1_555 1_555
C2 N1 1_555 1_555
H2 C2 1_555 1_555
C3 S1 1_555 1_555
H3 C3 1_555 1_555
C4 N2 1_555 1_555
C5 C4 1_555 1_555
H4 C5 1_555 1_555
H5 C5 1_555 1_555
H6 C5 1_555 1_555
C6 N3 1_555 1_555
C7 S3 1_555 1_555
H7 C7 1_555 1_555
H8 C7 1_555 1_555
H9 C7 1_555 1_555
C2 C3 1_555 1_555

#END
