
#######################################################################
#
#                 Cambridge Crystallographic Data Centre
#                                CCDC 
#
#######################################################################
#
# If this CIF has been generated from an entry in the Cambridge 
# Structural Database, then it will include bibliographic, chemical, 
# crystal, experimental, refinement or atomic coordinate data resulting 
# from the CCDC's data processing and validation procedures.
#
#######################################################################

data_TICHUI01
_chemical_name_common            'Coumarin-3-carboxylic acid'
_chemical_formula_moiety         'C10 H6 O4'
_chemical_name_systematic        '2-oxo-2H-1-benzopyran-3-carboxylic acid'
_symmetry_cell_setting           monoclinic
_symmetry_space_group_name_H-M   'P 21/c'
_symmetry_Int_Tables_number      14
_space_group_name_Hall           '-P 2ybc'
loop_
_symmetry_equiv_pos_site_id
_symmetry_equiv_pos_as_xyz
1 x,y,z
2 -x,1/2+y,1/2-z
3 -x,-y,-z
4 x,1/2-y,1/2+z
_cell_length_a                   9.8733(7)
_cell_length_b                   9.4382(7)
_cell_length_c                   9.7356(6)
_cell_angle_alpha                90
_cell_angle_beta                 118.785(2)
_cell_angle_gamma                90
_cell_volume                     795.12
_exptl_crystal_colour            colorless
_exptl_crystal_description       plate
_cell_formula_units_Z            4
_exptl_crystal_recrystallization_method acetone
loop_
_atom_site_label
_atom_site_type_symbol
_atom_site_fract_x
_atom_site_fract_y
_atom_site_fract_z
O1 O 0.84754(15) 0.31858(13) 0.55156(15)
O2 O 0.80372(17) 0.09130(14) 0.50285(17)
O3 O 0.61410(15) 0.00992(14) 0.20082(17)
H1 H 0.5633 -0.0405 0.1211
O4 O 0.52464(15) 0.18083(14) 0.01970(16)
C1 C 0.8303(2) 0.45875(19) 0.5069(2)
C2 C 0.9047(2) 0.5584(2) 0.6240(2)
H3 H 0.9648 0.5306 0.7304
C3 C 0.8890(2) 0.6988(2) 0.5815(2)
H4 H 0.9388 0.7687 0.6604
C4 C 0.8017(2) 0.7415(2) 0.4254(3)
H5 H 0.7932 0.8391 0.3986
C5 C 0.7282(2) 0.6407(2) 0.3108(3)
H6 H 0.6687 0.6688 0.2044
C6 C 0.7408(2) 0.4964(2) 0.3505(2)
C7 C 0.6668(2) 0.38576(19) 0.2395(2)
H7 H 0.6047 0.4096 0.1321
C8 C 0.6823(2) 0.2480(2) 0.2821(2)
C9 C 0.7781(2) 0.2081(2) 0.4468(2)
C10 C 0.6020(2) 0.1388(2) 0.1607(2)
H2? H 0.4841 0.1108 -0.0393
loop_
_geom_bond_atom_site_label_1
_geom_bond_atom_site_label_2
_geom_bond_site_symmetry_1
_geom_bond_site_symmetry_2
O1 C1 1_555 1_555
O2 C9 1_555 1_555
O3 H1 1_555 1_555
O4 C10 1_555 1_555
C1 C2 1_555 1_555
C2 H3 1_555 1_555
C3 C2 1_555 1_555
H4 C3 1_555 1_555
C4 C3 1_555 1_555
H5 C4 1_555 1_555
C5 C4 1_555 1_555
H6 C5 1_555 1_555
C6 C1 1_555 1_555
C7 C6 1_555 1_555
H7 C7 1_555 1_555
C8 C7 1_555 1_555
C9 O1 1_555 1_555
C10 O3 1_555 1_555
C5 C6 1_555 1_555
C8 C9 1_555 1_555
C8 C10 1_555 1_555

#END
