
#######################################################################
#
#                 Cambridge Crystallographic Data Centre
#                                CCDC 
#
#######################################################################
#
# If this CIF has been generated from an entry in the Cambridge 
# Structural Database, then it will include bibliographic, chemical, 
# crystal, experimental, refinement or atomic coordinate data resulting 
# from the CCDC's data processing and validation procedures.
#
#######################################################################

data_TICMEA
_chemical_formula_moiety         'C19 H15 Cl1 O3'
_chemical_name_systematic        
2-(4-chlorophenyl)-3-(1,4-dioxan-2-yl)-1H-inden-1-one
_symmetry_cell_setting           orthorhombic
_symmetry_space_group_name_H-M   'P 21 21 21'
_symmetry_Int_Tables_number      19
_space_group_name_Hall           'P 2ac 2ab'
loop_
_symmetry_equiv_pos_site_id
_symmetry_equiv_pos_as_xyz
1 x,y,z
2 1/2-x,-y,1/2+z
3 -x,1/2+y,1/2-z
4 1/2+x,1/2-y,-z
_cell_length_a                   10.5865(6)
_cell_length_b                   13.7407(8)
_cell_length_c                   21.5096(16)
_cell_angle_alpha                90
_cell_angle_beta                 90
_cell_angle_gamma                90
_cell_volume                     3128.91
_exptl_crystal_colour            yellow
_exptl_crystal_description       block
_cell_formula_units_Z            8
loop_
_atom_site_label
_atom_site_type_symbol
_atom_site_fract_x
_atom_site_fract_y
_atom_site_fract_z
Cl1 Cl 0.36674(15) 0.64915(12) 0.54425(7)
O1 O 0.8105(4) 0.6393(2) 0.3214(2)
O2 O 0.8341(3) 0.2378(2) 0.38718(16)
O3 O 0.5929(3) 0.1576(3) 0.3662(2)
C1 C 0.8167(5) 0.5505(4) 0.3224(3)
C2 C 0.7422(5) 0.4834(3) 0.3639(2)
C3 C 0.7716(5) 0.3910(3) 0.3478(2)
C4 C 0.8634(5) 0.3916(4) 0.2948(2)
C5 C 0.8934(5) 0.4878(4) 0.2804(2)
C6 C 0.9771(5) 0.5110(4) 0.2344(3)
H1 H 0.9980 0.5756 0.2265
C7 C 1.0307(5) 0.4362(4) 0.1996(3)
H2 H 1.0882 0.4503 0.1682
C8 C 0.9981(5) 0.3410(4) 0.2121(3)
H3 H 1.0331 0.2917 0.1880
C9 C 0.9137(5) 0.3163(4) 0.2597(2)
H4 H 0.8922 0.2518 0.2675
C10 C 0.6531(5) 0.5201(3) 0.4101(2)
C11 C 0.6791(5) 0.6053(3) 0.4443(3)
H5 H 0.7564 0.6364 0.4387
C12 C 0.5935(5) 0.6440(4) 0.4858(3)
H6 H 0.6131 0.6999 0.5082
C13 C 0.4783(5) 0.5986(4) 0.4935(3)
C14 C 0.4493(5) 0.5146(4) 0.4622(3)
H7 H 0.3727 0.4832 0.4693
C15 C 0.5351(5) 0.4769(4) 0.4201(3)
H8 H 0.5137 0.4213 0.3978
C16 C 0.7259(5) 0.2989(3) 0.3770(2)
H9 H 0.6872 0.3142 0.4172
C17 C 0.6291(5) 0.2460(3) 0.3367(3)
H10 H 0.5555 0.2870 0.3308
H11 H 0.6653 0.2321 0.2963
C18 C 0.7014(6) 0.0968(4) 0.3739(3)
H12 H 0.7377 0.0822 0.3336
H13 H 0.6765 0.0359 0.3932
C19 C 0.7977(6) 0.1464(4) 0.4136(3)
H14 H 0.7632 0.1570 0.4549
H15 H 0.8715 0.1050 0.4177
Cl2 Cl -0.15749(17) 0.66291(16) 0.60554(8)
O4 O 0.2214(5) 0.3835(3) 0.78774(19)
O5 O 0.2031(3) 0.7252(2) 0.93045(16)
O6 O 0.3202(4) 0.8822(2) 0.8688(2)
C20 C 0.2503(5) 0.4534(4) 0.8185(2)
C21 C 0.2062(5) 0.5579(4) 0.8086(2)
C22 C 0.2596(4) 0.6128(4) 0.8531(2)
C23 C 0.3413(4) 0.5523(3) 0.8940(2)
C24 C 0.3339(5) 0.4558(3) 0.8729(2)
C25 C 0.3959(5) 0.3806(4) 0.9031(3)
H16 H 0.3900 0.3170 0.8887
C26 C 0.4671(5) 0.4030(4) 0.9555(3)
H17 H 0.5082 0.3537 0.9771
C27 C 0.4774(5) 0.4980(4) 0.9757(3)
H18 H 0.5270 0.5120 1.0102
C28 C 0.4143(5) 0.5741(4) 0.9449(3)
H19 H 0.4219 0.6379 0.9587
C29 C 0.1175(5) 0.5837(3) 0.7583(2)
C30 C 0.1346(5) 0.6674(4) 0.7227(2)
H20 H 0.2040 0.7071 0.7301
C31 C 0.0500(6) 0.6922(4) 0.6765(3)
H21 H 0.0617 0.7487 0.6534
C32 C -0.0524(6) 0.6324(5) 0.6648(3)
C33 C -0.0706(6) 0.5482(5) 0.6990(3)
H22 H -0.1391 0.5079 0.6908
C34 C 0.0145(6) 0.5248(4) 0.7454(3)
H23 H 0.0024 0.4684 0.7685
C35 C 0.2341(5) 0.7202(3) 0.8658(2)
H24 H 0.1610 0.7412 0.8412
C36 C 0.3461(5) 0.7840(3) 0.8501(3)
H25 H 0.4207 0.7604 0.8714
H26 H 0.3621 0.7818 0.8057
C37 C 0.2919(6) 0.8865(4) 0.9336(3)
H27 H 0.2753 0.9533 0.9455
H28 H 0.3639 0.8635 0.9573
C38 C 0.1801(5) 0.8256(4) 0.9479(3)
H29 H 0.1617 0.8292 0.9920
H30 H 0.1073 0.8501 0.9254
loop_
_geom_bond_atom_site_label_1
_geom_bond_atom_site_label_2
_geom_bond_site_symmetry_1
_geom_bond_site_symmetry_2
Cl1 C13 1_555 1_555
O1 C1 1_555 1_555
O2 C16 1_555 1_555
O3 C17 1_555 1_555
C1 C2 1_555 1_555
C2 C3 1_555 1_555
C3 C4 1_555 1_555
C4 C5 1_555 1_555
C5 C1 1_555 1_555
C6 C5 1_555 1_555
H1 C6 1_555 1_555
C7 C6 1_555 1_555
H2 C7 1_555 1_555
C8 C7 1_555 1_555
H3 C8 1_555 1_555
C9 C4 1_555 1_555
H4 C9 1_555 1_555
C10 C2 1_555 1_555
C11 C10 1_555 1_555
H5 C11 1_555 1_555
C12 C11 1_555 1_555
H6 C12 1_555 1_555
C13 C12 1_555 1_555
C14 C13 1_555 1_555
H7 C14 1_555 1_555
C15 C10 1_555 1_555
H8 C15 1_555 1_555
C16 C3 1_555 1_555
H9 C16 1_555 1_555
C17 C16 1_555 1_555
H10 C17 1_555 1_555
H11 C17 1_555 1_555
C18 O3 1_555 1_555
H12 C18 1_555 1_555
H13 C18 1_555 1_555
C19 O2 1_555 1_555
H14 C19 1_555 1_555
H15 C19 1_555 1_555
Cl2 C32 1_555 1_555
O4 C20 1_555 1_555
O5 C35 1_555 1_555
O6 C36 1_555 1_555
C20 C21 1_555 1_555
C21 C22 1_555 1_555
C22 C23 1_555 1_555
C23 C24 1_555 1_555
C24 C20 1_555 1_555
C25 C24 1_555 1_555
H16 C25 1_555 1_555
C26 C25 1_555 1_555
H17 C26 1_555 1_555
C27 C26 1_555 1_555
H18 C27 1_555 1_555
C28 C23 1_555 1_555
H19 C28 1_555 1_555
C29 C21 1_555 1_555
C30 C29 1_555 1_555
H20 C30 1_555 1_555
C31 C30 1_555 1_555
H21 C31 1_555 1_555
C32 C31 1_555 1_555
C33 C32 1_555 1_555
H22 C33 1_555 1_555
C34 C29 1_555 1_555
H23 C34 1_555 1_555
C35 C22 1_555 1_555
H24 C35 1_555 1_555
C36 C35 1_555 1_555
H25 C36 1_555 1_555
H26 C36 1_555 1_555
C37 O6 1_555 1_555
H27 C37 1_555 1_555
H28 C37 1_555 1_555
C38 O5 1_555 1_555
H29 C38 1_555 1_555
H30 C38 1_555 1_555
C8 C9 1_555 1_555
C14 C15 1_555 1_555
C18 C19 1_555 1_555
C27 C28 1_555 1_555
C33 C34 1_555 1_555
C37 C38 1_555 1_555

#END
