
#######################################################################
#
#                 Cambridge Crystallographic Data Centre
#                                CCDC 
#
#######################################################################
#
# If this CIF has been generated from an entry in the Cambridge 
# Structural Database, then it will include bibliographic, chemical, 
# crystal, experimental, refinement or atomic coordinate data resulting 
# from the CCDC's data processing and validation procedures.
#
#######################################################################

data_TICMEZ
_chemical_formula_moiety         'C15 H28 O3'
_chemical_name_systematic        
'8-Isopropyl-2,5-dimethyldecahydronaphthalene-1,2,5-triol unknown solvate'
_symmetry_cell_setting           orthorhombic
_symmetry_space_group_name_H-M   'P 21 21 2'
_symmetry_Int_Tables_number      18
_space_group_name_Hall           'P 2 2ab'
loop_
_symmetry_equiv_pos_site_id
_symmetry_equiv_pos_as_xyz
1 x,y,z
2 -x,-y,z
3 1/2-x,1/2+y,-z
4 1/2+x,1/2-y,-z
_cell_length_a                   21.362(8)
_cell_length_b                   7.976(3)
_cell_length_c                   12.767(5)
_cell_angle_alpha                90
_cell_angle_beta                 90
_cell_angle_gamma                90
_cell_volume                     2175.28
_exptl_crystal_colour            colorless
_exptl_crystal_description       block
_cell_formula_units_Z            4
loop_
_atom_site_label
_atom_site_type_symbol
_atom_site_fract_x
_atom_site_fract_y
_atom_site_fract_z
C1 C 0.1890(2) 0.3648(5) 0.1207(3)
H1 H 0.2173 0.3980 0.0639
C2 C 0.1253(3) 0.3346(6) 0.0710(4)
H2 H 0.0960 0.2966 0.1240
H3 H 0.1286 0.2479 0.0180
C3 C 0.1011(3) 0.4972(7) 0.0209(4)
H4 H 0.1286 0.5290 -0.0362
H5 H 0.0597 0.4778 -0.0080
C4 C 0.0979(2) 0.6385(6) 0.0992(4)
C5 C 0.1612(2) 0.6677(5) 0.1491(3)
H6 H 0.1559 0.7521 0.2041
C6 C 0.1886(2) 0.5099(5) 0.1999(3)
H7 H 0.1601 0.4776 0.2566
C7 C 0.2517(3) 0.5387(6) 0.2486(4)
H8 H 0.2795 0.5692 0.1906
C8 C 0.2781(3) 0.3738(6) 0.2935(4)
H9 H 0.3203 0.3926 0.3192
H10 H 0.2525 0.3376 0.3520
C9 C 0.2792(3) 0.2395(6) 0.2118(5)
H11 H 0.3065 0.2742 0.1551
H12 H 0.2965 0.1380 0.2420
C10 C 0.2161(3) 0.2020(5) 0.1685(4)
C11 C 0.2549(4) 0.6906(9) 0.3284(6)
H13 H 0.2390 0.7917 0.2938
C12 C 0.2151(4) 0.6538(10) 0.4219(6)
H14 H 0.2389 0.5907 0.4720
H15 H 0.1792 0.5899 0.4007
H16 H 0.2016 0.7572 0.4531
C13 C 0.3161(4) 0.7251(10) 0.3699(6)
H17 H 0.3238 0.8437 0.3678
H18 H 0.3471 0.6681 0.3286
H19 H 0.3183 0.6866 0.4411
C14 C 0.1706(3) 0.1238(6) 0.2474(4)
H20 H 0.1293 0.1208 0.2176
H21 H 0.1700 0.1899 0.3102
H22 H 0.1838 0.0118 0.2637
C15 C 0.0751(3) 0.8016(7) 0.0423(6)
H23 H 0.0352 0.7815 0.0104
H24 H 0.1049 0.8324 -0.0106
H25 H 0.0714 0.8909 0.0923
O1 O 0.2225(2) 0.0765(3) 0.0885(3)
H26 H 0.2417 0.1157 0.0387
O2 O 0.20452(15) 0.7323(3) 0.0746(2)
H27 H 0.2022 0.8349 0.0735
O3 O 0.05584(17) 0.5977(5) 0.1797(3)
H28 H 0.0551 0.4957 0.1877
loop_
_geom_bond_atom_site_label_1
_geom_bond_atom_site_label_2
_geom_bond_site_symmetry_1
_geom_bond_site_symmetry_2
C1 H1 1_555 1_555
C2 C1 1_555 1_555
H2 C2 1_555 1_555
H3 C2 1_555 1_555
C3 C2 1_555 1_555
H4 C3 1_555 1_555
H5 C3 1_555 1_555
C4 C3 1_555 1_555
C5 C4 1_555 1_555
H6 C5 1_555 1_555
C6 C1 1_555 1_555
H7 C6 1_555 1_555
C7 C6 1_555 1_555
H8 C7 1_555 1_555
C8 C7 1_555 1_555
H9 C8 1_555 1_555
H10 C8 1_555 1_555
C9 C8 1_555 1_555
H11 C9 1_555 1_555
H12 C9 1_555 1_555
C10 C1 1_555 1_555
C11 C7 1_555 1_555
H13 C11 1_555 1_555
C12 C11 1_555 1_555
H14 C12 1_555 1_555
H15 C12 1_555 1_555
H16 C12 1_555 1_555
C13 C11 1_555 1_555
H17 C13 1_555 1_555
H18 C13 1_555 1_555
H19 C13 1_555 1_555
C14 C10 1_555 1_555
H20 C14 1_555 1_555
H21 C14 1_555 1_555
H22 C14 1_555 1_555
C15 C4 1_555 1_555
H23 C15 1_555 1_555
H24 C15 1_555 1_555
H25 C15 1_555 1_555
O1 C10 1_555 1_555
H26 O1 1_555 1_555
O2 C5 1_555 1_555
H27 O2 1_555 1_555
O3 C4 1_555 1_555
H28 O3 1_555 1_555
C5 C6 1_555 1_555
C9 C10 1_555 1_555

#END
