
#######################################################################
#
#                 Cambridge Crystallographic Data Centre
#                                CCDC 
#
#######################################################################
#
# If this CIF has been generated from an entry in the Cambridge 
# Structural Database, then it will include bibliographic, chemical, 
# crystal, experimental, refinement or atomic coordinate data resulting 
# from the CCDC's data processing and validation procedures.
#
#######################################################################

data_TICMIE
_chemical_formula_moiety         'C15 H13 N1 O1'
_chemical_name_systematic        
1-[1-(4-methylphenyl)prop-2-yn-1-yl]pyridin-4(1H)-one
_symmetry_cell_setting           monoclinic
_symmetry_space_group_name_H-M   'P 21'
_symmetry_Int_Tables_number      4
_space_group_name_Hall           'P 2yb'
loop_
_symmetry_equiv_pos_site_id
_symmetry_equiv_pos_as_xyz
1 x,y,z
2 -x,1/2+y,-z
_cell_length_a                   13.6750(2)
_cell_length_b                   9.48270(10)
_cell_length_c                   18.9040(3)
_cell_angle_alpha                90
_cell_angle_beta                 93.5380(10)
_cell_angle_gamma                90
_cell_volume                     2446.72
_exptl_crystal_colour            colorless
_exptl_crystal_description       block
_cell_formula_units_Z            8
loop_
_atom_site_label
_atom_site_type_symbol
_atom_site_fract_x
_atom_site_fract_y
_atom_site_fract_z
O1 O -0.51398(12) 0.0484(3) 0.49925(8)
N1 N -0.37288(14) 0.0433(2) 0.31581(9)
C1 C -0.30854(17) 0.0428(3) 0.25483(11)
H1 H -0.2860 0.1419 0.2479
C2 C -0.36441(18) -0.0005(3) 0.18925(12)
C3 C -0.40512(18) -0.0345(4) 0.13504(13)
H2 H -0.4379 -0.0620 0.0914
C4 C -0.21811(16) -0.0466(3) 0.27151(11)
C5 C -0.16524(18) -0.0317(3) 0.33712(12)
H3 H -0.1866 0.0341 0.3708
C6 C -0.08287(19) -0.1115(3) 0.35320(12)
H4 H -0.0481 -0.0998 0.3979
C7 C -0.04941(17) -0.2094(3) 0.30506(12)
C8 C -0.10006(19) -0.2194(3) 0.23926(13)
H5 H -0.0772 -0.2822 0.2048
C9 C -0.18326(18) -0.1397(3) 0.22288(12)
H6 H -0.2168 -0.1493 0.1776
C10 C 0.0365(2) -0.3041(4) 0.32413(16)
H7 H 0.0178 -0.3745 0.3587
H8 H 0.0911 -0.2475 0.3447
H9 H 0.0567 -0.3518 0.2814
C11 C -0.39861(18) -0.0797(3) 0.34632(13)
H10 H -0.3808 -0.1665 0.3255
C12 C -0.44921(17) -0.0816(3) 0.40583(12)
H11 H -0.4680 -0.1696 0.4249
C13 C -0.47496(15) 0.0466(3) 0.44066(11)
C14 C -0.45206(18) 0.1726(3) 0.40300(12)
H12 H -0.4724 0.2614 0.4201
C15 C -0.40198(17) 0.1670(3) 0.34343(12)
H13 H -0.3868 0.2525 0.3203
O2 O 0.07175(13) 0.4506(2) -0.05687(9)
N2 N 0.20947(14) 0.0854(2) 0.00369(9)
C16 C 0.25923(16) -0.0428(3) 0.03415(11)
H14 H 0.3289 -0.0403 0.0210
C17 C 0.21441(17) -0.1713(3) 0.00367(11)
C18 C 0.17945(19) -0.2780(3) -0.01949(13)
H15 H 0.1516 -0.3631 -0.0380
C19 C 0.25956(16) -0.0392(3) 0.11446(10)
C20 C 0.17430(16) -0.0611(3) 0.14979(11)
H16 H 0.1144 -0.0817 0.1237
C21 C 0.17744(18) -0.0529(3) 0.22287(12)
H17 H 0.1188 -0.0667 0.2465
C22 C 0.26414(19) -0.0248(3) 0.26279(12)
C23 C 0.34828(18) -0.0036(3) 0.22730(12)
H18 H 0.4084 0.0156 0.2534
C24 C 0.34592(17) -0.0101(3) 0.15379(12)
H19 H 0.4043 0.0057 0.1302
C25 C 0.2660(2) -0.0157(4) 0.34228(13)
H20 H 0.2882 -0.1058 0.3629
H21 H 0.2000 0.0053 0.3568
H22 H 0.3110 0.0595 0.3589
C26 C 0.11101(17) 0.0872(3) -0.01262(11)
H23 H 0.0743 0.0029 -0.0084
C27 C 0.06456(17) 0.2065(3) -0.03471(12)
H24 H -0.0037 0.2029 -0.0473
C28 C 0.11467(17) 0.3379(3) -0.03975(11)
C29 C 0.21909(17) 0.3291(3) -0.02225(12)
H25 H 0.2584 0.4112 -0.0256
C30 C 0.26154(17) 0.2063(3) -0.00119(11)
H26 H 0.3301 0.2046 0.0106
O3 O -0.52216(12) -0.1040(2) -0.00952(8)
N3 N -0.36316(14) 0.0247(2) -0.17337(10)
C31 C -0.29328(17) 0.0642(3) -0.22757(12)
H27 H -0.2693 0.1618 -0.2163
C32 C -0.34363(18) 0.0676(3) -0.29874(13)
C33 C -0.38207(19) 0.0721(4) -0.35613(13)
H28 H -0.4131 0.0757 -0.4025
C34 C -0.20505(17) -0.0341(3) -0.22169(11)
C35 C -0.14827(19) -0.0400(4) -0.15777(12)
H29 H -0.1644 0.0188 -0.1195
C36 C -0.06922(19) -0.1300(4) -0.14936(13)
H30 H -0.0323 -0.1331 -0.1051
C37 C -0.04262(18) -0.2160(3) -0.20432(12)
C38 C -0.0982(2) -0.2068(3) -0.26817(13)
H31 H -0.0809 -0.2635 -0.3069
C39 C -0.17798(19) -0.1173(3) -0.27688(13)
H32 H -0.2144 -0.1132 -0.3213
C40 C 0.0399(2) -0.3193(3) -0.19427(15)
H33 H 0.0984 -0.2707 -0.1741
H34 H 0.0538 -0.3604 -0.2402
H35 H 0.0215 -0.3943 -0.1620
C41 C -0.38077(18) 0.1139(3) -0.11964(12)
H36 H -0.3540 0.2063 -0.1201
C42 C -0.43538(18) 0.0759(3) -0.06517(12)
H37 H -0.4464 0.1424 -0.0289
C43 C -0.47641(16) -0.0617(3) -0.06129(11)
C44 C -0.45991(17) -0.1500(3) -0.12114(12)
H38 H -0.4890 -0.2409 -0.1241
C45 C -0.40350(18) -0.1060(3) -0.17363(12)
H39 H -0.3920 -0.1685 -0.2115
O4 O 0.07531(13) 0.4437(2) 0.44861(9)
N4 N 0.21591(13) 0.0780(2) 0.50462(9)
C46 C 0.26847(16) -0.0464(3) 0.53676(10)
H40 H 0.3372 -0.0440 0.5215
C47 C 0.22401(17) -0.1788(3) 0.51093(11)
C48 C 0.18952(18) -0.2876(3) 0.49019(13)
H41 H 0.1620 -0.3743 0.4736
C49 C 0.27337(16) -0.0334(3) 0.61706(10)
C50 C 0.19460(17) -0.0724(3) 0.65619(12)
H42 H 0.1371 -0.1109 0.6329
C51 C 0.20035(19) -0.0549(3) 0.72891(12)
H43 H 0.1460 -0.0809 0.7551
C52 C 0.28413(19) 0.0000(3) 0.76487(12)
C53 C 0.36209(18) 0.0391(3) 0.72516(11)
H44 H 0.4199 0.0770 0.7483
C54 C 0.35625(16) 0.0233(3) 0.65187(11)
H45 H 0.4097 0.0518 0.6254
C55 C 0.2888(2) 0.0174(4) 0.84424(12)
H46 H 0.3079 -0.0722 0.8669
H47 H 0.2244 0.0459 0.8592
H48 H 0.3373 0.0900 0.8583
C56 C 0.11614(16) 0.0821(3) 0.49683(11)
H49 H 0.0796 -0.0001 0.5065
C57 C 0.06823(17) 0.2009(3) 0.47561(12)
H50 H -0.0011 0.1985 0.4683
C58 C 0.11905(17) 0.3307(3) 0.46381(11)
C59 C 0.22441(17) 0.3192(3) 0.47188(11)
H51 H 0.2636 0.3990 0.4627
C60 C 0.26828(16) 0.1965(3) 0.49223(11)
H52 H 0.3377 0.1931 0.4980
loop_
_geom_bond_atom_site_label_1
_geom_bond_atom_site_label_2
_geom_bond_site_symmetry_1
_geom_bond_site_symmetry_2
O1 C13 1_555 1_555
N1 C1 1_555 1_555
C1 H1 1_555 1_555
C2 C1 1_555 1_555
C3 C2 1_555 1_555
H2 C3 1_555 1_555
C4 C1 1_555 1_555
C5 C4 1_555 1_555
H3 C5 1_555 1_555
C6 C5 1_555 1_555
H4 C6 1_555 1_555
C7 C6 1_555 1_555
C8 C7 1_555 1_555
H5 C8 1_555 1_555
C9 C4 1_555 1_555
H6 C9 1_555 1_555
C10 C7 1_555 1_555
H7 C10 1_555 1_555
H8 C10 1_555 1_555
H9 C10 1_555 1_555
C11 N1 1_555 1_555
H10 C11 1_555 1_555
C12 C11 1_555 1_555
H11 C12 1_555 1_555
C13 C12 1_555 1_555
C14 C13 1_555 1_555
H12 C14 1_555 1_555
C15 N1 1_555 1_555
H13 C15 1_555 1_555
O2 C28 1_555 1_555
N2 C16 1_555 1_555
C16 H14 1_555 1_555
C17 C16 1_555 1_555
C18 C17 1_555 1_555
H15 C18 1_555 1_555
C19 C16 1_555 1_555
C20 C19 1_555 1_555
H16 C20 1_555 1_555
C21 C20 1_555 1_555
H17 C21 1_555 1_555
C22 C21 1_555 1_555
C23 C22 1_555 1_555
H18 C23 1_555 1_555
C24 C19 1_555 1_555
H19 C24 1_555 1_555
C25 C22 1_555 1_555
H20 C25 1_555 1_555
H21 C25 1_555 1_555
H22 C25 1_555 1_555
C26 N2 1_555 1_555
H23 C26 1_555 1_555
C27 C26 1_555 1_555
H24 C27 1_555 1_555
C28 C27 1_555 1_555
C29 C28 1_555 1_555
H25 C29 1_555 1_555
C30 N2 1_555 1_555
H26 C30 1_555 1_555
O3 C43 1_555 1_555
N3 C31 1_555 1_555
C31 H27 1_555 1_555
C32 C31 1_555 1_555
C33 C32 1_555 1_555
H28 C33 1_555 1_555
C34 C31 1_555 1_555
C35 C34 1_555 1_555
H29 C35 1_555 1_555
C36 C35 1_555 1_555
H30 C36 1_555 1_555
C37 C36 1_555 1_555
C38 C37 1_555 1_555
H31 C38 1_555 1_555
C39 C34 1_555 1_555
H32 C39 1_555 1_555
C40 C37 1_555 1_555
H33 C40 1_555 1_555
H34 C40 1_555 1_555
H35 C40 1_555 1_555
C41 N3 1_555 1_555
H36 C41 1_555 1_555
C42 C41 1_555 1_555
H37 C42 1_555 1_555
C43 C42 1_555 1_555
C44 C43 1_555 1_555
H38 C44 1_555 1_555
C45 N3 1_555 1_555
H39 C45 1_555 1_555
O4 C58 1_555 1_555
N4 C46 1_555 1_555
C46 H40 1_555 1_555
C47 C46 1_555 1_555
C48 C47 1_555 1_555
H41 C48 1_555 1_555
C49 C46 1_555 1_555
C50 C49 1_555 1_555
H42 C50 1_555 1_555
C51 C50 1_555 1_555
H43 C51 1_555 1_555
C52 C51 1_555 1_555
C53 C52 1_555 1_555
H44 C53 1_555 1_555
C54 C49 1_555 1_555
H45 C54 1_555 1_555
C55 C52 1_555 1_555
H46 C55 1_555 1_555
H47 C55 1_555 1_555
H48 C55 1_555 1_555
C56 N4 1_555 1_555
H49 C56 1_555 1_555
C57 C56 1_555 1_555
H50 C57 1_555 1_555
C58 C57 1_555 1_555
C59 C58 1_555 1_555
H51 C59 1_555 1_555
C60 N4 1_555 1_555
H52 C60 1_555 1_555
C8 C9 1_555 1_555
C14 C15 1_555 1_555
C23 C24 1_555 1_555
C29 C30 1_555 1_555
C38 C39 1_555 1_555
C44 C45 1_555 1_555
C53 C54 1_555 1_555
C59 C60 1_555 1_555

#END
