
#######################################################################
#
#                 Cambridge Crystallographic Data Centre
#                                CCDC 
#
#######################################################################
#
# If this CIF has been generated from an entry in the Cambridge 
# Structural Database, then it will include bibliographic, chemical, 
# crystal, experimental, refinement or atomic coordinate data resulting 
# from the CCDC's data processing and validation procedures.
#
#######################################################################

data_TICMUP
_chemical_formula_moiety         'C22 H17 Cl2 N1 O1 S1'
_chemical_name_systematic        
(3-(2,4-Dichlorophenyl)-3,4-dihydro-2H-1,4-benzothiazin-2-yl)(4-methylphenyl)methanone
_symmetry_cell_setting           triclinic
_symmetry_space_group_name_H-M   'P -1'
_symmetry_Int_Tables_number      2
_space_group_name_Hall           '-P 1'
loop_
_symmetry_equiv_pos_site_id
_symmetry_equiv_pos_as_xyz
1 x,y,z
2 -x,-y,-z
_cell_length_a                   10.1879(10)
_cell_length_b                   10.7179(10)
_cell_length_c                   11.0530(11)
_cell_angle_alpha                95.3630(10)
_cell_angle_beta                 109.8910(10)
_cell_angle_gamma                115.9520(10)
_cell_volume                     977.644
_exptl_crystal_colour            colorless
_exptl_crystal_description       block
_cell_formula_units_Z            2
loop_
_atom_site_label
_atom_site_type_symbol
_atom_site_fract_x
_atom_site_fract_y
_atom_site_fract_z
Cl1 Cl 0.45658(8) 0.37770(7) -0.14149(7)
Cl2 Cl 0.11420(8) -0.07074(8) -0.58763(7)
S1 S 0.71387(6) 0.10675(5) 0.08208(5)
O1 O 0.94864(17) 0.47957(16) 0.18141(15)
N1 N 0.85520(19) 0.2868(2) -0.08610(17)
H1 H 0.8786 0.3136 -0.1505
C1 C 0.9490(2) 0.24038(19) -0.00444(19)
C2 C 1.0961(2) 0.2713(2) -0.0080(2)
H2 H 1.1306 0.3262 -0.0627
C3 C 1.1897(3) 0.2217(3) 0.0681(3)
H3 H 1.2861 0.2420 0.0632
C4 C 1.1428(3) 0.1421(3) 0.1515(3)
H4 H 1.2064 0.1081 0.2023
C5 C 1.0011(3) 0.1134(2) 0.1591(2)
H5 H 0.9707 0.0625 0.2175
C6 C 0.9026(2) 0.15950(19) 0.08049(19)
C7 C 0.6989(2) 0.2648(2) 0.05139(18)
H6 H 0.5901 0.2441 0.0366
C8 C 0.8174(2) 0.3939(2) 0.17503(19)
C9 C 0.7723(2) 0.41498(19) 0.28623(18)
C10 C 0.8761(2) 0.5423(2) 0.3912(2)
H7 H 0.9699 0.6116 0.3886
C11 C 0.8431(3) 0.5682(2) 0.4989(2)
H8 H 0.9142 0.6545 0.5675
C12 C 0.7047(3) 0.4665(2) 0.5058(2)
C13 C 0.6007(3) 0.3414(2) 0.4006(2)
H9 H 0.5066 0.2728 0.4030
C14 C 0.6317(2) 0.3149(2) 0.2919(2)
H10 H 0.5584 0.2298 0.2221
C15 C 0.6725(3) 0.4912(3) 0.6268(2)
H11 H 0.7391 0.4729 0.6997
H12 H 0.5610 0.4267 0.6050
H13 H 0.6970 0.5896 0.6526
C16 C 0.7212(2) 0.2954(2) -0.07575(18)
H14 H 0.7452 0.3954 -0.0704
C17 C 0.5649(2) 0.19937(19) -0.20023(18)
C18 C 0.4398(2) 0.2290(2) -0.2389(2)
C19 C 0.3008(2) 0.1480(2) -0.3567(2)
H15 H 0.2203 0.1725 -0.3818
C20 C 0.2843(2) 0.0307(2) -0.4357(2)
C21 C 0.4022(3) -0.0062(2) -0.3994(2)
H16 H 0.3884 -0.0875 -0.4525
C22 C 0.5410(2) 0.0783(2) -0.2835(2)
H17 H 0.6215 0.0537 -0.2600
loop_
_geom_bond_atom_site_label_1
_geom_bond_atom_site_label_2
_geom_bond_site_symmetry_1
_geom_bond_site_symmetry_2
Cl1 C18 1_555 1_555
Cl2 C20 1_555 1_555
S1 C6 1_555 1_555
O1 C8 1_555 1_555
N1 H1 1_555 1_555
C1 N1 1_555 1_555
C2 C1 1_555 1_555
H2 C2 1_555 1_555
C3 C2 1_555 1_555
H3 C3 1_555 1_555
C4 C3 1_555 1_555
H4 C4 1_555 1_555
C5 C4 1_555 1_555
H5 C5 1_555 1_555
C6 C1 1_555 1_555
C7 S1 1_555 1_555
H6 C7 1_555 1_555
C8 C7 1_555 1_555
C9 C8 1_555 1_555
C10 C9 1_555 1_555
H7 C10 1_555 1_555
C11 C10 1_555 1_555
H8 C11 1_555 1_555
C12 C11 1_555 1_555
C13 C12 1_555 1_555
H9 C13 1_555 1_555
C14 C9 1_555 1_555
H10 C14 1_555 1_555
C15 C12 1_555 1_555
H11 C15 1_555 1_555
H12 C15 1_555 1_555
H13 C15 1_555 1_555
C16 N1 1_555 1_555
H14 C16 1_555 1_555
C17 C16 1_555 1_555
C18 C17 1_555 1_555
C19 C18 1_555 1_555
H15 C19 1_555 1_555
C20 C19 1_555 1_555
C21 C20 1_555 1_555
H16 C21 1_555 1_555
C22 C17 1_555 1_555
H17 C22 1_555 1_555
C5 C6 1_555 1_555
C7 C16 1_555 1_555
C13 C14 1_555 1_555
C21 C22 1_555 1_555

#END
