
#######################################################################
#
#                 Cambridge Crystallographic Data Centre
#                                CCDC 
#
#######################################################################
#
# If this CIF has been generated from an entry in the Cambridge 
# Structural Database, then it will include bibliographic, chemical, 
# crystal, experimental, refinement or atomic coordinate data resulting 
# from the CCDC's data processing and validation procedures.
#
#######################################################################

data_TICNID
_chemical_formula_moiety         'C40 H60 Li2 N4 P2'
_chemical_name_systematic        
bis(\m~2~-((t-Butylimido)di-isopropylphosphoranyl)(8-quinolinyl)methanide)-di-lithium
_symmetry_cell_setting           monoclinic
_symmetry_space_group_name_H-M   'C 2/c'
_symmetry_Int_Tables_number      15
_space_group_name_Hall           '-C 2yn'
loop_
_symmetry_equiv_pos_site_id
_symmetry_equiv_pos_as_xyz
1 x,y,z
2 1/2+x,1/2+y,z
3 -x,y,1/2-z
4 1/2-x,1/2+y,1/2-z
5 -x,-y,-z
6 1/2-x,1/2-y,-z
7 x,-y,1/2+z
8 1/2+x,1/2-y,1/2+z
_cell_length_a                   33.885(6)
_cell_length_b                   12.122(2)
_cell_length_c                   31.117(6)
_cell_angle_alpha                90
_cell_angle_beta                 110.123(2)
_cell_angle_gamma                90
_cell_volume                     12001.2
_exptl_crystal_colour            red
_chemical_melting_point          '138-142 deg.C'
_cell_formula_units_Z            12
_exptl_crystal_recrystallization_method 'diethyl ether'
loop_
_atom_site_label
_atom_site_type_symbol
_atom_site_fract_x
_atom_site_fract_y
_atom_site_fract_z
Li1 Li 0.1324(3) 0.7661(6) 0.0842(2)
Li2 Li 0.1942(3) 0.9285(6) 0.0869(3)
N1 N 0.11084(11) 0.6763(3) 0.02837(11)
N2 N 0.25438(12) 0.8680(3) 0.11520(12)
N3 N 0.17647(11) 1.0821(3) 0.08189(11)
N4 N 0.13487(12) 0.7250(3) 0.15072(12)
P1 P 0.14976(4) 0.68199(9) 0.01130(4)
P2 P 0.14174(4) 1.07657(9) 0.10534(4)
C1 C 0.18884(14) 0.7516(3) 0.05404(14)
H1 H 0.2057(10) 0.799(3) 0.0445(12)
C2 C 0.21490(14) 0.7016(3) 0.09652(14)
C3 C 0.20800(15) 0.5985(3) 0.11255(15)
H2 H 0.1836 0.5602 0.0964
C4 C 0.23618(19) 0.5511(4) 0.15162(17)
H3 H 0.2299 0.4828 0.1613
C5 C 0.27266(19) 0.6019(4) 0.17608(17)
H4 H 0.2921 0.5661 0.2008
C6 C 0.28081(16) 0.7084(4) 0.16390(15)
C7 C 0.25102(14) 0.7607(4) 0.12583(14)
C8 C 0.28844(17) 0.9221(4) 0.13990(18)
H5 H 0.2907 0.9961 0.1331
C9 C 0.32096(18) 0.8751(5) 0.17538(19)
H6 H 0.3451 0.9154 0.1907
C10 C 0.31705(17) 0.7707(5) 0.18718(18)
H7 H 0.3386 0.7386 0.2111
C11 C 0.16846(16) 0.5457(3) -0.00129(15)
H8 H 0.1628 0.4938 0.0200
C12 C 0.21588(17) 0.5397(4) 0.00884(18)
H9 H 0.2244 0.4639 0.0099
H10 H 0.2303 0.5741 0.0378
H11 H 0.2227 0.5773 -0.0148
C13 C 0.14559(18) 0.4989(4) -0.04907(16)
H12 H 0.1510 0.5447 -0.0716
H13 H 0.1159 0.4970 -0.0547
H14 H 0.1555 0.4254 -0.0510
C14 C 0.14094(17) 0.7614(4) -0.04162(16)
H15 H 0.1206 0.7190 -0.0662
C15 C 0.17936(19) 0.7765(5) -0.05587(18)
H16 H 0.1712 0.8124 -0.0851
H17 H 0.1913 0.7057 -0.0579
H18 H 0.1998 0.8209 -0.0335
C16 C 0.1206(2) 0.8694(4) -0.04001(19)
H19 H 0.1401 0.9165 -0.0180
H20 H 0.0963 0.8579 -0.0313
H21 H 0.1122 0.9034 -0.0697
C17 C 0.07078(16) 0.6185(4) 0.01138(16)
C18 C 0.04687(17) 0.6323(5) -0.03994(17)
H22 H 0.0418 0.7093 -0.0470
H23 H 0.0205 0.5940 -0.0481
H24 H 0.0633 0.6025 -0.0569
C19 C 0.07568(18) 0.4953(5) 0.0230(2)
H25 H 0.0901 0.4600 0.0051
H26 H 0.0484 0.4626 0.0162
H27 H 0.0916 0.4862 0.0549
C20 C 0.04328(17) 0.6700(5) 0.03611(18)
H28 H 0.0578 0.6669 0.0686
H29 H 0.0173 0.6299 0.0285
H30 H 0.0375 0.7455 0.0268
C21 C 0.14214(15) 0.9403(4) 0.12436(15)
H31 H 0.1159(7) 0.910(3) 0.1200(14)
C22 C 0.17275(15) 0.8955(3) 0.16507(14)
C23 C 0.20984(16) 0.9471(4) 0.19194(16)
H32 H 0.2172 1.0139 0.1820
C24 C 0.23610(17) 0.9029(5) 0.23261(17)
H33 H 0.2603 0.9411 0.2495
C25 C 0.22738(19) 0.8048(5) 0.24850(17)
H34 H 0.2447 0.7784 0.2768
C26 C 0.19239(17) 0.7436(4) 0.22242(16)
C27 C 0.16610(15) 0.7865(4) 0.17976(15)
C28 C 0.12711(18) 0.6276(4) 0.16514(18)
H35 H 0.1059 0.5849 0.1451
C29 C 0.1486(2) 0.5846(4) 0.2084(2)
H36 H 0.1405 0.5183 0.2179
C30 C 0.1813(2) 0.6418(4) 0.23577(19)
H37 H 0.1969 0.6131 0.2643
C31 C 0.08765(17) 1.1023(4) 0.06695(18)
H38 H 0.0872 1.1778 0.0556
C32 C 0.07613(18) 1.0281(5) 0.02550(19)
H39 H 0.0730 0.9538 0.0344
H40 H 0.0979 1.0308 0.0124
H41 H 0.0501 1.0527 0.0033
C33 C 0.0536(2) 1.0968(6) 0.0886(2)
H42 H 0.0275 1.1226 0.0670
H43 H 0.0614 1.1424 0.1154
H44 H 0.0503 1.0219 0.0969
C34 C 0.1499(2) 1.1784(4) 0.15260(17)
H45 H 0.1805 1.1859 0.1667
C35 C 0.1351(3) 1.1382(5) 0.1905(2)
H46 H 0.1420 1.1920 0.2146
H47 H 0.1487 1.0697 0.2023
H48 H 0.1052 1.1274 0.1787
C36 C 0.1337(2) 1.2959(4) 0.1368(2)
H49 H 0.1037 1.2944 0.1226
H50 H 0.1461 1.3220 0.1152
H51 H 0.1413 1.3444 0.1627
C37 C 0.19327(16) 1.1732(4) 0.06230(17)
C38 C 0.15940(19) 1.2416(5) 0.0274(2)
H52 H 0.1421 1.1941 0.0037
H53 H 0.1724 1.2960 0.0143
H54 H 0.1424 1.2776 0.0423
C39 C 0.2224(2) 1.2482(4) 0.0991(2)
H55 H 0.2060 1.2951 0.1112
H56 H 0.2388 1.2927 0.0859
H57 H 0.2409 1.2039 0.1232
C40 C 0.22019(19) 1.1200(4) 0.03770(19)
H58 H 0.2412 1.0743 0.0587
H59 H 0.2336 1.1765 0.0260
H60 H 0.2028 1.0757 0.0128
Li3 Li -0.0040(3) 0.6827(8) 0.2930(3)
N5 N 0.03430(12) 0.7822(3) 0.33536(12)
N6 N -0.03618(13) 0.5419(3) 0.30015(15)
P3 P 0.07286(4) 0.78116(10) 0.31759(4)
C41 C 0.06056(17) 0.6820(4) 0.27482(16)
H61 H 0.0647(15) 0.699(4) 0.2473(9)
C42 C 0.06132(15) 0.5645(4) 0.28106(17)
C43 C 0.06929(16) 0.5099(5) 0.32237(18)
H62 H 0.0744 0.5520 0.3487
C44 C 0.06998(18) 0.3957(5) 0.3265(2)
H63 H 0.0750 0.3645 0.3552
C45 C 0.06353(19) 0.3283(5) 0.2899(2)
H64 H 0.0656 0.2521 0.2934
C46 C 0.05364(17) 0.3767(5) 0.2466(2)
C47 C -0.05026(16) 0.4917(4) 0.25820(18)
C48 C -0.02745(19) 0.4778(6) 0.33732(19)
H65 H -0.0181 0.5118 0.3659
C49 C -0.0315(2) 0.3640(6) 0.3359(2)
H66 H -0.0258 0.3227 0.3625
C50 C 0.0438(2) 0.3155(5) 0.2053(3)
H67 H 0.0461 0.2391 0.2070
C51 C 0.12464(17) 0.7543(4) 0.36298(18)
H68 H 0.1191 0.7049 0.3852
C52 C 0.15484(18) 0.6936(5) 0.3450(2)
H69 H 0.1665 0.7443 0.3288
H70 H 0.1401 0.6360 0.3246
H71 H 0.1771 0.6620 0.3701
C53 C 0.14729(19) 0.8562(5) 0.3902(2)
H72 H 0.1731 0.8334 0.4133
H73 H 0.1296 0.8909 0.4045
H74 H 0.1533 0.9074 0.3698
C54 C 0.0795(2) 0.9066(5) 0.2880(2)
C55 C 0.1139(2) 0.9045(5) 0.2664(2)
H75 H 0.1116 0.9690 0.2478
H76 H 0.1106 0.8397 0.2477
H77 H 0.1410 0.9033 0.2901
C56 C 0.0392(3) 0.9610(9) 0.2605(4)
H78 H 0.0206 0.9623 0.2778
H79 H 0.0263 0.9206 0.2326
H80 H 0.0447 1.0352 0.2533
C57 C 0.02698(18) 0.8238(5) 0.37643(18)
C58 C 0.0507(2) 0.7576(6) 0.41869(18)
H81 H 0.0447 0.6806 0.4127
H82 H 0.0422 0.7805 0.4437
H83 H 0.0804 0.7698 0.4264
C59 C -0.02036(19) 0.8085(5) 0.36618(19)
H84 H -0.0358 0.8477 0.3387
H85 H -0.0277 0.8367 0.3912
H86 H -0.0272 0.7314 0.3622
C60 C 0.0355(2) 0.9493(5) 0.3829(2)
H87 H 0.0651 0.9629 0.3906
H88 H 0.0265 0.9757 0.4071
H89 H 0.0203 0.9871 0.3550
Li3B Li 0.0040(3) 0.6827(8) 0.2070(3)
N5B N -0.03430(12) 0.7822(3) 0.16464(12)
N6B N 0.03618(13) 0.5419(3) 0.19985(15)
P3B P -0.07286(4) 0.78116(10) 0.18241(4)
C41B C -0.06056(17) 0.6820(4) 0.22518(16)
H61B H -0.0647(15) 0.699(4) 0.2527(9)
C42B C -0.06132(15) 0.5645(4) 0.21894(17)
C43B C -0.06929(16) 0.5099(5) 0.17763(18)
H62B H -0.0744 0.5520 0.1513
C44B C -0.06998(18) 0.3957(5) 0.1735(2)
H63B H -0.0750 0.3645 0.1448
C45B C -0.06353(19) 0.3283(5) 0.2101(2)
H64B H -0.0656 0.2521 0.2066
C46B C -0.05364(17) 0.3767(5) 0.2534(2)
C47B C 0.05026(16) 0.4917(4) 0.24180(18)
C48B C 0.02745(19) 0.4778(6) 0.16268(19)
H65B H 0.0181 0.5118 0.1341
C49B C 0.0315(2) 0.3640(6) 0.1641(2)
H66B H 0.0258 0.3227 0.1375
C50B C -0.0438(2) 0.3155(5) 0.2947(3)
H67B H -0.0461 0.2391 0.2930
C51B C -0.12464(17) 0.7543(4) 0.13702(18)
H68B H -0.1191 0.7049 0.1148
C52B C -0.15484(18) 0.6936(5) 0.1550(2)
H69B H -0.1665 0.7443 0.1712
H70B H -0.1401 0.6360 0.1754
H71B H -0.1771 0.6620 0.1299
C53B C -0.14729(19) 0.8562(5) 0.1098(2)
H72B H -0.1731 0.8334 0.0867
H73B H -0.1296 0.8909 0.0955
H74B H -0.1533 0.9074 0.1302
C54B C -0.0795(2) 0.9066(5) 0.2120(2)
C55B C -0.1139(2) 0.9045(5) 0.2336(2)
H75B H -0.1116 0.9690 0.2522
H76B H -0.1106 0.8397 0.2523
H77B H -0.1410 0.9033 0.2099
C56B C -0.0392(3) 0.9610(9) 0.2395(4)
H78B H -0.0206 0.9623 0.2222
H79B H -0.0263 0.9206 0.2674
H80B H -0.0447 1.0352 0.2467
C57B C -0.02698(18) 0.8238(5) 0.12357(18)
C58B C -0.0507(2) 0.7576(6) 0.08131(18)
H81B H -0.0447 0.6806 0.0873
H82B H -0.0422 0.7805 0.0563
H83B H -0.0804 0.7698 0.0736
C59B C 0.02036(19) 0.8085(5) 0.13382(19)
H84B H 0.0358 0.8477 0.1613
H85B H 0.0277 0.8367 0.1088
H86B H 0.0272 0.7314 0.1378
C60B C -0.0355(2) 0.9493(5) 0.1171(2)
H87B H -0.0651 0.9629 0.1094
H88B H -0.0265 0.9757 0.0929
H89B H -0.0203 0.9871 0.1450
H90? H 0.0549 0.9031 0.2610
H91? H 0.0907 0.9578 0.3128
C61? C 0.0740(5) 1.0156(7) 0.3044(5)
H92? H 0.0749 1.0700 0.2823
H93? H 0.0961 1.0298 0.3329
H94? H 0.0474 1.0192 0.3088
loop_
_geom_bond_atom_site_label_1
_geom_bond_atom_site_label_2
_geom_bond_site_symmetry_1
_geom_bond_site_symmetry_2
Li1 N1 1_555 1_555
Li2 N2 1_555 1_555
N1 P1 1_555 1_555
N2 C7 1_555 1_555
N3 Li2 1_555 1_555
N4 Li1 1_555 1_555
P1 C1 1_555 1_555
P2 N3 1_555 1_555
C1 Li1 1_555 1_555
H1 C1 1_555 1_555
C2 C1 1_555 1_555
C3 C2 1_555 1_555
H2 C3 1_555 1_555
C4 C3 1_555 1_555
H3 C4 1_555 1_555
C5 C4 1_555 1_555
H4 C5 1_555 1_555
C6 C5 1_555 1_555
C7 C2 1_555 1_555
C8 N2 1_555 1_555
H5 C8 1_555 1_555
C9 C8 1_555 1_555
H6 C9 1_555 1_555
C10 C6 1_555 1_555
H7 C10 1_555 1_555
C11 P1 1_555 1_555
H8 C11 1_555 1_555
C12 C11 1_555 1_555
H9 C12 1_555 1_555
H10 C12 1_555 1_555
H11 C12 1_555 1_555
C13 C11 1_555 1_555
H12 C13 1_555 1_555
H13 C13 1_555 1_555
H14 C13 1_555 1_555
C14 P1 1_555 1_555
H15 C14 1_555 1_555
C15 C14 1_555 1_555
H16 C15 1_555 1_555
H17 C15 1_555 1_555
H18 C15 1_555 1_555
C16 C14 1_555 1_555
H19 C16 1_555 1_555
H20 C16 1_555 1_555
H21 C16 1_555 1_555
C17 N1 1_555 1_555
C18 C17 1_555 1_555
H22 C18 1_555 1_555
H23 C18 1_555 1_555
H24 C18 1_555 1_555
C19 C17 1_555 1_555
H25 C19 1_555 1_555
H26 C19 1_555 1_555
H27 C19 1_555 1_555
C20 C17 1_555 1_555
H28 C20 1_555 1_555
H29 C20 1_555 1_555
H30 C20 1_555 1_555
C21 Li1 1_555 1_555
H31 C21 1_555 1_555
C22 C21 1_555 1_555
C23 C22 1_555 1_555
H32 C23 1_555 1_555
C24 C23 1_555 1_555
H33 C24 1_555 1_555
C25 C24 1_555 1_555
H34 C25 1_555 1_555
C26 C25 1_555 1_555
C27 N4 1_555 1_555
C28 N4 1_555 1_555
H35 C28 1_555 1_555
C29 C28 1_555 1_555
H36 C29 1_555 1_555
C30 C26 1_555 1_555
H37 C30 1_555 1_555
C31 P2 1_555 1_555
H38 C31 1_555 1_555
C32 C31 1_555 1_555
H39 C32 1_555 1_555
H40 C32 1_555 1_555
H41 C32 1_555 1_555
C33 C31 1_555 1_555
H42 C33 1_555 1_555
H43 C33 1_555 1_555
H44 C33 1_555 1_555
C34 P2 1_555 1_555
H45 C34 1_555 1_555
C35 C34 1_555 1_555
H46 C35 1_555 1_555
H47 C35 1_555 1_555
H48 C35 1_555 1_555
C36 C34 1_555 1_555
H49 C36 1_555 1_555
H50 C36 1_555 1_555
H51 C36 1_555 1_555
C37 N3 1_555 1_555
C38 C37 1_555 1_555
H52 C38 1_555 1_555
H53 C38 1_555 1_555
H54 C38 1_555 1_555
C39 C37 1_555 1_555
H55 C39 1_555 1_555
H56 C39 1_555 1_555
H57 C39 1_555 1_555
C40 C37 1_555 1_555
H58 C40 1_555 1_555
H59 C40 1_555 1_555
H60 C40 1_555 1_555
Li3 N5 1_555 1_555
N5 P3 1_555 1_555
N6 Li3 1_555 1_555
P3 C41 1_555 1_555
C41 Li3 1_555 1_555
H61 C41 1_555 1_555
C42 C41 1_555 1_555
C43 C42 1_555 1_555
H62 C43 1_555 1_555
C44 C43 1_555 1_555
H63 C44 1_555 1_555
C45 C44 1_555 1_555
H64 C45 1_555 1_555
C46 C45 1_555 1_555
C47 N6 1_555 1_555
C48 N6 1_555 1_555
H65 C48 1_555 1_555
C49 C48 1_555 1_555
H66 C49 1_555 1_555
C50 C46 1_555 1_555
H67 C50 1_555 1_555
C51 P3 1_555 1_555
H68 C51 1_555 1_555
C52 C51 1_555 1_555
H69 C52 1_555 1_555
H70 C52 1_555 1_555
H71 C52 1_555 1_555
C53 C51 1_555 1_555
H72 C53 1_555 1_555
H73 C53 1_555 1_555
H74 C53 1_555 1_555
C54 P3 1_555 1_555
C55 C54 1_555 1_555
H75 C55 1_555 1_555
H76 C55 1_555 1_555
H77 C55 1_555 1_555
C56 C54 1_555 1_555
H78 C56 1_555 1_555
H79 C56 1_555 1_555
H80 C56 1_555 1_555
C57 N5 1_555 1_555
C58 C57 1_555 1_555
H81 C58 1_555 1_555
H82 C58 1_555 1_555
H83 C58 1_555 1_555
C59 C57 1_555 1_555
H84 C59 1_555 1_555
H85 C59 1_555 1_555
H86 C59 1_555 1_555
C60 C57 1_555 1_555
H87 C60 1_555 1_555
H88 C60 1_555 1_555
H89 C60 1_555 1_555
Li3B C41 1_555 1_555
N5B Li3B 1_555 1_555
N6B Li3B 1_555 1_555
P3B N5B 1_555 1_555
C41B Li3 1_555 1_555
H61B C41B 1_555 1_555
C42B C47 1_555 1_555
C43B C42B 1_555 1_555
H62B C43B 1_555 1_555
C44B C43B 1_555 1_555
H63B C44B 1_555 1_555
C45B C44B 1_555 1_555
H64B C45B 1_555 1_555
C46B C47 1_555 1_555
C47B C42 1_555 1_555
C48B N6B 1_555 1_555
H65B C48B 1_555 1_555
C49B C50 1_555 1_555
H66B C49B 1_555 1_555
C50B C49 1_555 1_555
H67B C50B 1_555 1_555
C51B P3B 1_555 1_555
H68B C51B 1_555 1_555
C52B C51B 1_555 1_555
H69B C52B 1_555 1_555
H70B C52B 1_555 1_555
H71B C52B 1_555 1_555
C53B C51B 1_555 1_555
H72B C53B 1_555 1_555
H73B C53B 1_555 1_555
H74B C53B 1_555 1_555
C54B P3B 1_555 1_555
C55B C54B 1_555 1_555
H75B C55B 1_555 1_555
H76B C55B 1_555 1_555
H77B C55B 1_555 1_555
C56B C54B 1_555 1_555
H78B C56B 1_555 1_555
H79B C56B 1_555 1_555
H80B C56B 1_555 1_555
C57B N5B 1_555 1_555
C58B C57B 1_555 1_555
H81B C58B 1_555 1_555
H82B C58B 1_555 1_555
H83B C58B 1_555 1_555
C59B C57B 1_555 1_555
H84B C59B 1_555 1_555
H85B C59B 1_555 1_555
H86B C59B 1_555 1_555
C60B C57B 1_555 1_555
H87B C60B 1_555 1_555
H88B C60B 1_555 1_555
H89B C60B 1_555 1_555
Li2 C1 1_555 1_555
Li2 C21 1_555 1_555
P2 C21 1_555 1_555
C6 C7 1_555 1_555
C9 C10 1_555 1_555
C22 C27 1_555 1_555
C26 C27 1_555 1_555
C29 C30 1_555 1_555
C46 C47B 1_555 1_555
Li3B C41B 1_555 1_555
N6B C47B 1_555 1_555
P3B C41B 1_555 1_555
C41B C42B 1_555 1_555
C45B C46B 1_555 1_555
C46B C50B 1_555 1_555
C48B C49B 1_555 1_555

#END
