
#######################################################################
#
#                 Cambridge Crystallographic Data Centre
#                                CCDC 
#
#######################################################################
#
# If this CIF has been generated from an entry in the Cambridge 
# Structural Database, then it will include bibliographic, chemical, 
# crystal, experimental, refinement or atomic coordinate data resulting 
# from the CCDC's data processing and validation procedures.
#
#######################################################################

data_TICRUU
_chemical_name_common            "bis(sulfadiazine) tris(4,4'-bipyridine)"
_chemical_formula_moiety         '2(C10 H10 N4 O2 S1),3(C10 H8 N2)'
_chemical_name_systematic        
"bis(4-Amino-N-(pyrimidin-2-yl)benzenesulfonamide) tris(4,4'-bipyridine)"
_chemical_properties_biological  'Sulfadiazine is a sulfonamide antibiotic'
_symmetry_cell_setting           triclinic
_symmetry_space_group_name_H-M   'P -1'
_symmetry_Int_Tables_number      2
_space_group_name_Hall           '-P 1'
loop_
_symmetry_equiv_pos_site_id
_symmetry_equiv_pos_as_xyz
1 x,y,z
2 -x,-y,-z
_cell_length_a                   10.7093(13)
_cell_length_b                   14.1126(17)
_cell_length_c                   15.9739(19)
_cell_angle_alpha                90.1960(10)
_cell_angle_beta                 105.5040(10)
_cell_angle_gamma                91.4720(10)
_cell_volume                     2325.48
_exptl_crystal_colour            colorless
_exptl_crystal_description       parallelepiped
_cell_formula_units_Z            2
loop_
_atom_site_label
_atom_site_type_symbol
_atom_site_fract_x
_atom_site_fract_y
_atom_site_fract_z
S1 S 0.60808(3) 0.77720(2) 0.33616(2)
O1 O 0.51550(9) 0.82016(7) 0.37437(6)
O2 O 0.56540(9) 0.69866(7) 0.27703(6)
N1 N 0.81931(12) 1.08573(9) 0.16261(8)
H1 H 0.7984(17) 1.0866(13) 0.1064(13)
H2 H 0.8329(17) 1.1418(14) 0.1892(12)
N2 N 0.71922(11) 0.74434(8) 0.42206(7)
H3 H 0.7284(19) 0.7844(14) 0.4691(13)
N3 N 0.91780(11) 0.69988(9) 0.50223(7)
N4 N 0.84190(11) 0.65077(8) 0.35295(7)
C1 C 0.76917(12) 1.01466(9) 0.20185(8)
C2 C 0.76613(12) 1.02359(9) 0.28959(8)
H4 H 0.7958 1.0796 0.3201
C3 C 0.71961(12) 0.95014(9) 0.33008(8)
H5 H 0.7176 0.9567 0.3876
C4 C 0.67534(12) 0.86548(9) 0.28467(8)
C5 C 0.67696(12) 0.85532(9) 0.19806(8)
H6 H 0.6471 0.7991 0.1679
C6 C 0.72315(13) 0.92925(9) 0.15736(8)
H7 H 0.7238 0.9225 0.0996
C7 C 0.83174(13) 0.69593(9) 0.42422(8)
C8 C 1.02682(15) 0.65429(12) 0.50750(10)
H8 H 1.0905 0.6556 0.5601
C9 C 1.04988(15) 0.60522(12) 0.43859(10)
H9 H 1.1271 0.5742 0.4435
C10 C 0.95233(14) 0.60453(10) 0.36190(9)
H10 H 0.9638 0.5706 0.3146
S2 S -0.02667(3) 0.31670(2) 0.15706(2)
O3 O 0.02833(9) 0.24584(7) 0.11355(6)
O4 O -0.10019(9) 0.28457(7) 0.21557(6)
N5 N 0.39982(12) 0.56477(9) 0.35687(9)
H11 H 0.4452(18) 0.5986(14) 0.3293(13)
H12 H 0.409(2) 0.5722(15) 0.4110(15)
N6 N -0.11775(11) 0.37489(8) 0.07658(7)
H13 H -0.115(2) 0.3539(15) 0.0256(14)
N7 N -0.26885(11) 0.47842(8) 0.00398(7)
N8 N -0.19917(11) 0.48231(8) 0.15996(7)
C11 C 0.30244(13) 0.50724(9) 0.31011(9)
C12 C 0.27365(13) 0.50135(9) 0.21871(9)
H14 H 0.3246 0.5354 0.1898
C13 C 0.17130(13) 0.44590(9) 0.17196(9)
H15 H 0.1529 0.4430 0.1117
C14 C 0.09493(12) 0.39387(9) 0.21479(8)
C15 C 0.12385(12) 0.39661(9) 0.30548(8)
H16 H 0.0735 0.3614 0.3341
C16 C 0.22706(13) 0.45158(9) 0.35216(8)
H17 H 0.2474 0.4520 0.4125
C17 C -0.19869(12) 0.44873(9) 0.08174(8)
C18 C -0.34852(14) 0.54876(10) 0.00671(9)
H18 H -0.3988 0.5721 -0.0455
C19 C -0.35987(14) 0.58864(10) 0.08358(9)
H19 H -0.4172 0.6369 0.0842
C20 C -0.28150(14) 0.55282(10) 0.15927(9)
H20 H -0.2858 0.5786 0.2121
N9 N -0.10600(12) 0.31190(8) -0.08667(7)
N10 N -0.14824(13) 0.10133(10) -0.49848(8)
C21 C 0.00088(14) 0.29999(10) -0.11341(9)
H21 H 0.0805 0.3181 -0.0760
C22 C -0.00097(13) 0.26201(10) -0.19397(9)
H22 H 0.0758 0.2550 -0.2098
C23 C -0.11957(13) 0.23450(9) -0.25083(8)
C24 C -0.23111(13) 0.24721(9) -0.22324(9)
H23 H -0.3123 0.2302 -0.2593
C25 C -0.21941(13) 0.28550(10) -0.14153(9)
H24 H -0.2945 0.2933 -0.1238
C26 C -0.23942(14) 0.15853(11) -0.48600(9)
H25 H -0.3108 0.1687 -0.5328
C27 C -0.23458(13) 0.20361(10) -0.40809(9)
H26 H -0.3013 0.2424 -0.4033
C28 C -0.12850(13) 0.19008(9) -0.33699(8)
C29 C -0.03224(13) 0.13152(10) -0.34911(9)
H27 H 0.0409 0.1209 -0.3037
C30 C -0.04656(15) 0.08909(11) -0.42982(10)
H28 H 0.0185 0.0497 -0.4366
N11 N 0.73573(12) 0.86645(8) 0.56373(7)
N12 N 0.75136(12) 1.08133(9) 0.96867(7)
C31 C 0.64019(14) 0.92256(10) 0.57148(9)
H29 H 0.5706 0.9307 0.5230
C32 C 0.63960(14) 0.96924(10) 0.64805(9)
H30 H 0.5718 1.0083 0.6502
C33 C 0.74235(13) 0.95669(9) 0.72173(8)
C34 C 0.84243(13) 0.89930(9) 0.71358(9)
H31 H 0.9132 0.8898 0.7610
C35 C 0.83569(14) 0.85632(10) 0.63408(9)
H32 H 0.9037 0.8188 0.6295
C36 C 0.86025(14) 1.06820(10) 0.94424(9)
H33 H 0.9388 1.0871 0.9825
C37 C 0.86240(13) 1.02825(10) 0.86545(9)
H34 H 0.9406 1.0195 0.8520
C38 C 0.74490(13) 1.00118(9) 0.80634(8)
C39 C 0.63131(13) 1.01613(10) 0.83059(9)
H35 H 0.5510 1.0002 0.7929
C40 C 0.63947(14) 1.05522(10) 0.91188(9)
H36 H 0.5629 1.0637 0.9277
N13 N 0.58263(14) 0.80165(9) 0.97537(8)
N14 N 0.40667(12) 0.60659(9) 0.54698(8)
C41 C 0.46145(16) 0.77349(11) 0.93620(10)
H37 H 0.3991 0.7804 0.9664
C42 C 0.42207(14) 0.73436(10) 0.85296(9)
H38 H 0.3361 0.7151 0.8291
C43 C 0.51297(13) 0.72444(9) 0.80586(8)
C44 C 0.64052(13) 0.75380(9) 0.84600(9)
H39 H 0.7049 0.7484 0.8172
C45 C 0.66958(15) 0.79118(10) 0.92985(10)
H40 H 0.7550 0.8101 0.9559
C46 C 0.50070(14) 0.67330(11) 0.57194(9)
H41 H 0.5429 0.6944 0.5313
C47 C 0.53880(13) 0.71276(10) 0.65479(9)
H42 H 0.6060 0.7579 0.6690
C48 C 0.47559(12) 0.68418(9) 0.71634(8)
C49 C 0.37589(14) 0.61598(10) 0.69053(9)
H43 H 0.3293 0.5956 0.7289
C50 C 0.34731(15) 0.57896(11) 0.60685(9)
H44 H 0.2827 0.5319 0.5914
loop_
_geom_bond_atom_site_label_1
_geom_bond_atom_site_label_2
_geom_bond_site_symmetry_1
_geom_bond_site_symmetry_2
S1 O1 1_555 1_555
O2 S1 1_555 1_555
N1 H1 1_555 1_555
H2 N1 1_555 1_555
N2 S1 1_555 1_555
H3 N2 1_555 1_555
N3 C7 1_555 1_555
N4 C7 1_555 1_555
C1 N1 1_555 1_555
C2 C1 1_555 1_555
H4 C2 1_555 1_555
C3 C2 1_555 1_555
H5 C3 1_555 1_555
C4 S1 1_555 1_555
C5 C4 1_555 1_555
H6 C5 1_555 1_555
C6 C1 1_555 1_555
H7 C6 1_555 1_555
C7 N2 1_555 1_555
C8 N3 1_555 1_555
H8 C8 1_555 1_555
C9 C8 1_555 1_555
H9 C9 1_555 1_555
C10 N4 1_555 1_555
H10 C10 1_555 1_555
S2 O3 1_555 1_555
O4 S2 1_555 1_555
N5 H11 1_555 1_555
H12 N5 1_555 1_555
N6 S2 1_555 1_555
H13 N6 1_555 1_555
N7 C17 1_555 1_555
N8 C17 1_555 1_555
C11 N5 1_555 1_555
C12 C11 1_555 1_555
H14 C12 1_555 1_555
C13 C12 1_555 1_555
H15 C13 1_555 1_555
C14 S2 1_555 1_555
C15 C14 1_555 1_555
H16 C15 1_555 1_555
C16 C11 1_555 1_555
H17 C16 1_555 1_555
C17 N6 1_555 1_555
C18 N7 1_555 1_555
H18 C18 1_555 1_555
C19 C18 1_555 1_555
H19 C19 1_555 1_555
C20 N8 1_555 1_555
H20 C20 1_555 1_555
N9 C21 1_555 1_555
N10 C26 1_555 1_555
C21 H21 1_555 1_555
C22 C21 1_555 1_555
H22 C22 1_555 1_555
C23 C22 1_555 1_555
C24 C23 1_555 1_555
H23 C24 1_555 1_555
C25 N9 1_555 1_555
H24 C25 1_555 1_555
C26 H25 1_555 1_555
C27 C26 1_555 1_555
H26 C27 1_555 1_555
C28 C23 1_555 1_555
C29 C28 1_555 1_555
H27 C29 1_555 1_555
C30 N10 1_555 1_555
H28 C30 1_555 1_555
N11 C31 1_555 1_555
N12 C36 1_555 1_555
C31 H29 1_555 1_555
C32 C31 1_555 1_555
H30 C32 1_555 1_555
C33 C32 1_555 1_555
C34 C33 1_555 1_555
H31 C34 1_555 1_555
C35 N11 1_555 1_555
H32 C35 1_555 1_555
C36 H33 1_555 1_555
C37 C36 1_555 1_555
H34 C37 1_555 1_555
C38 C33 1_555 1_555
C39 C38 1_555 1_555
H35 C39 1_555 1_555
C40 N12 1_555 1_555
H36 C40 1_555 1_555
N13 C41 1_555 1_555
N14 C46 1_555 1_555
C41 H37 1_555 1_555
C42 C41 1_555 1_555
H38 C42 1_555 1_555
C43 C42 1_555 1_555
C44 C43 1_555 1_555
H39 C44 1_555 1_555
C45 N13 1_555 1_555
H40 C45 1_555 1_555
C46 H41 1_555 1_555
C47 C46 1_555 1_555
H42 C47 1_555 1_555
C48 C43 1_555 1_555
C49 C48 1_555 1_555
H43 C49 1_555 1_555
C50 N14 1_555 1_555
H44 C50 1_555 1_555
C3 C4 1_555 1_555
C5 C6 1_555 1_555
C9 C10 1_555 1_555
C13 C14 1_555 1_555
C15 C16 1_555 1_555
C19 C20 1_555 1_555
C24 C25 1_555 1_555
C27 C28 1_555 1_555
C29 C30 1_555 1_555
C34 C35 1_555 1_555
C37 C38 1_555 1_555
C39 C40 1_555 1_555
C44 C45 1_555 1_555
C47 C48 1_555 1_555
C49 C50 1_555 1_555

#END
