
#######################################################################
#
#                 Cambridge Crystallographic Data Centre
#                                CCDC 
#
#######################################################################
#
# If this CIF has been generated from an entry in the Cambridge 
# Structural Database, then it will include bibliographic, chemical, 
# crystal, experimental, refinement or atomic coordinate data resulting 
# from the CCDC's data processing and validation procedures.
#
#######################################################################

data_TICSAB
_chemical_name_common            '4-(pyridinium-4-yl)piperazine sulfadiazinide'
_chemical_formula_moiety         'C10 H9 N4 O2 S1 1-,C9 H14 N3 1+'
_chemical_name_systematic        
'4-(piperazin-1-yl)pyridinium ((4-aminophenyl)sulfonyl)(pyrimidin-2-yl)amide'
_chemical_properties_biological  'Sulfadiazine is a sulfonamide antibiotic'
_symmetry_cell_setting           monoclinic
_symmetry_space_group_name_H-M   'P 21/n'
_symmetry_Int_Tables_number      14
_space_group_name_Hall           '-P 2yn'
loop_
_symmetry_equiv_pos_site_id
_symmetry_equiv_pos_as_xyz
1 x,y,z
2 1/2-x,1/2+y,1/2-z
3 -x,-y,-z
4 1/2+x,1/2-y,1/2+z
_cell_length_a                   9.3362(13)
_cell_length_b                   15.684(2)
_cell_length_c                   13.6864(18)
_cell_angle_alpha                90
_cell_angle_beta                 105.497(4)
_cell_angle_gamma                90
_cell_volume                     1931.23
_exptl_crystal_colour            colorless
_exptl_crystal_description       rod
_cell_formula_units_Z            4
loop_
_atom_site_label
_atom_site_type_symbol
_atom_site_fract_x
_atom_site_fract_y
_atom_site_fract_z
S1 S -0.19488(3) 0.175075(19) 0.20693(2)
O1 O -0.28571(10) 0.23944(6) 0.14292(7)
O2 O -0.15443(11) 0.19347(6) 0.31507(7)
N1 N -0.52887(13) -0.15016(8) 0.12696(10)
H1 H -0.479(2) -0.1961(13) 0.1401(14)
H2 H -0.601(2) -0.1510(12) 0.0730(15)
N2 N -0.04076(12) 0.15810(7) 0.18185(8)
N3 N 0.11031(12) 0.13358(7) 0.07844(9)
N4 N -0.15332(12) 0.11923(7) 0.01029(8)
C1 C -0.45505(14) -0.07388(8) 0.15090(10)
C2 C -0.31235(14) -0.07071(8) 0.21825(10)
H3 H -0.2698 -0.1201 0.2511
C3 C -0.23449(14) 0.00534(8) 0.23623(10)
H4 H -0.1392 0.0066 0.2799
C4 C -0.29874(14) 0.08022(8) 0.18903(9)
C5 C -0.44352(14) 0.07886(8) 0.12690(9)
H5 H -0.4879 0.1291 0.0975
C6 C -0.52160(14) 0.00291(8) 0.10871(10)
H6 H -0.6190 0.0026 0.0682
C7 C -0.03121(14) 0.13628(8) 0.08662(9)
C8 C 0.12771(15) 0.11442(9) -0.01224(11)
H7 H 0.2235 0.1139 -0.0204
C9 C 0.01046(16) 0.09517(9) -0.09520(10)
H8 H 0.0245 0.0812 -0.1580
C10 C -0.12821(15) 0.09814(9) -0.07840(10)
H9 H -0.2097 0.0846 -0.1321
N5 N 0.22214(13) 0.14250(7) 0.33485(9)
H10 H 0.137(2) 0.1481(13) 0.2910(16)
N6 N 0.64303(12) 0.12039(8) 0.53377(9)
N7 N 0.94289(14) 0.14207(8) 0.65245(10)
H11 H 1.025(2) 0.1703(12) 0.6702(15)
C11 C 0.24699(15) 0.16796(8) 0.43181(10)
H12 H 0.1693 0.1920 0.4529
C12 C 0.38297(15) 0.15959(8) 0.50031(10)
H13 H 0.3956 0.1768 0.5671
C13 C 0.50545(14) 0.12469(8) 0.47013(10)
C14 C 0.47239(15) 0.09552(9) 0.36794(10)
H14 H 0.5460 0.0691 0.3445
C15 C 0.33393(15) 0.10594(9) 0.30416(10)
H15 H 0.3157 0.0873 0.2374
C16 C 0.67718(16) 0.14546(10) 0.64113(10)
H16 H 0.6832 0.0950 0.6829
H17 H 0.5980 0.1813 0.6518
C17 C 0.82345(16) 0.19359(9) 0.67239(11)
H18 H 0.8148 0.2466 0.6348
H19 H 0.8467 0.2072 0.7440
C18 C 0.90964(15) 0.12649(11) 0.54374(11)
H20 H 0.9907 0.0950 0.5287
H21 H 0.8995 0.1804 0.5078
C19 C 0.76693(15) 0.07597(10) 0.50858(11)
H22 H 0.7438 0.0676 0.4358
H23 H 0.7801 0.0203 0.5407
loop_
_geom_bond_atom_site_label_1
_geom_bond_atom_site_label_2
_geom_bond_site_symmetry_1
_geom_bond_site_symmetry_2
S1 O1 1_555 1_555
O2 S1 1_555 1_555
N1 H1 1_555 1_555
H2 N1 1_555 1_555
N2 S1 1_555 1_555
N3 C7 1_555 1_555
N4 C7 1_555 1_555
C1 N1 1_555 1_555
C2 C1 1_555 1_555
H3 C2 1_555 1_555
C3 C2 1_555 1_555
H4 C3 1_555 1_555
C4 S1 1_555 1_555
C5 C4 1_555 1_555
H5 C5 1_555 1_555
C6 C1 1_555 1_555
H6 C6 1_555 1_555
C7 N2 1_555 1_555
C8 N3 1_555 1_555
H7 C8 1_555 1_555
C9 C8 1_555 1_555
H8 C9 1_555 1_555
C10 N4 1_555 1_555
H9 C10 1_555 1_555
N5 H10 1_555 1_555
N6 C13 1_555 1_555
N7 H11 1_555 1_555
C11 N5 1_555 1_555
H12 C11 1_555 1_555
C12 C11 1_555 1_555
H13 C12 1_555 1_555
C13 C12 1_555 1_555
C14 C13 1_555 1_555
H14 C14 1_555 1_555
C15 N5 1_555 1_555
H15 C15 1_555 1_555
C16 N6 1_555 1_555
H16 C16 1_555 1_555
H17 C16 1_555 1_555
C17 N7 1_555 1_555
H18 C17 1_555 1_555
H19 C17 1_555 1_555
C18 N7 1_555 1_555
H20 C18 1_555 1_555
H21 C18 1_555 1_555
C19 N6 1_555 1_555
H22 C19 1_555 1_555
H23 C19 1_555 1_555
C3 C4 1_555 1_555
C5 C6 1_555 1_555
C9 C10 1_555 1_555
C14 C15 1_555 1_555
C16 C17 1_555 1_555
C18 C19 1_555 1_555

#END
