
#######################################################################
#
#                 Cambridge Crystallographic Data Centre
#                                CCDC 
#
#######################################################################
#
# If this CIF has been generated from an entry in the Cambridge 
# Structural Database, then it will include bibliographic, chemical, 
# crystal, experimental, refinement or atomic coordinate data resulting 
# from the CCDC's data processing and validation procedures.
#
#######################################################################

data_TICXUY
_chemical_formula_moiety         'C6 H12 O5'
_chemical_name_systematic        'Methyl \a-D-lyxopyranoside'
_symmetry_cell_setting           orthorhombic
_symmetry_space_group_name_H-M   'P 21 21 21'
_symmetry_Int_Tables_number      19
_space_group_name_Hall           'P 2ac 2ab'
loop_
_symmetry_equiv_pos_site_id
_symmetry_equiv_pos_as_xyz
1 x,y,z
2 1/2-x,-y,1/2+z
3 1/2+x,1/2-y,-z
4 -x,1/2+y,1/2-z
_cell_length_a                   5.806(1)
_cell_length_b                   7.714(2)
_cell_length_c                   17.081(3)
_cell_angle_alpha                90
_cell_angle_beta                 90
_cell_angle_gamma                90
_cell_volume                     765.015
_exptl_crystal_colour            colorless
_chemical_melting_point          376K
_cell_formula_units_Z            4
loop_
_atom_site_label
_atom_site_type_symbol
_atom_site_fract_x
_atom_site_fract_y
_atom_site_fract_z
O1 O 0.1598(3) 0.6195(2) 0.21944(9)
O2 O 0.5273(3) 0.3655(2) 0.23980(9)
O3 O 0.2836(3) 0.1363(2) 0.34049(9)
O4 O 0.0064(3) 0.4114(2) 0.40628(8)
O5 O 0.3464(3) 0.5074(2) 0.46638(9)
C1 C 0.1539(3) 0.4858(2) 0.27680(11)
C2 C 0.3939(3) 0.4331(3) 0.30305(11)
C3 C 0.0163(4) 0.5445(3) 0.34791(12)
C4 C 0.2291(4) 0.3661(3) 0.43439(12)
C5 C 0.3775(4) 0.2969(2) 0.36760(11)
C6 C 0.2401(7) 0.5725(4) 0.5364(2)
H1 H 0.0750(42) 0.3871(29) 0.2541(12)
H2 H 0.2026(55) 0.2729(40) 0.4712(15)
H3 H 0.4707(47) 0.5329(32) 0.3229(15)
H4 H -0.1400(48) 0.5696(34) 0.3331(14)
H5 H 0.5339(50) 0.2756(31) 0.3892(16)
H6 H 0.0791(43) 0.6474(31) 0.3670(13)
H7 H 0.2580(66) 0.6935(44) 0.2322(19)
H8 H 0.1443(71) 0.1512(44) 0.3331(20)
H9 H 0.5755(65) 0.4550(50) 0.2148(22)
H10 H 0.3208(65) 0.6750(49) 0.5499(20)
H11 H 0.0661(88) 0.5786(56) 0.5304(24)
H12 H 0.2377(92) 0.4801(57) 0.5778(23)
loop_
_geom_bond_atom_site_label_1
_geom_bond_atom_site_label_2
_geom_bond_site_symmetry_1
_geom_bond_site_symmetry_2
O1 C1 1_555 1_555
O2 C2 1_555 1_555
O3 C5 1_555 1_555
O4 C3 1_555 1_555
O5 C4 1_555 1_555
C1 C2 1_555 1_555
C2 C5 1_555 1_555
C3 C1 1_555 1_555
C4 O4 1_555 1_555
C5 C4 1_555 1_555
C6 O5 1_555 1_555
H1 C1 1_555 1_555
H2 C4 1_555 1_555
H3 C2 1_555 1_555
H4 C3 1_555 1_555
H5 C5 1_555 1_555
H6 C3 1_555 1_555
H7 O1 1_555 1_555
H8 O3 1_555 1_555
H9 O2 1_555 1_555
H10 C6 1_555 1_555
H11 C6 1_555 1_555
H12 C6 1_555 1_555

#END
