
#######################################################################
#
#                 Cambridge Crystallographic Data Centre
#                                CCDC 
#
#######################################################################
#
# If this CIF has been generated from an entry in the Cambridge 
# Structural Database, then it will include bibliographic, chemical, 
# crystal, experimental, refinement or atomic coordinate data resulting 
# from the CCDC's data processing and validation procedures.
#
#######################################################################

data_TICZUD
_chemical_formula_moiety         'C96 H82 N8 O8,2(C1 H1 Cl3)'
_chemical_name_systematic        
'2,3,9,10,16,17,23,24-octakis(2,6-dimethylphenoxy)-29H,31H-phthalocyanine chloroform solvate'
_symmetry_cell_setting           triclinic
_symmetry_space_group_name_H-M   'P -1'
_symmetry_Int_Tables_number      2
_space_group_name_Hall           '-P 1'
loop_
_symmetry_equiv_pos_site_id
_symmetry_equiv_pos_as_xyz
1 x,y,z
2 -x,-y,-z
_cell_length_a                   8.3431(3)
_cell_length_b                   16.1109(6)
_cell_length_c                   18.1405(7)
_cell_angle_alpha                109.242(4)
_cell_angle_beta                 95.119(3)
_cell_angle_gamma                103.798(3)
_cell_volume                     2197.93
_exptl_crystal_colour            green
_exptl_crystal_description       block
_cell_formula_units_Z            1
loop_
_atom_site_label
_atom_site_type_symbol
_atom_site_fract_x
_atom_site_fract_y
_atom_site_fract_z
N1 N 0.3595(3) 0.53648(15) 0.67115(13)
C1 C 0.2965(3) 0.45500(18) 0.61243(16)
O1 O -0.2205(2) 0.15335(13) 0.59084(11)
C2 C -0.2718(4) 0.0798(2) 0.51716(18)
C3 C 0.4729(3) 0.27647(18) 0.19220(16)
H1 H 0.5434 0.3143 0.1721
C4 C 0.3835(4) 0.18816(19) 0.14504(16)
C5 C 0.2783(4) 0.13045(18) 0.17635(17)
C6 C 0.2582(4) 0.16098(18) 0.25422(16)
H2 H 0.1880 0.1231 0.2744
C7 C 0.3473(3) 0.25115(18) 0.30186(16)
C8 C -0.3364(4) 0.3907(2) 0.7497(2)
C9 C 0.4743(3) 0.60476(18) 0.66491(16)
O2 O -0.1555(2) 0.29449(12) 0.72315(11)
N2 N 0.5431(3) 0.60935(16) 0.60053(15)
C10 C -0.0826(4) 0.4253(2) 0.84595(17)
C11 C 0.1606(3) 0.38430(18) 0.61993(16)
O3 O 0.1971(3) 0.04385(13) 0.12218(11)
N3 N 0.3465(3) 0.42391(15) 0.54137(13)
C12 C 0.0650(3) 0.38415(18) 0.67917(16)
H3 H 0.0835 0.4359 0.7248
O4 O 0.3897(3) 0.14863(13) 0.06637(11)
N4 N 0.2539(3) 0.27818(15) 0.43062(13)
H4 H 0.522(4) 0.570(2) 0.558(2)
C13 C -0.3789(5) 0.4641(2) 0.8012(2)
H5 H -0.4774 0.4770 0.7869
C14 C -0.2391(4) -0.0019(2) 0.51448(19)
C15 C -0.0576(3) 0.30473(19) 0.66748(16)
C16 C 0.0069(3) 0.22754(18) 0.53857(16)
H6 H -0.0122 0.1764 0.4924
C17 C -0.0888(3) 0.22660(18) 0.59693(16)
C18 C 0.1330(3) 0.30782(18) 0.55144(16)
C19 C 0.3475(3) 0.30573(18) 0.38342(16)
C20 C 0.2500(3) 0.33499(18) 0.50298(16)
C21 C 0.3529(4) 0.2492(2) -0.00138(17)
C22 C 0.4200(4) 0.3030(2) -0.04332(19)
H7 H 0.3529 0.3311 -0.0646
C23 C 0.5850(5) 0.3156(2) -0.0540(2)
H8 H 0.6281 0.3522 -0.0820
C24 C 0.6855(4) 0.2739(2) -0.0232(2)
H9 H 0.7963 0.2828 -0.0307
C25 C 0.6239(4) 0.2187(2) 0.01889(17)
C26 C 0.4579(4) 0.20785(19) 0.02816(16)
C27 C 0.4036(4) -0.0495(2) 0.1696(2)
H10 H 0.4506 -0.0925 0.1834
H11 H 0.4631 0.0117 0.2048
H12 H 0.4135 -0.0553 0.1159
C28 C -0.1475(5) 0.0175(3) 0.1289(2)
H13 H -0.2574 0.0046 0.1421
H14 H -0.1573 -0.0005 0.0724
H15 H -0.0922 0.0820 0.1536
C29 C -0.0472(4) -0.0348(2) 0.15812(19)
C30 C -0.1170(4) -0.1007(2) 0.1897(2)
H16 H -0.2294 -0.1120 0.1947
C31 C -0.0207(5) -0.1488(2) 0.2134(2)
H17 H -0.0689 -0.1920 0.2345
C32 C 0.1459(5) -0.1343(2) 0.2065(2)
H18 H 0.2079 -0.1686 0.2219
C33 C -0.1293(5) 0.4991(2) 0.8950(2)
H19 H -0.0603 0.5366 0.9435
C34 C -0.3583(4) 0.0899(2) 0.45323(19)
C35 C -0.1900(4) 0.37306(19) 0.77348(17)
C36 C 0.4535(3) 0.30712(18) 0.27161(16)
C37 C 0.1736(4) 0.2340(2) 0.0111(2)
H20 H 0.1129 0.2557 -0.0225
H21 H 0.1714 0.2668 0.0656
H22 H 0.1222 0.1697 -0.0018
C38 C 0.7296(5) 0.1712(3) 0.0518(2)
H23 H 0.8370 0.1819 0.0358
H24 H 0.6745 0.1065 0.0319
H25 H 0.7450 0.1947 0.1087
C39 C 0.0716(5) 0.4022(2) 0.87151(19)
H26 H 0.1450 0.4545 0.9140
H27 H 0.1284 0.3854 0.8275
H28 H 0.0401 0.3517 0.8894
C40 C -0.3983(5) 0.1777(2) 0.4590(2)
H29 H -0.4425 0.1996 0.5065
H30 H -0.4800 0.1668 0.4136
H31 H -0.2978 0.2228 0.4606
C41 C -0.3779(4) -0.0676(2) 0.3771(2)
H32 H -0.4121 -0.1173 0.3292
C42 C -0.2946(4) -0.0757(2) 0.4425(2)
H33 H -0.2752 -0.1314 0.4384
C43 C -0.4102(4) 0.0138(2) 0.3826(2)
H34 H -0.4679 0.0183 0.3384
C44 C -0.2756(5) 0.5178(2) 0.8733(2)
H35 H -0.3047 0.5670 0.9074
C45 C -0.1521(4) -0.0109(2) 0.5857(2)
H36 H -0.2047 0.0116 0.6302
H37 H -0.0363 0.0242 0.5976
H38 H -0.1593 -0.0743 0.5752
C46 C -0.4449(5) 0.3325(3) 0.6696(2)
H39 H -0.5593 0.3330 0.6718
H40 H -0.4381 0.2707 0.6555
H41 H -0.4066 0.3567 0.6304
C47 C 0.2211(4) -0.0691(2) 0.17680(17)
C48 C 0.1221(4) -0.02068(18) 0.15373(16)
N1A N 0.6405(3) 0.46352(15) 0.32885(13)
C1A C 0.7035(3) 0.54500(18) 0.38757(16)
O1A O 1.2205(2) 0.84665(13) 0.40916(11)
C2A C 1.2718(4) 0.9202(2) 0.48284(18)
C3A C 0.5271(3) 0.72353(18) 0.80780(16)
H1A H 0.4566 0.6857 0.8279
C4A C 0.6165(4) 0.81184(19) 0.85496(16)
C5A C 0.7217(4) 0.86955(18) 0.82365(17)
C6A C 0.7418(4) 0.83902(18) 0.74578(16)
H2A H 0.8120 0.8769 0.7256
C7A C 0.6527(3) 0.74885(18) 0.69814(16)
C8A C 1.3364(4) 0.6093(2) 0.2503(2)
C9A C 0.5257(3) 0.39524(18) 0.33509(16)
O2A O 1.1555(2) 0.70551(12) 0.27685(11)
N2A N 0.4569(3) 0.39065(16) 0.39947(15)
C10A C 1.0826(4) 0.5747(2) 0.15405(17)
C11A C 0.8394(3) 0.61570(18) 0.38007(16)
O3A O 0.8029(3) 0.95615(13) 0.87782(11)
N3A N 0.6535(3) 0.57609(15) 0.45863(13)
C12A C 0.9350(3) 0.61585(18) 0.32083(16)
H3A H 0.9165 0.5641 0.2752
O4A O 0.6103(3) 0.85137(13) 0.93363(11)
N4A N 0.7461(3) 0.72182(15) 0.56938(13)
H4A H 0.478(4) 0.430(2) 0.442(2)
C13A C 1.3789(5) 0.5359(2) 0.1988(2)
H5A H 1.4774 0.5230 0.2131
C14A C 1.2391(4) 1.0019(2) 0.48552(19)
C15A C 1.0576(3) 0.69527(19) 0.33252(16)
C16A C 0.9931(3) 0.77246(18) 0.46143(16)
H6A H 1.0122 0.8236 0.5076
C17A C 1.0888(3) 0.77340(18) 0.40307(16)
C18A C 0.8670(3) 0.69218(18) 0.44856(16)
C19A C 0.6525(3) 0.69427(18) 0.61658(16)
C20A C 0.7500(3) 0.66501(18) 0.49702(16)
C21A C 0.6471(4) 0.7508(2) 1.00138(17)
C22A C 0.5800(4) 0.6970(2) 1.04332(19)
H7A H 0.6471 0.6689 1.0646
C23A C 0.4150(5) 0.6844(2) 1.0540(2)
H8A H 0.3719 0.6478 1.0820
C24A C 0.3145(4) 0.7261(2) 1.0232(2)
H9A H 0.2037 0.7172 1.0307
C25A C 0.3761(4) 0.7813(2) 0.98111(17)
C26A C 0.5421(4) 0.79215(19) 0.97184(16)
C27A C 0.5964(4) 1.0495(2) 0.8304(2)
H10A H 0.5494 1.0925 0.8166
H11A H 0.5369 0.9883 0.7952
H12A H 0.5865 1.0553 0.8841
C28A C 1.1475(5) 0.9825(3) 0.8711(2)
H13A H 1.2574 0.9954 0.8579
H14A H 1.1573 1.0005 0.9276
H15A H 1.0922 0.9180 0.8464
C29A C 1.0472(4) 1.0348(2) 0.84188(19)
C30A C 1.1170(4) 1.1007(2) 0.8103(2)
H16A H 1.2294 1.1120 0.8053
C31A C 1.0207(5) 1.1488(2) 0.7866(2)
H17A H 1.0689 1.1920 0.7655
C32A C 0.8541(5) 1.1343(2) 0.7935(2)
H18A H 0.7921 1.1686 0.7781
C33A C 1.1293(5) 0.5009(2) 0.1050(2)
H19A H 1.0603 0.4634 0.0565
C34A C 1.3583(4) 0.9101(2) 0.54677(19)
C35A C 1.1900(4) 0.62694(19) 0.22652(17)
C36A C 0.5465(3) 0.69288(18) 0.72839(16)
C37A C 0.8264(4) 0.7660(2) 0.9889(2)
H20A H 0.8871 0.7443 1.0225
H21A H 0.8286 0.7332 0.9344
H22A H 0.8778 0.8303 1.0018
C38A C 0.2704(5) 0.8288(3) 0.9482(2)
H23A H 0.1630 0.8181 0.9642
H24A H 0.3255 0.8935 0.9681
H25A H 0.2550 0.8053 0.8913
C39A C 0.9284(5) 0.5978(2) 0.12849(19)
H26A H 0.8550 0.5455 0.0860
H27A H 0.8716 0.6146 0.1725
H28A H 0.9599 0.6483 0.1106
C40A C 1.3983(5) 0.8223(2) 0.5410(2)
H29A H 1.4425 0.8004 0.4935
H30A H 1.4800 0.8332 0.5864
H31A H 1.2978 0.7772 0.5394
C41A C 1.3779(4) 1.0676(2) 0.6229(2)
H32A H 1.4121 1.1173 0.6708
C42A C 1.2946(4) 1.0757(2) 0.5575(2)
H33A H 1.2752 1.1314 0.5616
C43A C 1.4102(4) 0.9862(2) 0.6174(2)
H34A H 1.4679 0.9817 0.6616
C44A C 1.2756(5) 0.4822(2) 0.1267(2)
H35A H 1.3047 0.4330 0.0926
C45A C 1.1521(4) 1.0109(2) 0.4143(2)
H36A H 1.2047 0.9884 0.3698
H37A H 1.0363 0.9758 0.4024
H38A H 1.1593 1.0743 0.4248
C46A C 1.4449(5) 0.6675(3) 0.3304(2)
H39A H 1.5593 0.6670 0.3282
H40A H 1.4381 0.7293 0.3445
H41A H 1.4066 0.6433 0.3696
C47A C 0.7789(4) 1.0691(2) 0.82320(17)
C48A C 0.8779(4) 1.02068(18) 0.84627(16)
C49 C 0.9319(6) 0.3612(3) 0.3093(3)
H42 H 0.8332 0.3791 0.2942
Cl1 Cl 0.86684(17) 0.24623(10) 0.29942(9)
Cl2 Cl 1.0213(3) 0.42992(13) 0.40712(9)
Cl3 Cl 1.0711(2) 0.37557(13) 0.24636(12)
loop_
_geom_bond_atom_site_label_1
_geom_bond_atom_site_label_2
_geom_bond_site_symmetry_1
_geom_bond_site_symmetry_2
N1 C1 1_555 1_555
C1 C11 1_555 1_555
O1 C2 1_555 1_555
C2 C14 1_555 1_555
C3 H1 1_555 1_555
C4 C3 1_555 1_555
C5 C4 1_555 1_555
C6 C5 1_555 1_555
H2 C6 1_555 1_555
C7 C6 1_555 1_555
C8 C13 1_555 1_555
C9 N1 1_555 1_555
O2 C15 1_555 1_555
N2 C9 1_555 1_555
C10 C33 1_555 1_555
C11 C12 1_555 1_555
O3 C5 1_555 1_555
N3 C1 1_555 1_555
C12 H3 1_555 1_555
O4 C4 1_555 1_555
N4 C19 1_555 1_555
H4 N2 1_555 1_555
C13 H5 1_555 1_555
C14 C42 1_555 1_555
C15 C12 1_555 1_555
C16 H6 1_555 1_555
C17 O1 1_555 1_555
C18 C11 1_555 1_555
C19 C7 1_555 1_555
C20 N3 1_555 1_555
C21 C22 1_555 1_555
C22 H7 1_555 1_555
C23 C22 1_555 1_555
H8 C23 1_555 1_555
C24 C23 1_555 1_555
H9 C24 1_555 1_555
C25 C24 1_555 1_555
C26 O4 1_555 1_555
C27 H10 1_555 1_555
H11 C27 1_555 1_555
H12 C27 1_555 1_555
C28 H13 1_555 1_555
H14 C28 1_555 1_555
H15 C28 1_555 1_555
C29 C28 1_555 1_555
C30 C29 1_555 1_555
H16 C30 1_555 1_555
C31 C30 1_555 1_555
H17 C31 1_555 1_555
C32 C31 1_555 1_555
H18 C32 1_555 1_555
C33 H19 1_555 1_555
C34 C2 1_555 1_555
C35 C8 1_555 1_555
C36 C3 1_555 1_555
C37 C21 1_555 1_555
H20 C37 1_555 1_555
H21 C37 1_555 1_555
H22 C37 1_555 1_555
C38 C25 1_555 1_555
H23 C38 1_555 1_555
H24 C38 1_555 1_555
H25 C38 1_555 1_555
C39 C10 1_555 1_555
H26 C39 1_555 1_555
H27 C39 1_555 1_555
H28 C39 1_555 1_555
C40 C34 1_555 1_555
H29 C40 1_555 1_555
H30 C40 1_555 1_555
H31 C40 1_555 1_555
C41 H32 1_555 1_555
C42 C41 1_555 1_555
H33 C42 1_555 1_555
C43 C34 1_555 1_555
H34 C43 1_555 1_555
C44 C13 1_555 1_555
H35 C44 1_555 1_555
C45 C14 1_555 1_555
H36 C45 1_555 1_555
H37 C45 1_555 1_555
H38 C45 1_555 1_555
C46 C8 1_555 1_555
H39 C46 1_555 1_555
H40 C46 1_555 1_555
H41 C46 1_555 1_555
C47 C27 1_555 1_555
C48 O3 1_555 1_555
C49 H42 1_555 1_555
Cl1 C49 1_555 1_555
Cl2 C49 1_555 1_555
Cl3 C49 1_555 1_555
N1A C1A 1_555 1_555
C1A C11A 1_555 1_555
O1A C2A 1_555 1_555
C2A C14A 1_555 1_555
C3A H1A 1_555 1_555
C4A C3A 1_555 1_555
C5A C4A 1_555 1_555
C6A C5A 1_555 1_555
H2A C6A 1_555 1_555
C7A C6A 1_555 1_555
C8A C13A 1_555 1_555
C9A C36 1_555 1_555
O2A C15A 1_555 1_555
N2A C19 1_555 1_555
C10A C33A 1_555 1_555
C11A C12A 1_555 1_555
O3A C5A 1_555 1_555
N3A C1A 1_555 1_555
C12A H3A 1_555 1_555
O4A C4A 1_555 1_555
N4A C19A 1_555 1_555
H4A N2A 1_555 1_555
C13A H5A 1_555 1_555
C14A C42A 1_555 1_555
C15A C12A 1_555 1_555
C16A H6A 1_555 1_555
C17A O1A 1_555 1_555
C18A C11A 1_555 1_555
C19A N2 1_555 1_555
C20A N3A 1_555 1_555
C21A C22A 1_555 1_555
C22A H7A 1_555 1_555
C23A C22A 1_555 1_555
H8A C23A 1_555 1_555
C24A C23A 1_555 1_555
H9A C24A 1_555 1_555
C25A C24A 1_555 1_555
C26A O4A 1_555 1_555
C27A H10A 1_555 1_555
H11A C27A 1_555 1_555
H12A C27A 1_555 1_555
C28A H13A 1_555 1_555
H14A C28A 1_555 1_555
H15A C28A 1_555 1_555
C29A C28A 1_555 1_555
C30A C29A 1_555 1_555
H16A C30A 1_555 1_555
C31A C30A 1_555 1_555
H17A C31A 1_555 1_555
C32A C31A 1_555 1_555
H18A C32A 1_555 1_555
C33A H19A 1_555 1_555
C34A C2A 1_555 1_555
C35A C8A 1_555 1_555
C36A C9 1_555 1_555
C37A C21A 1_555 1_555
H20A C37A 1_555 1_555
H21A C37A 1_555 1_555
H22A C37A 1_555 1_555
C38A C25A 1_555 1_555
H23A C38A 1_555 1_555
H24A C38A 1_555 1_555
H25A C38A 1_555 1_555
C39A C10A 1_555 1_555
H26A C39A 1_555 1_555
H27A C39A 1_555 1_555
H28A C39A 1_555 1_555
C40A C34A 1_555 1_555
H29A C40A 1_555 1_555
H30A C40A 1_555 1_555
H31A C40A 1_555 1_555
C41A H32A 1_555 1_555
C42A C41A 1_555 1_555
H33A C42A 1_555 1_555
C43A C34A 1_555 1_555
H34A C43A 1_555 1_555
C44A C13A 1_555 1_555
H35A C44A 1_555 1_555
C45A C14A 1_555 1_555
H36A C45A 1_555 1_555
H37A C45A 1_555 1_555
H38A C45A 1_555 1_555
C46A C8A 1_555 1_555
H39A C46A 1_555 1_555
H40A C46A 1_555 1_555
H41A C46A 1_555 1_555
C47A C27A 1_555 1_555
C48A O3A 1_555 1_555
C7 C36 1_555 1_555
O2 C35 1_555 1_555
C10 C35 1_555 1_555
N4 C20 1_555 1_555
C15 C17 1_555 1_555
C16 C17 1_555 1_555
C16 C18 1_555 1_555
C18 C20 1_555 1_555
C21 C26 1_555 1_555
C25 C26 1_555 1_555
C29 C48 1_555 1_555
C32 C47 1_555 1_555
C33 C44 1_555 1_555
C41 C43 1_555 1_555
C47 C48 1_555 1_555
N1A C9A 1_555 1_555
C3A C36A 1_555 1_555
C7A C19A 1_555 1_555
C7A C36A 1_555 1_555
C9A N2A 1_555 1_555
O2A C35A 1_555 1_555
C10A C35A 1_555 1_555
N4A C20A 1_555 1_555
C15A C17A 1_555 1_555
C16A C17A 1_555 1_555
C16A C18A 1_555 1_555
C18A C20A 1_555 1_555
C21A C26A 1_555 1_555
C25A C26A 1_555 1_555
C29A C48A 1_555 1_555
C32A C47A 1_555 1_555
C33A C44A 1_555 1_555
C41A C43A 1_555 1_555
C47A C48A 1_555 1_555

#END
