
#######################################################################
#
#                 Cambridge Crystallographic Data Centre
#                                CCDC 
#
#######################################################################
#
# If this CIF has been generated from an entry in the Cambridge 
# Structural Database, then it will include bibliographic, chemical, 
# crystal, experimental, refinement or atomic coordinate data resulting 
# from the CCDC's data processing and validation procedures.
#
#######################################################################

data_TIDBUF
_chemical_formula_moiety         'C11 H13 N3 2+,2(Cl1 O4 1-)'
_chemical_name_systematic        
'2-((Pyridinium-4-ylmethyl)amino)pyridinium diperchlorate'
_symmetry_cell_setting           monoclinic
_symmetry_space_group_name_H-M   'P 21'
_symmetry_Int_Tables_number      4
_space_group_name_Hall           'P 2yb'
loop_
_symmetry_equiv_pos_site_id
_symmetry_equiv_pos_as_xyz
1 x,y,z
2 -x,1/2+y,-z
_cell_length_a                   6.0703(13)
_cell_length_b                   14.175(3)
_cell_length_c                   9.5289(19)
_cell_angle_alpha                90
_cell_angle_beta                 105.04(3)
_cell_angle_gamma                90
_cell_volume                     791.842
_exptl_crystal_colour            yellowish
_exptl_crystal_description       prism
_cell_formula_units_Z            2
loop_
_atom_site_label
_atom_site_type_symbol
_atom_site_fract_x
_atom_site_fract_y
_atom_site_fract_z
Cl1 Cl 0.1429(2) 0.70137(11) 0.01595(16)
O1 O 0.3705(9) 0.7087(5) 0.1048(6)
O2 O 0.1265(9) 0.7597(5) -0.1081(5)
O3 O -0.0208(12) 0.7284(5) 0.0885(8)
O4 O 0.1071(11) 0.6053(4) -0.0326(9)
Cl2 Cl 1.2273(2) 0.39161(10) 0.58467(17)
O5 O 1.2014(9) 0.3116(4) 0.6673(7)
O6 O 1.1462(10) 0.4718(5) 0.6484(8)
O7 O 1.1040(11) 0.3835(6) 0.4401(6)
O8 O 1.4664(8) 0.4051(5) 0.5989(6)
N1 N 0.4602(8) 0.6673(3) 0.4153(5)
H1 H 0.446(12) 0.670(5) 0.3232(18)
N2 N 0.7818(8) 0.5738(4) 0.4467(5)
H2 H 0.869(11) 0.541(5) 0.515(6)
N3 N 0.3605(10) 0.3852(5) 0.0084(8)
H3 H 0.252(11) 0.380(8) -0.070(6)
C1 C 0.3064(10) 0.7159(5) 0.4692(8)
H4 H 0.1956 0.7523 0.4068
C2 C 0.3123(12) 0.7121(5) 0.6098(8)
H5 H 0.1991 0.7413 0.6437
C3 C 0.4866(11) 0.6646(5) 0.7044(7)
H6 H 0.4941 0.6627 0.8031
C4 C 0.6491(11) 0.6201(4) 0.6520(7)
H7 H 0.7706 0.5902 0.7164
C5 C 0.6354(9) 0.6189(4) 0.5038(7)
C6 C 0.7923(11) 0.5745(5) 0.2978(7)
H8 H 0.9483 0.5617 0.2953
H9 H 0.7540 0.6373 0.2587
C7 C 0.3380(11) 0.3923(5) 0.1425(9)
H10 H 0.2256 0.3575 0.1695
C8 C 0.4794(10) 0.4506(4) 0.2427(7)
H11 H 0.4675 0.4534 0.3380
C9 C 0.6372(9) 0.5043(4) 0.1997(6)
C10 C 0.6538(11) 0.4947(5) 0.0566(7)
H12 H 0.7612 0.5301 0.0253
C11 C 0.5165(12) 0.4349(5) -0.0367(8)
H13 H 0.5300 0.4283 -0.1312
loop_
_geom_bond_atom_site_label_1
_geom_bond_atom_site_label_2
_geom_bond_site_symmetry_1
_geom_bond_site_symmetry_2
Cl1 O1 1_555 1_555
O2 Cl1 1_555 1_555
O3 Cl1 1_555 1_555
O4 Cl1 1_555 1_555
Cl2 O5 1_555 1_555
O6 Cl2 1_555 1_555
O7 Cl2 1_555 1_555
O8 Cl2 1_555 1_555
N1 H1 1_555 1_555
N2 H2 1_555 1_555
N3 H3 1_555 1_555
C1 N1 1_555 1_555
H4 C1 1_555 1_555
C2 C1 1_555 1_555
H5 C2 1_555 1_555
C3 C2 1_555 1_555
H6 C3 1_555 1_555
C4 C3 1_555 1_555
H7 C4 1_555 1_555
C5 N1 1_555 1_555
C6 N2 1_555 1_555
H8 C6 1_555 1_555
H9 C6 1_555 1_555
C7 N3 1_555 1_555
H10 C7 1_555 1_555
C8 C7 1_555 1_555
H11 C8 1_555 1_555
C9 C6 1_555 1_555
C10 C9 1_555 1_555
H12 C10 1_555 1_555
C11 N3 1_555 1_555
H13 C11 1_555 1_555
N2 C5 1_555 1_555
C4 C5 1_555 1_555
C8 C9 1_555 1_555
C10 C11 1_555 1_555

#END
