
#######################################################################
#
#                 Cambridge Crystallographic Data Centre
#                                CCDC 
#
#######################################################################
#
# If this CIF has been generated from an entry in the Cambridge 
# Structural Database, then it will include bibliographic, chemical, 
# crystal, experimental, refinement or atomic coordinate data resulting 
# from the CCDC's data processing and validation procedures.
#
#######################################################################

data_TIDBEP
_chemical_formula_moiety         'C11 H13 N3 2+,C11 H12 N3 1+,3(F6 P1 1-)'
_chemical_name_systematic        
'2-((Pyridinium-4-ylmethyl)amino)pyridinium 4-((pyridin-2-ylamino)methyl)pyridinium tris(hexafluorophosphate)'
_symmetry_cell_setting           monoclinic
_symmetry_space_group_name_H-M   'P c'
_symmetry_Int_Tables_number      7
_space_group_name_Hall           'P -2yc'
loop_
_symmetry_equiv_pos_site_id
_symmetry_equiv_pos_as_xyz
1 x,y,z
2 x,-y,1/2+z
_cell_length_a                   6.3859(2)
_cell_length_b                   13.0144(5)
_cell_length_c                   18.0253(7)
_cell_angle_alpha                90
_cell_angle_beta                 98.581(4)
_cell_angle_gamma                90
_cell_volume                     1481.29
_exptl_crystal_colour            yellowish
_exptl_crystal_description       prism
_cell_formula_units_Z            2
loop_
_atom_site_label
_atom_site_type_symbol
_atom_site_fract_x
_atom_site_fract_y
_atom_site_fract_z
P2 P 0.5454(4) 0.7451(2) 0.67105(14)
F7 F 0.571(2) 0.7284(9) 0.7585(5)
F8 F 0.5126(13) 0.8682(5) 0.6735(5)
F9 F 0.5168(16) 0.7565(7) 0.5844(4)
F10 F 0.5573(15) 0.6244(6) 0.6530(6)
F11 F 0.2932(12) 0.7325(6) 0.6675(5)
F12 F 0.7951(13) 0.7573(6) 0.6762(5)
P3 P 0.4547(4) 0.2449(2) 0.82950(14)
F13 F 0.4229(19) 0.2385(8) 0.7419(4)
F14 F 0.4131(13) 0.1276(5) 0.8286(5)
F15 F 0.4766(18) 0.2605(8) 0.9175(5)
F16 F 0.4680(13) 0.3622(6) 0.8160(5)
F17 F 0.6965(14) 0.2314(6) 0.8316(5)
F18 F 0.2052(11) 0.2593(5) 0.8262(4)
N1 N 0.9108(17) 0.5860(7) 0.8490(4)
H1 H 0.8164 0.6335 0.8467
N2 N 0.9728(16) 0.3522(6) 0.6330(4)
H2 H 0.9530 0.3069 0.5979
C1 C 0.980(3) 0.3893(17) 1.0315(9)
H3 H 1.0011 0.3477 1.0739
C2 C 0.802(3) 0.452(2) 1.0182(11)
H4 H 0.7049 0.4527 1.0517
N3 N 0.771(3) 0.5145(18) 0.9548(13)
C3 C 0.917(4) 0.5137(18) 0.9048(11)
C4 C 1.094(4) 0.451(2) 0.9181(11)
H5 H 1.1916 0.4503 0.8846
C5 C 1.126(3) 0.3886(18) 0.9814(12)
H6 H 1.2445 0.3465 0.9903
C6 C 1.1449(19) 0.4102(9) 0.6376(6)
H7 H 1.2412 0.4003 0.6043
C7 C 1.1801(18) 0.4844(9) 0.6915(6)
H8 H 1.3023 0.5243 0.6974
C8 C 1.0229(16) 0.4979(8) 0.7379(5)
C9 C 0.8509(18) 0.4365(8) 0.7319(5)
H9 H 0.7483 0.4455 0.7629
C10 C 0.8319(19) 0.3593(7) 0.6778(6)
H10 H 0.7193 0.3133 0.6737
C11 C 1.054(2) 0.5873(7) 0.7935(6)
H11 H 1.1986 0.5858 0.8194
H12 H 1.0350 0.6513 0.7658
N5 N 0.2119(12) 0.0208(6) 0.5471(4)
H18 H 0.3131 0.0649 0.5551
N6 N 0.0886(17) 0.0856(7) 0.6511(5)
H19 H 0.1934 0.1278 0.6561
C17 C 0.1423(16) -0.0695(8) 0.7681(6)
H20 H 0.2407 -0.0645 0.7351
C18 C 0.1691(19) -0.1417(8) 0.8221(5)
H21 H 0.2890 -0.1832 0.8275
N7 N 0.0243(17) -0.1547(7) 0.8686(5)
H22 H 0.0419 -0.2015 0.9027
C19 C -0.147(2) -0.0943(10) 0.8614(6)
H23 H -0.2484 -0.1038 0.8928
C20 C -0.1740(18) -0.0184(8) 0.8080(6)
H24 H -0.2942 0.0228 0.8043
C21 C -0.0318(16) -0.0011(7) 0.7603(6)
C22 C 0.0672(13) 0.0221(6) 0.5930(4)
C23 C -0.1005(14) -0.0478(7) 0.5753(5)
H25 H -0.2100 -0.0502 0.6040
C24 C -0.1006(16) -0.1114(7) 0.5163(5)
H26 H -0.2132 -0.1568 0.5048
C25 C 0.0589(16) -0.1125(7) 0.4718(5)
H27 H 0.0586 -0.1583 0.4321
C26 C 0.2121(14) -0.0438(7) 0.4896(5)
H28 H 0.3223 -0.0407 0.4613
C27 C -0.052(2) 0.0883(9) 0.7060(6)
H29 H -0.1960 0.0905 0.6801
H30 H -0.0264 0.1514 0.7345
P1 P 0.5011(8) 0.2505(3) 0.5002(2)
F1 F 0.5184(11) 0.3671(5) 0.5421(4)
F2 F 0.4844(13) 0.1916(5) 0.5840(3)
F3 F 0.4778(10) 0.1371(5) 0.4583(3)
F4 F 0.5146(12) 0.3078(6) 0.4178(3)
F5 F 0.2347(12) 0.2611(6) 0.4866(4)
F6 F 0.7673(13) 0.2381(6) 0.5159(4)
H13? H 0.7972 0.6252 0.8427
C12? C 0.924(3) 0.3858(17) 1.0267(11)
H14? H 0.9145 0.3396 1.0653
C13? C 0.767(3) 0.4590(19) 1.0078(12)
H15? H 0.6516 0.4617 1.0339
N4? N 0.781(4) 0.5282(17) 0.9500(14)
C14? C 0.953(4) 0.5241(18) 0.9111(11)
C15? C 1.111(3) 0.451(2) 0.9299(11)
H16? H 1.2259 0.4482 0.9039
C16? C 1.096(3) 0.3818(17) 0.9877(13)
H17? H 1.2016 0.3328 1.0003
loop_
_geom_bond_atom_site_label_1
_geom_bond_atom_site_label_2
_geom_bond_site_symmetry_1
_geom_bond_site_symmetry_2
P1 F1 1_555 1_555
F2 P1 1_555 1_555
F3 P1 1_555 1_555
F4 P1 1_555 1_555
F5 P1 1_555 1_555
F6 P1 1_555 1_555
P2 F7 1_555 1_555
F8 P2 1_555 1_555
F9 P2 1_555 1_555
F10 P2 1_555 1_555
F11 P2 1_555 1_555
F12 P2 1_555 1_555
P3 F13 1_555 1_555
F14 P3 1_555 1_555
F15 P3 1_555 1_555
F16 P3 1_555 1_555
F17 P3 1_555 1_555
F18 P3 1_555 1_555
N1 H1 1_555 1_555
N2 H2 1_555 1_555
C1 H3 1_555 1_555
C2 C1 1_555 1_555
H4 C2 1_555 1_555
N3 C2 1_555 1_555
C3 N1 1_555 1_555
C4 C3 1_555 1_555
H5 C4 1_555 1_555
C5 C1 1_555 1_555
H6 C5 1_555 1_555
C6 N2 1_555 1_555
H7 C6 1_555 1_555
C7 C6 1_555 1_555
H8 C7 1_555 1_555
C8 C7 1_555 1_555
C9 C8 1_555 1_555
H9 C9 1_555 1_555
C10 N2 1_555 1_555
H10 C10 1_555 1_555
C11 N1 1_555 1_555
H11 C11 1_555 1_555
H12 C11 1_555 1_555
N5 H18 1_555 1_555
N6 H19 1_555 1_555
C17 H20 1_555 1_555
C18 C17 1_555 1_555
H21 C18 1_555 1_555
N7 C18 1_555 1_555
H22 N7 1_555 1_555
C19 N7 1_555 1_555
H23 C19 1_555 1_555
C20 C19 1_555 1_555
H24 C20 1_555 1_555
C21 C17 1_555 1_555
C22 N5 1_555 1_555
C23 C22 1_555 1_555
H25 C23 1_555 1_555
C24 C23 1_555 1_555
H26 C24 1_555 1_555
C25 C24 1_555 1_555
H27 C25 1_555 1_555
C26 N5 1_555 1_555
H28 C26 1_555 1_555
C27 N6 1_555 1_555
H29 C27 1_555 1_555
H30 C27 1_555 1_555
N3 C3 1_555 1_555
C4 C5 1_555 1_555
C8 C11 1_555 1_555
C9 C10 1_555 1_555
N6 C22 1_555 1_555
C20 C21 1_555 1_555
C21 C27 1_555 1_555
C25 C26 1_555 1_555

#END
