
#######################################################################
#
#                 Cambridge Crystallographic Data Centre
#                                CCDC 
#
#######################################################################
#
# If this CIF has been generated from an entry in the Cambridge 
# Structural Database, then it will include bibliographic, chemical, 
# crystal, experimental, refinement or atomic coordinate data resulting 
# from the CCDC's data processing and validation procedures.
#
#######################################################################

data_TIDCAM
_chemical_formula_moiety         'C11 H13 N3 2+,2(Cl1 O4 1-)'
_chemical_name_systematic        
'2-((Pyridinium-3-ylmethyl)amino)pyridinium diperchlorate'
_symmetry_cell_setting           monoclinic
_symmetry_space_group_name_H-M   'P 21/c'
_symmetry_Int_Tables_number      14
_space_group_name_Hall           '-P 2ybc'
loop_
_symmetry_equiv_pos_site_id
_symmetry_equiv_pos_as_xyz
1 x,y,z
2 -x,1/2+y,1/2-z
3 -x,-y,-z
4 x,1/2-y,1/2+z
_cell_length_a                   14.059(3)
_cell_length_b                   5.0058(10)
_cell_length_c                   21.608(4)
_cell_angle_alpha                90
_cell_angle_beta                 95.23(3)
_cell_angle_gamma                90
_cell_volume                     1514.37
_exptl_crystal_colour            yellowish
_exptl_crystal_description       prism
_cell_formula_units_Z            4
loop_
_atom_site_label
_atom_site_type_symbol
_atom_site_fract_x
_atom_site_fract_y
_atom_site_fract_z
Cl1 Cl 0.46305(8) 1.0686(2) 0.39335(5)
O1 O 0.4646(3) 0.7836(7) 0.4022(2)
O2 O 0.3699(4) 1.1438(9) 0.3990(3)
O3 O 0.4791(5) 1.1462(11) 0.3347(2)
O4 O 0.5249(6) 1.1880(11) 0.4355(3)
Cl2 Cl 0.02584(7) 0.31741(19) 0.86115(4)
O5 O -0.0250(3) 0.4289(7) 0.90940(16)
O6 O 0.1265(2) 0.3524(7) 0.87534(15)
O7 O 0.0050(2) 0.0381(6) 0.85464(14)
O8 O -0.0037(2) 0.4524(6) 0.80363(13)
N1 N 0.3183(3) 0.5914(8) 0.48191(18)
H1 H 0.368(2) 0.628(10) 0.463(2)
N2 N 0.1962(3) 0.2717(8) 0.66269(16)
H2 H 0.1355(10) 0.246(11) 0.659(2)
N3 N 0.1709(2) 0.5708(7) 0.74021(16)
H3 H 0.1159(18) 0.497(10) 0.739(2)
C1 C 0.3224(3) 0.4218(9) 0.5299(2)
H4 H 0.3807 0.3469 0.5446
C2 C 0.2434(3) 0.3582(7) 0.55730(17)
C3 C 0.1578(3) 0.4738(9) 0.53349(19)
H5 H 0.1016 0.4334 0.5511
C4 C 0.1557(3) 0.6478(9) 0.4840(2)
H6 H 0.0985 0.7244 0.4679
C5 C 0.2392(3) 0.7060(9) 0.45907(19)
H7 H 0.2397 0.8258 0.4262
C6 C 0.2467(3) 0.1709(8) 0.61221(19)
H8 H 0.2192 0.0007 0.5986
H9 H 0.3129 0.1398 0.6273
C7 C 0.2296(3) 0.4698(8) 0.70101(17)
C8 C 0.3217(3) 0.5738(9) 0.7038(2)
H10 H 0.3649 0.5105 0.6771
C9 C 0.3483(3) 0.7701(10) 0.7461(2)
H11 H 0.4102 0.8374 0.7486
C10 C 0.2839(4) 0.8694(9) 0.7853(2)
H12 H 0.3017 1.0033 0.8139
C11 C 0.1959(3) 0.7687(9) 0.78116(19)
H13 H 0.1514 0.8347 0.8065
loop_
_geom_bond_atom_site_label_1
_geom_bond_atom_site_label_2
_geom_bond_site_symmetry_1
_geom_bond_site_symmetry_2
Cl1 O1 1_555 1_555
O2 Cl1 1_555 1_555
O3 Cl1 1_555 1_555
O4 Cl1 1_555 1_555
Cl2 O5 1_555 1_555
O6 Cl2 1_555 1_555
O7 Cl2 1_555 1_555
O8 Cl2 1_555 1_555
N1 H1 1_555 1_555
N2 H2 1_555 1_555
N3 H3 1_555 1_555
C1 N1 1_555 1_555
H4 C1 1_555 1_555
C2 C1 1_555 1_555
C3 C2 1_555 1_555
H5 C3 1_555 1_555
C4 C3 1_555 1_555
H6 C4 1_555 1_555
C5 N1 1_555 1_555
H7 C5 1_555 1_555
C6 N2 1_555 1_555
H8 C6 1_555 1_555
H9 C6 1_555 1_555
C7 N2 1_555 1_555
C8 C7 1_555 1_555
H10 C8 1_555 1_555
C9 C8 1_555 1_555
H11 C9 1_555 1_555
C10 C9 1_555 1_555
H12 C10 1_555 1_555
C11 N3 1_555 1_555
H13 C11 1_555 1_555
N3 C7 1_555 1_555
C2 C6 1_555 1_555
C4 C5 1_555 1_555
C10 C11 1_555 1_555

#END
