
#######################################################################
#
#                 Cambridge Crystallographic Data Centre
#                                CCDC 
#
#######################################################################
#
# If this CIF has been generated from an entry in the Cambridge 
# Structural Database, then it will include bibliographic, chemical, 
# crystal, experimental, refinement or atomic coordinate data resulting 
# from the CCDC's data processing and validation procedures.
#
#######################################################################

data_TIDCEQ
_chemical_formula_moiety         'C11 H13 N3 2+,2(Cl1 O4 1-)'
_chemical_name_systematic        
'2-((Pyridinium-2-ylmethyl)amino)pyridinium diperchlorate'
_symmetry_cell_setting           monoclinic
_symmetry_space_group_name_H-M   'P 21'
_symmetry_Int_Tables_number      4
_space_group_name_Hall           'P 2yb'
loop_
_symmetry_equiv_pos_site_id
_symmetry_equiv_pos_as_xyz
1 x,y,z
2 -x,1/2+y,-z
_cell_length_a                   6.2576(13)
_cell_length_b                   14.176(3)
_cell_length_c                   9.4606(19)
_cell_angle_alpha                90
_cell_angle_beta                 107.55(3)
_cell_angle_gamma                90
_cell_volume                     800.166
_exptl_crystal_colour            yellowish
_exptl_crystal_description       prism
_cell_formula_units_Z            2
loop_
_atom_site_label
_atom_site_type_symbol
_atom_site_fract_x
_atom_site_fract_y
_atom_site_fract_z
Cl1 Cl 1.2274(2) 0.56459(9) 0.56015(19)
O1 O 1.0984(17) 0.5778(9) 0.4146(8)
O2 O 1.1450(9) 0.6338(5) 0.6425(7)
O3 O 1.2078(12) 0.4780(4) 0.6206(12)
O4 O 1.4600(8) 0.5768(5) 0.5832(9)
Cl2 Cl 0.1374(3) 0.85555(12) 0.03145(18)
O5 O 0.3706(7) 0.8657(5) 0.1118(6)
O6 O -0.0024(11) 0.8693(6) 0.1182(8)
O7 O 0.0863(10) 0.9183(5) -0.0879(7)
O8 O 0.1214(15) 0.7661(5) -0.0289(12)
N1 N 0.4840(8) 0.6246(3) 0.2483(5)
H1 H 0.460(12) 0.627(6) 0.333(4)
N2 N 0.7647(8) 0.7417(4) 0.4732(5)
H2 H 0.884(7) 0.727(5) 0.542(6)
N3 N 0.4499(7) 0.8402(3) 0.4354(5)
H3 H 0.402(10) 0.834(5) 0.3402(16)
C1 C 0.3530(10) 0.5637(5) 0.1505(8)
H4 H 0.2437 0.5294 0.1763
C2 C 0.3795(12) 0.5523(5) 0.0163(9)
H5 H 0.2851 0.5128 -0.0537
C3 C 0.5467(15) 0.5997(6) -0.0146(9)
H6 H 0.5748 0.5901 -0.1046
C4 C 0.6754(10) 0.6621(4) 0.0866(7)
H7 H 0.7882 0.6953 0.0630
C5 C 0.6439(8) 0.6760(3) 0.2144(7)
C6 C 0.7807(9) 0.7490(4) 0.3235(6)
H8 H 0.9369 0.7427 0.3277
H9 H 0.7317 0.8115 0.2855
C7 C 0.6184(8) 0.7892(3) 0.5262(6)
C8 C 0.6345(11) 0.7863(4) 0.6772(7)
H10 H 0.7495 0.7525 0.7431
C9 C 0.4823(13) 0.8328(5) 0.7268(7)
H11 H 0.4947 0.8308 0.8273
C10 C 0.3082(12) 0.8832(4) 0.6313(8)
H12 H 0.2004 0.9127 0.6652
C11 C 0.3005(10) 0.8878(4) 0.4919(8)
H13 H 0.1900 0.9247 0.4280
loop_
_geom_bond_atom_site_label_1
_geom_bond_atom_site_label_2
_geom_bond_site_symmetry_1
_geom_bond_site_symmetry_2
Cl1 O1 1_555 1_555
O2 Cl1 1_555 1_555
O3 Cl1 1_555 1_555
O4 Cl1 1_555 1_555
Cl2 O5 1_555 1_555
O6 Cl2 1_555 1_555
O7 Cl2 1_555 1_555
O8 Cl2 1_555 1_555
N1 H1 1_555 1_555
N2 H2 1_555 1_555
N3 H3 1_555 1_555
C1 N1 1_555 1_555
H4 C1 1_555 1_555
C2 C1 1_555 1_555
H5 C2 1_555 1_555
C3 C2 1_555 1_555
H6 C3 1_555 1_555
C4 C3 1_555 1_555
H7 C4 1_555 1_555
C5 N1 1_555 1_555
C6 N2 1_555 1_555
H8 C6 1_555 1_555
H9 C6 1_555 1_555
C7 N2 1_555 1_555
C8 C7 1_555 1_555
H10 C8 1_555 1_555
C9 C8 1_555 1_555
H11 C9 1_555 1_555
C10 C9 1_555 1_555
H12 C10 1_555 1_555
C11 N3 1_555 1_555
H13 C11 1_555 1_555
N3 C7 1_555 1_555
C4 C5 1_555 1_555
C5 C6 1_555 1_555
C10 C11 1_555 1_555

#END
