
#######################################################################
#
#                 Cambridge Crystallographic Data Centre
#                                CCDC 
#
#######################################################################
#
# If this CIF has been generated from an entry in the Cambridge 
# Structural Database, then it will include bibliographic, chemical, 
# crystal, experimental, refinement or atomic coordinate data resulting 
# from the CCDC's data processing and validation procedures.
#
#######################################################################

data_TIDDES
_chemical_formula_moiety         'C42 H38 N2'
_chemical_name_systematic        
7-(3,3-dimethyl-3H-indol-2-yl)-13,13-dimethyl-6,8-diphenyl-6,7,8,8a-tetrahydro-13H-benzo[3',4']cyclobuta[1',2':2,3]pyrido[1,2-a]indole
_symmetry_cell_setting           monoclinic
_symmetry_space_group_name_H-M   'P 21/c'
_symmetry_Int_Tables_number      14
_space_group_name_Hall           '-P 2ybc'
loop_
_symmetry_equiv_pos_site_id
_symmetry_equiv_pos_as_xyz
1 x,y,z
2 -x,1/2+y,1/2-z
3 -x,-y,-z
4 x,1/2-y,1/2+z
_cell_length_a                   21.3199(10)
_cell_length_b                   17.6128(8)
_cell_length_c                   17.2985(8)
_cell_angle_alpha                90
_cell_angle_beta                 95.500(3)
_cell_angle_gamma                90
_cell_volume                     6465.74
_exptl_crystal_description       block
_cell_formula_units_Z            8
loop_
_atom_site_label
_atom_site_type_symbol
_atom_site_fract_x
_atom_site_fract_y
_atom_site_fract_z
N1 N 0.45105(10) 0.65221(11) 0.84805(12)
N2 N 0.40184(10) 0.43148(13) 0.74625(13)
C1 C 0.45221(12) 0.58073(14) 0.80510(15)
H1 H 0.4534 0.5393 0.8430
C2 C 0.39272(12) 0.57062(15) 0.74966(15)
H2 H 0.3937 0.6096 0.7093
C3 C 0.51149(12) 0.57470(15) 0.76248(16)
C4 C 0.37936(13) 0.40077(16) 0.61583(17)
C5 C 0.39390(12) 0.37251(16) 0.68945(17)
C6 C 0.39203(12) 0.49443(16) 0.70921(16)
C7 C 0.33016(13) 0.66856(15) 0.81823(18)
H3 H 0.3015 0.6779 0.8583
C8 C 0.47695(13) 0.65355(15) 0.92510(16)
C9 C 0.52615(14) 0.63085(16) 0.71108(18)
H4 H 0.5001 0.6731 0.7037
C10 C 0.33136(13) 0.58495(15) 0.79173(17)
H5 H 0.2958 0.5788 0.7520
C11 C 0.41017(13) 0.76082(15) 0.91052(16)
C12 C 0.32001(13) 0.53018(16) 0.85625(19)
C13 C 0.39841(12) 0.70629(15) 0.83717(15)
C14 C 0.38358(14) 0.74970(16) 0.76068(16)
C15 C 0.45400(13) 0.71440(16) 0.96483(16)
C16 C 0.32234(15) 0.72455(16) 0.75126(18)
C17 C 0.52040(14) 0.60287(17) 0.96227(17)
H6 H 0.5352 0.5615 0.9359
C18 C 0.54081(14) 0.61624(18) 1.03968(18)
H7 H 0.5697 0.5833 1.0657
C19 C 0.39804(13) 0.29484(17) 0.70331(19)
H8 H 0.4070 0.2759 0.7533
C20 C 0.47559(15) 0.72742(19) 1.04067(18)
H9 H 0.4614 0.7693 1.0668
C21 C 0.37883(14) 0.48634(15) 0.62137(16)
C22 C 0.57884(16) 0.62523(19) 0.6706(2)
H10 H 0.5877 0.6629 0.6355
C23 C 0.44586(17) 0.83326(16) 0.88962(19)
H11 H 0.4524 0.8654 0.9345
H12 H 0.4215 0.8600 0.8487
H13 H 0.4859 0.8194 0.8726
C24 C 0.40665(16) 0.80187(17) 0.71144(18)
H14 H 0.4481 0.8188 0.7180
C25 C 0.55150(14) 0.51299(16) 0.77330(18)
H15 H 0.5425 0.4745 0.8073
C26 C 0.33982(14) 0.54433(17) 0.93353(19)
H16 H 0.3632 0.5878 0.9465
C27 C 0.37000(15) 0.35198(18) 0.55341(19)
H17 H 0.3609 0.3707 0.5033
C28 C 0.38838(15) 0.24650(18) 0.6400(2)
H18 H 0.3914 0.1943 0.6475
C29 C 0.37445(16) 0.2744(2) 0.5667(2)
H19 H 0.3678 0.2410 0.5252
C30 C 0.32560(17) 0.49520(19) 0.9918(2)
H20 H 0.3392 0.5060 1.0433
C31 C 0.61816(16) 0.5634(2) 0.6826(2)
H21 H 0.6538 0.5594 0.6558
C32 C 0.34907(15) 0.78404(19) 0.94518(19)
H22 H 0.3591 0.8168 0.9889
H23 H 0.3281 0.7395 0.9616
H24 H 0.3219 0.8103 0.9065
C33 C 0.29135(18) 0.4303(2) 0.9737(3)
H25 H 0.2814 0.3974 1.0127
C34 C 0.43106(17) 0.52155(18) 0.57817(19)
H26 H 0.4709 0.5000 0.5973
H27 H 0.4320 0.5754 0.5865
H28 H 0.4230 0.5113 0.5236
C35 C 0.31507(16) 0.52004(19) 0.5918(2)
H29 H 0.2827 0.4976 0.6193
H30 H 0.3066 0.5098 0.5373
H31 H 0.3158 0.5739 0.6002
C36 C 0.3023(2) 0.8043(2) 0.6427(2)
H32 H 0.2749 0.8244 0.6028
C37 C 0.27951(17) 0.7508(2) 0.6928(2)
H33 H 0.2380 0.7339 0.6869
C38 C 0.51884(16) 0.6777(2) 1.07839(18)
H34 H 0.5331 0.6859 1.1302
C39 C 0.3638(2) 0.82787(19) 0.6509(2)
H35 H 0.3775 0.8621 0.6152
C40 C 0.27189(19) 0.4146(2) 0.8973(3)
H36 H 0.2492 0.3705 0.8845
C41 C 0.28588(16) 0.46406(19) 0.8394(2)
H37 H 0.2722 0.4528 0.7880
C42 C 0.60498(16) 0.50818(19) 0.7338(2)
H38 H 0.6320 0.4670 0.7422
N3 N 0.06633(10) 0.35123(11) 0.37344(12)
C43 C 0.06135(12) 0.42187(14) 0.32771(15)
H39 H 0.0572 0.4637 0.3642
N4 N 0.09870(11) 0.57084(13) 0.26781(14)
C44 C 0.18881(13) 0.34826(15) 0.37680(17)
H40 H 0.2176 0.3423 0.4241
C45 C 0.06667(12) 0.29346(15) 0.49284(16)
C46 C 0.03955(12) 0.34989(14) 0.44468(15)
C47 C 0.18096(13) 0.43151(15) 0.34988(16)
H41 H 0.2178 0.4440 0.3226
C48 C 0.00249(13) 0.42244(16) 0.27021(16)
C49 C -0.00663(13) 0.39688(15) 0.46890(17)
H42 H -0.0249 0.4347 0.4367
C50 C 0.10281(13) 0.62530(17) 0.20716(18)
C51 C 0.20181(13) 0.29314(15) 0.31330(16)
C52 C 0.14274(13) 0.26036(15) 0.30888(15)
C53 C 0.11472(14) 0.24990(15) 0.45162(15)
C54 C 0.11882(13) 0.50785(17) 0.24172(16)
C55 C 0.12222(13) 0.43573(15) 0.28851(16)
H43 H 0.1261 0.3939 0.2520
C56 C 0.12347(12) 0.30327(14) 0.37995(15)
C57 C 0.17984(13) 0.48795(16) 0.41682(19)
C58 C 0.04747(14) 0.28256(16) 0.56560(16)
H44 H 0.0653 0.2443 0.5976
C59 C 0.15878(13) 0.46773(18) 0.48716(19)
H45 H 0.1452 0.4183 0.4944
C60 C 0.12461(15) 0.20468(16) 0.25535(16)
H46 H 0.0847 0.1830 0.2519
C61 C -0.02492(13) 0.38563(16) 0.54302(17)
H47 H -0.0556 0.4170 0.5607
C62 C -0.03956(14) 0.48204(17) 0.26874(19)
H48 H -0.0323 0.5218 0.3038
C63 C 0.24702(14) 0.27168(17) 0.26527(18)
H49 H 0.2868 0.2937 0.2688
C64 C 0.12452(16) 0.59434(17) 0.14242(19)
C65 C 0.00107(14) 0.32947(17) 0.59090(18)
H50 H -0.0123 0.3228 0.6401
C66 C -0.00864(15) 0.36396(17) 0.21720(18)
H51 H 0.0192 0.3232 0.2176
C67 C 0.16998(17) 0.18286(18) 0.20669(18)
H52 H 0.1600 0.1453 0.1697
C68 C 0.15745(14) 0.5198(2) 0.5473(2)
H53 H 0.1433 0.5052 0.5942
C69 C 0.09133(16) 0.7451(2) 0.1448(3)
H54 H 0.0811 0.7964 0.1456
C70 C 0.20113(14) 0.56219(18) 0.4079(2)
H55 H 0.2169 0.5765 0.3618
C71 C 0.19890(15) 0.61469(19) 0.4674(3)
H56 H 0.2120 0.6644 0.4605
C72 C 0.17596(15) 0.23451(19) 0.50239(17)
H57 H 0.1677 0.2015 0.5443
H58 H 0.1930 0.2816 0.5230
H59 H 0.2057 0.2108 0.4718
C73 C 0.08419(17) 0.17422(16) 0.42403(19)
H60 H 0.0795 0.1423 0.4681
H61 H 0.1105 0.1493 0.3898
H62 H 0.0435 0.1839 0.3970
C74 C 0.13809(18) 0.51166(17) 0.15945(18)
C75 C 0.08650(15) 0.70154(18) 0.2103(2)
H63 H 0.0728 0.7225 0.2551
C76 C -0.10328(19) 0.4259(2) 0.1634(2)
H64 H -0.1389 0.4270 0.1279
C77 C 0.22935(17) 0.21533(19) 0.21166(19)
H65 H 0.2581 0.1989 0.1781
C78 C 0.17734(16) 0.5933(2) 0.5367(3)
H66 H 0.1761 0.6286 0.5765
C79 C 0.11095(19) 0.7139(2) 0.0785(2)
H67 H 0.1126 0.7437 0.0343
C80 C -0.06158(18) 0.3662(2) 0.1632(2)
H68 H -0.0687 0.3273 0.1270
C81 C -0.09241(17) 0.4833(2) 0.2156(2)
H69 H -0.1206 0.5236 0.2156
C82 C 0.12825(19) 0.6387(2) 0.0769(2)
H70 H 0.1423 0.6179 0.0323
C83 C 0.0965(3) 0.4601(2) 0.1040(2)
H71 H 0.0530 0.4728 0.1068
H72 H 0.1034 0.4080 0.1188
H73 H 0.1072 0.4673 0.0518
C84 C 0.2083(2) 0.4925(2) 0.1569(3)
H74 H 0.2333 0.5250 0.1921
H75 H 0.2198 0.5001 0.1051
H76 H 0.2156 0.4405 0.1718
loop_
_geom_bond_atom_site_label_1
_geom_bond_atom_site_label_2
_geom_bond_site_symmetry_1
_geom_bond_site_symmetry_2
N1 C1 1_555 1_555
N2 C5 1_555 1_555
C1 H1 1_555 1_555
C2 C1 1_555 1_555
H2 C2 1_555 1_555
C3 C1 1_555 1_555
C4 C5 1_555 1_555
C5 C19 1_555 1_555
C6 N2 1_555 1_555
C7 H3 1_555 1_555
C8 N1 1_555 1_555
C9 C3 1_555 1_555
H4 C9 1_555 1_555
C10 C2 1_555 1_555
H5 C10 1_555 1_555
C11 C13 1_555 1_555
C12 C10 1_555 1_555
C13 N1 1_555 1_555
C14 C13 1_555 1_555
C15 C8 1_555 1_555
C16 C7 1_555 1_555
C17 C8 1_555 1_555
H6 C17 1_555 1_555
C18 C17 1_555 1_555
H7 C18 1_555 1_555
C19 H8 1_555 1_555
C20 C15 1_555 1_555
H9 C20 1_555 1_555
C21 C4 1_555 1_555
C22 C9 1_555 1_555
H10 C22 1_555 1_555
C23 C11 1_555 1_555
H11 C23 1_555 1_555
H12 C23 1_555 1_555
H13 C23 1_555 1_555
C24 C14 1_555 1_555
H14 C24 1_555 1_555
C25 C3 1_555 1_555
H15 C25 1_555 1_555
C26 C12 1_555 1_555
H16 C26 1_555 1_555
C27 C4 1_555 1_555
H17 C27 1_555 1_555
C28 C19 1_555 1_555
H18 C28 1_555 1_555
C29 C27 1_555 1_555
H19 C29 1_555 1_555
C30 C26 1_555 1_555
H20 C30 1_555 1_555
C31 C22 1_555 1_555
H21 C31 1_555 1_555
C32 C11 1_555 1_555
H22 C32 1_555 1_555
H23 C32 1_555 1_555
H24 C32 1_555 1_555
C33 C30 1_555 1_555
H25 C33 1_555 1_555
C34 C21 1_555 1_555
H26 C34 1_555 1_555
H27 C34 1_555 1_555
H28 C34 1_555 1_555
C35 C21 1_555 1_555
H29 C35 1_555 1_555
H30 C35 1_555 1_555
H31 C35 1_555 1_555
C36 H32 1_555 1_555
C37 C16 1_555 1_555
H33 C37 1_555 1_555
C38 C18 1_555 1_555
H34 C38 1_555 1_555
C39 C24 1_555 1_555
H35 C39 1_555 1_555
C40 C33 1_555 1_555
H36 C40 1_555 1_555
C41 C12 1_555 1_555
H37 C41 1_555 1_555
C42 C25 1_555 1_555
H38 C42 1_555 1_555
N3 C43 1_555 1_555
C43 H39 1_555 1_555
N4 C50 1_555 1_555
C44 H40 1_555 1_555
C45 C46 1_555 1_555
C46 N3 1_555 1_555
C47 C44 1_555 1_555
H41 C47 1_555 1_555
C48 C43 1_555 1_555
C49 C46 1_555 1_555
H42 C49 1_555 1_555
C50 C64 1_555 1_555
C51 C44 1_555 1_555
C52 C51 1_555 1_555
C53 C45 1_555 1_555
C54 N4 1_555 1_555
C55 C43 1_555 1_555
H43 C55 1_555 1_555
C56 N3 1_555 1_555
C57 C47 1_555 1_555
C58 C45 1_555 1_555
H44 C58 1_555 1_555
C59 C57 1_555 1_555
H45 C59 1_555 1_555
C60 C52 1_555 1_555
H46 C60 1_555 1_555
C61 C49 1_555 1_555
H47 C61 1_555 1_555
C62 C48 1_555 1_555
H48 C62 1_555 1_555
C63 C51 1_555 1_555
H49 C63 1_555 1_555
C64 C74 1_555 1_555
C65 C58 1_555 1_555
H50 C65 1_555 1_555
C66 C48 1_555 1_555
H51 C66 1_555 1_555
C67 C60 1_555 1_555
H52 C67 1_555 1_555
C68 C59 1_555 1_555
H53 C68 1_555 1_555
C69 H54 1_555 1_555
C70 C57 1_555 1_555
H55 C70 1_555 1_555
C71 C70 1_555 1_555
H56 C71 1_555 1_555
C72 C53 1_555 1_555
H57 C72 1_555 1_555
H58 C72 1_555 1_555
H59 C72 1_555 1_555
C73 C53 1_555 1_555
H60 C73 1_555 1_555
H61 C73 1_555 1_555
H62 C73 1_555 1_555
C74 C54 1_555 1_555
C75 C50 1_555 1_555
H63 C75 1_555 1_555
C76 H64 1_555 1_555
C77 C63 1_555 1_555
H65 C77 1_555 1_555
C78 C68 1_555 1_555
H66 C78 1_555 1_555
C79 C69 1_555 1_555
H67 C79 1_555 1_555
C80 C66 1_555 1_555
H68 C80 1_555 1_555
C81 C62 1_555 1_555
H69 C81 1_555 1_555
C82 C64 1_555 1_555
H70 C82 1_555 1_555
C83 C74 1_555 1_555
H71 C83 1_555 1_555
H72 C83 1_555 1_555
H73 C83 1_555 1_555
C84 C74 1_555 1_555
H74 C84 1_555 1_555
H75 C84 1_555 1_555
H76 C84 1_555 1_555
C2 C6 1_555 1_555
C6 C21 1_555 1_555
C7 C10 1_555 1_555
C7 C13 1_555 1_555
C11 C15 1_555 1_555
C14 C16 1_555 1_555
C20 C38 1_555 1_555
C28 C29 1_555 1_555
C31 C42 1_555 1_555
C36 C37 1_555 1_555
C36 C39 1_555 1_555
C40 C41 1_555 1_555
C44 C56 1_555 1_555
C47 C55 1_555 1_555
C52 C56 1_555 1_555
C53 C56 1_555 1_555
C54 C55 1_555 1_555
C61 C65 1_555 1_555
C67 C77 1_555 1_555
C69 C75 1_555 1_555
C71 C78 1_555 1_555
C76 C80 1_555 1_555
C76 C81 1_555 1_555
C79 C82 1_555 1_555

#END
