
#######################################################################
#
#                 Cambridge Crystallographic Data Centre
#                                CCDC 
#
#######################################################################
#
# If this CIF has been generated from an entry in the Cambridge 
# Structural Database, then it will include bibliographic, chemical, 
# crystal, experimental, refinement or atomic coordinate data resulting 
# from the CCDC's data processing and validation procedures.
#
#######################################################################

data_TIDDIV
_chemical_formula_moiety         'C11 H13 N3 2+,2(Cl1 1-)'
_chemical_name_systematic        
'2-((Pyridinium-2-ylmethyl)amino)pyridinium dichloride'
_symmetry_cell_setting           orthorhombic
_symmetry_space_group_name_H-M   'P c a 21'
_symmetry_Int_Tables_number      29
_space_group_name_Hall           'P 2c -2ac'
loop_
_symmetry_equiv_pos_site_id
_symmetry_equiv_pos_as_xyz
1 x,y,z
2 -x,-y,1/2+z
3 1/2-x,y,1/2+z
4 1/2+x,-y,z
_cell_length_a                   10.0145(4)
_cell_length_b                   8.8239(3)
_cell_length_c                   13.7249(8)
_cell_angle_alpha                90
_cell_angle_beta                 90
_cell_angle_gamma                90
_cell_volume                     1212.83
_exptl_crystal_colour            yellowish
_exptl_crystal_description       prism
_cell_formula_units_Z            4
loop_
_atom_site_label
_atom_site_type_symbol
_atom_site_fract_x
_atom_site_fract_y
_atom_site_fract_z
Cl1 Cl 0.16418(7) 1.41587(8) 0.83981(8)
Cl2 Cl 0.14784(7) 0.99605(9) 0.58019(7)
N1 N 0.0419(2) 1.1013(3) 0.8332(3)
H1 H 0.063(3) 1.1956(15) 0.828(3)
N2 N -0.1294(3) 1.1299(3) 0.7198(2)
H2 H -0.189(3) 1.090(4) 0.683(2)
N3 N 0.0319(3) 1.3133(3) 0.6014(2)
H3 H 0.044(3) 1.2161(13) 0.604(3)
C1 C -0.0548(3) 1.0416(4) 0.7771(3)
C2 C -0.0733(3) 0.8844(4) 0.7801(3)
H4 H -0.1412 0.8400 0.7438
C3 C 0.0070(3) 0.7970(3) 0.8356(3)
H5 H -0.0041 0.6923 0.8356
C4 C 0.1066(4) 0.8624(5) 0.8929(3)
H6 H 0.1613 0.8027 0.9319
C5 C 0.1216(4) 1.0142(5) 0.8903(3)
H7 H 0.1874 1.0598 0.9281
C6 C -0.1429(3) 1.2932(4) 0.7274(3)
H8 H -0.1172 1.3239 0.7926
H9 H -0.2361 1.3196 0.7187
C7 C -0.0612(3) 1.3813(4) 0.6553(3)
C8 C -0.0788(3) 1.5359(4) 0.6454(3)
H10 H -0.1439 1.5854 0.6817
C9 C 0.0004(3) 1.6163(4) 0.5818(3)
H11 H -0.0105 1.7205 0.5751
C10 C 0.0956(4) 1.5414(5) 0.5282(3)
H12 H 0.1498 1.5944 0.4851
C11 C 0.1102(4) 1.3877(5) 0.5389(3)
H13 H 0.1742 1.3358 0.5028
loop_
_geom_bond_atom_site_label_1
_geom_bond_atom_site_label_2
_geom_bond_site_symmetry_1
_geom_bond_site_symmetry_2
N1 H1 1_555 1_555
N2 H2 1_555 1_555
N3 H3 1_555 1_555
C1 N1 1_555 1_555
C2 C1 1_555 1_555
H4 C2 1_555 1_555
C3 C2 1_555 1_555
H5 C3 1_555 1_555
C4 C3 1_555 1_555
H6 C4 1_555 1_555
C5 N1 1_555 1_555
H7 C5 1_555 1_555
C6 N2 1_555 1_555
H8 C6 1_555 1_555
H9 C6 1_555 1_555
C7 N3 1_555 1_555
C8 C7 1_555 1_555
H10 C8 1_555 1_555
C9 C8 1_555 1_555
H11 C9 1_555 1_555
C10 C9 1_555 1_555
H12 C10 1_555 1_555
C11 N3 1_555 1_555
H13 C11 1_555 1_555
N2 C1 1_555 1_555
C4 C5 1_555 1_555
C6 C7 1_555 1_555
C10 C11 1_555 1_555

#END
