
#######################################################################
#
#                 Cambridge Crystallographic Data Centre
#                                CCDC 
#
#######################################################################
#
# If this CIF has been generated from an entry in the Cambridge 
# Structural Database, then it will include bibliographic, chemical, 
# crystal, experimental, refinement or atomic coordinate data resulting 
# from the CCDC's data processing and validation procedures.
#
#######################################################################

data_TIDDER
_chemical_formula_moiety         'C11 H13 N3 2+,2(Cl1 1-)'
_chemical_name_systematic        
'2-((Pyridinium-3-ylmethyl)amino)pyridinium dichloride'
_symmetry_cell_setting           monoclinic
_symmetry_space_group_name_H-M   'P 21/n'
_symmetry_Int_Tables_number      14
_space_group_name_Hall           '-P 2yn'
loop_
_symmetry_equiv_pos_site_id
_symmetry_equiv_pos_as_xyz
1 x,y,z
2 1/2-x,1/2+y,1/2-z
3 -x,-y,-z
4 1/2+x,1/2-y,1/2+z
_cell_length_a                   10.0153(5)
_cell_length_b                   9.8465(5)
_cell_length_c                   12.7219(6)
_cell_angle_alpha                90
_cell_angle_beta                 100.535(5)
_cell_angle_gamma                90
_cell_volume                     1233.43
_exptl_crystal_colour            yellowish
_exptl_crystal_description       prism
_cell_formula_units_Z            4
loop_
_atom_site_label
_atom_site_type_symbol
_atom_site_fract_x
_atom_site_fract_y
_atom_site_fract_z
Cl1 Cl 0.48013(6) 0.04370(6) 0.78154(4)
Cl2 Cl 0.98422(7) -0.07305(7) 0.28434(5)
N1 N 0.68445(19) -0.16690(18) 0.90069(13)
H1 H 0.638(2) -0.1101(19) 0.8569(15)
N2 N 0.8057(2) -0.2432(2) 0.77299(14)
H2 H 0.867(2) -0.298(2) 0.758(2)
N3 N 0.8127(2) -0.2211(2) 0.41675(15)
H3 H 0.863(2) -0.177(2) 0.3803(19)
C1 C 0.7806(2) -0.2469(2) 0.87216(15)
C2 C 0.8529(2) -0.3340(2) 0.95017(17)
H4 H 0.9228 -0.3878 0.9341
C3 C 0.8198(3) -0.3393(3) 1.04935(19)
H5 H 0.8668 -0.3972 1.1009
C4 C 0.7150(3) -0.2574(3) 1.07379(19)
H6 H 0.6909 -0.2617 1.1409
C5 C 0.6505(3) -0.1734(2) 0.99928(17)
H7 H 0.5813 -0.1183 1.0150
C6 C 0.7344(3) -0.1580(2) 0.68817(16)
H8 H 0.7766 -0.0690 0.6920
H9 H 0.6409 -0.1465 0.6972
C7 C 0.8145(2) -0.1654(2) 0.51338(17)
H10 H 0.8680 -0.0895 0.5343
C8 C 0.7373(2) -0.2205(2) 0.58098(16)
C9 C 0.6604(2) -0.3339(2) 0.54693(18)
H11 H 0.6075 -0.3735 0.5916
C10 C 0.6610(3) -0.3888(3) 0.44798(19)
H12 H 0.6092 -0.4653 0.4254
C11 C 0.7382(3) -0.3301(3) 0.38357(18)
H13 H 0.7392 -0.3660 0.3161
loop_
_geom_bond_atom_site_label_1
_geom_bond_atom_site_label_2
_geom_bond_site_symmetry_1
_geom_bond_site_symmetry_2
N1 H1 1_555 1_555
N2 H2 1_555 1_555
N3 H3 1_555 1_555
C1 N1 1_555 1_555
C2 C1 1_555 1_555
H4 C2 1_555 1_555
C3 C2 1_555 1_555
H5 C3 1_555 1_555
C4 C3 1_555 1_555
H6 C4 1_555 1_555
C5 N1 1_555 1_555
H7 C5 1_555 1_555
C6 N2 1_555 1_555
H8 C6 1_555 1_555
H9 C6 1_555 1_555
C7 N3 1_555 1_555
H10 C7 1_555 1_555
C8 C6 1_555 1_555
C9 C8 1_555 1_555
H11 C9 1_555 1_555
C10 C9 1_555 1_555
H12 C10 1_555 1_555
C11 N3 1_555 1_555
H13 C11 1_555 1_555
N2 C1 1_555 1_555
C4 C5 1_555 1_555
C7 C8 1_555 1_555
C10 C11 1_555 1_555

#END
