
#######################################################################
#
#                 Cambridge Crystallographic Data Centre
#                                CCDC 
#
#######################################################################
#
# If this CIF has been generated from an entry in the Cambridge 
# Structural Database, then it will include bibliographic, chemical, 
# crystal, experimental, refinement or atomic coordinate data resulting 
# from the CCDC's data processing and validation procedures.
#
#######################################################################

data_TIDFOE
_chemical_formula_moiety         'C22 H19 N1 O1'
_chemical_name_systematic        3-phenyl-10-propylacridin-9(10H)-one
_symmetry_cell_setting           monoclinic
_symmetry_space_group_name_H-M   'P 21/n'
_symmetry_Int_Tables_number      14
_space_group_name_Hall           '-P 2yn'
loop_
_symmetry_equiv_pos_site_id
_symmetry_equiv_pos_as_xyz
1 x,y,z
2 1/2-x,1/2+y,1/2-z
3 -x,-y,-z
4 1/2+x,1/2-y,1/2+z
_cell_length_a                   11.3662(4)
_cell_length_b                   12.1409(3)
_cell_length_c                   12.5714(4)
_cell_angle_alpha                90
_cell_angle_beta                 113.555(4)
_cell_angle_gamma                90
_cell_volume                     1590.25
_exptl_crystal_colour            'light brown'
_exptl_crystal_description       block
_cell_formula_units_Z            4
loop_
_atom_site_label
_atom_site_type_symbol
_atom_site_fract_x
_atom_site_fract_y
_atom_site_fract_z
O1 O 0.18660(9) 0.54888(8) 0.27740(8)
N1 N 0.44674(10) 0.55765(9) 0.61805(9)
C1 C 0.42651(11) 0.65153(10) 0.54957(11)
C2 C 0.49088(12) 0.75130(11) 0.59535(11)
H1 H 0.5448 0.7557 0.6736
C3 C 0.47449(12) 0.84219(11) 0.52512(12)
H2 H 0.5178 0.9071 0.5569
C4 C 0.39390(12) 0.83884(11) 0.40675(11)
H3 H 0.3849 0.9000 0.3596
C5 C 0.32825(12) 0.74277(11) 0.36182(11)
H4 H 0.2743 0.7397 0.2835
C6 C 0.34099(11) 0.64934(10) 0.43168(11)
C7 C 0.26341(12) 0.55168(10) 0.38062(11)
C8 C 0.28132(11) 0.45882(10) 0.45967(11)
C9 C 0.20675(12) 0.36319(11) 0.42025(11)
H5 H 0.1450 0.3608 0.3446
C10 C 0.22306(12) 0.27304(11) 0.49107(12)
H6 H 0.1741 0.2100 0.4628
C11 C 0.31437(12) 0.27680(11) 0.60658(11)
C12 C 0.38669(12) 0.37141(11) 0.64736(11)
H7 H 0.4458 0.3740 0.7241
C13 C 0.37291(11) 0.46381(10) 0.57557(11)
C14 C 0.54105(12) 0.56148(10) 0.73898(11)
H8 H 0.6107 0.6104 0.7443
H9 H 0.5768 0.4885 0.7623
C15 C 0.48212(12) 0.60139(11) 0.82197(11)
H10 H 0.4473 0.6747 0.7993
H11 H 0.4119 0.5530 0.8162
C16 C 0.57986(14) 0.60398(14) 0.94708(12)
H12 H 0.6473 0.6548 0.9540
H13 H 0.6154 0.5317 0.9696
H14 H 0.5386 0.6271 0.9967
C17 C 0.33391(11) 0.18269(11) 0.68734(11)
C18 C 0.34368(12) 0.07474(11) 0.65297(12)
H15 H 0.3352 0.0609 0.5775
C19 C 0.36597(13) -0.01219(11) 0.73090(13)
H16 H 0.3733 -0.0836 0.7075
C20 C 0.37723(12) 0.00740(11) 0.84329(13)
H17 H 0.3918 -0.0507 0.8952
C21 C 0.36660(12) 0.11432(12) 0.87801(12)
H18 H 0.3738 0.1277 0.9532
C22 C 0.34533(12) 0.20115(11) 0.80092(11)
H19 H 0.3386 0.2724 0.8250
loop_
_geom_bond_atom_site_label_1
_geom_bond_atom_site_label_2
_geom_bond_site_symmetry_1
_geom_bond_site_symmetry_2
O1 C7 1_555 1_555
N1 C1 1_555 1_555
C1 C2 1_555 1_555
C2 H1 1_555 1_555
C3 C2 1_555 1_555
H2 C3 1_555 1_555
C4 C3 1_555 1_555
H3 C4 1_555 1_555
C5 C4 1_555 1_555
H4 C5 1_555 1_555
C6 C1 1_555 1_555
C7 C6 1_555 1_555
C8 C7 1_555 1_555
C9 C8 1_555 1_555
H5 C9 1_555 1_555
C10 C9 1_555 1_555
H6 C10 1_555 1_555
C11 C10 1_555 1_555
C12 C11 1_555 1_555
H7 C12 1_555 1_555
C13 N1 1_555 1_555
C14 N1 1_555 1_555
H8 C14 1_555 1_555
H9 C14 1_555 1_555
C15 C14 1_555 1_555
H10 C15 1_555 1_555
H11 C15 1_555 1_555
C16 C15 1_555 1_555
H12 C16 1_555 1_555
H13 C16 1_555 1_555
H14 C16 1_555 1_555
C17 C11 1_555 1_555
C18 C17 1_555 1_555
H15 C18 1_555 1_555
C19 C18 1_555 1_555
H16 C19 1_555 1_555
C20 C19 1_555 1_555
H17 C20 1_555 1_555
C21 C20 1_555 1_555
H18 C21 1_555 1_555
C22 C17 1_555 1_555
H19 C22 1_555 1_555
C5 C6 1_555 1_555
C8 C13 1_555 1_555
C12 C13 1_555 1_555
C21 C22 1_555 1_555

#END
