
#######################################################################
#
#                 Cambridge Crystallographic Data Centre
#                                CCDC 
#
#######################################################################
#
# If this CIF has been generated from an entry in the Cambridge 
# Structural Database, then it will include bibliographic, chemical, 
# crystal, experimental, refinement or atomic coordinate data resulting 
# from the CCDC's data processing and validation procedures.
#
#######################################################################

data_TIDFUI
_chemical_compound_source        'Schisandra chinensis'
_chemical_formula_moiety         'C31 H40 O11'
_chemical_name_systematic        Pre-schisanartanin
_chemical_properties_biological  'potential anti-HIV activity'
_symmetry_cell_setting           monoclinic
_symmetry_space_group_name_H-M   'P 21'
_symmetry_Int_Tables_number      4
_space_group_name_Hall           'P 2yb'
loop_
_symmetry_equiv_pos_site_id
_symmetry_equiv_pos_as_xyz
1 x,y,z
2 -x,1/2+y,-z
_cell_length_a                   11.132(1)
_cell_length_b                   12.407(1)
_cell_length_c                   11.655(1)
_cell_angle_alpha                90
_cell_angle_beta                 107.67(1)
_cell_angle_gamma                90
_cell_volume                     1533.78
_exptl_crystal_colour            colorless
_exptl_crystal_description       block
_chemical_melting_point          178-179deg.C
_cell_formula_units_Z            2
loop_
_atom_site_label
_atom_site_type_symbol
_atom_site_fract_x
_atom_site_fract_y
_atom_site_fract_z
O1 O -0.8987(3) -0.2202(3) 0.1698(3)
O2 O -0.7449(2) -0.3417(2) 0.1947(2)
O3 O -0.5350(3) -0.2467(3) 0.4147(3)
O4 O -0.4321(2) -0.3679(3) 0.1648(3)
H1 H -0.4030 -0.3301 0.1219
O5 O -0.7512(2) -0.47314(19) 0.0078(2)
O6 O -0.6673(4) -0.7402(3) -0.0192(4)
O7 O -0.8865(3) -0.6121(3) -0.0032(3)
H2 H -0.9421 -0.6408 -0.0576
O8 O -0.8872(3) -0.1734(3) -0.1019(3)
O9 O -0.7242(4) -0.0578(5) -0.0465(5)
O10 O -0.9019(3) -0.2606(3) -0.3271(3)
O11 O -1.0402(5) -0.2537(7) -0.5135(4)
C1 C -0.5621(4) -0.2342(3) 0.2872(4)
H3 H -0.4888 -0.2082 0.2655
C2 C -0.6772(5) -0.1628(4) 0.2357(4)
H4 H -0.6879 -0.1134 0.2964
H5 H -0.6691 -0.1213 0.1679
C3 C -0.7872(4) -0.2396(4) 0.1962(4)
C4 C -0.4758(4) -0.3514(4) 0.4474(4)
C5 C -0.5581(4) -0.4248(3) 0.3420(3)
H6 H -0.6327 -0.4446 0.3653
C6 C -0.4962(4) -0.5310(4) 0.3257(4)
H7 H -0.4749 -0.5712 0.4005
H8 H -0.4185 -0.5160 0.3073
C7 C -0.5820(5) -0.6003(4) 0.2246(4)
H9 H -0.6687 -0.5883 0.2225
H10 H -0.5627 -0.6756 0.2443
C8 C -0.5711(4) -0.5789(3) 0.0974(4)
H11 H -0.4867 -0.5969 0.0935
C9 C -0.6140(3) -0.4681(3) 0.0403(3)
C10 C -0.6066(3) -0.3472(3) 0.2318(3)
C11 C -0.7920(4) -0.5746(3) -0.0481(3)
C12 C -0.6728(5) -0.6458(3) 0.0063(4)
C13 C -0.5776(4) -0.4576(4) -0.0766(3)
H12 H -0.5588 -0.5285 -0.1017
H13 H -0.5019 -0.4141 -0.0610
C14 C -0.6847(4) -0.4050(3) -0.1811(3)
H14 H -0.7255 -0.3495 -0.1476
H15 H -0.6470 -0.3703 -0.2364
C15 C -0.7859(4) -0.4856(3) -0.2524(3)
C16 C -0.8383(4) -0.5674(3) -0.1855(4)
H16 H -0.8548 -0.6377 -0.2254
C17 C -0.9222(4) -0.4768(4) -0.2566(4)
H17 H -0.9815 -0.5006 -0.3331
C18 C -0.7633(6) -0.5280(5) -0.3667(4)
H18 H -0.8298 -0.5769 -0.4065
H19 H -0.6839 -0.5651 -0.3464
H20 H -0.7621 -0.4688 -0.4194
C19 C -0.5670(3) -0.3667(3) 0.1196(3)
H21 H -0.5918 -0.3032 0.0677
C20 C -0.9717(4) -0.3860(4) -0.1978(4)
H22 H -0.9088 -0.3691 -0.1207
C21 C -1.0012(4) -0.2831(4) -0.2741(4)
H23 H -1.0811 -0.2923 -0.3382
C22 C -1.0093(4) -0.1855(4) -0.2003(4)
H24 H -1.0769 -0.1968 -0.1639
C23 C -1.0295(5) -0.0778(4) -0.2643(5)
H25 H -1.1034 -0.0541 -0.3204
C24 C -0.9135(6) -0.0195(5) -0.2222(6)
C25 C -0.8294(5) -0.0806(5) -0.1154(4)
C26 C -0.9011(9) 0.0966(6) -0.2223(12)
H26 H -0.9593 0.1255 -0.2942
H27 H -0.8166 0.1153 -0.2197
H28 H -0.9191 0.1260 -0.1531
C27 C -0.9358(5) -0.2454(6) -0.4464(5)
C28 C -0.8274(7) -0.2132(7) -0.4858(6)
H29 H -0.8548 -0.2012 -0.5712
H30 H -0.7651 -0.2693 -0.4666
H31 H -0.7916 -0.1480 -0.4452
C29 C -1.0944(5) -0.4207(5) -0.1740(6)
H32 H -1.0796 -0.4852 -0.1262
H33 H -1.1580 -0.4343 -0.2492
H34 H -1.1223 -0.3644 -0.1316
C30 C -0.4903(6) -0.3809(6) 0.5688(5)
H35 H -0.4383 -0.3344 0.6296
H36 H -0.4649 -0.4544 0.5874
H37 H -0.5768 -0.3725 0.5661
C31 C -0.3356(4) -0.3435(6) 0.4608(5)
H38 H -0.2953 -0.2974 0.5275
H39 H -0.3247 -0.3143 0.3884
H40 H -0.2985 -0.4140 0.4750
loop_
_geom_bond_atom_site_label_1
_geom_bond_atom_site_label_2
_geom_bond_site_symmetry_1
_geom_bond_site_symmetry_2
O1 C3 1_555 1_555
O2 C3 1_555 1_555
O3 C1 1_555 1_555
O4 H1 1_555 1_555
O5 C9 1_555 1_555
O6 C12 1_555 1_555
O7 H2 1_555 1_555
O8 C22 1_555 1_555
O9 C25 1_555 1_555
O10 C21 1_555 1_555
O11 C27 1_555 1_555
C1 H3 1_555 1_555
C2 C1 1_555 1_555
H4 C2 1_555 1_555
H5 C2 1_555 1_555
C3 C2 1_555 1_555
C4 O3 1_555 1_555
C5 C4 1_555 1_555
H6 C5 1_555 1_555
C6 C5 1_555 1_555
H7 C6 1_555 1_555
H8 C6 1_555 1_555
C7 C6 1_555 1_555
H9 C7 1_555 1_555
H10 C7 1_555 1_555
C8 C7 1_555 1_555
H11 C8 1_555 1_555
C9 C8 1_555 1_555
C10 O2 1_555 1_555
C11 O5 1_555 1_555
C12 C8 1_555 1_555
C13 C9 1_555 1_555
H12 C13 1_555 1_555
H13 C13 1_555 1_555
C14 C13 1_555 1_555
H14 C14 1_555 1_555
H15 C14 1_555 1_555
C15 C14 1_555 1_555
C16 C11 1_555 1_555
H16 C16 1_555 1_555
C17 C15 1_555 1_555
H17 C17 1_555 1_555
C18 C15 1_555 1_555
H18 C18 1_555 1_555
H19 C18 1_555 1_555
H20 C18 1_555 1_555
C19 O4 1_555 1_555
H21 C19 1_555 1_555
C20 C17 1_555 1_555
H22 C20 1_555 1_555
C21 C20 1_555 1_555
H23 C21 1_555 1_555
C22 C21 1_555 1_555
H24 C22 1_555 1_555
C23 C22 1_555 1_555
H25 C23 1_555 1_555
C24 C23 1_555 1_555
C25 O8 1_555 1_555
C26 C24 1_555 1_555
H26 C26 1_555 1_555
H27 C26 1_555 1_555
H28 C26 1_555 1_555
C27 O10 1_555 1_555
C28 C27 1_555 1_555
H29 C28 1_555 1_555
H30 C28 1_555 1_555
H31 C28 1_555 1_555
C29 C20 1_555 1_555
H32 C29 1_555 1_555
H33 C29 1_555 1_555
H34 C29 1_555 1_555
C30 C4 1_555 1_555
H35 C30 1_555 1_555
H36 C30 1_555 1_555
H37 C30 1_555 1_555
C31 C4 1_555 1_555
H38 C31 1_555 1_555
H39 C31 1_555 1_555
H40 C31 1_555 1_555
O7 C11 1_555 1_555
C1 C10 1_555 1_555
C5 C10 1_555 1_555
C9 C19 1_555 1_555
C10 C19 1_555 1_555
C11 C12 1_555 1_555
C15 C16 1_555 1_555
C16 C17 1_555 1_555
C24 C25 1_555 1_555

#END
