
#######################################################################
#
#                 Cambridge Crystallographic Data Centre
#                                CCDC 
#
#######################################################################
#
# If this CIF has been generated from an entry in the Cambridge 
# Structural Database, then it will include bibliographic, chemical, 
# crystal, experimental, refinement or atomic coordinate data resulting 
# from the CCDC's data processing and validation procedures.
#
#######################################################################

data_TIDFOC
_chemical_formula_moiety         'C24 H18 F6 N2 O1 S1'
_chemical_name_systematic        
1-(2-Methyl-5-(4-methoxyphenyl)-3-thienyl)-2-(2-cyano-1,5-dimethyl-3-pyrrolyl)hexafluorocyclopentene
_symmetry_cell_setting           monoclinic
_symmetry_space_group_name_H-M   'P 21/c'
_symmetry_Int_Tables_number      14
_space_group_name_Hall           '-P 2ybc'
loop_
_symmetry_equiv_pos_site_id
_symmetry_equiv_pos_as_xyz
1 x,y,z
2 -x,1/2+y,1/2-z
3 -x,-y,-z
4 x,1/2-y,1/2+z
_cell_length_a                   23.120(3)
_cell_length_b                   8.9474(11)
_cell_length_c                   11.4416(13)
_cell_angle_alpha                90
_cell_angle_beta                 101.8350(10)
_cell_angle_gamma                90
_cell_volume                     2316.54
_exptl_crystal_colour            yellow
_exptl_crystal_description       block
_chemical_melting_point          '409 K'
_cell_formula_units_Z            4
loop_
_atom_site_label
_atom_site_type_symbol
_atom_site_fract_x
_atom_site_fract_y
_atom_site_fract_z
F1 F 0.11071(12) 0.8605(3) 0.5361(5)
F2 F 0.16699(19) 0.8298(4) 0.4113(3)
F3 F 0.1973(4) 0.9733(5) 0.6929(5)
F4 F 0.2315(2) 1.0219(4) 0.5333(4)
F5 F 0.2924(2) 0.8353(5) 0.7614(4)
F6 F 0.30605(15) 0.8168(5) 0.5775(4)
S1 S 0.32497(3) 0.26634(8) 0.66672(6)
O1 O 0.50948(10) 0.1551(3) 1.1898(2)
N1 N -0.03397(14) 0.3437(6) 0.2735(3)
N2 N 0.07651(9) 0.3470(3) 0.5331(2)
C1 C 0.00625(14) 0.3786(5) 0.3429(3)
C2 C 0.05662(11) 0.4252(4) 0.4291(3)
C3 C 0.09143(11) 0.5484(3) 0.4288(3)
H1 H 0.0877 0.6205 0.3692
C4 C 0.13404(11) 0.5453(3) 0.5361(2)
C5 C 0.12348(11) 0.4201(3) 0.5994(2)
C6 C 0.15167(14) 0.3692(4) 0.7223(3)
H2 H 0.1215 0.3443 0.7656
H3 H 0.1760 0.4479 0.7631
H4 H 0.1756 0.2828 0.7171
C7 C 0.05014(16) 0.2075(4) 0.5639(4)
H5 H 0.0755 0.1631 0.6321
H6 H 0.0454 0.1398 0.4975
H7 H 0.0122 0.2281 0.5823
C8 C 0.17937(11) 0.6596(3) 0.5717(2)
C9 C 0.16403(15) 0.8163(4) 0.5369(4)
C10 C 0.21474(16) 0.9112(4) 0.6016(3)
C11 C 0.26321(15) 0.8021(4) 0.6497(3)
C12 C 0.23642(12) 0.6498(3) 0.6305(2)
C13 C 0.27319(11) 0.5174(3) 0.6676(2)
C14 C 0.27580(10) 0.3968(3) 0.5947(2)
C15 C 0.34277(10) 0.3720(3) 0.7955(2)
C16 C 0.31183(11) 0.5023(3) 0.7818(2)
H8 H 0.3155 0.5747 0.8411
C17 C 0.24534(13) 0.3699(4) 0.4675(2)
H9 H 0.2070 0.3273 0.4655
H10 H 0.2685 0.3022 0.4307
H11 H 0.2410 0.4629 0.4248
C18 C 0.38640(10) 0.3172(3) 0.8989(2)
C19 C 0.39846(12) 0.1649(3) 0.9161(3)
H12 H 0.3787 0.0962 0.8610
C20 C 0.43935(13) 0.1149(4) 1.0139(3)
H13 H 0.4465 0.0131 1.0246
C21 C 0.46959(12) 0.2156(4) 1.0956(3)
C22 C 0.45848(12) 0.3664(4) 1.0805(3)
H14 H 0.4786 0.4347 1.1355
C23 C 0.41702(11) 0.4157(3) 0.9823(2)
H15 H 0.4097 0.5176 0.9725
C24 C 0.54125(17) 0.2553(5) 1.2757(3)
H16 H 0.5632 0.3240 1.2371
H17 H 0.5680 0.1999 1.3354
H18 H 0.5140 0.3098 1.3127
F7? F 0.1266(4) 0.8624(10) 0.6211(10)
F8? F 0.1340(7) 0.8638(15) 0.4386(10)
F9? F 0.2056(13) 1.0359(19) 0.660(2)
F10? F 0.2317(7) 0.9562(14) 0.5028(10)
F11? F 0.2669(6) 0.8182(19) 0.7701(9)
F12? F 0.3183(4) 0.8177(18) 0.6484(16)
loop_
_geom_bond_atom_site_label_1
_geom_bond_atom_site_label_2
_geom_bond_site_symmetry_1
_geom_bond_site_symmetry_2
F1 C9 1_555 1_555
F2 C9 1_555 1_555
F3 C10 1_555 1_555
F4 C10 1_555 1_555
F5 C11 1_555 1_555
F6 C11 1_555 1_555
S1 C14 1_555 1_555
O1 C21 1_555 1_555
N1 C1 1_555 1_555
N2 C2 1_555 1_555
C1 C2 1_555 1_555
C2 C3 1_555 1_555
C3 H1 1_555 1_555
C4 C3 1_555 1_555
C5 N2 1_555 1_555
C6 C5 1_555 1_555
H2 C6 1_555 1_555
H3 C6 1_555 1_555
H4 C6 1_555 1_555
C7 N2 1_555 1_555
H5 C7 1_555 1_555
H6 C7 1_555 1_555
H7 C7 1_555 1_555
C8 C4 1_555 1_555
C9 C8 1_555 1_555
C10 C9 1_555 1_555
C11 C10 1_555 1_555
C12 C8 1_555 1_555
C13 C12 1_555 1_555
C14 C13 1_555 1_555
C15 S1 1_555 1_555
C16 C13 1_555 1_555
H8 C16 1_555 1_555
C17 C14 1_555 1_555
H9 C17 1_555 1_555
H10 C17 1_555 1_555
H11 C17 1_555 1_555
C18 C15 1_555 1_555
C19 C18 1_555 1_555
H12 C19 1_555 1_555
C20 C19 1_555 1_555
H13 C20 1_555 1_555
C21 C20 1_555 1_555
C22 C21 1_555 1_555
H14 C22 1_555 1_555
C23 C18 1_555 1_555
H15 C23 1_555 1_555
C24 O1 1_555 1_555
H16 C24 1_555 1_555
H17 C24 1_555 1_555
H18 C24 1_555 1_555
C4 C5 1_555 1_555
C11 C12 1_555 1_555
C15 C16 1_555 1_555
C22 C23 1_555 1_555

#END
