
#######################################################################
#
#                 Cambridge Crystallographic Data Centre
#                                CCDC 
#
#######################################################################
#
# If this CIF has been generated from an entry in the Cambridge 
# Structural Database, then it will include bibliographic, chemical, 
# crystal, experimental, refinement or atomic coordinate data resulting 
# from the CCDC's data processing and validation procedures.
#
#######################################################################

data_TIDFIY
_chemical_formula_moiety         'C25 H23 N1 O1'
_chemical_name_systematic        2-[2-(diphenylmethyl)-1H-indol-3-yl]butanal
_symmetry_cell_setting           monoclinic
_symmetry_space_group_name_H-M   'P 21/c'
_symmetry_Int_Tables_number      14
_space_group_name_Hall           '-P 2ybc'
loop_
_symmetry_equiv_pos_site_id
_symmetry_equiv_pos_as_xyz
1 x,y,z
2 -x,1/2+y,1/2-z
3 -x,-y,-z
4 x,1/2-y,1/2+z
_cell_length_a                   8.3683(5)
_cell_length_b                   16.2170(10)
_cell_length_c                   15.0187(10)
_cell_angle_alpha                90
_cell_angle_beta                 101.183(3)
_cell_angle_gamma                90
_cell_volume                     1999.47
_exptl_crystal_colour            colorless
_exptl_crystal_description       plate
_cell_formula_units_Z            4
loop_
_atom_site_label
_atom_site_type_symbol
_atom_site_fract_x
_atom_site_fract_y
_atom_site_fract_z
O1 O -0.0826(3) 0.70375(19) 0.6284(2)
N1 N 0.5719(2) 0.69499(12) 0.63978(14)
H1 H 0.663264 0.673012 0.634825
C1 C 0.4951(3) 0.58184(14) 0.73765(15)
H2 H 0.452357 0.587376 0.793667
C2 C 0.4639(3) 0.66273(14) 0.68910(16)
C3 C 0.3314(3) 0.71391(15) 0.68100(17)
C4 C 0.3583(3) 0.78138(14) 0.62363(16)
C5 C 0.2712(3) 0.85209(16) 0.58971(18)
H3 H 0.169883 0.862977 0.603869
C6 C 0.3368(4) 0.90503(17) 0.53542(18)
H4 H 0.278644 0.951845 0.512777
C7 C 0.4886(4) 0.89055(16) 0.51325(19)
H5 H 0.529615 0.927725 0.476224
C8 C 0.5792(3) 0.82149(16) 0.54562(18)
H6 H 0.681042 0.811727 0.531672
C9 C 0.5113(3) 0.76754(14) 0.59975(16)
C10 C 0.1827(3) 0.69879(19) 0.7214(2)
H7 H 0.208129 0.650644 0.761041
C11 C 0.0476(3) 0.6732(2) 0.6477(3)
H8 H 0.067337 0.628303 0.612942
C12 C 0.1366(4) 0.7661(2) 0.7798(2)
H9 H 0.037359 0.750450 0.799789
H10 H 0.113835 0.815864 0.743656
C13 C 0.2665(6) 0.7846(3) 0.8618(3)
H11 H 0.362016 0.805009 0.842541
H12 H 0.293147 0.735096 0.896576
H13 H 0.227181 0.825424 0.898522
C14 C 0.4026(3) 0.50997(15) 0.68524(17)
C15 C 0.3478(4) 0.51157(19) 0.5925(2)
H14 H 0.365940 0.557896 0.559295
C16 C 0.2652(5) 0.4438(2) 0.5483(2)
H15 H 0.228791 0.445220 0.485797
C17 C 0.2373(4) 0.3753(2) 0.5962(3)
H16 H 0.181549 0.330439 0.566429
C18 C 0.2915(4) 0.37303(18) 0.6877(2)
H17 H 0.273346 0.326361 0.720305
C19 C 0.3737(3) 0.43978(17) 0.7325(2)
H18 H 0.409858 0.437531 0.795020
C20 C 0.6770(3) 0.56428(15) 0.76694(16)
C21 C 0.7580(3) 0.50983(17) 0.7206(2)
H19 H 0.701635 0.483188 0.669204
C22 C 0.9242(4) 0.4944(2) 0.7504(3)
H20 H 0.978317 0.458210 0.718439
C23 C 1.0068(4) 0.5326(2) 0.8266(3)
H21 H 1.116739 0.521423 0.847288
C24 C 0.9286(4) 0.5873(3) 0.8727(2)
H22 H 0.985500 0.613486 0.924318
C25 C 0.7641(3) 0.6038(2) 0.8423(2)
H23 H 0.712064 0.641968 0.873208
loop_
_geom_bond_atom_site_label_1
_geom_bond_atom_site_label_2
_geom_bond_site_symmetry_1
_geom_bond_site_symmetry_2
O1 C11 1_555 1_555
N1 H1 1_555 1_555
C1 H2 1_555 1_555
C2 N1 1_555 1_555
C3 C2 1_555 1_555
C4 C3 1_555 1_555
C5 C4 1_555 1_555
H3 C5 1_555 1_555
C6 C5 1_555 1_555
H4 C6 1_555 1_555
C7 C6 1_555 1_555
H5 C7 1_555 1_555
C8 C7 1_555 1_555
H6 C8 1_555 1_555
C9 N1 1_555 1_555
C10 C3 1_555 1_555
H7 C10 1_555 1_555
C11 C10 1_555 1_555
H8 C11 1_555 1_555
C12 C10 1_555 1_555
H9 C12 1_555 1_555
H10 C12 1_555 1_555
C13 C12 1_555 1_555
H11 C13 1_555 1_555
H12 C13 1_555 1_555
H13 C13 1_555 1_555
C14 C1 1_555 1_555
C15 C14 1_555 1_555
H14 C15 1_555 1_555
C16 C15 1_555 1_555
H15 C16 1_555 1_555
C17 C16 1_555 1_555
H16 C17 1_555 1_555
C18 C17 1_555 1_555
H17 C18 1_555 1_555
C19 C14 1_555 1_555
H18 C19 1_555 1_555
C20 C1 1_555 1_555
C21 C20 1_555 1_555
H19 C21 1_555 1_555
C22 C21 1_555 1_555
H20 C22 1_555 1_555
C23 C22 1_555 1_555
H21 C23 1_555 1_555
C24 C23 1_555 1_555
H22 C24 1_555 1_555
C25 C20 1_555 1_555
H23 C25 1_555 1_555
C1 C2 1_555 1_555
C4 C9 1_555 1_555
C8 C9 1_555 1_555
C18 C19 1_555 1_555
C24 C25 1_555 1_555

#END
