
#######################################################################
#
#                 Cambridge Crystallographic Data Centre
#                                CCDC 
#
#######################################################################
#
# If this CIF has been generated from an entry in the Cambridge 
# Structural Database, then it will include bibliographic, chemical, 
# crystal, experimental, refinement or atomic coordinate data resulting 
# from the CCDC's data processing and validation procedures.
#
#######################################################################

data_TIDGAP
_chemical_compound_source        'Schisandra chinensis'
_chemical_formula_moiety         'C29 H34 O10,2(H2 O1)'
_chemical_name_systematic        'Schindilactone A dihydrate'
_chemical_properties_biological  'potential anti-HIV activity'
_symmetry_cell_setting           monoclinic
_symmetry_space_group_name_H-M   'P 21'
_symmetry_Int_Tables_number      4
_space_group_name_Hall           'P 2yb'
loop_
_symmetry_equiv_pos_site_id
_symmetry_equiv_pos_as_xyz
1 x,y,z
2 -x,1/2+y,-z
_cell_length_a                   8.214(2)
_cell_length_b                   15.608(5)
_cell_length_c                   11.522(3)
_cell_angle_alpha                90
_cell_angle_beta                 90.982(4)
_cell_angle_gamma                90
_cell_volume                     1476.95
_exptl_crystal_colour            colorless
_exptl_crystal_description       block
_chemical_melting_point          254-255deg.C
_cell_formula_units_Z            2
loop_
_atom_site_label
_atom_site_type_symbol
_atom_site_fract_x
_atom_site_fract_y
_atom_site_fract_z
O1 O 0.8125(3) 0.7012(2) 0.8052(3)
O2 O 0.6001(6) 0.6502(4) 0.8995(5)
O3 O 0.7952(6) 0.9272(3) 0.8250(3)
H1 H 0.7439 0.9573 0.8698
O4 O 0.9307(4) 0.8480(2) 0.9704(2)
O5 O 1.1082(4) 0.5413(3) 0.5172(3)
O6 O 0.7651(3) 0.54141(19) 0.5582(2)
O7 O 0.5892(6) 0.3182(2) 0.5101(4)
O8 O 0.5679(4) 0.4361(2) 0.4017(3)
O9 O 0.6831(5) 0.7992(2) 0.2429(3)
O10 O 0.7855(3) 0.68903(18) 0.5382(2)
C1 C 0.8183(6) 0.8453(3) 0.8744(4)
C2 C 0.6662(6) 0.8013(4) 0.9134(5)
H2 H 0.6566 0.8049 0.9970
H3 H 0.5706 0.8272 0.8774
C3 C 0.6835(6) 0.7114(5) 0.8762(5)
C4 C 1.0959(6) 0.8404(3) 0.9273(4)
C5 C 1.0751(5) 0.7727(3) 0.8323(4)
H4 H 1.0804 0.7167 0.8709
C6 C 1.2097(6) 0.7729(4) 0.7399(5)
H5 H 1.2012 0.8243 0.6928
H6 H 1.3162 0.7724 0.7776
C7 C 1.1899(6) 0.6955(4) 0.6649(4)
H7 H 1.2705 0.6537 0.6675
C8 C 1.0604(6) 0.6837(3) 0.5940(4)
C9 C 0.9244(5) 0.7464(3) 0.5646(4)
C10 C 0.8978(5) 0.7836(3) 0.7859(4)
C11 C 0.9585(7) 0.7956(3) 0.4521(4)
H8 H 1.0506 0.8333 0.4660
H9 H 0.8649 0.8313 0.4337
C12 C 0.9948(6) 0.7391(3) 0.3451(4)
H10 H 1.0278 0.7768 0.2828
H11 H 1.0877 0.7033 0.3648
C13 C 0.8592(5) 0.6806(3) 0.2971(4)
C14 C 1.0213(5) 0.6026(3) 0.5348(4)
C15 C 0.8410(5) 0.6087(3) 0.4968(3)
C16 C 0.8144(5) 0.5986(3) 0.3663(4)
H12 H 0.8806 0.5507 0.3390
C17 C 0.6965(6) 0.7267(3) 0.2819(4)
C18 C 0.9041(7) 0.6536(3) 0.1716(4)
H13 H 0.9318 0.7036 0.1276
H14 H 0.8129 0.6253 0.1353
H15 H 0.9955 0.6153 0.1746
C19 C 0.8718(6) 0.8085(3) 0.6601(4)
H16 H 0.9282 0.8622 0.6478
H17 H 0.7565 0.8196 0.6484
C20 C 0.5563(5) 0.6700(3) 0.3169(4)
H18 H 0.5165 0.6900 0.3919
C21 C 0.4160(7) 0.6729(4) 0.2293(5)
H19 H 0.3745 0.7303 0.2241
H20 H 0.3311 0.6350 0.2539
H21 H 0.4538 0.6551 0.1547
C22 C 0.6331(5) 0.5812(3) 0.3340(4)
H22 H 0.6291 0.5511 0.2593
C23 C 0.5399(5) 0.5283(3) 0.4213(4)
H23 H 0.4234 0.5406 0.4126
C24 C 0.5915(5) 0.5407(3) 0.5479(4)
H24 H 0.5413 0.5911 0.5831
C25 C 0.5378(6) 0.4573(3) 0.6036(4)
H25 H 0.4202 0.4604 0.6160
C26 C 0.5681(6) 0.3942(3) 0.5058(5)
C27 C 0.6211(8) 0.4346(4) 0.7183(5)
H26 H 0.5789 0.3811 0.7461
H27 H 0.6006 0.4788 0.7741
H28 H 0.7362 0.4294 0.7072
C28 C 1.1599(8) 0.9274(4) 0.8850(5)
H29 H 1.1700 0.9660 0.9497
H30 H 1.0851 0.9508 0.8285
H31 H 1.2644 0.9197 0.8505
C29 C 1.2010(6) 0.8088(5) 1.0284(4)
H32 H 1.1610 0.7544 1.0544
H33 H 1.1968 0.8494 1.0908
H34 H 1.3114 0.8026 1.0038
O11 O 0.664(2) 0.0239(8) 0.0045(7)
H35 H 0.686(9) 0.073(2) 0.026(6)
H36 H 0.579(10) 0.012(6) 0.038(12)
O12 O 0.8347(14) -0.0355(5) 0.2047(7)
H37 H 0.929(4) -0.013(4) 0.188(6)
H38 H 0.786(19) -0.03(3) 0.142(11)
loop_
_geom_bond_atom_site_label_1
_geom_bond_atom_site_label_2
_geom_bond_site_symmetry_1
_geom_bond_site_symmetry_2
O1 C3 1_555 1_555
O2 C3 1_555 1_555
O3 H1 1_555 1_555
O4 C1 1_555 1_555
O5 C14 1_555 1_555
O6 C15 1_555 1_555
O7 C26 1_555 1_555
O8 C23 1_555 1_555
O9 C17 1_555 1_555
O10 C9 1_555 1_555
C1 O3 1_555 1_555
C2 C1 1_555 1_555
H2 C2 1_555 1_555
H3 C2 1_555 1_555
C3 C2 1_555 1_555
C4 O4 1_555 1_555
C5 C4 1_555 1_555
H4 C5 1_555 1_555
C6 C5 1_555 1_555
H5 C6 1_555 1_555
H6 C6 1_555 1_555
C7 C6 1_555 1_555
H7 C7 1_555 1_555
C8 C7 1_555 1_555
C9 C8 1_555 1_555
C10 O1 1_555 1_555
C11 C9 1_555 1_555
H8 C11 1_555 1_555
H9 C11 1_555 1_555
C12 C11 1_555 1_555
H10 C12 1_555 1_555
H11 C12 1_555 1_555
C13 C12 1_555 1_555
C14 C8 1_555 1_555
C15 O10 1_555 1_555
C16 C13 1_555 1_555
H12 C16 1_555 1_555
C17 C13 1_555 1_555
C18 C13 1_555 1_555
H13 C18 1_555 1_555
H14 C18 1_555 1_555
H15 C18 1_555 1_555
C19 C9 1_555 1_555
H16 C19 1_555 1_555
H17 C19 1_555 1_555
C20 C17 1_555 1_555
H18 C20 1_555 1_555
C21 C20 1_555 1_555
H19 C21 1_555 1_555
H20 C21 1_555 1_555
H21 C21 1_555 1_555
C22 C16 1_555 1_555
H22 C22 1_555 1_555
C23 C22 1_555 1_555
H23 C23 1_555 1_555
C24 O6 1_555 1_555
H24 C24 1_555 1_555
C25 C24 1_555 1_555
H25 C25 1_555 1_555
C26 O8 1_555 1_555
C27 C25 1_555 1_555
H26 C27 1_555 1_555
H27 C27 1_555 1_555
H28 C27 1_555 1_555
C28 C4 1_555 1_555
H29 C28 1_555 1_555
H30 C28 1_555 1_555
H31 C28 1_555 1_555
C29 C4 1_555 1_555
H32 C29 1_555 1_555
H33 C29 1_555 1_555
H34 C29 1_555 1_555
O11 H35 1_555 1_555
O12 H37 1_555 1_555
H36 O11 1_555 1_555
H38 O12 1_555 1_555
C1 C10 1_555 1_555
C5 C10 1_555 1_555
C10 C19 1_555 1_555
C14 C15 1_555 1_555
C15 C16 1_555 1_555
C20 C22 1_555 1_555
C23 C24 1_555 1_555
C25 C26 1_555 1_555

#END
