
#######################################################################
#
#                 Cambridge Crystallographic Data Centre
#                                CCDC 
#
#######################################################################
#
# If this CIF has been generated from an entry in the Cambridge 
# Structural Database, then it will include bibliographic, chemical, 
# crystal, experimental, refinement or atomic coordinate data resulting 
# from the CCDC's data processing and validation procedures.
#
#######################################################################

data_TIDJOH01
_chemical_formula_moiety         'C14 H11 N1 O1 S1'
_chemical_name_systematic        2-(1,3-benzothiazol-2-yl)-5-methylphenol
_symmetry_cell_setting           monoclinic
_symmetry_space_group_name_H-M   'P 21/c'
_symmetry_Int_Tables_number      14
_space_group_name_Hall           '-P 2ybc'
loop_
_symmetry_equiv_pos_site_id
_symmetry_equiv_pos_as_xyz
1 x,y,z
2 -x,1/2+y,1/2-z
3 -x,-y,-z
4 x,1/2-y,1/2+z
_cell_length_a                   10.423(3)
_cell_length_b                   7.540(2)
_cell_length_c                   14.651(4)
_cell_angle_alpha                90
_cell_angle_beta                 100.722(4)
_cell_angle_gamma                90
_cell_volume                     1131.31
_exptl_crystal_colour            colorless
_exptl_crystal_description       block
_cell_formula_units_Z            4
_exptl_crystal_recrystallization_method Cyclohexane
loop_
_atom_site_label
_atom_site_type_symbol
_atom_site_fract_x
_atom_site_fract_y
_atom_site_fract_z
S1 S 0.56654(4) 0.52710(6) 0.71001(3)
O1 O 0.17925(13) 0.79940(19) 0.57441(9)
N1 N 0.42498(13) 0.71153(19) 0.57945(10)
C1 C 0.54711(15) 0.6945(2) 0.55506(12)
C2 C 0.58337(17) 0.7665(2) 0.47593(12)
H1 H 0.5243 0.8327 0.4340
C3 C 0.70892(18) 0.7376(3) 0.46109(13)
H2 H 0.7344 0.7856 0.4088
C4 C 0.79819(17) 0.6375(3) 0.52342(13)
H3 H 0.8818 0.6188 0.5116
C5 C 0.76403(17) 0.5660(3) 0.60240(13)
H4 H 0.8235 0.4997 0.6440
C6 C 0.63778(16) 0.5963(2) 0.61790(12)
C7 C 0.42067(15) 0.6309(2) 0.65790(11)
C8 C 0.30545(15) 0.6303(2) 0.70088(11)
C9 C 0.19070(16) 0.7197(2) 0.65814(12)
C10 C 0.08527(16) 0.7311(2) 0.70402(12)
H5 H 0.0097 0.7887 0.6751
C11 C 0.09011(17) 0.6589(2) 0.79157(13)
C12 C 0.20154(17) 0.5655(2) 0.83259(12)
H6 H 0.2052 0.5127 0.8904
C13 C 0.30650(17) 0.5510(2) 0.78753(12)
H7 H 0.3796 0.4870 0.8155
C14 C -0.02243(19) 0.6872(3) 0.84215(14)
H8 H -0.0409 0.8117 0.8444
H9 H 0.0006 0.6417 0.9042
H10 H -0.0983 0.6262 0.8099
H11 H 0.253(3) 0.788(3) 0.5561(17)
loop_
_geom_bond_atom_site_label_1
_geom_bond_atom_site_label_2
_geom_bond_site_symmetry_1
_geom_bond_site_symmetry_2
S1 C6 1_555 1_555
O1 C9 1_555 1_555
N1 C1 1_555 1_555
C1 C2 1_555 1_555
C2 H1 1_555 1_555
C3 C2 1_555 1_555
H2 C3 1_555 1_555
C4 C3 1_555 1_555
H3 C4 1_555 1_555
C5 C4 1_555 1_555
H4 C5 1_555 1_555
C6 C1 1_555 1_555
C7 S1 1_555 1_555
C8 C7 1_555 1_555
C9 C8 1_555 1_555
C10 C9 1_555 1_555
H5 C10 1_555 1_555
C11 C10 1_555 1_555
C12 C11 1_555 1_555
H6 C12 1_555 1_555
C13 C8 1_555 1_555
H7 C13 1_555 1_555
C14 C11 1_555 1_555
H8 C14 1_555 1_555
H9 C14 1_555 1_555
H10 C14 1_555 1_555
H11 O1 1_555 1_555
N1 C7 1_555 1_555
C5 C6 1_555 1_555
C12 C13 1_555 1_555

#END
