
#######################################################################
#
#                 Cambridge Crystallographic Data Centre
#                                CCDC 
#
#######################################################################
#
# If this CIF has been generated from an entry in the Cambridge 
# Structural Database, then it will include bibliographic, chemical, 
# crystal, experimental, refinement or atomic coordinate data resulting 
# from the CCDC's data processing and validation procedures.
#
#######################################################################

data_TIDJIC
_chemical_formula_moiety         'C16 H22 O3'
_chemical_name_systematic        
10-methoxy-7,7,8-trimethyltricyclo[6.3.1.0^1,6^]dodec-9-ene-11,12-dione
_symmetry_cell_setting           orthorhombic
_symmetry_space_group_name_H-M   'P c a 21'
_symmetry_Int_Tables_number      29
_space_group_name_Hall           'P 2c -2ac'
loop_
_symmetry_equiv_pos_site_id
_symmetry_equiv_pos_as_xyz
1 x,y,z
2 -x,-y,1/2+z
3 1/2+x,-y,z
4 1/2-x,y,1/2+z
_cell_length_a                   26.5253(15)
_cell_length_b                   8.7484(6)
_cell_length_c                   12.2699(7)
_cell_angle_alpha                90
_cell_angle_beta                 90
_cell_angle_gamma                90
_cell_volume                     2847.28
_exptl_crystal_colour            colorless
_cell_formula_units_Z            8
loop_
_atom_site_label
_atom_site_type_symbol
_atom_site_fract_x
_atom_site_fract_y
_atom_site_fract_z
O1 O 0.35333(10) -0.0291(3) 0.6846(2)
O2 O 0.29831(13) -0.2018(3) 0.5551(3)
O3 O 0.20456(11) 0.1661(4) 0.4883(3)
C1 C 0.29998(13) -0.0679(4) 0.5359(3)
C2 C 0.29082(17) 0.2608(4) 0.4995(3)
C3 C 0.24881(14) 0.1471(5) 0.4790(3)
C4 C 0.32663(12) 0.0425(4) 0.6065(3)
C5 C 0.32212(14) 0.1920(5) 0.5903(3)
H1 H 0.3391 0.2579 0.6371
C6 C 0.27487(14) 0.0041(4) 0.4363(3)
C7 C 0.31816(15) 0.0752(5) 0.3642(3)
H2 H 0.3502 0.0332 0.3902
C8 C 0.38011(16) 0.0631(6) 0.7605(4)
H3 H 0.4030 0.1289 0.7220
H4 H 0.3987 -0.0013 0.8094
H5 H 0.3567 0.1241 0.8014
C9 C 0.31870(15) 0.2492(5) 0.3871(3)
C10 C 0.2414(2) -0.1074(5) 0.3746(5)
H6 H 0.2213 -0.1651 0.4263
H7 H 0.2185 -0.0506 0.3281
C11 C 0.3121(2) 0.0280(7) 0.2458(4)
H8 H 0.2812 0.0716 0.2169
H9 H 0.3401 0.0677 0.2035
C12 C 0.2715(3) -0.2160(6) 0.3062(6)
H10 H 0.2884 -0.2880 0.3541
H11 H 0.2486 -0.2738 0.2605
C13 C 0.3725(2) 0.3096(7) 0.3936(5)
H12 H 0.3718 0.4178 0.4064
H13 H 0.3896 0.2892 0.3262
H14 H 0.3900 0.2599 0.4522
C14 C 0.2721(3) 0.4196(5) 0.5303(5)
H15 H 0.2450 0.4485 0.4828
H16 H 0.2992 0.4917 0.5232
H17 H 0.2604 0.4188 0.6043
C15 C 0.2894(2) 0.3401(6) 0.3007(4)
H18 H 0.2550 0.3055 0.2989
H19 H 0.3046 0.3248 0.2306
H20 H 0.2902 0.4469 0.3188
C16 C 0.3103(3) -0.1422(8) 0.2348(6)
H21 H 0.3432 -0.1837 0.2527
H22 H 0.3031 -0.1679 0.1595
O4 O 0.39966(10) 0.4708(3) 0.7296(2)
O5 O 0.46729(12) 0.2845(3) 0.6402(3)
O6 O 0.46813(13) 0.5504(5) 0.3619(3)
C17 C 0.46807(13) 0.4157(4) 0.6134(3)
C18 C 0.51610(14) 0.7648(4) 0.5653(3)
C19 C 0.53908(12) 0.6056(4) 0.5952(3)
H23 H 0.5346 0.5903 0.6738
C20 C 0.47704(13) 0.5789(5) 0.4557(3)
C21 C 0.43051(12) 0.5292(4) 0.6525(3)
C22 C 0.59441(13) 0.5842(5) 0.5694(4)
H24 H 0.5998 0.5974 0.4918
H25 H 0.6140 0.6613 0.6073
C23 C 0.61222(17) 0.4273(6) 0.6033(5)
H26 H 0.6119 0.4208 0.6822
H27 H 0.6467 0.4134 0.5792
C24 C 0.42783(13) 0.6670(5) 0.6078(3)
H28 H 0.4032 0.7342 0.6325
C25 C 0.46321(14) 0.7203(5) 0.5182(3)
C26 C 0.50692(13) 0.4804(5) 0.5344(3)
C27 C 0.35997(15) 0.5676(6) 0.7660(4)
H29 H 0.3400 0.5989 0.7048
H30 H 0.3740 0.6561 0.8009
H31 H 0.3392 0.5130 0.8169
C28 C 0.5132(2) 0.8672(5) 0.6648(5)
H32 H 0.4954 0.8152 0.7220
H33 H 0.4957 0.9597 0.6465
H34 H 0.5467 0.8915 0.6890
C29 C 0.58011(18) 0.2996(5) 0.5571(5)
H35 H 0.6016 0.2301 0.5166
H36 H 0.5653 0.2427 0.6169
C30 C 0.53838(16) 0.3555(6) 0.4829(5)
H37 H 0.5531 0.3938 0.4159
H38 H 0.5167 0.2701 0.4644
C31 C 0.54681(18) 0.8454(6) 0.4766(5)
H39 H 0.5808 0.8591 0.5013
H40 H 0.5321 0.9433 0.4613
H41 H 0.5468 0.7844 0.4116
C32 C 0.4371(2) 0.8435(7) 0.4506(5)
H42 H 0.4324 0.9334 0.4943
H43 H 0.4048 0.8066 0.4266
H44 H 0.4575 0.8680 0.3884
loop_
_geom_bond_atom_site_label_1
_geom_bond_atom_site_label_2
_geom_bond_site_symmetry_1
_geom_bond_site_symmetry_2
O1 C4 1_555 1_555
O2 C1 1_555 1_555
O3 C3 1_555 1_555
C1 C4 1_555 1_555
C2 C3 1_555 1_555
C3 C6 1_555 1_555
C4 C5 1_555 1_555
C5 C2 1_555 1_555
H1 C5 1_555 1_555
C6 C1 1_555 1_555
C7 C6 1_555 1_555
H2 C7 1_555 1_555
C8 O1 1_555 1_555
H3 C8 1_555 1_555
H4 C8 1_555 1_555
H5 C8 1_555 1_555
C9 C2 1_555 1_555
C10 C6 1_555 1_555
H6 C10 1_555 1_555
H7 C10 1_555 1_555
C11 C7 1_555 1_555
H8 C11 1_555 1_555
H9 C11 1_555 1_555
C12 C10 1_555 1_555
H10 C12 1_555 1_555
H11 C12 1_555 1_555
C13 C9 1_555 1_555
H12 C13 1_555 1_555
H13 C13 1_555 1_555
H14 C13 1_555 1_555
C14 C2 1_555 1_555
H15 C14 1_555 1_555
H16 C14 1_555 1_555
H17 C14 1_555 1_555
C15 C9 1_555 1_555
H18 C15 1_555 1_555
H19 C15 1_555 1_555
H20 C15 1_555 1_555
C16 C11 1_555 1_555
H21 C16 1_555 1_555
H22 C16 1_555 1_555
O4 C21 1_555 1_555
O5 C17 1_555 1_555
O6 C20 1_555 1_555
C17 C21 1_555 1_555
C18 C19 1_555 1_555
C19 H23 1_555 1_555
C20 C25 1_555 1_555
C21 C24 1_555 1_555
C22 C19 1_555 1_555
H24 C22 1_555 1_555
H25 C22 1_555 1_555
C23 C22 1_555 1_555
H26 C23 1_555 1_555
H27 C23 1_555 1_555
C24 H28 1_555 1_555
C25 C18 1_555 1_555
C26 C17 1_555 1_555
C27 O4 1_555 1_555
H29 C27 1_555 1_555
H30 C27 1_555 1_555
H31 C27 1_555 1_555
C28 C18 1_555 1_555
H32 C28 1_555 1_555
H33 C28 1_555 1_555
H34 C28 1_555 1_555
C29 C23 1_555 1_555
H35 C29 1_555 1_555
H36 C29 1_555 1_555
C30 C26 1_555 1_555
H37 C30 1_555 1_555
H38 C30 1_555 1_555
C31 C18 1_555 1_555
H39 C31 1_555 1_555
H40 C31 1_555 1_555
H41 C31 1_555 1_555
C32 C25 1_555 1_555
H42 C32 1_555 1_555
H43 C32 1_555 1_555
H44 C32 1_555 1_555
C7 C9 1_555 1_555
C12 C16 1_555 1_555
C19 C26 1_555 1_555
C20 C26 1_555 1_555
C24 C25 1_555 1_555
C29 C30 1_555 1_555

#END
