
#######################################################################
#
#                 Cambridge Crystallographic Data Centre
#                                CCDC 
#
#######################################################################
#
# If this CIF has been generated from an entry in the Cambridge 
# Structural Database, then it will include bibliographic, chemical, 
# crystal, experimental, refinement or atomic coordinate data resulting 
# from the CCDC's data processing and validation procedures.
#
#######################################################################

data_TIDJUO
_chemical_formula_moiety         'C13 H16 O3'
_chemical_name_systematic        
9-methoxytetracyclo[7.2.1.0^1,6^.0^8,10^]dodecane-11,12-dione
_symmetry_cell_setting           triclinic
_symmetry_space_group_name_H-M   'P -1'
_symmetry_Int_Tables_number      2
_space_group_name_Hall           '-P 1'
loop_
_symmetry_equiv_pos_site_id
_symmetry_equiv_pos_as_xyz
1 x,y,z
2 -x,-y,-z
_cell_length_a                   7.0084(4)
_cell_length_b                   8.6847(6)
_cell_length_c                   10.3069(6)
_cell_angle_alpha                110.752(6)
_cell_angle_beta                 104.469(6)
_cell_angle_gamma                97.643(5)
_cell_volume                     550.769
_exptl_crystal_colour            colorless
_cell_formula_units_Z            2
loop_
_atom_site_label
_atom_site_type_symbol
_atom_site_fract_x
_atom_site_fract_y
_atom_site_fract_z
O1 O 0.7980(2) 0.43319(17) 0.52920(12)
O2 O 0.84895(18) 0.24211(17) 0.07994(13)
O3 O 0.75783(18) 0.57405(18) 0.12288(14)
C1 C 0.7343(2) 0.4079(2) 0.40122(16)
C2 C 0.7633(2) 0.3082(2) 0.16492(16)
C3 C 0.7026(2) 0.24174(19) 0.27098(16)
C4 C 0.4685(2) 0.16051(19) 0.19662(16)
H1 H 0.4491 0.0754 0.0986
C5 C 0.6804(2) 0.5335(2) 0.34248(18)
H2 H 0.7209 0.6551 0.4056
C6 C 0.6966(2) 0.4675(2) 0.18483(17)
C7 C 0.4935(2) 0.4598(2) 0.20715(19)
H3 H 0.4242 0.5434 0.1865
C8 C 0.3874(3) 0.0674(2) 0.2796(2)
H4 H 0.3976 0.1490 0.3756
H5 H 0.2449 0.0111 0.2273
C9 C 0.3545(2) 0.2938(2) 0.1763(2)
H6 H 0.2631 0.2484 0.0764
H7 H 0.2727 0.3150 0.2410
C10 C 0.8195(3) 0.1157(2) 0.3020(2)
H8 H 0.8239 0.0346 0.2102
H9 H 0.9583 0.1766 0.3626
C11 C 0.5035(3) -0.0631(2) 0.2972(2)
H10 H 0.4872 -0.1487 0.2015
H11 H 0.4483 -0.1191 0.3510
C12 C 0.9719(3) 0.6475(3) 0.1780(2)
H12 H 1.0054 0.7160 0.1277
H13 H 1.0430 0.5588 0.1625
H14 H 1.0109 0.7169 0.2809
C13 C 0.7275(3) 0.0199(3) 0.3783(2)
H15 H 0.7443 0.0979 0.4772
H16 H 0.7992 -0.0666 0.3848
loop_
_geom_bond_atom_site_label_1
_geom_bond_atom_site_label_2
_geom_bond_site_symmetry_1
_geom_bond_site_symmetry_2
O1 C1 1_555 1_555
O2 C2 1_555 1_555
O3 C6 1_555 1_555
C1 C3 1_555 1_555
C2 C3 1_555 1_555
C3 C4 1_555 1_555
C4 H1 1_555 1_555
C5 C1 1_555 1_555
H2 C5 1_555 1_555
C6 C2 1_555 1_555
C7 C5 1_555 1_555
H3 C7 1_555 1_555
C8 C4 1_555 1_555
H4 C8 1_555 1_555
H5 C8 1_555 1_555
C9 C4 1_555 1_555
H6 C9 1_555 1_555
H7 C9 1_555 1_555
C10 C3 1_555 1_555
H8 C10 1_555 1_555
H9 C10 1_555 1_555
C11 C8 1_555 1_555
H10 C11 1_555 1_555
H11 C11 1_555 1_555
C12 O3 1_555 1_555
H12 C12 1_555 1_555
H13 C12 1_555 1_555
H14 C12 1_555 1_555
C13 C10 1_555 1_555
H15 C13 1_555 1_555
H16 C13 1_555 1_555
C5 C6 1_555 1_555
C6 C7 1_555 1_555
C7 C9 1_555 1_555
C11 C13 1_555 1_555

#END
