
#######################################################################
#
#                 Cambridge Crystallographic Data Centre
#                                CCDC 
#
#######################################################################
#
# If this CIF has been generated from an entry in the Cambridge 
# Structural Database, then it will include bibliographic, chemical, 
# crystal, experimental, refinement or atomic coordinate data resulting 
# from the CCDC's data processing and validation procedures.
#
#######################################################################

data_TIDJEY
_chemical_formula_moiety         'C17 H24 O3'
_chemical_name_systematic        
10-methoxy-6,7,7,8-tetramethyltricyclo[6.3.1.0^1,6^]dodec-9-ene-11,12-dione
_symmetry_cell_setting           monoclinic
_symmetry_space_group_name_H-M   'P 21/n'
_symmetry_Int_Tables_number      14
_space_group_name_Hall           '-P 2yn'
loop_
_symmetry_equiv_pos_site_id
_symmetry_equiv_pos_as_xyz
1 x,y,z
2 1/2-x,1/2+y,1/2-z
3 -x,-y,-z
4 1/2+x,1/2-y,1/2+z
_cell_length_a                   13.9082(2)
_cell_length_b                   12.1875(2)
_cell_length_c                   17.5705(3)
_cell_angle_alpha                90
_cell_angle_beta                 92.6498(16)
_cell_angle_gamma                90
_cell_volume                     2975.12
_exptl_crystal_colour            colorless
_cell_formula_units_Z            8
loop_
_atom_site_label
_atom_site_type_symbol
_atom_site_fract_x
_atom_site_fract_y
_atom_site_fract_z
O1 O 0.34973(9) 0.77962(11) 0.53332(7)
O2 O 0.41217(10) 0.60217(12) 0.77137(8)
O3 O 0.32733(12) 0.47748(12) 0.66651(9)
C1 C 0.30100(10) 0.74222(13) 0.58170(9)
C2 C 0.35543(12) 0.65338(15) 0.71769(9)
C3 C 0.26487(11) 0.62467(13) 0.58765(9)
C4 C 0.26304(11) 0.80181(13) 0.65029(9)
C5 C 0.15711(11) 0.75360(13) 0.65629(9)
C6 C 0.32995(12) 0.75874(15) 0.71403(9)
H1 H 0.3537 0.8069 0.7514
C7 C 0.15551(11) 0.64864(13) 0.60165(9)
C8 C 0.31670(12) 0.57547(14) 0.65921(10)
C9 C 0.13568(14) 0.72519(16) 0.73917(10)
H2 H 0.1758 0.6652 0.7563
H3 H 0.0693 0.7047 0.7418
H4 H 0.1486 0.7880 0.7710
C10 C 0.27195(15) 0.92624(15) 0.64483(11)
H5 H 0.3386 0.9460 0.6432
H6 H 0.2448 0.9595 0.6885
H7 H 0.2380 0.9515 0.5994
C11 C 0.28405(15) 0.55000(15) 0.51994(10)
H8 H 0.3522 0.5528 0.5105
H9 H 0.2688 0.4751 0.5336
C12 C 0.22752(15) 0.57914(17) 0.44694(10)
H10 H 0.2515 0.6476 0.4270
H11 H 0.2363 0.5223 0.4092
C13 C 0.10709(13) 0.67655(18) 0.52292(10)
H12 H 0.0385 0.6856 0.5288
H13 H 0.1321 0.7462 0.5060
C14 C 0.08090(13) 0.84009(17) 0.63174(12)
H14 H 0.0805 0.8975 0.6691
H15 H 0.0186 0.8061 0.6275
H16 H 0.0962 0.8704 0.5833
C15 C 0.10417(15) 0.54897(17) 0.63474(12)
H17 H 0.1083 0.4879 0.6005
H18 H 0.0378 0.5666 0.6411
H19 H 0.1343 0.5301 0.6832
C16 C 0.12199(16) 0.5906(2) 0.46109(11)
H20 H 0.0966 0.5205 0.4770
H21 H 0.0873 0.6124 0.4143
C17 C 0.45218(16) 0.6680(2) 0.83167(12)
H22 H 0.4915 0.7244 0.8111
H23 H 0.4908 0.6230 0.8659
H24 H 0.4012 0.7009 0.8588
O4 O 0.59594(9) 0.31811(11) 0.72109(7)
O5 O 0.65677(10) 0.48583(11) 0.96501(7)
O6 O 0.66381(12) 0.18593(11) 0.82929(9)
C18 C 0.70459(11) 0.44661(13) 0.91666(8)
C19 C 0.74663(11) 0.50563(12) 0.84949(8)
C20 C 0.65170(11) 0.36351(14) 0.77784(9)
C21 C 0.68052(11) 0.46776(14) 0.78391(9)
H25 H 0.6595 0.5182 0.7470
C22 C 0.85081(11) 0.45223(13) 0.84473(9)
C23 C 0.73492(11) 0.32697(13) 0.90925(8)
C24 C 0.84591(11) 0.34514(13) 0.89726(9)
C25 C 0.68235(11) 0.28213(13) 0.83675(9)
C26 C 0.87403(14) 0.42653(17) 0.76195(10)
H26 H 0.8307 0.3712 0.7420
H27 H 0.9391 0.4005 0.7604
H28 H 0.8668 0.4919 0.7317
C27 C 0.74243(14) 0.63006(14) 0.85669(11)
H29 H 0.6765 0.6531 0.8581
H30 H 0.7714 0.6631 0.8138
H31 H 0.7767 0.6524 0.9028
C28 C 0.89396(13) 0.36769(17) 0.97700(10)
H32 H 0.9631 0.3718 0.9722
H33 H 0.8725 0.4387 0.9945
C29 C 0.71042(15) 0.25293(15) 0.97573(10)
H34 H 0.6423 0.2600 0.9842
H35 H 0.7222 0.1773 0.9616
C30 C 0.76678(16) 0.27739(17) 1.04995(10)
H36 H 0.7458 0.3470 1.0702
H37 H 0.7542 0.2208 1.0870
C31 C 0.89243(15) 0.24311(16) 0.86343(12)
H38 H 0.8631 0.2284 0.8140
H39 H 0.8833 0.1813 0.8962
H40 H 0.9601 0.2558 0.8590
C32 C 0.92886(13) 0.53476(17) 0.87240(12)
H41 H 0.9313 0.5944 0.8368
H42 H 0.9902 0.4987 0.8761
H43 H 0.9137 0.5627 0.9215
C33 C 0.87288(17) 0.28202(19) 1.03739(12)
H44 H 0.8949 0.2106 1.0211
H45 H 0.9075 0.3005 1.0848
C34 C 0.55442(15) 0.3914(2) 0.66619(11)
H46 H 0.5134 0.3513 0.6306
H47 H 0.6045 0.4267 0.6395
H48 H 0.5173 0.4458 0.6913
loop_
_geom_bond_atom_site_label_1
_geom_bond_atom_site_label_2
_geom_bond_site_symmetry_1
_geom_bond_site_symmetry_2
O1 C1 1_555 1_555
O2 C2 1_555 1_555
O3 C8 1_555 1_555
C1 C3 1_555 1_555
C2 C6 1_555 1_555
C3 C7 1_555 1_555
C4 C1 1_555 1_555
C5 C4 1_555 1_555
C6 C4 1_555 1_555
H1 C6 1_555 1_555
C7 C5 1_555 1_555
C8 C2 1_555 1_555
C9 C5 1_555 1_555
H2 C9 1_555 1_555
H3 C9 1_555 1_555
H4 C9 1_555 1_555
C10 C4 1_555 1_555
H5 C10 1_555 1_555
H6 C10 1_555 1_555
H7 C10 1_555 1_555
C11 C3 1_555 1_555
H8 C11 1_555 1_555
H9 C11 1_555 1_555
C12 C11 1_555 1_555
H10 C12 1_555 1_555
H11 C12 1_555 1_555
C13 C7 1_555 1_555
H12 C13 1_555 1_555
H13 C13 1_555 1_555
C14 C5 1_555 1_555
H14 C14 1_555 1_555
H15 C14 1_555 1_555
H16 C14 1_555 1_555
C15 C7 1_555 1_555
H17 C15 1_555 1_555
H18 C15 1_555 1_555
H19 C15 1_555 1_555
C16 C12 1_555 1_555
H20 C16 1_555 1_555
H21 C16 1_555 1_555
C17 O2 1_555 1_555
H22 C17 1_555 1_555
H23 C17 1_555 1_555
H24 C17 1_555 1_555
O4 C20 1_555 1_555
O5 C18 1_555 1_555
O6 C25 1_555 1_555
C18 C19 1_555 1_555
C19 C21 1_555 1_555
C20 C21 1_555 1_555
C21 H25 1_555 1_555
C22 C19 1_555 1_555
C23 C18 1_555 1_555
C24 C22 1_555 1_555
C25 C20 1_555 1_555
C26 C22 1_555 1_555
H26 C26 1_555 1_555
H27 C26 1_555 1_555
H28 C26 1_555 1_555
C27 C19 1_555 1_555
H29 C27 1_555 1_555
H30 C27 1_555 1_555
H31 C27 1_555 1_555
C28 C24 1_555 1_555
H32 C28 1_555 1_555
H33 C28 1_555 1_555
C29 C23 1_555 1_555
H34 C29 1_555 1_555
H35 C29 1_555 1_555
C30 C29 1_555 1_555
H36 C30 1_555 1_555
H37 C30 1_555 1_555
C31 C24 1_555 1_555
H38 C31 1_555 1_555
H39 C31 1_555 1_555
H40 C31 1_555 1_555
C32 C22 1_555 1_555
H41 C32 1_555 1_555
H42 C32 1_555 1_555
H43 C32 1_555 1_555
C33 C28 1_555 1_555
H44 C33 1_555 1_555
H45 C33 1_555 1_555
C34 O4 1_555 1_555
H46 C34 1_555 1_555
H47 C34 1_555 1_555
H48 C34 1_555 1_555
C3 C8 1_555 1_555
C13 C16 1_555 1_555
C23 C24 1_555 1_555
C23 C25 1_555 1_555
C30 C33 1_555 1_555

#END
