
#######################################################################
#
#                 Cambridge Crystallographic Data Centre
#                                CCDC 
#
#######################################################################
#
# If this CIF has been generated from an entry in the Cambridge 
# Structural Database, then it will include bibliographic, chemical, 
# crystal, experimental, refinement or atomic coordinate data resulting 
# from the CCDC's data processing and validation procedures.
#
#######################################################################

data_TIDKUP
_chemical_formula_moiety         'C32 H31 Br1 N2 O6'
_chemical_name_systematic        
"1'-t-butyl 2-ethyl 5-(4-bromophenyl)-2',3-dioxo-2-(phenylamino)spiro[cyclopentane-1,3'-indole]-1',2(2'H)-dicarboxylate"
_symmetry_cell_setting           monoclinic
_symmetry_space_group_name_H-M   'P 21'
_symmetry_Int_Tables_number      4
_space_group_name_Hall           'P 2yb'
loop_
_symmetry_equiv_pos_site_id
_symmetry_equiv_pos_as_xyz
1 x,y,z
2 -x,1/2+y,-z
_cell_length_a                   10.6652(13)
_cell_length_b                   9.1704(12)
_cell_length_c                   15.587(2)
_cell_angle_alpha                90
_cell_angle_beta                 109.083(2)
_cell_angle_gamma                90
_cell_volume                     1440.7
_exptl_crystal_colour            white
_exptl_crystal_description       block
_cell_formula_units_Z            2
loop_
_atom_site_label
_atom_site_type_symbol
_atom_site_fract_x
_atom_site_fract_y
_atom_site_fract_z
Br1 Br 0.78462(3) 0.41613(5) 0.35056(3)
N1 N 0.1881(2) 0.1785(3) 0.36614(15)
N2 N -0.0938(2) 0.2603(3) 0.11080(17)
O1 O 0.0557(2) 0.3688(3) 0.28562(14)
O2 O -0.0133(2) 0.0308(3) -0.01585(13)
O3 O 0.1573(2) 0.3387(3) 0.46735(14)
O4 O 0.3477(2) 0.2071(3) 0.50459(15)
O5 O -0.0419(2) -0.1242(2) 0.14239(14)
O6 O -0.1454(3) 0.0270(3) 0.21075(17)
C1 C 0.1127(3) 0.2546(3) 0.28812(19)
C2 C 0.1259(3) 0.1725(3) 0.20590(18)
C3 C 0.2108(3) 0.0426(3) 0.24764(18)
C4 C 0.2568(3) -0.0725(4) 0.20823(18)
H1 H 0.2335 -0.0800 0.1441
C5 C 0.3377(3) -0.1764(4) 0.2645(2)
H2 H 0.3727 -0.2538 0.2387
C6 C 0.3682(3) -0.1688(4) 0.3585(2)
H3 H 0.4207 -0.2431 0.3957
C7 C 0.3228(3) -0.0539(4) 0.3984(2)
H4 H 0.3437 -0.0481 0.4625
C8 C 0.2460(3) 0.0521(4) 0.34167(18)
C9 C 0.1921(3) 0.2767(3) 0.15214(18)
H5 H 0.1450 0.3725 0.1448
C10 C 0.1551(3) 0.2070(4) 0.05821(19)
H6 H 0.1320 0.2832 0.0106
H7 H 0.2306 0.1496 0.0525
C11 C 0.0371(3) 0.1088(4) 0.04798(18)
C12 C -0.0099(3) 0.1322(3) 0.13179(19)
C13 C 0.2415(3) 0.2432(4) 0.45452(19)
C14 C 0.2036(3) 0.4444(4) 0.54456(19)
C15 C 0.0757(4) 0.5231(5) 0.5384(2)
H8 H 0.0124 0.4537 0.5490
H9 H 0.0377 0.5663 0.4779
H10 H 0.0944 0.6003 0.5843
C16 C 0.2603(4) 0.3656(5) 0.6347(2)
H11 H 0.3487 0.3278 0.6405
H12 H 0.2019 0.2844 0.6374
H13 H 0.2670 0.4336 0.6845
C17 C 0.3031(4) 0.5459(5) 0.5246(3)
H14 H 0.3337 0.6181 0.5734
H15 H 0.2609 0.5959 0.4668
H16 H 0.3790 0.4892 0.5209
C18 C 0.3383(3) 0.3061(4) 0.20119(19)
C19 C 0.3739(3) 0.4164(5) 0.26576(18)
H17 H 0.3065 0.4708 0.2788
C20 C 0.5069(3) 0.4491(4) 0.3118(2)
H18 H 0.5302 0.5240 0.3564
C21 C 0.6029(3) 0.3710(4) 0.2914(2)
C22 C 0.5718(3) 0.2602(4) 0.2284(2)
H19 H 0.6398 0.2067 0.2156
C23 C 0.4390(3) 0.2277(4) 0.1839(2)
H20 H 0.4167 0.1505 0.1409
C24 C -0.2231(3) 0.2618(4) 0.04879(19)
C25 C -0.2985(3) 0.3877(4) 0.0447(2)
H21 H -0.2625 0.4660 0.0851
C26 C -0.4253(3) 0.4000(5) -0.0177(2)
H22 H -0.4754 0.4864 -0.0198
C27 C -0.4790(3) 0.2861(5) -0.0772(2)
H23 H -0.5651 0.2947 -0.1208
C28 C -0.4056(3) 0.1599(5) -0.0722(2)
H24 H -0.4424 0.0811 -0.1120
C29 C -0.2784(3) 0.1469(4) -0.0095(2)
H25 H -0.2294 0.0595 -0.0067
C30 C -0.0756(3) 0.0062(4) 0.16561(19)
C31 C -0.0830(4) -0.2508(4) 0.1842(2)
H26 H -0.0861 -0.3383 0.1464
H27 H -0.1733 -0.2340 0.1870
C32 C 0.0109(4) -0.2769(4) 0.2779(2)
H28 H 0.1009 -0.2901 0.2754
H29 H -0.0160 -0.3648 0.3031
H30 H 0.0094 -0.1930 0.3165
H31 H -0.073(3) 0.328(3) 0.1533(18)
loop_
_geom_bond_atom_site_label_1
_geom_bond_atom_site_label_2
_geom_bond_site_symmetry_1
_geom_bond_site_symmetry_2
Br1 C21 1_555 1_555
N1 C1 1_555 1_555
N2 C12 1_555 1_555
O1 C1 1_555 1_555
O2 C11 1_555 1_555
O3 C13 1_555 1_555
O4 C13 1_555 1_555
O5 C30 1_555 1_555
O6 C30 1_555 1_555
C1 C2 1_555 1_555
C2 C3 1_555 1_555
C3 C4 1_555 1_555
C4 H1 1_555 1_555
C5 C4 1_555 1_555
H2 C5 1_555 1_555
C6 C5 1_555 1_555
H3 C6 1_555 1_555
C7 C6 1_555 1_555
H4 C7 1_555 1_555
C8 N1 1_555 1_555
C9 C2 1_555 1_555
H5 C9 1_555 1_555
C10 C9 1_555 1_555
H6 C10 1_555 1_555
H7 C10 1_555 1_555
C11 C10 1_555 1_555
C12 C2 1_555 1_555
C13 N1 1_555 1_555
C14 O3 1_555 1_555
C15 C14 1_555 1_555
H8 C15 1_555 1_555
H9 C15 1_555 1_555
H10 C15 1_555 1_555
C16 C14 1_555 1_555
H11 C16 1_555 1_555
H12 C16 1_555 1_555
H13 C16 1_555 1_555
C17 C14 1_555 1_555
H14 C17 1_555 1_555
H15 C17 1_555 1_555
H16 C17 1_555 1_555
C18 C9 1_555 1_555
C19 C18 1_555 1_555
H17 C19 1_555 1_555
C20 C19 1_555 1_555
H18 C20 1_555 1_555
C21 C20 1_555 1_555
C22 C21 1_555 1_555
H19 C22 1_555 1_555
C23 C18 1_555 1_555
H20 C23 1_555 1_555
C24 N2 1_555 1_555
C25 C24 1_555 1_555
H21 C25 1_555 1_555
C26 C25 1_555 1_555
H22 C26 1_555 1_555
C27 C26 1_555 1_555
H23 C27 1_555 1_555
C28 C27 1_555 1_555
H24 C28 1_555 1_555
C29 C24 1_555 1_555
H25 C29 1_555 1_555
C30 C12 1_555 1_555
C31 O5 1_555 1_555
H26 C31 1_555 1_555
H27 C31 1_555 1_555
C32 C31 1_555 1_555
H28 C32 1_555 1_555
H29 C32 1_555 1_555
H30 C32 1_555 1_555
H31 N2 1_555 1_555
C3 C8 1_555 1_555
C7 C8 1_555 1_555
C11 C12 1_555 1_555
C22 C23 1_555 1_555
C28 C29 1_555 1_555

#END
