
#######################################################################
#
#                 Cambridge Crystallographic Data Centre
#                                CCDC 
#
#######################################################################
#
# If this CIF has been generated from an entry in the Cambridge 
# Structural Database, then it will include bibliographic, chemical, 
# crystal, experimental, refinement or atomic coordinate data resulting 
# from the CCDC's data processing and validation procedures.
#
#######################################################################

data_TIDKOJ
_chemical_formula_moiety         'C20 H22 O4'
_chemical_name_systematic        
3-(benzyloxy)-6-methoxy-1,3,4,8,9,9a-hexahydro-4a,8-methanobenzo[7]annulene-5,10(2H)-dione
_symmetry_cell_setting           triclinic
_symmetry_space_group_name_H-M   'P -1'
_symmetry_Int_Tables_number      2
_space_group_name_Hall           '-P 1'
loop_
_symmetry_equiv_pos_site_id
_symmetry_equiv_pos_as_xyz
1 x,y,z
2 -x,-y,-z
_cell_length_a                   7.2134(5)
_cell_length_b                   10.8251(9)
_cell_length_c                   11.0693(12)
_cell_angle_alpha                102.481(8)
_cell_angle_beta                 93.455(7)
_cell_angle_gamma                98.338(6)
_cell_volume                     831.245
_exptl_crystal_colour            colorless
_exptl_crystal_description       plate
_cell_formula_units_Z            2
loop_
_atom_site_label
_atom_site_type_symbol
_atom_site_fract_x
_atom_site_fract_y
_atom_site_fract_z
O1 O 0.25392(17) 0.35706(12) 0.70945(12)
O2 O 0.2495(2) 0.43580(12) 0.43301(13)
O3 O 0.2162(2) 0.07169(13) 0.07991(11)
O4 O 0.0793(3) 0.03263(16) 0.28429(14)
C1 C 0.3289(2) 0.34597(15) 0.40169(15)
C2 C 0.2757(2) 0.21191(15) 0.42516(15)
C3 C 0.4992(2) 0.33766(17) 0.32849(16)
H1 H 0.5678 0.4221 0.3265
C4 C 0.2909(3) 0.15626(17) 0.18707(15)
C5 C 0.1484(2) 0.53293(18) 0.84346(17)
C6 C 0.1986(3) 0.22390(17) 0.65266(16)
H2 H 0.0987 0.1882 0.6975
C7 C 0.2025(3) 0.12363(16) 0.29612(16)
C8 C 0.4235(3) 0.25870(17) 0.20073(16)
H3 H 0.4701 0.2819 0.1308
C9 C 0.1270(3) 0.19808(18) 0.51585(17)
H4 H 0.0393 0.2562 0.5069
H5 H 0.0571 0.1116 0.4916
C10 C 0.4750(2) 0.17965(16) 0.45937(16)
H6 H 0.4767 0.0884 0.4254
C11 C 0.5269(3) 0.2111(2) 0.59944(17)
H7 H 0.6376 0.1741 0.6167
H8 H 0.5587 0.3033 0.6291
C12 C 0.6165(3) 0.26126(19) 0.39573(18)
H9 H 0.7096 0.3187 0.4572
H10 H 0.6809 0.2064 0.3370
C13 C 0.2473(3) 0.5155(2) 0.94782(18)
H11 H 0.2900 0.4382 0.9462
C14 C 0.0880(3) 0.6490(2) 0.8478(2)
H12 H 0.0228 0.6624 0.7779
C15 C 0.3695(3) 0.1612(2) 0.66985(19)
H13 H 0.3359 0.0690 0.6400
H14 H 0.4123 0.1789 0.7576
C16 C 0.1016(3) 0.4269(2) 0.72822(19)
H15 H -0.0103 0.4095 0.6769
C17 C 0.1233(3) 0.7453(2) 0.9548(3)
H16 H 0.0807 0.8227 0.9566
C18 C 0.2832(3) 0.6128(2) 1.05505(19)
H17 H 0.3498 0.6005 1.1249
C19 C 0.2205(3) 0.7277(2) 1.0582(2)
H18 H 0.2440 0.7928 1.1300
C20 C 0.2815(4) 0.0996(2) -0.03168(19)
H19 H 0.2158 0.0370 -0.1019
H20 H 0.4141 0.0970 -0.0310
H21 H 0.2587 0.1834 -0.0374
loop_
_geom_bond_atom_site_label_1
_geom_bond_atom_site_label_2
_geom_bond_site_symmetry_1
_geom_bond_site_symmetry_2
O1 C6 1_555 1_555
O2 C1 1_555 1_555
O3 C4 1_555 1_555
O4 C7 1_555 1_555
C1 C2 1_555 1_555
C2 C7 1_555 1_555
C3 C1 1_555 1_555
H1 C3 1_555 1_555
C4 C7 1_555 1_555
C5 C13 1_555 1_555
C6 H2 1_555 1_555
C8 C3 1_555 1_555
H3 C8 1_555 1_555
C9 C2 1_555 1_555
H4 C9 1_555 1_555
H5 C9 1_555 1_555
C10 C2 1_555 1_555
H6 C10 1_555 1_555
C11 C10 1_555 1_555
H7 C11 1_555 1_555
H8 C11 1_555 1_555
C12 C3 1_555 1_555
H9 C12 1_555 1_555
H10 C12 1_555 1_555
C13 H11 1_555 1_555
C14 C5 1_555 1_555
H12 C14 1_555 1_555
C15 C6 1_555 1_555
H13 C15 1_555 1_555
H14 C15 1_555 1_555
C16 O1 1_555 1_555
H15 C16 1_555 1_555
C17 C14 1_555 1_555
H16 C17 1_555 1_555
C18 C13 1_555 1_555
H17 C18 1_555 1_555
C19 C17 1_555 1_555
H18 C19 1_555 1_555
C20 O3 1_555 1_555
H19 C20 1_555 1_555
H20 C20 1_555 1_555
H21 C20 1_555 1_555
C4 C8 1_555 1_555
C5 C16 1_555 1_555
C6 C9 1_555 1_555
C10 C12 1_555 1_555
C11 C15 1_555 1_555
C18 C19 1_555 1_555

#END
