
#######################################################################
#
#                 Cambridge Crystallographic Data Centre
#                                CCDC 
#
#######################################################################
#
# If this CIF has been generated from an entry in the Cambridge 
# Structural Database, then it will include bibliographic, chemical, 
# crystal, experimental, refinement or atomic coordinate data resulting 
# from the CCDC's data processing and validation procedures.
#
#######################################################################

data_TIDKEY
_chemical_formula_moiety         'C17 H24 O4'
_chemical_name_systematic        
'1-(1-Isopropyl-5-methyl-3-oxo-8-oxabicyclo[3.2.1]oct-6-en-2-yl)but-3-en-2-yl acetate'
_symmetry_cell_setting           orthorhombic
_symmetry_space_group_name_H-M   'P 21 21 21'
_symmetry_Int_Tables_number      19
_space_group_name_Hall           'P 2ac 2ab'
loop_
_symmetry_equiv_pos_site_id
_symmetry_equiv_pos_as_xyz
1 x,y,z
2 1/2-x,-y,1/2+z
3 -x,1/2+y,1/2-z
4 1/2+x,1/2-y,-z
_cell_length_a                   6.0638(7)
_cell_length_b                   14.4211(15)
_cell_length_c                   18.905(2)
_cell_angle_alpha                90
_cell_angle_beta                 90
_cell_angle_gamma                90
_cell_volume                     1653.18
_exptl_crystal_colour            colorless
_exptl_crystal_description       prismatic
_cell_formula_units_Z            4
loop_
_atom_site_label
_atom_site_type_symbol
_atom_site_fract_x
_atom_site_fract_y
_atom_site_fract_z
O1 O 0.6288(2) 0.75347(11) 0.00260(6)
O2 O 0.73711(19) 0.83854(7) 0.19923(5)
O3 O 0.7477(4) 0.42915(13) -0.04041(10)
O4 O 0.5365(3) 0.47470(8) 0.04888(7)
C1 C 0.6804(3) 0.77665(12) 0.06148(8)
C2 C 0.6797(3) 0.70868(11) 0.12336(8)
H1 H 0.8331 0.6908 0.1322
C3 C 0.5954(3) 0.75973(11) 0.19062(8)
C4 C 0.3771(3) 0.80545(15) 0.17403(10)
H2 H 0.2391 0.7783 0.1795
C5 C 0.4138(3) 0.88890(15) 0.15088(11)
H3 H 0.3065 0.9314 0.1374
C6 C 0.6574(3) 0.90519(12) 0.14952(9)
C7 C 0.7469(3) 0.87496(11) 0.07724(9)
H4 H 0.6898 0.9157 0.0408
H5 H 0.9064 0.8798 0.0771
C8 C 0.7370(5) 0.99990(13) 0.17143(12)
H6 H 0.6879 1.0129 0.2187
H7 H 0.6786 1.0457 0.1397
H8 H 0.8952 1.0015 0.1699
C9 C 0.6051(4) 0.70351(13) 0.25880(9)
H9 H 0.5146 0.6479 0.2518
C10 C 0.8363(5) 0.67171(19) 0.27627(12)
H10 H 0.8908 0.6331 0.2387
H11 H 0.8344 0.6371 0.3196
H12 H 0.9306 0.7247 0.2815
C11 C 0.5080(5) 0.75671(18) 0.32048(10)
H13 H 0.5111 0.7186 0.3621
H14 H 0.3584 0.7734 0.3099
H15 H 0.5931 0.8118 0.3286
C12 C 0.5520(3) 0.61983(11) 0.10529(10)
H16 H 0.4965 0.5927 0.1487
H17 H 0.4260 0.6360 0.0762
C13 C 0.6879(2) 0.54874(8) 0.06700(7)
H18 H 0.7801 0.5721 0.0283
C14 C 0.8169(2) 0.49457(8) 0.13029(7)
H19 H 0.7423 0.4735 0.1701
C15 C 1.0225(2) 0.48219(8) 0.12325(7)
H20 H 1.0943 0.5037 0.0830
H21 H 1.1016 0.4515 0.1583
C16 C 0.5897(2) 0.41851(8) -0.00463(7)
C17 C 0.4203(2) 0.34486(8) -0.01381(7)
H22 H 0.4584 0.3068 -0.0537
H23 H 0.2790 0.3730 -0.0217
H24 H 0.4143 0.3073 0.0281
H25? H 0.7493 0.5763 0.0252
C18? C 0.9125(2) 0.52503(8) 0.09201(7)
H26? H 1.0347 0.5589 0.0774
C19? C 0.9335(2) 0.45273(8) 0.13655(7)
H27? H 0.8095 0.4196 0.1506
H28? H 1.0721 0.4359 0.1533
loop_
_geom_bond_atom_site_label_1
_geom_bond_atom_site_label_2
_geom_bond_site_symmetry_1
_geom_bond_site_symmetry_2
O1 C1 1_555 1_555
O2 C3 1_555 1_555
O3 C16 1_555 1_555
O4 C13 1_555 1_555
C1 C2 1_555 1_555
C2 H1 1_555 1_555
C3 C2 1_555 1_555
C4 C3 1_555 1_555
H2 C4 1_555 1_555
C5 C4 1_555 1_555
H3 C5 1_555 1_555
C6 O2 1_555 1_555
C7 C1 1_555 1_555
H4 C7 1_555 1_555
H5 C7 1_555 1_555
C8 C6 1_555 1_555
H6 C8 1_555 1_555
H7 C8 1_555 1_555
H8 C8 1_555 1_555
C9 C3 1_555 1_555
H9 C9 1_555 1_555
C10 C9 1_555 1_555
H10 C10 1_555 1_555
H11 C10 1_555 1_555
H12 C10 1_555 1_555
C11 C9 1_555 1_555
H13 C11 1_555 1_555
H14 C11 1_555 1_555
H15 C11 1_555 1_555
C12 C2 1_555 1_555
H16 C12 1_555 1_555
H17 C12 1_555 1_555
C13 C12 1_555 1_555
H18 C13 1_555 1_555
C14 C13 1_555 1_555
H19 C14 1_555 1_555
C15 C14 1_555 1_555
H20 C15 1_555 1_555
H21 C15 1_555 1_555
C16 O4 1_555 1_555
C17 C16 1_555 1_555
H22 C17 1_555 1_555
H23 C17 1_555 1_555
H24 C17 1_555 1_555
C5 C6 1_555 1_555
C6 C7 1_555 1_555

#END
