
#######################################################################
#
#                 Cambridge Crystallographic Data Centre
#                                CCDC 
#
#######################################################################
#
# If this CIF has been generated from an entry in the Cambridge 
# Structural Database, then it will include bibliographic, chemical, 
# crystal, experimental, refinement or atomic coordinate data resulting 
# from the CCDC's data processing and validation procedures.
#
#######################################################################

data_TIDMOL
_chemical_formula_moiety         'C31 H38 O8'
_chemical_name_systematic        
'3a,9-bis(acetyloxy)-2,5,10-trimethyl-6-(2-methylprop-1-en-1-yl)-4,7-dioxo-2,3,3a,4,5,6,7,8,9,11a-decahydro-1H-cyclopenta[10]annulen-1-yl benzoate'
_symmetry_cell_setting           monoclinic
_symmetry_space_group_name_H-M   'C 2'
_symmetry_Int_Tables_number      5
_space_group_name_Hall           'C 2y'
loop_
_symmetry_equiv_pos_site_id
_symmetry_equiv_pos_as_xyz
1 x,y,z
2 -x,y,-z
3 1/2+x,1/2+y,z
4 1/2-x,1/2+y,-z
_cell_length_a                   20.8269(7)
_cell_length_b                   10.7823(3)
_cell_length_c                   13.2454(4)
_cell_angle_alpha                90
_cell_angle_beta                 103.021(3)
_cell_angle_gamma                90
_cell_volume                     2897.93
_cell_formula_units_Z            4
loop_
_atom_site_label
_atom_site_type_symbol
_atom_site_fract_x
_atom_site_fract_y
_atom_site_fract_z
O1 O -0.17970(5) -0.37739(10) -0.69148(8)
O2 O -0.04987(6) -0.15682(12) -0.67798(9)
O3 O -0.25496(5) -0.29144(9) -0.52914(8)
O4 O -0.24846(6) -0.25297(12) -0.93199(10)
O5 O -0.09965(7) -0.50626(12) -0.71734(11)
O6 O -0.34327(6) -0.08167(11) -0.82336(9)
O7 O -0.29723(6) -0.11917(11) -0.47345(10)
C1 C -0.36997(8) -0.27644(15) -0.56041(11)
C2 C -0.15711(9) -0.48350(15) -0.72549(13)
C3 C -0.22850(7) -0.13741(14) -0.68607(11)
H1 H -0.2630 -0.1928 -0.7087
C4 C -0.30464(8) -0.21877(15) -0.51636(11)
C5 C -0.28757(8) -0.00421(15) -0.82785(12)
H2 H -0.3012 0.0829 -0.8295
C6 C -0.18905(9) 0.08283(15) -0.70034(13)
H3 H -0.2126 0.1484 -0.6755
H4 H -0.1736 0.1113 -0.7593
H5 H -0.1521 0.0584 -0.6465
C7 C -0.42569(9) -0.20222(17) -0.57627(14)
H6 H -0.4219 -0.1187 -0.5583
C8 C -0.18912(8) -0.23823(14) -0.50447(12)
H7 H -0.1856 -0.1749 -0.4504
C9 C -0.49281(8) -0.37757(19) -0.64273(14)
H8 H -0.5340 -0.4118 -0.6701
C10 C -0.23424(8) -0.02659(14) -0.73118(12)
C11 C -0.21400(10) -0.56364(16) -0.77605(14)
H9 H -0.2381 -0.5882 -0.7255
H10 H -0.1979 -0.6360 -0.8045
H11 H -0.2425 -0.5180 -0.8305
C12 C -0.17235(7) -0.18250(13) -0.60268(12)
H12 H -0.1427 -0.1121 -0.5809
C13 C -0.10666(9) -0.33845(19) -0.35237(14)
H13 H -0.0832 -0.2616 -0.3369
H14 H -0.0764 -0.4065 -0.3351
H15 H -0.1398 -0.3443 -0.3125
C14 C -0.45695(9) -0.1203(2) -0.85747(15)
H16 H -0.4484 -0.2035 -0.8766
H17 H -0.4980 -0.0922 -0.9000
H18 H -0.4595 -0.1185 -0.7860
C15 C -0.10960(8) -0.25249(15) -0.83291(12)
H19 H -0.1378 -0.3260 -0.8483
C16 C -0.22220(8) -0.15269(16) -0.91500(11)
C17 C -0.04366(9) -0.2777(2) -0.86268(14)
H20 H -0.0214 -0.3450 -0.8217
H21 H -0.0167 -0.2047 -0.8502
H22 H -0.0517 -0.2992 -0.9348
C18 C -0.40265(9) -0.0374(2) -0.87273(13)
C19 C -0.13953(8) -0.34323(15) -0.46820(13)
H23 H -0.1629 -0.4224 -0.4825
C20 C -0.13194(7) -0.28583(15) -0.64144(12)
C21 C -0.14673(7) -0.13802(15) -0.88973(12)
H24 H -0.1347 -0.0643 -0.8463
O8 O -0.40952(7) 0.05666(18) -0.92162(14)
C22 C -0.48751(9) -0.25256(19) -0.61913(15)
H25 H -0.5248 -0.2025 -0.6317
C23 C -0.37574(8) -0.40175(15) -0.58633(13)
H26 H -0.3383 -0.4514 -0.5770
C24 C -0.43738(9) -0.45212(18) -0.62597(14)
H27 H -0.4415 -0.5363 -0.6414
C25 C -0.09320(8) -0.22858(15) -0.71556(12)
C26 C -0.13198(8) -0.11425(17) -0.99484(13)
H28 H -0.1374 -0.1808 -1.0406
C27 C -0.09022(8) -0.33373(16) -0.53814(13)
H29 H -0.0713 -0.4141 -0.5469
H30 H -0.0550 -0.2762 -0.5096
C28 C -0.10180(10) 0.0017(3) -1.13734(16)
H31 H -0.0565 0.0210 -1.1350
H32 H -0.1294 0.0661 -1.1739
H33 H -0.1130 -0.0759 -1.1724
C29 C -0.26240(8) -0.03297(17) -0.92627(12)
H34 H -0.2997 -0.0405 -0.9849
H35 H -0.2353 0.0353 -0.9401
C30 C -0.11204(8) -0.00764(19) -1.02845(14)
C31 C -0.09764(9) 0.10905(18) -0.96606(16)
H36 H -0.1315 0.1691 -0.9914
H37 H -0.0558 0.1416 -0.9721
H38 H -0.0964 0.0913 -0.8946
loop_
_geom_bond_atom_site_label_1
_geom_bond_atom_site_label_2
_geom_bond_site_symmetry_1
_geom_bond_site_symmetry_2
O1 C2 1_555 1_555
O2 C25 1_555 1_555
O3 C4 1_555 1_555
O4 C16 1_555 1_555
O5 C2 1_555 1_555
O6 C5 1_555 1_555
O7 C4 1_555 1_555
C1 C4 1_555 1_555
C2 C11 1_555 1_555
C3 H1 1_555 1_555
C5 H2 1_555 1_555
C6 H3 1_555 1_555
H4 C6 1_555 1_555
H5 C6 1_555 1_555
C7 C1 1_555 1_555
H6 C7 1_555 1_555
C8 O3 1_555 1_555
H7 C8 1_555 1_555
C9 H8 1_555 1_555
C10 C3 1_555 1_555
C11 H9 1_555 1_555
H10 C11 1_555 1_555
H11 C11 1_555 1_555
C12 C3 1_555 1_555
H12 C12 1_555 1_555
C13 H13 1_555 1_555
H14 C13 1_555 1_555
H15 C13 1_555 1_555
C14 H16 1_555 1_555
H17 C14 1_555 1_555
H18 C14 1_555 1_555
C15 H19 1_555 1_555
C16 C21 1_555 1_555
C17 C15 1_555 1_555
H20 C17 1_555 1_555
H21 C17 1_555 1_555
H22 C17 1_555 1_555
C18 O6 1_555 1_555
C19 C8 1_555 1_555
H23 C19 1_555 1_555
C20 O1 1_555 1_555
C21 C15 1_555 1_555
H24 C21 1_555 1_555
O8 C18 1_555 1_555
C22 C7 1_555 1_555
H25 C22 1_555 1_555
C23 C1 1_555 1_555
H26 C23 1_555 1_555
C24 C9 1_555 1_555
H27 C24 1_555 1_555
C25 C15 1_555 1_555
C26 C21 1_555 1_555
H28 C26 1_555 1_555
C27 C19 1_555 1_555
H29 C27 1_555 1_555
H30 C27 1_555 1_555
C28 H31 1_555 1_555
H32 C28 1_555 1_555
H33 C28 1_555 1_555
C29 C5 1_555 1_555
H34 C29 1_555 1_555
H35 C29 1_555 1_555
C30 C26 1_555 1_555
C31 C30 1_555 1_555
H36 C31 1_555 1_555
H37 C31 1_555 1_555
H38 C31 1_555 1_555
C5 C10 1_555 1_555
C6 C10 1_555 1_555
C8 C12 1_555 1_555
C9 C22 1_555 1_555
C12 C20 1_555 1_555
C13 C19 1_555 1_555
C14 C18 1_555 1_555
C16 C29 1_555 1_555
C20 C25 1_555 1_555
C20 C27 1_555 1_555
C23 C24 1_555 1_555
C28 C30 1_555 1_555

#END
