
#######################################################################
#
#                 Cambridge Crystallographic Data Centre
#                                CCDC 
#
#######################################################################
#
# If this CIF has been generated from an entry in the Cambridge 
# Structural Database, then it will include bibliographic, chemical, 
# crystal, experimental, refinement or atomic coordinate data resulting 
# from the CCDC's data processing and validation procedures.
#
#######################################################################

data_TIDNEB
_chemical_name_common            'gelsochalotine monohydrate'
_chemical_formula_moiety         'C14 H19 N1 O4,H2 O1'
_chemical_name_systematic        
'Methyl 9-ethylidene-2-(hydroxymethyl)-5-oxo-7-azatricyclo[4.3.1.0^3,7^]decane-2-carboxylate monohydrate'
_symmetry_cell_setting           monoclinic
_symmetry_space_group_name_H-M   'P 21'
_symmetry_Int_Tables_number      4
_space_group_name_Hall           'P 2yb'
loop_
_symmetry_equiv_pos_site_id
_symmetry_equiv_pos_as_xyz
1 x,y,z
2 -x,1/2+y,-z
_cell_length_a                   7.89080(10)
_cell_length_b                   6.99770(10)
_cell_length_c                   13.7727(2)
_cell_angle_alpha                90
_cell_angle_beta                 103.3970(10)
_cell_angle_gamma                90
_cell_volume                     739.799
_exptl_crystal_colour            colorless
_exptl_crystal_description       block
_cell_formula_units_Z            2
loop_
_atom_site_label
_atom_site_type_symbol
_atom_site_fract_x
_atom_site_fract_y
_atom_site_fract_z
O1 O 0.4049(2) 0.1277(3) 0.92748(17)
O2 O 0.4647(2) 0.1113(3) 0.62938(15)
O3 O 0.5930(2) -0.1726(2) 0.65417(12)
O4 O 0.8838(2) 0.0912(3) 0.58944(11)
H1 H 0.8732 0.0000 0.5512
N1 N 0.8355(2) 0.1709(3) 0.91679(12)
C1 C 0.6703(3) 0.2771(3) 0.90465(15)
H2 H 0.6739 0.3674 0.9595
C2 C 0.6215(3) 0.3776(3) 0.80150(16)
H3 H 0.5037 0.3437 0.7671
H4 H 0.6274 0.5152 0.8101
C3 C 0.7510(2) 0.3123(3) 0.74020(13)
H5 H 0.7202 0.3681 0.6732
C4 C 0.9273(2) 0.3818(3) 0.79558(14)
C5 C 0.9773(3) 0.2927(4) 0.89849(15)
H6 H 1.0818 0.2166 0.9042
H7 H 1.0023 0.3928 0.9485
C6 C 0.7866(2) 0.0131(3) 0.84499(13)
H8 H 0.8780 -0.0847 0.8569
C7 C 0.6240(3) -0.0627(3) 0.87538(15)
H9 H 0.5450 -0.1241 0.8196
H10 H 0.6549 -0.1528 0.9302
C8 C 0.5447(3) 0.1155(4) 0.90681(15)
C9 C 0.7554(2) 0.0910(3) 0.73368(13)
C10 C 1.0212(3) 0.5092(3) 0.76000(17)
H11 H 0.9789 0.5513 0.6948
C11 C 1.1904(3) 0.5901(4) 0.8170(2)
H12 H 1.2337 0.6795 0.7757
H13 H 1.2732 0.4886 0.8363
H14 H 1.1728 0.6542 0.8755
C12 C 0.9055(3) 0.0243(3) 0.68843(14)
H15 H 1.0150 0.0713 0.7288
H16 H 0.9100 -0.1143 0.6888
C13 C 0.5878(3) 0.0161(3) 0.66711(14)
C14 C 0.4388(4) -0.2584(5) 0.5917(2)
H17 H 0.4563 -0.3935 0.5872
H18 H 0.4172 -0.2031 0.5262
H19 H 0.3407 -0.2354 0.6203
O5 O 0.8506(3) 0.7930(5) 0.4673(2)
H20 H 0.933(3) 0.756(6) 0.446(2)
H21 H 0.777(4) 0.710(5) 0.449(3)
loop_
_geom_bond_atom_site_label_1
_geom_bond_atom_site_label_2
_geom_bond_site_symmetry_1
_geom_bond_site_symmetry_2
O1 C8 1_555 1_555
O2 C13 1_555 1_555
O3 C13 1_555 1_555
O4 H1 1_555 1_555
N1 C1 1_555 1_555
C1 H2 1_555 1_555
C2 C1 1_555 1_555
H3 C2 1_555 1_555
H4 C2 1_555 1_555
C3 C2 1_555 1_555
H5 C3 1_555 1_555
C4 C3 1_555 1_555
C5 N1 1_555 1_555
H6 C5 1_555 1_555
H7 C5 1_555 1_555
C6 N1 1_555 1_555
H8 C6 1_555 1_555
C7 C6 1_555 1_555
H9 C7 1_555 1_555
H10 C7 1_555 1_555
C8 C1 1_555 1_555
C9 C3 1_555 1_555
C10 C4 1_555 1_555
H11 C10 1_555 1_555
C11 C10 1_555 1_555
H12 C11 1_555 1_555
H13 C11 1_555 1_555
H14 C11 1_555 1_555
C12 O4 1_555 1_555
H15 C12 1_555 1_555
H16 C12 1_555 1_555
C13 C9 1_555 1_555
C14 O3 1_555 1_555
H17 C14 1_555 1_555
H18 C14 1_555 1_555
H19 C14 1_555 1_555
O5 H20 1_555 1_555
H21 O5 1_555 1_555
C4 C5 1_555 1_555
C6 C9 1_555 1_555
C7 C8 1_555 1_555
C9 C12 1_555 1_555

#END
