
#######################################################################
#
#                 Cambridge Crystallographic Data Centre
#                                CCDC 
#
#######################################################################
#
# If this CIF has been generated from an entry in the Cambridge 
# Structural Database, then it will include bibliographic, chemical, 
# crystal, experimental, refinement or atomic coordinate data resulting 
# from the CCDC's data processing and validation procedures.
#
#######################################################################

data_TIDQON
_chemical_formula_moiety         'C28 H30 F3 N3 O6'
_chemical_name_systematic        
'rac-(Z)-N-(Phthaloyl)glycyl-DL-N-(2,2,2-trifluoroethyl)phenylalanyl-L-leucine methyl ester'
_symmetry_cell_setting           monoclinic
_symmetry_space_group_name_H-M   'C 2'
_symmetry_Int_Tables_number      5
_space_group_name_Hall           'C 2y'
loop_
_symmetry_equiv_pos_site_id
_symmetry_equiv_pos_as_xyz
1 x,y,z
2 -x,y,-z
3 1/2+x,1/2+y,z
4 1/2-x,1/2+y,-z
_cell_length_a                   24.800(5)
_cell_length_b                   8.0711(16)
_cell_length_c                   29.210(6)
_cell_angle_alpha                90
_cell_angle_beta                 106.60(3)
_cell_angle_gamma                90
_cell_volume                     5603.09
_exptl_crystal_colour            colorless
_exptl_crystal_description       rod
_chemical_melting_point          '147-149 deg.C'
_cell_formula_units_Z            8
loop_
_atom_site_label
_atom_site_type_symbol
_atom_site_fract_x
_atom_site_fract_y
_atom_site_fract_z
F1 F 0.1654(2) 0.0338(7) 0.3158(2)
F2 F 0.1315(3) -0.1967(8) 0.2899(3)
F3 F 0.1117(2) -0.0885(10) 0.3490(2)
C1 C 0.0161(3) 0.2031(13) 0.3128(3)
C2 C -0.0158(3) 0.0559(14) 0.3211(3)
H1 H -0.0369 0.0100 0.2910
H2 H 0.0100 -0.0272 0.3380
C3 C -0.1092(4) 0.1438(13) 0.3290(4)
C4 C -0.0367(3) 0.1121(14) 0.3982(3)
C5 C -0.1297(4) 0.1810(11) 0.3714(3)
C6 C -0.0871(4) 0.1587(14) 0.4118(4)
C7 C -0.1852(4) 0.2145(15) 0.3727(5)
H3 H -0.2157 0.2276 0.3441
C8 C -0.1930(6) 0.2277(17) 0.4180(6)
H4 H -0.2296 0.2540 0.4209
C9 C -0.1494(7) 0.2037(18) 0.4581(6)
H5 H -0.1557 0.2131 0.4890
C10 C -0.0961(5) 0.1659(16) 0.4551(4)
H6 H -0.0659 0.1450 0.4835
C11 C 0.1321(3) 0.4033(11) 0.3184(3)
C12 C 0.0871(3) 0.3289(11) 0.2776(3)
H7 H 0.1071 0.2845 0.2566
C13 C 0.0485(3) 0.4641(12) 0.2477(3)
H8 H 0.0310 0.5245 0.2679
H9 H 0.0709 0.5406 0.2358
C14 C 0.0025(3) 0.3919(11) 0.2053(3)
C15 C -0.0533(3) 0.4210(13) 0.2021(4)
H10 H -0.0634 0.4828 0.2265
C16 C -0.0958(4) 0.3581(15) 0.1620(4)
H11 H -0.1348 0.3763 0.1597
C17 C -0.0815(4) 0.2732(15) 0.1275(3)
H12 H -0.1103 0.2333 0.1003
C18 C -0.0260(4) 0.2435(13) 0.1310(3)
H13 H -0.0161 0.1818 0.1065
C19 C 0.0163(4) 0.3030(13) 0.1704(3)
H14 H 0.0551 0.2813 0.1729
C20 C 0.2034(4) 0.3747(16) 0.4264(3)
C21 C 0.1576(4) 0.4985(14) 0.4027(4)
H15 H 0.1739 0.6018 0.3971
C22 C 0.1217(8) 0.522(3) 0.4465(7)
H16 H 0.1032 0.4191 0.4488
H17 H 0.1492 0.5400 0.4767
C23 C 0.0868(10) 0.632(6) 0.4407(6)
H18 H 0.0663 0.6505 0.4078
C24 C 0.0505(11) 0.617(6) 0.4729(10)
H19 H 0.0311 0.5129 0.4674
H20 H 0.0235 0.7059 0.4666
H21 H 0.0733 0.6232 0.5055
C25 C 0.1264(10) 0.796(3) 0.4667(10)
H22 H 0.1596 0.7570 0.4901
H23 H 0.1051 0.8648 0.4820
H24 H 0.1371 0.8592 0.4428
C26 C 0.0695(3) 0.0253(12) 0.2729(3)
H25 H 0.0774 0.0396 0.2428
H26 H 0.0369 -0.0441 0.2677
C27 C 0.1187(4) -0.0602(13) 0.3072(4)
C28 C 0.2304(5) 0.0967(19) 0.4372(5)
H27 H 0.2659 0.1498 0.4514
H28 H 0.2345 0.0182 0.4138
H29 H 0.2183 0.0404 0.4615
N1 N -0.0537(3) 0.1023(10) 0.3485(3)
N2 N 0.0572(2) 0.1858(8) 0.29006(19)
N3 N 0.1185(3) 0.4369(10) 0.3586(2)
H30 H 0.0834 0.4206 0.3585
O1 O 0.0061(2) 0.3440(9) 0.3267(2)
O2 O 0.1798(2) 0.4296(8) 0.3151(2)
O3 O 0.2457(3) 0.4157(15) 0.4547(3)
O4 O -0.1326(2) 0.1471(9) 0.2875(2)
O5 O 0.0115(3) 0.0822(12) 0.4227(2)
O6 O 0.1887(3) 0.2213(11) 0.4144(2)
F4 F -0.2927(2) 0.0753(8) 0.1534(2)
F5 F -0.3467(2) -0.0410(7) 0.1874(2)
F6 F -0.3132(2) 0.1976(8) 0.2103(3)
C29 C -0.1976(3) -0.2120(13) 0.1943(3)
C30 C -0.1641(4) -0.0593(12) 0.1848(3)
H31 H -0.1896 0.0218 0.1665
H32 H -0.1437 -0.0096 0.2146
C31 C -0.0697(3) -0.1509(11) 0.1807(3)
C32 C -0.1401(4) -0.1367(14) 0.1097(4)
C33 C -0.0452(3) -0.1929(13) 0.1426(3)
C34 C -0.0867(4) -0.1870(13) 0.1000(3)
C35 C 0.0080(4) -0.2414(13) 0.1436(4)
H33 H 0.0371 -0.2483 0.1733
C36 C 0.0188(5) -0.2795(18) 0.1017(5)
H34 H 0.0562 -0.3077 0.1011
C37 C -0.0252(7) -0.277(2) 0.0600(5)
H35 H -0.0176 -0.3104 0.0309
C38 C -0.0783(5) -0.2293(19) 0.0577(4)
H36 H -0.1079 -0.2259 0.0282
C39 C -0.3153(3) -0.4025(11) 0.1914(3)
C40 C -0.2673(3) -0.3275(11) 0.2315(3)
H37 H -0.2855 -0.2802 0.2534
C41 C -0.2283(3) -0.4563(12) 0.2602(3)
H38 H -0.2111 -0.5141 0.2393
H39 H -0.2503 -0.5353 0.2717
C42 C -0.1824(3) -0.3918(12) 0.3022(3)
C43 C -0.1287(4) -0.4204(14) 0.3070(3)
H40 H -0.1187 -0.4777 0.2818
C44 C -0.0874(4) -0.3732(14) 0.3454(4)
H41 H -0.0492 -0.4033 0.3480
C45 C -0.0991(4) -0.2839(14) 0.3804(4)
H42 H -0.0692 -0.2482 0.4075
C46 C -0.1543(4) -0.2439(14) 0.3771(3)
H43 H -0.1635 -0.1775 0.4011
C47 C -0.1968(3) -0.3039(14) 0.3373(3)
H44 H -0.2356 -0.2833 0.3347
C48 C -0.3203(8) -0.6303(16) 0.0832(4)
C49 C -0.3434(5) -0.5191(17) 0.1124(4)
H45 H -0.3641 -0.5904 0.1276
C50 C -0.3858(6) -0.4084(18) 0.0825(5)
H46 H -0.4093 -0.3703 0.1014
H47 H -0.4091 -0.4732 0.0569
C51 C -0.3667(6) -0.261(2) 0.0612(5)
H48 H -0.3395 -0.2031 0.0861
C52 C -0.4160(8) -0.140(2) 0.0388(9)
H49 H -0.4396 -0.1861 0.0097
H50 H -0.4011 -0.0356 0.0321
H51 H -0.4377 -0.1226 0.0609
C53 C -0.3402(10) -0.303(3) 0.0237(8)
H52 H -0.3063 -0.3644 0.0375
H53 H -0.3314 -0.2031 0.0095
H54 H -0.3656 -0.3689 -0.0003
C54 C -0.2508(3) -0.0245(11) 0.2305(3)
H55 H -0.2191 0.0473 0.2335
H56 H -0.2575 -0.0314 0.2612
C55 C -0.3002(4) 0.0490(13) 0.1966(4)
C56 C -0.2578(9) -0.749(3) 0.0508(7)
H57 H -0.2940 -0.7840 0.0310
H58 H -0.2373 -0.8437 0.0667
H59 H -0.2372 -0.6977 0.0313
N4 N -0.1257(3) -0.1109(10) 0.1592(2)
N5 N -0.2372(2) -0.1859(9) 0.2170(2)
N6 N -0.3019(3) -0.4420(11) 0.1514(2)
H60 H -0.2680 -0.4208 0.1490
O7 O -0.1874(2) -0.3484(8) 0.1810(2)
O8 O -0.3597(2) -0.4267(9) 0.1973(2)
O9 O -0.3466(6) -0.7285(12) 0.0550(3)
O10 O -0.0480(2) -0.1502(9) 0.2234(2)
O11 O -0.1851(3) -0.1101(13) 0.0831(3)
O12 O -0.2661(5) -0.6173(13) 0.0903(3)
loop_
_geom_bond_atom_site_label_1
_geom_bond_atom_site_label_2
_geom_bond_site_symmetry_1
_geom_bond_site_symmetry_2
F1 C27 1_555 1_555
F2 C27 1_555 1_555
F3 C27 1_555 1_555
C1 C2 1_555 1_555
C2 H1 1_555 1_555
H2 C2 1_555 1_555
C3 C5 1_555 1_555
C4 C6 1_555 1_555
C5 C6 1_555 1_555
C6 C10 1_555 1_555
C7 C5 1_555 1_555
H3 C7 1_555 1_555
C8 C7 1_555 1_555
H4 C8 1_555 1_555
C9 C8 1_555 1_555
H5 C9 1_555 1_555
C10 C9 1_555 1_555
H6 C10 1_555 1_555
C11 C12 1_555 1_555
C12 H7 1_555 1_555
C13 C12 1_555 1_555
H8 C13 1_555 1_555
H9 C13 1_555 1_555
C14 C13 1_555 1_555
C15 C14 1_555 1_555
H10 C15 1_555 1_555
C16 C15 1_555 1_555
H11 C16 1_555 1_555
C17 C16 1_555 1_555
H12 C17 1_555 1_555
C18 C17 1_555 1_555
H13 C18 1_555 1_555
C19 C14 1_555 1_555
H14 C19 1_555 1_555
C20 C21 1_555 1_555
C21 H15 1_555 1_555
C22 C21 1_555 1_555
H16 C22 1_555 1_555
H17 C22 1_555 1_555
C23 C22 1_555 1_555
H18 C23 1_555 1_555
C24 C23 1_555 1_555
H19 C24 1_555 1_555
H20 C24 1_555 1_555
H21 C24 1_555 1_555
C25 C23 1_555 1_555
H22 C25 1_555 1_555
H23 C25 1_555 1_555
H24 C25 1_555 1_555
C26 H25 1_555 1_555
H26 C26 1_555 1_555
C27 C26 1_555 1_555
C28 H27 1_555 1_555
H28 C28 1_555 1_555
H29 C28 1_555 1_555
N1 C2 1_555 1_555
N2 C1 1_555 1_555
N3 C11 1_555 1_555
H30 N3 1_555 1_555
O1 C1 1_555 1_555
O2 C11 1_555 1_555
O3 C20 1_555 1_555
O4 C3 1_555 1_555
O5 C4 1_555 1_555
O6 C20 1_555 1_555
F4 C55 1_555 1_555
F5 C55 1_555 1_555
F6 C55 1_555 1_555
C29 C30 1_555 1_555
C30 H31 1_555 1_555
H32 C30 1_555 1_555
C31 C33 1_555 1_555
C32 C34 1_555 1_555
C33 C34 1_555 1_555
C34 C38 1_555 1_555
C35 C33 1_555 1_555
H33 C35 1_555 1_555
C36 C35 1_555 1_555
H34 C36 1_555 1_555
C37 C36 1_555 1_555
H35 C37 1_555 1_555
C38 C37 1_555 1_555
H36 C38 1_555 1_555
C39 C40 1_555 1_555
C40 H37 1_555 1_555
C41 C40 1_555 1_555
H38 C41 1_555 1_555
H39 C41 1_555 1_555
C42 C41 1_555 1_555
C43 C42 1_555 1_555
H40 C43 1_555 1_555
C44 C43 1_555 1_555
H41 C44 1_555 1_555
C45 C44 1_555 1_555
H42 C45 1_555 1_555
C46 C45 1_555 1_555
H43 C46 1_555 1_555
C47 C42 1_555 1_555
H44 C47 1_555 1_555
C48 C49 1_555 1_555
C49 H45 1_555 1_555
C50 C49 1_555 1_555
H46 C50 1_555 1_555
H47 C50 1_555 1_555
C51 C50 1_555 1_555
H48 C51 1_555 1_555
C52 C51 1_555 1_555
H49 C52 1_555 1_555
H50 C52 1_555 1_555
H51 C52 1_555 1_555
C53 C51 1_555 1_555
H52 C53 1_555 1_555
H53 C53 1_555 1_555
H54 C53 1_555 1_555
C54 H55 1_555 1_555
H56 C54 1_555 1_555
C55 C54 1_555 1_555
C56 H57 1_555 1_555
H58 C56 1_555 1_555
H59 C56 1_555 1_555
N4 C30 1_555 1_555
N5 C29 1_555 1_555
N6 C39 1_555 1_555
H60 N6 1_555 1_555
O7 C29 1_555 1_555
O8 C39 1_555 1_555
O9 C48 1_555 1_555
O10 C31 1_555 1_555
O11 C32 1_555 1_555
O12 C48 1_555 1_555
C3 N1 1_555 1_555
C4 N1 1_555 1_555
C12 N2 1_555 1_555
C18 C19 1_555 1_555
C21 N3 1_555 1_555
C26 N2 1_555 1_555
C28 O6 1_555 1_555
C31 N4 1_555 1_555
C32 N4 1_555 1_555
C40 N5 1_555 1_555
C46 C47 1_555 1_555
C49 N6 1_555 1_555
C54 N5 1_555 1_555
C56 O12 1_555 1_555

#END
