
#######################################################################
#
#                 Cambridge Crystallographic Data Centre
#                                CCDC 
#
#######################################################################
#
# If this CIF has been generated from an entry in the Cambridge 
# Structural Database, then it will include bibliographic, chemical, 
# crystal, experimental, refinement or atomic coordinate data resulting 
# from the CCDC's data processing and validation procedures.
#
#######################################################################

data_TIDSAC
_chemical_formula_moiety         'C12 H13 N5 O4'
_chemical_name_systematic        
'Ethyl 5-methyl-1-((4-nitrophenyl)amino)-1H-1,2,3-triazole-4-carboxylate'
_symmetry_cell_setting           monoclinic
_symmetry_space_group_name_H-M   'P 21/c'
_symmetry_Int_Tables_number      14
_space_group_name_Hall           '-P 2ybc'
loop_
_symmetry_equiv_pos_site_id
_symmetry_equiv_pos_as_xyz
1 x,y,z
2 -x,1/2+y,1/2-z
3 -x,-y,-z
4 x,1/2-y,1/2+z
_cell_length_a                   10.1622(19)
_cell_length_b                   17.127(3)
_cell_length_c                   15.487(3)
_cell_angle_alpha                90
_cell_angle_beta                 92.476(7)
_cell_angle_gamma                90
_cell_volume                     2692.96
_exptl_crystal_colour            yellow
_exptl_crystal_description       Prism
_cell_formula_units_Z            8
loop_
_atom_site_label
_atom_site_type_symbol
_atom_site_fract_x
_atom_site_fract_y
_atom_site_fract_z
O1 O 0.69036(19) 0.18601(13) 1.10273(13)
O2 O 0.88596(18) 0.12530(11) 1.11678(13)
O3 O 0.7599(2) -0.01516(13) 0.52302(15)
O4 O 0.8946(2) 0.04799(14) 0.44343(15)
N1 N 0.9340(2) 0.21586(15) 0.87149(15)
N2 N 0.8198(2) 0.25899(15) 0.86893(16)
N3 N 0.7634(2) 0.24486(15) 0.94140(16)
N4 N 1.0104(2) 0.21285(16) 0.80028(16)
H1 H 1.066(3) 0.2520(13) 0.793(2)
N5 N 0.8429(2) 0.03626(15) 0.51261(17)
C1 C 0.9500(3) 0.17429(17) 0.94563(19)
C2 C 0.8395(3) 0.19343(17) 0.98959(19)
C3 C 1.0652(3) 0.12287(19) 0.9647(2)
H2 H 1.1221 0.1465 1.0102
H3 H 1.1149 0.1163 0.9123
H4 H 1.0347 0.0718 0.9841
C4 C 0.7966(3) 0.16838(17) 1.07444(19)
C5 C 0.8513(3) 0.10035(18) 1.20331(18)
H5 H 0.7620 0.0772 1.2015
H6 H 0.8526 0.1455 1.2433
C6 C 0.9513(3) 0.04103(19) 1.2331(2)
H7 H 0.9489 -0.0034 1.1932
H8 H 0.9314 0.0229 1.2912
H9 H 1.0392 0.0646 1.2346
C7 C 0.9618(3) 0.17296(16) 0.72779(19)
C8 C 0.8522(3) 0.12388(17) 0.7318(2)
H10 H 0.8048 0.1210 0.7832
C9 C 0.8132(3) 0.07953(17) 0.6607(2)
H11 H 0.7399 0.0453 0.6631
C10 C 0.8822(3) 0.08569(17) 0.58593(19)
C11 C 0.9883(3) 0.13580(17) 0.5798(2)
H12 H 1.0329 0.1400 0.5273
C12 C 1.0284(3) 0.17961(17) 0.65102(19)
H13 H 1.1011 0.2142 0.6479
O5 O 0.20217(19) 0.32329(12) -0.26021(13)
O6 O 0.39636(18) 0.38716(12) -0.25452(13)
O7 O 0.3202(2) 0.47226(13) 0.40373(14)
O8 O 0.4534(2) 0.38544(14) 0.46018(14)
N6 N 0.4117(2) 0.31071(14) -0.00197(15)
N7 N 0.2938(2) 0.27207(15) -0.00606(17)
N8 N 0.2432(2) 0.28513(15) -0.08328(16)
N9 N 0.4988(2) 0.30253(16) 0.06871(16)
H14 H 0.551(3) 0.2612(12) 0.067(2)
N10 N 0.3947(2) 0.41584(15) 0.39751(17)
C13 C 0.4369(3) 0.34786(17) -0.07606(19)
C14 C 0.3282(3) 0.33009(16) -0.12837(19)
C15 C 0.5568(3) 0.3961(2) -0.0872(2)
H15 H 0.6158 0.3691 -0.1257
H16 H 0.6022 0.4044 -0.0308
H17 H 0.5313 0.4467 -0.1124
C16 C 0.2999(3) 0.34594(17) -0.2202(2)
C17 C 0.3864(3) 0.40160(18) -0.34792(18)
H18 H 0.3404 0.3574 -0.3772
H19 H 0.4758 0.4054 -0.3705
C18 C 0.3121(3) 0.47600(18) -0.3672(2)
H20 H 0.3540 0.5191 -0.3348
H21 H 0.2208 0.4702 -0.3501
H22 H 0.3129 0.4871 -0.4292
C19 C 0.4633(3) 0.32825(17) 0.14931(19)
C20 C 0.3666(3) 0.38536(17) 0.15950(19)
H23 H 0.3171 0.4046 0.1106
C21 C 0.3437(3) 0.41332(18) 0.2406(2)
H24 H 0.2792 0.4527 0.2479
C22 C 0.4150(3) 0.38405(17) 0.31193(19)
C23 C 0.5083(3) 0.32621(17) 0.30316(19)
H25 H 0.5551 0.3059 0.3526
C24 C 0.5326(3) 0.29842(18) 0.22232(19)
H26 H 0.5968 0.2588 0.2158
loop_
_geom_bond_atom_site_label_1
_geom_bond_atom_site_label_2
_geom_bond_site_symmetry_1
_geom_bond_site_symmetry_2
O1 C4 1_555 1_555
O2 C4 1_555 1_555
O3 N5 1_555 1_555
O4 N5 1_555 1_555
N1 N2 1_555 1_555
N2 N3 1_555 1_555
N3 C2 1_555 1_555
N4 N1 1_555 1_555
H1 N4 1_555 1_555
N5 C10 1_555 1_555
C1 N1 1_555 1_555
C2 C1 1_555 1_555
C3 C1 1_555 1_555
H2 C3 1_555 1_555
H3 C3 1_555 1_555
H4 C3 1_555 1_555
C4 C2 1_555 1_555
C5 O2 1_555 1_555
H5 C5 1_555 1_555
H6 C5 1_555 1_555
C6 C5 1_555 1_555
H7 C6 1_555 1_555
H8 C6 1_555 1_555
H9 C6 1_555 1_555
C7 N4 1_555 1_555
C8 C7 1_555 1_555
H10 C8 1_555 1_555
C9 C8 1_555 1_555
H11 C9 1_555 1_555
C10 C9 1_555 1_555
C11 C10 1_555 1_555
H12 C11 1_555 1_555
C12 C7 1_555 1_555
H13 C12 1_555 1_555
O5 C16 1_555 1_555
O6 C16 1_555 1_555
O7 N10 1_555 1_555
O8 N10 1_555 1_555
N6 N7 1_555 1_555
N7 N8 1_555 1_555
N8 C14 1_555 1_555
N9 N6 1_555 1_555
H14 N9 1_555 1_555
N10 C22 1_555 1_555
C13 N6 1_555 1_555
C14 C13 1_555 1_555
C15 C13 1_555 1_555
H15 C15 1_555 1_555
H16 C15 1_555 1_555
H17 C15 1_555 1_555
C16 C14 1_555 1_555
C17 O6 1_555 1_555
H18 C17 1_555 1_555
H19 C17 1_555 1_555
C18 C17 1_555 1_555
H20 C18 1_555 1_555
H21 C18 1_555 1_555
H22 C18 1_555 1_555
C19 N9 1_555 1_555
C20 C19 1_555 1_555
H23 C20 1_555 1_555
C21 C20 1_555 1_555
H24 C21 1_555 1_555
C22 C21 1_555 1_555
C23 C22 1_555 1_555
H25 C23 1_555 1_555
C24 C19 1_555 1_555
H26 C24 1_555 1_555
C11 C12 1_555 1_555
C23 C24 1_555 1_555

#END
