
#######################################################################
#
#                 Cambridge Crystallographic Data Centre
#                                CCDC 
#
#######################################################################
#
# If this CIF has been generated from an entry in the Cambridge 
# Structural Database, then it will include bibliographic, chemical, 
# crystal, experimental, refinement or atomic coordinate data resulting 
# from the CCDC's data processing and validation procedures.
#
#######################################################################

data_TIDSIK
_chemical_formula_moiety         'C12 H13 I1 N4 O2'
_chemical_name_systematic        
'Ethyl 1-((4-iodophenyl)amino)-5-methyl-1H-1,2,3-triazole-4-carboxylate'
_symmetry_cell_setting           orthorhombic
_symmetry_space_group_name_H-M   'P c a 21'
_symmetry_Int_Tables_number      29
_space_group_name_Hall           'P 2c -2ac'
loop_
_symmetry_equiv_pos_site_id
_symmetry_equiv_pos_as_xyz
1 x,y,z
2 -x,-y,1/2+z
3 1/2-x,y,1/2+z
4 1/2+x,-y,z
_cell_length_a                   11.033(2)
_cell_length_b                   10.411(2)
_cell_length_c                   24.957(5)
_cell_angle_alpha                90
_cell_angle_beta                 90
_cell_angle_gamma                90
_cell_volume                     2866.67
_exptl_crystal_colour            colorless
_exptl_crystal_description       block
_cell_formula_units_Z            8
loop_
_atom_site_label
_atom_site_type_symbol
_atom_site_fract_x
_atom_site_fract_y
_atom_site_fract_z
I1 I 0.62221(4) 1.02081(4) 0.599225(16)
O1 O 1.1804(4) 0.5608(4) 0.88979(18)
O2 O 1.0412(3) 0.6573(4) 0.94230(17)
N1 N 0.8220(4) 0.6160(4) 0.81032(19)
N2 N 0.8997(4) 0.5434(4) 0.7808(2)
N3 N 0.9974(4) 0.5336(4) 0.8093(2)
N4 N 0.7066(4) 0.6441(4) 0.7922(2)
H1 H 0.660(4) 0.576(3) 0.796(2)
C1 C 0.8681(5) 0.6522(5) 0.8583(3)
C2 C 0.9821(5) 0.5970(5) 0.8572(2)
C3 C 0.8012(5) 0.7319(6) 0.8968(3)
H2 H 0.7283 0.7665 0.8796
H3 H 0.8528 0.8029 0.9088
H4 H 0.7777 0.6795 0.9277
C4 C 1.0794(6) 0.6022(5) 0.8973(3)
C5 C 1.1292(6) 0.6753(6) 0.9844(3)
H5 H 1.2035 0.7159 0.9700
H6 H 1.1513 0.5917 1.0006
C6 C 1.0716(7) 0.7599(7) 1.0249(3)
H7 H 1.0395 0.8369 1.0073
H8 H 1.1319 0.7851 1.0518
H9 H 1.0052 0.7137 1.0425
C7 C 0.6937(5) 0.7250(5) 0.7478(2)
C8 C 0.5981(6) 0.7067(6) 0.7124(3)
H10 H 0.5464 0.6346 0.7168
C9 C 0.5771(6) 0.7903(6) 0.6713(3)
H11 H 0.5101 0.7774 0.6480
C10 C 0.6543(5) 0.8946(6) 0.6636(3)
C11 C 0.7516(5) 0.9126(5) 0.6977(3)
H12 H 0.8057 0.9823 0.6919
C12 C 0.7708(5) 0.8297(5) 0.7402(3)
H13 H 0.8363 0.8440 0.7641
I2 I 1.12427(5) 0.46570(4) 1.130296(15)
O3 O 0.5358(3) 0.0905(4) 0.82698(19)
O4 O 0.6858(3) 0.1859(4) 0.77995(17)
N5 N 0.8963(4) 0.1127(4) 0.9106(2)
N6 N 0.8071(4) 0.0562(4) 0.94146(19)
N7 N 0.7099(4) 0.0570(4) 0.9122(2)
N8 N 1.0136(4) 0.1266(5) 0.9288(2)
H14 H 1.050(5) 0.052(3) 0.928(3)
C13 C 0.8534(5) 0.1477(5) 0.8627(3)
C14 C 0.7358(5) 0.1123(5) 0.8640(2)
C15 C 0.9350(5) 0.2088(6) 0.8216(3)
H15 H 0.9653 0.1427 0.7970
H16 H 1.0036 0.2500 0.8397
H17 H 0.8894 0.2733 0.8013
C16 C 0.6403(5) 0.1264(5) 0.8223(2)
C17 C 0.6041(6) 0.2130(6) 0.7348(2)
H18 H 0.5298 0.2567 0.7474
H19 H 0.5808 0.1324 0.7164
C18 C 0.6745(7) 0.2984(6) 0.6979(3)
H20 H 0.6939 0.3790 0.7163
H21 H 0.6260 0.3168 0.6659
H22 H 0.7498 0.2553 0.6873
C19 C 1.0330(5) 0.2014(5) 0.9757(2)
C20 C 1.1275(6) 0.1719(6) 1.0089(2)
H23 H 1.1753 0.0979 1.0020
C21 C 1.1539(6) 0.2485(6) 1.0521(2)
H24 H 1.2210 0.2289 1.0745
C22 C 1.0815(5) 0.3550(6) 1.0629(2)
C23 C 0.9877(5) 0.3855(6) 1.0300(3)
H25 H 0.9394 0.4590 1.0373
C24 C 0.9621(5) 0.3094(6) 0.9855(3)
H26 H 0.8972 0.3309 0.9622
loop_
_geom_bond_atom_site_label_1
_geom_bond_atom_site_label_2
_geom_bond_site_symmetry_1
_geom_bond_site_symmetry_2
I1 C10 1_555 1_555
O1 C4 1_555 1_555
O2 C4 1_555 1_555
N1 N2 1_555 1_555
N2 N3 1_555 1_555
N3 C2 1_555 1_555
N4 N1 1_555 1_555
H1 N4 1_555 1_555
C1 N1 1_555 1_555
C2 C1 1_555 1_555
C3 C1 1_555 1_555
H2 C3 1_555 1_555
H3 C3 1_555 1_555
H4 C3 1_555 1_555
C4 C2 1_555 1_555
C5 O2 1_555 1_555
H5 C5 1_555 1_555
H6 C5 1_555 1_555
C6 C5 1_555 1_555
H7 C6 1_555 1_555
H8 C6 1_555 1_555
H9 C6 1_555 1_555
C7 N4 1_555 1_555
C8 C7 1_555 1_555
H10 C8 1_555 1_555
C9 C8 1_555 1_555
H11 C9 1_555 1_555
C10 C9 1_555 1_555
C11 C10 1_555 1_555
H12 C11 1_555 1_555
C12 C7 1_555 1_555
H13 C12 1_555 1_555
I2 C22 1_555 1_555
O3 C16 1_555 1_555
O4 C16 1_555 1_555
N5 N6 1_555 1_555
N6 N7 1_555 1_555
N7 C14 1_555 1_555
N8 N5 1_555 1_555
H14 N8 1_555 1_555
C13 N5 1_555 1_555
C14 C13 1_555 1_555
C15 C13 1_555 1_555
H15 C15 1_555 1_555
H16 C15 1_555 1_555
H17 C15 1_555 1_555
C16 C14 1_555 1_555
C17 O4 1_555 1_555
H18 C17 1_555 1_555
H19 C17 1_555 1_555
C18 C17 1_555 1_555
H20 C18 1_555 1_555
H21 C18 1_555 1_555
H22 C18 1_555 1_555
C19 N8 1_555 1_555
C20 C19 1_555 1_555
H23 C20 1_555 1_555
C21 C20 1_555 1_555
H24 C21 1_555 1_555
C22 C21 1_555 1_555
C23 C22 1_555 1_555
H25 C23 1_555 1_555
C24 C19 1_555 1_555
H26 C24 1_555 1_555
C11 C12 1_555 1_555
C23 C24 1_555 1_555

#END
