
#######################################################################
#
#                 Cambridge Crystallographic Data Centre
#                                CCDC 
#
#######################################################################
#
# If this CIF has been generated from an entry in the Cambridge 
# Structural Database, then it will include bibliographic, chemical, 
# crystal, experimental, refinement or atomic coordinate data resulting 
# from the CCDC's data processing and validation procedures.
#
#######################################################################

data_TIDSOQ
_chemical_formula_moiety         'C12 H13 Br1 N4 O2'
_chemical_name_systematic        
'Ethyl 1-((4-bromophenyl)amino)-5-methyl-1H-1,2,3-triazole-4-carboxylate'
_symmetry_cell_setting           monoclinic
_symmetry_space_group_name_H-M   'P 21/c'
_symmetry_Int_Tables_number      14
_space_group_name_Hall           '-P 2ybc'
loop_
_symmetry_equiv_pos_site_id
_symmetry_equiv_pos_as_xyz
1 x,y,z
2 -x,1/2+y,1/2-z
3 -x,-y,-z
4 x,1/2-y,1/2+z
_cell_length_a                   12.7435(3)
_cell_length_b                   9.9927(2)
_cell_length_c                   11.1150(3)
_cell_angle_alpha                90
_cell_angle_beta                 105.3049(13)
_cell_angle_gamma                90
_cell_volume                     1365.21
_exptl_crystal_colour            'light brown'
_exptl_crystal_description       block
_cell_formula_units_Z            4
loop_
_atom_site_label
_atom_site_type_symbol
_atom_site_fract_x
_atom_site_fract_y
_atom_site_fract_z
Br1 Br 0.463339(18) -0.19594(2) 0.36752(2)
O1 O 1.09506(13) 0.15841(15) 1.10667(13)
O2 O 1.19335(11) 0.07073(14) 0.98360(12)
N1 N 0.91861(13) 0.13520(15) 0.70082(14)
N2 N 0.85771(14) 0.19102(16) 0.77185(15)
N3 N 0.91996(14) 0.19067(15) 0.88615(15)
N4 N 0.87846(14) 0.12177(17) 0.57279(14)
H1 H 0.8888(19) 0.1940(15) 0.5335(19)
C1 C 1.01889(16) 0.10036(18) 0.76792(17)
C2 C 1.01876(16) 0.13758(18) 0.88788(17)
C3 C 1.10050(17) 0.0374(2) 0.71176(19)
H2 H 1.0647 0.0076 0.6268
H3 H 1.1334 -0.0397 0.7623
H4 H 1.1572 0.1027 0.7091
C4 C 1.10424(16) 0.12520(18) 1.00502(18)
C5 C 1.28557(17) 0.0463(2) 1.08981(19)
H5 H 1.2635 -0.0066 1.1544
H6 H 1.3181 0.1316 1.1271
C6 C 1.3645(2) -0.0309(3) 1.0371(2)
H7 H 1.3302 -0.1140 0.9994
H8 H 1.4295 -0.0521 1.1042
H9 H 1.3852 0.0232 0.9735
C7 C 0.78099(16) 0.04918(19) 0.52988(17)
C8 C 0.70862(16) 0.0870(2) 0.41745(18)
H10 H 0.7234 0.1638 0.3742
C9 C 0.61543(17) 0.0130(2) 0.36897(19)
H11 H 0.5666 0.0379 0.2919
C10 C 0.59352(17) -0.0979(2) 0.43332(18)
C11 C 0.66483(18) -0.1364(2) 0.54499(18)
H12 H 0.6491 -0.2124 0.5885
C12 C 0.75892(17) -0.06389(19) 0.59287(18)
H13 H 0.8086 -0.0910 0.6687
loop_
_geom_bond_atom_site_label_1
_geom_bond_atom_site_label_2
_geom_bond_site_symmetry_1
_geom_bond_site_symmetry_2
Br1 C10 1_555 1_555
O1 C4 1_555 1_555
O2 C4 1_555 1_555
N1 N2 1_555 1_555
N2 N3 1_555 1_555
N3 C2 1_555 1_555
N4 N1 1_555 1_555
H1 N4 1_555 1_555
C1 N1 1_555 1_555
C2 C1 1_555 1_555
C3 C1 1_555 1_555
H2 C3 1_555 1_555
H3 C3 1_555 1_555
H4 C3 1_555 1_555
C4 C2 1_555 1_555
C5 O2 1_555 1_555
H5 C5 1_555 1_555
H6 C5 1_555 1_555
C6 C5 1_555 1_555
H7 C6 1_555 1_555
H8 C6 1_555 1_555
H9 C6 1_555 1_555
C7 N4 1_555 1_555
C8 C7 1_555 1_555
H10 C8 1_555 1_555
C9 C8 1_555 1_555
H11 C9 1_555 1_555
C10 C9 1_555 1_555
C11 C10 1_555 1_555
H12 C11 1_555 1_555
C12 C7 1_555 1_555
H13 C12 1_555 1_555
C11 C12 1_555 1_555

#END
