
#######################################################################
#
#                 Cambridge Crystallographic Data Centre
#                                CCDC 
#
#######################################################################
#
# If this CIF has been generated from an entry in the Cambridge 
# Structural Database, then it will include bibliographic, chemical, 
# crystal, experimental, refinement or atomic coordinate data resulting 
# from the CCDC's data processing and validation procedures.
#
#######################################################################

data_TIDSUW
_chemical_formula_moiety         'C12 H13 Cl1 N4 O2'
_chemical_name_systematic        
'Ethyl 1-((4-chlorophenyl)amino)-5-methyl-1H-1,2,3-triazole-4-carboxylate'
_symmetry_cell_setting           monoclinic
_symmetry_space_group_name_H-M   'P 21/c'
_symmetry_Int_Tables_number      14
_space_group_name_Hall           '-P 2ybc'
loop_
_symmetry_equiv_pos_site_id
_symmetry_equiv_pos_as_xyz
1 x,y,z
2 -x,1/2+y,1/2-z
3 -x,-y,-z
4 x,1/2-y,1/2+z
_cell_length_a                   12.6207(7)
_cell_length_b                   9.8187(5)
_cell_length_c                   11.0587(7)
_cell_angle_alpha                90
_cell_angle_beta                 105.846(3)
_cell_angle_gamma                90
_cell_volume                     1318.31
_exptl_crystal_colour            colorless
_exptl_crystal_description       block
_cell_formula_units_Z            4
loop_
_atom_site_label
_atom_site_type_symbol
_atom_site_fract_x
_atom_site_fract_y
_atom_site_fract_z
Cl1 Cl -0.03341(5) 0.19116(5) -0.13164(5)
O1 O 0.60053(12) -0.15637(14) 0.60765(13)
O2 O 0.69730(11) -0.06712(15) 0.48329(13)
N1 N 0.41780(13) -0.13478(16) 0.20037(15)
N2 N 0.35707(14) -0.18980(16) 0.27279(16)
N3 N 0.42097(14) -0.18935(16) 0.38724(16)
N4 N 0.37578(14) -0.12147(17) 0.07204(15)
H1 H 0.3823(18) -0.1946(15) 0.0284(19)
C1 C 0.51972(16) -0.09980(19) 0.26722(18)
C2 C 0.52068(16) -0.13698(18) 0.38778(18)
C3 C 0.60095(18) -0.0374(2) 0.2102(2)
H2 H 0.6555 -0.1059 0.2033
H3 H 0.6381 0.0380 0.2631
H4 H 0.5632 -0.0030 0.1263
C4 C 0.60827(17) -0.12285(19) 0.50566(19)
C5 C 0.79052(17) -0.0403(2) 0.5893(2)
H5 H 0.8252 -0.1264 0.6270
H6 H 0.7681 0.0127 0.6544
C6 C 0.8678(2) 0.0401(3) 0.5361(2)
H7 H 0.8913 -0.0155 0.4744
H8 H 0.9324 0.0664 0.6040
H9 H 0.8304 0.1221 0.4950
C7 C 0.27665(17) -0.04899(19) 0.02817(18)
C8 C 0.25440(18) 0.0644(2) 0.09205(19)
H10 H 0.3047 0.0917 0.1689
C9 C 0.15793(18) 0.1377(2) 0.0429(2)
H11 H 0.1411 0.2143 0.0868
C10 C 0.08703(17) 0.0985(2) -0.0697(2)
C11 C 0.10934(17) -0.0132(2) -0.13407(19)
H12 H 0.0599 -0.0389 -0.2120
C12 C 0.20363(17) -0.0873(2) -0.08465(19)
H13 H 0.2188 -0.1652 -0.1281
loop_
_geom_bond_atom_site_label_1
_geom_bond_atom_site_label_2
_geom_bond_site_symmetry_1
_geom_bond_site_symmetry_2
Cl1 C10 1_555 1_555
O1 C4 1_555 1_555
O2 C4 1_555 1_555
N1 N2 1_555 1_555
N2 N3 1_555 1_555
N3 C2 1_555 1_555
N4 N1 1_555 1_555
H1 N4 1_555 1_555
C1 N1 1_555 1_555
C2 C1 1_555 1_555
C3 C1 1_555 1_555
H2 C3 1_555 1_555
H3 C3 1_555 1_555
H4 C3 1_555 1_555
C4 C2 1_555 1_555
C5 O2 1_555 1_555
H5 C5 1_555 1_555
H6 C5 1_555 1_555
C6 C5 1_555 1_555
H7 C6 1_555 1_555
H8 C6 1_555 1_555
H9 C6 1_555 1_555
C7 N4 1_555 1_555
C8 C7 1_555 1_555
H10 C8 1_555 1_555
C9 C8 1_555 1_555
H11 C9 1_555 1_555
C10 C9 1_555 1_555
C11 C10 1_555 1_555
H12 C11 1_555 1_555
C12 C7 1_555 1_555
H13 C12 1_555 1_555
C11 C12 1_555 1_555

#END
