
#######################################################################
#
#                 Cambridge Crystallographic Data Centre
#                                CCDC 
#
#######################################################################
#
# If this CIF has been generated from an entry in the Cambridge 
# Structural Database, then it will include bibliographic, chemical, 
# crystal, experimental, refinement or atomic coordinate data resulting 
# from the CCDC's data processing and validation procedures.
#
#######################################################################

data_TIDTOS
_chemical_formula_moiety         'C22 H29 N1 O2'
_chemical_name_systematic        
4a,6b-dimethyl-1,4,4a,5,6,6a,6b,7,8,12b,13,14,14a,14b-tetradecahydro-2H-pyrano[4',3':5,6]naphtho[2,1-f]quinolin-2-one
_symmetry_cell_setting           orthorhombic
_symmetry_space_group_name_H-M   'P 21 21 21'
_symmetry_Int_Tables_number      19
_space_group_name_Hall           'P 2ac 2ab'
loop_
_symmetry_equiv_pos_site_id
_symmetry_equiv_pos_as_xyz
1 x,y,z
2 1/2-x,-y,1/2+z
3 1/2+x,1/2-y,-z
4 -x,1/2+y,1/2-z
_cell_length_a                   6.8428(4)
_cell_length_b                   12.3190(8)
_cell_length_c                   21.3880(12)
_cell_angle_alpha                90
_cell_angle_beta                 90
_cell_angle_gamma                90
_cell_volume                     1802.93
_exptl_crystal_colour            colorless
_exptl_crystal_description       prism
_cell_formula_units_Z            4
loop_
_atom_site_label
_atom_site_type_symbol
_atom_site_fract_x
_atom_site_fract_y
_atom_site_fract_z
O1 O 1.1091(3) 0.77526(18) 0.50488(8)
C1 C 0.9115(4) 0.7769(2) 0.62397(11)
O2 O 1.0731(4) 0.60005(19) 0.49436(9)
C2 C 0.8117(4) 0.8736(2) 0.72297(11)
C3 C 0.5076(4) 0.8668(2) 0.90425(12)
C4 C 1.0653(4) 0.8636(2) 0.60881(11)
C5 C 0.9649(5) 0.6705(2) 0.59190(12)
H1 H 1.0583 0.6327 0.6181
H2 H 0.8482 0.6260 0.5898
N1 N 0.4172(4) 0.8703(2) 0.95964(10)
C6 C 0.7624(4) 0.8652(2) 0.79419(11)
C7 C 0.7173(4) 0.6780(2) 0.70644(12)
H3 H 0.6066 0.6915 0.6792
H4 H 0.7702 0.6073 0.6958
C8 C 0.5179(4) 0.7726(2) 0.86781(11)
C9 C 0.6114(5) 0.7748(2) 0.80376(11)
H5 H 0.5028 0.8026 0.7785
C10 C 0.8728(4) 0.7641(2) 0.69449(11)
C11 C 0.6631(5) 0.9708(2) 0.81549(12)
H6 H 0.7514 1.0310 0.8082
H7 H 0.5472 0.9826 0.7903
C12 C 1.0497(4) 0.6785(3) 0.52684(13)
C13 C 0.9967(5) 0.9705(2) 0.63664(13)
H8 H 0.8766 0.9926 0.6162
H9 H 1.0943 1.0259 0.6287
C14 C 1.0676(5) 0.8754(2) 0.53763(12)
H10 H 0.9414 0.9025 0.5240
H11 H 1.1652 0.9290 0.5262
C15 C 0.4343(5) 0.6795(3) 0.89252(13)
H12 H 0.4406 0.6146 0.8704
C16 C 0.3341(5) 0.7802(3) 0.98098(14)
H13 H 0.2675 0.7832 1.0188
C17 C 0.9610(5) 0.9623(2) 0.70726(13)
H14 H 1.0834 0.9464 0.7282
H15 H 0.9139 1.0316 0.7227
C18 C 0.3419(5) 0.6828(3) 0.94980(15)
H16 H 0.2862 0.6206 0.9669
C19 C 0.6474(6) 0.6758(3) 0.77356(15)
H17 H 0.5277 0.6337 0.7749
H18 H 0.7439 0.6367 0.7980
C20 C 0.9452(5) 0.8444(3) 0.83356(12)
H19 H 1.0377 0.9019 0.8269
H20 H 0.9101 0.8419 0.8770
H21 H 1.0027 0.7764 0.8215
C21 C 0.6048(5) 0.9698(2) 0.88433(12)
H22 H 0.7208 0.9808 0.9096
H23 H 0.5168 1.0300 0.8922
C22 C 1.2717(4) 0.8336(3) 0.63132(14)
H24 H 1.3103 0.7659 0.6129
H25 H 1.3618 0.8894 0.6191
H26 H 1.2717 0.8269 0.6760
H27 H 0.987(4) 0.741(2) 0.7143(13)
H28 H 0.687(4) 0.890(2) 0.7009(12)
H29 H 0.787(4) 0.801(2) 0.6034(13)
loop_
_geom_bond_atom_site_label_1
_geom_bond_atom_site_label_2
_geom_bond_site_symmetry_1
_geom_bond_site_symmetry_2
O1 C12 1_555 1_555
C1 C4 1_555 1_555
O2 C12 1_555 1_555
C2 C6 1_555 1_555
C3 N1 1_555 1_555
C4 C13 1_555 1_555
C5 C1 1_555 1_555
H1 C5 1_555 1_555
H2 C5 1_555 1_555
N1 C16 1_555 1_555
C6 C9 1_555 1_555
C7 H3 1_555 1_555
H4 C7 1_555 1_555
C8 C3 1_555 1_555
C9 C8 1_555 1_555
H5 C9 1_555 1_555
C10 C1 1_555 1_555
C11 C6 1_555 1_555
H6 C11 1_555 1_555
H7 C11 1_555 1_555
C12 C5 1_555 1_555
C13 H8 1_555 1_555
H9 C13 1_555 1_555
C14 O1 1_555 1_555
H10 C14 1_555 1_555
H11 C14 1_555 1_555
C15 C8 1_555 1_555
H12 C15 1_555 1_555
C16 H13 1_555 1_555
C17 C2 1_555 1_555
H14 C17 1_555 1_555
H15 C17 1_555 1_555
C18 C15 1_555 1_555
H16 C18 1_555 1_555
C19 C7 1_555 1_555
H17 C19 1_555 1_555
H18 C19 1_555 1_555
C20 C6 1_555 1_555
H19 C20 1_555 1_555
H20 C20 1_555 1_555
H21 C20 1_555 1_555
C21 C3 1_555 1_555
H22 C21 1_555 1_555
H23 C21 1_555 1_555
C22 C4 1_555 1_555
H24 C22 1_555 1_555
H25 C22 1_555 1_555
H26 C22 1_555 1_555
H27 C10 1_555 1_555
H28 C2 1_555 1_555
H29 C1 1_555 1_555
C2 C10 1_555 1_555
C4 C14 1_555 1_555
C7 C10 1_555 1_555
C9 C19 1_555 1_555
C11 C21 1_555 1_555
C13 C17 1_555 1_555
C16 C18 1_555 1_555

#END
