
#######################################################################
#
#                 Cambridge Crystallographic Data Centre
#                                CCDC 
#
#######################################################################
#
# If this CIF has been generated from an entry in the Cambridge 
# Structural Database, then it will include bibliographic, chemical, 
# crystal, experimental, refinement or atomic coordinate data resulting 
# from the CCDC's data processing and validation procedures.
#
#######################################################################

data_TIDTUY
_chemical_formula_moiety         'C28 H34 N2 O1,H2 O1'
_chemical_name_systematic        
'6a,8a-dimethyl-9-[(pyridin-2-yl)methyl]-6,6a,6b,7,8,8a,9,10,11,11a,11b,12-dodecahydro-5H-cyclopenta[5,6]naphtho[2,1-f]quinolin-9-ol monohydrate'
_symmetry_cell_setting           monoclinic
_symmetry_space_group_name_H-M   'P 21'
_symmetry_Int_Tables_number      4
_space_group_name_Hall           'P 2yb'
loop_
_symmetry_equiv_pos_site_id
_symmetry_equiv_pos_as_xyz
1 x,y,z
2 -x,1/2+y,-z
_cell_length_a                   11.4355(16)
_cell_length_b                   7.2184(7)
_cell_length_c                   14.3262(12)
_cell_angle_alpha                90
_cell_angle_beta                 92.092(10)
_cell_angle_gamma                90
_cell_volume                     1181.78
_exptl_crystal_colour            colorless
_exptl_crystal_description       prism
_cell_formula_units_Z            2
loop_
_atom_site_label
_atom_site_type_symbol
_atom_site_fract_x
_atom_site_fract_y
_atom_site_fract_z
O1 O 0.4188(3) 0.5618(5) -0.29018(17)
N1 N -0.0022(3) 0.2129(6) 0.3734(2)
C1 C 0.2870(3) 0.2124(5) -0.0154(2)
C2 C 0.1468(3) 0.1199(5) 0.1461(2)
C3 C 0.3596(3) 0.4026(6) -0.2550(2)
C4 C 0.3095(3) 0.2283(5) -0.1197(2)
C5 C 0.3222(3) 0.4305(5) -0.1520(2)
C6 C 0.1798(3) 0.3290(5) 0.0099(2)
C7 C 0.2950(3) 0.3235(6) -0.4219(2)
C8 C 0.3090(4) 0.4708(7) -0.4827(2)
H1 H 0.2889 0.5903 -0.4652
C9 C 0.1597(3) 0.3244(5) 0.1168(2)
C10 C 0.2566(3) 0.3560(6) -0.3235(2)
H2 H 0.2172 0.2459 -0.3018
H3 H 0.2007 0.4573 -0.3238
C11 C 0.0454(3) 0.4219(6) 0.1378(2)
H4 H -0.0176 0.3653 0.1007
H5 H 0.0508 0.5506 0.1189
C12 C 0.2670(3) 0.0110(5) 0.0134(2)
H6 H 0.2038 -0.0410 -0.0252
H7 H 0.3372 -0.0603 0.0028
C13 C 0.2620(3) 0.4165(6) 0.1723(2)
H8 H 0.2653 0.5456 0.1566
H9 H 0.3341 0.3577 0.1569
H10 H 0.2503 0.4034 0.2380
N2 N 0.3203(3) 0.1508(5) -0.4460(2)
C14 C 0.1090(3) 0.0974(5) 0.2461(2)
C15 C 0.1806(3) 0.5261(5) -0.0307(2)
H11 H 0.1049 0.5828 -0.0221
H12 H 0.2388 0.5992 0.0037
C16 C 0.2074(3) 0.5307(6) -0.1350(2)
H13 H 0.1442 0.4717 -0.1709
H14 H 0.2129 0.6583 -0.1557
C17 C 0.0409(3) 0.2314(6) 0.2873(2)
C18 C 0.4477(3) 0.2417(7) -0.2453(2)
H15 H 0.4418 0.1625 -0.3000
H16 H 0.5269 0.2894 -0.2394
C19 C 0.2368(5) -0.0048(6) 0.1156(3)
C20 C 0.1348(4) -0.0617(6) 0.2983(3)
H17 H 0.1804 -0.1550 0.2736
C21 C 0.4232(3) 0.5320(7) -0.0994(2)
H18 H 0.4259 0.6584 -0.1200
H19 H 0.4959 0.4721 -0.1119
H20 H 0.4107 0.5288 -0.0335
C22 C 0.4178(4) 0.1314(7) -0.1573(2)
H21 H 0.4006 0.0033 -0.1728
H22 H 0.4823 0.1349 -0.1115
C23 C 0.0243(4) 0.0567(8) 0.4208(3)
H23 H -0.0056 0.0415 0.4798
C24 C 0.3633(4) 0.1225(8) -0.5306(3)
H24 H 0.3825 0.0020 -0.5473
C25 C 0.0922(4) -0.0796(7) 0.3868(3)
H25 H 0.1100 -0.1839 0.4227
C26 C 0.0150(4) 0.4143(6) 0.2411(3)
H26 H 0.0586 0.5103 0.2746
H27 H -0.0676 0.4414 0.2462
C27 C 0.3532(5) 0.4381(8) -0.5694(3)
H28 H 0.3641 0.5354 -0.6107
C28 C 0.3807(4) 0.2610(9) -0.5938(3)
H29 H 0.4105 0.2352 -0.6520
H30 H 0.354(3) 0.261(6) 0.021(2)
H31 H 0.115(3) 0.266(6) -0.020(3)
H32 H 0.231(3) 0.190(6) -0.155(2)
H33 H 0.223(4) -0.126(8) 0.129(3)
H34 H 0.374(7) 0.681(13) -0.299(5)
O2 O 0.2529(4) -0.1574(6) -0.3422(3)
H35 H 0.277(5) -0.053(9) -0.375(4)
H36 H 0.178(8) -0.196(17) -0.362(6)
loop_
_geom_bond_atom_site_label_1
_geom_bond_atom_site_label_2
_geom_bond_site_symmetry_1
_geom_bond_site_symmetry_2
O1 C3 1_555 1_555
N1 C17 1_555 1_555
C1 C4 1_555 1_555
C2 C9 1_555 1_555
C3 C5 1_555 1_555
C4 C5 1_555 1_555
C5 C16 1_555 1_555
C6 C1 1_555 1_555
C7 C8 1_555 1_555
C8 H1 1_555 1_555
C9 C6 1_555 1_555
C10 C3 1_555 1_555
H2 C10 1_555 1_555
H3 C10 1_555 1_555
C11 C9 1_555 1_555
H4 C11 1_555 1_555
H5 C11 1_555 1_555
C12 C1 1_555 1_555
H6 C12 1_555 1_555
H7 C12 1_555 1_555
C13 C9 1_555 1_555
H8 C13 1_555 1_555
H9 C13 1_555 1_555
H10 C13 1_555 1_555
N2 C7 1_555 1_555
C14 C2 1_555 1_555
C15 C6 1_555 1_555
H11 C15 1_555 1_555
H12 C15 1_555 1_555
C16 C15 1_555 1_555
H13 C16 1_555 1_555
H14 C16 1_555 1_555
C17 C14 1_555 1_555
C18 C3 1_555 1_555
H15 C18 1_555 1_555
H16 C18 1_555 1_555
C19 C2 1_555 1_555
C20 C14 1_555 1_555
H17 C20 1_555 1_555
C21 C5 1_555 1_555
H18 C21 1_555 1_555
H19 C21 1_555 1_555
H20 C21 1_555 1_555
C22 C4 1_555 1_555
H21 C22 1_555 1_555
H22 C22 1_555 1_555
C23 N1 1_555 1_555
H23 C23 1_555 1_555
C24 N2 1_555 1_555
H24 C24 1_555 1_555
C25 C20 1_555 1_555
H25 C25 1_555 1_555
C26 C11 1_555 1_555
H26 C26 1_555 1_555
H27 C26 1_555 1_555
C27 C8 1_555 1_555
H28 C27 1_555 1_555
C28 C24 1_555 1_555
H29 C28 1_555 1_555
H30 C1 1_555 1_555
H31 C6 1_555 1_555
H32 C4 1_555 1_555
H33 C19 1_555 1_555
H34 O1 1_555 1_555
O2 H35 1_555 1_555
H36 O2 1_555 1_555
C7 C10 1_555 1_555
C12 C19 1_555 1_555
C17 C26 1_555 1_555
C18 C22 1_555 1_555
C23 C25 1_555 1_555
C27 C28 1_555 1_555

#END
