
#######################################################################
#
#                 Cambridge Crystallographic Data Centre
#                                CCDC 
#
#######################################################################
#
# If this CIF has been generated from an entry in the Cambridge 
# Structural Database, then it will include bibliographic, chemical, 
# crystal, experimental, refinement or atomic coordinate data resulting 
# from the CCDC's data processing and validation procedures.
#
#######################################################################

data_TIDTEG
_chemical_formula_moiety         'C29 H46 O7 Si1'
_chemical_name_systematic        
(1S,5S,7S,8R)-(+)-8-(3,4-Dimethoxyphenyl)-2,9,9-trimethoxy-7-(tri-isopropylsiloxy)bicyclo(3.3.1)non-2-en-4-one
_symmetry_cell_setting           monoclinic
_symmetry_space_group_name_H-M   'P 21'
_symmetry_Int_Tables_number      4
_space_group_name_Hall           'P 2yb'
loop_
_symmetry_equiv_pos_site_id
_symmetry_equiv_pos_as_xyz
1 x,y,z
2 -x,1/2+y,-z
_cell_length_a                   8.2824(6)
_cell_length_b                   13.7389(10)
_cell_length_c                   12.7110(10)
_cell_angle_alpha                90
_cell_angle_beta                 91.2840(10)
_cell_angle_gamma                90
_cell_volume                     1446.04
_exptl_crystal_colour            colorless
_exptl_crystal_description       block
_cell_formula_units_Z            2
loop_
_atom_site_label
_atom_site_type_symbol
_atom_site_fract_x
_atom_site_fract_y
_atom_site_fract_z
Si1 Si 0.85074(5) 0.70459(3) 1.00290(3)
O1 O 0.88257(17) 0.37536(10) 0.66858(11)
C1 C 0.7976(2) 0.44764(12) 0.65804(13)
C2 C 0.83411(19) 0.52447(12) 0.58390(12)
H1 H 0.9319 0.5223 0.5463
O2 O 0.74239(13) 0.66800(8) 0.49386(9)
C3 C 0.73070(19) 0.59883(11) 0.56783(12)
C4 C 0.58284(18) 0.61377(11) 0.63352(12)
H2 H 0.5001 0.6498 0.5903
C5 C 0.61688(17) 0.67217(11) 0.73685(11)
H3 H 0.5109 0.6771 0.7726
O3 O 0.72043(13) 0.66457(9) 0.91317(8)
C6 C 0.73044(18) 0.61781(11) 0.81386(11)
H4 H 0.8438 0.6209 0.7886
C7 C 0.67956(19) 0.51160(12) 0.82754(12)
H5 H 0.5814 0.5095 0.8705
H6 H 0.7663 0.4766 0.8669
C8 C 0.6448(2) 0.45790(12) 0.72303(12)
H7 H 0.6034 0.3913 0.7393
C9 C 0.51503(19) 0.51256(12) 0.65954(13)
C10 C 0.8819(2) 0.66416(15) 0.42781(13)
H8 H 0.8774 0.7181 0.3774
H9 H 0.8826 0.6022 0.3896
H10 H 0.9804 0.6696 0.4716
O4 O 0.47762(14) 0.46908(8) 0.56091(9)
C11 C 0.4213(3) 0.37056(13) 0.56512(15)
H11 H 0.3990 0.3469 0.4935
H12 H 0.3222 0.3678 0.6057
H13 H 0.5042 0.3296 0.5990
O5 O 0.37773(14) 0.51629(9) 0.72298(9)
C12 C 0.2385(2) 0.56080(16) 0.67551(16)
H14 H 0.1496 0.5598 0.7251
H15 H 0.2067 0.5249 0.6117
H16 H 0.2635 0.6283 0.6571
O6 O 0.81528(15) 1.06051(9) 0.65141(11)
C13 C 0.7010(2) 1.13833(13) 0.65346(17)
H17 H 0.7543 1.1994 0.6347
H18 H 0.6574 1.1439 0.7243
H19 H 0.6127 1.1250 0.6028
O7 O 1.02106(14) 0.92257(8) 0.63104(10)
C14 C 1.1358(2) 0.84939(14) 0.60658(15)
H20 H 1.2369 0.8802 0.5857
H21 H 1.0934 0.8092 0.5486
H22 H 1.1560 0.8084 0.6686
C15 C 0.66978(18) 0.77609(11) 0.71613(11)
C16 C 0.56313(19) 0.85212(12) 0.72944(13)
H23 H 0.4574 0.8385 0.7529
C17 C 0.6063(2) 0.94826(13) 0.70942(14)
H24 H 0.5305 0.9992 0.7193
C18 C 0.7597(2) 0.96954(12) 0.67514(14)
C19 C 0.87154(19) 0.89323(12) 0.66307(12)
C20 C 0.82671(19) 0.79837(11) 0.68266(12)
H25 H 0.9025 0.7474 0.6735
C21 C 0.8153(3) 0.83981(14) 1.01210(15)
H26 H 0.8635 0.8692 0.9480
C22 C 0.6398(3) 0.87039(17) 1.01091(17)
H27 H 0.6329 0.9414 1.0164
H28 H 0.5855 0.8405 1.0705
H29 H 0.5873 0.8491 0.9450
C23 C 0.9069(3) 0.88382(19) 1.1069(2)
H30 H 0.8862 0.9540 1.1098
H31 H 1.0230 0.8725 1.0998
H32 H 0.8702 0.8531 1.1717
C24 C 1.0651(2) 0.67652(15) 0.96457(14)
H33 H 1.0602 0.6153 0.9221
C25 C 1.1394(3) 0.7541(2) 0.89414(17)
H34 H 1.2500 0.7352 0.8773
H35 H 1.1411 0.8167 0.9310
H36 H 1.0747 0.7601 0.8290
C26 C 1.1835(3) 0.6567(2) 1.05797(18)
H37 H 1.2911 0.6427 1.0312
H38 H 1.1454 0.6007 1.0983
H39 H 1.1891 0.7141 1.1036
C27 C 0.8093(2) 0.64037(15) 1.13050(14)
H40 H 0.8989 0.6581 1.1809
C28 C 0.6518(3) 0.67032(18) 1.18170(16)
H41 H 0.6392 0.6340 1.2473
H42 H 0.5607 0.6560 1.1336
H43 H 0.6544 0.7402 1.1970
C29 C 0.8134(3) 0.52955(17) 1.11821(17)
H44 H 0.7921 0.4988 1.1861
H45 H 0.9201 0.5095 1.0943
H46 H 0.7307 0.5094 1.0663
loop_
_geom_bond_atom_site_label_1
_geom_bond_atom_site_label_2
_geom_bond_site_symmetry_1
_geom_bond_site_symmetry_2
Si1 O3 1_555 1_555
O1 C1 1_555 1_555
C1 C2 1_555 1_555
C2 H1 1_555 1_555
O2 C3 1_555 1_555
C3 C2 1_555 1_555
C4 C3 1_555 1_555
H2 C4 1_555 1_555
C5 C4 1_555 1_555
H3 C5 1_555 1_555
O3 C6 1_555 1_555
C6 C5 1_555 1_555
H4 C6 1_555 1_555
C7 C6 1_555 1_555
H5 C7 1_555 1_555
H6 C7 1_555 1_555
C8 C1 1_555 1_555
H7 C8 1_555 1_555
C9 C4 1_555 1_555
C10 O2 1_555 1_555
H8 C10 1_555 1_555
H9 C10 1_555 1_555
H10 C10 1_555 1_555
O4 C9 1_555 1_555
C11 O4 1_555 1_555
H11 C11 1_555 1_555
H12 C11 1_555 1_555
H13 C11 1_555 1_555
O5 C9 1_555 1_555
C12 O5 1_555 1_555
H14 C12 1_555 1_555
H15 C12 1_555 1_555
H16 C12 1_555 1_555
O6 C13 1_555 1_555
C13 H17 1_555 1_555
H18 C13 1_555 1_555
H19 C13 1_555 1_555
O7 C14 1_555 1_555
C14 H20 1_555 1_555
H21 C14 1_555 1_555
H22 C14 1_555 1_555
C15 C5 1_555 1_555
C16 C15 1_555 1_555
H23 C16 1_555 1_555
C17 C16 1_555 1_555
H24 C17 1_555 1_555
C18 O6 1_555 1_555
C19 O7 1_555 1_555
C20 C15 1_555 1_555
H25 C20 1_555 1_555
C21 Si1 1_555 1_555
H26 C21 1_555 1_555
C22 C21 1_555 1_555
H27 C22 1_555 1_555
H28 C22 1_555 1_555
H29 C22 1_555 1_555
C23 C21 1_555 1_555
H30 C23 1_555 1_555
H31 C23 1_555 1_555
H32 C23 1_555 1_555
C24 Si1 1_555 1_555
H33 C24 1_555 1_555
C25 C24 1_555 1_555
H34 C25 1_555 1_555
H35 C25 1_555 1_555
H36 C25 1_555 1_555
C26 C24 1_555 1_555
H37 C26 1_555 1_555
H38 C26 1_555 1_555
H39 C26 1_555 1_555
C27 Si1 1_555 1_555
H40 C27 1_555 1_555
C28 C27 1_555 1_555
H41 C28 1_555 1_555
H42 C28 1_555 1_555
H43 C28 1_555 1_555
C29 C27 1_555 1_555
H44 C29 1_555 1_555
H45 C29 1_555 1_555
H46 C29 1_555 1_555
C7 C8 1_555 1_555
C8 C9 1_555 1_555
C17 C18 1_555 1_555
C18 C19 1_555 1_555
C19 C20 1_555 1_555

#END
