
#######################################################################
#
#                 Cambridge Crystallographic Data Centre
#                                CCDC 
#
#######################################################################
#
# If this CIF has been generated from an entry in the Cambridge 
# Structural Database, then it will include bibliographic, chemical, 
# crystal, experimental, refinement or atomic coordinate data resulting 
# from the CCDC's data processing and validation procedures.
#
#######################################################################

data_TIDVAG
_chemical_formula_moiety         'C28 H32 N2'
_chemical_name_systematic        
6a,8a-dimethyl-9-[(pyridin-2-yl)methylidene]-6,6a,6b,7,8,8a,9,10,11,11a,11b,12-dodecahydro-5H-cyclopenta[5,6]naphtho[2,1-f]quinoline
_symmetry_cell_setting           orthorhombic
_symmetry_space_group_name_H-M   'P 21 21 21'
_symmetry_Int_Tables_number      19
_space_group_name_Hall           'P 2ac 2ab'
loop_
_symmetry_equiv_pos_site_id
_symmetry_equiv_pos_as_xyz
1 x,y,z
2 1/2-x,-y,1/2+z
3 1/2+x,1/2-y,-z
4 -x,1/2+y,1/2-z
_cell_length_a                   7.8675(2)
_cell_length_b                   12.2525(4)
_cell_length_c                   23.0556(8)
_cell_angle_alpha                90
_cell_angle_beta                 90
_cell_angle_gamma                90
_cell_volume                     2222.48
_exptl_crystal_colour            colorless
_exptl_crystal_description       prism
_cell_formula_units_Z            4
loop_
_atom_site_label
_atom_site_type_symbol
_atom_site_fract_x
_atom_site_fract_y
_atom_site_fract_z
N1 N 0.0842(4) 0.7606(3) 0.16044(14)
C1 C 0.4014(4) 1.0190(2) -0.01632(14)
C2 C 0.3064(4) 0.9303(3) 0.01833(15)
C3 C 0.1325(5) 1.1290(3) -0.02763(17)
H1 H 0.0543 1.1592 -0.0559
H2 H 0.1711 1.1883 -0.0030
C4 C 0.2838(4) 1.0804(3) -0.05901(14)
C5 C 0.9914(4) 1.3001(3) -0.22968(15)
H3 H 1.0294 1.2282 -0.2291
C6 C 0.6070(5) 1.2251(3) -0.15317(14)
C7 C 0.4195(4) 0.8878(3) 0.06789(16)
H4 H 0.5234 0.8583 0.0515
H5 H 0.4503 0.9484 0.0928
C8 C 0.1511(4) 0.8246(3) 0.11937(16)
C9 C -0.1774(5) 0.8555(3) 0.14962(16)
H6 H -0.2899 0.8646 0.1610
C10 C 0.5410(4) 1.1224(3) -0.12372(15)
C11 C 0.7686(5) 1.2395(3) -0.16820(15)
C12 C 0.3339(4) 0.8001(3) 0.10430(18)
H7 H 0.3383 0.7315 0.0833
H8 H 0.3977 0.7908 0.1400
C13 C 0.1480(4) 0.9834(3) 0.04803(16)
C14 C -0.0779(5) 0.7778(4) 0.17474(17)
H9 H -0.1256 0.7343 0.2035
C15 C 0.6582(4) 1.0651(3) -0.08105(16)
H10 H 0.7049 1.1182 -0.0542
H11 H 0.7520 1.0321 -0.1020
C16 C -0.1078(4) 0.9203(3) 0.10717(15)
H12 H -0.1743 0.9731 0.0891
C17 C 0.3033(5) 1.2443(3) -0.13342(17)
H13 H 0.2325 1.2976 -0.1138
H14 H 0.2344 1.2040 -0.1609
C18 C 0.2508(5) 0.8346(3) -0.02085(17)
H15 H 0.3482 0.7912 -0.0307
H16 H 0.2002 0.8628 -0.0556
H17 H 0.1695 0.7904 -0.0006
C19 C 0.8493(4) 1.3291(3) -0.20110(14)
C20 C 0.3884(4) 1.1679(3) -0.09015(15)
C21 C 0.4557(5) 1.2999(3) -0.16388(18)
H18 H 0.4342 1.3075 -0.2051
H19 H 0.4762 1.3717 -0.1476
C22 C 0.5633(4) 0.9767(3) -0.04695(16)
H20 H 0.6393 0.9463 -0.0181
H21 H 0.5319 0.9184 -0.0733
C23 C 0.0390(5) 1.0453(3) 0.0094(2)
N2 N 0.7893(5) 1.4352(3) -0.20224(17)
C24 C 0.8800(6) 1.5137(3) -0.23258(19)
H22 H 0.8421 1.5856 -0.2337
C25 C 0.0616(4) 0.9073(3) 0.09092(14)
C26 C 0.4897(6) 1.0433(3) -0.17311(17)
H23 H 0.5901 1.0137 -0.1907
H24 H 0.4249 1.0822 -0.2017
H25 H 0.4221 0.9851 -0.1575
C27 C 1.0759(6) 1.3758(4) -0.2586(2)
H26 H 1.1738 1.3556 -0.2785
C28 C 1.0249(6) 1.4842(4) -0.26062(19)
H27 H 1.0886 1.5357 -0.2808
H28 H 0.442(4) 1.208(2) -0.0603(14)
H29 H 0.444(5) 1.078(3) 0.0146(17)
H30 H 0.843(5) 1.180(3) -0.1587(18)
H31 H -0.059(5) 1.082(3) 0.0345(15)
H32 H 0.236(5) 1.019(3) -0.0883(15)
loop_
_geom_bond_atom_site_label_1
_geom_bond_atom_site_label_2
_geom_bond_site_symmetry_1
_geom_bond_site_symmetry_2
N1 C8 1_555 1_555
C1 C2 1_555 1_555
C2 C7 1_555 1_555
C3 H1 1_555 1_555
H2 C3 1_555 1_555
C4 C1 1_555 1_555
C5 H3 1_555 1_555
C6 C10 1_555 1_555
C7 H4 1_555 1_555
H5 C7 1_555 1_555
C8 C12 1_555 1_555
C9 H6 1_555 1_555
C10 C15 1_555 1_555
C11 C6 1_555 1_555
C12 C7 1_555 1_555
H7 C12 1_555 1_555
H8 C12 1_555 1_555
C13 C2 1_555 1_555
C14 N1 1_555 1_555
H9 C14 1_555 1_555
C15 H10 1_555 1_555
H11 C15 1_555 1_555
C16 C9 1_555 1_555
H12 C16 1_555 1_555
C17 H13 1_555 1_555
H14 C17 1_555 1_555
C18 C2 1_555 1_555
H15 C18 1_555 1_555
H16 C18 1_555 1_555
H17 C18 1_555 1_555
C19 C5 1_555 1_555
C20 C4 1_555 1_555
C21 C6 1_555 1_555
H18 C21 1_555 1_555
H19 C21 1_555 1_555
C22 C1 1_555 1_555
H20 C22 1_555 1_555
H21 C22 1_555 1_555
C23 C3 1_555 1_555
N2 C19 1_555 1_555
C24 N2 1_555 1_555
H22 C24 1_555 1_555
C25 C8 1_555 1_555
C26 C10 1_555 1_555
H23 C26 1_555 1_555
H24 C26 1_555 1_555
H25 C26 1_555 1_555
C27 C5 1_555 1_555
H26 C27 1_555 1_555
C28 C24 1_555 1_555
H27 C28 1_555 1_555
H28 C20 1_555 1_555
H29 C1 1_555 1_555
H30 C11 1_555 1_555
H31 C23 1_555 1_555
H32 C4 1_555 1_555
C3 C4 1_555 1_555
C9 C14 1_555 1_555
C10 C20 1_555 1_555
C11 C19 1_555 1_555
C13 C23 1_555 1_555
C13 C25 1_555 1_555
C15 C22 1_555 1_555
C16 C25 1_555 1_555
C17 C20 1_555 1_555
C17 C21 1_555 1_555
C27 C28 1_555 1_555

#END
