
#######################################################################
#
#                 Cambridge Crystallographic Data Centre
#                                CCDC 
#
#######################################################################
#
# If this CIF has been generated from an entry in the Cambridge 
# Structural Database, then it will include bibliographic, chemical, 
# crystal, experimental, refinement or atomic coordinate data resulting 
# from the CCDC's data processing and validation procedures.
#
#######################################################################

data_TIDYAJ
_chemical_formula_moiety         'C15 H18 O2'
_chemical_name_systematic        '2-(2-phenylprop-2-en-1-ylidene)hexanoic acid'
_symmetry_cell_setting           triclinic
_symmetry_space_group_name_H-M   'P -1'
_symmetry_Int_Tables_number      2
_space_group_name_Hall           '-P 1'
loop_
_symmetry_equiv_pos_site_id
_symmetry_equiv_pos_as_xyz
1 x,y,z
2 -x,-y,-z
_cell_length_a                   5.6491(4)
_cell_length_b                   11.5037(11)
_cell_length_c                   11.5175(7)
_cell_angle_alpha                111.795(7)
_cell_angle_beta                 99.480(6)
_cell_angle_gamma                90.087(7)
_cell_volume                     683.871
_exptl_crystal_colour            colorless
_exptl_crystal_description       block
_cell_formula_units_Z            2
loop_
_atom_site_label
_atom_site_type_symbol
_atom_site_fract_x
_atom_site_fract_y
_atom_site_fract_z
O1 O 0.8795(3) 0.35622(15) 0.44708(14)
O2 O 0.8015(4) 0.51577(15) 0.61506(15)
H1 H 0.9036 0.5528 0.5960
C1 C 0.3534(7) 0.2743(4) 0.9435(3)
H2 H 0.1955 0.2433 0.9068
C2 C 0.4391(8) 0.2873(5) 1.0671(3)
H3 H 0.3374 0.2653 1.1125
C3 C 0.6680(7) 0.3313(3) 1.1238(3)
H4 H 0.7298 0.3326 1.2043
C4 C 0.8011(7) 0.3726(3) 1.0607(3)
H5 H 0.9524 0.4118 1.1015
C5 C 0.7209(6) 0.3590(3) 0.9351(3)
H6 H 0.8218 0.3863 0.8929
C6 C 0.4986(4) 0.3066(2) 0.8736(2)
C7 C 0.2084(5) 0.2239(3) 0.6721(3)
H7 H 0.1557 0.2188 0.5894
H8 H 0.1200 0.1815 0.7074
C8 C 0.4081(4) 0.2911(2) 0.7393(2)
C9 C 0.5510(4) 0.3591(2) 0.6851(2)
H9 H 0.5938 0.4434 0.7343
C10 C 0.6264(4) 0.31319(19) 0.57286(19)
C11 C 0.5808(4) 0.1802(2) 0.47752(19)
H10 H 0.5299 0.1271 0.5188
H11 H 0.7301 0.1509 0.4492
C12 C 0.3901(5) 0.1665(2) 0.3619(2)
H12 H 0.2438 0.2008 0.3904
H13 H 0.4458 0.2149 0.3171
C13 C 0.3342(7) 0.0315(3) 0.2714(3)
H14 H 0.4794 -0.0021 0.2409
H15 H 0.2827 -0.0174 0.3167
C14 C 0.1409(11) 0.0183(4) 0.1594(4)
H16 H 0.1084 -0.0689 0.1059
H17 H 0.1942 0.0632 0.1118
H18 H -0.0029 0.0520 0.1890
C15 C 0.7784(4) 0.3969(2) 0.53912(18)
loop_
_geom_bond_atom_site_label_1
_geom_bond_atom_site_label_2
_geom_bond_site_symmetry_1
_geom_bond_site_symmetry_2
O1 C15 1_555 1_555
O2 H1 1_555 1_555
C1 H2 1_555 1_555
C2 C1 1_555 1_555
H3 C2 1_555 1_555
C3 C2 1_555 1_555
H4 C3 1_555 1_555
C4 C3 1_555 1_555
H5 C4 1_555 1_555
C5 C4 1_555 1_555
H6 C5 1_555 1_555
C6 C1 1_555 1_555
C7 H7 1_555 1_555
H8 C7 1_555 1_555
C8 C6 1_555 1_555
C9 C8 1_555 1_555
H9 C9 1_555 1_555
C10 C9 1_555 1_555
C11 C10 1_555 1_555
H10 C11 1_555 1_555
H11 C11 1_555 1_555
C12 C11 1_555 1_555
H12 C12 1_555 1_555
H13 C12 1_555 1_555
C13 C12 1_555 1_555
H14 C13 1_555 1_555
H15 C13 1_555 1_555
C14 C13 1_555 1_555
H16 C14 1_555 1_555
H17 C14 1_555 1_555
H18 C14 1_555 1_555
C15 O2 1_555 1_555
C5 C6 1_555 1_555
C7 C8 1_555 1_555
C10 C15 1_555 1_555

#END
