
#######################################################################
#
#                 Cambridge Crystallographic Data Centre
#                                CCDC 
#
#######################################################################
#
# If this CIF has been generated from an entry in the Cambridge 
# Structural Database, then it will include bibliographic, chemical, 
# crystal, experimental, refinement or atomic coordinate data resulting 
# from the CCDC's data processing and validation procedures.
#
#######################################################################

data_TIDYUA
_chemical_formula_moiety         'C68 H82 N8 O2,1.5(C6 H12)'
_chemical_name_systematic        
"10,10'-Bi(15-ethyl-10H-5-oxophlorin) cyclohexane solvate"
_symmetry_cell_setting           monoclinic
_symmetry_space_group_name_H-M   'P 21/n'
_symmetry_Int_Tables_number      14
_space_group_name_Hall           '-P 2yn'
loop_
_symmetry_equiv_pos_site_id
_symmetry_equiv_pos_as_xyz
1 x,y,z
2 1/2-x,1/2+y,1/2-z
3 -x,-y,-z
4 1/2+x,1/2-y,1/2+z
_cell_length_a                   14.893(3)
_cell_length_b                   18.165(4)
_cell_length_c                   25.214(5)
_cell_angle_alpha                90
_cell_angle_beta                 92.92(3)
_cell_angle_gamma                90
_cell_volume                     6812.32
_exptl_crystal_colour            'dark purple'
_cell_formula_units_Z            4
loop_
_atom_site_label
_atom_site_type_symbol
_atom_site_fract_x
_atom_site_fract_y
_atom_site_fract_z
H1 H 0.9336 0.7755 0.1322
H2 H 1.0650 0.8416 0.1930
H3 H 0.6268 0.7027 0.1655
H4 H 0.5039 0.7535 0.2269
O1 O 1.0115 0.6998 -0.0029
N1 N 0.8963 0.7719 0.1068
N2 N 1.0786 0.7432 0.1287
N3 N 1.0920 0.8438 0.2202
N4 N 0.9048 0.8679 0.2095
C1 C 0.8079 0.7888 0.1109
C2 C 0.7623 0.7725 0.0627
C3 C 0.6642 0.7803 0.0498
H5 H 0.6360 0.8055 0.0790
H6 H 0.6372 0.7314 0.0448
H7 H 0.6546 0.8090 0.0171
C4 C 0.8268 0.7448 0.0284
C5 C 0.8055 0.7108 -0.0246
H8 H 0.8541 0.7223 -0.0486
H9 H 0.7488 0.7318 -0.0401
C6 C 0.7961 0.6287 -0.0198
H10 H 0.7823 0.6075 -0.0550
H11 H 0.7473 0.6173 0.0035
H12 H 0.8525 0.6078 -0.0048
C7 C 0.9100 0.7456 0.0565
C8 C 0.9965 0.7173 0.0429
C9 C 1.0675 0.7035 0.0854
C10 C 1.1309 0.6420 0.0840
C13 C 1.1511 0.5967 0.0355
H18 H 1.2087 0.5699 0.0414
H19 H 1.1550 0.6286 0.0039
C14 C 1.0717 0.5421 0.0281
H20 H 1.0647 0.5148 0.0612
H21 H 1.0838 0.5074 -0.0005
H22 H 1.0163 0.5694 0.0188
C15 C 1.1827 0.6466 0.1295
C16 C 1.2585 0.5979 0.1494
H23 H 1.2401 0.5701 0.1804
H24 H 1.3110 0.6282 0.1596
H25 H 1.2739 0.5635 0.1213
C17 C 1.1517 0.7100 0.1583
C18 C 1.1848 0.7348 0.2068
H26 H 1.2343 0.7077 0.2220
C19 C 1.1564 0.7941 0.2373
C20 C 1.2510 0.7719 0.3242
H27 H 1.2772 0.8055 0.3518
H28 H 1.3003 0.7552 0.3022
C21 C 1.1835 0.8133 0.2899
C22 C 1.2111 0.7056 0.3511
H29 H 1.2585 0.6799 0.3722
H30 H 1.1849 0.6721 0.3240
H31 H 1.1643 0.7219 0.3743
C23 C 1.1326 0.8749 0.3037
C24 C 1.1340 0.9078 0.3578
H32 H 1.0768 0.9329 0.3628
H33 H 1.1834 0.9433 0.3618
H34 H 1.1426 0.8688 0.3844
C25 C 1.0763 0.8939 0.2596
C26 C 1.0105 0.9534 0.2510
C27 C 1.0406 1.0284 0.2706
H35 H 1.0790 1.0227 0.3036
H36 H 0.9873 1.0578 0.2791
C28 C 1.0931 1.0690 0.2290
H37 H 1.1090 1.1183 0.2421
H38 H 1.0560 1.0731 0.1959
H39 H 1.1481 1.0416 0.2224
C29 C 0.9298 0.9407 0.2247
C30 C 0.8566 0.9913 0.2084
C31 C 0.8507 1.0725 0.2168
H40 H 0.9048 1.0963 0.2043
H41 H 0.8461 1.0827 0.2548
H42 H 0.7975 1.0919 0.1971
C32 C 0.7904 0.9495 0.1842
C33 C 0.7006 0.9715 0.1611
H43 H 0.6844 0.9393 0.1304
H44 H 0.7040 1.0227 0.1479
C34 C 0.6270 0.9667 0.2008
H45 H 0.5689 0.9786 0.1829
H46 H 0.6398 1.0018 0.2298
H47 H 0.6251 0.9167 0.2153
C35 C 0.8241 0.8736 0.1869
C36 C 0.7756 0.8073 0.1646
H48 H 0.7099 0.8187 0.1609
O2 O 0.5311 0.5309 0.0899
N5 N 0.4803 0.7022 0.1439
N6 N 0.6627 0.6703 0.1590
N7 N 0.6659 0.7782 0.2556
N8 N 0.4780 0.7919 0.2369
C37 C 0.7509 0.6719 0.1743
C38 C 0.7897 0.6062 0.1583
C39 C 0.8877 0.5863 0.1629
H49 H 0.9119 0.5861 0.1275
H50 H 0.8947 0.5373 0.1788
H51 H 0.9203 0.6225 0.1853
C40 C 0.7201 0.5640 0.1331
C41 C 0.6958 0.4289 0.1486
H52 H 0.7025 0.3801 0.1328
H53 H 0.6325 0.4375 0.1554
H54 H 0.7320 0.4316 0.1822
C42 C 0.7278 0.4873 0.1106
H55 H 0.7913 0.4776 0.1030
H56 H 0.6916 0.4842 0.0766
C43 C 0.6410 0.6048 0.1339
C44 C 0.5529 0.5914 0.1093
C45 C 0.4866 0.6534 0.1052
C46 C 0.4223 0.6660 0.0604
C47 C 0.4147 0.6227 0.0101
H57 H 0.3573 0.6352 -0.0093
H58 H 0.4134 0.5696 0.0188
C48 C 0.4917 0.6373 -0.0256
H59 H 0.4821 0.6097 -0.0587
H60 H 0.5484 0.6217 -0.0075
H61 H 0.4945 0.6901 -0.0335
C49 C 0.3755 0.7274 0.0738
C50 C 0.3016 0.7665 0.0423
H62 H 0.3251 0.8121 0.0275
H63 H 0.2527 0.7783 0.0655
H64 H 0.2786 0.7346 0.0133
C51 C 0.4107 0.7500 0.1262
C52 C 0.3802 0.8069 0.1564
H65 H 0.3322 0.8352 0.1406
C53 C 0.4111 0.8284 0.2078
C54 C 0.3826 0.8869 0.2395
C55 C 0.3140 0.9433 0.2222
H66 H 0.2847 0.9623 0.2538
H67 H 0.2671 0.9195 0.1988
C56 C 0.3540 1.0075 0.1927
H68 H 0.3057 1.0402 0.1794
H69 H 0.3869 0.9888 0.1629
H70 H 0.3953 1.0349 0.2170
C57 C 0.4345 0.8844 0.2872
C58 C 0.4281 0.9385 0.3320
H71 H 0.4842 0.9378 0.3541
H72 H 0.3778 0.9251 0.3536
H73 H 0.4183 0.9881 0.3174
C59 C 0.4937 0.8245 0.2851
C60 C 0.5610 0.7970 0.3242
C61 C 0.5304 0.7869 0.3797
H74 H 0.4833 0.8235 0.3867
H75 H 0.5816 0.7949 0.4056
C62 C 0.4927 0.7086 0.3864
H76 H 0.4757 0.7018 0.4232
H77 H 0.5386 0.6723 0.3781
H78 H 0.4396 0.7018 0.3623
C63 C 0.6440 0.7750 0.3096
C64 C 0.7207 0.7427 0.3409
C65 C 0.7311 0.7308 0.3999
H79 H 0.6827 0.6989 0.4112
H80 H 0.7283 0.7783 0.4182
H81 H 0.7893 0.7075 0.4087
C66 C 0.7838 0.7266 0.3060
C67 C 0.8747 0.6914 0.3155
H82 H 0.8866 0.6588 0.2853
H83 H 0.8742 0.6606 0.3479
C68 C 0.9499 0.7474 0.3221
H84 H 1.0078 0.7218 0.3259
H85 H 0.9413 0.7772 0.3538
H86 H 0.9492 0.7794 0.2908
C69 C 0.7464 0.7499 0.2538
C70 C 0.7895 0.7389 0.2016
H87 H 0.8555 0.7312 0.2088
C71 C 0.1639 1.0364 -0.0238
H88 H 0.1012 1.0511 -0.0336
H89 H 0.2036 1.0617 -0.0483
C72 C 0.1727 0.9557 -0.0309
H90 H 0.2371 0.9422 -0.0277
H91 H 0.1494 0.9423 -0.0671
C73 C 0.1230 0.9127 0.0088
H92 H 0.1386 0.8599 0.0057
H93 H 0.0576 0.9178 0.0007
C74 C 0.1448 0.9379 0.0654
H94 H 0.1033 0.9133 0.0892
H95 H 0.2068 0.9224 0.0762
C75 C 0.1372 1.0190 0.0718
H96 H 0.1605 1.0326 0.1080
H97 H 0.0729 1.0330 0.0685
C76 C 0.1875 1.0618 0.0320
H98 H 0.2529 1.0558 0.0397
H99 H 0.1729 1.1148 0.0351
C77 C 0.4946 1.0337 0.0505
H100 H 0.4364 1.0551 0.0598
H101 H 0.5366 1.0399 0.0818
C78 C 0.4804 0.9529 0.0426
H102 H 0.5308 0.9273 0.0619
H103 H 0.4250 0.9395 0.0605
C79 C 0.5272 1.0767 0.0094
H104 H 0.4950 1.1244 0.0091
H105 H 0.5915 1.0871 0.0182
C79B C 0.4728 0.9233 -0.0094
C77B C 0.5054 0.9663 -0.0505
H100B H 0.5636 0.9449 -0.0598
H101B H 0.4634 0.9601 -0.0818
C78B C 0.5196 1.0471 -0.0426
H102B H 0.4692 1.0727 -0.0619
H103B H 0.5750 1.0605 -0.0605
H104B H 0.5050 0.8756 -0.0091
H105B H 0.4085 0.9129 -0.0182
C11? C 1.1125 0.5678 0.0505
H13? H 1.1289 0.5241 0.0723
H14? H 1.0483 0.5642 0.0387
C12? C 1.1694 0.5725 0.0042
H15? H 1.1531 0.5329 -0.0209
H16? H 1.2327 0.5676 0.0161
H17? H 1.1599 0.6202 -0.0134
loop_
_geom_bond_atom_site_label_1
_geom_bond_atom_site_label_2
_geom_bond_site_symmetry_1
_geom_bond_site_symmetry_2
H1 N1 1_555 1_555
H2 N3 1_555 1_555
H3 N6 1_555 1_555
H4 N8 1_555 1_555
O1 C8 1_555 1_555
N1 C1 1_555 1_555
N2 C9 1_555 1_555
N3 C19 1_555 1_555
N4 C29 1_555 1_555
C1 C2 1_555 1_555
C2 C3 1_555 1_555
C3 H5 1_555 1_555
H6 C3 1_555 1_555
H7 C3 1_555 1_555
C4 C2 1_555 1_555
C5 C4 1_555 1_555
H8 C5 1_555 1_555
H9 C5 1_555 1_555
C6 C5 1_555 1_555
H10 C6 1_555 1_555
H11 C6 1_555 1_555
H12 C6 1_555 1_555
C7 N1 1_555 1_555
C8 C7 1_555 1_555
C9 C8 1_555 1_555
C10 C9 1_555 1_555
C13 C10 1_555 1_555
H18 C13 1_555 1_555
H19 C13 1_555 1_555
C14 C13 1_555 1_555
H20 C14 1_555 1_555
H21 C14 1_555 1_555
H22 C14 1_555 1_555
C15 C10 1_555 1_555
C16 C15 1_555 1_555
H23 C16 1_555 1_555
H24 C16 1_555 1_555
H25 C16 1_555 1_555
C17 N2 1_555 1_555
C18 C17 1_555 1_555
H26 C18 1_555 1_555
C19 C18 1_555 1_555
C20 H27 1_555 1_555
H28 C20 1_555 1_555
C21 C19 1_555 1_555
C22 C20 1_555 1_555
H29 C22 1_555 1_555
H30 C22 1_555 1_555
H31 C22 1_555 1_555
C23 C21 1_555 1_555
C24 C23 1_555 1_555
H32 C24 1_555 1_555
H33 C24 1_555 1_555
H34 C24 1_555 1_555
C25 N3 1_555 1_555
C26 C25 1_555 1_555
C27 C26 1_555 1_555
H35 C27 1_555 1_555
H36 C27 1_555 1_555
C28 C27 1_555 1_555
H37 C28 1_555 1_555
H38 C28 1_555 1_555
H39 C28 1_555 1_555
C29 C26 1_555 1_555
C30 C29 1_555 1_555
C31 C30 1_555 1_555
H40 C31 1_555 1_555
H41 C31 1_555 1_555
H42 C31 1_555 1_555
C32 C30 1_555 1_555
C33 C32 1_555 1_555
H43 C33 1_555 1_555
H44 C33 1_555 1_555
C34 C33 1_555 1_555
H45 C34 1_555 1_555
H46 C34 1_555 1_555
H47 C34 1_555 1_555
C35 N4 1_555 1_555
C36 C1 1_555 1_555
H48 C36 1_555 1_555
O2 C44 1_555 1_555
N5 C45 1_555 1_555
N6 C37 1_555 1_555
N7 C63 1_555 1_555
N8 C53 1_555 1_555
C37 C38 1_555 1_555
C38 C39 1_555 1_555
C39 H49 1_555 1_555
H50 C39 1_555 1_555
H51 C39 1_555 1_555
C40 C38 1_555 1_555
C41 H52 1_555 1_555
H53 C41 1_555 1_555
H54 C41 1_555 1_555
C42 C40 1_555 1_555
H55 C42 1_555 1_555
H56 C42 1_555 1_555
C43 N6 1_555 1_555
C44 C43 1_555 1_555
C45 C44 1_555 1_555
C46 C45 1_555 1_555
C47 C46 1_555 1_555
H57 C47 1_555 1_555
H58 C47 1_555 1_555
C48 C47 1_555 1_555
H59 C48 1_555 1_555
H60 C48 1_555 1_555
H61 C48 1_555 1_555
C49 C46 1_555 1_555
C50 C49 1_555 1_555
H62 C50 1_555 1_555
H63 C50 1_555 1_555
H64 C50 1_555 1_555
C51 N5 1_555 1_555
C52 C51 1_555 1_555
H65 C52 1_555 1_555
C53 C52 1_555 1_555
C54 C53 1_555 1_555
C55 C54 1_555 1_555
H66 C55 1_555 1_555
H67 C55 1_555 1_555
C56 C55 1_555 1_555
H68 C56 1_555 1_555
H69 C56 1_555 1_555
H70 C56 1_555 1_555
C57 C54 1_555 1_555
C58 C57 1_555 1_555
H71 C58 1_555 1_555
H72 C58 1_555 1_555
H73 C58 1_555 1_555
C59 N8 1_555 1_555
C60 C59 1_555 1_555
C61 C60 1_555 1_555
H74 C61 1_555 1_555
H75 C61 1_555 1_555
C62 C61 1_555 1_555
H76 C62 1_555 1_555
H77 C62 1_555 1_555
H78 C62 1_555 1_555
C63 C60 1_555 1_555
C64 C63 1_555 1_555
C65 C64 1_555 1_555
H79 C65 1_555 1_555
H80 C65 1_555 1_555
H81 C65 1_555 1_555
C66 C64 1_555 1_555
C67 C66 1_555 1_555
H82 C67 1_555 1_555
H83 C67 1_555 1_555
C68 C67 1_555 1_555
H84 C68 1_555 1_555
H85 C68 1_555 1_555
H86 C68 1_555 1_555
C69 N7 1_555 1_555
C70 C36 1_555 1_555
H87 C70 1_555 1_555
C71 H88 1_555 1_555
H89 C71 1_555 1_555
C72 C71 1_555 1_555
H90 C72 1_555 1_555
H91 C72 1_555 1_555
C73 C72 1_555 1_555
H92 C73 1_555 1_555
H93 C73 1_555 1_555
C74 C73 1_555 1_555
H94 C74 1_555 1_555
H95 C74 1_555 1_555
C75 C74 1_555 1_555
H96 C75 1_555 1_555
H97 C75 1_555 1_555
C76 C71 1_555 1_555
H98 C76 1_555 1_555
H99 C76 1_555 1_555
C77 H100 1_555 1_555
H101 C77 1_555 1_555
C78 C77 1_555 1_555
H102 C78 1_555 1_555
H103 C78 1_555 1_555
C79 C77 1_555 1_555
H104 C79 1_555 1_555
H105 C79 1_555 1_555
C79B C78 1_555 1_555
C77B C79B 1_555 1_555
H100B C77B 1_555 1_555
H101B C77B 1_555 1_555
C78B C79 1_555 1_555
H102B C78B 1_555 1_555
H103B C78B 1_555 1_555
H104B C79B 1_555 1_555
H105B C79B 1_555 1_555
C4 C7 1_555 1_555
C15 C17 1_555 1_555
C20 C21 1_555 1_555
C23 C25 1_555 1_555
C32 C35 1_555 1_555
C35 C36 1_555 1_555
C37 C70 1_555 1_555
C40 C43 1_555 1_555
C41 C42 1_555 1_555
C49 C51 1_555 1_555
C57 C59 1_555 1_555
C66 C69 1_555 1_555
C69 C70 1_555 1_555
C75 C76 1_555 1_555
C77B C78B 1_555 1_555

#END
