
#######################################################################
#
#                 Cambridge Crystallographic Data Centre
#                                CCDC 
#
#######################################################################
#
# If this CIF has been generated from an entry in the Cambridge 
# Structural Database, then it will include bibliographic, chemical, 
# crystal, experimental, refinement or atomic coordinate data resulting 
# from the CCDC's data processing and validation procedures.
#
#######################################################################

data_TIDZOY
_chemical_formula_moiety         'C70 H52 B1 F1 N2 O3 P2,H2 O1,0.5(C4 H10 O1)'
_chemical_name_systematic        
"7,7'-[5-fluoro-5-hydroxy-10-(2,4,6-trimethylphenyl)-5H-4\l^5^,5\l^5^-dipyrrolo[1,2-c:2',1'-f][1,3,2]diazaborinine-3,7-diyl]bis(1,2,3-triphenyl-1H-1\l^5^-phosphindol-1-one) diethyl ether solvate monohydrate"
_symmetry_cell_setting           monoclinic
_symmetry_space_group_name_H-M   'C 2/c'
_symmetry_Int_Tables_number      15
_space_group_name_Hall           '-C 2yn'
loop_
_symmetry_equiv_pos_site_id
_symmetry_equiv_pos_as_xyz
1 x,y,z
2 -x,y,1/2-z
3 1/2+x,1/2+y,z
4 1/2-x,1/2+y,1/2-z
5 -x,-y,-z
6 x,-y,1/2+z
7 1/2-x,1/2-y,-z
8 1/2+x,1/2-y,1/2+z
_cell_length_a                   35.9407(10)
_cell_length_b                   10.2627(4)
_cell_length_c                   32.0520(7)
_cell_angle_alpha                90
_cell_angle_beta                 94.421(2)
_cell_angle_gamma                90
_cell_volume                     11787.2
_exptl_crystal_colour            brown
_exptl_crystal_description       plate
_cell_formula_units_Z            8
_exptl_crystal_recrystallization_method 
'Re-crystallisation from solvent: dichloromethane and diethyl ether'
loop_
_atom_site_label
_atom_site_type_symbol
_atom_site_fract_x
_atom_site_fract_y
_atom_site_fract_z
O4 O 0.16731(6) 0.5084(2) 0.29438(7)
H53 H 0.1465(15) 0.481(5) 0.3133(16)
H54 H 0.1541 0.5138 0.2669
B1 B 0.26654(9) 0.1640(3) 0.14429(11)
O1 O 0.26712(5) 0.03140(18) 0.15548(7)
H1 H 0.2866 0.0154 0.1708
F1 F 0.23941(4) 0.18731(16) 0.11122(5)
N1 N 0.30635(6) 0.2119(2) 0.13221(7)
C1 C 0.32736(7) 0.1598(3) 0.10316(9)
C2 C 0.36289(8) 0.2210(3) 0.10521(9)
H2 H 0.3825 0.2027 0.0878
C3 C 0.36379(8) 0.3111(3) 0.13671(9)
H3 H 0.3840 0.3673 0.1452
C4 C 0.32883(8) 0.3044(2) 0.15413(9)
C5 C 0.31699(8) 0.3692(3) 0.18920(9)
C6 C 0.28149(8) 0.3456(3) 0.20219(9)
C7 C 0.26215(9) 0.4068(3) 0.23347(9)
H4 H 0.2722 0.4697 0.2530
C8 C 0.22641(8) 0.3597(3) 0.23079(9)
H5 H 0.2072 0.3844 0.2480
C9 C 0.22322(8) 0.2680(3) 0.19800(9)
N2 N 0.25665(6) 0.2582(2) 0.18115(7)
C10 C 0.31440(7) 0.0535(2) 0.07462(9)
C11 C 0.33602(7) -0.0599(3) 0.07244(9)
C12 C 0.32447(7) -0.1624(2) 0.04501(9)
C13 C 0.29173(7) -0.1498(3) 0.01906(9)
H6 H 0.2842 -0.2173 -0.0001
C14 C 0.27015(8) -0.0380(3) 0.02131(9)
H7 H 0.2476 -0.0302 0.0039
C15 C 0.28106(8) 0.0621(3) 0.04852(9)
H8 H 0.2659 0.1375 0.0496
C16 C 0.34862(7) -0.2808(3) 0.05004(9)
C17 C 0.37675(8) -0.2726(3) 0.08090(9)
P1 P 0.37764(2) -0.10939(7) 0.10331(2)
O2 O 0.37873(5) -0.09525(18) 0.14914(6)
C18 C 0.33899(7) -0.3955(3) 0.02274(9)
C19 C 0.33700(8) -0.3812(3) -0.02058(9)
H9 H 0.3422 -0.2991 -0.0325
C20 C 0.32742(9) -0.4860(3) -0.04650(10)
H10 H 0.3257 -0.4751 -0.0760
C21 C 0.32034(8) -0.6062(3) -0.02947(11)
H11 H 0.3142 -0.6783 -0.0473
C22 C 0.32219(8) -0.6217(3) 0.01298(11)
H12 H 0.3172 -0.7045 0.0246
C23 C 0.33143(8) -0.5164(3) 0.03954(10)
H13 H 0.3325 -0.5276 0.0690
C24 C 0.40568(8) -0.3702(3) 0.09542(9)
C25 C 0.41966(8) -0.4632(3) 0.06891(10)
H14 H 0.4107 -0.4662 0.0402
C26 C 0.44669(8) -0.5516(3) 0.08451(10)
H15 H 0.4558 -0.6152 0.0663
C27 C 0.46046(8) -0.5488(3) 0.12554(10)
H16 H 0.4789 -0.6098 0.1357
C28 C 0.44720(8) -0.4559(3) 0.15203(10)
H17 H 0.4568 -0.4521 0.1805
C29 C 0.41992(8) -0.3682(3) 0.13715(10)
H18 H 0.4108 -0.3058 0.1557
C30 C 0.41765(8) -0.0316(2) 0.08253(10)
C31 C 0.44510(8) 0.0231(3) 0.11015(11)
H19 H 0.4432 0.0177 0.1395
C32 C 0.47589(8) 0.0868(3) 0.09422(13)
H20 H 0.4949 0.1235 0.1129
C33 C 0.47834(9) 0.0955(3) 0.05210(12)
H21 H 0.4990 0.1389 0.0415
C34 C 0.45119(8) 0.0418(3) 0.02490(11)
H22 H 0.4532 0.0479 -0.0044
C35 C 0.42060(8) -0.0219(3) 0.03992(10)
H23 H 0.4019 -0.0584 0.0209
C36 C 0.34333(8) 0.4649(3) 0.21178(9)
C37 C 0.37295(9) 0.4168(3) 0.23858(10)
C38 C 0.39838(9) 0.5067(3) 0.25819(10)
H24 H 0.4186 0.4755 0.2762
C39 C 0.39441(9) 0.6391(3) 0.25167(10)
C40 C 0.36481(9) 0.6834(3) 0.22584(10)
H25 H 0.3618 0.7747 0.2220
C41 C 0.33881(9) 0.5989(3) 0.20482(9)
C42 C 0.37819(11) 0.2739(3) 0.24698(12)
H26 H 0.3572 0.2409 0.2617
H27 H 0.4015 0.2600 0.2643
H28 H 0.3792 0.2273 0.2204
C43 C 0.42338(10) 0.7331(4) 0.27195(12)
H29 H 0.4337 0.6972 0.2987
H30 H 0.4115 0.8173 0.2767
H31 H 0.4435 0.7452 0.2534
C44 C 0.30805(11) 0.6514(3) 0.17526(11)
H32 H 0.2840 0.6376 0.1871
H33 H 0.3081 0.6062 0.1483
H34 H 0.3119 0.7449 0.1711
C45 C 0.18892(7) 0.2028(3) 0.17941(8)
C46 C 0.15885(7) 0.2798(3) 0.16381(9)
C47 C 0.12807(7) 0.2250(3) 0.14021(8)
C48 C 0.12470(8) 0.0903(3) 0.13680(9)
H35 H 0.1034 0.0519 0.1224
C49 C 0.15359(8) 0.0128(3) 0.15515(9)
H36 H 0.1512 -0.0793 0.1540
C50 C 0.18563(8) 0.0671(3) 0.17488(9)
H37 H 0.2055 0.0122 0.1854
C51 C 0.10148(7) 0.3227(3) 0.12009(9)
C52 C 0.10992(8) 0.4479(3) 0.13143(9)
P2 P 0.15127(2) 0.45357(7) 0.16764(2)
O3 O 0.14444(5) 0.50767(18) 0.20911(6)
C53 C 0.06977(7) 0.2775(2) 0.09123(9)
C54 C 0.07670(8) 0.1989(3) 0.05699(9)
H38 H 0.1017 0.1783 0.0516
C55 C 0.04743(8) 0.1512(3) 0.03098(9)
H39 H 0.0525 0.0988 0.0076
C56 C 0.01064(8) 0.1790(3) 0.03846(10)
H40 H -0.0093 0.1446 0.0207
C57 C 0.00348(8) 0.2566(3) 0.07186(10)
H41 H -0.0215 0.2766 0.0771
C58 C 0.03284(8) 0.3059(3) 0.09799(10)
H42 H 0.0276 0.3600 0.1209
C59 C 0.09161(8) 0.5707(3) 0.11613(9)
C60 C 0.08902(9) 0.6023(3) 0.07418(10)
H43 H 0.0973 0.5418 0.0545
C61 C 0.07445(9) 0.7217(3) 0.06039(11)
H44 H 0.0730 0.7423 0.0314
C62 C 0.06210(9) 0.8107(3) 0.08878(12)
H45 H 0.0521 0.8922 0.0794
C63 C 0.06454(9) 0.7799(3) 0.13041(12)
H46 H 0.0560 0.8402 0.1500
C64 C 0.07946(8) 0.6611(3) 0.14432(10)
H47 H 0.0814 0.6416 0.1734
C65 C 0.18666(8) 0.5412(3) 0.14208(9)
C66 C 0.19437(8) 0.6700(3) 0.15328(11)
H48 H 0.1823 0.7089 0.1755
C67 C 0.21968(9) 0.7416(3) 0.13216(12)
H49 H 0.2246 0.8301 0.1394
C68 C 0.23748(9) 0.6848(4) 0.10094(12)
H50 H 0.2546 0.7341 0.0863
C69 C 0.23082(10) 0.5557(4) 0.09032(11)
H51 H 0.2439 0.5164 0.0689
C70 C 0.20512(9) 0.4835(3) 0.11084(10)
H52 H 0.2003 0.3952 0.1034
H55? H 0.5058 1.0342 0.3094
H56? H 0.4746 0.9590 0.2807
H57? H 0.5029 1.2503 0.2928
H58? H 0.5012 1.3621 0.2579
H59? H 0.5385 1.2783 0.2670
C71? C 0.4951(7) 1.163(2) 0.2282(7)
H60? H 0.4672 1.1544 0.2248
H61? H 0.5042 1.1785 0.1997
C72? C 0.5171(6) 0.851(2) 0.3001(7)
H62? H 0.5166 0.7905 0.2767
H63? H 0.5022 0.8164 0.3220
H64? H 0.5428 0.8649 0.3117
C73? C 0.5004(8) 1.3923(11) 0.2560(7)
H65? H 0.5148 1.4246 0.2335
H66? H 0.5037 1.4478 0.2804
H67? H 0.4738 1.3878 0.2460
C74? C 0.5020(4) 0.9712(14) 0.2863(4)
H68? H 0.4789 1.0217 0.2850
H69? H 0.5085 0.9424 0.3151
H70? H 0.4986 0.8946 0.2680
C75? C 0.5112(4) 1.2788(16) 0.2650(4)
H71? H 0.4921 1.2436 0.2823
H72? H 0.5338 1.2906 0.2837
C76? C 0.5376(10) 1.065(3) 0.2701(10)
H73? H 0.5486 1.1103 0.2931
H74? H 0.5523 1.0116 0.2549
O5? O 0.5200(7) 1.165(3) 0.2404(9)
O6? O 0.5155(6) 1.026(2) 0.2517(9)
loop_
_geom_bond_atom_site_label_1
_geom_bond_atom_site_label_2
_geom_bond_site_symmetry_1
_geom_bond_site_symmetry_2
B1 O1 1_555 1_555
O1 H1 1_555 1_555
F1 B1 1_555 1_555
N1 B1 1_555 1_555
C1 N1 1_555 1_555
C2 C1 1_555 1_555
H2 C2 1_555 1_555
C3 C2 1_555 1_555
H3 C3 1_555 1_555
C4 N1 1_555 1_555
C5 C4 1_555 1_555
C6 C5 1_555 1_555
C7 C6 1_555 1_555
H4 C7 1_555 1_555
C8 C7 1_555 1_555
H5 C8 1_555 1_555
C9 C8 1_555 1_555
N2 B1 1_555 1_555
C10 C1 1_555 1_555
C11 C10 1_555 1_555
C12 C11 1_555 1_555
C13 C12 1_555 1_555
H6 C13 1_555 1_555
C14 C13 1_555 1_555
H7 C14 1_555 1_555
C15 C10 1_555 1_555
H8 C15 1_555 1_555
C16 C12 1_555 1_555
C17 C16 1_555 1_555
P1 C11 1_555 1_555
O2 P1 1_555 1_555
C18 C16 1_555 1_555
C19 C18 1_555 1_555
H9 C19 1_555 1_555
C20 C19 1_555 1_555
H10 C20 1_555 1_555
C21 C20 1_555 1_555
H11 C21 1_555 1_555
C22 C21 1_555 1_555
H12 C22 1_555 1_555
C23 C18 1_555 1_555
H13 C23 1_555 1_555
C24 C17 1_555 1_555
C25 C24 1_555 1_555
H14 C25 1_555 1_555
C26 C25 1_555 1_555
H15 C26 1_555 1_555
C27 C26 1_555 1_555
H16 C27 1_555 1_555
C28 C27 1_555 1_555
H17 C28 1_555 1_555
C29 C24 1_555 1_555
H18 C29 1_555 1_555
C30 P1 1_555 1_555
C31 C30 1_555 1_555
H19 C31 1_555 1_555
C32 C31 1_555 1_555
H20 C32 1_555 1_555
C33 C32 1_555 1_555
H21 C33 1_555 1_555
C34 C33 1_555 1_555
H22 C34 1_555 1_555
C35 C30 1_555 1_555
H23 C35 1_555 1_555
C36 C5 1_555 1_555
C37 C36 1_555 1_555
C38 C37 1_555 1_555
H24 C38 1_555 1_555
C39 C38 1_555 1_555
C40 C39 1_555 1_555
H25 C40 1_555 1_555
C41 C36 1_555 1_555
C42 C37 1_555 1_555
H26 C42 1_555 1_555
H27 C42 1_555 1_555
H28 C42 1_555 1_555
C43 C39 1_555 1_555
H29 C43 1_555 1_555
H30 C43 1_555 1_555
H31 C43 1_555 1_555
C44 C41 1_555 1_555
H32 C44 1_555 1_555
H33 C44 1_555 1_555
H34 C44 1_555 1_555
C45 C9 1_555 1_555
C46 C45 1_555 1_555
C47 C46 1_555 1_555
C48 C47 1_555 1_555
H35 C48 1_555 1_555
C49 C48 1_555 1_555
H36 C49 1_555 1_555
C50 C45 1_555 1_555
H37 C50 1_555 1_555
C51 C47 1_555 1_555
C52 C51 1_555 1_555
P2 C46 1_555 1_555
O3 P2 1_555 1_555
C53 C51 1_555 1_555
C54 C53 1_555 1_555
H38 C54 1_555 1_555
C55 C54 1_555 1_555
H39 C55 1_555 1_555
C56 C55 1_555 1_555
H40 C56 1_555 1_555
C57 C56 1_555 1_555
H41 C57 1_555 1_555
C58 C53 1_555 1_555
H42 C58 1_555 1_555
C59 C52 1_555 1_555
C60 C59 1_555 1_555
H43 C60 1_555 1_555
C61 C60 1_555 1_555
H44 C61 1_555 1_555
C62 C61 1_555 1_555
H45 C62 1_555 1_555
C63 C62 1_555 1_555
H46 C63 1_555 1_555
C64 C59 1_555 1_555
H47 C64 1_555 1_555
C65 P2 1_555 1_555
C66 C65 1_555 1_555
H48 C66 1_555 1_555
C67 C66 1_555 1_555
H49 C67 1_555 1_555
C68 C67 1_555 1_555
H50 C68 1_555 1_555
C69 C68 1_555 1_555
H51 C69 1_555 1_555
C70 C65 1_555 1_555
H52 C70 1_555 1_555
O4 H53 1_555 1_555
H54 O4 1_555 1_555
C3 C4 1_555 1_555
C6 N2 1_555 1_555
C9 N2 1_555 1_555
C14 C15 1_555 1_555
C17 P1 1_555 1_555
C22 C23 1_555 1_555
C28 C29 1_555 1_555
C34 C35 1_555 1_555
C40 C41 1_555 1_555
C49 C50 1_555 1_555
C52 P2 1_555 1_555
C57 C58 1_555 1_555
C63 C64 1_555 1_555
C69 C70 1_555 1_555

#END
