
#######################################################################
#
#                 Cambridge Crystallographic Data Centre
#                                CCDC 
#
#######################################################################
#
# If this CIF has been generated from an entry in the Cambridge 
# Structural Database, then it will include bibliographic, chemical, 
# crystal, experimental, refinement or atomic coordinate data resulting 
# from the CCDC's data processing and validation procedures.
#
#######################################################################

data_TIDZAH
_chemical_formula_moiety         'C140 H152 N16 O4,C1 H2 Cl2,3.5(C6 H14)'
_chemical_name_systematic        
"bis(1,4-bis(10,10'-Bi(10H-5-oxophlorin)-15,15'-diyl)benzene) dichloromethane n-hexane solvate"
_symmetry_cell_setting           monoclinic
_symmetry_space_group_name_H-M   'C 2/c'
_symmetry_Int_Tables_number      15
_space_group_name_Hall           '-C 2yn'
loop_
_symmetry_equiv_pos_site_id
_symmetry_equiv_pos_as_xyz
1 x,y,z
2 -x,y,1/2-z
3 1/2+x,1/2+y,z
4 1/2-x,1/2+y,1/2-z
5 -x,-y,-z
6 x,-y,1/2+z
7 1/2-x,1/2-y,-z
8 1/2+x,1/2-y,1/2+z
_cell_length_a                   36.106(5)
_cell_length_b                   17.4906(15)
_cell_length_c                   29.190(5)
_cell_angle_alpha                90
_cell_angle_beta                 123.501(9)
_cell_angle_gamma                90
_cell_volume                     15371.6
_exptl_crystal_colour            'dark purple'
_cell_formula_units_Z            4
loop_
_atom_site_label
_atom_site_type_symbol
_atom_site_fract_x
_atom_site_fract_y
_atom_site_fract_z
C97 C 0.6111(7) 0.5153(12) 1.0578(8)
C99 C 0.7417(4) 0.6722(8) 1.0573(6)
C101 C 0.7124(3) 0.6158(5) 1.0682(4)
C102 C 0.6001(4) 0.4493(7) 1.0683(5)
C103 C 0.6638(5) 0.5243(8) 1.0892(6)
C105 C 0.6846(5) 0.5790(8) 1.0809(6)
O1 O 0.88337(8) 0.6445(2) 1.02784(11)
N1 N 0.37440(9) 0.6392(2) 0.79647(11)
N2 N 0.41125(9) 0.7439(2) 0.88458(11)
H1 H 0.39047(9) 0.7093(2) 0.87476(11)
N3 N 0.32619(9) 0.7348(2) 0.87662(11)
N4 N 0.28742(9) 0.6275(2) 0.79035(11)
H2 H 0.30545(9) 0.6671(2) 0.80269(11)
N5 N 0.67212(9) 0.6216(2) 0.85701(11)
N6 N 0.69065(9) 0.5309(2) 0.94907(12)
H3 H 0.70846(9) 0.5640(2) 0.94787(12)
N7 N 0.78631(9) 0.54602(15) 0.99772(11)
N8 N 0.77276(9) 0.6329(2) 0.90591(11)
H4 H 0.75703(9) 0.6037(2) 0.91355(11)
C1 C 0.35209(11) 0.5828(2) 0.76249(14)
C2 C 0.38025(12) 0.5189(2) 0.76840(15)
C3 C 0.3638(2) 0.4433(2) 0.7384(2)
C4 C 0.42239(12) 0.5405(2) 0.80634(15)
C5 C 0.46293(14) 0.4902(3) 0.8295(2)
H5 H 0.4839(5) 0.5020(13) 0.8685(4)
H6 H 0.4772(6) 0.4996(13) 0.8096(9)
H7 H 0.4540(2) 0.4364(3) 0.8255(12)
C6 C 0.41963(11) 0.6174(2) 0.82361(14)
C7 C 0.45336(11) 0.6672(2) 0.85796(14)
C14 C 0.4993(6) 0.6620(12) 0.8686(10)
C15 C 0.5372(7) 0.6534(12) 0.9212(9)
H12 H 0.5352(10) 0.6567(17) 0.9522(10)
C16 C 0.5780(6) 0.6400(9) 0.9283(8)
H13 H 0.6039(7) 0.6341(14) 0.9642(9)
C17 C 0.5809(6) 0.6351(7) 0.8828(10)
C18 C 0.5430(8) 0.6437(8) 0.8302(8)
H14 H 0.5450(11) 0.6403(12) 0.7992(10)
C19 C 0.5022(6) 0.6571(10) 0.8231(8)
H15 H 0.4763(8) 0.6630(15) 0.7872(9)
C20 C 0.62268(11) 0.6051(2) 0.88810(14)
C21 C 0.44703(11) 0.7352(2) 0.88018(13)
C22 C 0.47239(11) 0.8038(2) 0.90043(15)
C23 C 0.51247(13) 0.8255(3) 0.9002(2)
H16 H 0.5104(5) 0.8024(14) 0.8683(7)
H17 H 0.53932(14) 0.8072(15) 0.9339(6)
H18 H 0.5138(6) 0.8813(3) 0.8981(12)
C24 C 0.45094(12) 0.8518(2) 0.9169(2)
C25 C 0.46482(14) 0.9309(2) 0.9393(2)
H19 H 0.49762(14) 0.9343(2) 0.9607(2)
H20 H 0.45529(14) 0.9413(2) 0.9647(2)
C26 C 0.4452(2) 0.9915(3) 0.8944(2)
H21 H 0.4561(10) 1.0420(3) 0.9110(3)
H22 H 0.4127(2) 0.9905(14) 0.8745(10)
H23 H 0.4541(10) 0.9810(12) 0.8688(9)
C27 C 0.41244(11) 0.8136(2) 0.90629(14)
C28 C 0.37997(12) 0.8397(2) 0.91529(15)
H24 H 0.38590(12) 0.8883(2) 0.93252(15)
C29 C 0.34169(12) 0.8065(2) 0.90329(14)
C30 C 0.31145(14) 0.8364(2) 0.9168(2)
C31 C 0.3167(2) 0.9108(2) 0.9445(2)
H25 H 0.3325(10) 0.9468(6) 0.9353(11)
H26 H 0.3337(9) 0.9031(4) 0.9843(2)
H27 H 0.2873(2) 0.9314(9) 0.9320(10)
C32 C 0.27891(14) 0.7826(2) 0.9005(2)
C33 C 0.28934(12) 0.7224(2) 0.87548(15)
C34 C 0.27732(12) 0.5818(2) 0.74749(14)
C35 C 0.30287(11) 0.5886(2) 0.72102(14)
H28 H 0.29378(11) 0.5454(2) 0.69439(14)
C36 C 0.67847(11) 0.6766(2) 0.83176(13)
C37 C 0.65298(11) 0.7461(2) 0.82471(14)
C38 C 0.65562(13) 0.8208(2) 0.8012(2)
H29 H 0.68408(13) 0.8229(2) 0.8037(2)
H30 H 0.65558(13) 0.8632(2) 0.8237(2)
C39 C 0.6180(2) 0.8327(3) 0.7423(2)
H31 H 0.6205(7) 0.8835(8) 0.7302(5)
H32 H 0.5896(2) 0.8286(19) 0.7392(3)
H33 H 0.6194(7) 0.7937(12) 0.7192(3)
C40 C 0.62739(11) 0.7286(2) 0.84412(14)
C41 C 0.59859(14) 0.7839(3) 0.8500(2)
H34 H 0.6022(8) 0.7759(12) 0.8855(6)
H35 H 0.5675(2) 0.7758(12) 0.8202(7)
H36 H 0.6073(7) 0.8363(3) 0.8482(12)
C42 C 0.63878(11) 0.6498(2) 0.86454(14)
C43 C 0.64536(11) 0.5366(2) 0.91963(14)
C44 C 0.62927(11) 0.4714(2) 0.93115(15)
C45 C 0.58150(12) 0.4484(3) 0.9055(2)
H37 H 0.5631(2) 0.4715(14) 0.8690(5)
H38 H 0.5714(3) 0.4661(15) 0.9287(7)
H39 H 0.5790(2) 0.3926(3) 0.9022(11)
C46 C 0.66592(11) 0.4275(2) 0.96955(14)
C47 C 0.66464(13) 0.3528(2) 0.9932(2)
H40 H 0.63983(13) 0.3535(2) 0.9985(2)
H41 H 0.69257(13) 0.3465(2) 1.0297(2)
C48 C 0.6588(2) 0.2835(3) 0.9571(2)
H42 H 0.6574(12) 0.2365(3) 0.9744(8)
H43 H 0.6840(6) 0.2807(12) 0.9532(12)
H44 H 0.6312(6) 0.2892(10) 0.9208(5)
C49 C 0.70421(11) 0.4662(2) 0.98063(14)
C50 C 0.74947(11) 0.4497(2) 1.02063(14)
H45 H 0.75476(11) 0.4073(2) 1.04385(14)
C51 C 0.78666(11) 0.4867(2) 1.03029(13)
C52 C 0.83189(11) 0.4685(2) 1.07412(14)
C53 C 0.84521(12) 0.4074(2) 1.1166(2)
H46 H 0.8448(8) 0.3576(3) 1.1010(4)
H47 H 0.8243(5) 0.4070(10) 1.1282(8)
H48 H 0.8752(4) 0.4179(8) 1.1485(5)
C54 C 0.85887(11) 0.5161(2) 1.06833(14)
C55 C 0.90869(12) 0.5155(2) 1.1018(2)
H49 H 0.91956(12) 0.4895(2) 1.1372(2)
H50 H 0.91963(12) 0.5689(2) 1.1100(2)
C56 C 0.92775(14) 0.4755(3) 1.0730(2)
H51 H 0.96024(15) 0.4786(19) 1.0960(7)
H52 H 0.9167(10) 0.5004(14) 1.0376(7)
H53 H 0.9186(10) 0.4218(6) 1.0668(14)
C57 C 0.82901(11) 0.5628(2) 1.02016(13)
C58 C 0.84484(11) 0.6213(2) 0.99737(15)
C59 C 0.81763(11) 0.6483(2) 0.94141(14)
C60 C 0.82997(12) 0.6951(2) 0.91304(15)
C61 C 0.87612(14) 0.7234(3) 0.9342(2)
H54 H 0.88961(14) 0.7435(3) 0.9718(2)
H55 H 0.87427(14) 0.7659(3) 0.9106(2)
C62 C 0.9058(2) 0.6611(4) 0.9351(2)
H56 H 0.9354(4) 0.6822(7) 0.9491(16)
H57 H 0.8930(7) 0.6417(16) 0.8977(3)
H58 H 0.9083(11) 0.6193(11) 0.9589(13)
C63 C 0.79151(12) 0.7079(2) 0.86016(15)
C64 C 0.78878(15) 0.7542(3) 0.8149(2)
H59 H 0.7956(10) 0.7214(5) 0.7933(8)
H60 H 0.8102(8) 0.7962(11) 0.8310(2)
H61 H 0.7587(3) 0.7750(15) 0.7911(8)
C65 C 0.75674(11) 0.6698(2) 0.85761(14)
C66 C 0.29135(11) 0.6656(2) 0.68815(14)
H62 H 0.29737(11) 0.7082(2) 0.71426(14)
C67 C 0.3458(3) 0.3962(5) 0.7676(4)
H63 H 0.3335(22) 0.3477(19) 0.7483(18)
H64 H 0.3225(17) 0.4255(18) 0.7673(26)
H65 H 0.3701(6) 0.3860(36) 0.8057(10)
C69 C 0.2347(5) 0.7866(13) 0.8957(8)
H69 H 0.2354(5) 0.7479(13) 0.9209(8)
H70 H 0.2328(5) 0.8374(13) 0.9092(8)
C70 C 0.1925(4) 0.7745(10) 0.8395(8)
H71 H 0.1672(6) 0.7708(53) 0.8432(9)
H72 H 0.1949(13) 0.7272(29) 0.8234(18)
H73 H 0.1880(16) 0.8178(27) 0.8157(14)
O2 O 0.2362(8) 0.6427(11) 0.8690(11)
C73 C 0.2553(7) 0.6214(11) 0.8057(11)
C74 C 0.2626(10) 0.6619(13) 0.8528(13)
C80 C 0.2253(4) 0.5679(8) 0.7691(6)
C81 C 0.1876(5) 0.5352(10) 0.7697(5)
H84 H 0.1968(5) 0.5247(10) 0.8080(5)
H85 H 0.1778(5) 0.4866(10) 0.7489(5)
C82 C 0.1482(4) 0.5955(11) 0.7422(5)
H86 H 0.1227(11) 0.5747(23) 0.7416(32)
H87 H 0.1396(19) 0.6059(37) 0.7046(12)
H88 H 0.1580(10) 0.6430(20) 0.7636(20)
C85 C 0.2373(5) 0.5483(7) 0.7316(6)
C86 C 0.2131(4) 0.4946(7) 0.6830(5)
H92 H 0.1968(17) 0.5243(7) 0.6490(5)
H93 H 0.1921(15) 0.4633(26) 0.6864(14)
H94 H 0.2346(4) 0.4612(25) 0.6824(16)
C36A C 0.32153(11) 0.6766(2) 0.66824(13)
N5A N 0.32788(9) 0.6216(2) 0.64299(11)
C42A C 0.36122(11) 0.6498(2) 0.63546(14)
C20A C 0.37732(11) 0.6051(2) 0.61190(14)
C17A C 0.4191(6) 0.6351(7) 0.6172(10)
C16A C 0.4220(6) 0.6400(9) 0.5717(8)
C15A C 0.4628(7) 0.6534(12) 0.5788(9)
C14A C 0.5007(6) 0.6620(12) 0.6314(10)
C7A C 0.54664(11) 0.6672(2) 0.64204(14)
C6A C 0.58037(11) 0.6174(2) 0.67639(14)
N1A N 0.62560(9) 0.6392(2) 0.70353(11)
C1A C 0.64791(11) 0.5828(2) 0.73751(14)
C2A C 0.61975(12) 0.5189(2) 0.73160(15)
C3A C 0.6362(2) 0.4433(2) 0.7616(2)
C67A C 0.6542(3) 0.3962(5) 0.7324(4)
H63A H 0.6665(22) 0.3477(19) 0.7517(18)
H64A H 0.6775(17) 0.4255(18) 0.7327(26)
H65A H 0.6299(6) 0.3860(36) 0.6943(10)
C4A C 0.57761(12) 0.5405(2) 0.69366(15)
C5A C 0.53707(14) 0.4902(3) 0.6705(2)
H5A H 0.5161(5) 0.5020(13) 0.6315(4)
H6A H 0.5228(6) 0.4996(13) 0.6904(9)
H7A H 0.5460(2) 0.4364(3) 0.6745(12)
C35A C 0.69713(11) 0.5886(2) 0.77898(14)
C34A C 0.72268(12) 0.5818(2) 0.75251(14)
N4A N 0.71258(9) 0.6275(2) 0.70965(11)
H2A H 0.69455(9) 0.6671(2) 0.69731(11)
C73A C 0.7447(7) 0.6214(11) 0.6943(11)
C74A C 0.7374(10) 0.6619(13) 0.6472(13)
C33A C 0.71066(12) 0.7224(2) 0.62452(15)
N3A N 0.67381(9) 0.7348(2) 0.62338(11)
C29A C 0.65831(12) 0.8065(2) 0.59671(14)
C28A C 0.62003(12) 0.8397(2) 0.58471(15)
C27A C 0.58756(11) 0.8136(2) 0.59371(14)
N2A N 0.58875(9) 0.7439(2) 0.61542(11)
H1A H 0.60953(9) 0.7093(2) 0.62524(11)
C21A C 0.55297(11) 0.7352(2) 0.61982(13)
C22A C 0.52761(11) 0.8038(2) 0.59957(15)
C23A C 0.48753(13) 0.8255(3) 0.5998(2)
H16A H 0.4896(5) 0.8024(14) 0.6317(7)
H17A H 0.46068(14) 0.8072(15) 0.5661(6)
H18A H 0.4862(6) 0.8813(3) 0.6019(12)
C24A C 0.54906(12) 0.8518(2) 0.5831(2)
C25A C 0.53518(14) 0.9309(2) 0.5607(2)
H19A H 0.50238(14) 0.9343(2) 0.5393(2)
H20A H 0.54471(14) 0.9413(2) 0.5353(2)
C26A C 0.5548(2) 0.9915(3) 0.6056(2)
H21A H 0.5439(10) 1.0420(3) 0.5890(3)
H22A H 0.5873(2) 0.9905(14) 0.6255(10)
H23A H 0.5459(10) 0.9810(12) 0.6312(9)
H24A H 0.61410(12) 0.8883(2) 0.56748(15)
C30A C 0.68855(14) 0.8364(2) 0.5832(2)
C31A C 0.6833(2) 0.9108(2) 0.5555(2)
H25A H 0.6675(10) 0.9468(6) 0.5647(11)
H26A H 0.6663(9) 0.9031(4) 0.5157(2)
H27A H 0.7127(2) 0.9314(9) 0.5680(10)
C32A C 0.72109(14) 0.7826(2) 0.5995(2)
C69A C 0.7653(5) 0.7866(13) 0.6043(8)
H69A H 0.7646(5) 0.7479(13) 0.5791(8)
H70A H 0.7672(5) 0.8374(13) 0.5908(8)
C70A C 0.8075(4) 0.7745(10) 0.6605(8)
H71A H 0.8328(6) 0.7708(53) 0.6568(9)
H72A H 0.8051(13) 0.7272(29) 0.6766(18)
H73A H 0.8120(16) 0.8178(27) 0.6843(14)
O2A O 0.7638(8) 0.6427(11) 0.6310(11)
C80A C 0.7747(4) 0.5679(8) 0.7309(6)
C81A C 0.8124(5) 0.5352(10) 0.7303(5)
H84A H 0.8032(5) 0.5247(10) 0.6920(5)
H85A H 0.8222(5) 0.4866(10) 0.7511(5)
C82A C 0.8518(4) 0.5955(11) 0.7578(5)
H86A H 0.8773(11) 0.5747(23) 0.7584(32)
H87A H 0.8604(19) 0.6059(37) 0.7954(12)
H88A H 0.8420(10) 0.6430(20) 0.7364(20)
C85A C 0.7627(5) 0.5483(7) 0.7684(6)
C86A C 0.7869(4) 0.4946(7) 0.8170(5)
H92A H 0.8032(17) 0.5243(7) 0.8510(5)
H93A H 0.8079(15) 0.4633(26) 0.8136(14)
H94A H 0.7654(4) 0.4612(25) 0.8176(16)
H28A H 0.70622(11) 0.5454(2) 0.80561(14)
C66A C 0.70865(11) 0.6656(2) 0.81185(14)
H62A H 0.70263(11) 0.7082(2) 0.78574(14)
C19A C 0.4978(6) 0.6571(10) 0.6769(8)
C18A C 0.4570(8) 0.6437(8) 0.6698(8)
H14A H 0.4550(11) 0.6403(12) 0.7008(10)
H15A H 0.5237(8) 0.6630(15) 0.7128(9)
H12A H 0.4648(10) 0.6567(17) 0.5478(10)
H13A H 0.3961(7) 0.6341(14) 0.5358(9)
C43A C 0.35464(11) 0.5366(2) 0.58037(14)
N6A N 0.30935(9) 0.5309(2) 0.55093(12)
H3A H 0.29154(9) 0.5640(2) 0.55213(12)
C49A C 0.29579(11) 0.4662(2) 0.51937(14)
C46A C 0.33408(11) 0.4275(2) 0.53045(14)
C44A C 0.37073(11) 0.4714(2) 0.56885(15)
C45A C 0.41850(12) 0.4484(3) 0.5945(2)
H37A H 0.4369(2) 0.4715(14) 0.6310(5)
H38A H 0.4286(3) 0.4661(15) 0.5713(7)
H39A H 0.4210(2) 0.3926(3) 0.5978(11)
C47A C 0.33536(13) 0.3528(2) 0.5068(2)
H40A H 0.36017(13) 0.3535(2) 0.5015(2)
H41A H 0.30743(13) 0.3465(2) 0.4703(2)
C48A C 0.3412(2) 0.2835(3) 0.5429(2)
H42A H 0.3426(12) 0.2365(3) 0.5256(8)
H43A H 0.3160(6) 0.2807(12) 0.5468(12)
H44A H 0.3688(6) 0.2892(10) 0.5792(5)
C50A C 0.25053(11) 0.4497(2) 0.47937(14)
H45A H 0.24524(11) 0.4073(2) 0.45615(14)
C51A C 0.21334(11) 0.4867(2) 0.46971(13)
N7A N 0.21369(9) 0.54602(15) 0.50228(11)
C57A C 0.17099(11) 0.5628(2) 0.47984(13)
C54A C 0.14113(11) 0.5161(2) 0.43167(14)
C52A C 0.16811(11) 0.4685(2) 0.42588(14)
C53A C 0.15479(12) 0.4074(2) 0.3834(2)
H46A H 0.1552(8) 0.3576(3) 0.3990(4)
H47A H 0.1757(5) 0.4070(10) 0.3718(8)
H48A H 0.1248(4) 0.4179(8) 0.3515(5)
C55A C 0.09131(12) 0.5155(2) 0.3982(2)
H49A H 0.08044(12) 0.4895(2) 0.3628(2)
H50A H 0.08037(12) 0.5689(2) 0.3900(2)
C56A C 0.07225(14) 0.4755(3) 0.4270(2)
H51A H 0.03976(15) 0.4786(19) 0.4040(7)
H52A H 0.0833(10) 0.5004(14) 0.4624(7)
H53A H 0.0814(10) 0.4218(6) 0.4332(14)
C58A C 0.15516(11) 0.6213(2) 0.50263(15)
O1A O 0.11663(8) 0.6445(2) 0.47216(11)
C59A C 0.18237(11) 0.6483(2) 0.55859(14)
N8A N 0.22724(9) 0.6329(2) 0.59409(11)
H4A H 0.24297(9) 0.6037(2) 0.58645(11)
C65A C 0.24326(11) 0.6698(2) 0.64239(14)
C63A C 0.20849(12) 0.7079(2) 0.63984(15)
C60A C 0.17003(12) 0.6951(2) 0.58696(15)
C61A C 0.12388(14) 0.7234(3) 0.5658(2)
H54A H 0.11039(14) 0.7435(3) 0.5282(2)
H55A H 0.12573(14) 0.7659(3) 0.5894(2)
C62A C 0.0942(2) 0.6611(4) 0.5649(2)
H56A H 0.0646(4) 0.6822(7) 0.5509(16)
H57A H 0.1070(7) 0.6417(16) 0.6023(3)
H58A H 0.0917(11) 0.6193(11) 0.5411(13)
C64A C 0.21122(15) 0.7542(3) 0.6851(2)
H59A H 0.2044(10) 0.7214(5) 0.7067(8)
H60A H 0.1898(8) 0.7962(11) 0.6690(2)
H61A H 0.2413(3) 0.7750(15) 0.7089(8)
C40A C 0.37261(11) 0.7286(2) 0.65588(14)
C37A C 0.34702(11) 0.7461(2) 0.67529(14)
C38A C 0.34438(13) 0.8208(2) 0.6988(2)
H29A H 0.31592(13) 0.8229(2) 0.6963(2)
H30A H 0.34442(13) 0.8632(2) 0.6763(2)
C39A C 0.3820(2) 0.8327(3) 0.7577(2)
H31A H 0.3795(7) 0.8835(8) 0.7698(5)
H32A H 0.4104(2) 0.8286(19) 0.7608(3)
H33A H 0.3806(7) 0.7937(12) 0.7808(3)
C41A C 0.40141(14) 0.7839(3) 0.6500(2)
H34A H 0.3978(8) 0.7759(12) 0.6145(6)
H35A H 0.4325(2) 0.7758(12) 0.6798(7)
H36A H 0.3927(7) 0.8363(3) 0.6518(12)
C8? C 0.4976(7) 0.6440(15) 0.8684(12)
C9? C 0.5357(9) 0.6358(15) 0.9209(10)
H8? H 0.5341(12) 0.6410(21) 0.9521(12)
C10? C 0.5762(7) 0.6199(11) 0.9277(9)
H9? H 0.6022(8) 0.6143(17) 0.9635(10)
C11? C 0.5786(7) 0.6123(9) 0.8820(11)
C12? C 0.5405(9) 0.6205(10) 0.8295(10)
H10? H 0.5422(12) 0.6152(15) 0.7983(11)
C13? C 0.5001(7) 0.6363(13) 0.8227(10)
H11? H 0.4740(9) 0.6419(18) 0.7868(11)
C68? C 0.3721(6) 0.4439(7) 0.6911(6)
H66? H 0.3632(37) 0.3945(25) 0.6720(31)
H67? H 0.4037(8) 0.4527(65) 0.7067(7)
H68? H 0.3545(29) 0.4848(43) 0.6650(25)
C71? C 0.2056(8) 0.8224(17) 0.8689(8)
H74? H 0.2137(8) 0.8594(59) 0.8507(33)
H75? H 0.1881(22) 0.8481(67) 0.8808(10)
H76? H 0.1879(23) 0.7812(20) 0.8432(26)
C72? C 0.2471(6) 0.7893(14) 0.9183(7)
H77? H 0.2591(6) 0.8236(14) 0.9504(7)
H78? H 0.2411(6) 0.7386(14) 0.9279(7)
C75? C 0.2615(11) 0.6403(18) 0.8510(16)
O3? O 0.2431(10) 0.6193(12) 0.8717(12)
C76? C 0.2646(9) 0.6003(14) 0.8097(14)
C77? C 0.2039(6) 0.4975(10) 0.7852(8)
H79? H 0.2148(6) 0.4933(10) 0.8246(8)
H80? H 0.1989(6) 0.4453(10) 0.7697(8)
C78? C 0.1616(7) 0.5422(13) 0.7551(8)
H81? H 0.1397(13) 0.5182(35) 0.7604(34)
H82? H 0.1501(18) 0.5432(48) 0.7158(10)
H83? H 0.1673(10) 0.5947(21) 0.7693(29)
C79? C 0.2381(6) 0.5392(9) 0.7790(8)
C83? C 0.2479(6) 0.5204(8) 0.7409(8)
C84? C 0.2274(6) 0.4578(7) 0.6975(7)
H89? H 0.2364(23) 0.4077(8) 0.7155(7)
H90? H 0.2376(22) 0.4634(30) 0.6728(22)
H91? H 0.1949(6) 0.4620(29) 0.6764(23)
C87? C 0.4784(13) 0.2219(23) 0.8542(16)
C88? C 0.4451(11) 0.2383(19) 0.7805(13)
C89? C 0.4992(10) 0.2664(17) 0.9078(12)
C90? C 0.5442(7) 0.2413(10) 0.9436(7)
C91? C 0.5233(5) 0.2929(9) 0.9667(6)
C92? C 0.4778(5) 0.3398(9) 0.9429(7)
C93? C 0.5214(7) 0.2169(11) 0.9385(7)
C94? C 0.6261(7) 0.4971(13) 1.1079(9)
C95? C 0.7378(5) 0.7015(11) 1.0344(9)
C96? C 0.7317(7) 0.7534(16) 0.9777(10)
C98? C 0.7048(5) 0.7133(5) 0.9890(4)
C100? C 0.6389(4) 0.4875(6) 1.0610(4)
C104? C 0.7265(5) 0.5775(9) 1.1119(6)
C106? C 0.7255(7) 0.7249(9) 0.9953(7)
C107? C 0.5479(8) 0.4603(15) 1.0376(11)
C108? C 0.5782(4) 0.5628(6) 1.0774(5)
C109? C 0.6070(7) 0.5841(12) 1.1144(9)
Cl1? Cl -0.0320(2) 0.5198(6) 0.2653(2)
Cl2? Cl 0.0000 0.5676(9) 0.2500
Cl3? Cl -0.0189(4) 0.5611(8) 0.2630(4)
Cl4? Cl -0.0282(3) 0.4778(8) 0.2676(3)
loop_
_geom_bond_atom_site_label_1
_geom_bond_atom_site_label_2
_geom_bond_site_symmetry_1
_geom_bond_site_symmetry_2
O1 C58 1_555 1_555
N1 C1 1_555 1_555
N2 H1 1_555 1_555
N3 C29 1_555 1_555
N4 H2 1_555 1_555
N5 C36 1_555 1_555
N6 H3 1_555 1_555
N7 C51 1_555 1_555
N8 H4 1_555 1_555
C1 C2 1_555 1_555
C2 C3 1_555 1_555
C3 C67 1_555 1_555
C4 C2 1_555 1_555
C5 C4 1_555 1_555
H5 C5 1_555 1_555
H6 C5 1_555 1_555
H7 C5 1_555 1_555
C6 N1 1_555 1_555
C7 C6 1_555 1_555
C14 C7 1_555 1_555
C15 C14 1_555 1_555
H12 C15 1_555 1_555
C16 C15 1_555 1_555
H13 C16 1_555 1_555
C17 C16 1_555 1_555
C18 C17 1_555 1_555
H14 C18 1_555 1_555
C19 C14 1_555 1_555
H15 C19 1_555 1_555
C20 C17 1_555 1_555
C21 N2 1_555 1_555
C22 C21 1_555 1_555
C23 C22 1_555 1_555
H16 C23 1_555 1_555
H17 C23 1_555 1_555
H18 C23 1_555 1_555
C24 C22 1_555 1_555
C25 C24 1_555 1_555
H19 C25 1_555 1_555
H20 C25 1_555 1_555
C26 C25 1_555 1_555
H21 C26 1_555 1_555
H22 C26 1_555 1_555
H23 C26 1_555 1_555
C27 N2 1_555 1_555
C28 C27 1_555 1_555
H24 C28 1_555 1_555
C29 C28 1_555 1_555
C30 C29 1_555 1_555
C31 C30 1_555 1_555
H25 C31 1_555 1_555
H26 C31 1_555 1_555
H27 C31 1_555 1_555
C32 C30 1_555 1_555
C33 N3 1_555 1_555
C34 N4 1_555 1_555
C35 C1 1_555 1_555
H28 C35 1_555 1_555
C36 C37 1_555 1_555
C37 C38 1_555 1_555
C38 H29 1_555 1_555
H30 C38 1_555 1_555
C39 C38 1_555 1_555
H31 C39 1_555 1_555
H32 C39 1_555 1_555
H33 C39 1_555 1_555
C40 C37 1_555 1_555
C41 C40 1_555 1_555
H34 C41 1_555 1_555
H35 C41 1_555 1_555
H36 C41 1_555 1_555
C42 N5 1_555 1_555
C43 N6 1_555 1_555
C44 C43 1_555 1_555
C45 C44 1_555 1_555
H37 C45 1_555 1_555
H38 C45 1_555 1_555
H39 C45 1_555 1_555
C46 C44 1_555 1_555
C47 C46 1_555 1_555
H40 C47 1_555 1_555
H41 C47 1_555 1_555
C48 C47 1_555 1_555
H42 C48 1_555 1_555
H43 C48 1_555 1_555
H44 C48 1_555 1_555
C49 N6 1_555 1_555
C50 C49 1_555 1_555
H45 C50 1_555 1_555
C51 C50 1_555 1_555
C52 C51 1_555 1_555
C53 C52 1_555 1_555
H46 C53 1_555 1_555
H47 C53 1_555 1_555
H48 C53 1_555 1_555
C54 C52 1_555 1_555
C55 C54 1_555 1_555
H49 C55 1_555 1_555
H50 C55 1_555 1_555
C56 C55 1_555 1_555
H51 C56 1_555 1_555
H52 C56 1_555 1_555
H53 C56 1_555 1_555
C57 N7 1_555 1_555
C58 C57 1_555 1_555
C59 N8 1_555 1_555
C60 C59 1_555 1_555
C61 C60 1_555 1_555
H54 C61 1_555 1_555
H55 C61 1_555 1_555
C62 C61 1_555 1_555
H56 C62 1_555 1_555
H57 C62 1_555 1_555
H58 C62 1_555 1_555
C63 C60 1_555 1_555
C64 C63 1_555 1_555
H59 C64 1_555 1_555
H60 C64 1_555 1_555
H61 C64 1_555 1_555
C65 N8 1_555 1_555
C66 C35 1_555 1_555
H62 C66 1_555 1_555
C67 H63 1_555 1_555
H64 C67 1_555 1_555
H65 C67 1_555 1_555
C69 C32 1_555 1_555
H69 C69 1_555 1_555
H70 C69 1_555 1_555
C70 C69 1_555 1_555
H71 C70 1_555 1_555
H72 C70 1_555 1_555
H73 C70 1_555 1_555
O2 C74 1_555 1_555
C73 N4 1_555 1_555
C74 C33 1_555 1_555
C80 C73 1_555 1_555
C81 C80 1_555 1_555
H84 C81 1_555 1_555
H85 C81 1_555 1_555
C82 C81 1_555 1_555
H86 C82 1_555 1_555
H87 C82 1_555 1_555
H88 C82 1_555 1_555
C85 C34 1_555 1_555
C86 C85 1_555 1_555
H92 C86 1_555 1_555
H93 C86 1_555 1_555
H94 C86 1_555 1_555
C97 C102 1_555 1_555
C99 C101 1_555 1_555
C101 C105 1_555 1_555
C103 C97 1_555 1_555
C105 C103 1_555 1_555
C36A C66 1_555 1_555
N5A C36A 1_555 1_555
C42A N5A 1_555 1_555
C20A C42A 1_555 1_555
C17A C20A 1_555 1_555
C16A C17A 1_555 1_555
C15A C16A 1_555 1_555
C14A C15A 1_555 1_555
C7A C14A 1_555 1_555
C6A C7A 1_555 1_555
N1A C6A 1_555 1_555
C1A N1A 1_555 1_555
C2A C1A 1_555 1_555
C3A C2A 1_555 1_555
C67A C3A 1_555 1_555
H63A C67A 1_555 1_555
H64A C67A 1_555 1_555
H65A C67A 1_555 1_555
C4A C6A 1_555 1_555
C5A C4A 1_555 1_555
H5A C5A 1_555 1_555
H6A C5A 1_555 1_555
H7A C5A 1_555 1_555
C35A C1A 1_555 1_555
C34A C35A 1_555 1_555
N4A C34A 1_555 1_555
H2A N4A 1_555 1_555
C73A N4A 1_555 1_555
C74A C73A 1_555 1_555
C33A C74A 1_555 1_555
N3A C33A 1_555 1_555
C29A N3A 1_555 1_555
C28A C29A 1_555 1_555
C27A C28A 1_555 1_555
N2A C27A 1_555 1_555
H1A N2A 1_555 1_555
C21A C7A 1_555 1_555
C22A C21A 1_555 1_555
C23A C22A 1_555 1_555
H16A C23A 1_555 1_555
H17A C23A 1_555 1_555
H18A C23A 1_555 1_555
C24A C27A 1_555 1_555
C25A C24A 1_555 1_555
H19A C25A 1_555 1_555
H20A C25A 1_555 1_555
C26A C25A 1_555 1_555
H21A C26A 1_555 1_555
H22A C26A 1_555 1_555
H23A C26A 1_555 1_555
H24A C28A 1_555 1_555
C30A C29A 1_555 1_555
C31A C30A 1_555 1_555
H25A C31A 1_555 1_555
H26A C31A 1_555 1_555
H27A C31A 1_555 1_555
C32A C33A 1_555 1_555
C69A C32A 1_555 1_555
H69A C69A 1_555 1_555
H70A C69A 1_555 1_555
C70A C69A 1_555 1_555
H71A C70A 1_555 1_555
H72A C70A 1_555 1_555
H73A C70A 1_555 1_555
O2A C74A 1_555 1_555
C80A C73A 1_555 1_555
C81A C80A 1_555 1_555
H84A C81A 1_555 1_555
H85A C81A 1_555 1_555
C82A C81A 1_555 1_555
H86A C82A 1_555 1_555
H87A C82A 1_555 1_555
H88A C82A 1_555 1_555
C85A C34A 1_555 1_555
C86A C85A 1_555 1_555
H92A C86A 1_555 1_555
H93A C86A 1_555 1_555
H94A C86A 1_555 1_555
H28A C35A 1_555 1_555
C66A C36 1_555 1_555
H62A C66A 1_555 1_555
C19A C14A 1_555 1_555
C18A C17A 1_555 1_555
H14A C18A 1_555 1_555
H15A C19A 1_555 1_555
H12A C15A 1_555 1_555
H13A C16A 1_555 1_555
C43A C20A 1_555 1_555
N6A C43A 1_555 1_555
H3A N6A 1_555 1_555
C49A N6A 1_555 1_555
C46A C49A 1_555 1_555
C44A C43A 1_555 1_555
C45A C44A 1_555 1_555
H37A C45A 1_555 1_555
H38A C45A 1_555 1_555
H39A C45A 1_555 1_555
C47A C46A 1_555 1_555
H40A C47A 1_555 1_555
H41A C47A 1_555 1_555
C48A C47A 1_555 1_555
H42A C48A 1_555 1_555
H43A C48A 1_555 1_555
H44A C48A 1_555 1_555
C50A C49A 1_555 1_555
H45A C50A 1_555 1_555
C51A C50A 1_555 1_555
N7A C51A 1_555 1_555
C57A N7A 1_555 1_555
C54A C57A 1_555 1_555
C52A C51A 1_555 1_555
C53A C52A 1_555 1_555
H46A C53A 1_555 1_555
H47A C53A 1_555 1_555
H48A C53A 1_555 1_555
C55A C54A 1_555 1_555
H49A C55A 1_555 1_555
H50A C55A 1_555 1_555
C56A C55A 1_555 1_555
H51A C56A 1_555 1_555
H52A C56A 1_555 1_555
H53A C56A 1_555 1_555
C58A C57A 1_555 1_555
O1A C58A 1_555 1_555
C59A C58A 1_555 1_555
N8A C59A 1_555 1_555
H4A N8A 1_555 1_555
C65A C66 1_555 1_555
C63A C65A 1_555 1_555
C60A C59A 1_555 1_555
C61A C60A 1_555 1_555
H54A C61A 1_555 1_555
H55A C61A 1_555 1_555
C62A C61A 1_555 1_555
H56A C62A 1_555 1_555
H57A C62A 1_555 1_555
H58A C62A 1_555 1_555
C64A C63A 1_555 1_555
H59A C64A 1_555 1_555
H60A C64A 1_555 1_555
H61A C64A 1_555 1_555
C40A C42A 1_555 1_555
C37A C36A 1_555 1_555
C38A C37A 1_555 1_555
H29A C38A 1_555 1_555
H30A C38A 1_555 1_555
C39A C38A 1_555 1_555
H31A C39A 1_555 1_555
H32A C39A 1_555 1_555
H33A C39A 1_555 1_555
C41A C40A 1_555 1_555
H34A C41A 1_555 1_555
H35A C41A 1_555 1_555
H36A C41A 1_555 1_555
C4 C6 1_555 1_555
C7 C21 1_555 1_555
C18 C19 1_555 1_555
C20 C43 1_555 1_555
C20 C42 1_555 1_555
C24 C27 1_555 1_555
C32 C33 1_555 1_555
C34 C35 1_555 1_555
C40 C42 1_555 1_555
C46 C49 1_555 1_555
C54 C57 1_555 1_555
C58 C59 1_555 1_555
C63 C65 1_555 1_555
C65 C66A 1_555 1_555
C73 C74 1_555 1_555
C80 C85 1_555 1_555
C2A C4A 1_555 1_555
C35A C66A 1_555 1_555
N2A C21A 1_555 1_555
C22A C24A 1_555 1_555
C30A C32A 1_555 1_555
C80A C85A 1_555 1_555
C19A C18A 1_555 1_555
C46A C44A 1_555 1_555
C54A C52A 1_555 1_555
N8A C65A 1_555 1_555
C63A C60A 1_555 1_555
C40A C37A 1_555 1_555

#END
