
#######################################################################
#
#                 Cambridge Crystallographic Data Centre
#                                CCDC 
#
#######################################################################
#
# If this CIF has been generated from an entry in the Cambridge 
# Structural Database, then it will include bibliographic, chemical, 
# crystal, experimental, refinement or atomic coordinate data resulting 
# from the CCDC's data processing and validation procedures.
#
#######################################################################

data_TIFCOC
_chemical_formula_moiety         'C14 N4 O2 S4'
_chemical_name_systematic        
2,2'-(4,8-Dioxo-4,8-dihydro[1,3]dithiolo[4,5-f][1,3]benzodithiole-2,6-diylidene)dimalononitrile
_symmetry_cell_setting           triclinic
_symmetry_space_group_name_H-M   'P -1'
_symmetry_Int_Tables_number      2
_space_group_name_Hall           '-P 1'
loop_
_symmetry_equiv_pos_site_id
_symmetry_equiv_pos_as_xyz
1 x,y,z
2 -x,-y,-z
_cell_length_a                   6.8165(14)
_cell_length_b                   7.6074(15)
_cell_length_c                   8.0880(16)
_cell_angle_alpha                74.62(3)
_cell_angle_beta                 72.21(3)
_cell_angle_gamma                72.70(3)
_cell_volume                     374.21
_exptl_crystal_colour            black
_exptl_crystal_description       block
_cell_formula_units_Z            1
loop_
_atom_site_label
_atom_site_type_symbol
_atom_site_fract_x
_atom_site_fract_y
_atom_site_fract_z
O1 O 0.4390(4) -0.8235(4) 0.7636(3)
S1 S 0.64730(15) -1.23584(13) 0.84111(12)
S2 S 0.28962(15) -0.56783(12) 0.44653(12)
C1 C 0.4678(5) -0.9027(5) 0.6439(5)
C2 C 0.5639(5) -1.1048(5) 0.6547(4)
C3 C 0.4065(5) -0.8048(5) 0.4768(4)
C4 C 0.1861(5) -0.3886(5) 0.1342(4)
C5 C 0.2679(5) -0.5554(5) 0.2355(4)
C6 C 0.1059(6) -0.2211(6) 0.2022(5)
C7 C 0.1828(6) -0.3831(5) -0.0419(5)
N1 N 0.0387(6) -0.0894(5) 0.2631(6)
N2 N 0.1856(5) -0.3833(5) -0.1846(5)
O1A O 0.5610(4) -1.1765(4) 0.2364(3)
S1A S 0.35270(15) -0.76416(13) 0.15889(12)
S2A S 0.71038(15) -1.43217(12) 0.55347(12)
C1A C 0.5322(5) -1.0973(5) 0.3561(5)
C2A C 0.4361(5) -0.8952(5) 0.3453(4)
C3A C 0.5935(5) -1.1952(5) 0.5232(4)
C4A C 0.8139(5) -1.6114(5) 0.8658(4)
C5A C 0.7321(5) -1.4446(5) 0.7645(4)
C6A C 0.8941(6) -1.7789(6) 0.7978(5)
C7A C 0.8172(6) -1.6169(5) 1.0419(5)
N1A N 0.9613(6) -1.9106(5) 0.7369(6)
N2A N 0.8144(5) -1.6167(5) 1.1846(5)
loop_
_geom_bond_atom_site_label_1
_geom_bond_atom_site_label_2
_geom_bond_site_symmetry_1
_geom_bond_site_symmetry_2
O1 C1 1_555 1_555
S1 C2 1_555 1_555
S2 C3 1_555 1_555
C1 C2 1_555 1_555
C2 C3A 1_555 1_555
C3 C1 1_555 1_555
C4 C5 1_555 1_555
C5 S2 1_555 1_555
C6 C4 1_555 1_555
C7 C4 1_555 1_555
N1 C6 1_555 1_555
N2 C7 1_555 1_555
O1A C1A 1_555 1_555
S1A C5 1_555 1_555
S2A C3A 1_555 1_555
C1A C2A 1_555 1_555
C2A C3 1_555 1_555
C3A C1A 1_555 1_555
C4A C5A 1_555 1_555
C5A S1 1_555 1_555
C6A C4A 1_555 1_555
C7A C4A 1_555 1_555
N1A C6A 1_555 1_555
N2A C7A 1_555 1_555
S1A C2A 1_555 1_555
S2A C5A 1_555 1_555

#END
