
#######################################################################
#
#                 Cambridge Crystallographic Data Centre
#                                CCDC 
#
#######################################################################
#
# If this CIF has been generated from an entry in the Cambridge 
# Structural Database, then it will include bibliographic, chemical, 
# crystal, experimental, refinement or atomic coordinate data resulting 
# from the CCDC's data processing and validation procedures.
#
#######################################################################

data_TIFGAR
_chemical_formula_moiety         'C19 H21 N1 O4'
_chemical_name_systematic        
'cis-Ethyl 3-(4-methoxyphenyl)-4-phenyloxazolidine-5-carboxylate'
_symmetry_cell_setting           triclinic
_symmetry_space_group_name_H-M   'P -1'
_symmetry_Int_Tables_number      2
_space_group_name_Hall           '-P 1'
loop_
_symmetry_equiv_pos_site_id
_symmetry_equiv_pos_as_xyz
1 x,y,z
2 -x,-y,-z
_cell_length_a                   5.7192(14)
_cell_length_b                   10.136(3)
_cell_length_c                   14.908(4)
_cell_angle_alpha                92.603(15)
_cell_angle_beta                 97.247(14)
_cell_angle_gamma                105.463(14)
_cell_volume                     823.449
_exptl_crystal_colour            colorless
_exptl_crystal_description       needle
_chemical_melting_point          '78-78.5 deg.C'
_cell_formula_units_Z            2
_exptl_crystal_recrystallization_method 'hexane/ethyl acetate'
loop_
_atom_site_label
_atom_site_type_symbol
_atom_site_fract_x
_atom_site_fract_y
_atom_site_fract_z
N1 N 0.8971(7) 0.5603(4) 0.2305(3)
C1 C 0.9152(8) 0.4496(5) 0.1676(3)
H1 H 1.0858 0.4691 0.1523
C2 C 0.7381(8) 0.4668(5) 0.0837(3)
H2 H 0.8329 0.5324 0.0446
O1 O 0.5714(5) 0.5287(3) 0.1221(2)
C3 C 0.7255(9) 0.6292(5) 0.1867(3)
H3 H 0.6314 0.6594 0.2311
H4 H 0.8124 0.7100 0.1574
C4 C 1.0914(9) 0.6295(6) 0.2967(3)
C5 C 1.1116(11) 0.7610(6) 0.3341(4)
H5 H 0.9932 0.8070 0.3129
C6 C 1.3009(13) 0.8254(6) 0.4014(4)
H6 H 1.3116 0.9158 0.4250
C7 C 1.4774(12) 0.7619(8) 0.4358(4)
C8 C 1.4561(10) 0.6328(9) 0.3985(4)
H7 H 1.5753 0.5877 0.4201
C9 C 1.2691(9) 0.5651(7) 0.3309(4)
H8 H 1.2607 0.4750 0.3074
O2 O 1.6587(9) 0.8357(5) 0.5009(3)
C10 C 1.8197(12) 0.7644(12) 0.5454(5)
H9 H 1.7262 0.6925 0.5790
H10 H 1.9487 0.8293 0.5877
H11 H 1.8941 0.7227 0.5001
C11 C 0.8449(8) 0.3104(5) 0.2054(3)
C12 C 0.9611(8) 0.2112(6) 0.1844(3)
H12 H 1.0882 0.2318 0.1476
C13 C 0.8939(9) 0.0832(6) 0.2165(3)
H13 H 0.9778 0.0172 0.2031
C14 C 0.7061(8) 0.0504(5) 0.2680(3)
H14 H 0.6573 -0.0391 0.2882
C15 C 0.5888(8) 0.1472(5) 0.2901(3)
H15 H 0.4619 0.1255 0.3270
C16 C 0.6575(8) 0.2768(5) 0.2582(3)
H16 H 0.5752 0.3431 0.2728
C17 C 0.6001(8) 0.3377(5) 0.0271(3)
O3 O 0.3921(5) 0.2740(3) 0.0302(2)
O4 O 0.7499(5) 0.3031(3) -0.0263(2)
C18 C 0.6548(9) 0.1798(5) -0.0871(3)
H17 H 0.6907 0.2000 -0.1491
H18 H 0.4748 0.1466 -0.0894
C19 C 0.7717(8) 0.0708(5) -0.0543(3)
H19 H 0.9502 0.1055 -0.0499
H20 H 0.7132 -0.0111 -0.0972
H21 H 0.7276 0.0472 0.0055
loop_
_geom_bond_atom_site_label_1
_geom_bond_atom_site_label_2
_geom_bond_site_symmetry_1
_geom_bond_site_symmetry_2
N1 C1 1_555 1_555
C1 H1 1_555 1_555
C2 C1 1_555 1_555
H2 C2 1_555 1_555
O1 C2 1_555 1_555
C3 N1 1_555 1_555
H3 C3 1_555 1_555
H4 C3 1_555 1_555
C4 N1 1_555 1_555
C5 C4 1_555 1_555
H5 C5 1_555 1_555
C6 C5 1_555 1_555
H6 C6 1_555 1_555
C7 C6 1_555 1_555
C8 C7 1_555 1_555
H7 C8 1_555 1_555
C9 C4 1_555 1_555
H8 C9 1_555 1_555
O2 C7 1_555 1_555
C10 O2 1_555 1_555
H9 C10 1_555 1_555
H10 C10 1_555 1_555
H11 C10 1_555 1_555
C11 C1 1_555 1_555
C12 C11 1_555 1_555
H12 C12 1_555 1_555
C13 C12 1_555 1_555
H13 C13 1_555 1_555
C14 C13 1_555 1_555
H14 C14 1_555 1_555
C15 C14 1_555 1_555
H15 C15 1_555 1_555
C16 C11 1_555 1_555
H16 C16 1_555 1_555
C17 C2 1_555 1_555
O3 C17 1_555 1_555
O4 C17 1_555 1_555
C18 O4 1_555 1_555
H17 C18 1_555 1_555
H18 C18 1_555 1_555
C19 C18 1_555 1_555
H19 C19 1_555 1_555
H20 C19 1_555 1_555
H21 C19 1_555 1_555
O1 C3 1_555 1_555
C8 C9 1_555 1_555
C15 C16 1_555 1_555

#END
