
#######################################################################
#
#                 Cambridge Crystallographic Data Centre
#                                CCDC 
#
#######################################################################
#
# If this CIF has been generated from an entry in the Cambridge 
# Structural Database, then it will include bibliographic, chemical, 
# crystal, experimental, refinement or atomic coordinate data resulting 
# from the CCDC's data processing and validation procedures.
#
#######################################################################

data_TIFJIC
_chemical_formula_moiety         'C29 H31 N1 O4'
_chemical_name_systematic        
(4S)-5,5-Diphenyl-4-isopropyl-3-((2R,3R)-3-phenyl-3-hydroxy-2-methyl-1-oxobutyl)oxazolidin-2-one
_symmetry_cell_setting           orthorhombic
_symmetry_space_group_name_H-M   'P 21 21 2'
_symmetry_Int_Tables_number      18
_space_group_name_Hall           'P 2 2ab'
loop_
_symmetry_equiv_pos_site_id
_symmetry_equiv_pos_as_xyz
1 x,y,z
2 -x,-y,z
3 1/2-x,1/2+y,-z
4 1/2+x,1/2-y,-z
_cell_length_a                   16.7882(18)
_cell_length_b                   23.271(2)
_cell_length_c                   6.4644(7)
_cell_angle_alpha                90
_cell_angle_beta                 90
_cell_angle_gamma                90
_cell_volume                     2525.5
_exptl_crystal_colour            colorless
_chemical_melting_point          '192-194 deg.C'
_cell_formula_units_Z            4
loop_
_atom_site_label
_atom_site_type_symbol
_atom_site_fract_x
_atom_site_fract_y
_atom_site_fract_z
N1 N 0.73263(13) 0.34514(10) 0.2614(4)
O1 O 0.82525(12) 0.38394(9) 0.4636(3)
O2 O 0.69903(14) 0.39742(13) 0.5592(4)
O3 O 0.66520(14) 0.31506(10) -0.0191(4)
O4 O 0.49961(19) 0.32120(17) 0.0130(7)
H1 H 0.5407 0.3131 -0.0489
C1 C 0.74552(18) 0.37819(14) 0.4393(5)
C2 C 0.86404(16) 0.36817(12) 0.2680(4)
C3 C 0.80918(16) 0.32015(12) 0.1914(5)
H2 H 0.8104 0.3187 0.0399
C4 C 0.66369(18) 0.34360(14) 0.1374(5)
C5 C 0.5929(2) 0.38127(18) 0.1908(7)
H3 H 0.6033 0.4007 0.3225
C6 C 0.5192(2) 0.34533(19) 0.2117(8)
C7 C 0.4486(2) 0.3844(2) 0.2684(8)
C8 C 0.3837(2) 0.3891(2) 0.1438(8)
H4 H 0.3839 0.3715 0.0148
C9 C 0.3190(3) 0.4191(3) 0.2043(11)
H5 H 0.2743 0.4196 0.1195
C10 C 0.3173(3) 0.4480(3) 0.3827(11)
H6 H 0.2726 0.4692 0.4195
C11 C 0.3832(4) 0.4460(4) 0.5129(12)
H7 H 0.3838 0.4664 0.6367
C12 C 0.4469(4) 0.4134(4) 0.4540(11)
H8 H 0.4906 0.4108 0.5420
C13 C 0.86342(16) 0.42331(12) 0.1366(5)
C14 C 0.8306(3) 0.42716(15) -0.0561(5)
H9 H 0.8083 0.3946 -0.1163
C15 C 0.8299(4) 0.47867(17) -0.1638(6)
H10 H 0.8066 0.4809 -0.2941
C16 C 0.8643(3) 0.52678(17) -0.0753(8)
H11 H 0.8660 0.5612 -0.1481
C17 C 0.8956(3) 0.52352(15) 0.1188(9)
H12 H 0.9171 0.5561 0.1807
C18 C 0.8954(2) 0.47234(13) 0.2227(7)
H13 H 0.9174 0.4706 0.3545
C19 C 0.95015(17) 0.35137(13) 0.3091(5)
C20 C 0.9870(2) 0.36167(14) 0.4979(5)
H14 H 0.9580 0.3767 0.6080
C21 C 1.0675(2) 0.34920(17) 0.5208(7)
H15 H 1.0927 0.3565 0.6463
C22 C 1.1103(2) 0.32616(15) 0.3588(8)
H16 H 1.1643 0.3183 0.3748
C23 C 1.0737(2) 0.31486(16) 0.1754(7)
H17 H 1.1026 0.2985 0.0676
C24 C 0.99397(19) 0.32753(14) 0.1480(5)
H18 H 0.9696 0.3201 0.0217
C25 C 0.82367(19) 0.25952(13) 0.2804(6)
H19 H 0.8778 0.2483 0.2404
C26 C 0.8193(2) 0.25565(18) 0.5153(7)
H20 H 0.8287 0.2167 0.5578
H21 H 0.7675 0.2676 0.5610
H22 H 0.8590 0.2802 0.5752
C27 C 0.7671(2) 0.21623(13) 0.1827(8)
H23 H 0.7703 0.2190 0.0348
H24 H 0.7136 0.2242 0.2266
H25 H 0.7817 0.1781 0.2252
C28 C 0.5820(3) 0.42910(19) 0.0108(7)
H26 H 0.6296 0.4518 0.0005
H27 H 0.5378 0.4536 0.0442
H28 H 0.5721 0.4103 -0.1188
C29 C 0.5377(3) 0.3018(2) 0.3800(11)
H29 H 0.5818 0.2783 0.3375
H30 H 0.4919 0.2780 0.4034
H31 H 0.5512 0.3216 0.5055
loop_
_geom_bond_atom_site_label_1
_geom_bond_atom_site_label_2
_geom_bond_site_symmetry_1
_geom_bond_site_symmetry_2
N1 C1 1_555 1_555
O1 C1 1_555 1_555
O2 C1 1_555 1_555
O3 C4 1_555 1_555
O4 H1 1_555 1_555
C2 O1 1_555 1_555
C3 N1 1_555 1_555
H2 C3 1_555 1_555
C4 N1 1_555 1_555
C5 C4 1_555 1_555
H3 C5 1_555 1_555
C6 O4 1_555 1_555
C7 C6 1_555 1_555
C8 C7 1_555 1_555
H4 C8 1_555 1_555
C9 C8 1_555 1_555
H5 C9 1_555 1_555
C10 C9 1_555 1_555
H6 C10 1_555 1_555
C11 C10 1_555 1_555
H7 C11 1_555 1_555
C12 C7 1_555 1_555
H8 C12 1_555 1_555
C13 C2 1_555 1_555
C14 C13 1_555 1_555
H9 C14 1_555 1_555
C15 C14 1_555 1_555
H10 C15 1_555 1_555
C16 C15 1_555 1_555
H11 C16 1_555 1_555
C17 C16 1_555 1_555
H12 C17 1_555 1_555
C18 C13 1_555 1_555
H13 C18 1_555 1_555
C19 C2 1_555 1_555
C20 C19 1_555 1_555
H14 C20 1_555 1_555
C21 C20 1_555 1_555
H15 C21 1_555 1_555
C22 C21 1_555 1_555
H16 C22 1_555 1_555
C23 C22 1_555 1_555
H17 C23 1_555 1_555
C24 C19 1_555 1_555
H18 C24 1_555 1_555
C25 C3 1_555 1_555
H19 C25 1_555 1_555
C26 C25 1_555 1_555
H20 C26 1_555 1_555
H21 C26 1_555 1_555
H22 C26 1_555 1_555
C27 C25 1_555 1_555
H23 C27 1_555 1_555
H24 C27 1_555 1_555
H25 C27 1_555 1_555
C28 C5 1_555 1_555
H26 C28 1_555 1_555
H27 C28 1_555 1_555
H28 C28 1_555 1_555
C29 C6 1_555 1_555
H29 C29 1_555 1_555
H30 C29 1_555 1_555
H31 C29 1_555 1_555
C2 C3 1_555 1_555
C5 C6 1_555 1_555
C11 C12 1_555 1_555
C17 C18 1_555 1_555
C23 C24 1_555 1_555

#END
