
#######################################################################
#
#                 Cambridge Crystallographic Data Centre
#                                CCDC 
#
#######################################################################
#
# If this CIF has been generated from an entry in the Cambridge 
# Structural Database, then it will include bibliographic, chemical, 
# crystal, experimental, refinement or atomic coordinate data resulting 
# from the CCDC's data processing and validation procedures.
#
#######################################################################

data_TIFJAU
_chemical_formula_moiety         'C21 H20 Cl1 F2 N1 O4'
_chemical_name_systematic        
(4S)-4-Benzyl-3-((2R,3R)-4-chloro-3-(2,4-difluorophenyl)-3-hydroxy-2-methyl-1-oxobutyl)oxazolidin-2-one
_symmetry_cell_setting           monoclinic
_symmetry_space_group_name_H-M   'P 21'
_symmetry_Int_Tables_number      4
_space_group_name_Hall           'P 2yb'
loop_
_symmetry_equiv_pos_site_id
_symmetry_equiv_pos_as_xyz
1 x,y,z
2 -x,1/2+y,-z
_cell_length_a                   14.486(3)
_cell_length_b                   7.0875(13)
_cell_length_c                   20.257(4)
_cell_angle_alpha                90
_cell_angle_beta                 97.275(4)
_cell_angle_gamma                90
_cell_volume                     2063.03
_exptl_crystal_colour            colorless
_chemical_melting_point          '108-110 deg.C'
_cell_formula_units_Z            4
loop_
_atom_site_label
_atom_site_type_symbol
_atom_site_fract_x
_atom_site_fract_y
_atom_site_fract_z
Cl1 Cl -0.17181(9) -0.87745(19) -0.30226(8)
F1 F -0.20598(19) -1.1031(5) -0.46306(13)
F2 F 0.0739(2) -1.4328(6) -0.43028(19)
O1 O -0.25818(18) -1.2776(5) -0.27106(14)
H1 H -0.2141 -1.2280 -0.2481
O2 O -0.44540(18) -1.2010(5) -0.30205(15)
O3 O -0.4710(2) -1.3196(6) -0.50694(16)
O4 O -0.6201(2) -1.3486(5) -0.49043(15)
N1 N -0.5194(2) -1.2727(5) -0.40217(16)
C1 C -0.1480(3) -1.2174(7) -0.4224(2)
C2 C -0.0656(3) -1.2661(9) -0.4470(3)
H3 H -0.0512 -1.2223 -0.4878
C3 C -0.0074(4) -1.3820(10) -0.4076(3)
C4 C -0.0262(3) -1.4460(8) -0.3486(3)
H4 H 0.0149 -1.5268 -0.3235
C5 C -0.1090(3) -1.3892(7) -0.3253(2)
H5 H -0.1222 -1.4310 -0.2839
C6 C -0.1715(3) -1.2717(6) -0.3630(2)
C7 C -0.2629(3) -1.2103(6) -0.3372(2)
C8 C -0.3466(3) -1.3043(6) -0.3815(2)
H6 H -0.3463 -1.2612 -0.4274
C9 C -0.4388(3) -1.2485(6) -0.3587(2)
C10 C -0.5277(3) -1.3120(7) -0.4695(2)
C11 C -0.6708(3) -1.3541(8) -0.4332(2)
H7 H -0.6794 -1.4833 -0.4195
H8 H -0.7314 -1.2954 -0.4435
C12 C -0.6117(3) -1.2456(7) -0.3788(2)
H9 H -0.6130 -1.3080 -0.3358
C13 C -0.6365(3) -1.0396(7) -0.3739(2)
H10 H -0.6369 -0.9801 -0.4170
H11 H -0.5900 -0.9769 -0.3428
C14 C -0.7314(3) -1.0176(6) -0.3506(2)
C15 C -0.8063(3) -0.9461(8) -0.3917(2)
H12 H -0.7981 -0.9027 -0.4339
C16 C -0.8940(3) -0.9380(9) -0.3706(3)
H13 H -0.9439 -0.8903 -0.3991
C17 C -0.9074(4) -0.9983(8) -0.3096(3)
H14 H -0.9663 -0.9936 -0.2959
C18 C -0.8328(4) -1.0671(8) -0.2677(3)
H15 H -0.8413 -1.1088 -0.2254
C19 C -0.7450(3) -1.0748(7) -0.2881(2)
H16 H -0.6949 -1.1192 -0.2590
C20 C -0.2741(3) -0.9970(6) -0.3390(2)
H17 H -0.3259 -0.9622 -0.3156
H18 H -0.2887 -0.9565 -0.3849
C21 C -0.3405(3) -1.5203(7) -0.3805(3)
H19 H -0.3927 -1.5719 -0.4086
H20 H -0.3410 -1.5650 -0.3359
H21 H -0.2839 -1.5593 -0.3966
Cl2 Cl -0.62396(10) -0.1892(2) -0.07454(9)
F3 F -0.62927(19) -0.7217(4) -0.04405(13)
F4 F -0.9299(2) -0.7854(5) -0.15573(19)
O5 O -0.56743(19) -0.3722(5) -0.20392(15)
H2 H -0.5141 -0.3533 -0.2119
O6 O -0.37919(19) -0.4266(5) -0.17188(16)
O7 O -0.3888(2) -0.9632(5) -0.08233(19)
O8 O -0.2352(2) -0.9428(5) -0.08844(16)
N2 N -0.3219(2) -0.6947(5) -0.12528(17)
C22 C -0.6906(3) -0.6810(7) -0.0987(2)
C23 C -0.7794(4) -0.7544(7) -0.0994(3)
H22 H -0.7957 -0.8270 -0.0644
C24 C -0.8408(3) -0.7159(8) -0.1529(4)
C25 C -0.8212(3) -0.6106(8) -0.2050(3)
H23 H -0.8659 -0.5868 -0.2412
C26 C -0.7300(3) -0.5383(7) -0.2021(2)
H24 H -0.7144 -0.4660 -0.2373
C27 C -0.6630(3) -0.5719(7) -0.1482(2)
C28 C -0.5653(3) -0.4872(6) -0.1462(2)
C29 C -0.4947(3) -0.6515(6) -0.1475(2)
H25 H -0.4961 -0.7288 -0.1075
C30 C -0.3962(3) -0.5772(7) -0.1484(2)
C31 C -0.3246(4) -0.8734(7) -0.0977(2)
C32 C -0.1756(3) -0.8204(7) -0.1203(2)
H26 H -0.1657 -0.8704 -0.1634
H27 H -0.1157 -0.8074 -0.0932
C33 C -0.2249(3) -0.6315(6) -0.1281(2)
H28 H -0.2188 -0.5772 -0.1718
C34 C -0.1926(3) -0.4900(7) -0.0732(2)
H29 H -0.2359 -0.3853 -0.0752
H30 H -0.1914 -0.5502 -0.0301
C35 C -0.0966(3) -0.4175(6) -0.0813(2)
C36 C -0.0175(3) -0.4727(7) -0.0405(2)
H31 H -0.0226 -0.5541 -0.0051
C37 C 0.0696(3) -0.4078(8) -0.0519(3)
H32 H 0.1223 -0.4475 -0.0243
C38 C 0.0787(3) -0.2878(8) -0.1023(3)
H33 H 0.1376 -0.2479 -0.1098
C39 C 0.0005(4) -0.2232(8) -0.1434(2)
H34 H 0.0062 -0.1371 -0.1773
C40 C -0.0860(3) -0.2909(7) -0.1323(2)
H35 H -0.1385 -0.2504 -0.1598
C41 C -0.5394(3) -0.3681(7) -0.0839(2)
H36 H -0.4795 -0.3091 -0.0862
H37 H -0.5335 -0.4496 -0.0451
C42 C -0.5172(3) -0.7790(8) -0.2097(3)
H38 H -0.4725 -0.8793 -0.2081
H39 H -0.5147 -0.7053 -0.2491
H40 H -0.5785 -0.8313 -0.2102
loop_
_geom_bond_atom_site_label_1
_geom_bond_atom_site_label_2
_geom_bond_site_symmetry_1
_geom_bond_site_symmetry_2
Cl1 C20 1_555 1_555
Cl2 C41 1_555 1_555
F1 C1 1_555 1_555
F2 C3 1_555 1_555
F3 C22 1_555 1_555
F4 C24 1_555 1_555
O1 H1 1_555 1_555
O2 C9 1_555 1_555
O3 C10 1_555 1_555
O4 C10 1_555 1_555
O5 H2 1_555 1_555
O6 C30 1_555 1_555
O7 C31 1_555 1_555
O8 C31 1_555 1_555
N1 C9 1_555 1_555
N2 C30 1_555 1_555
C1 C2 1_555 1_555
C2 H3 1_555 1_555
C3 C2 1_555 1_555
C4 C3 1_555 1_555
H4 C4 1_555 1_555
C5 C4 1_555 1_555
H5 C5 1_555 1_555
C6 C1 1_555 1_555
C7 O1 1_555 1_555
C8 C7 1_555 1_555
H6 C8 1_555 1_555
C9 C8 1_555 1_555
C10 N1 1_555 1_555
C11 O4 1_555 1_555
H7 C11 1_555 1_555
H8 C11 1_555 1_555
C12 N1 1_555 1_555
H9 C12 1_555 1_555
C13 C12 1_555 1_555
H10 C13 1_555 1_555
H11 C13 1_555 1_555
C14 C13 1_555 1_555
C15 C14 1_555 1_555
H12 C15 1_555 1_555
C16 C15 1_555 1_555
H13 C16 1_555 1_555
C17 C16 1_555 1_555
H14 C17 1_555 1_555
C18 C17 1_555 1_555
H15 C18 1_555 1_555
C19 C14 1_555 1_555
H16 C19 1_555 1_555
C20 C7 1_555 1_555
H17 C20 1_555 1_555
H18 C20 1_555 1_555
C21 C8 1_555 1_555
H19 C21 1_555 1_555
H20 C21 1_555 1_555
H21 C21 1_555 1_555
C22 C23 1_555 1_555
C23 H22 1_555 1_555
C24 C23 1_555 1_555
C25 C24 1_555 1_555
H23 C25 1_555 1_555
C26 C25 1_555 1_555
H24 C26 1_555 1_555
C27 C22 1_555 1_555
C28 O5 1_555 1_555
C29 C28 1_555 1_555
H25 C29 1_555 1_555
C30 C29 1_555 1_555
C31 N2 1_555 1_555
C32 O8 1_555 1_555
H26 C32 1_555 1_555
H27 C32 1_555 1_555
C33 N2 1_555 1_555
H28 C33 1_555 1_555
C34 C33 1_555 1_555
H29 C34 1_555 1_555
H30 C34 1_555 1_555
C35 C34 1_555 1_555
C36 C35 1_555 1_555
H31 C36 1_555 1_555
C37 C36 1_555 1_555
H32 C37 1_555 1_555
C38 C37 1_555 1_555
H33 C38 1_555 1_555
C39 C38 1_555 1_555
H34 C39 1_555 1_555
C40 C35 1_555 1_555
H35 C40 1_555 1_555
C41 C28 1_555 1_555
H36 C41 1_555 1_555
H37 C41 1_555 1_555
C42 C29 1_555 1_555
H38 C42 1_555 1_555
H39 C42 1_555 1_555
H40 C42 1_555 1_555
C5 C6 1_555 1_555
C6 C7 1_555 1_555
C11 C12 1_555 1_555
C18 C19 1_555 1_555
C26 C27 1_555 1_555
C27 C28 1_555 1_555
C32 C33 1_555 1_555
C39 C40 1_555 1_555

#END
