
#######################################################################
#
#                 Cambridge Crystallographic Data Centre
#                                CCDC 
#
#######################################################################
#
# If this CIF has been generated from an entry in the Cambridge 
# Structural Database, then it will include bibliographic, chemical, 
# crystal, experimental, refinement or atomic coordinate data resulting 
# from the CCDC's data processing and validation procedures.
#
#######################################################################

data_TIFKUP
_chemical_compound_source        
'seeds of Chukrasia tabularis A. Juss (Meliaceae)'
_chemical_formula_moiety         'C41 H48 O20,C4 H8 O2'
_chemical_name_systematic        'Tabularisin A ethyl acetate solvate'
_chemical_properties_biological  
'Chukrasia tabularis has been used traditionally as an astringent, an anti-diarrhoeal and an anti-influenza agent'
_symmetry_cell_setting           monoclinic
_symmetry_space_group_name_H-M   'P 21'
_symmetry_Int_Tables_number      4
_space_group_name_Hall           'P 2yb'
loop_
_symmetry_equiv_pos_site_id
_symmetry_equiv_pos_as_xyz
1 x,y,z
2 -x,1/2+y,-z
_cell_length_a                   10.6313(18)
_cell_length_b                   17.126(3)
_cell_length_c                   12.745(2)
_cell_angle_alpha                90
_cell_angle_beta                 95.153(3)
_cell_angle_gamma                90
_cell_volume                     2311.12
_exptl_crystal_colour            colorless
_exptl_crystal_description       prismatic
_chemical_melting_point          '292-294 deg.C(dec.)'
_cell_formula_units_Z            2
_exptl_crystal_recrystallization_method 'cyclohexane/ethyl acetate'
loop_
_atom_site_label
_atom_site_type_symbol
_atom_site_fract_x
_atom_site_fract_y
_atom_site_fract_z
O1 O 0.2442(3) 0.6392(3) 0.7609(3)
O2 O 0.4269(3) 0.66797(19) 0.8435(2)
O3 O 0.7367(4) 0.6420(4) 1.0871(3)
O4 O 0.5909(2) 0.70203(17) 0.4682(2)
O5 O 0.7380(3) 0.79281(17) 0.4646(2)
O6 O 0.7884(3) 0.68260(17) 0.5535(2)
O7 O 0.6535(3) 0.9478(2) 0.4150(3)
H1 H 0.6955 0.9098 0.4006
O8 O 0.3971(4) 0.9474(2) 0.4357(3)
O9 O 0.2149(4) 0.9719(2) 0.7012(4)
O10 O 0.3769(3) 0.88954(16) 0.6907(2)
O11 O 0.6302(4) 0.8773(2) 0.9272(3)
O12 O 0.7285(3) 0.9911(2) 0.9613(3)
O13 O 0.8050(3) 1.00712(18) 0.7767(2)
O14 O 0.9823(3) 0.9733(2) 0.8762(3)
O15 O 0.8222(3) 0.65719(18) 0.7766(2)
O16 O 0.9525(4) 0.7458(4) 0.8584(4)
O17 O 0.1482(3) 0.7685(2) 0.5961(3)
O18 O 0.3004(3) 0.68202(17) 0.5743(2)
O19 O 0.3013(4) 0.7403(3) 0.3447(3)
O20 O 0.4742(3) 0.81370(18) 0.3784(2)
C1 C 0.6129(4) 0.9386(3) 0.5172(4)
C2 C 0.4747(4) 0.9070(3) 0.5148(3)
C3 C 0.4333(4) 0.9410(2) 0.6193(4)
H2 H 0.3722 0.9827 0.6005
C4 C 0.5531(4) 0.9800(2) 0.6742(4)
C5 C 0.6500(4) 0.9131(2) 0.7048(3)
H3 H 0.6018 0.8683 0.7274
C6 C 0.7501(4) 0.9327(2) 0.7949(3)
H4 H 0.8170 0.8932 0.7955
C7 C 0.6947(5) 0.9302(3) 0.9017(4)
C8 C 0.5594(4) 0.7596(2) 0.5458(3)
C9 C 0.6924(4) 0.8022(2) 0.5686(3)
C10 C 0.7020(4) 0.8902(2) 0.5954(3)
C11 C 0.7818(4) 0.7455(2) 0.6300(3)
H5 H 0.8652 0.7699 0.6418
C12 C 0.7405(4) 0.7193(2) 0.7349(3)
H6 H 0.7519 0.7636 0.7836
C13 C 0.6049(4) 0.6920(2) 0.7352(3)
C14 C 0.5140(3) 0.7108(2) 0.6396(3)
C15 C 0.3774(3) 0.7159(2) 0.6613(3)
H7 H 0.3541 0.7709 0.6687
C16 C 0.3427(4) 0.6706(3) 0.7576(3)
C17 C 0.5542(4) 0.7005(2) 0.8427(3)
H8 H 0.5503 0.7562 0.8593
C18 C 0.5653(4) 0.6283(2) 0.6605(3)
H9 H 0.5076 0.5892 0.6834
H10 H 0.6270 0.6087 0.6155
C19 C 0.8408(4) 0.9155(3) 0.5882(4)
H11 H 0.8933 0.8927 0.6454
H12 H 0.8467 0.9714 0.5923
H13 H 0.8685 0.8981 0.5225
C20 C 0.6283(4) 0.6605(3) 0.9320(3)
C21 C 0.6777(5) 0.6943(4) 1.0221(4)
H14 H 0.6715 0.7472 1.0372
C22 C 0.6611(5) 0.5796(3) 0.9428(4)
H15 H 0.6418 0.5400 0.8941
C23 C 0.7255(5) 0.5730(4) 1.0382(5)
H16 H 0.7582 0.5264 1.0664
C24 C 0.5210(5) 1.0363(3) 0.7601(4)
H17 H 0.4628 1.0750 0.7306
H18 H 0.5967 1.0614 0.7899
H19 H 0.4831 1.0080 0.8142
C25 C 0.6039(5) 1.0162(3) 0.5757(4)
H20 H 0.5447 1.0523 0.5393
H21 H 0.6854 1.0412 0.5909
C26 C 0.4594(4) 0.8186(2) 0.4907(3)
H22 H 0.3740 0.8019 0.5038
C27 C 0.7214(4) 0.7119(3) 0.4592(3)
C28 C 0.7616(4) 0.6747(3) 0.3621(4)
H23 H 0.7038 0.6888 0.3029
H24 H 0.7621 0.6190 0.3703
H25 H 0.8449 0.6923 0.3503
C29 C 0.2679(5) 0.9147(3) 0.7307(4)
C30 C 0.2324(5) 0.8616(3) 0.8151(4)
H26 H 0.1718 0.8871 0.8550
H27 H 0.3062 0.8488 0.8608
H28 H 0.1961 0.8148 0.7842
C31 C 0.6793(6) 0.9925(4) 1.0651(5)
H29 H 0.5915 0.9785 1.0580
H30 H 0.6889 1.0440 1.0945
H31 H 0.7254 0.9559 1.1108
C32 C 0.9237(4) 1.0205(3) 0.8237(4)
C33 C 0.9678(6) 1.0994(4) 0.7976(5)
H32 H 1.0350 1.1150 0.8487
H33 H 0.8992 1.1358 0.7984
H34 H 0.9980 1.0988 0.7289
C34 C 0.9247(5) 0.6778(4) 0.8409(4)
C35 C 0.9966(5) 0.6088(5) 0.8810(5)
H35 H 1.0701 0.6253 0.9246
H36 H 1.0220 0.5789 0.8229
H37 H 0.9444 0.5772 0.9218
C36 C 0.1818(4) 0.7097(3) 0.5580(4)
C37 C 0.1029(5) 0.6597(5) 0.4845(5)
H38 H 0.1108 0.6063 0.5070
H39 H 0.1302 0.6646 0.4150
H40 H 0.0162 0.6757 0.4835
C42 C 0.3918(5) 0.7739(3) 0.3147(4)
C43 C 0.4229(5) 0.7773(4) 0.2021(4)
H49 H 0.5059 0.7530 0.1989
C44 C 0.3300(8) 0.7331(5) 0.1269(4)
H50 H 0.2526 0.7620 0.1162
H51 H 0.3135 0.6829 0.1563
H52 H 0.3651 0.7263 0.0607
C45 C 0.4340(13) 0.8613(6) 0.1686(6)
H53 H 0.3562 0.8880 0.1770
H54 H 0.4515 0.8633 0.0961
H55 H 0.5015 0.8860 0.2115
H56 H 0.414(7) 0.938(4) 0.380(5)
O21 O -0.1419(13) 0.8446(9) 0.2318(10)
O22 O 0.0490(9) 0.8923(7) 0.2454(6)
C38 C -0.0233(12) 0.8463(8) 0.0851(7)
H41 H 0.0332 0.8031 0.0786
H42 H 0.0143 0.8931 0.0609
H43 H -0.1014 0.8364 0.0434
C39 C -0.0461(15) 0.8550(7) 0.1887(10)
C40 C 0.0552(18) 0.8959(9) 0.3574(10)
H44 H -0.0215 0.8746 0.3819
H45 H 0.1262 0.8654 0.3879
C41 C 0.0697(12) 0.9756(8) 0.3891(8)
H46 H 0.1359 0.9991 0.3535
H47 H 0.0908 0.9781 0.4639
H48 H -0.0080 1.0031 0.3712
loop_
_geom_bond_atom_site_label_1
_geom_bond_atom_site_label_2
_geom_bond_site_symmetry_1
_geom_bond_site_symmetry_2
O1 C16 1_555 1_555
O2 C16 1_555 1_555
O3 C21 1_555 1_555
O4 C8 1_555 1_555
O5 C9 1_555 1_555
O6 C11 1_555 1_555
O7 H1 1_555 1_555
O8 C2 1_555 1_555
O9 C29 1_555 1_555
O10 C3 1_555 1_555
O11 C7 1_555 1_555
O12 C7 1_555 1_555
O13 C6 1_555 1_555
O14 C32 1_555 1_555
O15 C12 1_555 1_555
O16 C34 1_555 1_555
O17 C36 1_555 1_555
O18 C15 1_555 1_555
O19 C42 1_555 1_555
O20 C26 1_555 1_555
O21 C39 1_555 1_555
O22 C39 1_555 1_555
C1 O7 1_555 1_555
C2 C1 1_555 1_555
C3 C2 1_555 1_555
H2 C3 1_555 1_555
C4 C3 1_555 1_555
C5 C4 1_555 1_555
H3 C5 1_555 1_555
C6 C5 1_555 1_555
H4 C6 1_555 1_555
C7 C6 1_555 1_555
C8 C9 1_555 1_555
C9 C10 1_555 1_555
C10 C1 1_555 1_555
C11 C9 1_555 1_555
H5 C11 1_555 1_555
C12 C11 1_555 1_555
H6 C12 1_555 1_555
C13 C12 1_555 1_555
C14 C8 1_555 1_555
C15 C14 1_555 1_555
H7 C15 1_555 1_555
C16 C15 1_555 1_555
C17 O2 1_555 1_555
H8 C17 1_555 1_555
C18 C13 1_555 1_555
H9 C18 1_555 1_555
H10 C18 1_555 1_555
C19 C10 1_555 1_555
H11 C19 1_555 1_555
H12 C19 1_555 1_555
H13 C19 1_555 1_555
C20 C17 1_555 1_555
C21 C20 1_555 1_555
H14 C21 1_555 1_555
C22 C20 1_555 1_555
H15 C22 1_555 1_555
C23 O3 1_555 1_555
H16 C23 1_555 1_555
C24 C4 1_555 1_555
H17 C24 1_555 1_555
H18 C24 1_555 1_555
H19 C24 1_555 1_555
C25 C1 1_555 1_555
H20 C25 1_555 1_555
H21 C25 1_555 1_555
C26 C2 1_555 1_555
H22 C26 1_555 1_555
C27 O4 1_555 1_555
C28 C27 1_555 1_555
H23 C28 1_555 1_555
H24 C28 1_555 1_555
H25 C28 1_555 1_555
C29 O10 1_555 1_555
C30 C29 1_555 1_555
H26 C30 1_555 1_555
H27 C30 1_555 1_555
H28 C30 1_555 1_555
C31 O12 1_555 1_555
H29 C31 1_555 1_555
H30 C31 1_555 1_555
H31 C31 1_555 1_555
C32 O13 1_555 1_555
C33 C32 1_555 1_555
H32 C33 1_555 1_555
H33 C33 1_555 1_555
H34 C33 1_555 1_555
C34 O15 1_555 1_555
C35 C34 1_555 1_555
H35 C35 1_555 1_555
H36 C35 1_555 1_555
H37 C35 1_555 1_555
C36 O18 1_555 1_555
C37 C36 1_555 1_555
H38 C37 1_555 1_555
H39 C37 1_555 1_555
H40 C37 1_555 1_555
C38 H41 1_555 1_555
H42 C38 1_555 1_555
H43 C38 1_555 1_555
C39 C38 1_555 1_555
C40 O22 1_555 1_555
H44 C40 1_555 1_555
H45 C40 1_555 1_555
C41 C40 1_555 1_555
H46 C41 1_555 1_555
H47 C41 1_555 1_555
H48 C41 1_555 1_555
C42 O20 1_555 1_555
C43 C42 1_555 1_555
H49 C43 1_555 1_555
C44 C43 1_555 1_555
H50 C44 1_555 1_555
H51 C44 1_555 1_555
H52 C44 1_555 1_555
C45 C43 1_555 1_555
H53 C45 1_555 1_555
H54 C45 1_555 1_555
H55 C45 1_555 1_555
H56 O8 1_555 1_555
O5 C27 1_555 1_555
O6 C27 1_555 1_555
C4 C25 1_555 1_555
C5 C10 1_555 1_555
C8 C26 1_555 1_555
C13 C14 1_555 1_555
C13 C17 1_555 1_555
C14 C18 1_555 1_555
C22 C23 1_555 1_555

#END
