
#######################################################################
#
#                 Cambridge Crystallographic Data Centre
#                                CCDC 
#
#######################################################################
#
# If this CIF has been generated from an entry in the Cambridge 
# Structural Database, then it will include bibliographic, chemical, 
# crystal, experimental, refinement or atomic coordinate data resulting 
# from the CCDC's data processing and validation procedures.
#
#######################################################################

data_TIFLAW
_chemical_compound_source        
'seeds of Chukrasia tabularis A. Juss (Meliaceae)'
_chemical_formula_moiety         'C41 H48 O20,C3 H6 O1'
_chemical_name_systematic        'Tabularisin C acetone solvate'
_chemical_properties_biological  
'Chukrasia tabularis has been used traditionally as an astringent, an anti-diarrhoeal and an anti-influenza agent'
_symmetry_cell_setting           orthorhombic
_symmetry_space_group_name_H-M   'P 21 21 21'
_symmetry_Int_Tables_number      19
_space_group_name_Hall           'P 2ac 2ab'
loop_
_symmetry_equiv_pos_site_id
_symmetry_equiv_pos_as_xyz
1 x,y,z
2 1/2-x,-y,1/2+z
3 -x,1/2+y,1/2-z
4 1/2+x,1/2-y,-z
_cell_length_a                   9.9504(7)
_cell_length_b                   19.8602(15)
_cell_length_c                   22.7434(16)
_cell_angle_alpha                90
_cell_angle_beta                 90
_cell_angle_gamma                90
_cell_volume                     4494.48
_exptl_crystal_colour            colorless
_exptl_crystal_description       prismatic
_chemical_melting_point          '269-270 deg.C(dec.)'
_cell_formula_units_Z            4
_exptl_crystal_recrystallization_method cyclohexane/acetone
loop_
_atom_site_label
_atom_site_type_symbol
_atom_site_fract_x
_atom_site_fract_y
_atom_site_fract_z
O1 O 0.2152(4) 0.0633(2) 0.64205(15)
O2 O 0.3674(3) -0.01382(17) 0.65843(13)
O3 O 0.6563(4) -0.17268(17) 0.60842(15)
O4 O 0.6119(2) 0.18765(13) 0.75281(10)
O5 O 0.7669(2) 0.16435(13) 0.81933(11)
O6 O 0.5648(3) 0.21333(13) 0.84447(11)
O7 O 0.6853(3) 0.15394(14) 0.94137(11)
H1 H 0.6593 0.1890 0.9261
O8 O 0.8423(3) 0.11021(15) 0.71741(11)
H2 H 0.9082 0.1296 0.7309
O9 O 0.4124(3) 0.15928(13) 0.93070(11)
O10 O 0.2174(3) 0.14998(17) 0.88140(12)
O11 O 0.1655(3) -0.0116(2) 0.90292(15)
O12 O 0.3425(3) 0.01684(13) 0.84520(10)
O13 O 0.5612(4) -0.13329(16) 0.80391(14)
O14 O 0.6444(4) -0.18485(15) 0.88316(14)
O15 O 0.9353(4) -0.14221(19) 0.88299(17)
O16 O 0.7715(3) -0.08020(15) 0.92263(11)
O17 O 0.8003(3) -0.01306(14) 0.67841(10)
O18 O 0.8941(4) -0.09232(19) 0.73429(16)
O19 O 0.3055(3) 0.14872(15) 0.72346(12)
O20 O 0.1060(3) 0.1129(2) 0.75512(16)
C1 C 0.6199(4) 0.09910(19) 0.91520(15)
C2 C 0.4774(3) 0.11385(19) 0.88922(15)
C3 C 0.4108(4) 0.04390(19) 0.89580(15)
H3 H 0.3448 0.0472 0.9277
C4 C 0.5218(4) -0.0036(2) 0.91638(15)
C5 C 0.6247(4) -0.00864(18) 0.86516(15)
H4 H 0.5725 -0.0095 0.8286
C6 C 0.7121(4) -0.07230(19) 0.86533(16)
H5 H 0.7845 -0.0664 0.8365
C7 C 0.6294(5) -0.1339(2) 0.84783(18)
C8 C 0.5701(3) 0.12532(17) 0.77838(14)
C9 C 0.7060(3) 0.10008(18) 0.80641(15)
C10 C 0.7021(3) 0.06074(19) 0.86621(15)
C11 C 0.7922(3) 0.06400(19) 0.75935(15)
H6 H 0.8694 0.0436 0.7793
C12 C 0.7157(3) 0.0075(2) 0.72723(15)
H7 H 0.7046 -0.0307 0.7541
C13 C 0.5791(3) 0.02616(19) 0.70184(15)
C14 C 0.5060(3) 0.0850(2) 0.72882(14)
C15 C 0.3551(3) 0.0823(2) 0.72554(16)
H8 H 0.3206 0.0601 0.7609
C16 C 0.3058(4) 0.0440(2) 0.67145(19)
C17 C 0.4923(4) -0.0343(2) 0.68665(17)
H9 H 0.4705 -0.0583 0.7230
C18 C 0.5720(4) 0.0907(2) 0.66857(15)
H10 H 0.5137 0.0924 0.6344
H11 H 0.6534 0.1173 0.6655
C19 C 0.8494(4) 0.0557(2) 0.88766(17)
H12 H 0.8506 0.0469 0.9292
H13 H 0.8950 0.0973 0.8798
H14 H 0.8939 0.0197 0.8673
C20 C 0.5559(4) -0.0825(2) 0.64494(16)
C21 C 0.5941(5) -0.1445(2) 0.6558(2)
H15 H 0.5804 -0.1665 0.6914
C22 C 0.5966(5) -0.0696(3) 0.58492(18)
H16 H 0.5844 -0.0298 0.5641
C23 C 0.6533(6) -0.1242(3) 0.5656(2)
H17 H 0.6872 -0.1296 0.5278
C24 C 0.4657(5) -0.0683(2) 0.94200(19)
H18 H 0.4131 -0.0911 0.9127
H19 H 0.4100 -0.0580 0.9753
H20 H 0.5384 -0.0968 0.9542
C25 C 0.5912(4) 0.0442(2) 0.95916(15)
H21 H 0.5319 0.0590 0.9904
H22 H 0.6725 0.0250 0.9757
C26 C 0.4865(3) 0.15343(18) 0.83108(14)
H23 H 0.3963 0.1662 0.8178
C27 C 0.6721(4) 0.21414(19) 0.80314(17)
C28 C 0.7338(5) 0.2811(2) 0.7964(2)
H24 H 0.6660 0.3132 0.7856
H25 H 0.8013 0.2794 0.7663
H26 H 0.7742 0.2944 0.8329
C29 C 0.2211(4) -0.0142(2) 0.85616(19)
C30 C 0.1697(5) -0.0487(3) 0.8029(2)
H27 H 0.1367 -0.0159 0.7755
H28 H 0.0981 -0.0787 0.8137
H29 H 0.2410 -0.0740 0.7850
C31 C 0.5587(8) -0.2433(3) 0.8712(3)
H30 H 0.4799 -0.2290 0.8502
H31 H 0.5327 -0.2639 0.9076
H32 H 0.6075 -0.2753 0.8478
C32 C 0.8869(5) -0.1164(2) 0.9248(2)
C33 C 0.9443(8) -0.1169(4) 0.9857(3)
H33 H 0.9828 -0.0737 0.9943
H34 H 1.0126 -0.1509 0.9884
H35 H 0.8742 -0.1265 1.0135
C34 C 0.8867(4) -0.0621(2) 0.6884(2)
C35 C 0.9732(6) -0.0766(3) 0.6358(2)
H36 H 0.9212 -0.0711 0.6006
H37 H 1.0060 -0.1220 0.6380
H38 H 1.0478 -0.0459 0.6353
C36 C 0.1783(4) 0.1597(3) 0.7402(2)
C37 C 0.1405(6) 0.2302(3) 0.7416(3)
H39 H 0.0574 0.2351 0.7626
H40 H 0.1297 0.2464 0.7022
H41 H 0.2095 0.2556 0.7611
C41 C 0.2789(4) 0.1700(2) 0.92309(17)
C42 C 0.2160(4) 0.2036(2) 0.97520(17)
H42 H 0.2723 0.2423 0.9856
C43 C 0.0788(5) 0.2296(3) 0.9611(3)
H43 H 0.0196 0.1925 0.9534
H44 H 0.0834 0.2580 0.9270
H45 H 0.0452 0.2551 0.9938
C44 C 0.2155(8) 0.1567(4) 1.0265(2)
H46 H 0.3059 0.1432 1.0352
H47 H 0.1625 0.1178 1.0172
H48 H 0.1777 0.1792 1.0600
O21 O 0.160(3) 0.7285(14) 0.9700(11)
C38 C 0.115(3) 0.7066(13) 0.9200(10)
C39 C 0.1841(19) 0.7586(10) 0.8783(8)
C40 C -0.028(3) 0.6860(15) 0.9271(13)
loop_
_geom_bond_atom_site_label_1
_geom_bond_atom_site_label_2
_geom_bond_site_symmetry_1
_geom_bond_site_symmetry_2
O1 C16 1_555 1_555
O2 C16 1_555 1_555
O3 C21 1_555 1_555
O4 C8 1_555 1_555
O5 C9 1_555 1_555
O6 C26 1_555 1_555
O7 H1 1_555 1_555
O8 H2 1_555 1_555
O9 C2 1_555 1_555
O10 C41 1_555 1_555
O11 C29 1_555 1_555
O12 C3 1_555 1_555
O13 C7 1_555 1_555
O14 C7 1_555 1_555
O15 C32 1_555 1_555
O16 C6 1_555 1_555
O17 C12 1_555 1_555
O18 C34 1_555 1_555
O19 C15 1_555 1_555
O20 C36 1_555 1_555
O21 C38 1_555 1_555
C1 O7 1_555 1_555
C2 C1 1_555 1_555
C3 C2 1_555 1_555
H3 C3 1_555 1_555
C4 C3 1_555 1_555
C5 C4 1_555 1_555
H4 C5 1_555 1_555
C6 C5 1_555 1_555
H5 C6 1_555 1_555
C7 C6 1_555 1_555
C8 C9 1_555 1_555
C9 C10 1_555 1_555
C10 C1 1_555 1_555
C11 O8 1_555 1_555
H6 C11 1_555 1_555
C12 C11 1_555 1_555
H7 C12 1_555 1_555
C13 C12 1_555 1_555
C14 C8 1_555 1_555
C15 C14 1_555 1_555
H8 C15 1_555 1_555
C16 C15 1_555 1_555
C17 O2 1_555 1_555
H9 C17 1_555 1_555
C18 C13 1_555 1_555
H10 C18 1_555 1_555
H11 C18 1_555 1_555
C19 C10 1_555 1_555
H12 C19 1_555 1_555
H13 C19 1_555 1_555
H14 C19 1_555 1_555
C20 C17 1_555 1_555
C21 C20 1_555 1_555
H15 C21 1_555 1_555
C22 C20 1_555 1_555
H16 C22 1_555 1_555
C23 O3 1_555 1_555
H17 C23 1_555 1_555
C24 C4 1_555 1_555
H18 C24 1_555 1_555
H19 C24 1_555 1_555
H20 C24 1_555 1_555
C25 C1 1_555 1_555
H21 C25 1_555 1_555
H22 C25 1_555 1_555
C26 C2 1_555 1_555
H23 C26 1_555 1_555
C27 O4 1_555 1_555
C28 C27 1_555 1_555
H24 C28 1_555 1_555
H25 C28 1_555 1_555
H26 C28 1_555 1_555
C29 O12 1_555 1_555
C30 C29 1_555 1_555
H27 C30 1_555 1_555
H28 C30 1_555 1_555
H29 C30 1_555 1_555
C31 O14 1_555 1_555
H30 C31 1_555 1_555
H31 C31 1_555 1_555
H32 C31 1_555 1_555
C32 O16 1_555 1_555
C33 C32 1_555 1_555
H33 C33 1_555 1_555
H34 C33 1_555 1_555
H35 C33 1_555 1_555
C34 O17 1_555 1_555
C35 C34 1_555 1_555
H36 C35 1_555 1_555
H37 C35 1_555 1_555
H38 C35 1_555 1_555
C36 O19 1_555 1_555
C37 C36 1_555 1_555
H39 C37 1_555 1_555
H40 C37 1_555 1_555
H41 C37 1_555 1_555
C38 C39 1_555 1_555
C40 C38 1_555 1_555
C41 O9 1_555 1_555
C42 C41 1_555 1_555
H42 C42 1_555 1_555
C43 C42 1_555 1_555
H43 C43 1_555 1_555
H44 C43 1_555 1_555
H45 C43 1_555 1_555
C44 C42 1_555 1_555
H46 C44 1_555 1_555
H47 C44 1_555 1_555
H48 C44 1_555 1_555
O5 C27 1_555 1_555
O6 C27 1_555 1_555
C4 C25 1_555 1_555
C5 C10 1_555 1_555
C8 C26 1_555 1_555
C9 C11 1_555 1_555
C13 C14 1_555 1_555
C13 C17 1_555 1_555
C14 C18 1_555 1_555
C22 C23 1_555 1_555

#END
