
#######################################################################
#
#                 Cambridge Crystallographic Data Centre
#                                CCDC 
#
#######################################################################
#
# If this CIF has been generated from an entry in the Cambridge 
# Structural Database, then it will include bibliographic, chemical, 
# crystal, experimental, refinement or atomic coordinate data resulting 
# from the CCDC's data processing and validation procedures.
#
#######################################################################

data_TIFMEB
_chemical_formula_moiety         'C50 H34 O4,4(C3 H6 O1)'
_chemical_name_systematic        
"9,10-bis(4,4''-Dihydroxy-m-terphenyl-5'-yl)anthracene tetrakis(acetone) clathrate"
_symmetry_cell_setting           monoclinic
_symmetry_space_group_name_H-M   'P 21/n'
_symmetry_Int_Tables_number      14
_space_group_name_Hall           '-P 2yn'
loop_
_symmetry_equiv_pos_site_id
_symmetry_equiv_pos_as_xyz
1 x,y,z
2 1/2-x,1/2+y,1/2-z
3 -x,-y,-z
4 1/2+x,1/2-y,1/2+z
_cell_length_a                   14.3194(4)
_cell_length_b                   9.0878(3)
_cell_length_c                   19.4726(6)
_cell_angle_alpha                90
_cell_angle_beta                 97.563(1)
_cell_angle_gamma                90
_cell_volume                     2511.96
_exptl_crystal_colour            yellow
_exptl_crystal_description       block
_cell_formula_units_Z            2
loop_
_atom_site_label
_atom_site_type_symbol
_atom_site_fract_x
_atom_site_fract_y
_atom_site_fract_z
O1 O 0.6202(2) 0.5008(4) 0.1010(2)
O2 O -0.0559(4) 0.4975(5) 0.4400(2)
C1 C 0.0073(2) 0.1523(4) -0.0151(2)
C2 C 0.0118(3) 0.3039(4) -0.0328(2)
C3 C -0.0314(3) 0.3562(4) -0.0941(2)
C4 C -0.0826(3) 0.2605(5) -0.1430(2)
C5 C -0.0894(3) 0.1146(4) -0.1281(2)
C6 C 0.0453(2) -0.0545(4) 0.0641(2)
C7 C 0.0519(2) 0.0969(4) 0.0479(2)
C8 C 0.1064(2) 0.1954(4) 0.1001(2)
C9 C 0.0677(3) 0.2436(4) 0.1577(2)
C10 C 0.1182(2) 0.3343(4) 0.2072(2)
C11 C 0.2090(3) 0.3746(4) 0.1975(2)
C12 C 0.2498(2) 0.3297(4) 0.1403(2)
C13 C 0.1973(2) 0.2405(4) 0.0918(2)
C14 C 0.3965(3) 0.3108(5) 0.0811(2)
C15 C 0.3478(2) 0.3767(4) 0.1303(2)
C16 C 0.3936(3) 0.4904(5) 0.1685(2)
C17 C 0.4843(3) 0.5337(5) 0.1596(2)
C18 C 0.5310(3) 0.4648(5) 0.1115(2)
C19 C 0.4856(3) 0.3548(6) 0.0707(3)
C20 C 0.0745(3) 0.3850(4) 0.2679(2)
C21 C 0.1243(3) 0.3866(5) 0.3340(2)
C22 C 0.0813(4) 0.4258(7) 0.3907(3)
C23 C -0.0127(4) 0.4630(6) 0.3820(2)
C24 C -0.0633(4) 0.4657(5) 0.3176(3)
C25 C -0.0200(3) 0.4258(5) 0.2603(2)
H1 H 0.048(3) 0.370(5) -0.001(2)
H2 H -0.028(3) 0.461(5) -0.105(2)
H3 H -0.121(3) 0.300(4) -0.192(2)
H4 H -0.121(3) 0.043(5) -0.163(2)
H5 H 0.007(3) 0.215(4) 0.166(2)
H6 H 0.241(2) 0.434(4) 0.230(2)
H7 H 0.226(3) 0.206(4) 0.052(2)
H8 H -0.058(3) 0.435(5) 0.215(2)
H9 H -0.132(4) 0.491(6) 0.313(3)
H10 H 0.118(4) 0.416(7) 0.436(3)
H11 H 0.194(3) 0.350(4) 0.344(2)
H12 H 0.366(3) 0.213(4) 0.056(2)
H13 H 0.526(4) 0.304(6) 0.042(3)
H14 H 0.362(3) 0.547(5) 0.205(2)
H15 H 0.517(3) 0.602(4) 0.190(2)
H16 H 0.629(6) 0.60(1) 0.134(5)
O1B O -0.6202(2) -0.5008(4) -0.1010(2)
O2B O 0.0559(4) -0.4975(5) -0.4400(2)
C1B C -0.0073(2) -0.1523(4) 0.0151(2)
C2B C -0.0118(3) -0.3039(4) 0.0328(2)
C3B C 0.0314(3) -0.3562(4) 0.0941(2)
C4B C 0.0826(3) -0.2605(5) 0.1430(2)
C5B C 0.0894(3) -0.1146(4) 0.1281(2)
C6B C -0.0453(2) 0.0545(4) -0.0641(2)
C7B C -0.0519(2) -0.0969(4) -0.0479(2)
C8B C -0.1064(2) -0.1954(4) -0.1001(2)
C9B C -0.0677(3) -0.2436(4) -0.1577(2)
C10B C -0.1182(2) -0.3343(4) -0.2072(2)
C11B C -0.2090(3) -0.3746(4) -0.1975(2)
C12B C -0.2498(2) -0.3297(4) -0.1403(2)
C13B C -0.1973(2) -0.2405(4) -0.0918(2)
C14B C -0.3965(3) -0.3108(5) -0.0811(2)
C15B C -0.3478(2) -0.3767(4) -0.1303(2)
C16B C -0.3936(3) -0.4904(5) -0.1685(2)
C17B C -0.4843(3) -0.5337(5) -0.1596(2)
C18B C -0.5310(3) -0.4648(5) -0.1115(2)
C19B C -0.4856(3) -0.3548(6) -0.0707(3)
C20B C -0.0745(3) -0.3850(4) -0.2679(2)
C21B C -0.1243(3) -0.3866(5) -0.3340(2)
C22B C -0.0813(4) -0.4258(7) -0.3907(3)
C23B C 0.0127(4) -0.4630(6) -0.3820(2)
C24B C 0.0633(4) -0.4657(5) -0.3176(3)
C25B C 0.0200(3) -0.4258(5) -0.2603(2)
H1B H -0.048(3) -0.370(5) 0.001(2)
H2B H 0.028(3) -0.461(5) 0.105(2)
H3B H 0.121(3) -0.300(4) 0.192(2)
H4B H 0.121(3) -0.043(5) 0.163(2)
H5B H -0.007(3) -0.215(4) -0.166(2)
H6B H -0.241(2) -0.434(4) -0.230(2)
H7B H -0.226(3) -0.206(4) -0.052(2)
H8B H 0.058(3) -0.435(5) -0.215(2)
H9B H 0.132(4) -0.491(6) -0.313(3)
H10B H -0.118(4) -0.416(7) -0.436(3)
H11B H -0.194(3) -0.350(4) -0.344(2)
H12B H -0.366(3) -0.213(4) -0.056(2)
H13B H -0.526(4) -0.304(6) -0.042(3)
H14B H -0.362(3) -0.547(5) -0.205(2)
H15B H -0.517(3) -0.602(4) -0.190(2)
H16B H -0.629(6) -0.60(1) -0.134(5)
O3 O 0.2735(2) 0.3447(4) -0.2034(2)
C26 C 0.2215(3) 0.2542(5) -0.1838(3)
C27 C 0.1504(4) 0.1777(7) -0.2327(4)
C28 C 0.2255(4) 0.2154(7) -0.1094(3)
H17 H 0.1610 0.2003 -0.2798
H18 H 0.0889 0.2108 -0.2271
H19 H 0.1547 0.0750 -0.2265
H20 H 0.1646 0.2163 -0.0961
H21 H 0.2540 0.1225 -0.1007
H22 H 0.2635 0.2882 -0.0820
O4 O 0.3020(5) 0.8501(8) -0.0661(4)
C29 C 0.2545(5) 0.6461(8) 0.0116(4)
C30 C 0.2597(7) 0.742(1) -0.0515(5)
C31 C 0.1909(7) 0.664(1) -0.0740(5)
O5? O 0.203(1) 0.791(2) -0.1010(9)
C32? C 0.1472(5) 0.5702(9) -0.0993(4)
loop_
_geom_bond_atom_site_label_1
_geom_bond_atom_site_label_2
_geom_bond_site_symmetry_1
_geom_bond_site_symmetry_2
O1 C18 1_555 1_555
O2 C23 1_555 1_555
O3 C26 1_555 1_555
O4 C30 1_555 1_555
C1 C2 1_555 1_555
C2 C3 1_555 1_555
C3 C4 1_555 1_555
C4 C5 1_555 1_555
C5 H4 1_555 1_555
C6 C7 1_555 1_555
C7 C1 1_555 1_555
C8 C7 1_555 1_555
C9 C8 1_555 1_555
C10 C9 1_555 1_555
C11 C10 1_555 1_555
C12 C11 1_555 1_555
C13 C8 1_555 1_555
C14 C15 1_555 1_555
C15 C12 1_555 1_555
C16 C15 1_555 1_555
C17 C16 1_555 1_555
C18 C17 1_555 1_555
C19 C14 1_555 1_555
C20 C10 1_555 1_555
C21 C20 1_555 1_555
C22 C21 1_555 1_555
C23 C22 1_555 1_555
C24 C23 1_555 1_555
C25 C20 1_555 1_555
C26 C27 1_555 1_555
C27 H17 1_555 1_555
C28 C26 1_555 1_555
C29 C30 1_555 1_555
C30 C31 1_555 1_555
H1 C2 1_555 1_555
H2 C3 1_555 1_555
H3 C4 1_555 1_555
H5 C9 1_555 1_555
H6 C11 1_555 1_555
H7 C13 1_555 1_555
H8 C25 1_555 1_555
H9 C24 1_555 1_555
H10 C22 1_555 1_555
H11 C21 1_555 1_555
H12 C14 1_555 1_555
H13 C19 1_555 1_555
H14 C16 1_555 1_555
H15 C17 1_555 1_555
H16 O1 1_555 1_555
H18 C27 1_555 1_555
H19 C27 1_555 1_555
H20 C28 1_555 1_555
H21 C28 1_555 1_555
H22 C28 1_555 1_555
O1B C18B 1_555 1_555
O2B C23B 1_555 1_555
C1B C6 1_555 1_555
C2B C1B 1_555 1_555
C3B C2B 1_555 1_555
C4B C3B 1_555 1_555
C5B C6 1_555 1_555
C6B C1 1_555 1_555
C7B C1B 1_555 1_555
C8B C7B 1_555 1_555
C9B C8B 1_555 1_555
C10B C9B 1_555 1_555
C11B C10B 1_555 1_555
C12B C11B 1_555 1_555
C13B C8B 1_555 1_555
C14B C15B 1_555 1_555
C15B C12B 1_555 1_555
C16B C15B 1_555 1_555
C17B C16B 1_555 1_555
C18B C17B 1_555 1_555
C19B C14B 1_555 1_555
C20B C10B 1_555 1_555
C21B C20B 1_555 1_555
C22B C21B 1_555 1_555
C23B C22B 1_555 1_555
C24B C23B 1_555 1_555
C25B C20B 1_555 1_555
H1B C2B 1_555 1_555
H2B C3B 1_555 1_555
H3B C4B 1_555 1_555
H4B C5B 1_555 1_555
H5B C9B 1_555 1_555
H6B C11B 1_555 1_555
H7B C13B 1_555 1_555
H8B C25B 1_555 1_555
H9B C24B 1_555 1_555
H10B C22B 1_555 1_555
H11B C21B 1_555 1_555
H12B C14B 1_555 1_555
H13B C19B 1_555 1_555
H14B C16B 1_555 1_555
H15B C17B 1_555 1_555
H16B O1B 1_555 1_555
C5 C6B 1_555 1_555
C12 C13 1_555 1_555
C18 C19 1_555 1_555
C24 C25 1_555 1_555
C4B C5B 1_555 1_555
C6B C7B 1_555 1_555
C12B C13B 1_555 1_555
C18B C19B 1_555 1_555
C24B C25B 1_555 1_555

#END
