
#######################################################################
#
#                 Cambridge Crystallographic Data Centre
#                                CCDC 
#
#######################################################################
#
# If this CIF has been generated from an entry in the Cambridge 
# Structural Database, then it will include bibliographic, chemical, 
# crystal, experimental, refinement or atomic coordinate data resulting 
# from the CCDC's data processing and validation procedures.
#
#######################################################################

data_TIFQOO
_chemical_name_common            'Calix[4]hydroquinone tetrahydrate'
_chemical_formula_moiety         'C28 H24 O8,4(H2 O1)'
_chemical_name_systematic        
'5,11,17,23,25,26,27,28-octahydroxycalix[4]arene tetrahydrate'
_symmetry_cell_setting           orthorhombic
_symmetry_space_group_name_H-M   'C m m m'
_symmetry_Int_Tables_number      65
_space_group_name_Hall           '-C 2 2'
loop_
_symmetry_equiv_pos_site_id
_symmetry_equiv_pos_as_xyz
1 x,y,z
2 1/2+x,1/2+y,z
3 -x,-y,z
4 -x,y,-z
5 x,-y,-z
6 1/2-x,1/2-y,z
7 1/2-x,1/2+y,-z
8 1/2+x,1/2-y,-z
9 -x,-y,-z
10 1/2-x,1/2-y,-z
11 x,y,-z
12 x,-y,z
13 -x,y,z
14 1/2+x,1/2+y,-z
15 1/2+x,1/2-y,z
16 1/2-x,1/2+y,z
_cell_length_a                   23.3007(5)
_cell_length_b                   25.03560(10)
_cell_length_c                   11.6313(2)
_cell_angle_alpha                90
_cell_angle_beta                 90
_cell_angle_gamma                90
_cell_volume                     6785.08
_exptl_crystal_colour            brown
_exptl_crystal_description       tetragonal
_cell_formula_units_Z            8
loop_
_atom_site_label
_atom_site_type_symbol
_atom_site_fract_x
_atom_site_fract_y
_atom_site_fract_z
O1 O 0.14844(17) 0.29777(15) 0.3100(3)
O2 O 0.05734(11) 0.11538(10) 0.1134(2)
C1 C 0.1248(2) 0.25339(17) 0.2585(4)
C2 C 0.07732(17) 0.22924(15) 0.3069(3)
H1 H 0.0607 0.2440 0.3733
C3 C 0.05366(16) 0.18329(14) 0.2588(3)
C4 C 0.07954(15) 0.16262(14) 0.1603(3)
C5 C 0.12705(15) 0.18638(15) 0.1092(3)
C6 C 0.14950(17) 0.23204(17) 0.1600(4)
H2 H 0.1818 0.2487 0.1274
C7 C 0.0000 0.1594(2) 0.3101(4)
H3 H 0.0000 0.1207 0.2968
H4 H 0.0000 0.1654 0.3934
C8 C 0.1540(2) 0.1641(2) 0.0000
H5 H 0.1951 0.1723 0.0000
H6 H 0.1499 0.1251 0.0000
C5J C 0.12705(15) 0.18638(15) -0.1092(3)
C4J C 0.07954(15) 0.16262(14) -0.1603(3)
O2J O 0.05734(11) 0.11538(10) -0.1134(2)
C3J C 0.05366(16) 0.18329(14) -0.2588(3)
C2J C 0.07732(17) 0.22924(15) -0.3069(3)
C1J C 0.1248(2) 0.25339(17) -0.2585(4)
O1J O 0.14844(17) 0.29777(15) -0.3100(3)
C6J C 0.14950(17) 0.23204(17) -0.1600(4)
H2J H 0.1818 0.2487 -0.1274
H1J H 0.0607 0.2440 -0.3733
C7J C 0.0000 0.1594(2) -0.3101(4)
C3C C -0.05366(16) 0.18329(14) -0.2588(3)
C2C C -0.07732(17) 0.22924(15) -0.3069(3)
C1C C -0.1248(2) 0.25339(17) -0.2585(4)
O1C O -0.14844(17) 0.29777(15) -0.3100(3)
C6C C -0.14950(17) 0.23204(17) -0.1600(4)
C5C C -0.12705(15) 0.18638(15) -0.1092(3)
C4C C -0.07954(15) 0.16262(14) -0.1603(3)
O2C O -0.05734(11) 0.11538(10) -0.1134(2)
C8C C -0.1540(2) 0.1641(2) 0.0000
C5L C -0.12705(15) 0.18638(15) 0.1092(3)
C4L C -0.07954(15) 0.16262(14) 0.1603(3)
O2L O -0.05734(11) 0.11538(10) 0.1134(2)
C3L C -0.05366(16) 0.18329(14) 0.2588(3)
C2L C -0.07732(17) 0.22924(15) 0.3069(3)
C1L C -0.1248(2) 0.25339(17) 0.2585(4)
O1L O -0.14844(17) 0.29777(15) 0.3100(3)
C6L C -0.14950(17) 0.23204(17) 0.1600(4)
H2L H -0.1818 0.2487 0.1274
H1L H -0.0607 0.2440 0.3733
H5C H -0.1951 0.1723 0.0000
H6C H -0.1499 0.1251 0.0000
H2C H -0.1818 0.2487 -0.1274
H1C H -0.0607 0.2440 -0.3733
H3J H 0.0000 0.1207 -0.2968
H4J H 0.0000 0.1654 -0.3934
O3 O 0.28595(16) 0.13765(15) 0.1874(3)
O4 O 0.09008(11) 0.05351(11) 0.3861(2)
C9 C 0.23830(19) 0.11599(17) 0.2406(3)
C10 C 0.21641(19) 0.13861(16) 0.3395(4)
H7 H 0.2348 0.1683 0.3726
C11 C 0.16702(17) 0.11774(14) 0.3908(3)
C12 C 0.14081(15) 0.07382(15) 0.3395(3)
C13 C 0.16307(16) 0.04981(14) 0.2407(3)
C14 C 0.21219(17) 0.07153(15) 0.1917(3)
H8 H 0.2279 0.0561 0.1251
C15 C 0.1438(3) 0.1427(2) 0.5000
H9 H 0.1532 0.1809 0.5000
H10 H 0.1019 0.1395 0.5000
C16 C 0.1367(2) 0.0000 0.1891(4)
H11 H 0.0952 0.0000 0.2034
H12 H 0.1428 0.0000 0.1058
C13K C 0.16307(16) -0.04981(14) 0.2407(3)
C12K C 0.14081(15) -0.07382(15) 0.3395(3)
O4K O 0.09008(11) -0.05351(11) 0.3861(2)
C11K C 0.16702(17) -0.11774(14) 0.3908(3)
C10K C 0.21641(19) -0.13861(16) 0.3395(4)
C9K C 0.23830(19) -0.11599(17) 0.2406(3)
O3K O 0.28595(16) -0.13765(15) 0.1874(3)
C14K C 0.21219(17) -0.07153(15) 0.1917(3)
H8K H 0.2279 -0.0561 0.1251
H7K H 0.2348 -0.1683 0.3726
C15K C 0.1438(3) -0.1427(2) 0.5000
C11D C 0.16702(17) -0.11774(14) 0.6092(3)
C10D C 0.21641(19) -0.13861(16) 0.6605(4)
C9D C 0.23830(19) -0.11599(17) 0.7594(3)
O3D O 0.28595(16) -0.13765(15) 0.8126(3)
C14D C 0.21219(17) -0.07153(15) 0.8083(3)
C13D C 0.16307(16) -0.04981(14) 0.7593(3)
C12D C 0.14081(15) -0.07382(15) 0.6605(3)
O4D O 0.09008(11) -0.05351(11) 0.6139(2)
C16D C 0.1367(2) 0.0000 0.8109(4)
C13J C 0.16307(16) 0.04981(14) 0.7593(3)
C12J C 0.14081(15) 0.07382(15) 0.6605(3)
O4J O 0.09008(11) 0.05351(11) 0.6139(2)
C11J C 0.16702(17) 0.11774(14) 0.6092(3)
C10J C 0.21641(19) 0.13861(16) 0.6605(4)
C9J C 0.23830(19) 0.11599(17) 0.7594(3)
O3J O 0.28595(16) 0.13765(15) 0.8126(3)
C14J C 0.21219(17) 0.07153(15) 0.8083(3)
H8J H 0.2279 0.0561 0.8749
H7J H 0.2348 0.1683 0.6274
H11D H 0.0952 0.0000 0.7966
H12D H 0.1428 0.0000 0.8942
H8D H 0.2279 -0.0561 0.8749
H7D H 0.2348 -0.1683 0.6274
H9K H 0.1532 -0.1809 0.5000
H10K H 0.1019 -0.1395 0.5000
O5 O 0.0000 0.4017(10) 0.5000
O6 O 0.3989(9) 0.0000 0.0000
O7 O 0.0000 0.2747(8) 0.0000
O8 O 0.2646(8) 0.0000 0.5000
O9 O 0.1036(3) 0.3412(3) 0.5000
O10 O 0.3334(3) 0.0953(3) 0.0000
O11? O 0.0000 0.3373(13) 0.067(9)
O12? O 0.0562(12) 0.3530(13) 0.0000
O13? O 0.3307(12) 0.0000 0.575(8)
O14? O 0.3453(14) 0.0521(16) 0.5000
loop_
_geom_bond_atom_site_label_1
_geom_bond_atom_site_label_2
_geom_bond_site_symmetry_1
_geom_bond_site_symmetry_2
O1 C1 1_555 1_555
O2 C4 1_555 1_555
C1 C2 1_555 1_555
C2 H1 1_555 1_555
C3 C2 1_555 1_555
C4 C3 1_555 1_555
C5 C4 1_555 1_555
C6 C1 1_555 1_555
H2 C6 1_555 1_555
C7 C3 1_555 1_555
H3 C7 1_555 1_555
H4 C7 1_555 1_555
C8 C5 1_555 1_555
H5 C8 1_555 1_555
H6 C8 1_555 1_555
O3 C9 1_555 1_555
O4 C12 1_555 1_555
C9 C10 1_555 1_555
C10 H7 1_555 1_555
C11 C10 1_555 1_555
C12 C11 1_555 1_555
C13 C12 1_555 1_555
C14 C9 1_555 1_555
H8 C14 1_555 1_555
C15 C11 1_555 1_555
H9 C15 1_555 1_555
H10 C15 1_555 1_555
C16 C13 1_555 1_555
H11 C16 1_555 1_555
H12 C16 1_555 1_555
C5J C8 1_555 1_555
C4J C5J 1_555 1_555
O2J C4J 1_555 1_555
C3J C4J 1_555 1_555
C2J C3J 1_555 1_555
C1J C2J 1_555 1_555
O1J C1J 1_555 1_555
C6J C5J 1_555 1_555
H2J C6J 1_555 1_555
H1J C2J 1_555 1_555
C7J C3J 1_555 1_555
C3C C7J 1_555 1_555
C2C C3C 1_555 1_555
C1C C2C 1_555 1_555
O1C C1C 1_555 1_555
C6C C1C 1_555 1_555
C5C C6C 1_555 1_555
C4C C3C 1_555 1_555
O2C C4C 1_555 1_555
C8C C5C 1_555 1_555
C5L C8C 1_555 1_555
C4L C5L 1_555 1_555
O2L C4L 1_555 1_555
C3L C7 1_555 1_555
C2L C3L 1_555 1_555
C1L C2L 1_555 1_555
O1L C1L 1_555 1_555
C6L C5L 1_555 1_555
H2L C6L 1_555 1_555
H1L C2L 1_555 1_555
H5C C8C 1_555 1_555
H6C C8C 1_555 1_555
H2C C6C 1_555 1_555
H1C C2C 1_555 1_555
H3J C7J 1_555 1_555
H4J C7J 1_555 1_555
C13K C16 1_555 1_555
C12K C13K 1_555 1_555
O4K C12K 1_555 1_555
C11K C12K 1_555 1_555
C10K C11K 1_555 1_555
C9K C10K 1_555 1_555
O3K C9K 1_555 1_555
C14K C13K 1_555 1_555
H8K C14K 1_555 1_555
H7K C10K 1_555 1_555
C15K C11K 1_555 1_555
C11D C15K 1_555 1_555
C10D C11D 1_555 1_555
C9D C10D 1_555 1_555
O3D C9D 1_555 1_555
C14D C9D 1_555 1_555
C13D C14D 1_555 1_555
C12D C11D 1_555 1_555
O4D C12D 1_555 1_555
C16D C13D 1_555 1_555
C13J C16D 1_555 1_555
C12J C13J 1_555 1_555
O4J C12J 1_555 1_555
C11J C15 1_555 1_555
C10J C11J 1_555 1_555
C9J C10J 1_555 1_555
O3J C9J 1_555 1_555
C14J C13J 1_555 1_555
H8J C14J 1_555 1_555
H7J C10J 1_555 1_555
H11D C16D 1_555 1_555
H12D C16D 1_555 1_555
H8D C14D 1_555 1_555
H7D C10D 1_555 1_555
H9K C15K 1_555 1_555
H10K C15K 1_555 1_555
C5 C6 1_555 1_555
C13 C14 1_555 1_555
C1J C6J 1_555 1_555
C5C C4C 1_555 1_555
C4L C3L 1_555 1_555
C1L C6L 1_555 1_555
C9K C14K 1_555 1_555
C13D C12D 1_555 1_555
C12J C11J 1_555 1_555
C9J C14J 1_555 1_555

#END
