
#######################################################################
#
#                 Cambridge Crystallographic Data Centre
#                                CCDC 
#
#######################################################################
#
# If this CIF has been generated from an entry in the Cambridge 
# Structural Database, then it will include bibliographic, chemical, 
# crystal, experimental, refinement or atomic coordinate data resulting 
# from the CCDC's data processing and validation procedures.
#
#######################################################################

data_TIFYIS
_chemical_formula_moiety         'C14 H21 N1 O1'
_chemical_name_systematic        (1S,2R)-2-(Benzylamino)cyclohexylmethanol
_symmetry_cell_setting           orthorhombic
_symmetry_space_group_name_H-M   'P 21 21 21'
_symmetry_Int_Tables_number      19
_space_group_name_Hall           'P 2ac 2ab'
loop_
_symmetry_equiv_pos_site_id
_symmetry_equiv_pos_as_xyz
1 x,y,z
2 1/2-x,-y,1/2+z
3 1/2+x,1/2-y,-z
4 -x,1/2+y,1/2-z
_cell_length_a                   10.182(7)
_cell_length_b                   22.8725(10)
_cell_length_c                   5.3207(10)
_cell_angle_alpha                90
_cell_angle_beta                 90
_cell_angle_gamma                90
_cell_volume                     1239.13
_exptl_crystal_colour            colorless
_exptl_crystal_description       plate
_cell_formula_units_Z            4
loop_
_atom_site_label
_atom_site_type_symbol
_atom_site_fract_x
_atom_site_fract_y
_atom_site_fract_z
O1 O 0.8237(2) 0.53679(10) 0.7073(5)
N1 N 0.6783(2) 0.59064(11) 0.1882(6)
C1 C 0.8813(3) 0.61329(14) 0.4210(6)
C2 C 0.7370(3) 0.62965(12) 0.3772(6)
C3 C 0.7303(4) 0.69527(13) 0.3146(8)
C4 C 0.8114(5) 0.71032(17) 0.0850(8)
C5 C 0.9546(5) 0.69314(18) 0.1241(9)
C6 C 0.9675(4) 0.62898(17) 0.1944(8)
C7 C 0.9010(3) 0.54985(14) 0.4932(7)
C8 C 0.5433(4) 0.60582(15) 0.1142(7)
C9 C 0.4455(3) 0.60062(14) 0.3269(7)
C10 C 0.4286(3) 0.54845(15) 0.4580(7)
C11 C 0.3355(3) 0.54291(17) 0.6416(8)
C12 C 0.2568(3) 0.58960(18) 0.7046(8)
C13 C 0.2730(4) 0.64143(18) 0.5803(10)
C14 C 0.3660(4) 0.64722(17) 0.3938(10)
H1 H 0.91230 0.63690 0.56270
H2 H 0.717(3) 0.5862(14) 0.038(7)
H3 H 0.820(3) 0.5029(17) 0.730(7)
H4 H 0.68990 0.62360 0.53570
H5 H 0.63950 0.70620 0.28510
H6 H 0.76200 0.71760 0.45720
H7 H 0.80570 0.75200 0.05270
H8 H 0.77660 0.68990 -0.06020
H9 H 1.00350 0.70060 -0.02900
H10 H 0.99220 0.71700 0.25650
H11 H 1.05850 0.62040 0.23360
H12 H 0.94210 0.60500 0.05190
H13 H 0.87560 0.52480 0.35450
H14 H 0.99300 0.54280 0.53000
H15 H 0.51610 0.58030 -0.02190
H16 H 0.54220 0.64560 0.05150
H17 H 0.48190 0.51660 0.41970
H18 H 0.32530 0.50740 0.72450
H19 H 0.19360 0.58590 0.82980
H20 H 0.22040 0.67320 0.62220
H21 H 0.37550 0.68290 0.31190
loop_
_geom_bond_atom_site_label_1
_geom_bond_atom_site_label_2
_geom_bond_site_symmetry_1
_geom_bond_site_symmetry_2
O1 C7 1_555 1_555
N1 C2 1_555 1_555
C1 C2 1_555 1_555
C2 C3 1_555 1_555
C3 C4 1_555 1_555
C4 C5 1_555 1_555
C5 C6 1_555 1_555
C6 C1 1_555 1_555
C7 C1 1_555 1_555
C8 N1 1_555 1_555
C9 C8 1_555 1_555
C10 C9 1_555 1_555
C11 C10 1_555 1_555
C12 C11 1_555 1_555
C13 C12 1_555 1_555
C14 C9 1_555 1_555
H1 C1 1_555 1_555
H2 N1 1_555 1_555
H3 O1 1_555 1_555
H4 C2 1_555 1_555
H5 C3 1_555 1_555
H6 C3 1_555 1_555
H7 C4 1_555 1_555
H8 C4 1_555 1_555
H9 C5 1_555 1_555
H10 C5 1_555 1_555
H11 C6 1_555 1_555
H12 C6 1_555 1_555
H13 C7 1_555 1_555
H14 C7 1_555 1_555
H15 C8 1_555 1_555
H16 C8 1_555 1_555
H17 C10 1_555 1_555
H18 C11 1_555 1_555
H19 C12 1_555 1_555
H20 C13 1_555 1_555
H21 C14 1_555 1_555
C13 C14 1_555 1_555

#END
