
#######################################################################
#
#                 Cambridge Crystallographic Data Centre
#                                CCDC 
#
#######################################################################
#
# If this CIF has been generated from an entry in the Cambridge 
# Structural Database, then it will include bibliographic, chemical, 
# crystal, experimental, refinement or atomic coordinate data resulting 
# from the CCDC's data processing and validation procedures.
#
#######################################################################

data_TIGGEY
_chemical_formula_moiety         'C25 H17 Cl1 F2 O4,C1 H1 Cl3'
_chemical_name_systematic        
"ethyl [2'-(4-chlorophenyl)-4,4'-dioxo-4'H-spiro[cyclohexa-2,5-diene-1,1'-naphthalen]-3'-yl](difluoro)acetate chloroform solvate"
_symmetry_cell_setting           triclinic
_symmetry_space_group_name_H-M   'P -1'
_symmetry_Int_Tables_number      2
_space_group_name_Hall           '-P 1'
loop_
_symmetry_equiv_pos_site_id
_symmetry_equiv_pos_as_xyz
1 x,y,z
2 -x,-y,-z
_cell_length_a                   8.6326(11)
_cell_length_b                   13.1512(18)
_cell_length_c                   13.2015(18)
_cell_angle_alpha                68.692(9)
_cell_angle_beta                 71.206(9)
_cell_angle_gamma                87.462(9)
_cell_volume                     1317.34
_exptl_crystal_colour            colorless
_exptl_crystal_description       needle
_cell_formula_units_Z            2
loop_
_atom_site_label
_atom_site_type_symbol
_atom_site_fract_x
_atom_site_fract_y
_atom_site_fract_z
C1 C 0.9941(17) 0.8341(17) 0.4989(15)
H1 H 1.0414 0.8626 0.5407
H2 H 1.0360 0.8785 0.4183
H3 H 1.0221 0.7602 0.5103
C2 C 0.8419(14) 0.8354(12) 0.5342(11)
H4 H 0.8155 0.9099 0.5255
H5 H 0.8015 0.7910 0.6158
C3 C 0.6259(8) 0.7269(5) 0.5446(5)
C4 C 0.5343(7) 0.7024(4) 0.4733(4)
C5 C 0.6329(6) 0.6694(4) 0.3752(4)
C6 C 0.7097(6) 0.6565(4) 0.1796(4)
C7 C 0.6071(6) 0.6983(4) 0.2742(4)
C8 C 0.7558(6) 0.5924(4) 0.4048(5)
C9 C 0.8578(6) 0.5981(4) 0.2039(4)
C10 C 0.8731(6) 0.5617(4) 0.3135(4)
C11 C 0.4722(6) 0.7648(4) 0.2440(4)
C12 C 0.4980(7) 0.8767(4) 0.1825(5)
H6 H 0.6003 0.9124 0.1623
C13 C 0.3733(7) 0.9362(5) 0.1507(5)
H7 H 0.3909 1.0115 0.1102
C14 C 0.2242(7) 0.8824(5) 0.1800(5)
C15 C 0.1957(7) 0.7726(5) 0.2406(6)
H8 H 0.0935 0.7373 0.2598
C16 C 0.3201(6) 0.7134(5) 0.2738(5)
H9 H 0.3003 0.6385 0.3164
C17 C 1.1175(6) 0.4780(5) 0.2484(6)
H10 H 1.2040 0.4372 0.2632
C18 C 0.9753(7) 0.5728(5) 0.1180(5)
H11 H 0.9661 0.5952 0.0449
C19 C 1.1051(7) 0.5150(5) 0.1399(5)
H12 H 1.1849 0.5007 0.0809
C20 C 1.0033(6) 0.5012(4) 0.3342(5)
H13 H 1.0125 0.4762 0.4074
C21 C 0.5995(6) 0.5716(4) 0.1773(4)
H14 H 0.5536 0.5111 0.2445
C22 C 0.7320(7) 0.7577(5) -0.0262(4)
H15 H 0.7743 0.8180 -0.0942
C23 C 0.5656(6) 0.5796(5) 0.0840(5)
H16 H 0.4997 0.5235 0.0876
C24 C 0.6268(7) 0.6721(6) -0.0233(5)
C25 C 0.7686(6) 0.7515(4) 0.0658(4)
H17 H 0.8342 0.8089 0.0600
O1 O 0.7599(5) 0.5585(3) 0.5028(3)
O2 O 0.5947(7) 0.6772(5) -0.1087(4)
O3 O 0.5809(6) 0.6918(4) 0.6470(4)
O4 O 0.7554(6) 0.7955(4) 0.4756(4)
F1 F 0.4550(4) 0.7943(3) 0.4381(3)
F2 F 0.4117(4) 0.6238(3) 0.5474(3)
Cl1 Cl 0.0650(2) 0.95572(16) 0.13931(19)
C26 C 0.6768(8) 0.1916(6) 0.2103(5)
H18 H 0.5809 0.2343 0.2108
Cl2 Cl 0.7442(3) 0.1669(2) 0.0816(2)
Cl3 Cl 0.8296(3) 0.2673(3) 0.2179(2)
Cl4 Cl 0.6182(4) 0.0683(2) 0.3263(2)
loop_
_geom_bond_atom_site_label_1
_geom_bond_atom_site_label_2
_geom_bond_site_symmetry_1
_geom_bond_site_symmetry_2
C1 H1 1_555 1_555
H2 C1 1_555 1_555
H3 C1 1_555 1_555
C2 C1 1_555 1_555
H4 C2 1_555 1_555
H5 C2 1_555 1_555
C3 C4 1_555 1_555
C4 C5 1_555 1_555
C5 C7 1_555 1_555
C6 C7 1_555 1_555
C7 C11 1_555 1_555
C8 C5 1_555 1_555
C9 C6 1_555 1_555
C10 C8 1_555 1_555
C11 C12 1_555 1_555
C12 H6 1_555 1_555
C13 C12 1_555 1_555
H7 C13 1_555 1_555
C14 C13 1_555 1_555
C15 C14 1_555 1_555
H8 C15 1_555 1_555
C16 C11 1_555 1_555
H9 C16 1_555 1_555
C17 H10 1_555 1_555
C18 C9 1_555 1_555
H11 C18 1_555 1_555
C19 C17 1_555 1_555
H12 C19 1_555 1_555
C20 C10 1_555 1_555
H13 C20 1_555 1_555
C21 C6 1_555 1_555
H14 C21 1_555 1_555
C22 H15 1_555 1_555
C23 C21 1_555 1_555
H16 C23 1_555 1_555
C24 C22 1_555 1_555
C25 C6 1_555 1_555
H17 C25 1_555 1_555
O1 C8 1_555 1_555
O2 C24 1_555 1_555
O3 C3 1_555 1_555
O4 C2 1_555 1_555
F1 C4 1_555 1_555
F2 C4 1_555 1_555
Cl1 C14 1_555 1_555
C26 H18 1_555 1_555
Cl2 C26 1_555 1_555
Cl3 C26 1_555 1_555
Cl4 C26 1_555 1_555
C3 O4 1_555 1_555
C9 C10 1_555 1_555
C15 C16 1_555 1_555
C17 C20 1_555 1_555
C18 C19 1_555 1_555
C22 C25 1_555 1_555
C23 C24 1_555 1_555

#END
