
#######################################################################
#
#                 Cambridge Crystallographic Data Centre
#                                CCDC 
#
#######################################################################
#
# If this CIF has been generated from an entry in the Cambridge 
# Structural Database, then it will include bibliographic, chemical, 
# crystal, experimental, refinement or atomic coordinate data resulting 
# from the CCDC's data processing and validation procedures.
#
#######################################################################

data_TIGMEE
_chemical_formula_moiety         'C24 H26 F1 N1 O1'
_chemical_name_systematic        
3-[(4-t-butylphenyl)methylidene]-5-[(4-fluorophenyl)methylidene]-1-methylpiperidin-4-one
_symmetry_cell_setting           monoclinic
_symmetry_space_group_name_H-M   'P 21/c'
_symmetry_Int_Tables_number      14
_space_group_name_Hall           '-P 2ybc'
loop_
_symmetry_equiv_pos_site_id
_symmetry_equiv_pos_as_xyz
1 x,y,z
2 -x,1/2+y,1/2-z
3 -x,-y,-z
4 x,1/2-y,1/2+z
_cell_length_a                   13.4219(4)
_cell_length_b                   8.3679(3)
_cell_length_c                   18.5974(7)
_cell_angle_alpha                90
_cell_angle_beta                 98.348(3)
_cell_angle_gamma                90
_cell_volume                     2066.6
_exptl_crystal_colour            'pale yellow'
_exptl_crystal_description       block
_cell_formula_units_Z            4
loop_
_atom_site_label
_atom_site_type_symbol
_atom_site_fract_x
_atom_site_fract_y
_atom_site_fract_z
C1 C 0.01006(13) 0.0592(2) 0.17854(9)
C2 C 0.11752(14) 0.0518(2) 0.16597(10)
C3 C 0.19730(13) 0.0621(2) 0.23019(9)
C4 C 0.16431(13) 0.0808(2) 0.30345(9)
H1 H 0.2154 0.0371 0.3405
H2 H 0.1566 0.1934 0.3137
C5 C -0.01030(13) 0.0737(2) 0.25540(10)
H3 H -0.0151 0.1857 0.2678
H4 H -0.0742 0.0234 0.2599
C6 C -0.06101(14) 0.0486(2) 0.12008(10)
H5 H -0.0369 0.0347 0.0761
C7 C -0.17038(13) 0.0558(2) 0.11504(9)
C8 C -0.22864(15) -0.0255(2) 0.05828(10)
H6 H -0.1969 -0.0827 0.0252
C9 C -0.33196(15) -0.0227(3) 0.05037(11)
H7 H -0.3702 -0.0785 0.0128
C10 C -0.37731(14) 0.0637(2) 0.09868(11)
C11 C -0.32444(14) 0.1479(2) 0.15435(10)
H8 H -0.3574 0.2070 0.1861
C12 C -0.22069(14) 0.1430(2) 0.16238(10)
H9 H -0.1835 0.1993 0.2003
C13 C 0.29299(13) 0.0472(2) 0.21867(10)
H10 H 0.3013 0.0328 0.1703
C14 C 0.38634(12) 0.04997(19) 0.26963(9)
C15 C 0.46775(13) -0.0381(2) 0.25342(10)
H11 H 0.4613 -0.0956 0.2102
C16 C 0.55769(13) -0.0427(2) 0.29938(10)
H12 H 0.6096 -0.1057 0.2869
C17 C 0.57350(12) 0.04382(19) 0.36380(9)
C18 C 0.49242(13) 0.1352(2) 0.37896(10)
H13 H 0.4999 0.1964 0.4211
C19 C 0.40119(13) 0.1383(2) 0.33365(10)
H14 H 0.3489 0.2005 0.3462
C20 C 0.04314(15) -0.0010(3) 0.37904(11)
H15 H 0.0375 0.1072 0.3950
H16 H 0.0947 -0.0550 0.4112
H17 H -0.0200 -0.0550 0.3792
C21 C 0.67402(14) 0.0415(2) 0.41374(10)
C22 C 0.7442(4) -0.1001(7) 0.3991(3)
H18 H 0.7099 -0.1995 0.4035
H19 H 0.8045 -0.0971 0.4338
H20 H 0.7613 -0.0908 0.3509
C23 C 0.6581(4) 0.0238(9) 0.4940(2)
H21 H 0.6179 0.1111 0.5071
H22 H 0.7222 0.0245 0.5246
H23 H 0.6242 -0.0752 0.5002
C24 C 0.7321(4) 0.1956(7) 0.4047(3)
H24 H 0.7449 0.2042 0.3554
H25 H 0.7949 0.1937 0.4368
H26 H 0.6929 0.2856 0.4162
F1 F -0.47961(9) 0.06919(19) 0.08984(8)
N1 N 0.06919(10) -0.00149(18) 0.30561(7)
O1 O 0.13921(11) 0.0391(3) 0.10479(8)
C25? C 0.6850(6) -0.1217(7) 0.4461(4)
H27? H 0.7493 -0.1306 0.4761
H28? H 0.6804 -0.1998 0.4080
H29? H 0.6324 -0.1398 0.4751
C26? C 0.6760(5) 0.1680(9) 0.4721(4)
H30? H 0.6252 0.1448 0.5020
H31? H 0.6630 0.2708 0.4498
H32? H 0.7409 0.1688 0.5016
C27? C 0.7554(4) 0.0798(13) 0.3666(4)
H33? H 0.8190 0.0935 0.3971
H34? H 0.7381 0.1764 0.3398
H35? H 0.7603 -0.0066 0.3333
loop_
_geom_bond_atom_site_label_1
_geom_bond_atom_site_label_2
_geom_bond_site_symmetry_1
_geom_bond_site_symmetry_2
C1 C2 1_555 1_555
C2 C3 1_555 1_555
C3 C4 1_555 1_555
C4 H1 1_555 1_555
H2 C4 1_555 1_555
C5 C1 1_555 1_555
H3 C5 1_555 1_555
H4 C5 1_555 1_555
C6 C1 1_555 1_555
H5 C6 1_555 1_555
C7 C6 1_555 1_555
C8 C7 1_555 1_555
H6 C8 1_555 1_555
C9 C8 1_555 1_555
H7 C9 1_555 1_555
C10 C9 1_555 1_555
C11 C10 1_555 1_555
H8 C11 1_555 1_555
C12 C7 1_555 1_555
H9 C12 1_555 1_555
C13 C3 1_555 1_555
H10 C13 1_555 1_555
C14 C13 1_555 1_555
C15 C14 1_555 1_555
H11 C15 1_555 1_555
C16 C15 1_555 1_555
H12 C16 1_555 1_555
C17 C16 1_555 1_555
C18 C17 1_555 1_555
H13 C18 1_555 1_555
C19 C14 1_555 1_555
H14 C19 1_555 1_555
C20 H15 1_555 1_555
H16 C20 1_555 1_555
H17 C20 1_555 1_555
C21 C17 1_555 1_555
C22 C21 1_555 1_555
H18 C22 1_555 1_555
H19 C22 1_555 1_555
H20 C22 1_555 1_555
C23 C21 1_555 1_555
H21 C23 1_555 1_555
H22 C23 1_555 1_555
H23 C23 1_555 1_555
C24 C21 1_555 1_555
H24 C24 1_555 1_555
H25 C24 1_555 1_555
H26 C24 1_555 1_555
F1 C10 1_555 1_555
N1 C4 1_555 1_555
O1 C2 1_555 1_555
C5 N1 1_555 1_555
C11 C12 1_555 1_555
C18 C19 1_555 1_555
C20 N1 1_555 1_555

#END
