
#######################################################################
#
#                 Cambridge Crystallographic Data Centre
#                                CCDC 
#
#######################################################################
#
# If this CIF has been generated from an entry in the Cambridge 
# Structural Database, then it will include bibliographic, chemical, 
# crystal, experimental, refinement or atomic coordinate data resulting 
# from the CCDC's data processing and validation procedures.
#
#######################################################################

data_TIGMII
_chemical_formula_moiety         'C26 H31 N1 O3'
_chemical_name_systematic        
3-[(4-t-butylphenyl)methylidene]-5-[(3,5-dimethoxyphenyl)methylidene]-1-methylpiperidin-4-one
_symmetry_cell_setting           monoclinic
_symmetry_space_group_name_H-M   'P 21/c'
_symmetry_Int_Tables_number      14
_space_group_name_Hall           '-P 2ybc'
loop_
_symmetry_equiv_pos_site_id
_symmetry_equiv_pos_as_xyz
1 x,y,z
2 -x,1/2+y,1/2-z
3 -x,-y,-z
4 x,1/2-y,1/2+z
_cell_length_a                   19.1378(9)
_cell_length_b                   16.2788(8)
_cell_length_c                   7.5525(4)
_cell_angle_alpha                90
_cell_angle_beta                 98.386(5)
_cell_angle_gamma                90
_cell_volume                     2327.75
_exptl_crystal_colour            'pale yellow'
_exptl_crystal_description       block
_cell_formula_units_Z            4
loop_
_atom_site_label
_atom_site_type_symbol
_atom_site_fract_x
_atom_site_fract_y
_atom_site_fract_z
C1 C 1.10312(8) 0.74376(10) 0.5015(2)
C2 C 1.05524(8) 0.67263(10) 0.4555(2)
C3 C 0.97825(8) 0.68992(9) 0.40452(19)
C4 C 0.95536(8) 0.77779(9) 0.3912(2)
H1 H 0.9126 0.7826 0.3055
H2 H 0.9448 0.7962 0.5066
C5 C 1.07319(8) 0.82826(10) 0.4694(2)
H3 H 1.0617 0.8501 0.5811
H4 H 1.1087 0.8636 0.4302
C6 C 1.17117(8) 0.72718(11) 0.5650(2)
H5 H 1.1824 0.6717 0.5776
C7 C 1.23003(8) 0.78401(11) 0.6171(2)
C8 C 1.29785(8) 0.75479(12) 0.6092(2)
H6 H 1.3044 0.7007 0.5755
C9 C 1.35546(9) 0.80611(12) 0.6515(3)
C10 C 1.34641(9) 0.88608(12) 0.7031(3)
H7 H 1.3853 0.9205 0.7301
C11 C 1.27954(9) 0.91491(12) 0.7144(2)
C12 C 1.22146(9) 0.86452(12) 0.6731(2)
H8 H 1.1766 0.8843 0.6828
C13 C 0.93464(8) 0.62534(10) 0.3737(2)
H9 H 0.9569 0.5744 0.3795
C14 C 0.85744(8) 0.62236(9) 0.3324(2)
C15 C 0.82628(9) 0.55118(11) 0.2573(3)
H10 H 0.8549 0.5081 0.2309
C16 C 0.75383(10) 0.54255(12) 0.2206(3)
H11 H 0.7351 0.4942 0.1680
C17 C 0.70863(9) 0.60341(11) 0.2595(3)
C18 C 0.73948(9) 0.67383(11) 0.3373(3)
H12 H 0.7105 0.7162 0.3661
C19 C 0.81192(9) 0.68365(10) 0.3739(3)
H13 H 0.8305 0.7320 0.4272
C20 C 1.44015(11) 0.69923(15) 0.6464(4)
H14 H 1.4244 0.6734 0.7477
H15 H 1.4903 0.6921 0.6529
H16 H 1.4167 0.6746 0.5382
C21 C 1.20856(12) 1.02983(15) 0.7716(4)
H17 H 1.1814 1.0251 0.6547
H18 H 1.2137 1.0868 0.8039
H19 H 1.1848 1.0015 0.8570
C22 C 0.98409(10) 0.91333(10) 0.3108(3)
H20 H 0.9421 0.9139 0.2239
H21 H 1.0196 0.9471 0.2696
H22 H 0.9734 0.9343 0.4226
C23 C 0.6267(4) 0.5914(4) 0.2172(12)
C24 C 0.6088(4) 0.5030(5) 0.2497(13)
H23 H 0.5585 0.4964 0.2338
H24 H 0.6283 0.4878 0.3696
H25 H 0.6284 0.4684 0.1663
C25 C 0.6040(4) 0.6108(7) 0.0215(13)
H26 H 0.5547 0.5987 -0.0104
H27 H 0.6310 0.5781 -0.0500
H28 H 0.6121 0.6680 0.0006
C26 C 0.5939(4) 0.6470(10) 0.344(2)
H29 H 0.6063 0.7030 0.3242
H30 H 0.6112 0.6319 0.4654
H31 H 0.5435 0.6412 0.3226
N1 N 1.00996(7) 0.82979(8) 0.33549(17)
O1 O 1.07785(6) 0.60222(7) 0.45855(19)
O2 O 1.42411(7) 0.78390(10) 0.6466(3)
O3 O 1.27653(7) 0.99442(9) 0.7703(2)
C27? C 0.6324(9) 0.5969(8) 0.2341(17)
C28? C 0.6033(10) 0.5143(14) 0.163(6)
H32? H 0.6232 0.5004 0.0572
H33? H 0.5528 0.5177 0.1339
H34? H 0.6155 0.4728 0.2523
C29? C 0.6002(7) 0.6620(19) 0.099(4)
H35? H 0.6128 0.7158 0.1452
H36? H 0.5497 0.6565 0.0801
H37? H 0.6180 0.6544 -0.0122
C30? C 0.5908(9) 0.6165(15) 0.386(2)
H38? H 0.6026 0.5776 0.4809
H39? H 0.5411 0.6132 0.3423
H40? H 0.6022 0.6709 0.4293
loop_
_geom_bond_atom_site_label_1
_geom_bond_atom_site_label_2
_geom_bond_site_symmetry_1
_geom_bond_site_symmetry_2
C1 C2 1_555 1_555
C2 C3 1_555 1_555
C3 C4 1_555 1_555
C4 H1 1_555 1_555
H2 C4 1_555 1_555
C5 C1 1_555 1_555
H3 C5 1_555 1_555
H4 C5 1_555 1_555
C6 C1 1_555 1_555
H5 C6 1_555 1_555
C7 C6 1_555 1_555
C8 C7 1_555 1_555
H6 C8 1_555 1_555
C9 C8 1_555 1_555
C10 C9 1_555 1_555
H7 C10 1_555 1_555
C11 C10 1_555 1_555
C12 C7 1_555 1_555
H8 C12 1_555 1_555
C13 C3 1_555 1_555
H9 C13 1_555 1_555
C14 C13 1_555 1_555
C15 C14 1_555 1_555
H10 C15 1_555 1_555
C16 C15 1_555 1_555
H11 C16 1_555 1_555
C17 C16 1_555 1_555
C18 C17 1_555 1_555
H12 C18 1_555 1_555
C19 C14 1_555 1_555
H13 C19 1_555 1_555
C20 H14 1_555 1_555
H15 C20 1_555 1_555
H16 C20 1_555 1_555
C21 H17 1_555 1_555
H18 C21 1_555 1_555
H19 C21 1_555 1_555
C22 H20 1_555 1_555
H21 C22 1_555 1_555
H22 C22 1_555 1_555
C23 C17 1_555 1_555
C24 C23 1_555 1_555
H23 C24 1_555 1_555
H24 C24 1_555 1_555
H25 C24 1_555 1_555
C25 C23 1_555 1_555
H26 C25 1_555 1_555
H27 C25 1_555 1_555
H28 C25 1_555 1_555
C26 C23 1_555 1_555
H29 C26 1_555 1_555
H30 C26 1_555 1_555
H31 C26 1_555 1_555
N1 C4 1_555 1_555
O1 C2 1_555 1_555
O2 C9 1_555 1_555
O3 C11 1_555 1_555
C5 N1 1_555 1_555
C11 C12 1_555 1_555
C18 C19 1_555 1_555
C20 O2 1_555 1_555
C21 O3 1_555 1_555
C22 N1 1_555 1_555

#END
