
#######################################################################
#
#                 Cambridge Crystallographic Data Centre
#                                CCDC 
#
#######################################################################
#
# If this CIF has been generated from an entry in the Cambridge 
# Structural Database, then it will include bibliographic, chemical, 
# crystal, experimental, refinement or atomic coordinate data resulting 
# from the CCDC's data processing and validation procedures.
#
#######################################################################

data_TIGNUV
_chemical_formula_moiety         'C22 H24 N2 O4'
_chemical_name_systematic        
'2-[5-(hydroxymethyl)-2-methyl-5H-pyrazolo[1,5-a][3,1]benzoxazin-5-yl]-2-(5-methoxy-2-methylphenyl)ethan-1-ol unknown solvate'
_symmetry_cell_setting           monoclinic
_symmetry_space_group_name_H-M   'P 21/n'
_symmetry_Int_Tables_number      14
_space_group_name_Hall           '-P 2yn'
loop_
_symmetry_equiv_pos_site_id
_symmetry_equiv_pos_as_xyz
1 x,y,z
2 1/2-x,1/2+y,1/2-z
3 -x,-y,-z
4 1/2+x,1/2-y,1/2+z
_cell_length_a                   7.4393(18)
_cell_length_b                   23.634(6)
_cell_length_c                   14.486(4)
_cell_angle_alpha                90
_cell_angle_beta                 91.914(6)
_cell_angle_gamma                90
_cell_volume                     2545.51
_exptl_crystal_colour            colorless
_exptl_crystal_description       plate
_cell_formula_units_Z            4
loop_
_atom_site_label
_atom_site_type_symbol
_atom_site_fract_x
_atom_site_fract_y
_atom_site_fract_z
O1 O 0.6216(5) 0.65041(17) 0.6866(3)
H1 H 0.6213 0.6177 0.7093
O2 O 0.2511(5) 0.76769(16) 0.7834(3)
O3 O -0.0531(5) 0.64642(17) 0.7798(3)
H2 H -0.0319 0.6335 0.8330
O4 O 0.2254(6) 0.7946(2) 0.4479(3)
N1 N 0.1934(7) 0.78608(19) 0.9372(3)
N2 N 0.1608(6) 0.8313(2) 0.9961(3)
C1 C 0.2021(8) 0.8046(2) 0.8481(4)
C2 C 0.2463(7) 0.6912(2) 0.8973(4)
C3 C 0.2371(7) 0.7317(2) 0.9668(4)
C4 C 0.2492(8) 0.6821(3) 0.6265(4)
C5 C 0.2673(7) 0.7192(2) 1.0593(4)
H3 H 0.2601 0.7481 1.1047
C6 C 0.0007(7) 0.7044(2) 0.7768(4)
H4 H -0.0635 0.7265 0.8235
H5 H -0.0287 0.7206 0.7151
C7 C 0.2025(7) 0.7070(2) 0.7969(4)
C8 C 0.2673(8) 0.7334(3) 0.5853(4)
H6 H 0.3167 0.7641 0.6199
C9 C 0.3139(7) 0.6746(3) 0.7280(4)
H7 H 0.2980 0.6336 0.7426
C10 C 0.3082(8) 0.6643(3) 1.0847(4)
H8 H 0.3335 0.6549 1.1476
C11 C 0.1752(9) 0.8597(3) 0.8472(4)
H9 H 0.1740 0.8840 0.7950
C12 C 0.2836(8) 0.6352(2) 0.9243(4)
H10 H 0.2894 0.6060 0.8793
C13 C 0.5141(7) 0.6865(3) 0.7396(4)
H11 H 0.5371 0.7262 0.7216
H12 H 0.5504 0.6823 0.8056
C14 C 0.1832(8) 0.6354(3) 0.5752(4)
C15 C 0.2140(8) 0.7417(3) 0.4917(4)
C16 C 0.1487(9) 0.8752(3) 0.9403(5)
C17 C 0.3116(9) 0.6229(3) 1.0167(4)
H13 H 0.3340 0.5848 1.0345
C18 C 0.1340(9) 0.6449(3) 0.4792(5)
H14 H 0.0866 0.6148 0.4424
C19 C 0.1621(10) 0.5777(3) 0.6125(5)
H15 H 0.2810 0.5613 0.6264
H16 H 0.0975 0.5541 0.5667
H17 H 0.0939 0.5793 0.6691
C20 C 0.1558(9) 0.6970(3) 0.4415(5)
H18 H 0.1289 0.7021 0.3775
C21 C 0.2848(10) 0.8386(3) 0.4982(5)
H19 H 0.2613 0.8738 0.4640
H20 H 0.4144 0.8346 0.5109
H21 H 0.2222 0.8397 0.5566
C22 C 0.1077(11) 0.9321(3) 0.9788(5)
H22 H -0.0217 0.9395 0.9716
H23 H 0.1741 0.9611 0.9455
H24 H 0.1436 0.9332 1.0444
loop_
_geom_bond_atom_site_label_1
_geom_bond_atom_site_label_2
_geom_bond_site_symmetry_1
_geom_bond_site_symmetry_2
O1 H1 1_555 1_555
O2 C1 1_555 1_555
O3 H2 1_555 1_555
O4 C15 1_555 1_555
N1 N2 1_555 1_555
N2 C16 1_555 1_555
C1 N1 1_555 1_555
C2 C3 1_555 1_555
C3 N1 1_555 1_555
C4 C8 1_555 1_555
C5 C3 1_555 1_555
H3 C5 1_555 1_555
C6 O3 1_555 1_555
H4 C6 1_555 1_555
H5 C6 1_555 1_555
C7 O2 1_555 1_555
C8 H6 1_555 1_555
C9 C4 1_555 1_555
H7 C9 1_555 1_555
C10 C5 1_555 1_555
H8 C10 1_555 1_555
C11 C1 1_555 1_555
H9 C11 1_555 1_555
C12 C2 1_555 1_555
H10 C12 1_555 1_555
C13 O1 1_555 1_555
H11 C13 1_555 1_555
H12 C13 1_555 1_555
C14 C4 1_555 1_555
C15 C8 1_555 1_555
C16 C11 1_555 1_555
C17 C10 1_555 1_555
H13 C17 1_555 1_555
C18 C14 1_555 1_555
H14 C18 1_555 1_555
C19 C14 1_555 1_555
H15 C19 1_555 1_555
H16 C19 1_555 1_555
H17 C19 1_555 1_555
C20 C15 1_555 1_555
H18 C20 1_555 1_555
C21 O4 1_555 1_555
H19 C21 1_555 1_555
H20 C21 1_555 1_555
H21 C21 1_555 1_555
C22 C16 1_555 1_555
H22 C22 1_555 1_555
H23 C22 1_555 1_555
H24 C22 1_555 1_555
C2 C7 1_555 1_555
C6 C7 1_555 1_555
C7 C9 1_555 1_555
C9 C13 1_555 1_555
C12 C17 1_555 1_555
C18 C20 1_555 1_555

#END
