
#######################################################################
#
#                 Cambridge Crystallographic Data Centre
#                                CCDC 
#
#######################################################################
#
# If this CIF has been generated from an entry in the Cambridge 
# Structural Database, then it will include bibliographic, chemical, 
# crystal, experimental, refinement or atomic coordinate data resulting 
# from the CCDC's data processing and validation procedures.
#
#######################################################################

data_TIGNIJ
_chemical_formula_moiety         'C34 H32 N2 O5 Se1'
_chemical_name_systematic        
7a-methyl-3-[2-methyl-5-{[(1-methyl-4-oxocyclohexa-2,5-dien-1-yl)oxy]methyl}-3-(phenylselanyl)-5H-pyrazolo[1,5-a][3,1]benzoxazin-5-yl]-2,3,3a,7a-tetrahydro-1-benzofuran-5(4H)-one
_symmetry_cell_setting           triclinic
_symmetry_space_group_name_H-M   'P -1'
_symmetry_Int_Tables_number      2
_space_group_name_Hall           '-P 1'
loop_
_symmetry_equiv_pos_site_id
_symmetry_equiv_pos_as_xyz
1 x,y,z
2 -x,-y,-z
_cell_length_a                   9.8904(17)
_cell_length_b                   11.077(2)
_cell_length_c                   15.324(3)
_cell_angle_alpha                97.272(5)
_cell_angle_beta                 97.647(5)
_cell_angle_gamma                114.678(4)
_cell_volume                     1480.69
_exptl_crystal_colour            colorless
_exptl_crystal_description       block
_cell_formula_units_Z            2
loop_
_atom_site_label
_atom_site_type_symbol
_atom_site_fract_x
_atom_site_fract_y
_atom_site_fract_z
Se1 Se 0.74018(6) 0.77263(6) 0.76586(4)
O1 O 0.4419(4) 0.4615(4) 0.7331(2)
N1 N 0.4124(4) 0.5273(4) 0.8796(3)
N2 N 0.4721(5) 0.6386(4) 0.9477(3)
O2 O 0.1790(6) 0.5078(4) 0.5868(3)
O3 O 0.4774(5) 0.2432(5) 0.7807(3)
C1 C 0.3114(6) 0.3273(5) 0.7195(3)
C2 C 0.4842(6) 0.5536(5) 0.8101(3)
C3 C 0.2836(5) 0.4056(5) 0.8781(3)
C4 C 0.5831(6) 0.7303(5) 0.9201(4)
C5 C 0.9001(6) 0.7248(6) 0.8118(3)
C6 C 0.2010(6) 0.3206(5) 0.6355(3)
H1 H 0.1142 0.2277 0.6196
C7 C 0.2330(6) 0.3082(5) 0.7983(3)
C8 C 0.2696(6) 0.3500(5) 0.5510(3)
H2 H 0.3812 0.4100 0.5710
C9 C 0.8666(7) 0.5906(6) 0.8165(4)
H3 H 0.7647 0.5220 0.7977
C10 C 0.2109(6) 0.3894(6) 0.9479(4)
H4 H 0.2485 0.4588 1.0005
C11 C 0.5989(6) 0.6834(5) 0.8340(3)
C12 C 1.0456(6) 0.8233(6) 0.8365(4)
H5 H 1.0693 0.9135 0.8295
C13 C 0.1030(6) 0.1895(6) 0.7939(4)
H6 H 0.0664 0.1193 0.7418
C14 C 0.1956(7) 0.4306(6) 0.5111(4)
C15 C 0.0820(7) 0.2713(6) 0.9417(4)
H7 H 0.0313 0.2579 0.9907
C16 C 1.1603(7) 0.7898(6) 0.8724(4)
H8 H 1.2608 0.8597 0.8941
O4 O 0.0437(7) 0.0200(5) 0.4028(4)
C17 C 0.0255(6) 0.1712(6) 0.8638(4)
H9 H -0.0655 0.0909 0.8587
C18 C 0.3766(7) 0.2281(7) 0.7010(4)
H10 H 0.2943 0.1343 0.6839
H11 H 0.4317 0.2472 0.6512
C19 C 0.2473(7) 0.2251(6) 0.4854(4)
H12 H 0.2803 0.1683 0.5193
H13 H 0.3144 0.2546 0.4420
C20 C 0.1358(7) 0.4238(7) 0.6499(4)
H14 H 0.0236 0.3764 0.6407
H15 H 0.1768 0.4787 0.7118
C21 C 0.5547(7) 0.1586(7) 0.7758(5)
C22 C 0.9791(7) 0.5580(6) 0.8479(5)
H16 H 0.9556 0.4662 0.8503
C23 C 0.6760(7) 0.8682(6) 0.9780(5)
H17 H 0.6408 0.9321 0.9569
H18 H 0.7832 0.8983 0.9747
H19 H 0.6650 0.8646 1.0404
C24 C 1.1312(7) 0.6590(7) 0.8771(5)
H20 H 1.2105 0.6367 0.8992
C25 C 0.6497(7) 0.1874(7) 0.7089(4)
H21 H 0.7206 0.2792 0.7138
C26 C 0.0864(8) 0.1386(7) 0.4333(4)
C27 C -0.0089(9) 0.2056(9) 0.4220(5)
H22 H -0.1109 0.1538 0.3899
C28 C 0.0377(9) 0.3349(9) 0.4537(5)
H23 H -0.0314 0.3723 0.4402
C29 C 0.2879(11) 0.5304(8) 0.4577(5)
H24 H 0.2294 0.5758 0.4334
H25 H 0.3105 0.4816 0.4082
H26 H 0.3832 0.5982 0.4972
C30 C 0.6527(8) 0.1981(10) 0.8715(5)
H27 H 0.7226 0.2950 0.8847
H28 H 0.7111 0.1453 0.8752
H29 H 0.5865 0.1789 0.9153
C31 C 0.6464(9) 0.0998(10) 0.6436(6)
H30 H 0.7168 0.1250 0.6050
C32 C 0.4414(10) 0.0141(10) 0.7554(7)
H31 H 0.3671 -0.0129 0.7915
C33 C 0.4361(12) -0.0765(12) 0.6932(8)
H32 H 0.3680 -0.1687 0.6899
C34 C 0.5262(13) -0.0443(11) 0.6309(8)
O5 O 0.5266(11) -0.1147(10) 0.5539(8)
loop_
_geom_bond_atom_site_label_1
_geom_bond_atom_site_label_2
_geom_bond_site_symmetry_1
_geom_bond_site_symmetry_2
Se1 C5 1_555 1_555
O1 C1 1_555 1_555
N1 N2 1_555 1_555
N2 C4 1_555 1_555
O2 C14 1_555 1_555
O3 C18 1_555 1_555
C1 C6 1_555 1_555
C2 O1 1_555 1_555
C3 N1 1_555 1_555
C4 C11 1_555 1_555
C5 C9 1_555 1_555
C6 H1 1_555 1_555
C7 C1 1_555 1_555
C8 C6 1_555 1_555
H2 C8 1_555 1_555
C9 H3 1_555 1_555
C10 C3 1_555 1_555
H4 C10 1_555 1_555
C11 Se1 1_555 1_555
C12 C5 1_555 1_555
H5 C12 1_555 1_555
C13 C7 1_555 1_555
H6 C13 1_555 1_555
C14 C8 1_555 1_555
C15 C10 1_555 1_555
H7 C15 1_555 1_555
C16 C12 1_555 1_555
H8 C16 1_555 1_555
O4 C26 1_555 1_555
C17 C13 1_555 1_555
H9 C17 1_555 1_555
C18 C1 1_555 1_555
H10 C18 1_555 1_555
H11 C18 1_555 1_555
C19 C8 1_555 1_555
H12 C19 1_555 1_555
H13 C19 1_555 1_555
C20 O2 1_555 1_555
H14 C20 1_555 1_555
H15 C20 1_555 1_555
C21 O3 1_555 1_555
C22 C9 1_555 1_555
H16 C22 1_555 1_555
C23 C4 1_555 1_555
H17 C23 1_555 1_555
H18 C23 1_555 1_555
H19 C23 1_555 1_555
C24 C16 1_555 1_555
H20 C24 1_555 1_555
C25 C21 1_555 1_555
H21 C25 1_555 1_555
C26 C19 1_555 1_555
C27 C26 1_555 1_555
H22 C27 1_555 1_555
C28 C14 1_555 1_555
H23 C28 1_555 1_555
C29 C14 1_555 1_555
H24 C29 1_555 1_555
H25 C29 1_555 1_555
H26 C29 1_555 1_555
C30 C21 1_555 1_555
H27 C30 1_555 1_555
H28 C30 1_555 1_555
H29 C30 1_555 1_555
C31 C25 1_555 1_555
H30 C31 1_555 1_555
C32 C21 1_555 1_555
H31 C32 1_555 1_555
C33 C32 1_555 1_555
H32 C33 1_555 1_555
C34 C31 1_555 1_555
O5 C34 1_555 1_555
N1 C2 1_555 1_555
C2 C11 1_555 1_555
C3 C7 1_555 1_555
C6 C20 1_555 1_555
C15 C17 1_555 1_555
C22 C24 1_555 1_555
C27 C28 1_555 1_555
C33 C34 1_555 1_555

#END
