
#######################################################################
#
#                 Cambridge Crystallographic Data Centre
#                                CCDC 
#
#######################################################################
#
# If this CIF has been generated from an entry in the Cambridge 
# Structural Database, then it will include bibliographic, chemical, 
# crystal, experimental, refinement or atomic coordinate data resulting 
# from the CCDC's data processing and validation procedures.
#
#######################################################################

data_TIGNEF
_chemical_formula_moiety         'C28 H28 N2 O5'
_chemical_name_systematic        
7a-methyl-3-(2-methyl-5-{[(1-methyl-4-oxocyclohexa-2,5-dien-1-yl)oxy]methyl}-5H-pyrazolo[1,5-a][3,1]benzoxazin-5-yl)-2,3,3a,7a-tetrahydro-1-benzofuran-5(4H)-one
_symmetry_cell_setting           triclinic
_symmetry_space_group_name_H-M   'P -1'
_symmetry_Int_Tables_number      2
_space_group_name_Hall           '-P 1'
loop_
_symmetry_equiv_pos_site_id
_symmetry_equiv_pos_as_xyz
1 x,y,z
2 -x,-y,-z
_cell_length_a                   8.2487(15)
_cell_length_b                   12.229(3)
_cell_length_c                   12.395(3)
_cell_angle_alpha                77.823(5)
_cell_angle_beta                 76.023(6)
_cell_angle_gamma                84.552(5)
_cell_volume                     1184.73
_exptl_crystal_colour            colorless
_exptl_crystal_description       block
_cell_formula_units_Z            2
loop_
_atom_site_label
_atom_site_type_symbol
_atom_site_fract_x
_atom_site_fract_y
_atom_site_fract_z
O1 O 0.8003(3) 0.69759(18) 0.29253(17)
O2 O 0.5399(3) 0.86830(17) 0.26126(17)
O3 O 0.7212(3) 0.75129(19) -0.07184(18)
N1 N 0.7076(3) 0.5247(2) 0.4032(2)
N2 N 0.7141(3) 0.4561(2) 0.5055(2)
O4 O -0.0435(3) 0.8547(2) 0.5601(2)
O5 O 1.2400(4) 0.8977(3) 0.0221(2)
C1 C 0.6544(4) 0.4935(3) 0.3166(2)
C2 C 0.6493(4) 0.5749(3) 0.2199(2)
C3 C 0.7706(4) 0.7673(3) 0.1068(2)
H1 H 0.8143 0.8327 0.1241
C4 C 0.4001(4) 0.9272(3) 0.3219(3)
C5 C 0.6825(4) 0.6955(3) 0.2204(2)
C6 C 0.7743(4) 0.6236(3) 0.3927(3)
C7 C 0.9212(4) 0.7035(3) 0.0399(2)
H2 H 0.9086 0.6220 0.0681
C8 C 0.6079(4) 0.3848(3) 0.3264(3)
H3 H 0.6093 0.3314 0.3929
C9 C 0.6025(4) 0.5447(3) 0.1312(3)
H4 H 0.6004 0.5981 0.0647
C10 C 0.8987(4) 0.7328(3) -0.0831(3)
C11 C 0.3896(4) 0.8957(3) 0.4473(3)
H5 H 0.4888 0.8903 0.4731
C12 C 0.5163(4) 0.7523(2) 0.2724(3)
H6 H 0.4301 0.7428 0.2333
H7 H 0.4794 0.7180 0.3527
C13 C 0.6619(4) 0.8117(3) 0.0202(3)
H8 H 0.5438 0.7982 0.0551
H9 H 0.6737 0.8923 -0.0078
C14 C 0.7838(4) 0.5177(3) 0.5566(3)
C15 C 0.2465(4) 0.8753(3) 0.5232(3)
H10 H 0.2462 0.8634 0.6007
C16 C 0.9813(4) 0.8411(3) -0.1476(3)
H11 H 0.9530 0.8742 -0.2167
C17 C 0.5584(4) 0.4358(3) 0.1391(3)
H12 H 0.5277 0.4162 0.0776
C18 C 1.1464(4) 0.8464(3) -0.0109(3)
C19 C 0.0991(4) 0.8850(3) 0.3674(3)
H13 H 0.0032 0.8758 0.3424
C20 C 0.2415(4) 0.9107(3) 0.2915(3)
H14 H 0.2418 0.9188 0.2143
C21 C 0.0891(4) 0.8709(3) 0.4896(3)
C22 C 0.4406(5) 1.0514(3) 0.2819(3)
H15 H 0.5460 1.0630 0.2985
H16 H 0.3523 1.0969 0.3211
H17 H 0.4489 1.0728 0.2008
C23 C 1.0924(4) 0.7332(3) 0.0509(3)
H18 H 1.0892 0.7276 0.1314
H19 H 1.1766 0.6775 0.0229
C24 C 0.8224(4) 0.6240(3) 0.4903(3)
H20 H 0.8704 0.6822 0.5090
C25 C 1.0898(4) 0.8925(3) -0.1146(3)
H21 H 1.1313 0.9606 -0.1592
C26 C 0.5592(5) 0.3561(3) 0.2364(3)
H22 H 0.5271 0.2830 0.2418
C27 C 0.8148(4) 0.4703(3) 0.6720(3)
H23 H 0.7290 0.4997 0.7287
H24 H 0.9236 0.4913 0.6755
H25 H 0.8117 0.3894 0.6865
C28 C 0.9546(5) 0.6400(3) -0.1495(3)
H26 H 0.8924 0.5740 -0.1110
H27 H 1.0731 0.6224 -0.1550
H28 H 0.9341 0.6642 -0.2249
loop_
_geom_bond_atom_site_label_1
_geom_bond_atom_site_label_2
_geom_bond_site_symmetry_1
_geom_bond_site_symmetry_2
O1 C5 1_555 1_555
O2 C4 1_555 1_555
O3 C10 1_555 1_555
N1 N2 1_555 1_555
N2 C14 1_555 1_555
O4 C21 1_555 1_555
O5 C18 1_555 1_555
C1 N1 1_555 1_555
C2 C1 1_555 1_555
C3 H1 1_555 1_555
C4 C11 1_555 1_555
C5 C2 1_555 1_555
C6 O1 1_555 1_555
C7 C3 1_555 1_555
H2 C7 1_555 1_555
C8 C1 1_555 1_555
H3 C8 1_555 1_555
C9 C2 1_555 1_555
H4 C9 1_555 1_555
C10 C7 1_555 1_555
C11 H5 1_555 1_555
C12 O2 1_555 1_555
H6 C12 1_555 1_555
H7 C12 1_555 1_555
C13 O3 1_555 1_555
H8 C13 1_555 1_555
H9 C13 1_555 1_555
C14 C24 1_555 1_555
C15 C11 1_555 1_555
H10 C15 1_555 1_555
C16 C10 1_555 1_555
H11 C16 1_555 1_555
C17 C9 1_555 1_555
H12 C17 1_555 1_555
C18 C23 1_555 1_555
C19 H13 1_555 1_555
C20 C4 1_555 1_555
H14 C20 1_555 1_555
C21 C15 1_555 1_555
C22 C4 1_555 1_555
H15 C22 1_555 1_555
H16 C22 1_555 1_555
H17 C22 1_555 1_555
C23 C7 1_555 1_555
H18 C23 1_555 1_555
H19 C23 1_555 1_555
C24 C6 1_555 1_555
H20 C24 1_555 1_555
C25 C16 1_555 1_555
H21 C25 1_555 1_555
C26 C8 1_555 1_555
H22 C26 1_555 1_555
C27 C14 1_555 1_555
H23 C27 1_555 1_555
H24 C27 1_555 1_555
H25 C27 1_555 1_555
C28 C10 1_555 1_555
H26 C28 1_555 1_555
H27 C28 1_555 1_555
H28 C28 1_555 1_555
N1 C6 1_555 1_555
C3 C5 1_555 1_555
C3 C13 1_555 1_555
C5 C12 1_555 1_555
C17 C26 1_555 1_555
C18 C25 1_555 1_555
C19 C20 1_555 1_555
C19 C21 1_555 1_555

#END
