
#######################################################################
#
#                 Cambridge Crystallographic Data Centre
#                                CCDC 
#
#######################################################################
#
# If this CIF has been generated from an entry in the Cambridge 
# Structural Database, then it will include bibliographic, chemical, 
# crystal, experimental, refinement or atomic coordinate data resulting 
# from the CCDC's data processing and validation procedures.
#
#######################################################################

data_TIGPEF
_chemical_formula_moiety         'C13 H10 N2 O1'
_chemical_name_systematic        4-(1H-Benzo(d)imidazol-2-yl)phenol
_symmetry_cell_setting           monoclinic
_symmetry_space_group_name_H-M   'P 21/n'
_symmetry_Int_Tables_number      14
_space_group_name_Hall           '-P 2yn'
loop_
_symmetry_equiv_pos_site_id
_symmetry_equiv_pos_as_xyz
1 x,y,z
2 1/2-x,1/2+y,1/2-z
3 -x,-y,-z
4 1/2+x,1/2-y,1/2+z
_cell_length_a                   7.1679(3)
_cell_length_b                   15.1517(6)
_cell_length_c                   9.9079(4)
_cell_angle_alpha                90
_cell_angle_beta                 90.556(2)
_cell_angle_gamma                90
_cell_volume                     1076.01
_exptl_crystal_colour            colorless
_exptl_crystal_description       block
_chemical_melting_point          '508 K'
_cell_formula_units_Z            4
_exptl_crystal_recrystallization_method methanol
loop_
_atom_site_label
_atom_site_type_symbol
_atom_site_fract_x
_atom_site_fract_y
_atom_site_fract_z
O1 O 0.12380(10) 0.35627(6) 0.15835(9)
H1 H 0.0185 0.3760 0.1462
N1 N 0.29490(13) 0.06719(6) 0.61996(10)
N2 N -0.01358(12) 0.06759(6) 0.63364(10)
C1 C 0.24064(16) 0.00742(8) 0.71879(12)
C2 C 0.3466(2) -0.04686(10) 0.80335(16)
H2 H 0.4761 -0.0477 0.7984
C3 C 0.2541(2) -0.09910(10) 0.89419(16)
H3 H 0.3225 -0.1360 0.9511
C4 C 0.0615(2) -0.09817(9) 0.90314(14)
H4 H 0.0036 -0.1344 0.9659
C5 C -0.04601(19) -0.04497(9) 0.82150(13)
H5 H -0.1754 -0.0442 0.8278
C6 C 0.04717(15) 0.00766(7) 0.72905(11)
C7 C 0.13874(14) 0.10192(7) 0.57169(11)
C8 C 0.12968(14) 0.16878(7) 0.46561(10)
C9 C 0.29061(15) 0.19137(8) 0.39541(12)
H6 H 0.4029 0.1639 0.4175
C10 C 0.28632(15) 0.25331(8) 0.29430(12)
H7 H 0.3953 0.2671 0.2487
C11 C 0.12059(15) 0.29563(8) 0.25943(11)
C12 C -0.04087(15) 0.27377(8) 0.32846(12)
H8 H -0.1528 0.3016 0.3065
C13 C -0.03603(15) 0.21105(8) 0.42931(11)
H9 H -0.1455 0.1967 0.4739
H10 H -0.1306(13) 0.0848(9) 0.6208(13)
loop_
_geom_bond_atom_site_label_1
_geom_bond_atom_site_label_2
_geom_bond_site_symmetry_1
_geom_bond_site_symmetry_2
O1 H1 1_555 1_555
N1 C1 1_555 1_555
N2 C6 1_555 1_555
C1 C2 1_555 1_555
C2 H2 1_555 1_555
C3 C2 1_555 1_555
H3 C3 1_555 1_555
C4 C3 1_555 1_555
H4 C4 1_555 1_555
C5 C4 1_555 1_555
H5 C5 1_555 1_555
C6 C1 1_555 1_555
C7 N1 1_555 1_555
C8 C7 1_555 1_555
C9 C8 1_555 1_555
H6 C9 1_555 1_555
C10 C9 1_555 1_555
H7 C10 1_555 1_555
C11 O1 1_555 1_555
C12 C11 1_555 1_555
H8 C12 1_555 1_555
C13 C8 1_555 1_555
H9 C13 1_555 1_555
H10 N2 1_555 1_555
N2 C7 1_555 1_555
C5 C6 1_555 1_555
C10 C11 1_555 1_555
C12 C13 1_555 1_555

#END
