
#######################################################################
#
#                 Cambridge Crystallographic Data Centre
#                                CCDC 
#
#######################################################################
#
# If this CIF has been generated from an entry in the Cambridge 
# Structural Database, then it will include bibliographic, chemical, 
# crystal, experimental, refinement or atomic coordinate data resulting 
# from the CCDC's data processing and validation procedures.
#
#######################################################################

data_TIGRIL
_chemical_formula_moiety         'C10 H14 N4 O8'
_chemical_name_systematic        
3,4-Di-O-acetyl-2-azidodeoxy-1-O-nitro-\a-L-fucose
_symmetry_cell_setting           orthorhombic
_symmetry_space_group_name_H-M   'P 21 21 21'
_symmetry_Int_Tables_number      19
_space_group_name_Hall           'P 2ac 2ab'
loop_
_symmetry_equiv_pos_site_id
_symmetry_equiv_pos_as_xyz
1 x,y,z
2 1/2-x,-y,1/2+z
3 -x,1/2+y,1/2-z
4 1/2+x,1/2-y,-z
_cell_length_a                   8.2169(6)
_cell_length_b                   15.8825(12)
_cell_length_c                   21.7738(16)
_cell_angle_alpha                90
_cell_angle_beta                 90
_cell_angle_gamma                90
_cell_volume                     2841.59
_exptl_crystal_colour            colorless
_exptl_crystal_description       block
_cell_formula_units_Z            8
_exptl_crystal_recrystallization_method 'hexane/ethyl acetate'
loop_
_atom_site_label
_atom_site_type_symbol
_atom_site_fract_x
_atom_site_fract_y
_atom_site_fract_z
C1 C 0.1519(2) 0.68931(11) 0.96074(8)
H1 H 0.1697 0.6907 1.0062
C2 C 0.3138(2) 0.70045(11) 0.92821(8)
H2 H 0.3653 0.7545 0.9416
C3 C 0.2871(2) 0.70192(11) 0.85901(8)
H3 H 0.2445 0.6460 0.8452
C4 C 0.1645(2) 0.77066(11) 0.84250(8)
H4 H 0.1394 0.7679 0.7976
C5 C 0.0083(2) 0.75793(11) 0.87924(8)
H5 H -0.0439 0.7043 0.8654
C6 C -0.1136(2) 0.82860(12) 0.87166(9)
H6 H -0.0730 0.8792 0.8924
H7 H -0.2178 0.8119 0.8898
H8 H -0.1288 0.8405 0.8279
C7 C 0.4653(2) 0.68822(11) 0.77365(8)
C8 C 0.6392(2) 0.69823(12) 0.75485(9)
H9 H 0.6533 0.6775 0.7128
H10 H 0.7089 0.6659 0.7827
H11 H 0.6694 0.7579 0.7567
C9 C 0.3093(3) 0.89460(12) 0.81195(9)
C10 C 0.3549(3) 0.98127(13) 0.83182(10)
H12 H 0.2568 1.0161 0.8347
H13 H 0.4297 1.0060 0.8018
H14 H 0.4082 0.9787 0.8720
N1 N -0.0035(2) 0.56522(10) 0.98752(7)
N2 N 0.41780(19) 0.62882(10) 0.94692(7)
N3 N 0.5655(2) 0.64117(10) 0.94132(7)
N4 N 0.7021(2) 0.64433(12) 0.93857(10)
O1 O 0.04098(16) 0.75143(8) 0.94464(6)
O2 O 0.09418(16) 0.60611(8) 0.94303(6)
O3 O 0.44471(16) 0.71616(8) 0.83227(6)
O4 O 0.22958(17) 0.85305(8) 0.85736(6)
O5 O -0.0240(2) 0.59973(10) 1.03602(7)
O6 O -0.05346(18) 0.49872(9) 0.96954(7)
O7 O 0.35749(18) 0.65942(9) 0.74306(6)
O8 O 0.3355(2) 0.86470(9) 0.76178(7)
C11 C 0.2547(2) 0.43484(11) 0.79007(8)
H15 H 0.3018 0.4367 0.7477
C12 C 0.3935(2) 0.43329(11) 0.83734(8)
H16 H 0.4627 0.3826 0.8297
C13 C 0.3204(2) 0.42703(11) 0.90164(8)
H17 H 0.2521 0.4777 0.9105
C14 C 0.2164(2) 0.34711(11) 0.90480(8)
H18 H 0.1664 0.3415 0.9465
C15 C 0.0837(2) 0.35172(11) 0.85600(8)
H19 H 0.0102 0.4000 0.8660
C16 C -0.0187(3) 0.27262(13) 0.85109(9)
H20 H 0.0490 0.2262 0.8361
H21 H -0.1086 0.2823 0.8224
H22 H -0.0624 0.2582 0.8916
C17 C 0.4189(2) 0.44343(11) 1.00306(8)
C18 C 0.5676(3) 0.43756(15) 1.04241(10)
H23 H 0.5360 0.4401 1.0858
H24 H 0.6407 0.4845 1.0329
H25 H 0.6234 0.3842 1.0343
C19 C 0.3866(2) 0.23554(11) 0.94182(9)
C20 C 0.5124(3) 0.17257(13) 0.92196(10)
H26 H 0.4929 0.1189 0.9428
H27 H 0.6210 0.1934 0.9326
H28 H 0.5054 0.1644 0.8774
N5 N 0.0763(2) 0.54341(10) 0.75172(7)
N6 N 0.4937(2) 0.50950(10) 0.82922(8)
N7 N 0.6420(2) 0.49697(10) 0.83443(8)
N8 N 0.7785(2) 0.49429(13) 0.83732(11)
O9 O 0.15313(16) 0.36579(8) 0.79517(6)
O10 O 0.16796(16) 0.51307(8) 0.80211(6)
O11 O 0.45529(16) 0.42301(8) 0.94370(6)
O12 O 0.32046(16) 0.27581(8) 0.89237(6)
O13 O 0.0821(2) 0.50576(10) 0.70412(7)
O14 O 0.00131(18) 0.60629(9) 0.76422(7)
O15 O 0.28545(17) 0.46294(9) 1.01992(6)
O16 O 0.3492(2) 0.25016(10) 0.99387(7)
loop_
_geom_bond_atom_site_label_1
_geom_bond_atom_site_label_2
_geom_bond_site_symmetry_1
_geom_bond_site_symmetry_2
C1 H1 1_555 1_555
C2 C1 1_555 1_555
H2 C2 1_555 1_555
C3 C2 1_555 1_555
H3 C3 1_555 1_555
C4 C3 1_555 1_555
H4 C4 1_555 1_555
C5 C4 1_555 1_555
H5 C5 1_555 1_555
C6 C5 1_555 1_555
H6 C6 1_555 1_555
H7 C6 1_555 1_555
H8 C6 1_555 1_555
C7 C8 1_555 1_555
C8 H9 1_555 1_555
H10 C8 1_555 1_555
H11 C8 1_555 1_555
C9 C10 1_555 1_555
C10 H12 1_555 1_555
H13 C10 1_555 1_555
H14 C10 1_555 1_555
C11 H15 1_555 1_555
C12 C11 1_555 1_555
H16 C12 1_555 1_555
C13 C12 1_555 1_555
H17 C13 1_555 1_555
C14 C13 1_555 1_555
H18 C14 1_555 1_555
C15 C14 1_555 1_555
H19 C15 1_555 1_555
C16 C15 1_555 1_555
H20 C16 1_555 1_555
H21 C16 1_555 1_555
H22 C16 1_555 1_555
C17 C18 1_555 1_555
C18 H23 1_555 1_555
H24 C18 1_555 1_555
H25 C18 1_555 1_555
C19 C20 1_555 1_555
C20 H26 1_555 1_555
H27 C20 1_555 1_555
H28 C20 1_555 1_555
N1 O2 1_555 1_555
N2 C2 1_555 1_555
N3 N2 1_555 1_555
N4 N3 1_555 1_555
N5 O10 1_555 1_555
N6 C12 1_555 1_555
N7 N6 1_555 1_555
N8 N7 1_555 1_555
O1 C1 1_555 1_555
O2 C1 1_555 1_555
O3 C3 1_555 1_555
O4 C4 1_555 1_555
O5 N1 1_555 1_555
O6 N1 1_555 1_555
O7 C7 1_555 1_555
O8 C9 1_555 1_555
O9 C11 1_555 1_555
O10 C11 1_555 1_555
O11 C13 1_555 1_555
O12 C14 1_555 1_555
O13 N5 1_555 1_555
O14 N5 1_555 1_555
O15 C17 1_555 1_555
O16 C19 1_555 1_555
C5 O1 1_555 1_555
C7 O3 1_555 1_555
C9 O4 1_555 1_555
C15 O9 1_555 1_555
C17 O11 1_555 1_555
C19 O12 1_555 1_555

#END
