
#######################################################################
#
#                 Cambridge Crystallographic Data Centre
#                                CCDC 
#
#######################################################################
#
# If this CIF has been generated from an entry in the Cambridge 
# Structural Database, then it will include bibliographic, chemical, 
# crystal, experimental, refinement or atomic coordinate data resulting 
# from the CCDC's data processing and validation procedures.
#
#######################################################################

data_TIGREH
_chemical_formula_moiety         'C19 H20 Br2 N2 O2'
_chemical_name_systematic        
6,6'-Dibromo-4,4'-dimethyl-3,3'-methylenebi(2H,4H-benz(e)(1,3)oxazine)
_symmetry_cell_setting           monoclinic
_symmetry_space_group_name_H-M   'C 2/c'
_symmetry_Int_Tables_number      15
_space_group_name_Hall           '-C 2yn'
loop_
_symmetry_equiv_pos_site_id
_symmetry_equiv_pos_as_xyz
1 x,y,z
2 1/2+x,1/2+y,z
3 -x,y,1/2-z
4 1/2-x,1/2+y,1/2-z
5 -x,-y,-z
6 1/2-x,1/2-y,-z
7 x,-y,1/2+z
8 1/2+x,1/2-y,1/2+z
_cell_length_a                   19.826(4)
_cell_length_b                   11.702(2)
_cell_length_c                   8.146(2)
_cell_angle_alpha                90
_cell_angle_beta                 99.92(3)
_cell_angle_gamma                90
_cell_volume                     1861.65
_exptl_crystal_colour            colorless
_exptl_crystal_description       block
_chemical_melting_point          '675-676 K'
_cell_formula_units_Z            4
_exptl_crystal_recrystallization_method methanol
loop_
_atom_site_label
_atom_site_type_symbol
_atom_site_fract_x
_atom_site_fract_y
_atom_site_fract_z
C1 C 0.36058(15) 0.8872(3) 0.4372(4)
C2 C 0.30490(16) 0.9531(3) 0.4563(4)
H1 H 0.3107 1.0181 0.5230
C3 C 0.24080(16) 0.9226(3) 0.3766(4)
H2 H 0.2028 0.9665 0.3881
C4 C 0.23362(15) 0.8261(3) 0.2796(4)
C5 C 0.28870(15) 0.7600(3) 0.2608(4)
H3 H 0.2824 0.6952 0.1937
C6 C 0.35394(14) 0.7891(3) 0.3412(4)
C7 C 0.41513(14) 0.7178(3) 0.3189(4)
H4 H 0.4123 0.7042 0.1993
C8 C 0.41674(18) 0.6022(3) 0.4034(5)
H5 H 0.4539 0.5578 0.3756
H6 H 0.3743 0.5631 0.3662
H7 H 0.4230 0.6126 0.5220
C9 C 0.5000 0.8533(4) 0.2500
H8 H 0.4622 0.9018 0.2008
H9 H 0.5378 0.9018 0.2992
C10 C 0.47610(15) 0.8379(3) 0.5288(4)
H10 H 0.5201 0.8735 0.5682
H11 H 0.4685 0.7815 0.6110
Br1 Br 0.145465(16) 0.78480(4) 0.16417(5)
N1 N 0.47908(12) 0.7813(2) 0.3773(3)
O1 O 0.42328(10) 0.9242(2) 0.5178(3)
C1B C 0.63942(15) 0.8872(3) 0.0628(4)
C2B C 0.69510(16) 0.9531(3) 0.0437(4)
H1B H 0.6893 1.0181 -0.0230
C3B C 0.75920(16) 0.9226(3) 0.1234(4)
H2B H 0.7972 0.9665 0.1119
C4B C 0.76638(15) 0.8261(3) 0.2204(4)
C5B C 0.71130(15) 0.7600(3) 0.2392(4)
H3B H 0.7176 0.6952 0.3063
C6B C 0.64606(14) 0.7891(3) 0.1588(4)
C7B C 0.58487(14) 0.7178(3) 0.1811(4)
H4B H 0.5877 0.7042 0.3007
C8B C 0.58326(18) 0.6022(3) 0.0966(5)
H5B H 0.5461 0.5578 0.1244
H6B H 0.6257 0.5631 0.1338
H7B H 0.5770 0.6126 -0.0220
C10B C 0.52390(15) 0.8379(3) -0.0288(4)
H10B H 0.4799 0.8735 -0.0682
H11B H 0.5315 0.7815 -0.1110
Br1B Br 0.854535(16) 0.78480(4) 0.33583(5)
N1B N 0.52092(12) 0.7813(2) 0.1227(3)
O1B O 0.57672(10) 0.9242(2) -0.0178(3)
loop_
_geom_bond_atom_site_label_1
_geom_bond_atom_site_label_2
_geom_bond_site_symmetry_1
_geom_bond_site_symmetry_2
C1 C2 1_555 1_555
C2 H1 1_555 1_555
C3 C2 1_555 1_555
H2 C3 1_555 1_555
C4 C3 1_555 1_555
C5 C4 1_555 1_555
H3 C5 1_555 1_555
C6 C1 1_555 1_555
C7 C6 1_555 1_555
H4 C7 1_555 1_555
C8 C7 1_555 1_555
H5 C8 1_555 1_555
H6 C8 1_555 1_555
H7 C8 1_555 1_555
C9 H8 1_555 1_555
H9 C9 1_555 1_555
C10 H10 1_555 1_555
H11 C10 1_555 1_555
Br1 C4 1_555 1_555
N1 C7 1_555 1_555
O1 C1 1_555 1_555
C1B C2B 1_555 1_555
C2B H1B 1_555 1_555
C3B C2B 1_555 1_555
H2B C3B 1_555 1_555
C4B C3B 1_555 1_555
C5B C4B 1_555 1_555
H3B C5B 1_555 1_555
C6B C1B 1_555 1_555
C7B C6B 1_555 1_555
H4B C7B 1_555 1_555
C8B C7B 1_555 1_555
H5B C8B 1_555 1_555
H6B C8B 1_555 1_555
H7B C8B 1_555 1_555
C10B H10B 1_555 1_555
H11B C10B 1_555 1_555
Br1B C4B 1_555 1_555
N1B C9 1_555 1_555
O1B C1B 1_555 1_555
C5 C6 1_555 1_555
C9 N1 1_555 1_555
C10 N1 1_555 1_555
C10 O1 1_555 1_555
C5B C6B 1_555 1_555
C7B N1B 1_555 1_555
C10B N1B 1_555 1_555
C10B O1B 1_555 1_555

#END
