
#######################################################################
#
#                 Cambridge Crystallographic Data Centre
#                                CCDC 
#
#######################################################################
#
# If this CIF has been generated from an entry in the Cambridge 
# Structural Database, then it will include bibliographic, chemical, 
# crystal, experimental, refinement or atomic coordinate data resulting 
# from the CCDC's data processing and validation procedures.
#
#######################################################################

data_TIGSIM
_chemical_formula_moiety         'C28 H21 N1 O2,C2 H6 O1'
_chemical_name_systematic        
"3-(p-Tolyliminomethyl)-1,1'-binaphthol ethanol solvate"
_symmetry_cell_setting           triclinic
_symmetry_space_group_name_H-M   'P -1'
_symmetry_Int_Tables_number      2
_space_group_name_Hall           '-P 1'
loop_
_symmetry_equiv_pos_site_id
_symmetry_equiv_pos_as_xyz
1 x,y,z
2 -x,-y,-z
_cell_length_a                   10.540(5)
_cell_length_b                   10.740(3)
_cell_length_c                   10.779(3)
_cell_angle_alpha                82.17(2)
_cell_angle_beta                 83.82(3)
_cell_angle_gamma                82.89(3)
_cell_volume                     1194.38
_exptl_crystal_colour            orange
_exptl_crystal_description       block
_cell_formula_units_Z            2
_exptl_crystal_recrystallization_method 'ethanol/methylene chloride'
loop_
_atom_site_label
_atom_site_type_symbol
_atom_site_fract_x
_atom_site_fract_y
_atom_site_fract_z
O1 O 0.0738(2) 0.3272(2) 0.5630(2)
H1 H 0.0534 0.3780 0.6139
O2 O 0.0508(2) 0.27804(19) 0.2159(2)
H2 H 0.007(4) 0.264(4) 0.164(4)
N1 N -0.0886(2) 0.1489(2) 0.1058(2)
C1 C 0.3334(3) 0.3271(2) 0.3103(3)
C2 C 0.3843(3) 0.2626(3) 0.2077(3)
H3 H 0.3479 0.1920 0.1929
C3 C 0.4861(3) 0.3018(3) 0.1295(3)
H4 H 0.5179 0.2577 0.0622
C4 C 0.5433(3) 0.4069(3) 0.1490(3)
H5 H 0.6120 0.4330 0.0942
C5 C 0.4991(3) 0.4711(3) 0.2475(3)
H6 H 0.5387 0.5404 0.2605
C6 C 0.3942(3) 0.4345(2) 0.3307(3)
C7 C 0.3423(3) 0.5013(3) 0.4312(3)
H7 H 0.3812 0.5701 0.4465
C8 C 0.2379(3) 0.4687(3) 0.5060(3)
H8 H 0.2045 0.5163 0.5703
C9 C 0.1779(3) 0.3613(2) 0.4873(3)
C10 C 0.2273(3) 0.2907(2) 0.3919(3)
C11 C 0.1714(3) 0.1708(2) 0.3783(2)
C12 C 0.0883(3) 0.1695(2) 0.2894(3)
C13 C 0.0378(3) 0.0548(2) 0.2726(2)
C14 C 0.0729(3) -0.0547(2) 0.3489(2)
H9 H 0.0388 -0.1284 0.3400
C15 C 0.1591(3) -0.0574(2) 0.4397(2)
C16 C 0.1966(3) -0.1712(3) 0.5162(3)
H10 H 0.1611 -0.2444 0.5081
C17 C 0.2839(3) -0.1750(3) 0.6016(3)
H11 H 0.3086 -0.2501 0.6513
C18 C 0.3356(3) -0.0639(3) 0.6129(3)
H12 H 0.3965 -0.0669 0.6700
C19 C 0.3007(3) 0.0483(3) 0.5442(3)
H13 H 0.3362 0.1204 0.5562
C20 C 0.2104(3) 0.0561(2) 0.4543(2)
C21 C -0.0490(3) 0.0512(3) 0.1792(3)
H14 H -0.0776 -0.0258 0.1718
C22 C -0.1786(3) 0.1411(3) 0.0189(3)
C23 C -0.2544(3) 0.0420(3) 0.0260(3)
H15 H -0.2474 -0.0246 0.0906
C24 C -0.3389(3) 0.0430(3) -0.0618(3)
H16 H -0.3867 -0.0250 -0.0572
C25 C -0.3554(3) 0.1417(3) -0.1573(3)
C26 C -0.2799(3) 0.2399(3) -0.1640(3)
H17 H -0.2877 0.3069 -0.2282
C27 C -0.1936(3) 0.2392(3) -0.0768(3)
H18 H -0.1443 0.3062 -0.0827
C28 C -0.4529(3) 0.1425(3) -0.2510(3)
H19 H -0.5307 0.1145 -0.2076
H20 H -0.4191 0.0868 -0.3120
H21 H -0.4708 0.2268 -0.2927
O3 O 0.0233(2) 0.4606(2) 0.7668(2)
H22 H -0.0169 0.5313 0.7612
C29 C 0.1223(4) 0.4550(4) 0.8508(4)
H23 H 0.0844 0.4794 0.9312
H24 H 0.1837 0.5136 0.8158
C30 C 0.1883(5) 0.3249(5) 0.8689(5)
H25 H 0.2597 0.3233 0.9177
H26 H 0.2188 0.2983 0.7885
H27 H 0.1294 0.2688 0.9124
loop_
_geom_bond_atom_site_label_1
_geom_bond_atom_site_label_2
_geom_bond_site_symmetry_1
_geom_bond_site_symmetry_2
O1 H1 1_555 1_555
O2 H2 1_555 1_555
N1 C21 1_555 1_555
C1 C2 1_555 1_555
C2 H3 1_555 1_555
C3 C2 1_555 1_555
H4 C3 1_555 1_555
C4 C3 1_555 1_555
H5 C4 1_555 1_555
C5 C4 1_555 1_555
H6 C5 1_555 1_555
C6 C1 1_555 1_555
C7 C6 1_555 1_555
H7 C7 1_555 1_555
C8 C7 1_555 1_555
H8 C8 1_555 1_555
C9 O1 1_555 1_555
C10 C1 1_555 1_555
C11 C10 1_555 1_555
C12 O2 1_555 1_555
C13 C12 1_555 1_555
C14 C13 1_555 1_555
H9 C14 1_555 1_555
C15 C14 1_555 1_555
C16 C15 1_555 1_555
H10 C16 1_555 1_555
C17 C16 1_555 1_555
H11 C17 1_555 1_555
C18 C17 1_555 1_555
H12 C18 1_555 1_555
C19 C18 1_555 1_555
H13 C19 1_555 1_555
C20 C11 1_555 1_555
C21 C13 1_555 1_555
H14 C21 1_555 1_555
C22 N1 1_555 1_555
C23 C22 1_555 1_555
H15 C23 1_555 1_555
C24 C23 1_555 1_555
H16 C24 1_555 1_555
C25 C24 1_555 1_555
C26 C25 1_555 1_555
H17 C26 1_555 1_555
C27 C22 1_555 1_555
H18 C27 1_555 1_555
C28 C25 1_555 1_555
H19 C28 1_555 1_555
H20 C28 1_555 1_555
H21 C28 1_555 1_555
O3 H22 1_555 1_555
C29 O3 1_555 1_555
H23 C29 1_555 1_555
H24 C29 1_555 1_555
C30 C29 1_555 1_555
H25 C30 1_555 1_555
H26 C30 1_555 1_555
H27 C30 1_555 1_555
C5 C6 1_555 1_555
C8 C9 1_555 1_555
C9 C10 1_555 1_555
C11 C12 1_555 1_555
C15 C20 1_555 1_555
C19 C20 1_555 1_555
C26 C27 1_555 1_555

#END
