
#######################################################################
#
#                 Cambridge Crystallographic Data Centre
#                                CCDC 
#
#######################################################################
#
# If this CIF has been generated from an entry in the Cambridge 
# Structural Database, then it will include bibliographic, chemical, 
# crystal, experimental, refinement or atomic coordinate data resulting 
# from the CCDC's data processing and validation procedures.
#
#######################################################################

data_TIGTIO
_chemical_formula_moiety         'C10 H15 O4 S1 1-,C7 H4 N3 1+'
_chemical_name_systematic        
'2-Cyanobenzenediazonium (7,7-dimethyl-2-oxobicyclo[2.2.1]hept-1-yl)methanesulfonate'
_symmetry_cell_setting           orthorhombic
_symmetry_space_group_name_H-M   'P 21 21 21'
_symmetry_Int_Tables_number      19
_space_group_name_Hall           'P 2ac 2ab'
loop_
_symmetry_equiv_pos_site_id
_symmetry_equiv_pos_as_xyz
1 x,y,z
2 1/2-x,-y,1/2+z
3 -x,1/2+y,1/2-z
4 1/2+x,1/2-y,-z
_cell_length_a                   7.1690(14)
_cell_length_b                   8.1850(16)
_cell_length_c                   29.084(6)
_cell_angle_alpha                90
_cell_angle_beta                 90
_cell_angle_gamma                90
_cell_volume                     1706.6
_exptl_crystal_colour            colorless
_exptl_crystal_description       cubic
_cell_formula_units_Z            4
loop_
_atom_site_label
_atom_site_type_symbol
_atom_site_fract_x
_atom_site_fract_y
_atom_site_fract_z
S1 S 0.25900(4) 0.62226(3) 0.085370(9)
O1 O 0.43148(14) 0.64952(13) 0.05993(3)
O2 O 0.21839(18) 0.45000(12) 0.09248(4)
O3 O 0.10519(15) 0.71219(13) 0.06436(3)
O4 O 0.55637(16) 0.96290(13) 0.11161(3)
C1 C 0.4308(2) 0.99361(16) 0.13828(4)
C2 C 0.4099(2) 1.15238(17) 0.16540(5)
H1 H 0.3850 1.2461 0.1448
H2 H 0.5226 1.1755 0.1840
C3 C 0.2410(2) 1.11510(15) 0.19615(4)
H3 H 0.2333 1.1831 0.2247
C4 C 0.0686(2) 1.12529(19) 0.16496(5)
H4 H 0.0687 1.2274 0.1467
H5 H -0.0480 1.1193 0.1831
C5 C 0.0910(2) 0.97303(17) 0.13350(4)
H6 H 0.1086 1.0061 0.1010
H7 H -0.0199 0.9014 0.1356
C6 C 0.26842(18) 0.88371(15) 0.15216(4)
C7 C 0.2602(2) 0.92800(16) 0.20493(4)
C8 C 0.4386(2) 0.8814(2) 0.23096(5)
H8 H 0.5471 0.9273 0.2150
H9 H 0.4498 0.7622 0.2322
H10 H 0.4328 0.9250 0.2623
C9 C 0.0939(3) 0.8546(2) 0.23049(5)
H11 H -0.0217 0.8834 0.2145
H12 H 0.0901 0.8977 0.2619
H13 H 0.1067 0.7354 0.2315
C10 C 0.2864(2) 0.70097(15) 0.14275(4)
H14 H 0.1937 0.6447 0.1624
H15 H 0.4112 0.6668 0.1537
N1 N 0.27204(16) -0.19722(13) -0.03588(4)
N2 N 0.25114(19) -0.32918(14) -0.03863(4)
N3 N 0.2469(2) -0.02459(19) -0.14953(4)
C11 C 0.3601(2) 0.18263(17) 0.02439(5)
H16 H 0.3840 0.2201 0.0547
C12 C 0.33488(19) 0.01671(16) 0.01619(4)
H17 H 0.3421 -0.0613 0.0403
C13 C 0.3507(2) 0.29349(16) -0.01148(5)
H18 H 0.3676 0.4065 -0.0053
C14 C 0.29873(18) -0.02974(15) -0.02867(4)
C15 C 0.31671(19) 0.24308(16) -0.05675(5)
H19 H 0.3111 0.3211 -0.0809
C16 C 0.29126(18) 0.07801(16) -0.06604(4)
C17 C 0.2643(2) 0.02006(16) -0.11238(4)
loop_
_geom_bond_atom_site_label_1
_geom_bond_atom_site_label_2
_geom_bond_site_symmetry_1
_geom_bond_site_symmetry_2
S1 O1 1_555 1_555
O2 S1 1_555 1_555
O3 S1 1_555 1_555
O4 C1 1_555 1_555
C1 C2 1_555 1_555
C2 H1 1_555 1_555
H2 C2 1_555 1_555
C3 C2 1_555 1_555
H3 C3 1_555 1_555
C4 C3 1_555 1_555
H4 C4 1_555 1_555
H5 C4 1_555 1_555
C5 C4 1_555 1_555
H6 C5 1_555 1_555
H7 C5 1_555 1_555
C6 C1 1_555 1_555
C7 C3 1_555 1_555
C8 C7 1_555 1_555
H8 C8 1_555 1_555
H9 C8 1_555 1_555
H10 C8 1_555 1_555
C9 C7 1_555 1_555
H11 C9 1_555 1_555
H12 C9 1_555 1_555
H13 C9 1_555 1_555
C10 S1 1_555 1_555
H14 C10 1_555 1_555
H15 C10 1_555 1_555
N1 N2 1_555 1_555
N3 C17 1_555 1_555
C11 H16 1_555 1_555
C12 C11 1_555 1_555
H17 C12 1_555 1_555
C13 C11 1_555 1_555
H18 C13 1_555 1_555
C14 N1 1_555 1_555
C15 C13 1_555 1_555
H19 C15 1_555 1_555
C16 C14 1_555 1_555
C17 C16 1_555 1_555
C5 C6 1_555 1_555
C6 C7 1_555 1_555
C6 C10 1_555 1_555
C12 C14 1_555 1_555
C15 C16 1_555 1_555

#END
