
#######################################################################
#
#                 Cambridge Crystallographic Data Centre
#                                CCDC 
#
#######################################################################
#
# If this CIF has been generated from an entry in the Cambridge 
# Structural Database, then it will include bibliographic, chemical, 
# crystal, experimental, refinement or atomic coordinate data resulting 
# from the CCDC's data processing and validation procedures.
#
#######################################################################

data_TIGTEK
_chemical_formula_moiety         'C28 H33 Br1 N4 O5'
_chemical_name_systematic        
'(S)-t-Butyl 2-((2-((S)-(2-((4-bromophenyl)carbamoyl)pyrrolidin-1-yl)carbonyl)phenyl)carbamoyl)pyrrolidine-1-carboxylate'
_symmetry_cell_setting           orthorhombic
_symmetry_space_group_name_H-M   'P 21 21 21'
_symmetry_Int_Tables_number      19
_space_group_name_Hall           'P 2ac 2ab'
loop_
_symmetry_equiv_pos_site_id
_symmetry_equiv_pos_as_xyz
1 x,y,z
2 1/2-x,-y,1/2+z
3 -x,1/2+y,1/2-z
4 1/2+x,1/2-y,-z
_cell_length_a                   7.5990(5)
_cell_length_b                   11.5127(7)
_cell_length_c                   31.872(2)
_cell_angle_alpha                90
_cell_angle_beta                 90
_cell_angle_gamma                90
_cell_volume                     2788.32
_exptl_crystal_colour            colorless
_exptl_crystal_description       plate
_cell_formula_units_Z            4
loop_
_atom_site_label
_atom_site_type_symbol
_atom_site_fract_x
_atom_site_fract_y
_atom_site_fract_z
Br1 Br 0.60213(11) 1.32378(5) -0.08200(2)
O1 O 0.0908(5) 1.0561(3) 0.18741(10)
O2 O 0.2383(4) 1.1829(3) 0.23041(9)
O3 O 0.4017(5) 0.8422(3) 0.20884(10)
O4 O 0.3592(5) 0.6326(3) 0.04104(10)
O5 O 0.3287(5) 0.8900(3) 0.05936(10)
N1 N 0.3869(6) 1.0728(3) 0.18530(12)
N2 N 0.4035(6) 0.7770(3) 0.14103(11)
H1 H 0.4054 0.8010 0.1155
N3 N 0.1223(5) 0.7010(3) 0.07667(11)
N4 N 0.1902(6) 0.9271(3) -0.00247(11)
H2 H 0.1029 0.9047 -0.0176
C1 C 0.2274(7) 1.0995(4) 0.20012(15)
C2 C 0.4045(8) 0.9835(4) 0.15289(15)
H3 H 0.3117 0.9920 0.1318
C3 C 0.5866(9) 1.0118(5) 0.1336(2)
H4 H 0.6629 0.9444 0.1350
H5 H 0.5738 1.0340 0.1044
C4 C 0.6608(9) 1.1069(7) 0.1576(2)
H6 H 0.6593 1.1775 0.1410
H7 H 0.7819 1.0896 0.1649
C5 C 0.5539(6) 1.1235(4) 0.19671(15)
H8 H 0.6062 1.0832 0.2204
H9 H 0.5415 1.2052 0.2036
C6 C 0.4014(7) 0.8623(4) 0.17148(15)
C7 C 0.4030(7) 0.6555(3) 0.14657(14)
C8 C 0.3382(6) 0.5854(4) 0.11400(14)
C9 C 0.3379(7) 0.4651(4) 0.11846(16)
H10 H 0.2947 0.4187 0.0969
C10 C 0.4016(8) 0.4138(4) 0.15480(16)
H11 H 0.3982 0.3335 0.1580
C11 C 0.4690(7) 0.4819(5) 0.18583(17)
H12 H 0.5144 0.4470 0.2098
C12 C 0.4719(7) 0.6021(4) 0.18259(15)
H13 H 0.5192 0.6469 0.2041
C13 C 0.2733(6) 0.6394(4) 0.07416(14)
C14 C 0.0691(7) 0.7798(4) 0.04304(13)
H14 H 0.0426 0.7359 0.0175
C15 C -0.1018(7) 0.8351(4) 0.06106(15)
H15 H -0.0771 0.9099 0.0738
H16 H -0.1892 0.8454 0.0392
C16 C -0.1651(8) 0.7484(6) 0.09380(18)
H17 H -0.2366 0.7865 0.1149
H18 H -0.2334 0.6869 0.0809
C17 C 0.0009(7) 0.7015(4) 0.11256(15)
H19 H 0.0437 0.7514 0.1349
H20 H -0.0165 0.6238 0.1235
C18 C 0.2124(7) 0.8698(4) 0.03445(15)
C19 C 0.2930(7) 1.0193(4) -0.01925(15)
C20 C 0.2405(8) 1.0636(5) -0.05676(19)
H21 H 0.1427 1.0325 -0.0702
C21 C 0.3321(9) 1.1555(5) -0.0753(2)
H22 H 0.2940 1.1868 -0.1006
C22 C 0.4763(8) 1.1985(4) -0.05606(18)
C23 C 0.5324(9) 1.1537(5) -0.01955(19)
H23 H 0.6314 1.1845 -0.0065
C24 C 0.4433(8) 1.0615(5) -0.00113(17)
H24 H 0.4857 1.0284 0.0235
C25 C 0.0769(7) 1.2351(4) 0.24871(15)
C26 C -0.0326(8) 1.1427(4) 0.26966(18)
H25 H -0.0641 1.0845 0.2495
H26 H -0.1374 1.1772 0.2810
H27 H 0.0339 1.1077 0.2919
C27 C 0.1531(7) 1.3201(5) 0.28035(16)
H28 H 0.2211 1.2784 0.3008
H29 H 0.0591 1.3606 0.2941
H30 H 0.2272 1.3749 0.2661
C28 C -0.0216(8) 1.3011(5) 0.21474(18)
H31 H 0.0505 1.3636 0.2046
H32 H -0.1287 1.3320 0.2261
H33 H -0.0486 1.2494 0.1920
loop_
_geom_bond_atom_site_label_1
_geom_bond_atom_site_label_2
_geom_bond_site_symmetry_1
_geom_bond_site_symmetry_2
Br1 C22 1_555 1_555
O1 C1 1_555 1_555
O2 C1 1_555 1_555
O3 C6 1_555 1_555
O4 C13 1_555 1_555
O5 C18 1_555 1_555
N1 C1 1_555 1_555
N2 H1 1_555 1_555
N3 C13 1_555 1_555
N4 H2 1_555 1_555
C2 N1 1_555 1_555
H3 C2 1_555 1_555
C3 C2 1_555 1_555
H4 C3 1_555 1_555
H5 C3 1_555 1_555
C4 C3 1_555 1_555
H6 C4 1_555 1_555
H7 C4 1_555 1_555
C5 N1 1_555 1_555
H8 C5 1_555 1_555
H9 C5 1_555 1_555
C6 N2 1_555 1_555
C7 N2 1_555 1_555
C8 C7 1_555 1_555
C9 C8 1_555 1_555
H10 C9 1_555 1_555
C10 C9 1_555 1_555
H11 C10 1_555 1_555
C11 C10 1_555 1_555
H12 C11 1_555 1_555
C12 C7 1_555 1_555
H13 C12 1_555 1_555
C13 C8 1_555 1_555
C14 N3 1_555 1_555
H14 C14 1_555 1_555
C15 C14 1_555 1_555
H15 C15 1_555 1_555
H16 C15 1_555 1_555
C16 C15 1_555 1_555
H17 C16 1_555 1_555
H18 C16 1_555 1_555
C17 N3 1_555 1_555
H19 C17 1_555 1_555
H20 C17 1_555 1_555
C18 N4 1_555 1_555
C19 N4 1_555 1_555
C20 C19 1_555 1_555
H21 C20 1_555 1_555
C21 C20 1_555 1_555
H22 C21 1_555 1_555
C22 C21 1_555 1_555
C23 C22 1_555 1_555
H23 C23 1_555 1_555
C24 C19 1_555 1_555
H24 C24 1_555 1_555
C25 O2 1_555 1_555
C26 C25 1_555 1_555
H25 C26 1_555 1_555
H26 C26 1_555 1_555
H27 C26 1_555 1_555
C27 C25 1_555 1_555
H28 C27 1_555 1_555
H29 C27 1_555 1_555
H30 C27 1_555 1_555
C28 C25 1_555 1_555
H31 C28 1_555 1_555
H32 C28 1_555 1_555
H33 C28 1_555 1_555
C2 C6 1_555 1_555
C4 C5 1_555 1_555
C11 C12 1_555 1_555
C14 C18 1_555 1_555
C16 C17 1_555 1_555
C23 C24 1_555 1_555

#END
