
#######################################################################
#
#                 Cambridge Crystallographic Data Centre
#                                CCDC 
#
#######################################################################
#
# If this CIF has been generated from an entry in the Cambridge 
# Structural Database, then it will include bibliographic, chemical, 
# crystal, experimental, refinement or atomic coordinate data resulting 
# from the CCDC's data processing and validation procedures.
#
#######################################################################

data_TIGXOX
_chemical_formula_moiety         'C24 H19 N4 S1 1+,Br1 1-,H2 O1'
_chemical_name_systematic        
'2-Phenylindolizine-3-carbaldehyde (4-phenylthiazol-2-yl)hydrazone hydrobromide monohydrate'
_symmetry_cell_setting           monoclinic
_symmetry_space_group_name_H-M   'P 21/n'
_symmetry_Int_Tables_number      14
_space_group_name_Hall           '-P 2yn'
loop_
_symmetry_equiv_pos_site_id
_symmetry_equiv_pos_as_xyz
1 x,y,z
2 1/2-x,1/2+y,1/2-z
3 -x,-y,-z
4 1/2+x,1/2-y,1/2+z
_cell_length_a                   6.1679(12)
_cell_length_b                   11.1657(18)
_cell_length_c                   32.640(4)
_cell_angle_alpha                90
_cell_angle_beta                 91.708(2)
_cell_angle_gamma                90
_cell_volume                     2246.88
_exptl_crystal_colour            'dark green'
_exptl_crystal_description       prism
_cell_formula_units_Z            4
_exptl_crystal_recrystallization_method ethanol
loop_
_atom_site_label
_atom_site_type_symbol
_atom_site_fract_x
_atom_site_fract_y
_atom_site_fract_z
Br1 Br 0.75959(10) 0.38600(5) 0.11839(2)
N1 N 0.3347(7) 0.1191(4) 0.18113(13)
H1 H 0.2916 0.1879 0.1723
N2 N 0.6267(7) 0.0997(4) 0.13683(13)
H2 H 0.6065 0.1681 0.1252
N3 N 0.7942(7) 0.0233(4) 0.12601(14)
N4 N 1.1713(7) -0.1100(4) 0.09626(13)
S1 S 0.5445(3) -0.07581(13) 0.18834(6)
C1 C 0.5020(8) 0.0612(4) 0.16573(16)
C2 C 0.2345(8) 0.0580(5) 0.21305(16)
C3 C 0.3310(10) -0.0484(6) 0.2199(2)
H3 H 0.2867 -0.1021 0.2397
C4 C 0.0481(9) 0.1089(5) 0.23317(16)
C5 C -0.0156(10) 0.0657(6) 0.27091(18)
H4 H 0.0686 0.0078 0.2843
C6 C -0.1995(11) 0.1064(6) 0.2888(2)
H5 H -0.2419 0.0742 0.3136
C7 C -0.3215(10) 0.1950(6) 0.27000(19)
H6 H -0.4467 0.2227 0.2821
C8 C -0.2584(9) 0.2428(5) 0.23340(18)
H7 H -0.3393 0.3039 0.2211
C9 C -0.0750(8) 0.2002(5) 0.21481(17)
H8 H -0.0335 0.2326 0.1900
C10 C 0.9165(8) 0.0641(5) 0.09851(16)
H9 H 0.8847 0.1394 0.0878
C11 C 1.0987(8) 0.0020(4) 0.08310(16)
C12 C 1.2477(8) 0.0448(5) 0.05520(15)
C13 C 1.4131(9) -0.0377(5) 0.05280(17)
H10 H 1.5358 -0.0298 0.0371
C14 C 1.3657(9) -0.1348(5) 0.07770(16)
C15 C 1.4690(10) -0.2445(6) 0.08584(19)
H11 H 1.6006 -0.2618 0.0740
C16 C 1.3770(12) -0.3254(6) 0.1111(2)
H12 H 1.4452 -0.3982 0.1166
C17 C 1.1786(12) -0.2986(6) 0.1288(2)
H13 H 1.1153 -0.3547 0.1458
C18 C 1.0774(10) -0.1927(5) 0.12170(19)
H14 H 0.9463 -0.1759 0.1338
C19 C 1.2270(9) 0.1601(5) 0.03296(15)
C20 C 1.0416(10) 0.1895(5) 0.00987(17)
H15 H 0.9269 0.1355 0.0082
C21 C 1.0248(10) 0.2966(6) -0.01045(19)
H16 H 0.9003 0.3146 -0.0260
C22 C 1.1929(12) 0.3774(6) -0.0077(2)
H17 H 1.1811 0.4509 -0.0210
C23 C 1.3781(11) 0.3494(6) 0.0146(2)
H18 H 1.4925 0.4037 0.0161
C24 C 1.3951(10) 0.2421(6) 0.0346(2)
H19 H 1.5217 0.2240 0.0495
O1 O 0.2693(7) 0.3484(4) 0.15315(16)
H20 H 0.3790 0.3640 0.1389
H21 H 0.1548 0.3639 0.1390
loop_
_geom_bond_atom_site_label_1
_geom_bond_atom_site_label_2
_geom_bond_site_symmetry_1
_geom_bond_site_symmetry_2
N1 H1 1_555 1_555
N2 H2 1_555 1_555
N3 N2 1_555 1_555
N4 C11 1_555 1_555
S1 C1 1_555 1_555
C1 N1 1_555 1_555
C2 N1 1_555 1_555
C3 S1 1_555 1_555
H3 C3 1_555 1_555
C4 C2 1_555 1_555
C5 C4 1_555 1_555
H4 C5 1_555 1_555
C6 C5 1_555 1_555
H5 C6 1_555 1_555
C7 C6 1_555 1_555
H6 C7 1_555 1_555
C8 C7 1_555 1_555
H7 C8 1_555 1_555
C9 C4 1_555 1_555
H8 C9 1_555 1_555
C10 N3 1_555 1_555
H9 C10 1_555 1_555
C11 C10 1_555 1_555
C12 C11 1_555 1_555
C13 C12 1_555 1_555
H10 C13 1_555 1_555
C14 N4 1_555 1_555
C15 C14 1_555 1_555
H11 C15 1_555 1_555
C16 C15 1_555 1_555
H12 C16 1_555 1_555
C17 C16 1_555 1_555
H13 C17 1_555 1_555
C18 N4 1_555 1_555
H14 C18 1_555 1_555
C19 C12 1_555 1_555
C20 C19 1_555 1_555
H15 C20 1_555 1_555
C21 C20 1_555 1_555
H16 C21 1_555 1_555
C22 C21 1_555 1_555
H17 C22 1_555 1_555
C23 C22 1_555 1_555
H18 C23 1_555 1_555
C24 C19 1_555 1_555
H19 C24 1_555 1_555
O1 H20 1_555 1_555
H21 O1 1_555 1_555
N2 C1 1_555 1_555
C2 C3 1_555 1_555
C8 C9 1_555 1_555
C13 C14 1_555 1_555
C17 C18 1_555 1_555
C23 C24 1_555 1_555

#END
