
#######################################################################
#
#                 Cambridge Crystallographic Data Centre
#                                CCDC 
#
#######################################################################
#
# If this CIF has been generated from an entry in the Cambridge 
# Structural Database, then it will include bibliographic, chemical, 
# crystal, experimental, refinement or atomic coordinate data resulting 
# from the CCDC's data processing and validation procedures.
#
#######################################################################

data_TIGYUE01
_chemical_formula_moiety         'C14 H10 N6 O2,H2 O1'
_chemical_name_systematic        
'(4b,5,7,7a-Tetrahydro-4b,7a-epiminomethanoimino-6H-imidazo(4,,5-f)-1,10-phenanthroline) monohydrate'
_symmetry_cell_setting           monoclinic
_symmetry_space_group_name_H-M   'P 21/c'
_symmetry_Int_Tables_number      14
_space_group_name_Hall           '-P 2ybc'
loop_
_symmetry_equiv_pos_site_id
_symmetry_equiv_pos_as_xyz
1 x,y,z
2 -x,1/2+y,1/2-z
3 -x,-y,-z
4 x,1/2-y,1/2+z
_cell_length_a                   18.50180(10)
_cell_length_b                   12.3851(7)
_cell_length_c                   12.6579(7)
_cell_angle_alpha                90
_cell_angle_beta                 108.7880(10)
_cell_angle_gamma                90
_cell_volume                     2745.97
_exptl_crystal_colour            colorless
_exptl_crystal_description       plate
_chemical_melting_point          'above 330deg.C'
_cell_formula_units_Z            8
_exptl_crystal_recrystallization_method dmso
loop_
_atom_site_label
_atom_site_type_symbol
_atom_site_fract_x
_atom_site_fract_y
_atom_site_fract_z
O1 O 0.25775(10) -0.06493(14) 0.55834(15)
O2 O 0.24243(11) 0.05520(15) 0.97183(15)
N1 N -0.02908(12) 0.23546(17) 0.53911(19)
N2 N -0.07686(12) 0.07209(17) 0.64214(18)
N3 N 0.15388(12) -0.07383(16) 0.62149(17)
H1 H 0.1335 -0.1331 0.5905
N4 N 0.22023(12) 0.07699(16) 0.64484(18)
H2 H 0.2559 0.1215 0.6449
N5 N 0.18542(12) 0.13865(17) 0.80332(17)
H3 H 0.1891 0.2050 0.8245
N6 N 0.17128(12) -0.03702(16) 0.81482(17)
H4 H 0.1755 -0.1008 0.8430
C1 C -0.00575(16) 0.3215(2) 0.4956(2)
H5 H -0.0424 0.3704 0.4550
C2 C 0.07004(16) 0.3420(2) 0.5075(2)
C3 C 0.12458(15) 0.2696(2) 0.5688(2)
H6 H 0.1760 0.2809 0.5781
C4 C 0.10192(14) 0.18061(19) 0.61596(19)
C5 C 0.15898(13) 0.10264(19) 0.6889(2)
C6 C 0.12826(14) -0.01287(19) 0.6991(2)
C7 C 0.04375(14) -0.01941(19) 0.68118(19)
C8 C 0.01170(15) -0.1119(2) 0.7076(2)
H7 H 0.0414 -0.1734 0.7310
C9 C -0.06450(15) -0.1129(2) 0.6991(2)
H8 H -0.0877 -0.1756 0.7128
C10 C -0.10547(16) -0.0181(2) 0.6697(2)
H9 H -0.1559 -0.0173 0.6691
C11 C -0.00333(14) 0.0704(2) 0.6437(2)
C12 C 0.02423(14) 0.16652(19) 0.5990(2)
C13 C 0.21502(14) -0.0247(2) 0.6036(2)
C14 C 0.20384(15) 0.0511(2) 0.8730(2)
O3 O 0.19672(10) 0.69284(14) 0.62605(14)
O4 O 0.28518(10) 0.30527(14) 0.87383(14)
N7 N 0.56130(12) 0.57121(17) 0.80818(17)
N8 N 0.53742(12) 0.68944(17) 0.97152(18)
N9 N 0.31832(11) 0.41131(16) 0.74756(17)
H10 H 0.3079 0.3657 0.6935
N10 N 0.30281(12) 0.58448(16) 0.65315(17)
H11 H 0.3062 0.5866 0.5870
N11 N 0.27307(12) 0.63996(17) 0.79957(17)
H12 H 0.2497 0.6742 0.8381
N12 N 0.32387(12) 0.48143(16) 0.90909(16)
H13 H 0.3253 0.4841 0.9776
C15 C 0.57550(15) 0.5110(2) 0.7303(2)
H14 H 0.6247 0.5113 0.7260
C16 C 0.52154(16) 0.4486(2) 0.6560(2)
H15 H 0.5342 0.4065 0.6037
C17 C 0.44747(15) 0.4496(2) 0.6605(2)
H16 H 0.4094 0.4090 0.6102
C18 C 0.43107(14) 0.51168(19) 0.7408(2)
C19 C 0.35004(14) 0.51803(19) 0.74313(19)
C20 C 0.33919(13) 0.57249(19) 0.84877(19)
C21 C 0.40614(14) 0.63621(19) 0.92195(19)
C22 C 0.39807(15) 0.6944(2) 1.0113(2)
H17 H 0.3513 0.6970 1.0240
C23 C 0.46033(15) 0.7479(2) 1.0804(2)
H18 H 0.4568 0.7863 1.1417
C24 C 0.52848(15) 0.7437(2) 1.0570(2)
H19 H 0.5703 0.7808 1.1038
C25 C 0.47693(14) 0.63511(18) 0.90560(19)
C26 C 0.48991(14) 0.57034(19) 0.8145(2)
C27 C 0.30700(13) 0.3919(2) 0.8460(2)
C28 C 0.25181(14) 0.64373(19) 0.6879(2)
O5 O 0.32303(11) 0.22946(14) 0.60568(16)
H23 H 0.3631(19) 0.190(3) 0.616(3)
H24 H 0.308(2) 0.234(3) 0.532(3)
O6 O 0.17983(11) 0.74629(14) 0.40423(16)
H25 H 0.191(2) 0.733(3) 0.478(3)
H26 H 0.1430(19) 0.787(3) 0.393(3)
C29? C 0.0835(4) 0.4583(5) 0.4648(5)
H20? H 0.0445 0.4732 0.3952
H21? H 0.1326 0.4606 0.4544
H22? H 0.0815 0.5115 0.5190
loop_
_geom_bond_atom_site_label_1
_geom_bond_atom_site_label_2
_geom_bond_site_symmetry_1
_geom_bond_site_symmetry_2
O1 C13 1_555 1_555
O2 C14 1_555 1_555
N1 C1 1_555 1_555
N2 C10 1_555 1_555
N3 H1 1_555 1_555
N4 H2 1_555 1_555
N5 H3 1_555 1_555
N6 H4 1_555 1_555
C1 H5 1_555 1_555
C2 C1 1_555 1_555
C3 C2 1_555 1_555
H6 C3 1_555 1_555
C4 C3 1_555 1_555
C5 N4 1_555 1_555
C6 N3 1_555 1_555
C7 C6 1_555 1_555
C8 C7 1_555 1_555
H7 C8 1_555 1_555
C9 C8 1_555 1_555
H8 C9 1_555 1_555
C10 C9 1_555 1_555
H9 C10 1_555 1_555
C11 N2 1_555 1_555
C12 N1 1_555 1_555
C13 N3 1_555 1_555
C14 N5 1_555 1_555
O3 C28 1_555 1_555
O4 C27 1_555 1_555
N7 C15 1_555 1_555
N8 C24 1_555 1_555
N9 H10 1_555 1_555
N10 H11 1_555 1_555
N11 H12 1_555 1_555
N12 H13 1_555 1_555
C15 H14 1_555 1_555
C16 C15 1_555 1_555
H15 C16 1_555 1_555
C17 C16 1_555 1_555
H16 C17 1_555 1_555
C18 C17 1_555 1_555
C19 N9 1_555 1_555
C20 N11 1_555 1_555
C21 C20 1_555 1_555
C22 C21 1_555 1_555
H17 C22 1_555 1_555
C23 C22 1_555 1_555
H18 C23 1_555 1_555
C24 C23 1_555 1_555
H19 C24 1_555 1_555
C25 N8 1_555 1_555
C26 N7 1_555 1_555
C27 N9 1_555 1_555
C28 N10 1_555 1_555
O5 H23 1_555 1_555
O6 H25 1_555 1_555
H24 O5 1_555 1_555
H26 O6 1_555 1_555
N4 C13 1_555 1_555
N5 C5 1_555 1_555
N6 C6 1_555 1_555
N6 C14 1_555 1_555
C4 C5 1_555 1_555
C4 C12 1_555 1_555
C5 C6 1_555 1_555
C7 C11 1_555 1_555
C11 C12 1_555 1_555
N10 C19 1_555 1_555
N11 C28 1_555 1_555
N12 C20 1_555 1_555
N12 C27 1_555 1_555
C18 C19 1_555 1_555
C18 C26 1_555 1_555
C19 C20 1_555 1_555
C21 C25 1_555 1_555
C25 C26 1_555 1_555

#END
