
#######################################################################
#
#                 Cambridge Crystallographic Data Centre
#                                CCDC 
#
#######################################################################
#
# If this CIF has been generated from an entry in the Cambridge 
# Structural Database, then it will include bibliographic, chemical, 
# crystal, experimental, refinement or atomic coordinate data resulting 
# from the CCDC's data processing and validation procedures.
#
#######################################################################

data_TIGZAL
_chemical_formula_moiety         'C19 H15 Br1 N2 O1'
_chemical_name_systematic        
2-((2-Aminophenylimino)(phenyl)methyl)-4-bromophenol
_symmetry_cell_setting           triclinic
_symmetry_space_group_name_H-M   'P -1'
_symmetry_Int_Tables_number      2
_space_group_name_Hall           '-P 1'
loop_
_symmetry_equiv_pos_site_id
_symmetry_equiv_pos_as_xyz
1 x,y,z
2 -x,-y,-z
_cell_length_a                   8.4504(17)
_cell_length_b                   9.4206(19)
_cell_length_c                   11.141(2)
_cell_angle_alpha                68.94(3)
_cell_angle_beta                 85.40(3)
_cell_angle_gamma                78.31(3)
_cell_volume                     810.476
_exptl_crystal_colour            colorless
_exptl_crystal_description       block
_cell_formula_units_Z            2
_exptl_crystal_recrystallization_method chloroform/ethanol
loop_
_atom_site_label
_atom_site_type_symbol
_atom_site_fract_x
_atom_site_fract_y
_atom_site_fract_z
Br1 Br 0.82601(5) 0.79635(4) -0.41528(3)
O1 O 0.1888(2) 0.8105(2) -0.1436(2)
H1 H 0.2000 0.7754 -0.0624
N1 N 0.1382(3) 0.9926(3) 0.1374(3)
H2 H 0.1667 1.0127 0.0581
H3 H 0.0732 1.0614 0.1604
N2 N 0.3303(3) 0.7716(3) 0.0581(2)
C1 C 0.9008(5) 0.6305(5) 0.2237(4)
H4 H 0.9945 0.6028 0.2716
C2 C 0.8721(4) 0.5433(4) 0.1568(3)
H5 H 0.9468 0.4547 0.1601
C3 C 0.7361(4) 0.5825(4) 0.0847(3)
H6 H 0.7197 0.5218 0.0386
C4 C 0.6232(4) 0.7126(3) 0.0804(3)
C5 C 0.6508(4) 0.8013(4) 0.1486(3)
H7 H 0.5755 0.8891 0.1468
C6 C 0.7894(5) 0.7604(5) 0.2197(3)
H8 H 0.8078 0.8211 0.2652
C7 C 0.4709(3) 0.7531(3) 0.0073(3)
C8 C 0.4763(3) 0.7798(3) -0.1316(3)
C9 C 0.6214(4) 0.7812(3) -0.1996(3)
H9 H 0.7169 0.7688 -0.1577
C10 C 0.6255(4) 0.8009(3) -0.3276(3)
C11 C 0.4869(4) 0.8210(4) -0.3928(3)
H10 H 0.4913 0.8332 -0.4796
C12 C 0.3429(4) 0.8230(4) -0.3288(3)
H11 H 0.2485 0.8371 -0.3727
C13 C 0.3342(4) 0.8041(3) -0.1989(3)
C14 C 0.3017(3) 0.7385(3) 0.1922(3)
C15 C 0.1967(3) 0.8507(4) 0.2275(3)
C16 C 0.1562(4) 0.8156(4) 0.3567(3)
H12 H 0.0891 0.8903 0.3833
C17 C 0.2127(4) 0.6739(4) 0.4455(3)
H13 H 0.1807 0.6521 0.5310
C18 C 0.3161(4) 0.5631(4) 0.4103(3)
H14 H 0.3555 0.4669 0.4713
C19 C 0.3607(4) 0.5967(4) 0.2831(3)
H15 H 0.4316 0.5227 0.2581
loop_
_geom_bond_atom_site_label_1
_geom_bond_atom_site_label_2
_geom_bond_site_symmetry_1
_geom_bond_site_symmetry_2
Br1 C10 1_555 1_555
O1 H1 1_555 1_555
N1 H2 1_555 1_555
H3 N1 1_555 1_555
N2 C7 1_555 1_555
C1 H4 1_555 1_555
C2 C1 1_555 1_555
H5 C2 1_555 1_555
C3 C2 1_555 1_555
H6 C3 1_555 1_555
C4 C3 1_555 1_555
C5 C4 1_555 1_555
H7 C5 1_555 1_555
C6 C1 1_555 1_555
H8 C6 1_555 1_555
C7 C4 1_555 1_555
C8 C7 1_555 1_555
C9 C8 1_555 1_555
H9 C9 1_555 1_555
C10 C9 1_555 1_555
C11 C10 1_555 1_555
H10 C11 1_555 1_555
C12 C11 1_555 1_555
H11 C12 1_555 1_555
C13 O1 1_555 1_555
C14 N2 1_555 1_555
C15 N1 1_555 1_555
C16 C15 1_555 1_555
H12 C16 1_555 1_555
C17 C16 1_555 1_555
H13 C17 1_555 1_555
C18 C17 1_555 1_555
H14 C18 1_555 1_555
C19 C14 1_555 1_555
H15 C19 1_555 1_555
C5 C6 1_555 1_555
C8 C13 1_555 1_555
C12 C13 1_555 1_555
C14 C15 1_555 1_555
C18 C19 1_555 1_555

#END
