
#######################################################################
#
#                 Cambridge Crystallographic Data Centre
#                                CCDC 
#
#######################################################################
#
# If this CIF has been generated from an entry in the Cambridge 
# Structural Database, then it will include bibliographic, chemical, 
# crystal, experimental, refinement or atomic coordinate data resulting 
# from the CCDC's data processing and validation procedures.
#
#######################################################################

data_TIGZOZ
_chemical_name_common            
'2,8,14,20-tetrakis(4-Hydroxyphenyl)pyrogallol(4)arene N,N-dimethylformamide solvate'
_chemical_formula_moiety         'C52 H40 O16,6(C3 H7 N1 O1)'
_chemical_name_systematic        
'2,8,14,20-tetrakis(4-Hydroxyphenyl)-4,5,6,10,11,12,16,17,18,22,23,24-dodecahydroxycalix(4)arene N,N-dimethylformamide solvate'
_symmetry_cell_setting           triclinic
_symmetry_space_group_name_H-M   'P -1'
_symmetry_Int_Tables_number      2
_space_group_name_Hall           '-P 1'
loop_
_symmetry_equiv_pos_site_id
_symmetry_equiv_pos_as_xyz
1 x,y,z
2 -x,-y,-z
_cell_length_a                   10.6481(5)
_cell_length_b                   11.5153(6)
_cell_length_c                   14.3315(7)
_cell_angle_alpha                75.7480(10)
_cell_angle_beta                 78.4620(10)
_cell_angle_gamma                77.8910(10)
_cell_volume                     1644.75
_exptl_crystal_colour            red
_exptl_crystal_description       rod
_cell_formula_units_Z            1
_exptl_crystal_recrystallization_method dimethylformamide/ether
loop_
_atom_site_label
_atom_site_type_symbol
_atom_site_fract_x
_atom_site_fract_y
_atom_site_fract_z
C1 C 0.99258(17) 0.38850(15) 0.28575(12)
H1 H 0.9761 0.3275 0.3427
C2 C 0.99254(17) 0.60148(15) 0.21092(12)
H2 H 1.0539 0.5683 0.1594
H3 H 1.0306 0.6599 0.2313
H4 H 0.9116 0.6425 0.1862
C3 C 0.8999(2) 0.53525(18) 0.38644(13)
H5 H 0.8920 0.4611 0.4368
H6 H 0.8131 0.5821 0.3786
H7 H 0.9511 0.5844 0.4058
N5 N 0.96491(13) 0.50275(12) 0.29420(10)
O5 O 1.03927(14) 0.35553(11) 0.20722(9)
C4 C 0.34385(13) 1.16631(13) -0.21626(10)
H8 H 0.2936 1.2428 -0.2507
C5 C 0.30150(13) 1.15892(13) -0.10722(10)
C6 C 0.27753(13) 1.05079(12) -0.04233(10)
H9 H 0.2871 0.9799 -0.0675
C7 C 0.24032(13) 1.04211(12) 0.05747(10)
C8 C 0.23045(15) 1.14616(13) 0.09418(11)
C9 C 0.25611(16) 1.25525(13) 0.03091(12)
C10 C 0.28926(14) 1.26157(13) -0.06914(11)
C11 C 0.31036(14) 1.06105(13) -0.24771(10)
C12 C 0.39940(15) 0.95642(14) -0.25773(11)
H10 H 0.4855 0.9499 -0.2457
C13 C 0.36493(16) 0.86066(15) -0.28505(12)
H11 H 0.4269 0.7894 -0.2914
C14 C 0.23889(16) 0.87018(16) -0.30292(12)
C15 C 0.14689(15) 0.97112(17) -0.28887(12)
H12 H 0.0599 0.9758 -0.2980
C16 C 0.18252(15) 1.06538(15) -0.26145(11)
H13 H 0.1189 1.1345 -0.2517
C17 C 0.20447(13) 0.92516(12) 0.12616(10)
H14 H 0.1150 0.9462 0.1621
C18 C 0.29434(13) 0.87096(12) 0.20181(10)
C19 C 0.42568(13) 0.87979(12) 0.18023(10)
H15 H 0.4574 0.9261 0.1187
C20 C 0.48760(13) 1.17645(13) -0.24508(10)
C21 C 0.53467(14) 1.24316(14) -0.33598(11)
C22 C 0.66563(15) 1.25510(14) -0.35918(10)
C23 C 0.24947(14) 0.80255(13) 0.29214(10)
C24 C 0.19900(14) 0.83211(12) 0.06797(10)
C25 C 0.30959(16) 0.75285(14) 0.03820(12)
H16 H 0.3888 0.7511 0.0599
C26 C 0.30687(18) 0.67616(15) -0.02249(13)
H17 H 0.3832 0.6224 -0.0417
C27 C 0.1916(2) 0.67914(14) -0.05453(12)
C28 C 0.08049(17) 0.75720(15) -0.02619(12)
H18 H 0.0016 0.7592 -0.0484
C29 C 0.08468(15) 0.83274(14) 0.03490(11)
H19 H 0.0080 0.8858 0.0544
O6 O 0.19421(13) 1.13827(10) 0.19257(8)
H48 H 0.1457 1.2031 0.2027
O7 O 0.25105(14) 1.36112(10) 0.06166(9)
H49 H 0.1883 1.3681 0.1071
O8 O 0.31120(12) 1.36937(10) -0.13166(8)
H50 H 0.2624 1.4275 -0.1101
O9 O 0.20173(13) 0.78266(13) -0.33659(10)
H51 H 0.2328 0.7135 -0.3067
O10 O 0.44768(11) 1.29970(12) -0.39992(8)
H52 H 0.4888 1.3221 -0.4558
O11 O 0.71907(12) 1.32649(12) -0.44388(8)
H53 H 0.6706 1.3397 -0.4863
O12 O 0.12134(10) 0.78879(11) 0.31362(8)
H54 H 0.0963 0.7814 0.3739
O13 O 0.19297(16) 0.60331(12) -0.11610(11)
H55 H 0.1199 0.6163 -0.1340
C4A C 0.65615(13) 0.83369(13) 0.21626(10)
H8A H 0.7064 0.7572 0.2507
C5A C 0.69850(13) 0.84108(13) 0.10722(10)
C6A C 0.72247(13) 0.94921(12) 0.04233(10)
H9A H 0.7129 1.0201 0.0675
C7A C 0.75968(13) 0.95789(12) -0.05747(10)
C8A C 0.76955(15) 0.85384(13) -0.09418(11)
C9A C 0.74389(16) 0.74475(13) -0.03091(12)
C10A C 0.71074(14) 0.73843(13) 0.06914(11)
C11A C 0.68964(14) 0.93895(13) 0.24771(10)
C12A C 0.60060(15) 1.04358(14) 0.25773(11)
H10A H 0.5145 1.0501 0.2457
C13A C 0.63507(16) 1.13934(15) 0.28505(12)
H11A H 0.5731 1.2106 0.2914
C14A C 0.76111(16) 1.12982(16) 0.30292(12)
C15A C 0.85311(15) 1.02888(17) 0.28887(12)
H12A H 0.9401 1.0242 0.2980
C16A C 0.81748(15) 0.93462(15) 0.26145(11)
H13A H 0.8811 0.8655 0.2517
C17A C 0.79553(13) 1.07484(12) -0.12616(10)
H14A H 0.8850 1.0538 -0.1621
C18A C 0.70566(13) 1.12904(12) -0.20181(10)
C19A C 0.57432(13) 1.12021(12) -0.18023(10)
H15A H 0.5426 1.0739 -0.1187
C20A C 0.51240(13) 0.82355(13) 0.24508(10)
C21A C 0.46533(14) 0.75684(14) 0.33598(11)
C22A C 0.33437(15) 0.74490(14) 0.35918(10)
C23A C 0.75053(14) 1.19745(13) -0.29214(10)
C24A C 0.80100(14) 1.16789(12) -0.06797(10)
C25A C 0.69041(16) 1.24715(14) -0.03820(12)
H16A H 0.6112 1.2489 -0.0599
C26A C 0.69313(18) 1.32384(15) 0.02249(13)
H17A H 0.6168 1.3776 0.0417
C27A C 0.8084(2) 1.32086(14) 0.05453(12)
C28A C 0.91951(17) 1.24280(15) 0.02619(12)
H18A H 0.9984 1.2408 0.0484
C29A C 0.91532(15) 1.16726(14) -0.03490(11)
H19A H 0.9920 1.1142 -0.0544
O6A O 0.80579(13) 0.86173(10) -0.19257(8)
H48A H 0.8543 0.7969 -0.2027
O7A O 0.74895(14) 0.63888(10) -0.06166(9)
H49A H 0.8117 0.6319 -0.1071
O8A O 0.68880(12) 0.63063(10) 0.13166(8)
H50A H 0.7376 0.5725 0.1101
O9A O 0.79827(13) 1.21734(13) 0.33659(10)
H51A H 0.7672 1.2865 0.3067
O10A O 0.55232(11) 0.70030(12) 0.39992(8)
H52A H 0.5112 0.6779 0.4558
O11A O 0.28093(12) 0.67351(12) 0.44388(8)
H53A H 0.3294 0.6603 0.4863
O12A O 0.87866(10) 1.21121(11) -0.31362(8)
H54A H 0.9037 1.2186 -0.3739
O13A O 0.80703(16) 1.39669(12) 0.11610(11)
H55A H 0.8801 1.3837 0.1340
O1 O 0.42629(13) 0.61912(13) 0.59274(9)
N1 N 0.57745(14) 0.54857(13) 0.69391(10)
C30 C 0.46452(18) 0.55243(16) 0.66588(13)
H20 H 0.4090 0.4989 0.7060
C31 C 0.6704(2) 0.6228(3) 0.63664(19)
H21 H 0.6324 0.6787 0.5821
H22 H 0.7486 0.5707 0.6114
H23 H 0.6937 0.6694 0.6774
C32 C 0.6104(2) 0.46902(19) 0.78485(15)
H24 H 0.5418 0.4202 0.8145
H25 H 0.6183 0.5182 0.8296
H26 H 0.6932 0.4151 0.7716
O3 O 0.96416(13) 0.75896(13) 0.49257(9)
N3 N 0.79212(15) 0.90216(15) 0.53217(11)
C36 C 0.85173(19) 0.81247(19) 0.48894(13)
H34 H 0.8032 0.7866 0.4513
C37 C 0.8588(3) 0.9613(2) 0.58079(18)
H35 H 0.9448 0.9129 0.5892
H36 H 0.8081 0.9687 0.6448
H37 H 0.8688 1.0424 0.5414
C38 C 0.6571(2) 0.9574(3) 0.5217(2)
H38 H 0.6524 1.0446 0.4938
H39 H 0.6024 0.9454 0.5858
H40 H 0.6264 0.9191 0.4785
O2? O 0.42629(13) 0.61912(13) 0.59274(9)
N2? N 0.57745(14) 0.54857(13) 0.69391(10)
C33? C 0.5417(12) 0.5776(10) 0.6090(9)
H27? H 0.6069 0.5670 0.5545
C34? C 0.5114(15) 0.5265(17) 0.7842(12)
H28? H 0.4178 0.5478 0.7817
H29? H 0.5349 0.5754 0.8231
H30? H 0.5329 0.4401 0.8141
C35? C 0.7317(13) 0.5371(12) 0.6899(10)
H31? H 0.7763 0.5327 0.6238
H32? H 0.7631 0.4632 0.7358
H33? H 0.7494 0.6082 0.7078
O4? O 0.96416(13) 0.75896(13) 0.49257(9)
N4? N 0.79212(15) 0.90216(15) 0.53217(11)
C39? C 0.9189(11) 0.8283(11) 0.5317(8)
H41? H 0.9706 0.8438 0.5727
C40? C 0.6903(18) 0.8547(14) 0.5047(10)
H42? H 0.7294 0.7831 0.4771
H43? H 0.6470 0.9175 0.4561
H44? H 0.6264 0.8320 0.5625
C41? C 0.7601(15) 0.9996(16) 0.5765(12)
H45? H 0.8377 1.0356 0.5707
H46? H 0.7261 0.9723 0.6455
H47? H 0.6936 1.0604 0.5449
loop_
_geom_bond_atom_site_label_1
_geom_bond_atom_site_label_2
_geom_bond_site_symmetry_1
_geom_bond_site_symmetry_2
C1 H1 1_555 1_555
C2 H2 1_555 1_555
H3 C2 1_555 1_555
H4 C2 1_555 1_555
C3 H5 1_555 1_555
H6 C3 1_555 1_555
H7 C3 1_555 1_555
C4 H8 1_555 1_555
C5 C4 1_555 1_555
C6 C5 1_555 1_555
H9 C6 1_555 1_555
C7 C6 1_555 1_555
C8 C7 1_555 1_555
C9 C8 1_555 1_555
C10 C5 1_555 1_555
C11 C4 1_555 1_555
C12 C11 1_555 1_555
H10 C12 1_555 1_555
C13 C12 1_555 1_555
H11 C13 1_555 1_555
C14 C13 1_555 1_555
C15 C14 1_555 1_555
H12 C15 1_555 1_555
C16 C11 1_555 1_555
H13 C16 1_555 1_555
C17 C7 1_555 1_555
H14 C17 1_555 1_555
C18 C17 1_555 1_555
C19 C18 1_555 1_555
H15 C19 1_555 1_555
C20 C4 1_555 1_555
C21 C20 1_555 1_555
C22 C21 1_555 1_555
C23 C18 1_555 1_555
C24 C17 1_555 1_555
C25 C24 1_555 1_555
H16 C25 1_555 1_555
C26 C25 1_555 1_555
H17 C26 1_555 1_555
C27 C26 1_555 1_555
C28 C27 1_555 1_555
H18 C28 1_555 1_555
C29 C24 1_555 1_555
H19 C29 1_555 1_555
O1 C30 1_555 1_555
N1 C30 1_555 1_555
C30 H20 1_555 1_555
C31 N1 1_555 1_555
H21 C31 1_555 1_555
H22 C31 1_555 1_555
H23 C31 1_555 1_555
C32 N1 1_555 1_555
H24 C32 1_555 1_555
H25 C32 1_555 1_555
H26 C32 1_555 1_555
O3 C36 1_555 1_555
N3 C36 1_555 1_555
C36 H34 1_555 1_555
C37 N3 1_555 1_555
H35 C37 1_555 1_555
H36 C37 1_555 1_555
H37 C37 1_555 1_555
C38 N3 1_555 1_555
H38 C38 1_555 1_555
H39 C38 1_555 1_555
H40 C38 1_555 1_555
N5 C1 1_555 1_555
O5 C1 1_555 1_555
O6 C8 1_555 1_555
H48 O6 1_555 1_555
O7 C9 1_555 1_555
H49 O7 1_555 1_555
O8 C10 1_555 1_555
H50 O8 1_555 1_555
O9 C14 1_555 1_555
H51 O9 1_555 1_555
O10 C21 1_555 1_555
H52 O10 1_555 1_555
O11 C22 1_555 1_555
H53 O11 1_555 1_555
O12 C23 1_555 1_555
H54 O12 1_555 1_555
O13 C27 1_555 1_555
H55 O13 1_555 1_555
C4A H8A 1_555 1_555
C5A C4A 1_555 1_555
C6A C5A 1_555 1_555
H9A C6A 1_555 1_555
C7A C6A 1_555 1_555
C8A C7A 1_555 1_555
C9A C8A 1_555 1_555
C10A C5A 1_555 1_555
C11A C4A 1_555 1_555
C12A C11A 1_555 1_555
H10A C12A 1_555 1_555
C13A C12A 1_555 1_555
H11A C13A 1_555 1_555
C14A C13A 1_555 1_555
C15A C14A 1_555 1_555
H12A C15A 1_555 1_555
C16A C11A 1_555 1_555
H13A C16A 1_555 1_555
C17A C7A 1_555 1_555
H14A C17A 1_555 1_555
C18A C17A 1_555 1_555
C19A C20 1_555 1_555
H15A C19A 1_555 1_555
C20A C19 1_555 1_555
C21A C20A 1_555 1_555
C22A C23 1_555 1_555
C23A C22 1_555 1_555
C24A C17A 1_555 1_555
C25A C24A 1_555 1_555
H16A C25A 1_555 1_555
C26A C25A 1_555 1_555
H17A C26A 1_555 1_555
C27A C26A 1_555 1_555
C28A C27A 1_555 1_555
H18A C28A 1_555 1_555
C29A C24A 1_555 1_555
H19A C29A 1_555 1_555
O6A C8A 1_555 1_555
H48A O6A 1_555 1_555
O7A C9A 1_555 1_555
H49A O7A 1_555 1_555
O8A C10A 1_555 1_555
H50A O8A 1_555 1_555
O9A C14A 1_555 1_555
H51A O9A 1_555 1_555
O10A C21A 1_555 1_555
H52A O10A 1_555 1_555
O11A C22A 1_555 1_555
H53A O11A 1_555 1_555
O12A C23A 1_555 1_555
H54A O12A 1_555 1_555
O13A C27A 1_555 1_555
H55A O13A 1_555 1_555
C2 N5 1_555 1_555
C3 N5 1_555 1_555
C9 C10 1_555 1_555
C15 C16 1_555 1_555
C28 C29 1_555 1_555
C4A C20A 1_555 1_555
C9A C10A 1_555 1_555
C15A C16A 1_555 1_555
C18A C19A 1_555 1_555
C18A C23A 1_555 1_555
C21A C22A 1_555 1_555
C28A C29A 1_555 1_555

#END
