
#######################################################################
#
#                 Cambridge Crystallographic Data Centre
#                                CCDC 
#
#######################################################################
#
# If this CIF has been generated from an entry in the Cambridge 
# Structural Database, then it will include bibliographic, chemical, 
# crystal, experimental, refinement or atomic coordinate data resulting 
# from the CCDC's data processing and validation procedures.
#
#######################################################################

data_TIHCEV
_chemical_formula_moiety         'C66 H66 N2 O10,C4 H11 N1'
_chemical_name_systematic        
'10,16,36,42-tetrabutoxy-28,50,54,56-tetraoxa-13,39-diazatridecacyclo[43.7.1.1^3,51^.1^23,27^.1^25,29^.0^2,7^.0^6,11^.0^15,20^.0^19,24^.0^32,37^.0^33,55^.0^41,46^.0^49,53^]hexapentaconta-2,4,6,8,10,15,17,19,21,23,29(55),30,32,34,36,41,43,45,47,49(53)-icosaene-12,40-dione diethylamine unknown solvate'
_symmetry_cell_setting           triclinic
_symmetry_space_group_name_H-M   'P -1'
_symmetry_Int_Tables_number      2
_space_group_name_Hall           '-P 1'
loop_
_symmetry_equiv_pos_site_id
_symmetry_equiv_pos_as_xyz
1 x,y,z
2 -x,-y,-z
_cell_length_a                   11.9332(6)
_cell_length_b                   12.1357(6)
_cell_length_c                   12.1476(6)
_cell_angle_alpha                92.363(3)
_cell_angle_beta                 103.597(3)
_cell_angle_gamma                90.206(3)
_cell_volume                     1708.27
_exptl_crystal_colour            colorless
_exptl_crystal_description       block
_cell_formula_units_Z            1
loop_
_atom_site_label
_atom_site_type_symbol
_atom_site_fract_x
_atom_site_fract_y
_atom_site_fract_z
C34 C 0.4964(12) 0.5090(10) 0.6793(10)
H34 H 0.4650 0.5530 0.7342
H35 H 0.4331 0.4796 0.6183
H36 H 0.5408 0.4479 0.7173
C35 C 0.5730(11) 0.5798(10) 0.6306(9)
H37 H 0.5615 0.6581 0.6508
H38 H 0.6544 0.5617 0.6640
C36 C 0.4623(11) 0.4995(9) 0.4354(8)
H39 H 0.4632 0.4309 0.4770
H40 H 0.3899 0.5373 0.4392
C37 C 0.4508(12) 0.4657(10) 0.3196(10)
H41 H 0.5056 0.4069 0.3143
H42 H 0.3720 0.4383 0.2874
H43 H 0.4667 0.5287 0.2774
N2 N 0.5474(8) 0.5628(7) 0.4960(7)
H44 H 0.5921 0.5974 0.4601
C34A C 0.5036(12) 0.4910(10) 0.3207(10)
H34A H 0.5350 0.4470 0.2658
H35A H 0.5669 0.5204 0.3817
H36A H 0.4592 0.5521 0.2827
C35A C 0.4270(11) 0.4202(10) 0.3694(9)
H37A H 0.4385 0.3419 0.3492
H38A H 0.3456 0.4383 0.3360
C36A C 0.5377(11) 0.5005(9) 0.5646(8)
H39A H 0.5368 0.5691 0.5230
H40A H 0.6101 0.4627 0.5608
C37A C 0.5492(12) 0.5343(10) 0.6804(10)
H41A H 0.4944 0.5931 0.6857
H42A H 0.6280 0.5617 0.7126
H43A H 0.5333 0.4713 0.7226
N2A N 0.4526(8) 0.4372(7) 0.5040(7)
H44A H 0.4079 0.4026 0.5399
C1 C 0.9532(3) 0.3463(3) 0.9057(3)
H1 H 1.0149 0.3433 0.9773
C2 C 0.9886(3) 0.2727(3) 0.8170(3)
H2 H 0.9942 0.1953 0.8405
H3 H 1.0646 0.2965 0.8062
C3 C 0.8960(3) 0.2824(3) 0.7074(2)
H4 H 0.9132 0.2329 0.6458
C4 C 0.7628(3) 0.2727(3) 0.8371(3)
C5 C 0.6559(3) 0.2570(3) 0.8620(3)
H5 H 0.6482 0.2702 0.9375
C6 C 0.5627(3) 0.2231(3) 0.7800(3)
H6 H 0.4899 0.2156 0.7982
C7 C 0.5727(3) 0.1988(2) 0.6680(3)
C8 C 0.4757(3) 0.1648(3) 0.5799(3)
C9 C 0.4905(3) 0.1372(3) 0.4726(3)
C10 C 0.6013(3) 0.1383(3) 0.4525(3)
H7 H 0.6122 0.1140 0.3804
C11 C 0.6934(3) 0.1739(3) 0.5354(3)
H8 H 0.7674 0.1748 0.5191
C12 C 0.6836(3) 0.2094(2) 0.6442(2)
C13 C 0.7794(3) 0.2522(2) 0.7300(3)
C14 C 0.4042(3) 0.0876(3) 0.2772(3)
H9 H 0.4625 0.0302 0.2755
H10 H 0.4305 0.1560 0.2485
C15 C 0.2901(4) 0.0504(4) 0.2023(4)
H11 H 0.2998 0.0339 0.1246
H12 H 0.2649 -0.0185 0.2308
C16 C 0.2024(5) 0.1318(4) 0.1981(4)
H13 H 0.2274 0.2002 0.1688
H14 H 0.1939 0.1490 0.2761
C17 C 0.0830(4) 0.0945(5) 0.1225(5)
H15 H 0.0568 0.0275 0.1519
H16 H 0.0901 0.0794 0.0446
H17 H 0.0270 0.1532 0.1235
C18 C 0.9138(3) 0.4810(3) 0.7620(2)
C19 C 0.9049(3) 0.5937(3) 0.7423(3)
H18 H 0.9194 0.6461 0.8044
C20 C 0.8754(3) 0.6281(3) 0.6345(3)
H19 H 0.8660 0.7047 0.6221
C21 C 0.8584(2) 0.5526(2) 0.5408(2)
C22 C 0.8302(2) 0.5885(2) 0.4276(2)
C23 C 0.8209(2) 0.5131(3) 0.3380(2)
C24 C 0.8414(3) 0.4012(3) 0.3579(3)
H20 H 0.8377 0.3501 0.2957
C25 C 0.8666(3) 0.3650(3) 0.4661(2)
H21 H 0.8803 0.2888 0.4777
C26 C 0.8728(2) 0.4385(2) 0.5612(2)
C27 C 0.8944(2) 0.4019(2) 0.6753(2)
C28 C 0.8044(3) 0.7078(3) 0.4063(3)
C29 C 0.6423(3) 0.8339(3) 0.3979(3)
H22 H 0.6895 0.8942 0.4438
C30 C 0.7576(3) 0.4805(3) 0.1353(3)
H23 H 0.6952 0.4310 0.1458
H24 H 0.8228 0.4349 0.1236
C31 C 0.7149(3) 0.5506(3) 0.0353(3)
H25 H 0.6881 0.5019 -0.0333
H26 H 0.7798 0.5962 0.0238
C32 C 0.6179(3) 0.6254(4) 0.0489(3)
H27 H 0.5518 0.5789 0.0560
H28 H 0.6435 0.6698 0.1208
C33 C 0.5770(5) 0.7017(5) -0.0437(4)
H29 H 0.5219 0.7532 -0.0222
H30 H 0.5393 0.6594 -0.1130
H31 H 0.6428 0.7432 -0.0572
N1 N 0.6960(2) 0.7356(2) 0.4234(2)
H32 H 0.6594 0.6858 0.4529
O1 O 0.84897(19) 0.31003(19) 0.92900(17)
O2 O 0.94205(19) 0.45811(18) 0.87522(17)
O3 O 0.3935(2) 0.1078(2) 0.3912(2)
O4 O 0.79439(19) 0.55436(18) 0.23247(16)
O5 O 0.8614(4) 0.7727(4) 0.3805(4)
H33 H 0.6365 0.8477 0.3169
C1A C 0.0468(3) 0.6537(3) 0.0943(3)
H1A H -0.0149 0.6567 0.0227
C2A C 0.0114(3) 0.7273(3) 0.1830(3)
H2A H 0.0058 0.8047 0.1595
H3A H -0.0646 0.7035 0.1938
C3A C 0.1040(3) 0.7176(3) 0.2926(2)
H4A H 0.0868 0.7671 0.3542
C4A C 0.2372(3) 0.7273(3) 0.1629(3)
C5A C 0.3441(3) 0.7430(3) 0.1380(3)
H5A H 0.3518 0.7298 0.0625
C6A C 0.4373(3) 0.7769(3) 0.2200(3)
H6A H 0.5101 0.7844 0.2018
C7A C 0.4273(3) 0.8012(2) 0.3320(3)
C8A C 0.5243(3) 0.8352(3) 0.4201(3)
C9A C 0.5095(3) 0.8628(3) 0.5274(3)
C10A C 0.3987(3) 0.8617(3) 0.5475(3)
H7A H 0.3878 0.8860 0.6196
C11A C 0.3066(3) 0.8261(3) 0.4646(3)
H8A H 0.2326 0.8252 0.4809
C12A C 0.3164(3) 0.7906(2) 0.3558(2)
C13A C 0.2206(3) 0.7478(2) 0.2700(3)
C14A C 0.5958(3) 0.9124(3) 0.7228(3)
H9A H 0.5375 0.9698 0.7245
H10A H 0.5695 0.8440 0.7515
C15A C 0.7099(4) 0.9496(4) 0.7977(4)
H11A H 0.7002 0.9661 0.8754
H12A H 0.7351 1.0185 0.7692
C16A C 0.7976(5) 0.8682(4) 0.8019(4)
H13A H 0.7726 0.7998 0.8312
H14A H 0.8061 0.8510 0.7239
C17A C 0.9170(4) 0.9055(5) 0.8775(5)
H15A H 0.9432 0.9725 0.8481
H16A H 0.9099 0.9206 0.9554
H17A H 0.9730 0.8468 0.8765
C18A C 0.0862(3) 0.5190(3) 0.2380(2)
C19A C 0.0951(3) 0.4063(3) 0.2577(3)
H18A H 0.0806 0.3539 0.1956
C20A C 0.1246(3) 0.3719(3) 0.3655(3)
H19A H 0.1340 0.2953 0.3779
C21A C 0.1416(2) 0.4474(2) 0.4592(2)
C22A C 0.1698(2) 0.4115(2) 0.5724(2)
C23A C 0.1791(2) 0.4869(3) 0.6620(2)
C24A C 0.1586(3) 0.5988(3) 0.6421(3)
H20A H 0.1623 0.6499 0.7043
C25A C 0.1334(3) 0.6350(3) 0.5339(2)
H21A H 0.1197 0.7112 0.5223
C26A C 0.1272(2) 0.5615(2) 0.4388(2)
C27A C 0.1056(2) 0.5981(2) 0.3247(2)
C28A C 0.1956(3) 0.2922(3) 0.5937(3)
C29A C 0.3577(3) 0.1661(3) 0.6021(3)
H22A H 0.3105 0.1058 0.5562
C30A C 0.2424(3) 0.5195(3) 0.8647(3)
H23A H 0.3048 0.5690 0.8542
H24A H 0.1772 0.5651 0.8764
C31A C 0.2851(3) 0.4494(3) 0.9647(3)
H25A H 0.3119 0.4981 1.0333
H26A H 0.2202 0.4038 0.9762
C32A C 0.3821(3) 0.3746(4) 0.9511(3)
H27A H 0.4482 0.4211 0.9440
H28A H 0.3565 0.3302 0.8792
C33A C 0.4230(5) 0.2983(5) 1.0437(4)
H29A H 0.4781 0.2468 1.0222
H30A H 0.4607 0.3406 1.1130
H31A H 0.3572 0.2568 1.0572
N1A N 0.3040(2) 0.2644(2) 0.5766(2)
H32A H 0.3406 0.3142 0.5471
O1A O 0.15103(19) 0.68997(19) 0.07100(17)
O2A O 0.05795(19) 0.54189(18) 0.12478(17)
O3A O 0.6065(2) 0.8922(2) 0.6088(2)
O4A O 0.20561(19) 0.44564(18) 0.76753(16)
O5A O 0.1386(4) 0.2273(4) 0.6195(4)
H33A H 0.3635 0.1523 0.6831
H45? H 0.8642 0.7545 0.4579
H46? H 0.8070 0.7227 0.3275
O6? O 0.6706(5) 0.8885(4) 0.3254(5)
loop_
_geom_bond_atom_site_label_1
_geom_bond_atom_site_label_2
_geom_bond_site_symmetry_1
_geom_bond_site_symmetry_2
C1 H1 1_555 1_555
C2 C1 1_555 1_555
H2 C2 1_555 1_555
H3 C2 1_555 1_555
C3 C2 1_555 1_555
H4 C3 1_555 1_555
C4 C5 1_555 1_555
C5 H5 1_555 1_555
C6 C5 1_555 1_555
H6 C6 1_555 1_555
C7 C6 1_555 1_555
C8 C7 1_555 1_555
C9 C8 1_555 1_555
C10 C9 1_555 1_555
H7 C10 1_555 1_555
C11 C10 1_555 1_555
H8 C11 1_555 1_555
C12 C7 1_555 1_555
C13 C3 1_555 1_555
C14 H9 1_555 1_555
H10 C14 1_555 1_555
C15 C14 1_555 1_555
H11 C15 1_555 1_555
H12 C15 1_555 1_555
C16 C15 1_555 1_555
H13 C16 1_555 1_555
H14 C16 1_555 1_555
C17 C16 1_555 1_555
H15 C17 1_555 1_555
H16 C17 1_555 1_555
H17 C17 1_555 1_555
C18 C19 1_555 1_555
C19 H18 1_555 1_555
C20 C19 1_555 1_555
H19 C20 1_555 1_555
C21 C20 1_555 1_555
C22 C21 1_555 1_555
C23 C22 1_555 1_555
C24 C23 1_555 1_555
H20 C24 1_555 1_555
C25 C24 1_555 1_555
H21 C25 1_555 1_555
C26 C21 1_555 1_555
C27 C3 1_555 1_555
C28 C22 1_555 1_555
C29 H22 1_555 1_555
C30 H23 1_555 1_555
H24 C30 1_555 1_555
C31 C30 1_555 1_555
H25 C31 1_555 1_555
H26 C31 1_555 1_555
C32 C31 1_555 1_555
H27 C32 1_555 1_555
H28 C32 1_555 1_555
C33 C32 1_555 1_555
H29 C33 1_555 1_555
H30 C33 1_555 1_555
H31 C33 1_555 1_555
N1 C28 1_555 1_555
H32 N1 1_555 1_555
O1 C1 1_555 1_555
O2 C1 1_555 1_555
O3 C9 1_555 1_555
O4 C23 1_555 1_555
O5 C28 1_555 1_555
H33 C29 1_555 1_555
C34 H34 1_555 1_555
H35 C34 1_555 1_555
H36 C34 1_555 1_555
C35 C34 1_555 1_555
H37 C35 1_555 1_555
H38 C35 1_555 1_555
C36 H39 1_555 1_555
H40 C36 1_555 1_555
C37 C36 1_555 1_555
H41 C37 1_555 1_555
H42 C37 1_555 1_555
H43 C37 1_555 1_555
N2 C35 1_555 1_555
H44 N2 1_555 1_555
C1A H1A 1_555 1_555
C2A C1A 1_555 1_555
H2A C2A 1_555 1_555
H3A C2A 1_555 1_555
C3A C2A 1_555 1_555
H4A C3A 1_555 1_555
C4A C5A 1_555 1_555
C5A H5A 1_555 1_555
C6A C5A 1_555 1_555
H6A C6A 1_555 1_555
C7A C6A 1_555 1_555
C8A C29 1_555 1_555
C9A C8A 1_555 1_555
C10A C9A 1_555 1_555
H7A C10A 1_555 1_555
C11A C10A 1_555 1_555
H8A C11A 1_555 1_555
C12A C7A 1_555 1_555
C13A C3A 1_555 1_555
C14A H9A 1_555 1_555
H10A C14A 1_555 1_555
C15A C14A 1_555 1_555
H11A C15A 1_555 1_555
H12A C15A 1_555 1_555
C16A C15A 1_555 1_555
H13A C16A 1_555 1_555
H14A C16A 1_555 1_555
C17A C16A 1_555 1_555
H15A C17A 1_555 1_555
H16A C17A 1_555 1_555
H17A C17A 1_555 1_555
C18A C19A 1_555 1_555
C19A H18A 1_555 1_555
C20A C19A 1_555 1_555
H19A C20A 1_555 1_555
C21A C20A 1_555 1_555
C22A C21A 1_555 1_555
C23A C22A 1_555 1_555
C24A C23A 1_555 1_555
H20A C24A 1_555 1_555
C25A C24A 1_555 1_555
H21A C25A 1_555 1_555
C26A C21A 1_555 1_555
C27A C3A 1_555 1_555
C28A C22A 1_555 1_555
C29A C8 1_555 1_555
H22A C29A 1_555 1_555
C30A H23A 1_555 1_555
H24A C30A 1_555 1_555
C31A C30A 1_555 1_555
H25A C31A 1_555 1_555
H26A C31A 1_555 1_555
C32A C31A 1_555 1_555
H27A C32A 1_555 1_555
H28A C32A 1_555 1_555
C33A C32A 1_555 1_555
H29A C33A 1_555 1_555
H30A C33A 1_555 1_555
H31A C33A 1_555 1_555
N1A C28A 1_555 1_555
H32A N1A 1_555 1_555
O1A C1A 1_555 1_555
O2A C1A 1_555 1_555
O3A C9A 1_555 1_555
O4A C23A 1_555 1_555
O5A C28A 1_555 1_555
H33A C29A 1_555 1_555
C34A H34A 1_555 1_555
H35A C34A 1_555 1_555
H36A C34A 1_555 1_555
C35A C34A 1_555 1_555
H37A C35A 1_555 1_555
H38A C35A 1_555 1_555
C36A H39A 1_555 1_555
H40A C36A 1_555 1_555
C37A C36A 1_555 1_555
H41A C37A 1_555 1_555
H42A C37A 1_555 1_555
H43A C37A 1_555 1_555
N2A C35A 1_555 1_555
H44A N2A 1_555 1_555
C4 C13 1_555 1_555
C4 O1 1_555 1_555
C11 C12 1_555 1_555
C12 C13 1_555 1_555
C14 O3 1_555 1_555
C18 C27 1_555 1_555
C18 O2 1_555 1_555
C25 C26 1_555 1_555
C26 C27 1_555 1_555
C29 N1 1_555 1_555
C30 O4 1_555 1_555
C36 N2 1_555 1_555
C4A C13A 1_555 1_555
C4A O1A 1_555 1_555
C7A C8A 1_555 1_555
C11A C12A 1_555 1_555
C12A C13A 1_555 1_555
C14A O3A 1_555 1_555
C18A C27A 1_555 1_555
C18A O2A 1_555 1_555
C25A C26A 1_555 1_555
C26A C27A 1_555 1_555
C29A N1A 1_555 1_555
C30A O4A 1_555 1_555
C36A N2A 1_555 1_555

#END
