
#######################################################################
#
#                 Cambridge Crystallographic Data Centre
#                                CCDC 
#
#######################################################################
#
# If this CIF has been generated from an entry in the Cambridge 
# Structural Database, then it will include bibliographic, chemical, 
# crystal, experimental, refinement or atomic coordinate data resulting 
# from the CCDC's data processing and validation procedures.
#
#######################################################################

data_TIHCIZ
_chemical_formula_moiety         'C66 H66 N2 O10,C4 H6 O2'
_chemical_name_systematic        
'10,16,36,42-tetrabutoxy-28,50,54,56-tetraoxa-13,39-diazatridecacyclo[43.7.1.1^3,51^.1^23,27^.1^25,29^.0^2,7^.0^6,11^.0^15,20^.0^19,24^.0^32,37^.0^33,55^.0^41,46^.0^49,53^]hexapentaconta-2,4,6,8,10,15,17,19,21,23,29(55),30,32,34,36,41,43,45,47,49(53)-icosaene-12,40-dione 2,3-dihydro-1,4-dioxine unknown solvate'
_symmetry_cell_setting           triclinic
_symmetry_space_group_name_H-M   'P -1'
_symmetry_Int_Tables_number      2
_space_group_name_Hall           '-P 1'
loop_
_symmetry_equiv_pos_site_id
_symmetry_equiv_pos_as_xyz
1 x,y,z
2 -x,-y,-z
_cell_length_a                   11.8324(5)
_cell_length_b                   11.8564(4)
_cell_length_c                   12.4505(5)
_cell_angle_alpha                93.443(2)
_cell_angle_beta                 91.068(2)
_cell_angle_gamma                105.257(2)
_cell_volume                     1681
_exptl_crystal_colour            colorless
_exptl_crystal_description       block
_cell_formula_units_Z            1
loop_
_atom_site_label
_atom_site_type_symbol
_atom_site_fract_x
_atom_site_fract_y
_atom_site_fract_z
C34 C 0.5366(8) 0.6527(9) 0.4818(7)
H34 H 0.5451 0.7299 0.4600
C35 C 0.6020(8) 0.6380(8) 0.5604(7)
H35 H 0.6566 0.7032 0.5965
C36 C 0.4512(11) 0.4439(10) 0.4549(11)
H36 H 0.3685 0.4026 0.4664
H37 H 0.4754 0.4036 0.3909
C37 C 0.5080(15) 0.4267(12) 0.5310(11)
H38 H 0.5525 0.3711 0.5048
H39 H 0.4517 0.3857 0.5828
O6 O 0.4519(6) 0.5584(8) 0.4259(7)
O7 O 0.5916(7) 0.5243(8) 0.5921(5)
C34A C 0.4634(8) 0.3473(9) 0.5182(7)
H34A H 0.4549 0.2701 0.5400
C35A C 0.3980(8) 0.3620(8) 0.4396(7)
H35A H 0.3434 0.2968 0.4035
C36A C 0.5488(11) 0.5561(10) 0.5451(11)
H36A H 0.6315 0.5974 0.5336
H37A H 0.5246 0.5964 0.6091
C37A C 0.4920(15) 0.5733(12) 0.4690(11)
H38A H 0.4475 0.6289 0.4952
H39A H 0.5483 0.6143 0.4172
O6A O 0.5481(6) 0.4416(8) 0.5741(7)
O7A O 0.4084(7) 0.4757(8) 0.4079(5)
C1 C 0.9452(2) 0.9023(2) 0.3258(2)
H1 H 1.0103 0.9745 0.3184
C2 C 0.9681(2) 0.8066(2) 0.2531(2)
H2 H 1.0456 0.7944 0.2717
H3 H 0.9679 0.8273 0.1773
C3 C 0.87103(19) 0.6951(2) 0.26807(19)
H4 H 0.8812 0.6289 0.2189
C4 C 0.7447(2) 0.8336(2) 0.2642(2)
C5 C 0.6378(2) 0.8630(2) 0.2531(2)
H5 H 0.6354 0.9420 0.2668
C6 C 0.5385(2) 0.7798(2) 0.22331(19)
H6 H 0.4661 0.8001 0.2205
C7 C 0.5406(2) 0.6626(2) 0.19602(18)
C8 C 0.4377(2) 0.5746(2) 0.16143(19)
C9 C 0.4435(2) 0.4635(2) 0.1292(2)
C10 C 0.5526(2) 0.4374(2) 0.1290(2)
H7 H 0.5574 0.3618 0.1032
C11 C 0.6519(2) 0.5198(2) 0.1656(2)
H8 H 0.7243 0.4994 0.1663
C12 C 0.6502(2) 0.6341(2) 0.20219(19)
C13 C 0.7534(2) 0.7210(2) 0.24353(19)
C14 C 0.3193(2) 0.6010(2) 0.1693(2)
C15 C 0.3407(2) 0.2661(2) 0.0676(2)
H9 H 0.3743 0.2307 0.1262
H10 H 0.3880 0.2646 0.0031
C16 C 0.2141(2) 0.1993(2) 0.0427(2)
H11 H 0.1810 0.2391 -0.0128
H12 H 0.2115 0.1195 0.0123
C17 C 0.1395(2) 0.1897(3) 0.1390(2)
H13 H 0.1711 0.1469 0.1930
H14 H 0.1457 0.2695 0.1713
C18 C 0.0129(3) 0.1290(3) 0.1165(3)
H15 H -0.0188 0.1687 0.0610
H16 H -0.0304 0.1312 0.1825
H17 H 0.0049 0.0474 0.0910
C19 C 0.9123(2) 0.7609(2) 0.4610(2)
C20 C 0.8803(2) 0.6674(2) 0.38578(19)
C21 C 0.85995(19) 0.5520(2) 0.42367(19)
C22 C 0.8386(2) 0.4499(2) 0.35358(19)
H18 H 0.8385 0.4571 0.2780
C23 C 0.8180(2) 0.3409(2) 0.3921(2)
H19 H 0.8044 0.2739 0.3429
C24 C 0.8166(2) 0.3268(2) 0.50274(19)
C25 C 0.8389(2) 0.4231(2) 0.57454(18)
C26 C 0.8631(2) 0.5373(2) 0.53589(19)
C27 C 0.8922(2) 0.6385(2) 0.6088(2)
H20 H 0.8937 0.6298 0.6842
C28 C 0.9178(2) 0.7468(2) 0.5717(2)
H21 H 0.9396 0.8139 0.6210
C29 C 0.8305(2) 0.4076(2) 0.6936(2)
H22 H 0.8386 0.3289 0.7084
H23 H 0.8952 0.4668 0.7329
C30 C 0.7530(2) 0.1164(2) 0.4769(2)
H24 H 0.8152 0.1070 0.4278
H25 H 0.6838 0.1209 0.4331
C31 C 0.7206(2) 0.0144(2) 0.5476(2)
H26 H 0.6925 -0.0591 0.5013
H27 H 0.7915 0.0096 0.5885
C32 C 0.6273(3) 0.0240(3) 0.6254(3)
H28 H 0.6582 0.0939 0.6756
H29 H 0.5592 0.0361 0.5847
C33 C 0.5863(4) -0.0810(4) 0.6898(4)
H30 H 0.5581 -0.1512 0.6409
H31 H 0.5225 -0.0707 0.7352
H32 H 0.6516 -0.0897 0.7353
N1 N 0.72345(18) 0.4198(2) 0.72962(16)
H33 H 0.6787 0.4430 0.6833
O1 O 0.83823(14) 0.92796(13) 0.29676(14)
O2 O 0.94215(16) 0.87690(14) 0.43587(15)
O3 O 0.2805(3) 0.6616(4) 0.1158(3)
O4 O 0.33997(15) 0.38360(15) 0.09991(15)
O5 O 0.79381(16) 0.21987(13) 0.54647(13)
C1A C 0.0548(2) 0.0977(2) 0.6742(2)
H1A H -0.0103 0.0255 0.6816
C2A C 0.0319(2) 0.1934(2) 0.7469(2)
H2A H -0.0456 0.2056 0.7283
H3A H 0.0321 0.1727 0.8227
C3A C 0.12897(19) 0.3049(2) 0.73193(19)
H4A H 0.1188 0.3711 0.7811
C4A C 0.2553(2) 0.1664(2) 0.7358(2)
C5A C 0.3622(2) 0.1370(2) 0.7469(2)
H5A H 0.3646 0.0580 0.7332
C6A C 0.4615(2) 0.2202(2) 0.77669(19)
H6A H 0.5339 0.1999 0.7795
C7A C 0.4594(2) 0.3374(2) 0.80398(18)
C8A C 0.5623(2) 0.4254(2) 0.83857(19)
C9A C 0.5565(2) 0.5365(2) 0.8708(2)
C10A C 0.4474(2) 0.5626(2) 0.8710(2)
H7A H 0.4426 0.6382 0.8968
C11A C 0.3481(2) 0.4802(2) 0.8344(2)
H8A H 0.2757 0.5006 0.8337
C12A C 0.3498(2) 0.3659(2) 0.79781(19)
C13A C 0.2466(2) 0.2790(2) 0.75647(19)
C14A C 0.6807(2) 0.3990(2) 0.8307(2)
C15A C 0.6593(2) 0.7339(2) 0.9324(2)
H9A H 0.6257 0.7693 0.8738
H10A H 0.6120 0.7354 0.9969
C16A C 0.7859(2) 0.8007(2) 0.9573(2)
H11A H 0.8190 0.7609 1.0128
H12A H 0.7885 0.8805 0.9877
C17A C 0.8605(2) 0.8103(3) 0.8610(2)
H13A H 0.8289 0.8531 0.8070
H14A H 0.8543 0.7305 0.8287
C18A C 0.9871(3) 0.8710(3) 0.8835(3)
H15A H 1.0188 0.8313 0.9390
H16A H 1.0304 0.8688 0.8175
H17A H 0.9951 0.9526 0.9090
C19A C 0.0877(2) 0.2391(2) 0.5390(2)
C20A C 0.1197(2) 0.3326(2) 0.61422(19)
C21A C 0.14005(19) 0.4480(2) 0.57633(19)
C22A C 0.1614(2) 0.5501(2) 0.64642(19)
H18A H 0.1615 0.5429 0.7220
C23A C 0.1820(2) 0.6591(2) 0.6079(2)
H19A H 0.1956 0.7261 0.6571
C24A C 0.1834(2) 0.6732(2) 0.49726(19)
C25A C 0.1611(2) 0.5769(2) 0.42546(18)
C26A C 0.1369(2) 0.4627(2) 0.46411(19)
C27A C 0.1078(2) 0.3615(2) 0.3912(2)
H20A H 0.1063 0.3702 0.3158
C28A C 0.0822(2) 0.2532(2) 0.4283(2)
H21A H 0.0604 0.1861 0.3790
C29A C 0.1695(2) 0.5924(2) 0.3064(2)
H22A H 0.1614 0.6711 0.2916
H23A H 0.1048 0.5332 0.2671
C30A C 0.2470(2) 0.8836(2) 0.5231(2)
H24A H 0.1848 0.8930 0.5722
H25A H 0.3162 0.8791 0.5669
C31A C 0.2794(2) 0.9856(2) 0.4524(2)
H26A H 0.3075 1.0591 0.4987
H27A H 0.2085 0.9904 0.4115
C32A C 0.3727(3) 0.9760(3) 0.3746(3)
H28A H 0.3418 0.9061 0.3244
H29A H 0.4408 0.9639 0.4153
C33A C 0.4137(4) 1.0810(4) 0.3102(4)
H30A H 0.4419 1.1512 0.3591
H31A H 0.4775 1.0707 0.2648
H32A H 0.3484 1.0897 0.2647
N1A N 0.27655(18) 0.5802(2) 0.27038(16)
H33A H 0.3213 0.5570 0.3167
O1A O 0.16177(14) 0.07204(13) 0.70324(14)
O2A O 0.05785(16) 0.12310(14) 0.56413(15)
O3A O 0.7195(3) 0.3384(4) 0.8842(3)
O4A O 0.66003(15) 0.61640(15) 0.90009(15)
O5A O 0.20619(16) 0.78013(13) 0.45353(13)
H40? H 0.3273 0.6839 0.1550
H41? H 0.2636 0.5510 0.1145
O8? O 0.9027(3) 0.4029(3) 0.7558(3)
loop_
_geom_bond_atom_site_label_1
_geom_bond_atom_site_label_2
_geom_bond_site_symmetry_1
_geom_bond_site_symmetry_2
C1 H1 1_555 1_555
C2 C1 1_555 1_555
H2 C2 1_555 1_555
H3 C2 1_555 1_555
C3 C2 1_555 1_555
H4 C3 1_555 1_555
C4 C5 1_555 1_555
C5 H5 1_555 1_555
C6 C5 1_555 1_555
H6 C6 1_555 1_555
C7 C6 1_555 1_555
C8 C7 1_555 1_555
C9 C8 1_555 1_555
C10 C9 1_555 1_555
H7 C10 1_555 1_555
C11 C10 1_555 1_555
H8 C11 1_555 1_555
C12 C7 1_555 1_555
C13 C3 1_555 1_555
C14 C8 1_555 1_555
C15 H9 1_555 1_555
H10 C15 1_555 1_555
C16 C15 1_555 1_555
H11 C16 1_555 1_555
H12 C16 1_555 1_555
C17 C16 1_555 1_555
H13 C17 1_555 1_555
H14 C17 1_555 1_555
C18 C17 1_555 1_555
H15 C18 1_555 1_555
H16 C18 1_555 1_555
H17 C18 1_555 1_555
C19 C20 1_555 1_555
C20 C3 1_555 1_555
C21 C20 1_555 1_555
C22 C21 1_555 1_555
H18 C22 1_555 1_555
C23 C22 1_555 1_555
H19 C23 1_555 1_555
C24 C23 1_555 1_555
C25 C24 1_555 1_555
C26 C21 1_555 1_555
C27 C26 1_555 1_555
H20 C27 1_555 1_555
C28 C19 1_555 1_555
H21 C28 1_555 1_555
C29 C25 1_555 1_555
H22 C29 1_555 1_555
H23 C29 1_555 1_555
C30 H24 1_555 1_555
H25 C30 1_555 1_555
C31 C30 1_555 1_555
H26 C31 1_555 1_555
H27 C31 1_555 1_555
C32 C31 1_555 1_555
H28 C32 1_555 1_555
H29 C32 1_555 1_555
C33 C32 1_555 1_555
H30 C33 1_555 1_555
H31 C33 1_555 1_555
H32 C33 1_555 1_555
N1 C29 1_555 1_555
H33 N1 1_555 1_555
O1 C1 1_555 1_555
O2 C1 1_555 1_555
O3 C14 1_555 1_555
O4 C9 1_555 1_555
O5 C24 1_555 1_555
C34 H34 1_555 1_555
C35 C34 1_555 1_555
H35 C35 1_555 1_555
C36 H36 1_555 1_555
H37 C36 1_555 1_555
C37 C36 1_555 1_555
H38 C37 1_555 1_555
H39 C37 1_555 1_555
O6 C34 1_555 1_555
O7 C35 1_555 1_555
C1A H1A 1_555 1_555
C2A C1A 1_555 1_555
H2A C2A 1_555 1_555
H3A C2A 1_555 1_555
C3A C2A 1_555 1_555
H4A C3A 1_555 1_555
C4A C5A 1_555 1_555
C5A H5A 1_555 1_555
C6A C5A 1_555 1_555
H6A C6A 1_555 1_555
C7A C6A 1_555 1_555
C8A C7A 1_555 1_555
C9A C8A 1_555 1_555
C10A C9A 1_555 1_555
H7A C10A 1_555 1_555
C11A C10A 1_555 1_555
H8A C11A 1_555 1_555
C12A C7A 1_555 1_555
C13A C3A 1_555 1_555
C14A N1 1_555 1_555
C15A H9A 1_555 1_555
H10A C15A 1_555 1_555
C16A C15A 1_555 1_555
H11A C16A 1_555 1_555
H12A C16A 1_555 1_555
C17A C16A 1_555 1_555
H13A C17A 1_555 1_555
H14A C17A 1_555 1_555
C18A C17A 1_555 1_555
H15A C18A 1_555 1_555
H16A C18A 1_555 1_555
H17A C18A 1_555 1_555
C19A C20A 1_555 1_555
C20A C3A 1_555 1_555
C21A C20A 1_555 1_555
C22A C21A 1_555 1_555
H18A C22A 1_555 1_555
C23A C22A 1_555 1_555
H19A C23A 1_555 1_555
C24A C23A 1_555 1_555
C25A C24A 1_555 1_555
C26A C21A 1_555 1_555
C27A C26A 1_555 1_555
H20A C27A 1_555 1_555
C28A C19A 1_555 1_555
H21A C28A 1_555 1_555
C29A C25A 1_555 1_555
H22A C29A 1_555 1_555
H23A C29A 1_555 1_555
C30A H24A 1_555 1_555
H25A C30A 1_555 1_555
C31A C30A 1_555 1_555
H26A C31A 1_555 1_555
H27A C31A 1_555 1_555
C32A C31A 1_555 1_555
H28A C32A 1_555 1_555
H29A C32A 1_555 1_555
C33A C32A 1_555 1_555
H30A C33A 1_555 1_555
H31A C33A 1_555 1_555
H32A C33A 1_555 1_555
N1A C14 1_555 1_555
H33A N1A 1_555 1_555
O1A C1A 1_555 1_555
O2A C1A 1_555 1_555
O3A C14A 1_555 1_555
O4A C9A 1_555 1_555
O5A C24A 1_555 1_555
C34A H34A 1_555 1_555
C35A C34A 1_555 1_555
H35A C35A 1_555 1_555
C36A H36A 1_555 1_555
H37A C36A 1_555 1_555
C37A C36A 1_555 1_555
H38A C37A 1_555 1_555
H39A C37A 1_555 1_555
O6A C34A 1_555 1_555
O7A C35A 1_555 1_555
C4 C13 1_555 1_555
C4 O1 1_555 1_555
C11 C12 1_555 1_555
C12 C13 1_555 1_555
C15 O4 1_555 1_555
C19 O2 1_555 1_555
C25 C26 1_555 1_555
C27 C28 1_555 1_555
C30 O5 1_555 1_555
C36 O6 1_555 1_555
C37 O7 1_555 1_555
C4A C13A 1_555 1_555
C4A O1A 1_555 1_555
C8A C14A 1_555 1_555
C11A C12A 1_555 1_555
C12A C13A 1_555 1_555
C15A O4A 1_555 1_555
C19A O2A 1_555 1_555
C25A C26A 1_555 1_555
C27A C28A 1_555 1_555
C29A N1A 1_555 1_555
C30A O5A 1_555 1_555
C36A O6A 1_555 1_555
C37A O7A 1_555 1_555

#END
