
#######################################################################
#
#                 Cambridge Crystallographic Data Centre
#                                CCDC 
#
#######################################################################
#
# If this CIF has been generated from an entry in the Cambridge 
# Structural Database, then it will include bibliographic, chemical, 
# crystal, experimental, refinement or atomic coordinate data resulting 
# from the CCDC's data processing and validation procedures.
#
#######################################################################

data_TIHCOF
_chemical_formula_moiety         'C66 H66 N2 O10,C3 H8 O2'
_chemical_name_systematic        
'10,16,36,42-tetrabutoxy-28,50,54,56-tetraoxa-13,39-diazatridecacyclo[43.7.1.1^3,51^.1^23,27^.1^25,29^.0^2,7^.0^6,11^.0^15,20^.0^19,24^.0^32,37^.0^33,55^.0^41,46^.0^49,53^]hexapentaconta-2,4,6,8,10,15,17,19,21,23,29(55),30,32,34,36,41,43,45,47,49(53)-icosaene-12,40-dione dimethoxymethane unknown solvate'
_symmetry_cell_setting           triclinic
_symmetry_space_group_name_H-M   'P -1'
_symmetry_Int_Tables_number      2
_space_group_name_Hall           '-P 1'
loop_
_symmetry_equiv_pos_site_id
_symmetry_equiv_pos_as_xyz
1 x,y,z
2 -x,-y,-z
_cell_length_a                   11.9576(10)
_cell_length_b                   12.1300(10)
_cell_length_c                   12.1777(10)
_cell_angle_alpha                91.122(4)
_cell_angle_beta                 92.400(3)
_cell_angle_gamma                103.052(4)
_cell_volume                     1718.42
_exptl_crystal_colour            colorless
_exptl_crystal_description       block
_cell_formula_units_Z            1
loop_
_atom_site_label
_atom_site_type_symbol
_atom_site_fract_x
_atom_site_fract_y
_atom_site_fract_z
O1 O 0.06560(16) 0.12523(13) 0.53787(14)
O2 O 0.15880(15) 0.06963(14) 0.68939(15)
O3 O 0.20458(16) 0.77086(13) 0.44289(14)
O4 O 0.60690(15) 0.60948(14) 0.89436(15)
O5 O 0.8715(3) 0.3925(4) 0.7827(3)
N1 N 0.69092(16) 0.41048(17) 0.73160(15)
H1 H 0.6458 0.4223 0.6762
C1 C 0.0539(2) 0.0929(2) 0.6485(2)
H2 H -0.0068 0.0211 0.6495
C2 C 0.2840(2) 0.9673(2) 0.4515(2)
H3 H 0.2206 0.9816 0.4029
H4 H 0.3101 1.0342 0.5018
C3 C 0.0174(2) 0.1798(2) 0.7203(2)
H5 H 0.0130 0.1553 0.7974
H6 H -0.0591 0.1902 0.6946
C4 C 0.10775(19) 0.2904(2) 0.71259(19)
H7 H 0.0896 0.3507 0.7614
C5 C 0.10806(19) 0.32520(19) 0.59299(19)
C6 C 0.0930(2) 0.2399(2) 0.5147(2)
C7 C 0.1049(2) 0.2610(2) 0.4026(2)
H8 H 0.0929 0.1996 0.3506
C8 C 0.1336(2) 0.3691(2) 0.36830(19)
H9 H 0.1460 0.3827 0.2927
C9 C 0.14543(18) 0.46207(19) 0.44389(19)
C10 C 0.12825(18) 0.43895(19) 0.55740(18)
C11 C 0.13017(19) 0.53301(19) 0.62883(19)
H10 H 0.1144 0.5200 0.7039
C12 C 0.1538(2) 0.6413(2) 0.5938(2)
H11 H 0.1540 0.7022 0.6441
C13 C 0.17782(19) 0.66344(19) 0.48324(19)
C14 C 0.17219(18) 0.57580(19) 0.40842(19)
C15 C 0.2384(2) 0.8656(2) 0.5185(2)
H12 H 0.2985 0.8530 0.5721
H13 H 0.1716 0.8766 0.5594
C16 C 0.3818(3) 0.9552(2) 0.3821(3)
H14 H 0.3545 0.8913 0.3287
H15 H 0.4434 0.9365 0.4301
C17 C 0.4318(3) 1.0609(3) 0.3198(3)
H16 H 0.4904 1.0455 0.2715
H17 H 0.4669 1.1226 0.3722
H18 H 0.3705 1.0828 0.2755
C18 C 0.2248(2) 0.26869(19) 0.74574(18)
C19 C 0.2438(2) 0.1624(2) 0.7274(2)
C20 C 0.3523(2) 0.1381(2) 0.7454(2)
H19 H 0.3612 0.0628 0.7346
C21 C 0.4449(2) 0.2215(2) 0.7783(2)
H20 H 0.5187 0.2049 0.7861
C22 C 0.4320(2) 0.33341(19) 0.80115(18)
C23 C 0.3203(2) 0.35542(19) 0.78889(18)
C24 C 0.5278(2) 0.4219(2) 0.83593(18)
C25 C 0.5109(2) 0.5277(2) 0.86262(18)
C26 C 0.3996(2) 0.5471(2) 0.85895(19)
H21 H 0.3879 0.6188 0.8821
C27 C 0.3084(2) 0.4641(2) 0.82240(18)
H22 H 0.2340 0.4797 0.8193
C28 C 0.8017(2) 0.4010(2) 0.70981(19)
C29 C 0.6472(2) 0.4022(2) 0.8368(2)
H23 H 0.6982 0.4587 0.8872
H24 H 0.6465 0.3261 0.8649
C30 C 0.5933(2) 0.7219(2) 0.9146(2)
H25 H 0.5378 0.7221 0.9726
H26 H 0.5636 0.7514 0.8469
C31 C 0.7081(3) 0.7951(2) 0.9507(2)
H27 H 0.7354 0.7648 1.0191
H28 H 0.6980 0.8721 0.9684
C32 C 0.7996(3) 0.8040(3) 0.8680(2)
H29 H 0.7706 0.8294 0.7978
H30 H 0.8142 0.7279 0.8543
C33 C 0.9120(3) 0.8849(3) 0.9039(3)
H31 H 0.9663 0.8895 0.8451
H32 H 0.9442 0.8575 0.9705
H33 H 0.8981 0.9602 0.9191
O1A O 0.93440(16) 0.87477(13) 0.46213(14)
O2A O 0.84120(15) 0.93037(14) 0.31061(15)
O3A O 0.79542(16) 0.22914(13) 0.55711(14)
O4A O 0.39310(15) 0.39052(14) 0.10564(15)
O5A O 0.1285(3) 0.6075(4) 0.2173(3)
N1A N 0.30908(16) 0.58952(17) 0.26840(15)
H1A H 0.3542 0.5777 0.3238
C1A C 0.9461(2) 0.9071(2) 0.3515(2)
H2A H 1.0068 0.9789 0.3505
C2A C 0.7160(2) 0.0327(2) 0.5485(2)
H3A H 0.7794 0.0184 0.5971
H4A H 0.6899 -0.0342 0.4982
C3A C 0.9826(2) 0.8202(2) 0.2797(2)
H5A H 0.9870 0.8447 0.2026
H6A H 1.0591 0.8098 0.3054
C4A C 0.89225(19) 0.7096(2) 0.28741(19)
H7A H 0.9104 0.6493 0.2386
C5A C 0.89194(19) 0.67480(19) 0.40701(19)
C6A C 0.9070(2) 0.7601(2) 0.4853(2)
C7A C 0.8951(2) 0.7390(2) 0.5974(2)
H8A H 0.9071 0.8004 0.6494
C8A C 0.8664(2) 0.6309(2) 0.63170(19)
H9A H 0.8540 0.6173 0.7073
C9A C 0.85457(18) 0.53793(19) 0.55611(19)
C10A C 0.87175(18) 0.56105(19) 0.44260(18)
C11A C 0.86983(19) 0.46699(19) 0.37117(19)
H10A H 0.8856 0.4800 0.2961
C12A C 0.8462(2) 0.3587(2) 0.4062(2)
H11A H 0.8460 0.2978 0.3559
C13A C 0.82218(19) 0.33656(19) 0.51676(19)
C14A C 0.82781(18) 0.42420(19) 0.59158(19)
C15A C 0.7616(2) 0.1344(2) 0.4815(2)
H12A H 0.7015 0.1470 0.4279
H13A H 0.8284 0.1234 0.4406
C16A C 0.6182(3) 0.0448(2) 0.6179(3)
H14A H 0.6455 0.1087 0.6713
H15A H 0.5566 0.0635 0.5699
C17A C 0.5682(3) -0.0609(3) 0.6802(3)
H16A H 0.5096 -0.0455 0.7285
H17A H 0.5331 -0.1226 0.6278
H18A H 0.6295 -0.0828 0.7245
C18A C 0.7752(2) 0.73131(19) 0.25426(18)
C19A C 0.7562(2) 0.8376(2) 0.2726(2)
C20A C 0.6477(2) 0.8619(2) 0.2546(2)
H19A H 0.6388 0.9372 0.2654
C21A C 0.5551(2) 0.7785(2) 0.2217(2)
H20A H 0.4813 0.7951 0.2139
C22A C 0.5680(2) 0.66659(19) 0.19885(18)
C23A C 0.6797(2) 0.64458(19) 0.21111(18)
C24A C 0.4722(2) 0.5781(2) 0.16407(18)
C25A C 0.4891(2) 0.4723(2) 0.13738(18)
C26A C 0.6004(2) 0.4529(2) 0.14105(19)
H21A H 0.6121 0.3812 0.1179
C27A C 0.6916(2) 0.5359(2) 0.17760(18)
H22A H 0.7660 0.5203 0.1807
C28A C 0.1983(2) 0.5990(2) 0.29019(19)
C29A C 0.3528(2) 0.5978(2) 0.1632(2)
H23A H 0.3018 0.5413 0.1128
H24A H 0.3535 0.6739 0.1351
C30A C 0.4067(2) 0.2781(2) 0.0854(2)
H25A H 0.4622 0.2779 0.0274
H26A H 0.4364 0.2486 0.1531
C31A C 0.2919(3) 0.2049(2) 0.0493(2)
H27A H 0.2646 0.2352 -0.0191
H28A H 0.3020 0.1279 0.0316
C32A C 0.2004(3) 0.1960(3) 0.1320(2)
H29A H 0.2294 0.1706 0.2022
H30A H 0.1858 0.2721 0.1457
C33A C 0.0880(3) 0.1151(3) 0.0961(3)
H31A H 0.0337 0.1105 0.1549
H32A H 0.0558 0.1425 0.0295
H33A H 0.1019 0.0398 0.0809
C34 C 0.4801(8) 0.6294(9) 0.5579(7)
H34 H 0.4985 0.7107 0.5440
H35 H 0.5411 0.6111 0.6055
H36 H 0.4069 0.6094 0.5942
O6 O 0.5316(17) 0.416(2) 0.532(3)
O7 O 0.4710(17) 0.568(2) 0.457(3)
C35 C 0.4239(8) 0.3397(7) 0.5001(7)
H37 H 0.4200 0.3244 0.4206
H38 H 0.3605 0.3743 0.5195
H39 H 0.4178 0.2686 0.5387
C36 C 0.5577(8) 0.5037(9) 0.4528(7)
H40 H 0.6344 0.5532 0.4709
H41 H 0.5580 0.4700 0.3782
C34A C 0.5199(8) 0.3706(9) 0.4421(7)
H34A H 0.5015 0.2893 0.4560
H35A H 0.4589 0.3889 0.3945
H36A H 0.5931 0.3906 0.4058
O6A O 0.4684(17) 0.584(2) 0.468(3)
O7A O 0.5290(17) 0.432(2) 0.543(3)
C35A C 0.5761(8) 0.6603(7) 0.4999(7)
H37A H 0.5800 0.6756 0.5794
H38A H 0.6395 0.6257 0.4805
H39A H 0.5822 0.7314 0.4613
C36A C 0.4423(8) 0.4963(9) 0.5472(7)
H40A H 0.3656 0.4468 0.5291
H41A H 0.4420 0.5300 0.6218
O8? O 0.6962(3) 0.3716(4) 0.9073(3)
H42? H 0.8102 0.3237 0.7267
H43? H 0.8578 0.4553 0.7581
loop_
_geom_bond_atom_site_label_1
_geom_bond_atom_site_label_2
_geom_bond_site_symmetry_1
_geom_bond_site_symmetry_2
O1 C1 1_555 1_555
O2 C1 1_555 1_555
O3 C13 1_555 1_555
O4 C25 1_555 1_555
O5 C28 1_555 1_555
N1 H1 1_555 1_555
C1 H2 1_555 1_555
C2 H3 1_555 1_555
H4 C2 1_555 1_555
C3 C1 1_555 1_555
H5 C3 1_555 1_555
H6 C3 1_555 1_555
C4 C3 1_555 1_555
H7 C4 1_555 1_555
C5 C4 1_555 1_555
C6 O1 1_555 1_555
C7 C6 1_555 1_555
H8 C7 1_555 1_555
C8 C7 1_555 1_555
H9 C8 1_555 1_555
C9 C8 1_555 1_555
C10 C5 1_555 1_555
C11 C10 1_555 1_555
H10 C11 1_555 1_555
C12 C11 1_555 1_555
H11 C12 1_555 1_555
C13 C12 1_555 1_555
C14 C9 1_555 1_555
C15 O3 1_555 1_555
H12 C15 1_555 1_555
H13 C15 1_555 1_555
C16 C2 1_555 1_555
H14 C16 1_555 1_555
H15 C16 1_555 1_555
C17 C16 1_555 1_555
H16 C17 1_555 1_555
H17 C17 1_555 1_555
H18 C17 1_555 1_555
C18 C4 1_555 1_555
C19 O2 1_555 1_555
C20 C19 1_555 1_555
H19 C20 1_555 1_555
C21 C20 1_555 1_555
H20 C21 1_555 1_555
C22 C21 1_555 1_555
C23 C18 1_555 1_555
C24 C22 1_555 1_555
C25 C24 1_555 1_555
C26 C25 1_555 1_555
H21 C26 1_555 1_555
C27 C23 1_555 1_555
H22 C27 1_555 1_555
C28 N1 1_555 1_555
C29 N1 1_555 1_555
H23 C29 1_555 1_555
H24 C29 1_555 1_555
C30 O4 1_555 1_555
H25 C30 1_555 1_555
H26 C30 1_555 1_555
C31 C30 1_555 1_555
H27 C31 1_555 1_555
H28 C31 1_555 1_555
C32 C31 1_555 1_555
H29 C32 1_555 1_555
H30 C32 1_555 1_555
C33 C32 1_555 1_555
H31 C33 1_555 1_555
H32 C33 1_555 1_555
H33 C33 1_555 1_555
C34 H34 1_555 1_555
H35 C34 1_555 1_555
H36 C34 1_555 1_555
O6 C35 1_555 1_555
O7 C34 1_555 1_555
C35 H37 1_555 1_555
H38 C35 1_555 1_555
H39 C35 1_555 1_555
C36 O6 1_555 1_555
H40 C36 1_555 1_555
H41 C36 1_555 1_555
O1A C1A 1_555 1_555
O2A C1A 1_555 1_555
O3A C13A 1_555 1_555
O4A C25A 1_555 1_555
O5A C28A 1_555 1_555
N1A H1A 1_555 1_555
C1A H2A 1_555 1_555
C2A H3A 1_555 1_555
H4A C2A 1_555 1_555
C3A C1A 1_555 1_555
H5A C3A 1_555 1_555
H6A C3A 1_555 1_555
C4A C3A 1_555 1_555
H7A C4A 1_555 1_555
C5A C4A 1_555 1_555
C6A O1A 1_555 1_555
C7A C6A 1_555 1_555
H8A C7A 1_555 1_555
C8A C7A 1_555 1_555
H9A C8A 1_555 1_555
C9A C8A 1_555 1_555
C10A C5A 1_555 1_555
C11A C10A 1_555 1_555
H10A C11A 1_555 1_555
C12A C11A 1_555 1_555
H11A C12A 1_555 1_555
C13A C12A 1_555 1_555
C14A C28 1_555 1_555
C15A O3A 1_555 1_555
H12A C15A 1_555 1_555
H13A C15A 1_555 1_555
C16A C2A 1_555 1_555
H14A C16A 1_555 1_555
H15A C16A 1_555 1_555
C17A C16A 1_555 1_555
H16A C17A 1_555 1_555
H17A C17A 1_555 1_555
H18A C17A 1_555 1_555
C18A C4A 1_555 1_555
C19A O2A 1_555 1_555
C20A C19A 1_555 1_555
H19A C20A 1_555 1_555
C21A C20A 1_555 1_555
H20A C21A 1_555 1_555
C22A C21A 1_555 1_555
C23A C18A 1_555 1_555
C24A C22A 1_555 1_555
C25A C24A 1_555 1_555
C26A C25A 1_555 1_555
H21A C26A 1_555 1_555
C27A C23A 1_555 1_555
H22A C27A 1_555 1_555
C28A C14 1_555 1_555
C29A N1A 1_555 1_555
H23A C29A 1_555 1_555
H24A C29A 1_555 1_555
C30A O4A 1_555 1_555
H25A C30A 1_555 1_555
H26A C30A 1_555 1_555
C31A C30A 1_555 1_555
H27A C31A 1_555 1_555
H28A C31A 1_555 1_555
C32A C31A 1_555 1_555
H29A C32A 1_555 1_555
H30A C32A 1_555 1_555
C33A C32A 1_555 1_555
H31A C33A 1_555 1_555
H32A C33A 1_555 1_555
H33A C33A 1_555 1_555
C34A O6 1_555 1_555
H34A C34A 1_555 1_555
H35A C34A 1_555 1_555
H36A C34A 1_555 1_555
O6A C34 1_555 1_555
O7A C35 1_555 1_555
C35A O7 1_555 1_555
H37A C35A 1_555 1_555
H38A C35A 1_555 1_555
H39A C35A 1_555 1_555
C36A O6 1_555 1_555
H40A C36A 1_555 1_555
H41A C36A 1_555 1_555
C2 C15 1_555 1_555
C5 C6 1_555 1_555
C9 C10 1_555 1_555
C13 C14 1_555 1_555
C18 C19 1_555 1_555
C22 C23 1_555 1_555
C24 C29 1_555 1_555
C26 C27 1_555 1_555
O7 C36 1_555 1_555
O7 C36A 1_555 1_555
C36 O6A 1_555 1_555
C36 O7A 1_555 1_555
N1A C28A 1_555 1_555
C2A C15A 1_555 1_555
C5A C6A 1_555 1_555
C9A C10A 1_555 1_555
C9A C14A 1_555 1_555
C13A C14A 1_555 1_555
C18A C19A 1_555 1_555
C22A C23A 1_555 1_555
C24A C29A 1_555 1_555
C26A C27A 1_555 1_555
C34A O7A 1_555 1_555
O6A C35A 1_555 1_555
O6A C36A 1_555 1_555
O7A C36A 1_555 1_555

#END
