
#######################################################################
#
#                 Cambridge Crystallographic Data Centre
#                                CCDC 
#
#######################################################################
#
# If this CIF has been generated from an entry in the Cambridge 
# Structural Database, then it will include bibliographic, chemical, 
# crystal, experimental, refinement or atomic coordinate data resulting 
# from the CCDC's data processing and validation procedures.
#
#######################################################################

data_TIHCOD
_chemical_formula_moiety         'C11 H10 O2'
_chemical_name_systematic        4,6-Dimethyl-2H-chromen-2-one
_symmetry_cell_setting           monoclinic
_symmetry_space_group_name_H-M   'P 21/c'
_symmetry_Int_Tables_number      14
_space_group_name_Hall           '-P 2ybc'
loop_
_symmetry_equiv_pos_site_id
_symmetry_equiv_pos_as_xyz
1 x,y,z
2 -x,1/2+y,1/2-z
3 -x,-y,-z
4 x,1/2-y,1/2+z
_cell_length_a                   7.056(4)
_cell_length_b                   8.854(4)
_cell_length_c                   13.976(6)
_cell_angle_alpha                90
_cell_angle_beta                 104.80(2)
_cell_angle_gamma                90
_cell_volume                     844.167
_exptl_crystal_colour            colorless
_exptl_crystal_description       needle
_chemical_melting_point          '428 K'
_cell_formula_units_Z            4
_exptl_crystal_recrystallization_method 'dichloromethane/petroleum ether'
loop_
_atom_site_label
_atom_site_type_symbol
_atom_site_fract_x
_atom_site_fract_y
_atom_site_fract_z
O1 O 0.3485(3) 0.56831(19) 1.16838(12)
O2 O 0.4079(3) 0.4494(2) 1.30820(13)
C1 C 0.2949(4) 0.5693(3) 1.06742(17)
C2 C 0.2896(4) 0.7070(3) 1.02378(19)
H1 H 0.3227 0.7939 1.0618
C3 C 0.2351(4) 0.7149(3) 0.9238(2)
H2 H 0.2297 0.8088 0.8934
C4 C 0.1873(4) 0.5878(3) 0.86554(18)
C5 C 0.1987(4) 0.4517(3) 0.91231(17)
H3 H 0.1682 0.3647 0.8742
C6 C 0.2538(3) 0.4381(3) 1.01418(16)
C7 C 0.2727(4) 0.2988(3) 1.06670(18)
C8 C 0.3269(4) 0.3024(3) 1.16491(18)
H4 H 0.3413 0.2113 1.1992
C9 C 0.3641(4) 0.4381(3) 1.21995(19)
C10 C 0.1255(4) 0.5999(4) 0.75576(18)
H5 H 0.1319 0.5022 0.7270
H6 H 0.2112 0.6683 0.7337
H7 H -0.0065 0.6372 0.7357
C11 C 0.2342(5) 0.1527(3) 1.01272(19)
H8 H 0.2636 0.0708 1.0592
H9 H 0.3153 0.1452 0.9673
H10 H 0.0988 0.1477 0.9768
loop_
_geom_bond_atom_site_label_1
_geom_bond_atom_site_label_2
_geom_bond_site_symmetry_1
_geom_bond_site_symmetry_2
O1 C1 1_555 1_555
O2 C9 1_555 1_555
C1 C2 1_555 1_555
C2 H1 1_555 1_555
C3 C2 1_555 1_555
H2 C3 1_555 1_555
C4 C3 1_555 1_555
C5 C4 1_555 1_555
H3 C5 1_555 1_555
C6 C1 1_555 1_555
C7 C6 1_555 1_555
C8 C7 1_555 1_555
H4 C8 1_555 1_555
C9 O1 1_555 1_555
C10 C4 1_555 1_555
H5 C10 1_555 1_555
H6 C10 1_555 1_555
H7 C10 1_555 1_555
C11 C7 1_555 1_555
H8 C11 1_555 1_555
H9 C11 1_555 1_555
H10 C11 1_555 1_555
C5 C6 1_555 1_555
C8 C9 1_555 1_555

#END
