
#######################################################################
#
#                 Cambridge Crystallographic Data Centre
#                                CCDC 
#
#######################################################################
#
# If this CIF has been generated from an entry in the Cambridge 
# Structural Database, then it will include bibliographic, chemical, 
# crystal, experimental, refinement or atomic coordinate data resulting 
# from the CCDC's data processing and validation procedures.
#
#######################################################################

data_TIHDOG
_chemical_formula_moiety         'C66 H66 N2 O10,C3 H7 N1 O1'
_chemical_name_systematic        
'10,16,36,42-tetrabutoxy-28,50,54,56-tetraoxa-13,39-diazatridecacyclo[43.7.1.1^3,51^.1^23,27^.1^25,29^.0^2,7^.0^6,11^.0^15,20^.0^19,24^.0^32,37^.0^33,55^.0^41,46^.0^49,53^]hexapentaconta-2,4,6,8,10,15,17,19,21,23,29(55),30,32,34,36,41,43,45(53),46,48-icosaene-12,40-dione N,N-dimethylformamide unknown solvate'
_symmetry_cell_setting           monoclinic
_symmetry_space_group_name_H-M   'P 21/m'
_symmetry_Int_Tables_number      11
_space_group_name_Hall           '-P 2yb'
loop_
_symmetry_equiv_pos_site_id
_symmetry_equiv_pos_as_xyz
1 x,y,z
2 -x,1/2+y,-z
3 -x,-y,-z
4 x,1/2-y,z
_cell_length_a                   13.286(3)
_cell_length_b                   20.911(4)
_cell_length_c                   12.852(3)
_cell_angle_alpha                90
_cell_angle_beta                 75.33(3)
_cell_angle_gamma                90
_cell_volume                     3454.19
_exptl_crystal_colour            colorless
_exptl_crystal_description       block
_cell_formula_units_Z            2
loop_
_atom_site_label
_atom_site_type_symbol
_atom_site_fract_x
_atom_site_fract_y
_atom_site_fract_z
C1 C 0.8586(4) 0.2500 0.4112(6)
H1 H 0.9238 0.2500 0.4367
C2 C 0.8887(4) 0.2500 0.2927(6)
H2 H 0.9310 0.2116 0.2660
C3 C 0.7905(4) 0.2500 0.2519(5)
H3 H 0.8077 0.2500 0.1715
C4 C 0.7276(3) 0.30949(16) 0.2987(3)
C5 C 0.6595(3) 0.34276(16) 0.2460(3)
C6 C 0.6579(3) 0.33140(18) 0.1392(3)
H4 H 0.7051 0.3010 0.0987
C7 C 0.5915(3) 0.36203(19) 0.0907(3)
H5 H 0.5936 0.3534 0.0176
C8 C 0.5191(3) 0.40694(18) 0.1498(3)
C9 C 0.5191(3) 0.42122(16) 0.2544(3)
C10 C 0.5905(2) 0.39103(16) 0.3037(3)
C11 C 0.5956(3) 0.40600(16) 0.4097(3)
H6 H 0.5489 0.4366 0.4501
C12 C 0.6656(3) 0.37756(16) 0.4544(3)
H7 H 0.6704 0.3901 0.5240
C13 C 0.7314(3) 0.32959(17) 0.3988(3)
C14 C 0.4280(3) 0.4151(3) 0.0104(3)
H8 H 0.4674 0.3837 -0.0362
C15 C 0.3379(4) 0.4466(3) -0.0031(4)
H9 H 0.3380 0.4705 -0.0661
C16 C 0.2396(4) 0.4399(3) 0.0902(4)
H10 H 0.2551 0.4572 0.1562
H11 H 0.1841 0.4668 0.0741
C17 C 0.1987(6) 0.3738(4) 0.1132(5)
H12 H 0.1690 0.3593 0.0548
H13 H 0.1446 0.3734 0.1811
H14 H 0.2554 0.3452 0.1188
C18 C 0.4396(3) 0.46704(17) 0.3192(3)
C19 C 0.2565(3) 0.47564(18) 0.4206(4)
H15 H 0.2175 0.4992 0.3765
H16 H 0.2818 0.5070 0.4659
C20 C 0.1853(3) 0.42768(17) 0.4917(4)
C21 C 0.2176(3) 0.39476(17) 0.5754(3)
C22 C 0.3103(3) 0.41193(19) 0.6043(4)
H17 H 0.3536 0.4446 0.5654
C23 C 0.3378(3) 0.3823(2) 0.6867(4)
H18 H 0.3976 0.3966 0.7077
C24 C 0.2789(3) 0.3303(2) 0.7425(4)
C25 C 0.1904(3) 0.30970(18) 0.7153(4)
C26 C 0.1552(3) 0.34419(17) 0.6354(4)
C27 C 0.0575(3) 0.33315(17) 0.6132(4)
H19 H 0.0134 0.3008 0.6522
C28 C 0.0248(3) 0.36744(17) 0.5376(4)
H20 H -0.0425 0.3601 0.5271
C29 C 0.0906(3) 0.41410(17) 0.4744(4)
C30 C 0.1376(4) 0.2500 0.7709(5)
H21 H 0.0619 0.2500 0.7724
C31 C 0.1521(5) 0.2500 0.8864(6)
H22 H 0.1196 0.2885 0.9260
C32 C 0.2675(5) 0.2500 0.8753(6)
H23 H 0.2783 0.2500 0.9495
C33 C -0.0324(3) 0.43584(17) 0.3682(3)
H24 H -0.0915 0.4443 0.4311
H25 H -0.0349 0.3904 0.3476
C34 C -0.0394(3) 0.47814(19) 0.2764(4)
H26 H 0.0240 0.4726 0.2170
H27 H -0.0423 0.5233 0.3000
C35 C -0.1341(3) 0.4635(2) 0.2355(4)
H28 H -0.1301 0.4186 0.2103
H29 H -0.1972 0.4678 0.2955
C36 C -0.1441(4) 0.5069(3) 0.1447(4)
H30 H -0.0848 0.5001 0.0825
H31 H -0.1451 0.5515 0.1680
H32 H -0.2089 0.4972 0.1247
N1 N 0.3441(2) 0.44274(14) 0.3511(3)
H33 H 0.3335 0.4042 0.3285
O1 O 0.8001(2) 0.30492(12) 0.4542(2)
O2 O 0.3174(2) 0.30485(15) 0.8220(3)
O3 O 0.4603(2) 0.51990(14) 0.3470(3)
O4 O 0.4493(2) 0.43934(14) 0.1083(2)
O5 O 0.06292(19) 0.44896(13) 0.3946(2)
H2C H 0.9310 0.2884 0.2660
C4C C 0.7276(3) 0.19051(16) 0.2987(3)
C5C C 0.6595(3) 0.15724(16) 0.2460(3)
C6C C 0.6579(3) 0.16860(18) 0.1392(3)
H4C H 0.7051 0.1990 0.0987
C7C C 0.5915(3) 0.13797(19) 0.0907(3)
H5C H 0.5936 0.1466 0.0176
C8C C 0.5191(3) 0.09306(18) 0.1498(3)
C9C C 0.5191(3) 0.07878(16) 0.2544(3)
C10C C 0.5905(2) 0.10897(16) 0.3037(3)
C11C C 0.5956(3) 0.09400(16) 0.4097(3)
H6C H 0.5489 0.0634 0.4501
C12C C 0.6656(3) 0.12244(16) 0.4544(3)
H7C H 0.6704 0.1099 0.5240
C13C C 0.7314(3) 0.17041(17) 0.3988(3)
C14C C 0.4280(3) 0.0849(3) 0.0104(3)
H8C H 0.4674 0.1163 -0.0362
C15C C 0.3379(4) 0.0534(3) -0.0031(4)
H9C H 0.3380 0.0295 -0.0661
C16C C 0.2396(4) 0.0601(3) 0.0902(4)
H10C H 0.2551 0.0428 0.1562
H11C H 0.1841 0.0332 0.0741
C17C C 0.1987(6) 0.1262(4) 0.1132(5)
H12C H 0.1690 0.1407 0.0548
H13C H 0.1446 0.1266 0.1811
H14C H 0.2554 0.1548 0.1188
C18C C 0.4396(3) 0.03296(17) 0.3192(3)
C19C C 0.2565(3) 0.02436(18) 0.4206(4)
H15C H 0.2175 0.0008 0.3765
H16C H 0.2818 -0.0070 0.4659
C20C C 0.1853(3) 0.07232(17) 0.4917(4)
C21C C 0.2176(3) 0.10524(17) 0.5754(3)
C22C C 0.3103(3) 0.08807(19) 0.6043(4)
H17C H 0.3536 0.0554 0.5654
C23C C 0.3378(3) 0.1177(2) 0.6867(4)
H18C H 0.3976 0.1034 0.7077
C24C C 0.2789(3) 0.1697(2) 0.7425(4)
C25C C 0.1904(3) 0.19030(18) 0.7153(4)
C26C C 0.1552(3) 0.15581(17) 0.6354(4)
C27C C 0.0575(3) 0.16685(17) 0.6132(4)
H19C H 0.0134 0.1992 0.6522
C28C C 0.0248(3) 0.13256(17) 0.5376(4)
H20C H -0.0425 0.1399 0.5271
C29C C 0.0906(3) 0.08590(17) 0.4744(4)
H22C H 0.1196 0.2115 0.9260
C33C C -0.0324(3) 0.06416(17) 0.3682(3)
H24C H -0.0915 0.0557 0.4311
H25C H -0.0349 0.1096 0.3476
C34C C -0.0394(3) 0.02186(19) 0.2764(4)
H26C H 0.0240 0.0274 0.2170
H27C H -0.0423 -0.0233 0.3000
C35C C -0.1341(3) 0.0365(2) 0.2355(4)
H28C H -0.1301 0.0814 0.2103
H29C H -0.1972 0.0322 0.2955
C36C C -0.1441(4) -0.0069(3) 0.1447(4)
H30C H -0.0848 -0.0001 0.0825
H31C H -0.1451 -0.0515 0.1680
H32C H -0.2089 0.0028 0.1247
N1C N 0.3441(2) 0.05726(14) 0.3511(3)
H33C H 0.3335 0.0958 0.3285
O1C O 0.8001(2) 0.19508(12) 0.4542(2)
O2C O 0.3174(2) 0.19515(15) 0.8220(3)
O3C O 0.4603(2) -0.01990(14) 0.3470(3)
O4C O 0.4493(2) 0.06066(14) 0.1083(2)
O5C O 0.06292(19) 0.05104(13) 0.3946(2)
C37 C 0.4039(7) 0.2500 0.2415(7)
H34 H 0.4773 0.2500 0.2311
C38 C 0.3980(6) 0.2500 0.4311(6)
C39 C 0.2348(6) 0.2500 0.3698(7)
N2 N 0.3473(4) 0.2500 0.3440(5)
O6 O 0.3718(5) 0.2500 0.1579(6)
H35? H 0.9310 0.2116 0.2660
H36? H 0.1196 0.2885 0.9260
H37? H 0.3628 0.2803 0.4866
H38? H 0.4709 0.2627 0.4036
H39? H 0.3947 0.2070 0.4621
H40? H 0.2116 0.2344 0.3078
H41? H 0.2090 0.2936 0.3874
H42? H 0.2076 0.2220 0.4316
loop_
_geom_bond_atom_site_label_1
_geom_bond_atom_site_label_2
_geom_bond_site_symmetry_1
_geom_bond_site_symmetry_2
C1 H1 1_555 1_555
C2 C1 1_555 1_555
H2 C2 1_555 1_555
C3 C2 1_555 1_555
H3 C3 1_555 1_555
C4 C3 1_555 1_555
C5 C4 1_555 1_555
C6 C5 1_555 1_555
H4 C6 1_555 1_555
C7 C6 1_555 1_555
H5 C7 1_555 1_555
C8 C7 1_555 1_555
C9 C8 1_555 1_555
C10 C5 1_555 1_555
C11 C10 1_555 1_555
H6 C11 1_555 1_555
C12 C11 1_555 1_555
H7 C12 1_555 1_555
C13 C4 1_555 1_555
C14 H8 1_555 1_555
C15 C14 1_555 1_555
H9 C15 1_555 1_555
C16 C15 1_555 1_555
H10 C16 1_555 1_555
H11 C16 1_555 1_555
C17 C16 1_555 1_555
H12 C17 1_555 1_555
H13 C17 1_555 1_555
H14 C17 1_555 1_555
C18 C9 1_555 1_555
C19 H15 1_555 1_555
H16 C19 1_555 1_555
C20 C19 1_555 1_555
C21 C20 1_555 1_555
C22 C21 1_555 1_555
H17 C22 1_555 1_555
C23 C22 1_555 1_555
H18 C23 1_555 1_555
C24 C23 1_555 1_555
C25 C24 1_555 1_555
C26 C21 1_555 1_555
C27 C26 1_555 1_555
H19 C27 1_555 1_555
C28 C27 1_555 1_555
H20 C28 1_555 1_555
C29 C20 1_555 1_555
C30 C25 1_555 1_555
H21 C30 1_555 1_555
C31 C30 1_555 1_555
H22 C31 1_555 1_555
C32 C31 1_555 1_555
H23 C32 1_555 1_555
C33 H24 1_555 1_555
H25 C33 1_555 1_555
C34 C33 1_555 1_555
H26 C34 1_555 1_555
H27 C34 1_555 1_555
C35 C34 1_555 1_555
H28 C35 1_555 1_555
H29 C35 1_555 1_555
C36 C35 1_555 1_555
H30 C36 1_555 1_555
H31 C36 1_555 1_555
H32 C36 1_555 1_555
N1 C18 1_555 1_555
H33 N1 1_555 1_555
O1 C1 1_555 1_555
O2 C24 1_555 1_555
O3 C18 1_555 1_555
O4 C8 1_555 1_555
O5 C29 1_555 1_555
C37 H34 1_555 1_555
C38 N2 1_555 1_555
C39 N2 1_555 1_555
N2 C37 1_555 1_555
O6 C37 1_555 1_555
H2C C2 1_555 1_555
C4C C3 1_555 1_555
C5C C4C 1_555 1_555
C6C C5C 1_555 1_555
H4C C6C 1_555 1_555
C7C C6C 1_555 1_555
H5C C7C 1_555 1_555
C8C C7C 1_555 1_555
C9C C8C 1_555 1_555
C10C C5C 1_555 1_555
C11C C10C 1_555 1_555
H6C C11C 1_555 1_555
C12C C11C 1_555 1_555
H7C C12C 1_555 1_555
C13C C4C 1_555 1_555
C14C H8C 1_555 1_555
C15C C14C 1_555 1_555
H9C C15C 1_555 1_555
C16C C15C 1_555 1_555
H10C C16C 1_555 1_555
H11C C16C 1_555 1_555
C17C C16C 1_555 1_555
H12C C17C 1_555 1_555
H13C C17C 1_555 1_555
H14C C17C 1_555 1_555
C18C C9C 1_555 1_555
C19C H15C 1_555 1_555
H16C C19C 1_555 1_555
C20C C19C 1_555 1_555
C21C C20C 1_555 1_555
C22C C21C 1_555 1_555
H17C C22C 1_555 1_555
C23C C22C 1_555 1_555
H18C C23C 1_555 1_555
C24C C23C 1_555 1_555
C25C C30 1_555 1_555
C26C C21C 1_555 1_555
C27C C26C 1_555 1_555
H19C C27C 1_555 1_555
C28C C27C 1_555 1_555
H20C C28C 1_555 1_555
C29C C20C 1_555 1_555
H22C C31 1_555 1_555
C33C H24C 1_555 1_555
H25C C33C 1_555 1_555
C34C C33C 1_555 1_555
H26C C34C 1_555 1_555
H27C C34C 1_555 1_555
C35C C34C 1_555 1_555
H28C C35C 1_555 1_555
H29C C35C 1_555 1_555
C36C C35C 1_555 1_555
H30C C36C 1_555 1_555
H31C C36C 1_555 1_555
H32C C36C 1_555 1_555
N1C C18C 1_555 1_555
H33C N1C 1_555 1_555
O1C C1 1_555 1_555
O2C C32 1_555 1_555
O3C C18C 1_555 1_555
O4C C8C 1_555 1_555
O5C C29C 1_555 1_555
C9 C10 1_555 1_555
C12 C13 1_555 1_555
C13 O1 1_555 1_555
C14 O4 1_555 1_555
C19 N1 1_555 1_555
C25 C26 1_555 1_555
C28 C29 1_555 1_555
C32 O2 1_555 1_555
C33 O5 1_555 1_555
C9C C10C 1_555 1_555
C12C C13C 1_555 1_555
C13C O1C 1_555 1_555
C14C O4C 1_555 1_555
C19C N1C 1_555 1_555
C24C C25C 1_555 1_555
C24C O2C 1_555 1_555
C25C C26C 1_555 1_555
C28C C29C 1_555 1_555
C33C O5C 1_555 1_555

#END
