
#######################################################################
#
#                 Cambridge Crystallographic Data Centre
#                                CCDC 
#
#######################################################################
#
# If this CIF has been generated from an entry in the Cambridge 
# Structural Database, then it will include bibliographic, chemical, 
# crystal, experimental, refinement or atomic coordinate data resulting 
# from the CCDC's data processing and validation procedures.
#
#######################################################################

data_TIHDUK
_chemical_formula_moiety         'C20 H14 O5'
_chemical_name_systematic        
(3E,4E)-3-(1,3-Benzodioxol-5-ylmethylene)-4-(1-phenylethylidene)tetrahydrofuran-2,5-dione
_symmetry_cell_setting           orthorhombic
_symmetry_space_group_name_H-M   'P n a 21'
_symmetry_Int_Tables_number      33
_space_group_name_Hall           'P 2c -2n'
loop_
_symmetry_equiv_pos_site_id
_symmetry_equiv_pos_as_xyz
1 x,y,z
2 -x,-y,1/2+z
3 1/2+x,1/2-y,z
4 1/2-x,1/2+y,1/2+z
_cell_length_a                   7.2201(2)
_cell_length_b                   18.0627(5)
_cell_length_c                   12.2046(4)
_cell_angle_alpha                90
_cell_angle_beta                 90
_cell_angle_gamma                90
_cell_volume                     1591.66
_exptl_crystal_colour            orange-yellow
_exptl_crystal_description       plate
_cell_formula_units_Z            4
_exptl_crystal_recrystallization_method 'ethyl acetate'
loop_
_atom_site_label
_atom_site_type_symbol
_atom_site_fract_x
_atom_site_fract_y
_atom_site_fract_z
C1 C 0.4507(4) 1.08850(14) 0.6981(3)
H1 H 0.4852 1.1381 0.6987
C2 C 0.3315(4) 1.06286(14) 0.6196(3)
H2 H 0.2857 1.0950 0.5666
C3 C 0.2793(3) 0.98960(13) 0.6188(2)
H3 H 0.2008 0.9723 0.5641
C4 C 0.3435(3) 0.94086(11) 0.69979(17)
C5 C 0.4666(3) 0.96742(11) 0.77765(19)
H4 H 0.5136 0.9357 0.8309
C6 C 0.5196(4) 1.04076(13) 0.7763(3)
H5 H 0.6025 1.0582 0.8287
C7 C 0.2848(3) 0.86249(11) 0.69894(19)
C8 C 0.2857(4) 0.82596(15) 0.5875(2)
H6 H 0.3729 0.7858 0.5874
H7 H 0.3207 0.8616 0.5329
H8 H 0.1642 0.8073 0.5714
C9 C 0.2416(3) 0.82442(11) 0.79118(19)
C10 C 0.2277(3) 0.74232(13) 0.7893(2)
C11 C 0.2485(3) 0.77359(13) 0.9690(2)
C12 C 0.2296(3) 0.84388(11) 0.90818(18)
C13 C 0.1956(3) 0.90390(11) 0.97086(17)
H9 H 0.2022 0.8946 1.0457
C14 C 0.1507(3) 0.98016(11) 0.94437(16)
C15 C 0.0488(2) 1.00096(11) 0.85107(17)
H10 H -0.0007 0.9658 0.8037
C16 C 0.0257(2) 1.07498(12) 0.83316(17)
C17 C 0.1013(3) 1.12780(11) 0.9026(2)
C18 C 0.1941(3) 1.10943(12) 0.9952(2)
H11 H 0.2411 1.1453 1.0423
C19 C 0.2157(3) 1.03414(12) 1.01647(19)
H12 H 0.2751 1.0195 1.0805
C20 C -0.0455(4) 1.18660(13) 0.7682(2)
H13 H 0.0160 1.2098 0.7063
H14 H -0.1664 1.2092 0.7767
O1 O -0.0653(2) 1.10928(8) 0.74889(14)
O2 O 0.0608(3) 1.19719(8) 0.86474(16)
O3 O 0.2660(3) 0.76142(11) 1.06471(17)
O4 O 0.2406(3) 0.71527(9) 0.89574(18)
O5 O 0.2125(3) 0.69889(10) 0.71649(18)
loop_
_geom_bond_atom_site_label_1
_geom_bond_atom_site_label_2
_geom_bond_site_symmetry_1
_geom_bond_site_symmetry_2
C1 H1 1_555 1_555
C2 C1 1_555 1_555
H2 C2 1_555 1_555
C3 C2 1_555 1_555
H3 C3 1_555 1_555
C4 C3 1_555 1_555
C5 C4 1_555 1_555
H4 C5 1_555 1_555
C6 C1 1_555 1_555
H5 C6 1_555 1_555
C7 C4 1_555 1_555
C8 C7 1_555 1_555
H6 C8 1_555 1_555
H7 C8 1_555 1_555
H8 C8 1_555 1_555
C9 C7 1_555 1_555
C10 C9 1_555 1_555
C11 C12 1_555 1_555
C12 C9 1_555 1_555
C13 C12 1_555 1_555
H9 C13 1_555 1_555
C14 C13 1_555 1_555
C15 C14 1_555 1_555
H10 C15 1_555 1_555
C16 C15 1_555 1_555
C17 C16 1_555 1_555
C18 C17 1_555 1_555
H11 C18 1_555 1_555
C19 C14 1_555 1_555
H12 C19 1_555 1_555
C20 H13 1_555 1_555
H14 C20 1_555 1_555
O1 C16 1_555 1_555
O2 C17 1_555 1_555
O3 C11 1_555 1_555
O4 C10 1_555 1_555
O5 C10 1_555 1_555
C5 C6 1_555 1_555
C11 O4 1_555 1_555
C18 C19 1_555 1_555
C20 O1 1_555 1_555
C20 O2 1_555 1_555

#END
