
#######################################################################
#
#                 Cambridge Crystallographic Data Centre
#                                CCDC 
#
#######################################################################
#
# If this CIF has been generated from an entry in the Cambridge 
# Structural Database, then it will include bibliographic, chemical, 
# crystal, experimental, refinement or atomic coordinate data resulting 
# from the CCDC's data processing and validation procedures.
#
#######################################################################

data_TIHFEY
_chemical_formula_moiety         'C66 H66 N2 O10,C4 H4 N2'
_chemical_name_systematic        
'10,16,36,42-tetrabutoxy-28,50,54,56-tetraoxa-13,39-diazatridecacyclo[43.7.1.1^3,51^.1^23,27^.1^25,29^.0^2,7^.0^6,11^.0^15,20^.0^19,24^.0^32,37^.0^33,55^.0^41,46^.0^49,53^]hexapentaconta-2,4,6,8,10,15,17,19,21,23,29(55),30,32,34,36,41,43,45,47,49(53)-icosaene-12,40-dione  pyrazine unknown solvate'
_symmetry_cell_setting           triclinic
_symmetry_space_group_name_H-M   'P -1'
_symmetry_Int_Tables_number      2
_space_group_name_Hall           '-P 1'
loop_
_symmetry_equiv_pos_site_id
_symmetry_equiv_pos_as_xyz
1 x,y,z
2 -x,-y,-z
_cell_length_a                   11.8560(5)
_cell_length_b                   11.8594(5)
_cell_length_c                   12.5172(5)
_cell_angle_alpha                89.974(2)
_cell_angle_beta                 86.799(2)
_cell_angle_gamma                73.599(2)
_cell_volume                     1685.52
_exptl_crystal_colour            colorless
_exptl_crystal_description       block
_cell_formula_units_Z            1
loop_
_atom_site_label
_atom_site_type_symbol
_atom_site_fract_x
_atom_site_fract_y
_atom_site_fract_z
C34 C 0.5722(8) 0.4982(7) 0.5452(5)
H34 H 0.6493 0.4837 0.5699
C35 C 0.3788(6) 0.6069(5) 0.5475(5)
H35 H 0.3158 0.6712 0.5743
C36 C 0.3590(6) 0.5339(6) 0.4715(5)
H36 H 0.2820 0.5492 0.4465
C37 C 0.5508(7) 0.4226(6) 0.4665(6)
H37 H 0.6131 0.3580 0.4391
N2 N 0.4874(6) 0.5890(5) 0.5854(5)
N3 N 0.4433(6) 0.4417(5) 0.4305(4)
C34A C 0.4278(8) 0.5018(7) 0.4548(5)
H34A H 0.3507 0.5163 0.4301
C35A C 0.6212(6) 0.3931(5) 0.4525(5)
H35A H 0.6842 0.3288 0.4257
C36A C 0.6410(6) 0.4661(6) 0.5285(5)
H36A H 0.7180 0.4508 0.5535
C37A C 0.4492(7) 0.5774(6) 0.5335(6)
H37A H 0.3869 0.6420 0.5609
N2A N 0.5126(6) 0.4110(5) 0.4146(5)
N3A N 0.5567(6) 0.5583(5) 0.5695(4)
C1 C 0.90268(16) 0.05208(16) 0.67138(16)
H1 H 0.9757 -0.0137 0.6802
C2 C 0.80688(15) 0.03039(15) 0.74471(16)
H2 H 0.8281 0.0303 0.8201
H3 H 0.7947 -0.0467 0.7278
C3 C 0.69494(14) 0.12938(14) 0.72772(13)
H4 H 0.6286 0.1200 0.7765
C4 C 0.76051(15) 0.08555(15) 0.53700(15)
C5 C 0.66674(14) 0.11993(13) 0.61084(13)
C6 C 0.55081(14) 0.14101(13) 0.57333(13)
C7 C 0.44814(14) 0.16512(15) 0.64200(13)
H5 H 0.4555 0.1668 0.7171
C8 C 0.33858(15) 0.18606(16) 0.60410(14)
H6 H 0.2716 0.2009 0.6529
C9 C 0.32400(14) 0.18581(14) 0.49359(13)
C10 C 0.42035(14) 0.16026(13) 0.42264(13)
C11 C 0.53523(14) 0.13501(13) 0.46148(13)
C12 C 0.63623(15) 0.10401(15) 0.38984(14)
H7 H 0.6272 0.1013 0.3150
C13 C 0.74562(16) 0.07821(17) 0.42696(15)
H8 H 0.8127 0.0550 0.3782
C14 C 0.11238(15) 0.24926(18) 0.52009(16)
H9 H 0.1161 0.3182 0.5628
H10 H 0.1057 0.1862 0.5698
C15 C 0.00815(17) 0.28214(18) 0.45181(17)
H11 H -0.0647 0.3082 0.4988
H12 H 0.0047 0.2116 0.4113
C16 C 0.0119(2) 0.3782(2) 0.3742(2)
H13 H 0.0788 0.3484 0.3210
H14 H 0.0260 0.4449 0.4135
C17 C -0.1000(3) 0.4216(3) 0.3163(3)
H15 H -0.0943 0.4862 0.2694
H16 H -0.1669 0.4495 0.3685
H17 H -0.1116 0.3572 0.2732
C18 C 0.83356(14) 0.25302(15) 0.73113(14)
C19 C 0.72059(14) 0.24579(14) 0.75150(13)
C20 C 0.63395(14) 0.34929(14) 0.79377(13)
C21 C 0.51952(15) 0.34898(15) 0.83129(14)
H18 H 0.4989 0.2772 0.8299
C22 C 0.43757(16) 0.44806(16) 0.86950(15)
H19 H 0.3619 0.4440 0.8952
C23 C 0.46436(15) 0.55605(15) 0.87104(14)
C24 C 0.57555(15) 0.56145(14) 0.83934(13)
C25 C 0.66314(15) 0.45742(14) 0.80300(13)
C26 C 0.78044(15) 0.45842(15) 0.77538(13)
H20 H 0.8010 0.5301 0.7793
C27 C 0.86364(15) 0.35819(15) 0.74334(14)
H21 H 0.9429 0.3593 0.7291
C28 C 0.26692(16) 0.66131(17) 0.93496(15)
H22 H 0.2661 0.6131 0.9994
H23 H 0.2307 0.6294 0.8770
C29 C 0.20058(19) 0.78780(18) 0.95890(16)
H24 H 0.1211 0.7914 0.9904
H25 H 0.2420 0.8194 1.0129
C30 C 0.1880(2) 0.86425(18) 0.86211(17)
H26 H 0.2674 0.8569 0.8286
H27 H 0.1433 0.8345 0.8097
C31 C 0.1275(2) 0.9918(2) 0.8842(2)
H28 H 0.1272 1.0358 0.8179
H29 H 0.1695 1.0219 0.9376
H30 H 0.0463 1.0010 0.9115
C32 C 0.60189(16) 0.67852(15) 0.83301(14)
C33 C 0.59544(15) 0.83025(15) 0.69604(14)
H31 H 0.6744 0.8370 0.7112
H32 H 0.5357 0.8953 0.7343
N1 N 0.58375(15) 0.72358(13) 0.73212(11)
H33 H 0.5623 0.6796 0.6852
O1 O 0.87700(10) 0.05454(12) 0.56209(11)
O2 O 0.92765(10) 0.15856(10) 0.69745(11)
O3 O 0.21588(10) 0.20940(11) 0.45036(10)
O4 O 0.38484(11) 0.66006(11) 0.90253(11)
O5 O 0.6583(3) 0.7160(3) 0.8899(2)
C1A C 0.09732(16) 0.94792(16) 0.32862(16)
H1A H 0.0243 1.0137 0.3198
C2A C 0.19312(15) 0.96961(15) 0.25529(16)
H2A H 0.1719 0.9697 0.1799
H3A H 0.2053 1.0467 0.2722
C3A C 0.30506(14) 0.87062(14) 0.27228(13)
H4A H 0.3714 0.8800 0.2235
C4A C 0.23949(15) 0.91445(15) 0.46300(15)
C5A C 0.33326(14) 0.88007(13) 0.38916(13)
C6A C 0.44919(14) 0.85899(13) 0.42667(13)
C7A C 0.55186(14) 0.83488(15) 0.35800(13)
H5A H 0.5445 0.8332 0.2829
C8A C 0.66142(15) 0.81394(16) 0.39590(14)
H6A H 0.7284 0.7991 0.3471
C9A C 0.67600(14) 0.81419(14) 0.50641(13)
C10A C 0.57965(14) 0.83974(13) 0.57736(13)
C11A C 0.46477(14) 0.86499(13) 0.53852(13)
C12A C 0.36377(15) 0.89599(15) 0.61016(14)
H7A H 0.3728 0.8987 0.6850
C13A C 0.25438(16) 0.92179(17) 0.57304(15)
H8A H 0.1873 0.9450 0.6218
C14A C 0.88762(15) 0.75074(18) 0.47991(16)
H9A H 0.8839 0.6818 0.4372
H10A H 0.8943 0.8138 0.4302
C15A C 0.99185(17) 0.71786(18) 0.54819(17)
H11A H 1.0647 0.6918 0.5012
H12A H 0.9953 0.7884 0.5887
C16A C 0.9881(2) 0.6218(2) 0.6258(2)
H13A H 0.9212 0.6516 0.6790
H14A H 0.9740 0.5551 0.5865
C17A C 1.1000(3) 0.5784(3) 0.6837(3)
H15A H 1.0943 0.5138 0.7306
H16A H 1.1669 0.5505 0.6315
H17A H 1.1116 0.6428 0.7268
C18A C 0.16644(14) 0.74698(15) 0.26887(14)
C19A C 0.27941(14) 0.75421(14) 0.24850(13)
C20A C 0.36605(14) 0.65071(14) 0.20623(13)
C21A C 0.48048(15) 0.65102(15) 0.16871(14)
H18A H 0.5011 0.7228 0.1701
C22A C 0.56243(16) 0.55194(16) 0.13050(15)
H19A H 0.6381 0.5560 0.1048
C23A C 0.53564(15) 0.44395(15) 0.12896(14)
C24A C 0.42445(15) 0.43855(14) 0.16066(13)
C25A C 0.33686(15) 0.54258(14) 0.19700(13)
C26A C 0.21956(15) 0.54158(15) 0.22462(13)
H20A H 0.1990 0.4699 0.2207
C27A C 0.13636(15) 0.64181(15) 0.25666(14)
H21A H 0.0571 0.6407 0.2709
C28A C 0.73308(16) 0.33869(17) 0.06504(15)
H22A H 0.7339 0.3869 0.0006
H23A H 0.7693 0.3706 0.1230
C29A C 0.79942(19) 0.21220(18) 0.04110(16)
H24A H 0.8789 0.2086 0.0096
H25A H 0.7580 0.1806 -0.0129
C30A C 0.8120(2) 0.13575(18) 0.13789(17)
H26A H 0.7326 0.1431 0.1714
H27A H 0.8567 0.1655 0.1903
C31A C 0.8725(2) 0.0082(2) 0.1158(2)
H28A H 0.8728 -0.0358 0.1821
H29A H 0.8305 -0.0219 0.0624
H30A H 0.9537 -0.0010 0.0885
C32A C 0.39811(16) 0.32148(15) 0.16699(14)
C33A C 0.40456(15) 0.16975(15) 0.30396(14)
H31A H 0.3256 0.1630 0.2888
H32A H 0.4643 0.1047 0.2657
N1A N 0.41625(15) 0.27642(13) 0.26788(11)
H33A H 0.4377 0.3204 0.3148
O1A O 0.12300(10) 0.94546(12) 0.43791(11)
O2A O 0.07235(10) 0.84144(10) 0.30255(11)
O3A O 0.78412(10) 0.79060(11) 0.54964(10)
O4A O 0.61516(11) 0.33994(11) 0.09747(11)
O5A O 0.3417(3) 0.2840(3) 0.1101(2)
H38? H 0.5502 0.7340 0.8863
H39? H 0.6847 0.6687 0.8499
O6? O 0.6013(2) 0.9032(2) 0.75619(18)
loop_
_geom_bond_atom_site_label_1
_geom_bond_atom_site_label_2
_geom_bond_site_symmetry_1
_geom_bond_site_symmetry_2
C1 H1 1_555 1_555
C2 C1 1_555 1_555
H2 C2 1_555 1_555
H3 C2 1_555 1_555
C3 C2 1_555 1_555
H4 C3 1_555 1_555
C4 C5 1_555 1_555
C5 C3 1_555 1_555
C6 C5 1_555 1_555
C7 C6 1_555 1_555
H5 C7 1_555 1_555
C8 C7 1_555 1_555
H6 C8 1_555 1_555
C9 C8 1_555 1_555
C10 C9 1_555 1_555
C11 C6 1_555 1_555
C12 C11 1_555 1_555
H7 C12 1_555 1_555
C13 C4 1_555 1_555
H8 C13 1_555 1_555
C14 H9 1_555 1_555
H10 C14 1_555 1_555
C15 C14 1_555 1_555
H11 C15 1_555 1_555
H12 C15 1_555 1_555
C16 C15 1_555 1_555
H13 C16 1_555 1_555
H14 C16 1_555 1_555
C17 C16 1_555 1_555
H15 C17 1_555 1_555
H16 C17 1_555 1_555
H17 C17 1_555 1_555
C18 C19 1_555 1_555
C19 C3 1_555 1_555
C20 C19 1_555 1_555
C21 C20 1_555 1_555
H18 C21 1_555 1_555
C22 C21 1_555 1_555
H19 C22 1_555 1_555
C23 C22 1_555 1_555
C24 C23 1_555 1_555
C25 C20 1_555 1_555
C26 C25 1_555 1_555
H20 C26 1_555 1_555
C27 C18 1_555 1_555
H21 C27 1_555 1_555
C28 H22 1_555 1_555
H23 C28 1_555 1_555
C29 C28 1_555 1_555
H24 C29 1_555 1_555
H25 C29 1_555 1_555
C30 C29 1_555 1_555
H26 C30 1_555 1_555
H27 C30 1_555 1_555
C31 C30 1_555 1_555
H28 C31 1_555 1_555
H29 C31 1_555 1_555
H30 C31 1_555 1_555
C32 C24 1_555 1_555
C33 H31 1_555 1_555
H32 C33 1_555 1_555
N1 C32 1_555 1_555
H33 N1 1_555 1_555
O1 C1 1_555 1_555
O2 C1 1_555 1_555
O3 C9 1_555 1_555
O4 C23 1_555 1_555
O5 C32 1_555 1_555
C34 H34 1_555 1_555
C35 H35 1_555 1_555
C36 C35 1_555 1_555
H36 C36 1_555 1_555
C37 C34 1_555 1_555
H37 C37 1_555 1_555
N2 C34 1_555 1_555
N3 C36 1_555 1_555
C1A H1A 1_555 1_555
C2A C1A 1_555 1_555
H2A C2A 1_555 1_555
H3A C2A 1_555 1_555
C3A C2A 1_555 1_555
H4A C3A 1_555 1_555
C4A C5A 1_555 1_555
C5A C3A 1_555 1_555
C6A C5A 1_555 1_555
C7A C6A 1_555 1_555
H5A C7A 1_555 1_555
C8A C7A 1_555 1_555
H6A C8A 1_555 1_555
C9A C8A 1_555 1_555
C10A C33 1_555 1_555
C11A C6A 1_555 1_555
C12A C11A 1_555 1_555
H7A C12A 1_555 1_555
C13A C4A 1_555 1_555
H8A C13A 1_555 1_555
C14A H9A 1_555 1_555
H10A C14A 1_555 1_555
C15A C14A 1_555 1_555
H11A C15A 1_555 1_555
H12A C15A 1_555 1_555
C16A C15A 1_555 1_555
H13A C16A 1_555 1_555
H14A C16A 1_555 1_555
C17A C16A 1_555 1_555
H15A C17A 1_555 1_555
H16A C17A 1_555 1_555
H17A C17A 1_555 1_555
C18A C19A 1_555 1_555
C19A C3A 1_555 1_555
C20A C19A 1_555 1_555
C21A C20A 1_555 1_555
H18A C21A 1_555 1_555
C22A C21A 1_555 1_555
H19A C22A 1_555 1_555
C23A C22A 1_555 1_555
C24A C23A 1_555 1_555
C25A C20A 1_555 1_555
C26A C25A 1_555 1_555
H20A C26A 1_555 1_555
C27A C18A 1_555 1_555
H21A C27A 1_555 1_555
C28A H22A 1_555 1_555
H23A C28A 1_555 1_555
C29A C28A 1_555 1_555
H24A C29A 1_555 1_555
H25A C29A 1_555 1_555
C30A C29A 1_555 1_555
H26A C30A 1_555 1_555
H27A C30A 1_555 1_555
C31A C30A 1_555 1_555
H28A C31A 1_555 1_555
H29A C31A 1_555 1_555
H30A C31A 1_555 1_555
C32A C24A 1_555 1_555
C33A C10 1_555 1_555
H31A C33A 1_555 1_555
H32A C33A 1_555 1_555
N1A C32A 1_555 1_555
H33A N1A 1_555 1_555
O1A C1A 1_555 1_555
O2A C1A 1_555 1_555
O3A C9A 1_555 1_555
O4A C23A 1_555 1_555
O5A C32A 1_555 1_555
C34A H34A 1_555 1_555
C35A H35A 1_555 1_555
C36A C35A 1_555 1_555
H36A C36A 1_555 1_555
C37A C34A 1_555 1_555
H37A C37A 1_555 1_555
N2A C34A 1_555 1_555
N3A C36A 1_555 1_555
C4 O1 1_555 1_555
C10 C11 1_555 1_555
C12 C13 1_555 1_555
C14 O3 1_555 1_555
C18 O2 1_555 1_555
C24 C25 1_555 1_555
C26 C27 1_555 1_555
C28 O4 1_555 1_555
C33 N1 1_555 1_555
C35 N2 1_555 1_555
C37 N3 1_555 1_555
C4A O1A 1_555 1_555
C9A C10A 1_555 1_555
C10A C11A 1_555 1_555
C12A C13A 1_555 1_555
C14A O3A 1_555 1_555
C18A O2A 1_555 1_555
C24A C25A 1_555 1_555
C26A C27A 1_555 1_555
C28A O4A 1_555 1_555
C33A N1A 1_555 1_555
C35A N2A 1_555 1_555
C37A N3A 1_555 1_555

#END
