
#######################################################################
#
#                 Cambridge Crystallographic Data Centre
#                                CCDC 
#
#######################################################################
#
# If this CIF has been generated from an entry in the Cambridge 
# Structural Database, then it will include bibliographic, chemical, 
# crystal, experimental, refinement or atomic coordinate data resulting 
# from the CCDC's data processing and validation procedures.
#
#######################################################################

data_TIHFOI
_chemical_formula_moiety         'C66 H66 N2 O10,5(C4 H5 N1)'
_chemical_name_systematic        
'10,16,36,42-tetrabutoxy-28,50,54,56-tetraoxa-13,39-diazatridecacyclo[43.7.1.1^3,51^.1^23,27^.1^25,29^.0^2,7^.0^6,11^.0^15,20^.0^19,24^.0^32,37^.0^33,55^.0^41,46^.0^49,53^]hexapentaconta-2,4,6,8,10,15,17,19,21,23,29(55),30,32,34,36,41,43,45(53),46,48-icosaene-12,40-dione pentakis(1H-pyrrole)'
_symmetry_cell_setting           monoclinic
_symmetry_space_group_name_H-M   'P 21/c'
_symmetry_Int_Tables_number      14
_space_group_name_Hall           '-P 2ybc'
loop_
_symmetry_equiv_pos_site_id
_symmetry_equiv_pos_as_xyz
1 x,y,z
2 -x,1/2+y,1/2-z
3 -x,-y,-z
4 x,1/2-y,1/2+z
_cell_length_a                   16.721(7)
_cell_length_b                   16.773(8)
_cell_length_c                   25.853(15)
_cell_angle_alpha                90
_cell_angle_beta                 100.627(17)
_cell_angle_gamma                90
_cell_volume                     7126.41
_exptl_crystal_colour            colorless
_exptl_crystal_description       block
_cell_formula_units_Z            4
loop_
_atom_site_label
_atom_site_type_symbol
_atom_site_fract_x
_atom_site_fract_y
_atom_site_fract_z
C1 C 0.5295(2) 0.6458(2) 0.11815(15)
H1 H 0.5530 0.6502 0.0854
C2 C 0.5985(2) 0.6420(2) 0.16411(15)
H2 H 0.6330 0.6901 0.1650
H3 H 0.6326 0.5945 0.1612
C3 C 0.56236(19) 0.63711(18) 0.21367(14)
H4 H 0.6064 0.6334 0.2455
C4 C 0.4691(2) 0.7407(2) 0.16935(13)
C5 C 0.4122(2) 0.8023(2) 0.16755(14)
H5 H 0.3854 0.8224 0.1345
C6 C 0.3950(2) 0.8334(2) 0.21248(13)
H6 H 0.3540 0.8730 0.2105
C7 C 0.43689(17) 0.80817(18) 0.26227(12)
C8 C 0.41956(18) 0.83955(18) 0.30979(13)
C9 C 0.46398(19) 0.81478(19) 0.35700(13)
C10 C 0.5295(2) 0.7622(2) 0.35824(14)
H7 H 0.5629 0.7487 0.3910
C11 C 0.54559(18) 0.73043(19) 0.31307(13)
H8 H 0.5902 0.6949 0.3149
C12 C 0.49833(17) 0.74843(17) 0.26357(12)
C13 C 0.51078(18) 0.71142(19) 0.21616(13)
C14 C 0.4417(3) 0.7921(3) 0.44484(16)
H9 H 0.4348 0.8222 0.4767
H10 H 0.4928 0.7611 0.4532
C15 C 0.3690(4) 0.7351(4) 0.4283(2)
H11 H 0.3217 0.7670 0.4112
H12 H 0.3827 0.6977 0.4017
C16 C 0.3446(4) 0.6888(6) 0.4701(3)
H13 H 0.3938 0.6657 0.4923
H14 H 0.3187 0.7247 0.4925
C17 C 0.2887(5) 0.6251(4) 0.4511(3)
H15 H 0.3122 0.5913 0.4268
H16 H 0.2372 0.6478 0.4326
H17 H 0.2786 0.5930 0.4809
C18 C 0.4685(2) 0.5410(2) 0.15997(14)
C19 C 0.4111(2) 0.4789(2) 0.15249(16)
H18 H 0.3867 0.4632 0.1179
C20 C 0.3904(2) 0.4415(2) 0.19435(15)
H19 H 0.3497 0.4014 0.1888
C21 C 0.42829(19) 0.46095(19) 0.24639(15)
C22 C 0.4054(2) 0.4239(2) 0.29044(16)
C23 C 0.4444(2) 0.4444(2) 0.34032(18)
C24 C 0.5092(2) 0.4981(2) 0.34721(16)
H20 H 0.5383 0.5090 0.3816
C25 C 0.5310(2) 0.5349(2) 0.30503(15)
H21 H 0.5754 0.5712 0.3108
C26 C 0.49018(18) 0.52108(18) 0.25336(14)
C27 C 0.50758(18) 0.56341(19) 0.20917(14)
C28 C 0.4541(4) 0.4223(4) 0.4324(2)
H22 H 0.4608 0.4797 0.4412
H23 H 0.5070 0.3943 0.4417
C29 C 0.3872(7) 0.3832(7) 0.4559(4)
H24 H 0.3436 0.3706 0.4256
H25 H 0.4098 0.3313 0.4699
C30 C 0.3536(7) 0.4094(7) 0.4885(4)
H26 H 0.3125 0.4481 0.4712
H27 H 0.3941 0.4399 0.5136
C31 C 0.3108(7) 0.3520(10) 0.5204(5)
H28 H 0.3042 0.3000 0.5028
H29 H 0.2572 0.3734 0.5231
H30 H 0.3435 0.3458 0.5557
C32 C 0.35024(18) 0.89716(19) 0.30943(13)
H31 H 0.3582 0.9266 0.3432
H32 H 0.3492 0.9363 0.2807
C33 C 0.20551(18) 0.88357(18) 0.31451(12)
C34 C 0.13497(17) 0.82683(18) 0.30741(12)
C35 C 0.11012(18) 0.79387(18) 0.35252(12)
C36 C 0.1446(2) 0.8186(2) 0.40421(12)
H33 H 0.1848 0.8594 0.4092
C37 C 0.1213(2) 0.7851(2) 0.44657(13)
H34 H 0.1432 0.8042 0.4809
C38 C 0.0650(2) 0.7223(2) 0.44025(12)
C39 C 0.02900(17) 0.69485(19) 0.39157(12)
C40 C 0.04881(17) 0.73394(18) 0.34654(12)
C41 C 0.00862(18) 0.71659(19) 0.29489(12)
H35 H -0.0354 0.6799 0.2899
C42 C 0.03094(19) 0.75067(19) 0.25207(12)
H36 H 0.0018 0.7383 0.2179
C43 C 0.09664(18) 0.80392(19) 0.25786(12)
C44 C 0.0809(2) 0.8202(3) 0.16484(13)
H37 H 0.0221 0.8305 0.1627
H38 H 0.0883 0.7639 0.1552
C45 C 0.1188(3) 0.8800(4) 0.12624(17)
H39 H 0.0824 0.8838 0.0915
H40 H 0.1266 0.9340 0.1418
C46 C 0.1917(4) 0.8472(4) 0.1214(2)
H41 H 0.1841 0.7947 0.1036
H42 H 0.2275 0.8407 0.1562
C47 C 0.2296(3) 0.9131(4) 0.08503(19)
H43 H 0.2032 0.9070 0.0481
H44 H 0.2883 0.9043 0.0883
H45 H 0.2199 0.9670 0.0971
C48 C 0.0092(2) 0.6166(2) 0.48317(13)
H46 H -0.0134 0.6092 0.5161
C49 C -0.06028(19) 0.6142(2) 0.43760(13)
H47 H -0.0981 0.6590 0.4397
H48 H -0.0907 0.5636 0.4376
C50 C -0.02430(18) 0.62082(18) 0.38800(12)
H49 H -0.0682 0.6228 0.3560
C51 C 0.07594(18) 0.52468(19) 0.43338(12)
C52 C 0.13746(19) 0.4673(2) 0.43598(13)
H50 H 0.1675 0.4513 0.4692
C53 C 0.15429(19) 0.4345(2) 0.39145(13)
H51 H 0.1985 0.3982 0.3935
C54 C 0.10697(18) 0.45337(18) 0.34189(12)
C55 C 0.1225(2) 0.41938(18) 0.29485(13)
C56 C 0.0715(2) 0.43379(19) 0.24751(13)
C57 C 0.0032(2) 0.4825(2) 0.24586(13)
H52 H -0.0337 0.4900 0.2136
C58 C -0.01072(19) 0.51939(19) 0.29049(12)
H53 H -0.0569 0.5530 0.2885
C59 C 0.04183(18) 0.50894(18) 0.33976(12)
C60 C 0.03046(17) 0.54871(18) 0.38632(12)
C61 C 0.0573(2) 0.4280(2) 0.15360(13)
H54 H 0.0706 0.4852 0.1514
H55 H -0.0026 0.4220 0.1464
C62 C 0.0942(2) 0.3808(2) 0.11468(14)
H56 H 0.0710 0.3998 0.0788
H57 H 0.0788 0.3241 0.1170
C63 C 0.1860(2) 0.3867(2) 0.12289(14)
H58 H 0.2014 0.4428 0.1179
H59 H 0.2092 0.3714 0.1596
C64 C 0.2223(3) 0.3344(3) 0.08580(16)
H60 H 0.2025 0.3515 0.0495
H61 H 0.2064 0.2789 0.0900
H62 H 0.2818 0.3387 0.0939
C65 C 0.1964(2) 0.36801(19) 0.29641(14)
C66 C 0.3379(2) 0.3640(2) 0.28486(19)
H63 H 0.3369 0.3324 0.2524
H64 H 0.3476 0.3269 0.3152
N1 N 0.27316(14) 0.85402(15) 0.30189(10)
H65 H 0.2714 0.8058 0.2882
N2 N 0.25943(17) 0.40368(16) 0.28251(12)
H66 H 0.2541 0.4533 0.2714
O1 O 0.47844(16) 0.71326(15) 0.12054(9)
O2 O 0.48019(15) 0.57637(15) 0.11390(10)
O3 O 0.44563(16) 0.84598(15) 0.40267(9)
O4 O 0.4163(2) 0.4092(2) 0.38118(14)
O5 O 0.04993(15) 0.69066(14) 0.48688(8)
O6 O 0.06754(14) 0.55519(14) 0.48135(8)
O7 O 0.12485(13) 0.83678(14) 0.21639(8)
O8 O 0.09074(16) 0.39740(14) 0.20466(9)
O9 O 0.20310(13) 0.95060(13) 0.33383(10)
O10 O 0.19985(16) 0.29922(15) 0.31275(11)
C70 C 0.0897(2) 0.2334(3) 0.42438(17)
H76 H 0.0951 0.2851 0.4397
C71 C 0.0587(3) 0.1683(3) 0.44424(18)
H77 H 0.0378 0.1663 0.4760
C72 C 0.0626(3) 0.1046(3) 0.41043(19)
H78 H 0.0457 0.0514 0.4148
C73 C 0.0958(3) 0.1339(3) 0.36943(17)
H79 H 0.1057 0.1045 0.3399
N3 N 0.11159(18) 0.2116(2) 0.37879(13)
H80 H 0.1331 0.2436 0.3581
C74 C 0.1413(5) 0.9418(3) 0.5381(2)
H81 H 0.0891 0.9641 0.5255
C75 C 0.2176(8) 0.9619(4) 0.5233(3)
H82 H 0.2258 1.0005 0.4979
C76 C 0.2684(6) 0.9216(6) 0.5485(4)
H83 H 0.3240 0.9265 0.5455
C77 C 0.2452(4) 0.8707(4) 0.5803(2)
H84 H 0.2777 0.8333 0.6025
N4 N 0.1619(3) 0.8832(3) 0.57437(19)
H85 H 0.1284 0.8577 0.5912
C78 C 0.2294(4) 0.6088(3) 0.2158(3)
H86 H 0.2084 0.5981 0.1798
C79 C 0.1868(3) 0.6093(3) 0.2562(4)
H87 H 0.1305 0.5982 0.2531
C80 C 0.2369(4) 0.6277(3) 0.2999(3)
H88 H 0.2227 0.6333 0.3336
C81 C 0.3122(3) 0.6374(3) 0.2886(2)
H89 H 0.3604 0.6498 0.3129
N5 N 0.3063(3) 0.6263(3) 0.2369(2)
H90 H 0.3467 0.6300 0.2195
C82 C 0.3690(2) 1.0081(2) 0.45082(15)
H91 H 0.3913 0.9594 0.4411
C83 C 0.4005(2) 1.0537(3) 0.49225(15)
H92 H 0.4483 1.0429 0.5174
C84 C 0.3502(3) 1.1195(3) 0.49139(17)
H93 H 0.3579 1.1623 0.5159
C85 C 0.2885(2) 1.1126(2) 0.45010(16)
H94 H 0.2452 1.1494 0.4402
N6 N 0.29953(19) 1.04344(19) 0.42508(12)
H95 H 0.2673 1.0246 0.3970
C86 C 0.2257(2) 0.0859(2) 0.24956(17)
H96 H 0.2214 0.0572 0.2806
C87 C 0.2396(2) 0.0542(3) 0.20490(19)
H97 H 0.2464 -0.0008 0.1982
C88 C 0.2422(2) 0.1169(4) 0.16956(18)
H98 H 0.2516 0.1127 0.1345
C89 C 0.2290(3) 0.1844(3) 0.1950(2)
H99 H 0.2271 0.2366 0.1807
N7 N 0.2189(2) 0.1662(2) 0.24325(16)
H100 H 0.2095 0.2004 0.2672
H67? H 0.4452 0.4790 0.4404
H68? H 0.5133 0.4158 0.4337
C67? C 0.4328(10) 0.3743(8) 0.4768(4)
H69? H 0.3933 0.3333 0.4607
H70? H 0.4828 0.3454 0.4930
C68? C 0.4018(7) 0.4078(8) 0.5170(4)
H71? H 0.3821 0.4609 0.5037
H72? H 0.4499 0.4180 0.5448
C69? C 0.3388(8) 0.3784(11) 0.5457(6)
H73? H 0.2907 0.4127 0.5378
H74? H 0.3602 0.3794 0.5836
H75? H 0.3239 0.3237 0.5347
loop_
_geom_bond_atom_site_label_1
_geom_bond_atom_site_label_2
_geom_bond_site_symmetry_1
_geom_bond_site_symmetry_2
C1 H1 1_555 1_555
C2 C1 1_555 1_555
H2 C2 1_555 1_555
H3 C2 1_555 1_555
C3 C2 1_555 1_555
H4 C3 1_555 1_555
C4 C5 1_555 1_555
C5 H5 1_555 1_555
C6 C5 1_555 1_555
H6 C6 1_555 1_555
C7 C6 1_555 1_555
C8 C7 1_555 1_555
C9 C8 1_555 1_555
C10 C9 1_555 1_555
H7 C10 1_555 1_555
C11 C10 1_555 1_555
H8 C11 1_555 1_555
C12 C7 1_555 1_555
C13 C3 1_555 1_555
C14 H9 1_555 1_555
H10 C14 1_555 1_555
C15 C14 1_555 1_555
H11 C15 1_555 1_555
H12 C15 1_555 1_555
C16 C15 1_555 1_555
H13 C16 1_555 1_555
H14 C16 1_555 1_555
C17 C16 1_555 1_555
H15 C17 1_555 1_555
H16 C17 1_555 1_555
H17 C17 1_555 1_555
C18 C19 1_555 1_555
C19 H18 1_555 1_555
C20 C19 1_555 1_555
H19 C20 1_555 1_555
C21 C20 1_555 1_555
C22 C21 1_555 1_555
C23 C22 1_555 1_555
C24 C23 1_555 1_555
H20 C24 1_555 1_555
C25 C24 1_555 1_555
H21 C25 1_555 1_555
C26 C21 1_555 1_555
C27 C3 1_555 1_555
C28 H22 1_555 1_555
H23 C28 1_555 1_555
C29 C28 1_555 1_555
H24 C29 1_555 1_555
H25 C29 1_555 1_555
C30 C29 1_555 1_555
H26 C30 1_555 1_555
H27 C30 1_555 1_555
C31 C30 1_555 1_555
H28 C31 1_555 1_555
H29 C31 1_555 1_555
H30 C31 1_555 1_555
C32 C8 1_555 1_555
H31 C32 1_555 1_555
H32 C32 1_555 1_555
C33 C34 1_555 1_555
C34 C35 1_555 1_555
C35 C36 1_555 1_555
C36 H33 1_555 1_555
C37 C36 1_555 1_555
H34 C37 1_555 1_555
C38 C37 1_555 1_555
C39 C38 1_555 1_555
C40 C35 1_555 1_555
C41 C40 1_555 1_555
H35 C41 1_555 1_555
C42 C41 1_555 1_555
H36 C42 1_555 1_555
C43 C34 1_555 1_555
C44 H37 1_555 1_555
H38 C44 1_555 1_555
C45 C44 1_555 1_555
H39 C45 1_555 1_555
H40 C45 1_555 1_555
C46 C45 1_555 1_555
H41 C46 1_555 1_555
H42 C46 1_555 1_555
C47 C46 1_555 1_555
H43 C47 1_555 1_555
H44 C47 1_555 1_555
H45 C47 1_555 1_555
C48 H46 1_555 1_555
C49 C48 1_555 1_555
H47 C49 1_555 1_555
H48 C49 1_555 1_555
C50 C39 1_555 1_555
H49 C50 1_555 1_555
C51 C52 1_555 1_555
C52 H50 1_555 1_555
C53 C52 1_555 1_555
H51 C53 1_555 1_555
C54 C53 1_555 1_555
C55 C54 1_555 1_555
C56 C55 1_555 1_555
C57 C56 1_555 1_555
H52 C57 1_555 1_555
C58 C57 1_555 1_555
H53 C58 1_555 1_555
C59 C54 1_555 1_555
C60 C50 1_555 1_555
C61 H54 1_555 1_555
H55 C61 1_555 1_555
C62 C61 1_555 1_555
H56 C62 1_555 1_555
H57 C62 1_555 1_555
C63 C62 1_555 1_555
H58 C63 1_555 1_555
H59 C63 1_555 1_555
C64 C63 1_555 1_555
H60 C64 1_555 1_555
H61 C64 1_555 1_555
H62 C64 1_555 1_555
C65 C55 1_555 1_555
C66 C22 1_555 1_555
H63 C66 1_555 1_555
H64 C66 1_555 1_555
N1 C32 1_555 1_555
H65 N1 1_555 1_555
N2 C65 1_555 1_555
H66 N2 1_555 1_555
O1 C1 1_555 1_555
O2 C1 1_555 1_555
O3 C9 1_555 1_555
O4 C23 1_555 1_555
O5 C38 1_555 1_555
O6 C48 1_555 1_555
O7 C43 1_555 1_555
O8 C56 1_555 1_555
O9 C33 1_555 1_555
O10 C65 1_555 1_555
C70 H76 1_555 1_555
C71 C70 1_555 1_555
H77 C71 1_555 1_555
C72 C71 1_555 1_555
H78 C72 1_555 1_555
C73 C72 1_555 1_555
H79 C73 1_555 1_555
N3 C70 1_555 1_555
H80 N3 1_555 1_555
C74 H81 1_555 1_555
C75 C74 1_555 1_555
H82 C75 1_555 1_555
C76 C75 1_555 1_555
H83 C76 1_555 1_555
C77 C76 1_555 1_555
H84 C77 1_555 1_555
N4 C74 1_555 1_555
H85 N4 1_555 1_555
C78 H86 1_555 1_555
C79 C78 1_555 1_555
H87 C79 1_555 1_555
C80 C79 1_555 1_555
H88 C80 1_555 1_555
C81 C80 1_555 1_555
H89 C81 1_555 1_555
N5 C78 1_555 1_555
H90 N5 1_555 1_555
C82 H91 1_555 1_555
C83 C82 1_555 1_555
H92 C83 1_555 1_555
C84 C83 1_555 1_555
H93 C84 1_555 1_555
C85 C84 1_555 1_555
H94 C85 1_555 1_555
N6 C82 1_555 1_555
H95 N6 1_555 1_555
C86 H96 1_555 1_555
C87 C86 1_555 1_555
H97 C87 1_555 1_555
C88 C87 1_555 1_555
H98 C88 1_555 1_555
C89 C88 1_555 1_555
H99 C89 1_555 1_555
N7 C86 1_555 1_555
H100 N7 1_555 1_555
C4 C13 1_555 1_555
C4 O1 1_555 1_555
C11 C12 1_555 1_555
C12 C13 1_555 1_555
C14 O3 1_555 1_555
C18 C27 1_555 1_555
C18 O2 1_555 1_555
C25 C26 1_555 1_555
C26 C27 1_555 1_555
C28 O4 1_555 1_555
C33 N1 1_555 1_555
C39 C40 1_555 1_555
C42 C43 1_555 1_555
C44 O7 1_555 1_555
C48 O5 1_555 1_555
C49 C50 1_555 1_555
C51 C60 1_555 1_555
C51 O6 1_555 1_555
C58 C59 1_555 1_555
C59 C60 1_555 1_555
C61 O8 1_555 1_555
C66 N2 1_555 1_555
C73 N3 1_555 1_555
C77 N4 1_555 1_555
C81 N5 1_555 1_555
C85 N6 1_555 1_555
C89 N7 1_555 1_555

#END
