
#######################################################################
#
#                 Cambridge Crystallographic Data Centre
#                                CCDC 
#
#######################################################################
#
# If this CIF has been generated from an entry in the Cambridge 
# Structural Database, then it will include bibliographic, chemical, 
# crystal, experimental, refinement or atomic coordinate data resulting 
# from the CCDC's data processing and validation procedures.
#
#######################################################################

data_TIHKEC
_chemical_formula_moiety         'C19 H23 Cl1 O2'
_chemical_name_systematic        
1-(Chloro(3-methoxyphenyl)methylene)spiro[4.6]undecan-8-one
_symmetry_cell_setting           monoclinic
_symmetry_space_group_name_H-M   'P 21/c'
_symmetry_Int_Tables_number      14
_space_group_name_Hall           '-P 2ybc'
loop_
_symmetry_equiv_pos_site_id
_symmetry_equiv_pos_as_xyz
1 x,y,z
2 -x,1/2+y,1/2-z
3 -x,-y,-z
4 x,1/2-y,1/2+z
_cell_length_a                   12.1863(5)
_cell_length_b                   10.7876(5)
_cell_length_c                   16.7840(6)
_cell_angle_alpha                90
_cell_angle_beta                 131.872(2)
_cell_angle_gamma                90
_cell_volume                     1643
_exptl_crystal_colour            colorless
_exptl_crystal_description       prism
_cell_formula_units_Z            4
loop_
_atom_site_label
_atom_site_type_symbol
_atom_site_fract_x
_atom_site_fract_y
_atom_site_fract_z
C1 C 0.8310(4) 0.0425(3) 0.1496(3)
C2 C 0.9360(4) 0.0204(3) 0.2668(3)
C3 C 0.9275(4) -0.0864(3) 0.3087(3)
H1 H 0.8545 -0.1448 0.2632
C4 C 1.0280(4) -0.1059(4) 0.4186(3)
C5 C 1.1372(4) -0.0199(4) 0.4860(3)
H2 H 1.2045 -0.0331 0.5595
C6 C 1.1467(4) 0.0845(4) 0.4449(3)
H3 H 1.2205 0.1422 0.4909
C7 C 1.0475(4) 0.1057(4) 0.3353(3)
H4 H 1.0556 0.1765 0.3080
C8 C 0.9097(6) -0.2921(5) 0.4030(4)
H5 H 0.9229 -0.3587 0.4467
H6 H 0.9068 -0.3250 0.3485
H7 H 0.8188 -0.2500 0.3702
C9 C 0.7211(4) 0.1226(3) 0.0891(3)
C10 C 0.6345(5) 0.1420(4) -0.0289(3)
H8 H 0.5898 0.0650 -0.0679
H9 H 0.6981 0.1726 -0.0401
C11 C 0.5171(5) 0.2368(4) -0.0656(3)
H10 H 0.5482 0.3194 -0.0661
H11 H 0.4253 0.2174 -0.1370
C12 C 0.4994(4) 0.2279(4) 0.0154(3)
H12 H 0.4368 0.1585 -0.0006
H13 H 0.4571 0.3034 0.0163
C13 C 0.6587(4) 0.2084(3) 0.1238(3)
C14 C 0.6599(4) 0.1499(4) 0.2084(3)
H14 H 0.6401 0.0619 0.1935
H15 H 0.7582 0.1586 0.2781
C15 C 0.5491(5) 0.2051(4) 0.2140(4)
H16 H 0.4510 0.1828 0.1485
H17 H 0.5643 0.1645 0.2723
C16 C 0.5505(5) 0.3412(4) 0.2290(3)
C17 C 0.6797(6) 0.4163(5) 0.2705(4)
H18 H 0.7684 0.3740 0.3308
H19 H 0.6747 0.4952 0.2956
C18 C 0.6879(5) 0.4393(4) 0.1835(4)
H20 H 0.5900 0.4595 0.1168
H21 H 0.7505 0.5107 0.2041
C19 C 0.7469(4) 0.3301(3) 0.1642(3)
H22 H 0.8460 0.3126 0.2308
H23 H 0.7547 0.3559 0.1128
Cl1 Cl 0.87119(12) -0.05295(10) 0.08541(8)
O1 O 1.0284(3) -0.2076(3) 0.4673(2)
O2 O 0.4400(4) 0.3907(3) 0.2045(3)
loop_
_geom_bond_atom_site_label_1
_geom_bond_atom_site_label_2
_geom_bond_site_symmetry_1
_geom_bond_site_symmetry_2
C1 C2 1_555 1_555
C2 C3 1_555 1_555
C3 H1 1_555 1_555
C4 C3 1_555 1_555
C5 C4 1_555 1_555
H2 C5 1_555 1_555
C6 C5 1_555 1_555
H3 C6 1_555 1_555
C7 C2 1_555 1_555
H4 C7 1_555 1_555
C8 H5 1_555 1_555
H6 C8 1_555 1_555
H7 C8 1_555 1_555
C9 C1 1_555 1_555
C10 C9 1_555 1_555
H8 C10 1_555 1_555
H9 C10 1_555 1_555
C11 C10 1_555 1_555
H10 C11 1_555 1_555
H11 C11 1_555 1_555
C12 C11 1_555 1_555
H12 C12 1_555 1_555
H13 C12 1_555 1_555
C13 C9 1_555 1_555
C14 C13 1_555 1_555
H14 C14 1_555 1_555
H15 C14 1_555 1_555
C15 C14 1_555 1_555
H16 C15 1_555 1_555
H17 C15 1_555 1_555
C16 C15 1_555 1_555
C17 C16 1_555 1_555
H18 C17 1_555 1_555
H19 C17 1_555 1_555
C18 C17 1_555 1_555
H20 C18 1_555 1_555
H21 C18 1_555 1_555
C19 C13 1_555 1_555
H22 C19 1_555 1_555
H23 C19 1_555 1_555
Cl1 C1 1_555 1_555
O1 C4 1_555 1_555
O2 C16 1_555 1_555
C6 C7 1_555 1_555
C8 O1 1_555 1_555
C12 C13 1_555 1_555
C18 C19 1_555 1_555

#END
