
#######################################################################
#
#                 Cambridge Crystallographic Data Centre
#                                CCDC 
#
#######################################################################
#
# If this CIF has been generated from an entry in the Cambridge 
# Structural Database, then it will include bibliographic, chemical, 
# crystal, experimental, refinement or atomic coordinate data resulting 
# from the CCDC's data processing and validation procedures.
#
#######################################################################

data_TIHKIF
_chemical_formula_moiety         'C24 H23 N3 O5'
_chemical_name_systematic        
"Methyl 1'-(3-hydroxy-2-oxo-2,3-dihydro-1H-indol-3-yl)-2-oxo-2,3-dihydro-1H-indole-3-spiro-3'-pyrrolizidine-1'-carboxylate"
_symmetry_cell_setting           monoclinic
_symmetry_space_group_name_H-M   'P 21/n'
_symmetry_Int_Tables_number      14
_space_group_name_Hall           '-P 2yn'
loop_
_symmetry_equiv_pos_site_id
_symmetry_equiv_pos_as_xyz
1 x,y,z
2 1/2-x,1/2+y,1/2-z
3 -x,-y,-z
4 1/2+x,1/2-y,1/2+z
_cell_length_a                   13.0337(11)
_cell_length_b                   7.9573(6)
_cell_length_c                   19.9303(17)
_cell_angle_alpha                90
_cell_angle_beta                 93.184(3)
_cell_angle_gamma                90
_cell_volume                     2063.84
_exptl_crystal_colour            colorless
_exptl_crystal_description       Block
_cell_formula_units_Z            4
_exptl_crystal_recrystallization_method 'ethyl acetate'
loop_
_atom_site_label
_atom_site_type_symbol
_atom_site_fract_x
_atom_site_fract_y
_atom_site_fract_z
O1 O 0.72215(13) 0.1955(3) 0.25051(9)
O2 O 0.56320(15) 0.2516(3) 0.50386(10)
O3 O 0.70217(12) 0.4091(2) 0.52414(8)
O4 O 0.84860(12) 0.1711(2) 0.36953(8)
H1 H 0.8095 0.1980 0.3377
O5 O 0.89232(12) 0.5038(2) 0.42579(8)
C1 C 0.57372(16) 0.1871(3) 0.32218(11)
C2 C 0.63301(19) 0.1579(3) 0.25855(12)
N1 N 0.56772(16) 0.0858(3) 0.21180(10)
H2 H 0.5825 0.0665 0.1710
C3 C 0.47306(19) 0.0466(3) 0.23802(12)
C4 C 0.3906(2) -0.0395(4) 0.20867(15)
H3 H 0.3908 -0.0752 0.1642
C5 C 0.3081(2) -0.0711(4) 0.24668(18)
H4 H 0.2522 -0.1302 0.2278
C6 C 0.3066(2) -0.0175(4) 0.31189(16)
H5 H 0.2500 -0.0413 0.3367
C7 C 0.38911(18) 0.0723(3) 0.34157(13)
H6 H 0.3879 0.1101 0.3857
C8 C 0.47192(17) 0.1034(3) 0.30395(11)
N2 N 0.56661(13) 0.3632(2) 0.34024(9)
C9 C 0.53680(19) 0.4958(3) 0.29247(13)
H7 H 0.4631 0.4965 0.2824
H8 H 0.5717 0.4837 0.2510
C10 C 0.57209(19) 0.6552(3) 0.33081(13)
H9 H 0.5135 0.7152 0.3469
H10 H 0.6089 0.7294 0.3019
C11 C 0.64313(19) 0.5947(3) 0.39015(13)
H11 H 0.7056 0.6612 0.3943
H12 H 0.6088 0.6001 0.4320
C12 C 0.66601(16) 0.4143(3) 0.37126(11)
H13 H 0.7167 0.4148 0.3367
C13 C 0.69104(16) 0.2662(3) 0.42044(11)
C14 C 0.63300(17) 0.1148(3) 0.38523(11)
H14 H 0.6815 0.0297 0.3724
H15 H 0.5857 0.0644 0.4153
C15 C 0.80709(16) 0.2245(3) 0.43055(10)
C16 C 0.87766(16) 0.3723(3) 0.45599(11)
N3 N 0.92764(14) 0.3246(2) 0.51369(9)
H16 H 0.9698 0.3879 0.5368
C17 C 0.90328(16) 0.1608(3) 0.53177(11)
C18 C 0.94465(19) 0.0707(3) 0.58528(13)
H17 H 0.9922 0.1186 0.6161
C19 C 0.9130(2) -0.0942(3) 0.59170(14)
H18 H 0.9401 -0.1591 0.6272
C20 C 0.8419(2) -0.1631(3) 0.54602(15)
H19 H 0.8212 -0.2740 0.5512
C21 C 0.80034(19) -0.0695(3) 0.49222(14)
H20 H 0.7523 -0.1170 0.4616
C22 C 0.83173(17) 0.0955(3) 0.48490(12)
C23 C 0.64407(18) 0.3038(3) 0.48693(11)
C24 C 0.6626(2) 0.4599(4) 0.58721(13)
H21 H 0.5976 0.5152 0.5789
H22 H 0.7101 0.5357 0.6099
H23 H 0.6536 0.3626 0.6148
loop_
_geom_bond_atom_site_label_1
_geom_bond_atom_site_label_2
_geom_bond_site_symmetry_1
_geom_bond_site_symmetry_2
O1 C2 1_555 1_555
O2 C23 1_555 1_555
O3 C23 1_555 1_555
O4 H1 1_555 1_555
O5 C16 1_555 1_555
C1 C2 1_555 1_555
C2 N1 1_555 1_555
N1 H2 1_555 1_555
C3 N1 1_555 1_555
C4 C3 1_555 1_555
H3 C4 1_555 1_555
C5 C4 1_555 1_555
H4 C5 1_555 1_555
C6 C5 1_555 1_555
H5 C6 1_555 1_555
C7 C6 1_555 1_555
H6 C7 1_555 1_555
C8 C1 1_555 1_555
N2 C1 1_555 1_555
C9 N2 1_555 1_555
H7 C9 1_555 1_555
H8 C9 1_555 1_555
C10 C9 1_555 1_555
H9 C10 1_555 1_555
H10 C10 1_555 1_555
C11 C10 1_555 1_555
H11 C11 1_555 1_555
H12 C11 1_555 1_555
C12 N2 1_555 1_555
H13 C12 1_555 1_555
C13 C12 1_555 1_555
C14 C1 1_555 1_555
H14 C14 1_555 1_555
H15 C14 1_555 1_555
C15 O4 1_555 1_555
C16 C15 1_555 1_555
N3 C16 1_555 1_555
H16 N3 1_555 1_555
C17 N3 1_555 1_555
C18 C17 1_555 1_555
H17 C18 1_555 1_555
C19 C18 1_555 1_555
H18 C19 1_555 1_555
C20 C19 1_555 1_555
H19 C20 1_555 1_555
C21 C20 1_555 1_555
H20 C21 1_555 1_555
C22 C15 1_555 1_555
C23 C13 1_555 1_555
C24 O3 1_555 1_555
H21 C24 1_555 1_555
H22 C24 1_555 1_555
H23 C24 1_555 1_555
C3 C8 1_555 1_555
C7 C8 1_555 1_555
C11 C12 1_555 1_555
C13 C14 1_555 1_555
C13 C15 1_555 1_555
C17 C22 1_555 1_555
C21 C22 1_555 1_555

#END
