
#######################################################################
#
#                 Cambridge Crystallographic Data Centre
#                                CCDC 
#
#######################################################################
#
# If this CIF has been generated from an entry in the Cambridge 
# Structural Database, then it will include bibliographic, chemical, 
# crystal, experimental, refinement or atomic coordinate data resulting 
# from the CCDC's data processing and validation procedures.
#
#######################################################################

data_TIHLED
_chemical_formula_moiety         'C27 H30 Cl1 N1 O4 S1'
_chemical_name_systematic        
'Ethyl 3-(chloro(2-((4-methylphenyl)sulfonyl)-2-azaspiro[4.6]undec-8-en-4-ylidene)methyl)benzoate'
_symmetry_cell_setting           monoclinic
_symmetry_space_group_name_H-M   'P 21'
_symmetry_Int_Tables_number      4
_space_group_name_Hall           'P 2yb'
loop_
_symmetry_equiv_pos_site_id
_symmetry_equiv_pos_as_xyz
1 x,y,z
2 -x,1/2+y,-z
_cell_length_a                   8.3480(2)
_cell_length_b                   17.5580(4)
_cell_length_c                   9.6511(3)
_cell_angle_alpha                90
_cell_angle_beta                 115.4510(10)
_cell_angle_gamma                90
_cell_volume                     1277.32
_exptl_crystal_colour            colorless
_exptl_crystal_description       prism
_cell_formula_units_Z            2
loop_
_atom_site_label
_atom_site_type_symbol
_atom_site_fract_x
_atom_site_fract_y
_atom_site_fract_z
C1 C -0.0136(5) -0.4463(2) -0.6906(4)
C2 C -0.0072(7) -0.5206(2) -0.6405(6)
H1 H -0.1005 -0.5408 -0.6240
C3 C 0.1407(8) -0.5641(3) -0.6155(8)
H2 H 0.1474 -0.6136 -0.5790
C4 C 0.2794(7) -0.5361(3) -0.6433(7)
C5 C 0.4383(9) -0.5838(4) -0.6161(11)
H3 H 0.5194 -0.5552 -0.6423
H4 H 0.4019 -0.6288 -0.6786
H5 H 0.4958 -0.5982 -0.5098
C6 C 0.2678(6) -0.4621(3) -0.6966(6)
H6 H 0.3588 -0.4425 -0.7172
C7 C 0.1224(5) -0.4169(2) -0.7198(5)
H7 H 0.1163 -0.3671 -0.7547
C8 C -0.0048(6) -0.2994(2) -0.4710(5)
H8 H -0.0353 -0.2498 -0.5194
H9 H 0.1020 -0.3176 -0.4766
C9 C 0.0193(5) -0.2962(2) -0.3057(4)
C10 C 0.1412(5) -0.2531(2) -0.2013(5)
C11 C 0.1878(5) -0.2417(2) -0.0371(5)
C12 C 0.0784(6) -0.1981(2) 0.0073(5)
H10 H -0.0236 -0.1758 -0.0666
C13 C 0.1217(6) -0.1879(3) 0.1620(5)
C14 C 0.2739(7) -0.2190(3) 0.2701(5)
H11 H 0.3041 -0.2113 0.3738
C15 C 0.3834(7) -0.2618(4) 0.2262(6)
H12 H 0.4868 -0.2830 0.3002
C16 C 0.3393(6) -0.2728(3) 0.0737(6)
H13 H 0.4131 -0.3018 0.0448
C17 C 0.0036(8) -0.1436(3) 0.2132(7)
C18 C -0.2693(12) -0.0764(6) 0.1339(11)
H14 H -0.2123 -0.0562 0.2374
H15 H -0.3085 -0.0336 0.0635
C19 C -0.3806(17) -0.1216(8) 0.1554(15)
H16 H -0.4631 -0.0919 0.1778
H17 H -0.3166 -0.1552 0.2398
H18 H -0.4441 -0.1511 0.0643
C20 C -0.1136(5) -0.3502(2) -0.2870(5)
C21 C -0.2833(6) -0.3051(3) -0.3148(6)
H19 H -0.2556 -0.2712 -0.2282
H20 H -0.3117 -0.2733 -0.4046
C22 C -0.4449(9) -0.3480(5) -0.3373(10)
H21 H -0.5352 -0.3112 -0.3453
H22 H -0.4865 -0.3737 -0.4356
C23 C -0.4354(17) -0.4028(9) -0.2265(17)
H23 H -0.5420 -0.4070 -0.2183
C24 C -0.3238(16) -0.4456(9) -0.1397(17)
H24 H -0.3544 -0.4725 -0.0717
C25 C -0.1630(12) -0.4585(3) -0.1303(7)
H25 H -0.1770 -0.4930 -0.2132
H26 H -0.0979 -0.4861 -0.0353
C26 C -0.0417(7) -0.3931(3) -0.1348(6)
H27 H 0.0738 -0.4139 -0.1149
H28 H -0.0256 -0.3574 -0.0532
C27 C -0.1488(6) -0.4047(2) -0.4211(5)
H29 H -0.0551 -0.4423 -0.3945
H30 H -0.2616 -0.4306 -0.4521
Cl1 Cl 0.27760(17) -0.19778(7) -0.26109(15)
N1 N -0.1514(4) -0.3535(2) -0.5432(4)
O1 O -0.1939(4) -0.3226(2) -0.8029(3)
O2 O -0.3471(4) -0.4334(2) -0.7571(4)
O3 O 0.0422(6) -0.1299(3) 0.3464(5)
O4 O -0.1397(6) -0.1199(3) 0.0988(5)
S1 S -0.19300(12) -0.38681(6) -0.71178(11)
C28? C -0.399(3) -0.0555(15) 0.005(3)
H31? H -0.4852 -0.0277 0.0253
H32? H -0.4533 -0.0998 -0.0553
H33? H -0.3532 -0.0237 -0.0509
loop_
_geom_bond_atom_site_label_1
_geom_bond_atom_site_label_2
_geom_bond_site_symmetry_1
_geom_bond_site_symmetry_2
C1 C2 1_555 1_555
C2 H1 1_555 1_555
C3 C2 1_555 1_555
H2 C3 1_555 1_555
C4 C3 1_555 1_555
C5 C4 1_555 1_555
H3 C5 1_555 1_555
H4 C5 1_555 1_555
H5 C5 1_555 1_555
C6 C4 1_555 1_555
H6 C6 1_555 1_555
C7 C1 1_555 1_555
H7 C7 1_555 1_555
C8 H8 1_555 1_555
H9 C8 1_555 1_555
C9 C8 1_555 1_555
C10 C9 1_555 1_555
C11 C10 1_555 1_555
C12 C11 1_555 1_555
H10 C12 1_555 1_555
C13 C12 1_555 1_555
C14 C13 1_555 1_555
H11 C14 1_555 1_555
C15 C14 1_555 1_555
H12 C15 1_555 1_555
C16 C11 1_555 1_555
H13 C16 1_555 1_555
C17 C13 1_555 1_555
C18 H14 1_555 1_555
H15 C18 1_555 1_555
C19 C18 1_555 1_555
H16 C19 1_555 1_555
H17 C19 1_555 1_555
H18 C19 1_555 1_555
C20 C9 1_555 1_555
C21 C20 1_555 1_555
H19 C21 1_555 1_555
H20 C21 1_555 1_555
C22 C21 1_555 1_555
H21 C22 1_555 1_555
H22 C22 1_555 1_555
C23 C22 1_555 1_555
H23 C23 1_555 1_555
C24 C23 1_555 1_555
H24 C24 1_555 1_555
C25 C24 1_555 1_555
H25 C25 1_555 1_555
H26 C25 1_555 1_555
C26 C20 1_555 1_555
H27 C26 1_555 1_555
H28 C26 1_555 1_555
C27 C20 1_555 1_555
H29 C27 1_555 1_555
H30 C27 1_555 1_555
Cl1 C10 1_555 1_555
N1 C8 1_555 1_555
O1 S1 1_555 1_555
O2 S1 1_555 1_555
O3 C17 1_555 1_555
O4 C17 1_555 1_555
S1 C1 1_555 1_555
C6 C7 1_555 1_555
C15 C16 1_555 1_555
C18 O4 1_555 1_555
C25 C26 1_555 1_555
C27 N1 1_555 1_555
N1 S1 1_555 1_555

#END
