
#######################################################################
#
#                 Cambridge Crystallographic Data Centre
#                                CCDC 
#
#######################################################################
#
# If this CIF has been generated from an entry in the Cambridge 
# Structural Database, then it will include bibliographic, chemical, 
# crystal, experimental, refinement or atomic coordinate data resulting 
# from the CCDC's data processing and validation procedures.
#
#######################################################################

data_TIHLAZ
_chemical_formula_moiety         'C24 H26 Br1 N1 O2 S1'
_chemical_name_systematic        
4-(Bromo(phenyl)methylene)-2-((4-methylphenyl)sulfonyl)-2-azaspiro[4.6]undec-7-ene
_symmetry_cell_setting           monoclinic
_symmetry_space_group_name_H-M   'P 21/n'
_symmetry_Int_Tables_number      14
_space_group_name_Hall           '-P 2yn'
loop_
_symmetry_equiv_pos_site_id
_symmetry_equiv_pos_as_xyz
1 x,y,z
2 1/2-x,1/2+y,1/2-z
3 -x,-y,-z
4 1/2+x,1/2-y,1/2+z
_cell_length_a                   13.7061(5)
_cell_length_b                   8.9543(4)
_cell_length_c                   18.3545(7)
_cell_angle_alpha                90
_cell_angle_beta                 96.517(2)
_cell_angle_gamma                90
_cell_volume                     2238.06
_exptl_crystal_colour            colorless
_exptl_crystal_description       prism
_cell_formula_units_Z            4
loop_
_atom_site_label
_atom_site_type_symbol
_atom_site_fract_x
_atom_site_fract_y
_atom_site_fract_z
C1 C -0.1519(2) -0.0055(4) 0.21511(18)
C2 C -0.1781(3) -0.1221(4) 0.16724(19)
H1 H -0.1320 -0.1984 0.1600
C3 C -0.2713(3) -0.1270(5) 0.13003(19)
H2 H -0.2889 -0.2069 0.0971
C4 C -0.3399(3) -0.0168(5) 0.1401(2)
C5 C -0.4433(3) -0.0260(7) 0.1019(3)
H3 H -0.4504 -0.1166 0.0718
H4 H -0.4567 0.0618 0.0704
H5 H -0.4900 -0.0290 0.1386
C6 C -0.3119(3) 0.1004(5) 0.1867(3)
H6 H -0.3576 0.1776 0.1933
C7 C -0.2184(3) 0.1074(5) 0.2240(2)
H7 H -0.2000 0.1893 0.2555
C8 C 0.0260(2) 0.2429(4) 0.19713(17)
H8 H 0.0421 0.3054 0.2414
H9 H -0.0421 0.2646 0.1756
C9 C 0.0988(2) 0.2684(4) 0.14149(16)
C10 C 0.1212(2) 0.4026(4) 0.11767(17)
C11 C 0.1908(2) 0.4440(4) 0.06462(18)
C12 C 0.1563(3) 0.4769(5) -0.00800(19)
H10 H 0.0876 0.4774 -0.0230
C13 C 0.2209(3) 0.5087(5) -0.0580(2)
H11 H 0.1966 0.5290 -0.1076
C14 C 0.3209(3) 0.5112(5) -0.0366(2)
H12 H 0.3652 0.5342 -0.0712
C15 C 0.3558(3) 0.4803(5) 0.0350(2)
H13 H 0.4245 0.4810 0.0498
C16 C 0.2912(3) 0.4481(4) 0.0858(2)
H14 H 0.3159 0.4288 0.1354
C17 C 0.1404(2) 0.1168(4) 0.12182(16)
C18 C 0.2417(2) 0.0966(4) 0.16849(18)
H15 H 0.2906 0.1586 0.1466
H16 H 0.2365 0.1358 0.2183
C19 C 0.2798(3) -0.0594(5) 0.1755(3)
H17 H 0.2920 -0.0984 0.2238
C20 C 0.2977(3) -0.1453(6) 0.1236(3)
H18 H 0.3258 -0.2399 0.1367
C21 C 0.2792(4) -0.1119(6) 0.0475(3)
H19 H 0.2968 -0.2009 0.0198
H20 H 0.3241 -0.0303 0.0366
C22 C 0.1735(3) -0.0653(4) 0.0178(2)
H21 H 0.1657 -0.0737 -0.0363
H22 H 0.1267 -0.1358 0.0367
C23 C 0.1469(3) 0.0944(4) 0.03897(17)
H23 H 0.0829 0.1213 0.0116
H24 H 0.1968 0.1638 0.0234
C24 C 0.0649(2) 0.0098(4) 0.14820(17)
H25 H 0.0070 -0.0012 0.1111
H26 H 0.0939 -0.0899 0.1597
N1 N 0.0389(2) 0.0841(3) 0.21427(15)
O1 O 0.00060(17) -0.1489(3) 0.27585(14)
O2 O -0.04032(18) 0.0970(3) 0.32690(13)
S1 S -0.03446(6) 0.00142(11) 0.26531(5)
Br1 Br 0.05981(3) 0.57455(4) 0.15706(2)
loop_
_geom_bond_atom_site_label_1
_geom_bond_atom_site_label_2
_geom_bond_site_symmetry_1
_geom_bond_site_symmetry_2
C1 C2 1_555 1_555
C2 H1 1_555 1_555
C3 C2 1_555 1_555
H2 C3 1_555 1_555
C4 C3 1_555 1_555
C5 C4 1_555 1_555
H3 C5 1_555 1_555
H4 C5 1_555 1_555
H5 C5 1_555 1_555
C6 C4 1_555 1_555
H6 C6 1_555 1_555
C7 C1 1_555 1_555
H7 C7 1_555 1_555
C8 H8 1_555 1_555
H9 C8 1_555 1_555
C9 C8 1_555 1_555
C10 C9 1_555 1_555
C11 C10 1_555 1_555
C12 C11 1_555 1_555
H10 C12 1_555 1_555
C13 C12 1_555 1_555
H11 C13 1_555 1_555
C14 C13 1_555 1_555
H12 C14 1_555 1_555
C15 C14 1_555 1_555
H13 C15 1_555 1_555
C16 C11 1_555 1_555
H14 C16 1_555 1_555
C17 C9 1_555 1_555
C18 C17 1_555 1_555
H15 C18 1_555 1_555
H16 C18 1_555 1_555
C19 C18 1_555 1_555
H17 C19 1_555 1_555
C20 C19 1_555 1_555
H18 C20 1_555 1_555
C21 C20 1_555 1_555
H19 C21 1_555 1_555
H20 C21 1_555 1_555
C22 C21 1_555 1_555
H21 C22 1_555 1_555
H22 C22 1_555 1_555
C23 C17 1_555 1_555
H23 C23 1_555 1_555
H24 C23 1_555 1_555
C24 C17 1_555 1_555
H25 C24 1_555 1_555
H26 C24 1_555 1_555
N1 C8 1_555 1_555
O1 S1 1_555 1_555
O2 S1 1_555 1_555
S1 C1 1_555 1_555
Br1 C10 1_555 1_555
C6 C7 1_555 1_555
C15 C16 1_555 1_555
C22 C23 1_555 1_555
C24 N1 1_555 1_555
N1 S1 1_555 1_555

#END
