
#######################################################################
#
#                 Cambridge Crystallographic Data Centre
#                                CCDC 
#
#######################################################################
#
# If this CIF has been generated from an entry in the Cambridge 
# Structural Database, then it will include bibliographic, chemical, 
# crystal, experimental, refinement or atomic coordinate data resulting 
# from the CCDC's data processing and validation procedures.
#
#######################################################################

data_TIHMED
_chemical_formula_moiety         'C19 H28 O1'
_chemical_name_systematic        5\a-Androst-2-en-17-one
_symmetry_cell_setting           orthorhombic
_symmetry_space_group_name_H-M   'P 21 21 21'
_symmetry_Int_Tables_number      19
_space_group_name_Hall           'P 2ac 2ab'
loop_
_symmetry_equiv_pos_site_id
_symmetry_equiv_pos_as_xyz
1 x,y,z
2 1/2-x,-y,1/2+z
3 -x,1/2+y,1/2-z
4 1/2+x,1/2-y,-z
_cell_length_a                   6.4725(17)
_cell_length_b                   9.003(2)
_cell_length_c                   27.190(7)
_cell_angle_alpha                90
_cell_angle_beta                 90
_cell_angle_gamma                90
_cell_volume                     1584.41
_exptl_crystal_colour            colorless
_exptl_crystal_description       block
_cell_formula_units_Z            4
_exptl_crystal_recrystallization_method hexane/ethanol
loop_
_atom_site_label
_atom_site_type_symbol
_atom_site_fract_x
_atom_site_fract_y
_atom_site_fract_z
O1 O 0.3020(3) 0.3005(3) -0.01939(8)
C1 C 0.8111(6) 0.8641(4) 0.22591(13)
H1 H 0.6947 0.8777 0.2479
H2 H 0.9281 0.8329 0.2457
C2 C 0.8603(6) 1.0073(5) 0.2034(2)
H3 H 0.9097 1.0830 0.2235
C3 C 0.8382(6) 1.0346(4) 0.15602(19)
H4 H 0.8738 1.1278 0.1439
C4 C 0.7583(5) 0.9208(4) 0.12144(13)
H5 H 0.8741 0.8755 0.1045
H6 H 0.6731 0.9695 0.0969
C5 C 0.6312(4) 0.7985(3) 0.14607(10)
C6 C 0.4268(5) 0.8654(4) 0.16355(11)
H7 H 0.4542 0.9454 0.1860
H8 H 0.3468 0.7904 0.1799
H9 H 0.3512 0.9025 0.1358
C7 C 0.7587(5) 0.7401(3) 0.18982(11)
H10 H 0.8906 0.7062 0.1761
C8 C 0.6623(6) 0.6060(4) 0.21451(10)
H11 H 0.5322 0.6347 0.2295
H12 H 0.7532 0.5708 0.2404
C9 C 0.6243(5) 0.4813(3) 0.17781(10)
H13 H 0.5555 0.3996 0.1943
H14 H 0.7558 0.4453 0.1655
C10 C 0.4920(4) 0.5335(3) 0.13471(8)
H15 H 0.3568 0.5639 0.1474
C11 C 0.5946(4) 0.6690(3) 0.11010(9)
H16 H 0.7325 0.6354 0.1002
C12 C 0.4858(5) 0.7149(3) 0.06213(10)
H17 H 0.3522 0.7574 0.0701
H18 H 0.5671 0.7912 0.0460
C13 C 0.4550(5) 0.5864(4) 0.02671(9)
H19 H 0.3785 0.6201 -0.0019
H20 H 0.5882 0.5499 0.0157
C14 C 0.3375(4) 0.4628(3) 0.05196(9)
C15 C 0.1143(4) 0.5095(4) 0.06359(11)
H21 H 0.0468 0.5403 0.0338
H22 H 0.1156 0.5904 0.0866
H23 H 0.0411 0.4270 0.0776
C16 C 0.4598(4) 0.4119(3) 0.09699(9)
H24 H 0.5976 0.3852 0.0850
C17 C 0.3560(5) 0.2663(3) 0.11169(11)
H25 H 0.2301 0.2842 0.1301
H26 H 0.4480 0.2050 0.1312
C18 C 0.3094(6) 0.1936(4) 0.06180(12)
H27 H 0.4127 0.1190 0.0541
H28 H 0.1746 0.1465 0.0623
C19 C 0.3143(4) 0.3164(4) 0.02465(11)
loop_
_geom_bond_atom_site_label_1
_geom_bond_atom_site_label_2
_geom_bond_site_symmetry_1
_geom_bond_site_symmetry_2
O1 C19 1_555 1_555
C1 H1 1_555 1_555
H2 C1 1_555 1_555
C2 C1 1_555 1_555
H3 C2 1_555 1_555
C3 C2 1_555 1_555
H4 C3 1_555 1_555
C4 C3 1_555 1_555
H5 C4 1_555 1_555
H6 C4 1_555 1_555
C5 C4 1_555 1_555
C6 C5 1_555 1_555
H7 C6 1_555 1_555
H8 C6 1_555 1_555
H9 C6 1_555 1_555
C7 C1 1_555 1_555
H10 C7 1_555 1_555
C8 C7 1_555 1_555
H11 C8 1_555 1_555
H12 C8 1_555 1_555
C9 C8 1_555 1_555
H13 C9 1_555 1_555
H14 C9 1_555 1_555
C10 C9 1_555 1_555
H15 C10 1_555 1_555
C11 C5 1_555 1_555
H16 C11 1_555 1_555
C12 C11 1_555 1_555
H17 C12 1_555 1_555
H18 C12 1_555 1_555
C13 C12 1_555 1_555
H19 C13 1_555 1_555
H20 C13 1_555 1_555
C14 C13 1_555 1_555
C15 C14 1_555 1_555
H21 C15 1_555 1_555
H22 C15 1_555 1_555
H23 C15 1_555 1_555
C16 C10 1_555 1_555
H24 C16 1_555 1_555
C17 C16 1_555 1_555
H25 C17 1_555 1_555
H26 C17 1_555 1_555
C18 C17 1_555 1_555
H27 C18 1_555 1_555
H28 C18 1_555 1_555
C19 C14 1_555 1_555
C5 C7 1_555 1_555
C10 C11 1_555 1_555
C14 C16 1_555 1_555
C18 C19 1_555 1_555

#END
