
#######################################################################
#
#                 Cambridge Crystallographic Data Centre
#                                CCDC 
#
#######################################################################
#
# If this CIF has been generated from an entry in the Cambridge 
# Structural Database, then it will include bibliographic, chemical, 
# crystal, experimental, refinement or atomic coordinate data resulting 
# from the CCDC's data processing and validation procedures.
#
#######################################################################

data_TIHNOO
_chemical_formula_moiety         'C8 H14 O5'
_chemical_name_systematic        2,2-Di-C-methoxy-1,4:3,6-dianhydromannitol
_symmetry_cell_setting           monoclinic
_symmetry_space_group_name_H-M   'P 21'
_symmetry_Int_Tables_number      4
_space_group_name_Hall           'P 2yb'
loop_
_symmetry_equiv_pos_site_id
_symmetry_equiv_pos_as_xyz
1 x,y,z
2 -x,1/2+y,-z
_cell_length_a                   6.4996(13)
_cell_length_b                   6.3375(13)
_cell_length_c                   10.983(2)
_cell_angle_alpha                90
_cell_angle_beta                 93.07(3)
_cell_angle_gamma                90
_cell_volume                     451.754
_exptl_crystal_colour            colorless
_exptl_crystal_description       prism
_cell_formula_units_Z            2
_exptl_crystal_recrystallization_method methanol
loop_
_atom_site_label
_atom_site_type_symbol
_atom_site_fract_x
_atom_site_fract_y
_atom_site_fract_z
O1 O 0.0086(5) 0.4646(6) 0.1232(3)
O2 O 0.1615(4) 0.4646(6) 0.4086(2)
O3 O -0.2707(5) 0.2344(7) 0.2434(4)
O4 O 0.4505(4) 0.6120(5) 0.1554(2)
O5 O 0.3034(4) 0.8296(5) 0.2983(3)
C1 C 0.0757(7) 0.6726(7) 0.1524(4)
H1 H -0.0253 0.7449 0.1992
H2 H 0.0954 0.7526 0.0786
C2 C 0.2786(6) 0.6500(6) 0.2271(3)
C3 C 0.2496(6) 0.4386(7) 0.2940(4)
H3 H 0.3798 0.3607 0.3029
C4 C 0.0928(6) 0.3198(7) 0.2124(3)
H4 H 0.1568 0.1992 0.1733
C5 C -0.0701(6) 0.2466(7) 0.2976(4)
H5 H -0.0308 0.1077 0.3304
C6 C -0.0468(6) 0.4083(9) 0.3988(4)
H6 H -0.1315 0.5311 0.3794
H7 H -0.0887 0.3488 0.4750
C7 C 0.5017(8) 0.7814(8) 0.0763(4)
H8 H 0.6192 0.7426 0.0319
H9 H 0.5333 0.9054 0.1239
H10 H 0.3868 0.8098 0.0201
C8 C 0.4823(6) 0.8327(9) 0.3786(4)
H11 H 0.4872 0.9629 0.4233
H12 H 0.6028 0.8208 0.3322
H13 H 0.4777 0.7166 0.4344
H14 H -0.298(15) 0.36(2) 0.204(8)
loop_
_geom_bond_atom_site_label_1
_geom_bond_atom_site_label_2
_geom_bond_site_symmetry_1
_geom_bond_site_symmetry_2
O1 C1 1_555 1_555
O2 C3 1_555 1_555
O3 C5 1_555 1_555
O4 C2 1_555 1_555
O5 C2 1_555 1_555
C1 H1 1_555 1_555
H2 C1 1_555 1_555
C2 C1 1_555 1_555
C3 C2 1_555 1_555
H3 C3 1_555 1_555
C4 O1 1_555 1_555
H4 C4 1_555 1_555
C5 C4 1_555 1_555
H5 C5 1_555 1_555
C6 O2 1_555 1_555
H6 C6 1_555 1_555
H7 C6 1_555 1_555
C7 O4 1_555 1_555
H8 C7 1_555 1_555
H9 C7 1_555 1_555
H10 C7 1_555 1_555
C8 O5 1_555 1_555
H11 C8 1_555 1_555
H12 C8 1_555 1_555
H13 C8 1_555 1_555
H14 O3 1_555 1_555
C3 C4 1_555 1_555
C5 C6 1_555 1_555

#END
