
#######################################################################
#
#                 Cambridge Crystallographic Data Centre
#                                CCDC 
#
#######################################################################
#
# If this CIF has been generated from an entry in the Cambridge 
# Structural Database, then it will include bibliographic, chemical, 
# crystal, experimental, refinement or atomic coordinate data resulting 
# from the CCDC's data processing and validation procedures.
#
#######################################################################

data_TIHNED
_chemical_formula_moiety         'C70 H82 N4 Si2'
_chemical_name_systematic        
1,12-bis(4-(N,N-Dimethylamino)phenyl)-3,10-bis(2-(4-(N,N-dimethylamino)phenyl)ethynyl)-4,9-bis(2-(tri-isopropylsilyl)ethynyl)dodeca-3,9-diene-1,5,7,11-tetrayne
_symmetry_cell_setting           orthorhombic
_symmetry_space_group_name_H-M   'P b c a'
_symmetry_Int_Tables_number      61
_space_group_name_Hall           '-P 2ac 2ab'
loop_
_symmetry_equiv_pos_site_id
_symmetry_equiv_pos_as_xyz
1 x,y,z
2 1/2+x,y,1/2-z
3 x,1/2-y,1/2+z
4 1/2-x,1/2+y,z
5 -x,-y,-z
6 1/2-x,-y,1/2+z
7 -x,1/2+y,1/2-z
8 1/2+x,1/2-y,-z
_cell_length_a                   15.947(11)
_cell_length_b                   16.133(10)
_cell_length_c                   24.494(15)
_cell_angle_alpha                90
_cell_angle_beta                 90
_cell_angle_gamma                90
_cell_volume                     6301.64
_exptl_crystal_colour            colorless
_exptl_crystal_description       prism
_chemical_melting_point          204-205deg.C
_cell_formula_units_Z            4
_exptl_crystal_recrystallization_method dichloromethane/acetonitrile
loop_
_atom_site_label
_atom_site_type_symbol
_atom_site_fract_x
_atom_site_fract_y
_atom_site_fract_z
Si1 Si -0.12994(7) -0.16806(8) -0.23455(4)
N1 N 0.1926(3) 0.0590(3) -0.48798(13)
N2 N 0.4976(3) 0.2559(3) -0.0022(2)
C1 C 0.2752(3) 0.0764(4) -0.5072(2)
H1 H 0.3100(7) 0.0284(9) -0.5022(15)
H2 H 0.2982(10) 0.1221(16) -0.4870(12)
H3 H 0.2730(5) 0.0904(25) -0.5453(4)
C2 C 0.1243(3) 0.0535(4) -0.5267(2)
H4 H 0.1017(16) 0.0080(10) -0.5241(12)
H5 H 0.0859(14) 0.0990(14) -0.5227(11)
H6 H 0.1530(4) 0.0578(26) -0.5610(2)
C3 C 0.5695(3) 0.2820(4) -0.0336(2)
H7 H 0.5928(15) 0.2352(6) -0.0524(13)
H8 H 0.6110(11) 0.3050(23) -0.0095(3)
H9 H 0.5526(6) 0.3232(18) -0.0596(11)
C4 C 0.5022(3) 0.2667(4) 0.0565(2)
H10 H 0.4978(24) 0.2137(4) 0.0741(2)
H11 H 0.4570(15) 0.3016(20) 0.0684(3)
H12 H 0.5547(11) 0.2920(22) 0.0660(3)
C5 C 0.0074(3) -0.0005(3) -0.0278(2)
C6 C 0.0215(2) -0.0016(3) -0.0757(2)
C7 C 0.0356(2) -0.0064(3) -0.13276(14)
C8 C 0.1013(3) 0.0327(2) -0.15681(14)
C9 C 0.1137(2) 0.0286(3) -0.2147(2)
C10 C 0.1277(2) 0.0285(3) -0.2628(2)
C11 C 0.1442(3) 0.0322(2) -0.32059(15)
C12 C 0.2258(3) 0.0373(3) -0.3401(2)
H13 H 0.2712(3) 0.0331(3) -0.3146(2)
C13 C 0.2420(3) 0.0456(3) -0.3952(2)
H14 H 0.2985(3) 0.0513(3) -0.4082(2)
C14 C 0.1761(3) 0.0486(3) -0.4331(2)
C15 C 0.0954(3) 0.0413(3) -0.4132(2)
H15 H 0.0493(3) 0.0409(3) -0.4384(2)
C16 C 0.0795(3) 0.0334(3) -0.3579(2)
H16 H 0.0228(3) 0.0287(3) -0.3452(2)
C17 C 0.1620(3) 0.0774(3) -0.1268(2)
C18 C 0.2180(3) 0.1123(3) -0.1029(2)
C19 C 0.2875(3) 0.1508(3) -0.0770(2)
C20 C 0.2939(3) 0.1557(3) -0.0205(2)
H17 H 0.2481(3) 0.1355(3) 0.0012(2)
C21 C 0.3630(3) 0.1902(3) 0.0038(2)
H18 H 0.3662(3) 0.1915(3) 0.0430(2)
C22 C 0.4292(3) 0.2219(3) -0.0264(2)
C23 C 0.4221(3) 0.2168(3) -0.0833(2)
H19 H 0.4666(3) 0.2379(3) -0.1057(2)
C24 C 0.3535(3) 0.1822(3) -0.1070(2)
H20 H 0.3495(3) 0.1785(3) -0.1461(2)
C25 C -0.0215(3) -0.0568(3) -0.16354(15)
C26 C -0.0678(3) -0.1013(3) -0.1896(2)
C27 C -0.1989(3) -0.2346(3) -0.1913(2)
H21 H -0.1637(3) -0.2763(3) -0.1752(2)
C28 C -0.2649(3) -0.2806(3) -0.2257(2)
H22 H -0.2951(15) -0.3187(16) -0.2029(4)
H23 H -0.2375(4) -0.3105(17) -0.2545(9)
H24 H -0.3033(13) -0.2413(4) -0.2411(12)
C29 C -0.2413(4) -0.1893(3) -0.1448(2)
H25 H -0.2705(19) -0.2285(4) -0.1222(9)
H26 H -0.2805(17) -0.1499(16) -0.1593(2)
H27 H -0.1999(4) -0.1609(19) -0.1234(9)
C30 C -0.0514(3) -0.2321(3) -0.2723(2)
H28 H -0.0814(3) -0.2687(3) -0.2962(2)
C31 C 0.0015(3) -0.2857(3) -0.2342(2)
H29 H 0.0373(15) -0.3210(15) -0.2555(2)
H30 H -0.0347(3) -0.3191(15) -0.2119(10)
H31 H 0.0352(16) -0.2508(3) -0.2113(9)
C32 C 0.0067(3) -0.1793(3) -0.3075(2)
H32 H 0.0465(14) -0.2144(4) -0.3257(11)
H33 H 0.0359(16) -0.1403(15) -0.2848(3)
H34 H -0.0258(4) -0.1499(17) -0.3342(9)
C33 C -0.1928(2) -0.0984(3) -0.2801(2)
H35 H -0.2414(2) -0.0831(3) -0.2592(2)
C34 C -0.2262(3) -0.1424(3) -0.3320(2)
H36 H -0.2599(18) -0.1045(7) -0.3527(8)
H37 H -0.2595(18) -0.1894(13) -0.3216(2)
H38 H -0.1797(3) -0.1606(19) -0.3539(7)
C35 C -0.1501(3) -0.0177(3) -0.2955(2)
H39 H -0.1897(6) 0.0181(8) -0.3133(11)
H40 H -0.1043(12) -0.0290(4) -0.3199(10)
H41 H -0.1292(17) 0.0089(10) -0.2632(2)
C5D C -0.0074(3) 0.0005(3) 0.0278(2)
C6D C -0.0215(2) 0.0016(3) 0.0757(2)
C7D C -0.0356(2) 0.0064(3) 0.13276(14)
C8D C -0.1013(3) -0.0327(2) 0.15681(14)
C9D C -0.1137(2) -0.0286(3) 0.2147(2)
C10D C -0.1277(2) -0.0285(3) 0.2628(2)
C11D C -0.1442(3) -0.0322(2) 0.32059(15)
C12D C -0.2258(3) -0.0373(3) 0.3401(2)
H13D H -0.2712(3) -0.0331(3) 0.3146(2)
C13D C -0.2420(3) -0.0456(3) 0.3952(2)
H14D H -0.2985(3) -0.0513(3) 0.4082(2)
C14D C -0.1761(3) -0.0486(3) 0.4331(2)
N1D N -0.1926(3) -0.0590(3) 0.48798(13)
C1D C -0.2752(3) -0.0764(4) 0.5072(2)
H1D H -0.3100(7) -0.0284(9) 0.5022(15)
H2D H -0.2982(10) -0.1221(16) 0.4870(12)
H3D H -0.2730(5) -0.0904(25) 0.5453(4)
C2D C -0.1243(3) -0.0535(4) 0.5267(2)
H4D H -0.1017(16) -0.0080(10) 0.5241(12)
H5D H -0.0859(14) -0.0990(14) 0.5227(11)
H6D H -0.1530(4) -0.0578(26) 0.5610(2)
C15D C -0.0954(3) -0.0413(3) 0.4132(2)
H15D H -0.0493(3) -0.0409(3) 0.4384(2)
C16D C -0.0795(3) -0.0334(3) 0.3579(2)
H16D H -0.0228(3) -0.0287(3) 0.3452(2)
C17D C -0.1620(3) -0.0774(3) 0.1268(2)
C18D C -0.2180(3) -0.1123(3) 0.1029(2)
C19D C -0.2875(3) -0.1508(3) 0.0770(2)
C20D C -0.2939(3) -0.1557(3) 0.0205(2)
H17D H -0.2481(3) -0.1355(3) -0.0012(2)
C21D C -0.3630(3) -0.1902(3) -0.0038(2)
H18D H -0.3662(3) -0.1915(3) -0.0430(2)
C22D C -0.4292(3) -0.2219(3) 0.0264(2)
N2D N -0.4976(3) -0.2559(3) 0.0022(2)
C3D C -0.5695(3) -0.2820(4) 0.0336(2)
H7D H -0.5928(15) -0.2352(6) 0.0524(13)
H8D H -0.6110(11) -0.3050(23) 0.0095(3)
H9D H -0.5526(6) -0.3232(18) 0.0596(11)
C4D C -0.5022(3) -0.2667(4) -0.0565(2)
H10D H -0.4978(24) -0.2137(4) -0.0741(2)
H11D H -0.4570(15) -0.3016(20) -0.0684(3)
H12D H -0.5547(11) -0.2920(22) -0.0660(3)
C23D C -0.4221(3) -0.2168(3) 0.0833(2)
H19D H -0.4666(3) -0.2379(3) 0.1057(2)
C24D C -0.3535(3) -0.1822(3) 0.1070(2)
H20D H -0.3495(3) -0.1785(3) 0.1461(2)
C25D C 0.0215(3) 0.0568(3) 0.16354(15)
C26D C 0.0678(3) 0.1013(3) 0.1896(2)
Si1D Si 0.12994(7) 0.16806(8) 0.23455(4)
C27D C 0.1989(3) 0.2346(3) 0.1913(2)
H21D H 0.1637(3) 0.2763(3) 0.1752(2)
C28D C 0.2649(3) 0.2806(3) 0.2257(2)
H22D H 0.2951(15) 0.3187(16) 0.2029(4)
H23D H 0.2375(4) 0.3105(17) 0.2545(9)
H24D H 0.3033(13) 0.2413(4) 0.2411(12)
C29D C 0.2413(4) 0.1893(3) 0.1448(2)
H25D H 0.2705(19) 0.2285(4) 0.1222(9)
H26D H 0.2805(17) 0.1499(16) 0.1593(2)
H27D H 0.1999(4) 0.1609(19) 0.1234(9)
C30D C 0.0514(3) 0.2321(3) 0.2723(2)
H28D H 0.0814(3) 0.2687(3) 0.2962(2)
C31D C -0.0015(3) 0.2857(3) 0.2342(2)
H29D H -0.0373(15) 0.3210(15) 0.2555(2)
H30D H 0.0347(3) 0.3191(15) 0.2119(10)
H31D H -0.0352(16) 0.2508(3) 0.2113(9)
C32D C -0.0067(3) 0.1793(3) 0.3075(2)
H32D H -0.0465(14) 0.2144(4) 0.3257(11)
H33D H -0.0359(16) 0.1403(15) 0.2848(3)
H34D H 0.0258(4) 0.1499(17) 0.3342(9)
C33D C 0.1928(2) 0.0984(3) 0.2801(2)
H35D H 0.2414(2) 0.0831(3) 0.2592(2)
C34D C 0.2262(3) 0.1424(3) 0.3320(2)
H36D H 0.2599(18) 0.1045(7) 0.3527(8)
H37D H 0.2595(18) 0.1894(13) 0.3216(2)
H38D H 0.1797(3) 0.1606(19) 0.3539(7)
C35D C 0.1501(3) 0.0177(3) 0.2955(2)
H39D H 0.1897(6) -0.0181(8) 0.3133(11)
H40D H 0.1043(12) 0.0290(4) 0.3199(10)
H41D H 0.1292(17) -0.0089(10) 0.2632(2)
loop_
_geom_bond_atom_site_label_1
_geom_bond_atom_site_label_2
_geom_bond_site_symmetry_1
_geom_bond_site_symmetry_2
Si1 C26 1_555 1_555
N1 C1 1_555 1_555
N2 C3 1_555 1_555
C1 H1 1_555 1_555
H2 C1 1_555 1_555
H3 C1 1_555 1_555
C2 N1 1_555 1_555
H4 C2 1_555 1_555
H5 C2 1_555 1_555
H6 C2 1_555 1_555
C3 H7 1_555 1_555
H8 C3 1_555 1_555
H9 C3 1_555 1_555
C4 N2 1_555 1_555
H10 C4 1_555 1_555
H11 C4 1_555 1_555
H12 C4 1_555 1_555
C5 C6 1_555 1_555
C6 C7 1_555 1_555
C7 C8 1_555 1_555
C8 C9 1_555 1_555
C9 C10 1_555 1_555
C10 C11 1_555 1_555
C11 C12 1_555 1_555
C12 H13 1_555 1_555
C13 C12 1_555 1_555
H14 C13 1_555 1_555
C14 N1 1_555 1_555
C15 C14 1_555 1_555
H15 C15 1_555 1_555
C16 C11 1_555 1_555
H16 C16 1_555 1_555
C17 C8 1_555 1_555
C18 C17 1_555 1_555
C19 C18 1_555 1_555
C20 C19 1_555 1_555
H17 C20 1_555 1_555
C21 C20 1_555 1_555
H18 C21 1_555 1_555
C22 N2 1_555 1_555
C23 C22 1_555 1_555
H19 C23 1_555 1_555
C24 C19 1_555 1_555
H20 C24 1_555 1_555
C25 C7 1_555 1_555
C26 C25 1_555 1_555
C27 Si1 1_555 1_555
H21 C27 1_555 1_555
C28 C27 1_555 1_555
H22 C28 1_555 1_555
H23 C28 1_555 1_555
H24 C28 1_555 1_555
C29 C27 1_555 1_555
H25 C29 1_555 1_555
H26 C29 1_555 1_555
H27 C29 1_555 1_555
C30 Si1 1_555 1_555
H28 C30 1_555 1_555
C31 C30 1_555 1_555
H29 C31 1_555 1_555
H30 C31 1_555 1_555
H31 C31 1_555 1_555
C32 C30 1_555 1_555
H32 C32 1_555 1_555
H33 C32 1_555 1_555
H34 C32 1_555 1_555
C33 Si1 1_555 1_555
H35 C33 1_555 1_555
C34 C33 1_555 1_555
H36 C34 1_555 1_555
H37 C34 1_555 1_555
H38 C34 1_555 1_555
C35 C33 1_555 1_555
H39 C35 1_555 1_555
H40 C35 1_555 1_555
H41 C35 1_555 1_555
C5D C5 1_555 1_555
C6D C5D 1_555 1_555
C7D C6D 1_555 1_555
C8D C7D 1_555 1_555
C9D C8D 1_555 1_555
C10D C9D 1_555 1_555
C11D C10D 1_555 1_555
C12D C11D 1_555 1_555
H13D C12D 1_555 1_555
C13D C12D 1_555 1_555
H14D C13D 1_555 1_555
C14D C13D 1_555 1_555
N1D C14D 1_555 1_555
C1D N1D 1_555 1_555
H1D C1D 1_555 1_555
H2D C1D 1_555 1_555
H3D C1D 1_555 1_555
C2D N1D 1_555 1_555
H4D C2D 1_555 1_555
H5D C2D 1_555 1_555
H6D C2D 1_555 1_555
C15D C14D 1_555 1_555
H15D C15D 1_555 1_555
C16D C11D 1_555 1_555
H16D C16D 1_555 1_555
C17D C8D 1_555 1_555
C18D C17D 1_555 1_555
C19D C18D 1_555 1_555
C20D C19D 1_555 1_555
H17D C20D 1_555 1_555
C21D C20D 1_555 1_555
H18D C21D 1_555 1_555
C22D C21D 1_555 1_555
N2D C22D 1_555 1_555
C3D N2D 1_555 1_555
H7D C3D 1_555 1_555
H8D C3D 1_555 1_555
H9D C3D 1_555 1_555
C4D N2D 1_555 1_555
H10D C4D 1_555 1_555
H11D C4D 1_555 1_555
H12D C4D 1_555 1_555
C23D C22D 1_555 1_555
H19D C23D 1_555 1_555
C24D C19D 1_555 1_555
H20D C24D 1_555 1_555
C25D C7D 1_555 1_555
C26D C25D 1_555 1_555
Si1D C26D 1_555 1_555
C27D Si1D 1_555 1_555
H21D C27D 1_555 1_555
C28D C27D 1_555 1_555
H22D C28D 1_555 1_555
H23D C28D 1_555 1_555
H24D C28D 1_555 1_555
C29D C27D 1_555 1_555
H25D C29D 1_555 1_555
H26D C29D 1_555 1_555
H27D C29D 1_555 1_555
C30D Si1D 1_555 1_555
H28D C30D 1_555 1_555
C31D C30D 1_555 1_555
H29D C31D 1_555 1_555
H30D C31D 1_555 1_555
H31D C31D 1_555 1_555
C32D C30D 1_555 1_555
H32D C32D 1_555 1_555
H33D C32D 1_555 1_555
H34D C32D 1_555 1_555
C33D Si1D 1_555 1_555
H35D C33D 1_555 1_555
C34D C33D 1_555 1_555
H36D C34D 1_555 1_555
H37D C34D 1_555 1_555
H38D C34D 1_555 1_555
C35D C33D 1_555 1_555
H39D C35D 1_555 1_555
H40D C35D 1_555 1_555
H41D C35D 1_555 1_555
C13 C14 1_555 1_555
C15 C16 1_555 1_555
C21 C22 1_555 1_555
C23 C24 1_555 1_555
C15D C16D 1_555 1_555
C23D C24D 1_555 1_555

#END
