
#######################################################################
#
#                 Cambridge Crystallographic Data Centre
#                                CCDC 
#
#######################################################################
#
# If this CIF has been generated from an entry in the Cambridge 
# Structural Database, then it will include bibliographic, chemical, 
# crystal, experimental, refinement or atomic coordinate data resulting 
# from the CCDC's data processing and validation procedures.
#
#######################################################################

data_TIHPIL
_chemical_formula_moiety         'C21 H22 O6'
_chemical_name_systematic        
11-hydroxy-6,7,10-trimethoxy-3a,4,13,13a-tetrahydrodibenzo[4,5:6,7]cycloocta[1,2-c]furan-1(3H)-one
_symmetry_cell_setting           triclinic
_symmetry_space_group_name_H-M   'P -1'
_symmetry_Int_Tables_number      2
_space_group_name_Hall           '-P 1'
loop_
_symmetry_equiv_pos_site_id
_symmetry_equiv_pos_as_xyz
1 x,y,z
2 -x,-y,-z
_cell_length_a                   8.270(5)
_cell_length_b                   8.870(4)
_cell_length_c                   13.050(9)
_cell_angle_alpha                81.84(3)
_cell_angle_beta                 84.41(3)
_cell_angle_gamma                78.71(1)
_cell_volume                     926.859
_cell_formula_units_Z            2
loop_
_atom_site_label
_atom_site_type_symbol
_atom_site_fract_x
_atom_site_fract_y
_atom_site_fract_z
O1 O 0.0696(3) 0.6730(3) 0.36517(18)
H1 H 0.0615 0.7628 0.3374
O2 O -0.1086(3) 0.8255(2) 0.20975(18)
O3 O -0.4528(3) 0.2493(3) -0.04282(15)
O4 O -0.1863(3) 0.0407(3) 0.60982(18)
O5 O -0.7222(3) 0.1986(3) 0.06317(17)
O6 O -0.4600(3) 0.1179(2) 0.61944(15)
C1 C -0.0370(3) 0.6013(3) 0.3240(2)
C2 C -0.0538(3) 0.4531(3) 0.3668(2)
C3 C -0.1651(3) 0.3751(3) 0.33098(19)
C4 C -0.2607(3) 0.4509(3) 0.24910(19)
C5 C -0.2405(4) 0.6015(3) 0.2052(2)
C6 C -0.1318(4) 0.6765(3) 0.2430(2)
C7 C -0.2406(6) 0.9291(4) 0.1621(3)
C8 C -0.1836(4) 0.2179(3) 0.3890(2)
C9 C -0.3208(4) 0.2371(3) 0.4764(2)
C10 C -0.4955(4) 0.2391(3) 0.4491(2)
C11 C -0.5703(4) 0.3786(3) 0.3744(2)
C12 C -0.5289(3) 0.3500(3) 0.26194(19)
C13 C -0.3850(3) 0.3798(3) 0.20590(19)
C14 C -0.3067(4) 0.1201(3) 0.5727(2)
C15 C -0.5830(4) 0.2208(4) 0.5566(2)
C16 C -0.6435(4) 0.2882(3) 0.2159(2)
C17 C -0.6152(4) 0.2569(3) 0.1138(2)
C18 C -0.4702(4) 0.2868(3) 0.05610(19)
C19 C -0.3588(4) 0.3489(3) 0.1010(2)
C20 C -0.8753(5) 0.1785(7) 0.1176(3)
H2 H -0.8550 0.1113 0.1813
H3 H -0.9373 0.1332 0.0757
H4 H -0.9371 0.2773 0.1327
C21 C -0.3072(5) 0.2739(5) -0.1045(2)
H5 H -0.3005 0.3818 -0.1120
H6 H -0.3102 0.2428 -0.1717
H7 H -0.2123 0.2138 -0.0716
H8 H 0.012(4) 0.402(3) 0.427(2)
H9 H -0.311(3) 0.656(3) 0.1493(19)
H10 H -0.352(5) 0.937(4) 0.202(3)
H11 H -0.256(5) 0.906(5) 0.096(3)
H12 H -0.209(5) 1.033(5) 0.150(3)
H13 H -0.081(4) 0.172(3) 0.418(2)
H14 H -0.211(4) 0.148(3) 0.342(2)
H15 H -0.316(4) 0.338(3) 0.5008(19)
H16 H -0.493(4) 0.146(3) 0.413(2)
H17 H -0.528(4) 0.476(3) 0.3855(19)
H18 H -0.680(4) 0.394(3) 0.390(2)
H19 H -0.617(4) 0.321(4) 0.589(2)
H20 H -0.682(4) 0.175(4) 0.560(2)
H21 H -0.741(4) 0.260(4) 0.257(2)
H22 H -0.252(4) 0.376(3) 0.063(2)
loop_
_geom_bond_atom_site_label_1
_geom_bond_atom_site_label_2
_geom_bond_site_symmetry_1
_geom_bond_site_symmetry_2
O1 H1 1_555 1_555
O2 C6 1_555 1_555
O3 C18 1_555 1_555
O4 C14 1_555 1_555
O5 C17 1_555 1_555
O6 C14 1_555 1_555
C1 O1 1_555 1_555
C2 C1 1_555 1_555
C3 C2 1_555 1_555
C4 C3 1_555 1_555
C5 C4 1_555 1_555
C6 C1 1_555 1_555
C7 O2 1_555 1_555
C8 C3 1_555 1_555
C9 C8 1_555 1_555
C10 C9 1_555 1_555
C11 C10 1_555 1_555
C12 C11 1_555 1_555
C13 C4 1_555 1_555
C14 C9 1_555 1_555
C15 O6 1_555 1_555
C16 C12 1_555 1_555
C17 C16 1_555 1_555
C18 C17 1_555 1_555
C19 C13 1_555 1_555
C20 O5 1_555 1_555
H2 C20 1_555 1_555
H3 C20 1_555 1_555
H4 C20 1_555 1_555
C21 O3 1_555 1_555
H5 C21 1_555 1_555
H6 C21 1_555 1_555
H7 C21 1_555 1_555
H8 C2 1_555 1_555
H9 C5 1_555 1_555
H10 C7 1_555 1_555
H11 C7 1_555 1_555
H12 C7 1_555 1_555
H13 C8 1_555 1_555
H14 C8 1_555 1_555
H15 C9 1_555 1_555
H16 C10 1_555 1_555
H17 C11 1_555 1_555
H18 C11 1_555 1_555
H19 C15 1_555 1_555
H20 C15 1_555 1_555
H21 C16 1_555 1_555
H22 C19 1_555 1_555
C5 C6 1_555 1_555
C10 C15 1_555 1_555
C12 C13 1_555 1_555
C18 C19 1_555 1_555

#END
