
#######################################################################
#
#                 Cambridge Crystallographic Data Centre
#                                CCDC 
#
#######################################################################
#
# If this CIF has been generated from an entry in the Cambridge 
# Structural Database, then it will include bibliographic, chemical, 
# crystal, experimental, refinement or atomic coordinate data resulting 
# from the CCDC's data processing and validation procedures.
#
#######################################################################

data_TIHPAC
_chemical_formula_moiety         '2(C12 H10 O2),C5 H11 N1'
_chemical_name_systematic        'bis(1-Naphthaleneacetic acid) piperidine'
_symmetry_cell_setting           monoclinic
_symmetry_space_group_name_H-M   'P 21/n'
_symmetry_Int_Tables_number      14
_space_group_name_Hall           '-P 2yn'
loop_
_symmetry_equiv_pos_site_id
_symmetry_equiv_pos_as_xyz
1 x,y,z
2 1/2-x,1/2+y,1/2-z
3 -x,-y,-z
4 1/2+x,1/2-y,1/2+z
_cell_length_a                   9.7415(16)
_cell_length_b                   19.174(3)
_cell_length_c                   13.6232(19)
_cell_angle_alpha                90
_cell_angle_beta                 105.757(11)
_cell_angle_gamma                90
_cell_volume                     2448.97
_exptl_crystal_colour            colorless
_exptl_crystal_description       plate
_chemical_melting_point          '417-419 K'
_cell_formula_units_Z            4
_exptl_crystal_recrystallization_method methanol
loop_
_atom_site_label
_atom_site_type_symbol
_atom_site_fract_x
_atom_site_fract_y
_atom_site_fract_z
O1 O 0.8603(2) 0.55184(12) 0.57310(17)
O2 O 0.6931(2) 0.52314(13) 0.43362(19)
H1 H 0.7446 0.4890 0.4362
C1 C 0.7313(3) 0.68434(17) 0.5729(3)
C2 C 0.7634(5) 0.7012(2) 0.6751(3)
H4 H 0.7263 0.6742 0.7185
C3 C 0.8531(6) 0.7598(3) 0.7158(3)
H5 H 0.8731 0.7714 0.7845
C4 C 0.9082(6) 0.7981(3) 0.6505(5)
H6 H 0.9682 0.8354 0.6763
C5 C 0.9406(5) 0.8249(2) 0.4817(5)
H7 H 1.0026 0.8618 0.5057
C6 C 0.9017(5) 0.8058(3) 0.3821(5)
H8 H 0.9412 0.8306 0.3378
C7 C 0.8084(5) 0.7527(2) 0.3411(4)
H9 H 0.7826 0.7441 0.2712
C8 C 0.7559(4) 0.7137(2) 0.4036(3)
H10 H 0.6958 0.6767 0.3768
C9 C 0.7899(3) 0.72764(17) 0.5117(3)
C10 C 0.8784(4) 0.7834(2) 0.5487(4)
C11 C 0.6487(3) 0.62008(17) 0.5313(3)
H11 H 0.5782 0.6317 0.4682
H12 H 0.5982 0.6040 0.5794
C12 C 0.7427(3) 0.56126(17) 0.5112(3)
O3 O 0.4475(2) 0.44149(12) 0.23853(17)
O4 O 0.4474(2) 0.54627(13) 0.30738(19)
H2 H 0.5274 0.5344 0.3405
C13 C 0.1607(3) 0.46038(16) 0.1131(2)
C14 C 0.0605(3) 0.41947(19) 0.1382(3)
H13 H 0.0440 0.4250 0.2019
C15 C -0.0180(4) 0.36970(19) 0.0714(3)
H14 H -0.0850 0.3427 0.0913
C16 C 0.0026(4) 0.36042(18) -0.0217(3)
H15 H -0.0499 0.3269 -0.0655
C17 C 0.1252(4) 0.3946(2) -0.1509(3)
H16 H 0.0730 0.3615 -0.1957
C18 C 0.2196(5) 0.4348(3) -0.1812(3)
H17 H 0.2317 0.4295 -0.2462
C19 C 0.2995(4) 0.4847(2) -0.1145(3)
H18 H 0.3644 0.5125 -0.1356
C20 C 0.2828(4) 0.49275(19) -0.0192(3)
H19 H 0.3372 0.5258 0.0245
C21 C 0.1844(3) 0.45178(16) 0.0143(2)
C22 C 0.1035(3) 0.40139(17) -0.0530(3)
C23 C 0.2388(3) 0.51424(18) 0.1867(2)
H20 H 0.1846 0.5238 0.2353
H21 H 0.2422 0.5570 0.1494
C24 C 0.3882(3) 0.49526(17) 0.2449(2)
N1 N 0.8800(3) 0.41263(14) 0.4533(2)
H3 H 0.9587 0.4285 0.4381
C25 C 0.9207(4) 0.38701(19) 0.5601(3)
H22 H 0.9607 0.4251 0.6059
H23 H 0.9930 0.3511 0.5679
C26 C 0.7930(4) 0.3579(2) 0.5876(3)
H24 H 0.7247 0.3949 0.5860
H25 H 0.8222 0.3393 0.6564
C27 C 0.7229(4) 0.3007(2) 0.5146(3)
H26 H 0.7870 0.2612 0.5220
H27 H 0.6367 0.2854 0.5308
C28 C 0.6867(4) 0.3268(2) 0.4067(3)
H28 H 0.6139 0.3626 0.3976
H29 H 0.6478 0.2887 0.3606
C29 C 0.8154(4) 0.35637(19) 0.3797(3)
H30 H 0.8849 0.3197 0.3821
H31 H 0.7872 0.3751 0.3110
loop_
_geom_bond_atom_site_label_1
_geom_bond_atom_site_label_2
_geom_bond_site_symmetry_1
_geom_bond_site_symmetry_2
O1 C12 1_555 1_555
O2 H1 1_555 1_555
O3 C24 1_555 1_555
O4 H2 1_555 1_555
N1 H3 1_555 1_555
C1 C2 1_555 1_555
C2 H4 1_555 1_555
C3 C2 1_555 1_555
H5 C3 1_555 1_555
C4 C3 1_555 1_555
H6 C4 1_555 1_555
C5 H7 1_555 1_555
C6 C5 1_555 1_555
H8 C6 1_555 1_555
C7 C6 1_555 1_555
H9 C7 1_555 1_555
C8 C7 1_555 1_555
H10 C8 1_555 1_555
C9 C1 1_555 1_555
C10 C4 1_555 1_555
C11 C1 1_555 1_555
H11 C11 1_555 1_555
H12 C11 1_555 1_555
C12 O2 1_555 1_555
C13 C14 1_555 1_555
C14 H13 1_555 1_555
C15 C14 1_555 1_555
H14 C15 1_555 1_555
C16 C15 1_555 1_555
H15 C16 1_555 1_555
C17 H16 1_555 1_555
C18 C17 1_555 1_555
H17 C18 1_555 1_555
C19 C18 1_555 1_555
H18 C19 1_555 1_555
C20 C19 1_555 1_555
H19 C20 1_555 1_555
C21 C13 1_555 1_555
C22 C16 1_555 1_555
C23 C13 1_555 1_555
H20 C23 1_555 1_555
H21 C23 1_555 1_555
C24 O4 1_555 1_555
C25 N1 1_555 1_555
H22 C25 1_555 1_555
H23 C25 1_555 1_555
C26 C25 1_555 1_555
H24 C26 1_555 1_555
H25 C26 1_555 1_555
C27 C26 1_555 1_555
H26 C27 1_555 1_555
H27 C27 1_555 1_555
C28 C27 1_555 1_555
H28 C28 1_555 1_555
H29 C28 1_555 1_555
C29 N1 1_555 1_555
H30 C29 1_555 1_555
H31 C29 1_555 1_555
C5 C10 1_555 1_555
C8 C9 1_555 1_555
C9 C10 1_555 1_555
C11 C12 1_555 1_555
C17 C22 1_555 1_555
C20 C21 1_555 1_555
C21 C22 1_555 1_555
C23 C24 1_555 1_555
C28 C29 1_555 1_555

#END
