
#######################################################################
#
#                 Cambridge Crystallographic Data Centre
#                                CCDC 
#
#######################################################################
#
# If this CIF has been generated from an entry in the Cambridge 
# Structural Database, then it will include bibliographic, chemical, 
# crystal, experimental, refinement or atomic coordinate data resulting 
# from the CCDC's data processing and validation procedures.
#
#######################################################################

data_TIHQIN
_chemical_formula_moiety         'C24 H18 N2 O2'
_chemical_name_systematic        
'[4-(benzenecarbonyl)-3-phenyl-1H-pyrazol-1-yl](2-methylphenyl)methanone'
_symmetry_cell_setting           triclinic
_symmetry_space_group_name_H-M   'P -1'
_symmetry_Int_Tables_number      2
_space_group_name_Hall           '-P 1'
loop_
_symmetry_equiv_pos_site_id
_symmetry_equiv_pos_as_xyz
1 x,y,z
2 -x,-y,-z
_cell_length_a                   7.668(3)
_cell_length_b                   8.892(3)
_cell_length_c                   14.592(5)
_cell_angle_alpha                84.096(5)
_cell_angle_beta                 89.400(5)
_cell_angle_gamma                72.672(5)
_cell_volume                     944.533
_exptl_crystal_colour            colorless
_exptl_crystal_description       block
_cell_formula_units_Z            2
loop_
_atom_site_label
_atom_site_type_symbol
_atom_site_fract_x
_atom_site_fract_y
_atom_site_fract_z
O1 O 0.6603(3) 0.3445(2) 0.04896(14)
O2 O 0.0714(2) 0.6572(2) 0.33627(16)
N1 N 0.4080(3) 0.3632(2) 0.13332(15)
C1 C 0.2060(3) 0.3652(3) 0.23551(19)
N2 N 0.2785(3) 0.2927(2) 0.16318(16)
C2 C 0.0682(3) 0.3077(3) 0.28759(19)
C3 C 0.4192(4) 0.4743(3) 0.18782(19)
H1 H 0.5003 0.5342 0.1814
C4 C 0.3641(3) 0.6861(3) 0.34650(18)
C5 C 0.2911(3) 0.4825(3) 0.25342(19)
C6 C 0.2297(3) 0.6107(3) 0.31536(19)
C7 C 0.5442(3) 0.5986(3) 0.3672(2)
H2 H 0.5837 0.4913 0.3593
C8 C 0.4255(4) 0.2632(3) -0.02000(19)
C9 C 0.5129(4) 0.3215(3) 0.0533(2)
C10 C 0.5340(4) 0.1535(3) -0.0759(2)
C11 C 0.3088(4) 0.8452(3) 0.3587(2)
H3 H 0.1882 0.9051 0.3459
C12 C 0.6650(4) 0.6697(4) 0.3994(2)
H4 H 0.7853 0.6105 0.4140
C13 C -0.0536(4) 0.2504(3) 0.2427(2)
H5 H -0.0535 0.2532 0.1788
C14 C 0.2408(4) 0.3302(3) -0.0390(2)
H6 H 0.1712 0.4026 -0.0012
C15 C -0.1753(4) 0.1891(3) 0.2930(3)
H7 H -0.2570 0.1513 0.2625
C16 C 0.0625(4) 0.3029(3) 0.3838(2)
H8 H 0.1415 0.3427 0.4149
C17 C 0.4301(4) 0.9156(3) 0.3897(2)
H9 H 0.3920 1.0232 0.3970
C18 C 0.7346(4) 0.0795(4) -0.0622(2)
H10 H 0.7796 0.0090 -0.1085
H11 H 0.7592 0.0211 -0.0022
H12 H 0.7943 0.1607 -0.0670
C19 C 0.2625(6) 0.1823(4) -0.1665(2)
H13 H 0.2083 0.1556 -0.2166
C20 C 0.6070(4) 0.8281(4) 0.4099(2)
H14 H 0.6887 0.8766 0.4310
C21 C 0.4429(5) 0.1130(4) -0.1480(2)
H15 H 0.5085 0.0360 -0.1842
C22 C -0.1770(4) 0.1833(3) 0.3868(3)
H16 H -0.2585 0.1408 0.4201
C23 C -0.0571(4) 0.2409(3) 0.4322(2)
H17 H -0.0581 0.2373 0.4962
C24 C 0.1581(5) 0.2920(4) -0.1123(2)
H18 H 0.0341 0.3391 -0.1251
loop_
_geom_bond_atom_site_label_1
_geom_bond_atom_site_label_2
_geom_bond_site_symmetry_1
_geom_bond_site_symmetry_2
O1 C9 1_555 1_555
O2 C6 1_555 1_555
N1 N2 1_555 1_555
C1 N2 1_555 1_555
C2 C1 1_555 1_555
C3 N1 1_555 1_555
H1 C3 1_555 1_555
C4 C6 1_555 1_555
C5 C1 1_555 1_555
C6 C5 1_555 1_555
C7 C4 1_555 1_555
H2 C7 1_555 1_555
C8 C9 1_555 1_555
C9 N1 1_555 1_555
C10 C8 1_555 1_555
C11 C4 1_555 1_555
H3 C11 1_555 1_555
C12 C7 1_555 1_555
H4 C12 1_555 1_555
C13 C2 1_555 1_555
H5 C13 1_555 1_555
C14 C8 1_555 1_555
H6 C14 1_555 1_555
C15 C13 1_555 1_555
H7 C15 1_555 1_555
C16 C2 1_555 1_555
H8 C16 1_555 1_555
C17 C11 1_555 1_555
H9 C17 1_555 1_555
C18 C10 1_555 1_555
H10 C18 1_555 1_555
H11 C18 1_555 1_555
H12 C18 1_555 1_555
C19 H13 1_555 1_555
C20 C12 1_555 1_555
H14 C20 1_555 1_555
C21 C10 1_555 1_555
H15 C21 1_555 1_555
C22 C15 1_555 1_555
H16 C22 1_555 1_555
C23 C16 1_555 1_555
H17 C23 1_555 1_555
C24 C14 1_555 1_555
H18 C24 1_555 1_555
C3 C5 1_555 1_555
C17 C20 1_555 1_555
C19 C21 1_555 1_555
C19 C24 1_555 1_555
C22 C23 1_555 1_555

#END
