
#######################################################################
#
#                 Cambridge Crystallographic Data Centre
#                                CCDC 
#
#######################################################################
#
# If this CIF has been generated from an entry in the Cambridge 
# Structural Database, then it will include bibliographic, chemical, 
# crystal, experimental, refinement or atomic coordinate data resulting 
# from the CCDC's data processing and validation procedures.
#
#######################################################################

data_TIHQEJ
_chemical_formula_moiety         'C23 H15 F1 N2 O2'
_chemical_name_systematic        
'[4-(benzenecarbonyl)-3-phenyl-1H-pyrazol-1-yl](4-fluorophenyl)methanone'
_symmetry_cell_setting           triclinic
_symmetry_space_group_name_H-M   'P -1'
_symmetry_Int_Tables_number      2
_space_group_name_Hall           '-P 1'
loop_
_symmetry_equiv_pos_site_id
_symmetry_equiv_pos_as_xyz
1 x,y,z
2 -x,-y,-z
_cell_length_a                   7.7967(5)
_cell_length_b                   9.9179(6)
_cell_length_c                   12.6636(8)
_cell_angle_alpha                97.189(5)
_cell_angle_beta                 96.991(5)
_cell_angle_gamma                111.063(6)
_cell_volume                     891.811
_exptl_crystal_colour            colorless
_exptl_crystal_description       block
_cell_formula_units_Z            2
loop_
_atom_site_label
_atom_site_type_symbol
_atom_site_fract_x
_atom_site_fract_y
_atom_site_fract_z
C1 C 0.2146(2) 0.73092(19) 0.13371(13)
H1 H 0.1777 0.8105 0.1414
C2 C 0.2040(3) 0.6580(2) 0.03208(14)
H2 H 0.1588 0.6865 -0.0292
C3 C 0.2612(2) 0.5430(2) 0.02284(14)
C4 C 0.3290(3) 0.4979(2) 0.11008(14)
H3 H 0.3683 0.4198 0.1010
C5 C 0.3383(2) 0.57024(18) 0.21215(13)
H4 H 0.3840 0.5405 0.2726
C6 C 0.28008(19) 0.68684(16) 0.22547(11)
C7 C 0.2961(2) 0.77857(16) 0.33028(12)
C8 C 0.3171(2) 0.79475(16) 0.52675(12)
H5 H 0.3401 0.8943 0.5448
C9 C 0.31024(19) 0.70078(15) 0.59703(11)
C10 C 0.26735(18) 0.56163(15) 0.53019(11)
C11 C 0.24011(18) 0.41822(15) 0.56139(11)
C12 C 0.2670(2) 0.31042(16) 0.49207(12)
H6 H 0.3049 0.3302 0.4269
C13 C 0.2381(2) 0.17455(17) 0.51890(14)
H7 H 0.2538 0.1024 0.4712
C14 C 0.1860(2) 0.14551(18) 0.61618(15)
H8 H 0.1675 0.0541 0.6346
C15 C 0.1614(2) 0.25180(18) 0.68608(14)
H9 H 0.1275 0.2323 0.7522
C16 C 0.1866(2) 0.38709(17) 0.65902(12)
H10 H 0.1677 0.4579 0.7064
C17 C 0.3689(2) 0.74946(15) 0.71636(11)
C18 C 0.2725(2) 0.83421(15) 0.77192(11)
C19 C 0.3732(3) 0.95256(18) 0.85396(13)
H11 H 0.5012 0.9789 0.8743
C20 C 0.2847(3) 1.0316(2) 0.90565(15)
H12 H 0.3534 1.1130 0.9594
C21 C 0.0948(3) 0.9903(3) 0.87781(16)
H13 H 0.0349 1.0436 0.9130
C22 C -0.0069(3) 0.8708(3) 0.79830(17)
H14 H -0.1359 0.8417 0.7810
C23 C 0.0818(2) 0.7937(2) 0.74391(13)
H15 H 0.0132 0.7146 0.6884
F1 F 0.24891(18) 0.47030(16) -0.07733(9)
N1 N 0.28427(16) 0.71674(12) 0.42531(9)
N2 N 0.24873(16) 0.57135(12) 0.42660(9)
O1 O 0.31893(18) 0.90722(12) 0.33948(9)
O2 O 0.49480(17) 0.72403(14) 0.76485(9)
loop_
_geom_bond_atom_site_label_1
_geom_bond_atom_site_label_2
_geom_bond_site_symmetry_1
_geom_bond_site_symmetry_2
C1 H1 1_555 1_555
C2 C1 1_555 1_555
H2 C2 1_555 1_555
C3 C2 1_555 1_555
C4 C3 1_555 1_555
H3 C4 1_555 1_555
C5 C4 1_555 1_555
H4 C5 1_555 1_555
C6 C1 1_555 1_555
C7 C6 1_555 1_555
C8 H5 1_555 1_555
C9 C8 1_555 1_555
C10 C9 1_555 1_555
C11 C10 1_555 1_555
C12 C11 1_555 1_555
H6 C12 1_555 1_555
C13 C12 1_555 1_555
H7 C13 1_555 1_555
C14 C13 1_555 1_555
H8 C14 1_555 1_555
C15 C14 1_555 1_555
H9 C15 1_555 1_555
C16 C11 1_555 1_555
H10 C16 1_555 1_555
C17 C9 1_555 1_555
C18 C17 1_555 1_555
C19 C18 1_555 1_555
H11 C19 1_555 1_555
C20 C19 1_555 1_555
H12 C20 1_555 1_555
C21 C20 1_555 1_555
H13 C21 1_555 1_555
C22 C21 1_555 1_555
H14 C22 1_555 1_555
C23 C18 1_555 1_555
H15 C23 1_555 1_555
F1 C3 1_555 1_555
N1 C7 1_555 1_555
N2 C10 1_555 1_555
O1 C7 1_555 1_555
O2 C17 1_555 1_555
C5 C6 1_555 1_555
C8 N1 1_555 1_555
C15 C16 1_555 1_555
C22 C23 1_555 1_555
N1 N2 1_555 1_555

#END
