
#######################################################################
#
#                 Cambridge Crystallographic Data Centre
#                                CCDC 
#
#######################################################################
#
# If this CIF has been generated from an entry in the Cambridge 
# Structural Database, then it will include bibliographic, chemical, 
# crystal, experimental, refinement or atomic coordinate data resulting 
# from the CCDC's data processing and validation procedures.
#
#######################################################################

data_TIHRAE
_chemical_formula_moiety         'C22 H20 N2'
_chemical_name_systematic        
N,N'-bis(\a-Methylbenzylidene)benzene-1,4-diamine
_symmetry_cell_setting           monoclinic
_symmetry_space_group_name_H-M   'P 21/c'
_symmetry_Int_Tables_number      14
_space_group_name_Hall           '-P 2ybc'
loop_
_symmetry_equiv_pos_site_id
_symmetry_equiv_pos_as_xyz
1 x,y,z
2 -x,1/2+y,1/2-z
3 -x,-y,-z
4 x,1/2-y,1/2+z
_cell_length_a                   5.9718(11)
_cell_length_b                   6.8701(15)
_cell_length_c                   21.713(2)
_cell_angle_alpha                90
_cell_angle_beta                 90.720(2)
_cell_angle_gamma                90
_cell_volume                     890.746
_exptl_crystal_colour            colorless
_exptl_crystal_description       block
_cell_formula_units_Z            2
loop_
_atom_site_label
_atom_site_type_symbol
_atom_site_fract_x
_atom_site_fract_y
_atom_site_fract_z
N1 N 0.1054(3) 0.1888(3) 0.42130(8)
C1 C 0.5090(4) 0.2304(5) 0.43650(14)
H1 H 0.4661 0.3410 0.4606
H2 H 0.6053 0.2719 0.4039
H3 H 0.5871 0.1386 0.4623
C2 C 0.3038(4) 0.1361(3) 0.40941(10)
C3 C 0.3318(4) -0.0279(3) 0.36540(10)
C4 C 0.1630(4) -0.0695(4) 0.32348(11)
H4 H 0.0326 0.0045 0.3234
C5 C 0.1853(5) -0.2190(5) 0.28178(12)
H5 H 0.0716 -0.2433 0.2531
C6 C 0.3754(6) -0.3328(5) 0.28231(14)
H6 H 0.3896 -0.4346 0.2544
C7 C 0.5421(6) -0.2951(5) 0.32399(15)
H7 H 0.6700 -0.3723 0.3249
C8 C 0.5219(4) -0.1423(4) 0.36498(12)
H8 H 0.6380 -0.1161 0.3927
C9 C 0.0613(3) 0.3471(3) 0.46147(10)
C10 C 0.0549(4) 0.5353(4) 0.43993(11)
H9 H 0.0903 0.5604 0.3991
C11 C 0.0035(4) 0.3121(4) 0.52201(10)
H10 H 0.0039 0.1855 0.5371
N1B N -0.1054(3) 0.8112(3) 0.57870(8)
C1B C -0.5090(4) 0.7696(5) 0.56350(14)
H1B H -0.4661 0.6590 0.5394
H2B H -0.6053 0.7281 0.5961
H3B H -0.5871 0.8614 0.5377
C2B C -0.3038(4) 0.8639(3) 0.59059(10)
C3B C -0.3318(4) 1.0279(3) 0.63460(10)
C4B C -0.1630(4) 1.0695(4) 0.67652(11)
H4B H -0.0326 0.9955 0.6766
C5B C -0.1853(5) 1.2190(5) 0.71822(12)
H5B H -0.0716 1.2433 0.7469
C6B C -0.3754(6) 1.3328(5) 0.71769(14)
H6B H -0.3896 1.4346 0.7456
C7B C -0.5421(6) 1.2951(5) 0.67601(15)
H7B H -0.6700 1.3723 0.6751
C8B C -0.5219(4) 1.1423(4) 0.63502(12)
H8B H -0.6380 1.1161 0.6073
C9B C -0.0613(3) 0.6529(3) 0.53853(10)
C10B C -0.0549(4) 0.4647(4) 0.56007(11)
H9B H -0.0903 0.4396 0.6009
C11B C -0.0035(4) 0.6879(4) 0.47799(10)
H10B H -0.0039 0.8145 0.4629
loop_
_geom_bond_atom_site_label_1
_geom_bond_atom_site_label_2
_geom_bond_site_symmetry_1
_geom_bond_site_symmetry_2
N1 C2 1_555 1_555
C1 H1 1_555 1_555
H2 C1 1_555 1_555
H3 C1 1_555 1_555
C2 C1 1_555 1_555
C3 C2 1_555 1_555
C4 C3 1_555 1_555
H4 C4 1_555 1_555
C5 C4 1_555 1_555
H5 C5 1_555 1_555
C6 C5 1_555 1_555
H6 C6 1_555 1_555
C7 C6 1_555 1_555
H7 C7 1_555 1_555
C8 C3 1_555 1_555
H8 C8 1_555 1_555
C9 N1 1_555 1_555
C10 C9 1_555 1_555
H9 C10 1_555 1_555
C11 C9 1_555 1_555
H10 C11 1_555 1_555
N1B C2B 1_555 1_555
C1B H1B 1_555 1_555
H2B C1B 1_555 1_555
H3B C1B 1_555 1_555
C2B C1B 1_555 1_555
C3B C2B 1_555 1_555
C4B C3B 1_555 1_555
H4B C4B 1_555 1_555
C5B C4B 1_555 1_555
H5B C5B 1_555 1_555
C6B C5B 1_555 1_555
H6B C6B 1_555 1_555
C7B C6B 1_555 1_555
H7B C7B 1_555 1_555
C8B C3B 1_555 1_555
H8B C8B 1_555 1_555
C9B N1B 1_555 1_555
C10B C11 1_555 1_555
H9B C10B 1_555 1_555
C11B C10 1_555 1_555
H10B C11B 1_555 1_555
C7 C8 1_555 1_555
C7B C8B 1_555 1_555
C9B C10B 1_555 1_555
C9B C11B 1_555 1_555

#END
