
#######################################################################
#
#                 Cambridge Crystallographic Data Centre
#                                CCDC 
#
#######################################################################
#
# If this CIF has been generated from an entry in the Cambridge 
# Structural Database, then it will include bibliographic, chemical, 
# crystal, experimental, refinement or atomic coordinate data resulting 
# from the CCDC's data processing and validation procedures.
#
#######################################################################

data_TIHRUY
_chemical_formula_moiety         'C16 H16 N4 2+,2(Cl1 1-),4(H2 O1)'
_chemical_name_systematic        
"2,2'-Ethylenedibenzimidazolium dichloride tetrahydrate"
_symmetry_cell_setting           triclinic
_symmetry_space_group_name_H-M   'P -1'
_symmetry_Int_Tables_number      2
_space_group_name_Hall           '-P 1'
loop_
_symmetry_equiv_pos_site_id
_symmetry_equiv_pos_as_xyz
1 x,y,z
2 -x,-y,-z
_cell_length_a                   7.174(6)
_cell_length_b                   9.652(8)
_cell_length_c                   15.411(13)
_cell_angle_alpha                80.504(8)
_cell_angle_beta                 79.684(9)
_cell_angle_gamma                68.520(8)
_cell_volume                     971.167
_exptl_crystal_colour            colorless
_exptl_crystal_description       prism
_cell_formula_units_Z            2
loop_
_atom_site_label
_atom_site_type_symbol
_atom_site_fract_x
_atom_site_fract_y
_atom_site_fract_z
C1 C 0.6983(2) 1.03103(18) 0.52524(10)
C2 C 0.6639(3) 1.16652(19) 0.47131(12)
H1 H 0.5807 1.2572 0.4920
C3 C 0.7605(3) 1.1583(2) 0.38534(12)
H2 H 0.7424 1.2464 0.3473
C4 C 0.8855(3) 1.0215(2) 0.35315(11)
H3 H 0.9459 1.0212 0.2945
C5 C 0.9199(3) 0.8880(2) 0.40694(12)
H4 H 1.0028 0.7974 0.3861
C6 C 0.8248(2) 0.89511(18) 0.49381(11)
C7 C 0.7063(2) 0.84969(19) 0.63476(11)
C8 C 0.6641(3) 0.7702(2) 0.72354(13)
H5 H 0.6060 0.6970 0.7165
H6 H 0.5654 0.8419 0.7610
C9 C 0.8508(3) 0.6921(2) 0.76849(12)
H7 H 0.9461 0.6159 0.7328
H8 H 0.9136 0.7641 0.7721
C10 C 0.8068(3) 0.6206(2) 0.85950(11)
C11 C 0.7655(2) 0.45577(18) 0.97231(11)
C12 C 0.7552(3) 0.32862(19) 1.02773(12)
H9 H 0.7750 0.2396 1.0055
C13 C 0.7139(3) 0.3424(2) 1.11733(12)
H10 H 0.7079 0.2596 1.1567
C14 C 0.6805(3) 0.4770(2) 1.15129(12)
H11 H 0.6515 0.4812 1.2123
C15 C 0.6896(3) 0.6028(2) 1.09654(12)
H12 H 0.6663 0.6924 1.1188
C16 C 0.7356(2) 0.58891(18) 1.00602(11)
N1 N 0.6283(2) 0.99668(16) 0.61347(9)
H13 H 0.5477 1.0603 0.6485
N2 N 0.8250(2) 0.78573(15) 0.56483(10)
H14 H 0.8914 0.6915 0.5638
N3 N 0.7621(2) 0.68854(16) 0.93284(9)
H15 H 0.7512 0.7798 0.9347
N4 N 0.8080(2) 0.48110(16) 0.88072(9)
H16 H 0.8312 0.4171 0.8438
O1 O 0.8156(2) 0.29177(16) 0.76720(9)
H17 H 0.7466 0.3352 0.7192
H18 H 0.7641 0.2151 0.7953
O2 O 0.3755(2) 0.19384(16) 0.72672(9)
H19 H 0.3037 0.1536 0.7691
H20 H 0.2837 0.2748 0.6944
O3 O 0.6201(3) 0.46531(18) 0.62377(10)
H21 H 0.4915 0.4593 0.6121
H22 H 0.6796 0.4806 0.5679
O4 O 0.7843(3) 0.9552(2) 0.12510(12)
H23 H 0.9091 0.9725 0.1156
H24 H 0.7735 0.9600 0.0675
Cl1 Cl 0.18700(7) 0.47137(5) 0.58431(3)
Cl2 Cl 0.76500(10) 1.01372(6) 0.90382(4)
loop_
_geom_bond_atom_site_label_1
_geom_bond_atom_site_label_2
_geom_bond_site_symmetry_1
_geom_bond_site_symmetry_2
C1 C2 1_555 1_555
C2 H1 1_555 1_555
C3 C2 1_555 1_555
H2 C3 1_555 1_555
C4 C3 1_555 1_555
H3 C4 1_555 1_555
C5 C4 1_555 1_555
H4 C5 1_555 1_555
C6 C1 1_555 1_555
C7 C8 1_555 1_555
C8 H5 1_555 1_555
H6 C8 1_555 1_555
C9 C8 1_555 1_555
H7 C9 1_555 1_555
H8 C9 1_555 1_555
C10 C9 1_555 1_555
C11 C12 1_555 1_555
C12 H9 1_555 1_555
C13 C12 1_555 1_555
H10 C13 1_555 1_555
C14 C13 1_555 1_555
H11 C14 1_555 1_555
C15 C14 1_555 1_555
H12 C15 1_555 1_555
C16 C11 1_555 1_555
N1 C1 1_555 1_555
H13 N1 1_555 1_555
N2 C6 1_555 1_555
H14 N2 1_555 1_555
N3 C10 1_555 1_555
H15 N3 1_555 1_555
N4 C10 1_555 1_555
H16 N4 1_555 1_555
O1 H17 1_555 1_555
H18 O1 1_555 1_555
O2 H19 1_555 1_555
H20 O2 1_555 1_555
O3 H21 1_555 1_555
H22 O3 1_555 1_555
O4 H23 1_555 1_555
H24 O4 1_555 1_555
C5 C6 1_555 1_555
C7 N1 1_555 1_555
C7 N2 1_555 1_555
C11 N4 1_555 1_555
C15 C16 1_555 1_555
C16 N3 1_555 1_555

#END
