
#######################################################################
#
#                 Cambridge Crystallographic Data Centre
#                                CCDC 
#
#######################################################################
#
# If this CIF has been generated from an entry in the Cambridge 
# Structural Database, then it will include bibliographic, chemical, 
# crystal, experimental, refinement or atomic coordinate data resulting 
# from the CCDC's data processing and validation procedures.
#
#######################################################################

data_TIHREI
_chemical_formula_moiety         'C14 H14 Cl1 N1 O2'
_chemical_name_systematic        
2-((4-Chlorophenyl)aminomethyl)-6-methoxyphenol
_symmetry_cell_setting           monoclinic
_symmetry_space_group_name_H-M   'C 2/c'
_symmetry_Int_Tables_number      15
_space_group_name_Hall           '-C 2yn'
loop_
_symmetry_equiv_pos_site_id
_symmetry_equiv_pos_as_xyz
1 x,y,z
2 1/2+x,1/2+y,z
3 -x,y,1/2-z
4 1/2-x,1/2+y,1/2-z
5 -x,-y,-z
6 1/2-x,1/2-y,-z
7 x,-y,1/2+z
8 1/2+x,1/2-y,1/2+z
_cell_length_a                   24.346(2)
_cell_length_b                   5.4437(12)
_cell_length_c                   20.478(2)
_cell_angle_alpha                90
_cell_angle_beta                 109.496(2)
_cell_angle_gamma                90
_cell_volume                     2558.39
_exptl_crystal_colour            colorless
_exptl_crystal_description       block
_cell_formula_units_Z            8
loop_
_atom_site_label
_atom_site_type_symbol
_atom_site_fract_x
_atom_site_fract_y
_atom_site_fract_z
Cl1 Cl 0.04664(4) 0.6829(2) 0.07190(5)
N1 N 0.30405(13) 0.7025(6) 0.17647(17)
H1 H 0.3194 0.8409 0.1719
O1 O 0.43176(9) 0.1644(5) 0.25625(10)
H2 H 0.4576 0.0604 0.2658
O2 O 0.46516(10) -0.1488(4) 0.17665(11)
C1 C 0.34326(15) 0.5057(7) 0.20886(18)
H3 H 0.3266 0.4155 0.2386
H4 H 0.3796 0.5772 0.2382
C2 C 0.35693(13) 0.3247(6) 0.15996(16)
C3 C 0.40223(13) 0.1606(6) 0.18656(15)
C4 C 0.41828(13) -0.0012(6) 0.14358(16)
C5 C 0.38754(15) -0.0042(7) 0.07349(16)
H5 H 0.3976 -0.1139 0.0445
C6 C 0.34193(15) 0.1566(7) 0.04686(17)
H6 H 0.3210 0.1543 -0.0003
C7 C 0.32685(15) 0.3204(7) 0.08898(17)
H7 H 0.2963 0.4294 0.0699
C8 C 0.48033(15) -0.3420(7) 0.13784(19)
H8 H 0.4469 -0.4441 0.1170
H9 H 0.5112 -0.4393 0.1683
H10 H 0.4930 -0.2716 0.1023
C9 C 0.24382(14) 0.6881(7) 0.15203(18)
C10 C 0.21322(16) 0.5003(7) 0.17032(18)
H11 H 0.2333 0.3736 0.1989
C11 C 0.15244(16) 0.5013(7) 0.14589(19)
H12 H 0.1322 0.3748 0.1582
C12 C 0.12270(14) 0.6849(7) 0.10439(16)
C13 C 0.15200(16) 0.8713(7) 0.08636(19)
H13 H 0.1316 0.9980 0.0582
C14 C 0.21174(17) 0.8717(7) 0.1099(2)
H14 H 0.2313 0.9998 0.0970
loop_
_geom_bond_atom_site_label_1
_geom_bond_atom_site_label_2
_geom_bond_site_symmetry_1
_geom_bond_site_symmetry_2
Cl1 C12 1_555 1_555
N1 H1 1_555 1_555
O1 H2 1_555 1_555
O2 C4 1_555 1_555
C1 N1 1_555 1_555
H3 C1 1_555 1_555
H4 C1 1_555 1_555
C2 C1 1_555 1_555
C3 O1 1_555 1_555
C4 C3 1_555 1_555
C5 C4 1_555 1_555
H5 C5 1_555 1_555
C6 C5 1_555 1_555
H6 C6 1_555 1_555
C7 C2 1_555 1_555
H7 C7 1_555 1_555
C8 O2 1_555 1_555
H8 C8 1_555 1_555
H9 C8 1_555 1_555
H10 C8 1_555 1_555
C9 N1 1_555 1_555
C10 C9 1_555 1_555
H11 C10 1_555 1_555
C11 C10 1_555 1_555
H12 C11 1_555 1_555
C12 C11 1_555 1_555
C13 C12 1_555 1_555
H13 C13 1_555 1_555
C14 C9 1_555 1_555
H14 C14 1_555 1_555
C2 C3 1_555 1_555
C6 C7 1_555 1_555
C13 C14 1_555 1_555

#END
