
#######################################################################
#
#                 Cambridge Crystallographic Data Centre
#                                CCDC 
#
#######################################################################
#
# If this CIF has been generated from an entry in the Cambridge 
# Structural Database, then it will include bibliographic, chemical, 
# crystal, experimental, refinement or atomic coordinate data resulting 
# from the CCDC's data processing and validation procedures.
#
#######################################################################

data_TIHVUD
_chemical_formula_moiety         'C21 H29 Br1 N2 O2'
_chemical_name_systematic        
't-Butyl 2-(5-bromo-2,3-dihydro-1H-inden-1-yl)-2,7-diazaspiro[3.5]nonane-7-carboxylate'
_symmetry_cell_setting           monoclinic
_symmetry_space_group_name_H-M   'P 21'
_symmetry_Int_Tables_number      4
_space_group_name_Hall           'P 2yb'
loop_
_symmetry_equiv_pos_site_id
_symmetry_equiv_pos_as_xyz
1 x,y,z
2 -x,1/2+y,-z
_cell_length_a                   10.1041(4)
_cell_length_b                   6.1606(3)
_cell_length_c                   16.1995(6)
_cell_angle_alpha                90
_cell_angle_beta                 97.271(2)
_cell_angle_gamma                90
_cell_volume                     1000.27
_exptl_crystal_colour            colorless
_exptl_crystal_description       PRISM
_cell_formula_units_Z            2
loop_
_atom_site_label
_atom_site_type_symbol
_atom_site_fract_x
_atom_site_fract_y
_atom_site_fract_z
N1 N 1.6462(3) -0.0700(6) 0.94931(18)
C1 C 1.5416(4) -0.2192(6) 0.9138(2)
H1 H 1.4547 -0.1567 0.9184
H2 H 1.5487 -0.3548 0.9445
C2 C 1.5550(4) -0.2626(6) 0.8224(2)
H3 H 1.6368 -0.3423 0.8187
H4 H 1.4810 -0.3523 0.7985
C3 C 1.5566(3) -0.0565(7) 0.77303(19)
C4 C 1.6667(3) 0.0923(7) 0.8149(2)
H5 H 1.7529 0.0250 0.8123
H6 H 1.6650 0.2288 0.7850
C5 C 1.6496(4) 0.1356(7) 0.9042(2)
H7 H 1.7230 0.2240 0.9298
H8 H 1.5673 0.2146 0.9069
C6 C 1.5491(3) -0.0868(7) 0.6780(2)
H9 H 1.6001 0.0197 0.6513
H10 H 1.5700 -0.2329 0.6615
N2 N 1.4042(2) -0.0400(6) 0.66963(15)
C7 C 1.4180(3) 0.0556(6) 0.7535(2)
H11 H 1.3522 0.0041 0.7876
H12 H 1.4224 0.2129 0.7538
C8 C 1.3450(3) 0.0846(6) 0.5984(2)
H13 H 1.3434 -0.0071 0.5489
C9 C 1.2029(3) 0.1487(6) 0.6071(2)
C10 C 1.1738(3) 0.3533(6) 0.5743(2)
C11 C 1.2937(3) 0.4477(8) 0.5410(2)
H14 H 1.3073 0.5979 0.5579
H15 H 1.2840 0.4396 0.4807
C12 C 1.4089(4) 0.3057(7) 0.5796(3)
H16 H 1.4525 0.3709 0.6304
H17 H 1.4742 0.2865 0.5412
C13 C 1.1081(3) 0.0329(6) 0.6425(2)
H18 H 1.1275 -0.1057 0.6634
C14 C 0.9829(4) 0.1235(7) 0.6470(2)
H19 H 0.9182 0.0475 0.6712
C15 C 0.9572(3) 0.3283(7) 0.6148(2)
C16 C 1.0491(3) 0.4459(7) 0.57708(19)
H20 H 1.0284 0.5822 0.5543
Br1 Br 0.79168(3) 0.46374(8) 0.62859(2)
C17 C 1.7256(4) -0.1201(6) 1.0201(2)
O1 O 1.7158(3) -0.2872(6) 1.0588(2)
O2 O 1.8150(3) 0.0372(6) 1.04085(17)
C18 C 1.9033(4) 0.0327(8) 1.1206(2)
C19 C 1.9981(6) -0.1481(16) 1.1210(4)
H21 H 2.0480 -0.1339 1.0746
H22 H 1.9502 -0.2830 1.1168
H23 H 2.0582 -0.1456 1.1719
C20 C 1.9741(8) 0.2419(16) 1.1211(4)
H24 H 2.0245 0.2476 1.0747
H25 H 2.0335 0.2558 1.1720
H26 H 1.9105 0.3584 1.1169
C21 C 1.8267(4) 0.0205(10) 1.1915(3)
H27 H 1.7850 -0.1193 1.1923
H28 H 1.7595 0.1315 1.1863
H29 H 1.8855 0.0413 1.2422
loop_
_geom_bond_atom_site_label_1
_geom_bond_atom_site_label_2
_geom_bond_site_symmetry_1
_geom_bond_site_symmetry_2
N1 C1 1_555 1_555
C1 H1 1_555 1_555
H2 C1 1_555 1_555
C2 C1 1_555 1_555
H3 C2 1_555 1_555
H4 C2 1_555 1_555
C3 C2 1_555 1_555
C4 C3 1_555 1_555
H5 C4 1_555 1_555
H6 C4 1_555 1_555
C5 N1 1_555 1_555
H7 C5 1_555 1_555
H8 C5 1_555 1_555
C6 C3 1_555 1_555
H9 C6 1_555 1_555
H10 C6 1_555 1_555
N2 C6 1_555 1_555
C7 C3 1_555 1_555
H11 C7 1_555 1_555
H12 C7 1_555 1_555
C8 N2 1_555 1_555
H13 C8 1_555 1_555
C9 C8 1_555 1_555
C10 C9 1_555 1_555
C11 C10 1_555 1_555
H14 C11 1_555 1_555
H15 C11 1_555 1_555
C12 C8 1_555 1_555
H16 C12 1_555 1_555
H17 C12 1_555 1_555
C13 C9 1_555 1_555
H18 C13 1_555 1_555
C14 C13 1_555 1_555
H19 C14 1_555 1_555
C15 C14 1_555 1_555
C16 C10 1_555 1_555
H20 C16 1_555 1_555
Br1 C15 1_555 1_555
C17 N1 1_555 1_555
O1 C17 1_555 1_555
O2 C17 1_555 1_555
C18 O2 1_555 1_555
C19 C18 1_555 1_555
H21 C19 1_555 1_555
H22 C19 1_555 1_555
H23 C19 1_555 1_555
C20 C18 1_555 1_555
H24 C20 1_555 1_555
H25 C20 1_555 1_555
H26 C20 1_555 1_555
C21 C18 1_555 1_555
H27 C21 1_555 1_555
H28 C21 1_555 1_555
H29 C21 1_555 1_555
C4 C5 1_555 1_555
N2 C7 1_555 1_555
C11 C12 1_555 1_555
C15 C16 1_555 1_555

#END
