
#######################################################################
#
#                 Cambridge Crystallographic Data Centre
#                                CCDC 
#
#######################################################################
#
# If this CIF has been generated from an entry in the Cambridge 
# Structural Database, then it will include bibliographic, chemical, 
# crystal, experimental, refinement or atomic coordinate data resulting 
# from the CCDC's data processing and validation procedures.
#
#######################################################################

data_TIHXUF
_chemical_formula_moiety         'C40 H42 Br1 N1 O7 Si1'
_chemical_name_systematic        
"5-(((t-Butyl(diphenyl)silyl)oxy)methyl)-4-hydroxy-2'-(4-methoxyphenyl)-4,5'-dimethylspiro[6-oxabicyclo[3.1.0]hexane-3,4'-[1,3]oxazol]-2-yl 4-bromobenzoate unknown solvate"
_symmetry_cell_setting           hexagonal
_symmetry_space_group_name_H-M   'P 61'
_symmetry_Int_Tables_number      169
_space_group_name_Hall           'P 61'
loop_
_symmetry_equiv_pos_site_id
_symmetry_equiv_pos_as_xyz
1 x,y,z
2 -y,x-y,1/3+z
3 -x+y,-x,2/3+z
4 -x,-y,1/2+z
5 y,-x+y,5/6+z
6 x-y,x,1/6+z
_cell_length_a                   26.146(2)
_cell_length_b                   26.146(2)
_cell_length_c                   9.7191(8)
_cell_angle_alpha                90
_cell_angle_beta                 90
_cell_angle_gamma                120
_cell_volume                     5753.96
_exptl_crystal_colour            colorless
_exptl_crystal_description       needle
_cell_formula_units_Z            6
loop_
_atom_site_label
_atom_site_type_symbol
_atom_site_fract_x
_atom_site_fract_y
_atom_site_fract_z
Br1 Br 0.56907(8) 0.61795(8) 1.0204(3)
O1 O 0.6773(4) 0.6150(4) 0.3909(9)
O2 O 0.5820(4) 0.5520(4) 0.3401(9)
C1 C 0.6929(5) 0.6087(6) 0.2436(12)
H1 H 0.6621 0.6051 0.1769
C2 C 0.6205(6) 0.5820(6) 0.4244(14)
C3 C 0.6087(3) 0.5934(3) 0.5693(6)
C4 C 0.5507(3) 0.5672(3) 0.6155(7)
H2 H 0.5191 0.5433 0.5550
C5 C 0.5389(3) 0.5758(4) 0.7504(7)
H3 H 0.4993 0.5579 0.7820
C6 C 0.5852(4) 0.6107(4) 0.8389(7)
C7 C 0.6432(3) 0.6369(3) 0.7927(7)
H4 H 0.6748 0.6607 0.8532
C8 C 0.6549(3) 0.6283(3) 0.6578(7)
H5 H 0.6946 0.6462 0.6262
Si1 Si 0.7731(2) 0.4984(2) 0.5725(5)
O3 O 0.7314(4) 0.5571(5) 0.1296(9)
O4 O 0.8022(4) 0.5505(4) 0.4475(7)
O5 O 0.8150(5) 0.6624(5) 0.4041(9)
H6 H 0.7846 0.6560 0.4477
O6 O 0.8022(5) 0.7665(4) 0.1518(8)
O7 O 0.8391(5) 0.8272(4) -0.4890(7)
N1 N 0.7611(6) 0.6736(4) 0.0562(9)
C9 C 0.7573(4) 0.6679(4) 0.2143(10)
C10 C 0.6968(4) 0.5578(6) 0.2491(15)
H7 H 0.6673 0.5212 0.2980
C11 C 0.7659(4) 0.5797(4) 0.2455(12)
C12 C 0.7991(4) 0.6445(5) 0.2568(12)
C13 C 0.7769(5) 0.7278(6) 0.2690(12)
H8 H 0.8058 0.7385 0.3462
C14 C 0.7226(6) 0.7341(7) 0.3101(18)
H9 H 0.7359 0.7754 0.3327
H10 H 0.7031 0.7092 0.3903
H11 H 0.6947 0.7216 0.2330
C15 C 0.7873(6) 0.5373(7) 0.3086(11)
H12 H 0.7553 0.4957 0.2997
H13 H 0.8220 0.5420 0.2568
C16 C 0.8602(6) 0.6717(10) 0.1676(19)
H14 H 0.8614 0.7004 0.1009
H15 H 0.8618 0.6397 0.1188
H16 H 0.8942 0.6913 0.2298
C17 C 0.7888(3) 0.5428(4) 0.7326(9)
C18 C 0.7524(5) 0.5723(6) 0.7429(16)
H17 H 0.7106 0.5423 0.7511
H18 H 0.7583 0.5961 0.6602
H19 H 0.7646 0.5980 0.8242
C19 C 0.8540(5) 0.5908(7) 0.7361(17)
H20 H 0.8612 0.6164 0.8160
H21 H 0.8639 0.6144 0.6517
H22 H 0.8786 0.5724 0.7429
C20 C 0.7773(9) 0.5033(7) 0.8574(11)
H23 H 0.8086 0.4932 0.8648
H24 H 0.7391 0.4671 0.8471
H25 H 0.7770 0.5242 0.9408
C21 C 0.6953(2) 0.4514(3) 0.5257(6)
C22 C 0.6542(3) 0.4700(3) 0.5424(8)
H26 H 0.6662 0.5078 0.5800
C23 C 0.5958(3) 0.4331(4) 0.5040(11)
H27 H 0.5677 0.4458 0.5153
C24 C 0.5783(3) 0.3777(4) 0.4489(13)
H28 H 0.5384 0.3525 0.4227
C25 C 0.6194(3) 0.3592(3) 0.4323(13)
H29 H 0.6074 0.3213 0.3947
C26 C 0.6778(3) 0.3960(3) 0.4707(9)
H30 H 0.7059 0.3834 0.4594
C27 C 0.8169(3) 0.4613(3) 0.5743(8)
C28 C 0.8697(3) 0.4826(5) 0.5024(10)
H31 H 0.8843 0.5177 0.4492
C29 C 0.9011(4) 0.4527(6) 0.5084(13)
H32 H 0.9371 0.4673 0.4593
C30 C 0.8797(4) 0.4014(6) 0.5862(16)
H33 H 0.9012 0.3810 0.5903
C31 C 0.8270(5) 0.3801(5) 0.6581(15)
H34 H 0.8124 0.3451 0.7113
C32 C 0.7956(4) 0.4100(4) 0.6522(11)
H35 H 0.7595 0.3954 0.7013
C33 C 0.7880(4) 0.7278(5) 0.0331(10)
C34 C 0.8010(3) 0.7551(4) -0.0973(6)
C35 C 0.8095(5) 0.7259(4) -0.2067(8)
H36 H 0.8064 0.6885 -0.1926
C36 C 0.8226(6) 0.7514(4) -0.3368(8)
H37 H 0.8284 0.7315 -0.4115
C37 C 0.8272(6) 0.8062(4) -0.3574(6)
C38 C 0.8186(6) 0.8353(4) -0.2480(8)
H38 H 0.8217 0.8728 -0.2621
C39 C 0.8056(5) 0.8098(5) -0.1180(7)
H39 H 0.7997 0.8297 -0.0432
C40 C 0.8432(10) 0.8827(7) -0.5160(12)
H40 H 0.8057 0.8805 -0.4924
H41 H 0.8517 0.8924 -0.6137
H42 H 0.8750 0.9134 -0.4603
Si2? Si 0.7827(3) 0.5176(3) 0.5831(6)
O8? O 0.7503(7) 0.5761(7) 0.1317(12)
O9? O 0.8102(5) 0.5735(6) 0.4669(10)
O10? O 0.8089(7) 0.6790(7) 0.4247(13)
H43? H 0.7769 0.6721 0.4611
O11? O 0.7828(8) 0.7749(4) 0.1989(12)
O12? O 0.8473(8) 0.8849(6) -0.3997(9)
N2? N 0.7597(9) 0.6911(6) 0.0750(11)
C41? C 0.7494(6) 0.6757(5) 0.2296(12)
C42? C 0.7073(6) 0.5655(6) 0.2420(19)
H44? H 0.6815 0.5257 0.2833
C43? C 0.7778(6) 0.5999(6) 0.2554(13)
C44? C 0.7990(6) 0.6632(6) 0.2749(15)
C45? C 0.7538(7) 0.7282(6) 0.2997(14)
H45? H 0.7758 0.7374 0.3887
C46? C 0.6914(9) 0.7217(10) 0.315(2)
H46? H 0.6954 0.7610 0.3214
H47? H 0.6723 0.6992 0.3985
H48? H 0.6672 0.7010 0.2347
C47? C 0.8066(7) 0.5650(9) 0.3246(13)
H49? H 0.7823 0.5223 0.3037
H50? H 0.8466 0.5793 0.2864
C48? C 0.8618(7) 0.7029(11) 0.195(3)
H51? H 0.8893 0.7350 0.2549
H52? H 0.8552 0.7195 0.1108
H53? H 0.8786 0.6779 0.1705
C49? C 0.8025(5) 0.5581(6) 0.7501(11)
C50? C 0.7675(9) 0.5883(10) 0.776(2)
H54? H 0.7812 0.6224 0.7148
H55? H 0.7728 0.6017 0.8722
H56? H 0.7256 0.5606 0.7591
C51? C 0.8680(7) 0.6054(10) 0.749(2)
H57? H 0.8752 0.6356 0.8183
H58? H 0.8789 0.6237 0.6581
H59? H 0.8918 0.5871 0.7711
C52? C 0.7930(13) 0.5154(10) 0.8666(14)
H60? H 0.7863 0.5306 0.9528
H61? H 0.8280 0.5112 0.8760
H62? H 0.7585 0.4768 0.8462
C53? C 0.7039(3) 0.4730(4) 0.5445(9)
C54? C 0.6649(4) 0.4931(5) 0.5737(12)
H63? H 0.6789 0.5305 0.6159
C55? C 0.6054(4) 0.4583(6) 0.5412(16)
H64? H 0.5787 0.4720 0.5611
C56? C 0.5849(4) 0.4035(6) 0.4794(19)
H65? H 0.5442 0.3798 0.4572
C57? C 0.6239(4) 0.3835(5) 0.4502(19)
H66? H 0.6099 0.3460 0.4080
C58? C 0.6834(4) 0.4182(4) 0.4827(14)
H67? H 0.7101 0.4045 0.4628
C59? C 0.8258(4) 0.4805(5) 0.5635(11)
C60? C 0.8766(4) 0.5029(7) 0.4836(14)
H68? H 0.8902 0.5390 0.4351
C61? C 0.9076(5) 0.4725(8) 0.475(2)
H69? H 0.9423 0.4879 0.4200
C62? C 0.8877(7) 0.4198(8) 0.546(2)
H70? H 0.9088 0.3990 0.5394
C63? C 0.8369(7) 0.3973(7) 0.625(2)
H71? H 0.8233 0.3612 0.6739
C64? C 0.8059(5) 0.4276(5) 0.6344(17)
H72? H 0.7712 0.4123 0.6890
C65? C 0.7743(6) 0.7443(6) 0.0681(12)
C66? C 0.7925(4) 0.7809(5) -0.0494(9)
C67? C 0.7855(6) 0.7559(5) -0.1792(10)
H73? H 0.7687 0.7144 -0.1885
C68? C 0.8030(7) 0.7917(6) -0.2954(8)
H74? H 0.7981 0.7746 -0.3842
C69? C 0.8275(7) 0.8524(6) -0.2818(9)
C70? C 0.8346(8) 0.8774(5) -0.1520(11)
H75? H 0.8514 0.9189 -0.1427
C71? C 0.8171(7) 0.8416(6) -0.0358(9)
H76? H 0.8219 0.8587 0.0530
C72? C 0.8339(14) 0.8539(12) -0.5272(14)
H77? H 0.8534 0.8820 -0.6024
H78? H 0.7911 0.8327 -0.5417
H79? H 0.8481 0.8255 -0.5250
loop_
_geom_bond_atom_site_label_1
_geom_bond_atom_site_label_2
_geom_bond_site_symmetry_1
_geom_bond_site_symmetry_2
Br1 C6 1_555 1_555
O1 C1 1_555 1_555
O2 C2 1_555 1_555
C1 H1 1_555 1_555
C2 O1 1_555 1_555
C3 C2 1_555 1_555
C4 C3 1_555 1_555
H2 C4 1_555 1_555
C5 C4 1_555 1_555
H3 C5 1_555 1_555
C6 C5 1_555 1_555
C7 C6 1_555 1_555
H4 C7 1_555 1_555
C8 C3 1_555 1_555
H5 C8 1_555 1_555
Si1 O4 1_555 1_555
O3 C10 1_555 1_555
O4 C15 1_555 1_555
O5 H6 1_555 1_555
O6 C13 1_555 1_555
O7 C37 1_555 1_555
N1 C9 1_555 1_555
C9 C1 1_555 1_555
C10 C1 1_555 1_555
H7 C10 1_555 1_555
C11 O3 1_555 1_555
C12 O5 1_555 1_555
C13 C9 1_555 1_555
H8 C13 1_555 1_555
C14 C13 1_555 1_555
H9 C14 1_555 1_555
H10 C14 1_555 1_555
H11 C14 1_555 1_555
C15 C11 1_555 1_555
H12 C15 1_555 1_555
H13 C15 1_555 1_555
C16 C12 1_555 1_555
H14 C16 1_555 1_555
H15 C16 1_555 1_555
H16 C16 1_555 1_555
C17 Si1 1_555 1_555
C18 C17 1_555 1_555
H17 C18 1_555 1_555
H18 C18 1_555 1_555
H19 C18 1_555 1_555
C19 C17 1_555 1_555
H20 C19 1_555 1_555
H21 C19 1_555 1_555
H22 C19 1_555 1_555
C20 C17 1_555 1_555
H23 C20 1_555 1_555
H24 C20 1_555 1_555
H25 C20 1_555 1_555
C21 Si1 1_555 1_555
C22 C21 1_555 1_555
H26 C22 1_555 1_555
C23 C22 1_555 1_555
H27 C23 1_555 1_555
C24 C23 1_555 1_555
H28 C24 1_555 1_555
C25 C24 1_555 1_555
H29 C25 1_555 1_555
C26 C21 1_555 1_555
H30 C26 1_555 1_555
C27 Si1 1_555 1_555
C28 C27 1_555 1_555
H31 C28 1_555 1_555
C29 C28 1_555 1_555
H32 C29 1_555 1_555
C30 C29 1_555 1_555
H33 C30 1_555 1_555
C31 C30 1_555 1_555
H34 C31 1_555 1_555
C32 C27 1_555 1_555
H35 C32 1_555 1_555
C33 O6 1_555 1_555
C34 C33 1_555 1_555
C35 C34 1_555 1_555
H36 C35 1_555 1_555
C36 C35 1_555 1_555
H37 C36 1_555 1_555
C37 C36 1_555 1_555
C38 C37 1_555 1_555
H38 C38 1_555 1_555
C39 C34 1_555 1_555
H39 C39 1_555 1_555
C40 O7 1_555 1_555
H40 C40 1_555 1_555
H41 C40 1_555 1_555
H42 C40 1_555 1_555
C7 C8 1_555 1_555
N1 C33 1_555 1_555
C9 C12 1_555 1_555
C10 C11 1_555 1_555
C11 C12 1_555 1_555
C25 C26 1_555 1_555
C31 C32 1_555 1_555
C38 C39 1_555 1_555

#END
