
#######################################################################
#
#                 Cambridge Crystallographic Data Centre
#                                CCDC 
#
#######################################################################
#
# If this CIF has been generated from an entry in the Cambridge 
# Structural Database, then it will include bibliographic, chemical, 
# crystal, experimental, refinement or atomic coordinate data resulting 
# from the CCDC's data processing and validation procedures.
#
#######################################################################

data_TIHXNO10
_chemical_formula_moiety         'C16 H17 I1 N2 O1'
_chemical_name_systematic        \a-(4'-Iodo-1'-diazocyclohexane)-\b-naphthol
_symmetry_cell_setting           monoclinic
_symmetry_space_group_name_H-M   'P 21/c'
_symmetry_Int_Tables_number      14
_space_group_name_Hall           '-P 2ybc'
loop_
_symmetry_equiv_pos_site_id
_symmetry_equiv_pos_as_xyz
1 x,y,z
2 -x,1/2+y,1/2-z
3 -x,-y,-z
4 x,1/2-y,1/2+z
_cell_length_a                   12.69
_cell_length_b                   4.198
_cell_length_c                   27.48
_cell_angle_alpha                90
_cell_angle_beta                 111
_cell_angle_gamma                90
_cell_volume                     1366.7
_cell_formula_units_Z            4
loop_
_atom_site_label
_atom_site_type_symbol
_atom_site_fract_x
_atom_site_fract_y
_atom_site_fract_z
C1 C 0.33400 0.18600 0.32600
C2 C 0.86300 -0.20000 0.46800
C3 C 0.80100 -0.13300 0.50000
C4 C 0.84300 -0.01800 0.55000
C5 C 0.77800 0.05200 0.57900
C6 C 0.66900 0.12500 0.55400
C7 C 0.63000 0.05500 0.50200
C8 C 0.69000 -0.06700 0.47400
C9 C 0.23100 0.31100 0.28800
C10 C 0.20500 0.16900 0.23500
C11 C 0.28000 -0.07600 0.22200
C12 C 0.39400 -0.18500 0.26400
C13 C 0.42300 -0.01400 0.31600
C14 C 0.64700 -0.16700 0.42300
C15 C 0.71100 -0.25300 0.39300
C16 C 0.82600 -0.29600 0.41700
I1 I 0.04200 0.30500 0.18500
N1 N 0.51600 -0.16000 0.35600
N2 N 0.53100 -0.07200 0.40000
O1 O 0.63400 -0.08700 0.34800
loop_
_geom_bond_atom_site_label_1
_geom_bond_atom_site_label_2
_geom_bond_site_symmetry_1
_geom_bond_site_symmetry_2
C1 C9 1_555 1_555
C2 C3 1_555 1_555
C3 C4 1_555 1_555
C4 C5 1_555 1_555
C5 C6 1_555 1_555
C6 C7 1_555 1_555
C7 C8 1_555 1_555
C8 C3 1_555 1_555
C9 C10 1_555 1_555
C10 C11 1_555 1_555
C11 C12 1_555 1_555
C12 C13 1_555 1_555
C13 C1 1_555 1_555
C14 C8 1_555 1_555
C15 C14 1_555 1_555
C16 C2 1_555 1_555
I1 C10 1_555 1_555
N1 C13 1_555 1_555
N2 C14 1_555 1_555
O1 C15 1_555 1_555
C15 C16 1_555 1_555
N1 N2 1_555 1_555

#END
