
#######################################################################
#
#                 Cambridge Crystallographic Data Centre
#                                CCDC 
#
#######################################################################
#
# If this CIF has been generated from an entry in the Cambridge 
# Structural Database, then it will include bibliographic, chemical, 
# crystal, experimental, refinement or atomic coordinate data resulting 
# from the CCDC's data processing and validation procedures.
#
#######################################################################

data_TIHXEN
_chemical_formula_moiety         'C31 H32,C6 H6'
_chemical_name_systematic        
'bis(Hexaspiro(2.0.2.0.0.0.2.0.2.0.1.0)pentadec-15-ylidene)methane benzene solvate'
_symmetry_cell_setting           monoclinic
_symmetry_space_group_name_H-M   'C 2/c'
_symmetry_Int_Tables_number      15
_space_group_name_Hall           '-C 2yn'
loop_
_symmetry_equiv_pos_site_id
_symmetry_equiv_pos_as_xyz
1 x,y,z
2 1/2+x,1/2+y,z
3 x,-y,1/2+z
4 1/2+x,1/2-y,1/2+z
5 -x,-y,-z
6 1/2-x,1/2-y,-z
7 -x,y,1/2-z
8 1/2-x,1/2+y,1/2-z
_cell_length_a                   21.623(1)
_cell_length_b                   10.3065(5)
_cell_length_c                   13.0931(6)
_cell_angle_alpha                90
_cell_angle_beta                 101.63(1)
_cell_angle_gamma                90
_cell_volume                     2857.99
_exptl_crystal_colour            colorless
_exptl_crystal_description       prism
_chemical_melting_point          'decomposes above 210 deg.C'
_cell_formula_units_Z            4
loop_
_atom_site_label
_atom_site_type_symbol
_atom_site_fract_x
_atom_site_fract_y
_atom_site_fract_z
C1 C 0.35788(16) 0.5213(3) 0.1306(3)
C2 C 0.31077(16) 0.5912(3) 0.0467(3)
C3 C 0.34418(12) 0.6609(2) 0.1407(2)
C4 C 0.32776(12) 0.7512(2) 0.2185(2)
C5 C 0.32204(14) 0.7462(3) 0.3293(2)
C6 C 0.27098(13) 0.8094(3) 0.2476(2)
C7 C 0.37856(11) 0.7868(2) 0.16268(19)
C8 C 0.39952(11) 0.8974(2) 0.10495(18)
C9 C 0.39509(11) 0.9451(2) -0.00384(19)
C10 C 0.36748(13) 0.8997(3) -0.1106(2)
C11 C 0.43511(13) 0.9507(3) -0.0840(2)
C12 C 0.37816(11) 1.0320(2) 0.07597(18)
C13 C 0.39377(14) 1.1637(3) 0.1188(2)
C14 C 0.32509(13) 1.1158(3) 0.0923(2)
C15 C 0.44463(11) 0.8343(2) 0.19021(18)
C16 C 0.5000 0.8322(3) 0.2500
H1 H 0.3425(13) 0.459(3) 0.178(2)
H2 H 0.4015(16) 0.500(3) 0.116(2)
H6 H 0.2678(15) 0.572(3) 0.044(2)
H7 H 0.3245(15) 0.603(3) -0.019(3)
H8 H 0.2278(12) 0.761(2) 0.2280(18)
H9 H 0.3155(14) 0.663(3) 0.356(2)
H10 H 0.3487(14) 0.804(3) 0.381(2)
H11 H 0.2679(13) 0.905(3) 0.248(2)
H12 H 0.3338(14) 0.957(3) -0.151(2)
H13 H 0.3625(17) 0.812(4) -0.126(3)
H14 H 0.4412(11) 1.042(2) -0.1106(18)
H15 H 0.4693(12) 0.894(2) -0.0773(18)
H16 H 0.4140(13) 1.171(3) 0.193(2)
H17 H 0.4056(14) 1.226(3) 0.074(2)
H18 H 0.2988(14) 1.157(3) 0.030(2)
H19 H 0.3036(13) 1.094(3) 0.153(2)
C15F C 0.55537(11) 0.8343(2) 0.30979(18)
C7F C 0.62144(11) 0.7868(2) 0.33732(19)
C3F C 0.65582(12) 0.6609(2) 0.3593(2)
C1F C 0.64212(16) 0.5213(3) 0.3694(3)
C2F C 0.68923(16) 0.5912(3) 0.4533(3)
C4F C 0.67224(12) 0.7512(2) 0.2815(2)
C5F C 0.67796(14) 0.7462(3) 0.1707(2)
C6F C 0.72902(13) 0.8094(3) 0.2524(2)
C8F C 0.60048(11) 0.8974(2) 0.39505(18)
C9F C 0.60491(11) 0.9451(2) 0.50384(19)
C10F C 0.63252(13) 0.8997(3) 0.6106(2)
C11F C 0.56489(13) 0.9507(3) 0.5840(2)
C12F C 0.62184(11) 1.0320(2) 0.42403(18)
C13F C 0.60623(14) 1.1637(3) 0.3812(2)
C14F C 0.67491(13) 1.1158(3) 0.4077(2)
H18F H 0.7012(14) 1.157(3) 0.470(2)
H19F H 0.6964(13) 1.094(3) 0.347(2)
H16F H 0.5860(13) 1.171(3) 0.307(2)
H17F H 0.5944(14) 1.226(3) 0.426(2)
H14F H 0.5588(11) 1.042(2) 0.6106(18)
H15F H 0.5307(12) 0.894(2) 0.5773(18)
H12F H 0.6662(14) 0.957(3) 0.651(2)
H13F H 0.6375(17) 0.812(4) 0.626(3)
H8F H 0.7722(12) 0.761(2) 0.2720(18)
H11F H 0.7321(13) 0.905(3) 0.252(2)
H9F H 0.6845(14) 0.663(3) 0.144(2)
H10F H 0.6513(14) 0.804(3) 0.119(2)
H6F H 0.7322(15) 0.572(3) 0.456(2)
H7F H 0.6755(15) 0.603(3) 0.519(3)
H1F H 0.6575(13) 0.459(3) 0.322(2)
H2F H 0.5985(16) 0.500(3) 0.384(2)
C17 C -0.00157(17) 0.1320(3) 0.0192(2)
C18 C 0.02825(15) 0.0488(3) 0.0972(2)
C19 C -0.02966(15) 0.0830(3) -0.0770(2)
H3 H -0.0012(16) 0.220(4) 0.033(3)
H4 H 0.0468(15) 0.085(3) 0.162(3)
H5 H -0.0524(15) 0.143(3) -0.133(2)
C19D C 0.02966(15) -0.0830(3) 0.0770(2)
C17D C 0.00157(17) -0.1320(3) -0.0192(2)
C18D C -0.02825(15) -0.0488(3) -0.0972(2)
H4D H -0.0468(15) -0.085(3) -0.162(3)
H3D H 0.0012(16) -0.220(4) -0.033(3)
H5D H 0.0524(15) -0.143(3) 0.133(2)
loop_
_geom_bond_atom_site_label_1
_geom_bond_atom_site_label_2
_geom_bond_site_symmetry_1
_geom_bond_site_symmetry_2
C1 C2 1_555 1_555
C2 C3 1_555 1_555
C3 C1 1_555 1_555
C4 C3 1_555 1_555
C5 C4 1_555 1_555
C6 C4 1_555 1_555
C7 C3 1_555 1_555
C8 C7 1_555 1_555
C9 C8 1_555 1_555
C10 C9 1_555 1_555
C11 C9 1_555 1_555
C12 C8 1_555 1_555
C13 C12 1_555 1_555
C14 C12 1_555 1_555
C15 C7 1_555 1_555
C16 C15 1_555 1_555
C17 C18 1_555 1_555
C18 H4 1_555 1_555
C19 C17 1_555 1_555
H1 C1 1_555 1_555
H2 C1 1_555 1_555
H3 C17 1_555 1_555
H5 C19 1_555 1_555
H6 C2 1_555 1_555
H7 C2 1_555 1_555
H8 C6 1_555 1_555
H9 C5 1_555 1_555
H10 C5 1_555 1_555
H11 C6 1_555 1_555
H12 C10 1_555 1_555
H13 C10 1_555 1_555
H14 C11 1_555 1_555
H15 C11 1_555 1_555
H16 C13 1_555 1_555
H17 C13 1_555 1_555
H18 C14 1_555 1_555
H19 C14 1_555 1_555
C15F C16 1_555 1_555
C7F C15F 1_555 1_555
C3F C7F 1_555 1_555
C1F C3F 1_555 1_555
C2F C3F 1_555 1_555
C4F C7F 1_555 1_555
C5F C4F 1_555 1_555
C6F C4F 1_555 1_555
C8F C15F 1_555 1_555
C9F C8F 1_555 1_555
C10F C9F 1_555 1_555
C11F C9F 1_555 1_555
C12F C8F 1_555 1_555
C13F C12F 1_555 1_555
C14F C12F 1_555 1_555
H18F C14F 1_555 1_555
H19F C14F 1_555 1_555
H16F C13F 1_555 1_555
H17F C13F 1_555 1_555
H14F C11F 1_555 1_555
H15F C11F 1_555 1_555
H12F C10F 1_555 1_555
H13F C10F 1_555 1_555
H8F C6F 1_555 1_555
H11F C6F 1_555 1_555
H9F C5F 1_555 1_555
H10F C5F 1_555 1_555
H6F C2F 1_555 1_555
H7F C2F 1_555 1_555
H1F C1F 1_555 1_555
H2F C1F 1_555 1_555
C19D C18 1_555 1_555
C17D C19D 1_555 1_555
C18D C19 1_555 1_555
H4D C18D 1_555 1_555
H3D C17D 1_555 1_555
H5D C19D 1_555 1_555
C4 C7 1_555 1_555
C5 C6 1_555 1_555
C8 C15 1_555 1_555
C9 C12 1_555 1_555
C10 C11 1_555 1_555
C13 C14 1_555 1_555
C7F C8F 1_555 1_555
C3F C4F 1_555 1_555
C1F C2F 1_555 1_555
C5F C6F 1_555 1_555
C9F C12F 1_555 1_555
C10F C11F 1_555 1_555
C13F C14F 1_555 1_555
C17D C18D 1_555 1_555

#END
