
#######################################################################
#
#                 Cambridge Crystallographic Data Centre
#                                CCDC 
#
#######################################################################
#
# If this CIF has been generated from an entry in the Cambridge 
# Structural Database, then it will include bibliographic, chemical, 
# crystal, experimental, refinement or atomic coordinate data resulting 
# from the CCDC's data processing and validation procedures.
#
#######################################################################

data_TIHYIV
_chemical_formula_moiety         'C18 H13 N3 O1,H2 O1'
_chemical_name_systematic        
'1-{[(1H-benzimidazol-2-yl)iminio]methyl}naphthalen-2-olate monohydrate'
_symmetry_cell_setting           orthorhombic
_symmetry_space_group_name_H-M   'P 21 21 2'
_symmetry_Int_Tables_number      18
_space_group_name_Hall           'P 2 2ab'
loop_
_symmetry_equiv_pos_site_id
_symmetry_equiv_pos_as_xyz
1 x,y,z
2 -x,-y,z
3 1/2-x,1/2+y,-z
4 1/2+x,1/2-y,-z
_cell_length_a                   14.474(2)
_cell_length_b                   17.242(2)
_cell_length_c                   5.8841(9)
_cell_angle_alpha                90
_cell_angle_beta                 90
_cell_angle_gamma                90
_cell_volume                     1468.44
_cell_formula_units_Z            4
loop_
_atom_site_label
_atom_site_type_symbol
_atom_site_fract_x
_atom_site_fract_y
_atom_site_fract_z
O1 O -0.5304(4) -0.6585(4) -0.4945(11)
N1 N -0.6541(5) -0.7215(4) -0.2492(13)
H1 H -0.595520 -0.711485 -0.277059
N2 N -0.7597(4) -0.7859(5) 0.0070(13)
H2 H -0.815(7) -0.763(5) -0.052(17)
N3 N -0.6069(5) -0.7961(5) 0.0644(15)
C1 C -0.5937(6) -0.6315(6) -0.6230(17)
C2 C -0.5708(6) -0.5867(6) -0.8198(17)
H3 H -0.507601 -0.575859 -0.849358
C3 C -0.6341(6) -0.5594(6) -0.9634(19)
H4 H -0.614844 -0.531187 -1.093674
C4 C -0.7353(6) -0.5725(5) -0.9235(17)
C5 C -0.7971(6) -0.5441(6) -1.0786(18)
H5 H -0.776259 -0.516084 -1.207740
C6 C -0.8904(6) -0.5569(6) -1.045(2)
H6 H -0.934227 -0.538019 -1.151462
C7 C -0.9198(6) -0.5975(6) -0.8544(17)
H7 H -0.983999 -0.606347 -0.833103
C8 C -0.8578(6) -0.6254(5) -0.6942(17)
H8 H -0.879072 -0.651671 -0.562364
C9 C -0.7596(5) -0.6135(5) -0.7320(15)
C10 C -0.6924(6) -0.6451(5) -0.5760(16)
C11 C -0.7170(6) -0.6902(5) -0.3928(16)
H9 H -0.780732 -0.699888 -0.366068
C12 C -0.6730(6) -0.7669(5) -0.0655(16)
C13 C -0.7488(5) -0.8298(5) 0.2008(14)
C14 C -0.6537(6) -0.8364(5) 0.2353(16)
C15 C -0.6207(6) -0.8783(6) 0.4167(16)
H10 H -0.556071 -0.884204 0.439694
C16 C -0.6829(6) -0.9115(5) 0.5645(17)
H11 H -0.660733 -0.939166 0.692983
C17 C -0.7792(7) -0.9051(6) 0.5286(17)
H12 H -0.821192 -0.928937 0.631214
C18 C -0.8117(6) -0.8646(6) 0.3465(17)
H13 H -0.876194 -0.860240 0.319834
O2 O -0.4247(4) -0.7498(4) -0.7906(13)
H14 H -0.379110 -0.782528 -0.781357
H15 H -0.426142 -0.721320 -0.668451
loop_
_geom_bond_atom_site_label_1
_geom_bond_atom_site_label_2
_geom_bond_site_symmetry_1
_geom_bond_site_symmetry_2
O1 C1 1_555 1_555
N1 H1 1_555 1_555
N2 H2 1_555 1_555
N3 C12 1_555 1_555
C1 C2 1_555 1_555
C2 H3 1_555 1_555
C3 C2 1_555 1_555
H4 C3 1_555 1_555
C4 C3 1_555 1_555
C5 C4 1_555 1_555
H5 C5 1_555 1_555
C6 C5 1_555 1_555
H6 C6 1_555 1_555
C7 C6 1_555 1_555
H7 C7 1_555 1_555
C8 C7 1_555 1_555
H8 C8 1_555 1_555
C9 C4 1_555 1_555
C10 C1 1_555 1_555
C11 N1 1_555 1_555
H9 C11 1_555 1_555
C12 N1 1_555 1_555
C13 N2 1_555 1_555
C14 N3 1_555 1_555
C15 C14 1_555 1_555
H10 C15 1_555 1_555
C16 C15 1_555 1_555
H11 C16 1_555 1_555
C17 C16 1_555 1_555
H12 C17 1_555 1_555
C18 C13 1_555 1_555
H13 C18 1_555 1_555
O2 H14 1_555 1_555
H15 O2 1_555 1_555
N2 C12 1_555 1_555
C8 C9 1_555 1_555
C9 C10 1_555 1_555
C10 C11 1_555 1_555
C13 C14 1_555 1_555
C17 C18 1_555 1_555

#END
