
#######################################################################
#
#                 Cambridge Crystallographic Data Centre
#                                CCDC 
#
#######################################################################
#
# If this CIF has been generated from an entry in the Cambridge 
# Structural Database, then it will include bibliographic, chemical, 
# crystal, experimental, refinement or atomic coordinate data resulting 
# from the CCDC's data processing and validation procedures.
#
#######################################################################

data_TIHYAN
_chemical_formula_moiety         'C24 H27 N1 O3 S1'
_chemical_name_systematic        
'2-(1-phenyl-6,7,8,9-tetrahydro-5H-pyrrolo[1,2-a]azepin-9-yl)ethyl 4-methylbenzene-1-sulfonate'
_symmetry_cell_setting           monoclinic
_symmetry_space_group_name_H-M   'P 21'
_symmetry_Int_Tables_number      4
_space_group_name_Hall           'P 2yb'
loop_
_symmetry_equiv_pos_site_id
_symmetry_equiv_pos_as_xyz
1 x,y,z
2 -x,1/2+y,-z
_cell_length_a                   10.7131(2)
_cell_length_b                   8.6452(2)
_cell_length_c                   11.5222(2)
_cell_angle_alpha                90
_cell_angle_beta                 94.6460(10)
_cell_angle_gamma                90
_cell_volume                     1063.64
_exptl_crystal_colour            colorless
_exptl_crystal_description       block
_cell_formula_units_Z            2
loop_
_atom_site_label
_atom_site_type_symbol
_atom_site_fract_x
_atom_site_fract_y
_atom_site_fract_z
S1 S 0.35282(9) 0.50322(12) 0.53947(6)
O1 O 0.3383(2) 0.5006(3) 0.40281(16)
N1 N 0.3531(2) 0.4293(3) -0.0574(2)
C1 C 0.1966(3) 0.1493(4) 0.1199(3)
O2 O 0.4801(3) 0.5280(5) 0.5785(2)
C2 C 0.0842(3) 0.0711(4) 0.0910(4)
H1 H 0.0417 0.0855 0.0162
O3 O 0.2906(4) 0.3648(4) 0.5718(2)
C3 C 0.0336(4) -0.0279(5) 0.1704(5)
H2 H -0.0429 -0.0803 0.1495
C4 C 0.0943(4) -0.0497(5) 0.2793(5)
H3 H 0.0608 -0.1187 0.3329
C5 C 0.2036(4) 0.0289(5) 0.3099(3)
H4 H 0.2443 0.0160 0.3856
C6 C 0.2545(3) 0.1264(4) 0.2315(3)
H5 H 0.3306 0.1789 0.2539
C7 C 0.2547(3) 0.2423(4) 0.0327(2)
C8 C 0.2695(3) 0.1963(4) -0.0839(3)
H6 H 0.2422 0.1015 -0.1190
C9 C 0.3293(3) 0.3118(4) -0.1358(3)
H7 H 0.3514 0.3115 -0.2140
C10 C 0.3066(3) 0.3887(4) 0.0470(2)
C11 C 0.3008(2) 0.4973(4) 0.1485(2)
H8 H 0.2446 0.4459 0.2020
C12 C 0.2363(3) 0.6510(4) 0.1133(3)
H9 H 0.1570 0.6269 0.0667
H10 H 0.2142 0.7036 0.1851
C13 C 0.3091(3) 0.7645(4) 0.0444(3)
H11 H 0.3911 0.7836 0.0881
H12 H 0.2632 0.8640 0.0399
C14 C 0.3326(4) 0.7147(5) -0.0790(3)
H13 H 0.2511 0.6927 -0.1226
H14 H 0.3718 0.8017 -0.1185
C15 C 0.4153(3) 0.5740(4) -0.0846(3)
H15 H 0.4445 0.5663 -0.1637
H16 H 0.4901 0.5877 -0.0291
C16 C 0.4265(2) 0.5189(4) 0.2204(2)
H17 H 0.4649 0.4160 0.2360
H18 H 0.4833 0.5789 0.1739
C17 C 0.4155(3) 0.6006(4) 0.3348(3)
H19 H 0.4993 0.6159 0.3761
H20 H 0.3753 0.7029 0.3218
C18 C 0.2657(3) 0.6644(4) 0.5789(3)
C19 C 0.1425(4) 0.6440(5) 0.6001(3)
H21 H 0.1056 0.5442 0.5937
C20 C 0.0722(4) 0.7703(5) 0.6309(4)
H22 H -0.0130 0.7556 0.6456
C21 C 0.1229(3) 0.9156(5) 0.6405(3)
C22 C 0.2475(3) 0.9328(4) 0.6199(3)
H23 H 0.2850 1.0323 0.6275
C23 C 0.3189(3) 0.8091(5) 0.5887(3)
H24 H 0.4041 0.8237 0.5740
C24 C 0.0466(4) 1.0513(6) 0.6744(4)
H25 H 0.0889 1.1475 0.6555
H26 H 0.0372 1.0477 0.7583
H27 H -0.0363 1.0475 0.6317
loop_
_geom_bond_atom_site_label_1
_geom_bond_atom_site_label_2
_geom_bond_site_symmetry_1
_geom_bond_site_symmetry_2
S1 O1 1_555 1_555
O1 C17 1_555 1_555
N1 C9 1_555 1_555
C1 C2 1_555 1_555
O2 S1 1_555 1_555
C2 H1 1_555 1_555
O3 S1 1_555 1_555
C3 C2 1_555 1_555
H2 C3 1_555 1_555
C4 C3 1_555 1_555
H3 C4 1_555 1_555
C5 C4 1_555 1_555
H4 C5 1_555 1_555
C6 C1 1_555 1_555
H5 C6 1_555 1_555
C7 C1 1_555 1_555
C8 C7 1_555 1_555
H6 C8 1_555 1_555
C9 C8 1_555 1_555
H7 C9 1_555 1_555
C10 N1 1_555 1_555
C11 C10 1_555 1_555
H8 C11 1_555 1_555
C12 C11 1_555 1_555
H9 C12 1_555 1_555
H10 C12 1_555 1_555
C13 C12 1_555 1_555
H11 C13 1_555 1_555
H12 C13 1_555 1_555
C14 C13 1_555 1_555
H13 C14 1_555 1_555
H14 C14 1_555 1_555
C15 N1 1_555 1_555
H15 C15 1_555 1_555
H16 C15 1_555 1_555
C16 C11 1_555 1_555
H17 C16 1_555 1_555
H18 C16 1_555 1_555
C17 C16 1_555 1_555
H19 C17 1_555 1_555
H20 C17 1_555 1_555
C18 S1 1_555 1_555
C19 C18 1_555 1_555
H21 C19 1_555 1_555
C20 C19 1_555 1_555
H22 C20 1_555 1_555
C21 C20 1_555 1_555
C22 C21 1_555 1_555
H23 C22 1_555 1_555
C23 C18 1_555 1_555
H24 C23 1_555 1_555
C24 C21 1_555 1_555
H25 C24 1_555 1_555
H26 C24 1_555 1_555
H27 C24 1_555 1_555
C5 C6 1_555 1_555
C7 C10 1_555 1_555
C14 C15 1_555 1_555
C22 C23 1_555 1_555

#END
