
#######################################################################
#
#                 Cambridge Crystallographic Data Centre
#                                CCDC 
#
#######################################################################
#
# If this CIF has been generated from an entry in the Cambridge 
# Structural Database, then it will include bibliographic, chemical, 
# crystal, experimental, refinement or atomic coordinate data resulting 
# from the CCDC's data processing and validation procedures.
#
#######################################################################

data_TIJBAS
_chemical_name_common            '2,3-dimethoxybenzaldehyde oxime'
_chemical_formula_moiety         'C9 H11 N1 O3'
_chemical_name_systematic        1-(2,3-dimethoxyphenyl)-N-hydroxymethanimine
_symmetry_cell_setting           orthorhombic
_symmetry_space_group_name_H-M   'P 21 21 21'
_symmetry_Int_Tables_number      19
_space_group_name_Hall           'P 2ac 2ab'
loop_
_symmetry_equiv_pos_site_id
_symmetry_equiv_pos_as_xyz
1 x,y,z
2 1/2-x,-y,1/2+z
3 -x,1/2+y,1/2-z
4 1/2+x,1/2-y,-z
_cell_length_a                   4.6775(2)
_cell_length_b                   13.0996(5)
_cell_length_c                   14.1984(5)
_cell_angle_alpha                90
_cell_angle_beta                 90
_cell_angle_gamma                90
_cell_volume                     869.984
_exptl_crystal_colour            colorless
_exptl_crystal_description       needle
_cell_formula_units_Z            4
loop_
_atom_site_label
_atom_site_type_symbol
_atom_site_fract_x
_atom_site_fract_y
_atom_site_fract_z
O1 O -0.3161(6) 0.81289(19) 0.42174(19)
H1 H -0.382(10) 0.799(3) 0.485(3)
O2 O 0.3629(5) 0.73710(18) 0.18056(18)
O3 O 0.6683(6) 0.57595(18) 0.1198(2)
N1 N -0.1250(7) 0.7305(2) 0.4137(2)
C1 C 0.1671(8) 0.6379(3) 0.3072(3)
C2 C 0.3440(8) 0.6450(2) 0.2283(3)
C3 C 0.5135(8) 0.5622(2) 0.1997(3)
C4 C 0.5069(9) 0.4725(3) 0.2525(2)
H2 H 0.620619 0.415756 0.234431
C5 C 0.3334(9) 0.4664(3) 0.3318(3)
H3 H 0.332576 0.405472 0.368039
C6 C 0.1631(9) 0.5468(3) 0.3588(3)
H4 H 0.042859 0.540487 0.412457
C7 C -0.0229(8) 0.7232(2) 0.3309(3)
H5 H -0.069638 0.772807 0.284541
C8 C 0.2048(9) 0.7399(3) 0.0942(3)
H6 H 0.230310 0.806598 0.064099
H7 H 0.001542 0.728827 0.107410
H8 H 0.274481 0.686165 0.052004
C9 C 0.8511(10) 0.4933(3) 0.0919(3)
H9 H 0.952242 0.511808 0.033893
H10 H 0.735578 0.432080 0.080781
H11 H 0.990297 0.479650 0.141905
loop_
_geom_bond_atom_site_label_1
_geom_bond_atom_site_label_2
_geom_bond_site_symmetry_1
_geom_bond_site_symmetry_2
O1 H1 1_555 1_555
O2 C2 1_555 1_555
O3 C3 1_555 1_555
N1 O1 1_555 1_555
C1 C2 1_555 1_555
C2 C3 1_555 1_555
C3 C4 1_555 1_555
C4 H2 1_555 1_555
C5 C4 1_555 1_555
H3 C5 1_555 1_555
C6 C1 1_555 1_555
H4 C6 1_555 1_555
C7 N1 1_555 1_555
H5 C7 1_555 1_555
C8 O2 1_555 1_555
H6 C8 1_555 1_555
H7 C8 1_555 1_555
H8 C8 1_555 1_555
C9 O3 1_555 1_555
H9 C9 1_555 1_555
H10 C9 1_555 1_555
H11 C9 1_555 1_555
C1 C7 1_555 1_555
C5 C6 1_555 1_555

#END
