
#######################################################################
#
#                 Cambridge Crystallographic Data Centre
#                                CCDC 
#
#######################################################################
#
# If this CIF has been generated from an entry in the Cambridge 
# Structural Database, then it will include bibliographic, chemical, 
# crystal, experimental, refinement or atomic coordinate data resulting 
# from the CCDC's data processing and validation procedures.
#
#######################################################################

data_TIJCEW
_chemical_formula_moiety         'C25 H21 N1 O4'
_chemical_name_systematic        
'Ethyl 4-(3-benzyl-2-oxo-5-phenyl-2,3-dihydro-1,3-oxazol-4-yl)benzoate'
_symmetry_cell_setting           monoclinic
_symmetry_space_group_name_H-M   'C 2/c'
_symmetry_Int_Tables_number      15
_space_group_name_Hall           '-C 2yn'
loop_
_symmetry_equiv_pos_site_id
_symmetry_equiv_pos_as_xyz
1 x,y,z
2 -x,y,1/2-z
3 1/2+x,1/2+y,z
4 1/2-x,1/2+y,1/2-z
5 -x,-y,-z
6 x,-y,1/2+z
7 1/2-x,1/2-y,-z
8 1/2+x,1/2-y,1/2+z
_cell_length_a                   22.874(3)
_cell_length_b                   14.556(2)
_cell_length_c                   12.4930(12)
_cell_angle_alpha                90
_cell_angle_beta                 94.773(9)
_cell_angle_gamma                90
_cell_volume                     4145.17
_exptl_crystal_colour            colorless
_exptl_crystal_description       block
_cell_formula_units_Z            8
loop_
_atom_site_label
_atom_site_type_symbol
_atom_site_fract_x
_atom_site_fract_y
_atom_site_fract_z
C1 C 0.18130(14) 0.0108(2) 0.5559(2)
H1 H 0.1613 0.0369 0.4955
C2 C 0.24073(17) -0.0029(3) 0.5575(3)
H2 H 0.2608 0.0155 0.4993
C3 C 0.27028(17) -0.0431(3) 0.6435(4)
H3 H 0.3104 -0.0536 0.6435
C4 C 0.24139(19) -0.0682(3) 0.7307(3)
H4 H 0.2619 -0.0948 0.7902
C5 C 0.18097(15) -0.0536(2) 0.7300(2)
H5 H 0.1611 -0.0711 0.7888
C6 C 0.15075(11) -0.01340(18) 0.64193(19)
C7 C 0.08632(11) 0.00664(18) 0.64251(18)
H6 H 0.0700 0.0185 0.5696
H7 H 0.0666 -0.0468 0.6689
C8 C 0.06620(10) 0.0758(2) 0.81608(18)
N1 N 0.07540(8) 0.08592(15) 0.71001(13)
C9 C 0.08340(9) 0.17937(18) 0.68763(15)
C10 C 0.07693(10) 0.22539(18) 0.77898(15)
C11 C 0.07618(10) 0.32105(18) 0.81059(16)
C12 C 0.07561(11) 0.3926(2) 0.73650(19)
H8 H 0.0772 0.3793 0.6640
C13 C 0.07281(13) 0.4824(2) 0.7688(2)
H9 H 0.0732 0.5296 0.7187
C14 C 0.06940(13) 0.5025(2) 0.8763(2)
H10 H 0.0670 0.5633 0.8983
C15 C 0.06957(14) 0.4341(2) 0.9498(2)
H11 H 0.0673 0.4484 1.0218
C16 C 0.07312(11) 0.3438(2) 0.91883(17)
H12 H 0.0735 0.2975 0.9702
C17 C 0.09542(10) 0.20957(17) 0.57845(15)
C18 C 0.14949(11) 0.24660(19) 0.55989(16)
H13 H 0.1776 0.2557 0.6171
C19 C 0.16208(11) 0.27016(19) 0.45682(17)
H14 H 0.1985 0.2950 0.4451
C20 C 0.12054(11) 0.25673(18) 0.37154(15)
C21 C 0.06623(12) 0.2220(2) 0.38952(17)
H15 H 0.0379 0.2148 0.3323
C22 C 0.05339(11) 0.19761(18) 0.49280(16)
H16 H 0.0168 0.1734 0.5043
C23 C 0.13239(13) 0.2786(2) 0.25816(18)
C24 C 0.20512(15) 0.3160(3) 0.1409(2)
H17 H 0.1895 0.3748 0.1156
H18 H 0.1896 0.2685 0.0919
C25 C 0.26987(14) 0.3169(3) 0.1459(2)
H19 H 0.2822 0.3290 0.0757
H20 H 0.2848 0.2583 0.1706
H21 H 0.2847 0.3640 0.1946
O1 O 0.06635(7) 0.16193(13) 0.85856(10)
O2 O 0.09532(9) 0.27766(19) 0.18407(13)
O3 O 0.18846(9) 0.29771(15) 0.24944(11)
O4 O 0.05846(8) 0.00723(14) 0.86719(13)
H22? H 0.0603 0.1761 0.9294
loop_
_geom_bond_atom_site_label_1
_geom_bond_atom_site_label_2
_geom_bond_site_symmetry_1
_geom_bond_site_symmetry_2
C1 H1 1_555 1_555
C2 C1 1_555 1_555
H2 C2 1_555 1_555
C3 C2 1_555 1_555
H3 C3 1_555 1_555
C4 C3 1_555 1_555
H4 C4 1_555 1_555
C5 C4 1_555 1_555
H5 C5 1_555 1_555
C6 C1 1_555 1_555
C7 C6 1_555 1_555
H6 C7 1_555 1_555
H7 C7 1_555 1_555
C8 N1 1_555 1_555
N1 C7 1_555 1_555
C9 N1 1_555 1_555
C10 C9 1_555 1_555
C11 C10 1_555 1_555
C12 C11 1_555 1_555
H8 C12 1_555 1_555
C13 C12 1_555 1_555
H9 C13 1_555 1_555
C14 C13 1_555 1_555
H10 C14 1_555 1_555
C15 C14 1_555 1_555
H11 C15 1_555 1_555
C16 C11 1_555 1_555
H12 C16 1_555 1_555
C17 C9 1_555 1_555
C18 C17 1_555 1_555
H13 C18 1_555 1_555
C19 C18 1_555 1_555
H14 C19 1_555 1_555
C20 C19 1_555 1_555
C21 C20 1_555 1_555
H15 C21 1_555 1_555
C22 C17 1_555 1_555
H16 C22 1_555 1_555
C23 C20 1_555 1_555
C24 H17 1_555 1_555
H18 C24 1_555 1_555
C25 C24 1_555 1_555
H19 C25 1_555 1_555
H20 C25 1_555 1_555
H21 C25 1_555 1_555
O1 C8 1_555 1_555
O2 C23 1_555 1_555
O3 C23 1_555 1_555
O4 C8 1_555 1_555
C5 C6 1_555 1_555
C10 O1 1_555 1_555
C15 C16 1_555 1_555
C21 C22 1_555 1_555
C24 O3 1_555 1_555

#END
