
#######################################################################
#
#                 Cambridge Crystallographic Data Centre
#                                CCDC 
#
#######################################################################
#
# If this CIF has been generated from an entry in the Cambridge 
# Structural Database, then it will include bibliographic, chemical, 
# crystal, experimental, refinement or atomic coordinate data resulting 
# from the CCDC's data processing and validation procedures.
#
#######################################################################

data_TIJCIA
_chemical_formula_moiety         'C24 H17 N1 O2'
_chemical_name_systematic        
3-Benzyl-4-phenylnaphtho[2,1-d][1,3]oxazol-2(3H)-one
_symmetry_cell_setting           monoclinic
_symmetry_space_group_name_H-M   'P 21/c'
_symmetry_Int_Tables_number      14
_space_group_name_Hall           '-P 2ybc'
loop_
_symmetry_equiv_pos_site_id
_symmetry_equiv_pos_as_xyz
1 x,y,z
2 -x,1/2+y,1/2-z
3 -x,-y,-z
4 x,1/2-y,1/2+z
_cell_length_a                   6.9736(2)
_cell_length_b                   17.1873(6)
_cell_length_c                   15.2945(5)
_cell_angle_alpha                90
_cell_angle_beta                 97.093(2)
_cell_angle_gamma                90
_cell_volume                     1819.13
_exptl_crystal_colour            colorless
_exptl_crystal_description       block
_cell_formula_units_Z            4
loop_
_atom_site_label
_atom_site_type_symbol
_atom_site_fract_x
_atom_site_fract_y
_atom_site_fract_z
C1 C 0.25901(15) 0.52294(7) 0.91536(9)
O1 O 0.25896(13) 0.47186(5) 0.84563(7)
C2 C 0.26559(15) 0.59820(7) 0.88639(8)
N1 N 0.26750(14) 0.59276(7) 0.79463(7)
C3 C 0.24778(16) 0.56279(8) 1.06276(9)
C4 C 0.26647(16) 0.66085(7) 0.94628(8)
C5 C 0.24889(15) 0.50047(8) 1.00229(9)
C6 C 0.25593(17) 0.64024(8) 1.03277(9)
H1 H 0.2541 0.6800 1.0740
C7 C 0.2804(2) 0.74456(8) 0.92375(9)
C8 C 0.23645(17) 0.42265(8) 1.03166(11)
H2 H 0.2363 0.3816 0.9921
C9 C 0.0595(2) 0.67757(8) 0.69079(8)
C10 C 0.26092(19) 0.65273(9) 0.72646(9)
H3 H 0.3254 0.6332 0.6782
H4 H 0.3321 0.6979 0.7507
C11 C 0.26304(19) 0.51589(9) 0.77097(11)
O2 O 0.26186(18) 0.48793(7) 0.69848(8)
C12 C 0.22473(19) 0.40873(10) 1.11846(13)
H5 H 0.2142 0.3578 1.1377
C13 C 0.23924(19) 0.54470(10) 1.15248(10)
H6 H 0.2412 0.5846 1.1937
C14 C -0.0554(2) 0.62997(10) 0.63320(10)
H7 H -0.0075 0.5822 0.6173
C15 C 0.2282(2) 0.46951(12) 1.17897(12)
H8 H 0.2229 0.4585 1.2382
C16 C 0.4424(2) 0.77441(9) 0.89061(10)
H9 H 0.5410 0.7409 0.8790
C17 C 0.1359(3) 0.79561(10) 0.94093(11)
H10 H 0.0273 0.7770 0.9638
C18 C 0.4589(4) 0.85299(11) 0.87475(12)
H11 H 0.5679 0.8723 0.8528
C19 C -0.0136(3) 0.74794(10) 0.71328(12)
H12 H 0.0611 0.7810 0.7517
C20 C -0.3089(3) 0.72154(19) 0.62134(18)
H13 H -0.4324 0.7366 0.5975
C21 C -0.2388(3) 0.65186(14) 0.59899(13)
H14 H -0.3145 0.6190 0.5607
C22 C 0.1529(5) 0.87421(12) 0.92412(15)
H15 H 0.0546 0.9081 0.9350
C23 C -0.2010(4) 0.76981(15) 0.67830(16)
H16 H -0.2515 0.8172 0.6940
C24 C 0.3136(5) 0.90243(12) 0.89152(14)
H17 H 0.3242 0.9554 0.8807
loop_
_geom_bond_atom_site_label_1
_geom_bond_atom_site_label_2
_geom_bond_site_symmetry_1
_geom_bond_site_symmetry_2
C1 O1 1_555 1_555
O1 C11 1_555 1_555
C2 C1 1_555 1_555
N1 C2 1_555 1_555
C3 C5 1_555 1_555
C4 C2 1_555 1_555
C5 C1 1_555 1_555
C6 C3 1_555 1_555
H1 C6 1_555 1_555
C7 C4 1_555 1_555
C8 C5 1_555 1_555
H2 C8 1_555 1_555
C9 C10 1_555 1_555
C10 N1 1_555 1_555
H3 C10 1_555 1_555
H4 C10 1_555 1_555
C11 N1 1_555 1_555
O2 C11 1_555 1_555
C12 C8 1_555 1_555
H5 C12 1_555 1_555
C13 C3 1_555 1_555
H6 C13 1_555 1_555
C14 C9 1_555 1_555
H7 C14 1_555 1_555
C15 C12 1_555 1_555
H8 C15 1_555 1_555
C16 C7 1_555 1_555
H9 C16 1_555 1_555
C17 C7 1_555 1_555
H10 C17 1_555 1_555
C18 C16 1_555 1_555
H11 C18 1_555 1_555
C19 C9 1_555 1_555
H12 C19 1_555 1_555
C20 H13 1_555 1_555
C21 C14 1_555 1_555
H14 C21 1_555 1_555
C22 C17 1_555 1_555
H15 C22 1_555 1_555
C23 C19 1_555 1_555
H16 C23 1_555 1_555
C24 C18 1_555 1_555
H17 C24 1_555 1_555
C4 C6 1_555 1_555
C13 C15 1_555 1_555
C20 C21 1_555 1_555
C20 C23 1_555 1_555
C22 C24 1_555 1_555

#END
