
#######################################################################
#
#                 Cambridge Crystallographic Data Centre
#                                CCDC 
#
#######################################################################
#
# If this CIF has been generated from an entry in the Cambridge 
# Structural Database, then it will include bibliographic, chemical, 
# crystal, experimental, refinement or atomic coordinate data resulting 
# from the CCDC's data processing and validation procedures.
#
#######################################################################

data_TIJDIB
_chemical_formula_moiety         'C16 H12 N2'
_chemical_name_systematic        3,6-Diphenylpyridazine
_symmetry_cell_setting           monoclinic
_symmetry_space_group_name_H-M   'C 2/c'
_symmetry_Int_Tables_number      15
_space_group_name_Hall           '-C 2yn'
loop_
_symmetry_equiv_pos_site_id
_symmetry_equiv_pos_as_xyz
1 x,y,z
2 -x,y,1/2-z
3 1/2+x,1/2+y,z
4 1/2-x,1/2+y,1/2-z
5 -x,-y,-z
6 x,-y,1/2+z
7 1/2-x,1/2-y,-z
8 1/2+x,1/2-y,1/2+z
_cell_length_a                   27.691(9)
_cell_length_b                   5.7527(18)
_cell_length_c                   7.609(3)
_cell_angle_alpha                90
_cell_angle_beta                 103.635(5)
_cell_angle_gamma                90
_cell_volume                     1177.94
_exptl_crystal_colour            colorless
_exptl_crystal_description       block
_cell_formula_units_Z            4
loop_
_atom_site_label
_atom_site_type_symbol
_atom_site_fract_x
_atom_site_fract_y
_atom_site_fract_z
C1 C 0.39971(5) 0.2197(2) 0.05520(17)
C2 C 0.36486(5) 0.0503(2) 0.06934(19)
H1 H 0.3747 -0.0801 0.1411
C3 C 0.31574(5) 0.0750(3) -0.0226(2)
H2 H 0.2927 -0.0388 -0.0122
C4 C 0.30072(5) 0.2667(3) -0.1295(2)
H3 H 0.2676 0.2831 -0.1904
C5 C 0.33485(5) 0.4344(3) -0.1460(2)
H4 H 0.3248 0.5634 -0.2191
C6 C 0.38395(5) 0.4114(2) -0.05446(19)
H5 H 0.4068 0.5256 -0.0663
C7 C 0.45231(5) 0.1980(2) 0.15704(17)
C8 C 0.47582(5) -0.0155(2) 0.20265(18)
H6 H 0.4589 -0.1543 0.1693
N1 N 0.47620(4) 0.39867(18) 0.20366(15)
C1A C 0.60029(5) 0.2197(2) 0.44480(17)
C2A C 0.63514(5) 0.0503(2) 0.43066(19)
H1A H 0.6253 -0.0801 0.3589
C3A C 0.68426(5) 0.0750(3) 0.5226(2)
H2A H 0.7073 -0.0388 0.5122
C4A C 0.69928(5) 0.2667(3) 0.6295(2)
H3A H 0.7324 0.2831 0.6904
C5A C 0.66515(5) 0.4344(3) 0.6460(2)
H4A H 0.6752 0.5634 0.7191
C6A C 0.61605(5) 0.4114(2) 0.55446(19)
H5A H 0.5932 0.5256 0.5663
C7A C 0.54769(5) 0.1980(2) 0.34296(17)
C8A C 0.52418(5) -0.0155(2) 0.29735(18)
H6A H 0.5411 -0.1543 0.3307
N1A N 0.52380(4) 0.39867(18) 0.29634(15)
loop_
_geom_bond_atom_site_label_1
_geom_bond_atom_site_label_2
_geom_bond_site_symmetry_1
_geom_bond_site_symmetry_2
C1 C2 1_555 1_555
C2 H1 1_555 1_555
C3 C2 1_555 1_555
H2 C3 1_555 1_555
C4 C3 1_555 1_555
H3 C4 1_555 1_555
C5 C4 1_555 1_555
H4 C5 1_555 1_555
C6 C1 1_555 1_555
H5 C6 1_555 1_555
C7 C1 1_555 1_555
C8 C7 1_555 1_555
H6 C8 1_555 1_555
N1 C7 1_555 1_555
C1A C2A 1_555 1_555
C2A H1A 1_555 1_555
C3A C2A 1_555 1_555
H2A C3A 1_555 1_555
C4A C3A 1_555 1_555
H3A C4A 1_555 1_555
C5A C4A 1_555 1_555
H4A C5A 1_555 1_555
C6A C1A 1_555 1_555
H5A C6A 1_555 1_555
C7A C1A 1_555 1_555
C8A C8 1_555 1_555
H6A C8A 1_555 1_555
N1A N1 1_555 1_555
C5 C6 1_555 1_555
C5A C6A 1_555 1_555
C7A C8A 1_555 1_555
C7A N1A 1_555 1_555

#END
