
#######################################################################
#
#                 Cambridge Crystallographic Data Centre
#                                CCDC 
#
#######################################################################
#
# If this CIF has been generated from an entry in the Cambridge 
# Structural Database, then it will include bibliographic, chemical, 
# crystal, experimental, refinement or atomic coordinate data resulting 
# from the CCDC's data processing and validation procedures.
#
#######################################################################

data_TIJDOH
_chemical_formula_moiety         'C36 H40 O22 S4 4-,2(C12 H14 N2 2+),6(H2 O1)'
_chemical_name_systematic        
"bis(1,1'-Dimethyl-4,4'-bipyridinium) (6,9,12,15,18,29,32,35,38,41-decaoxapentacyclo[40.4.0.0^5,46^.0^19,24^.0^23,28^]hexatetraconta-1(46),2,4,19,21,23,25,27,42,44-decaene-2,22,25,45-tetrasulfonate) hexahydrate"
_symmetry_cell_setting           orthorhombic
_symmetry_space_group_name_H-M   'P n m a'
_symmetry_Int_Tables_number      62
_space_group_name_Hall           '-P 2ac 2n'
loop_
_symmetry_equiv_pos_site_id
_symmetry_equiv_pos_as_xyz
1 x,y,z
2 1/2-x,-y,1/2+z
3 -x,1/2+y,-z
4 1/2+x,1/2-y,1/2-z
5 -x,-y,-z
6 1/2+x,y,1/2-z
7 x,1/2-y,z
8 1/2-x,1/2+y,1/2+z
_cell_length_a                   14.067(3)
_cell_length_b                   31.391(6)
_cell_length_c                   14.279(3)
_cell_angle_alpha                90
_cell_angle_beta                 90
_cell_angle_gamma                90
_cell_volume                     6305.28
_exptl_crystal_colour            colorless
_exptl_crystal_description       Prism
_cell_formula_units_Z            4
loop_
_atom_site_label
_atom_site_type_symbol
_atom_site_fract_x
_atom_site_fract_y
_atom_site_fract_z
S1 S 0.64432(3) 0.347863(11) 0.12332(3)
S2 S 0.21805(3) 0.347153(11) -0.14177(2)
O1 O 0.45922(8) 0.36937(3) 0.19799(7)
O2 O 0.50524(10) 0.41245(3) 0.38122(8)
O3 O 0.62920(8) 0.48886(3) 0.44927(8)
O4 O 0.63874(8) 0.57347(3) 0.37738(7)
O5 O 0.59957(8) 0.62648(3) 0.21307(7)
O6 O 0.61228(8) 0.31378(3) 0.18447(8)
O7 O 0.73363(8) 0.33755(4) 0.07703(8)
O8 O 0.64692(8) 0.38955(4) 0.16808(9)
O9 O 0.25886(8) 0.31652(3) -0.20707(7)
O10 O 0.13173(8) 0.33053(4) -0.09802(8)
O11 O 0.20145(8) 0.38918(3) -0.18227(8)
C1 C 0.45751(10) 0.35800(4) 0.03412(10)
C2 C 0.55940(10) 0.35229(4) 0.02777(10)
C3 C 0.59981(11) 0.34742(4) -0.05942(11)
H1 H 0.6652 0.3401 -0.0634
C4 C 0.54826(11) 0.35287(5) -0.14261(10)
H2 H 0.5793 0.3507 -0.2015
C5 C 0.45259(11) 0.36133(4) -0.13826(10)
C6 C 0.40192(10) 0.35840(4) -0.05128(10)
C7 C 0.30001(10) 0.35398(4) -0.04570(10)
C8 C 0.25785(11) 0.35185(5) 0.04104(10)
H3 H 0.1916 0.3463 0.0447
C9 C 0.30900(11) 0.35758(5) 0.12411(10)
H4 H 0.2766 0.3586 0.1825
C10 C 0.40623(11) 0.36179(4) 0.12115(10)
C11 C 0.41418(12) 0.36452(5) 0.28776(10)
H5 H 0.3832 0.3363 0.2919
H6 H 0.3649 0.3867 0.2962
C12 C 0.48895(12) 0.36866(5) 0.36245(10)
H7 H 0.4676 0.3541 0.4202
H8 H 0.5487 0.3550 0.3412
C13 C 0.55577(12) 0.42020(5) 0.46672(10)
H9 H 0.5698 0.3926 0.4973
H10 H 0.5147 0.4368 0.5095
C14 C 0.64768(11) 0.44404(5) 0.45196(11)
H11 H 0.6924 0.4375 0.5036
H12 H 0.6773 0.4349 0.3924
C15 C 0.71545(11) 0.51243(5) 0.44540(12)
H13 H 0.7478 0.5071 0.3849
H14 H 0.7583 0.5031 0.4965
C16 C 0.69438(11) 0.55925(5) 0.45534(11)
H15 H 0.6592 0.5644 0.5143
H16 H 0.7547 0.5755 0.4580
C17 C 0.63302(11) 0.61887(5) 0.37519(10)
H17 H 0.6957 0.6310 0.3580
H18 H 0.6156 0.6297 0.4380
C18 C 0.55959(11) 0.63244(5) 0.30485(10)
H19 H 0.5013 0.6150 0.3119
H20 H 0.5427 0.6627 0.3144
S1D S 0.35568(3) 0.652137(11) -0.12332(3)
S2D S 0.78195(3) 0.652847(11) 0.14177(2)
O1D O 0.54078(8) 0.63063(3) -0.19799(7)
O2D O 0.49476(10) 0.58755(3) -0.38122(8)
O3D O 0.37080(8) 0.51114(3) -0.44927(8)
O4D O 0.36126(8) 0.42653(3) -0.37738(7)
O5D O 0.40043(8) 0.37352(3) -0.21307(7)
O6D O 0.38772(8) 0.68622(3) -0.18447(8)
O7D O 0.26637(8) 0.66245(4) -0.07703(8)
O8D O 0.35308(8) 0.61045(4) -0.16808(9)
O9D O 0.74114(8) 0.68348(3) 0.20707(7)
O10D O 0.86827(8) 0.66947(4) 0.09802(8)
O11D O 0.79855(8) 0.61082(3) 0.18227(8)
C1D C 0.54249(10) 0.64200(4) -0.03412(10)
C2D C 0.44060(10) 0.64771(4) -0.02777(10)
C3D C 0.40019(11) 0.65258(4) 0.05942(11)
H1D H 0.3348 0.6599 0.0634
C4D C 0.45174(11) 0.64713(5) 0.14261(10)
H2D H 0.4207 0.6493 0.2015
C5D C 0.54741(11) 0.63867(4) 0.13826(10)
C6D C 0.59808(10) 0.64160(4) 0.05128(10)
C7D C 0.69999(10) 0.64602(4) 0.04570(10)
C8D C 0.74215(11) 0.64815(5) -0.04104(10)
H3D H 0.8084 0.6537 -0.0447
C9D C 0.69100(11) 0.64242(5) -0.12411(10)
H4D H 0.7234 0.6414 -0.1825
C10D C 0.59377(11) 0.63821(4) -0.12115(10)
C11D C 0.58582(12) 0.63548(5) -0.28776(10)
H5D H 0.6168 0.6637 -0.2919
H6D H 0.6351 0.6133 -0.2962
C12D C 0.51105(12) 0.63134(5) -0.36245(10)
H7D H 0.5324 0.6459 -0.4202
H8D H 0.4513 0.6450 -0.3412
C13D C 0.44423(12) 0.57980(5) -0.46672(10)
H9D H 0.4302 0.6074 -0.4973
H10D H 0.4853 0.5632 -0.5095
C14D C 0.35232(11) 0.55596(5) -0.45196(11)
H11D H 0.3076 0.5625 -0.5036
H12D H 0.3227 0.5651 -0.3924
C15D C 0.28455(11) 0.48757(5) -0.44540(12)
H13D H 0.2522 0.4929 -0.3849
H14D H 0.2417 0.4969 -0.4965
C16D C 0.30562(11) 0.44075(5) -0.45534(11)
H15D H 0.3408 0.4356 -0.5143
H16D H 0.2453 0.4245 -0.4580
C17D C 0.36698(11) 0.38113(5) -0.37519(10)
H17D H 0.3043 0.3690 -0.3580
H18D H 0.3844 0.3703 -0.4380
C18D C 0.44041(11) 0.36756(5) -0.30485(10)
H19D H 0.4987 0.3850 -0.3119
H20D H 0.4573 0.3373 -0.3144
N1 N 0.45137(9) 0.50861(4) 0.24000(9)
C19 C 0.43135(12) 0.51192(5) 0.34154(10)
H21 H 0.3938 0.4873 0.3616
H22 H 0.3956 0.5381 0.3539
H23 H 0.4914 0.5126 0.3763
C20 C 0.49276(12) 0.47307(5) 0.20685(11)
H24 H 0.5087 0.4506 0.2487
C21 C 0.51212(12) 0.46893(5) 0.11298(11)
H25 H 0.5407 0.4435 0.0902
C22 C 0.49014(10) 0.50180(4) 0.05089(10)
C23 C 0.44922(11) 0.53861(5) 0.08832(10)
H26 H 0.4348 0.5620 0.0485
C24 C 0.42966(11) 0.54111(5) 0.18261(11)
H27 H 0.4006 0.5660 0.2073
N1D N 0.54863(9) 0.49139(4) -0.24000(9)
C19D C 0.56865(12) 0.48808(5) -0.34154(10)
H21D H 0.6062 0.5127 -0.3616
H22D H 0.6044 0.4619 -0.3539
H23D H 0.5086 0.4874 -0.3763
C20D C 0.50724(12) 0.52693(5) -0.20685(11)
H24D H 0.4913 0.5494 -0.2487
C21D C 0.48788(12) 0.53107(5) -0.11298(11)
H25D H 0.4593 0.5565 -0.0902
C22D C 0.50986(10) 0.49820(4) -0.05089(10)
C23D C 0.55078(11) 0.46139(5) -0.08832(10)
H26D H 0.5652 0.4380 -0.0485
C24D C 0.57034(11) 0.45889(5) -0.18261(11)
H27D H 0.5994 0.4340 -0.2073
N2 N 0.92699(13) 0.2500 0.59874(12)
N3 N 0.85742(14) 0.2500 0.11164(13)
C25 C 0.93902(17) 0.2500 0.70182(15)
C26 C 1.00313(16) 0.2500 0.54190(15)
H28 H 1.0653 0.2500 0.5679
C27 C 0.99141(15) 0.2500 0.44595(15)
H29 H 1.0455 0.2500 0.4062
C28 C 0.89987(16) 0.2500 0.40697(15)
C29 C 0.82303(16) 0.2500 0.46867(15)
H30 H 0.7600 0.2500 0.4448
C30 C 0.83798(16) 0.2500 0.56352(15)
H31 H 0.7851 0.2500 0.6049
C31 C 0.88517(15) 0.2500 0.30390(15)
C32 C 0.79421(16) 0.2500 0.26473(16)
H32 H 0.7401 0.2500 0.3046
C33 C 0.78188(16) 0.2500 0.16938(16)
H33 H 0.7195 0.2500 0.1440
C34 C 0.94701(17) 0.2500 0.14642(16)
H34 H 0.9996 0.2500 0.1047
C35 C 0.96259(17) 0.2500 0.24173(17)
H35 H 1.0257 0.2500 0.2654
C36 C 0.84040(19) 0.2500 0.00925(16)
O12 O 0.68254(10) 0.53672(4) 0.19875(9)
H36 H 0.7113(17) 0.5588(6) 0.1763(16)
H37 H 0.6577(18) 0.5424(8) 0.2530(11)
O13 O 0.76441(10) 0.45560(4) 0.22588(12)
H38 H 0.7300(15) 0.4348(5) 0.2059(17)
H39 H 0.7386(15) 0.4800(4) 0.2158(17)
O14 O 0.18564(14) 0.2500 0.67746(13)
H40 H 0.2033(17) 0.2710(5) 0.7105(14)
H40F H 0.2033(17) 0.2290(5) 0.7105(14)
O15 O 0.09035(17) 0.2500 0.97711(17)
H41 H 0.0619(18) 0.2597(11) 0.9281(14)
H41F H 0.0619(18) 0.2403(11) 0.9281(14)
H42? H 0.7935 0.2281 -0.0064
H43? H 0.9001 0.2440 -0.0236
H44? H 0.8164 0.2780 -0.0101
H45? H 0.9012 0.2269 0.7291
H46? H 0.9175 0.2773 0.7273
H47? H 1.0062 0.2457 0.7172
loop_
_geom_bond_atom_site_label_1
_geom_bond_atom_site_label_2
_geom_bond_site_symmetry_1
_geom_bond_site_symmetry_2
S1 O6 1_555 1_555
S2 O9 1_555 1_555
O1 C10 1_555 1_555
O2 C12 1_555 1_555
O3 C14 1_555 1_555
O4 C16 1_555 1_555
O5 C18 1_555 1_555
O7 S1 1_555 1_555
O8 S1 1_555 1_555
O10 S2 1_555 1_555
O11 S2 1_555 1_555
C1 C2 1_555 1_555
C2 S1 1_555 1_555
C3 C2 1_555 1_555
H1 C3 1_555 1_555
C4 C3 1_555 1_555
H2 C4 1_555 1_555
C5 C4 1_555 1_555
C6 C1 1_555 1_555
C7 S2 1_555 1_555
C8 C7 1_555 1_555
H3 C8 1_555 1_555
C9 C8 1_555 1_555
H4 C9 1_555 1_555
C10 C1 1_555 1_555
C11 O1 1_555 1_555
H5 C11 1_555 1_555
H6 C11 1_555 1_555
C12 C11 1_555 1_555
H7 C12 1_555 1_555
H8 C12 1_555 1_555
C13 O2 1_555 1_555
H9 C13 1_555 1_555
H10 C13 1_555 1_555
C14 C13 1_555 1_555
H11 C14 1_555 1_555
H12 C14 1_555 1_555
C15 O3 1_555 1_555
H13 C15 1_555 1_555
H14 C15 1_555 1_555
C16 C15 1_555 1_555
H15 C16 1_555 1_555
H16 C16 1_555 1_555
C17 O4 1_555 1_555
H17 C17 1_555 1_555
H18 C17 1_555 1_555
C18 C17 1_555 1_555
H19 C18 1_555 1_555
H20 C18 1_555 1_555
N1 C19 1_555 1_555
C19 H21 1_555 1_555
H22 C19 1_555 1_555
H23 C19 1_555 1_555
C20 N1 1_555 1_555
H24 C20 1_555 1_555
C21 C20 1_555 1_555
H25 C21 1_555 1_555
C22 C21 1_555 1_555
C23 C22 1_555 1_555
H26 C23 1_555 1_555
C24 N1 1_555 1_555
H27 C24 1_555 1_555
N2 C25 1_555 1_555
N3 C33 1_555 1_555
C26 N2 1_555 1_555
H28 C26 1_555 1_555
C27 C26 1_555 1_555
H29 C27 1_555 1_555
C28 C27 1_555 1_555
C29 C28 1_555 1_555
H30 C29 1_555 1_555
C30 N2 1_555 1_555
H31 C30 1_555 1_555
C31 C28 1_555 1_555
C32 C31 1_555 1_555
H32 C32 1_555 1_555
C33 C32 1_555 1_555
H33 C33 1_555 1_555
C34 N3 1_555 1_555
H34 C34 1_555 1_555
C35 C31 1_555 1_555
H35 C35 1_555 1_555
C36 N3 1_555 1_555
O12 H36 1_555 1_555
H37 O12 1_555 1_555
O13 H38 1_555 1_555
H39 O13 1_555 1_555
O14 H40 1_555 1_555
O15 H41 1_555 1_555
S1D O6D 1_555 1_555
S2D O9D 1_555 1_555
O1D C10D 1_555 1_555
O2D C12D 1_555 1_555
O3D C14D 1_555 1_555
O4D C16D 1_555 1_555
O5D C5 1_555 1_555
O7D S1D 1_555 1_555
O8D S1D 1_555 1_555
O10D S2D 1_555 1_555
O11D S2D 1_555 1_555
C1D C2D 1_555 1_555
C2D S1D 1_555 1_555
C3D C2D 1_555 1_555
H1D C3D 1_555 1_555
C4D C3D 1_555 1_555
H2D C4D 1_555 1_555
C5D O5 1_555 1_555
C6D C1D 1_555 1_555
C7D S2D 1_555 1_555
C8D C7D 1_555 1_555
H3D C8D 1_555 1_555
C9D C8D 1_555 1_555
H4D C9D 1_555 1_555
C10D C1D 1_555 1_555
C11D O1D 1_555 1_555
H5D C11D 1_555 1_555
H6D C11D 1_555 1_555
C12D C11D 1_555 1_555
H7D C12D 1_555 1_555
H8D C12D 1_555 1_555
C13D O2D 1_555 1_555
H9D C13D 1_555 1_555
H10D C13D 1_555 1_555
C14D C13D 1_555 1_555
H11D C14D 1_555 1_555
H12D C14D 1_555 1_555
C15D O3D 1_555 1_555
H13D C15D 1_555 1_555
H14D C15D 1_555 1_555
C16D C15D 1_555 1_555
H15D C16D 1_555 1_555
H16D C16D 1_555 1_555
C17D O4D 1_555 1_555
H17D C17D 1_555 1_555
H18D C17D 1_555 1_555
C18D O5D 1_555 1_555
H19D C18D 1_555 1_555
H20D C18D 1_555 1_555
N1D C19D 1_555 1_555
C19D H21D 1_555 1_555
H22D C19D 1_555 1_555
H23D C19D 1_555 1_555
C20D N1D 1_555 1_555
H24D C20D 1_555 1_555
C21D C20D 1_555 1_555
H25D C21D 1_555 1_555
C22D C22 1_555 1_555
C23D C22D 1_555 1_555
H26D C23D 1_555 1_555
C24D N1D 1_555 1_555
H27D C24D 1_555 1_555
H40F O14 1_555 1_555
H41F O15 1_555 1_555
C5 C6 1_555 1_555
C6 C7 1_555 1_555
C9 C10 1_555 1_555
C23 C24 1_555 1_555
C29 C30 1_555 1_555
C34 C35 1_555 1_555
C4D C5D 1_555 1_555
C5D C6D 1_555 1_555
C6D C7D 1_555 1_555
C9D C10D 1_555 1_555
C17D C18D 1_555 1_555
C21D C22D 1_555 1_555
C23D C24D 1_555 1_555

#END
