
#######################################################################
#
#                 Cambridge Crystallographic Data Centre
#                                CCDC 
#
#######################################################################
#
# If this CIF has been generated from an entry in the Cambridge 
# Structural Database, then it will include bibliographic, chemical, 
# crystal, experimental, refinement or atomic coordinate data resulting 
# from the CCDC's data processing and validation procedures.
#
#######################################################################

data_TIJJOL
_chemical_formula_moiety         'C16 H11 N4 O4 1+,F6 P1 1-,3(H2 O1)'
_chemical_name_systematic        
'6-carboxy-5-carboxylatopyrazine-2,3-diyldi-2-pyridinium hexafluorophosphate trihydrate'
_symmetry_cell_setting           monoclinic
_symmetry_space_group_name_H-M   'P 2/c'
_symmetry_Int_Tables_number      13
_space_group_name_Hall           '-P 2yc'
loop_
_symmetry_equiv_pos_site_id
_symmetry_equiv_pos_as_xyz
1 x,y,z
2 x,-y,1/2+z
3 -x,-y,-z
4 -x,y,1/2-z
_cell_length_a                   6.1910(6)
_cell_length_b                   15.6564(11)
_cell_length_c                   10.8349(10)
_cell_angle_alpha                90
_cell_angle_beta                 106.400(11)
_cell_angle_gamma                90
_cell_volume                     1007.48
_exptl_crystal_colour            'pale yellow'
_exptl_crystal_description       rod
_cell_formula_units_Z            2
loop_
_atom_site_label
_atom_site_type_symbol
_atom_site_fract_x
_atom_site_fract_y
_atom_site_fract_z
N1 N 0.4040(3) 0.09425(10) 0.34843(16)
N2 N 0.3208(3) 0.24229(11) 0.46196(15)
H1 H 0.214(6) 0.2008(19) 0.451(3)
O1 O 0.1776(3) -0.03754(11) 0.39442(18)
O2 O 0.3656(3) -0.13016(10) 0.31136(18)
H2 H 0.5000 -0.124(4) 0.2500
C1 C 0.4356(3) 0.02054(13) 0.29450(18)
C2 C 0.4658(3) 0.16771(12) 0.30675(17)
C3 C 0.4688(3) 0.24235(13) 0.39136(17)
C4 C 0.6261(4) 0.30703(14) 0.40890(19)
H3 H 0.747(5) 0.3146(17) 0.359(3)
C5 C 0.6266(4) 0.37137(15) 0.4977(2)
H4 H 0.725(5) 0.4157(19) 0.508(3)
C6 C 0.4718(4) 0.36946(15) 0.5673(2)
H5 H 0.474(5) 0.413(2) 0.634(3)
C7 C 0.3190(4) 0.30384(14) 0.54757(19)
H6 H 0.215(5) 0.2940(17) 0.592(3)
C8 C 0.3177(4) -0.05412(14) 0.3380(2)
C1C C 0.5644(3) 0.02054(13) 0.20550(18)
N1C N 0.5960(3) 0.09425(10) 0.15157(16)
C2C C 0.5342(3) 0.16771(12) 0.19325(17)
C3C C 0.5312(3) 0.24235(13) 0.10864(17)
N2C N 0.6792(3) 0.24229(11) 0.03804(15)
H1C H 0.786(6) 0.2008(19) 0.049(3)
C7C C 0.6810(4) 0.30384(14) -0.04757(19)
C6C C 0.5282(4) 0.36946(15) -0.0673(2)
C5C C 0.3734(4) 0.37137(15) 0.0023(2)
C4C C 0.3739(4) 0.30703(14) 0.09110(19)
H3C H 0.253(5) 0.3146(17) 0.141(3)
H4C H 0.275(5) 0.4157(19) -0.008(3)
H5C H 0.526(5) 0.413(2) -0.134(3)
H6C H 0.785(5) 0.2940(17) -0.092(3)
C8C C 0.6823(4) -0.05412(14) 0.1620(2)
O1C O 0.8224(3) -0.03754(11) 0.10558(18)
O2C O 0.6344(3) -0.13016(10) 0.18864(18)
O3 O -0.0014(3) 0.12351(12) 0.43619(18)
H7 H -0.047(6) 0.110(2) 0.495(4)
H8 H 0.059(7) 0.076(2) 0.416(4)
O4 O 0.0000 -0.2445(3) 0.2500
H9 H -0.1451 -0.2321 0.2136
H9C H 0.1451 -0.2321 0.2864
P1 P 0.0000 0.45753(5) 0.2500
F1 F 0.0000 0.35438(12) 0.2500
F2 F 0.0000 0.55917(14) 0.2500
F3 F 0.0436(3) 0.45621(10) 0.40178(13)
F4 F 0.2650(2) 0.45701(10) 0.26905(15)
F3C F -0.0436(3) 0.45621(10) 0.09822(13)
F4C F -0.2650(2) 0.45701(10) 0.23095(15)
loop_
_geom_bond_atom_site_label_1
_geom_bond_atom_site_label_2
_geom_bond_site_symmetry_1
_geom_bond_site_symmetry_2
N1 C1 1_555 1_555
N2 H1 1_555 1_555
O1 C8 1_555 1_555
O2 H2 1_555 1_555
H2 O2C 1_555 1_555
C1 C8 1_555 1_555
C2 N1 1_555 1_555
C3 N2 1_555 1_555
C4 C3 1_555 1_555
H3 C4 1_555 1_555
C5 C4 1_555 1_555
H4 C5 1_555 1_555
C6 C5 1_555 1_555
H5 C6 1_555 1_555
C7 N2 1_555 1_555
H6 C7 1_555 1_555
C8 O2 1_555 1_555
O3 H7 1_555 1_555
H8 O3 1_555 1_555
O4 H9 1_555 1_555
P1 F1 1_555 1_555
F2 P1 1_555 1_555
F3 P1 1_555 1_555
F4 P1 1_555 1_555
C1C C1 1_555 1_555
N1C C1C 1_555 1_555
C2C C2 1_555 1_555
C3C C2C 1_555 1_555
N2C C3C 1_555 1_555
H1C N2C 1_555 1_555
C7C N2C 1_555 1_555
C6C C7C 1_555 1_555
C5C C6C 1_555 1_555
C4C C3C 1_555 1_555
H3C C4C 1_555 1_555
H4C C5C 1_555 1_555
H5C C6C 1_555 1_555
H6C C7C 1_555 1_555
C8C C1C 1_555 1_555
O1C C8C 1_555 1_555
O2C C8C 1_555 1_555
H9C O4 1_555 1_555
F3C P1 1_555 1_555
F4C P1 1_555 1_555
C2 C3 1_555 1_555
C6 C7 1_555 1_555
N1C C2C 1_555 1_555
C5C C4C 1_555 1_555

#END
