
#######################################################################
#
#                 Cambridge Crystallographic Data Centre
#                                CCDC 
#
#######################################################################
#
# If this CIF has been generated from an entry in the Cambridge 
# Structural Database, then it will include bibliographic, chemical, 
# crystal, experimental, refinement or atomic coordinate data resulting 
# from the CCDC's data processing and validation procedures.
#
#######################################################################

data_TIJJAX
_chemical_formula_moiety         'C16 H10 N4 O4'
_chemical_name_systematic        
3-Carboxy-5-(2-pyridinio)-6-(2-pyridyl)pyrazine-2-carboxylate
_symmetry_cell_setting           monoclinic
_symmetry_space_group_name_H-M   'P 21/c'
_symmetry_Int_Tables_number      14
_space_group_name_Hall           '-P 2ybc'
loop_
_symmetry_equiv_pos_site_id
_symmetry_equiv_pos_as_xyz
1 x,y,z
2 x,1/2-y,1/2+z
3 -x,-y,-z
4 -x,1/2+y,1/2-z
_cell_length_a                   10.4770(10)
_cell_length_b                   13.523(2)
_cell_length_c                   10.0580(10)
_cell_angle_alpha                90
_cell_angle_beta                 110.070(10)
_cell_angle_gamma                90
_cell_volume                     1338.49
_exptl_crystal_colour            'pale yellow'
_exptl_crystal_description       plate
_chemical_melting_point          533-534K
_cell_formula_units_Z            4
_exptl_crystal_recrystallization_method water
loop_
_atom_site_label
_atom_site_type_symbol
_atom_site_fract_x
_atom_site_fract_y
_atom_site_fract_z
O1 O -0.0606(2) 0.16027(19) 0.7237(2)
O2 O -0.1543(2) 0.26898(18) 0.5480(2)
O3 O -0.2703(2) 0.07332(17) 0.3870(2)
O4 O -0.26759(19) 0.13092(17) 0.1812(2)
N1 N 0.1355(2) 0.16093(19) 0.5751(2)
N2 N 0.0163(2) 0.10376(19) 0.2992(2)
N3 N 0.4589(2) 0.12789(19) 0.5341(2)
N4 N 0.3489(2) 0.09486(19) 0.2720(3)
C1 C 0.0013(3) 0.1570(2) 0.5164(3)
C2 C -0.0600(3) 0.1244(2) 0.3771(3)
C3 C 0.1531(3) 0.1131(2) 0.3540(3)
C4 C 0.2148(3) 0.1377(2) 0.4983(3)
C5 C 0.3616(3) 0.1443(2) 0.5897(3)
C6 C 0.3982(3) 0.1669(3) 0.7323(3)
C7 C 0.5345(3) 0.1726(3) 0.8139(4)
C8 C 0.6322(3) 0.1562(3) 0.7545(3)
C9 C 0.5914(3) 0.1339(3) 0.6132(3)
C10 C 0.2126(3) 0.0967(2) 0.2395(3)
C11 C 0.1310(3) 0.0839(3) 0.0996(3)
C12 C 0.1874(3) 0.0685(3) -0.0032(4)
C13 C 0.3273(3) 0.0655(3) 0.0342(3)
C14 C 0.4054(3) 0.0804(3) 0.1723(3)
C15 C -0.0765(3) 0.1949(3) 0.6078(3)
C16 C -0.2119(3) 0.1083(2) 0.3103(3)
H1 H -0.200(4) 0.315(3) 0.623(4)
H2 H 0.419(3) 0.112(2) 0.407(3)
H3 H 0.326(3) 0.171(2) 0.768(3)
H4 H 0.561(2) 0.1891(19) 0.912(3)
H5 H 0.723(3) 0.1572(19) 0.805(3)
H6 H 0.659(3) 0.120(2) 0.560(3)
H7 H 0.034(3) 0.087(2) 0.074(3)
H8 H 0.127(3) 0.059(2) -0.104(3)
H9 H 0.368(3) 0.052(2) -0.035(3)
H10 H 0.515(3) 0.076(2) 0.207(3)
loop_
_geom_bond_atom_site_label_1
_geom_bond_atom_site_label_2
_geom_bond_site_symmetry_1
_geom_bond_site_symmetry_2
O1 C15 1_555 1_555
O2 C15 1_555 1_555
O3 C16 1_555 1_555
O4 C16 1_555 1_555
N1 C1 1_555 1_555
N2 C2 1_555 1_555
N3 C5 1_555 1_555
N4 C10 1_555 1_555
C1 C2 1_555 1_555
C2 C16 1_555 1_555
C3 N2 1_555 1_555
C4 N1 1_555 1_555
C5 C4 1_555 1_555
C6 C5 1_555 1_555
C7 C6 1_555 1_555
C8 C7 1_555 1_555
C9 N3 1_555 1_555
C10 C3 1_555 1_555
C11 C10 1_555 1_555
C12 C11 1_555 1_555
C13 C12 1_555 1_555
C14 N4 1_555 1_555
C15 C1 1_555 1_555
H1 O2 1_555 1_555
H2 N3 1_555 1_555
H3 C6 1_555 1_555
H4 C7 1_555 1_555
H5 C8 1_555 1_555
H6 C9 1_555 1_555
H7 C11 1_555 1_555
H8 C12 1_555 1_555
H9 C13 1_555 1_555
H10 C14 1_555 1_555
C3 C4 1_555 1_555
C8 C9 1_555 1_555
C13 C14 1_555 1_555

#END
