
#######################################################################
#
#                 Cambridge Crystallographic Data Centre
#                                CCDC 
#
#######################################################################
#
# If this CIF has been generated from an entry in the Cambridge 
# Structural Database, then it will include bibliographic, chemical, 
# crystal, experimental, refinement or atomic coordinate data resulting 
# from the CCDC's data processing and validation procedures.
#
#######################################################################

data_TIJJIF
_chemical_formula_moiety         'C16 H11 N4 O4 1+,Cl1 O4 1-,3(H2 O1)'
_chemical_name_systematic        
'6-carboxy-5-carboxylatopyrazine-2,3-diyldi-2-pyridinium perchlorate trihydrate'
_symmetry_cell_setting           monoclinic
_symmetry_space_group_name_H-M   'P 2/c'
_symmetry_Int_Tables_number      13
_space_group_name_Hall           '-P 2yc'
loop_
_symmetry_equiv_pos_site_id
_symmetry_equiv_pos_as_xyz
1 x,y,z
2 x,-y,1/2+z
3 -x,-y,-z
4 -x,y,1/2-z
_cell_length_a                   6.1401(7)
_cell_length_b                   15.6358(12)
_cell_length_c                   10.7154(8)
_cell_angle_alpha                90
_cell_angle_beta                 106.934(8)
_cell_angle_gamma                90
_cell_volume                     984.131
_exptl_crystal_colour            'pale yellow'
_exptl_crystal_description       block
_cell_formula_units_Z            2
loop_
_atom_site_label
_atom_site_type_symbol
_atom_site_fract_x
_atom_site_fract_y
_atom_site_fract_z
O1 O 0.3233(3) -0.03491(9) 0.10493(15)
O2 O 0.1347(3) -0.12771(9) 0.18880(15)
H1 H 0.0000 -0.130(3) 0.2500
N1 N 0.0965(3) 0.09766(9) 0.15109(14)
N2 N 0.1821(3) 0.24553(10) 0.03765(14)
H2 H 0.285(4) 0.2022(15) 0.051(2)
C1 C 0.0643(3) 0.02366(11) 0.20518(16)
C2 C 0.0346(3) 0.17086(11) 0.19261(16)
C3 C 0.0324(3) 0.24614(11) 0.10802(16)
C4 C -0.1222(4) 0.31173(12) 0.09105(19)
H3 H -0.229(4) 0.3116(13) 0.1394(19)
C5 C -0.1203(4) 0.37640(13) 0.0023(2)
H4 H -0.224(5) 0.4201(16) -0.010(2)
C6 C 0.0372(4) 0.37459(14) -0.0665(2)
H5 H 0.045(4) 0.4182(16) -0.125(2)
C7 C 0.1876(4) 0.30819(13) -0.04735(19)
H6 H 0.299(4) 0.3010(14) -0.096(2)
C8 C 0.1833(4) -0.05126(12) 0.16216(18)
O2C O -0.1347(3) -0.12771(9) 0.31120(15)
C8C C -0.1833(4) -0.05126(12) 0.33784(18)
O1C O -0.3233(3) -0.03491(9) 0.39507(15)
C1C C -0.0643(3) 0.02366(11) 0.29482(16)
N1C N -0.0965(3) 0.09766(9) 0.34891(14)
C2C C -0.0346(3) 0.17086(11) 0.30739(16)
C3C C -0.0324(3) 0.24614(11) 0.39198(16)
N2C N -0.1821(3) 0.24553(10) 0.46235(14)
H2C H -0.285(4) 0.2022(15) 0.449(2)
C7C C -0.1876(4) 0.30819(13) 0.54735(19)
C6C C -0.0372(4) 0.37459(14) 0.5665(2)
C5C C 0.1203(4) 0.37640(13) 0.4977(2)
C4C C 0.1222(4) 0.31173(12) 0.40895(19)
H3C H 0.229(4) 0.3116(13) 0.3606(19)
H4C H 0.224(5) 0.4201(16) 0.510(2)
H5C H -0.045(4) 0.4182(16) 0.625(2)
H6C H -0.299(4) 0.3010(14) 0.596(2)
Cl1 Cl 0.5000 0.44850(5) 0.2500
O4 O 0.5187(7) 0.4638(2) 0.4036(3)
O5 O 0.2741(12) 0.4793(5) 0.2005(7)
O4C O 0.4813(7) 0.4638(2) 0.0964(3)
O5C O 0.7259(12) 0.4793(5) 0.2995(7)
O7 O 0.5044(3) 0.12538(10) 0.06311(16)
H7 H 0.552(5) 0.1116(17) 0.000(3)
H8 H 0.442(5) 0.0793(18) 0.080(2)
O8 O 0.5000 0.25145(16) 0.7500
H9 H 0.3585 0.2104 0.7136
H9C H 0.6415 0.2104 0.7864
O3? O 0.5000 0.35788(14) 0.2500
O6? O 0.3338(13) 0.4887(5) 0.2673(6)
loop_
_geom_bond_atom_site_label_1
_geom_bond_atom_site_label_2
_geom_bond_site_symmetry_1
_geom_bond_site_symmetry_2
O1 C8 1_555 1_555
O2 H1 1_555 1_555
H1 O2C 1_555 1_555
N1 C1 1_555 1_555
N2 H2 1_555 1_555
C1 C8 1_555 1_555
C2 N1 1_555 1_555
C3 N2 1_555 1_555
C4 C3 1_555 1_555
H3 C4 1_555 1_555
C5 C4 1_555 1_555
H4 C5 1_555 1_555
C6 C5 1_555 1_555
H5 C6 1_555 1_555
C7 N2 1_555 1_555
H6 C7 1_555 1_555
C8 O2 1_555 1_555
Cl1 O4 1_555 1_555
O5 Cl1 1_555 1_555
O7 H7 1_555 1_555
H8 O7 1_555 1_555
O8 H9 1_555 1_555
O2C C8C 1_555 1_555
C8C O1C 1_555 1_555
C1C C1 1_555 1_555
N1C C1C 1_555 1_555
C2C C2 1_555 1_555
C3C C2C 1_555 1_555
N2C C3C 1_555 1_555
H2C N2C 1_555 1_555
C7C N2C 1_555 1_555
C6C C7C 1_555 1_555
C5C C6C 1_555 1_555
C4C C3C 1_555 1_555
H3C C4C 1_555 1_555
H4C C5C 1_555 1_555
H5C C6C 1_555 1_555
H6C C7C 1_555 1_555
O4C Cl1 1_555 1_555
O5C Cl1 1_555 1_555
H9C O8 1_555 1_555
C2 C3 1_555 1_555
C6 C7 1_555 1_555
C8C C1C 1_555 1_555
N1C C2C 1_555 1_555
C5C C4C 1_555 1_555

#END
