
#######################################################################
#
#                 Cambridge Crystallographic Data Centre
#                                CCDC 
#
#######################################################################
#
# If this CIF has been generated from an entry in the Cambridge 
# Structural Database, then it will include bibliographic, chemical, 
# crystal, experimental, refinement or atomic coordinate data resulting 
# from the CCDC's data processing and validation procedures.
#
#######################################################################

data_TIJKED
_chemical_formula_moiety         'C14 H16 N2 O4'
_chemical_name_systematic        
2-t-butoxycarbonyl-3-methylquinoxaline-1,4-dioxide
_symmetry_cell_setting           monoclinic
_symmetry_space_group_name_H-M   'P 21'
_symmetry_Int_Tables_number      4
_space_group_name_Hall           'P 2yb'
loop_
_symmetry_equiv_pos_site_id
_symmetry_equiv_pos_as_xyz
1 x,y,z
2 -x,1/2+y,-z
_cell_length_a                   5.9167(18)
_cell_length_b                   9.708(5)
_cell_length_c                   12.051(4)
_cell_angle_alpha                90
_cell_angle_beta                 93.83(4)
_cell_angle_gamma                90
_cell_volume                     690.655
_exptl_crystal_colour            yellow
_exptl_crystal_description       parallelepiped
_cell_formula_units_Z            2
loop_
_atom_site_label
_atom_site_type_symbol
_atom_site_fract_x
_atom_site_fract_y
_atom_site_fract_z
N1 N 0.1765(4) 0.3544(2) 0.23581(18)
C1 C 0.0829(4) 0.2397(3) 0.1813(2)
C2 C -0.1286(4) 0.2518(3) 0.1207(2)
O1 O 0.3695(3) 0.3458(2) 0.29109(18)
N2 N -0.2373(3) 0.3789(3) 0.11283(19)
O2 O -0.4248(3) 0.3906(3) 0.0528(2)
O3 O 0.1545(3) 0.5751(2) 0.40068(15)
C3 C -0.2265(6) 0.1357(4) 0.0695(3)
C4 C 0.1673(4) 0.5929(3) 0.2925(2)
C5 C -0.1437(4) 0.4886(3) 0.1658(2)
C6 C 0.0608(4) 0.4724(3) 0.2299(2)
O4 O 0.2439(4) 0.6890(3) 0.2464(2)
C7 C -0.2635(6) 0.6219(5) 0.1517(3)
H1 H -0.1782 0.6924 0.1916
H2 H -0.4108 0.6146 0.1802
H3 H -0.2794 0.6452 0.0741
C8 C 0.0916(7) 0.0005(4) 0.1373(3)
C9 C 0.1922(5) 0.1130(3) 0.1877(3)
C10 C -0.1200(7) 0.0127(4) 0.0779(3)
C11 C 0.5191(5) 0.6788(5) 0.4620(3)
H4 H 0.5850 0.5885 0.4684
H5 H 0.5939 0.7388 0.5162
H6 H 0.5367 0.7144 0.3888
C12 C 0.2703(4) 0.6705(3) 0.4821(2)
C13 C 0.1562(8) 0.8076(5) 0.4748(5)
H7 H 0.1817 0.8495 0.4045
H8 H 0.2171 0.8656 0.5340
H9 H -0.0035 0.7959 0.4810
C14 C 0.2346(8) 0.6011(6) 0.5918(3)
H10 H 0.3114 0.5139 0.5949
H11 H 0.0756 0.5868 0.5986
H12 H 0.2942 0.6585 0.6517
H13 H -0.185(7) -0.065(5) 0.042(4)
H14 H 0.153(6) -0.086(4) 0.143(3)
H15 H 0.321(6) 0.103(3) 0.227(3)
H16 H -0.370(8) 0.150(6) 0.017(4)
loop_
_geom_bond_atom_site_label_1
_geom_bond_atom_site_label_2
_geom_bond_site_symmetry_1
_geom_bond_site_symmetry_2
N1 C1 1_555 1_555
C1 C2 1_555 1_555
C2 N2 1_555 1_555
O1 N1 1_555 1_555
N2 O2 1_555 1_555
O3 C4 1_555 1_555
C3 C2 1_555 1_555
C4 C6 1_555 1_555
C5 N2 1_555 1_555
C6 N1 1_555 1_555
O4 C4 1_555 1_555
C7 C5 1_555 1_555
H1 C7 1_555 1_555
H2 C7 1_555 1_555
H3 C7 1_555 1_555
C8 C9 1_555 1_555
C9 C1 1_555 1_555
C10 C3 1_555 1_555
C11 H4 1_555 1_555
H5 C11 1_555 1_555
H6 C11 1_555 1_555
C12 O3 1_555 1_555
C13 C12 1_555 1_555
H7 C13 1_555 1_555
H8 C13 1_555 1_555
H9 C13 1_555 1_555
C14 C12 1_555 1_555
H10 C14 1_555 1_555
H11 C14 1_555 1_555
H12 C14 1_555 1_555
H13 C10 1_555 1_555
H14 C8 1_555 1_555
H15 C9 1_555 1_555
H16 C3 1_555 1_555
C5 C6 1_555 1_555
C8 C10 1_555 1_555
C11 C12 1_555 1_555

#END
