
#######################################################################
#
#                 Cambridge Crystallographic Data Centre
#                                CCDC 
#
#######################################################################
#
# If this CIF has been generated from an entry in the Cambridge 
# Structural Database, then it will include bibliographic, chemical, 
# crystal, experimental, refinement or atomic coordinate data resulting 
# from the CCDC's data processing and validation procedures.
#
#######################################################################

data_TIJKEC
_chemical_formula_moiety         'C2 H7 N3 O2'
_chemical_name_systematic        1-Amino-2-nitraminoethane
_chemical_properties_biological  'potential biological activity'
_symmetry_cell_setting           triclinic
_symmetry_space_group_name_H-M   'P -1'
_symmetry_Int_Tables_number      2
_space_group_name_Hall           '-P 1'
loop_
_symmetry_equiv_pos_site_id
_symmetry_equiv_pos_as_xyz
1 x,y,z
2 -x,-y,-z
_cell_length_a                   4.3449(2)
_cell_length_b                   6.2955(3)
_cell_length_c                   8.5432(5)
_cell_angle_alpha                105.240(5)
_cell_angle_beta                 92.743(4)
_cell_angle_gamma                96.356(4)
_cell_volume                     223.358
_exptl_crystal_colour            colorless
_cell_formula_units_Z            2
loop_
_atom_site_label
_atom_site_type_symbol
_atom_site_fract_x
_atom_site_fract_y
_atom_site_fract_z
N1 N 0.0237(2) 0.32208(17) 0.21151(12)
O1 O -0.1902(2) 0.21586(15) 0.09892(11)
O2 O 0.0966(2) 0.23165(16) 0.32042(12)
N2 N 0.1460(2) 0.51362(17) 0.20486(12)
C1 C 0.3897(3) 0.6137(2) 0.33447(15)
H1 H 0.5417 0.5121 0.3352
H2 H 0.3015 0.6457 0.4391
C2 C 0.5438(3) 0.8261(2) 0.30539(16)
H3 H 0.3949 0.9320 0.3161
H4 H 0.7145 0.8897 0.3877
N3 N 0.6629(2) 0.78806(17) 0.14224(13)
H5 H 0.8118 0.6899 0.1328
H6 H 0.7533 0.9230 0.1282
H7 H 0.4989 0.7272 0.0625
loop_
_geom_bond_atom_site_label_1
_geom_bond_atom_site_label_2
_geom_bond_site_symmetry_1
_geom_bond_site_symmetry_2
N1 O1 1_555 1_555
O2 N1 1_555 1_555
N2 N1 1_555 1_555
C1 N2 1_555 1_555
H1 C1 1_555 1_555
H2 C1 1_555 1_555
C2 C1 1_555 1_555
H3 C2 1_555 1_555
H4 C2 1_555 1_555
N3 C2 1_555 1_555
H5 N3 1_555 1_555
H6 N3 1_555 1_555
H7 N3 1_555 1_555

#END
