
#######################################################################
#
#                 Cambridge Crystallographic Data Centre
#                                CCDC 
#
#######################################################################
#
# If this CIF has been generated from an entry in the Cambridge 
# Structural Database, then it will include bibliographic, chemical, 
# crystal, experimental, refinement or atomic coordinate data resulting 
# from the CCDC's data processing and validation procedures.
#
#######################################################################

data_TIJKOM
_chemical_formula_moiety         '2(C6 H4 O6),3(C10 H8 N2)'
_chemical_name_systematic        
"tris(4,4'-bipyridine) bis(2,3,5,6-tetrahydroxy-1,4-benzoquinone)"
_symmetry_cell_setting           triclinic
_symmetry_space_group_name_H-M   'P -1'
_symmetry_Int_Tables_number      2
_space_group_name_Hall           '-P 1'
loop_
_symmetry_equiv_pos_site_id
_symmetry_equiv_pos_as_xyz
1 x,y,z
2 -x,-y,-z
_cell_length_a                   8.8856(8)
_cell_length_b                   9.0728(9)
_cell_length_c                   12.9288(11)
_cell_angle_alpha                109.164(5)
_cell_angle_beta                 92.476(5)
_cell_angle_gamma                111.074(5)
_cell_volume                     903.173
_exptl_crystal_colour            brown
_exptl_crystal_description       Irregular
_cell_formula_units_Z            1
loop_
_atom_site_label
_atom_site_type_symbol
_atom_site_fract_x
_atom_site_fract_y
_atom_site_fract_z
C1 C 0.89557(18) 0.82743(19) 0.47812(12)
O1 O 0.80029(12) 0.68015(13) 0.46000(8)
C2 C 0.86208(18) 0.92017(19) 0.41054(12)
O2 O 0.72974(13) 0.83418(14) 0.32649(9)
H1 H 0.6954(19) 0.728(2) 0.3104(13)
C3 C 1.04223(18) 0.91480(19) 0.56696(12)
O3 O 1.07504(13) 0.83084(13) 0.62808(9)
H2 H 0.9868(18) 0.722(2) 0.6139(12)
C3A C 0.95777(18) 1.08520(19) 0.43304(12)
C1A C 1.10443(18) 1.17257(19) 0.52188(12)
O1A O 1.19971(12) 1.31985(13) 0.54000(8)
C2A C 1.13792(18) 1.07983(19) 0.58946(12)
O2A O 1.27026(13) 1.16582(14) 0.67351(9)
H1A H 1.3046(19) 1.272(2) 0.6896(13)
O3A O 0.92496(13) 1.16916(13) 0.37192(9)
H2A H 1.0132(18) 1.278(2) 0.3861(12)
C4 C 0.66918(18) 0.56848(18) 0.04832(12)
O4 O 0.81671(12) 0.63116(13) 0.08719(9)
C5 C 0.54347(18) 0.49434(18) 0.10817(12)
O5 O 0.60280(12) 0.49760(13) 0.20800(8)
H3 H 0.5311(18) 0.421(2) 0.2284(12)
C6 C 0.61660(18) 0.56771(18) -0.06343(12)
O6 O 0.73384(13) 0.63163(13) -0.11753(9)
H4 H 0.8408(19) 0.6841(19) -0.0754(13)
C6A C 0.38340(18) 0.43229(18) 0.06343(12)
C4A C 0.33082(18) 0.43152(18) -0.04832(12)
O4A O 0.18329(12) 0.36884(13) -0.08719(9)
C5A C 0.45653(18) 0.50566(18) -0.10817(12)
O5A O 0.39720(12) 0.50240(13) -0.20800(8)
H3A H 0.4689(18) 0.579(2) -0.2284(12)
O6A O 0.26616(13) 0.36837(13) 0.11753(9)
H4A H 0.1592(19) 0.3159(19) 0.0754(13)
N1 N 0.11089(15) -0.52917(15) 0.36960(10)
C7 C 0.2677(2) -0.4212(2) 0.41080(13)
H5 H 0.3327(18) -0.4490(19) 0.4552(13)
C8 C 0.3392(2) -0.2698(2) 0.39293(13)
H6 H 0.4556(18) -0.2026(18) 0.4251(12)
C9 C 0.24512(18) -0.22625(18) 0.32817(12)
C10 C 0.31481(18) -0.06245(18) 0.30901(12)
C11 C 0.4832(2) 0.0273(2) 0.32274(13)
H7 H 0.5627(18) -0.0103(19) 0.3446(12)
C12 C 0.5411(2) 0.1781(2) 0.30252(13)
H8 H 0.6599(19) 0.2402(19) 0.3125(12)
N2 N 0.44245(15) 0.24380(15) 0.27038(10)
C13 C 0.28094(19) 0.15788(19) 0.25806(12)
H9 H 0.2088(17) 0.2016(18) 0.2328(12)
C14 C 0.21196(19) 0.00584(19) 0.27529(12)
H10 H 0.0941(18) -0.0507(18) 0.2634(12)
C15 C 0.08324(19) -0.33958(19) 0.28373(13)
H11 H 0.0077(18) -0.3228(18) 0.2364(12)
C16 C 0.0219(2) -0.4879(2) 0.30598(13)
H12 H -0.0942(18) -0.5659(19) 0.2762(12)
N3 N -0.06220(15) 0.20248(16) 0.04592(10)
C17 C -0.1387(2) 0.0781(2) 0.08389(14)
H13 H -0.0655(18) 0.0469(19) 0.1263(12)
C18 C -0.30727(19) -0.0022(2) 0.06882(13)
H14 H -0.3562(18) -0.0915(19) 0.1031(12)
C19 C -0.40869(18) 0.04258(18) 0.01029(12)
C20 C -0.32893(19) 0.1733(2) -0.02812(13)
H15 H -0.3991(17) 0.2072(18) -0.0750(12)
C21 C -0.15926(19) 0.2476(2) -0.00853(13)
H16 H -0.1011(18) 0.3389(19) -0.0339(12)
C19A C -0.59131(18) -0.04258(18) -0.01029(12)
C18A C -0.69273(19) 0.0022(2) -0.06882(13)
C17A C -0.8613(2) -0.0781(2) -0.08389(14)
N3A N -0.93780(15) -0.20248(16) -0.04592(10)
C21A C -0.84074(19) -0.2476(2) 0.00853(13)
C20A C -0.67107(19) -0.1733(2) 0.02812(13)
H15A H -0.6009(17) -0.2072(18) 0.0750(12)
H16A H -0.8989(18) -0.3389(19) 0.0339(12)
H13A H -0.9345(18) -0.0469(19) -0.1263(12)
H14A H -0.6438(18) 0.0915(19) -0.1031(12)
loop_
_geom_bond_atom_site_label_1
_geom_bond_atom_site_label_2
_geom_bond_site_symmetry_1
_geom_bond_site_symmetry_2
C1 O1 1_555 1_555
C2 C1 1_555 1_555
O2 C2 1_555 1_555
H1 O2 1_555 1_555
C3 C1 1_555 1_555
O3 C3 1_555 1_555
H2 O3 1_555 1_555
C4 O4 1_555 1_555
C5 C4 1_555 1_555
O5 C5 1_555 1_555
H3 O5 1_555 1_555
C6 C4 1_555 1_555
O6 C6 1_555 1_555
H4 O6 1_555 1_555
N1 C7 1_555 1_555
C7 H5 1_555 1_555
C8 C7 1_555 1_555
H6 C8 1_555 1_555
C9 C8 1_555 1_555
C10 C9 1_555 1_555
C11 C10 1_555 1_555
H7 C11 1_555 1_555
C12 C11 1_555 1_555
H8 C12 1_555 1_555
N2 C12 1_555 1_555
C13 N2 1_555 1_555
H9 C13 1_555 1_555
C14 C10 1_555 1_555
H10 C14 1_555 1_555
C15 C9 1_555 1_555
H11 C15 1_555 1_555
C16 N1 1_555 1_555
H12 C16 1_555 1_555
N3 C17 1_555 1_555
C17 H13 1_555 1_555
C18 C17 1_555 1_555
H14 C18 1_555 1_555
C19 C18 1_555 1_555
C20 C19 1_555 1_555
H15 C20 1_555 1_555
C21 N3 1_555 1_555
H16 C21 1_555 1_555
C3A C2 1_555 1_555
C1A C3A 1_555 1_555
O1A C1A 1_555 1_555
C2A C3 1_555 1_555
O2A C2A 1_555 1_555
H1A O2A 1_555 1_555
O3A C3A 1_555 1_555
H2A O3A 1_555 1_555
C6A C5 1_555 1_555
C4A C6A 1_555 1_555
O4A C4A 1_555 1_555
C5A C6 1_555 1_555
O5A C5A 1_555 1_555
H3A O5A 1_555 1_555
O6A C6A 1_555 1_555
H4A O6A 1_555 1_555
C19A C19 1_555 1_555
C18A C19A 1_555 1_555
C17A C18A 1_555 1_555
N3A C17A 1_555 1_555
C21A N3A 1_555 1_555
C20A C19A 1_555 1_555
H15A C20A 1_555 1_555
H16A C21A 1_555 1_555
H13A C17A 1_555 1_555
H14A C18A 1_555 1_555
C13 C14 1_555 1_555
C15 C16 1_555 1_555
C20 C21 1_555 1_555
C1A C2A 1_555 1_555
C4A C5A 1_555 1_555
C21A C20A 1_555 1_555

#END
