
#######################################################################
#
#                 Cambridge Crystallographic Data Centre
#                                CCDC 
#
#######################################################################
#
# If this CIF has been generated from an entry in the Cambridge 
# Structural Database, then it will include bibliographic, chemical, 
# crystal, experimental, refinement or atomic coordinate data resulting 
# from the CCDC's data processing and validation procedures.
#
#######################################################################

data_TIJLAZ01
_chemical_formula_moiety         'C3 H5 N3 S1'
_chemical_name_systematic        2-Amino-5-methyl-1,3,4-thiadiazole
_symmetry_cell_setting           monoclinic
_symmetry_space_group_name_H-M   'P 21/n'
_symmetry_Int_Tables_number      14
_space_group_name_Hall           '-P 2yn'
loop_
_symmetry_equiv_pos_site_id
_symmetry_equiv_pos_as_xyz
1 x,y,z
2 1/2-x,1/2+y,1/2-z
3 -x,-y,-z
4 1/2+x,1/2-y,1/2+z
_cell_length_a                   8.6287(17)
_cell_length_b                   6.5399(13)
_cell_length_c                   10.341(2)
_cell_angle_alpha                90
_cell_angle_beta                 110.51(3)
_cell_angle_gamma                90
_cell_volume                     546.561
_exptl_crystal_colour            colorless
_exptl_crystal_description       Block
_cell_formula_units_Z            4
loop_
_atom_site_label
_atom_site_type_symbol
_atom_site_fract_x
_atom_site_fract_y
_atom_site_fract_z
S1 S 0.81937(5) 0.07443(7) 0.54679(4)
N1 N 0.72474(19) 0.4336(3) 0.62523(16)
N2 N 0.55168(15) 0.2700(2) 0.42780(13)
N3 N 0.54474(16) 0.09518(19) 0.35106(13)
C1 C 0.68791(18) 0.2805(2) 0.53414(15)
C2 C 0.67226(19) -0.0198(3) 0.39800(17)
C3 C 0.6951(2) -0.2152(3) 0.3327(2)
H1 H 0.5967 -0.2453 0.2556
H2 H 0.7163 -0.3239 0.3991
H3 H 0.7871 -0.2022 0.3014
H4 H 0.8275 0.4317 0.6975
H5 H 0.6412 0.5285 0.6202
loop_
_geom_bond_atom_site_label_1
_geom_bond_atom_site_label_2
_geom_bond_site_symmetry_1
_geom_bond_site_symmetry_2
S1 C1 1_555 1_555
N1 C1 1_555 1_555
N2 N3 1_555 1_555
N3 C2 1_555 1_555
C1 N2 1_555 1_555
C2 S1 1_555 1_555
C3 C2 1_555 1_555
H1 C3 1_555 1_555
H2 C3 1_555 1_555
H3 C3 1_555 1_555
H4 N1 1_555 1_555
H5 N1 1_555 1_555

#END
