
#######################################################################
#
#                 Cambridge Crystallographic Data Centre
#                                CCDC 
#
#######################################################################
#
# If this CIF has been generated from an entry in the Cambridge 
# Structural Database, then it will include bibliographic, chemical, 
# crystal, experimental, refinement or atomic coordinate data resulting 
# from the CCDC's data processing and validation procedures.
#
#######################################################################

data_TIJTUB
_chemical_name_common            'trans-1,2-Diphenylethylene perfluorobenzene'
_chemical_formula_moiety         'C6 F6,C14 H12'
_chemical_name_systematic        'Hexafluorobenzene trans-stilbene'
_symmetry_cell_setting           monoclinic
_symmetry_space_group_name_H-M   'P 21/c'
_symmetry_Int_Tables_number      14
_space_group_name_Hall           '-P 2ybc'
loop_
_symmetry_equiv_pos_site_id
_symmetry_equiv_pos_as_xyz
1 x,y,z
2 x,1/2-y,1/2+z
3 -x,-y,-z
4 -x,1/2+y,1/2-z
_cell_length_a                   11.401(3)
_cell_length_b                   6.118(2)
_cell_length_c                   12.262(4)
_cell_angle_alpha                90
_cell_angle_beta                 107.09(2)
_cell_angle_gamma                90
_cell_volume                     817.525
_exptl_crystal_colour            colorless
_exptl_crystal_description       plate
_cell_formula_units_Z            2
loop_
_atom_site_label
_atom_site_type_symbol
_atom_site_fract_x
_atom_site_fract_y
_atom_site_fract_z
C1 C 0.3941(3) 0.4501(6) 0.5970(3)
C2 C 0.3226(3) 0.2752(7) 0.6122(3)
H1 H 0.315(4) 0.143(8) 0.563(4)
C3 C 0.2619(4) 0.2807(7) 0.6944(3)
H2 H 0.210(4) 0.151(7) 0.704(3)
C4 C 0.2694(3) 0.4634(7) 0.7625(3)
H3 H 0.226(4) 0.473(7) 0.821(3)
C5 C 0.3391(3) 0.6422(7) 0.7481(3)
H4 H 0.343(4) 0.774(7) 0.798(4)
C6 C 0.4013(3) 0.6356(7) 0.6662(3)
H5 H 0.455(4) 0.759(7) 0.663(3)
C7 C 0.4596(3) 0.4298(7) 0.5088(3)
H6 H 0.443(4) 0.284(8) 0.458(4)
C7B C 0.5404(3) 0.5702(7) 0.4912(3)
C1B C 0.6059(3) 0.5499(6) 0.4030(3)
C2B C 0.6774(3) 0.7248(7) 0.3878(3)
H1B H 0.685(4) 0.857(8) 0.437(4)
C3B C 0.7381(4) 0.7193(7) 0.3056(3)
H2B H 0.790(4) 0.849(7) 0.296(3)
C4B C 0.7306(3) 0.5366(7) 0.2375(3)
H3B H 0.774(4) 0.527(7) 0.179(3)
C5B C 0.6609(3) 0.3578(7) 0.2519(3)
H4B H 0.657(4) 0.226(7) 0.202(4)
C6B C 0.5987(3) 0.3644(7) 0.3338(3)
H5B H 0.545(4) 0.241(7) 0.337(3)
H6B H 0.557(4) 0.716(8) 0.542(4)
C8 C 0.0128(4) 0.3535(8) 0.4202(3)
C9 C 0.0752(4) 0.5457(8) 0.4346(3)
C10 C -0.0627(4) 0.3072(7) 0.4859(4)
F1 F 0.0240(3) 0.2090(7) 0.3421(3)
F2 F 0.1500(3) 0.5884(7) 0.3707(3)
F3 F -0.1249(3) 0.1183(5) 0.4737(4)
C10B C 0.0627(4) 0.6928(7) 0.5141(4)
C8B C -0.0128(4) 0.6465(8) 0.5798(3)
C9B C -0.0752(4) 0.4543(8) 0.5654(3)
F2B F -0.1500(3) 0.4116(7) 0.6293(3)
F1B F -0.0240(3) 0.7910(7) 0.6579(3)
F3B F 0.1249(3) 0.8817(5) 0.5263(4)
loop_
_geom_bond_atom_site_label_1
_geom_bond_atom_site_label_2
_geom_bond_site_symmetry_1
_geom_bond_site_symmetry_2
C1 C2 1_555 1_555
C2 H1 1_555 1_555
C3 C2 1_555 1_555
H2 C3 1_555 1_555
C4 C3 1_555 1_555
H3 C4 1_555 1_555
C5 C4 1_555 1_555
H4 C5 1_555 1_555
C6 C1 1_555 1_555
H5 C6 1_555 1_555
C7 C1 1_555 1_555
H6 C7 1_555 1_555
C8 C9 1_555 1_555
C9 F2 1_555 1_555
C10 C8 1_555 1_555
F1 C8 1_555 1_555
F3 C10 1_555 1_555
C7B C7 1_555 1_555
C1B C7B 1_555 1_555
C2B C1B 1_555 1_555
H1B C2B 1_555 1_555
C3B C2B 1_555 1_555
H2B C3B 1_555 1_555
C4B C3B 1_555 1_555
H3B C4B 1_555 1_555
C5B C4B 1_555 1_555
H4B C5B 1_555 1_555
C6B C1B 1_555 1_555
H5B C6B 1_555 1_555
H6B C7B 1_555 1_555
C10B C9 1_555 1_555
C8B C10B 1_555 1_555
C9B C10 1_555 1_555
F2B C9B 1_555 1_555
F1B C8B 1_555 1_555
F3B C10B 1_555 1_555
C5 C6 1_555 1_555
C5B C6B 1_555 1_555
C8B C9B 1_555 1_555

#END
