
#######################################################################
#
#                 Cambridge Crystallographic Data Centre
#                                CCDC 
#
#######################################################################
#
# If this CIF has been generated from an entry in the Cambridge 
# Structural Database, then it will include bibliographic, chemical, 
# crystal, experimental, refinement or atomic coordinate data resulting 
# from the CCDC's data processing and validation procedures.
#
#######################################################################

data_TIKBIY
_chemical_formula_moiety         'C16 H15 N2 1+,I1 1-,0.5(H2 O1)'
_chemical_name_systematic        
'(E)-4-(3-Indolylvinyl)-N-methylpyridinium iodide hemihydrate'
_symmetry_cell_setting           monoclinic
_symmetry_space_group_name_H-M   'P 21/c'
_symmetry_Int_Tables_number      14
_space_group_name_Hall           '-P 2ybc'
loop_
_symmetry_equiv_pos_site_id
_symmetry_equiv_pos_as_xyz
1 x,y,z
2 x,1/2-y,1/2+z
3 -x,-y,-z
4 -x,1/2+y,1/2-z
_cell_length_a                   15.3795(19)
_cell_length_b                   13.8324(17)
_cell_length_c                   14.1690(17)
_cell_angle_alpha                90
_cell_angle_beta                 100.816(2)
_cell_angle_gamma                90
_cell_volume                     2960.7
_exptl_crystal_colour            yellow
_exptl_crystal_description       'hexagonal prism'
_cell_formula_units_Z            8
_exptl_crystal_recrystallization_method ethanol
loop_
_atom_site_label
_atom_site_type_symbol
_atom_site_fract_x
_atom_site_fract_y
_atom_site_fract_z
I1 I 0.56906(2) 0.20173(2) 0.57329(2)
N1 N -0.1758(12) 0.4242(15) 0.6083(17)
N2 N 0.3688(9) 0.3180(13) 0.5375(15)
H1 H 0.4102 0.2818 0.5202
C1 C -0.1191(12) 0.4889(13) 0.6588(14)
H2 H -0.1427 0.5351 0.6968
C2 C -0.0314(12) 0.4921(15) 0.6587(17)
H3 H 0.0057 0.5365 0.6987
C3 C 0.0035(9) 0.4294(8) 0.5992(9)
C4 C -0.0567(10) 0.3644(9) 0.5464(10)
H4 H -0.0357 0.3177 0.5069
C5 C -0.1435(11) 0.3666(16) 0.5502(14)
H5 H -0.1828 0.3248 0.5093
C6 C 0.0942(7) 0.4311(6) 0.5987(6)
H6 H 0.1265 0.4836 0.6313
C7 C 0.1410(5) 0.3669(6) 0.5571(5)
H7 H 0.1092 0.3153 0.5224
C8 C 0.2369(9) 0.3697(10) 0.5608(9)
C9 C 0.2821(9) 0.2952(13) 0.5266(12)
H8 H 0.2562 0.2367 0.4994
C10 C 0.3812(11) 0.4058(15) 0.580(2)
C11 C 0.4581(14) 0.4607(12) 0.589(2)
H9 H 0.5086 0.4380 0.5665
C12 C 0.4581(13) 0.5500(17) 0.634(2)
H10 H 0.5115 0.5855 0.6526
C13 C 0.3768(19) 0.587(3) 0.652(3)
H11 H 0.3790 0.6475 0.6847
C14 C 0.294(2) 0.5438(14) 0.627(2)
H12 H 0.2393 0.5736 0.6310
C15 C 0.3040(13) 0.4501(13) 0.5951(19)
C16 C -0.2697(12) 0.4208(11) 0.6182(12)
H13 H -0.2735 0.4029 0.6842
H14 H -0.3012 0.3728 0.5736
H15 H -0.2967 0.4846 0.6034
I2 I 0.209554(18) 0.03931(2) 0.59623(2)
N5 N 0.4679(3) 0.3739(3) 0.8183(2)
N6 N -0.0902(3) 0.3226(4) 0.8488(3)
H31 H -0.1347 0.3448 0.8735
C33 C 0.4370(3) 0.2937(3) 0.7709(3)
H32 H 0.4756 0.2574 0.7395
C34 C 0.3529(3) 0.2620(3) 0.7658(3)
H33 H 0.3351 0.2032 0.7332
C35 C 0.2919(3) 0.3137(3) 0.8072(3)
C36 C 0.3250(3) 0.3955(4) 0.8586(3)
H34 H 0.2873 0.4317 0.8914
C37 C 0.4117(4) 0.4254(4) 0.8633(3)
H35 H 0.4323 0.4823 0.8982
C38 C 0.2002(3) 0.2812(3) 0.7935(3)
H36 H 0.1831 0.2270 0.7531
C39 C 0.1392(3) 0.3239(4) 0.8349(3)
H37 H 0.1595 0.3750 0.8782
C40 C 0.0475(3) 0.3020(3) 0.8220(3)
C41 C -0.0060(4) 0.3508(4) 0.8736(3)
H38 H 0.0143 0.3984 0.9209
C42 C -0.0960(3) 0.2524(3) 0.7774(3)
C43 C -0.1698(3) 0.2054(4) 0.7280(4)
H39 H -0.2269 0.2174 0.7417
C44 C -0.1577(3) 0.1404(4) 0.6580(4)
H40 H -0.2067 0.1053 0.6238
C45 C -0.0722(3) 0.1259(3) 0.6367(4)
H41 H -0.0653 0.0818 0.5873
C46 C 0.0001(3) 0.1730(3) 0.6850(3)
H42 H 0.0567 0.1627 0.6690
C47 C -0.0103(2) 0.2375(3) 0.7592(3)
C48 C 0.5593(4) 0.4070(6) 0.8234(4)
H43 H 0.5811 0.3846 0.7665
H44 H 0.5968 0.3807 0.8813
H45 H 0.5611 0.4778 0.8259
O1 O 0.2659(5) 0.8039(5) 0.5795(6)
N3? N -0.1941(12) 0.4328(18) 0.6149(17)
N4? N 0.3454(11) 0.3293(18) 0.537(2)
H16? H 0.3793 0.2867 0.5149
C17? C -0.1761(12) 0.3592(15) 0.5520(13)
H17? H -0.2230 0.3187 0.5215
C18? C -0.0944(13) 0.3452(13) 0.5343(10)
H18? H -0.0857 0.2983 0.4881
C19? C -0.0224(8) 0.3972(12) 0.5817(10)
C20? C -0.0421(12) 0.4680(16) 0.6442(18)
H19? H 0.0048 0.5083 0.6749
C21? C -0.1258(11) 0.4837(16) 0.6649(19)
H20? H -0.1347 0.5288 0.7127
C22? C 0.0615(5) 0.3685(7) 0.5579(7)
H21? H 0.0637 0.3146 0.5168
C23? C 0.1359(7) 0.4168(9) 0.5931(8)
H22? H 0.1303 0.4712 0.6325
C24? C 0.2229(12) 0.3950(12) 0.5776(12)
C25? C 0.2591(11) 0.3159(12) 0.5405(11)
H23? H 0.2272 0.2585 0.5200
C26? C 0.3735(15) 0.4218(16) 0.573(2)
C27? C 0.4570(14) 0.4679(16) 0.596(2)
H24? H 0.5103 0.4353 0.5911
C28? C 0.4569(17) 0.5634(18) 0.627(3)
H25? H 0.5076 0.6032 0.6290
C29? C 0.3811(14) 0.599(2) 0.655(2)
H26? H 0.3818 0.6623 0.6814
C30? C 0.3077(17) 0.5469(17) 0.644(2)
H27? H 0.2597 0.5728 0.6695
C31? C 0.2944(18) 0.4538(17) 0.597(2)
C32? C -0.2817(10) 0.4519(12) 0.6332(14)
H28? H -0.2823 0.5151 0.6643
H29? H -0.2979 0.4016 0.6754
H30? H -0.3242 0.4520 0.5723
loop_
_geom_bond_atom_site_label_1
_geom_bond_atom_site_label_2
_geom_bond_site_symmetry_1
_geom_bond_site_symmetry_2
N1 C1 1_555 1_555
N2 H1 1_555 1_555
C1 H2 1_555 1_555
C2 C1 1_555 1_555
H3 C2 1_555 1_555
C3 C2 1_555 1_555
C4 C3 1_555 1_555
H4 C4 1_555 1_555
C5 N1 1_555 1_555
H5 C5 1_555 1_555
C6 C3 1_555 1_555
H6 C6 1_555 1_555
C7 C6 1_555 1_555
H7 C7 1_555 1_555
C8 C7 1_555 1_555
C9 N2 1_555 1_555
H8 C9 1_555 1_555
C10 N2 1_555 1_555
C11 C10 1_555 1_555
H9 C11 1_555 1_555
C12 C11 1_555 1_555
H10 C12 1_555 1_555
C13 C12 1_555 1_555
H11 C13 1_555 1_555
C14 C13 1_555 1_555
H12 C14 1_555 1_555
C15 C8 1_555 1_555
C16 N1 1_555 1_555
H13 C16 1_555 1_555
H14 C16 1_555 1_555
H15 C16 1_555 1_555
N5 C33 1_555 1_555
N6 H31 1_555 1_555
C33 H32 1_555 1_555
C34 C33 1_555 1_555
H33 C34 1_555 1_555
C35 C34 1_555 1_555
C36 C35 1_555 1_555
H34 C36 1_555 1_555
C37 N5 1_555 1_555
H35 C37 1_555 1_555
C38 C35 1_555 1_555
H36 C38 1_555 1_555
C39 C38 1_555 1_555
H37 C39 1_555 1_555
C40 C39 1_555 1_555
C41 N6 1_555 1_555
H38 C41 1_555 1_555
C42 N6 1_555 1_555
C43 C42 1_555 1_555
H39 C43 1_555 1_555
C44 C43 1_555 1_555
H40 C44 1_555 1_555
C45 C44 1_555 1_555
H41 C45 1_555 1_555
C46 C45 1_555 1_555
H42 C46 1_555 1_555
C47 C40 1_555 1_555
C48 N5 1_555 1_555
H43 C48 1_555 1_555
H44 C48 1_555 1_555
H45 C48 1_555 1_555
C4 C5 1_555 1_555
C8 C9 1_555 1_555
C10 C15 1_555 1_555
C14 C15 1_555 1_555
C36 C37 1_555 1_555
C40 C41 1_555 1_555
C42 C47 1_555 1_555
C46 C47 1_555 1_555

#END
