
#######################################################################
#
#                 Cambridge Crystallographic Data Centre
#                                CCDC 
#
#######################################################################
#
# If this CIF has been generated from an entry in the Cambridge 
# Structural Database, then it will include bibliographic, chemical, 
# crystal, experimental, refinement or atomic coordinate data resulting 
# from the CCDC's data processing and validation procedures.
#
#######################################################################

data_TIKDOI
_chemical_formula_moiety         'C21 H13 Cl1 O5'
_chemical_name_systematic        
2-((4-Chlorophenyl)(hydroxy)methyl)-1,4-dihydroxy-9,10-anthraquinone
_symmetry_cell_setting           triclinic
_symmetry_space_group_name_H-M   'P -1'
_symmetry_Int_Tables_number      2
_space_group_name_Hall           '-P 1'
loop_
_symmetry_equiv_pos_site_id
_symmetry_equiv_pos_as_xyz
1 x,y,z
2 -x,-y,-z
_cell_length_a                   5.6041(14)
_cell_length_b                   11.344(3)
_cell_length_c                   13.732(4)
_cell_angle_alpha                105.892(3)
_cell_angle_beta                 96.335(3)
_cell_angle_gamma                90.809(3)
_cell_volume                     833.593
_exptl_crystal_colour            red
_cell_formula_units_Z            2
loop_
_atom_site_label
_atom_site_type_symbol
_atom_site_fract_x
_atom_site_fract_y
_atom_site_fract_z
Cl1 Cl 0.18969(16) 0.83239(9) -0.11198(6)
O1 O -0.2236(3) 0.45726(13) 0.36893(11)
H1 H -0.3080 0.4783 0.4153
O2 O 0.3025(3) 0.94993(14) 0.52674(11)
C1 C -0.0428(3) 0.66053(17) 0.45093(14)
O3 O 0.4649(3) 0.80667(15) 0.37046(12)
O4 O -0.3620(3) 0.60703(14) 0.52980(11)
C2 C 0.1345(3) 0.75078(17) 0.45002(14)
C3 C -0.1782(3) 0.80269(18) 0.60983(14)
C4 C -0.0039(3) 0.89062(18) 0.60949(14)
C5 C 0.1010(4) 0.52600(19) 0.30203(15)
H2 H 0.0903 0.4505 0.2530
C6 C -0.2052(3) 0.68405(19) 0.52955(14)
C7 C 0.2727(3) 0.61237(19) 0.30016(14)
O5 O 0.4555(3) 0.46093(14) 0.17198(11)
H3 H 0.5378 0.4284 0.2096
C8 C 0.1559(3) 0.86887(19) 0.52808(15)
C9 C 0.4470(4) 0.58896(19) 0.22090(15)
H4 H 0.6077 0.6196 0.2550
C10 C 0.2896(3) 0.72677(18) 0.37524(14)
C11 C 0.3810(3) 0.65263(19) 0.13922(14)
C12 C 0.2644(4) 0.7640(2) -0.01466(16)
C13 C -0.0588(3) 0.54866(18) 0.37603(14)
C14 C 0.1572(4) 0.6302(2) 0.08118(15)
H5 H 0.0450 0.5772 0.0945
C15 C -0.1330(4) 1.0243(2) 0.75989(17)
H6 H -0.1186 1.0985 0.8106
C16 C -0.3065(4) 0.9375(2) 0.75959(18)
H7 H -0.4090 0.9538 0.8101
C17 C 0.4857(4) 0.7893(2) 0.04211(18)
H8 H 0.5963 0.8433 0.0291
C18 C 0.5420(4) 0.7335(2) 0.11871(16)
H9 H 0.6917 0.7507 0.1574
C19 C 0.0982(4) 0.6851(2) 0.00416(16)
H10 H -0.0518 0.6690 -0.0344
C20 C -0.3309(4) 0.8270(2) 0.68590(16)
H11 H -0.4485 0.7687 0.6867
C21 C 0.0195(4) 1.0020(2) 0.68572(16)
H12 H 0.1375 1.0608 0.6863
H13 H 0.460(6) 0.879(3) 0.417(2)
loop_
_geom_bond_atom_site_label_1
_geom_bond_atom_site_label_2
_geom_bond_site_symmetry_1
_geom_bond_site_symmetry_2
Cl1 C12 1_555 1_555
O1 H1 1_555 1_555
O2 C8 1_555 1_555
C1 C2 1_555 1_555
O3 C10 1_555 1_555
O4 C6 1_555 1_555
C2 C8 1_555 1_555
C3 C4 1_555 1_555
C4 C8 1_555 1_555
C5 H2 1_555 1_555
C6 C1 1_555 1_555
C7 C5 1_555 1_555
O5 H3 1_555 1_555
C9 C7 1_555 1_555
H4 C9 1_555 1_555
C10 C2 1_555 1_555
C11 C9 1_555 1_555
C12 C17 1_555 1_555
C13 O1 1_555 1_555
C14 C11 1_555 1_555
H5 C14 1_555 1_555
C15 H6 1_555 1_555
C16 C15 1_555 1_555
H7 C16 1_555 1_555
C17 H8 1_555 1_555
C18 C11 1_555 1_555
H9 C18 1_555 1_555
C19 C12 1_555 1_555
H10 C19 1_555 1_555
C20 C3 1_555 1_555
H11 C20 1_555 1_555
C21 C4 1_555 1_555
H12 C21 1_555 1_555
H13 O3 1_555 1_555
C1 C13 1_555 1_555
C3 C6 1_555 1_555
C5 C13 1_555 1_555
C7 C10 1_555 1_555
O5 C9 1_555 1_555
C14 C19 1_555 1_555
C15 C21 1_555 1_555
C16 C20 1_555 1_555
C17 C18 1_555 1_555

#END
