
#######################################################################
#
#                 Cambridge Crystallographic Data Centre
#                                CCDC 
#
#######################################################################
#
# If this CIF has been generated from an entry in the Cambridge 
# Structural Database, then it will include bibliographic, chemical, 
# crystal, experimental, refinement or atomic coordinate data resulting 
# from the CCDC's data processing and validation procedures.
#
#######################################################################

data_TIKLUW
_chemical_formula_moiety         'C18 H14 O4'
_chemical_name_systematic        
3',3'-Dimethyl-3H-spiro[2-benzofuran-1,2'-chromene]-3,4'(3'H)-dione
_symmetry_cell_setting           monoclinic
_symmetry_space_group_name_H-M   'P 21/c'
_symmetry_Int_Tables_number      14
_space_group_name_Hall           '-P 2ybc'
loop_
_symmetry_equiv_pos_site_id
_symmetry_equiv_pos_as_xyz
1 x,y,z
2 -x,1/2+y,1/2-z
3 -x,-y,-z
4 x,1/2-y,1/2+z
_cell_length_a                   7.8523(7)
_cell_length_b                   13.0526(14)
_cell_length_c                   14.7409(17)
_cell_angle_alpha                90
_cell_angle_beta                 96.751(7)
_cell_angle_gamma                90
_cell_volume                     1500.36
_exptl_crystal_description       block
_cell_formula_units_Z            4
loop_
_atom_site_label
_atom_site_type_symbol
_atom_site_fract_x
_atom_site_fract_y
_atom_site_fract_z
O1 O 0.8411(2) 0.17131(15) 0.36356(12)
O2 O 0.56247(15) 0.08878(10) 0.12536(9)
O3 O 0.66889(17) 0.40198(11) 0.06680(10)
O4 O 0.66301(13) 0.25429(10) 0.14292(8)
C1 C 0.9529(3) -0.0009(2) 0.26470(17)
H1 H 1.0190 0.0125 0.3200
C2 C 0.9991(3) -0.0773(2) 0.2101(2)
H2 H 1.0959 -0.1166 0.2285
C3 C 0.9034(4) -0.0970(2) 0.1278(2)
H3 H 0.9359 -0.1497 0.0911
C4 C 0.7599(3) -0.03950(19) 0.09902(17)
H4 H 0.6973 -0.0517 0.0425
C5 C 0.7110(2) 0.03640(16) 0.15553(14)
C6 C 0.8069(2) 0.05756(16) 0.23839(14)
C7 C 0.7505(3) 0.13790(17) 0.29792(15)
C8 C 0.5665(2) 0.17486(16) 0.27377(12)
C9 C 0.5365(2) 0.18230(15) 0.16941(12)
C10 C 0.5356(3) 0.27644(19) 0.31869(15)
H5 H 0.6090 0.3277 0.2973
H6 H 0.5603 0.2697 0.3838
H7 H 0.4180 0.2963 0.3035
C11 C 0.4505(3) 0.09192(19) 0.30840(16)
H8 H 0.3333 0.1142 0.2989
H9 H 0.4835 0.0805 0.3724
H10 H 0.4625 0.0294 0.2755
C12 C 0.5853(2) 0.33432(16) 0.09403(13)
C13 C 0.3998(2) 0.31772(15) 0.08595(12)
C14 C 0.3680(2) 0.22723(16) 0.12778(12)
C15 C 0.2030(2) 0.19088(19) 0.12712(15)
H11 H 0.1805 0.1286 0.1540
C16 C 0.0720(3) 0.2514(2) 0.08450(16)
H12 H -0.0408 0.2291 0.0829
C17 C 0.1041(3) 0.3432(2) 0.04466(15)
H13 H 0.0129 0.3824 0.0178
C18 C 0.2689(2) 0.37819(17) 0.04369(13)
H14 H 0.2915 0.4398 0.0158
loop_
_geom_bond_atom_site_label_1
_geom_bond_atom_site_label_2
_geom_bond_site_symmetry_1
_geom_bond_site_symmetry_2
O1 C7 1_555 1_555
O2 C5 1_555 1_555
O3 C12 1_555 1_555
O4 C9 1_555 1_555
C1 H1 1_555 1_555
C2 C1 1_555 1_555
H2 C2 1_555 1_555
C3 C2 1_555 1_555
H3 C3 1_555 1_555
C4 C3 1_555 1_555
H4 C4 1_555 1_555
C5 C4 1_555 1_555
C6 C1 1_555 1_555
C7 C6 1_555 1_555
C8 C7 1_555 1_555
C9 O2 1_555 1_555
C10 C8 1_555 1_555
H5 C10 1_555 1_555
H6 C10 1_555 1_555
H7 C10 1_555 1_555
C11 C8 1_555 1_555
H8 C11 1_555 1_555
H9 C11 1_555 1_555
H10 C11 1_555 1_555
C12 O4 1_555 1_555
C13 C12 1_555 1_555
C14 C9 1_555 1_555
C15 C14 1_555 1_555
H11 C15 1_555 1_555
C16 C15 1_555 1_555
H12 C16 1_555 1_555
C17 C16 1_555 1_555
H13 C17 1_555 1_555
C18 C13 1_555 1_555
H14 C18 1_555 1_555
C5 C6 1_555 1_555
C8 C9 1_555 1_555
C13 C14 1_555 1_555
C17 C18 1_555 1_555

#END
