
#######################################################################
#
#                 Cambridge Crystallographic Data Centre
#                                CCDC 
#
#######################################################################
#
# If this CIF has been generated from an entry in the Cambridge 
# Structural Database, then it will include bibliographic, chemical, 
# crystal, experimental, refinement or atomic coordinate data resulting 
# from the CCDC's data processing and validation procedures.
#
#######################################################################

data_TIKLAC
_chemical_formula_moiety         'C23 H24 F1 N3 O1'
_chemical_name_systematic        
N'-(4-Ethylcyclohexylidene)-5-fluoro-3-phenyl-1H-indole-2-carbohydrazide
_symmetry_cell_setting           triclinic
_symmetry_space_group_name_H-M   'P -1'
_symmetry_Int_Tables_number      2
_space_group_name_Hall           '-P 1'
loop_
_symmetry_equiv_pos_site_id
_symmetry_equiv_pos_as_xyz
1 x,y,z
2 -x,-y,-z
_cell_length_a                   11.8121(5)
_cell_length_b                   13.3802(5)
_cell_length_c                   15.5693(6)
_cell_angle_alpha                114.328(3)
_cell_angle_beta                 95.642(3)
_cell_angle_gamma                110.434(3)
_cell_volume                     2014.85
_exptl_crystal_colour            colorless
_exptl_crystal_description       prism
_cell_formula_units_Z            4
loop_
_atom_site_label
_atom_site_type_symbol
_atom_site_fract_x
_atom_site_fract_y
_atom_site_fract_z
F1 F 0.05143(16) -0.22445(17) 0.21734(13)
O1 O 0.59795(19) 0.40150(17) 0.65907(12)
N1 N 0.3715(2) 0.2028(2) 0.53565(15)
N2 N 0.7073(2) 0.3010(2) 0.58120(15)
N3 N 0.8220(2) 0.3863(2) 0.65017(14)
C1 C 0.2761(2) 0.0988(2) 0.46077(16)
C2 C 0.1458(3) 0.0503(3) 0.4466(2)
C3 C 0.0724(3) -0.0574(3) 0.3636(2)
C4 C 0.1284(3) -0.1150(3) 0.29687(19)
C5 C 0.2541(2) -0.0691(2) 0.30711(17)
C6 C 0.3310(2) 0.0409(2) 0.39164(16)
C7 C 0.4643(2) 0.1138(2) 0.42771(15)
C8 C 0.5555(2) 0.0856(2) 0.37421(15)
C9 C 0.5933(3) -0.0018(2) 0.3731(2)
C10 C 0.6731(3) -0.0321(3) 0.3197(2)
C11 C 0.7165(3) 0.0241(3) 0.2664(2)
C12 C 0.6810(3) 0.1118(4) 0.2665(2)
C13 C 0.6016(3) 0.1429(3) 0.3202(2)
C14 C 0.4853(2) 0.2117(2) 0.51692(16)
C15 C 0.6011(2) 0.3143(2) 0.59215(16)
C16 C 0.9194(3) 0.3713(3) 0.63047(18)
C17 C 0.9279(3) 0.2770(3) 0.5408(2)
C18 C 1.0327(4) 0.3371(4) 0.5030(3)
C19 C 1.1560(3) 0.4280(4) 0.5781(3)
C20 C 1.1385(3) 0.5181(4) 0.6656(3)
C21 C 1.0427(3) 0.4600(3) 0.7075(2)
C22 C 1.2593(5) 0.4974(5) 0.5436(4)
C23 C 1.3041(6) 0.4198(6) 0.4711(5)
H1 H 0.11020 0.08990 0.49220
H2 H 0.362(2) 0.246(2) 0.5898(19)
H3 H 0.28770 -0.10920 0.26000
H4 H 0.56410 -0.04090 0.40930
H5 H 0.69740 -0.09100 0.32000
H6 H 0.77020 0.00340 0.22990
H7 H 0.71090 0.15030 0.23000
H8 H 0.693(2) 0.237(3) 0.534(2)
H9 H -0.01470 -0.09200 0.35160
H10 H 0.94590 0.21980 0.55600
H11 H 1.04670 0.27370 0.45240
H12 H 1.00290 0.37680 0.47230
H13 H 1.18950 0.38310 0.60100
H14 H 1.11240 0.56930 0.64710
H15 H 1.21860 0.56970 0.71610
H16 H 1.07410 0.41830 0.73490
H17 H 1.03000 0.52250 0.76020
H18 H 1.22650 0.53750 0.51510
H19 H 1.33040 0.55990 0.60040
H20 H 1.36860 0.46880 0.45370
H21 H 1.23510 0.35960 0.41340
H22 H 1.33770 0.38050 0.49880
H23 H 0.57860 0.20270 0.32020
H24 H 0.84800 0.23270 0.49020
F2 F 0.6710(2) 1.04361(17) 0.94884(19)
O2 O 0.31889(19) 0.31546(16) 0.71583(12)
N4 N 0.4818(2) 0.5522(2) 0.76600(14)
N5 N 0.2973(2) 0.37572(19) 0.86894(15)
N6 N 0.21921(19) 0.26057(17) 0.85033(14)
C26 C 0.5392(2) 0.6749(2) 0.80253(17)
C27 C 0.6219(3) 0.7449(3) 0.7690(2)
C28 C 0.6642(3) 0.8682(3) 0.8203(2)
C29 C 0.6270(3) 0.9203(3) 0.9024(3)
C30 C 0.5475(3) 0.8556(3) 0.9381(2)
C31 C 0.5031(2) 0.7290(2) 0.88695(17)
C32 C 0.4220(2) 0.6328(2) 0.90166(15)
C33 C 0.3655(2) 0.6474(2) 0.98483(15)
C34 C 0.4393(3) 0.6817(3) 1.07581(18)
C35 C 0.3872(3) 0.6855(3) 1.15265(19)
C36 C 0.2624(3) 0.6584(3) 1.1401(2)
C37 C 0.1891(3) 0.6286(3) 1.0519(2)
C38 C 0.2405(3) 0.6232(3) 0.97499(19)
C39 C 0.4113(2) 0.5258(2) 0.82567(15)
C40 C 0.3391(2) 0.3971(2) 0.79784(15)
C41 C 0.1917(2) 0.2488(2) 0.92415(17)
C42 C 0.2397(3) 0.3436(3) 1.03009(18)
C43 C 0.1395(3) 0.3362(3) 1.0833(2)
C44 C 0.0615(3) 0.2083(3) 1.0657(2)
C45 C 0.0033(3) 0.1244(3) 0.9559(2)
C46 C 0.1045(3) 0.1235(2) 0.9033(2)
C47 C -0.0340(3) 0.2019(3) 1.1234(2)
C48 C 0.0227(4) 0.2544(4) 1.2315(3)
H30 H 0.498(2) 0.498(2) 0.7245(19)
H31 H 0.314(2) 0.436(2) 0.9156(14)
H32 H 0.64700 0.70880 0.71390
H33 H 0.71830 0.91740 0.79960
H34 H 0.52420 0.89380 0.99360
H35 H 0.52510 0.70250 1.08560
H36 H 0.43770 0.70670 1.21280
H37 H 0.22720 0.66000 1.19130
H38 H 0.10430 0.61190 1.04360
H39 H 0.18950 0.60290 0.91540
H40 H 0.27480 0.42330 1.03430
H41 H 0.30720 0.33500 1.06280
H42 H 0.08380 0.36550 1.06210
H43 H 0.17940 0.38920 1.15330
H44 H 0.12010 0.18130 1.08810
H45 H -0.04730 0.04260 0.94380
H46 H -0.05160 0.15130 0.93010
H47 H 0.15310 0.08770 0.92370
H48 H 0.06490 0.07330 0.83300
H49 H -0.08110 0.24500 1.11400
H50 H -0.09300 0.11760 1.09730
H51 H 0.08040 0.33820 1.25830
H52 H 0.06690 0.21030 1.24170
H53 H -0.04290 0.24820 1.26350
C24? C 1.366(2) 0.508(2) 0.537(2)
C25? C 1.2352(13) 0.4138(18) 0.5038(15)
H25? H 1.23840 0.33610 0.48320
H26? H 1.19020 0.41020 0.44620
H27? H 1.39350 0.50710 0.48030
H28? H 1.42060 0.49200 0.57380
H29? H 1.36940 0.58660 0.57710
loop_
_geom_bond_atom_site_label_1
_geom_bond_atom_site_label_2
_geom_bond_site_symmetry_1
_geom_bond_site_symmetry_2
F1 C4 1_555 1_555
O1 C15 1_555 1_555
N1 C1 1_555 1_555
N2 N3 1_555 1_555
N3 C16 1_555 1_555
C1 C2 1_555 1_555
C2 C3 1_555 1_555
C3 C4 1_555 1_555
C4 C5 1_555 1_555
C5 C6 1_555 1_555
C6 C1 1_555 1_555
C7 C6 1_555 1_555
C8 C7 1_555 1_555
C9 C8 1_555 1_555
C10 C9 1_555 1_555
C11 C10 1_555 1_555
C12 C11 1_555 1_555
C13 C8 1_555 1_555
C14 N1 1_555 1_555
C15 N2 1_555 1_555
C16 C17 1_555 1_555
C17 C18 1_555 1_555
C18 C19 1_555 1_555
C19 C20 1_555 1_555
C20 C21 1_555 1_555
C21 C16 1_555 1_555
C22 C19 1_555 1_555
C23 C22 1_555 1_555
H1 C2 1_555 1_555
H2 N1 1_555 1_555
H3 C5 1_555 1_555
H4 C9 1_555 1_555
H5 C10 1_555 1_555
H6 C11 1_555 1_555
H7 C12 1_555 1_555
H8 N2 1_555 1_555
H9 C3 1_555 1_555
H10 C17 1_555 1_555
H11 C18 1_555 1_555
H12 C18 1_555 1_555
H13 C19 1_555 1_555
H14 C20 1_555 1_555
H15 C20 1_555 1_555
H16 C21 1_555 1_555
H17 C21 1_555 1_555
H18 C22 1_555 1_555
H19 C22 1_555 1_555
H20 C23 1_555 1_555
H21 C23 1_555 1_555
H22 C23 1_555 1_555
H23 C13 1_555 1_555
H24 C17 1_555 1_555
F2 C29 1_555 1_555
O2 C40 1_555 1_555
N4 C26 1_555 1_555
N5 N6 1_555 1_555
N6 C41 1_555 1_555
C26 C27 1_555 1_555
C27 C28 1_555 1_555
C28 C29 1_555 1_555
C29 C30 1_555 1_555
C30 C31 1_555 1_555
C31 C26 1_555 1_555
C32 C31 1_555 1_555
C33 C32 1_555 1_555
C34 C33 1_555 1_555
C35 C34 1_555 1_555
C36 C35 1_555 1_555
C37 C36 1_555 1_555
C38 C33 1_555 1_555
C39 N4 1_555 1_555
C40 N5 1_555 1_555
C41 C42 1_555 1_555
C42 C43 1_555 1_555
C43 C44 1_555 1_555
C44 C45 1_555 1_555
C45 C46 1_555 1_555
C46 C41 1_555 1_555
C47 C44 1_555 1_555
C48 C47 1_555 1_555
H30 N4 1_555 1_555
H31 N5 1_555 1_555
H32 C27 1_555 1_555
H33 C28 1_555 1_555
H34 C30 1_555 1_555
H35 C34 1_555 1_555
H36 C35 1_555 1_555
H37 C36 1_555 1_555
H38 C37 1_555 1_555
H39 C38 1_555 1_555
H40 C42 1_555 1_555
H41 C42 1_555 1_555
H42 C43 1_555 1_555
H43 C43 1_555 1_555
H44 C44 1_555 1_555
H45 C45 1_555 1_555
H46 C45 1_555 1_555
H47 C46 1_555 1_555
H48 C46 1_555 1_555
H49 C47 1_555 1_555
H50 C47 1_555 1_555
H51 C48 1_555 1_555
H52 C48 1_555 1_555
H53 C48 1_555 1_555
C7 C14 1_555 1_555
C12 C13 1_555 1_555
C14 C15 1_555 1_555
C32 C39 1_555 1_555
C37 C38 1_555 1_555
C39 C40 1_555 1_555

#END
