
#######################################################################
#
#                 Cambridge Crystallographic Data Centre
#                                CCDC 
#
#######################################################################
#
# If this CIF has been generated from an entry in the Cambridge 
# Structural Database, then it will include bibliographic, chemical, 
# crystal, experimental, refinement or atomic coordinate data resulting 
# from the CCDC's data processing and validation procedures.
#
#######################################################################

data_TIKLEG
_chemical_formula_moiety         'C21 H25 N1 O5'
_chemical_name_systematic        
'Methyl 1-benzyl-2-(2-(methoxycarbonyl)-3-oxobutyl)-4,5-dimethyl-1H-pyrrole-3-carboxylate'
_symmetry_cell_setting           triclinic
_symmetry_space_group_name_H-M   'P -1'
_symmetry_Int_Tables_number      2
_space_group_name_Hall           '-P 1'
loop_
_symmetry_equiv_pos_site_id
_symmetry_equiv_pos_as_xyz
1 x,y,z
2 -x,-y,-z
_cell_length_a                   9.7999(3)
_cell_length_b                   10.1149(3)
_cell_length_c                   11.2907(4)
_cell_angle_alpha                90.033(2)
_cell_angle_beta                 102.509(2)
_cell_angle_gamma                113.507(2)
_cell_volume                     997.209
_exptl_crystal_colour            colorless
_exptl_crystal_description       cubic
_cell_formula_units_Z            2
loop_
_atom_site_label
_atom_site_type_symbol
_atom_site_fract_x
_atom_site_fract_y
_atom_site_fract_z
N1 N 0.2420(3) 0.3801(2) 0.1333(2)
C1 C 0.3587(3) 0.4648(2) 0.2286(2)
C2 C 0.4923(4) 0.4588(3) 0.2129(2)
C3 C 0.3051(4) 0.7536(3) 0.2198(3)
C4 C 0.3323(4) 0.5420(3) 0.3287(2)
H1 H 0.3813 0.5216 0.4065
H2 H 0.2233 0.5041 0.3239
C5 C 0.3020(4) 0.3191(3) 0.0580(2)
C6 C 0.0151(4) 0.2192(3) 0.2039(3)
C7 C 0.3942(4) 0.7080(3) 0.3238(2)
H3 H 0.5004 0.7435 0.3162
C8 C 0.4538(4) 0.3661(3) 0.1038(3)
C9 C 0.6386(4) 0.5329(3) 0.2996(3)
C10 C 0.0803(4) 0.3378(3) 0.1248(3)
H4 H 0.0247 0.3051 0.0407
H5 H 0.0646 0.4220 0.1485
C11 C 0.0888(4) 0.1328(3) 0.2497(3)
H6 H 0.1831 0.1494 0.2336
C12 C 0.3931(5) 0.7773(3) 0.4434(3)
C13 C 0.0252(5) 0.0213(4) 0.3195(3)
H7 H 0.0774 -0.0354 0.3493
C14 C 0.5609(5) 0.3281(3) 0.0472(3)
H8 H 0.5069 0.2761 -0.0315
H9 H 0.5990 0.2687 0.0985
H10 H 0.6451 0.4153 0.0387
C15 C -0.1111(6) -0.0054(5) 0.3445(3)
H11 H -0.1540 -0.0811 0.3900
C16 C 0.1992(5) 0.2215(4) -0.0546(3)
H12 H 0.2590 0.1923 -0.0972
H13 H 0.1497 0.2724 -0.1065
H14 H 0.1233 0.1373 -0.0319
C17 C 0.5193(6) 0.8002(4) 0.5493(3)
H15 H 0.6107 0.8776 0.5379
H16 H 0.5360 0.7130 0.5580
H17 H 0.4940 0.8249 0.6213
C18 C 0.3121(6) 0.9486(4) 0.1065(4)
H18 H 0.2969 0.9003 0.0285
H19 H 0.3741 1.0500 0.1076
H20 H 0.2148 0.9358 0.1209
C19 C -0.1222(5) 0.1927(4) 0.2317(4)
H21 H -0.1744 0.2500 0.2035
C20 C -0.1849(6) 0.0794(6) 0.3025(4)
H22 H -0.2783 0.0626 0.3206
C21 C 0.8994(6) 0.5714(6) 0.3574(5)
H23 H 0.9165 0.6680 0.3840
H24 H 0.9773 0.5749 0.3169
H25 H 0.9033 0.5168 0.4267
O1 O 0.3873(3) 0.8888(2) 0.1994(2)
O2 O 0.1784(3) 0.6827(2) 0.1624(2)
O3 O 0.7511(3) 0.5027(3) 0.2742(2)
O4 O 0.6608(3) 0.6113(3) 0.3892(2)
O5 O 0.2891(5) 0.8118(4) 0.4479(3)
loop_
_geom_bond_atom_site_label_1
_geom_bond_atom_site_label_2
_geom_bond_site_symmetry_1
_geom_bond_site_symmetry_2
N1 C1 1_555 1_555
C1 C2 1_555 1_555
C2 C8 1_555 1_555
C3 C7 1_555 1_555
C4 C1 1_555 1_555
H1 C4 1_555 1_555
H2 C4 1_555 1_555
C5 N1 1_555 1_555
C6 C10 1_555 1_555
C7 C4 1_555 1_555
H3 C7 1_555 1_555
C8 C5 1_555 1_555
C9 C2 1_555 1_555
C10 N1 1_555 1_555
H4 C10 1_555 1_555
H5 C10 1_555 1_555
C11 C6 1_555 1_555
H6 C11 1_555 1_555
C12 C7 1_555 1_555
C13 C11 1_555 1_555
H7 C13 1_555 1_555
C14 C8 1_555 1_555
H8 C14 1_555 1_555
H9 C14 1_555 1_555
H10 C14 1_555 1_555
C15 C13 1_555 1_555
H11 C15 1_555 1_555
C16 C5 1_555 1_555
H12 C16 1_555 1_555
H13 C16 1_555 1_555
H14 C16 1_555 1_555
C17 C12 1_555 1_555
H15 C17 1_555 1_555
H16 C17 1_555 1_555
H17 C17 1_555 1_555
C18 H18 1_555 1_555
H19 C18 1_555 1_555
H20 C18 1_555 1_555
C19 C6 1_555 1_555
H21 C19 1_555 1_555
C20 C15 1_555 1_555
H22 C20 1_555 1_555
C21 H23 1_555 1_555
H24 C21 1_555 1_555
H25 C21 1_555 1_555
O1 C3 1_555 1_555
O2 C3 1_555 1_555
O3 C9 1_555 1_555
O4 C9 1_555 1_555
O5 C12 1_555 1_555
C18 O1 1_555 1_555
C19 C20 1_555 1_555
C21 O3 1_555 1_555

#END
