
#######################################################################
#
#                 Cambridge Crystallographic Data Centre
#                                CCDC 
#
#######################################################################
#
# If this CIF has been generated from an entry in the Cambridge 
# Structural Database, then it will include bibliographic, chemical, 
# crystal, experimental, refinement or atomic coordinate data resulting 
# from the CCDC's data processing and validation procedures.
#
#######################################################################

data_TIKMIL
_chemical_formula_moiety         'C28 H12 F4 O4'
_chemical_name_systematic        
'Dimethyl 7,8,9,10-tetrafluoro-5,6,11,12,17,18-hexadehydrotribenzo[a,e,i][12]annulene-2,15-dicarboxylate'
_symmetry_cell_setting           monoclinic
_symmetry_space_group_name_H-M   'P 21/c'
_symmetry_Int_Tables_number      14
_space_group_name_Hall           '-P 2ybc'
loop_
_symmetry_equiv_pos_site_id
_symmetry_equiv_pos_as_xyz
1 x,y,z
2 -x,1/2+y,1/2-z
3 -x,-y,-z
4 x,1/2-y,1/2+z
_cell_length_a                   6.77940(10)
_cell_length_b                   32.4721(4)
_cell_length_c                   9.8333(2)
_cell_angle_alpha                90
_cell_angle_beta                 97.8490(6)
_cell_angle_gamma                90
_cell_volume                     2144.44
_exptl_crystal_colour            yellow
_exptl_crystal_description       needle
_cell_formula_units_Z            4
loop_
_atom_site_label
_atom_site_type_symbol
_atom_site_fract_x
_atom_site_fract_y
_atom_site_fract_z
F1 F 0.36618(16) 0.44364(3) 0.78930(10)
F2 F 0.27386(16) 0.37147(3) 0.66228(10)
F3 F 0.14042(16) 0.36965(3) 0.38877(11)
F4 F 0.10014(15) 0.44035(3) 0.24364(9)
O1 O 0.1715(2) 0.72886(4) 0.02591(12)
O2 O 0.01059(19) 0.69071(4) -0.14562(12)
O3 O 0.67203(19) 0.70940(4) 1.07673(12)
O4 O 0.56532(19) 0.73717(3) 0.86970(11)
C1 C 0.2823(3) 0.48083(5) 0.58318(16)
C2 C 0.3014(3) 0.44374(5) 0.65394(17)
C3 C 0.2544(3) 0.40663(5) 0.59049(18)
C4 C 0.1853(3) 0.40570(5) 0.45168(18)
C5 C 0.1652(3) 0.44193(5) 0.37909(17)
C6 C 0.2118(3) 0.47985(5) 0.44073(16)
C7 C 0.1902(3) 0.51669(5) 0.36161(16)
C8 C 0.1703(3) 0.54796(5) 0.29621(16)
C9 C 0.1459(3) 0.58520(5) 0.21804(16)
C10 C 0.0717(3) 0.58427(5) 0.07861(17)
C11 C 0.0517(3) 0.62010(5) 0.00222(17)
C12 C 0.1068(3) 0.65772(5) 0.06436(16)
C13 C 0.1780(3) 0.65932(5) 0.20358(16)
C14 C 0.1973(3) 0.62352(5) 0.28219(16)
C15 C 0.2675(3) 0.62497(5) 0.42615(17)
C16 C 0.3255(3) 0.62551(5) 0.54717(17)
C17 C 0.4004(3) 0.62681(5) 0.69071(16)
C18 C 0.4555(3) 0.66428(5) 0.75336(16)
C19 C 0.5351(3) 0.66592(5) 0.89126(16)
C20 C 0.5578(3) 0.62988(5) 0.96875(17)
C21 C 0.5031(3) 0.59248(5) 0.90818(17)
C22 C 0.4237(3) 0.59021(5) 0.76933(16)
C23 C 0.3705(3) 0.55149(5) 0.70646(16)
C24 C 0.3295(3) 0.51877(5) 0.65142(16)
C25 C 0.1007(3) 0.69662(5) -0.01706(16)
C26 C 0.0203(3) 0.72466(6) -0.24018(19)
C27 C 0.5979(3) 0.70587(5) 0.95851(16)
C28 C 0.6157(3) 0.77780(6) 0.9230(2)
H1 H 0.03514 0.55924 0.03658
H2 H 0.00165 0.61911 -0.09061
H3 H 0.21318 0.68455 0.24467
H4 H 0.4389 0.68848 0.70246
H5 H 0.60992 0.63102 1.06121
H6 H 0.51917 0.56851 0.96029
H7 H -0.04831 0.71728 -0.32875
H8 H 0.15702 0.73066 -0.24779
H9 H -0.04137 0.74852 -0.20664
H10 H 0.5862 0.79772 0.85091
H11 H 0.75501 0.77884 0.95756
H12 H 0.53926 0.78386 0.9958
loop_
_geom_bond_atom_site_label_1
_geom_bond_atom_site_label_2
_geom_bond_site_symmetry_1
_geom_bond_site_symmetry_2
F1 C2 1_555 1_555
F2 C3 1_555 1_555
F3 C4 1_555 1_555
F4 C5 1_555 1_555
O1 C25 1_555 1_555
O2 C25 1_555 1_555
O3 C27 1_555 1_555
O4 C27 1_555 1_555
C1 C2 1_555 1_555
C2 C3 1_555 1_555
C3 C4 1_555 1_555
C4 C5 1_555 1_555
C5 C6 1_555 1_555
C6 C1 1_555 1_555
C7 C6 1_555 1_555
C8 C7 1_555 1_555
C9 C8 1_555 1_555
C10 C9 1_555 1_555
C11 C10 1_555 1_555
C12 C11 1_555 1_555
C13 C12 1_555 1_555
C14 C9 1_555 1_555
C15 C14 1_555 1_555
C16 C15 1_555 1_555
C17 C16 1_555 1_555
C18 C17 1_555 1_555
C19 C18 1_555 1_555
C20 C19 1_555 1_555
C21 C20 1_555 1_555
C22 C17 1_555 1_555
C23 C22 1_555 1_555
C24 C1 1_555 1_555
C25 C12 1_555 1_555
C26 O2 1_555 1_555
C27 C19 1_555 1_555
C28 O4 1_555 1_555
H1 C10 1_555 1_555
H2 C11 1_555 1_555
H3 C13 1_555 1_555
H4 C18 1_555 1_555
H5 C20 1_555 1_555
H6 C21 1_555 1_555
H7 C26 1_555 1_555
H8 C26 1_555 1_555
H9 C26 1_555 1_555
H10 C28 1_555 1_555
H11 C28 1_555 1_555
H12 C28 1_555 1_555
C13 C14 1_555 1_555
C21 C22 1_555 1_555
C23 C24 1_555 1_555

#END
