
#######################################################################
#
#                 Cambridge Crystallographic Data Centre
#                                CCDC 
#
#######################################################################
#
# If this CIF has been generated from an entry in the Cambridge 
# Structural Database, then it will include bibliographic, chemical, 
# crystal, experimental, refinement or atomic coordinate data resulting 
# from the CCDC's data processing and validation procedures.
#
#######################################################################

data_TIKPEK
_chemical_formula_moiety         'C14 H15 Cl1 O3'
_chemical_name_systematic        
'Ethyl 1-chloro-2-(4-methylbenzoyl)cyclopropanecarboxylate'
_symmetry_cell_setting           triclinic
_symmetry_space_group_name_H-M   'P -1'
_symmetry_Int_Tables_number      2
_space_group_name_Hall           '-P 1'
loop_
_symmetry_equiv_pos_site_id
_symmetry_equiv_pos_as_xyz
1 x,y,z
2 -x,-y,-z
_cell_length_a                   6.9652(16)
_cell_length_b                   8.1610(19)
_cell_length_c                   12.307(3)
_cell_angle_alpha                81.370(3)
_cell_angle_beta                 76.030(3)
_cell_angle_gamma                88.152(4)
_cell_volume                     671.183
_cell_formula_units_Z            2
loop_
_atom_site_label
_atom_site_type_symbol
_atom_site_fract_x
_atom_site_fract_y
_atom_site_fract_z
C1 C 0.2687(4) 1.4429(3) -0.0913(2)
H1 H 0.3825 1.4474 -0.1539
H2 H 0.2808 1.5258 -0.0456
H3 H 0.1515 1.4630 -0.1193
C2 C 0.2551(3) 1.2740(2) -0.02080(16)
C3 C 0.2422(3) 1.2573(2) 0.09487(17)
H4 H 0.2393 1.3516 0.1293
C4 C 0.2336(3) 1.1024(2) 0.15957(15)
H5 H 0.2261 1.0938 0.2367
C5 C 0.2360(2) 0.9598(2) 0.11042(13)
C6 C 0.2457(3) 0.9757(2) -0.00518(14)
H6 H 0.2452 0.8816 -0.0394
C7 C 0.2558(3) 1.1306(2) -0.06886(14)
H7 H 0.2634 1.1392 -0.1460
C8 C 0.2276(3) 0.7908(2) 0.17572(15)
C9 C 0.2622(3) 0.7720(2) 0.29344(15)
H8 H 0.3521 0.8528 0.3066
C10 C 0.2659(4) 0.6001(3) 0.35621(17)
H9 H 0.2450 0.5084 0.3185
H10 H 0.3589 0.5780 0.4039
C11 C 0.0927(3) 0.7083(2) 0.39429(15)
C12 C 0.0685(3) 0.7787(3) 0.50246(16)
C13 C 0.2226(8) 0.8407(9) 0.6378(4)
H11 H 0.1303 0.7665 0.6937
H12 H 0.1748 0.9533 0.6407
C14 C 0.4219(9) 0.8252(10) 0.6606(6)
H13 H 0.4650 0.7123 0.6607
H14 H 0.4171 0.8575 0.7331
H15 H 0.5129 0.8957 0.6029
Cl1 Cl -0.13489(9) 0.66309(8) 0.36878(5)
O1 O 0.1962(3) 0.66949(18) 0.13661(12)
O2 O -0.0878(3) 0.8098(3) 0.56173(13)
O3 O 0.2409(3) 0.7969(2) 0.52416(14)
C15? C 0.336(3) 0.7750(18) 0.6913(13)
H16? H 0.2211 0.7055 0.7211
H17? H 0.3670 0.8241 0.7512
H18? H 0.4458 0.7095 0.6586
C16? C 0.296(3) 0.9063(13) 0.6039(10)
H19? H 0.4127 0.9737 0.5671
H20? H 0.1878 0.9768 0.6340
loop_
_geom_bond_atom_site_label_1
_geom_bond_atom_site_label_2
_geom_bond_site_symmetry_1
_geom_bond_site_symmetry_2
C1 H1 1_555 1_555
H2 C1 1_555 1_555
H3 C1 1_555 1_555
C2 C1 1_555 1_555
C3 C2 1_555 1_555
H4 C3 1_555 1_555
C4 C3 1_555 1_555
H5 C4 1_555 1_555
C5 C4 1_555 1_555
C6 C5 1_555 1_555
H6 C6 1_555 1_555
C7 C2 1_555 1_555
H7 C7 1_555 1_555
C8 C5 1_555 1_555
C9 C8 1_555 1_555
H8 C9 1_555 1_555
C10 C9 1_555 1_555
H9 C10 1_555 1_555
H10 C10 1_555 1_555
C11 C9 1_555 1_555
C12 C11 1_555 1_555
C13 H11 1_555 1_555
H12 C13 1_555 1_555
C14 C13 1_555 1_555
H13 C14 1_555 1_555
H14 C14 1_555 1_555
H15 C14 1_555 1_555
Cl1 C11 1_555 1_555
O1 C8 1_555 1_555
O2 C12 1_555 1_555
O3 C12 1_555 1_555
C6 C7 1_555 1_555
C10 C11 1_555 1_555
C13 O3 1_555 1_555

#END
