
#######################################################################
#
#                 Cambridge Crystallographic Data Centre
#                                CCDC 
#
#######################################################################
#
# If this CIF has been generated from an entry in the Cambridge 
# Structural Database, then it will include bibliographic, chemical, 
# crystal, experimental, refinement or atomic coordinate data resulting 
# from the CCDC's data processing and validation procedures.
#
#######################################################################

data_TIKROV
_chemical_formula_moiety         'C12 H15 N1 O7 S1'
_chemical_name_systematic        
'2,3,4- Tri-O-acetyl-\b-D-xylopyranosyl isothiocyanate'
_symmetry_cell_setting           triclinic
_symmetry_space_group_name_H-M   'P 1'
_symmetry_Int_Tables_number      1
_space_group_name_Hall           'P 1'
loop_
_symmetry_equiv_pos_site_id
_symmetry_equiv_pos_as_xyz
1 x,y,z
_cell_length_a                   7.824(3)
_cell_length_b                   9.252(3)
_cell_length_c                   10.827(4)
_cell_angle_alpha                91.565(6)
_cell_angle_beta                 101.021(7)
_cell_angle_gamma                90.696(6)
_cell_volume                     768.879
_exptl_crystal_colour            colorless
_cell_formula_units_Z            2
_exptl_crystal_recrystallization_method 'ethyl acetate/petroleum ether'
loop_
_atom_site_label
_atom_site_type_symbol
_atom_site_fract_x
_atom_site_fract_y
_atom_site_fract_z
S1 S 0.4969(2) 0.74486(19) 0.20152(14)
O1 O 0.3440(3) 0.7442(3) -0.2130(2)
O2 O -0.0736(4) 0.8478(3) -0.1377(2)
O3 O -0.0737(3) 1.0883(4) -0.1099(4)
O4 O -0.1034(3) 0.9427(3) -0.3918(2)
O5 O -0.3300(5) 0.7997(5) -0.4456(6)
O6 O 0.1020(4) 0.7828(4) -0.5343(3)
O7 O 0.1966(7) 0.9927(6) -0.5964(4)
N1 N 0.2699(6) 0.7733(5) -0.0199(3)
C1 C 0.2020(6) 0.7423(4) -0.1492(4)
C2 C 0.0713(5) 0.8570(4) -0.2014(3)
C3 C 0.0087(5) 0.8275(4) -0.3408(3)
C4 C 0.1624(5) 0.8239(4) -0.4040(3)
C5 C 0.2904(6) 0.7120(5) -0.3448(4)
C6 C 0.3707(6) 0.7558(5) 0.0722(4)
C7 C -0.1375(6) 0.9716(5) -0.0987(4)
C8 C -0.2943(6) 0.9458(5) -0.0451(5)
C9 C -0.2696(6) 0.9127(6) -0.4442(5)
C10 C -0.3605(8) 1.0426(7) -0.4979(6)
C11 C 0.1193(7) 0.8829(9) -0.6220(5)
C12 C 0.0289(9) 0.8297(11) -0.7504(5)
S2 S -0.5727(2) 1.4196(2) -0.57657(14)
O8 O -0.1474(4) 1.4790(3) -0.1673(3)
O9 O -0.6049(3) 1.3730(3) -0.2240(2)
O10 O -0.6276(5) 1.1316(4) -0.2492(4)
O11 O -0.4813(3) 1.2770(3) 0.0309(2)
O12 O -0.7103(5) 1.4095(4) 0.0530(4)
O13 O -0.1822(4) 1.4496(4) 0.1608(3)
O14 O -0.1272(9) 1.2273(7) 0.2274(5)
N2 N -0.3366(5) 1.4527(5) -0.3539(3)
C13 C -0.3246(5) 1.4808(4) -0.2224(3)
C14 C -0.4248(5) 1.3652(4) -0.1653(3)
C15 C -0.4020(5) 1.3932(4) -0.0247(3)
C16 C -0.2089(5) 1.4009(4) 0.0310(4)
C17 C -0.1205(6) 1.5117(5) -0.0358(4)
C18 C -0.4451(7) 1.4392(5) -0.4468(4)
C19 C -0.6931(7) 1.2473(5) -0.2629(4)
C20 C -0.8764(7) 1.2740(6) -0.3211(5)
C21 C -0.6328(6) 1.2987(5) 0.0680(4)
C22 C -0.6898(7) 1.1671(6) 0.1263(5)
C23 C -0.1349(8) 1.3548(9) 0.2493(6)
C24 C -0.1020(11) 1.4265(11) 0.3761(5)
loop_
_geom_bond_atom_site_label_1
_geom_bond_atom_site_label_2
_geom_bond_site_symmetry_1
_geom_bond_site_symmetry_2
S1 C6 1_555 1_555
S2 C18 1_555 1_555
O1 C1 1_555 1_555
O2 C2 1_555 1_555
O3 C7 1_555 1_555
O4 C3 1_555 1_555
O5 C9 1_555 1_555
O6 C4 1_555 1_555
O7 C11 1_555 1_555
O8 C13 1_555 1_555
O9 C14 1_555 1_555
O10 C19 1_555 1_555
O11 C15 1_555 1_555
O12 C21 1_555 1_555
O13 C16 1_555 1_555
O14 C23 1_555 1_555
N1 C1 1_555 1_555
N2 C13 1_555 1_555
C1 C2 1_555 1_555
C2 C3 1_555 1_555
C3 C4 1_555 1_555
C4 C5 1_555 1_555
C5 O1 1_555 1_555
C6 N1 1_555 1_555
C7 O2 1_555 1_555
C8 C7 1_555 1_555
C9 O4 1_555 1_555
C10 C9 1_555 1_555
C11 O6 1_555 1_555
C12 C11 1_555 1_555
C13 C14 1_555 1_555
C14 C15 1_555 1_555
C15 C16 1_555 1_555
C16 C17 1_555 1_555
C17 O8 1_555 1_555
C18 N2 1_555 1_555
C19 O9 1_555 1_555
C20 C19 1_555 1_555
C21 O11 1_555 1_555
C22 C21 1_555 1_555
C23 O13 1_555 1_555
C24 C23 1_555 1_555

#END
