
#######################################################################
#
#                 Cambridge Crystallographic Data Centre
#                                CCDC 
#
#######################################################################
#
# If this CIF has been generated from an entry in the Cambridge 
# Structural Database, then it will include bibliographic, chemical, 
# crystal, experimental, refinement or atomic coordinate data resulting 
# from the CCDC's data processing and validation procedures.
#
#######################################################################

data_TIKSOX
_chemical_formula_moiety         'C45 H29 N1 O3,C1 H1 Cl3'
_chemical_name_systematic        
'10-(3-Oxo-1,4-diphenyldibenzo[f,h]isoquinolin-2(3H)-yl)-9-phenanthryl acetate chloroform solvate'
_symmetry_cell_setting           monoclinic
_symmetry_space_group_name_H-M   'P 21/n'
_symmetry_Int_Tables_number      14
_space_group_name_Hall           '-P 2yn'
loop_
_symmetry_equiv_pos_site_id
_symmetry_equiv_pos_as_xyz
1 x,y,z
2 1/2-x,1/2+y,1/2-z
3 -x,-y,-z
4 1/2+x,1/2-y,1/2+z
_cell_length_a                   15.2153(7)
_cell_length_b                   19.0192(10)
_cell_length_c                   15.5313(9)
_cell_angle_alpha                90
_cell_angle_beta                 110.291(6)
_cell_angle_gamma                90
_cell_volume                     4215.58
_exptl_crystal_colour            yellow
_exptl_crystal_description       block
_cell_formula_units_Z            4
loop_
_atom_site_label
_atom_site_type_symbol
_atom_site_fract_x
_atom_site_fract_y
_atom_site_fract_z
Cl1 Cl 1.29055(11) 0.15281(12) 0.81779(12)
Cl2 Cl 1.24695(11) 0.11895(9) 0.63069(12)
Cl3 Cl 1.25284(15) 0.26311(10) 0.68489(18)
C1 C 1.2263(3) 0.1777(3) 0.7063(4)
H1 H 1.1596 0.1756 0.6985
O1 O 1.06005(15) 0.18303(13) 0.76613(18)
O2 O 0.91817(17) 0.25856(14) 0.51294(17)
O3 O 1.0240(3) 0.1724(2) 0.5517(3)
N1 N 0.92250(17) 0.23744(15) 0.68758(19)
C2 C 0.6378(3) 0.2417(3) 0.6850(4)
H2 H 0.6683 0.2845 0.6887
C3 C 0.5533(4) 0.2404(4) 0.6983(5)
H3 H 0.5276 0.2814 0.7122
C4 C 0.5065(4) 0.1759(6) 0.6903(6)
H4 H 0.4491 0.1738 0.6991
C5 C 0.5446(4) 0.1167(4) 0.6701(5)
H5 H 0.5121 0.0745 0.6643
C6 C 0.6311(3) 0.1168(3) 0.6575(3)
C7 C 0.6796(3) 0.1815(3) 0.6661(3)
C8 C 0.7770(2) 0.1805(2) 0.6659(2)
C9 C 0.8265(2) 0.11481(19) 0.6817(2)
C10 C 0.7681(3) 0.0506(3) 0.6504(3)
C11 C 0.6727(3) 0.0525(3) 0.6383(3)
C12 C 0.6178(4) -0.0065(4) 0.6031(4)
H6 H 0.5542 -0.0055 0.5949
C13 C 0.6552(5) -0.0651(4) 0.5808(4)
H7 H 0.6176 -0.1044 0.5592
C14 C 0.7493(4) -0.0674(3) 0.5895(3)
H8 H 0.7744 -0.1074 0.5723
C15 C 0.8053(3) -0.0090(3) 0.6244(3)
H9 H 0.8683 -0.0099 0.6304
C16 C 0.8263(2) 0.2402(2) 0.6603(2)
C17 C 0.7818(2) 0.3082(2) 0.6218(2)
C18 C 0.7978(3) 0.3681(2) 0.6731(3)
H10 H 0.8392 0.3670 0.7334
C19 C 0.7533(3) 0.4309(2) 0.6367(3)
H11 H 0.7636 0.4712 0.6728
C20 C 0.6937(3) 0.4325(3) 0.5469(3)
H12 H 0.6635 0.4742 0.5219
C21 C 0.6789(3) 0.3732(3) 0.4943(3)
H13 H 0.6403 0.3748 0.4330
C22 C 0.7213(2) 0.3105(2) 0.5322(3)
H14 H 0.7088 0.2698 0.4970
C23 C 0.9747(2) 0.1780(2) 0.7294(2)
C24 C 0.9225(2) 0.11332(19) 0.7195(2)
C25 C 0.9805(2) 0.0500(2) 0.7564(3)
C26 C 0.9648(3) 0.0095(2) 0.8230(3)
H15 H 0.9169 0.0218 0.8443
C27 C 1.0194(4) -0.0500(3) 0.8595(4)
H16 H 1.0085 -0.0770 0.9047
C28 C 1.0881(5) -0.0671(3) 0.8272(5)
H17 H 1.1239 -0.1070 0.8500
C29 C 1.1073(3) -0.0279(3) 0.7620(5)
H18 H 1.1562 -0.0404 0.7421
C30 C 1.0528(3) 0.0308(2) 0.7260(3)
H19 H 1.0648 0.0575 0.6811
C31 C 0.9754(2) 0.29341(19) 0.6689(2)
C32 C 1.0292(2) 0.3416(2) 0.7403(2)
C33 C 1.0332(3) 0.3311(2) 0.8307(3)
H20 H 1.0023 0.2933 0.8454
C34 C 1.0840(3) 0.3780(3) 0.8981(3)
H21 H 1.0864 0.3718 0.9582
C35 C 1.1305(3) 0.4332(3) 0.8770(4)
H22 H 1.1650 0.4640 0.9228
C36 C 1.1262(3) 0.4428(3) 0.7884(4)
H23 H 1.1572 0.4810 0.7745
C37 C 1.0767(2) 0.3970(2) 0.7184(3)
C38 C 1.0751(2) 0.4062(2) 0.6248(3)
C39 C 1.1209(3) 0.4607(3) 0.5979(4)
H24 H 1.1548 0.4933 0.6414
C40 C 1.1172(4) 0.4676(3) 0.5075(5)
H25 H 1.1484 0.5043 0.4909
C41 C 1.0669(4) 0.4197(3) 0.4428(4)
H26 H 1.0638 0.4248 0.3823
C42 C 1.0214(3) 0.3649(3) 0.4656(3)
H27 H 0.9889 0.3325 0.4211
C43 C 1.0239(2) 0.3575(2) 0.5565(3)
C44 C 0.9748(2) 0.30213(19) 0.5822(2)
C45 C 0.9493(3) 0.1930(3) 0.5058(3)
C46 C 0.8763(5) 0.1522(4) 0.4344(4)
H28 H 0.8210 0.1806 0.4092
H29 H 0.8612 0.1106 0.4615
H30 H 0.8994 0.1391 0.3865
loop_
_geom_bond_atom_site_label_1
_geom_bond_atom_site_label_2
_geom_bond_site_symmetry_1
_geom_bond_site_symmetry_2
Cl1 C1 1_555 1_555
Cl2 C1 1_555 1_555
Cl3 C1 1_555 1_555
C1 H1 1_555 1_555
O1 C23 1_555 1_555
O2 C44 1_555 1_555
O3 C45 1_555 1_555
N1 C16 1_555 1_555
C2 H2 1_555 1_555
C3 C2 1_555 1_555
H3 C3 1_555 1_555
C4 C3 1_555 1_555
H4 C4 1_555 1_555
C5 C4 1_555 1_555
H5 C5 1_555 1_555
C6 C5 1_555 1_555
C7 C2 1_555 1_555
C8 C7 1_555 1_555
C9 C8 1_555 1_555
C10 C9 1_555 1_555
C11 C6 1_555 1_555
C12 C11 1_555 1_555
H6 C12 1_555 1_555
C13 C12 1_555 1_555
H7 C13 1_555 1_555
C14 C13 1_555 1_555
H8 C14 1_555 1_555
C15 C10 1_555 1_555
H9 C15 1_555 1_555
C16 C8 1_555 1_555
C17 C16 1_555 1_555
C18 C17 1_555 1_555
H10 C18 1_555 1_555
C19 C18 1_555 1_555
H11 C19 1_555 1_555
C20 C19 1_555 1_555
H12 C20 1_555 1_555
C21 C20 1_555 1_555
H13 C21 1_555 1_555
C22 C17 1_555 1_555
H14 C22 1_555 1_555
C23 N1 1_555 1_555
C24 C9 1_555 1_555
C25 C24 1_555 1_555
C26 C25 1_555 1_555
H15 C26 1_555 1_555
C27 C26 1_555 1_555
H16 C27 1_555 1_555
C28 C27 1_555 1_555
H17 C28 1_555 1_555
C29 C28 1_555 1_555
H18 C29 1_555 1_555
C30 C25 1_555 1_555
H19 C30 1_555 1_555
C31 N1 1_555 1_555
C32 C31 1_555 1_555
C33 C32 1_555 1_555
H20 C33 1_555 1_555
C34 C33 1_555 1_555
H21 C34 1_555 1_555
C35 C34 1_555 1_555
H22 C35 1_555 1_555
C36 C35 1_555 1_555
H23 C36 1_555 1_555
C37 C32 1_555 1_555
C38 C37 1_555 1_555
C39 C38 1_555 1_555
H24 C39 1_555 1_555
C40 C39 1_555 1_555
H25 C40 1_555 1_555
C41 C40 1_555 1_555
H26 C41 1_555 1_555
C42 C41 1_555 1_555
H27 C42 1_555 1_555
C43 C38 1_555 1_555
C44 C31 1_555 1_555
C45 O2 1_555 1_555
C46 C45 1_555 1_555
H28 C46 1_555 1_555
H29 C46 1_555 1_555
H30 C46 1_555 1_555
C6 C7 1_555 1_555
C10 C11 1_555 1_555
C14 C15 1_555 1_555
C21 C22 1_555 1_555
C23 C24 1_555 1_555
C29 C30 1_555 1_555
C36 C37 1_555 1_555
C42 C43 1_555 1_555
C43 C44 1_555 1_555

#END
