
#######################################################################
#
#                 Cambridge Crystallographic Data Centre
#                                CCDC 
#
#######################################################################
#
# If this CIF has been generated from an entry in the Cambridge 
# Structural Database, then it will include bibliographic, chemical, 
# crystal, experimental, refinement or atomic coordinate data resulting 
# from the CCDC's data processing and validation procedures.
#
#######################################################################

data_TIKSEM
_chemical_formula_moiety         'C12 H28 Ba1 Cl2 O14'
_chemical_name_systematic        bis(Inositol-O,O')-dichloro-diaqua-barium
_symmetry_cell_setting           monoclinic
_symmetry_space_group_name_H-M   'C 2/c'
_symmetry_Int_Tables_number      15
_space_group_name_Hall           '-C 2yn'
loop_
_symmetry_equiv_pos_site_id
_symmetry_equiv_pos_as_xyz
1 x,y,z
2 -x,y,1/2-z
3 1/2+x,1/2+y,z
4 1/2-x,1/2+y,1/2-z
5 -x,-y,-z
6 x,-y,1/2+z
7 1/2-x,1/2-y,-z
8 1/2+x,1/2-y,1/2+z
_cell_length_a                   19.017(2)
_cell_length_b                   6.8213(8)
_cell_length_c                   16.260(2)
_cell_angle_alpha                90
_cell_angle_beta                 96.593(2)
_cell_angle_gamma                90
_cell_volume                     2095.31
_cell_formula_units_Z            4
loop_
_atom_site_label
_atom_site_type_symbol
_atom_site_fract_x
_atom_site_fract_y
_atom_site_fract_z
Ba1 Ba 0.5000 0.1224(1) 0.2500
Cl1 Cl 0.4339(1) 0.5018(1) 0.1545(1)
O1 O 0.6113(1) -0.0049(4) 0.3531(2)
O2 O 0.5569(1) -0.1830(3) 0.1558(2)
O3 O 0.5788(1) 0.1985(3) 0.1243(1)
O4 O 0.7299(1) -0.0782(4) 0.1877(2)
O5 O 0.7078(1) -0.1855(4) 0.2365(1)
O6 O 0.7402(1) -0.0661(3) 0.0757(1)
C1 C 0.5813(2) -0.1346(4) 0.0782(2)
C2 C 0.6230(2) 0.0550(4) 0.0920(2)
C3 C 0.6887(2) 0.0227(4) 0.1528(2)
C4 C 0.7348(2) -0.0392(4) 0.1252(2)
Cl1A Cl 0.5661(1) 0.5018(1) 0.3455(1)
O1A O 0.3887(1) -0.0049(4) 0.1469(2)
O2A O 0.4431(1) -0.1830(3) 0.3442(2)
O3A O 0.4212(1) 0.1985(3) 0.3757(1)
O4A O 0.2701(1) -0.0782(4) 0.3123(2)
O5A O 0.2922(1) -0.1855(4) 0.2635(1)
O6A O 0.2598(1) -0.0661(3) 0.4243(1)
C1A C 0.4187(2) -0.1346(4) 0.4218(2)
C2A C 0.3770(2) 0.0550(4) 0.4080(2)
C3A C 0.3113(2) 0.0227(4) 0.3472(2)
C4A C 0.2652(2) -0.0392(4) 0.3748(2)
O7 O 0.5886(1) -0.4720(3) 0.0370(1)
C5 C 0.6938(2) -0.3290(4) 1.0906(2)
C6 C 0.6828(2) -0.2947(4) 1.0487(2)
loop_
_geom_bond_atom_site_label_1
_geom_bond_atom_site_label_2
_geom_bond_site_symmetry_1
_geom_bond_site_symmetry_2
Ba1 Cl1 1_555 1_555
O1 Ba1 1_555 1_555
O2 Ba1 1_555 1_555
O3 Ba1 1_555 1_555
O4 O5 1_555 1_555
O6 C4 1_555 1_555
C1 O2 1_555 1_555
C2 O3 1_555 1_555
C3 O4 1_555 1_555
C4 O4 1_555 1_555
C5 C6 1_555 1_555
Cl1A Ba1 1_555 1_555
O1A Ba1 1_555 1_555
O2A Ba1 1_555 1_555
O3A Ba1 1_555 1_555
O4A O5A 1_555 1_555
O6A C4A 1_555 1_555
C1A O2A 1_555 1_555
C2A O3A 1_555 1_555
C3A O4A 1_555 1_555
C4A O4A 1_555 1_555
C1 C2 1_555 1_555
C2 C3 1_555 1_555
C3 C4 1_555 1_555
C1A C2A 1_555 1_555
C2A C3A 1_555 1_555
C3A C4A 1_555 1_555

#END
