
#######################################################################
#
#                 Cambridge Crystallographic Data Centre
#                                CCDC 
#
#######################################################################
#
# If this CIF has been generated from an entry in the Cambridge 
# Structural Database, then it will include bibliographic, chemical, 
# crystal, experimental, refinement or atomic coordinate data resulting 
# from the CCDC's data processing and validation procedures.
#
#######################################################################

data_TIKXOC
_chemical_formula_moiety         'C26 H24 N6 O2,C2 H3 N1'
_chemical_name_systematic        
"2,2'-((2-phenylpyrimidine-4,6-diyl)bis((2-methylhydrazin-2-yl-1-ylidene)methylylidene))diphenol acetonitrile solvate"
_symmetry_cell_setting           monoclinic
_symmetry_space_group_name_H-M   'P 21/c'
_symmetry_Int_Tables_number      14
_space_group_name_Hall           '-P 2ybc'
loop_
_symmetry_equiv_pos_site_id
_symmetry_equiv_pos_as_xyz
1 x,y,z
2 -x,1/2+y,1/2-z
3 -x,-y,-z
4 x,1/2-y,1/2+z
_cell_length_a                   7.6423(4)
_cell_length_b                   29.0929(17)
_cell_length_c                   11.6687(4)
_cell_angle_alpha                90
_cell_angle_beta                 92.778(3)
_cell_angle_gamma                90
_cell_volume                     2591.33
_exptl_crystal_colour            colorless
_exptl_crystal_description       prism
_cell_formula_units_Z            4
loop_
_atom_site_label
_atom_site_type_symbol
_atom_site_fract_x
_atom_site_fract_y
_atom_site_fract_z
C1 C 0.1737(3) 0.55095(10) 0.0992(2)
C2 C 0.1044(4) 0.59460(10) 0.1045(2)
H1 H 0.0917 0.6086 0.1753
C3 C 0.0538(4) 0.61747(10) 0.0046(3)
H2 H 0.0096 0.6472 0.0081
C4 C 0.0685(4) 0.59650(11) -0.0999(3)
H3 H 0.0326 0.6118 -0.1670
C5 C 0.1361(3) 0.55303(10) -0.1050(2)
H4 H 0.1439 0.5390 -0.1762
C6 C 0.1936(3) 0.52928(9) -0.00652(18)
C7 C 0.2670(3) 0.48371(9) -0.01689(18)
H5 H 0.2688 0.4698 -0.0885
C8 C 0.3954(4) 0.39461(9) -0.04463(17)
H6 H 0.2787 0.3928 -0.0787
H7 H 0.4406 0.3641 -0.0322
H8 H 0.4690 0.4110 -0.0950
C9 C 0.4673(3) 0.40018(9) 0.16464(18)
C10 C 0.5184(3) 0.42730(9) 0.25822(17)
H9 H 0.5003 0.4589 0.2584
C11 C 0.5980(3) 0.40466(9) 0.35144(18)
C12 C 0.5608(3) 0.33617(9) 0.26052(18)
C13 C 0.5810(3) 0.28554(9) 0.2616(2)
C14 C 0.5316(4) 0.25952(9) 0.1657(2)
H10 H 0.4867 0.2742 0.0998
C15 C 0.5477(4) 0.21259(10) 0.1665(2)
H11 H 0.5149 0.1957 0.1012
C16 C 0.6122(4) 0.19041(10) 0.2634(2)
H12 H 0.6223 0.1586 0.2641
C17 C 0.6617(4) 0.21539(10) 0.3592(2)
H13 H 0.7054 0.2004 0.4249
C18 C 0.6468(4) 0.26274(10) 0.3584(2)
H14 H 0.6814 0.2794 0.4236
C19 C 0.7190(4) 0.40575(9) 0.55360(18)
H15 H 0.8415 0.4111 0.5706
H16 H 0.6980 0.3733 0.5464
H17 H 0.6525 0.4179 0.6145
C20 C 0.7565(3) 0.49926(9) 0.51510(19)
H18 H 0.7875 0.4857 0.5853
C21 C 0.7849(3) 0.54828(9) 0.49912(18)
C22 C 0.8543(4) 0.57444(10) 0.5906(2)
H19 H 0.8839 0.5601 0.6600
C23 C 0.8797(4) 0.62071(11) 0.5804(2)
H20 H 0.9258 0.6376 0.6425
C24 C 0.8368(4) 0.64226(10) 0.4778(3)
H21 H 0.8524 0.6738 0.4710
C25 C 0.7709(4) 0.61722(10) 0.3851(2)
H22 H 0.7441 0.6319 0.3156
C26 C 0.7446(3) 0.57064(9) 0.3951(2)
N1 N 0.3298(3) 0.46235(7) 0.07274(15)
N2 N 0.3922(3) 0.41869(7) 0.06467(14)
N3 N 0.4898(3) 0.35467(7) 0.16421(15)
N4 N 0.6167(3) 0.35901(7) 0.35508(15)
N5 N 0.6660(3) 0.42843(7) 0.44668(14)
N6 N 0.6887(3) 0.47451(7) 0.43261(14)
O1 O 0.2227(3) 0.52948(7) 0.19976(13)
H23 H 0.2659 0.5044 0.1859
O2 O 0.6772(3) 0.54751(6) 0.30210(13)
H24 H 0.6672 0.5202 0.3182
C27 C 1.1173(7) 0.24449(19) 0.3171(6)
C28 C 1.0673(6) 0.26460(17) 0.2098(4)
H25 H 0.9636 0.2827 0.2174
H26 H 1.0443 0.2408 0.1541
H27 H 1.1603 0.2839 0.1853
N7 N 1.1548(7) 0.2309(2) 0.4053(5)
loop_
_geom_bond_atom_site_label_1
_geom_bond_atom_site_label_2
_geom_bond_site_symmetry_1
_geom_bond_site_symmetry_2
C1 C2 1_555 1_555
C2 H1 1_555 1_555
C3 C2 1_555 1_555
H2 C3 1_555 1_555
C4 C3 1_555 1_555
H3 C4 1_555 1_555
C5 C4 1_555 1_555
H4 C5 1_555 1_555
C6 C1 1_555 1_555
C7 C6 1_555 1_555
H5 C7 1_555 1_555
C8 H6 1_555 1_555
H7 C8 1_555 1_555
H8 C8 1_555 1_555
C9 C10 1_555 1_555
C10 H9 1_555 1_555
C11 C10 1_555 1_555
C12 C13 1_555 1_555
C13 C14 1_555 1_555
C14 H10 1_555 1_555
C15 C14 1_555 1_555
H11 C15 1_555 1_555
C16 C15 1_555 1_555
H12 C16 1_555 1_555
C17 C16 1_555 1_555
H13 C17 1_555 1_555
C18 C13 1_555 1_555
H14 C18 1_555 1_555
C19 H15 1_555 1_555
H16 C19 1_555 1_555
H17 C19 1_555 1_555
C20 H18 1_555 1_555
C21 C20 1_555 1_555
C22 C21 1_555 1_555
H19 C22 1_555 1_555
C23 C22 1_555 1_555
H20 C23 1_555 1_555
C24 C23 1_555 1_555
H21 C24 1_555 1_555
C25 C24 1_555 1_555
H22 C25 1_555 1_555
C26 C21 1_555 1_555
N1 C7 1_555 1_555
N2 C8 1_555 1_555
N3 C9 1_555 1_555
N4 C11 1_555 1_555
N5 C11 1_555 1_555
N6 C20 1_555 1_555
O1 C1 1_555 1_555
H23 O1 1_555 1_555
O2 C26 1_555 1_555
H24 O2 1_555 1_555
C27 C28 1_555 1_555
C28 H25 1_555 1_555
H26 C28 1_555 1_555
H27 C28 1_555 1_555
N7 C27 1_555 1_555
C5 C6 1_555 1_555
C9 N2 1_555 1_555
C12 N3 1_555 1_555
C12 N4 1_555 1_555
C17 C18 1_555 1_555
C19 N5 1_555 1_555
C25 C26 1_555 1_555
N1 N2 1_555 1_555
N5 N6 1_555 1_555

#END
