
#######################################################################
#
#                 Cambridge Crystallographic Data Centre
#                                CCDC 
#
#######################################################################
#
# If this CIF has been generated from an entry in the Cambridge 
# Structural Database, then it will include bibliographic, chemical, 
# crystal, experimental, refinement or atomic coordinate data resulting 
# from the CCDC's data processing and validation procedures.
#
#######################################################################

data_TILDAW
_chemical_formula_moiety         'C34 H42 O3 P2'
_chemical_name_systematic        
8-{2-[bis(2,4,6-trimethylphenyl)phosphanyl]phenyl}-1,3,5,7-tetramethyl-2,4,6-trioxa-8-phosphatricyclo[3.3.1.1^3,7^]decane
_symmetry_cell_setting           triclinic
_symmetry_space_group_name_H-M   'P -1'
_symmetry_Int_Tables_number      2
_space_group_name_Hall           '-P 1'
loop_
_symmetry_equiv_pos_site_id
_symmetry_equiv_pos_as_xyz
1 x,y,z
2 -x,-y,-z
_cell_length_a                   7.9758(2)
_cell_length_b                   12.8493(3)
_cell_length_c                   15.5525(4)
_cell_angle_alpha                75.9931(10)
_cell_angle_beta                 83.6841(7)
_cell_angle_gamma                86.7915(8)
_cell_volume                     1536.38
_exptl_crystal_colour            colorless
_exptl_crystal_description       block
_cell_formula_units_Z            2
loop_
_atom_site_label
_atom_site_type_symbol
_atom_site_fract_x
_atom_site_fract_y
_atom_site_fract_z
P1 P 0.25244(3) 0.20777(2) 0.35701(2)
P2 P 0.33290(3) 0.21444(2) 0.15181(2)
O1 O 0.49923(10) 0.19053(7) 0.46448(5)
O2 O 0.34707(11) 0.26392(7) 0.57536(6)
O3 O 0.10727(10) 0.29930(7) 0.49702(5)
C1 C 0.15561(13) 0.31845(9) 0.27625(7)
C2 C 0.18213(14) 0.31516(9) 0.18527(8)
C3 C 0.10820(16) 0.39578(10) 0.12202(8)
H1 H 0.129709 0.395659 0.060735
C4 C 0.00413(16) 0.47595(10) 0.14678(9)
H2 H -0.045656 0.529739 0.102850
C5 C -0.02664(15) 0.47708(10) 0.23568(9)
H3 H -0.099470 0.531030 0.253094
C6 C 0.04875(14) 0.39940(9) 0.29981(8)
H4 H 0.027300 0.401338 0.360717
C7 C 0.43427(14) 0.27079(10) 0.39195(8)
C8 C 0.38998(15) 0.16780(11) 0.54590(8)
C9 C 0.26079(15) 0.34117(10) 0.51136(8)
C10 C 0.12551(14) 0.20002(9) 0.46770(8)
C11 C 0.37875(15) 0.36983(10) 0.42568(8)
H5 H 0.320254 0.421536 0.379649
H6 H 0.479231 0.404681 0.436726
C12 C 0.22701(15) 0.11918(10) 0.53354(8)
H7 H 0.158356 0.098105 0.591684
H8 H 0.253945 0.053889 0.510903
C13 C 0.57742(15) 0.29263(12) 0.31793(9)
H9 H 0.538529 0.344484 0.266165
H10 H 0.614128 0.225562 0.301134
H11 H 0.672137 0.321951 0.338623
C14 C 0.48981(18) 0.09543(13) 0.61499(9)
H12 H 0.518249 0.027497 0.597934
H13 H 0.422245 0.081367 0.672935
H14 H 0.593804 0.130400 0.618998
C15 C 0.21171(19) 0.43571(12) 0.55060(10)
H15 H 0.312496 0.463104 0.567370
H16 H 0.131329 0.413498 0.603511
H17 H 0.159266 0.492232 0.506521
C16 C -0.05242(16) 0.16347(11) 0.46947(9)
H18 H -0.048361 0.096516 0.449583
H19 H -0.115918 0.218788 0.429680
H20 H -0.108090 0.151467 0.530296
C17 C 0.23470(14) 0.08317(9) 0.17320(7)
C18 C 0.35105(15) 0.00055(10) 0.15794(8)
C19 C 0.30067(17) -0.10527(10) 0.18013(9)
H21 H 0.379445 -0.159846 0.168939
C20 C 0.13915(17) -0.13373(10) 0.21807(9)
C21 C 0.02532(16) -0.05204(11) 0.23003(8)
H22 H -0.087089 -0.069998 0.253777
C22 C 0.06825(15) 0.05563(10) 0.20874(8)
C23 C 0.53077(16) 0.02277(11) 0.11820(10)
H23 H 0.584848 0.062819 0.153255
H24 H 0.530895 0.065211 0.056667
H25 H 0.593128 -0.045299 0.118903
C24 C 0.0891(2) -0.24954(12) 0.24773(13)
H26 H -0.033111 -0.252796 0.263666
H27 H 0.147513 -0.285593 0.299630
H28 H 0.120587 -0.285406 0.199132
C25 C -0.07172(15) 0.13453(12) 0.22504(10)
H29 H -0.069706 0.196630 0.173936
H30 H -0.055778 0.158281 0.278829
H31 H -0.180630 0.099945 0.232961
C26 C 0.36364(15) 0.26506(9) 0.02934(8)
C27 C 0.50663(16) 0.32903(10) -0.00221(8)
C28 C 0.54507(18) 0.36972(11) -0.09355(9)
H32 H 0.640528 0.413323 -0.113864
C29 C 0.44795(18) 0.34830(11) -0.15535(8)
C30 C 0.30903(17) 0.28504(11) -0.12395(8)
H33 H 0.242264 0.269105 -0.165815
C31 C 0.26292(16) 0.24365(10) -0.03327(8)
C32 C 0.6209(2) 0.35728(13) 0.05953(10)
H34 H 0.715751 0.397991 0.024300
H35 H 0.663909 0.291301 0.097933
H36 H 0.557204 0.400867 0.096413
C33 C 0.4911(2) 0.39245(14) -0.25397(10)
H37 H 0.475031 0.337157 -0.285792
H38 H 0.608950 0.413936 -0.265285
H39 H 0.417190 0.454943 -0.274887
C34 C 0.1049(2) 0.17952(14) -0.00841(10)
H40 H 0.043844 0.187588 -0.061115
H41 H 0.032775 0.205666 0.037636
H42 H 0.135179 0.103628 0.014409
loop_
_geom_bond_atom_site_label_1
_geom_bond_atom_site_label_2
_geom_bond_site_symmetry_1
_geom_bond_site_symmetry_2
P1 C1 1_555 1_555
P2 C2 1_555 1_555
O1 C7 1_555 1_555
O2 C8 1_555 1_555
O3 C9 1_555 1_555
C1 C2 1_555 1_555
C2 C3 1_555 1_555
C3 H1 1_555 1_555
C4 C3 1_555 1_555
H2 C4 1_555 1_555
C5 C4 1_555 1_555
H3 C5 1_555 1_555
C6 C1 1_555 1_555
H4 C6 1_555 1_555
C7 P1 1_555 1_555
C8 O1 1_555 1_555
C9 O2 1_555 1_555
C10 P1 1_555 1_555
C11 C7 1_555 1_555
H5 C11 1_555 1_555
H6 C11 1_555 1_555
C12 C8 1_555 1_555
H7 C12 1_555 1_555
H8 C12 1_555 1_555
C13 C7 1_555 1_555
H9 C13 1_555 1_555
H10 C13 1_555 1_555
H11 C13 1_555 1_555
C14 C8 1_555 1_555
H12 C14 1_555 1_555
H13 C14 1_555 1_555
H14 C14 1_555 1_555
C15 C9 1_555 1_555
H15 C15 1_555 1_555
H16 C15 1_555 1_555
H17 C15 1_555 1_555
C16 C10 1_555 1_555
H18 C16 1_555 1_555
H19 C16 1_555 1_555
H20 C16 1_555 1_555
C17 P2 1_555 1_555
C18 C17 1_555 1_555
C19 C18 1_555 1_555
H21 C19 1_555 1_555
C20 C19 1_555 1_555
C21 C20 1_555 1_555
H22 C21 1_555 1_555
C22 C17 1_555 1_555
C23 C18 1_555 1_555
H23 C23 1_555 1_555
H24 C23 1_555 1_555
H25 C23 1_555 1_555
C24 C20 1_555 1_555
H26 C24 1_555 1_555
H27 C24 1_555 1_555
H28 C24 1_555 1_555
C25 C22 1_555 1_555
H29 C25 1_555 1_555
H30 C25 1_555 1_555
H31 C25 1_555 1_555
C26 P2 1_555 1_555
C27 C26 1_555 1_555
C28 C27 1_555 1_555
H32 C28 1_555 1_555
C29 C28 1_555 1_555
C30 C29 1_555 1_555
H33 C30 1_555 1_555
C31 C26 1_555 1_555
C32 C27 1_555 1_555
H34 C32 1_555 1_555
H35 C32 1_555 1_555
H36 C32 1_555 1_555
C33 C29 1_555 1_555
H37 C33 1_555 1_555
H38 C33 1_555 1_555
H39 C33 1_555 1_555
C34 C31 1_555 1_555
H40 C34 1_555 1_555
H41 C34 1_555 1_555
H42 C34 1_555 1_555
O3 C10 1_555 1_555
C5 C6 1_555 1_555
C9 C11 1_555 1_555
C10 C12 1_555 1_555
C21 C22 1_555 1_555
C30 C31 1_555 1_555

#END
