
#######################################################################
#
#                 Cambridge Crystallographic Data Centre
#                                CCDC 
#
#######################################################################
#
# If this CIF has been generated from an entry in the Cambridge 
# Structural Database, then it will include bibliographic, chemical, 
# crystal, experimental, refinement or atomic coordinate data resulting 
# from the CCDC's data processing and validation procedures.
#
#######################################################################

data_TILDOK
_chemical_formula_moiety         'C18 H15 N1 O2'
_chemical_name_systematic        
4-hydroxy-3-{4-[(pyridin-4-yl)ethynyl]phenyl}pent-3-en-2-one
_symmetry_cell_setting           monoclinic
_symmetry_space_group_name_H-M   'P 21/m'
_symmetry_Int_Tables_number      11
_space_group_name_Hall           '-P 2yb'
loop_
_symmetry_equiv_pos_site_id
_symmetry_equiv_pos_as_xyz
1 x,y,z
2 -x,1/2+y,-z
3 -x,-y,-z
4 x,1/2-y,z
_cell_length_a                   7.6007(5)
_cell_length_b                   7.0235(5)
_cell_length_c                   14.0850(9)
_cell_angle_alpha                90
_cell_angle_beta                 95.291(6)
_cell_angle_gamma                90
_cell_volume                     748.703
_exptl_crystal_colour            colorless
_exptl_crystal_description       plate
_cell_formula_units_Z            2
loop_
_atom_site_label
_atom_site_type_symbol
_atom_site_fract_x
_atom_site_fract_y
_atom_site_fract_z
O1 O -0.1844(3) 0.2500 0.01285(18)
O2 O 0.0514(3) 0.2500 -0.09313(14)
N1 N 1.2419(4) 0.2500 0.6334(2)
C1 C 0.3556(4) 0.2500 -0.0411(2)
H1 H 0.4297 0.2500 0.0179
H2 H 0.3795 0.1384 -0.0771
C2 C 0.1661(4) 0.2500 -0.0208(2)
C3 C 0.1143(3) 0.2500 0.07233(18)
C4 C -0.0658(4) 0.2500 0.0847(2)
C5 C -0.1344(5) 0.2500 0.1799(2)
H3 H -0.0372 0.2500 0.2285
H4 H -0.2052 0.3616 0.1864
C6 C 0.2486(3) 0.2500 0.15698(18)
C7 C 0.3137(3) 0.0833(3) 0.19693(16)
H5 H 0.2705 -0.0320 0.1720
C8 C 0.4420(3) 0.0819(3) 0.27345(16)
H6 H 0.4850 -0.0335 0.2984
C9 C 0.5060(4) 0.2500 0.31274(19)
C10 C 0.6495(4) 0.2500 0.3873(2)
C11 C 0.7754(4) 0.2500 0.4447(2)
C12 C 0.9317(4) 0.2500 0.5094(2)
C13 C 0.9262(5) 0.2500 0.6069(2)
H7 H 0.8184 0.2500 0.6332
C14 C 1.0826(6) 0.2500 0.6650(2)
H8 H 1.0759 0.2500 0.7306
C15 C 1.2440(5) 0.2500 0.5399(3)
H9 H 1.3535 0.2500 0.5155
C16 C 1.0967(4) 0.2500 0.4762(2)
H10 H 1.1078 0.2500 0.4110
H11 H -0.091(6) 0.2500 -0.052(3)
H2C H 0.3795 0.3616 -0.0771
H4C H -0.2052 0.1384 0.1864
C7C C 0.3137(3) 0.4167(3) 0.19693(16)
H5C H 0.2705 0.5320 0.1720
C8C C 0.4420(3) 0.4181(3) 0.27345(16)
H6C H 0.4850 0.5335 0.2984
H12? H 0.3795 0.1384 -0.0771
H13? H -0.2052 0.3616 0.1864
loop_
_geom_bond_atom_site_label_1
_geom_bond_atom_site_label_2
_geom_bond_site_symmetry_1
_geom_bond_site_symmetry_2
O1 C4 1_555 1_555
O2 C2 1_555 1_555
N1 C14 1_555 1_555
C1 H1 1_555 1_555
H2 C1 1_555 1_555
C2 C1 1_555 1_555
C3 C2 1_555 1_555
C4 C3 1_555 1_555
C5 C4 1_555 1_555
H3 C5 1_555 1_555
H4 C5 1_555 1_555
C6 C3 1_555 1_555
C7 C6 1_555 1_555
H5 C7 1_555 1_555
C8 C7 1_555 1_555
H6 C8 1_555 1_555
C9 C8 1_555 1_555
C10 C9 1_555 1_555
C11 C10 1_555 1_555
C12 C11 1_555 1_555
C13 C12 1_555 1_555
H7 C13 1_555 1_555
C14 C13 1_555 1_555
H8 C14 1_555 1_555
C15 N1 1_555 1_555
H9 C15 1_555 1_555
C16 C12 1_555 1_555
H10 C16 1_555 1_555
H11 O1 1_555 1_555
H2C C1 1_555 1_555
H4C C5 1_555 1_555
C7C C6 1_555 1_555
H5C C7C 1_555 1_555
C8C C9 1_555 1_555
H6C C8C 1_555 1_555
C15 C16 1_555 1_555
C7C C8C 1_555 1_555

#END
