
#######################################################################
#
#                 Cambridge Crystallographic Data Centre
#                                CCDC 
#
#######################################################################
#
# If this CIF has been generated from an entry in the Cambridge 
# Structural Database, then it will include bibliographic, chemical, 
# crystal, experimental, refinement or atomic coordinate data resulting 
# from the CCDC's data processing and validation procedures.
#
#######################################################################

data_TILFEB
_chemical_formula_moiety         'C40 H28 B1 N3 O1'
_chemical_name_systematic        
9c-(4-Methoxyphenyl)-3,6,9-triphenyl-9cH-8b,9b,9d-triaza-9c-boratricyclopenta[cd,gh,kl]phenalene
_symmetry_cell_setting           monoclinic
_symmetry_space_group_name_H-M   'C 2/c'
_symmetry_Int_Tables_number      15
_space_group_name_Hall           '-C 2yn'
loop_
_symmetry_equiv_pos_site_id
_symmetry_equiv_pos_as_xyz
1 x,y,z
2 -x,y,1/2-z
3 1/2+x,1/2+y,z
4 1/2-x,1/2+y,1/2-z
5 -x,-y,-z
6 x,-y,1/2+z
7 1/2-x,1/2-y,-z
8 1/2+x,1/2-y,1/2+z
_cell_length_a                   38.7642(7)
_cell_length_b                   8.12920(10)
_cell_length_c                   19.3779(4)
_cell_angle_alpha                90
_cell_angle_beta                 107.5051(7)
_cell_angle_gamma                90
_cell_volume                     5823.61
_exptl_crystal_colour            orange
_exptl_crystal_description       prism
_cell_formula_units_Z            8
loop_
_atom_site_label
_atom_site_type_symbol
_atom_site_fract_x
_atom_site_fract_y
_atom_site_fract_z
C1 C 0.33085(4) -0.06918(18) 0.28721(7)
C2 C 0.29411(4) -0.02567(18) 0.28081(7)
H1 H 0.2787 -0.0812 0.3032
C3 C 0.28506(4) 0.10924(18) 0.23706(7)
H2 H 0.2623 0.1635 0.2236
C4 C 0.31602(3) 0.15483(17) 0.21496(7)
C5 C 0.32562(4) 0.30409(17) 0.18657(7)
C6 C 0.36297(4) 0.34405(17) 0.20415(7)
C7 C 0.38363(4) 0.49201(18) 0.20521(8)
H3 H 0.3745 0.5935 0.1828
C8 C 0.41888(4) 0.46055(18) 0.24427(8)
H4 H 0.4383 0.5369 0.2541
C9 C 0.42134(4) 0.29234(18) 0.26771(7)
C10 C 0.44805(4) 0.19760(18) 0.31795(7)
C11 C 0.43771(4) 0.04538(18) 0.34153(7)
C12 C 0.45260(4) -0.05433(19) 0.40493(8)
H5 H 0.4765 -0.0470 0.4372
C13 C 0.42629(4) -0.16182(19) 0.41064(8)
H6 H 0.4289 -0.2428 0.4472
C14 C 0.39410(4) -0.13048(17) 0.35158(7)
C15 C 0.35682(4) -0.16674(17) 0.33829(7)
C16 C 0.29630(4) 0.41525(18) 0.14555(7)
C17 C 0.26513(4) 0.34691(18) 0.09678(7)
H7 H 0.2633 0.2308 0.0912
C18 C 0.23697(4) 0.44549(19) 0.05652(7)
H8 H 0.2160 0.3970 0.0241
C19 C 0.23967(4) 0.61557(19) 0.06394(8)
H9 H 0.2206 0.6840 0.0364
C20 C 0.27057(4) 0.68527(19) 0.11215(8)
H10 H 0.2725 0.8014 0.1172
C21 C 0.29822(4) 0.58698(18) 0.15229(7)
H11 H 0.3190 0.6362 0.1851
C22 C 0.48431(4) 0.26788(18) 0.35457(7)
C23 C 0.48749(4) 0.41763(19) 0.39159(8)
H12 H 0.4663 0.4746 0.3932
C24 C 0.52127(4) 0.48323(19) 0.42594(8)
H13 H 0.5232 0.5840 0.4517
C25 C 0.55228(4) 0.40258(19) 0.42294(8)
H14 H 0.5754 0.4498 0.4452
C26 C 0.54952(4) 0.2532(2) 0.38753(8)
H15 H 0.5708 0.1967 0.3862
C27 C 0.51571(4) 0.18564(19) 0.35385(8)
H16 H 0.5140 0.0824 0.3301
C28 C 0.34352(4) -0.27887(18) 0.38505(7)
C29 C 0.31551(4) -0.38979(18) 0.35427(8)
H17 H 0.3064 -0.3989 0.3031
C30 C 0.30083(4) -0.48658(19) 0.39725(8)
H18 H 0.2817 -0.5608 0.3755
C31 C 0.31406(4) -0.47507(19) 0.47239(8)
H19 H 0.3039 -0.5402 0.5020
C32 C 0.34211(4) -0.36813(19) 0.50335(8)
H20 H 0.3515 -0.3615 0.5545
C33 C 0.35680(4) -0.27004(18) 0.46058(7)
H21 H 0.3760 -0.1965 0.4827
C34 C 0.38591(4) -0.05093(17) 0.16902(7)
C35 C 0.41987(4) -0.11636(18) 0.17300(8)
H22 H 0.4384 -0.1135 0.2181
C36 C 0.42747(4) -0.18504(19) 0.11379(8)
H23 H 0.4509 -0.2276 0.1185
C37 C 0.40063(4) -0.19148(18) 0.04728(8)
C38 C 0.36643(4) -0.13321(18) 0.04126(8)
H24 H 0.3477 -0.1407 -0.0034
C39 C 0.35962(4) -0.06281(19) 0.10187(8)
H25 H 0.3361 -0.0214 0.0970
C40 C 0.38451(4) -0.2761(2) -0.07675(8)
H26 H 0.3755 -0.1671 -0.0953
H27 H 0.3644 -0.3428 -0.0715
H28 H 0.3952 -0.3300 -0.1106
N1 N 0.34176(3) 0.03816(14) 0.24336(6)
N2 N 0.38759(3) 0.22712(14) 0.23827(6)
N3 N 0.40370(3) -0.01471(14) 0.30946(6)
O1 O 0.41110(3) -0.25930(14) -0.00830(5)
B1 B 0.37959(4) 0.0449(2) 0.23725(8)
loop_
_geom_bond_atom_site_label_1
_geom_bond_atom_site_label_2
_geom_bond_site_symmetry_1
_geom_bond_site_symmetry_2
C1 C2 1_555 1_555
C2 H1 1_555 1_555
C3 C2 1_555 1_555
H2 C3 1_555 1_555
C4 C3 1_555 1_555
C5 C4 1_555 1_555
C6 C5 1_555 1_555
C7 C6 1_555 1_555
H3 C7 1_555 1_555
C8 C7 1_555 1_555
H4 C8 1_555 1_555
C9 C8 1_555 1_555
C10 C9 1_555 1_555
C11 C10 1_555 1_555
C12 C11 1_555 1_555
H5 C12 1_555 1_555
C13 C12 1_555 1_555
H6 C13 1_555 1_555
C14 C13 1_555 1_555
C15 C1 1_555 1_555
C16 C5 1_555 1_555
C17 C16 1_555 1_555
H7 C17 1_555 1_555
C18 C17 1_555 1_555
H8 C18 1_555 1_555
C19 C18 1_555 1_555
H9 C19 1_555 1_555
C20 C19 1_555 1_555
H10 C20 1_555 1_555
C21 C16 1_555 1_555
H11 C21 1_555 1_555
C22 C10 1_555 1_555
C23 C22 1_555 1_555
H12 C23 1_555 1_555
C24 C23 1_555 1_555
H13 C24 1_555 1_555
C25 C24 1_555 1_555
H14 C25 1_555 1_555
C26 C25 1_555 1_555
H15 C26 1_555 1_555
C27 C22 1_555 1_555
H16 C27 1_555 1_555
C28 C15 1_555 1_555
C29 C28 1_555 1_555
H17 C29 1_555 1_555
C30 C29 1_555 1_555
H18 C30 1_555 1_555
C31 C30 1_555 1_555
H19 C31 1_555 1_555
C32 C31 1_555 1_555
H20 C32 1_555 1_555
C33 C28 1_555 1_555
H21 C33 1_555 1_555
C34 C35 1_555 1_555
C35 H22 1_555 1_555
C36 C35 1_555 1_555
H23 C36 1_555 1_555
C37 C36 1_555 1_555
C38 C37 1_555 1_555
H24 C38 1_555 1_555
C39 C34 1_555 1_555
H25 C39 1_555 1_555
C40 H26 1_555 1_555
H27 C40 1_555 1_555
H28 C40 1_555 1_555
N1 C1 1_555 1_555
N2 C6 1_555 1_555
N3 C11 1_555 1_555
O1 C37 1_555 1_555
B1 C34 1_555 1_555
C4 N1 1_555 1_555
C9 N2 1_555 1_555
C14 C15 1_555 1_555
C14 N3 1_555 1_555
C20 C21 1_555 1_555
C26 C27 1_555 1_555
C32 C33 1_555 1_555
C38 C39 1_555 1_555
C40 O1 1_555 1_555
N1 B1 1_555 1_555
N2 B1 1_555 1_555
N3 B1 1_555 1_555

#END
