
#######################################################################
#
#                 Cambridge Crystallographic Data Centre
#                                CCDC 
#
#######################################################################
#
# If this CIF has been generated from an entry in the Cambridge 
# Structural Database, then it will include bibliographic, chemical, 
# crystal, experimental, refinement or atomic coordinate data resulting 
# from the CCDC's data processing and validation procedures.
#
#######################################################################

data_TILFIF
_chemical_formula_moiety         'C41 H31 B1 N4'
_chemical_name_systematic        
N,N-Dimethyl-4-(3,6,9-triphenyl-9cH-8b,9b,9d-triaza-9c-boratricyclopenta[cd,gh,kl]phenalen-9c-yl)aniline
_symmetry_cell_setting           monoclinic
_symmetry_space_group_name_H-M   'P 21/c'
_symmetry_Int_Tables_number      14
_space_group_name_Hall           '-P 2ybc'
loop_
_symmetry_equiv_pos_site_id
_symmetry_equiv_pos_as_xyz
1 x,y,z
2 -x,1/2+y,1/2-z
3 -x,-y,-z
4 x,1/2-y,1/2+z
_cell_length_a                   19.1264(4)
_cell_length_b                   8.2037(2)
_cell_length_c                   19.5174(4)
_cell_angle_alpha                90
_cell_angle_beta                 100.4130(12)
_cell_angle_gamma                90
_cell_volume                     3011.98
_exptl_crystal_colour            orange
_exptl_crystal_description       prism
_cell_formula_units_Z            4
loop_
_atom_site_label
_atom_site_type_symbol
_atom_site_fract_x
_atom_site_fract_y
_atom_site_fract_z
N1 N 0.32178(7) 0.73385(16) 0.15335(7)
N2 N 0.23188(8) 0.54859(17) 0.10277(7)
N3 N 0.19902(8) 0.79192(17) 0.15529(7)
C1 C 0.24003(10) 0.2843(2) 0.07689(9)
H1 H 0.2585 0.1825 0.0653
C2 C 0.24010(9) 0.8225(2) 0.03502(8)
C3 C 0.35366(9) 0.4678(2) 0.11485(8)
C4 C 0.21715(9) 0.9047(2) 0.20736(8)
C5 C 0.17052(10) 0.3175(2) 0.07902(9)
H2 H 0.1323 0.2420 0.0697
C6 C 0.34188(9) 0.8401(2) 0.20763(8)
C7 C 0.29017(9) 0.9377(2) 0.23213(8)
C8 C 0.47216(9) 0.4166(2) 0.08365(8)
H3 H 0.4774 0.5312 0.0798
C9 C 0.41071(9) 0.3542(2) 0.10335(8)
C10 C 0.43162(10) 0.6606(2) 0.20426(8)
H4 H 0.4760 0.6056 0.2138
C11 C 0.31494(9) 1.0446(2) 0.29317(8)
C12 C 0.40502(10) 0.1839(2) 0.10922(8)
H5 H 0.3643 0.1384 0.1236
C13 C 0.10143(10) 0.8315(2) 0.20111(9)
H6 H 0.0540 0.8252 0.2091
C14 C 0.13153(9) 0.7344(2) 0.15273(9)
C15 C 0.36997(10) 1.2290(2) 0.41183(9)
H7 H 0.3888 1.2909 0.4521
C16 C 0.28059(9) 0.4312(2) 0.09541(8)
N4 N 0.21633(9) 1.04637(19) -0.16541(7)
C17 C 0.37109(10) 1.1530(2) 0.29281(9)
H8 H 0.3910 1.1648 0.2519
C18 C 0.37222(9) 0.6170(2) 0.15162(8)
C19 C 0.11125(9) 0.5831(2) 0.11871(8)
C20 C 0.39815(10) 1.2436(2) 0.35169(9)
H9 H 0.4365 1.3167 0.3506
C21 C 0.22302(11) 0.9719(2) -0.09991(9)
C22 C 0.31382(10) 1.1226(2) 0.41261(9)
H10 H 0.2936 1.1131 0.4534
C23 C -0.01988(10) 0.6192(2) 0.08676(9)
H11 H -0.0121 0.7281 0.0734
C24 C 0.15312(10) 0.9354(2) 0.23378(9)
H12 H 0.1475 1.0141 0.2680
C25 C 0.18125(10) 0.9184(2) 0.00793(9)
H13 H 0.1453 0.9340 0.0351
C26 C 0.52566(10) 0.3139(2) 0.06964(8)
H14 H 0.5673 0.3587 0.0570
C27 C 0.03778(10) 0.5214(2) 0.11356(9)
C28 C 0.51834(10) 0.1466(2) 0.07411(9)
H15 H 0.5543 0.0761 0.0635
C29 C -0.08917(10) 0.5595(2) 0.07912(9)
H16 H -0.1281 0.6284 0.0612
C30 C 0.16475(9) 0.4867(2) 0.09792(8)
C31 C 0.45777(10) 0.0822(2) 0.09436(9)
H17 H 0.4528 -0.0325 0.0980
C32 C 0.41322(9) 0.7953(2) 0.23846(8)
H18 H 0.4425 0.8497 0.2760
C33 C 0.17300(11) 0.9923(2) -0.05752(9)
H19 H 0.1323 1.0578 -0.0732
C34 C 0.25951(11) 0.9862(3) -0.21400(9)
H20 H 0.3099 0.9959 -0.1931
H21 H 0.2498 1.0505 -0.2570
H22 H 0.2480 0.8715 -0.2247
C35 C -0.10135(11) 0.4008(2) 0.09744(9)
H23 H -0.1485 0.3593 0.0908
C36 C 0.28682(10) 1.0298(2) 0.35435(9)
H24 H 0.2490 0.9557 0.3560
C37 C 0.02431(10) 0.3614(2) 0.13386(9)
H25 H 0.0629 0.2932 0.1535
C38 C 0.28230(10) 0.8752(2) -0.07445(9)
H26 H 0.3174 0.8574 -0.1024
C39 C 0.29028(10) 0.8049(2) -0.00870(9)
H27 H 0.3317 0.7419 0.0074
C40 C -0.04430(11) 0.3023(2) 0.12557(10)
H28 H -0.0525 0.1938 0.1392
C41 C 0.14815(13) 1.1146(3) -0.19689(10)
H29 H 0.1125 1.0276 -0.2050
H30 H 0.1521 1.1660 -0.2413
H31 H 0.1337 1.1964 -0.1656
B1 B 0.24822(11) 0.7299(2) 0.10878(10)
loop_
_geom_bond_atom_site_label_1
_geom_bond_atom_site_label_2
_geom_bond_site_symmetry_1
_geom_bond_site_symmetry_2
N1 C6 1_555 1_555
N2 C16 1_555 1_555
N3 C4 1_555 1_555
C1 H1 1_555 1_555
C2 C25 1_555 1_555
C3 C9 1_555 1_555
C4 C7 1_555 1_555
C5 C1 1_555 1_555
H2 C5 1_555 1_555
C6 C7 1_555 1_555
C7 C11 1_555 1_555
C8 H3 1_555 1_555
C9 C8 1_555 1_555
C10 H4 1_555 1_555
C11 C17 1_555 1_555
C12 C9 1_555 1_555
H5 C12 1_555 1_555
C13 H6 1_555 1_555
C14 N3 1_555 1_555
C15 H7 1_555 1_555
C16 C1 1_555 1_555
N4 C21 1_555 1_555
C17 H8 1_555 1_555
C18 N1 1_555 1_555
C19 C14 1_555 1_555
C20 C15 1_555 1_555
H9 C20 1_555 1_555
C21 C33 1_555 1_555
C22 C15 1_555 1_555
H10 C22 1_555 1_555
C23 H11 1_555 1_555
C24 C4 1_555 1_555
H12 C24 1_555 1_555
C25 H13 1_555 1_555
C26 C8 1_555 1_555
H14 C26 1_555 1_555
C27 C19 1_555 1_555
C28 C26 1_555 1_555
H15 C28 1_555 1_555
C29 C23 1_555 1_555
H16 C29 1_555 1_555
C30 N2 1_555 1_555
C31 C12 1_555 1_555
H17 C31 1_555 1_555
C32 C6 1_555 1_555
H18 C32 1_555 1_555
C33 C25 1_555 1_555
H19 C33 1_555 1_555
C34 N4 1_555 1_555
H20 C34 1_555 1_555
H21 C34 1_555 1_555
H22 C34 1_555 1_555
C35 C29 1_555 1_555
H23 C35 1_555 1_555
C36 C11 1_555 1_555
H24 C36 1_555 1_555
C37 C27 1_555 1_555
H25 C37 1_555 1_555
C38 C21 1_555 1_555
H26 C38 1_555 1_555
C39 C2 1_555 1_555
H27 C39 1_555 1_555
C40 C35 1_555 1_555
H28 C40 1_555 1_555
C41 N4 1_555 1_555
H29 C41 1_555 1_555
H30 C41 1_555 1_555
H31 C41 1_555 1_555
B1 N1 1_555 1_555
N2 B1 1_555 1_555
N3 B1 1_555 1_555
C2 B1 1_555 1_555
C3 C16 1_555 1_555
C3 C18 1_555 1_555
C5 C30 1_555 1_555
C10 C18 1_555 1_555
C10 C32 1_555 1_555
C13 C14 1_555 1_555
C13 C24 1_555 1_555
C17 C20 1_555 1_555
C19 C30 1_555 1_555
C22 C36 1_555 1_555
C23 C27 1_555 1_555
C28 C31 1_555 1_555
C37 C40 1_555 1_555
C38 C39 1_555 1_555

#END
