
#######################################################################
#
#                 Cambridge Crystallographic Data Centre
#                                CCDC 
#
#######################################################################
#
# If this CIF has been generated from an entry in the Cambridge 
# Structural Database, then it will include bibliographic, chemical, 
# crystal, experimental, refinement or atomic coordinate data resulting 
# from the CCDC's data processing and validation procedures.
#
#######################################################################

data_TILFUR
_chemical_formula_moiety         'C43 H28 B1 N3'
_chemical_name_systematic        
9c-(2-Naphthyl)-3,6,9-triphenyl-9cH-8b,9b,9d-triaza-9c-boratricyclopenta[cd,gh,kl]phenalene
_symmetry_cell_setting           monoclinic
_symmetry_space_group_name_H-M   'P 21/a'
_symmetry_Int_Tables_number      14
_space_group_name_Hall           '-P 2yab'
loop_
_symmetry_equiv_pos_site_id
_symmetry_equiv_pos_as_xyz
1 x,y,z
2 1/2-x,1/2+y,-z
3 -x,-y,-z
4 1/2+x,1/2-y,z
_cell_length_a                   18.9439(4)
_cell_length_b                   8.14690(10)
_cell_length_c                   19.8336(4)
_cell_angle_alpha                90
_cell_angle_beta                 99.6996(7)
_cell_angle_gamma                90
_cell_volume                     3017.24
_exptl_crystal_colour            orange
_exptl_crystal_description       prism
_cell_formula_units_Z            4
loop_
_atom_site_label
_atom_site_type_symbol
_atom_site_fract_x
_atom_site_fract_y
_atom_site_fract_z
C1 C 0.40114(8) -0.02872(19) 0.32842(8)
C2 C 0.41930(8) -0.19865(19) 0.32343(8)
H1 H 0.4290 -0.2738 0.3605
C3 C 0.42033(8) -0.23401(19) 0.25626(8)
H2 H 0.4312 -0.3377 0.2386
C4 C 0.40215(8) -0.08701(18) 0.21674(8)
C5 C 0.38269(8) -0.04852(18) 0.14609(8)
C6 C 0.34591(8) 0.10229(19) 0.12883(8)
C7 C 0.29292(8) 0.15123(19) 0.07157(8)
H3 H 0.2830 0.0974 0.0285
C8 C 0.25932(8) 0.28927(19) 0.09005(8)
H4 H 0.2217 0.3470 0.0621
C9 C 0.29066(8) 0.33162(18) 0.15888(8)
C10 C 0.26685(8) 0.43303(18) 0.20902(8)
C11 C 0.29240(8) 0.39814(18) 0.27884(8)
C12 C 0.26722(9) 0.4348(2) 0.34167(8)
H5 H 0.2337 0.5177 0.3480
C13 C 0.30023(9) 0.3286(2) 0.39098(8)
H6 H 0.2929 0.3247 0.4372
C14 C 0.34753(8) 0.2248(2) 0.36103(8)
C15 C 0.38100(8) 0.07218(19) 0.38022(8)
C16 C 0.39614(8) -0.15968(19) 0.09059(8)
C17 C 0.39219(8) -0.33083(19) 0.09472(8)
H7 H 0.3784 -0.3800 0.1340
C18 C 0.40806(8) -0.4295(2) 0.04248(9)
H8 H 0.4054 -0.5455 0.0462
C19 C 0.42786(8) -0.3590(2) -0.01553(9)
H9 H 0.4387 -0.4265 -0.0515
C20 C 0.43156(8) -0.1901(2) -0.02041(8)
H10 H 0.4448 -0.1414 -0.0600
C21 C 0.41621(8) -0.0918(2) 0.03181(8)
H11 H 0.4193 0.0241 0.0278
C22 C 0.20740(8) 0.54892(18) 0.18590(8)
C23 C 0.14543(8) 0.54949(19) 0.21540(8)
H12 H 0.1427 0.4807 0.2536
C24 C 0.08792(8) 0.6490(2) 0.18969(9)
H13 H 0.0462 0.6479 0.2104
C25 C 0.09072(8) 0.74990(19) 0.13425(9)
H14 H 0.0509 0.8171 0.1165
C26 C 0.15197(9) 0.75243(19) 0.10466(8)
H15 H 0.1545 0.8223 0.0668
C27 C 0.20958(8) 0.65295(19) 0.13039(8)
H16 H 0.2514 0.6556 0.1098
C28 C 0.38468(8) 0.0091(2) 0.45107(8)
C29 C 0.35813(9) -0.1456(2) 0.46363(9)
H17 H 0.3366 -0.2117 0.4263
C30 C 0.36276(10) -0.2043(2) 0.52982(10)
H18 H 0.3447 -0.3101 0.5377
C31 C 0.39382(10) -0.1084(2) 0.58454(10)
H19 H 0.3973 -0.1485 0.6299
C32 C 0.41952(9) 0.0448(2) 0.57305(9)
H20 H 0.4404 0.1109 0.6106
C33 C 0.41516(9) 0.1037(2) 0.50670(8)
H21 H 0.4332 0.2098 0.4993
C34 C 0.50067(13) 0.3941(3) 0.30307(14)
H22 H 0.4747 0.4160 0.3391
C35 C 0.46923(18) 0.3005(4) 0.24974(19)
C36 C 0.51023(11) 0.2697(3) 0.19634(15)
H23 H 0.4895 0.2064 0.1578
C37 C 0.57821(11) 0.3289(3) 0.19940(12)
H24 H 0.6041 0.3040 0.1636
C38 C 0.61040(17) 0.4258(4) 0.25451(15)
C39 C 0.68040(13) 0.4898(3) 0.25982(14)
H25 H 0.7079 0.4655 0.2252
C40 C 0.70935(16) 0.5861(4) 0.31385(18)
H26 H 0.7562 0.6295 0.3160
C41 C 0.67075(13) 0.6207(3) 0.36555(13)
H27 H 0.6916 0.6871 0.4031
C42 C 0.60244(11) 0.5600(3) 0.36324(12)
H28 H 0.5767 0.5848 0.3991
C43 C 0.57043(15) 0.4607(4) 0.30765(14)
N1 N 0.39525(6) 0.03274(15) 0.26362(6)
N2 N 0.34476(6) 0.22055(14) 0.17775(6)
N3 N 0.34407(7) 0.28040(15) 0.29522(6)
B1 B 0.39055(10) 0.2138(2) 0.24734(10)
C44? C 0.5115(7) 0.3118(12) 0.2346(7)
H29? H 0.5024 0.2554 0.1921
C45? C 0.4568(10) 0.309(3) 0.2718(9)
C46? C 0.4805(5) 0.4045(12) 0.3370(6)
H30? H 0.4489 0.4063 0.3695
C47? C 0.5439(5) 0.4888(10) 0.3534(5)
H31? H 0.5519 0.5521 0.3942
C48? C 0.5981(4) 0.4850(13) 0.3117(5)
C49? C 0.5852(3) 0.3929(12) 0.2519(5)
C50? C 0.6364(4) 0.3859(7) 0.2094(4)
H32? H 0.6276 0.3229 0.1685
C51? C 0.7005(3) 0.4710(9) 0.2266(4)
H33? H 0.7355 0.4662 0.1976
C52? C 0.7134(3) 0.5631(10) 0.2864(4)
H34? H 0.7572 0.6213 0.2982
C53? C 0.6622(4) 0.5702(10) 0.3290(4)
H35? H 0.6710 0.6331 0.3698
loop_
_geom_bond_atom_site_label_1
_geom_bond_atom_site_label_2
_geom_bond_site_symmetry_1
_geom_bond_site_symmetry_2
C1 C2 1_555 1_555
C2 H1 1_555 1_555
C3 C2 1_555 1_555
H2 C3 1_555 1_555
C4 C3 1_555 1_555
C5 C4 1_555 1_555
C6 C5 1_555 1_555
C7 C6 1_555 1_555
H3 C7 1_555 1_555
C8 C7 1_555 1_555
H4 C8 1_555 1_555
C9 C8 1_555 1_555
C10 C9 1_555 1_555
C11 C10 1_555 1_555
C12 C11 1_555 1_555
H5 C12 1_555 1_555
C13 C12 1_555 1_555
H6 C13 1_555 1_555
C14 C13 1_555 1_555
C15 C1 1_555 1_555
C16 C5 1_555 1_555
C17 C16 1_555 1_555
H7 C17 1_555 1_555
C18 C17 1_555 1_555
H8 C18 1_555 1_555
C19 C18 1_555 1_555
H9 C19 1_555 1_555
C20 C19 1_555 1_555
H10 C20 1_555 1_555
C21 C16 1_555 1_555
H11 C21 1_555 1_555
C22 C10 1_555 1_555
C23 C22 1_555 1_555
H12 C23 1_555 1_555
C24 C23 1_555 1_555
H13 C24 1_555 1_555
C25 C24 1_555 1_555
H14 C25 1_555 1_555
C26 C25 1_555 1_555
H15 C26 1_555 1_555
C27 C22 1_555 1_555
H16 C27 1_555 1_555
C28 C15 1_555 1_555
C29 C28 1_555 1_555
H17 C29 1_555 1_555
C30 C29 1_555 1_555
H18 C30 1_555 1_555
C31 C30 1_555 1_555
H19 C31 1_555 1_555
C32 C31 1_555 1_555
H20 C32 1_555 1_555
C33 C28 1_555 1_555
H21 C33 1_555 1_555
C34 H22 1_555 1_555
C35 C34 1_555 1_555
C36 C35 1_555 1_555
H23 C36 1_555 1_555
C37 C36 1_555 1_555
H24 C37 1_555 1_555
C38 C37 1_555 1_555
C39 C38 1_555 1_555
H25 C39 1_555 1_555
C40 C39 1_555 1_555
H26 C40 1_555 1_555
C41 C40 1_555 1_555
H27 C41 1_555 1_555
C42 C41 1_555 1_555
H28 C42 1_555 1_555
C43 C34 1_555 1_555
N1 C1 1_555 1_555
N2 C6 1_555 1_555
N3 C11 1_555 1_555
B1 C35 1_555 1_555
C4 N1 1_555 1_555
C9 N2 1_555 1_555
C14 C15 1_555 1_555
C14 N3 1_555 1_555
C20 C21 1_555 1_555
C26 C27 1_555 1_555
C32 C33 1_555 1_555
C38 C43 1_555 1_555
C42 C43 1_555 1_555
N1 B1 1_555 1_555
N2 B1 1_555 1_555
N3 B1 1_555 1_555

#END
