
#######################################################################
#
#                 Cambridge Crystallographic Data Centre
#                                CCDC 
#
#######################################################################
#
# If this CIF has been generated from an entry in the Cambridge 
# Structural Database, then it will include bibliographic, chemical, 
# crystal, experimental, refinement or atomic coordinate data resulting 
# from the CCDC's data processing and validation procedures.
#
#######################################################################

data_TILFAX
_chemical_formula_moiety         'C39 H25 B1 F1 N3,C4 H8 O1'
_chemical_name_systematic        
'9c-(4-Fluorophenyl)-3,6,9-triphenyl-9cH-8b,9b,9d-triaza-9c-boratricyclopenta[cd,gh,kl]phenalene tetrahydrofuran solvate'
_symmetry_cell_setting           triclinic
_symmetry_space_group_name_H-M   'P -1'
_symmetry_Int_Tables_number      2
_space_group_name_Hall           '-P 1'
loop_
_symmetry_equiv_pos_site_id
_symmetry_equiv_pos_as_xyz
1 x,y,z
2 -x,-y,-z
_cell_length_a                   11.5859(2)
_cell_length_b                   12.4816(2)
_cell_length_c                   13.0041(2)
_cell_angle_alpha                97.9625(9)
_cell_angle_beta                 113.5182(9)
_cell_angle_gamma                105.2782(10)
_cell_volume                     1599.02
_exptl_crystal_colour            orange
_exptl_crystal_description       prism
_cell_formula_units_Z            2
loop_
_atom_site_label
_atom_site_type_symbol
_atom_site_fract_x
_atom_site_fract_y
_atom_site_fract_z
C1 C 0.7544(3) 0.1232(2) 0.1818(2)
C2 C 0.7251(3) 0.1395(2) 0.2783(2)
H1 H 0.6884 0.0802 0.3068
C3 C 0.7591(3) 0.2559(2) 0.3225(2)
H2 H 0.7497 0.2912 0.3869
C4 C 0.8114(2) 0.3153(2) 0.2546(2)
C5 C 0.8367(2) 0.4290(2) 0.2424(2)
C6 C 0.8426(2) 0.4493(2) 0.1404(2)
C7 C 0.8178(3) 0.5355(2) 0.0810(2)
H3 H 0.8205 0.6093 0.1146
C8 C 0.7897(3) 0.4934(2) -0.0323(2)
H4 H 0.7701 0.5329 -0.0909
C9 C 0.7948(2) 0.3786(2) -0.0473(2)
C10 C 0.7377(3) 0.2833(2) -0.1475(2)
C11 C 0.7117(3) 0.1710(2) -0.1322(2)
C12 C 0.6321(3) 0.0556(2) -0.2092(2)
H5 H 0.5912 0.0352 -0.2921
C13 C 0.6260(3) -0.0190(2) -0.1427(2)
H6 H 0.5811 -0.1004 -0.1714
C14 C 0.6990(3) 0.0461(2) -0.0213(2)
C15 C 0.7076(3) 0.0253(2) 0.0853(2)
C16 C 0.8218(3) 0.5170(2) 0.3228(2)
C17 C 0.6979(3) 0.5009(2) 0.3213(2)
H7 H 0.6229 0.4343 0.2684
C18 C 0.6814(3) 0.5797(2) 0.3952(2)
H8 H 0.5960 0.5670 0.3935
C19 C 0.7906(3) 0.6775(2) 0.4722(2)
H9 H 0.7801 0.7323 0.5231
C20 C 0.9141(3) 0.6951(2) 0.4745(2)
H10 H 0.9887 0.7618 0.5276
C21 C 0.9309(3) 0.6163(2) 0.3999(2)
H11 H 1.0162 0.6298 0.4013
C22 C 0.6882(3) 0.3000(2) -0.2658(2)
C23 C 0.7715(3) 0.3786(2) -0.2954(2)
H12 H 0.8612 0.4228 -0.2386
C24 C 0.7253(3) 0.3929(2) -0.4063(2)
H13 H 0.7829 0.4470 -0.4253
C25 C 0.5950(3) 0.3286(2) -0.4900(2)
H14 H 0.5636 0.3384 -0.5664
C26 C 0.5104(3) 0.2500(2) -0.4629(2)
H15 H 0.4215 0.2051 -0.5209
C27 C 0.5553(3) 0.2371(2) -0.3514(2)
H16 H 0.4958 0.1851 -0.3324
C28 C 0.6573(3) -0.0916(2) 0.0968(2)
C29 C 0.5377(3) -0.1778(2) 0.0097(2)
H17 H 0.4837 -0.1603 -0.0580
C30 C 0.4986(3) -0.2877(2) 0.0223(2)
H18 H 0.4185 -0.3452 -0.0378
C31 C 0.5742(3) -0.3155(2) 0.1209(2)
H19 H 0.5468 -0.3914 0.1285
C32 C 0.6905(3) -0.2303(2) 0.2083(2)
H20 H 0.7430 -0.2478 0.2768
C33 C 0.7304(3) -0.1203(2) 0.1963(2)
H21 H 0.8097 -0.0628 0.2575
C34 C 1.0110(3) 0.2539(2) 0.1208(2)
C35 C 1.1155(3) 0.3145(2) 0.2326(2)
H22 H 1.0944 0.3487 0.2895
C36 C 1.2486(3) 0.3268(2) 0.2638(2)
H23 H 1.3179 0.3695 0.3399
C37 C 1.2763(3) 0.2755(2) 0.1818(2)
C38 C 1.1798(3) 0.2123(2) 0.0707(2)
H24 H 1.2026 0.1772 0.0156
C39 C 1.0479(3) 0.2018(2) 0.0422(2)
H25 H 0.9797 0.1574 -0.0338
F1 F 1.40875(15) 0.28915(12) 0.21203(13)
N1 N 0.8137(2) 0.23090(17) 0.17626(17)
N2 N 0.7544(2) 0.15751(17) -0.02272(18)
N3 N 0.8386(2) 0.36119(17) 0.06133(18)
B1 B 0.8597(3) 0.2509(2) 0.0866(3)
O1 O 0.0912(3) 1.05137(18) 0.38280(19)
C40 C 0.0908(3) 0.8771(3) 0.2932(3)
H26 H 0.1222 0.8411 0.2417
H27 H 0.0016 0.8245 0.2776
C41 C 0.0872(3) 0.9942(3) 0.2781(3)
H28 H 0.1656 1.0371 0.2685
H29 H 0.0038 0.9864 0.2093
C42 C 0.1920(3) 0.9084(3) 0.4212(3)
H30 H 0.1792 0.8418 0.4540
H31 H 0.2856 0.9371 0.4324
C43 C 0.1573(3) 1.0033(3) 0.4750(3)
H32 H 0.0968 0.9714 0.5083
H33 H 0.2399 1.0638 0.5381
loop_
_geom_bond_atom_site_label_1
_geom_bond_atom_site_label_2
_geom_bond_site_symmetry_1
_geom_bond_site_symmetry_2
C1 C2 1_555 1_555
C2 H1 1_555 1_555
C3 C2 1_555 1_555
H2 C3 1_555 1_555
C4 C3 1_555 1_555
C5 C4 1_555 1_555
C6 C5 1_555 1_555
C7 C6 1_555 1_555
H3 C7 1_555 1_555
C8 C7 1_555 1_555
H4 C8 1_555 1_555
C9 C8 1_555 1_555
C10 C9 1_555 1_555
C11 C10 1_555 1_555
C12 C11 1_555 1_555
H5 C12 1_555 1_555
C13 C12 1_555 1_555
H6 C13 1_555 1_555
C14 C13 1_555 1_555
C15 C1 1_555 1_555
C16 C5 1_555 1_555
C17 C16 1_555 1_555
H7 C17 1_555 1_555
C18 C17 1_555 1_555
H8 C18 1_555 1_555
C19 C18 1_555 1_555
H9 C19 1_555 1_555
C20 C19 1_555 1_555
H10 C20 1_555 1_555
C21 C16 1_555 1_555
H11 C21 1_555 1_555
C22 C10 1_555 1_555
C23 C22 1_555 1_555
H12 C23 1_555 1_555
C24 C23 1_555 1_555
H13 C24 1_555 1_555
C25 C24 1_555 1_555
H14 C25 1_555 1_555
C26 C25 1_555 1_555
H15 C26 1_555 1_555
C27 C22 1_555 1_555
H16 C27 1_555 1_555
C28 C15 1_555 1_555
C29 C28 1_555 1_555
H17 C29 1_555 1_555
C30 C29 1_555 1_555
H18 C30 1_555 1_555
C31 C30 1_555 1_555
H19 C31 1_555 1_555
C32 C31 1_555 1_555
H20 C32 1_555 1_555
C33 C28 1_555 1_555
H21 C33 1_555 1_555
C34 C35 1_555 1_555
C35 H22 1_555 1_555
C36 C35 1_555 1_555
H23 C36 1_555 1_555
C37 C36 1_555 1_555
C38 C37 1_555 1_555
H24 C38 1_555 1_555
C39 C34 1_555 1_555
H25 C39 1_555 1_555
F1 C37 1_555 1_555
N1 C1 1_555 1_555
N2 C11 1_555 1_555
N3 C6 1_555 1_555
B1 C34 1_555 1_555
O1 C41 1_555 1_555
C40 H26 1_555 1_555
H27 C40 1_555 1_555
C41 C40 1_555 1_555
H28 C41 1_555 1_555
H29 C41 1_555 1_555
C42 C40 1_555 1_555
H30 C42 1_555 1_555
H31 C42 1_555 1_555
C43 O1 1_555 1_555
H32 C43 1_555 1_555
H33 C43 1_555 1_555
C4 N1 1_555 1_555
C9 N3 1_555 1_555
C14 C15 1_555 1_555
C14 N2 1_555 1_555
C20 C21 1_555 1_555
C26 C27 1_555 1_555
C32 C33 1_555 1_555
C38 C39 1_555 1_555
N1 B1 1_555 1_555
N2 B1 1_555 1_555
N3 B1 1_555 1_555
C42 C43 1_555 1_555

#END
