
#######################################################################
#
#                 Cambridge Crystallographic Data Centre
#                                CCDC 
#
#######################################################################
#
# If this CIF has been generated from an entry in the Cambridge 
# Structural Database, then it will include bibliographic, chemical, 
# crystal, experimental, refinement or atomic coordinate data resulting 
# from the CCDC's data processing and validation procedures.
#
#######################################################################

data_TILJOP
_chemical_formula_moiety         'C3 H1 N7 O4'
_chemical_name_systematic        4-Nitro-3-(2H-tetrazol-5-yl)furoxan
_symmetry_cell_setting           orthorhombic
_symmetry_space_group_name_H-M   'P b c a'
_symmetry_Int_Tables_number      61
_space_group_name_Hall           '-P 2ac 2ab'
loop_
_symmetry_equiv_pos_site_id
_symmetry_equiv_pos_as_xyz
1 x,y,z
2 1/2-x,-y,1/2+z
3 -x,1/2+y,1/2-z
4 1/2+x,1/2-y,-z
5 -x,-y,-z
6 1/2+x,y,1/2-z
7 x,1/2-y,1/2+z
8 1/2-x,1/2+y,z
_cell_length_a                   13.514(3)
_cell_length_b                   5.0446(11)
_cell_length_c                   20.993(5)
_cell_angle_alpha                90
_cell_angle_beta                 90
_cell_angle_gamma                90
_cell_volume                     1431.15
_cell_formula_units_Z            8
loop_
_atom_site_label
_atom_site_type_symbol
_atom_site_fract_x
_atom_site_fract_y
_atom_site_fract_z
O1 O 0.329328 0.320266 0.276911
O2 O 0.431342 0.662966 0.245775
O3 O 0.434629 0.274486 0.473919
O4 O 0.327135 -0.028820 0.448946
N1 N 0.614743 0.475352 0.386968
N2 N 0.680194 0.664065 0.400516
N3 N 0.630185 0.887285 0.392489
H1 H 0.657809 1.043603 0.397967
N4 N 0.537076 0.861930 0.375897
N5 N 0.409019 0.510985 0.288899
N6 N 0.314565 0.177877 0.332005
N7 N 0.380572 0.162515 0.436805
C1 C 0.529577 0.602596 0.371573
C2 C 0.440911 0.466815 0.348207
C3 C 0.378840 0.265166 0.372007
O5? O 0.336401 0.096928 0.416188
O6? O 0.454848 0.232636 0.488085
O7? O 0.415566 0.650855 0.263509
O8? O 0.311544 0.343879 0.235199
N8? N 0.532390 0.846242 0.377824
N9? N 0.625039 0.922767 0.388943
H2? H 0.648557 1.085325 0.390391
N10? N 0.673599 0.697545 0.397319
N11? N 0.619982 0.480773 0.396709
N12? N 0.420186 0.264424 0.434788
N13? N 0.310531 0.164369 0.354910
N14? N 0.365010 0.458248 0.274036
C4? C 0.531570 0.579212 0.385494
C5? C 0.441256 0.418360 0.384725
C6? C 0.373361 0.341391 0.337226
loop_
_geom_bond_atom_site_label_1
_geom_bond_atom_site_label_2
_geom_bond_site_symmetry_1
_geom_bond_site_symmetry_2
O1 N5 1_555 1_555
O2 N5 1_555 1_555
O3 N7 1_555 1_555
O4 N7 1_555 1_555
N1 N2 1_555 1_555
N2 N3 1_555 1_555
N3 H1 1_555 1_555
N4 N3 1_555 1_555
N5 C2 1_555 1_555
N6 O1 1_555 1_555
N7 C3 1_555 1_555
C1 N1 1_555 1_555
C2 C1 1_555 1_555
C3 N6 1_555 1_555
N4 C1 1_555 1_555
C2 C3 1_555 1_555

#END
