
#######################################################################
#
#                 Cambridge Crystallographic Data Centre
#                                CCDC 
#
#######################################################################
#
# If this CIF has been generated from an entry in the Cambridge 
# Structural Database, then it will include bibliographic, chemical, 
# crystal, experimental, refinement or atomic coordinate data resulting 
# from the CCDC's data processing and validation procedures.
#
#######################################################################

data_TILLUX
_chemical_formula_moiety         'C11 H10 O2,C6 H7 B1 O2'
_chemical_name_systematic        
'5-methyl-4-phenylfuran-2(5H)-one phenylboronic acid'
_symmetry_cell_setting           triclinic
_symmetry_space_group_name_H-M   'P -1'
_symmetry_Int_Tables_number      2
_space_group_name_Hall           '-P 1'
loop_
_symmetry_equiv_pos_site_id
_symmetry_equiv_pos_as_xyz
1 x,y,z
2 -x,-y,-z
_cell_length_a                   9.2027(16)
_cell_length_b                   9.7743(16)
_cell_length_c                   9.9545(17)
_cell_angle_alpha                92.797(4)
_cell_angle_beta                 109.355(4)
_cell_angle_gamma                108.167(4)
_cell_volume                     791.047
_exptl_crystal_colour            colorless
_exptl_crystal_description       prismatic
_cell_formula_units_Z            2
loop_
_atom_site_label
_atom_site_type_symbol
_atom_site_fract_x
_atom_site_fract_y
_atom_site_fract_z
O1 O 0.39615(19) 0.25584(14) 0.58759(15)
O2 O 0.19950(17) 0.25764(12) 0.38423(15)
C1 C 0.3175(3) 0.32243(19) 0.5131(2)
C2 C 0.3257(2) 0.47208(18) 0.5415(2)
H1 H 0.3999 0.5406 0.6228
C3 C 0.2104(2) 0.49580(17) 0.43313(19)
C4 C 0.1213(2) 0.35927(18) 0.3230(2)
H2 H 0.0058 0.3223 0.3136
C5 C 0.1307(3) 0.3733(2) 0.1757(2)
H3 H 0.2438 0.4122 0.1849
H4 H 0.0753 0.4378 0.1330
H5 H 0.0792 0.2788 0.1154
C6 C 0.1677(2) 0.62874(18) 0.4188(2)
C7 C 0.0142(3) 0.6232(2) 0.3303(2)
H6 H -0.0631 0.5342 0.2766
C8 C -0.0266(3) 0.7480(3) 0.3202(3)
H7 H -0.1305 0.7430 0.2597
C9 C 0.0869(4) 0.8795(3) 0.3998(3)
H8 H 0.0597 0.9635 0.3936
C10 C 0.2403(3) 0.8871(2) 0.4885(2)
H9 H 0.3168 0.9765 0.5421
C11 C 0.2819(3) 0.76280(18) 0.4987(2)
H10 H 0.3862 0.7686 0.5589
O3 O 0.49158(19) 0.62736(14) 0.12558(17)
O4 O 0.3881(2) 0.60359(17) -0.12417(16)
B1 B 0.4118(3) 0.6744(2) 0.0059(3)
C12 C 0.3432(2) 0.80168(18) 0.0075(2)
C13 C 0.3232(3) 0.8605(2) 0.1270(2)
H11 H 0.3501 0.8224 0.2119
C14 C 0.2641(3) 0.9748(2) 0.1224(3)
H12 H 0.2519 1.0131 0.2036
C15 C 0.2235(3) 1.0316(2) -0.0031(3)
H13 H 0.1823 1.1075 -0.0069
C16 C 0.2434(3) 0.9770(2) -0.1219(2)
H14 H 0.2173 1.0164 -0.2062
C17 C 0.3024(2) 0.8634(2) -0.1164(2)
H15 H 0.3153 0.8267 -0.1981
H16 H 0.513(3) 0.667(2) 0.2105(18)
H17 H 0.424(3) 0.537(2) -0.117(3)
loop_
_geom_bond_atom_site_label_1
_geom_bond_atom_site_label_2
_geom_bond_site_symmetry_1
_geom_bond_site_symmetry_2
O1 C1 1_555 1_555
O2 C1 1_555 1_555
C1 C2 1_555 1_555
C2 H1 1_555 1_555
C3 C2 1_555 1_555
C4 O2 1_555 1_555
H2 C4 1_555 1_555
C5 C4 1_555 1_555
H3 C5 1_555 1_555
H4 C5 1_555 1_555
H5 C5 1_555 1_555
C6 C3 1_555 1_555
C7 C6 1_555 1_555
H6 C7 1_555 1_555
C8 C7 1_555 1_555
H7 C8 1_555 1_555
C9 C8 1_555 1_555
H8 C9 1_555 1_555
C10 C9 1_555 1_555
H9 C10 1_555 1_555
C11 C6 1_555 1_555
H10 C11 1_555 1_555
O3 B1 1_555 1_555
O4 B1 1_555 1_555
B1 C12 1_555 1_555
C12 C13 1_555 1_555
C13 H11 1_555 1_555
C14 C13 1_555 1_555
H12 C14 1_555 1_555
C15 C14 1_555 1_555
H13 C15 1_555 1_555
C16 C15 1_555 1_555
H14 C16 1_555 1_555
C17 C12 1_555 1_555
H15 C17 1_555 1_555
H16 O3 1_555 1_555
H17 O4 1_555 1_555
C3 C4 1_555 1_555
C10 C11 1_555 1_555
C16 C17 1_555 1_555

#END
