
#######################################################################
#
#                 Cambridge Crystallographic Data Centre
#                                CCDC 
#
#######################################################################
#
# If this CIF has been generated from an entry in the Cambridge 
# Structural Database, then it will include bibliographic, chemical, 
# crystal, experimental, refinement or atomic coordinate data resulting 
# from the CCDC's data processing and validation procedures.
#
#######################################################################

data_TILLEI
_chemical_formula_moiety         'C33 H40 N2 O3'
_chemical_name_systematic        
13-hydroxy-4,5,10,12-tetramethyl-3-[(1-methyl-1H-indol-3-yl)methyl]-3,3a,4,6a,9,10,13,14-octahydro-1H-cyclotrideca[d]isoindole-1,17(2H)-dione
_symmetry_cell_setting           orthorhombic
_symmetry_space_group_name_H-M   'P 21 21 21'
_symmetry_Int_Tables_number      19
_space_group_name_Hall           'P 2ac 2ab'
loop_
_symmetry_equiv_pos_site_id
_symmetry_equiv_pos_as_xyz
1 x,y,z
2 1/2-x,-y,1/2+z
3 -x,1/2+y,1/2-z
4 1/2+x,1/2-y,-z
_cell_length_a                   10.413(3)
_cell_length_b                   13.900(4)
_cell_length_c                   19.553(5)
_cell_angle_alpha                90
_cell_angle_beta                 90
_cell_angle_gamma                90
_cell_volume                     2830.11
_exptl_crystal_colour            colorless
_exptl_crystal_description       needle
_cell_formula_units_Z            4
_exptl_crystal_recrystallization_method methanol/dichloromethane/water
loop_
_atom_site_label
_atom_site_type_symbol
_atom_site_fract_x
_atom_site_fract_y
_atom_site_fract_z
O1 O 0.5387(5) 0.2033(4) 0.9001(2)
H1 H 0.5981 0.1663 0.8918
O2 O 0.2084(4) -0.0105(4) 0.6974(3)
N1 N -0.0039(5) -0.0385(5) 0.7135(3)
H2 H 0.0050 -0.0953 0.7304
N2 N -0.1199(6) 0.2017(6) 0.8906(3)
O3 O 0.0257(5) 0.2721(4) 0.7231(3)
C1 C 0.0485(6) 0.1155(6) 0.6750(3)
C2 C 0.4493(6) 0.2711(7) 0.6005(4)
H3 H 0.4927 0.2102 0.5933
H4 H 0.4682 0.3119 0.5616
C3 C 0.5038(6) 0.3176(6) 0.6641(4)
H5 H 0.4555 0.3768 0.6728
C4 C -0.0997(6) 0.1010(5) 0.6663(3)
H6 H -0.1434 0.1519 0.6919
C5 C 0.5003(8) 0.3798(6) 0.8160(4)
H7 H 0.5126 0.4219 0.7776
H8 H 0.5741 0.3829 0.8454
H9 H 0.4254 0.3994 0.8410
C6 C 0.2519(7) 0.1661(7) 0.6088(4)
H10 H 0.3053 0.1133 0.6151
C7 C 0.0705(7) 0.0778(6) 0.5524(4)
H11 H 0.1331 0.0501 0.5248
C8 C 0.0959(7) 0.0170(6) 0.6962(3)
C9 C -0.0547(6) 0.1243(7) 0.9184(4)
C10 C -0.0150(7) -0.0427(7) 0.8954(4)
H12 H -0.0254 -0.0971 0.8683
C11 C -0.0750(7) 0.0432(7) 0.8780(4)
C12 C -0.2104(6) 0.0114(6) 0.7669(3)
H13 H -0.2947 0.0356 0.7546
H14 H -0.2217 -0.0532 0.7847
C13 C -0.1575(7) 0.0734(8) 0.8229(4)
C14 C -0.1284(6) 0.0051(6) 0.7013(4)
H15 H -0.1745 -0.0355 0.6685
C15 C 0.0746(7) 0.1931(7) 0.7289(3)
C16 C 0.3060(7) 0.2530(8) 0.6026(3)
H16 H 0.2518 0.3060 0.5994
C17 C 0.4876(6) 0.2526(6) 0.7249(4)
H17 H 0.4799 0.1873 0.7156
C18 C -0.0509(7) 0.0538(6) 0.5442(4)
C19 C -0.1807(7) 0.1681(8) 0.8325(4)
H18 H -0.2311 0.2057 0.8038
C20 C 0.4500(7) 0.2034(6) 0.8436(4)
H19 H 0.4515 0.1399 0.8219
C21 C 0.0213(8) 0.1221(7) 0.9779(4)
H20 H 0.0330 0.1762 1.0051
C22 C 0.4828(6) 0.2781(6) 0.7909(4)
C23 C 0.0598(8) -0.0464(7) 0.9531(4)
H21 H 0.0992 -0.1038 0.9656
C24 C -0.1431(6) 0.1077(6) 0.5910(4)
H22 H -0.1383 0.1757 0.5781
C25 C 0.1084(6) 0.1493(5) 0.6060(3)
H23 H 0.0680 0.2107 0.5940
C26 C -0.0984(9) -0.0157(6) 0.4921(5)
H24 H -0.1404 -0.0684 0.5146
H25 H -0.0272 -0.0395 0.4659
H26 H -0.1581 0.0159 0.4622
C27 C 0.3185(6) 0.2189(7) 0.8761(4)
H27 H 0.2967 0.1634 0.9038
H28 H 0.3218 0.2747 0.9058
C28 C 0.0768(8) 0.0355(8) 0.9931(4)
H29 H 0.1283 0.0312 1.0318
C29 C 0.6457(7) 0.3451(7) 0.6522(4)
H30 H 0.6948 0.2881 0.6429
H31 H 0.6789 0.3763 0.6922
H32 H 0.6516 0.3881 0.6139
C30 C 0.2175(7) 0.2335(7) 0.8236(4)
H33 H 0.1897 0.2967 0.8182
C31 C 0.1641(8) 0.1726(8) 0.7854(4)
H34 H 0.1830 0.1083 0.7937
C32 C -0.2857(6) 0.0772(7) 0.5834(5)
H35 H -0.2913 0.0083 0.5826
H36 H -0.3196 0.1028 0.5415
H37 H -0.3343 0.1017 0.6213
C33 C -0.1230(10) 0.2986(7) 0.9169(5)
H38 H -0.0369 0.3223 0.9218
H39 H -0.1647 0.2990 0.9607
H40 H -0.1696 0.3391 0.8859
loop_
_geom_bond_atom_site_label_1
_geom_bond_atom_site_label_2
_geom_bond_site_symmetry_1
_geom_bond_site_symmetry_2
O1 H1 1_555 1_555
O2 C8 1_555 1_555
N1 H2 1_555 1_555
N2 C9 1_555 1_555
O3 C15 1_555 1_555
C1 C4 1_555 1_555
C2 H3 1_555 1_555
H4 C2 1_555 1_555
C3 C2 1_555 1_555
H5 C3 1_555 1_555
C4 H6 1_555 1_555
C5 H7 1_555 1_555
H8 C5 1_555 1_555
H9 C5 1_555 1_555
C6 H10 1_555 1_555
C7 H11 1_555 1_555
C8 N1 1_555 1_555
C9 C11 1_555 1_555
C10 H12 1_555 1_555
C11 C10 1_555 1_555
C12 H13 1_555 1_555
H14 C12 1_555 1_555
C13 C11 1_555 1_555
C14 N1 1_555 1_555
H15 C14 1_555 1_555
C15 C1 1_555 1_555
C16 C2 1_555 1_555
H16 C16 1_555 1_555
C17 C3 1_555 1_555
H17 C17 1_555 1_555
C18 C7 1_555 1_555
C19 N2 1_555 1_555
H18 C19 1_555 1_555
C20 O1 1_555 1_555
H19 C20 1_555 1_555
C21 C9 1_555 1_555
H20 C21 1_555 1_555
C22 C5 1_555 1_555
C23 C10 1_555 1_555
H21 C23 1_555 1_555
C24 C4 1_555 1_555
H22 C24 1_555 1_555
C25 C1 1_555 1_555
H23 C25 1_555 1_555
C26 C18 1_555 1_555
H24 C26 1_555 1_555
H25 C26 1_555 1_555
H26 C26 1_555 1_555
C27 C20 1_555 1_555
H27 C27 1_555 1_555
H28 C27 1_555 1_555
C28 C21 1_555 1_555
H29 C28 1_555 1_555
C29 C3 1_555 1_555
H30 C29 1_555 1_555
H31 C29 1_555 1_555
H32 C29 1_555 1_555
C30 C27 1_555 1_555
H33 C30 1_555 1_555
C31 C15 1_555 1_555
H34 C31 1_555 1_555
C32 C24 1_555 1_555
H35 C32 1_555 1_555
H36 C32 1_555 1_555
H37 C32 1_555 1_555
C33 N2 1_555 1_555
H38 C33 1_555 1_555
H39 C33 1_555 1_555
H40 C33 1_555 1_555
C1 C8 1_555 1_555
C4 C14 1_555 1_555
C6 C16 1_555 1_555
C6 C25 1_555 1_555
C7 C25 1_555 1_555
C12 C13 1_555 1_555
C12 C14 1_555 1_555
C13 C19 1_555 1_555
C17 C22 1_555 1_555
C18 C24 1_555 1_555
C20 C22 1_555 1_555
C23 C28 1_555 1_555
C30 C31 1_555 1_555

#END
