
#######################################################################
#
#                 Cambridge Crystallographic Data Centre
#                                CCDC 
#
#######################################################################
#
# If this CIF has been generated from an entry in the Cambridge 
# Structural Database, then it will include bibliographic, chemical, 
# crystal, experimental, refinement or atomic coordinate data resulting 
# from the CCDC's data processing and validation procedures.
#
#######################################################################

data_TILMIM
_chemical_formula_moiety         'C2 H7 N4 O1 1+,C3 N7 O4 1-'
_chemical_name_systematic        
'N-Carbamoylguanidinium 5-(4-nitro-2-oxido-1,2,5-oxadiazol-3-yl)tetrazol-1-ide'
_symmetry_cell_setting           monoclinic
_symmetry_space_group_name_H-M   'P 21/c'
_symmetry_Int_Tables_number      14
_space_group_name_Hall           '-P 2ybc'
loop_
_symmetry_equiv_pos_site_id
_symmetry_equiv_pos_as_xyz
1 x,y,z
2 -x,1/2+y,1/2-z
3 -x,-y,-z
4 x,1/2-y,1/2+z
_cell_length_a                   18.862(5)
_cell_length_b                   14.765(3)
_cell_length_c                   8.526(2)
_cell_angle_alpha                90
_cell_angle_beta                 101.257(4)
_cell_angle_gamma                90
_cell_volume                     2328.79
_cell_formula_units_Z            8
loop_
_atom_site_label
_atom_site_type_symbol
_atom_site_fract_x
_atom_site_fract_y
_atom_site_fract_z
O1 O 0.787950 0.803062 0.628939
O2 O 0.839040 0.662480 0.624363
O3 O 0.813870 1.000910 0.324883
O4 O 0.928146 0.969014 0.399164
N1 N 0.795021 0.885332 0.561248
N2 N 0.839370 0.741133 0.579162
N3 N 0.983583 0.786270 0.357952
N4 N 1.017690 0.718907 0.297375
N5 N 0.986819 0.640791 0.317954
N6 N 0.931818 0.654810 0.393339
N7 N 0.864450 0.955008 0.394162
C1 C 0.845974 0.875922 0.480982
C2 C 0.876901 0.788436 0.488951
C3 C 0.931271 0.744568 0.415536
O5 O 0.710413 0.846844 0.874201
O6 O 0.659049 0.705420 0.874328
O7 O 0.651517 1.069852 1.059618
O8 O 0.603677 0.982964 1.214679
N8 N 0.701865 0.928712 0.939494
N9 N 0.657622 0.783756 0.919573
N10 N 0.507614 0.830160 1.119467
N11 N 0.468214 0.763084 1.167525
N12 N 0.496880 0.684060 1.144769
N13 N 0.555385 0.697509 1.079967
N14 N 0.631711 0.996826 1.101916
C4 C 0.649122 0.918466 1.015588
C5 C 0.619063 0.830503 1.006000
C6 C 0.560550 0.787196 1.067488
O9 O 0.807286 0.328170 0.528452
N15 N 0.949360 0.444661 0.270520
N16 N 0.869939 0.475857 0.436598
N17 N 0.885573 0.328274 0.352855
N18 N 0.835612 0.196141 0.419736
C7 C 0.901660 0.418635 0.355074
C8 C 0.839502 0.285672 0.439219
H1 H 0.962043 0.500276 0.274076
H2 H 0.972436 0.405790 0.222229
H3 H 0.883110 0.531244 0.434406
H4 H 0.841988 0.458696 0.490379
H5 H 0.909455 0.293254 0.304931
H6 H 0.853071 0.171715 0.349323
H7 H 0.803118 0.167132 0.459510
O10 O 0.721262 0.386267 0.057235
N19 N 0.539358 0.487375 0.206394
N20 N 0.630076 0.523495 0.071049
N21 N 0.622300 0.378768 0.177386
N22 N 0.688142 0.253021 0.150562
C9 C 0.597615 0.465415 0.148775
C10 C 0.680700 0.341232 0.121979
H8 H 0.516476 0.444353 0.264805
H9 H 0.518815 0.545635 0.188694
H10 H 0.666852 0.499438 0.038605
H11 H 0.611528 0.586182 0.048695
H12 H 0.597625 0.340193 0.226413
H13 H 0.654107 0.217508 0.178771
H14 H 0.722076 0.222250 0.118193
O11? O 0.567535 1.005833 1.107220
O12? O 0.671040 1.053222 1.178620
loop_
_geom_bond_atom_site_label_1
_geom_bond_atom_site_label_2
_geom_bond_site_symmetry_1
_geom_bond_site_symmetry_2
O1 N1 1_555 1_555
O2 N2 1_555 1_555
O3 N7 1_555 1_555
O4 N7 1_555 1_555
N1 C1 1_555 1_555
N2 O1 1_555 1_555
N3 N4 1_555 1_555
N4 N5 1_555 1_555
N5 N6 1_555 1_555
N6 C3 1_555 1_555
N7 C1 1_555 1_555
C1 C2 1_555 1_555
C2 N2 1_555 1_555
C3 N3 1_555 1_555
O5 N8 1_555 1_555
O6 N9 1_555 1_555
O7 N14 1_555 1_555
O8 N14 1_555 1_555
N8 C4 1_555 1_555
N9 O5 1_555 1_555
N10 N11 1_555 1_555
N11 N12 1_555 1_555
N12 N13 1_555 1_555
N13 C6 1_555 1_555
N14 C4 1_555 1_555
C4 C5 1_555 1_555
C5 N9 1_555 1_555
C6 N10 1_555 1_555
O9 C8 1_555 1_555
N15 C7 1_555 1_555
N16 C7 1_555 1_555
N17 C7 1_555 1_555
N18 C8 1_555 1_555
C8 N17 1_555 1_555
H1 N15 1_555 1_555
H2 N15 1_555 1_555
H3 N16 1_555 1_555
H4 N16 1_555 1_555
H5 N17 1_555 1_555
H6 N18 1_555 1_555
H7 N18 1_555 1_555
O10 C10 1_555 1_555
N19 C9 1_555 1_555
N20 C9 1_555 1_555
N21 C9 1_555 1_555
N22 C10 1_555 1_555
C10 N21 1_555 1_555
H8 N19 1_555 1_555
H9 N19 1_555 1_555
H10 N20 1_555 1_555
H11 N20 1_555 1_555
H12 N21 1_555 1_555
H13 N22 1_555 1_555
H14 N22 1_555 1_555
C2 C3 1_555 1_555
C5 C6 1_555 1_555

#END
