
#######################################################################
#
#                 Cambridge Crystallographic Data Centre
#                                CCDC 
#
#######################################################################
#
# If this CIF has been generated from an entry in the Cambridge 
# Structural Database, then it will include bibliographic, chemical, 
# crystal, experimental, refinement or atomic coordinate data resulting 
# from the CCDC's data processing and validation procedures.
#
#######################################################################

data_TILPOV
_chemical_formula_moiety         'C27 H30 N6'
_chemical_name_systematic        
4,4'-(2,2,6,6-Tetramethylhepta-3,4-diene-3,5-diyl)bis(1-phenyl-1H-1,2,3-triazole)
_symmetry_cell_setting           monoclinic
_symmetry_space_group_name_H-M   'P 21/c'
_symmetry_Int_Tables_number      14
_space_group_name_Hall           '-P 2ybc'
loop_
_symmetry_equiv_pos_site_id
_symmetry_equiv_pos_as_xyz
1 x,y,z
2 -x,1/2+y,1/2-z
3 -x,-y,-z
4 x,1/2-y,1/2+z
_cell_length_a                   11.2921(6)
_cell_length_b                   18.9103(13)
_cell_length_c                   11.3518(8)
_cell_angle_alpha                90
_cell_angle_beta                 96.286(4)
_cell_angle_gamma                90
_cell_volume                     2409.46
_exptl_crystal_description       rod
_cell_formula_units_Z            4
loop_
_atom_site_label
_atom_site_type_symbol
_atom_site_fract_x
_atom_site_fract_y
_atom_site_fract_z
N1 N 1.17630(12) 0.67470(8) 0.08640(13)
N2 N 1.07103(13) 0.67040(9) 0.13303(15)
N3 N 1.06213(12) 0.60523(8) 0.17124(15)
N4 N 1.48712(12) 0.37459(8) -0.02043(13)
N5 N 1.46256(12) 0.34933(8) -0.12791(13)
N6 N 1.34353(11) 0.35703(8) -0.15728(13)
C1 C 1.16074(14) 0.56762(9) 0.14898(15)
C2 C 1.23391(15) 0.61209(9) 0.09503(16)
C3 C 1.17829(14) 0.49213(9) 0.17755(15)
C4 C 1.27941(15) 0.46264(9) 0.15783(15)
C5 C 1.37893(14) 0.43056(9) 0.13842(15)
C6 C 1.38437(14) 0.39828(9) 0.02021(16)
C7 C 1.29298(15) 0.38684(9) -0.06714(15)
C8 C 1.20878(14) 0.73917(10) 0.03263(16)
C9 C 1.17842(15) 0.80328(10) 0.07978(18)
C10 C 1.20730(16) 0.86507(11) 0.02494(19)
C11 C 1.26664(16) 0.86302(11) -0.07528(18)
C12 C 1.29764(16) 0.79879(11) -0.12077(19)
C13 C 1.26817(15) 0.73621(11) -0.06760(17)
C14 C 1.08144(14) 0.44838(10) 0.23003(16)
C15 C 0.96250(18) 0.45368(13) 0.1518(2)
C16 C 1.0689(2) 0.47508(13) 0.3556(2)
C17 C 1.11772(19) 0.37085(11) 0.2358(2)
C18 C 1.48289(14) 0.42212(10) 0.23696(16)
C19 C 1.50358(18) 0.34275(10) 0.25932(18)
C20 C 1.45214(19) 0.45677(12) 0.35131(18)
C21 C 1.59556(17) 0.45748(12) 0.2012(2)
C22 C 1.28937(15) 0.33295(9) -0.27018(16)
C23 C 1.16699(16) 0.32504(11) -0.28842(18)
C24 C 1.11468(18) 0.30010(11) -0.39639(18)
C25 C 1.18393(17) 0.28274(10) -0.48489(18)
C26 C 1.30594(18) 0.29173(11) -0.46607(18)
C27 C 1.35964(18) 0.31735(10) -0.35906(17)
H1 H 1.2118(14) 0.3971(9) -0.0715(15)
H2 H 1.2867(14) 0.6915(10) -0.0991(16)
H3 H 1.0290(16) 0.2941(10) -0.4074(16)
H4 H 1.1187(16) 0.3386(11) -0.2267(18)
H5 H 1.5699(15) 0.3352(10) 0.3260(17)
H6 H 1.1369(15) 0.8029(9) 0.1478(17)
H7 H 1.6608(15) 0.4509(10) 0.2682(17)
H8 H 1.3803(17) 0.4369(10) 0.3812(17)
H9 H 1.5849(15) 0.5070(11) 0.1858(17)
H10 H 1.5266(15) 0.3181(10) 0.1869(18)
H11 H 1.4400(15) 0.5101(12) 0.3395(18)
H12 H 0.9028(16) 0.4214(10) 0.1869(17)
H13 H 1.3120(14) 0.6070(8) 0.0680(14)
H14 H 1.4297(17) 0.3205(10) 0.2826(17)
H15 H 0.9734(18) 0.4356(12) 0.069(2)
H16 H 1.1916(17) 0.3632(10) 0.2890(19)
H17 H 1.0550(16) 0.3419(10) 0.2714(17)
H18 H 1.5178(16) 0.4497(10) 0.4120(18)
H19 H 1.1463(18) 0.4714(11) 0.4090(19)
H20 H 1.1286(17) 0.3520(11) 0.156(2)
H21 H 0.9302(17) 0.5016(13) 0.149(2)
H22 H 1.4433(16) 0.3245(10) -0.3457(17)
H23 H 1.0087(16) 0.4454(11) 0.3932(18)
H24 H 1.3401(16) 0.7959(10) -0.1911(18)
H25 H 1.1860(15) 0.9097(11) 0.0543(17)
H26 H 1.2887(15) 0.9066(11) -0.1122(17)
H27 H 1.1466(16) 0.2633(11) -0.5604(19)
H28 H 1.6237(16) 0.4357(11) 0.1259(19)
H29 H 1.3560(17) 0.2781(11) -0.5302(19)
H30 H 1.0376(18) 0.5251(13) 0.356(2)
loop_
_geom_bond_atom_site_label_1
_geom_bond_atom_site_label_2
_geom_bond_site_symmetry_1
_geom_bond_site_symmetry_2
N1 N2 1_555 1_555
N2 N3 1_555 1_555
N3 C1 1_555 1_555
N4 N5 1_555 1_555
N5 N6 1_555 1_555
N6 C7 1_555 1_555
C1 C2 1_555 1_555
C2 N1 1_555 1_555
C3 C1 1_555 1_555
C4 C3 1_555 1_555
C5 C4 1_555 1_555
C6 N4 1_555 1_555
C7 C6 1_555 1_555
C8 N1 1_555 1_555
C9 C8 1_555 1_555
C10 C9 1_555 1_555
C11 C10 1_555 1_555
C12 C11 1_555 1_555
C13 C8 1_555 1_555
C14 C3 1_555 1_555
C15 C14 1_555 1_555
C16 C14 1_555 1_555
C17 C14 1_555 1_555
C18 C5 1_555 1_555
C19 C18 1_555 1_555
C20 C18 1_555 1_555
C21 C18 1_555 1_555
C22 N6 1_555 1_555
C23 C22 1_555 1_555
C24 C23 1_555 1_555
C25 C24 1_555 1_555
C26 C25 1_555 1_555
C27 C22 1_555 1_555
H1 C7 1_555 1_555
H2 C13 1_555 1_555
H3 C24 1_555 1_555
H4 C23 1_555 1_555
H5 C19 1_555 1_555
H6 C9 1_555 1_555
H7 C21 1_555 1_555
H8 C20 1_555 1_555
H9 C21 1_555 1_555
H10 C19 1_555 1_555
H11 C20 1_555 1_555
H12 C15 1_555 1_555
H13 C2 1_555 1_555
H14 C19 1_555 1_555
H15 C15 1_555 1_555
H16 C17 1_555 1_555
H17 C17 1_555 1_555
H18 C20 1_555 1_555
H19 C16 1_555 1_555
H20 C17 1_555 1_555
H21 C15 1_555 1_555
H22 C27 1_555 1_555
H23 C16 1_555 1_555
H24 C12 1_555 1_555
H25 C10 1_555 1_555
H26 C11 1_555 1_555
H27 C25 1_555 1_555
H28 C21 1_555 1_555
H29 C26 1_555 1_555
H30 C16 1_555 1_555
C5 C6 1_555 1_555
C12 C13 1_555 1_555
C26 C27 1_555 1_555

#END
