
#######################################################################
#
#                 Cambridge Crystallographic Data Centre
#                                CCDC 
#
#######################################################################
#
# If this CIF has been generated from an entry in the Cambridge 
# Structural Database, then it will include bibliographic, chemical, 
# crystal, experimental, refinement or atomic coordinate data resulting 
# from the CCDC's data processing and validation procedures.
#
#######################################################################

data_TILPIP
_chemical_formula_moiety         'C39 H36'
_chemical_name_systematic        
4,4'-(3,5-Di-t-butylhepta-3,4-diene-1,6-diyne-1,7-diyl)dibiphenyl
_symmetry_cell_setting           monoclinic
_symmetry_space_group_name_H-M   'P 21'
_symmetry_Int_Tables_number      4
_space_group_name_Hall           'P 2yb'
loop_
_symmetry_equiv_pos_site_id
_symmetry_equiv_pos_as_xyz
1 x,y,z
2 -x,1/2+y,-z
_cell_length_a                   5.8859(5)
_cell_length_b                   27.177(2)
_cell_length_c                   18.4902(14)
_cell_angle_alpha                90
_cell_angle_beta                 94.200(3)
_cell_angle_gamma                90
_cell_volume                     2949.77
_exptl_crystal_colour            colorless
_exptl_crystal_description       rod
_cell_formula_units_Z            4
loop_
_atom_site_label
_atom_site_type_symbol
_atom_site_fract_x
_atom_site_fract_y
_atom_site_fract_z
C1 C -1.3154(3) -0.31698(6) -0.46038(10)
C2 C -1.2711(3) -0.28299(7) -0.51348(10)
H1 H -1.139(3) -0.2859(7) -0.5369(10)
C3 C -1.4193(3) -0.24439(7) -0.52994(11)
H2 H -1.382(3) -0.2200(7) -0.5676(11)
C4 C -1.6161(3) -0.23976(7) -0.49367(11)
H3 H -1.725(4) -0.2140(8) -0.5069(11)
C5 C -1.6644(3) -0.27384(7) -0.44169(12)
H4 H -1.813(3) -0.2717(7) -0.4151(10)
C6 C -1.5151(3) -0.31212(7) -0.42504(11)
H5 H -1.545(3) -0.3377(8) -0.3874(11)
C7 C -1.1548(3) -0.35777(6) -0.44164(10)
C8 C -1.0538(3) -0.38346(7) -0.49591(11)
H6 H -1.092(3) -0.3741(7) -0.5472(12)
C9 C -0.9119(3) -0.42318(7) -0.47974(11)
H7 H -0.846(4) -0.4417(8) -0.5196(13)
C10 C -0.8641(3) -0.43745(7) -0.40820(11)
C11 C -0.9560(3) -0.41051(7) -0.35330(12)
H8 H -0.914(3) -0.4189(7) -0.3032(12)
C12 C -1.1007(3) -0.37148(7) -0.37012(11)
H9 H -1.164(3) -0.3528(8) -0.3299(12)
C13 C -0.7345(3) -0.48150(7) -0.39191(11)
C14 C -0.6453(3) -0.52052(7) -0.38219(11)
C15 C -0.5213(3) -0.56590(6) -0.37394(10)
C16 C -0.5558(3) -0.59597(7) -0.32044(10)
C17 C -0.5690(3) -0.62758(6) -0.26720(10)
C18 C -0.6993(3) -0.67205(7) -0.27818(10)
C19 C -0.7902(3) -0.71152(7) -0.28473(10)
C20 C -0.8939(3) -0.75883(7) -0.29467(10)
C21 C -1.1075(3) -0.76419(7) -0.33017(11)
H10 H -1.184(3) -0.7357(8) -0.3498(10)
C22 C -1.2028(3) -0.81028(7) -0.34212(11)
H11 H -1.353(4) -0.8126(8) -0.3704(12)
C23 C -1.0900(3) -0.85266(6) -0.31843(10)
C24 C -0.8762(3) -0.84705(7) -0.28156(11)
H12 H -0.789(3) -0.8730(8) -0.2638(11)
C25 C -0.7794(3) -0.80116(7) -0.27008(11)
H13 H -0.631(4) -0.7980(8) -0.2434(12)
C26 C -1.1928(3) -0.90235(7) -0.33219(10)
C27 C -1.4100(3) -0.90769(7) -0.36630(11)
H14 H -1.500(4) -0.8780(9) -0.3834(12)
C28 C -1.5051(3) -0.95379(7) -0.37934(11)
H15 H -1.664(4) -0.9566(8) -0.4030(12)
C29 C -1.3840(3) -0.99569(8) -0.35867(11)
H16 H -1.456(3) -1.0282(7) -0.3661(10)
C30 C -1.1690(4) -0.99111(7) -0.32539(11)
H17 H -1.084(4) -1.0200(8) -0.3102(12)
C31 C -1.0739(3) -0.94504(7) -0.31186(11)
H18 H -0.913(4) -0.9433(7) -0.2890(11)
C32 C -0.3581(3) -0.57900(7) -0.43211(11)
C33 C -0.2352(4) -0.53240(9) -0.45504(16)
H19 H -0.121(4) -0.5420(9) -0.4886(14)
H20 H -0.150(4) -0.5166(10) -0.4098(14)
H21 H -0.342(4) -0.5089(10) -0.4774(14)
C34 C -0.5028(4) -0.59992(9) -0.49666(12)
H22 H -0.622(4) -0.5783(8) -0.5151(11)
H23 H -0.580(4) -0.6300(10) -0.4820(13)
H24 H -0.405(4) -0.6086(8) -0.5358(13)
C35 C -0.1844(4) -0.61697(8) -0.40365(13)
H25 H -0.089(4) -0.6008(9) -0.3639(13)
H26 H -0.263(4) -0.6471(8) -0.3870(12)
H27 H -0.079(4) -0.6268(8) -0.4417(12)
C36 C -0.4380(3) -0.62070(7) -0.19358(10)
C37 C -0.2688(4) -0.66290(9) -0.18090(13)
H28 H -0.154(4) -0.6603(9) -0.2188(13)
H29 H -0.178(4) -0.6601(9) -0.1354(14)
H30 H -0.354(4) -0.6952(9) -0.1826(12)
C38 C -0.6072(4) -0.62150(9) -0.13486(12)
H31 H -0.524(3) -0.6150(8) -0.0854(12)
H32 H -0.722(3) -0.5946(8) -0.1411(11)
H33 H -0.698(4) -0.6552(9) -0.1354(12)
C39 C -0.3118(4) -0.57203(8) -0.19072(13)
H34 H -0.198(4) -0.5715(8) -0.2279(13)
H35 H -0.232(4) -0.5675(8) -0.1431(13)
H36 H -0.428(4) -0.5448(8) -0.2020(12)
C40 C -0.6562(3) -0.32086(7) -0.91550(10)
C41 C -0.6145(4) -0.29594(7) -0.97907(11)
H37 H -0.499(4) -0.3079(9) -1.0100(13)
C42 C -0.7450(4) -0.25563(8) -1.00211(12)
H38 H -0.713(4) -0.2381(9) -1.0497(13)
C43 C -0.9234(4) -0.24032(8) -0.96302(12)
H39 H -1.024(4) -0.2150(8) -0.9814(12)
C44 C -0.9640(4) -0.26383(7) -0.89971(12)
H40 H -1.089(3) -0.2509(7) -0.8686(11)
C45 C -0.8302(3) -0.30369(7) -0.87573(12)
H41 H -0.866(4) -0.3201(8) -0.8277(13)
C46 C -0.5287(3) -0.36636(6) -0.89350(10)
C47 C -0.3221(3) -0.37795(7) -0.92131(11)
H42 H -0.246(4) -0.3544(9) -0.9543(13)
C48 C -0.2154(3) -0.42239(7) -0.90582(12)
H43 H -0.068(4) -0.4291(8) -0.9291(11)
C49 C -0.3094(3) -0.45666(6) -0.86076(10)
C50 C -0.5114(3) -0.44426(7) -0.82965(11)
H44 H -0.584(3) -0.4673(8) -0.7959(11)
C51 C -0.6176(3) -0.39999(7) -0.84609(10)
H45 H -0.760(3) -0.3926(7) -0.8239(11)
C52 C -0.2070(3) -0.50400(7) -0.85008(10)
C53 C -0.1287(3) -0.54490(7) -0.84731(10)
C54 C -0.0184(3) -0.59148(7) -0.85386(10)
C55 C -0.0460(3) -0.62810(7) -0.80861(10)
C56 C -0.0532(3) -0.66568(6) -0.76446(10)
C57 C -0.2097(3) -0.70565(7) -0.78202(10)
C58 C -0.3252(3) -0.74098(7) -0.79599(10)
C59 C -0.4698(3) -0.78236(7) -0.81457(10)
C60 C -0.6842(3) -0.77505(7) -0.84968(11)
H46 H -0.735(4) -0.7398(9) -0.8625(11)
C61 C -0.8260(3) -0.81428(7) -0.86796(11)
H47 H -0.977(4) -0.8074(8) -0.8908(12)
C62 C -0.7600(3) -0.86238(7) -0.85154(10)
C63 C -0.5458(3) -0.86959(7) -0.81640(11)
H48 H -0.495(3) -0.9026(9) -0.8047(11)
C64 C -0.4032(3) -0.83042(7) -0.79759(11)
H49 H -0.259(4) -0.8339(8) -0.7710(11)
C65 C -0.9198(3) -0.90345(7) -0.87021(10)
C66 C -1.0755(3) -0.90052(8) -0.93038(11)
H50 H -1.068(3) -0.8719(8) -0.9627(11)
C67 C -1.2343(4) -0.93747(8) -0.94599(13)
H51 H -1.341(4) -0.9349(8) -0.9909(12)
C68 C -1.2430(3) -0.97762(7) -0.89988(12)
H52 H -1.366(4) -1.0021(8) -0.9109(11)
C69 C -1.0895(3) -0.98119(7) -0.84039(12)
H53 H -1.088(4) -1.0085(10) -0.8071(14)
C70 C -0.9266(3) -0.94497(7) -0.82594(12)
H54 H -0.820(3) -0.9469(7) -0.7833(11)
C71 C 0.1261(3) -0.59667(7) -0.91979(10)
C72 C 0.2950(4) -0.55427(8) -0.92057(14)
H55 H 0.391(4) -0.5576(8) -0.9629(12)
H56 H 0.401(4) -0.5527(8) -0.8735(13)
H57 H 0.211(4) -0.5224(9) -0.9240(12)
C73 C -0.0376(4) -0.59506(9) -0.98773(11)
H58 H -0.125(4) -0.5631(9) -0.9927(12)
H59 H -0.148(3) -0.6232(8) -0.9894(11)
H60 H 0.064(4) -0.5976(8) -1.0321(13)
C74 C 0.2551(4) -0.64504(7) -0.91669(12)
H61 H 0.365(3) -0.6448(7) -0.8760(12)
H62 H 0.144(4) -0.6737(8) -0.9144(12)
H63 H 0.342(3) -0.6495(8) -0.9642(12)
C75 C 0.0931(3) -0.66815(7) -0.69246(10)
C76 C 0.1758(4) -0.72063(8) -0.67688(12)
H64 H 0.280(4) -0.7326(8) -0.7128(13)
H65 H 0.265(3) -0.7214(7) -0.6267(12)
H66 H 0.043(4) -0.7427(9) -0.6804(12)
C77 C -0.0553(4) -0.65165(9) -0.63243(12)
H67 H 0.038(4) -0.6544(9) -0.5814(14)
H68 H -0.101(4) -0.6177(9) -0.6407(12)
H69 H -0.201(4) -0.6714(8) -0.6341(11)
C78 C 0.2984(3) -0.63441(8) -0.69479(13)
H70 H 0.401(4) -0.6440(8) -0.7319(12)
H71 H 0.385(3) -0.6339(7) -0.6479(11)
H72 H 0.242(4) -0.5987(9) -0.7056(12)
loop_
_geom_bond_atom_site_label_1
_geom_bond_atom_site_label_2
_geom_bond_site_symmetry_1
_geom_bond_site_symmetry_2
C1 C2 1_555 1_555
C2 H1 1_555 1_555
C3 C2 1_555 1_555
H2 C3 1_555 1_555
C4 C3 1_555 1_555
H3 C4 1_555 1_555
C5 C4 1_555 1_555
H4 C5 1_555 1_555
C6 C1 1_555 1_555
H5 C6 1_555 1_555
C7 C1 1_555 1_555
C8 C7 1_555 1_555
H6 C8 1_555 1_555
C9 C8 1_555 1_555
H7 C9 1_555 1_555
C10 C9 1_555 1_555
C11 C10 1_555 1_555
H8 C11 1_555 1_555
C12 C7 1_555 1_555
H9 C12 1_555 1_555
C13 C10 1_555 1_555
C14 C13 1_555 1_555
C15 C14 1_555 1_555
C16 C15 1_555 1_555
C17 C16 1_555 1_555
C18 C17 1_555 1_555
C19 C18 1_555 1_555
C20 C19 1_555 1_555
C21 C20 1_555 1_555
H10 C21 1_555 1_555
C22 C21 1_555 1_555
H11 C22 1_555 1_555
C23 C22 1_555 1_555
C24 C23 1_555 1_555
H12 C24 1_555 1_555
C25 C20 1_555 1_555
H13 C25 1_555 1_555
C26 C23 1_555 1_555
C27 C26 1_555 1_555
H14 C27 1_555 1_555
C28 C27 1_555 1_555
H15 C28 1_555 1_555
C29 C28 1_555 1_555
H16 C29 1_555 1_555
C30 C29 1_555 1_555
H17 C30 1_555 1_555
C31 C26 1_555 1_555
H18 C31 1_555 1_555
C32 C15 1_555 1_555
C33 C32 1_555 1_555
H19 C33 1_555 1_555
H20 C33 1_555 1_555
H21 C33 1_555 1_555
C34 C32 1_555 1_555
H22 C34 1_555 1_555
H23 C34 1_555 1_555
H24 C34 1_555 1_555
C35 C32 1_555 1_555
H25 C35 1_555 1_555
H26 C35 1_555 1_555
H27 C35 1_555 1_555
C36 C17 1_555 1_555
C37 C36 1_555 1_555
H28 C37 1_555 1_555
H29 C37 1_555 1_555
H30 C37 1_555 1_555
C38 C36 1_555 1_555
H31 C38 1_555 1_555
H32 C38 1_555 1_555
H33 C38 1_555 1_555
C39 C36 1_555 1_555
H34 C39 1_555 1_555
H35 C39 1_555 1_555
H36 C39 1_555 1_555
C40 C41 1_555 1_555
C41 H37 1_555 1_555
C42 C41 1_555 1_555
H38 C42 1_555 1_555
C43 C42 1_555 1_555
H39 C43 1_555 1_555
C44 C43 1_555 1_555
H40 C44 1_555 1_555
C45 C40 1_555 1_555
H41 C45 1_555 1_555
C46 C40 1_555 1_555
C47 C46 1_555 1_555
H42 C47 1_555 1_555
C48 C47 1_555 1_555
H43 C48 1_555 1_555
C49 C48 1_555 1_555
C50 C49 1_555 1_555
H44 C50 1_555 1_555
C51 C46 1_555 1_555
H45 C51 1_555 1_555
C52 C49 1_555 1_555
C53 C52 1_555 1_555
C54 C53 1_555 1_555
C55 C54 1_555 1_555
C56 C55 1_555 1_555
C57 C56 1_555 1_555
C58 C57 1_555 1_555
C59 C58 1_555 1_555
C60 C59 1_555 1_555
H46 C60 1_555 1_555
C61 C60 1_555 1_555
H47 C61 1_555 1_555
C62 C61 1_555 1_555
C63 C62 1_555 1_555
H48 C63 1_555 1_555
C64 C59 1_555 1_555
H49 C64 1_555 1_555
C65 C62 1_555 1_555
C66 C65 1_555 1_555
H50 C66 1_555 1_555
C67 C66 1_555 1_555
H51 C67 1_555 1_555
C68 C67 1_555 1_555
H52 C68 1_555 1_555
C69 C68 1_555 1_555
H53 C69 1_555 1_555
C70 C65 1_555 1_555
H54 C70 1_555 1_555
C71 C54 1_555 1_555
C72 C71 1_555 1_555
H55 C72 1_555 1_555
H56 C72 1_555 1_555
H57 C72 1_555 1_555
C73 C71 1_555 1_555
H58 C73 1_555 1_555
H59 C73 1_555 1_555
H60 C73 1_555 1_555
C74 C71 1_555 1_555
H61 C74 1_555 1_555
H62 C74 1_555 1_555
H63 C74 1_555 1_555
C75 C56 1_555 1_555
C76 C75 1_555 1_555
H64 C76 1_555 1_555
H65 C76 1_555 1_555
H66 C76 1_555 1_555
C77 C75 1_555 1_555
H67 C77 1_555 1_555
H68 C77 1_555 1_555
H69 C77 1_555 1_555
C78 C75 1_555 1_555
H70 C78 1_555 1_555
H71 C78 1_555 1_555
H72 C78 1_555 1_555
C5 C6 1_555 1_555
C11 C12 1_555 1_555
C24 C25 1_555 1_555
C30 C31 1_555 1_555
C44 C45 1_555 1_555
C50 C51 1_555 1_555
C63 C64 1_555 1_555
C69 C70 1_555 1_555

#END
