
#######################################################################
#
#                 Cambridge Crystallographic Data Centre
#                                CCDC 
#
#######################################################################
#
# If this CIF has been generated from an entry in the Cambridge 
# Structural Database, then it will include bibliographic, chemical, 
# crystal, experimental, refinement or atomic coordinate data resulting 
# from the CCDC's data processing and validation procedures.
#
#######################################################################

data_TILVUH
_chemical_formula_moiety         'C29 H30 O3,C3 H6 O1'
_chemical_name_systematic        
'(4b,8b,12b,12d-Tetramethyl-4b,8b,12b,12d-tetrahydrodibenzo[2,3:4,5]pentaleno[1,6-ab]indene-2,6,11-triyl)trimethanol acetone solvate'
_symmetry_cell_setting           triclinic
_symmetry_space_group_name_H-M   'P -1'
_symmetry_Int_Tables_number      2
_space_group_name_Hall           '-P 1'
loop_
_symmetry_equiv_pos_site_id
_symmetry_equiv_pos_as_xyz
1 x,y,z
2 -x,-y,-z
_cell_length_a                   8.739(6)
_cell_length_b                   11.766(8)
_cell_length_c                   13.973(9)
_cell_angle_alpha                92.198(13)
_cell_angle_beta                 99.782(13)
_cell_angle_gamma                108.202(12)
_cell_volume                     1338.58
_cell_formula_units_Z            2
loop_
_atom_site_label
_atom_site_type_symbol
_atom_site_fract_x
_atom_site_fract_y
_atom_site_fract_z
C1 C 0.1426(8) 0.3761(7) 0.3488(5)
C2 C 0.3945(9) 0.3293(7) 0.3602(5)
C3 C -0.0082(9) 0.1535(7) 0.3575(6)
C4 C 0.3106(9) 0.4044(7) 0.3224(5)
C5 C 0.3805(10) 0.4949(8) 0.2658(6)
H1 H 0.3239 0.5457 0.2409
C6 C 0.0074(9) 0.3215(8) 0.2590(6)
C7 C -0.0708(9) 0.2005(8) 0.2652(6)
C8 C 0.1324(8) 0.2693(7) 0.4149(5)
C9 C 0.0794(10) 0.0673(8) 0.3380(6)
C10 C 0.2975(9) 0.2397(8) 0.4208(6)
C11 C 0.2436(11) 0.1132(8) 0.3726(7)
C12 C 0.5516(10) 0.3436(9) 0.3415(7)
H2 H 0.6100 0.2943 0.3673
C13 C 0.5364(10) 0.5075(9) 0.2474(7)
C14 C 0.6182(11) 0.4318(10) 0.2842(7)
H3 H 0.7212 0.4402 0.2702
C15 C -0.0378(11) 0.3761(9) 0.1775(6)
H4 H 0.0165 0.4573 0.1744
C16 C 0.0999(12) 0.2985(9) 0.5169(6)
H5 H 0.1780 0.3743 0.5458
H6 H 0.1108 0.2365 0.5576
H7 H -0.0091 0.3029 0.5106
C17 C 0.1199(11) 0.4890(8) 0.3958(6)
H8 H 0.1371 0.5508 0.3521
H9 H 0.1978 0.5170 0.4559
H10 H 0.0106 0.4694 0.4087
C18 C -0.1994(12) 0.1379(10) 0.1865(8)
H11 H -0.2556 0.0567 0.1872
C19 C -0.1576(13) 0.3149(11) 0.1033(7)
C20 C 0.6082(16) 0.5923(13) 0.1712(15)
H12 H 0.7256 0.6075 0.1794
H13 H 0.5573 0.5552 0.1054
C21 C -0.1507(10) 0.0930(10) 0.4096(8)
H14 H -0.2307 0.0278 0.3669
H15 H -0.2010 0.1509 0.4265
H16 H -0.1091 0.0629 0.4678
C22 C 0.3421(14) 0.0403(11) 0.3588(9)
H17 H 0.4546 0.0735 0.3815
C23 C 0.288(2) -0.0684(12) 0.3172(13)
C24 C 0.119(3) -0.1157(10) 0.2810(9)
H18 H 0.0758 -0.1937 0.2505
C25 C 0.0136(14) -0.0490(9) 0.2892(7)
H19 H -0.0979 -0.0811 0.2630
C26 C 0.4024(12) 0.2526(11) 0.5243(7)
H20 H 0.3432 0.1947 0.5627
H21 H 0.4252 0.3322 0.5549
H22 H 0.5037 0.2391 0.5195
C27 C -0.2394(13) 0.1971(14) 0.1107(8)
H23 H -0.3269 0.1557 0.0610
C28 C -0.2088(19) 0.392(2) 0.0187(11)
H24 H -0.3269 0.3745 0.0047
H25 H -0.1570 0.4773 0.0382
C29 C 0.355(3) -0.1643(19) 0.267(2)
H26 H 0.4014 -0.1308 0.2124
H27 H 0.4414 -0.1773 0.3142
O1 O -0.160(4) 0.361(2) -0.0551(13)
H28 H -0.0630 0.3998 -0.0515
O2 O 0.579(2) 0.6909(13) 0.1853(10)
H29 H 0.5862 0.7272 0.1365
O3 O 0.233(7) -0.2756(19) 0.235(3)
H30 H 0.2676 -0.3156 0.2000
O4 O 0.6653(14) 0.8450(10) 1.0455(8)
C30 C 0.7250(19) 0.8402(12) 0.9735(9)
C31 C 0.755(3) 0.7346(18) 0.9394(15)
H31 H 0.8457 0.7238 0.9831
H32 H 0.7806 0.7431 0.8754
H33 H 0.6589 0.6660 0.9368
C32 C 0.719(3) 0.9306(19) 0.9031(18)
H34 H 0.6552 0.9777 0.9217
H35 H 0.6704 0.8903 0.8390
H36 H 0.8289 0.9822 0.9031
loop_
_geom_bond_atom_site_label_1
_geom_bond_atom_site_label_2
_geom_bond_site_symmetry_1
_geom_bond_site_symmetry_2
C1 C4 1_555 1_555
C2 C4 1_555 1_555
C3 C7 1_555 1_555
C4 C5 1_555 1_555
C5 H1 1_555 1_555
C6 C1 1_555 1_555
C7 C6 1_555 1_555
C8 C1 1_555 1_555
C9 C3 1_555 1_555
C10 C2 1_555 1_555
C11 C9 1_555 1_555
C12 C2 1_555 1_555
H2 C12 1_555 1_555
C13 C5 1_555 1_555
C14 C12 1_555 1_555
H3 C14 1_555 1_555
C15 C6 1_555 1_555
H4 C15 1_555 1_555
C16 C8 1_555 1_555
H5 C16 1_555 1_555
H6 C16 1_555 1_555
H7 C16 1_555 1_555
C17 C1 1_555 1_555
H8 C17 1_555 1_555
H9 C17 1_555 1_555
H10 C17 1_555 1_555
C18 C7 1_555 1_555
H11 C18 1_555 1_555
C19 C15 1_555 1_555
C20 C13 1_555 1_555
H12 C20 1_555 1_555
H13 C20 1_555 1_555
C21 C3 1_555 1_555
H14 C21 1_555 1_555
H15 C21 1_555 1_555
H16 C21 1_555 1_555
C22 C11 1_555 1_555
H17 C22 1_555 1_555
C23 C22 1_555 1_555
C24 C23 1_555 1_555
H18 C24 1_555 1_555
C25 C9 1_555 1_555
H19 C25 1_555 1_555
C26 C10 1_555 1_555
H20 C26 1_555 1_555
H21 C26 1_555 1_555
H22 C26 1_555 1_555
C27 C18 1_555 1_555
H23 C27 1_555 1_555
C28 C19 1_555 1_555
H24 C28 1_555 1_555
H25 C28 1_555 1_555
C29 C23 1_555 1_555
H26 C29 1_555 1_555
H27 C29 1_555 1_555
O1 C28 1_555 1_555
H28 O1 1_555 1_555
O2 C20 1_555 1_555
H29 O2 1_555 1_555
O3 C29 1_555 1_555
H30 O3 1_555 1_555
O4 C30 1_555 1_555
C30 C31 1_555 1_555
C31 H31 1_555 1_555
H32 C31 1_555 1_555
H33 C31 1_555 1_555
C32 C30 1_555 1_555
H34 C32 1_555 1_555
H35 C32 1_555 1_555
H36 C32 1_555 1_555
C3 C8 1_555 1_555
C8 C10 1_555 1_555
C10 C11 1_555 1_555
C13 C14 1_555 1_555
C19 C27 1_555 1_555
C24 C25 1_555 1_555

#END
