
#######################################################################
#
#                 Cambridge Crystallographic Data Centre
#                                CCDC 
#
#######################################################################
#
# If this CIF has been generated from an entry in the Cambridge 
# Structural Database, then it will include bibliographic, chemical, 
# crystal, experimental, refinement or atomic coordinate data resulting 
# from the CCDC's data processing and validation procedures.
#
#######################################################################

data_TILWES
_chemical_formula_moiety         'C29 H24 O3'
_chemical_name_systematic        
4b,8b,12b,12d-Tetramethyl-4b,8b,12b,12d-tetrahydrodibenzo[2,3:4,5]pentaleno[1,6-ab]indene-2,6,10-tricarbaldehyde
_symmetry_cell_setting           monoclinic
_symmetry_space_group_name_H-M   'C 2/c'
_symmetry_Int_Tables_number      15
_space_group_name_Hall           '-C 2yn'
loop_
_symmetry_equiv_pos_site_id
_symmetry_equiv_pos_as_xyz
1 x,y,z
2 -x,y,1/2-z
3 1/2+x,1/2+y,z
4 1/2-x,1/2+y,1/2-z
5 -x,-y,-z
6 x,-y,1/2+z
7 1/2-x,1/2-y,-z
8 1/2+x,1/2-y,1/2+z
_cell_length_a                   21.700(9)
_cell_length_b                   10.919(5)
_cell_length_c                   21.173(8)
_cell_angle_alpha                90
_cell_angle_beta                 118.59(2)
_cell_angle_gamma                90
_cell_volume                     4405.07
_exptl_crystal_colour            yellow
_exptl_crystal_description       block
_cell_formula_units_Z            8
loop_
_atom_site_label
_atom_site_type_symbol
_atom_site_fract_x
_atom_site_fract_y
_atom_site_fract_z
C1 C 0.1492(2) 0.5029(5) 0.2615(2)
C2 C 0.2157(3) 0.5482(4) 0.2808(2)
C3 C 0.2697(2) 0.5338(4) 0.3507(3)
H1 H 0.3142 0.5641 0.3636
C4 C 0.2572(3) 0.4739(5) 0.40144(19)
C5 C 0.1907(3) 0.4285(5) 0.3822(3)
H2 H 0.1823 0.3885 0.4161
C6 C 0.1367(3) 0.4430(5) 0.3122(3)
H3 H 0.0922 0.4126 0.2993
C7 C 0.2232(2) 0.4664(4) 0.1303(2)
C8 C 0.2627(3) 0.5284(4) 0.1947(2)
C9 C 0.3351(3) 0.5134(4) 0.2320(2)
H4 H 0.3616 0.5550 0.2751
C10 C 0.3680(2) 0.4363(5) 0.2051(3)
H5 H 0.4165 0.4263 0.2301
C11 C 0.3285(3) 0.3743(4) 0.1408(3)
C12 C 0.2561(3) 0.3893(4) 0.10339(19)
H6 H 0.2296 0.3478 0.0604
C13 C 0.0761(3) 0.4048(5) 0.1440(2)
C14 C 0.1027(2) 0.3897(5) 0.0964(3)
C15 C 0.0887(3) 0.2829(6) 0.0561(2)
H7 H 0.1065 0.2728 0.0243
C16 C 0.0481(3) 0.1912(4) 0.0634(3)
H8 H 0.0387 0.1198 0.0364
C17 C 0.0215(2) 0.2063(5) 0.1110(3)
C18 C 0.0355(3) 0.3131(7) 0.1513(3)
H9 H 0.0177 0.3232 0.1831
C19 C 0.0982(4) 0.5247(7) 0.1840(3)
C20 C 0.1423(4) 0.5917(6) 0.1525(3)
C21 C 0.2184(3) 0.6043(6) 0.2176(3)
C22 C 0.2493(4) 0.7348(7) 0.2350(4)
H10 H 0.2207 0.7854 0.2476
H11 H 0.2504 0.7685 0.1937
H12 H 0.2962 0.7316 0.2746
C23 C 0.1125(4) 0.7175(7) 0.1168(4)
H13 H 0.0658 0.7068 0.0779
H14 H 0.1418 0.7513 0.0987
H15 H 0.1115 0.7723 0.1518
C24 C 0.1466(3) 0.4983(6) 0.0970(3)
C25 C 0.1203(4) 0.5473(7) 0.0203(3)
H16 H 0.1313 0.4894 -0.0069
H17 H 0.1428 0.6239 0.0223
H18 H 0.0705 0.5590 -0.0023
C26 C 0.3732(6) 0.2976(9) 0.1215(5)
H19 H 0.4217 0.2942 0.1502
C27 C 0.0336(4) 0.5952(8) 0.1771(4)
H20 H 0.0023 0.6123 0.1273
H21 H 0.0485 0.6707 0.2033
H22 H 0.0097 0.5463 0.1964
O1 O 0.3432(4) 0.2396(7) 0.0664(4)
O2 O 0.3153(6) 0.3947(14) 0.5088(5)
C28 C -0.0208(9) 0.1258(13) 0.1401(10)
H23 H -0.0385 0.1452 0.1711
O3 O -0.0227(5) 0.0229(12) 0.1066(7)
C29 C 0.3296(9) 0.4734(14) 0.4761(5)
H24 H 0.3702 0.5192 0.4904
loop_
_geom_bond_atom_site_label_1
_geom_bond_atom_site_label_2
_geom_bond_site_symmetry_1
_geom_bond_site_symmetry_2
C1 C2 1_555 1_555
C2 C3 1_555 1_555
C3 H1 1_555 1_555
C4 C3 1_555 1_555
C5 C4 1_555 1_555
H2 C5 1_555 1_555
C6 C1 1_555 1_555
H3 C6 1_555 1_555
C7 C8 1_555 1_555
C8 C9 1_555 1_555
C9 H4 1_555 1_555
C10 C9 1_555 1_555
H5 C10 1_555 1_555
C11 C10 1_555 1_555
C12 C7 1_555 1_555
H6 C12 1_555 1_555
C13 C14 1_555 1_555
C14 C15 1_555 1_555
C15 H7 1_555 1_555
C16 C15 1_555 1_555
H8 C16 1_555 1_555
C17 C16 1_555 1_555
C18 C13 1_555 1_555
H9 C18 1_555 1_555
C19 C1 1_555 1_555
C20 C19 1_555 1_555
C21 C2 1_555 1_555
C22 C21 1_555 1_555
H10 C22 1_555 1_555
H11 C22 1_555 1_555
H12 C22 1_555 1_555
C23 C20 1_555 1_555
H13 C23 1_555 1_555
H14 C23 1_555 1_555
H15 C23 1_555 1_555
C24 C7 1_555 1_555
C25 C24 1_555 1_555
H16 C25 1_555 1_555
H17 C25 1_555 1_555
H18 C25 1_555 1_555
C26 C11 1_555 1_555
H19 C26 1_555 1_555
C27 C19 1_555 1_555
H20 C27 1_555 1_555
H21 C27 1_555 1_555
H22 C27 1_555 1_555
O1 C26 1_555 1_555
O2 C29 1_555 1_555
C28 C17 1_555 1_555
H23 C28 1_555 1_555
O3 C28 1_555 1_555
C29 C4 1_555 1_555
H24 C29 1_555 1_555
C5 C6 1_555 1_555
C8 C21 1_555 1_555
C11 C12 1_555 1_555
C13 C19 1_555 1_555
C14 C24 1_555 1_555
C17 C18 1_555 1_555
C20 C21 1_555 1_555
C20 C24 1_555 1_555

#END
