
#######################################################################
#
#                 Cambridge Crystallographic Data Centre
#                                CCDC 
#
#######################################################################
#
# If this CIF has been generated from an entry in the Cambridge 
# Structural Database, then it will include bibliographic, chemical, 
# crystal, experimental, refinement or atomic coordinate data resulting 
# from the CCDC's data processing and validation procedures.
#
#######################################################################

data_TILXUK
_chemical_formula_moiety         'C48 H30 N4 O8,C13 H14 N2'
_chemical_name_systematic        
"4,4',4'',4'''-(porphyrin-5,10,15,20-tetrayl)tetrabenzoic acid 4,4'-(propane-1,3-diyl)dipyridine"
_symmetry_cell_setting           triclinic
_symmetry_space_group_name_H-M   'P -1'
_symmetry_Int_Tables_number      2
_space_group_name_Hall           '-P 1'
loop_
_symmetry_equiv_pos_site_id
_symmetry_equiv_pos_as_xyz
1 x,y,z
2 -x,-y,-z
_cell_length_a                   9.7541(4)
_cell_length_b                   17.4759(7)
_cell_length_c                   21.7441(9)
_cell_angle_alpha                79.645(3)
_cell_angle_beta                 77.738(3)
_cell_angle_gamma                74.577(3)
_cell_volume                     3461.52
_cell_formula_units_Z            2
loop_
_atom_site_label
_atom_site_type_symbol
_atom_site_fract_x
_atom_site_fract_y
_atom_site_fract_z
O1 O 1.1423(5) 0.8302(2) 0.4399(2)
H1 H 1.1838 0.8669 0.4325
N1 N 0.5771(5) 0.3282(3) 0.5126(2)
H2 H 0.6050 0.3611 0.4810
N2 N 0.6990(5) 0.4674(2) 0.4956(2)
N3 N 0.6554(5) 0.3262(3) 0.3762(2)
O2 O 0.2555(5) -0.0575(3) 0.4335(2)
O3 O 0.1510(5) -0.0344(3) 0.5334(2)
H3 H 0.0691 -0.0308 0.5274
N4 N 0.7825(5) 0.4632(3) 0.3598(2)
H4 H 0.7276 0.4405 0.3897
O4 O 0.6679(6) 0.3836(4) 0.8922(2)
O5 O 0.4299(5) 0.4001(3) 0.9002(2)
O6 O 1.1067(6) 0.8701(3) 0.3403(3)
C1 C 0.7513(6) 0.5351(3) 0.4799(3)
C2 C 0.6674(5) 0.5292(3) 0.5849(3)
H5 H 0.6411 0.5388 0.6270
C3 C 0.5261(5) 0.2666(3) 0.6111(3)
H6 H 0.5157 0.2541 0.6550
C4 C 0.5788(5) 0.2678(3) 0.3898(3)
C5 C 0.5714(5) 0.3344(3) 0.5753(2)
C6 C 0.5317(5) 0.2619(3) 0.5079(2)
C7 C 0.5224(5) 0.2362(3) 0.4512(3)
C8 C 0.6523(5) 0.4613(3) 0.5596(2)
C9 C 0.8226(5) 0.5615(3) 0.4195(2)
C10 C 0.5904(6) 0.3920(3) 0.6679(2)
C11 C 0.8884(5) 0.6300(3) 0.4127(3)
C12 C 0.5003(6) 0.2225(3) 0.5709(3)
H7 H 0.4682 0.1756 0.5824
C13 C 0.9871(5) 0.6286(3) 0.4520(3)
H8 H 1.0079 0.5855 0.4833
C14 C 0.4496(5) 0.1693(3) 0.4583(3)
C15 C 0.7268(6) 0.5760(3) 0.5358(3)
H9 H 0.7478 0.6245 0.5371
C16 C 0.7008(6) 0.3324(3) 0.3115(2)
C17 C 0.8409(5) 0.5248(3) 0.3652(3)
C18 C 0.9258(5) 0.5441(3) 0.3043(3)
H10 H 0.9773 0.5838 0.2936
C19 C 1.0247(6) 0.7559(3) 0.3985(3)
C20 C 0.8608(6) 0.6956(3) 0.3657(3)
H11 H 0.7966 0.6973 0.3391
C21 C 0.8263(6) 0.4436(3) 0.2987(3)
C22 C 1.0529(5) 0.6916(3) 0.4439(3)
H12 H 1.1181 0.6901 0.4700
C23 C 0.4606(6) 0.3882(3) 0.7093(3)
H13 H 0.3804 0.3864 0.6934
C24 C 0.9168(6) 0.4933(3) 0.2651(3)
H14 H 0.9629 0.4919 0.2231
C25 C 0.7108(6) 0.3911(4) 0.6932(3)
H15 H 0.7983 0.3923 0.6662
C26 C 0.6026(5) 0.3966(3) 0.5979(2)
C27 C 0.7875(6) 0.3829(3) 0.2764(3)
C28 C 0.6475(6) 0.2789(3) 0.2838(3)
H16 H 0.6641 0.2726 0.2411
C29 C 0.3045(6) 0.0470(3) 0.4732(3)
C30 C 0.3101(6) 0.1749(3) 0.4964(3)
H17 H 0.2649 0.2203 0.5162
C31 C 0.4401(6) 0.0419(3) 0.4334(3)
H18 H 0.4809 -0.0014 0.4107
C32 C 0.8430(6) 0.3730(4) 0.2077(3)
C33 C 0.2422(6) 0.1137(3) 0.5041(3)
H19 H 0.1528 0.1171 0.5305
C34 C 0.7021(6) 0.3885(3) 0.7581(3)
H20 H 0.7836 0.3871 0.7745
C35 C 0.5124(6) 0.1020(3) 0.4284(3)
H21 H 0.6047 0.0968 0.4044
C36 C 0.4512(6) 0.3870(4) 0.7731(3)
H22 H 0.3637 0.3856 0.8000
C37 C 0.9289(6) 0.7582(3) 0.3585(3)
H23 H 0.9104 0.8015 0.3270
C38 C 0.5705(6) 0.3879(4) 0.7987(3)
C39 C 0.8131(7) 0.4346(4) 0.1602(3)
H24 H 0.7567 0.4842 0.1704
C40 C 0.5698(6) 0.2403(3) 0.3315(3)
H25 H 0.5198 0.2032 0.3282
C41 C 0.2298(6) -0.0191(3) 0.4812(3)
O7 O 0.9777(10) 0.4028(5) -0.0271(3)
H26 H 1.0515 0.4192 -0.0397
C42 C 1.0969(6) 0.8248(3) 0.3903(3)
C43 C 0.8666(7) 0.4241(4) 0.0962(3)
H27 H 0.8463 0.4664 0.0643
C44 C 0.5608(7) 0.3904(4) 0.8685(3)
C45 C 0.9304(7) 0.2985(4) 0.1917(3)
H28 H 0.9542 0.2566 0.2236
C46 C 0.9495(9) 0.3504(5) 0.0809(3)
C47 C 0.9809(9) 0.2876(4) 0.1285(4)
H29 H 1.0360 0.2379 0.1181
C48 C 1.0042(16) 0.3374(7) 0.0134(4)
O8 O 1.0469(14) 0.2737(6) -0.0027(4)
H30 H 0.423(11) 0.389(6) 0.955(5)
N5 N -0.0072(6) 0.1463(3) 0.4057(3)
N6 N 0.4067(7) 0.4108(4) 0.0182(3)
C49 C 0.1355(6) 0.2638(4) 0.3505(3)
C50 C 0.3546(7) 0.4092(4) 0.1491(3)
C51 C 0.0079(6) 0.2807(4) 0.3943(3)
H31 H -0.0300 0.3323 0.4050
C52 C 0.2113(7) 0.3301(4) 0.3209(3)
H32 H 0.1465 0.3811 0.3298
H33 H 0.2950 0.3232 0.3405
C53 C 0.2590(7) 0.3323(4) 0.2504(3)
H34 H 0.1775 0.3331 0.2311
H35 H 0.3326 0.2841 0.2416
C54 C 0.1882(7) 0.1872(4) 0.3359(3)
H36 H 0.2737 0.1743 0.3072
C55 C 0.3191(7) 0.4052(4) 0.2205(3)
H37 H 0.2487 0.4535 0.2320
H38 H 0.4057 0.4023 0.2369
C56 C -0.0621(7) 0.2204(4) 0.4216(3)
H39 H -0.1471 0.2313 0.4509
C57 C 0.1138(8) 0.1293(4) 0.3641(3)
H40 H 0.1490 0.0775 0.3536
C58 C 0.4923(8) 0.3979(5) 0.1161(3)
H41 H 0.5696 0.3897 0.1372
C59 C 0.2424(8) 0.4238(4) 0.1142(3)
H42 H 0.1466 0.4342 0.1346
C60 C 0.2760(9) 0.4224(5) 0.0494(3)
H43 H 0.2009 0.4302 0.0271
C61 C 0.5168(8) 0.3989(5) 0.0501(4)
H44 H 0.6109 0.3911 0.0278
loop_
_geom_bond_atom_site_label_1
_geom_bond_atom_site_label_2
_geom_bond_site_symmetry_1
_geom_bond_site_symmetry_2
O1 H1 1_555 1_555
N1 H2 1_555 1_555
N2 C1 1_555 1_555
N3 C4 1_555 1_555
O2 C41 1_555 1_555
O3 H3 1_555 1_555
N4 H4 1_555 1_555
O4 C44 1_555 1_555
O5 C44 1_555 1_555
O6 C42 1_555 1_555
C1 C9 1_555 1_555
C2 H5 1_555 1_555
C3 H6 1_555 1_555
C4 C7 1_555 1_555
C5 N1 1_555 1_555
C6 N1 1_555 1_555
C7 C6 1_555 1_555
C8 N2 1_555 1_555
C9 C11 1_555 1_555
C10 C23 1_555 1_555
C11 C13 1_555 1_555
C12 C3 1_555 1_555
H7 C12 1_555 1_555
C13 H8 1_555 1_555
C14 C7 1_555 1_555
C15 C1 1_555 1_555
H9 C15 1_555 1_555
C16 N3 1_555 1_555
C17 N4 1_555 1_555
C18 C17 1_555 1_555
H10 C18 1_555 1_555
C19 C22 1_555 1_555
C20 C11 1_555 1_555
H11 C20 1_555 1_555
C21 N4 1_555 1_555
C22 C13 1_555 1_555
H12 C22 1_555 1_555
C23 H13 1_555 1_555
C24 C18 1_555 1_555
H14 C24 1_555 1_555
C25 C10 1_555 1_555
H15 C25 1_555 1_555
C26 C5 1_555 1_555
C27 C16 1_555 1_555
C28 C16 1_555 1_555
H16 C28 1_555 1_555
C29 C31 1_555 1_555
C30 C14 1_555 1_555
H17 C30 1_555 1_555
C31 H18 1_555 1_555
C32 C27 1_555 1_555
C33 C29 1_555 1_555
H19 C33 1_555 1_555
C34 C25 1_555 1_555
H20 C34 1_555 1_555
C35 C14 1_555 1_555
H21 C35 1_555 1_555
C36 C23 1_555 1_555
H22 C36 1_555 1_555
C37 C19 1_555 1_555
H23 C37 1_555 1_555
C38 C34 1_555 1_555
C39 C32 1_555 1_555
H24 C39 1_555 1_555
C40 C4 1_555 1_555
H25 C40 1_555 1_555
C41 O3 1_555 1_555
O7 H26 1_555 1_555
C42 O1 1_555 1_555
C43 C39 1_555 1_555
H27 C43 1_555 1_555
C44 C38 1_555 1_555
C45 C32 1_555 1_555
H28 C45 1_555 1_555
C46 C43 1_555 1_555
C47 C45 1_555 1_555
H29 C47 1_555 1_555
C48 O7 1_555 1_555
O8 C48 1_555 1_555
H30 O5 1_555 1_555
N5 C56 1_555 1_555
N6 C60 1_555 1_555
C49 C51 1_555 1_555
C50 C55 1_555 1_555
C51 H31 1_555 1_555
C52 C49 1_555 1_555
H32 C52 1_555 1_555
H33 C52 1_555 1_555
C53 C52 1_555 1_555
H34 C53 1_555 1_555
H35 C53 1_555 1_555
C54 C49 1_555 1_555
H36 C54 1_555 1_555
C55 C53 1_555 1_555
H37 C55 1_555 1_555
H38 C55 1_555 1_555
C56 C51 1_555 1_555
H39 C56 1_555 1_555
C57 N5 1_555 1_555
H40 C57 1_555 1_555
C58 C50 1_555 1_555
H41 C58 1_555 1_555
C59 C50 1_555 1_555
H42 C59 1_555 1_555
C60 C59 1_555 1_555
H43 C60 1_555 1_555
C61 N6 1_555 1_555
H44 C61 1_555 1_555
C2 C8 1_555 1_555
C2 C15 1_555 1_555
C3 C5 1_555 1_555
C6 C12 1_555 1_555
C8 C26 1_555 1_555
C9 C17 1_555 1_555
C10 C26 1_555 1_555
C19 C42 1_555 1_555
C20 C37 1_555 1_555
C21 C24 1_555 1_555
C21 C27 1_555 1_555
C28 C40 1_555 1_555
C29 C41 1_555 1_555
C30 C33 1_555 1_555
C31 C35 1_555 1_555
C36 C38 1_555 1_555
C46 C47 1_555 1_555
C46 C48 1_555 1_555
C54 C57 1_555 1_555
C58 C61 1_555 1_555

#END
