
#######################################################################
#
#                 Cambridge Crystallographic Data Centre
#                                CCDC 
#
#######################################################################
#
# If this CIF has been generated from an entry in the Cambridge 
# Structural Database, then it will include bibliographic, chemical, 
# crystal, experimental, refinement or atomic coordinate data resulting 
# from the CCDC's data processing and validation procedures.
#
#######################################################################

data_TILYIY
_chemical_formula_moiety         'C16 H12 O2'
_chemical_name_systematic        7-Methyl-3-phenyl-1H-isochromen-1-one
_symmetry_cell_setting           orthorhombic
_symmetry_space_group_name_H-M   'P c a 21'
_symmetry_Int_Tables_number      29
_space_group_name_Hall           'P 2c -2ac'
loop_
_symmetry_equiv_pos_site_id
_symmetry_equiv_pos_as_xyz
1 x,y,z
2 -x,-y,1/2+z
3 1/2+x,-y,z
4 1/2-x,y,1/2+z
_cell_length_a                   14.842(4)
_cell_length_b                   6.615(2)
_cell_length_c                   24.531(9)
_cell_angle_alpha                90
_cell_angle_beta                 90
_cell_angle_gamma                90
_cell_volume                     2408.45
_cell_formula_units_Z            8
loop_
_atom_site_label
_atom_site_type_symbol
_atom_site_fract_x
_atom_site_fract_y
_atom_site_fract_z
C1 C 0.0902(4) 0.3644(12) 0.3698(3)
C2 C 0.1521(5) 0.4755(13) 0.4716(4)
H1 H 0.1738 0.5147 0.5065
C3 C 0.1563(4) 0.2755(12) 0.4554(4)
H2 H 0.1805 0.1766 0.4793
C4 C 0.1252(4) 0.2190(10) 0.4044(3)
H3 H 0.1279 0.0816 0.3933
C5 C 0.1166(4) 0.6159(11) 0.4371(4)
H4 H 0.1128 0.7528 0.4485
C6 C 0.0859(4) 0.5626(12) 0.3856(3)
H5 H 0.0622 0.6623 0.3617
C7 C 0.0179(4) 0.3194(9) 0.2204(3)
C8 C -0.0166(4) 0.1246(9) 0.2218(3)
C9 C -0.0540(3) 0.1429(11) 0.1263(3)
C10 C 0.0546(3) 0.2997(9) 0.3152(3)
C11 C -0.0211(4) 0.3392(10) 0.1255(3)
H6 H -0.0231 0.4142 0.0925
C12 C -0.0547(4) 0.0350(10) 0.1738(4)
H7 H -0.0799 -0.0969 0.1750
C13 C 0.0143(4) 0.4278(11) 0.1717(3)
H8 H 0.0362 0.5626 0.1704
C14 C 0.0537(4) 0.4054(10) 0.2705(3)
H9 H 0.0766 0.5396 0.2705
C15 C -0.0148(5) 0.0075(9) 0.2711(4)
O1 O 0.0206(2) 0.1016(6) 0.31712(19)
O2 O -0.0436(3) -0.1628(7) 0.2793(2)
C16 C -0.0927(5) 0.0455(12) 0.0744(4)
H10 H -0.1380 0.1356 0.0583
H11 H -0.1208 -0.0841 0.0836
H12 H -0.0440 0.0231 0.0480
C17 C 0.2236(4) 0.8170(11) 0.2051(3)
C18 C 0.2592(4) 0.6208(10) 0.2028(3)
C19 C 0.1872(4) 0.9110(10) 0.1564(4)
H13 H 0.1637 1.0445 0.1581
C20 C 0.1522(4) 0.8816(13) 0.0568(3)
C21 C 0.2920(4) 0.5260(10) 0.2480(4)
H14 H 0.3145 0.3921 0.2450
C22 C 0.2929(3) 0.6226(11) 0.2983(3)
C23 C 0.2596(4) 0.8203(12) 0.3001(3)
H15 H 0.2612 0.8907 0.3339
C24 C 0.1865(4) 0.8127(10) 0.1104(3)
C25 C 0.2595(5) 0.5130(11) 0.1506(4)
C26 C 0.2245(4) 0.9176(12) 0.2551(3)
H16 H 0.2012 1.0510 0.2581
C27 C 0.1201(4) 0.7438(12) 0.0201(4)
H17 H 0.1211 0.6039 0.0289
C28 C 0.0870(5) 0.8051(15) -0.0285(4)
H18 H 0.0631 0.7067 -0.0528
C29 C 0.1530(4) 1.0862(12) 0.0427(4)
H19 H 0.1765 1.1825 0.0676
C30 C 0.1192(5) 1.1518(12) -0.0081(4)
H20 H 0.1187 1.2912 -0.0174
O3 O 0.2213(2) 0.6138(6) 0.10748(19)
O4 O 0.2858(3) 0.3444(7) 0.1422(2)
C31 C 0.0867(6) 1.0069(14) -0.0444(5)
H21 H 0.0648 1.0453 -0.0792
C32 C 0.3275(5) 0.5160(11) 0.3481(4)
H22 H 0.2828 0.4172 0.3605
H23 H 0.3385 0.6149 0.3771
H24 H 0.3839 0.4462 0.3392
loop_
_geom_bond_atom_site_label_1
_geom_bond_atom_site_label_2
_geom_bond_site_symmetry_1
_geom_bond_site_symmetry_2
C1 C4 1_555 1_555
C2 H1 1_555 1_555
C3 C2 1_555 1_555
H2 C3 1_555 1_555
C4 C3 1_555 1_555
H3 C4 1_555 1_555
C5 C2 1_555 1_555
H4 C5 1_555 1_555
C6 C1 1_555 1_555
H5 C6 1_555 1_555
C7 C8 1_555 1_555
C8 C12 1_555 1_555
C9 C11 1_555 1_555
C10 C1 1_555 1_555
C11 H6 1_555 1_555
C12 C9 1_555 1_555
H7 C12 1_555 1_555
C13 C7 1_555 1_555
H8 C13 1_555 1_555
C14 C7 1_555 1_555
H9 C14 1_555 1_555
C15 C8 1_555 1_555
O1 C10 1_555 1_555
O2 C15 1_555 1_555
C16 C9 1_555 1_555
H10 C16 1_555 1_555
H11 C16 1_555 1_555
H12 C16 1_555 1_555
C17 C18 1_555 1_555
C18 C21 1_555 1_555
C19 C17 1_555 1_555
H13 C19 1_555 1_555
C20 C24 1_555 1_555
C21 H14 1_555 1_555
C22 C21 1_555 1_555
C23 C22 1_555 1_555
H15 C23 1_555 1_555
C24 C19 1_555 1_555
C25 C18 1_555 1_555
C26 C17 1_555 1_555
H16 C26 1_555 1_555
C27 C20 1_555 1_555
H17 C27 1_555 1_555
C28 C27 1_555 1_555
H18 C28 1_555 1_555
C29 C20 1_555 1_555
H19 C29 1_555 1_555
C30 C29 1_555 1_555
H20 C30 1_555 1_555
O3 C24 1_555 1_555
O4 C25 1_555 1_555
C31 C28 1_555 1_555
H21 C31 1_555 1_555
C32 C22 1_555 1_555
H22 C32 1_555 1_555
H23 C32 1_555 1_555
H24 C32 1_555 1_555
C5 C6 1_555 1_555
C10 C14 1_555 1_555
C11 C13 1_555 1_555
C15 O1 1_555 1_555
C23 C26 1_555 1_555
C25 O3 1_555 1_555
C30 C31 1_555 1_555

#END
