
#######################################################################
#
#                 Cambridge Crystallographic Data Centre
#                                CCDC 
#
#######################################################################
#
# If this CIF has been generated from an entry in the Cambridge 
# Structural Database, then it will include bibliographic, chemical, 
# crystal, experimental, refinement or atomic coordinate data resulting 
# from the CCDC's data processing and validation procedures.
#
#######################################################################

data_TIMBEW
_chemical_formula_moiety         'C28 H28'
_chemical_name_systematic        
13,16-Dimethylheptacyclo(15.9.0.0^2,12^.0^3,11^.0^6,10^.0^18,26^.0^19,23^)hexacosa-3,5,10,12,16,18,23,25-octaene
_symmetry_cell_setting           triclinic
_symmetry_space_group_name_H-M   'P -1'
_symmetry_Int_Tables_number      2
_space_group_name_Hall           '-P 1'
loop_
_symmetry_equiv_pos_site_id
_symmetry_equiv_pos_as_xyz
1 x,y,z
2 -x,-y,-z
_cell_length_a                   8.710(4)
_cell_length_b                   9.929(5)
_cell_length_c                   12.605(6)
_cell_angle_alpha                68.36(4)
_cell_angle_beta                 79.97(5)
_cell_angle_gamma                86.86(4)
_cell_volume                     997.73
_exptl_crystal_colour            colorless
_cell_formula_units_Z            2
loop_
_atom_site_label
_atom_site_type_symbol
_atom_site_fract_x
_atom_site_fract_y
_atom_site_fract_z
C1 C 0.1802(3) -0.2289(3) 0.1310(2)
C2 C 0.1851(4) -0.3601(3) 0.1242(3)
C3 C 0.3008(4) -0.3938(3) 0.0330(3)
C4 C 0.2619(4) -0.3244(3) -0.0912(3)
C5 C 0.3643(4) -0.1970(3) -0.1697(2)
C6 C 0.3468(3) -0.0688(3) -0.1579(2)
C7 C 0.4151(3) 0.0789(3) -0.2163(2)
C8 C 0.5189(3) 0.1710(3) -0.3069(2)
C9 C 0.6320(4) 0.1492(3) -0.4032(3)
C10 C 0.6847(4) 0.3036(4) -0.4829(3)
C11 C 0.6516(4) 0.3961(3) -0.4089(3)
C12 C 0.5267(3) 0.3133(3) -0.3118(2)
C13 C 0.4319(4) 0.3612(3) -0.2331(3)
C14 C 0.3241(4) 0.2699(3) -0.1445(3)
C15 C 0.3199(3) 0.1289(3) -0.1384(2)
C16 C 0.2414(3) -0.0177(3) -0.0687(2)
C17 C 0.2707(3) -0.0871(3) 0.0557(2)
C18 C 0.1767(3) -0.0248(3) 0.1402(2)
C19 C 0.1538(4) 0.0989(3) 0.1649(3)
C20 C 0.0405(4) 0.0901(3) 0.2613(3)
C21 C -0.0396(3) -0.0369(3) 0.3270(2)
C22 C -0.1647(4) -0.0636(4) 0.4312(3)
C23 C -0.1780(4) -0.2268(4) 0.4869(3)
C24 C -0.1144(4) -0.2863(3) 0.3916(3)
C25 C -0.0138(3) -0.1643(3) 0.3037(2)
C26 C 0.0954(3) -0.1540(3) 0.2060(2)
C27 C 0.0770(4) -0.4803(4) 0.2043(3)
C28 C 0.4862(4) -0.2224(4) -0.2600(3)
H1 H 0.3055(4) -0.4981(3) 0.0540(3)
H2 H 0.4034(4) -0.3603(3) 0.0331(3)
H3 H 0.2711(4) -0.3978(3) -0.1257(3)
H4 H 0.1543(4) -0.2931(3) -0.0862(3)
H5 H 0.5818(4) 0.1021(3) -0.4434(3)
H6 H 0.7196(4) 0.0912(3) -0.3742(3)
H7 H 0.7951(4) 0.3060(4) -0.5136(3)
H8 H 0.6272(4) 0.3388(4) -0.5471(3)
H9 H 0.7442(4) 0.4072(3) -0.3797(3)
H10 H 0.6154(4) 0.4912(3) -0.4527(3)
H11 H 0.4405(4) 0.4570(3) -0.2396(3)
H12 H 0.2587(4) 0.3022(3) -0.0923(3)
H13 H 0.1307(3) -0.0179(3) -0.0747(2)
H14 H 0.3819(3) -0.0943(3) 0.0611(2)
H15 H 0.2101(4) 0.1837(3) 0.1205(3)
H16 H 0.0192(4) 0.1715(3) 0.2809(3)
H17 H -0.2627(4) -0.0218(4) 0.4085(3)
H18 H -0.1353(4) -0.0225(4) 0.4838(3)
H19 H -0.2859(4) -0.2564(4) 0.5182(3)
H20 H -0.1175(4) -0.2628(4) 0.5494(3)
H21 H -0.0537(4) -0.3730(3) 0.4210(3)
H22 H -0.1983(4) -0.3084(3) 0.3589(3)
H23 H 0.0010(15) -0.4440(6) 0.2518(13)
H24 H 0.1355(5) -0.5558(10) 0.2526(12)
H25 H 0.0252(18) -0.5183(15) 0.1599(3)
H26 H 0.5522(15) -0.1382(9) -0.2983(12)
H27 H 0.4366(4) -0.2410(22) -0.3156(10)
H28 H 0.5478(15) -0.3044(14) -0.2239(4)
loop_
_geom_bond_atom_site_label_1
_geom_bond_atom_site_label_2
_geom_bond_site_symmetry_1
_geom_bond_site_symmetry_2
C1 C2 1_555 1_555
C2 C3 1_555 1_555
C3 C4 1_555 1_555
C4 C5 1_555 1_555
C5 C6 1_555 1_555
C6 C7 1_555 1_555
C7 C8 1_555 1_555
C8 C9 1_555 1_555
C9 C10 1_555 1_555
C10 C11 1_555 1_555
C11 C12 1_555 1_555
C12 C8 1_555 1_555
C13 C12 1_555 1_555
C14 C13 1_555 1_555
C15 C7 1_555 1_555
C16 C6 1_555 1_555
C17 C1 1_555 1_555
C18 C17 1_555 1_555
C19 C18 1_555 1_555
C20 C19 1_555 1_555
C21 C20 1_555 1_555
C22 C21 1_555 1_555
C23 C22 1_555 1_555
C24 C23 1_555 1_555
C25 C21 1_555 1_555
C26 C1 1_555 1_555
C27 C2 1_555 1_555
C28 C5 1_555 1_555
H1 C3 1_555 1_555
H2 C3 1_555 1_555
H3 C4 1_555 1_555
H4 C4 1_555 1_555
H5 C9 1_555 1_555
H6 C9 1_555 1_555
H7 C10 1_555 1_555
H8 C10 1_555 1_555
H9 C11 1_555 1_555
H10 C11 1_555 1_555
H11 C13 1_555 1_555
H12 C14 1_555 1_555
H13 C16 1_555 1_555
H14 C17 1_555 1_555
H15 C19 1_555 1_555
H16 C20 1_555 1_555
H17 C22 1_555 1_555
H18 C22 1_555 1_555
H19 C23 1_555 1_555
H20 C23 1_555 1_555
H21 C24 1_555 1_555
H22 C24 1_555 1_555
H23 C27 1_555 1_555
H24 C27 1_555 1_555
H25 C27 1_555 1_555
H26 C28 1_555 1_555
H27 C28 1_555 1_555
H28 C28 1_555 1_555
C14 C15 1_555 1_555
C15 C16 1_555 1_555
C16 C17 1_555 1_555
C18 C26 1_555 1_555
C24 C25 1_555 1_555
C25 C26 1_555 1_555

#END
