
#######################################################################
#
#                 Cambridge Crystallographic Data Centre
#                                CCDC 
#
#######################################################################
#
# If this CIF has been generated from an entry in the Cambridge 
# Structural Database, then it will include bibliographic, chemical, 
# crystal, experimental, refinement or atomic coordinate data resulting 
# from the CCDC's data processing and validation procedures.
#
#######################################################################

data_TIMBEY
_chemical_formula_moiety         'C17 H22 O1'
_chemical_name_systematic        
3a,5a,8-Trimethyl-3,3a,5a,10,10a,10b-hexahydrocyclohepta[e]inden-1(2H)-one
_symmetry_cell_setting           triclinic
_symmetry_space_group_name_H-M   'P -1'
_symmetry_Int_Tables_number      2
_space_group_name_Hall           '-P 1'
loop_
_symmetry_equiv_pos_site_id
_symmetry_equiv_pos_as_xyz
1 x,y,z
2 -x,-y,-z
_cell_length_a                   7.3896(7)
_cell_length_b                   9.5633(9)
_cell_length_c                   11.7100(11)
_cell_angle_alpha                110.666(3)
_cell_angle_beta                 106.674(3)
_cell_angle_gamma                95.546(3)
_cell_volume                     723.422
_exptl_crystal_colour            colorless
_exptl_crystal_description       block
_cell_formula_units_Z            2
loop_
_atom_site_label
_atom_site_type_symbol
_atom_site_fract_x
_atom_site_fract_y
_atom_site_fract_z
O1 O 0.3208(4) 1.2735(3) 0.3859(3)
C1 C 0.4661(4) 0.9901(3) 0.2083(3)
H1 H 0.4949 1.0396 0.1532
C2 C 0.2455(4) 0.9418(3) 0.1626(3)
H2 H 0.2127 0.8768 0.2045
H3 H 0.1951 1.0329 0.1922
C3 C 0.1430(4) 0.8570(3) 0.0165(3)
H4 H 0.0757 0.9047 -0.0337
C4 C 0.1559(5) 0.6929(3) -0.0427(3)
C5 C 0.3250(5) 0.6520(3) -0.0270(3)
H5 H 0.3207 0.5478 -0.0653
C6 C 0.5212(4) 0.7555(3) 0.0457(3)
H6 H 0.6105 0.7594 0.0042
C7 C 0.5723(4) 0.8560(3) 0.1917(3)
C8 C 0.7866(4) 0.9203(4) 0.2484(3)
H7 H 0.8647 0.8559 0.2190
C9 C 0.8739(5) 1.0585(4) 0.3355(4)
H8 H 1.0083 1.0851 0.3633
C10 C 0.7705(4) 1.1765(4) 0.3930(3)
C11 C 0.7800(5) 1.3055(4) 0.3434(3)
H9 H 0.8997 1.3823 0.3953
H10 H 0.7734 1.2646 0.2534
C12 C 0.6083(6) 1.3740(4) 0.3560(4)
H11 H 0.5487 1.3963 0.2809
H12 H 0.6471 1.4682 0.4335
C13 C 0.4693(5) 1.2545(4) 0.3647(3)
C14 C 0.5507(4) 1.1124(3) 0.3492(3)
H13 H 0.5244 1.0689 0.4086
C15 C 0.8592(5) 1.2440(5) 0.5413(3)
H14 H 0.8501 1.1636 0.5718
H15 H 0.7904 1.3182 0.5774
H16 H 0.9928 1.2927 0.5677
C16 C -0.0334(5) 0.5808(4) -0.1236(4)
H17 H -0.0108 0.4794 -0.1566
H18 H -0.0978 0.6064 -0.1948
H19 H -0.1131 0.5846 -0.0711
C17 C 0.5231(5) 0.7554(4) 0.2616(3)
H20 H 0.5927 0.6746 0.2492
H21 H 0.3865 0.7118 0.2263
H22 H 0.5596 0.8171 0.3529
loop_
_geom_bond_atom_site_label_1
_geom_bond_atom_site_label_2
_geom_bond_site_symmetry_1
_geom_bond_site_symmetry_2
O1 C13 1_555 1_555
C1 H1 1_555 1_555
C2 C1 1_555 1_555
H2 C2 1_555 1_555
H3 C2 1_555 1_555
C3 C2 1_555 1_555
H4 C3 1_555 1_555
C4 C3 1_555 1_555
C5 C4 1_555 1_555
H5 C5 1_555 1_555
C6 C5 1_555 1_555
H6 C6 1_555 1_555
C7 C1 1_555 1_555
C8 C7 1_555 1_555
H7 C8 1_555 1_555
C9 C8 1_555 1_555
H8 C9 1_555 1_555
C10 C9 1_555 1_555
C11 C10 1_555 1_555
H9 C11 1_555 1_555
H10 C11 1_555 1_555
C12 C11 1_555 1_555
H11 C12 1_555 1_555
H12 C12 1_555 1_555
C13 C12 1_555 1_555
C14 C1 1_555 1_555
H13 C14 1_555 1_555
C15 C10 1_555 1_555
H14 C15 1_555 1_555
H15 C15 1_555 1_555
H16 C15 1_555 1_555
C16 C4 1_555 1_555
H17 C16 1_555 1_555
H18 C16 1_555 1_555
H19 C16 1_555 1_555
C17 C7 1_555 1_555
H20 C17 1_555 1_555
H21 C17 1_555 1_555
H22 C17 1_555 1_555
C6 C7 1_555 1_555
C10 C14 1_555 1_555
C13 C14 1_555 1_555

#END
