
#######################################################################
#
#                 Cambridge Crystallographic Data Centre
#                                CCDC 
#
#######################################################################
#
# If this CIF has been generated from an entry in the Cambridge 
# Structural Database, then it will include bibliographic, chemical, 
# crystal, experimental, refinement or atomic coordinate data resulting 
# from the CCDC's data processing and validation procedures.
#
#######################################################################

data_TIMCOJ
_chemical_formula_moiety         'C22 H12 F8 N8 O4'
_chemical_name_systematic        
10,11,12,22,23,24,25,27-Octafluoro-N,N,N',N'-tetramethyl-2,8,14,20-tetraoxa-4,6,16,18,26,28-hexaazapentacyclo[19.3.1.1^3,7^.1^9,13^.1^15,19^]octacosa-1(25),3(28),4,6,9(27),10,12,15(26),16,18,21,23-dodecaene-5,17-diamine
_symmetry_cell_setting           triclinic
_symmetry_space_group_name_H-M   'P -1'
_symmetry_Int_Tables_number      2
_space_group_name_Hall           '-P 1'
loop_
_symmetry_equiv_pos_site_id
_symmetry_equiv_pos_as_xyz
1 x,y,z
2 -x,-y,-z
_cell_length_a                   8.6780(17)
_cell_length_b                   16.031(3)
_cell_length_c                   17.808(4)
_cell_angle_alpha                75.13(3)
_cell_angle_beta                 80.07(3)
_cell_angle_gamma                77.81(3)
_cell_volume                     2322.03
_exptl_crystal_colour            colorless
_exptl_crystal_description       block
_cell_formula_units_Z            4
loop_
_atom_site_label
_atom_site_type_symbol
_atom_site_fract_x
_atom_site_fract_y
_atom_site_fract_z
F1 F -0.0868(5) 0.8546(3) 0.5975(2)
F2 F 0.1593(5) 0.7340(3) 0.6571(2)
F3 F 0.2659(5) 0.5882(3) 0.5993(3)
F4 F -0.1141(5) 0.6833(3) 0.4238(2)
F5 F 0.2185(5) 0.9637(3) 0.4742(3)
F6 F 0.4216(5) 0.8270(3) 0.5494(2)
F7 F 0.5606(5) 0.6934(3) 0.4797(2)
F8 F 0.2947(5) 0.8335(3) 0.2593(2)
O1 O -0.2345(5) 0.8296(3) 0.4820(3)
O2 O 0.1204(6) 0.5540(3) 0.4868(3)
O3 O 0.5083(5) 0.6960(3) 0.3298(3)
O4 O 0.1536(5) 0.9723(3) 0.3265(3)
N1 N -0.3072(6) 0.9564(4) 0.3958(3)
N2 N -0.0342(6) 0.8962(4) 0.4055(3)
N3 N -0.1022(6) 1.0310(4) 0.3137(3)
N4 N -0.3677(6) 1.0876(4) 0.3077(3)
N5 N 0.3094(6) 0.6297(4) 0.4091(3)
N6 N 0.2780(6) 0.4902(4) 0.3957(3)
N7 N 0.4851(6) 0.5642(4) 0.3135(3)
N8 N 0.4427(7) 0.4323(4) 0.2978(3)
C1 C -0.5371(8) 1.0885(5) 0.3349(5)
H1 H -0.5764 1.0498 0.3109
H2 H -0.5959 1.1483 0.3200
H3 H -0.5524 1.0679 0.3920
C2 C -0.3254(9) 1.1635(5) 0.2466(4)
H4 H -0.3105 1.2088 0.2713
H5 H -0.4108 1.1871 0.2134
H6 H -0.2266 1.1450 0.2145
C3 C -0.2576(8) 1.0248(4) 0.3394(4)
C4 C -0.1884(8) 0.8977(4) 0.4241(4)
C5 C -0.0023(7) 0.9659(4) 0.3499(4)
C6 C -0.1118(7) 0.7678(4) 0.5133(4)
C7 C -0.0386(8) 0.7802(4) 0.5728(4)
C8 C 0.0843(8) 0.7192(5) 0.6029(4)
C9 C 0.1406(8) 0.6444(5) 0.5732(4)
C10 C 0.0680(8) 0.6305(5) 0.5149(4)
C11 C -0.0533(8) 0.6922(4) 0.4854(4)
C12 C 0.2429(7) 0.5579(4) 0.4274(4)
C13 C 0.4021(8) 0.4967(4) 0.3362(4)
C14 C 0.4282(7) 0.6261(4) 0.3529(4)
C15 C 0.3586(9) 0.3581(5) 0.3180(5)
H7 H 0.3761 0.3302 0.2736
H8 H 0.2446 0.3788 0.3304
H9 H 0.3987 0.3154 0.3637
C16 C 0.5746(8) 0.4326(5) 0.2337(4)
H10 H 0.6386 0.3737 0.2391
H11 H 0.6412 0.4741 0.2359
H12 H 0.5318 0.4503 0.1834
C17 C 0.4405(8) 0.7645(5) 0.3655(4)
C18 C 0.4683(8) 0.7630(5) 0.4400(4)
C19 C 0.3943(8) 0.8308(5) 0.4765(4)
C20 C 0.2937(8) 0.8993(4) 0.4383(4)
C21 C 0.2600(8) 0.9029(4) 0.3637(4)
C22 C 0.3370(7) 0.8339(4) 0.3284(4)
F9 F 0.2146(6) 0.4677(3) -0.0793(3)
F10 F 0.3002(6) 0.3371(4) -0.1586(3)
F11 F 0.5411(6) 0.2034(3) -0.1161(3)
F12 F 0.5996(5) 0.3245(3) 0.0893(2)
F13 F -0.0947(5) 0.3469(3) 0.0242(3)
F14 F 0.0345(5) 0.2223(3) -0.0571(2)
F15 F 0.2318(5) 0.0774(3) 0.0090(3)
F16 F 0.1730(5) 0.1828(3) 0.2366(2)
O5 O 0.3707(6) 0.4671(3) 0.0438(3)
O6 O 0.7012(6) 0.1960(3) 0.0071(3)
O7 O 0.3077(6) 0.0533(3) 0.1574(3)
O8 O -0.0364(6) 0.3270(3) 0.1770(3)
N9 N -0.0030(7) 0.4473(4) 0.2118(3)
N10 N 0.1702(6) 0.3926(4) 0.1088(3)
N11 N 0.2111(7) 0.5226(4) 0.1385(3)
N12 N 0.0420(7) 0.5739(4) 0.2369(3)
N13 N 0.4961(6) 0.1292(4) 0.0798(3)
N14 N 0.5621(7) -0.0119(4) 0.1648(3)
N15 N 0.7699(7) 0.0628(4) 0.0850(4)
N16 N 0.8285(7) -0.0719(4) 0.1687(4)
C23 C 0.1277(9) 0.6473(4) 0.2221(4)
H13 H 0.2424 0.6253 0.2163
H14 H 0.0991 0.6760 0.2662
H15 H 0.0989 0.6896 0.1740
C24 C -0.0965(9) 0.5725(5) 0.2986(4)
H16 H -0.1631 0.5331 0.2922
H17 H -0.1587 0.6318 0.2941
H18 H -0.0593 0.5518 0.3502
C25 C 0.0825(8) 0.5138(4) 0.1950(4)
C26 C 0.0483(8) 0.3925(4) 0.1648(4)
C27 C 0.2439(8) 0.4585(5) 0.1005(4)
C28 C 0.4133(8) 0.4004(5) 0.0034(4)
C29 C 0.3365(9) 0.4013(5) -0.0604(4)
C30 C 0.3789(9) 0.3360(5) -0.0994(4)
C31 C 0.5014(9) 0.2677(5) -0.0786(4)
C32 C 0.5793(8) 0.2645(4) -0.0153(4)
C33 C 0.5330(7) 0.3295(4) 0.0244(4)
C34 C 0.6527(8) 0.1252(5) 0.0604(4)
C35 C 0.7174(8) -0.0056(4) 0.1389(4)
C36 C 0.4647(8) 0.0572(4) 0.1325(4)
C37 C 0.9973(8) -0.0716(5) 0.1433(5)
H19 H 1.0594 -0.1254 0.1715
H20 H 1.0266 -0.0206 0.1544
H21 H 1.0195 -0.0686 0.0869
C38 C 0.7842(10) -0.1488(5) 0.2260(5)
H22 H 0.6731 -0.1352 0.2485
H23 H 0.8526 -0.1655 0.2678
H24 H 0.7971 -0.1975 0.2003
C39 C 0.2011(8) 0.1251(5) 0.1252(4)
C40 C 0.1623(9) 0.1384(5) 0.0495(4)
C41 C 0.0635(9) 0.2097(6) 0.0175(4)
C42 C -0.0055(8) 0.2742(5) 0.0588(4)
C43 C 0.0299(8) 0.2630(5) 0.1343(4)
C44 C 0.1270(8) 0.1897(4) 0.1662(4)
loop_
_geom_bond_atom_site_label_1
_geom_bond_atom_site_label_2
_geom_bond_site_symmetry_1
_geom_bond_site_symmetry_2
F1 C7 1_555 1_555
F2 C8 1_555 1_555
F3 C9 1_555 1_555
F4 C11 1_555 1_555
F5 C20 1_555 1_555
F6 C19 1_555 1_555
F7 C18 1_555 1_555
F8 C22 1_555 1_555
O1 C4 1_555 1_555
O2 C10 1_555 1_555
O3 C14 1_555 1_555
O4 C5 1_555 1_555
N1 C3 1_555 1_555
N2 C4 1_555 1_555
N3 C3 1_555 1_555
N4 C1 1_555 1_555
N5 C12 1_555 1_555
N6 C12 1_555 1_555
N7 C13 1_555 1_555
N8 C13 1_555 1_555
C1 H1 1_555 1_555
H2 C1 1_555 1_555
H3 C1 1_555 1_555
C2 N4 1_555 1_555
H4 C2 1_555 1_555
H5 C2 1_555 1_555
H6 C2 1_555 1_555
C3 N4 1_555 1_555
C4 N1 1_555 1_555
C5 N2 1_555 1_555
C6 O1 1_555 1_555
C7 C6 1_555 1_555
C8 C7 1_555 1_555
C9 C8 1_555 1_555
C10 C9 1_555 1_555
C11 C6 1_555 1_555
C12 O2 1_555 1_555
C13 N6 1_555 1_555
C14 N5 1_555 1_555
C15 N8 1_555 1_555
H7 C15 1_555 1_555
H8 C15 1_555 1_555
H9 C15 1_555 1_555
C16 N8 1_555 1_555
H10 C16 1_555 1_555
H11 C16 1_555 1_555
H12 C16 1_555 1_555
C17 O3 1_555 1_555
C18 C17 1_555 1_555
C19 C18 1_555 1_555
C20 C19 1_555 1_555
C21 O4 1_555 1_555
C22 C17 1_555 1_555
F9 C29 1_555 1_555
F10 C30 1_555 1_555
F11 C31 1_555 1_555
F12 C33 1_555 1_555
F13 C42 1_555 1_555
F14 C41 1_555 1_555
F15 C40 1_555 1_555
F16 C44 1_555 1_555
O5 C27 1_555 1_555
O6 C32 1_555 1_555
O7 C36 1_555 1_555
O8 C26 1_555 1_555
N9 C25 1_555 1_555
N10 C26 1_555 1_555
N11 C25 1_555 1_555
N12 C23 1_555 1_555
N13 C34 1_555 1_555
N14 C35 1_555 1_555
N15 C34 1_555 1_555
N16 C35 1_555 1_555
C23 H13 1_555 1_555
H14 C23 1_555 1_555
H15 C23 1_555 1_555
C24 N12 1_555 1_555
H16 C24 1_555 1_555
H17 C24 1_555 1_555
H18 C24 1_555 1_555
C25 N12 1_555 1_555
C26 N9 1_555 1_555
C27 N10 1_555 1_555
C28 O5 1_555 1_555
C29 C28 1_555 1_555
C30 C29 1_555 1_555
C31 C30 1_555 1_555
C32 C31 1_555 1_555
C33 C28 1_555 1_555
C34 O6 1_555 1_555
C35 N15 1_555 1_555
C36 N13 1_555 1_555
C37 N16 1_555 1_555
H19 C37 1_555 1_555
H20 C37 1_555 1_555
H21 C37 1_555 1_555
C38 N16 1_555 1_555
H22 C38 1_555 1_555
H23 C38 1_555 1_555
H24 C38 1_555 1_555
C39 O7 1_555 1_555
C40 C39 1_555 1_555
C41 C40 1_555 1_555
C42 C41 1_555 1_555
C43 O8 1_555 1_555
C44 C39 1_555 1_555
N3 C5 1_555 1_555
N7 C14 1_555 1_555
C10 C11 1_555 1_555
C20 C21 1_555 1_555
C21 C22 1_555 1_555
N11 C27 1_555 1_555
N14 C36 1_555 1_555
C32 C33 1_555 1_555
C42 C43 1_555 1_555
C43 C44 1_555 1_555

#END
