
#######################################################################
#
#                 Cambridge Crystallographic Data Centre
#                                CCDC 
#
#######################################################################
#
# If this CIF has been generated from an entry in the Cambridge 
# Structural Database, then it will include bibliographic, chemical, 
# crystal, experimental, refinement or atomic coordinate data resulting 
# from the CCDC's data processing and validation procedures.
#
#######################################################################

data_TIMCID
_chemical_formula_moiety         'C20 H6 F8 N6 O6'
_chemical_name_systematic        
10,11,21,22,23,24,26,27-Octafluoro-5,16-dimethoxy-2,8,13,19-tetraoxa-4,6,15,17,25,28-hexaazapentacyclo[18.2.2.2^9,12^.1^3,7^.1^14,18^]octacosa-1(22),3(28),4,6,9,11,14(25),15,17,20,23,26-dodecaene
_symmetry_cell_setting           triclinic
_symmetry_space_group_name_H-M   'P -1'
_symmetry_Int_Tables_number      2
_space_group_name_Hall           '-P 1'
loop_
_symmetry_equiv_pos_site_id
_symmetry_equiv_pos_as_xyz
1 x,y,z
2 -x,-y,-z
_cell_length_a                   7.1595(14)
_cell_length_b                   8.7231(17)
_cell_length_c                   9.2770(19)
_cell_angle_alpha                90.88(3)
_cell_angle_beta                 100.91(3)
_cell_angle_gamma                114.13(3)
_cell_volume                     516.407
_exptl_crystal_colour            colorless
_exptl_crystal_description       block
_cell_formula_units_Z            1
loop_
_atom_site_label
_atom_site_type_symbol
_atom_site_fract_x
_atom_site_fract_y
_atom_site_fract_z
F1 F 0.40925(17) 0.70788(14) 0.42496(12)
F2 F 0.50956(17) 0.93951(14) 0.65812(12)
F3 F 1.16124(16) 0.91509(14) 0.80819(12)
F4 F 1.05460(17) 0.67400(14) 0.58160(13)
O1 O 0.88310(19) 1.04360(15) 0.85804(13)
O2 O 1.2742(2) 1.57087(16) 1.07438(14)
O3 O 0.6717(2) 0.56381(15) 0.38500(14)
N1 N 1.0986(2) 1.23251(17) 0.72675(15)
N2 N 1.0821(2) 1.30563(18) 0.97117(16)
N3 N 1.3057(2) 1.51313(18) 0.84028(16)
C1 C 0.7315(3) 0.6891(2) 0.50078(19)
C2 C 0.5936(3) 0.7569(2) 0.52078(19)
C3 C 0.6440(3) 0.8743(2) 0.63920(19)
C4 C 0.8346(3) 0.9269(2) 0.73769(18)
C5 C 0.9728(3) 0.8590(2) 0.71704(19)
C6 C 0.9202(3) 0.7390(2) 0.6006(2)
C7 C 1.0285(3) 1.2019(2) 0.85127(18)
C8 C 1.2200(3) 1.4619(2) 0.95696(19)
C9 C 1.4119(3) 1.7446(2) 1.0636(2)
H1 H 1.5381 1.7487 1.0340
H2 H 1.4515 1.8105 1.1597
H3 H 1.3394 1.7921 0.9898
C10 C 0.7623(3) 0.6100(2) 0.26746(19)
F1A F 1.59075(17) 1.29212(14) 0.57504(12)
F2A F 1.49044(17) 1.06049(14) 0.34188(12)
F3A F 0.83876(16) 1.08491(14) 0.19181(12)
F4A F 0.94540(17) 1.32600(14) 0.41840(13)
O1A O 1.11690(19) 0.95640(15) 0.14196(13)
O2A O 0.7258(2) 0.42913(16) -0.07438(14)
O3A O 1.3283(2) 1.43619(15) 0.61500(14)
N1A N 0.9014(2) 0.76749(17) 0.27325(15)
N2A N 0.9179(2) 0.69437(18) 0.02883(16)
N3A N 0.6943(2) 0.48687(18) 0.15972(16)
C1A C 1.2685(3) 1.3109(2) 0.49922(19)
C2A C 1.4064(3) 1.2431(2) 0.47922(19)
C3A C 1.3560(3) 1.1257(2) 0.36080(19)
C4A C 1.1654(3) 1.0731(2) 0.26231(18)
C5A C 1.0272(3) 1.1410(2) 0.28296(19)
C6A C 1.0798(3) 1.2610(2) 0.3994(2)
C7A C 0.9715(3) 0.7981(2) 0.14873(18)
C8A C 0.7800(3) 0.5381(2) 0.04304(19)
C9A C 0.5881(3) 0.2554(2) -0.0636(2)
H1A H 0.4619 0.2513 -0.0340
H2A H 0.5485 0.1895 -0.1597
H3A H 0.6606 0.2079 0.0102
C10A C 1.2377(3) 1.3900(2) 0.73254(19)
loop_
_geom_bond_atom_site_label_1
_geom_bond_atom_site_label_2
_geom_bond_site_symmetry_1
_geom_bond_site_symmetry_2
F1 C2 1_555 1_555
F2 C3 1_555 1_555
F3 C5 1_555 1_555
F4 C6 1_555 1_555
O1 C4 1_555 1_555
O2 C8 1_555 1_555
O3 C1 1_555 1_555
N1 C7 1_555 1_555
N2 C7 1_555 1_555
N3 C8 1_555 1_555
C1 C2 1_555 1_555
C2 C3 1_555 1_555
C3 C4 1_555 1_555
C4 C5 1_555 1_555
C5 C6 1_555 1_555
C6 C1 1_555 1_555
C7 O1 1_555 1_555
C8 N2 1_555 1_555
C9 O2 1_555 1_555
H1 C9 1_555 1_555
H2 C9 1_555 1_555
H3 C9 1_555 1_555
C10 O3 1_555 1_555
F1A C2A 1_555 1_555
F2A C3A 1_555 1_555
F3A C5A 1_555 1_555
F4A C6A 1_555 1_555
O1A C4A 1_555 1_555
O2A C8A 1_555 1_555
O3A C1A 1_555 1_555
N1A C10 1_555 1_555
N2A C7A 1_555 1_555
N3A C10 1_555 1_555
C1A C2A 1_555 1_555
C2A C3A 1_555 1_555
C3A C4A 1_555 1_555
C4A C5A 1_555 1_555
C5A C6A 1_555 1_555
C6A C1A 1_555 1_555
C7A O1A 1_555 1_555
C8A N2A 1_555 1_555
C9A O2A 1_555 1_555
H1A C9A 1_555 1_555
H2A C9A 1_555 1_555
H3A C9A 1_555 1_555
C10A N1 1_555 1_555
N3 C10A 1_555 1_555
O3A C10A 1_555 1_555
N1A C7A 1_555 1_555
N3A C8A 1_555 1_555

#END
