
#######################################################################
#
#                 Cambridge Crystallographic Data Centre
#                                CCDC 
#
#######################################################################
#
# If this CIF has been generated from an entry in the Cambridge 
# Structural Database, then it will include bibliographic, chemical, 
# crystal, experimental, refinement or atomic coordinate data resulting 
# from the CCDC's data processing and validation procedures.
#
#######################################################################

data_TIMCEZ
_chemical_formula_moiety         'C20 H6 F8 N6 O6,2(C1 H2 Cl2)'
_chemical_name_systematic        
'10,11,12,22,23,24,25,27-Octafluoro-5,17-dimethoxy-2,8,14,20-tetraoxa-4,6,16,18,26,28-hexaazapentacyclo[19.3.1.1^3,7^.1^9,13^.1^15,19^]octacosa-1(25),3(28),4,6,9(27),10,12,15(26),16,18,21,23-dodecaene dichloromethane solvate'
_symmetry_cell_setting           monoclinic
_symmetry_space_group_name_H-M   'C 2/c'
_symmetry_Int_Tables_number      15
_space_group_name_Hall           '-C 2yn'
loop_
_symmetry_equiv_pos_site_id
_symmetry_equiv_pos_as_xyz
1 x,y,z
2 -x,y,1/2-z
3 1/2+x,1/2+y,z
4 1/2-x,1/2+y,1/2-z
5 -x,-y,-z
6 x,-y,1/2+z
7 1/2-x,1/2-y,-z
8 1/2+x,1/2-y,1/2+z
_cell_length_a                   23.108(2)
_cell_length_b                   10.2900(7)
_cell_length_c                   15.5912(14)
_cell_angle_alpha                90
_cell_angle_beta                 131.567(3)
_cell_angle_gamma                90
_cell_volume                     2773.73
_exptl_crystal_colour            colorless
_exptl_crystal_description       block
_cell_formula_units_Z            4
loop_
_atom_site_label
_atom_site_type_symbol
_atom_site_fract_x
_atom_site_fract_y
_atom_site_fract_z
Cl1 Cl 0.10114(8) 0.58370(11) 0.29895(9)
Cl2 Cl 0.07806(5) 0.30815(10) 0.23963(8)
C1 C 0.1392(2) 0.4432(4) 0.2919(3)
H1 H 0.1886 0.4228 0.3696
H2 H 0.1507 0.4593 0.2420
O1 O 0.18012(8) -0.02911(15) 0.48392(12)
O2 O 0.06187(9) -0.09173(16) 0.10615(13)
O3 O 0.26996(10) 0.16152(17) 0.33078(15)
N1 N 0.22671(10) 0.06797(17) 0.41281(15)
N2 N 0.11494(10) -0.06660(17) 0.29297(14)
N3 N 0.16775(10) 0.03070(19) 0.21888(15)
C2 C 0.22100(12) 0.0845(2) 0.32281(19)
C3 C 0.17263(11) -0.0096(2) 0.39093(17)
C4 C 0.11745(12) -0.0401(2) 0.21215(17)
C5 C -0.00504(11) -0.1411(2) 0.07643(16)
C6 C -0.02744(13) -0.2660(2) 0.03313(19)
C7 C -0.09926(14) -0.3117(2) -0.0141(2)
C8 C 0.12695(12) -0.1100(2) 0.47148(16)
C9 C 0.05528(12) -0.0642(2) 0.42603(16)
C10 C 0.14892(13) -0.2338(2) 0.51676(19)
C11 C 0.32882(15) 0.2252(3) 0.4401(2)
H3 H 0.3042 0.2714 0.4636
H4 H 0.3573 0.2872 0.4324
H5 H 0.3647 0.1599 0.4980
F1 F 0.02011(9) -0.34225(15) 0.03474(13)
F2 F -0.12098(10) -0.43220(14) -0.05777(16)
F3 F 0.03553(7) 0.05772(12) 0.38733(11)
F4 F 0.21907(8) -0.27769(15) 0.56455(13)
O1A O -0.18012(8) -0.02911(15) 0.01608(12)
O2A O -0.06187(9) -0.09173(16) 0.39385(13)
O3A O -0.26996(10) 0.16152(17) 0.16922(15)
N1A N -0.22671(10) 0.06797(17) 0.08719(15)
N2A N -0.11494(10) -0.06660(17) 0.20703(14)
N3A N -0.16775(10) 0.03070(19) 0.28112(15)
C2A C -0.22100(12) 0.0845(2) 0.17719(19)
C3A C -0.17263(11) -0.0096(2) 0.10907(17)
C4A C -0.11745(12) -0.0401(2) 0.28785(17)
C5A C 0.00504(11) -0.1411(2) 0.42357(16)
C6A C 0.02744(13) -0.2660(2) 0.46687(19)
C7A C 0.09926(14) -0.3117(2) 0.5141(2)
C8A C -0.12695(12) -0.1100(2) 0.02852(16)
C9A C -0.05528(12) -0.0642(2) 0.07397(16)
C10A C -0.14892(13) -0.2338(2) -0.01676(19)
C11A C -0.32882(15) 0.2252(3) 0.0599(2)
H3A H -0.3042 0.2714 0.0364
H4A H -0.3573 0.2872 0.0676
H5A H -0.3647 0.1599 0.0020
F1A F -0.02011(9) -0.34225(15) 0.46526(13)
F2A F 0.12098(10) -0.43220(14) 0.55777(16)
F3A F -0.03553(7) 0.05772(12) 0.11267(11)
F4A F -0.21907(8) -0.27769(15) -0.06455(13)
loop_
_geom_bond_atom_site_label_1
_geom_bond_atom_site_label_2
_geom_bond_site_symmetry_1
_geom_bond_site_symmetry_2
Cl1 C1 1_555 1_555
Cl2 C1 1_555 1_555
C1 H1 1_555 1_555
H2 C1 1_555 1_555
O1 C3 1_555 1_555
O2 C4 1_555 1_555
O3 C2 1_555 1_555
N1 C2 1_555 1_555
N2 C3 1_555 1_555
N3 C2 1_555 1_555
C3 N1 1_555 1_555
C4 N2 1_555 1_555
C5 O2 1_555 1_555
C6 C5 1_555 1_555
C7 C6 1_555 1_555
C8 O1 1_555 1_555
C9 C8 1_555 1_555
C10 C8 1_555 1_555
C11 O3 1_555 1_555
H3 C11 1_555 1_555
H4 C11 1_555 1_555
H5 C11 1_555 1_555
F1 C6 1_555 1_555
F2 C7 1_555 1_555
F3 C9 1_555 1_555
F4 C10 1_555 1_555
O1A C3A 1_555 1_555
O2A C4A 1_555 1_555
O3A C2A 1_555 1_555
N1A C2A 1_555 1_555
N2A C3A 1_555 1_555
N3A C2A 1_555 1_555
C3A N1A 1_555 1_555
C4A N2A 1_555 1_555
C5A C9 1_555 1_555
C6A C5A 1_555 1_555
C7A C10 1_555 1_555
C8A O1A 1_555 1_555
C9A C5 1_555 1_555
C10A C7 1_555 1_555
C11A O3A 1_555 1_555
H3A C11A 1_555 1_555
H4A C11A 1_555 1_555
H5A C11A 1_555 1_555
F1A C6A 1_555 1_555
F2A C7A 1_555 1_555
F3A C9A 1_555 1_555
F4A C10A 1_555 1_555
N3 C4 1_555 1_555
O2A C5A 1_555 1_555
N3A C4A 1_555 1_555
C6A C7A 1_555 1_555
C8A C9A 1_555 1_555
C8A C10A 1_555 1_555

#END
