
#######################################################################
#
#                 Cambridge Crystallographic Data Centre
#                                CCDC 
#
#######################################################################
#
# If this CIF has been generated from an entry in the Cambridge 
# Structural Database, then it will include bibliographic, chemical, 
# crystal, experimental, refinement or atomic coordinate data resulting 
# from the CCDC's data processing and validation procedures.
#
#######################################################################

data_TIMDEA
_chemical_formula_moiety         'C37 H54 O6,H2 O1'
_chemical_name_systematic        
'4-(4-Hydroxyphenyl)-2-(2-hydroxy-2-(1,2,4a-trimethyl-5-methylenedecahydronaphthalen-1-yl)ethyl)-2-methyl-3-((oct-1-en-3-yloxy)carbonyl)cyclobutanecarboxylic acid monohydrate'
_symmetry_cell_setting           monoclinic
_symmetry_space_group_name_H-M   'P 21'
_symmetry_Int_Tables_number      4
_space_group_name_Hall           'P 2yb'
loop_
_symmetry_equiv_pos_site_id
_symmetry_equiv_pos_as_xyz
1 x,y,z
2 -x,1/2+y,-z
_cell_length_a                   11.3028(2)
_cell_length_b                   6.4336(2)
_cell_length_c                   23.8826(5)
_cell_angle_alpha                90
_cell_angle_beta                 93.6760(10)
_cell_angle_gamma                90
_cell_volume                     1733.11
_exptl_crystal_colour            colorless
_exptl_crystal_description       needle
_cell_formula_units_Z            2
loop_
_atom_site_label
_atom_site_type_symbol
_atom_site_fract_x
_atom_site_fract_y
_atom_site_fract_z
O1 O 0.1594(4) 0.8140(6) 0.57173(14)
H1 H 0.121(4) 0.793(8) 0.5988(12)
H2 H 0.155(5) 0.709(5) 0.5523(19)
O2 O 0.74608(19) 0.4066(4) 0.73875(9)
O3 O 0.88319(18) 0.6269(4) 0.70965(9)
O4 O 0.8039(2) -0.2240(4) 0.55527(10)
H3 H 0.7798 -0.2455 0.5218
O5 O 0.8383(3) 0.0945(5) 0.52343(10)
O6 O 0.28743(19) 0.1161(4) 0.54029(10)
H4 H 0.2521 0.0078 0.5496
O7 O 1.09806(18) -0.1741(4) 0.67981(9)
H5 H 1.0329 -0.2127 0.6913
C1 C 1.1026(4) 0.2414(9) 0.93996(17)
H6 H 1.0456 0.2279 0.9673
H7 H 1.1413 0.3706 0.9352
C2 C 1.1280(3) 0.0798(7) 0.90841(15)
C3 C 1.2156(3) 0.0847(6) 0.86246(14)
C4 C 1.1434(3) 0.0283(6) 0.80617(13)
H8 H 1.0773 0.1317 0.8029
C5 C 1.2094(3) 0.0530(6) 0.75072(13)
C6 C 1.1213(3) 0.0374(5) 0.69701(13)
H9 H 1.1645 0.1009 0.6660
C7 C 1.0068(3) 0.1644(6) 0.69937(13)
H10 H 1.0265 0.2984 0.7181
H11 H 0.9526 0.0887 0.7232
C8 C 0.9394(3) 0.2106(6) 0.64208(13)
C9 C 0.8235(3) 0.3383(5) 0.65104(13)
H12 H 0.8036 0.4243 0.6168
C10 C 0.8220(2) 0.4739(6) 0.70145(13)
C11 C 0.7337(3) 0.5348(6) 0.78892(14)
H13 H 0.8093 0.6112 0.7985
C12 C 0.7100(4) 0.3857(7) 0.83505(16)
H14 H 0.7760 0.2846 0.8391
H15 H 0.6366 0.3073 0.8244
C13 C 0.6962(4) 0.4914(7) 0.89197(16)
H16 H 0.7605 0.5945 0.8989
H17 H 0.6197 0.5665 0.8908
C14 C 0.7006(5) 0.3348(12) 0.9400(2)
H18 H 0.7804 0.2709 0.9429
H19 H 0.6908 0.4114 0.9753
C15 C 0.6130(5) 0.1688(11) 0.9357(2)
H20 H 0.6234 0.0901 0.9007
H21 H 0.5330 0.2320 0.9324
C16 C 0.6188(5) 0.0164(9) 0.98477(19)
H22 H 0.6948 -0.0574 0.9863
H23 H 0.5538 -0.0840 0.9797
H24 H 0.6115 0.0928 1.0199
C17 C 0.6349(3) 0.6887(7) 0.77435(16)
H25 H 0.5577 0.6354 0.7651
C18 C 0.6492(3) 0.8887(7) 0.77375(16)
H26 H 0.7253 0.9468 0.7828
H27 H 0.5837 0.9771 0.7643
C19 C 0.8594(3) 0.0206(6) 0.62279(13)
H28 H 0.8812 -0.1075 0.6448
C20 C 0.8358(3) -0.0264(6) 0.56151(13)
C21 C 0.7494(3) 0.1373(6) 0.64712(13)
H29 H 0.7404 0.0855 0.6861
C22 C 0.6300(3) 0.1331(6) 0.61610(13)
C23 C 0.5608(3) -0.0456(6) 0.61868(14)
H30 H 0.5921 -0.1631 0.6387
C24 C 0.4481(3) -0.0563(6) 0.59297(14)
H31 H 0.4028 -0.1800 0.5953
C25 C 0.4010(3) 0.1140(6) 0.56363(13)
C26 C 0.4692(3) 0.2919(7) 0.55892(14)
H32 H 0.4382 0.4076 0.5381
C27 C 0.5830(3) 0.3006(6) 0.58480(14)
H33 H 0.6295 0.4223 0.5811
C28 C 1.0211(3) 0.3094(7) 0.60114(14)
H34 H 1.0663 0.4222 0.6200
H35 H 0.9735 0.3653 0.5688
H36 H 1.0759 0.2042 0.5883
C29 C 1.2685(3) 0.3005(6) 0.85628(14)
H37 H 1.2036 0.4039 0.8535
H38 H 1.3198 0.3329 0.8903
C30 C 1.3411(3) 0.3201(6) 0.80505(14)
H39 H 1.4086 0.2218 0.8087
H40 H 1.3739 0.4626 0.8036
C31 C 1.2674(3) 0.2750(6) 0.75001(13)
H41 H 1.2011 0.3781 0.7474
C32 C 1.3440(3) 0.3174(6) 0.70053(14)
H42 H 1.3790 0.4565 0.7044
H43 H 1.2947 0.3094 0.6653
H44 H 1.4074 0.2135 0.7002
C33 C 1.3170(3) -0.0701(7) 0.88008(15)
H45 H 1.3837 -0.0484 0.8564
H46 H 1.2879 -0.2129 0.8755
H47 H 1.3434 -0.0464 0.9195
C34 C 1.0670(4) -0.1262(8) 0.91555(16)
H48 H 1.0100 -0.1144 0.9452
H49 H 1.1264 -0.2333 0.9273
C35 C 1.0018(3) -0.1908(8) 0.86057(15)
H50 H 0.9333 -0.0971 0.8526
H51 H 0.9710 -0.3338 0.8643
C36 C 1.0825(3) -0.1834(6) 0.81135(14)
H52 H 1.0347 -0.2134 0.7761
H53 H 1.1438 -0.2929 0.8165
C37 C 1.3033(3) -0.1139(6) 0.74394(15)
H54 H 1.3698 -0.0914 0.7716
H55 H 1.3316 -0.1063 0.7061
H56 H 1.2687 -0.2513 0.7498
loop_
_geom_bond_atom_site_label_1
_geom_bond_atom_site_label_2
_geom_bond_site_symmetry_1
_geom_bond_site_symmetry_2
O1 H1 1_555 1_555
H2 O1 1_555 1_555
O2 C10 1_555 1_555
O3 C10 1_555 1_555
O4 H3 1_555 1_555
O5 C20 1_555 1_555
O6 H4 1_555 1_555
O7 H5 1_555 1_555
C1 H6 1_555 1_555
H7 C1 1_555 1_555
C2 C1 1_555 1_555
C3 C2 1_555 1_555
C4 C3 1_555 1_555
H8 C4 1_555 1_555
C5 C4 1_555 1_555
C6 O7 1_555 1_555
H9 C6 1_555 1_555
C7 C6 1_555 1_555
H10 C7 1_555 1_555
H11 C7 1_555 1_555
C8 C7 1_555 1_555
C9 C8 1_555 1_555
H12 C9 1_555 1_555
C10 C9 1_555 1_555
C11 O2 1_555 1_555
H13 C11 1_555 1_555
C12 C11 1_555 1_555
H14 C12 1_555 1_555
H15 C12 1_555 1_555
C13 C12 1_555 1_555
H16 C13 1_555 1_555
H17 C13 1_555 1_555
C14 C13 1_555 1_555
H18 C14 1_555 1_555
H19 C14 1_555 1_555
C15 C14 1_555 1_555
H20 C15 1_555 1_555
H21 C15 1_555 1_555
C16 C15 1_555 1_555
H22 C16 1_555 1_555
H23 C16 1_555 1_555
H24 C16 1_555 1_555
C17 C11 1_555 1_555
H25 C17 1_555 1_555
C18 C17 1_555 1_555
H26 C18 1_555 1_555
H27 C18 1_555 1_555
C19 C8 1_555 1_555
H28 C19 1_555 1_555
C20 O4 1_555 1_555
C21 C9 1_555 1_555
H29 C21 1_555 1_555
C22 C21 1_555 1_555
C23 C22 1_555 1_555
H30 C23 1_555 1_555
C24 C23 1_555 1_555
H31 C24 1_555 1_555
C25 O6 1_555 1_555
C26 C25 1_555 1_555
H32 C26 1_555 1_555
C27 C22 1_555 1_555
H33 C27 1_555 1_555
C28 C8 1_555 1_555
H34 C28 1_555 1_555
H35 C28 1_555 1_555
H36 C28 1_555 1_555
C29 C3 1_555 1_555
H37 C29 1_555 1_555
H38 C29 1_555 1_555
C30 C29 1_555 1_555
H39 C30 1_555 1_555
H40 C30 1_555 1_555
C31 C5 1_555 1_555
H41 C31 1_555 1_555
C32 C31 1_555 1_555
H42 C32 1_555 1_555
H43 C32 1_555 1_555
H44 C32 1_555 1_555
C33 C3 1_555 1_555
H45 C33 1_555 1_555
H46 C33 1_555 1_555
H47 C33 1_555 1_555
C34 C2 1_555 1_555
H48 C34 1_555 1_555
H49 C34 1_555 1_555
C35 C34 1_555 1_555
H50 C35 1_555 1_555
H51 C35 1_555 1_555
C36 C4 1_555 1_555
H52 C36 1_555 1_555
H53 C36 1_555 1_555
C37 C5 1_555 1_555
H54 C37 1_555 1_555
H55 C37 1_555 1_555
H56 C37 1_555 1_555
C5 C6 1_555 1_555
C19 C20 1_555 1_555
C19 C21 1_555 1_555
C24 C25 1_555 1_555
C26 C27 1_555 1_555
C30 C31 1_555 1_555
C35 C36 1_555 1_555

#END
