
#######################################################################
#
#                 Cambridge Crystallographic Data Centre
#                                CCDC 
#
#######################################################################
#
# If this CIF has been generated from an entry in the Cambridge 
# Structural Database, then it will include bibliographic, chemical, 
# crystal, experimental, refinement or atomic coordinate data resulting 
# from the CCDC's data processing and validation procedures.
#
#######################################################################

data_TIMHUT
_chemical_compound_source        
'Cordyceps-colonizing isolate of Epicoccum nigrum'
_chemical_name_common            
"(2R,4R,7R,8R,9S,2'R,4'R,7'R,8'R,9'S)-epicoccin A monohydrate"
_chemical_formula_moiety         'C18 H18 N2 O6 S3,H2 O1'
_chemical_name_systematic        
'5,15-dihydroxy-21,22,23-trithia-3,13-diazaheptacyclo[14.4.2.1^6,11^.0^1,13^.0^3,11^.0^4,9^.0^14,19^]tricosane-2,8,12,18-tetrone monohydrate'
_chemical_properties_biological  'modest antimicrobial activity'
_symmetry_cell_setting           orthorhombic
_symmetry_space_group_name_H-M   'P 21 21 21'
_symmetry_Int_Tables_number      19
_space_group_name_Hall           'P 2ac 2ab'
loop_
_symmetry_equiv_pos_site_id
_symmetry_equiv_pos_as_xyz
1 x,y,z
2 1/2+x,1/2-y,-z
3 -x,1/2+y,1/2-z
4 1/2-x,-y,1/2+z
_cell_length_a                   7.5523(12)
_cell_length_b                   11.1218(14)
_cell_length_c                   22.853(3)
_cell_angle_alpha                90
_cell_angle_beta                 90
_cell_angle_gamma                90
_cell_volume                     1919.54
_exptl_crystal_colour            colorless
_exptl_crystal_description       prism
_cell_formula_units_Z            4
_exptl_crystal_recrystallization_method methanol/water
loop_
_atom_site_label
_atom_site_type_symbol
_atom_site_fract_x
_atom_site_fract_y
_atom_site_fract_z
S1 S 0.08925(7) 0.28467(5) 0.28086(2)
S2 S 0.31278(9) 0.19917(6) 0.14555(3)
S3 S 0.52818(8) 0.24660(5) 0.19290(3)
N1 N 0.3325(2) 0.45679(17) 0.18485(8)
N2 N 0.3431(2) 0.44995(16) 0.30477(8)
O1 O 0.0486(2) 0.52180(16) 0.18751(7)
O2 O -0.1055(2) 0.50430(17) 0.44560(8)
O3 O 0.2869(2) 0.28849(16) 0.44509(7)
H1 H 0.362(3) 0.322(2) 0.4647(11)
O4 O 0.6358(2) 0.40438(18) 0.30512(7)
O5 O 0.7969(3) 0.3646(2) 0.07438(9)
O6 O 0.2354(3) 0.46042(19) 0.02505(8)
H2 H 0.128(3) 0.499(3) 0.0236(15)
C1 C 0.1745(3) 0.47676(19) 0.21218(9)
C2 C 0.1693(3) 0.4419(2) 0.27630(9)
C3 C 0.0605(3) 0.5303(2) 0.31334(9)
H5 H -0.0646 0.5110 0.3115
H6 H 0.0776 0.6122 0.2999
C4 C 0.1328(3) 0.5140(2) 0.37677(10)
H7 H 0.1576 0.5927 0.3943
C5 C -0.0092(3) 0.4498(2) 0.41142(9)
C6 C -0.0444(3) 0.3196(2) 0.39580(10)
H8 H -0.1526 0.3150 0.3730
H9 H -0.0625 0.2741 0.4315
C7 C 0.1073(3) 0.2617(2) 0.36071(9)
H10 H 0.1031 0.1749 0.3679
C8 C 0.2862(3) 0.3076(2) 0.38327(9)
H11 H 0.3820 0.2611 0.3653
C9 C 0.3099(3) 0.4415(2) 0.36871(9)
H12 H 0.4069 0.4773 0.3913
C10 C 0.4971(3) 0.42172(19) 0.27846(10)
C11 C 0.4911(3) 0.41268(19) 0.21201(10)
C12 C 0.6365(3) 0.4822(2) 0.17879(10)
H13 H 0.7498 0.4414 0.1812
H14 H 0.6491 0.5635 0.1936
C13 C 0.5626(3) 0.4814(2) 0.11505(10)
H15 H 0.6022 0.5553 0.0957
C14 C 0.6365(3) 0.3735(3) 0.08021(11)
C15 C 0.5139(3) 0.2894(2) 0.04950(10)
H16 H 0.5655 0.2095 0.0500
H17 H 0.5043 0.3141 0.0089
C16 C 0.3270(3) 0.2825(2) 0.07573(10)
H18 H 0.2534 0.2390 0.0475
C17 C 0.2469(3) 0.4063(2) 0.08235(10)
H19 H 0.1277 0.3988 0.0989
C18 C 0.3594(3) 0.4884(2) 0.12215(10)
H20 H 0.3220 0.5719 0.1161
O7 O 0.5873(2) 0.38753(19) 0.49347(9)
H3 H 0.680(4) 0.432(3) 0.4812(14)
H4 H 0.626(4) 0.330(3) 0.5129(14)
loop_
_geom_bond_atom_site_label_1
_geom_bond_atom_site_label_2
_geom_bond_site_symmetry_1
_geom_bond_site_symmetry_2
S1 C2 1_555 1_555
S2 S3 1_555 1_555
S3 C11 1_555 1_555
N1 C1 1_555 1_555
N2 C2 1_555 1_555
O1 C1 1_555 1_555
O2 C5 1_555 1_555
O3 H1 1_555 1_555
O4 C10 1_555 1_555
O5 C14 1_555 1_555
O6 H2 1_555 1_555
O7 H3 1_555 1_555
H4 O7 1_555 1_555
C1 C2 1_555 1_555
C2 C3 1_555 1_555
C3 H5 1_555 1_555
H6 C3 1_555 1_555
C4 C3 1_555 1_555
H7 C4 1_555 1_555
C5 C4 1_555 1_555
C6 C5 1_555 1_555
H8 C6 1_555 1_555
H9 C6 1_555 1_555
C7 S1 1_555 1_555
H10 C7 1_555 1_555
C8 O3 1_555 1_555
H11 C8 1_555 1_555
C9 N2 1_555 1_555
H12 C9 1_555 1_555
C10 N2 1_555 1_555
C11 N1 1_555 1_555
C12 C11 1_555 1_555
H13 C12 1_555 1_555
H14 C12 1_555 1_555
C13 C12 1_555 1_555
H15 C13 1_555 1_555
C14 C13 1_555 1_555
C15 C14 1_555 1_555
H16 C15 1_555 1_555
H17 C15 1_555 1_555
C16 S2 1_555 1_555
H18 C16 1_555 1_555
C17 O6 1_555 1_555
H19 C17 1_555 1_555
C18 N1 1_555 1_555
H20 C18 1_555 1_555
C4 C9 1_555 1_555
C6 C7 1_555 1_555
C7 C8 1_555 1_555
C8 C9 1_555 1_555
C10 C11 1_555 1_555
C13 C18 1_555 1_555
C15 C16 1_555 1_555
C16 C17 1_555 1_555
C17 C18 1_555 1_555

#END
