
#######################################################################
#
#                 Cambridge Crystallographic Data Centre
#                                CCDC 
#
#######################################################################
#
# If this CIF has been generated from an entry in the Cambridge 
# Structural Database, then it will include bibliographic, chemical, 
# crystal, experimental, refinement or atomic coordinate data resulting 
# from the CCDC's data processing and validation procedures.
#
#######################################################################

data_TIMKIL
_chemical_formula_moiety         'C14 H17 N3 O3'
_chemical_name_systematic        
2-Methyl-4-(3-nitrophenyl)-2,3-diazabicyclo[3.3.1]non-3-en-1-ol
_symmetry_cell_setting           triclinic
_symmetry_space_group_name_H-M   'P -1'
_symmetry_Int_Tables_number      2
_space_group_name_Hall           '-P 1'
loop_
_symmetry_equiv_pos_site_id
_symmetry_equiv_pos_as_xyz
1 x,y,z
2 -x,-y,-z
_cell_length_a                   7.3334(9)
_cell_length_b                   9.7725(12)
_cell_length_c                   10.3443(12)
_cell_angle_alpha                67.448(2)
_cell_angle_beta                 76.539(2)
_cell_angle_gamma                79.385(2)
_cell_volume                     662.105
_exptl_crystal_colour            green
_exptl_crystal_description       prismatic
_cell_formula_units_Z            2
loop_
_atom_site_label
_atom_site_type_symbol
_atom_site_fract_x
_atom_site_fract_y
_atom_site_fract_z
N1 N -0.03001(18) 0.83400(13) 0.38567(13)
N2 N -0.01165(18) 0.70193(13) 0.50138(13)
N3 N -0.3374(2) 1.28435(16) 0.03893(16)
O1 O 0.16030(17) 0.47870(11) 0.61823(11)
H1 H 0.1259 0.4351 0.5759
O2 O -0.4614(2) 1.23594(18) 0.14110(18)
O3 O -0.3676(2) 1.38596(18) -0.06920(15)
C1 C 0.1797(2) 0.62821(16) 0.52859(16)
C2 C 0.2704(2) 0.69473(17) 0.60619(17)
H2 H 0.3877 0.6347 0.6286
H3 H 0.1874 0.6910 0.6952
C3 C 0.3104(3) 0.85545(18) 0.51951(18)
H4 H 0.1923 0.9195 0.5158
H5 H 0.3868 0.8863 0.5663
C4 C 0.4123(2) 0.87433(19) 0.36881(19)
H6 H 0.5402 0.8263 0.3712
H7 H 0.4187 0.9795 0.3134
C5 C 0.3109(2) 0.80640(17) 0.29695(17)
H8 H 0.3810 0.8180 0.2010
C6 C 0.2992(2) 0.64137(17) 0.38458(17)
H9 H 0.2427 0.5960 0.3370
H10 H 0.4244 0.5906 0.3958
C7 C 0.1128(2) 0.88081(16) 0.28848(15)
C8 C 0.0747(2) 1.02098(16) 0.16878(16)
C9 C 0.2197(3) 1.0948(2) 0.06738(19)
H11 H 0.3439 1.0540 0.0729
C10 C 0.1833(3) 1.2274(2) -0.0414(2)
H12 H 0.2831 1.2742 -0.1080
C11 C 0.0020(3) 1.2908(2) -0.05232(19)
H13 H -0.0234 1.3800 -0.1253
C12 C -0.1413(3) 1.21774(18) 0.04864(17)
C13 C -0.1100(2) 1.08483(17) 0.15731(16)
H14 H -0.2108 1.0381 0.2224
C14 C -0.1505(2) 0.71293(18) 0.62487(17)
H15 H -0.1218 0.7883 0.6529
H16 H -0.1468 0.6189 0.7021
H17 H -0.2742 0.7388 0.6006
loop_
_geom_bond_atom_site_label_1
_geom_bond_atom_site_label_2
_geom_bond_site_symmetry_1
_geom_bond_site_symmetry_2
N1 N2 1_555 1_555
N2 C1 1_555 1_555
N3 O2 1_555 1_555
O1 H1 1_555 1_555
O3 N3 1_555 1_555
C1 O1 1_555 1_555
C2 C1 1_555 1_555
H2 C2 1_555 1_555
H3 C2 1_555 1_555
C3 C2 1_555 1_555
H4 C3 1_555 1_555
H5 C3 1_555 1_555
C4 C3 1_555 1_555
H6 C4 1_555 1_555
H7 C4 1_555 1_555
C5 C4 1_555 1_555
H8 C5 1_555 1_555
C6 C1 1_555 1_555
H9 C6 1_555 1_555
H10 C6 1_555 1_555
C7 N1 1_555 1_555
C8 C7 1_555 1_555
C9 C8 1_555 1_555
H11 C9 1_555 1_555
C10 C9 1_555 1_555
H12 C10 1_555 1_555
C11 C10 1_555 1_555
H13 C11 1_555 1_555
C12 N3 1_555 1_555
C13 C8 1_555 1_555
H14 C13 1_555 1_555
C14 N2 1_555 1_555
H15 C14 1_555 1_555
H16 C14 1_555 1_555
H17 C14 1_555 1_555
C5 C6 1_555 1_555
C5 C7 1_555 1_555
C11 C12 1_555 1_555
C12 C13 1_555 1_555

#END
