
#######################################################################
#
#                 Cambridge Crystallographic Data Centre
#                                CCDC 
#
#######################################################################
#
# If this CIF has been generated from an entry in the Cambridge 
# Structural Database, then it will include bibliographic, chemical, 
# crystal, experimental, refinement or atomic coordinate data resulting 
# from the CCDC's data processing and validation procedures.
#
#######################################################################

data_TIMKOR
_chemical_formula_moiety         'C21 H22 N2 O3'
_chemical_name_systematic        
'Ethyl 1-(4-methoxyphenyl)-6-methyl-4-phenyl-1,4-dihydropyridazine-3-carboxylate'
_symmetry_cell_setting           monoclinic
_symmetry_space_group_name_H-M   'C 2'
_symmetry_Int_Tables_number      5
_space_group_name_Hall           'C 2y'
loop_
_symmetry_equiv_pos_site_id
_symmetry_equiv_pos_as_xyz
1 x,y,z
2 -x,y,-z
3 1/2+x,1/2+y,z
4 1/2-x,1/2+y,-z
_cell_length_a                   18.664(2)
_cell_length_b                   8.2652(9)
_cell_length_c                   12.1851(13)
_cell_angle_alpha                90
_cell_angle_beta                 97.374(2)
_cell_angle_gamma                90
_cell_volume                     1864.15
_exptl_crystal_colour            brown
_exptl_crystal_description       prismatic
_cell_formula_units_Z            4
loop_
_atom_site_label
_atom_site_type_symbol
_atom_site_fract_x
_atom_site_fract_y
_atom_site_fract_z
N1 N 0.17668(10) 0.3871(2) 0.45997(13)
N2 N 0.19916(10) 0.3259(2) 0.36679(14)
O1 O 0.14311(10) 0.2696(3) 0.08725(13)
O2 O 0.24989(9) 0.2223(3) 0.18731(11)
O3 O 0.35124(9) 0.2583(3) 0.85460(13)
C1 C 0.11884(12) 0.4974(3) 0.45366(18)
C2 C 0.07431(13) 0.5086(3) 0.36085(19)
H1 H 0.0390 0.5888 0.3546
C3 C 0.07846(12) 0.3966(3) 0.26477(17)
H2 H 0.0692 0.4597 0.1963
C4 C 0.15582(12) 0.3358(3) 0.27587(16)
C5 C 0.18171(14) 0.2734(3) 0.17402(18)
C6 C 0.27520(16) 0.1491(5) 0.0896(2)
H3 H 0.2427 0.0628 0.0615
H4 H 0.2757 0.2298 0.0319
C7 C 0.34708(19) 0.0851(4) 0.1193(2)
H5 H 0.3796 0.1719 0.1428
H6 H 0.3627 0.0323 0.0563
H7 H 0.3467 0.0086 0.1785
C8 C 0.22390(11) 0.3573(3) 0.55943(15)
C9 C 0.19965(12) 0.2651(3) 0.64132(17)
H8 H 0.1531 0.2229 0.6307
C10 C 0.24341(12) 0.2348(3) 0.73822(18)
H9 H 0.2263 0.1725 0.7929
C11 C 0.31197(11) 0.2957(3) 0.75497(17)
C12 C 0.33685(12) 0.3864(3) 0.67308(19)
H10 H 0.3836 0.4274 0.6832
C13 C 0.29251(12) 0.4164(3) 0.57633(18)
H11 H 0.3096 0.4781 0.5214
C14 C 0.42107(14) 0.3262(5) 0.8786(2)
H12 H 0.4518 0.2838 0.8281
H13 H 0.4407 0.2990 0.9530
H14 H 0.4181 0.4416 0.8711
C15 C 0.02389(11) 0.2595(3) 0.25918(16)
C16 C -0.02250(14) 0.2258(4) 0.16374(19)
H15 H -0.0203 0.2884 0.1008
C17 C -0.07205(14) 0.1010(4) 0.1603(2)
H16 H -0.1028 0.0810 0.0955
C18 C -0.07602(13) 0.0081(4) 0.2503(3)
H17 H -0.1093 -0.0760 0.2476
C19 C -0.03076(12) 0.0382(3) 0.3459(2)
H18 H -0.0331 -0.0264 0.4078
C20 C 0.01809(11) 0.1635(3) 0.35062(18)
H19 H 0.0477 0.1840 0.4165
C21 C 0.11488(14) 0.6006(3) 0.5537(2)
H20 H 0.0795 0.6841 0.5362
H21 H 0.1612 0.6488 0.5763
H22 H 0.1014 0.5349 0.6127
loop_
_geom_bond_atom_site_label_1
_geom_bond_atom_site_label_2
_geom_bond_site_symmetry_1
_geom_bond_site_symmetry_2
N1 N2 1_555 1_555
N2 C4 1_555 1_555
O1 C5 1_555 1_555
O2 C5 1_555 1_555
O3 C11 1_555 1_555
C1 N1 1_555 1_555
C2 C1 1_555 1_555
H1 C2 1_555 1_555
C3 C2 1_555 1_555
H2 C3 1_555 1_555
C4 C3 1_555 1_555
C5 C4 1_555 1_555
C6 O2 1_555 1_555
H3 C6 1_555 1_555
H4 C6 1_555 1_555
C7 C6 1_555 1_555
H5 C7 1_555 1_555
H6 C7 1_555 1_555
H7 C7 1_555 1_555
C8 N1 1_555 1_555
C9 C8 1_555 1_555
H8 C9 1_555 1_555
C10 C9 1_555 1_555
H9 C10 1_555 1_555
C11 C10 1_555 1_555
C12 C11 1_555 1_555
H10 C12 1_555 1_555
C13 C8 1_555 1_555
H11 C13 1_555 1_555
C14 O3 1_555 1_555
H12 C14 1_555 1_555
H13 C14 1_555 1_555
H14 C14 1_555 1_555
C15 C3 1_555 1_555
C16 C15 1_555 1_555
H15 C16 1_555 1_555
C17 C16 1_555 1_555
H16 C17 1_555 1_555
C18 C17 1_555 1_555
H17 C18 1_555 1_555
C19 C18 1_555 1_555
H18 C19 1_555 1_555
C20 C15 1_555 1_555
H19 C20 1_555 1_555
C21 C1 1_555 1_555
H20 C21 1_555 1_555
H21 C21 1_555 1_555
H22 C21 1_555 1_555
C12 C13 1_555 1_555
C19 C20 1_555 1_555

#END
