
#######################################################################
#
#                 Cambridge Crystallographic Data Centre
#                                CCDC 
#
#######################################################################
#
# If this CIF has been generated from an entry in the Cambridge 
# Structural Database, then it will include bibliographic, chemical, 
# crystal, experimental, refinement or atomic coordinate data resulting 
# from the CCDC's data processing and validation procedures.
#
#######################################################################

data_TIMLAE
_chemical_formula_moiety         'C23 H22 Br1 N1 O5'
_chemical_name_systematic        
'Ethyl 5-(acetoxymethyl)-3-(4-bromophenyl)-1-(4-methoxyphenyl)-1H-pyrrole-2-carboxylate'
_symmetry_cell_setting           monoclinic
_symmetry_space_group_name_H-M   'P 21/c'
_symmetry_Int_Tables_number      14
_space_group_name_Hall           '-P 2ybc'
loop_
_symmetry_equiv_pos_site_id
_symmetry_equiv_pos_as_xyz
1 x,y,z
2 -x,1/2+y,1/2-z
3 -x,-y,-z
4 x,1/2-y,1/2+z
_cell_length_a                   15.558(3)
_cell_length_b                   8.9431(16)
_cell_length_c                   15.559(3)
_cell_angle_alpha                90
_cell_angle_beta                 91.684(3)
_cell_angle_gamma                90
_cell_volume                     2163.89
_exptl_crystal_colour            colorless
_exptl_crystal_description       prismatic
_cell_formula_units_Z            4
loop_
_atom_site_label
_atom_site_type_symbol
_atom_site_fract_x
_atom_site_fract_y
_atom_site_fract_z
Br1 Br 1.32682(2) 0.13075(5) 0.22976(3)
N1 N 0.81521(13) 0.2410(2) 0.08045(14)
O1 O 0.55430(15) 0.4069(3) -0.15075(16)
O2 O 0.68022(12) 0.0191(2) 0.14388(14)
O3 O 0.54820(18) 0.1082(4) 0.1266(2)
O4 O 0.90699(15) 0.3661(3) -0.06427(16)
O5 O 1.01972(12) 0.2368(2) -0.01491(12)
C1 C 0.7088(2) 0.1537(3) 0.1864(2)
H1 H 0.7074 0.1413 0.2483
H2 H 0.6716 0.2367 0.1700
C2 C 0.79807(18) 0.1833(3) 0.15979(17)
C3 C 0.87470(18) 0.1545(3) 0.20105(17)
H3 H 0.8816 0.1158 0.2563
C4 C 0.94136(17) 0.1926(3) 0.14672(17)
C5 C 0.90291(16) 0.2448(3) 0.07111(17)
C6 C 0.74981(16) 0.2870(3) 0.01941(17)
C7 C 0.7167(2) 0.4278(3) 0.0233(2)
H4 H 0.7386 0.4944 0.0642
C8 C 0.6511(2) 0.4733(4) -0.0325(2)
H5 H 0.6292 0.5698 -0.0291
C9 C 0.61853(19) 0.3757(3) -0.09292(19)
C10 C 0.6521(2) 0.2341(4) -0.09718(19)
H6 H 0.6305 0.1676 -0.1384
C11 C 0.7171(2) 0.1892(3) -0.04162(18)
H7 H 0.7391 0.0928 -0.0451
C12 C 0.5192(2) 0.5527(5) -0.1509(3)
H8 H 0.4923 0.5709 -0.0972
H9 H 0.4773 0.5618 -0.1971
H10 H 0.5643 0.6244 -0.1585
C13 C 0.5986(2) 0.0121(4) 0.1155(2)
C14 C 0.5827(3) -0.1295(5) 0.0673(3)
H11 H 0.5787 -0.2110 0.1072
H12 H 0.6292 -0.1475 0.0295
H13 H 0.5299 -0.1214 0.0342
C15 C 1.03391(17) 0.1796(3) 0.16705(16)
C16 C 1.06840(19) 0.0469(3) 0.19759(19)
H14 H 1.0322 -0.0343 0.2057
C17 C 1.1549(2) 0.0319(3) 0.2163(2)
H15 H 1.1772 -0.0585 0.2365
C18 C 1.20763(18) 0.1518(3) 0.20487(19)
C19 C 1.17562(18) 0.2860(3) 0.17673(19)
H16 H 1.2121 0.3673 0.1700
C20 C 1.08964(18) 0.2995(3) 0.15856(17)
H17 H 1.0679 0.3913 0.1401
C21 C 0.94108(18) 0.2913(3) -0.00968(18)
C22 C 1.07190(19) 0.2853(4) -0.08444(19)
H18 H 1.0806 0.3926 -0.0819
H19 H 1.0443 0.2606 -0.1393
C23 C 1.1552(2) 0.2059(4) -0.0741(2)
H20 H 1.1820 0.2325 -0.0199
H21 H 1.1920 0.2339 -0.1199
H22 H 1.1454 0.0999 -0.0759
loop_
_geom_bond_atom_site_label_1
_geom_bond_atom_site_label_2
_geom_bond_site_symmetry_1
_geom_bond_site_symmetry_2
Br1 C18 1_555 1_555
N1 C2 1_555 1_555
O1 C9 1_555 1_555
O2 C1 1_555 1_555
O3 C13 1_555 1_555
O4 C21 1_555 1_555
O5 C21 1_555 1_555
C1 H1 1_555 1_555
H2 C1 1_555 1_555
C2 C1 1_555 1_555
C3 C2 1_555 1_555
H3 C3 1_555 1_555
C4 C3 1_555 1_555
C5 N1 1_555 1_555
C6 N1 1_555 1_555
C7 C6 1_555 1_555
H4 C7 1_555 1_555
C8 C7 1_555 1_555
H5 C8 1_555 1_555
C9 C8 1_555 1_555
C10 C9 1_555 1_555
H6 C10 1_555 1_555
C11 C6 1_555 1_555
H7 C11 1_555 1_555
C12 O1 1_555 1_555
H8 C12 1_555 1_555
H9 C12 1_555 1_555
H10 C12 1_555 1_555
C13 O2 1_555 1_555
C14 C13 1_555 1_555
H11 C14 1_555 1_555
H12 C14 1_555 1_555
H13 C14 1_555 1_555
C15 C4 1_555 1_555
C16 C15 1_555 1_555
H14 C16 1_555 1_555
C17 C16 1_555 1_555
H15 C17 1_555 1_555
C18 C17 1_555 1_555
C19 C18 1_555 1_555
H16 C19 1_555 1_555
C20 C15 1_555 1_555
H17 C20 1_555 1_555
C21 C5 1_555 1_555
C22 O5 1_555 1_555
H18 C22 1_555 1_555
H19 C22 1_555 1_555
C23 C22 1_555 1_555
H20 C23 1_555 1_555
H21 C23 1_555 1_555
H22 C23 1_555 1_555
C4 C5 1_555 1_555
C10 C11 1_555 1_555
C19 C20 1_555 1_555

#END
