
#######################################################################
#
#                 Cambridge Crystallographic Data Centre
#                                CCDC 
#
#######################################################################
#
# If this CIF has been generated from an entry in the Cambridge 
# Structural Database, then it will include bibliographic, chemical, 
# crystal, experimental, refinement or atomic coordinate data resulting 
# from the CCDC's data processing and validation procedures.
#
#######################################################################

data_TIMLEI
_chemical_formula_moiety         'C24 H34 N4 O1'
_chemical_name_systematic        
2,2,6,6-Tetramethyl-1-((3-(4-phenyl-1H-1,2,3-triazol-1-yl)bicyclo[2.2.1]hept-2-yl)oxy)piperidine
_symmetry_cell_setting           monoclinic
_symmetry_space_group_name_H-M   'P 21/c'
_symmetry_Int_Tables_number      14
_space_group_name_Hall           '-P 2ybc'
loop_
_symmetry_equiv_pos_site_id
_symmetry_equiv_pos_as_xyz
1 x,y,z
2 -x,1/2+y,1/2-z
3 -x,-y,-z
4 x,1/2-y,1/2+z
_cell_length_a                   14.7460(8)
_cell_length_b                   14.2862(8)
_cell_length_c                   11.1084(5)
_cell_angle_alpha                90
_cell_angle_beta                 107.787(2)
_cell_angle_gamma                90
_cell_volume                     2228.28
_exptl_crystal_colour            colorless
_exptl_crystal_description       plate
_cell_formula_units_Z            4
loop_
_atom_site_label
_atom_site_type_symbol
_atom_site_fract_x
_atom_site_fract_y
_atom_site_fract_z
O1 O 0.28693(12) 0.19989(12) 0.53157(15)
N1 N 0.52338(16) 0.25269(16) 0.6960(2)
N2 N 0.52420(18) 0.24580(18) 0.8175(2)
N3 N 0.61052(18) 0.21815(17) 0.8833(2)
C1 C 0.43930(19) 0.28560(19) 0.5958(2)
H1 H 0.4383 0.2565 0.5145
C2 C 0.4385(2) 0.3924(2) 0.5822(3)
H2 H 0.5017 0.4214 0.5959
C3 C 0.3645(3) 0.4160(2) 0.4560(3)
H3 H 0.3729 0.3767 0.3879
H4 H 0.3688 0.4820 0.4341
C4 C 0.2683(2) 0.3953(2) 0.4790(3)
H5 H 0.2289 0.4518 0.4682
H6 H 0.2329 0.3466 0.4217
C5 C 0.2989(2) 0.3620(2) 0.6158(3)
H7 H 0.2487 0.3668 0.6577
C6 C 0.34383(18) 0.26436(19) 0.6227(2)
H8 H 0.3568 0.2384 0.7090
C7 C 0.6091(2) 0.2306(2) 0.6858(3)
H9 H 0.6271 0.2306 0.6117
C8 C 0.3870(2) 0.4215(2) 0.6764(3)
H10 H 0.4208 0.4024 0.7633
H11 H 0.3729 0.4887 0.6734
C9 C 0.6650(2) 0.2080(2) 0.8052(3)
N4 N 0.25986(15) 0.11838(15) 0.59156(18)
C10 C 0.15365(19) 0.1193(2) 0.5594(3)
C11 C 0.1276(2) 0.0313(2) 0.6201(3)
H12 H 0.1525 0.0374 0.7122
H13 H 0.0581 0.0269 0.5973
C12 C 0.1656(2) -0.0578(2) 0.5810(3)
H14 H 0.1368 -0.0680 0.4900
H15 H 0.1493 -0.1112 0.6260
C13 C 0.2728(2) -0.0500(2) 0.6124(3)
H16 H 0.2970 -0.1068 0.5833
H17 H 0.3009 -0.0467 0.7044
C14 C 0.3052(2) 0.03501(19) 0.5531(2)
C15 C 0.1274(2) 0.2044(2) 0.6241(3)
H18 H 0.1691 0.2080 0.7105
H19 H 0.0619 0.1988 0.6243
H20 H 0.1344 0.2606 0.5788
C16 C 0.0981(2) 0.1254(2) 0.4174(3)
H21 H 0.1279 0.1713 0.3774
H22 H 0.0329 0.1441 0.4072
H23 H 0.0984 0.0648 0.3783
C17 C 0.4126(2) 0.0450(2) 0.6113(3)
H24 H 0.4356 0.0939 0.5675
H25 H 0.4432 -0.0137 0.6034
H26 H 0.4272 0.0613 0.6999
C18 C 0.2846(2) 0.0221(2) 0.4099(3)
H27 H 0.2199 -0.0003 0.3732
H28 H 0.3288 -0.0231 0.3943
H29 H 0.2920 0.0816 0.3719
C19 C 0.7650(2) 0.1790(2) 0.8522(3)
C20 C 0.8226(2) 0.1813(3) 0.7744(4)
H30 H 0.7978 0.2024 0.6906
C21 C 0.9176(3) 0.1522(3) 0.8201(5)
H31 H 0.9563 0.1534 0.7668
C22 C 0.9539(3) 0.1222(3) 0.9410(6)
H32 H 1.0178 0.1029 0.9706
C23 C 0.8995(3) 0.1197(3) 1.0202(5)
H33 H 0.9258 0.0993 1.1041
C24 C 0.8042(3) 0.1478(2) 0.9758(4)
H34 H 0.7662 0.1455 1.0301
loop_
_geom_bond_atom_site_label_1
_geom_bond_atom_site_label_2
_geom_bond_site_symmetry_1
_geom_bond_site_symmetry_2
O1 C6 1_555 1_555
N1 N2 1_555 1_555
N2 N3 1_555 1_555
N3 C9 1_555 1_555
C1 N1 1_555 1_555
H1 C1 1_555 1_555
C2 C1 1_555 1_555
H2 C2 1_555 1_555
C3 C2 1_555 1_555
H3 C3 1_555 1_555
H4 C3 1_555 1_555
C4 C3 1_555 1_555
H5 C4 1_555 1_555
H6 C4 1_555 1_555
C5 C4 1_555 1_555
H7 C5 1_555 1_555
C6 C1 1_555 1_555
H8 C6 1_555 1_555
C7 N1 1_555 1_555
H9 C7 1_555 1_555
C8 C2 1_555 1_555
H10 C8 1_555 1_555
H11 C8 1_555 1_555
C9 C7 1_555 1_555
N4 O1 1_555 1_555
C10 N4 1_555 1_555
C11 C10 1_555 1_555
H12 C11 1_555 1_555
H13 C11 1_555 1_555
C12 C11 1_555 1_555
H14 C12 1_555 1_555
H15 C12 1_555 1_555
C13 C12 1_555 1_555
H16 C13 1_555 1_555
H17 C13 1_555 1_555
C14 N4 1_555 1_555
C15 C10 1_555 1_555
H18 C15 1_555 1_555
H19 C15 1_555 1_555
H20 C15 1_555 1_555
C16 C10 1_555 1_555
H21 C16 1_555 1_555
H22 C16 1_555 1_555
H23 C16 1_555 1_555
C17 C14 1_555 1_555
H24 C17 1_555 1_555
H25 C17 1_555 1_555
H26 C17 1_555 1_555
C18 C14 1_555 1_555
H27 C18 1_555 1_555
H28 C18 1_555 1_555
H29 C18 1_555 1_555
C19 C9 1_555 1_555
C20 C19 1_555 1_555
H30 C20 1_555 1_555
C21 C20 1_555 1_555
H31 C21 1_555 1_555
C22 C21 1_555 1_555
H32 C22 1_555 1_555
C23 C22 1_555 1_555
H33 C23 1_555 1_555
C24 C19 1_555 1_555
H34 C24 1_555 1_555
C5 C6 1_555 1_555
C5 C8 1_555 1_555
C13 C14 1_555 1_555
C23 C24 1_555 1_555

#END
