
#######################################################################
#
#                 Cambridge Crystallographic Data Centre
#                                CCDC 
#
#######################################################################
#
# If this CIF has been generated from an entry in the Cambridge 
# Structural Database, then it will include bibliographic, chemical, 
# crystal, experimental, refinement or atomic coordinate data resulting 
# from the CCDC's data processing and validation procedures.
#
#######################################################################

data_TIMMEJ
_chemical_formula_moiety         'C12 H12 F1 N1 O3'
_chemical_name_systematic        'Methyl 3-acetamido-3-(4-fluorophenyl)acrylate'
_symmetry_cell_setting           orthorhombic
_symmetry_space_group_name_H-M   'P 21 21 21'
_symmetry_Int_Tables_number      19
_space_group_name_Hall           'P 2ac 2ab'
loop_
_symmetry_equiv_pos_site_id
_symmetry_equiv_pos_as_xyz
1 x,y,z
2 1/2-x,-y,1/2+z
3 1/2+x,1/2-y,-z
4 -x,1/2+y,1/2-z
_cell_length_a                   8.9371(12)
_cell_length_b                   12.7168(17)
_cell_length_c                   20.942(3)
_cell_angle_alpha                90
_cell_angle_beta                 90
_cell_angle_gamma                90
_cell_volume                     2380.09
_exptl_crystal_colour            colorless
_exptl_crystal_description       block
_cell_formula_units_Z            8
loop_
_atom_site_label
_atom_site_type_symbol
_atom_site_fract_x
_atom_site_fract_y
_atom_site_fract_z
F1 F 0.1388(2) 0.03023(19) 0.05030(12)
N1 N 0.7181(3) -0.0511(2) 0.20380(13)
H1 H 0.6365 -0.0847 0.2114
O1 O 0.7008(3) 0.2148(2) 0.07304(16)
O2 O 0.9317(3) 0.2455(2) 0.10515(14)
O3 O 0.9663(2) -0.05046(17) 0.22730(12)
C1 C 0.2766(4) 0.0329(3) 0.0771(2)
C2 C 0.3797(5) -0.0355(3) 0.0565(2)
H2 H 0.3583 -0.0835 0.0242
C3 C 0.5204(4) -0.0320(3) 0.08520(19)
H3 H 0.5933 -0.0794 0.0720
C4 C 0.5543(3) 0.0377(2) 0.13144(15)
C5 C 0.4446(4) 0.1062(3) 0.1505(2)
H4 H 0.4649 0.1554 0.1821
C6 C 0.3041(4) 0.1030(3) 0.1230(2)
H5 H 0.2296 0.1491 0.1363
C7 C 0.7038(3) 0.0357(2) 0.16262(16)
C8 C 0.8130(4) 0.1052(3) 0.15214(17)
H6 H 0.9012 0.0981 0.1753
C9 C 0.8023(4) 0.1923(3) 0.1063(2)
C10 C 0.9399(5) 0.3306(3) 0.0606(2)
H7 H 0.9948 0.3086 0.0235
H8 H 0.9899 0.3892 0.0802
H9 H 0.8407 0.3511 0.0483
C11 C 0.8413(3) -0.0894(3) 0.23328(16)
C12 C 0.8134(4) -0.1835(3) 0.27445(19)
H10 H 0.7076 -0.1945 0.2786
H11 H 0.8564 -0.1721 0.3159
H12 H 0.8584 -0.2444 0.2552
F2 F 1.3726(2) 0.20943(18) 0.44558(11)
N2 N 0.7840(3) 0.2958(2) 0.29629(13)
H13 H 0.8649 0.3294 0.2875
O4 O 0.7974(3) 0.0468(2) 0.43724(13)
O5 O 0.5940(3) -0.01223(19) 0.38932(13)
O6 O 0.5343(2) 0.29570(18) 0.27701(12)
C13 C 1.2334(4) 0.2101(3) 0.41908(18)
C14 C 1.1375(4) 0.2870(3) 0.43590(18)
H14 H 1.1659 0.3386 0.4649
C15 C 0.9970(4) 0.2875(3) 0.40928(17)
H15 H 0.9305 0.3412 0.4195
C16 C 0.9533(3) 0.2090(2) 0.36739(14)
C17 C 1.0555(4) 0.1321(3) 0.35216(18)
H16 H 1.0289 0.0791 0.3238
C18 C 1.1961(4) 0.1328(3) 0.3784(2)
H17 H 1.2647 0.0805 0.3681
C19 C 0.8010(3) 0.2111(2) 0.33793(16)
C20 C 0.6951(4) 0.1401(3) 0.34918(17)
H18 H 0.6077 0.1444 0.3253
C21 C 0.7060(4) 0.0567(3) 0.3960(2)
C22 C 0.5894(5) -0.0975(3) 0.4349(2)
H19 H 0.6612 -0.1502 0.4231
H20 H 0.4911 -0.1279 0.4353
H21 H 0.6130 -0.0712 0.4767
C23 C 0.6579(3) 0.3333(3) 0.26742(17)
C24 C 0.6825(4) 0.4233(3) 0.2234(2)
H22 H 0.5881 0.4550 0.2130
H23 H 0.7297 0.3987 0.1850
H24 H 0.7457 0.4744 0.2437
loop_
_geom_bond_atom_site_label_1
_geom_bond_atom_site_label_2
_geom_bond_site_symmetry_1
_geom_bond_site_symmetry_2
F1 C1 1_555 1_555
N1 H1 1_555 1_555
O1 C9 1_555 1_555
O2 C9 1_555 1_555
O3 C11 1_555 1_555
C1 C2 1_555 1_555
C2 H2 1_555 1_555
C3 C2 1_555 1_555
H3 C3 1_555 1_555
C4 C3 1_555 1_555
C5 C4 1_555 1_555
H4 C5 1_555 1_555
C6 C1 1_555 1_555
H5 C6 1_555 1_555
C7 N1 1_555 1_555
C8 C7 1_555 1_555
H6 C8 1_555 1_555
C9 C8 1_555 1_555
C10 O2 1_555 1_555
H7 C10 1_555 1_555
H8 C10 1_555 1_555
H9 C10 1_555 1_555
C11 N1 1_555 1_555
C12 C11 1_555 1_555
H10 C12 1_555 1_555
H11 C12 1_555 1_555
H12 C12 1_555 1_555
F2 C13 1_555 1_555
N2 H13 1_555 1_555
O4 C21 1_555 1_555
O5 C21 1_555 1_555
O6 C23 1_555 1_555
C13 C14 1_555 1_555
C14 H14 1_555 1_555
C15 C14 1_555 1_555
H15 C15 1_555 1_555
C16 C15 1_555 1_555
C17 C16 1_555 1_555
H16 C17 1_555 1_555
C18 C13 1_555 1_555
H17 C18 1_555 1_555
C19 N2 1_555 1_555
C20 C19 1_555 1_555
H18 C20 1_555 1_555
C21 C20 1_555 1_555
C22 O5 1_555 1_555
H19 C22 1_555 1_555
H20 C22 1_555 1_555
H21 C22 1_555 1_555
C23 N2 1_555 1_555
C24 C23 1_555 1_555
H22 C24 1_555 1_555
H23 C24 1_555 1_555
H24 C24 1_555 1_555
C4 C7 1_555 1_555
C5 C6 1_555 1_555
C16 C19 1_555 1_555
C17 C18 1_555 1_555

#END
