
#######################################################################
#
#                 Cambridge Crystallographic Data Centre
#                                CCDC 
#
#######################################################################
#
# If this CIF has been generated from an entry in the Cambridge 
# Structural Database, then it will include bibliographic, chemical, 
# crystal, experimental, refinement or atomic coordinate data resulting 
# from the CCDC's data processing and validation procedures.
#
#######################################################################

data_TIMQIR
_chemical_formula_moiety         'C42 H50 N4'
_chemical_name_systematic        
2,2'-(5,6-Dipropyldeca-4,6-diene-4,7-diyl)bis(1-(diphenylmethylene)hydrazine)
_symmetry_cell_setting           tetragonal
_symmetry_space_group_name_H-M   'I -4'
_symmetry_Int_Tables_number      82
_space_group_name_Hall           'I -4'
loop_
_symmetry_equiv_pos_site_id
_symmetry_equiv_pos_as_xyz
1 x,y,z
2 y,-x,-z
3 -x,-y,z
4 -y,x,-z
5 1/2+x,1/2+y,1/2+z
6 1/2+y,1/2-x,1/2-z
7 1/2-x,1/2-y,1/2+z
8 1/2-y,1/2+x,1/2-z
_cell_length_a                   13.3049(7)
_cell_length_b                   13.3049(7)
_cell_length_c                   21.044(2)
_cell_angle_alpha                90
_cell_angle_beta                 90
_cell_angle_gamma                90
_cell_volume                     3725.22
_exptl_crystal_colour            yellow
_cell_formula_units_Z            4
loop_
_atom_site_label
_atom_site_type_symbol
_atom_site_fract_x
_atom_site_fract_y
_atom_site_fract_z
N1 N 0.5864(2) 0.64351(19) 0.79060(14)
N2 N 0.5834(2) 0.5950(2) 0.73334(14)
H1 H 0.602(2) 0.525(3) 0.7306(15)
C1 C 0.6438(2) 0.6080(2) 0.83480(16)
C2 C 0.6477(2) 0.6634(2) 0.89593(18)
C3 C 0.6159(3) 0.7623(3) 0.8996(2)
H2 H 0.5925 0.7957 0.8625
C4 C 0.6183(4) 0.8125(3) 0.9570(2)
H3 H 0.5978 0.8808 0.9588
C5 C 0.6501(3) 0.7648(4) 1.0117(2)
H4 H 0.6507 0.7995 1.0512
C6 C 0.6808(3) 0.6664(4) 1.00812(19)
H5 H 0.7027 0.6328 1.0454
C7 C 0.6801(3) 0.6163(3) 0.95134(18)
H6 H 0.7021 0.5485 0.9497
C8 C 0.7031(2) 0.5132(2) 0.82760(15)
C9 C 0.8060(3) 0.5163(3) 0.8236(2)
H7 H 0.8402 0.5785 0.8282
C10 C 0.8609(4) 0.4276(4) 0.8129(2)
H8 H 0.9321 0.4298 0.8092
C11 C 0.8107(4) 0.3372(4) 0.8077(2)
H9 H 0.8470 0.2770 0.8000
C12 C 0.7100(4) 0.3347(3) 0.8136(2)
H10 H 0.6760 0.2720 0.8111
C13 C 0.6552(3) 0.4216(3) 0.8231(2)
H11 H 0.5841 0.4182 0.8266
C14 C 0.5085(2) 0.6207(2) 0.68872(16)
C15 C 0.4798(3) 0.5526(3) 0.64562(17)
C16 C 0.4742(3) 0.7283(3) 0.6925(3)
H12 H 0.4174 0.7365 0.6626
H13 H 0.4473 0.7396 0.7358
C17 C 0.5463(4) 0.8079(3) 0.6793(3)
H14 H 0.5147 0.8744 0.6863
H15 H 0.6048 0.8018 0.7081
C18 C 0.4055(3) 0.5753(3) 0.59294(19)
H16 H 0.4296 0.5446 0.5529
H17 H 0.4018 0.6489 0.5865
C19 C 0.2987(4) 0.5346(4) 0.6082(3)
H18 H 0.3037 0.4619 0.6179
H19 H 0.2733 0.5688 0.6467
C20 C 0.2247(4) 0.5488(5) 0.5560(3)
H20 H 0.2455 0.5094 0.5189
H21 H 0.2215 0.6201 0.5445
H22 H 0.1583 0.5261 0.5702
C21 C 0.5733(7) 0.8001(7) 0.6243(5)
H23 H 0.6254 0.7482 0.6211
H24 H 0.6006 0.8645 0.6097
H25 H 0.5158 0.7812 0.5977
N1B N 0.4136(2) 0.35649(19) 0.79060(14)
N2B N 0.4166(2) 0.4050(2) 0.73334(14)
H1B H 0.398(2) 0.475(3) 0.7306(15)
C1B C 0.3562(2) 0.3920(2) 0.83480(16)
C2B C 0.3523(2) 0.3366(2) 0.89593(18)
C3B C 0.3841(3) 0.2377(3) 0.8996(2)
H2B H 0.4075 0.2043 0.8625
C4B C 0.3817(4) 0.1875(3) 0.9570(2)
H3B H 0.4022 0.1192 0.9588
C5B C 0.3499(3) 0.2352(4) 1.0117(2)
H4B H 0.3493 0.2005 1.0512
C6B C 0.3192(3) 0.3336(4) 1.00812(19)
H5B H 0.2973 0.3672 1.0454
C7B C 0.3199(3) 0.3837(3) 0.95134(18)
H6B H 0.2979 0.4515 0.9497
C8B C 0.2969(2) 0.4868(2) 0.82760(15)
C9B C 0.1940(3) 0.4837(3) 0.8236(2)
H7B H 0.1598 0.4215 0.8282
C10B C 0.1391(4) 0.5724(4) 0.8129(2)
H8B H 0.0679 0.5702 0.8092
C11B C 0.1893(4) 0.6628(4) 0.8077(2)
H9B H 0.1530 0.7230 0.8000
C12B C 0.2900(4) 0.6653(3) 0.8136(2)
H10B H 0.3240 0.7280 0.8111
C13B C 0.3448(3) 0.5784(3) 0.8231(2)
H11B H 0.4159 0.5818 0.8266
C14B C 0.4915(2) 0.3793(2) 0.68872(16)
C15B C 0.5202(3) 0.4474(3) 0.64562(17)
C16B C 0.5258(3) 0.2717(3) 0.6925(3)
H12B H 0.5826 0.2635 0.6626
H13B H 0.5527 0.2604 0.7358
C17B C 0.4537(4) 0.1921(3) 0.6793(3)
H14B H 0.4853 0.1256 0.6863
H15B H 0.3952 0.1982 0.7081
C18B C 0.5945(3) 0.4247(3) 0.59294(19)
H16B H 0.5704 0.4554 0.5529
H17B H 0.5982 0.3511 0.5865
C19B C 0.7013(4) 0.4654(4) 0.6082(3)
H18B H 0.6963 0.5381 0.6179
H19B H 0.7267 0.4312 0.6467
C20B C 0.7753(4) 0.4512(5) 0.5560(3)
H20B H 0.7545 0.4906 0.5189
H21B H 0.7785 0.3799 0.5445
H22B H 0.8417 0.4739 0.5702
C21B C 0.4267(7) 0.1999(7) 0.6243(5)
H23B H 0.3746 0.2518 0.6211
H24B H 0.3994 0.1355 0.6097
H25B H 0.4842 0.2188 0.5977
H26? H 0.5848 0.8127 0.7195
H27? H 0.5928 0.7762 0.6486
C22? C 0.5422(9) 0.8997(7) 0.6602(7)
H28? H 0.4728 0.9166 0.6489
H29? H 0.5855 0.9080 0.6228
H30? H 0.5653 0.9444 0.6942
loop_
_geom_bond_atom_site_label_1
_geom_bond_atom_site_label_2
_geom_bond_site_symmetry_1
_geom_bond_site_symmetry_2
N1 N2 1_555 1_555
N2 H1 1_555 1_555
C1 N1 1_555 1_555
C2 C1 1_555 1_555
C3 C2 1_555 1_555
H2 C3 1_555 1_555
C4 C3 1_555 1_555
H3 C4 1_555 1_555
C5 C4 1_555 1_555
H4 C5 1_555 1_555
C6 C5 1_555 1_555
H5 C6 1_555 1_555
C7 C2 1_555 1_555
H6 C7 1_555 1_555
C8 C1 1_555 1_555
C9 C8 1_555 1_555
H7 C9 1_555 1_555
C10 C9 1_555 1_555
H8 C10 1_555 1_555
C11 C10 1_555 1_555
H9 C11 1_555 1_555
C12 C11 1_555 1_555
H10 C12 1_555 1_555
C13 C8 1_555 1_555
H11 C13 1_555 1_555
C14 N2 1_555 1_555
C15 C14 1_555 1_555
C16 C14 1_555 1_555
H12 C16 1_555 1_555
H13 C16 1_555 1_555
C17 C16 1_555 1_555
H14 C17 1_555 1_555
H15 C17 1_555 1_555
C18 C15 1_555 1_555
H16 C18 1_555 1_555
H17 C18 1_555 1_555
C19 C18 1_555 1_555
H18 C19 1_555 1_555
H19 C19 1_555 1_555
C20 C19 1_555 1_555
H20 C20 1_555 1_555
H21 C20 1_555 1_555
H22 C20 1_555 1_555
C21 C17 1_555 1_555
H23 C21 1_555 1_555
H24 C21 1_555 1_555
H25 C21 1_555 1_555
N1B N2B 1_555 1_555
N2B H1B 1_555 1_555
C1B N1B 1_555 1_555
C2B C1B 1_555 1_555
C3B C2B 1_555 1_555
H2B C3B 1_555 1_555
C4B C3B 1_555 1_555
H3B C4B 1_555 1_555
C5B C4B 1_555 1_555
H4B C5B 1_555 1_555
C6B C5B 1_555 1_555
H5B C6B 1_555 1_555
C7B C2B 1_555 1_555
H6B C7B 1_555 1_555
C8B C1B 1_555 1_555
C9B C8B 1_555 1_555
H7B C9B 1_555 1_555
C10B C9B 1_555 1_555
H8B C10B 1_555 1_555
C11B C10B 1_555 1_555
H9B C11B 1_555 1_555
C12B C11B 1_555 1_555
H10B C12B 1_555 1_555
C13B C8B 1_555 1_555
H11B C13B 1_555 1_555
C14B N2B 1_555 1_555
C15B C15 1_555 1_555
C16B C14B 1_555 1_555
H12B C16B 1_555 1_555
H13B C16B 1_555 1_555
C17B C16B 1_555 1_555
H14B C17B 1_555 1_555
H15B C17B 1_555 1_555
C18B C15B 1_555 1_555
H16B C18B 1_555 1_555
H17B C18B 1_555 1_555
C19B C18B 1_555 1_555
H18B C19B 1_555 1_555
H19B C19B 1_555 1_555
C20B C19B 1_555 1_555
H20B C20B 1_555 1_555
H21B C20B 1_555 1_555
H22B C20B 1_555 1_555
C21B C17B 1_555 1_555
H23B C21B 1_555 1_555
H24B C21B 1_555 1_555
H25B C21B 1_555 1_555
C6 C7 1_555 1_555
C12 C13 1_555 1_555
C6B C7B 1_555 1_555
C12B C13B 1_555 1_555
C14B C15B 1_555 1_555

#END
