
#######################################################################
#
#                 Cambridge Crystallographic Data Centre
#                                CCDC 
#
#######################################################################
#
# If this CIF has been generated from an entry in the Cambridge 
# Structural Database, then it will include bibliographic, chemical, 
# crystal, experimental, refinement or atomic coordinate data resulting 
# from the CCDC's data processing and validation procedures.
#
#######################################################################

data_TIMRAK
_chemical_formula_moiety         'C33 H30 N2'
_chemical_name_systematic        
N-(Diphenylmethylene)-2,3-diethyl-4,5-diphenyl-1H-pyrrol-1-amine
_symmetry_cell_setting           monoclinic
_symmetry_space_group_name_H-M   'P 21/c'
_symmetry_Int_Tables_number      14
_space_group_name_Hall           '-P 2ybc'
loop_
_symmetry_equiv_pos_site_id
_symmetry_equiv_pos_as_xyz
1 x,y,z
2 -x,1/2+y,1/2-z
3 -x,-y,-z
4 x,1/2-y,1/2+z
_cell_length_a                   14.738(3)
_cell_length_b                   20.322(4)
_cell_length_c                   8.7366(17)
_cell_angle_alpha                90
_cell_angle_beta                 93.02(3)
_cell_angle_gamma                90
_cell_volume                     2613.03
_cell_formula_units_Z            4
loop_
_atom_site_label
_atom_site_type_symbol
_atom_site_fract_x
_atom_site_fract_y
_atom_site_fract_z
C1 C 0.1631(3) 0.5915(3) 0.8208(6)
H1 H 0.1859 0.6339 0.7934
H2 H 0.1520 0.5910 0.9280
H3 H 0.1075 0.5828 0.7621
C2 C 0.2310(3) 0.5403(2) 0.7878(5)
H4 H 0.2069 0.4979 0.8163
H5 H 0.2853 0.5483 0.8528
C3 C 0.2577(3) 0.5363(2) 0.6256(5)
C4 C 0.3264(2) 0.56489(19) 0.5517(5)
C5 C 0.3640(3) 0.6842(2) 0.6026(6)
H6 H 0.3542 0.6943 0.4957
H7 H 0.4110 0.7120 0.6468
H8 H 0.3088 0.6914 0.6539
C6 C 0.3917(3) 0.6144(2) 0.6202(5)
H9 H 0.4012 0.6050 0.7288
H10 H 0.4496 0.6087 0.5740
C7 C 0.3224(2) 0.54215(18) 0.3973(5)
C8 C 0.3821(3) 0.5640(2) 0.2754(5)
C9 C 0.3535(3) 0.6129(2) 0.1731(5)
H11 H 0.2960 0.6312 0.1789
C10 C 0.4106(3) 0.6345(2) 0.0620(5)
H12 H 0.3912 0.6680 -0.0046
C11 C 0.4934(4) 0.6080(3) 0.0491(6)
H13 H 0.5310 0.6222 -0.0263
C12 C 0.5204(3) 0.5603(3) 0.1480(6)
H14 H 0.5773 0.5414 0.1387
C13 C 0.4670(2) 0.5381(2) 0.2630(5)
H15 H 0.4887 0.5059 0.3312
C14 C 0.2506(3) 0.49948(19) 0.3800(5)
C15 C 0.2148(3) 0.4622(2) 0.2452(5)
C16 C 0.2766(3) 0.4282(2) 0.1606(5)
H16 H 0.3382 0.4312 0.1890
C17 C 0.2506(3) 0.3911(3) 0.0395(7)
H17 H 0.2939 0.3687 -0.0139
C18 C 0.1623(5) 0.3862(3) -0.0053(6)
H18 H 0.1453 0.3593 -0.0882
C19 C 0.0964(3) 0.4199(3) 0.0688(6)
H19 H 0.0357 0.4171 0.0344
C20 C 0.1226(3) 0.4591(2) 0.1988(5)
H20 H 0.0795 0.4820 0.2515
C21 C 0.1408(2) 0.3953(2) 0.5459(4)
C22 C 0.2242(2) 0.35799(19) 0.5047(5)
C23 C 0.3072(2) 0.3690(2) 0.5802(5)
H21 H 0.3128 0.4009 0.6565
C24 C 0.3818(3) 0.3329(2) 0.5428(6)
H22 H 0.4377 0.3409 0.5936
C25 C 0.3749(3) 0.2859(3) 0.4328(7)
H23 H 0.4258 0.2616 0.4094
C26 C 0.2953(3) 0.2743(2) 0.3581(6)
H24 H 0.2912 0.2424 0.2817
C27 C 0.2180(3) 0.3097(2) 0.3939(5)
H25 H 0.1624 0.3008 0.3428
C28 C 0.0554(2) 0.35807(19) 0.5790(4)
C29 C 0.0605(2) 0.2929(2) 0.6256(5)
H26 H 0.1162 0.2712 0.6314
C30 C -0.0180(3) 0.2599(2) 0.6634(5)
H27 H -0.0140 0.2163 0.6951
C31 C -0.1014(3) 0.2907(2) 0.6547(6)
H28 H -0.1533 0.2685 0.6822
C32 C -0.1063(3) 0.3545(2) 0.6047(6)
H29 H -0.1622 0.3756 0.5956
C33 C -0.0292(3) 0.3874(2) 0.5680(5)
H30 H -0.0340 0.4308 0.5347
N1 N 0.13382(19) 0.45832(16) 0.5609(4)
N2 N 0.21114(18) 0.49590(15) 0.5217(4)
loop_
_geom_bond_atom_site_label_1
_geom_bond_atom_site_label_2
_geom_bond_site_symmetry_1
_geom_bond_site_symmetry_2
C1 H1 1_555 1_555
H2 C1 1_555 1_555
H3 C1 1_555 1_555
C2 C1 1_555 1_555
H4 C2 1_555 1_555
H5 C2 1_555 1_555
C3 C2 1_555 1_555
C4 C3 1_555 1_555
C5 H6 1_555 1_555
H7 C5 1_555 1_555
H8 C5 1_555 1_555
C6 C4 1_555 1_555
H9 C6 1_555 1_555
H10 C6 1_555 1_555
C7 C4 1_555 1_555
C8 C7 1_555 1_555
C9 C8 1_555 1_555
H11 C9 1_555 1_555
C10 C9 1_555 1_555
H12 C10 1_555 1_555
C11 C10 1_555 1_555
H13 C11 1_555 1_555
C12 C11 1_555 1_555
H14 C12 1_555 1_555
C13 C8 1_555 1_555
H15 C13 1_555 1_555
C14 C7 1_555 1_555
C15 C14 1_555 1_555
C16 C15 1_555 1_555
H16 C16 1_555 1_555
C17 C16 1_555 1_555
H17 C17 1_555 1_555
C18 C17 1_555 1_555
H18 C18 1_555 1_555
C19 C18 1_555 1_555
H19 C19 1_555 1_555
C20 C15 1_555 1_555
H20 C20 1_555 1_555
C21 C22 1_555 1_555
C22 C23 1_555 1_555
C23 H21 1_555 1_555
C24 C23 1_555 1_555
H22 C24 1_555 1_555
C25 C24 1_555 1_555
H23 C25 1_555 1_555
C26 C25 1_555 1_555
H24 C26 1_555 1_555
C27 C22 1_555 1_555
H25 C27 1_555 1_555
C28 C21 1_555 1_555
C29 C28 1_555 1_555
H26 C29 1_555 1_555
C30 C29 1_555 1_555
H27 C30 1_555 1_555
C31 C30 1_555 1_555
H28 C31 1_555 1_555
C32 C31 1_555 1_555
H29 C32 1_555 1_555
C33 C28 1_555 1_555
H30 C33 1_555 1_555
N1 C21 1_555 1_555
N2 C3 1_555 1_555
C5 C6 1_555 1_555
C12 C13 1_555 1_555
C14 N2 1_555 1_555
C19 C20 1_555 1_555
C26 C27 1_555 1_555
C32 C33 1_555 1_555
N1 N2 1_555 1_555

#END
