
#######################################################################
#
#                 Cambridge Crystallographic Data Centre
#                                CCDC 
#
#######################################################################
#
# If this CIF has been generated from an entry in the Cambridge 
# Structural Database, then it will include bibliographic, chemical, 
# crystal, experimental, refinement or atomic coordinate data resulting 
# from the CCDC's data processing and validation procedures.
#
#######################################################################

data_TIMSOA
_chemical_formula_moiety         'C32 H33 I3'
_chemical_name_systematic        
2,6,10-triiodo-12d-methyl-4b,8b,12b-tripropyl-4b,8b,12b,12d-tetrahydrodibenzo[2,3:4,5]pentaleno[1,6-ab]indene
_symmetry_cell_setting           orthorhombic
_symmetry_space_group_name_H-M   'P c a 21'
_symmetry_Int_Tables_number      29
_space_group_name_Hall           'P 2c -2ac'
loop_
_symmetry_equiv_pos_site_id
_symmetry_equiv_pos_as_xyz
1 x,y,z
2 -x,-y,1/2+z
3 1/2+x,-y,z
4 1/2-x,y,1/2+z
_cell_length_a                   19.4588(6)
_cell_length_b                   20.6491(6)
_cell_length_c                   14.5637(4)
_cell_angle_alpha                90
_cell_angle_beta                 90
_cell_angle_gamma                90
_cell_volume                     5851.79
_exptl_crystal_colour            colorless
_exptl_crystal_description       brick
_cell_formula_units_Z            8
loop_
_atom_site_label
_atom_site_type_symbol
_atom_site_fract_x
_atom_site_fract_y
_atom_site_fract_z
I1 I 0.29818(2) 0.45435(2) 0.39342(3)
I2 I 0.70403(3) 0.34583(2) 0.73218(4)
I3 I 0.67081(2) 0.67339(2) 0.26589(2)
C1 C 0.4614(3) 0.6303(3) 0.5959(4)
C2 C 0.5087(3) 0.5431(3) 0.7034(3)
C3 C 0.5899(3) 0.6260(3) 0.6306(3)
C4 C 0.5153(3) 0.6180(3) 0.6761(3)
C5 C 0.5069(3) 0.6614(3) 0.7603(4)
H1 H 0.540043 0.648521 0.807482
H2 H 0.460118 0.656942 0.784500
H3 H 0.515035 0.706577 0.742810
C6 C 0.4312(3) 0.5634(3) 0.5768(3)
C7 C 0.4586(3) 0.5162(3) 0.6341(4)
C8 C 0.4394(3) 0.4510(3) 0.6244(4)
H4 H 0.457482 0.418820 0.664287
C9 C 0.3933(3) 0.4343(3) 0.5550(4)
H5 H 0.380189 0.390363 0.546873
C10 C 0.3667(3) 0.4816(3) 0.4980(4)
C11 C 0.3846(3) 0.5464(3) 0.5075(4)
H6 H 0.365698 0.578376 0.468045
C12 C 0.5801(3) 0.5164(3) 0.6866(3)
C13 C 0.6241(3) 0.5607(3) 0.6459(3)
C14 C 0.6915(3) 0.5433(3) 0.6271(4)
H7 H 0.721884 0.573693 0.599801
C15 C 0.7149(3) 0.4806(3) 0.6484(4)
H8 H 0.760879 0.468199 0.635088
C16 C 0.6703(3) 0.4374(3) 0.6888(4)
C17 C 0.6025(3) 0.4539(3) 0.7087(4)
H9 H 0.572326 0.423625 0.736628
C18 C 0.5746(3) 0.6401(3) 0.5305(4)
C19 C 0.5051(3) 0.6477(3) 0.5131(4)
C20 C 0.4826(3) 0.6649(3) 0.4250(4)
H10 H 0.435009 0.671167 0.413468
C21 C 0.5300(3) 0.6728(3) 0.3549(4)
H11 H 0.515258 0.684941 0.295081
C22 C 0.5990(3) 0.6627(3) 0.3730(3)
C23 C 0.6224(3) 0.6470(3) 0.4596(4)
H12 H 0.670093 0.640971 0.470727
C24 C 0.4022(3) 0.6780(3) 0.6146(4)
H13 H 0.365225 0.668857 0.569859
H14 H 0.383675 0.668318 0.676408
C25 C 0.4177(3) 0.7508(3) 0.6106(5)
H15 H 0.457736 0.760410 0.650205
H16 H 0.429827 0.762818 0.546853
C26 C 0.3574(4) 0.7907(4) 0.6415(6)
H17 H 0.369474 0.836777 0.638817
H18 H 0.345347 0.779103 0.704761
H19 H 0.318057 0.782416 0.601209
C27 C 0.4855(3) 0.5270(3) 0.8025(4)
H20 H 0.497134 0.481118 0.814720
H21 H 0.513205 0.553670 0.845190
C28 C 0.4101(3) 0.5368(3) 0.8264(4)
H22 H 0.394746 0.579537 0.803287
H23 H 0.382187 0.503030 0.795886
C29 C 0.3990(4) 0.5335(4) 0.9288(5)
H24 H 0.349653 0.535266 0.942053
H25 H 0.422023 0.570241 0.958356
H26 H 0.418092 0.492936 0.952577
C30 C 0.6383(3) 0.6795(3) 0.6695(4)
H27 H 0.638282 0.675422 0.737272
H28 H 0.685539 0.669606 0.648429
C31 C 0.6236(3) 0.7505(3) 0.6462(5)
H29 H 0.620224 0.755251 0.578699
H30 H 0.578745 0.763019 0.672959
C32 C 0.6786(4) 0.7955(3) 0.6820(6)
H31 H 0.665896 0.840402 0.668511
H32 H 0.722498 0.785371 0.652164
H33 H 0.683263 0.789869 0.748528
I4 I -0.22902(3) 1.01739(4) 0.72376(4)
I5 I 0.15064(2) 1.15351(2) 0.39907(4)
I6 I 0.18776(2) 0.82922(2) 0.85149(3)
C33 C -0.0454(3) 0.8483(3) 0.5463(4)
C34 C -0.0147(3) 0.9290(3) 0.4191(3)
C35 C 0.0796(3) 0.8606(3) 0.4947(4)
C36 C 0.0020(3) 0.8584(3) 0.4577(3)
C37 C -0.0080(3) 0.8053(3) 0.3854(4)
H34 H 0.029562 0.807137 0.340648
H35 H -0.051931 0.811879 0.353833
H36 H -0.008063 0.762800 0.415452
C38 C -0.0843(3) 0.9117(3) 0.5548(4)
C39 C -0.0690(3) 0.9546(3) 0.4846(4)
C40 C -0.1012(3) 1.0147(3) 0.4805(5)
H37 H -0.091102 1.044174 0.432230
C41 C -0.1484(3) 1.0309(3) 0.5483(5)
H38 H -0.171382 1.071504 0.545952
C42 C -0.1621(3) 0.9887(3) 0.6188(4)
C43 C -0.1311(3) 0.9284(3) 0.6229(4)
H39 H -0.141590 0.899154 0.671235
C44 C 0.0523(3) 0.9663(3) 0.4323(4)
C45 C 0.1029(3) 0.9288(3) 0.4739(4)
C46 C 0.1664(3) 0.9562(3) 0.4940(4)
H40 H 0.200921 0.930573 0.522267
C47 C 0.1799(3) 1.0202(3) 0.4733(4)
H41 H 0.223126 1.039041 0.487715
C48 C 0.1286(3) 1.0565(3) 0.4309(4)
C49 C 0.0650(3) 1.0309(3) 0.4098(4)
H42 H 0.030771 1.056556 0.380754
C50 C 0.0726(3) 0.8504(3) 0.5985(4)
C51 C 0.0045(3) 0.8418(3) 0.6248(4)
C52 C -0.0105(3) 0.8297(3) 0.7171(4)
H43 H -0.056792 0.822890 0.735515
C53 C 0.0416(3) 0.8274(3) 0.7818(4)
H44 H 0.031215 0.819879 0.844601
C54 C 0.1090(3) 0.8363(3) 0.7538(4)
C55 C 0.1253(3) 0.8480(3) 0.6620(4)
H45 H 0.171636 0.854128 0.643476
C56 C -0.0957(3) 0.7903(3) 0.5449(4)
H46 H -0.070160 0.751729 0.523475
H47 H -0.110374 0.781742 0.608837
C57 C -0.1601(3) 0.7972(3) 0.4859(5)
H48 H -0.192525 0.827349 0.516162
H49 H -0.147410 0.815878 0.425605
C58 C -0.1949(4) 0.7322(4) 0.4715(7)
H50 H -0.236435 0.738122 0.434311
H51 H -0.207461 0.713643 0.531117
H52 H -0.163364 0.702757 0.439656
C59 C -0.0423(3) 0.9354(3) 0.3196(4)
H53 H -0.079835 0.903479 0.312077
H54 H -0.062985 0.978935 0.313412
C60 C 0.0078(4) 0.9261(4) 0.2398(5)
H55 H 0.045257 0.958355 0.244945
H56 H 0.028511 0.882463 0.243827
C61 C -0.0266(6) 0.9335(7) 0.1490(5)
H57 H 0.005322 0.920791 0.100134
H58 H -0.040143 0.978828 0.140299
H59 H -0.067439 0.905863 0.146777
C62 C 0.1316(3) 0.8107(3) 0.4565(4)
H60 H 0.128222 0.811409 0.388717
H61 H 0.178366 0.825826 0.472714
C63 C 0.1251(4) 0.7398(3) 0.4879(5)
H62 H 0.124868 0.738268 0.555885
H63 H 0.080788 0.722061 0.466011
C64 C 0.1826(5) 0.6981(4) 0.4527(8)
H64 H 0.175947 0.653494 0.473702
H65 H 0.226537 0.714578 0.475957
H66 H 0.182886 0.699178 0.385422
loop_
_geom_bond_atom_site_label_1
_geom_bond_atom_site_label_2
_geom_bond_site_symmetry_1
_geom_bond_site_symmetry_2
I1 C10 1_555 1_555
I2 C16 1_555 1_555
I3 C22 1_555 1_555
C1 C4 1_555 1_555
C2 C4 1_555 1_555
C3 C4 1_555 1_555
C4 C5 1_555 1_555
C5 H1 1_555 1_555
H2 C5 1_555 1_555
H3 C5 1_555 1_555
C6 C1 1_555 1_555
C7 C2 1_555 1_555
C8 C7 1_555 1_555
H4 C8 1_555 1_555
C9 C8 1_555 1_555
H5 C9 1_555 1_555
C10 C9 1_555 1_555
C11 C6 1_555 1_555
H6 C11 1_555 1_555
C12 C2 1_555 1_555
C13 C3 1_555 1_555
C14 C13 1_555 1_555
H7 C14 1_555 1_555
C15 C14 1_555 1_555
H8 C15 1_555 1_555
C16 C15 1_555 1_555
C17 C12 1_555 1_555
H9 C17 1_555 1_555
C18 C3 1_555 1_555
C19 C1 1_555 1_555
C20 C19 1_555 1_555
H10 C20 1_555 1_555
C21 C20 1_555 1_555
H11 C21 1_555 1_555
C22 C21 1_555 1_555
C23 C18 1_555 1_555
H12 C23 1_555 1_555
C24 C1 1_555 1_555
H13 C24 1_555 1_555
H14 C24 1_555 1_555
C25 C24 1_555 1_555
H15 C25 1_555 1_555
H16 C25 1_555 1_555
C26 C25 1_555 1_555
H17 C26 1_555 1_555
H18 C26 1_555 1_555
H19 C26 1_555 1_555
C27 C2 1_555 1_555
H20 C27 1_555 1_555
H21 C27 1_555 1_555
C28 C27 1_555 1_555
H22 C28 1_555 1_555
H23 C28 1_555 1_555
C29 C28 1_555 1_555
H24 C29 1_555 1_555
H25 C29 1_555 1_555
H26 C29 1_555 1_555
C30 C3 1_555 1_555
H27 C30 1_555 1_555
H28 C30 1_555 1_555
C31 C30 1_555 1_555
H29 C31 1_555 1_555
H30 C31 1_555 1_555
C32 C31 1_555 1_555
H31 C32 1_555 1_555
H32 C32 1_555 1_555
H33 C32 1_555 1_555
I4 C42 1_555 1_555
I5 C48 1_555 1_555
I6 C54 1_555 1_555
C33 C36 1_555 1_555
C34 C36 1_555 1_555
C35 C36 1_555 1_555
C36 C37 1_555 1_555
C37 H34 1_555 1_555
H35 C37 1_555 1_555
H36 C37 1_555 1_555
C38 C33 1_555 1_555
C39 C34 1_555 1_555
C40 C39 1_555 1_555
H37 C40 1_555 1_555
C41 C40 1_555 1_555
H38 C41 1_555 1_555
C42 C41 1_555 1_555
C43 C38 1_555 1_555
H39 C43 1_555 1_555
C44 C34 1_555 1_555
C45 C35 1_555 1_555
C46 C45 1_555 1_555
H40 C46 1_555 1_555
C47 C46 1_555 1_555
H41 C47 1_555 1_555
C48 C47 1_555 1_555
C49 C44 1_555 1_555
H42 C49 1_555 1_555
C50 C35 1_555 1_555
C51 C33 1_555 1_555
C52 C51 1_555 1_555
H43 C52 1_555 1_555
C53 C52 1_555 1_555
H44 C53 1_555 1_555
C54 C53 1_555 1_555
C55 C50 1_555 1_555
H45 C55 1_555 1_555
C56 C33 1_555 1_555
H46 C56 1_555 1_555
H47 C56 1_555 1_555
C57 C56 1_555 1_555
H48 C57 1_555 1_555
H49 C57 1_555 1_555
C58 C57 1_555 1_555
H50 C58 1_555 1_555
H51 C58 1_555 1_555
H52 C58 1_555 1_555
C59 C34 1_555 1_555
H53 C59 1_555 1_555
H54 C59 1_555 1_555
C60 C59 1_555 1_555
H55 C60 1_555 1_555
H56 C60 1_555 1_555
C61 C60 1_555 1_555
H57 C61 1_555 1_555
H58 C61 1_555 1_555
H59 C61 1_555 1_555
C62 C35 1_555 1_555
H60 C62 1_555 1_555
H61 C62 1_555 1_555
C63 C62 1_555 1_555
H62 C63 1_555 1_555
H63 C63 1_555 1_555
C64 C63 1_555 1_555
H64 C64 1_555 1_555
H65 C64 1_555 1_555
H66 C64 1_555 1_555
C6 C7 1_555 1_555
C10 C11 1_555 1_555
C12 C13 1_555 1_555
C16 C17 1_555 1_555
C18 C19 1_555 1_555
C22 C23 1_555 1_555
C38 C39 1_555 1_555
C42 C43 1_555 1_555
C44 C45 1_555 1_555
C48 C49 1_555 1_555
C50 C51 1_555 1_555
C54 C55 1_555 1_555

#END
