
#######################################################################
#
#                 Cambridge Crystallographic Data Centre
#                                CCDC 
#
#######################################################################
#
# If this CIF has been generated from an entry in the Cambridge 
# Structural Database, then it will include bibliographic, chemical, 
# crystal, experimental, refinement or atomic coordinate data resulting 
# from the CCDC's data processing and validation procedures.
#
#######################################################################

data_TIMSIU
_chemical_formula_moiety         'C50 H69 B3 O6'
_chemical_name_systematic        
2,2',2''-(12d-methyl-4b,8b,12b-tripropyl-4b,8b,12b,12d-tetrahydrodibenzo[2,3:4,5]pentaleno[1,6-ab]indene-2,6,10-triyl)tris(4,4,5,5-tetramethyl-1,3,2-dioxaborolane)
_symmetry_cell_setting           monoclinic
_symmetry_space_group_name_H-M   'P 21/c'
_symmetry_Int_Tables_number      14
_space_group_name_Hall           '-P 2ybc'
loop_
_symmetry_equiv_pos_site_id
_symmetry_equiv_pos_as_xyz
1 x,y,z
2 -x,1/2+y,1/2-z
3 -x,-y,-z
4 x,1/2-y,1/2+z
_cell_length_a                   14.416(5)
_cell_length_b                   35.538(11)
_cell_length_c                   9.986(3)
_cell_angle_alpha                90
_cell_angle_beta                 110.185(5)
_cell_angle_gamma                90
_cell_volume                     4801.78
_exptl_crystal_colour            colorless
_exptl_crystal_description       brick
_cell_formula_units_Z            4
loop_
_atom_site_label
_atom_site_type_symbol
_atom_site_fract_x
_atom_site_fract_y
_atom_site_fract_z
C1 C 0.3267(4) 0.57021(16) 0.4148(6)
C2 C 0.3330(4) 0.60094(16) 0.1877(6)
C3 C 0.4891(4) 0.57033(16) 0.3638(6)
C4 C 0.3710(4) 0.56534(16) 0.2897(6)
C5 C 0.3455(5) 0.52714(17) 0.2167(7)
H1 H 0.373918 0.525266 0.140906
H2 H 0.372558 0.507132 0.286901
H3 H 0.273487 0.524479 0.175485
C6 C 0.2608(4) 0.60478(16) 0.3728(6)
C7 C 0.2598(4) 0.61986(16) 0.2457(6)
C8 C 0.1994(5) 0.65098(18) 0.1872(7)
H4 H 0.197295 0.661290 0.098432
C9 C 0.1432(5) 0.66632(19) 0.2603(7)
H5 H 0.102949 0.687492 0.220272
C10 C 0.1425(5) 0.65228(18) 0.3906(7)
C11 C 0.2028(5) 0.62075(18) 0.4465(7)
H6 H 0.204418 0.610170 0.534602
C12 C 0.4248(4) 0.62602(17) 0.2231(6)
C13 C 0.5082(4) 0.60897(16) 0.3135(6)
C14 C 0.5997(5) 0.62791(18) 0.3571(7)
H7 H 0.658306 0.615653 0.415166
C15 C 0.6023(5) 0.66478(18) 0.3133(7)
H8 H 0.663699 0.677760 0.342809
C16 C 0.5177(5) 0.68336(17) 0.2275(7)
C17 C 0.4292(5) 0.66311(17) 0.1794(7)
H9 H 0.371226 0.674729 0.116179
C18 C 0.5047(5) 0.57268(16) 0.5220(6)
C19 C 0.4181(4) 0.57630(16) 0.5487(6)
C20 C 0.4189(5) 0.58259(17) 0.6879(7)
H10 H 0.358961 0.584887 0.706958
C21 C 0.5103(5) 0.58538(17) 0.7976(7)
H11 H 0.511783 0.590731 0.891458
C22 C 0.5993(4) 0.58063(17) 0.7745(7)
C23 C 0.5958(5) 0.57424(17) 0.6338(7)
H12 H 0.655362 0.570972 0.614634
C24 C 0.2677(4) 0.53641(17) 0.4453(7)
H13 H 0.304829 0.513180 0.442386
H14 H 0.268444 0.539163 0.544288
C25 C 0.1602(5) 0.53003(19) 0.3495(7)
H15 H 0.118893 0.551018 0.362212
H16 H 0.155966 0.529790 0.248366
C26 C 0.1215(6) 0.4935(3) 0.3844(11)
H17 H 0.052710 0.490091 0.321740
H18 H 0.161685 0.472658 0.370341
H19 H 0.124651 0.493863 0.484064
C27 C 0.2939(5) 0.59412(18) 0.0246(6)
H20 H 0.296985 0.618291 -0.022971
H21 H 0.339626 0.576486 0.002069
C28 C 0.1885(5) 0.5784(2) -0.0416(7)
H22 H 0.183116 0.554769 0.007426
H23 H 0.141028 0.596709 -0.027083
C29 C 0.1621(5) 0.5709(2) -0.1987(7)
H24 H 0.094636 0.560985 -0.237249
H25 H 0.166194 0.594406 -0.247832
H26 H 0.208257 0.552490 -0.213343
C30 C 0.5563(5) 0.54036(17) 0.3297(6)
H27 H 0.623225 0.542325 0.402444
H28 H 0.530224 0.515107 0.339345
C31 C 0.5656(5) 0.54316(18) 0.1814(7)
H29 H 0.498787 0.543766 0.107846
H30 H 0.599478 0.566961 0.174707
C32 C 0.6228(5) 0.51050(18) 0.1520(7)
H31 H 0.627160 0.513282 0.056758
H32 H 0.689444 0.510100 0.223543
H33 H 0.588797 0.486915 0.156711
B1 B 0.0804(7) 0.6704(2) 0.4722(9)
O1 O 0.0143(16) 0.6981(5) 0.4177(19)
O2 O 0.0674(17) 0.6534(5) 0.5854(18)
C33 C -0.0241(11) 0.7099(4) 0.5299(16)
C34 C -0.0065(11) 0.6743(4) 0.6262(14)
C35 C 0.035(2) 0.7443(6) 0.601(3)
H34 H 0.011410 0.753167 0.676568
H35 H 0.104908 0.737796 0.641644
H36 H 0.025701 0.764303 0.529624
C36 C -0.1311(13) 0.7214(8) 0.455(3)
H37 H -0.159672 0.729511 0.526565
H38 H -0.133966 0.742266 0.389678
H39 H -0.168629 0.700003 0.401662
C37 C -0.0975(13) 0.6495(5) 0.597(2)
H40 H -0.147915 0.662951 0.623292
H41 H -0.123969 0.643165 0.494969
H42 H -0.079281 0.626298 0.652918
C38 C 0.032(2) 0.6821(8) 0.7863(17)
H43 H -0.017712 0.696031 0.812363
H44 H 0.046150 0.658163 0.838324
H45 H 0.092947 0.696996 0.810998
B2 B 0.5192(6) 0.7264(2) 0.2077(10)
O3 O 0.5957(4) 0.74798(14) 0.2841(7)
O4 O 0.4435(4) 0.74756(13) 0.1264(6)
C39 C 0.5744(6) 0.7876(2) 0.2533(8)
C40 C 0.4622(6) 0.78746(19) 0.1653(8)
C41 C 0.6019(9) 0.8083(3) 0.3929(10)
H46 H 0.588151 0.835220 0.374628
H47 H 0.562989 0.798543 0.448596
H48 H 0.672410 0.804747 0.446399
C42 C 0.6398(8) 0.8000(4) 0.1720(12)
H49 H 0.628574 0.826760 0.148140
H50 H 0.709194 0.796065 0.230934
H51 H 0.624159 0.785257 0.084044
C43 C 0.4329(8) 0.8099(3) 0.0286(9)
H52 H 0.444515 0.836730 0.051202
H53 H 0.472397 0.801785 -0.028661
H54 H 0.362622 0.805840 -0.025447
C44 C 0.3961(9) 0.7994(3) 0.2491(12)
H55 H 0.407943 0.826026 0.275620
H56 H 0.326647 0.795895 0.189836
H57 H 0.411471 0.784089 0.335564
B3 B 0.7012(5) 0.5829(2) 0.8971(8)
O5 O 0.7133(3) 0.59101(14) 1.0348(5)
O6 O 0.7883(3) 0.57667(14) 0.8758(5)
C45 C 0.8192(5) 0.5970(2) 1.1102(7)
C46 C 0.8667(5) 0.5750(2) 1.0173(7)
C47 C 0.8359(7) 0.6393(2) 1.1122(9)
H58 H 0.906120 0.644754 1.161825
H59 H 0.816013 0.648705 1.014093
H60 H 0.796485 0.651684 1.162063
C48 C 0.8452(6) 0.5832(3) 1.2624(7)
H61 H 0.915917 0.587054 1.313887
H62 H 0.806826 0.597243 1.309748
H63 H 0.829716 0.556325 1.261857
C49 C 0.8810(7) 0.5333(2) 1.0537(10)
H64 H 0.932606 0.530146 1.147365
H65 H 0.818843 0.522597 1.056032
H66 H 0.900592 0.520227 0.981243
C50 C 0.9602(6) 0.5915(3) 1.0073(10)
H67 H 1.012486 0.590415 1.101172
H68 H 0.980466 0.576976 0.938556
H69 H 0.948596 0.617698 0.975749
O7? O 0.0341(19) 0.7042(6) 0.438(2)
O8? O 0.0926(18) 0.6613(5) 0.6090(16)
C51? C -0.0235(11) 0.7098(4) 0.5329(17)
C52? C 0.0478(11) 0.6907(4) 0.6708(14)
C53? C -0.0415(17) 0.7516(4) 0.547(3)
H70? H -0.079744 0.754966 0.610683
H71? H 0.022081 0.764595 0.587416
H72? H -0.078306 0.762053 0.453156
C54? C -0.1218(12) 0.6898(6) 0.469(2)
H73? H -0.160915 0.693306 0.531517
H74? H -0.157848 0.700240 0.374759
H75? H -0.110345 0.662871 0.460498
C55? C -0.0007(19) 0.6716(7) 0.766(2)
H76? H -0.031201 0.690655 0.808396
H77? H -0.051563 0.654097 0.708841
H78? H 0.049321 0.657724 0.841740
C56? C 0.1282(12) 0.7177(5) 0.7578(18)
H79? H 0.098762 0.737325 0.799220
H80? H 0.177581 0.703767 0.834452
H81? H 0.160048 0.729245 0.695734
loop_
_geom_bond_atom_site_label_1
_geom_bond_atom_site_label_2
_geom_bond_site_symmetry_1
_geom_bond_site_symmetry_2
C1 C4 1_555 1_555
C2 C4 1_555 1_555
C3 C4 1_555 1_555
C4 C5 1_555 1_555
C5 H1 1_555 1_555
H2 C5 1_555 1_555
H3 C5 1_555 1_555
C6 C1 1_555 1_555
C7 C2 1_555 1_555
C8 C7 1_555 1_555
H4 C8 1_555 1_555
C9 C8 1_555 1_555
H5 C9 1_555 1_555
C10 C9 1_555 1_555
C11 C6 1_555 1_555
H6 C11 1_555 1_555
C12 C2 1_555 1_555
C13 C3 1_555 1_555
C14 C13 1_555 1_555
H7 C14 1_555 1_555
C15 C14 1_555 1_555
H8 C15 1_555 1_555
C16 C15 1_555 1_555
C17 C12 1_555 1_555
H9 C17 1_555 1_555
C18 C3 1_555 1_555
C19 C1 1_555 1_555
C20 C19 1_555 1_555
H10 C20 1_555 1_555
C21 C20 1_555 1_555
H11 C21 1_555 1_555
C22 C21 1_555 1_555
C23 C18 1_555 1_555
H12 C23 1_555 1_555
C24 C1 1_555 1_555
H13 C24 1_555 1_555
H14 C24 1_555 1_555
C25 C24 1_555 1_555
H15 C25 1_555 1_555
H16 C25 1_555 1_555
C26 C25 1_555 1_555
H17 C26 1_555 1_555
H18 C26 1_555 1_555
H19 C26 1_555 1_555
C27 C2 1_555 1_555
H20 C27 1_555 1_555
H21 C27 1_555 1_555
C28 C27 1_555 1_555
H22 C28 1_555 1_555
H23 C28 1_555 1_555
C29 C28 1_555 1_555
H24 C29 1_555 1_555
H25 C29 1_555 1_555
H26 C29 1_555 1_555
C30 C3 1_555 1_555
H27 C30 1_555 1_555
H28 C30 1_555 1_555
C31 C30 1_555 1_555
H29 C31 1_555 1_555
H30 C31 1_555 1_555
C32 C31 1_555 1_555
H31 C32 1_555 1_555
H32 C32 1_555 1_555
H33 C32 1_555 1_555
B1 C10 1_555 1_555
O1 B1 1_555 1_555
O2 B1 1_555 1_555
C33 O1 1_555 1_555
C34 O2 1_555 1_555
C35 C33 1_555 1_555
H34 C35 1_555 1_555
H35 C35 1_555 1_555
H36 C35 1_555 1_555
C36 C33 1_555 1_555
H37 C36 1_555 1_555
H38 C36 1_555 1_555
H39 C36 1_555 1_555
C37 C34 1_555 1_555
H40 C37 1_555 1_555
H41 C37 1_555 1_555
H42 C37 1_555 1_555
C38 C34 1_555 1_555
H43 C38 1_555 1_555
H44 C38 1_555 1_555
H45 C38 1_555 1_555
B2 C16 1_555 1_555
O3 B2 1_555 1_555
O4 B2 1_555 1_555
C39 O3 1_555 1_555
C40 O4 1_555 1_555
C41 C39 1_555 1_555
H46 C41 1_555 1_555
H47 C41 1_555 1_555
H48 C41 1_555 1_555
C42 C39 1_555 1_555
H49 C42 1_555 1_555
H50 C42 1_555 1_555
H51 C42 1_555 1_555
C43 C40 1_555 1_555
H52 C43 1_555 1_555
H53 C43 1_555 1_555
H54 C43 1_555 1_555
C44 C40 1_555 1_555
H55 C44 1_555 1_555
H56 C44 1_555 1_555
H57 C44 1_555 1_555
B3 C22 1_555 1_555
O5 B3 1_555 1_555
O6 B3 1_555 1_555
C45 O5 1_555 1_555
C46 O6 1_555 1_555
C47 C45 1_555 1_555
H58 C47 1_555 1_555
H59 C47 1_555 1_555
H60 C47 1_555 1_555
C48 C45 1_555 1_555
H61 C48 1_555 1_555
H62 C48 1_555 1_555
H63 C48 1_555 1_555
C49 C46 1_555 1_555
H64 C49 1_555 1_555
H65 C49 1_555 1_555
H66 C49 1_555 1_555
C50 C46 1_555 1_555
H67 C50 1_555 1_555
H68 C50 1_555 1_555
H69 C50 1_555 1_555
C6 C7 1_555 1_555
C10 C11 1_555 1_555
C12 C13 1_555 1_555
C16 C17 1_555 1_555
C18 C19 1_555 1_555
C22 C23 1_555 1_555
C33 C34 1_555 1_555
C39 C40 1_555 1_555
C45 C46 1_555 1_555

#END
