
#######################################################################
#
#                 Cambridge Crystallographic Data Centre
#                                CCDC 
#
#######################################################################
#
# If this CIF has been generated from an entry in the Cambridge 
# Structural Database, then it will include bibliographic, chemical, 
# crystal, experimental, refinement or atomic coordinate data resulting 
# from the CCDC's data processing and validation procedures.
#
#######################################################################

data_TIMSAL
_chemical_formula_moiety         'C30 H32 N4'
_chemical_name_systematic        
2-Amino-1-t-butyl-5-(dibenzylamino)-4-(4-methylphenyl)-1H-pyrrole-3-carbonitrile
_symmetry_cell_setting           monoclinic
_symmetry_space_group_name_H-M   'P 21/c'
_symmetry_Int_Tables_number      14
_space_group_name_Hall           '-P 2ybc'
loop_
_symmetry_equiv_pos_site_id
_symmetry_equiv_pos_as_xyz
1 x,y,z
2 -x,1/2+y,1/2-z
3 -x,-y,-z
4 x,1/2-y,1/2+z
_cell_length_a                   18.969(5)
_cell_length_b                   13.405(3)
_cell_length_c                   10.267(3)
_cell_angle_alpha                90
_cell_angle_beta                 95.745(8)
_cell_angle_gamma                90
_cell_volume                     2597.57
_exptl_crystal_colour            colorless
_exptl_crystal_description       block
_cell_formula_units_Z            4
loop_
_atom_site_label
_atom_site_type_symbol
_atom_site_fract_x
_atom_site_fract_y
_atom_site_fract_z
N1 N 0.27291(10) 0.43078(15) 0.94668(19)
N2 N 0.14517(10) 0.40064(15) 0.88109(18)
N3 N 0.02709(11) 0.41002(19) 0.7670(2)
H1 H 0.0068 0.4089 0.8339
H2 H 0.0020 0.4336 0.6990
N4 N 0.07781(13) 0.5418(2) 0.4666(2)
C1 C 0.21409(12) 0.42870(18) 0.8499(2)
C2 C 0.09827(12) 0.42839(19) 0.7770(2)
C3 C 0.13500(12) 0.47089(18) 0.6825(2)
C4 C 0.20828(12) 0.46994(18) 0.7277(2)
C5 C 0.12378(13) 0.33921(19) 0.9941(2)
C6 C 0.18625(14) 0.3080(2) 1.0888(3)
H3 H 0.2085 0.3662 1.1289
H4 H 0.2198 0.2724 1.0423
H5 H 0.1701 0.2658 1.1551
C7 C 0.07493(15) 0.4017(2) 1.0716(3)
H6 H 0.0310 0.4135 1.0189
H7 H 0.0973 0.4643 1.0950
H8 H 0.0659 0.3665 1.1496
C8 C 0.08789(17) 0.2434(2) 0.9407(3)
H9 H 0.1218 0.2028 0.9017
H10 H 0.0496 0.2599 0.8760
H11 H 0.0698 0.2073 1.0110
C9 C 0.10393(13) 0.5101(2) 0.5630(3)
C10 C 0.26438(12) 0.50686(19) 0.6492(2)
C11 C 0.27116(14) 0.6061(2) 0.6186(3)
H12 H 0.2415 0.6527 0.6522
C12 C 0.32141(16) 0.6380(2) 0.5386(3)
H13 H 0.3250 0.7057 0.5204
C13 C 0.36603(15) 0.5721(3) 0.4855(3)
C14 C 0.35985(17) 0.4734(3) 0.5171(3)
H14 H 0.3903 0.4273 0.4848
C15 C 0.30973(16) 0.4408(2) 0.5955(3)
H15 H 0.3062 0.3730 0.6128
C16 C 0.4124(5) 0.6218(7) 0.3915(9)
H16 H 0.4551 0.6459 0.4394
H17 H 0.3872 0.6766 0.3484
H18 H 0.4242 0.5741 0.3273
C17 C 0.29389(13) 0.5343(2) 0.9826(3)
H19 H 0.3039 0.5701 0.9044
H20 H 0.3370 0.5329 1.0420
C18 C 0.23723(13) 0.58873(19) 1.0467(2)
C19 C 0.23441(16) 0.5840(2) 1.1808(3)
H21 H 0.2681 0.5467 1.2318
C20 C 0.18257(19) 0.6336(3) 1.2398(3)
H22 H 0.1813 0.6293 1.3299
C21 C 0.13297(17) 0.6892(3) 1.1665(4)
H23 H 0.0983 0.7230 1.2069
C22 C 0.13436(15) 0.6952(2) 1.0340(3)
H24 H 0.1005 0.7328 0.9840
C23 C 0.18626(14) 0.6451(2) 0.9741(3)
H25 H 0.1869 0.6495 0.8838
C24 C 0.33244(14) 0.3692(2) 0.9140(3)
H26 H 0.3513 0.3972 0.8375
H27 H 0.3150 0.3028 0.8910
C25 C 0.39188(13) 0.3606(2) 1.0231(3)
C26 C 0.46017(15) 0.3769(3) 0.9962(4)
H28 H 0.4695 0.3940 0.9119
C27 C 0.51566(17) 0.3678(3) 1.0946(5)
H29 H 0.5618 0.3802 1.0760
C28 C 0.50303(19) 0.3410(3) 1.2177(4)
H30 H 0.5405 0.3344 1.2828
C29 C 0.43576(18) 0.3239(3) 1.2453(3)
H31 H 0.4270 0.3053 1.3295
C30 C 0.38045(15) 0.3341(2) 1.1490(3)
H32 H 0.3344 0.3229 1.1692
C31? C 0.4263(5) 0.5912(7) 0.4024(8)
H33? H 0.4597 0.5373 0.4133
H34? H 0.4495 0.6525 0.4293
H35? H 0.4079 0.5959 0.3121
loop_
_geom_bond_atom_site_label_1
_geom_bond_atom_site_label_2
_geom_bond_site_symmetry_1
_geom_bond_site_symmetry_2
N1 C1 1_555 1_555
N2 C1 1_555 1_555
N3 H1 1_555 1_555
H2 N3 1_555 1_555
N4 C9 1_555 1_555
C1 C4 1_555 1_555
C2 N2 1_555 1_555
C3 C2 1_555 1_555
C4 C3 1_555 1_555
C5 N2 1_555 1_555
C6 C5 1_555 1_555
H3 C6 1_555 1_555
H4 C6 1_555 1_555
H5 C6 1_555 1_555
C7 C5 1_555 1_555
H6 C7 1_555 1_555
H7 C7 1_555 1_555
H8 C7 1_555 1_555
C8 C5 1_555 1_555
H9 C8 1_555 1_555
H10 C8 1_555 1_555
H11 C8 1_555 1_555
C9 C3 1_555 1_555
C10 C4 1_555 1_555
C11 C10 1_555 1_555
H12 C11 1_555 1_555
C12 C11 1_555 1_555
H13 C12 1_555 1_555
C13 C12 1_555 1_555
C14 C13 1_555 1_555
H14 C14 1_555 1_555
C15 C10 1_555 1_555
H15 C15 1_555 1_555
C16 C13 1_555 1_555
H16 C16 1_555 1_555
H17 C16 1_555 1_555
H18 C16 1_555 1_555
C17 N1 1_555 1_555
H19 C17 1_555 1_555
H20 C17 1_555 1_555
C18 C17 1_555 1_555
C19 C18 1_555 1_555
H21 C19 1_555 1_555
C20 C19 1_555 1_555
H22 C20 1_555 1_555
C21 C20 1_555 1_555
H23 C21 1_555 1_555
C22 C21 1_555 1_555
H24 C22 1_555 1_555
C23 C18 1_555 1_555
H25 C23 1_555 1_555
C24 N1 1_555 1_555
H26 C24 1_555 1_555
H27 C24 1_555 1_555
C25 C24 1_555 1_555
C26 C25 1_555 1_555
H28 C26 1_555 1_555
C27 C26 1_555 1_555
H29 C27 1_555 1_555
C28 C27 1_555 1_555
H30 C28 1_555 1_555
C29 C28 1_555 1_555
H31 C29 1_555 1_555
C30 C25 1_555 1_555
H32 C30 1_555 1_555
N3 C2 1_555 1_555
C14 C15 1_555 1_555
C22 C23 1_555 1_555
C29 C30 1_555 1_555

#END
