
#######################################################################
#
#                 Cambridge Crystallographic Data Centre
#                                CCDC 
#
#######################################################################
#
# If this CIF has been generated from an entry in the Cambridge 
# Structural Database, then it will include bibliographic, chemical, 
# crystal, experimental, refinement or atomic coordinate data resulting 
# from the CCDC's data processing and validation procedures.
#
#######################################################################

data_TIMTAZ
_chemical_formula_moiety         'C27 H48 N6 O3'
_chemical_name_systematic        
3,7,11-Tri-t-butyl-4,4,8,8,12,12-hexamethyl-1H,2H,5H,6H,9H,10H-tri-imidazo(3,4-a:3',4'-c:3'',4''-e)(1,3,5)triazine-2,6,10-trione
_symmetry_cell_setting           monoclinic
_symmetry_space_group_name_H-M   'P 21'
_symmetry_Int_Tables_number      4
_space_group_name_Hall           'P 2yb'
loop_
_symmetry_equiv_pos_site_id
_symmetry_equiv_pos_as_xyz
1 x,y,z
2 -x,1/2+y,-z
_cell_length_a                   11.184(5)
_cell_length_b                   10.148(7)
_cell_length_c                   13.746(5)
_cell_angle_alpha                90
_cell_angle_beta                 106.49(3)
_cell_angle_gamma                90
_cell_volume                     1495.94
_chemical_melting_point          224deg.C
_cell_formula_units_Z            2
loop_
_atom_site_label
_atom_site_type_symbol
_atom_site_fract_x
_atom_site_fract_y
_atom_site_fract_z
N1 N 0.32860 0.34900 0.37110
C1 C 0.44850 0.29910 0.35740
N2 N 0.42430 0.18890 0.28670
C2 C 0.32860 0.10110 0.30890
N3 N 0.20810 0.16640 0.28220
C3 C 0.20940 0.31090 0.30010
C4 C 0.51400 0.39980 0.30650
N4 N 0.46140 0.36520 0.19800
C5 C 0.41300 0.23910 0.18960
O1 O 0.36910 0.17820 0.11100
C6 C 0.29810 -0.03450 0.25610
N5 N 0.18490 -0.00260 0.17240
C7 C 0.13840 0.11610 0.18820
O2 O 0.04740 0.17470 0.13340
C8 C 0.11600 0.36240 0.35720
N6 N 0.19450 0.35260 0.46490
C9 C 0.31720 0.35240 0.46860
O3 O 0.40790 0.35890 0.54360
C10 C 0.48580 0.54020 0.33540
C11 C 0.65530 0.37160 0.34450
C12 C 0.41020 -0.08670 0.22360
C13 C 0.26760 -0.12820 0.33360
C14 C -0.00120 0.27740 0.33060
C15 C 0.08470 0.50510 0.32450
C16 C 0.15940 0.38760 0.56080
C17 C 0.01790 0.39220 0.54260
C18 C 0.21480 0.28130 0.63960
C19 C 0.21340 0.52260 0.59990
C20 C 0.49200 0.42580 0.10780
C21 C 0.36990 0.44080 0.02260
C22 C 0.58360 0.33590 0.07550
C23 C 0.54890 0.56300 0.13130
C24 C 0.11190 -0.09030 0.08820
C25 C 0.10050 -0.02040 -0.01360
C26 C 0.17660 -0.22190 0.08360
C27 C -0.01460 -0.11790 0.10290
H1 H 0.50180 0.27430 0.42840
H2 H 0.36180 0.08190 0.39000
H3 H 0.20290 0.36370 0.23500
H4 H 0.53200 0.59890 0.31520
H5 H 0.49850 0.53950 0.40870
H6 H 0.40230 0.56690 0.29040
H7 H 0.67790 0.27610 0.33170
H8 H 0.70660 0.42310 0.30430
H9 H 0.69260 0.38990 0.41270
H10 H 0.43170 -0.04100 0.16580
H11 H 0.48300 -0.06510 0.27890
H12 H 0.40200 -0.17580 0.20610
H13 H 0.21390 -0.09120 0.35990
H14 H 0.34150 -0.14390 0.38690
H15 H 0.23460 -0.21500 0.30610
H16 H -0.02940 0.25830 0.26170
H17 H -0.05920 0.32250 0.34890
H18 H 0.00930 0.19440 0.36650
H19 H 0.02740 0.54690 0.35880
H20 H 0.02370 0.51300 0.24660
H21 H 0.16300 0.56130 0.33620
H22 H -0.01470 0.31330 0.52080
H23 H 0.00890 0.41050 0.60830
H24 H -0.02320 0.47280 0.48820
H25 H 0.30280 0.26790 0.65590
H26 H 0.18840 0.29530 0.69930
H27 H 0.18200 0.20340 0.61360
H28 H 0.29350 0.53510 0.61080
H29 H 0.19910 0.53720 0.67460
H30 H 0.17820 0.58430 0.54750
H31 H 0.37440 0.47550 -0.02060
H32 H 0.33040 0.37180 0.00170
H33 H 0.54240 0.24600 0.05740
H34 H 0.66270 0.33350 0.12530
H35 H 0.58960 0.38450 0.01920
H36 H 0.57620 0.59800 0.07070
H37 H 0.62270 0.55740 0.18650
H38 H 0.49960 0.62530 0.14540
H39 H 0.19510 -0.00080 -0.02060
H40 H 0.05490 -0.07760 -0.06090
H41 H 0.04070 0.05140 -0.01260
H42 H 0.18950 -0.26590 0.13710
H43 H 0.12840 -0.26900 0.02150
H44 H 0.26250 -0.21060 0.05980
H45 H -0.05550 -0.04390 0.10740
H46 H 0.00000 -0.16740 0.17380
H47 H -0.05970 -0.16650 0.06450
loop_
_geom_bond_atom_site_label_1
_geom_bond_atom_site_label_2
_geom_bond_site_symmetry_1
_geom_bond_site_symmetry_2
N1 C1 1_555 1_555
C1 N2 1_555 1_555
N2 C2 1_555 1_555
C2 N3 1_555 1_555
N3 C3 1_555 1_555
C3 N1 1_555 1_555
C4 C1 1_555 1_555
N4 C4 1_555 1_555
C5 N2 1_555 1_555
O1 C5 1_555 1_555
C6 C2 1_555 1_555
N5 C6 1_555 1_555
C7 N3 1_555 1_555
O2 C7 1_555 1_555
C8 C3 1_555 1_555
N6 C8 1_555 1_555
C9 N1 1_555 1_555
O3 C9 1_555 1_555
C10 C4 1_555 1_555
C11 C4 1_555 1_555
C12 C6 1_555 1_555
C13 C6 1_555 1_555
C14 C8 1_555 1_555
C15 C8 1_555 1_555
C16 N6 1_555 1_555
C17 C16 1_555 1_555
C18 C16 1_555 1_555
C19 C16 1_555 1_555
C20 N4 1_555 1_555
C21 C20 1_555 1_555
C22 C20 1_555 1_555
C23 C20 1_555 1_555
C24 N5 1_555 1_555
C25 C24 1_555 1_555
C26 C24 1_555 1_555
C27 C24 1_555 1_555
H1 C1 1_555 1_555
H2 C2 1_555 1_555
H3 C3 1_555 1_555
H4 C10 1_555 1_555
H5 C10 1_555 1_555
H6 C10 1_555 1_555
H7 C11 1_555 1_555
H8 C11 1_555 1_555
H9 C11 1_555 1_555
H10 C12 1_555 1_555
H11 C12 1_555 1_555
H12 C12 1_555 1_555
H13 C13 1_555 1_555
H14 C13 1_555 1_555
H15 C13 1_555 1_555
H16 C14 1_555 1_555
H17 C14 1_555 1_555
H18 C14 1_555 1_555
H19 C15 1_555 1_555
H20 C15 1_555 1_555
H21 C15 1_555 1_555
H22 C17 1_555 1_555
H23 C17 1_555 1_555
H24 C17 1_555 1_555
H25 C18 1_555 1_555
H26 C18 1_555 1_555
H27 C18 1_555 1_555
H28 C19 1_555 1_555
H29 C19 1_555 1_555
H30 C19 1_555 1_555
H31 C21 1_555 1_555
H32 C21 1_555 1_555
H33 C22 1_555 1_555
H34 C22 1_555 1_555
H35 C22 1_555 1_555
H36 C23 1_555 1_555
H37 C23 1_555 1_555
H38 C23 1_555 1_555
H39 C25 1_555 1_555
H40 C25 1_555 1_555
H41 C25 1_555 1_555
H42 C26 1_555 1_555
H43 C26 1_555 1_555
H44 C26 1_555 1_555
H45 C27 1_555 1_555
H46 C27 1_555 1_555
H47 C27 1_555 1_555
N4 C5 1_555 1_555
N5 C7 1_555 1_555
N6 C9 1_555 1_555

#END
