
#######################################################################
#
#                 Cambridge Crystallographic Data Centre
#                                CCDC 
#
#######################################################################
#
# If this CIF has been generated from an entry in the Cambridge 
# Structural Database, then it will include bibliographic, chemical, 
# crystal, experimental, refinement or atomic coordinate data resulting 
# from the CCDC's data processing and validation procedures.
#
#######################################################################

data_TIMTER
_chemical_formula_moiety         'C32 H33 Br3'
_chemical_name_systematic        
2,6,10-tribromo-12d-methyl-4b,8b,12b-tripropyl-4b,8b,12b,12d-tetrahydrodibenzo[2,3:4,5]pentaleno[1,6-ab]indene
_symmetry_cell_setting           orthorhombic
_symmetry_space_group_name_H-M   'P b c a'
_symmetry_Int_Tables_number      61
_space_group_name_Hall           '-P 2ac 2ab'
loop_
_symmetry_equiv_pos_site_id
_symmetry_equiv_pos_as_xyz
1 x,y,z
2 1/2-x,-y,1/2+z
3 -x,1/2+y,1/2-z
4 1/2+x,1/2-y,-z
5 -x,-y,-z
6 1/2+x,y,1/2-z
7 x,1/2-y,1/2+z
8 1/2-x,1/2+y,z
_cell_length_a                   19.1853(9)
_cell_length_b                   14.3302(6)
_cell_length_c                   60.234(3)
_cell_angle_alpha                90
_cell_angle_beta                 90
_cell_angle_gamma                90
_cell_volume                     16560.1
_exptl_crystal_colour            colorless
_exptl_crystal_description       plank
_cell_formula_units_Z            24
loop_
_atom_site_label
_atom_site_type_symbol
_atom_site_fract_x
_atom_site_fract_y
_atom_site_fract_z
Br1 Br 0.70656(4) 0.43917(5) 0.19889(2)
Br2 Br 0.30455(3) 0.10392(4) 0.23415(2)
Br3 Br 0.67257(3) -0.02215(4) 0.30764(2)
C1 C 0.5947(3) 0.3363(4) 0.29189(9)
C2 C 0.5114(3) 0.4094(4) 0.26355(9)
C3 C 0.4643(3) 0.2988(4) 0.29326(9)
C4 C 0.5184(3) 0.3813(4) 0.28920(9)
C5 C 0.5091(3) 0.4666(4) 0.30393(10)
H1 H 0.461411 0.490101 0.302464
H2 H 0.542118 0.515182 0.299385
H3 H 0.517959 0.449352 0.319420
C6 C 0.6287(3) 0.3534(3) 0.26926(9)
C7 C 0.5837(3) 0.3938(4) 0.25403(9)
C8 C 0.6067(3) 0.4186(4) 0.23314(10)
H4 H 0.576039 0.447780 0.222884
C9 C 0.6747(3) 0.4003(4) 0.22742(10)
C10 C 0.7211(3) 0.3599(4) 0.24216(10)
H5 H 0.768177 0.348857 0.238017
C11 C 0.6972(3) 0.3358(4) 0.26310(10)
H6 H 0.728080 0.307022 0.273366
C12 C 0.4613(3) 0.3369(4) 0.25414(10)
C13 C 0.4343(3) 0.2794(4) 0.27021(9)
C14 C 0.3874(3) 0.2085(4) 0.26462(10)
H7 H 0.368894 0.168219 0.275680
C15 C 0.3686(3) 0.1987(4) 0.24263(10)
C16 C 0.3952(3) 0.2573(4) 0.22644(10)
H8 H 0.381598 0.249340 0.211397
C17 C 0.4412(3) 0.3269(4) 0.23203(10)
H9 H 0.459080 0.367694 0.220975
C18 C 0.5098(3) 0.2162(4) 0.29942(9)
C19 C 0.5799(3) 0.2346(4) 0.29655(9)
C20 C 0.6293(3) 0.1634(4) 0.29887(9)
H10 H 0.677481 0.175285 0.296608
C21 C 0.6057(3) 0.0747(4) 0.30460(9)
C22 C 0.5362(3) 0.0565(4) 0.30831(9)
H11 H 0.521550 -0.004427 0.312445
C23 C 0.4880(3) 0.1274(4) 0.30598(9)
H12 H 0.440077 0.115815 0.308835
C24 C 0.6430(3) 0.3761(4) 0.31028(9)
H13 H 0.691216 0.356647 0.306765
H14 H 0.641502 0.445008 0.309172
C25 C 0.6288(3) 0.3503(4) 0.33440(9)
H15 H 0.581381 0.371074 0.338536
H16 H 0.630753 0.281584 0.336041
C26 C 0.6815(3) 0.3947(5) 0.34996(10)
H17 H 0.674992 0.369879 0.364977
H18 H 0.674720 0.462455 0.350117
H19 H 0.728770 0.380361 0.344821
C27 C 0.4848(3) 0.5078(4) 0.25817(10)
H20 H 0.512048 0.552544 0.267209
H21 H 0.495805 0.520724 0.242410
C28 C 0.4077(3) 0.5291(4) 0.26175(11)
H22 H 0.379854 0.498001 0.250055
H23 H 0.392752 0.503895 0.276293
C29 C 0.3939(4) 0.6331(4) 0.26111(11)
H24 H 0.343712 0.644452 0.262311
H25 H 0.411211 0.658786 0.247078
H26 H 0.417999 0.663257 0.273538
C30 C 0.4032(3) 0.3175(4) 0.30948(10)
H27 H 0.383119 0.379141 0.305697
H28 H 0.366761 0.270232 0.306572
C31 C 0.4183(3) 0.3170(5) 0.33424(10)
H29 H 0.458352 0.358564 0.337385
H30 H 0.431176 0.253050 0.338933
C32 C 0.3553(4) 0.3495(5) 0.34743(10)
H31 H 0.366898 0.350912 0.363267
H32 H 0.316378 0.306397 0.344970
H33 H 0.341850 0.412249 0.342548
Br4 Br 0.33503(3) 0.56544(4) 0.46551(2)
Br5 Br 0.71130(4) 0.93699(4) 0.42716(2)
Br6 Br 0.30125(3) 1.04535(4) 0.36163(2)
C33 C 0.4145(3) 0.6999(4) 0.37163(9)
C34 C 0.5103(3) 0.6289(3) 0.39567(9)
C35 C 0.5404(3) 0.7595(3) 0.36844(9)
C36 C 0.4941(3) 0.6674(4) 0.37127(9)
C37 C 0.5072(3) 0.5940(4) 0.35319(9)
H34 H 0.554044 0.567851 0.355014
H35 H 0.503408 0.623335 0.338536
H36 H 0.472557 0.544095 0.354472
C38 C 0.3884(3) 0.6706(4) 0.39445(9)
C39 C 0.4398(3) 0.6310(3) 0.40718(9)
C40 C 0.4249(3) 0.5991(4) 0.42854(10)
H37 H 0.460077 0.571063 0.437408
C41 C 0.3574(3) 0.6091(4) 0.43656(9)
C42 C 0.3055(3) 0.6489(4) 0.42375(10)
H38 H 0.259549 0.655042 0.429464
C43 C 0.3210(3) 0.6797(4) 0.40256(10)
H39 H 0.285728 0.706964 0.393599
C44 C 0.5584(3) 0.7020(4) 0.40567(9)
C45 C 0.5772(3) 0.7706(4) 0.39068(9)
C46 C 0.6229(3) 0.8418(4) 0.39673(10)
H40 H 0.635826 0.889076 0.386468
C47 C 0.6487(3) 0.8415(4) 0.41803(11)
C48 C 0.6295(3) 0.7747(4) 0.43343(10)
H41 H 0.646774 0.777312 0.448201
C49 C 0.5850(3) 0.7042(4) 0.42702(10)
H42 H 0.572549 0.656870 0.437312
C50 C 0.4865(3) 0.8367(4) 0.36610(8)
C51 C 0.4189(3) 0.8059(4) 0.36908(8)
C52 C 0.3628(3) 0.8682(4) 0.36801(9)
H43 H 0.316290 0.847259 0.370078
C53 C 0.3771(3) 0.9602(4) 0.36389(9)
C54 C 0.4443(3) 0.9926(4) 0.36060(9)
H44 H 0.452478 1.056750 0.357627
C55 C 0.4995(3) 0.9304(4) 0.36167(9)
H45 H 0.545852 0.951594 0.359405
C56 C 0.3642(3) 0.6618(4) 0.35352(9)
H46 H 0.368828 0.592942 0.353363
H47 H 0.316067 0.676111 0.358310
C57 C 0.3722(3) 0.6957(4) 0.32976(10)
H48 H 0.376925 0.764514 0.329731
H49 H 0.415186 0.668964 0.323291
C58 C 0.3107(4) 0.6684(5) 0.31566(11)
H50 H 0.314541 0.698215 0.301074
H51 H 0.267543 0.688709 0.322907
H52 H 0.309959 0.600444 0.313830
C59 C 0.5455(3) 0.5325(4) 0.39833(10)
H53 H 0.586919 0.531694 0.388543
H54 H 0.562680 0.528141 0.413790
C60 C 0.5043(3) 0.4450(4) 0.39362(12)
H55 H 0.458764 0.449088 0.401314
H56 H 0.495035 0.441139 0.377476
C61 C 0.5406(4) 0.3589(5) 0.40085(15)
H57 H 0.516866 0.304284 0.394603
H58 H 0.539927 0.355058 0.417098
H59 H 0.588963 0.360280 0.395641
C62 C 0.5917(3) 0.7615(4) 0.34881(9)
H60 H 0.566619 0.740324 0.335368
H61 H 0.605820 0.827122 0.346266
C63 C 0.6582(3) 0.7024(4) 0.35120(9)
H62 H 0.692190 0.735964 0.360656
H63 H 0.646645 0.642684 0.358596
C64 C 0.6907(3) 0.6827(5) 0.32894(9)
H64 H 0.735862 0.651926 0.331076
H65 H 0.697522 0.741428 0.320909
H66 H 0.659930 0.641764 0.320346
Br7 Br -0.17433(3) 1.05837(4) 0.47102(2)
Br8 Br -0.16665(4) 0.59595(5) 0.36421(2)
Br9 Br 0.21483(3) 0.89521(4) 0.41062(2)
C65 C 0.0315(3) 0.7292(4) 0.46698(9)
C66 C -0.0979(3) 0.6958(3) 0.46110(9)
C67 C -0.0069(3) 0.6076(4) 0.43840(9)
C68 C -0.0230(3) 0.6465(4) 0.46252(9)
C69 C -0.0218(3) 0.5695(4) 0.48005(9)
H67 H -0.057572 0.522958 0.476581
H68 H -0.031070 0.596543 0.494697
H69 H 0.024166 0.539540 0.480121
C70 C -0.0139(3) 0.8158(4) 0.46932(8)
C71 C -0.0827(3) 0.7981(3) 0.46502(9)
C72 C -0.1315(3) 0.8699(4) 0.46520(9)
H70 H -0.179299 0.857908 0.462245
C73 C -0.1085(3) 0.9589(4) 0.46979(9)
C74 C -0.0392(3) 0.9784(4) 0.47397(9)
H71 H -0.024541 1.040539 0.476871
C75 C 0.0085(3) 0.9060(4) 0.47388(9)
H72 H 0.056252 0.917920 0.476920
C76 C -0.1220(3) 0.6773(4) 0.43769(9)
C77 C -0.0720(3) 0.6309(3) 0.42514(9)
C78 C -0.0852(3) 0.6082(4) 0.40330(9)
H73 H -0.051461 0.575292 0.394815
C79 C -0.1478(3) 0.6336(4) 0.39390(9)
C80 C -0.1989(3) 0.6798(4) 0.40601(10)
H74 H -0.242300 0.695848 0.399443
C81 C -0.1847(3) 0.7019(4) 0.42786(10)
H75 H -0.218585 0.734546 0.436341
C82 C 0.0533(3) 0.6674(3) 0.43030(9)
C83 C 0.0724(3) 0.7347(4) 0.44542(9)
C84 C 0.1217(3) 0.8024(4) 0.44011(9)
H76 H 0.134374 0.849277 0.450512
C85 C 0.1516(3) 0.7994(4) 0.41920(10)
C86 C 0.1356(3) 0.7299(4) 0.40404(9)
H77 H 0.157957 0.727949 0.389970
C87 C 0.0863(3) 0.6629(4) 0.40979(9)
H78 H 0.075233 0.614104 0.399713
C88 C 0.0807(3) 0.7193(4) 0.48702(9)
H79 H 0.099230 0.782033 0.490582
H80 H 0.052538 0.698838 0.499899
C89 C 0.1428(3) 0.6525(4) 0.48484(10)
H81 H 0.126037 0.591580 0.479248
H82 H 0.176006 0.678005 0.473812
C90 C 0.1807(3) 0.6376(4) 0.50673(10)
H83 H 0.220285 0.595439 0.504411
H84 H 0.148625 0.610031 0.517560
H85 H 0.197671 0.697648 0.512331
C91 C -0.1552(3) 0.6621(4) 0.47782(8)
H86 H -0.201021 0.681992 0.471950
H87 H -0.154846 0.593015 0.477863
C92 C -0.1503(3) 0.6949(4) 0.50184(9)
H88 H -0.104015 0.677821 0.507892
H89 H -0.154429 0.763685 0.502308
C93 C -0.2067(3) 0.6521(4) 0.51627(10)
H90 H -0.203264 0.677388 0.531348
H91 H -0.200675 0.584184 0.516735
H92 H -0.252557 0.667003 0.510057
C94 C 0.0081(3) 0.5021(4) 0.43530(10)
H93 H -0.028023 0.467553 0.443684
H94 H 0.000862 0.487507 0.419402
C95 C 0.0778(3) 0.4616(4) 0.44183(11)
H95 H 0.115529 0.498767 0.434923
H96 H 0.083329 0.465560 0.458149
C96 C 0.0844(4) 0.3613(4) 0.43464(12)
H97 H 0.131662 0.338967 0.437807
H98 H 0.075297 0.356561 0.418675
H99 H 0.050574 0.323132 0.442771
loop_
_geom_bond_atom_site_label_1
_geom_bond_atom_site_label_2
_geom_bond_site_symmetry_1
_geom_bond_site_symmetry_2
Br1 C9 1_555 1_555
Br2 C15 1_555 1_555
Br3 C21 1_555 1_555
C1 C4 1_555 1_555
C2 C4 1_555 1_555
C3 C4 1_555 1_555
C4 C5 1_555 1_555
C5 H1 1_555 1_555
H2 C5 1_555 1_555
H3 C5 1_555 1_555
C6 C1 1_555 1_555
C7 C2 1_555 1_555
C8 C7 1_555 1_555
H4 C8 1_555 1_555
C9 C8 1_555 1_555
C10 C9 1_555 1_555
H5 C10 1_555 1_555
C11 C6 1_555 1_555
H6 C11 1_555 1_555
C12 C2 1_555 1_555
C13 C3 1_555 1_555
C14 C13 1_555 1_555
H7 C14 1_555 1_555
C15 C14 1_555 1_555
C16 C15 1_555 1_555
H8 C16 1_555 1_555
C17 C12 1_555 1_555
H9 C17 1_555 1_555
C18 C3 1_555 1_555
C19 C1 1_555 1_555
C20 C19 1_555 1_555
H10 C20 1_555 1_555
C21 C20 1_555 1_555
C22 C21 1_555 1_555
H11 C22 1_555 1_555
C23 C18 1_555 1_555
H12 C23 1_555 1_555
C24 C1 1_555 1_555
H13 C24 1_555 1_555
H14 C24 1_555 1_555
C25 C24 1_555 1_555
H15 C25 1_555 1_555
H16 C25 1_555 1_555
C26 C25 1_555 1_555
H17 C26 1_555 1_555
H18 C26 1_555 1_555
H19 C26 1_555 1_555
C27 C2 1_555 1_555
H20 C27 1_555 1_555
H21 C27 1_555 1_555
C28 C27 1_555 1_555
H22 C28 1_555 1_555
H23 C28 1_555 1_555
C29 C28 1_555 1_555
H24 C29 1_555 1_555
H25 C29 1_555 1_555
H26 C29 1_555 1_555
C30 C3 1_555 1_555
H27 C30 1_555 1_555
H28 C30 1_555 1_555
C31 C30 1_555 1_555
H29 C31 1_555 1_555
H30 C31 1_555 1_555
C32 C31 1_555 1_555
H31 C32 1_555 1_555
H32 C32 1_555 1_555
H33 C32 1_555 1_555
Br4 C41 1_555 1_555
Br5 C47 1_555 1_555
Br6 C53 1_555 1_555
C33 C36 1_555 1_555
C34 C36 1_555 1_555
C35 C36 1_555 1_555
C36 C37 1_555 1_555
C37 H34 1_555 1_555
H35 C37 1_555 1_555
H36 C37 1_555 1_555
C38 C33 1_555 1_555
C39 C34 1_555 1_555
C40 C39 1_555 1_555
H37 C40 1_555 1_555
C41 C40 1_555 1_555
C42 C41 1_555 1_555
H38 C42 1_555 1_555
C43 C38 1_555 1_555
H39 C43 1_555 1_555
C44 C34 1_555 1_555
C45 C35 1_555 1_555
C46 C45 1_555 1_555
H40 C46 1_555 1_555
C47 C46 1_555 1_555
C48 C47 1_555 1_555
H41 C48 1_555 1_555
C49 C44 1_555 1_555
H42 C49 1_555 1_555
C50 C35 1_555 1_555
C51 C33 1_555 1_555
C52 C51 1_555 1_555
H43 C52 1_555 1_555
C53 C52 1_555 1_555
C54 C53 1_555 1_555
H44 C54 1_555 1_555
C55 C50 1_555 1_555
H45 C55 1_555 1_555
C56 C33 1_555 1_555
H46 C56 1_555 1_555
H47 C56 1_555 1_555
C57 C56 1_555 1_555
H48 C57 1_555 1_555
H49 C57 1_555 1_555
C58 C57 1_555 1_555
H50 C58 1_555 1_555
H51 C58 1_555 1_555
H52 C58 1_555 1_555
C59 C34 1_555 1_555
H53 C59 1_555 1_555
H54 C59 1_555 1_555
C60 C59 1_555 1_555
H55 C60 1_555 1_555
H56 C60 1_555 1_555
C61 C60 1_555 1_555
H57 C61 1_555 1_555
H58 C61 1_555 1_555
H59 C61 1_555 1_555
C62 C35 1_555 1_555
H60 C62 1_555 1_555
H61 C62 1_555 1_555
C63 C62 1_555 1_555
H62 C63 1_555 1_555
H63 C63 1_555 1_555
C64 C63 1_555 1_555
H64 C64 1_555 1_555
H65 C64 1_555 1_555
H66 C64 1_555 1_555
Br7 C73 1_555 1_555
Br8 C79 1_555 1_555
Br9 C85 1_555 1_555
C65 C68 1_555 1_555
C66 C68 1_555 1_555
C67 C68 1_555 1_555
C68 C69 1_555 1_555
C69 H67 1_555 1_555
H68 C69 1_555 1_555
H69 C69 1_555 1_555
C70 C65 1_555 1_555
C71 C66 1_555 1_555
C72 C71 1_555 1_555
H70 C72 1_555 1_555
C73 C72 1_555 1_555
C74 C73 1_555 1_555
H71 C74 1_555 1_555
C75 C70 1_555 1_555
H72 C75 1_555 1_555
C76 C66 1_555 1_555
C77 C67 1_555 1_555
C78 C77 1_555 1_555
H73 C78 1_555 1_555
C79 C78 1_555 1_555
C80 C79 1_555 1_555
H74 C80 1_555 1_555
C81 C76 1_555 1_555
H75 C81 1_555 1_555
C82 C67 1_555 1_555
C83 C65 1_555 1_555
C84 C83 1_555 1_555
H76 C84 1_555 1_555
C85 C84 1_555 1_555
C86 C85 1_555 1_555
H77 C86 1_555 1_555
C87 C82 1_555 1_555
H78 C87 1_555 1_555
C88 C65 1_555 1_555
H79 C88 1_555 1_555
H80 C88 1_555 1_555
C89 C88 1_555 1_555
H81 C89 1_555 1_555
H82 C89 1_555 1_555
C90 C89 1_555 1_555
H83 C90 1_555 1_555
H84 C90 1_555 1_555
H85 C90 1_555 1_555
C91 C66 1_555 1_555
H86 C91 1_555 1_555
H87 C91 1_555 1_555
C92 C91 1_555 1_555
H88 C92 1_555 1_555
H89 C92 1_555 1_555
C93 C92 1_555 1_555
H90 C93 1_555 1_555
H91 C93 1_555 1_555
H92 C93 1_555 1_555
C94 C67 1_555 1_555
H93 C94 1_555 1_555
H94 C94 1_555 1_555
C95 C94 1_555 1_555
H95 C95 1_555 1_555
H96 C95 1_555 1_555
C96 C95 1_555 1_555
H97 C96 1_555 1_555
H98 C96 1_555 1_555
H99 C96 1_555 1_555
C6 C7 1_555 1_555
C10 C11 1_555 1_555
C12 C13 1_555 1_555
C16 C17 1_555 1_555
C18 C19 1_555 1_555
C22 C23 1_555 1_555
C38 C39 1_555 1_555
C42 C43 1_555 1_555
C44 C45 1_555 1_555
C48 C49 1_555 1_555
C50 C51 1_555 1_555
C54 C55 1_555 1_555
C70 C71 1_555 1_555
C74 C75 1_555 1_555
C76 C77 1_555 1_555
C80 C81 1_555 1_555
C82 C83 1_555 1_555
C86 C87 1_555 1_555

#END
