
#######################################################################
#
#                 Cambridge Crystallographic Data Centre
#                                CCDC 
#
#######################################################################
#
# If this CIF has been generated from an entry in the Cambridge 
# Structural Database, then it will include bibliographic, chemical, 
# crystal, experimental, refinement or atomic coordinate data resulting 
# from the CCDC's data processing and validation procedures.
#
#######################################################################

data_TIMYOF01
_chemical_formula_moiety         'C20 H19 N3 O3'
_chemical_name_systematic        
2,5-dimethyl-3-oxo-N,N'-diphenyl-2,3-dihydro-1H-pyrrole-2,4-dicarboxamide
_symmetry_cell_setting           triclinic
_symmetry_space_group_name_H-M   'P -1'
_symmetry_Int_Tables_number      2
_space_group_name_Hall           '-P 1'
loop_
_symmetry_equiv_pos_site_id
_symmetry_equiv_pos_as_xyz
1 x,y,z
2 -x,-y,-z
_cell_length_a                   8.1119(8)
_cell_length_b                   9.8266(11)
_cell_length_c                   11.5560(12)
_cell_angle_alpha                76.289(9)
_cell_angle_beta                 86.458(8)
_cell_angle_gamma                78.125(9)
_cell_volume                     875.673
_cell_formula_units_Z            2
loop_
_atom_site_label
_atom_site_type_symbol
_atom_site_fract_x
_atom_site_fract_y
_atom_site_fract_z
C1 C -0.2105(2) 0.0781(2) 0.50759(17)
H1 H -0.184(3) 0.137(2) 0.5560(19)
C2 C -0.2696(3) -0.0457(2) 0.55683(19)
H2 H -0.289(3) -0.071(2) 0.640(2)
C3 C -0.3046(3) -0.1312(2) 0.4875(2)
H3 H -0.348(3) -0.221(2) 0.528(2)
C4 C -0.2800(3) -0.0928(2) 0.3669(2)
H4 H -0.303(3) -0.151(2) 0.316(2)
C5 C -0.2218(3) 0.0309(2) 0.31455(18)
H5 H -0.199(3) 0.060(2) 0.2269(19)
C6 C -0.1858(2) 0.11631(17) 0.38551(15)
C7 C -0.0730(2) 0.33714(18) 0.37049(15)
C8 C 0.0080(2) 0.44529(18) 0.27709(15)
C9 C 0.1298(2) 0.37715(17) 0.18967(14)
C10 C 0.2907(2) 0.40690(17) 0.20275(14)
C11 C 0.2761(2) 0.48291(17) 0.29187(14)
C12 C -0.1307(3) 0.5617(2) 0.2078(2)
H6 H -0.196(3) 0.609(3) 0.266(2)
H7 H -0.201(3) 0.518(3) 0.163(2)
H8 H -0.077(3) 0.635(3) 0.149(2)
C13 C 0.4094(3) 0.5364(3) 0.33990(19)
H9 H 0.455(4) 0.605(3) 0.277(2)
H10 H 0.367(3) 0.580(2) 0.406(2)
H11 H 0.493(4) 0.456(3) 0.372(3)
C14 C 0.4467(2) 0.36460(18) 0.13799(15)
C15 C 0.5521(2) 0.22679(18) -0.01602(14)
C16 C 0.4992(3) 0.1519(2) -0.08967(16)
H12 H 0.381(3) 0.151(2) -0.0903(19)
C17 C 0.6132(3) 0.0807(2) -0.15915(19)
H13 H 0.573(3) 0.028(2) -0.213(2)
C18 C 0.7822(3) 0.0825(2) -0.1565(2)
H14 H 0.860(3) 0.032(3) -0.207(2)
C19 C 0.8350(3) 0.1584(2) -0.0844(2)
H15 H 0.947(3) 0.161(2) -0.082(2)
C20 C 0.7221(2) 0.2319(2) -0.01483(17)
H16 H 0.760(3) 0.285(2) 0.0340(19)
N1 N -0.11618(19) 0.23558(16) 0.32674(13)
H17 H -0.090(3) 0.240(2) 0.2506(19)
N2 N 0.12016(18) 0.50528(16) 0.33485(13)
H18 H 0.090(3) 0.547(2) 0.3941(19)
N3 N 0.42804(19) 0.28978(17) 0.05623(13)
H19 H 0.331(3) 0.276(2) 0.0503(18)
O1 O -0.09687(19) 0.35106(15) 0.47240(12)
O2 O 0.08367(16) 0.31065(14) 0.12262(11)
O3 O 0.58068(16) 0.39276(16) 0.15687(13)
loop_
_geom_bond_atom_site_label_1
_geom_bond_atom_site_label_2
_geom_bond_site_symmetry_1
_geom_bond_site_symmetry_2
C1 H1 1_555 1_555
C2 C1 1_555 1_555
H2 C2 1_555 1_555
C3 C2 1_555 1_555
H3 C3 1_555 1_555
C4 C3 1_555 1_555
H4 C4 1_555 1_555
C5 C4 1_555 1_555
H5 C5 1_555 1_555
C6 C1 1_555 1_555
C7 C8 1_555 1_555
C8 C9 1_555 1_555
C9 C10 1_555 1_555
C10 C11 1_555 1_555
C11 C13 1_555 1_555
C12 C8 1_555 1_555
H6 C12 1_555 1_555
H7 C12 1_555 1_555
H8 C12 1_555 1_555
C13 H9 1_555 1_555
H10 C13 1_555 1_555
H11 C13 1_555 1_555
C14 C10 1_555 1_555
C15 C16 1_555 1_555
C16 H12 1_555 1_555
C17 C16 1_555 1_555
H13 C17 1_555 1_555
C18 C17 1_555 1_555
H14 C18 1_555 1_555
C19 C18 1_555 1_555
H15 C19 1_555 1_555
C20 C15 1_555 1_555
H16 C20 1_555 1_555
N1 C6 1_555 1_555
H17 N1 1_555 1_555
N2 C8 1_555 1_555
H18 N2 1_555 1_555
N3 C14 1_555 1_555
H19 N3 1_555 1_555
O1 C7 1_555 1_555
O2 C9 1_555 1_555
O3 C14 1_555 1_555
C5 C6 1_555 1_555
C7 N1 1_555 1_555
C11 N2 1_555 1_555
C15 N3 1_555 1_555
C19 C20 1_555 1_555

#END
