
#######################################################################
#
#                 Cambridge Crystallographic Data Centre
#                                CCDC 
#
#######################################################################
#
# If this CIF has been generated from an entry in the Cambridge 
# Structural Database, then it will include bibliographic, chemical, 
# crystal, experimental, refinement or atomic coordinate data resulting 
# from the CCDC's data processing and validation procedures.
#
#######################################################################

data_TIMZAQ03
_chemical_formula_moiety         'C13 H10 N4 O3'
_chemical_name_systematic        '2-nitrobenzaldehyde isonicotinoylhydrazone'
_symmetry_cell_setting           monoclinic
_symmetry_space_group_name_H-M   'P 21/c'
_symmetry_Int_Tables_number      14
_space_group_name_Hall           '-P 2ybc'
loop_
_symmetry_equiv_pos_site_id
_symmetry_equiv_pos_as_xyz
1 x,y,z
2 -x,1/2+y,1/2-z
3 -x,-y,-z
4 x,1/2-y,1/2+z
_cell_length_a                   7.3096(2)
_cell_length_b                   10.9305(4)
_cell_length_c                   15.3801(5)
_cell_angle_alpha                90
_cell_angle_beta                 94.569(2)
_cell_angle_gamma                90
_cell_volume                     1224.93
_exptl_crystal_colour            colorless
_exptl_crystal_description       block
_chemical_melting_point          '506-508 K'
_cell_formula_units_Z            4
_exptl_crystal_recrystallization_method methanol
loop_
_atom_site_label
_atom_site_type_symbol
_atom_site_fract_x
_atom_site_fract_y
_atom_site_fract_z
O1 O 0.08020(15) 0.21824(9) 0.47946(6)
O2 O 0.51842(15) 0.70240(10) 0.63973(7)
O3 O 0.4526(2) 0.88911(10) 0.60316(7)
N1 N 0.46870(17) 0.78017(11) 0.58549(8)
N2 N -0.07663(16) 0.02299(11) 0.75912(7)
N3 N 0.13790(15) 0.37441(10) 0.57572(7)
N4 N 0.20703(15) 0.44586(10) 0.51250(7)
C1 C 0.01571(19) 0.12684(12) 0.77836(9)
C2 C 0.07177(19) 0.20654(12) 0.71560(9)
C3 C 0.02828(17) 0.18024(12) 0.62778(8)
C4 C -0.06644(19) 0.07294(12) 0.60728(9)
C5 C -0.1153(2) -0.00222(13) 0.67429(9)
C6 C 0.08315(18) 0.25879(12) 0.55360(8)
C7 C 0.34572(17) 0.63120(12) 0.47328(8)
C8 C 0.43125(18) 0.74275(12) 0.49441(8)
C9 C 0.49071(18) 0.82272(13) 0.43242(9)
C10 C 0.47090(19) 0.78891(13) 0.34564(9)
C11 C 0.39182(19) 0.67686(14) 0.32202(9)
C12 C 0.32823(18) 0.60028(13) 0.38482(9)
C13 C 0.26921(18) 0.55024(12) 0.53778(8)
H1 H 0.0441 0.1468 0.8380
H2 H 0.1391 0.2783 0.7323
H3 H -0.0975 0.0512 0.5481
H4 H -0.1798 -0.0757 0.6593
H5 H 0.1270 0.4068 0.6258
H6 H 0.5440 0.8992 0.4494
H7 H 0.5112 0.8421 0.3022
H8 H 0.3813 0.6526 0.2625
H9 H 0.2715 0.5251 0.3673
H10 H 0.2662 0.5751 0.5968
loop_
_geom_bond_atom_site_label_1
_geom_bond_atom_site_label_2
_geom_bond_site_symmetry_1
_geom_bond_site_symmetry_2
O1 C6 1_555 1_555
O2 N1 1_555 1_555
O3 N1 1_555 1_555
N1 C8 1_555 1_555
N2 C1 1_555 1_555
N3 N4 1_555 1_555
N4 C13 1_555 1_555
C1 C2 1_555 1_555
C2 C3 1_555 1_555
C3 C4 1_555 1_555
C4 C5 1_555 1_555
C5 N2 1_555 1_555
C6 N3 1_555 1_555
C7 C8 1_555 1_555
C8 C9 1_555 1_555
C9 C10 1_555 1_555
C10 C11 1_555 1_555
C11 C12 1_555 1_555
C12 C7 1_555 1_555
C13 C7 1_555 1_555
H1 C1 1_555 1_555
H2 C2 1_555 1_555
H3 C4 1_555 1_555
H4 C5 1_555 1_555
H5 N3 1_555 1_555
H6 C9 1_555 1_555
H7 C10 1_555 1_555
H8 C11 1_555 1_555
H9 C12 1_555 1_555
H10 C13 1_555 1_555
C3 C6 1_555 1_555

#END
