
#######################################################################
#
#                 Cambridge Crystallographic Data Centre
#                                CCDC 
#
#######################################################################
#
# If this CIF has been generated from an entry in the Cambridge 
# Structural Database, then it will include bibliographic, chemical, 
# crystal, experimental, refinement or atomic coordinate data resulting 
# from the CCDC's data processing and validation procedures.
#
#######################################################################

data_TINLUZ
_chemical_formula_moiety         'C14 H11 F1 N2 O1 S1'
_chemical_name_systematic        
2-(3-fluorophenyl)-3-(pyridin-2-yl)-1,3-thiazolidin-4-one
_symmetry_cell_setting           orthorhombic
_symmetry_space_group_name_H-M   'P n a 21'
_symmetry_Int_Tables_number      33
_space_group_name_Hall           'P 2c -2n'
loop_
_symmetry_equiv_pos_site_id
_symmetry_equiv_pos_as_xyz
1 x,y,z
2 -x,-y,1/2+z
3 1/2+x,1/2-y,z
4 1/2-x,1/2+y,1/2+z
_cell_length_a                   12.8329(3)
_cell_length_b                   6.87470(10)
_cell_length_c                   13.8540(9)
_cell_angle_alpha                90
_cell_angle_beta                 90
_cell_angle_gamma                90
_cell_volume                     1222.23
_exptl_crystal_colour            yellow
_exptl_crystal_description       block
_cell_formula_units_Z            4
loop_
_atom_site_label
_atom_site_type_symbol
_atom_site_fract_x
_atom_site_fract_y
_atom_site_fract_z
S1 S 0.23592(2) 0.12479(4) 0.44817(2)
F1 F 0.41328(7) 0.85405(13) 0.59082(7)
O1 O -0.04586(7) 0.20913(13) 0.36510(7)
N1 N 0.15709(8) 0.64752(17) 0.28045(8)
N2 N 0.10850(8) 0.37923(13) 0.37038(8)
C1 C -0.02590(11) 0.60665(18) 0.31131(10)
H1 H -0.0789 0.5362 0.3409
C2 C 0.09814(9) 0.07525(17) 0.45415(10)
H2 H 0.0837 -0.0549 0.4306
H3 H 0.0738 0.0848 0.5203
C3 C 0.07768(9) 0.54901(16) 0.31867(8)
C4 C 0.21351(10) 0.37656(16) 0.41217(9)
H4 H 0.2640 0.4118 0.3620
C5 C 0.04380(9) 0.22539(17) 0.39141(9)
C6 C 0.24464(11) 0.78418(19) 0.64659(10)
H5 H 0.2526 0.8734 0.6965
C7 C 0.15321(10) 0.6788(2) 0.63581(9)
H6 H 0.0988 0.6964 0.6793
C8 C 0.22280(9) 0.51919(17) 0.49479(8)
C9 C 0.32331(10) 0.75227(19) 0.58085(10)
C10 C 0.14234(10) 0.54706(18) 0.56036(9)
H7 H 0.0807 0.4771 0.5538
C11 C 0.13432(10) 0.80759(18) 0.22923(10)
H8 H 0.1889 0.8768 0.2015
C12 C 0.31560(10) 0.62298(17) 0.50498(9)
H9 H 0.3705 0.6056 0.4620
C13 C 0.03375(11) 0.87501(17) 0.21551(9)
H10 H 0.0210 0.9855 0.1786
C14 C -0.04733(10) 0.77359(19) 0.25815(10)
H11 H -0.1156 0.8168 0.2513
loop_
_geom_bond_atom_site_label_1
_geom_bond_atom_site_label_2
_geom_bond_site_symmetry_1
_geom_bond_site_symmetry_2
S1 C2 1_555 1_555
F1 C9 1_555 1_555
O1 C5 1_555 1_555
N1 C3 1_555 1_555
N2 C3 1_555 1_555
C1 H1 1_555 1_555
C2 H2 1_555 1_555
H3 C2 1_555 1_555
C3 C1 1_555 1_555
C4 S1 1_555 1_555
H4 C4 1_555 1_555
C5 N2 1_555 1_555
C6 H5 1_555 1_555
C7 C6 1_555 1_555
H6 C7 1_555 1_555
C8 C4 1_555 1_555
C9 C6 1_555 1_555
C10 C7 1_555 1_555
H7 C10 1_555 1_555
C11 N1 1_555 1_555
H8 C11 1_555 1_555
C12 C8 1_555 1_555
H9 C12 1_555 1_555
C13 C11 1_555 1_555
H10 C13 1_555 1_555
C14 C1 1_555 1_555
H11 C14 1_555 1_555
N2 C4 1_555 1_555
C2 C5 1_555 1_555
C8 C10 1_555 1_555
C9 C12 1_555 1_555
C13 C14 1_555 1_555

#END
