
#######################################################################
#
#                 Cambridge Crystallographic Data Centre
#                                CCDC 
#
#######################################################################
#
# If this CIF has been generated from an entry in the Cambridge 
# Structural Database, then it will include bibliographic, chemical, 
# crystal, experimental, refinement or atomic coordinate data resulting 
# from the CCDC's data processing and validation procedures.
#
#######################################################################

data_TINNIP
_chemical_formula_moiety         'C42 H38 N12 O3'
_chemical_name_systematic        
2-(2-Azidophenyl)-2-(2,4-bis(2-azidophenyl)-5-benzoyl-3-(2-oxo-2-phenylethyl)imidazolidin-1-yl)-N-t-butylacetamide
_symmetry_cell_setting           triclinic
_symmetry_space_group_name_H-M   'P -1'
_symmetry_Int_Tables_number      2
_space_group_name_Hall           '-P 1'
loop_
_symmetry_equiv_pos_site_id
_symmetry_equiv_pos_as_xyz
1 x,y,z
2 -x,-y,-z
_cell_length_a                   9.1637(16)
_cell_length_b                   14.864(3)
_cell_length_c                   14.891(3)
_cell_angle_alpha                97.570(3)
_cell_angle_beta                 94.437(3)
_cell_angle_gamma                100.613(3)
_cell_volume                     1965.44
_exptl_crystal_colour            colorless
_exptl_crystal_description       block
_cell_formula_units_Z            2
loop_
_atom_site_label
_atom_site_type_symbol
_atom_site_fract_x
_atom_site_fract_y
_atom_site_fract_z
C1 C 0.1713(2) 0.71833(13) 0.36110(12)
H1 H 0.0734 0.6769 0.3545
C2 C 0.2737(2) 0.78568(13) 0.23635(13)
H2 H 0.1934 0.7848 0.1886
C3 C 0.1499(2) 0.82057(13) 0.36548(13)
H3 H 0.0539 0.8217 0.3322
C4 C 0.1876(2) 0.61070(13) 0.22071(12)
H4 H 0.0858 0.5890 0.2352
C5 C 0.2777(3) 0.53637(14) 0.23931(13)
C6 C 0.5176(3) 0.51133(16) 0.31501(15)
C7 C 0.4474(3) 0.43907(19) 0.37056(18)
H5 H 0.4087 0.4691 0.4220
H6 H 0.5215 0.4064 0.3914
H7 H 0.3677 0.3961 0.3333
C8 C 0.5705(3) 0.4651(2) 0.22943(19)
H8 H 0.4873 0.4239 0.1934
H9 H 0.6447 0.4307 0.2463
H10 H 0.6128 0.5115 0.1947
C9 C 0.6491(3) 0.5784(2) 0.3722(2)
H11 H 0.6918 0.6239 0.3366
H12 H 0.7233 0.5446 0.3906
H13 H 0.6147 0.6085 0.4252
C10 C 0.1788(2) 0.61556(13) 0.11909(12)
C11 C 0.0451(2) 0.61972(13) 0.07006(13)
C12 C 0.0370(3) 0.61849(15) -0.02388(14)
H14 H -0.0532 0.6196 -0.0565
C13 C 0.1619(3) 0.61563(16) -0.06806(15)
H15 H 0.1563 0.6153 -0.1307
C14 C 0.2958(3) 0.61324(16) -0.02063(15)
H16 H 0.3807 0.6122 -0.0508
C15 C 0.3029(2) 0.61235(14) 0.07204(13)
H17 H 0.3931 0.6095 0.1037
C16 C 0.4248(2) 0.80325(13) 0.19988(13)
C17 C 0.4424(3) 0.83292(15) 0.11561(15)
C18 C 0.5808(3) 0.84778(18) 0.08339(18)
H18 H 0.5904 0.8665 0.0266
C19 C 0.7045(3) 0.83502(19) 0.13496(19)
H19 H 0.7974 0.8445 0.1128
C20 C 0.6906(3) 0.80809(18) 0.21962(18)
H20 H 0.7742 0.8000 0.2549
C21 C 0.5522(2) 0.79324(15) 0.25159(15)
H21 H 0.5439 0.7761 0.3091
C22 C 0.2826(2) 0.94922(14) 0.29051(14)
H22 H 0.3759 0.9648 0.2642
H23 H 0.2895 0.9916 0.3468
C23 C 0.1596(3) 0.96786(16) 0.22599(16)
C24 C 0.1859(3) 1.05895(17) 0.19131(16)
C25 C 0.3156(4) 1.12412(19) 0.2150(2)
H24 H 0.3921 1.1115 0.2533
C26 C 0.3334(5) 1.2077(2) 0.1828(3)
H25 H 0.4219 1.2507 0.1994
C27 C 0.2255(5) 1.2278(3) 0.1283(3)
H26 H 0.2381 1.2850 0.1080
C28 C 0.0986(5) 1.1653(3) 0.1028(3)
H27 H 0.0244 1.1790 0.0637
C29 C 0.0766(4) 1.0797(3) 0.1342(3)
H28 H -0.0120 1.0369 0.1163
C30 C 0.1609(2) 0.87493(14) 0.45969(13)
C31 C 0.0341(2) 0.87458(14) 0.50620(14)
C32 C 0.0443(3) 0.92171(17) 0.59365(16)
H29 H -0.0404 0.9192 0.6246
C33 C 0.1784(3) 0.97189(18) 0.63480(16)
H30 H 0.1843 1.0050 0.6929
C34 C 0.3051(3) 0.97337(18) 0.59018(16)
H31 H 0.3965 1.0072 0.6184
C35 C 0.2962(3) 0.92488(16) 0.50402(15)
H32 H 0.3825 0.9255 0.4749
C36 C 0.2629(2) 0.70483(14) 0.44660(13)
C37 C 0.1836(3) 0.68811(16) 0.52867(14)
C38 C 0.0427(3) 0.6344(2) 0.52300(18)
H33 H -0.0068 0.6072 0.4663
C39 C -0.0255(4) 0.6208(3) 0.6009(2)
H34 H -0.1192 0.5826 0.5964
C40 C 0.0433(5) 0.6627(3) 0.6843(2)
H35 H -0.0048 0.6553 0.7364
C41 C 0.1826(4) 0.7153(2) 0.69066(18)
H36 H 0.2298 0.7439 0.7475
C42 C 0.2551(3) 0.72675(18) 0.61387(15)
H37 H 0.3523 0.7606 0.6195
N1 N 0.24574(18) 0.70065(10) 0.27886(10)
N2 N 0.27144(18) 0.85698(11) 0.31364(11)
N3 N 0.4079(2) 0.56693(12) 0.28957(11)
H38 H 0.4305 0.6253 0.3093
N4 N -0.0793(2) 0.62549(14) 0.12130(13)
N5 N -0.2006(2) 0.61950(14) 0.07588(15)
N6 N -0.3181(3) 0.61375(19) 0.04199(19)
N7 N 0.3104(2) 0.84751(16) 0.06649(14)
N8 N 0.3226(3) 0.8668(2) -0.01066(18)
N9 N 0.3188(4) 0.8842(3) -0.0823(2)
N10 N -0.1037(2) 0.82123(14) 0.45994(13)
N11 N -0.2118(3) 0.82368(18) 0.50331(17)
N12 N -0.3172(3) 0.8223(3) 0.5372(2)
O1 O 0.2263(2) 0.45531(10) 0.20662(11)
O2 O 0.0446(2) 0.91206(13) 0.20426(13)
O3 O 0.39728(18) 0.71225(12) 0.44958(10)
loop_
_geom_bond_atom_site_label_1
_geom_bond_atom_site_label_2
_geom_bond_site_symmetry_1
_geom_bond_site_symmetry_2
C1 H1 1_555 1_555
C2 H2 1_555 1_555
C3 C1 1_555 1_555
H3 C3 1_555 1_555
C4 H4 1_555 1_555
C5 C4 1_555 1_555
C6 C7 1_555 1_555
C7 H5 1_555 1_555
H6 C7 1_555 1_555
H7 C7 1_555 1_555
C8 C6 1_555 1_555
H8 C8 1_555 1_555
H9 C8 1_555 1_555
H10 C8 1_555 1_555
C9 C6 1_555 1_555
H11 C9 1_555 1_555
H12 C9 1_555 1_555
H13 C9 1_555 1_555
C10 C4 1_555 1_555
C11 C10 1_555 1_555
C12 C11 1_555 1_555
H14 C12 1_555 1_555
C13 C12 1_555 1_555
H15 C13 1_555 1_555
C14 C13 1_555 1_555
H16 C14 1_555 1_555
C15 C10 1_555 1_555
H17 C15 1_555 1_555
C16 C2 1_555 1_555
C17 C16 1_555 1_555
C18 C17 1_555 1_555
H18 C18 1_555 1_555
C19 C18 1_555 1_555
H19 C19 1_555 1_555
C20 C19 1_555 1_555
H20 C20 1_555 1_555
C21 C16 1_555 1_555
H21 C21 1_555 1_555
C22 H22 1_555 1_555
H23 C22 1_555 1_555
C23 C22 1_555 1_555
C24 C23 1_555 1_555
C25 C24 1_555 1_555
H24 C25 1_555 1_555
C26 C25 1_555 1_555
H25 C26 1_555 1_555
C27 C26 1_555 1_555
H26 C27 1_555 1_555
C28 C27 1_555 1_555
H27 C28 1_555 1_555
C29 C24 1_555 1_555
H28 C29 1_555 1_555
C30 C3 1_555 1_555
C31 C30 1_555 1_555
C32 C31 1_555 1_555
H29 C32 1_555 1_555
C33 C32 1_555 1_555
H30 C33 1_555 1_555
C34 C33 1_555 1_555
H31 C34 1_555 1_555
C35 C30 1_555 1_555
H32 C35 1_555 1_555
C36 C1 1_555 1_555
C37 C36 1_555 1_555
C38 C37 1_555 1_555
H33 C38 1_555 1_555
C39 C38 1_555 1_555
H34 C39 1_555 1_555
C40 C39 1_555 1_555
H35 C40 1_555 1_555
C41 C40 1_555 1_555
H36 C41 1_555 1_555
C42 C37 1_555 1_555
H37 C42 1_555 1_555
N1 C1 1_555 1_555
N2 C2 1_555 1_555
N3 C5 1_555 1_555
H38 N3 1_555 1_555
N4 C11 1_555 1_555
N5 N4 1_555 1_555
N6 N5 1_555 1_555
N7 C17 1_555 1_555
N8 N7 1_555 1_555
N9 N8 1_555 1_555
N10 C31 1_555 1_555
N11 N10 1_555 1_555
N12 N11 1_555 1_555
O1 C5 1_555 1_555
O2 C23 1_555 1_555
O3 C36 1_555 1_555
C2 N1 1_555 1_555
C3 N2 1_555 1_555
C4 N1 1_555 1_555
C6 N3 1_555 1_555
C14 C15 1_555 1_555
C20 C21 1_555 1_555
C22 N2 1_555 1_555
C28 C29 1_555 1_555
C34 C35 1_555 1_555
C41 C42 1_555 1_555

#END
