
#######################################################################
#
#                 Cambridge Crystallographic Data Centre
#                                CCDC 
#
#######################################################################
#
# If this CIF has been generated from an entry in the Cambridge 
# Structural Database, then it will include bibliographic, chemical, 
# crystal, experimental, refinement or atomic coordinate data resulting 
# from the CCDC's data processing and validation procedures.
#
#######################################################################

data_TINPEN
_chemical_formula_moiety         'C26 H20 N2 O3'
_chemical_name_systematic        
2-(2,6-Dimethylphenyl)-8-methoxy-4-phenyl-1H-pyrrolo[3,4-c]quinoline-1,3(2H)-dione
_symmetry_cell_setting           monoclinic
_symmetry_space_group_name_H-M   'P 21/c'
_symmetry_Int_Tables_number      14
_space_group_name_Hall           '-P 2ybc'
loop_
_symmetry_equiv_pos_site_id
_symmetry_equiv_pos_as_xyz
1 x,y,z
2 -x,1/2+y,1/2-z
3 -x,-y,-z
4 x,1/2-y,1/2+z
_cell_length_a                   8.5140(9)
_cell_length_b                   13.6267(14)
_cell_length_c                   18.6805(19)
_cell_angle_alpha                90
_cell_angle_beta                 100.8290(10)
_cell_angle_gamma                90
_cell_volume                     2128.67
_cell_formula_units_Z            4
loop_
_atom_site_label
_atom_site_type_symbol
_atom_site_fract_x
_atom_site_fract_y
_atom_site_fract_z
C1 C 0.2803(2) 0.00081(12) 0.52293(9)
C2 C 0.2791(3) -0.10329(13) 0.51998(11)
H1 H 0.3415 -0.1390 0.5573
C3 C 0.1883(3) -0.15114(14) 0.46349(10)
H2 H 0.1896 -0.2194 0.4625
C4 C 0.0915(2) -0.09952(13) 0.40589(9)
C5 C 0.0926(2) 0.00066(12) 0.40485(9)
H3 H 0.0316 0.0348 0.3663
C6 C 0.1875(2) 0.05180(11) 0.46302(9)
C7 C 0.20085(18) 0.15406(11) 0.46776(8)
C8 C 0.13353(19) 0.23007(11) 0.41301(9)
C9 C 0.28584(19) 0.30759(12) 0.51273(9)
C10 C 0.28864(19) 0.19980(12) 0.52761(8)
C11 C 0.36903(19) 0.14334(13) 0.58725(8)
C12 C 0.4579(2) 0.18780(14) 0.65563(8)
C13 C 0.3967(2) 0.26664(14) 0.68792(9)
H4 H 0.2967 0.2917 0.6674
C14 C 0.4835(3) 0.30866(17) 0.75082(10)
H5 H 0.4413 0.3613 0.7726
C15 C 0.6313(3) 0.2726(2) 0.78073(11)
H6 H 0.6912 0.3023 0.8218
C16 C 0.6906(3) 0.1931(2) 0.75037(11)
H7 H 0.7899 0.1678 0.7716
C17 C 0.6047(2) 0.14995(17) 0.68843(9)
H8 H 0.6456 0.0951 0.6686
C18 C -0.0842(3) -0.10905(15) 0.29085(11)
H9 H -0.1668 -0.0695 0.3047
H10 H -0.1315 -0.1573 0.2559
H11 H -0.0134 -0.0681 0.2697
C19 C 0.14718(18) 0.41311(11) 0.40954(8)
C20 C -0.00818(19) 0.44739(11) 0.40565(8)
C21 C -0.0474(2) 0.53606(13) 0.37063(10)
H12 H -0.1514 0.5597 0.3653
C22 C 0.0649(3) 0.58949(14) 0.34366(11)
H13 H 0.0369 0.6494 0.3210
C23 C 0.2179(3) 0.55525(14) 0.34986(11)
H14 H 0.2933 0.5931 0.3323
C24 C 0.2628(2) 0.46528(13) 0.38183(10)
C25 C -0.1293(2) 0.39279(14) 0.43900(10)
H15 H -0.1665 0.3368 0.4094
H16 H -0.2179 0.4352 0.4419
H17 H -0.0811 0.3713 0.4871
C26 C 0.4288(2) 0.42561(17) 0.38525(14)
H18 H 0.4849 0.4258 0.4349
H19 H 0.4849 0.4660 0.3563
H20 H 0.4226 0.3597 0.3668
N1 N 0.36666(18) 0.04611(11) 0.58273(7)
N2 N 0.18815(15) 0.31963(9) 0.44375(7)
O1 O 0.00393(19) -0.15726(9) 0.35383(7)
O2 O 0.04972(15) 0.21923(8) 0.35383(6)
O3 O 0.35141(15) 0.37460(9) 0.54844(6)
loop_
_geom_bond_atom_site_label_1
_geom_bond_atom_site_label_2
_geom_bond_site_symmetry_1
_geom_bond_site_symmetry_2
C1 C2 1_555 1_555
C2 H1 1_555 1_555
C3 C2 1_555 1_555
H2 C3 1_555 1_555
C4 C3 1_555 1_555
C5 C4 1_555 1_555
H3 C5 1_555 1_555
C6 C1 1_555 1_555
C7 C6 1_555 1_555
C8 C7 1_555 1_555
C9 C10 1_555 1_555
C10 C7 1_555 1_555
C11 C10 1_555 1_555
C12 C11 1_555 1_555
C13 C12 1_555 1_555
H4 C13 1_555 1_555
C14 C13 1_555 1_555
H5 C14 1_555 1_555
C15 C14 1_555 1_555
H6 C15 1_555 1_555
C16 C15 1_555 1_555
H7 C16 1_555 1_555
C17 C12 1_555 1_555
H8 C17 1_555 1_555
C18 H9 1_555 1_555
H10 C18 1_555 1_555
H11 C18 1_555 1_555
C19 C20 1_555 1_555
C20 C21 1_555 1_555
C21 H12 1_555 1_555
C22 C21 1_555 1_555
H13 C22 1_555 1_555
C23 C22 1_555 1_555
H14 C23 1_555 1_555
C24 C19 1_555 1_555
C25 C20 1_555 1_555
H15 C25 1_555 1_555
H16 C25 1_555 1_555
H17 C25 1_555 1_555
C26 C24 1_555 1_555
H18 C26 1_555 1_555
H19 C26 1_555 1_555
H20 C26 1_555 1_555
N1 C1 1_555 1_555
N2 C8 1_555 1_555
O1 C4 1_555 1_555
O2 C8 1_555 1_555
O3 C9 1_555 1_555
C5 C6 1_555 1_555
C9 N2 1_555 1_555
C11 N1 1_555 1_555
C16 C17 1_555 1_555
C18 O1 1_555 1_555
C19 N2 1_555 1_555
C23 C24 1_555 1_555

#END
