
#######################################################################
#
#                 Cambridge Crystallographic Data Centre
#                                CCDC 
#
#######################################################################
#
# If this CIF has been generated from an entry in the Cambridge 
# Structural Database, then it will include bibliographic, chemical, 
# crystal, experimental, refinement or atomic coordinate data resulting 
# from the CCDC's data processing and validation procedures.
#
#######################################################################

data_TINPIR
_chemical_formula_moiety         'C25 H17 Cl1 N2 O2'
_chemical_name_systematic        
4-(2-Chlorophenyl)-2-(2,6-dimethylphenyl)-1H-pyrrolo[3,4-c]quinoline-1,3(2H)-dione
_symmetry_cell_setting           monoclinic
_symmetry_space_group_name_H-M   'P 21/n'
_symmetry_Int_Tables_number      14
_space_group_name_Hall           '-P 2yn'
loop_
_symmetry_equiv_pos_site_id
_symmetry_equiv_pos_as_xyz
1 x,y,z
2 1/2-x,1/2+y,1/2-z
3 -x,-y,-z
4 1/2+x,1/2-y,1/2+z
_cell_length_a                   15.341(3)
_cell_length_b                   8.1615(13)
_cell_length_c                   17.193(3)
_cell_angle_alpha                90
_cell_angle_beta                 105.999(2)
_cell_angle_gamma                90
_cell_volume                     2069.28
_cell_formula_units_Z            4
loop_
_atom_site_label
_atom_site_type_symbol
_atom_site_fract_x
_atom_site_fract_y
_atom_site_fract_z
C1 C 0.33820(12) 0.7963(3) -0.03214(11)
C2 C 0.35105(14) 0.9639(3) -0.03898(13)
C3 C 0.34697(15) 1.0235(3) -0.11565(15)
H1 H 0.3550 1.1349 -0.1226
C4 C 0.33141(16) 0.9213(4) -0.18091(15)
H2 H 0.3286 0.9640 -0.2317
C5 C 0.31989(16) 0.7568(4) -0.17237(14)
H3 H 0.3096 0.6889 -0.2174
C6 C 0.32326(14) 0.6895(3) -0.09719(13)
C7 C 0.3702(2) 1.0751(3) 0.03309(17)
H4 H 0.4271 1.0457 0.0702
H5 H 0.3228 1.0646 0.0593
H6 H 0.3729 1.1864 0.0158
C8 C 0.31337(19) 0.5083(3) -0.08603(17)
H7 H 0.3661 0.4679 -0.0465
H8 H 0.3073 0.4532 -0.1366
H9 H 0.2605 0.4882 -0.0679
C9 C 0.26600(12) 0.6902(2) 0.07284(11)
C10 C 0.30318(12) 0.6143(2) 0.15434(11)
C11 C 0.39558(12) 0.6220(2) 0.17394(11)
C12 C 0.42295(13) 0.6908(3) 0.10418(12)
C13 C 0.25951(12) 0.5441(2) 0.20867(11)
C14 C 0.40038(13) 0.5066(3) 0.30225(11)
C15 C 0.44912(15) 0.4522(3) 0.37997(12)
H10 H 0.4183 0.4100 0.4151
C16 C 0.54095(16) 0.4613(3) 0.40347(13)
H11 H 0.5724 0.4261 0.4550
C17 C 0.58940(15) 0.5226(3) 0.35171(14)
H12 H 0.6523 0.5279 0.3693
C18 C 0.54520(14) 0.5745(3) 0.27584(13)
H13 H 0.5777 0.6139 0.2414
C19 C 0.44943(13) 0.5682(3) 0.24980(11)
C20 C 0.15983(13) 0.5222(3) 0.18944(11)
C21 C 0.11094(14) 0.4318(3) 0.12350(13)
C22 C 0.01792(16) 0.4147(4) 0.10648(16)
H14 H -0.0141 0.3545 0.0618
C23 C -0.02652(17) 0.4883(4) 0.1567(2)
H15 H -0.0892 0.4792 0.1453
C24 C 0.02065(18) 0.5748(4) 0.22340(19)
H16 H -0.0099 0.6220 0.2576
C25 C 0.11297(15) 0.5916(3) 0.23975(14)
H17 H 0.1446 0.6503 0.2851
Cl1 Cl 0.16735(5) 0.32788(9) 0.06348(4)
N1 N 0.34241(10) 0.7300(2) 0.04613(9)
N2 N 0.30760(11) 0.4937(2) 0.28117(9)
O1 O 0.49777(9) 0.7078(2) 0.09544(9)
O2 O 0.18934(9) 0.71639(19) 0.03420(8)
loop_
_geom_bond_atom_site_label_1
_geom_bond_atom_site_label_2
_geom_bond_site_symmetry_1
_geom_bond_site_symmetry_2
C1 C2 1_555 1_555
C2 C3 1_555 1_555
C3 H1 1_555 1_555
C4 C3 1_555 1_555
H2 C4 1_555 1_555
C5 C4 1_555 1_555
H3 C5 1_555 1_555
C6 C1 1_555 1_555
C7 C2 1_555 1_555
H4 C7 1_555 1_555
H5 C7 1_555 1_555
H6 C7 1_555 1_555
C8 C6 1_555 1_555
H7 C8 1_555 1_555
H8 C8 1_555 1_555
H9 C8 1_555 1_555
C9 C10 1_555 1_555
C10 C11 1_555 1_555
C11 C12 1_555 1_555
C12 N1 1_555 1_555
C13 C10 1_555 1_555
C14 C15 1_555 1_555
C15 H10 1_555 1_555
C16 C15 1_555 1_555
H11 C16 1_555 1_555
C17 C16 1_555 1_555
H12 C17 1_555 1_555
C18 C17 1_555 1_555
H13 C18 1_555 1_555
C19 C11 1_555 1_555
C20 C13 1_555 1_555
C21 C20 1_555 1_555
C22 C21 1_555 1_555
H14 C22 1_555 1_555
C23 C22 1_555 1_555
H15 C23 1_555 1_555
C24 C23 1_555 1_555
H16 C24 1_555 1_555
C25 C20 1_555 1_555
H17 C25 1_555 1_555
Cl1 C21 1_555 1_555
N1 C1 1_555 1_555
N2 C13 1_555 1_555
O1 C12 1_555 1_555
O2 C9 1_555 1_555
C5 C6 1_555 1_555
C9 N1 1_555 1_555
C14 C19 1_555 1_555
C14 N2 1_555 1_555
C18 C19 1_555 1_555
C24 C25 1_555 1_555

#END
