
#######################################################################
#
#                 Cambridge Crystallographic Data Centre
#                                CCDC 
#
#######################################################################
#
# If this CIF has been generated from an entry in the Cambridge 
# Structural Database, then it will include bibliographic, chemical, 
# crystal, experimental, refinement or atomic coordinate data resulting 
# from the CCDC's data processing and validation procedures.
#
#######################################################################

data_TINXIY
_chemical_formula_moiety         'C10 H11 N3 O5'
_chemical_name_systematic        
'Methyl 1-methyl-8-nitro-5-oxo-1,2,3,5-tetrahydroimidazo(1,2-a)pyridine-7-carboxylate'
_symmetry_cell_setting           monoclinic
_symmetry_space_group_name_H-M   'P 21/n'
_symmetry_Int_Tables_number      14
_space_group_name_Hall           '-P 2yn'
loop_
_symmetry_equiv_pos_site_id
_symmetry_equiv_pos_as_xyz
1 x,y,z
2 1/2-x,1/2+y,1/2-z
3 -x,-y,-z
4 1/2+x,1/2-y,1/2+z
_cell_length_a                   9.848(5)
_cell_length_b                   10.738(5)
_cell_length_c                   11.318(6)
_cell_angle_alpha                90
_cell_angle_beta                 108.165(8)
_cell_angle_gamma                90
_cell_volume                     1137.21
_exptl_crystal_colour            colorless
_exptl_crystal_description       prism
_cell_formula_units_Z            4
_exptl_crystal_recrystallization_method 'ethyl acetate'
loop_
_atom_site_label
_atom_site_type_symbol
_atom_site_fract_x
_atom_site_fract_y
_atom_site_fract_z
O1 O 0.4168(2) 0.36676(18) 0.40827(18)
O2 O 0.5293(2) 0.2252(2) 0.33881(18)
O3 O 0.30450(17) 0.10139(14) 0.15771(13)
O4 O 0.4560(2) -0.0553(2) 0.23765(17)
O5 O 0.12662(17) -0.10383(14) 0.53454(15)
N1 N 0.34353(19) 0.26613(16) 0.62403(16)
N2 N 0.23172(18) 0.08686(16) 0.55925(15)
N3 N 0.4424(2) 0.2564(2) 0.39231(17)
C1 C 0.4703(3) 0.3461(2) 0.6653(2)
H1 H 0.5492 0.3056 0.6483
H2 H 0.4937 0.3610 0.7530
H3 H 0.4510 0.4239 0.6215
C2 C 0.2644(3) 0.2399(2) 0.7117(2)
H4 H 0.1934 0.3039 0.7071
H5 H 0.3289 0.2361 0.7962
C3 C 0.1939(3) 0.1156(2) 0.6725(2)
H6 H 0.2313 0.0531 0.7362
H7 H 0.0912 0.1213 0.6546
C4 C 0.3190(2) 0.17757(19) 0.53658(18)
C5 C 0.3675(2) 0.16054(19) 0.43311(19)
C6 C 0.3348(2) 0.0470(2) 0.36515(19)
C7 C 0.2556(3) -0.0434(2) 0.3964(2)
H8 H 0.2375 -0.1171 0.3510
C8 C 0.1991(2) -0.0271(2) 0.49896(19)
C9 C 0.3759(2) 0.0253(2) 0.2483(2)
C10 C 0.3298(3) 0.0872(3) 0.0386(2)
H9 H 0.4256 0.1126 0.0464
H10 H 0.2634 0.1380 -0.0225
H11 H 0.3171 0.0015 0.0133
loop_
_geom_bond_atom_site_label_1
_geom_bond_atom_site_label_2
_geom_bond_site_symmetry_1
_geom_bond_site_symmetry_2
O1 N3 1_555 1_555
O2 N3 1_555 1_555
O3 C9 1_555 1_555
O4 C9 1_555 1_555
O5 C8 1_555 1_555
N1 C1 1_555 1_555
N2 C3 1_555 1_555
N3 C5 1_555 1_555
C1 H1 1_555 1_555
H2 C1 1_555 1_555
H3 C1 1_555 1_555
C2 N1 1_555 1_555
H4 C2 1_555 1_555
H5 C2 1_555 1_555
C3 C2 1_555 1_555
H6 C3 1_555 1_555
H7 C3 1_555 1_555
C4 N1 1_555 1_555
C5 C4 1_555 1_555
C6 C5 1_555 1_555
C7 C6 1_555 1_555
H8 C7 1_555 1_555
C8 N2 1_555 1_555
C9 C6 1_555 1_555
C10 O3 1_555 1_555
H9 C10 1_555 1_555
H10 C10 1_555 1_555
H11 C10 1_555 1_555
N2 C4 1_555 1_555
C7 C8 1_555 1_555

#END
