
#######################################################################
#
#                 Cambridge Crystallographic Data Centre
#                                CCDC 
#
#######################################################################
#
# If this CIF has been generated from an entry in the Cambridge 
# Structural Database, then it will include bibliographic, chemical, 
# crystal, experimental, refinement or atomic coordinate data resulting 
# from the CCDC's data processing and validation procedures.
#
#######################################################################

data_TINYEW
_chemical_formula_moiety         'C15 H11 Br1 O2'
_chemical_name_systematic        '3-(4-Bromophenyl)-3-phenylacrylic acid'
_symmetry_cell_setting           triclinic
_symmetry_space_group_name_H-M   'P -1'
_symmetry_Int_Tables_number      2
_space_group_name_Hall           '-P 1'
loop_
_symmetry_equiv_pos_site_id
_symmetry_equiv_pos_as_xyz
1 x,y,z
2 -x,-y,-z
_cell_length_a                   6.4841(10)
_cell_length_b                   9.8143(15)
_cell_length_c                   11.4044(17)
_cell_angle_alpha                77.160(3)
_cell_angle_beta                 77.812(3)
_cell_angle_gamma                72.272(3)
_cell_volume                     665.902
_exptl_crystal_colour            colorless
_exptl_crystal_description       prismatic
_cell_formula_units_Z            2
loop_
_atom_site_label
_atom_site_type_symbol
_atom_site_fract_x
_atom_site_fract_y
_atom_site_fract_z
Br1 Br 1.34868(6) 0.22745(5) 0.41540(4)
O1 O 0.1452(5) 0.1173(2) 0.9687(2)
O2 O 0.2403(5) -0.0938(2) 0.9055(3)
C1 C 0.2660(6) 0.0337(3) 0.9030(3)
C2 C 0.4543(6) 0.0613(3) 0.8149(3)
H1 H 0.5520 -0.0188 0.7845
C3 C 0.5030(5) 0.1894(3) 0.7723(3)
C4 C 0.7062(5) 0.1954(3) 0.6859(3)
C5 C 0.8952(6) 0.0807(3) 0.6867(3)
H2 H 0.8940 -0.0034 0.7435
C6 C 1.0833(6) 0.0872(4) 0.6065(3)
H3 H 1.2080 0.0091 0.6092
C7 C 1.0846(5) 0.2118(4) 0.5217(3)
C8 C 0.9025(5) 0.3274(4) 0.5169(3)
H4 H 0.9053 0.4104 0.4590
C9 C 0.7142(5) 0.3202(3) 0.5987(3)
H5 H 0.5909 0.3992 0.5959
C10 C 0.3560(5) 0.3305(3) 0.8040(2)
C11 C 0.4428(6) 0.4186(3) 0.8497(3)
H6 H 0.5877 0.3875 0.8632
C12 C 0.3118(7) 0.5524(4) 0.8745(3)
H7 H 0.3695 0.6112 0.9046
C13 C 0.0991(7) 0.5992(4) 0.8555(3)
H8 H 0.0120 0.6890 0.8733
C14 C 0.0142(6) 0.5136(4) 0.8102(3)
H9 H -0.1309 0.5455 0.7971
C15 C 0.1434(5) 0.3798(3) 0.7837(3)
H10 H 0.0848 0.3230 0.7518
H11 H 0.119(9) -0.100(6) 0.947(5)
loop_
_geom_bond_atom_site_label_1
_geom_bond_atom_site_label_2
_geom_bond_site_symmetry_1
_geom_bond_site_symmetry_2
Br1 C7 1_555 1_555
O1 C1 1_555 1_555
O2 C1 1_555 1_555
C1 C2 1_555 1_555
C2 H1 1_555 1_555
C3 C2 1_555 1_555
C4 C3 1_555 1_555
C5 C4 1_555 1_555
H2 C5 1_555 1_555
C6 C5 1_555 1_555
H3 C6 1_555 1_555
C7 C6 1_555 1_555
C8 C7 1_555 1_555
H4 C8 1_555 1_555
C9 C4 1_555 1_555
H5 C9 1_555 1_555
C10 C3 1_555 1_555
C11 C10 1_555 1_555
H6 C11 1_555 1_555
C12 C11 1_555 1_555
H7 C12 1_555 1_555
C13 C12 1_555 1_555
H8 C13 1_555 1_555
C14 C13 1_555 1_555
H9 C14 1_555 1_555
C15 C10 1_555 1_555
H10 C15 1_555 1_555
H11 O2 1_555 1_555
C8 C9 1_555 1_555
C14 C15 1_555 1_555

#END
