
#######################################################################
#
#                 Cambridge Crystallographic Data Centre
#                                CCDC 
#
#######################################################################
#
# If this CIF has been generated from an entry in the Cambridge 
# Structural Database, then it will include bibliographic, chemical, 
# crystal, experimental, refinement or atomic coordinate data resulting 
# from the CCDC's data processing and validation procedures.
#
#######################################################################

data_TINZOH
_chemical_formula_moiety         'C25 H22 F6 N2 O2'
_chemical_name_systematic        
4-(3-(3-Methoxyphenyl)hexahydro[1,3]oxazolo[3,4-a]pyridin-1-yl)-2,8-bis(trifluoromethyl)quinoline
_symmetry_cell_setting           monoclinic
_symmetry_space_group_name_H-M   'C 2/c'
_symmetry_Int_Tables_number      15
_space_group_name_Hall           '-C 2yn'
loop_
_symmetry_equiv_pos_site_id
_symmetry_equiv_pos_as_xyz
1 x,y,z
2 -x,y,1/2-z
3 1/2+x,1/2+y,z
4 1/2-x,1/2+y,1/2-z
5 -x,-y,-z
6 x,-y,1/2+z
7 1/2-x,1/2-y,-z
8 1/2+x,1/2-y,1/2+z
_cell_length_a                   19.4598(7)
_cell_length_b                   9.7007(2)
_cell_length_c                   24.3054(8)
_cell_angle_alpha                90
_cell_angle_beta                 95.2330(10)
_cell_angle_gamma                90
_cell_volume                     4569.1
_exptl_crystal_colour            colorless
_exptl_crystal_description       lath
_cell_formula_units_Z            8
loop_
_atom_site_label
_atom_site_type_symbol
_atom_site_fract_x
_atom_site_fract_y
_atom_site_fract_z
F1 F 0.25232(6) 0.73628(11) 0.08646(4)
F2 F 0.33435(7) 0.97050(11) 0.22470(6)
F3 F 0.26537(7) 0.57126(11) 0.02997(5)
F4 F 0.35443(6) 0.67181(11) 0.07014(5)
O1 O 0.32112(6) 0.50977(12) 0.37452(5)
F5 F 0.43609(7) 0.90581(12) 0.21111(6)
O2 O 0.32635(7) 0.86202(13) 0.53794(6)
F6 F 0.40639(8) 0.91621(12) 0.29350(5)
N1 N 0.33826(8) 0.69765(15) 0.18654(6)
N2 N 0.43338(8) 0.44236(15) 0.38263(6)
C1 C 0.38109(10) 0.49978(18) 0.41408(7)
H1 H 0.3715 0.4352 0.4445
C2 C 0.31653(9) 0.46847(17) 0.22310(7)
C3 C 0.39759(10) 0.64147(18) 0.43744(7)
C4 C 0.31660(9) 0.56523(17) 0.17905(7)
C5 C 0.39564(10) 0.34056(17) 0.34718(7)
H2 H 0.3815 0.2632 0.3709
C6 C 0.29456(10) 0.33109(18) 0.21015(8)
H3 H 0.2950 0.2644 0.2388
C7 C 0.33142(10) 0.42445(17) 0.32759(7)
H4 H 0.2911 0.3610 0.3202
C8 C 0.27080(10) 0.39078(19) 0.11444(8)
H5 H 0.2542 0.3640 0.0780
C9 C 0.29229(10) 0.52319(18) 0.12446(7)
C10 C 0.33767(9) 0.51575(17) 0.27756(7)
C11 C 0.35783(10) 0.69165(18) 0.47750(7)
H6 H 0.3229 0.6352 0.4906
C12 C 0.36017(10) 0.73408(17) 0.23712(7)
C13 C 0.27299(10) 0.29395(19) 0.15753(8)
H7 H 0.2592 0.2015 0.1498
C14 C 0.36862(10) 0.82385(18) 0.49871(8)
C15 C 0.36020(9) 0.64894(17) 0.28394(7)
H8 H 0.3756 0.6834 0.3195
C16 C 0.44120(10) 0.28299(18) 0.30544(8)
H9 H 0.4543 0.3574 0.2806
H10 H 0.4158 0.2115 0.2827
C17 C 0.41932(11) 0.9064(2) 0.47953(8)
H11 H 0.4271 0.9969 0.4937
C18 C 0.34111(12) 0.9886(2) 0.56669(9)
H12 H 0.3416 1.0643 0.5400
H13 H 0.3863 0.9823 0.5879
H14 H 0.3056 1.0062 0.5919
C19 C 0.44867(10) 0.7244(2) 0.41833(8)
H15 H 0.4764 0.6908 0.3910
C20 C 0.38416(11) 0.88135(19) 0.24198(8)
C21 C 0.49304(10) 0.3829(2) 0.41495(8)
H16 H 0.4780 0.3084 0.4390
H17 H 0.5167 0.4545 0.4387
C22 C 0.50587(11) 0.2205(2) 0.33595(8)
H18 H 0.4930 0.1387 0.3571
H19 H 0.5378 0.1901 0.3089
C23 C 0.45876(11) 0.8551(2) 0.43923(8)
H20 H 0.4935 0.9117 0.4259
C24 C 0.54197(11) 0.3254(2) 0.37521(9)
H21 H 0.5598 0.4019 0.3536
H22 H 0.5818 0.2810 0.3965
C25 C 0.29106(10) 0.62532(19) 0.07824(7)
loop_
_geom_bond_atom_site_label_1
_geom_bond_atom_site_label_2
_geom_bond_site_symmetry_1
_geom_bond_site_symmetry_2
F1 C25 1_555 1_555
F2 C20 1_555 1_555
F3 C25 1_555 1_555
F4 C25 1_555 1_555
O1 C1 1_555 1_555
F5 C20 1_555 1_555
O2 C14 1_555 1_555
F6 C20 1_555 1_555
N1 C4 1_555 1_555
N2 C1 1_555 1_555
C1 H1 1_555 1_555
C2 C4 1_555 1_555
C3 C1 1_555 1_555
C4 C9 1_555 1_555
C5 N2 1_555 1_555
H2 C5 1_555 1_555
C6 C2 1_555 1_555
H3 C6 1_555 1_555
C7 O1 1_555 1_555
H4 C7 1_555 1_555
C8 H5 1_555 1_555
C9 C8 1_555 1_555
C10 C2 1_555 1_555
C11 C3 1_555 1_555
H6 C11 1_555 1_555
C12 N1 1_555 1_555
C13 C6 1_555 1_555
H7 C13 1_555 1_555
C14 C11 1_555 1_555
C15 C10 1_555 1_555
H8 C15 1_555 1_555
C16 C5 1_555 1_555
H9 C16 1_555 1_555
H10 C16 1_555 1_555
C17 C14 1_555 1_555
H11 C17 1_555 1_555
C18 O2 1_555 1_555
H12 C18 1_555 1_555
H13 C18 1_555 1_555
H14 C18 1_555 1_555
C19 C3 1_555 1_555
H15 C19 1_555 1_555
C20 C12 1_555 1_555
C21 N2 1_555 1_555
H16 C21 1_555 1_555
H17 C21 1_555 1_555
C22 C16 1_555 1_555
H18 C22 1_555 1_555
H19 C22 1_555 1_555
C23 C17 1_555 1_555
H20 C23 1_555 1_555
C24 C21 1_555 1_555
H21 C24 1_555 1_555
H22 C24 1_555 1_555
C25 C9 1_555 1_555
C5 C7 1_555 1_555
C7 C10 1_555 1_555
C8 C13 1_555 1_555
C12 C15 1_555 1_555
C19 C23 1_555 1_555
C22 C24 1_555 1_555

#END
