
#######################################################################
#
#                 Cambridge Crystallographic Data Centre
#                                CCDC 
#
#######################################################################
#
# If this CIF has been generated from an entry in the Cambridge 
# Structural Database, then it will include bibliographic, chemical, 
# crystal, experimental, refinement or atomic coordinate data resulting 
# from the CCDC's data processing and validation procedures.
#
#######################################################################

data_TIPFOO
_chemical_formula_moiety         'C15 H12 F1 N3 O2'
_chemical_name_systematic        
'Methyl 6-amino-5-cyano-4-(4-fluorophenyl)-2-methylpyridine-3-carboxylate'
_symmetry_cell_setting           triclinic
_symmetry_space_group_name_H-M   'P -1'
_symmetry_Int_Tables_number      2
_space_group_name_Hall           '-P 1'
loop_
_symmetry_equiv_pos_site_id
_symmetry_equiv_pos_as_xyz
1 x,y,z
2 -x,-y,-z
_cell_length_a                   6.549(5)
_cell_length_b                   7.658(5)
_cell_length_c                   14.093(10)
_cell_angle_alpha                81.691(11)
_cell_angle_beta                 86.585(11)
_cell_angle_gamma                84.035(10)
_cell_volume                     694.877
_exptl_crystal_colour            colorless
_exptl_crystal_description       block
_chemical_melting_point          '552-554 K'
_cell_formula_units_Z            2
_exptl_crystal_recrystallization_method ethanol
loop_
_atom_site_label
_atom_site_type_symbol
_atom_site_fract_x
_atom_site_fract_y
_atom_site_fract_z
F1 F 1.1400(5) 0.1422(4) 0.9432(2)
N1 N 0.1942(5) 0.5590(4) 0.5771(2)
N2 N 0.2333(7) 0.3171(6) 0.4985(3)
N3 N 0.6296(6) 0.0259(5) 0.5904(3)
O1 O 0.6503(6) 0.7125(4) 0.7811(2)
O2 O 0.3267(6) 0.7444(5) 0.8390(3)
C1 C 0.2971(7) 0.4024(5) 0.5659(3)
C2 C 0.4638(6) 0.3306(5) 0.6242(3)
C3 C 0.5164(6) 0.4202(5) 0.6964(3)
C4 C 0.4060(7) 0.5823(5) 0.7077(3)
C5 C 0.2473(7) 0.6473(5) 0.6459(3)
C6 C 0.5614(7) 0.1619(6) 0.6082(3)
C7 C 0.6811(7) 0.3398(5) 0.7621(3)
C8 C 0.8750(7) 0.2907(5) 0.7254(3)
H1 H 0.9023 0.3030 0.6594
C9 C 1.0292(7) 0.2229(6) 0.7878(4)
H2 H 1.1606 0.1886 0.7640
C10 C 0.9864(8) 0.2072(6) 0.8830(4)
C11 C 0.7951(8) 0.2497(6) 0.9221(3)
H3 H 0.7691 0.2336 0.9882
C12 C 0.6422(7) 0.3169(5) 0.8607(3)
H4 H 0.5107 0.3475 0.8855
C13 C 0.4532(9) 0.6880(6) 0.7833(4)
C14 C 0.7148(9) 0.7976(8) 0.8582(4)
H5 H 0.8596 0.8092 0.8500
H6 H 0.6865 0.7271 0.9186
H7 H 0.6412 0.9130 0.8568
C15 C 0.1249(7) 0.8237(6) 0.6492(3)
H8 H 0.0245 0.8421 0.6009
H9 H 0.2153 0.9163 0.6375
H10 H 0.0567 0.8255 0.7113
H11 H 0.113(6) 0.365(5) 0.474(3)
H12 H 0.286(7) 0.216(6) 0.484(3)
loop_
_geom_bond_atom_site_label_1
_geom_bond_atom_site_label_2
_geom_bond_site_symmetry_1
_geom_bond_site_symmetry_2
F1 C10 1_555 1_555
N1 C1 1_555 1_555
N2 C1 1_555 1_555
N3 C6 1_555 1_555
O1 C13 1_555 1_555
O2 C13 1_555 1_555
C1 C2 1_555 1_555
C2 C3 1_555 1_555
C3 C4 1_555 1_555
C4 C5 1_555 1_555
C5 N1 1_555 1_555
C6 C2 1_555 1_555
C7 C3 1_555 1_555
C8 C7 1_555 1_555
H1 C8 1_555 1_555
C9 C8 1_555 1_555
H2 C9 1_555 1_555
C10 C9 1_555 1_555
C11 C10 1_555 1_555
H3 C11 1_555 1_555
C12 C7 1_555 1_555
H4 C12 1_555 1_555
C13 C4 1_555 1_555
C14 O1 1_555 1_555
H5 C14 1_555 1_555
H6 C14 1_555 1_555
H7 C14 1_555 1_555
C15 C5 1_555 1_555
H8 C15 1_555 1_555
H9 C15 1_555 1_555
H10 C15 1_555 1_555
H11 N2 1_555 1_555
H12 N2 1_555 1_555
C11 C12 1_555 1_555

#END
