
#######################################################################
#
#                 Cambridge Crystallographic Data Centre
#                                CCDC 
#
#######################################################################
#
# If this CIF has been generated from an entry in the Cambridge 
# Structural Database, then it will include bibliographic, chemical, 
# crystal, experimental, refinement or atomic coordinate data resulting 
# from the CCDC's data processing and validation procedures.
#
#######################################################################

data_TIPFIJ
_chemical_formula_moiety         'C40 H32 N4 O4,8(H2 O1)'
_chemical_name_systematic        
"4,4'-((2,4-bis(Pyridin-4-yl)cyclobutane-1,3-diyl)bis(pyridinium-4,1-diylmethylene))dibenzoate octahydrate"
_symmetry_cell_setting           monoclinic
_symmetry_space_group_name_H-M   'P 21/c'
_symmetry_Int_Tables_number      14
_space_group_name_Hall           '-P 2ybc'
loop_
_symmetry_equiv_pos_site_id
_symmetry_equiv_pos_as_xyz
1 x,y,z
2 -x,1/2+y,1/2-z
3 -x,-y,-z
4 x,1/2-y,1/2+z
_cell_length_a                   8.9496(11)
_cell_length_b                   22.6305(18)
_cell_length_c                   19.155(3)
_cell_angle_alpha                90
_cell_angle_beta                 101.100(9)
_cell_angle_gamma                90
_cell_volume                     3806.96
_exptl_crystal_colour            yellowish
_exptl_crystal_description       needle
_cell_formula_units_Z            4
loop_
_atom_site_label
_atom_site_type_symbol
_atom_site_fract_x
_atom_site_fract_y
_atom_site_fract_z
C1 C 0.2442(4) 0.61284(14) 0.72558(19)
C2 C 0.2199(4) 0.54848(14) 0.70551(18)
C3 C 0.2919(4) 0.52316(14) 0.65446(18)
H1 H 0.3602 0.5463 0.6335
C4 C 0.2654(4) 0.46486(15) 0.63377(18)
H2 H 0.3173 0.4480 0.5997
C5 C 0.1625(4) 0.43077(14) 0.66284(17)
C6 C 0.0930(4) 0.45538(14) 0.71502(18)
H3 H 0.0253 0.4322 0.7362
C7 C 0.1218(4) 0.51352(14) 0.73624(18)
H4 H 0.0742 0.5297 0.7722
C8 C 0.1251(5) 0.36915(14) 0.63341(18)
H5 H 0.0363 0.3711 0.5937
H6 H 0.2126 0.3534 0.6146
C9 C 0.2061(4) 0.30426(14) 0.73536(18)
H7 H 0.3074 0.3090 0.7281
C10 C 0.1790(4) 0.27225(14) 0.79282(19)
H8 H 0.2612 0.2540 0.8242
C11 C 0.0319(4) 0.26662(13) 0.80493(18)
C12 C -0.0864(4) 0.29098(14) 0.75494(19)
H9 H -0.1889 0.2862 0.7604
C13 C -0.0546(4) 0.32161(15) 0.69818(19)
H10 H -0.1356 0.3381 0.6644
C14 C -0.0039(4) 0.23993(13) 0.87118(17)
H11 H -0.082(4) 0.2056(17) 0.857(2)
C15 C 0.1246(4) 0.21813(13) 0.93241(17)
H12 H 0.230(4) 0.2382(16) 0.9335(19)
C16 C 0.1647(4) 0.15321(13) 0.93752(16)
C17 C 0.3145(4) 0.13477(15) 0.94583(18)
H13 H 0.3936 0.1632 0.9486
C18 C 0.3496(4) 0.07498(17) 0.95006(18)
H14 H 0.4536 0.0637 0.9562
C19 C 0.0987(4) 0.05007(14) 0.93843(17)
H15 H 0.0216 0.0209 0.9358
C20 C 0.0547(4) 0.10938(14) 0.93428(18)
H16 H -0.0497 0.1197 0.9293
C21 C -0.0716(5) 0.45097(16) 0.9218(2)
H17 H -0.1454 0.4808 0.9238
C22 C 0.1677(5) 0.42506(16) 0.9165(3)
H18 H 0.2685 0.4360 0.9131
C23 C 0.1353(5) 0.36525(16) 0.9204(3)
H19 H 0.2135 0.3367 0.9216
C24 C -0.0121(4) 0.34763(14) 0.92252(19)
C25 C -0.1171(4) 0.39260(15) 0.92388(19)
H20 H -0.2196 0.3834 0.9262
C26 C -0.0621(4) 0.28392(14) 0.92405(19)
H21 H -0.168(5) 0.2814(18) 0.922(2)
C27 C 0.0296(4) 0.24460(14) 0.98539(18)
H22 H -0.038(4) 0.2115(15) 0.9960(18)
C28 C 0.1043(4) 0.27582(13) 1.05144(18)
C29 C 0.2586(4) 0.27577(15) 1.07714(19)
H23 H 0.3241 0.2546 1.0525
C30 C 0.3198(5) 0.30651(16) 1.1390(2)
H24 H 0.4265 0.3059 1.1566
C31 C 0.0776(5) 0.33780(15) 1.1505(2)
H25 H 0.0145 0.3594 1.1760
C32 C 0.0128(4) 0.30768(15) 1.08992(19)
H26 H -0.0945 0.3085 1.0740
C33 C 0.2929(5) 0.37104(15) 1.23879(19)
H27 H 0.3861 0.3509 1.2639
H28 H 0.2186 0.3715 1.2710
C34 C 0.3317(4) 0.43396(15) 1.22247(17)
C35 C 0.4173(5) 0.44679(16) 1.1710(2)
H29 H 0.4474 0.4159 1.1431
C36 C 0.4586(4) 0.50430(16) 1.1604(2)
H30 H 0.5153 0.5128 1.1245
C37 C 0.4186(4) 0.54994(15) 1.2015(2)
C38 C 0.3323(4) 0.53742(15) 1.25257(19)
H31 H 0.3026 0.5685 1.2804
C39 C 0.2893(4) 0.47966(15) 1.26318(18)
H32 H 0.2307 0.4713 1.2984
C40 C 0.4602(5) 0.61308(16) 1.1881(2)
N1 N 0.0901(3) 0.32881(11) 0.68943(14)
N2 N 0.2438(4) 0.03193(12) 0.94594(15)
N3 N 0.0666(4) 0.46798(13) 0.91733(17)
N4 N 0.2281(4) 0.33712(12) 1.17400(15)
O1 O 0.1982(4) 0.63163(11) 0.77940(17)
O2 O 0.3092(3) 0.64390(10) 0.68627(14)
O3 O 0.5172(4) 0.62467(12) 1.13426(18)
O4 O 0.4319(4) 0.65151(11) 1.23175(17)
O5 O 0.4728(4) 0.66597(14) 0.37350(18)
H33 H 0.4073 0.6541 0.3381
H34 H 0.5361 0.6406 0.3942
O6 O 0.2627(3) 0.59543(12) 0.43040(16)
H35 H 0.2715 0.5588 0.4401
H36 H 0.2710 0.6096 0.4720
O7 O 0.3023(3) 0.66996(12) 0.54654(15)
O8 O 0.4909(3) 0.73659(11) 0.70891(19)
H37 H 0.4483 0.7688 0.7171
H38 H 0.4148 0.7135 0.6999
O9 O 0.3356(3) 0.71885(11) 0.88109(19)
H39 H 0.3717 0.7532 0.8773
H40 H 0.3217 0.7191 0.8359
O10 O 0.4690(14) 0.6291(6) 0.9806(8)
O12 O 0.2166(5) 0.57801(14) 0.91566(18)
O14 O 0.4804(5) 0.72753(16) 0.0422(2)
H41 H 0.4735 0.7646 0.0479
H42 H 0.5275 0.7118 0.0804
O11? O 0.5037(10) 0.5673(4) 0.9940(4)
O13? O 0.3320(16) 0.5419(6) 0.9778(7)
loop_
_geom_bond_atom_site_label_1
_geom_bond_atom_site_label_2
_geom_bond_site_symmetry_1
_geom_bond_site_symmetry_2
C1 C2 1_555 1_555
C2 C3 1_555 1_555
C3 H1 1_555 1_555
C4 C3 1_555 1_555
H2 C4 1_555 1_555
C5 C4 1_555 1_555
C6 C5 1_555 1_555
H3 C6 1_555 1_555
C7 C2 1_555 1_555
H4 C7 1_555 1_555
C8 C5 1_555 1_555
H5 C8 1_555 1_555
H6 C8 1_555 1_555
C9 H7 1_555 1_555
C10 C9 1_555 1_555
H8 C10 1_555 1_555
C11 C10 1_555 1_555
C12 C11 1_555 1_555
H9 C12 1_555 1_555
C13 C12 1_555 1_555
H10 C13 1_555 1_555
C14 C11 1_555 1_555
H11 C14 1_555 1_555
C15 C14 1_555 1_555
H12 C15 1_555 1_555
C16 C15 1_555 1_555
C17 C16 1_555 1_555
H13 C17 1_555 1_555
C18 C17 1_555 1_555
H14 C18 1_555 1_555
C19 H15 1_555 1_555
C20 C16 1_555 1_555
H16 C20 1_555 1_555
C21 H17 1_555 1_555
C22 H18 1_555 1_555
C23 C22 1_555 1_555
H19 C23 1_555 1_555
C24 C23 1_555 1_555
C25 C21 1_555 1_555
H20 C25 1_555 1_555
C26 C14 1_555 1_555
H21 C26 1_555 1_555
C27 C15 1_555 1_555
H22 C27 1_555 1_555
C28 C27 1_555 1_555
C29 C28 1_555 1_555
H23 C29 1_555 1_555
C30 C29 1_555 1_555
H24 C30 1_555 1_555
C31 H25 1_555 1_555
C32 C28 1_555 1_555
H26 C32 1_555 1_555
C33 H27 1_555 1_555
H28 C33 1_555 1_555
C34 C33 1_555 1_555
C35 C34 1_555 1_555
H29 C35 1_555 1_555
C36 C35 1_555 1_555
H30 C36 1_555 1_555
C37 C36 1_555 1_555
C38 C37 1_555 1_555
H31 C38 1_555 1_555
C39 C34 1_555 1_555
H32 C39 1_555 1_555
C40 C37 1_555 1_555
N1 C8 1_555 1_555
N2 C18 1_555 1_555
N3 C21 1_555 1_555
N4 C30 1_555 1_555
O1 C1 1_555 1_555
O2 C1 1_555 1_555
O3 C40 1_555 1_555
O4 C40 1_555 1_555
O5 H33 1_555 1_555
H34 O5 1_555 1_555
O6 H35 1_555 1_555
H36 O6 1_555 1_555
O8 H37 1_555 1_555
H38 O8 1_555 1_555
O9 H39 1_555 1_555
H40 O9 1_555 1_555
O14 H41 1_555 1_555
H42 O14 1_555 1_555
C6 C7 1_555 1_555
C9 N1 1_555 1_555
C13 N1 1_555 1_555
C19 C20 1_555 1_555
C19 N2 1_555 1_555
C22 N3 1_555 1_555
C24 C25 1_555 1_555
C24 C26 1_555 1_555
C26 C27 1_555 1_555
C31 C32 1_555 1_555
C31 N4 1_555 1_555
C33 N4 1_555 1_555
C38 C39 1_555 1_555

#END
