
#######################################################################
#
#                 Cambridge Crystallographic Data Centre
#                                CCDC 
#
#######################################################################
#
# If this CIF has been generated from an entry in the Cambridge 
# Structural Database, then it will include bibliographic, chemical, 
# crystal, experimental, refinement or atomic coordinate data resulting 
# from the CCDC's data processing and validation procedures.
#
#######################################################################

data_TIPGAB
_chemical_formula_moiety         'C11 H11 Cl1 N2 O3'
_chemical_name_systematic        
5-(Chloromethyl)-3-(3,5-dimethoxyphenyl)-1,2,4-oxadiazole
_symmetry_cell_setting           triclinic
_symmetry_space_group_name_H-M   'P -1'
_symmetry_Int_Tables_number      2
_space_group_name_Hall           '-P 1'
loop_
_symmetry_equiv_pos_site_id
_symmetry_equiv_pos_as_xyz
1 x,y,z
2 -x,-y,-z
_cell_length_a                   7.861(2)
_cell_length_b                   8.502(2)
_cell_length_c                   9.537(2)
_cell_angle_alpha                80.72(3)
_cell_angle_beta                 73.90(3)
_cell_angle_gamma                70.09(3)
_cell_volume                     574.217
_exptl_crystal_colour            colorless
_exptl_crystal_description       block
_cell_formula_units_Z            2
_exptl_crystal_recrystallization_method ethanol
loop_
_atom_site_label
_atom_site_type_symbol
_atom_site_fract_x
_atom_site_fract_y
_atom_site_fract_z
Cl1 Cl 0.3102(2) 0.49956(16) 0.15386(12)
O1 O 0.3892(4) 0.1611(3) 0.3056(3)
O2 O -0.1673(4) -0.1007(4) 0.9489(3)
O3 O 0.3152(4) -0.5222(3) 0.6710(3)
N1 N 0.3733(5) 0.0065(4) 0.3778(4)
N2 N 0.1641(4) 0.2229(4) 0.5042(3)
C1 C 0.2542(6) 0.4563(5) 0.3446(4)
H1 H 0.3402 0.4823 0.3861
H2 H 0.1297 0.5283 0.3852
C2 C 0.2623(5) 0.2789(5) 0.3874(4)
C3 C 0.2402(5) 0.0511(4) 0.4938(4)
C4 C 0.1792(5) -0.0743(5) 0.6045(4)
C5 C 0.2710(5) -0.2428(4) 0.5881(4)
H3 H 0.3678 -0.2777 0.5065
C6 C 0.2172(5) -0.3588(4) 0.6944(4)
C7 C 0.0694(5) -0.3066(5) 0.8134(4)
H4 H 0.0335 -0.3858 0.8841
C8 C -0.0273(5) -0.1346(5) 0.8283(4)
C9 C 0.0298(5) -0.0180(5) 0.7237(4)
H5 H -0.0304 0.0961 0.7325
C10 C -0.2766(6) 0.0704(5) 0.9669(5)
H6 H -0.3717 0.0780 1.0563
H7 H -0.3335 0.1144 0.8859
H8 H -0.1981 0.1342 0.9707
C11 C 0.2735(6) -0.6468(5) 0.7836(4)
H9 H 0.3507 -0.7563 0.7535
H10 H 0.1447 -0.6389 0.8003
H11 H 0.2970 -0.6286 0.8722
loop_
_geom_bond_atom_site_label_1
_geom_bond_atom_site_label_2
_geom_bond_site_symmetry_1
_geom_bond_site_symmetry_2
Cl1 C1 1_555 1_555
O1 N1 1_555 1_555
O2 C8 1_555 1_555
O3 C6 1_555 1_555
N1 C3 1_555 1_555
N2 C2 1_555 1_555
C1 H1 1_555 1_555
H2 C1 1_555 1_555
C2 O1 1_555 1_555
C3 N2 1_555 1_555
C4 C3 1_555 1_555
C5 C4 1_555 1_555
H3 C5 1_555 1_555
C6 C5 1_555 1_555
C7 C6 1_555 1_555
H4 C7 1_555 1_555
C8 C7 1_555 1_555
C9 C4 1_555 1_555
H5 C9 1_555 1_555
C10 O2 1_555 1_555
H6 C10 1_555 1_555
H7 C10 1_555 1_555
H8 C10 1_555 1_555
C11 O3 1_555 1_555
H9 C11 1_555 1_555
H10 C11 1_555 1_555
H11 C11 1_555 1_555
C1 C2 1_555 1_555
C8 C9 1_555 1_555

#END
