
#######################################################################
#
#                 Cambridge Crystallographic Data Centre
#                                CCDC 
#
#######################################################################
#
# If this CIF has been generated from an entry in the Cambridge 
# Structural Database, then it will include bibliographic, chemical, 
# crystal, experimental, refinement or atomic coordinate data resulting 
# from the CCDC's data processing and validation procedures.
#
#######################################################################

data_TIPGIJ
_chemical_formula_moiety         'C23 H28 N1 O4 1+,Cl1 1-,H1 Cl1'
_chemical_name_systematic        
'(R,E)-(4-(Benzyloxy)-2-(cinnamoyloxy)-4-oxobutyl)trimethylammonium chloride hydrochloride'
_symmetry_cell_setting           orthorhombic
_symmetry_space_group_name_H-M   'P 21 21 21'
_symmetry_Int_Tables_number      19
_space_group_name_Hall           'P 2ac 2ab'
loop_
_symmetry_equiv_pos_site_id
_symmetry_equiv_pos_as_xyz
1 x,y,z
2 1/2-x,-y,1/2+z
3 -x,1/2+y,1/2-z
4 1/2+x,1/2-y,-z
_cell_length_a                   10.1670(4)
_cell_length_b                   10.4488(4)
_cell_length_c                   22.9795(11)
_cell_angle_alpha                90
_cell_angle_beta                 90
_cell_angle_gamma                90
_cell_volume                     2441.18
_exptl_crystal_colour            colorless
_exptl_crystal_description       prism
_chemical_melting_point          '363-365 K'
_cell_formula_units_Z            4
loop_
_atom_site_label
_atom_site_type_symbol
_atom_site_fract_x
_atom_site_fract_y
_atom_site_fract_z
C1 C 1.5794(5) 0.6771(5) 0.3970(3)
H1 H 1.6264 0.7037 0.3645
C2 C 1.6308(5) 0.6890(5) 0.4490(3)
H2 H 1.7145 0.7239 0.4527
C3 C 1.5644(7) 0.6513(5) 0.4982(3)
H3 H 1.6028 0.6603 0.5347
C4 C 1.4367(5) 0.5985(4) 0.49251(19)
H4 H 1.3891 0.5742 0.5252
C5 C 1.3849(3) 0.5841(4) 0.43810(15)
C6 C 1.4565(5) 0.6255(4) 0.39051(19)
H5 H 1.4205 0.6182 0.3535
C7 C 1.2561(5) 0.5165(5) 0.4303(2)
H6 H 1.2715 0.4291 0.4179
H7 H 1.2092 0.5142 0.4671
C8 C 1.0922(3) 0.5120(3) 0.35739(15)
C9 C 1.0245(3) 0.5897(3) 0.31191(15)
H8 H 1.0902 0.6249 0.2859
H9 H 0.9803 0.6609 0.3306
C10 C 0.9248(3) 0.5160(3) 0.27626(13)
H10 H 0.9662 0.4409 0.2585
C11 C 0.8743(3) 0.6043(3) 0.23001(14)
H11 H 0.9495 0.6339 0.2078
H12 H 0.8372 0.6785 0.2493
C12 C 0.7716(6) 0.6435(6) 0.1363(2)
H13 H 0.7571 0.7297 0.1494
H14 H 0.7022 0.6189 0.1103
H15 H 0.8544 0.6387 0.1164
C13 C 0.8013(5) 0.4216(5) 0.1668(2)
H16 H 0.7359 0.3963 0.1390
H17 H 0.7994 0.3642 0.1994
H18 H 0.8866 0.4189 0.1489
C14 C 0.6389(4) 0.5535(6) 0.2142(2)
H19 H 0.6177 0.6371 0.2287
H20 H 0.6376 0.4931 0.2457
H21 H 0.5754 0.5288 0.1854
C15 C 0.7964(3) 0.3504(3) 0.32137(13)
C16 C 0.6979(3) 0.3258(3) 0.36670(13)
H22 H 0.6558 0.3936 0.3852
C17 C 0.6692(3) 0.2054(3) 0.38118(13)
H23 H 0.7132 0.1416 0.3608
C18 C 0.5758(3) 0.1630(3) 0.42578(13)
C19 C 0.5485(3) 0.0341(3) 0.43073(15)
H24 H 0.5914 -0.0241 0.4067
C20 C 0.4571(4) -0.0096(4) 0.47148(17)
H25 H 0.4374 -0.0964 0.4737
C21 C 0.3967(4) 0.0752(4) 0.50804(17)
H26 H 0.3367 0.0459 0.5355
C22 C 0.4246(4) 0.2045(4) 0.50423(18)
H27 H 0.3829 0.2619 0.5291
C23 C 0.5146(4) 0.2490(4) 0.46349(15)
H28 H 0.5340 0.3359 0.4614
N1 N 0.7733(3) 0.5557(3) 0.18732(12)
O1 O 1.1776(3) 0.5832(2) 0.38699(11)
O2 O 1.0754(3) 0.4004(2) 0.36643(13)
O3 O 0.81958(19) 0.47657(18) 0.31532(9)
O4 O 0.8494(3) 0.2695(2) 0.29206(11)
Cl1 Cl 0.34728(19) 0.4253(2) 0.25740(8)
Cl2 Cl 0.15256(13) 0.39911(12) 0.15612(6)
H29 H 0.2369 0.4149 0.2018
loop_
_geom_bond_atom_site_label_1
_geom_bond_atom_site_label_2
_geom_bond_site_symmetry_1
_geom_bond_site_symmetry_2
C1 H1 1_555 1_555
C2 C1 1_555 1_555
H2 C2 1_555 1_555
C3 C2 1_555 1_555
H3 C3 1_555 1_555
C4 C3 1_555 1_555
H4 C4 1_555 1_555
C5 C4 1_555 1_555
C6 C1 1_555 1_555
H5 C6 1_555 1_555
C7 C5 1_555 1_555
H6 C7 1_555 1_555
H7 C7 1_555 1_555
C8 C9 1_555 1_555
C9 H8 1_555 1_555
H9 C9 1_555 1_555
C10 C9 1_555 1_555
H10 C10 1_555 1_555
C11 C10 1_555 1_555
H11 C11 1_555 1_555
H12 C11 1_555 1_555
C12 H13 1_555 1_555
H14 C12 1_555 1_555
H15 C12 1_555 1_555
C13 H16 1_555 1_555
H17 C13 1_555 1_555
H18 C13 1_555 1_555
C14 H19 1_555 1_555
H20 C14 1_555 1_555
H21 C14 1_555 1_555
C15 C16 1_555 1_555
C16 H22 1_555 1_555
C17 C16 1_555 1_555
H23 C17 1_555 1_555
C18 C17 1_555 1_555
C19 C18 1_555 1_555
H24 C19 1_555 1_555
C20 C19 1_555 1_555
H25 C20 1_555 1_555
C21 C20 1_555 1_555
H26 C21 1_555 1_555
C22 C21 1_555 1_555
H27 C22 1_555 1_555
C23 C18 1_555 1_555
H28 C23 1_555 1_555
N1 C11 1_555 1_555
O1 C7 1_555 1_555
O2 C8 1_555 1_555
O3 C10 1_555 1_555
O4 C15 1_555 1_555
Cl2 H29 1_555 1_555
C5 C6 1_555 1_555
C8 O1 1_555 1_555
C12 N1 1_555 1_555
C13 N1 1_555 1_555
C14 N1 1_555 1_555
C15 O3 1_555 1_555
C22 C23 1_555 1_555

#END
