
#######################################################################
#
#                 Cambridge Crystallographic Data Centre
#                                CCDC 
#
#######################################################################
#
# If this CIF has been generated from an entry in the Cambridge 
# Structural Database, then it will include bibliographic, chemical, 
# crystal, experimental, refinement or atomic coordinate data resulting 
# from the CCDC's data processing and validation procedures.
#
#######################################################################

data_TIPGEF
_chemical_formula_moiety         'C12 H9 N5 O3 S2'
_chemical_name_systematic        
2-Methyl-5-((3-(4-nitrophenyl)-1,2,4-oxadiazol-5-yl)methylsulfanyl)-1,3,4-thiadiazole
_symmetry_cell_setting           monoclinic
_symmetry_space_group_name_H-M   'C 2/c'
_symmetry_Int_Tables_number      15
_space_group_name_Hall           '-C 2yn'
loop_
_symmetry_equiv_pos_site_id
_symmetry_equiv_pos_as_xyz
1 x,y,z
2 1/2+x,1/2+y,z
3 -x,y,1/2-z
4 1/2-x,1/2+y,1/2-z
5 -x,-y,-z
6 1/2-x,1/2-y,-z
7 x,-y,1/2+z
8 1/2+x,1/2-y,1/2+z
_cell_length_a                   35.939(7)
_cell_length_b                   5.6540(11)
_cell_length_c                   13.714(3)
_cell_angle_alpha                90
_cell_angle_beta                 92.55(3)
_cell_angle_gamma                90
_cell_volume                     2783.91
_exptl_crystal_colour            colorless
_exptl_crystal_description       block
_cell_formula_units_Z            8
_exptl_crystal_recrystallization_method ethanol
loop_
_atom_site_label
_atom_site_type_symbol
_atom_site_fract_x
_atom_site_fract_y
_atom_site_fract_z
S1 S 0.48917(3) 0.5272(2) 0.62377(9)
S2 S 0.56945(4) 0.6940(2) 0.64667(10)
O1 O 0.61049(9) 0.4474(6) 0.4886(2)
O2 O 0.75292(12) -0.7027(8) 0.3772(3)
O3 O 0.72006(12) -0.6820(7) 0.2417(3)
N1 N 0.51318(12) 0.1027(8) 0.6228(3)
N2 N 0.54470(11) 0.2462(8) 0.6310(3)
N3 N 0.64182(10) 0.1824(7) 0.5757(3)
N4 N 0.62608(11) 0.2924(7) 0.4218(3)
N5 N 0.72802(12) -0.6150(8) 0.3256(3)
C1 C 0.44496(15) 0.1124(11) 0.6123(4)
H1 H 0.4420 0.0103 0.6673
H2 H 0.4425 0.0218 0.5532
H3 H 0.4262 0.2334 0.6115
C2 C 0.48254(14) 0.2238(9) 0.6198(3)
C3 C 0.53603(13) 0.4704(8) 0.6337(3)
C4 C 0.61043(14) 0.5081(10) 0.6631(4)
H4 H 0.6314 0.6079 0.6830
H5 H 0.6064 0.3991 0.7162
C5 C 0.62069(12) 0.3713(8) 0.5783(3)
C6 C 0.64432(12) 0.1382(8) 0.4777(3)
C7 C 0.66602(11) -0.0549(7) 0.4390(3)
C8 C 0.68800(12) -0.2013(8) 0.5007(3)
H6 H 0.6887 -0.1742 0.5677
C9 C 0.70838(12) -0.3833(9) 0.4645(3)
H7 H 0.7227 -0.4804 0.5060
C10 C 0.70704(12) -0.4188(8) 0.3649(3)
C11 C 0.68665(13) -0.2755(8) 0.3014(3)
H8 H 0.6870 -0.3000 0.2344
C12 C 0.66587(12) -0.0965(9) 0.3382(3)
H9 H 0.6515 -0.0015 0.2959
loop_
_geom_bond_atom_site_label_1
_geom_bond_atom_site_label_2
_geom_bond_site_symmetry_1
_geom_bond_site_symmetry_2
S1 C2 1_555 1_555
S2 C3 1_555 1_555
O1 N4 1_555 1_555
O2 N5 1_555 1_555
O3 N5 1_555 1_555
N1 N2 1_555 1_555
N2 C3 1_555 1_555
N3 C5 1_555 1_555
N4 C6 1_555 1_555
N5 C10 1_555 1_555
C1 H1 1_555 1_555
H2 C1 1_555 1_555
H3 C1 1_555 1_555
C2 N1 1_555 1_555
C3 S1 1_555 1_555
C4 S2 1_555 1_555
H4 C4 1_555 1_555
H5 C4 1_555 1_555
C5 O1 1_555 1_555
C6 N3 1_555 1_555
C7 C6 1_555 1_555
C8 C7 1_555 1_555
H6 C8 1_555 1_555
C9 C8 1_555 1_555
H7 C9 1_555 1_555
C10 C9 1_555 1_555
C11 C10 1_555 1_555
H8 C11 1_555 1_555
C12 C7 1_555 1_555
H9 C12 1_555 1_555
C1 C2 1_555 1_555
C4 C5 1_555 1_555
C11 C12 1_555 1_555

#END
