
#######################################################################
#
#                 Cambridge Crystallographic Data Centre
#                                CCDC 
#
#######################################################################
#
# If this CIF has been generated from an entry in the Cambridge 
# Structural Database, then it will include bibliographic, chemical, 
# crystal, experimental, refinement or atomic coordinate data resulting 
# from the CCDC's data processing and validation procedures.
#
#######################################################################

data_TIPQUG
_chemical_formula_moiety         'C22 H20 N4'
_chemical_name_systematic        
(5,5-Dimethyl-3-(2-(4-(1H-pyrazol-1-yl)phenyl)vinyl)cyclohex-2-en-1-ylidene)malononitrile
_symmetry_cell_setting           monoclinic
_symmetry_space_group_name_H-M   'P 21/c'
_symmetry_Int_Tables_number      14
_space_group_name_Hall           '-P 2ybc'
loop_
_symmetry_equiv_pos_site_id
_symmetry_equiv_pos_as_xyz
1 x,y,z
2 -x,1/2+y,1/2-z
3 -x,-y,-z
4 x,1/2-y,1/2+z
_cell_length_a                   6.149(5)
_cell_length_b                   7.323(5)
_cell_length_c                   40.953(5)
_cell_angle_alpha                90
_cell_angle_beta                 90.751(5)
_cell_angle_gamma                90
_cell_volume                     1843.92
_cell_formula_units_Z            4
loop_
_atom_site_label
_atom_site_type_symbol
_atom_site_fract_x
_atom_site_fract_y
_atom_site_fract_z
N1 N -0.3520(2) 0.12569(19) 0.72769(4)
C1 C -0.2385(3) 0.1243(2) 0.75794(4)
N2 N -0.5557(3) 0.1977(2) 0.72587(4)
C2 C -0.0044(3) 0.1319(2) 0.81701(4)
C3 C 0.3326(3) 0.1782(3) 0.91397(5)
H1 H 0.2088 0.1192 0.9240
H2 H 0.2828 0.2934 0.9049
C4 C -0.2089(3) 0.2120(3) 0.81383(5)
H3 H -0.2688 0.2699 0.8318
C5 C -0.2845(3) 0.0697(3) 0.69815(5)
H4 H -0.1506 0.0173 0.6936
C6 C 0.8801(3) -0.1772(3) 0.92457(5)
C7 C 0.5038(3) 0.2173(3) 0.94053(5)
C8 C 0.0793(3) 0.0473(2) 0.78924(5)
H5 H 0.2158 -0.0071 0.7905
C9 C 0.7027(3) -0.0650(2) 0.92134(5)
C10 C -0.3250(3) 0.2082(2) 0.78491(5)
H6 H -0.4617 0.2622 0.7836
C11 C -0.0342(3) 0.0424(3) 0.76028(5)
H7 H 0.0248 -0.0155 0.7422
C12 C 0.6154(3) 0.0377(3) 0.95005(5)
H8 H 0.7342 0.0638 0.9652
H9 H 0.5120 -0.0392 0.9613
C13 C 0.4113(3) 0.0599(2) 0.88662(4)
C14 C 0.5878(3) -0.0488(3) 0.89109(5)
H10 H 0.6364 -0.1165 0.8734
C15 C 0.9559(3) -0.2867(3) 0.89799(6)
C16 C 0.9986(3) -0.1964(3) 0.95435(6)
C17 C 0.1129(3) 0.1420(2) 0.84800(5)
H11 H 0.0532 0.2157 0.8641
C18 C 0.2984(3) 0.0556(2) 0.85568(5)
H12 H 0.3606 -0.0144 0.8393
C19 C -0.6106(4) 0.1824(3) 0.69462(5)
H13 H -0.7436 0.2202 0.6859
N3 N 1.0124(3) -0.3789(3) 0.87733(5)
C20 C -0.4470(3) 0.1036(3) 0.67639(5)
H14 H -0.4485 0.0793 0.6541
N4 N 1.0983(3) -0.2130(3) 0.97783(5)
C21 C 0.3903(4) 0.2949(3) 0.97072(5)
H15 H 0.4961 0.3159 0.9877
H16 H 0.2836 0.2093 0.9782
H17 H 0.3203 0.4080 0.9651
C22 C 0.6703(4) 0.3531(3) 0.92817(6)
H18 H 0.7401 0.3040 0.9093
H19 H 0.7773 0.3758 0.9450
H20 H 0.5988 0.4654 0.9225
loop_
_geom_bond_atom_site_label_1
_geom_bond_atom_site_label_2
_geom_bond_site_symmetry_1
_geom_bond_site_symmetry_2
N1 C1 1_555 1_555
C1 C10 1_555 1_555
N2 N1 1_555 1_555
C2 C4 1_555 1_555
C3 H1 1_555 1_555
H2 C3 1_555 1_555
C4 H3 1_555 1_555
C5 N1 1_555 1_555
H4 C5 1_555 1_555
C6 C9 1_555 1_555
C7 C3 1_555 1_555
C8 C2 1_555 1_555
H5 C8 1_555 1_555
C9 C12 1_555 1_555
C10 C4 1_555 1_555
H6 C10 1_555 1_555
C11 C1 1_555 1_555
H7 C11 1_555 1_555
C12 C7 1_555 1_555
H8 C12 1_555 1_555
H9 C12 1_555 1_555
C13 C3 1_555 1_555
C14 C9 1_555 1_555
H10 C14 1_555 1_555
C15 C6 1_555 1_555
C16 C6 1_555 1_555
C17 C2 1_555 1_555
H11 C17 1_555 1_555
C18 C13 1_555 1_555
H12 C18 1_555 1_555
C19 N2 1_555 1_555
H13 C19 1_555 1_555
N3 C15 1_555 1_555
C20 C5 1_555 1_555
H14 C20 1_555 1_555
N4 C16 1_555 1_555
C21 C7 1_555 1_555
H15 C21 1_555 1_555
H16 C21 1_555 1_555
H17 C21 1_555 1_555
C22 C7 1_555 1_555
H18 C22 1_555 1_555
H19 C22 1_555 1_555
H20 C22 1_555 1_555
C8 C11 1_555 1_555
C13 C14 1_555 1_555
C17 C18 1_555 1_555
C19 C20 1_555 1_555

#END
