
#######################################################################
#
#                 Cambridge Crystallographic Data Centre
#                                CCDC 
#
#######################################################################
#
# If this CIF has been generated from an entry in the Cambridge 
# Structural Database, then it will include bibliographic, chemical, 
# crystal, experimental, refinement or atomic coordinate data resulting 
# from the CCDC's data processing and validation procedures.
#
#######################################################################

data_TIPQUF
_chemical_formula_moiety         'C19 H16 N2 O2 S2'
_chemical_name_systematic        
1-Phenyl-3-(1,3-dithiolan-2-ylidene)-5-(3-pyridylmethyl)-pyrrolidine-2,4-dione
_symmetry_cell_setting           triclinic
_symmetry_space_group_name_H-M   'P -1'
_symmetry_Int_Tables_number      2
_space_group_name_Hall           '-P 1'
loop_
_symmetry_equiv_pos_site_id
_symmetry_equiv_pos_as_xyz
1 x,y,z
2 -x,-y,-z
_cell_length_a                   6.3058(13)
_cell_length_b                   10.237(2)
_cell_length_c                   13.935(3)
_cell_angle_alpha                77.52(3)
_cell_angle_beta                 85.43(3)
_cell_angle_gamma                82.11(3)
_cell_volume                     868.806
_exptl_crystal_colour            yellow
_exptl_crystal_description       block
_cell_formula_units_Z            2
loop_
_atom_site_label
_atom_site_type_symbol
_atom_site_fract_x
_atom_site_fract_y
_atom_site_fract_z
S1 S 1.40993(15) 0.35778(9) -0.02717(7)
S2 S 1.17316(16) 0.13279(9) -0.03512(7)
C1 C 1.0636(5) 0.4038(3) 0.1471(3)
N1 N 0.8920(4) 0.3987(3) 0.2160(2)
O1 O 0.8089(4) 0.1367(3) 0.10165(19)
C2 C 1.3279(7) -0.0089(4) 0.4063(3)
H1 H 1.4594 -0.0507 0.4300
N2 N 1.2325(8) -0.0654(4) 0.3401(3)
C3 C 1.2417(6) 0.0987(4) 0.4360(3)
H2 H 1.3106 0.1337 0.4796
C4 C 0.7537(5) 0.2967(3) 0.2075(3)
H3 H 0.6119 0.3411 0.1870
C5 C 0.9409(6) 0.1141(4) 0.3377(3)
C6 C 1.0521(5) 0.3003(3) 0.0900(3)
C7 C 0.8343(5) 0.4868(3) 0.2814(2)
C8 C 0.8694(6) 0.2330(3) 0.1262(3)
C9 C 0.7308(6) 0.1887(4) 0.3019(3)
H4 H 0.6581 0.2313 0.3532
H5 H 0.6418 0.1244 0.2898
C10 C 1.1969(5) 0.2693(3) 0.0168(2)
C11 C 1.0337(7) -0.0013(4) 0.3063(3)
H6 H 0.9640 -0.0361 0.2629
C12 C 1.0572(7) 0.1568(4) 0.4036(3)
H7 H 0.9976 0.2333 0.4264
C13 C 0.5647(6) 0.5904(4) 0.3832(3)
H8 H 0.4224 0.6029 0.4063
C14 C 0.9853(6) 0.5505(4) 0.3142(3)
H9 H 1.1276 0.5382 0.2912
O2 O 1.1988(4) 0.4815(3) 0.1372(2)
C15 C 0.6232(6) 0.5088(4) 0.3162(3)
H10 H 0.5191 0.4679 0.2940
C16 C 1.5442(6) 0.2363(4) -0.0967(3)
H11 H 1.6270 0.2818 -0.1526
H12 H 1.6414 0.1700 -0.0554
C17 C 0.7145(7) 0.6535(4) 0.4161(3)
H13 H 0.6745 0.7089 0.4609
C18 C 1.3784(6) 0.1677(4) -0.1319(3)
H14 H 1.4450 0.0842 -0.1494
H15 H 1.3152 0.2253 -0.1899
C19 C 0.9247(7) 0.6337(4) 0.3818(3)
H16 H 1.0273 0.6759 0.4038
loop_
_geom_bond_atom_site_label_1
_geom_bond_atom_site_label_2
_geom_bond_site_symmetry_1
_geom_bond_site_symmetry_2
S1 C10 1_555 1_555
S2 C10 1_555 1_555
C1 N1 1_555 1_555
N1 C4 1_555 1_555
O1 C8 1_555 1_555
C2 H1 1_555 1_555
N2 C2 1_555 1_555
C3 C2 1_555 1_555
H2 C3 1_555 1_555
C4 H3 1_555 1_555
C5 C9 1_555 1_555
C6 C1 1_555 1_555
C7 N1 1_555 1_555
C8 C4 1_555 1_555
C9 C4 1_555 1_555
H4 C9 1_555 1_555
H5 C9 1_555 1_555
C10 C6 1_555 1_555
C11 N2 1_555 1_555
H6 C11 1_555 1_555
C12 C3 1_555 1_555
H7 C12 1_555 1_555
C13 H8 1_555 1_555
C14 C7 1_555 1_555
H9 C14 1_555 1_555
O2 C1 1_555 1_555
C15 C7 1_555 1_555
H10 C15 1_555 1_555
C16 S1 1_555 1_555
H11 C16 1_555 1_555
H12 C16 1_555 1_555
C17 C13 1_555 1_555
H13 C17 1_555 1_555
C18 S2 1_555 1_555
H14 C18 1_555 1_555
H15 C18 1_555 1_555
C19 C14 1_555 1_555
H16 C19 1_555 1_555
C5 C11 1_555 1_555
C5 C12 1_555 1_555
C6 C8 1_555 1_555
C13 C15 1_555 1_555
C16 C18 1_555 1_555
C17 C19 1_555 1_555

#END
