
#######################################################################
#
#                 Cambridge Crystallographic Data Centre
#                                CCDC 
#
#######################################################################
#
# If this CIF has been generated from an entry in the Cambridge 
# Structural Database, then it will include bibliographic, chemical, 
# crystal, experimental, refinement or atomic coordinate data resulting 
# from the CCDC's data processing and validation procedures.
#
#######################################################################

data_TIPRAN
_chemical_formula_moiety         'C22 H20 N4'
_chemical_name_systematic        
(3-(2-(4-(1H-Imidazol-1-yl)phenyl)vinyl)-5,5-dimethylcyclohex-2-en-1-ylidene)malononitrile
_symmetry_cell_setting           triclinic
_symmetry_space_group_name_H-M   'P -1'
_symmetry_Int_Tables_number      2
_space_group_name_Hall           '-P 1'
loop_
_symmetry_equiv_pos_site_id
_symmetry_equiv_pos_as_xyz
1 x,y,z
2 -x,-y,-z
_cell_length_a                   5.743(5)
_cell_length_b                   9.430(5)
_cell_length_c                   18.057(5)
_cell_angle_alpha                90.784(5)
_cell_angle_beta                 94.855(5)
_cell_angle_gamma                106.042(5)
_cell_volume                     935.75
_cell_formula_units_Z            2
loop_
_atom_site_label
_atom_site_type_symbol
_atom_site_fract_x
_atom_site_fract_y
_atom_site_fract_z
N1 N -0.6488(2) 0.24288(14) -0.03943(7)
C1 C 0.3457(3) 0.14115(17) 0.27328(8)
C2 C -0.1142(3) 0.25949(17) 0.13871(8)
C3 C 0.7605(3) 0.13363(18) 0.37322(9)
H1 H 0.8948 0.1680 0.3428
H2 H 0.8267 0.1102 0.4212
C4 C 0.5878(3) -0.00458(17) 0.33706(8)
C5 C -0.4732(3) 0.25034(17) 0.02247(9)
C6 C -0.2877(3) 0.37889(18) 0.03944(10)
H3 H -0.2811 0.4622 0.0118
C7 C 0.5074(3) 0.28121(18) 0.31079(9)
H4 H 0.4093 0.3472 0.3201
H5 H 0.6259 0.3291 0.2772
C8 C 0.0855(3) 0.26320(19) 0.19489(9)
H6 H 0.1763 0.3550 0.2152
C9 C -0.3094(3) 0.13301(18) 0.12246(9)
H7 H -0.3191 0.0502 0.1507
C10 C 0.1473(3) 0.14447(18) 0.21931(9)
H8 H 0.0516 0.0536 0.1993
C11 C 0.3878(3) 0.01019(18) 0.28811(9)
H9 H 0.2811 -0.0749 0.2653
C12 C -0.1133(3) 0.38330(18) 0.09719(9)
H10 H 0.0082 0.4709 0.1088
N2 N -1.0056(3) 0.20494(18) -0.10538(9)
C13 C 0.6280(3) -0.13939(19) 0.34744(9)
C14 C -0.4863(3) 0.12838(17) 0.06588(9)
H11 H -0.6153 0.0435 0.0565
C15 C 0.6424(3) 0.25784(18) 0.38424(9)
C16 C 0.8362(4) -0.1572(2) 0.39191(11)
C17 C -0.8943(3) 0.1947(2) -0.04036(11)
H12 H -0.9750 0.1582 0.0009
C18 C -0.6023(3) 0.2864(2) -0.11031(9)
H13 H -0.4506 0.3249 -0.1278
C19 C 0.4677(4) -0.2716(2) 0.31204(11)
C20 C 0.8424(4) 0.3997(2) 0.40795(13)
H14 H 0.9507 0.4253 0.3695
H15 H 0.9319 0.3844 0.4531
H16 H 0.7701 0.4783 0.4161
C21 C -0.8208(3) 0.2620(2) -0.14928(11)
H17 H -0.8437 0.2813 -0.1993
N3 N 0.3400(4) -0.3751(2) 0.28258(12)
C22 C 0.4678(4) 0.2186(3) 0.44483(10)
H18 H 0.3932 0.2967 0.4515
H19 H 0.5562 0.2059 0.4907
H20 H 0.3443 0.1285 0.4305
N4 N 1.0038(4) -0.1711(2) 0.42649(11)
loop_
_geom_bond_atom_site_label_1
_geom_bond_atom_site_label_2
_geom_bond_site_symmetry_1
_geom_bond_site_symmetry_2
N1 C5 1_555 1_555
C1 C7 1_555 1_555
C2 C8 1_555 1_555
C3 H1 1_555 1_555
H2 C3 1_555 1_555
C4 C3 1_555 1_555
C5 C6 1_555 1_555
C6 H3 1_555 1_555
C7 H4 1_555 1_555
H5 C7 1_555 1_555
C8 H6 1_555 1_555
C9 C2 1_555 1_555
H7 C9 1_555 1_555
C10 C1 1_555 1_555
H8 C10 1_555 1_555
C11 C1 1_555 1_555
H9 C11 1_555 1_555
C12 C2 1_555 1_555
H10 C12 1_555 1_555
N2 C17 1_555 1_555
C13 C4 1_555 1_555
C14 C5 1_555 1_555
H11 C14 1_555 1_555
C15 C3 1_555 1_555
C16 C13 1_555 1_555
C17 N1 1_555 1_555
H12 C17 1_555 1_555
C18 N1 1_555 1_555
H13 C18 1_555 1_555
C19 C13 1_555 1_555
C20 C15 1_555 1_555
H14 C20 1_555 1_555
H15 C20 1_555 1_555
H16 C20 1_555 1_555
C21 N2 1_555 1_555
H17 C21 1_555 1_555
N3 C19 1_555 1_555
C22 C15 1_555 1_555
H18 C22 1_555 1_555
H19 C22 1_555 1_555
H20 C22 1_555 1_555
N4 C16 1_555 1_555
C4 C11 1_555 1_555
C6 C12 1_555 1_555
C7 C15 1_555 1_555
C8 C10 1_555 1_555
C9 C14 1_555 1_555
C18 C21 1_555 1_555

#END
