
#######################################################################
#
#                 Cambridge Crystallographic Data Centre
#                                CCDC 
#
#######################################################################
#
# If this CIF has been generated from an entry in the Cambridge 
# Structural Database, then it will include bibliographic, chemical, 
# crystal, experimental, refinement or atomic coordinate data resulting 
# from the CCDC's data processing and validation procedures.
#
#######################################################################

data_TIPRIU
_chemical_formula_moiety         'C50 H92 N2 O10 Si4'
_chemical_name_systematic        
meso-4,5-bis(Benzyloxy)-2,3,6,7-tetrakis((t-butyl(dimethyl)silyl)oxy)-N,N'-dimethoxy-N,N'-dimethyloctanediamide
_symmetry_cell_setting           triclinic
_symmetry_space_group_name_H-M   'P -1'
_symmetry_Int_Tables_number      2
_space_group_name_Hall           '-P 1'
loop_
_symmetry_equiv_pos_site_id
_symmetry_equiv_pos_as_xyz
1 x,y,z
2 -x,-y,-z
_cell_length_a                   11.068(1)
_cell_length_b                   11.792(1)
_cell_length_c                   23.175(1)
_cell_angle_alpha                79.41(1)
_cell_angle_beta                 87.33(1)
_cell_angle_gamma                89.64(1)
_cell_volume                     2969.91
_exptl_crystal_colour            colorless
_exptl_crystal_description       plate
_cell_formula_units_Z            2
loop_
_atom_site_label
_atom_site_type_symbol
_atom_site_fract_x
_atom_site_fract_y
_atom_site_fract_z
C1 C 0.0076(4) 1.2012(4) 0.02235(16)
H1 H -0.0380 1.1813 -0.0097
H2 H 0.0942 1.2029 0.0114
H3 H -0.0178 1.2773 0.0296
O1 O -0.0152(2) 1.1168(2) 0.07447(10)
N1 N -0.1376(3) 1.0985(3) 0.08696(13)
C2 C -0.1906(5) 1.0109(4) 0.0581(2)
H4 H -0.1647 1.0254 0.0164
H5 H -0.2790 1.0146 0.0620
H6 H -0.1634 0.9341 0.0767
C3 C -0.1867(3) 1.1225(3) 0.13751(13)
O2 O -0.2853(2) 1.0828(2) 0.15600(11)
C4 C -0.1240(2) 1.2110(2) 0.16821(11)
H7 H -0.1826 1.2299 0.1992
O3 O -0.10170(17) 1.31521(16) 0.12660(8)
Si1 Si -0.17616(8) 1.43774(7) 0.12642(4)
C5 C -0.2310(4) 1.4491(3) 0.20198(15)
H8 H -0.3052 1.4035 0.2123
H9 H -0.2479 1.5301 0.2039
H10 H -0.1689 1.4198 0.2297
C6 C -0.0658(4) 1.5542(3) 0.09624(19)
H11 H 0.0009 1.5518 0.1228
H12 H -0.1061 1.6293 0.0925
H13 H -0.0339 1.5431 0.0575
C7 C -0.3075(3) 1.4479(4) 0.07671(16)
C8 C -0.3656(6) 1.5668(5) 0.0728(3)
H14 H -0.4353 1.5720 0.0479
H15 H -0.3063 1.6264 0.0557
H16 H -0.3923 1.5782 0.1122
C9 C -0.4013(4) 1.3556(5) 0.0987(3)
H17 H -0.4717 1.3686 0.0742
H18 H -0.4263 1.3587 0.1395
H19 H -0.3668 1.2796 0.0967
C10 C -0.2630(5) 1.4342(6) 0.01504(19)
H20 H -0.2321 1.3558 0.0161
H21 H -0.1981 1.4900 0.0009
H22 H -0.3300 1.4480 -0.0115
C11 C -0.0070(2) 1.1683(2) 0.19865(11)
H23 H 0.0525 1.1459 0.1690
O4 O 0.04155(17) 1.26162(16) 0.22197(8)
Si2 Si 0.18757(8) 1.29750(8) 0.20881(4)
C12 C 0.2168(3) 1.3541(4) 0.12958(16)
H24 H 0.1951 1.2954 0.1069
H25 H 0.3028 1.3735 0.1220
H26 H 0.1681 1.4235 0.1178
C13 C 0.2890(3) 1.1720(3) 0.23120(18)
H27 H 0.2910 1.1544 0.2741
H28 H 0.3709 1.1908 0.2143
H29 H 0.2586 1.1048 0.2169
C14 C 0.2137(3) 1.4099(3) 0.25532(18)
C15 C 0.3477(4) 1.4498(5) 0.2460(2)
H30 H 0.3612 1.5110 0.2685
H31 H 0.3659 1.4791 0.2042
H32 H 0.4007 1.3843 0.2596
C16 C 0.1270(5) 1.5153(3) 0.2380(2)
H33 H 0.0428 1.4894 0.2454
H34 H 0.1408 1.5481 0.1962
H35 H 0.1433 1.5741 0.2615
C17 C 0.1900(4) 1.3561(4) 0.32095(17)
H36 H 0.2449 1.2910 0.3318
H37 H 0.1061 1.3289 0.3275
H38 H 0.2039 1.4144 0.3451
C18 C -0.0277(2) 1.0651(2) 0.24958(11)
H39 H 0.0391 1.0651 0.2772
O5 O -0.13995(14) 1.07230(15) 0.28205(7)
C19 C -0.1328(3) 1.1347(3) 0.32931(14)
H40 H -0.1065 1.2151 0.3139
H41 H -0.0732 1.0980 0.3574
C20 C -0.2558(2) 1.1338(3) 0.35948(12)
C21 C -0.2950(3) 1.0395(3) 0.40065(12)
H42 H -0.2422 0.9760 0.4111
C22 C -0.4091(3) 1.0364(3) 0.42659(14)
H43 H -0.4351 0.9704 0.4543
C23 C -0.4856(3) 1.1276(4) 0.41293(16)
H44 H -0.5644 1.1252 0.4312
C24 C -0.4488(3) 1.2221(3) 0.37309(17)
H45 H -0.5015 1.2861 0.3637
C25 C -0.3329(3) 1.2247(3) 0.34593(15)
H46 H -0.3077 1.2904 0.3178
C26 C -0.0274(2) 0.9476(2) 0.23026(11)
H47 H -0.0950 0.9441 0.2035
O6 O 0.08675(15) 0.94340(16) 0.19837(8)
C27 C 0.0875(3) 0.8685(3) 0.15647(13)
H48 H 0.0228 0.8911 0.1285
H49 H 0.0725 0.7880 0.1767
C28 C 0.2091(3) 0.8776(3) 0.12393(12)
C29 C 0.2582(3) 0.7825(4) 0.10383(15)
H50 H 0.2154 0.7113 0.1111
C30 C 0.3700(4) 0.7908(5) 0.07303(17)
H51 H 0.4028 0.7255 0.0593
C31 C 0.4327(4) 0.8931(5) 0.06249(16)
H52 H 0.5092 0.8985 0.0418
C32 C 0.3854(4) 0.9857(4) 0.08162(17)
H53 H 0.4290 1.0564 0.0746
C33 C 0.2731(3) 0.9785(4) 0.11166(16)
H54 H 0.2402 1.0453 0.1239
C34 C -0.0374(2) 0.8446(2) 0.28246(11)
H55 H 0.0073 0.7787 0.2699
O7 O 0.02014(15) 0.86974(15) 0.33246(8)
Si3 Si 0.14631(6) 0.80840(7) 0.35906(4)
C35 C 0.1246(3) 0.6512(3) 0.38650(15)
H56 H 0.0745 0.6393 0.4231
H57 H 0.2034 0.6144 0.3938
H58 H 0.0843 0.6169 0.3570
C36 C 0.2692(3) 0.8253(3) 0.30040(16)
H59 H 0.2465 0.7849 0.2691
H60 H 0.3442 0.7924 0.3171
H61 H 0.2814 0.9074 0.2842
C37 C 0.1825(3) 0.8833(3) 0.42115(15)
C38 C 0.2009(4) 1.0128(3) 0.3993(2)
H62 H 0.2182 1.0500 0.4325
H63 H 0.1273 1.0461 0.3812
H64 H 0.2689 1.0253 0.3702
C39 C 0.3016(3) 0.8328(4) 0.44726(19)
H65 H 0.3675 0.8480 0.4171
H66 H 0.2924 0.7494 0.4606
H67 H 0.3203 0.8691 0.4806
C40 C 0.0820(4) 0.8656(4) 0.46974(18)
H68 H 0.1058 0.9015 0.5024
H69 H 0.0686 0.7829 0.4837
H70 H 0.0071 0.9012 0.4541
C41 C -0.1665(2) 0.8025(2) 0.30122(11)
H71 H -0.2117 0.8588 0.3215
O8 O -0.15429(17) 0.69397(18) 0.33954(9)
Si4 Si -0.24342(7) 0.59337(7) 0.37724(4)
C42 C -0.3799(3) 0.5681(3) 0.33679(15)
H72 H -0.4303 0.6375 0.3313
H73 H -0.4264 0.5031 0.3595
H74 H -0.3545 0.5503 0.2984
C43 C -0.1468(3) 0.4602(3) 0.38705(18)
H75 H -0.1118 0.4497 0.3488
H76 H -0.1965 0.3929 0.4043
H77 H -0.0817 0.4686 0.4132
C44 C -0.2919(3) 0.6289(3) 0.45071(14)
C45 C -0.1876(4) 0.6842(6) 0.4769(2)
H78 H -0.2161 0.7074 0.5136
H79 H -0.1582 0.7523 0.4490
H80 H -0.1217 0.6284 0.4847
C46 C -0.3321(4) 0.5184(4) 0.49304(19)
H81 H -0.3630 0.5380 0.5303
H82 H -0.2629 0.4663 0.5003
H83 H -0.3959 0.4804 0.4756
C47 C -0.3992(4) 0.7133(4) 0.44325(17)
H84 H -0.4687 0.6757 0.4299
H85 H -0.3763 0.7819 0.4141
H86 H -0.4209 0.7362 0.4810
C48 C -0.2316(2) 0.7817(2) 0.24745(12)
O9 O -0.18086(18) 0.73384(19) 0.21021(9)
N2 N -0.3460(2) 0.8196(2) 0.24129(10)
C49 C -0.4224(3) 0.7931(4) 0.19610(15)
H87 H -0.3715 0.7743 0.1634
H88 H -0.4727 0.8601 0.1818
H89 H -0.4744 0.7270 0.2126
O10 O -0.40852(16) 0.85408(18) 0.28897(8)
C50 C -0.4360(3) 0.9748(3) 0.27485(14)
H90 H -0.3607 1.0190 0.2654
H91 H -0.4787 0.9987 0.3086
H92 H -0.4873 0.9891 0.2409
loop_
_geom_bond_atom_site_label_1
_geom_bond_atom_site_label_2
_geom_bond_site_symmetry_1
_geom_bond_site_symmetry_2
C1 H1 1_555 1_555
H2 C1 1_555 1_555
H3 C1 1_555 1_555
O1 C1 1_555 1_555
N1 O1 1_555 1_555
C2 N1 1_555 1_555
H4 C2 1_555 1_555
H5 C2 1_555 1_555
H6 C2 1_555 1_555
C3 N1 1_555 1_555
O2 C3 1_555 1_555
C4 C3 1_555 1_555
H7 C4 1_555 1_555
O3 C4 1_555 1_555
Si1 O3 1_555 1_555
C5 Si1 1_555 1_555
H8 C5 1_555 1_555
H9 C5 1_555 1_555
H10 C5 1_555 1_555
C6 Si1 1_555 1_555
H11 C6 1_555 1_555
H12 C6 1_555 1_555
H13 C6 1_555 1_555
C7 Si1 1_555 1_555
C8 C7 1_555 1_555
H14 C8 1_555 1_555
H15 C8 1_555 1_555
H16 C8 1_555 1_555
C9 C7 1_555 1_555
H17 C9 1_555 1_555
H18 C9 1_555 1_555
H19 C9 1_555 1_555
C10 C7 1_555 1_555
H20 C10 1_555 1_555
H21 C10 1_555 1_555
H22 C10 1_555 1_555
C11 C4 1_555 1_555
H23 C11 1_555 1_555
O4 C11 1_555 1_555
Si2 O4 1_555 1_555
C12 Si2 1_555 1_555
H24 C12 1_555 1_555
H25 C12 1_555 1_555
H26 C12 1_555 1_555
C13 Si2 1_555 1_555
H27 C13 1_555 1_555
H28 C13 1_555 1_555
H29 C13 1_555 1_555
C14 Si2 1_555 1_555
C15 C14 1_555 1_555
H30 C15 1_555 1_555
H31 C15 1_555 1_555
H32 C15 1_555 1_555
C16 C14 1_555 1_555
H33 C16 1_555 1_555
H34 C16 1_555 1_555
H35 C16 1_555 1_555
C17 C14 1_555 1_555
H36 C17 1_555 1_555
H37 C17 1_555 1_555
H38 C17 1_555 1_555
C18 C11 1_555 1_555
H39 C18 1_555 1_555
O5 C18 1_555 1_555
C19 O5 1_555 1_555
H40 C19 1_555 1_555
H41 C19 1_555 1_555
C20 C19 1_555 1_555
C21 C20 1_555 1_555
H42 C21 1_555 1_555
C22 C21 1_555 1_555
H43 C22 1_555 1_555
C23 C22 1_555 1_555
H44 C23 1_555 1_555
C24 C23 1_555 1_555
H45 C24 1_555 1_555
C25 C20 1_555 1_555
H46 C25 1_555 1_555
C26 C18 1_555 1_555
H47 C26 1_555 1_555
O6 C26 1_555 1_555
C27 O6 1_555 1_555
H48 C27 1_555 1_555
H49 C27 1_555 1_555
C28 C27 1_555 1_555
C29 C28 1_555 1_555
H50 C29 1_555 1_555
C30 C29 1_555 1_555
H51 C30 1_555 1_555
C31 C30 1_555 1_555
H52 C31 1_555 1_555
C32 C31 1_555 1_555
H53 C32 1_555 1_555
C33 C28 1_555 1_555
H54 C33 1_555 1_555
C34 C26 1_555 1_555
H55 C34 1_555 1_555
O7 C34 1_555 1_555
Si3 O7 1_555 1_555
C35 Si3 1_555 1_555
H56 C35 1_555 1_555
H57 C35 1_555 1_555
H58 C35 1_555 1_555
C36 Si3 1_555 1_555
H59 C36 1_555 1_555
H60 C36 1_555 1_555
H61 C36 1_555 1_555
C37 Si3 1_555 1_555
C38 C37 1_555 1_555
H62 C38 1_555 1_555
H63 C38 1_555 1_555
H64 C38 1_555 1_555
C39 C37 1_555 1_555
H65 C39 1_555 1_555
H66 C39 1_555 1_555
H67 C39 1_555 1_555
C40 C37 1_555 1_555
H68 C40 1_555 1_555
H69 C40 1_555 1_555
H70 C40 1_555 1_555
C41 C34 1_555 1_555
H71 C41 1_555 1_555
O8 C41 1_555 1_555
Si4 O8 1_555 1_555
C42 Si4 1_555 1_555
H72 C42 1_555 1_555
H73 C42 1_555 1_555
H74 C42 1_555 1_555
C43 Si4 1_555 1_555
H75 C43 1_555 1_555
H76 C43 1_555 1_555
H77 C43 1_555 1_555
C44 Si4 1_555 1_555
C45 C44 1_555 1_555
H78 C45 1_555 1_555
H79 C45 1_555 1_555
H80 C45 1_555 1_555
C46 C44 1_555 1_555
H81 C46 1_555 1_555
H82 C46 1_555 1_555
H83 C46 1_555 1_555
C47 C44 1_555 1_555
H84 C47 1_555 1_555
H85 C47 1_555 1_555
H86 C47 1_555 1_555
C48 C41 1_555 1_555
O9 C48 1_555 1_555
N2 C48 1_555 1_555
C49 N2 1_555 1_555
H87 C49 1_555 1_555
H88 C49 1_555 1_555
H89 C49 1_555 1_555
O10 N2 1_555 1_555
C50 O10 1_555 1_555
H90 C50 1_555 1_555
H91 C50 1_555 1_555
H92 C50 1_555 1_555
C24 C25 1_555 1_555
C32 C33 1_555 1_555

#END
