
#######################################################################
#
#                 Cambridge Crystallographic Data Centre
#                                CCDC 
#
#######################################################################
#
# If this CIF has been generated from an entry in the Cambridge 
# Structural Database, then it will include bibliographic, chemical, 
# crystal, experimental, refinement or atomic coordinate data resulting 
# from the CCDC's data processing and validation procedures.
#
#######################################################################

data_TIPRUH
_chemical_formula_moiety         'C25 H26 N2 O2 S1'
_chemical_name_systematic        
3-((4-Methylphenyl)sulfonyl)-4-(prop-1-en-2-yl)-1,2,3,3a,4,5-hexahydro-3,7a-diazacyclohepta[1,2,3-jk]fluorene
_symmetry_cell_setting           triclinic
_symmetry_space_group_name_H-M   'P -1'
_symmetry_Int_Tables_number      2
_space_group_name_Hall           '-P 1'
loop_
_symmetry_equiv_pos_site_id
_symmetry_equiv_pos_as_xyz
1 x,y,z
2 -x,-y,-z
_cell_length_a                   7.8121(6)
_cell_length_b                   9.1743(8)
_cell_length_c                   16.8203(14)
_cell_angle_alpha                77.715(2)
_cell_angle_beta                 82.186(2)
_cell_angle_gamma                66.109(2)
_cell_volume                     1075.32
_exptl_crystal_colour            colorless
_exptl_crystal_description       prismatic
_cell_formula_units_Z            2
loop_
_atom_site_label
_atom_site_type_symbol
_atom_site_fract_x
_atom_site_fract_y
_atom_site_fract_z
S1 S 0.56876(5) 0.77870(5) 0.71755(2)
N1 N 0.76600(18) 0.89498(16) 0.94237(8)
N2 N 0.76578(18) 0.72598(16) 0.76049(8)
O1 O 0.46802(18) 0.68261(17) 0.75987(8)
O2 O 0.47912(17) 0.95159(15) 0.70620(8)
C1 C 0.7285(2) 0.66996(19) 1.01440(10)
C2 C 0.6904(2) 0.5733(2) 1.08541(11)
H1 H 0.6905 0.4727 1.0836
C3 C 0.6527(3) 0.6305(2) 1.15804(11)
H2 H 0.6257 0.5678 1.2053
C4 C 0.6542(3) 0.7802(2) 1.16219(11)
H3 H 0.6291 0.8147 1.2122
C5 C 0.6920(2) 0.8783(2) 1.09378(11)
H4 H 0.6937 0.9777 1.0968
C6 C 0.7275(2) 0.8222(2) 1.01986(10)
C7 C 0.7871(2) 0.79091(18) 0.88874(10)
C8 C 0.7678(2) 0.65397(19) 0.92985(10)
C9 C 0.7844(3) 0.51973(19) 0.88761(11)
H5 H 0.6631 0.5131 0.8892
H6 H 0.8711 0.4171 0.9150
C10 C 0.8554(2) 0.55418(19) 0.79935(10)
H7 H 0.9898 0.5240 0.7977
H8 H 0.8322 0.4871 0.7681
C11 C 0.8000(2) 0.84298(19) 0.79832(10)
H9 H 0.6983 0.9491 0.7844
C12 C 0.9864(2) 0.8592(2) 0.76436(10)
H10 H 1.0816 0.7493 0.7649
C13 C 1.0492(2) 0.9381(2) 0.82151(12)
H11 H 1.1157 0.8535 0.8649
H12 H 1.1381 0.9808 0.7907
C14 C 0.8980(3) 1.0724(2) 0.86014(12)
H13 H 0.8900 1.1779 0.8416
C15 C 0.7772(2) 1.0479(2) 0.91853(11)
H14 H 0.6979 1.1329 0.9446
C16 C 0.9760(3) 0.9459(3) 0.67689(12)
C17 C 1.0905(4) 0.8700(3) 0.61890(14)
H15 H 1.0861 0.9237 0.5652
H16 H 1.1747 0.7634 0.6322
C18 C 0.8402(4) 1.1158(3) 0.65776(17)
H17 H 0.8514 1.1556 0.6005
H18 H 0.8661 1.1815 0.6881
H19 H 0.7152 1.1204 0.6723
C19 C 0.6389(2) 0.7231(2) 0.62015(10)
C20 C 0.6456(3) 0.5779(2) 0.60678(12)
H20 H 0.6147 0.5074 0.6490
C21 C 0.6991(4) 0.5379(3) 0.52936(13)
H21 H 0.7047 0.4395 0.5203
C22 C 0.7441(3) 0.6415(3) 0.46562(12)
C23 C 0.7331(3) 0.7872(3) 0.48011(12)
H22 H 0.7602 0.8591 0.4375
C24 C 0.6822(3) 0.8287(2) 0.55702(12)
H23 H 0.6773 0.9269 0.5661
C25 C 0.8020(5) 0.5970(4) 0.38140(15)
H24 H 0.6955 0.5998 0.3576
H25 H 0.8984 0.4900 0.3856
H26 H 0.8487 0.6729 0.3477
loop_
_geom_bond_atom_site_label_1
_geom_bond_atom_site_label_2
_geom_bond_site_symmetry_1
_geom_bond_site_symmetry_2
S1 N2 1_555 1_555
N1 C6 1_555 1_555
N2 C10 1_555 1_555
O1 S1 1_555 1_555
O2 S1 1_555 1_555
C1 C2 1_555 1_555
C2 H1 1_555 1_555
C3 C2 1_555 1_555
H2 C3 1_555 1_555
C4 C3 1_555 1_555
H3 C4 1_555 1_555
C5 C4 1_555 1_555
H4 C5 1_555 1_555
C6 C1 1_555 1_555
C7 N1 1_555 1_555
C8 C1 1_555 1_555
C9 C8 1_555 1_555
H5 C9 1_555 1_555
H6 C9 1_555 1_555
C10 C9 1_555 1_555
H7 C10 1_555 1_555
H8 C10 1_555 1_555
C11 N2 1_555 1_555
H9 C11 1_555 1_555
C12 C11 1_555 1_555
H10 C12 1_555 1_555
C13 C12 1_555 1_555
H11 C13 1_555 1_555
H12 C13 1_555 1_555
C14 C13 1_555 1_555
H13 C14 1_555 1_555
C15 N1 1_555 1_555
H14 C15 1_555 1_555
C16 C12 1_555 1_555
C17 C16 1_555 1_555
H15 C17 1_555 1_555
H16 C17 1_555 1_555
C18 C16 1_555 1_555
H17 C18 1_555 1_555
H18 C18 1_555 1_555
H19 C18 1_555 1_555
C19 S1 1_555 1_555
C20 C19 1_555 1_555
H20 C20 1_555 1_555
C21 C20 1_555 1_555
H21 C21 1_555 1_555
C22 C21 1_555 1_555
C23 C22 1_555 1_555
H22 C23 1_555 1_555
C24 C19 1_555 1_555
H23 C24 1_555 1_555
C25 C22 1_555 1_555
H24 C25 1_555 1_555
H25 C25 1_555 1_555
H26 C25 1_555 1_555
C5 C6 1_555 1_555
C7 C8 1_555 1_555
C7 C11 1_555 1_555
C14 C15 1_555 1_555
C23 C24 1_555 1_555

#END
