
#######################################################################
#
#                 Cambridge Crystallographic Data Centre
#                                CCDC 
#
#######################################################################
#
# If this CIF has been generated from an entry in the Cambridge 
# Structural Database, then it will include bibliographic, chemical, 
# crystal, experimental, refinement or atomic coordinate data resulting 
# from the CCDC's data processing and validation procedures.
#
#######################################################################

data_TIPRIV
_chemical_formula_moiety         'C16 H15 N1 O2 S2'
_chemical_name_systematic        
(R)-3-(1,3-Benzothiazol-2-ylsulfanyl)-2-phenylpropane-1,2-diol
_symmetry_cell_setting           monoclinic
_symmetry_space_group_name_H-M   'P 21'
_symmetry_Int_Tables_number      4
_space_group_name_Hall           'P 2yb'
loop_
_symmetry_equiv_pos_site_id
_symmetry_equiv_pos_as_xyz
1 x,y,z
2 -x,1/2+y,-z
_cell_length_a                   11.3686(2)
_cell_length_b                   5.26490(10)
_cell_length_c                   12.3069(3)
_cell_angle_alpha                90
_cell_angle_beta                 93.602(2)
_cell_angle_gamma                90
_cell_volume                     735.169
_exptl_crystal_colour            colorless
_exptl_crystal_description       block
_cell_formula_units_Z            2
loop_
_atom_site_label
_atom_site_type_symbol
_atom_site_fract_x
_atom_site_fract_y
_atom_site_fract_z
S1 S 0.56099(4) 0.04382(9) 0.21431(4)
S2 S 0.39063(4) 0.16723(10) 0.02653(4)
O1 O 0.65896(12) -0.2014(3) 0.42507(12)
H1 H 0.5856 -0.2250 0.4305
O2 O 0.57562(11) 0.1559(3) 0.58051(11)
H2 H 0.5869 0.0648 0.6372
C1 C 0.44232(17) 0.2244(4) 0.16186(16)
N1 N 0.38744(15) 0.3977(4) 0.21349(14)
C2 C 0.29712(17) 0.5027(4) 0.14572(17)
C3 C 0.28401(18) 0.4001(4) 0.04055(17)
C4 C 0.1972(2) 0.4862(5) -0.03527(19)
H3 H 0.1887 0.4153 -0.1063
C5 C 0.12301(19) 0.6800(5) -0.00376(19)
H4 H 0.0633 0.7432 -0.0541
C6 C 0.13551(19) 0.7819(5) 0.10097(19)
H5 H 0.0833 0.9120 0.1213
C7 C 0.2223(2) 0.6974(5) 0.17552(17)
H6 H 0.2311 0.7706 0.2461
C8 C 0.57895(16) 0.1898(4) 0.34751(15)
H7 H 0.5958 0.3731 0.3393
H8 H 0.5048 0.1730 0.3850
C9 C 0.67987(15) 0.0643(4) 0.41628(15)
C10 C 0.80205(16) 0.1018(4) 0.37373(15)
C11 C 0.89025(19) -0.0685(5) 0.40562(19)
H9 H 0.8717 -0.2137 0.4470
C12 C 1.0057(2) -0.0303(5) 0.3780(2)
H10 H 1.0655 -0.1481 0.4010
C13 C 1.03342(19) 0.1805(5) 0.3166(2)
H11 H 1.1121 0.2080 0.2973
C14 C 0.9453(2) 0.3498(5) 0.28381(19)
H12 H 0.9636 0.4932 0.2412
C15 C 0.83003(19) 0.3130(5) 0.31240(18)
H13 H 0.7705 0.4320 0.2901
C16 C 0.68500(15) 0.1836(4) 0.53121(15)
H14 H 0.7482 0.1007 0.5775
H15 H 0.7044 0.3663 0.5260
loop_
_geom_bond_atom_site_label_1
_geom_bond_atom_site_label_2
_geom_bond_site_symmetry_1
_geom_bond_site_symmetry_2
S1 C1 1_555 1_555
S2 C1 1_555 1_555
O1 H1 1_555 1_555
O2 H2 1_555 1_555
C1 N1 1_555 1_555
N1 C2 1_555 1_555
C2 C3 1_555 1_555
C3 S2 1_555 1_555
C4 C3 1_555 1_555
H3 C4 1_555 1_555
C5 C4 1_555 1_555
H4 C5 1_555 1_555
C6 C5 1_555 1_555
H5 C6 1_555 1_555
C7 C2 1_555 1_555
H6 C7 1_555 1_555
C8 S1 1_555 1_555
H7 C8 1_555 1_555
H8 C8 1_555 1_555
C9 O1 1_555 1_555
C10 C9 1_555 1_555
C11 C10 1_555 1_555
H9 C11 1_555 1_555
C12 C11 1_555 1_555
H10 C12 1_555 1_555
C13 C12 1_555 1_555
H11 C13 1_555 1_555
C14 C13 1_555 1_555
H12 C14 1_555 1_555
C15 C10 1_555 1_555
H13 C15 1_555 1_555
C16 O2 1_555 1_555
H14 C16 1_555 1_555
H15 C16 1_555 1_555
C6 C7 1_555 1_555
C8 C9 1_555 1_555
C9 C16 1_555 1_555
C14 C15 1_555 1_555

#END
