
#######################################################################
#
#                 Cambridge Crystallographic Data Centre
#                                CCDC 
#
#######################################################################
#
# If this CIF has been generated from an entry in the Cambridge 
# Structural Database, then it will include bibliographic, chemical, 
# crystal, experimental, refinement or atomic coordinate data resulting 
# from the CCDC's data processing and validation procedures.
#
#######################################################################

data_TIPRAC
_chemical_formula_moiety         'C11 H22 O2'
_chemical_name_systematic        'Tri-isopropylacetic acid'
_symmetry_cell_setting           triclinic
_symmetry_space_group_name_H-M   'P -1'
_symmetry_Int_Tables_number      2
_space_group_name_Hall           '-P 1'
loop_
_symmetry_equiv_pos_site_id
_symmetry_equiv_pos_as_xyz
1 x,y,z
2 -x,-y,-z
_cell_length_a                   7.936
_cell_length_b                   10.226
_cell_length_c                   7.951
_cell_angle_alpha                99.36
_cell_angle_beta                 108.52
_cell_angle_gamma                88.33
_cell_volume                     603.515
_cell_formula_units_Z            2
loop_
_atom_site_label
_atom_site_type_symbol
_atom_site_fract_x
_atom_site_fract_y
_atom_site_fract_z
C1 C 0.24391 0.23530 -0.10483
C2 C 0.10863 0.33743 -0.20349
C3 C 0.19416 0.45632 -0.24546
C4 C 0.36925 0.30913 0.09103
C5 C 0.51351 0.24125 -0.23233
C6 C 0.36319 0.16061 -0.21662
C7 C 0.13689 0.13122 -0.05997
O1 O 0.17957 0.01370 -0.06616
O2 O 0.00225 0.17147 -0.00679
C8 C 0.26205 0.08530 -0.41132
C9 C -0.04132 0.27827 -0.38025
C10 C 0.27722 0.39336 0.21631
C11 C 0.49457 0.21675 0.20363
H1 H 0.44634 0.37060 0.05539
H2 H 0.42528 0.08324 -0.14105
H3 H 0.05026 0.37796 -0.10226
H4 H 0.09541 0.51762 -0.29053
H5 H 0.26815 0.49782 -0.11333
H6 H 0.23160 0.42759 -0.37067
H7 H 0.59636 0.28341 -0.10416
H8 H 0.47163 0.30632 -0.31175
H9 H 0.59549 0.18326 -0.30121
H10 H 0.33263 0.02690 -0.46030
H11 H 0.21765 0.14160 -0.50363
H12 H 0.15000 0.03197 -0.41039
H13 H -0.10357 0.20131 -0.36543
H14 H -0.12655 0.35161 -0.40705
H15 H -0.00312 0.25758 -0.48682
H16 H 0.42798 0.15430 0.25027
H17 H 0.57154 0.26608 0.33126
H18 H 0.56958 0.17048 0.13949
H19 H 0.20452 0.45963 0.14121
H20 H 0.20983 0.34198 0.25943
H21 H 0.37461 0.44043 0.33963
H22 H -0.06645 0.11055 0.03403
loop_
_geom_bond_atom_site_label_1
_geom_bond_atom_site_label_2
_geom_bond_site_symmetry_1
_geom_bond_site_symmetry_2
C1 C2 1_555 1_555
C2 C3 1_555 1_555
C3 H4 1_555 1_555
C4 C1 1_555 1_555
C5 C6 1_555 1_555
C6 C1 1_555 1_555
C7 C1 1_555 1_555
O1 C7 1_555 1_555
O2 C7 1_555 1_555
C8 C6 1_555 1_555
C9 C2 1_555 1_555
C10 C4 1_555 1_555
C11 C4 1_555 1_555
H1 C4 1_555 1_555
H2 C6 1_555 1_555
H3 C2 1_555 1_555
H5 C3 1_555 1_555
H6 C3 1_555 1_555
H7 C5 1_555 1_555
H8 C5 1_555 1_555
H9 C5 1_555 1_555
H10 C8 1_555 1_555
H11 C8 1_555 1_555
H12 C8 1_555 1_555
H13 C9 1_555 1_555
H14 C9 1_555 1_555
H15 C9 1_555 1_555
H16 C11 1_555 1_555
H17 C11 1_555 1_555
H18 C11 1_555 1_555
H19 C10 1_555 1_555
H20 C10 1_555 1_555
H21 C10 1_555 1_555
H22 O2 1_555 1_555

#END
