
#######################################################################
#
#                 Cambridge Crystallographic Data Centre
#                                CCDC 
#
#######################################################################
#
# If this CIF has been generated from an entry in the Cambridge 
# Structural Database, then it will include bibliographic, chemical, 
# crystal, experimental, refinement or atomic coordinate data resulting 
# from the CCDC's data processing and validation procedures.
#
#######################################################################

data_TIPXOH
_chemical_formula_moiety         'C15 H13 Br1 O2'
_chemical_name_systematic        '(R)-3-(4-Bromophenyl)-3-phenylpropanoic acid'
_symmetry_cell_setting           orthorhombic
_symmetry_space_group_name_H-M   'P 21 21 21'
_symmetry_Int_Tables_number      19
_space_group_name_Hall           'P 2ac 2ab'
loop_
_symmetry_equiv_pos_site_id
_symmetry_equiv_pos_as_xyz
1 x,y,z
2 1/2-x,-y,1/2+z
3 -x,1/2+y,1/2-z
4 1/2+x,1/2-y,-z
_cell_length_a                   5.4347(4)
_cell_length_b                   16.2729(13)
_cell_length_c                   29.959(2)
_cell_angle_alpha                90
_cell_angle_beta                 90
_cell_angle_gamma                90
_cell_volume                     2649.52
_exptl_crystal_colour            colorless
_exptl_crystal_description       prismatic
_cell_formula_units_Z            8
loop_
_atom_site_label
_atom_site_type_symbol
_atom_site_fract_x
_atom_site_fract_y
_atom_site_fract_z
Br1 Br 0.36072(12) 0.67684(3) 0.100152(16)
O1 O -0.0846(6) 1.04936(16) -0.09480(9)
H1 H -0.1285 1.0863 -0.1117
O2 O 0.2653(5) 1.11971(16) -0.09642(9)
C1 C 0.0916(7) 0.98687(19) -0.00956(11)
H2 H -0.0782 0.9770 -0.0191
C2 C 0.2458(7) 0.9989(2) -0.05189(11)
H3 H 0.4105 1.0159 -0.0435
H4 H 0.2589 0.9469 -0.0675
C3 C 0.1386(8) 1.0616(2) -0.08287(11)
C4 C 0.0907(7) 1.06549(19) 0.01825(10)
C5 C 0.2801(7) 1.0829(2) 0.04778(12)
H5 H 0.4060 1.0449 0.0518
C6 C 0.2844(8) 1.1559(2) 0.07132(13)
H6 H 0.4125 1.1668 0.0910
C7 C 0.0990(9) 1.2125(2) 0.06555(14)
H7 H 0.0998 1.2612 0.0818
C8 C -0.0865(9) 1.1969(2) 0.03591(14)
H8 H -0.2090 1.2359 0.0313
C9 C -0.0931(8) 1.1237(2) 0.01271(13)
H9 H -0.2222 1.1132 -0.0069
C10 C 0.1711(7) 0.91222(19) 0.01784(11)
C11 C 0.3777(8) 0.8669(2) 0.00890(12)
H10 H 0.4810 0.8830 -0.0143
C12 C 0.4367(8) 0.7969(2) 0.03398(13)
H11 H 0.5777 0.7666 0.0277
C13 C 0.2836(8) 0.7740(2) 0.06776(12)
C14 C 0.0789(8) 0.8181(2) 0.07817(12)
H12 H -0.0223 0.8021 0.1016
C15 C 0.0237(8) 0.8878(2) 0.05302(13)
H13 H -0.1153 0.9186 0.0601
Br2 Br 0.68475(12) -0.04663(3) 0.643707(16)
O3 O 1.1133(7) 0.21673(17) 0.83783(10)
H14 H 1.1552 0.1797 0.8548
O4 O 0.7464(6) 0.15756(16) 0.84581(9)
C16 C 0.8935(7) 0.2713(2) 0.75118(11)
H15 H 1.0726 0.2726 0.7550
C17 C 0.7811(8) 0.2746(2) 0.79852(11)
H16 H 0.8115 0.3286 0.8112
H17 H 0.6044 0.2675 0.7963
C18 C 0.8828(10) 0.2105(2) 0.82955(12)
C19 C 0.8238(7) 0.34977(19) 0.72659(11)
C20 C 0.6205(8) 0.3561(2) 0.69957(13)
H18 H 0.5248 0.3098 0.6940
C21 C 0.5561(9) 0.4311(2) 0.68031(15)
H19 H 0.4175 0.4344 0.6622
C22 C 0.6935(10) 0.4991(2) 0.68777(14)
H20 H 0.6492 0.5491 0.6751
C23 C 0.8974(10) 0.4933(3) 0.71403(16)
H21 H 0.9938 0.5396 0.7191
C24 C 0.9617(8) 0.4195(2) 0.73303(14)
H22 H 1.1021 0.4167 0.7507
C25 C 0.8343(7) 0.19314(19) 0.72542(11)
C26 C 0.6315(8) 0.1446(2) 0.73387(12)
H23 H 0.5211 0.1599 0.7561
C27 C 0.5904(9) 0.0737(2) 0.70969(13)
H24 H 0.4555 0.0407 0.7163
C28 C 0.7451(8) 0.0521(2) 0.67661(13)
C29 C 0.9440(9) 0.0984(3) 0.66662(14)
H25 H 1.0490 0.0832 0.6435
C30 C 0.9888(8) 0.1688(2) 0.69126(13)
H26 H 1.1264 0.2005 0.6847
loop_
_geom_bond_atom_site_label_1
_geom_bond_atom_site_label_2
_geom_bond_site_symmetry_1
_geom_bond_site_symmetry_2
Br1 C13 1_555 1_555
O1 H1 1_555 1_555
O2 C3 1_555 1_555
C1 H2 1_555 1_555
C2 C1 1_555 1_555
H3 C2 1_555 1_555
H4 C2 1_555 1_555
C3 O1 1_555 1_555
C4 C1 1_555 1_555
C5 C4 1_555 1_555
H5 C5 1_555 1_555
C6 C5 1_555 1_555
H6 C6 1_555 1_555
C7 C6 1_555 1_555
H7 C7 1_555 1_555
C8 C7 1_555 1_555
H8 C8 1_555 1_555
C9 C4 1_555 1_555
H9 C9 1_555 1_555
C10 C1 1_555 1_555
C11 C10 1_555 1_555
H10 C11 1_555 1_555
C12 C11 1_555 1_555
H11 C12 1_555 1_555
C13 C12 1_555 1_555
C14 C13 1_555 1_555
H12 C14 1_555 1_555
C15 C10 1_555 1_555
H13 C15 1_555 1_555
Br2 C28 1_555 1_555
O3 H14 1_555 1_555
O4 C18 1_555 1_555
C16 H15 1_555 1_555
C17 C16 1_555 1_555
H16 C17 1_555 1_555
H17 C17 1_555 1_555
C18 O3 1_555 1_555
C19 C16 1_555 1_555
C20 C19 1_555 1_555
H18 C20 1_555 1_555
C21 C20 1_555 1_555
H19 C21 1_555 1_555
C22 C21 1_555 1_555
H20 C22 1_555 1_555
C23 C22 1_555 1_555
H21 C23 1_555 1_555
C24 C19 1_555 1_555
H22 C24 1_555 1_555
C25 C16 1_555 1_555
C26 C25 1_555 1_555
H23 C26 1_555 1_555
C27 C26 1_555 1_555
H24 C27 1_555 1_555
C28 C27 1_555 1_555
C29 C28 1_555 1_555
H25 C29 1_555 1_555
C30 C25 1_555 1_555
H26 C30 1_555 1_555
C2 C3 1_555 1_555
C8 C9 1_555 1_555
C14 C15 1_555 1_555
C17 C18 1_555 1_555
C23 C24 1_555 1_555
C29 C30 1_555 1_555

#END
