
#######################################################################
#
#                 Cambridge Crystallographic Data Centre
#                                CCDC 
#
#######################################################################
#
# If this CIF has been generated from an entry in the Cambridge 
# Structural Database, then it will include bibliographic, chemical, 
# crystal, experimental, refinement or atomic coordinate data resulting 
# from the CCDC's data processing and validation procedures.
#
#######################################################################

data_TIPXUN
_chemical_formula_moiety         'C15 H13 Cl1 O2'
_chemical_name_systematic        '(S)-3-(2-Chlorophenyl)-3-phenylpropanoic acid'
_symmetry_cell_setting           monoclinic
_symmetry_space_group_name_H-M   'C 2'
_symmetry_Int_Tables_number      5
_space_group_name_Hall           'C 2y'
loop_
_symmetry_equiv_pos_site_id
_symmetry_equiv_pos_as_xyz
1 x,y,z
2 -x,y,-z
3 1/2+x,1/2+y,z
4 1/2-x,1/2+y,-z
_cell_length_a                   16.045(3)
_cell_length_b                   7.1503(12)
_cell_length_c                   12.153(2)
_cell_angle_alpha                90
_cell_angle_beta                 111.588(2)
_cell_angle_gamma                90
_cell_volume                     1296.47
_exptl_crystal_colour            colorless
_exptl_crystal_description       block
_cell_formula_units_Z            4
loop_
_atom_site_label
_atom_site_type_symbol
_atom_site_fract_x
_atom_site_fract_y
_atom_site_fract_z
Cl1 Cl 0.49625(4) 0.75238(9) 0.30424(5)
O1 O 0.74620(9) 0.7541(2) -0.01682(12)
O2 O 0.67713(9) 0.5592(2) 0.06327(14)
H1 H 0.7021 0.4789 0.0352
C1 C 0.69482(10) 0.7267(2) 0.03425(14)
C2 C 0.64538(11) 0.8833(3) 0.06597(14)
H2 H 0.5876 0.9020 -0.0005
H3 H 0.6807 0.9995 0.0745
C3 C 0.62630(10) 0.8542(2) 0.17978(14)
H4 H 0.5946 0.7318 0.1727
C4 C 0.56430(9) 1.0067(2) 0.19257(13)
C5 C 0.50180(11) 0.9712(3) 0.24585(15)
C6 C 0.44093(12) 1.1079(3) 0.25321(18)
H5 H 0.3990 1.0791 0.2892
C7 C 0.44265(12) 1.2833(3) 0.20788(18)
H6 H 0.4017 1.3763 0.2121
C8 C 0.50442(13) 1.3242(3) 0.15591(18)
H7 H 0.5062 1.4457 0.1252
C9 C 0.56351(11) 1.1875(3) 0.14883(16)
H8 H 0.6052 1.2181 0.1128
C10 C 0.71291(10) 0.8437(3) 0.28819(14)
C11 C 0.77108(11) 0.9965(3) 0.32243(17)
H9 H 0.7575 1.1087 0.2774
C12 C 0.84881(13) 0.9835(5) 0.4225(2)
H10 H 0.8885 1.0871 0.4460
C13 C 0.86851(15) 0.8211(6) 0.48788(19)
H11 H 0.9218 0.8136 0.5563
C14 C 0.81208(19) 0.6699(5) 0.4554(2)
H12 H 0.8265 0.5584 0.5010
C15 C 0.73305(14) 0.6799(4) 0.35456(19)
H13 H 0.6936 0.5757 0.3319
loop_
_geom_bond_atom_site_label_1
_geom_bond_atom_site_label_2
_geom_bond_site_symmetry_1
_geom_bond_site_symmetry_2
Cl1 C5 1_555 1_555
O1 C1 1_555 1_555
O2 H1 1_555 1_555
C1 O2 1_555 1_555
C2 C1 1_555 1_555
H2 C2 1_555 1_555
H3 C2 1_555 1_555
C3 C2 1_555 1_555
H4 C3 1_555 1_555
C4 C3 1_555 1_555
C5 C4 1_555 1_555
C6 C5 1_555 1_555
H5 C6 1_555 1_555
C7 C6 1_555 1_555
H6 C7 1_555 1_555
C8 C7 1_555 1_555
H7 C8 1_555 1_555
C9 C4 1_555 1_555
H8 C9 1_555 1_555
C10 C3 1_555 1_555
C11 C10 1_555 1_555
H9 C11 1_555 1_555
C12 C11 1_555 1_555
H10 C12 1_555 1_555
C13 C12 1_555 1_555
H11 C13 1_555 1_555
C14 C13 1_555 1_555
H12 C14 1_555 1_555
C15 C10 1_555 1_555
H13 C15 1_555 1_555
C8 C9 1_555 1_555
C14 C15 1_555 1_555

#END
