
#######################################################################
#
#                 Cambridge Crystallographic Data Centre
#                                CCDC 
#
#######################################################################
#
# If this CIF has been generated from an entry in the Cambridge 
# Structural Database, then it will include bibliographic, chemical, 
# crystal, experimental, refinement or atomic coordinate data resulting 
# from the CCDC's data processing and validation procedures.
#
#######################################################################

data_TIQFOO
_chemical_formula_moiety         'C54 H36 N2'
_chemical_name_systematic        
9,10-bis(2-(4-(N,N-Diphenylamino)phenyl)ethynyl)anthracene
_symmetry_cell_setting           monoclinic
_symmetry_space_group_name_H-M   'P 21/n'
_symmetry_Int_Tables_number      14
_space_group_name_Hall           '-P 2yn'
loop_
_symmetry_equiv_pos_site_id
_symmetry_equiv_pos_as_xyz
1 x,y,z
2 1/2-x,1/2+y,1/2-z
3 -x,-y,-z
4 1/2+x,1/2-y,1/2+z
_cell_length_a                   11.582(2)
_cell_length_b                   9.407(2)
_cell_length_c                   18.429(4)
_cell_angle_alpha                90
_cell_angle_beta                 108.14(2)
_cell_angle_gamma                90
_cell_volume                     1908.08
_exptl_crystal_colour            red
_cell_formula_units_Z            2
loop_
_atom_site_label
_atom_site_type_symbol
_atom_site_fract_x
_atom_site_fract_y
_atom_site_fract_z
N1 N 0.8507(2) 0.0919(2) 0.19874(10)
C1 C 1.1537(2) 0.8794(3) 0.13731(14)
H1 H 1.1344(21) 0.7788(27) 0.1496(13)
C2 C 1.2478(2) 0.9553(3) 0.1826(2)
H2 H 1.2997(22) 0.9108(26) 0.2258(14)
C3 C 1.2687(2) 1.0953(3) 0.1636(2)
H3 H 1.3342(23) 1.1499(26) 0.1949(14)
C4 C 1.1964(2) 1.1553(3) 0.0985(2)
H4 H 1.2097(22) 1.2497(28) 0.0852(14)
C5 C 0.9761(2) 0.8607(2) 0.02073(12)
C6 C 1.0745(2) 0.9384(2) 0.06875(12)
C7 C 0.9019(2) 0.9209(2) -0.04827(12)
C8 C 0.9508(2) 0.7211(2) 0.04297(13)
C9 C 0.9307(2) 0.6073(2) 0.06485(13)
C10 C 0.9080(2) 0.4754(2) 0.09713(12)
C11 C 0.8512(2) 0.3608(2) 0.05313(13)
H5 H 0.8266(21) 0.3665(25) -0.0012(15)
C12 C 0.8323(2) 0.2359(2) 0.08601(12)
H6 H 0.7981(22) 0.1599(26) 0.0561(14)
C13 C 0.8693(2) 0.2199(2) 0.16495(11)
C14 C 0.9236(2) 0.3352(2) 0.20929(13)
H7 H 0.9485(22) 0.3297(25) 0.2621(15)
C15 C 0.9427(2) 0.4604(2) 0.17633(13)
H8 H 0.9795(21) 0.5427(26) 0.2073(14)
C16 C 0.9333(2) 0.0438(2) 0.26896(12)
C17 C 0.8914(2) -0.0263(2) 0.32163(13)
H9 H 0.8054(23) -0.0411(26) 0.3103(14)
C18 C 0.9726(3) -0.0704(3) 0.39027(15)
H10 H 0.9428(22) -0.1178(26) 0.4262(14)
C19 C 1.0933(3) -0.0461(3) 0.4069(2)
H11 H 1.1503(22) -0.0758(26) 0.4544(14)
C20 C 1.1358(3) 0.0207(3) 0.3542(2)
H12 H 1.2259(23) 0.0359(25) 0.3645(13)
C21 C 1.0569(2) 0.0660(3) 0.28544(15)
H13 H 1.0867(21) 0.1095(26) 0.2472(14)
C22 C 0.7489(2) 0.0051(2) 0.15992(12)
C23 C 0.6329(2) 0.0592(3) 0.13961(14)
H14 H 0.6265(22) 0.1543(28) 0.1546(14)
C24 C 0.5357(3) -0.0255(4) 0.09934(15)
H15 H 0.4613(23) 0.0137(27) 0.0889(14)
C25 C 0.5562(4) -0.1632(4) 0.0817(2)
H16 H 0.4895(23) -0.2199(28) 0.0580(14)
C26 C 0.6706(4) -0.2156(3) 0.1030(2)
H17 H 0.6862(21) -0.3126(28) 0.0882(14)
C27 C 0.7672(3) -0.1334(3) 0.14187(15)
H18 H 0.8499(23) -0.1728(26) 0.1546(14)
C7B C 1.0981(2) 1.0791(2) 0.04827(12)
C5B C 1.0239(2) 1.1393(2) -0.02073(12)
C6B C 0.9255(2) 1.0616(2) -0.06875(12)
C1B C 0.8463(2) 1.1206(3) -0.13731(14)
H1B H 0.8656(21) 1.2212(27) -0.1496(13)
C2B C 0.7522(2) 1.0447(3) -0.1826(2)
H2B H 0.7003(22) 1.0892(26) -0.2258(14)
C3B C 0.7313(2) 0.9047(3) -0.1636(2)
H3B H 0.6658(23) 0.8501(26) -0.1949(14)
C4B C 0.8036(2) 0.8447(3) -0.0985(2)
H4B H 0.7903(22) 0.7503(28) -0.0852(14)
C8B C 1.0492(2) 1.2789(2) -0.04297(13)
C9B C 1.0693(2) 1.3927(2) -0.06485(13)
C10B C 1.0920(2) 1.5246(2) -0.09713(12)
C11B C 1.1488(2) 1.6392(2) -0.05313(13)
H5B H 1.1734(21) 1.6335(25) 0.0012(15)
C12B C 1.1677(2) 1.7641(2) -0.08601(12)
H6B H 1.2019(22) 1.8401(26) -0.0561(14)
C13B C 1.1307(2) 1.7801(2) -0.16495(11)
N1B N 1.1493(2) 1.9081(2) -0.19874(10)
C16B C 1.0667(2) 1.9562(2) -0.26896(12)
C17B C 1.1086(2) 2.0263(2) -0.32163(13)
H9B H 1.1946(23) 2.0411(26) -0.3103(14)
C18B C 1.0274(3) 2.0704(3) -0.39027(15)
H10B H 1.0572(22) 2.1178(26) -0.4262(14)
C19B C 0.9067(3) 2.0461(3) -0.4069(2)
H11B H 0.8497(22) 2.0758(26) -0.4544(14)
C20B C 0.8642(3) 1.9793(3) -0.3542(2)
H12B H 0.7741(23) 1.9641(25) -0.3645(13)
C21B C 0.9431(2) 1.9340(3) -0.28544(15)
H13B H 0.9133(21) 1.8905(26) -0.2472(14)
C22B C 1.2511(2) 1.9949(2) -0.15992(12)
C23B C 1.3671(2) 1.9408(3) -0.13961(14)
H14B H 1.3735(22) 1.8457(28) -0.1546(14)
C24B C 1.4643(3) 2.0255(4) -0.09934(15)
H15B H 1.5387(23) 1.9863(27) -0.0889(14)
C25B C 1.4438(4) 2.1632(4) -0.0817(2)
H16B H 1.5105(23) 2.2199(28) -0.0580(14)
C26B C 1.3294(4) 2.2156(3) -0.1030(2)
H17B H 1.3138(21) 2.3126(28) -0.0882(14)
C27B C 1.2328(3) 2.1334(3) -0.14187(15)
H18B H 1.1501(23) 2.1728(26) -0.1546(14)
C14B C 1.0764(2) 1.6648(2) -0.20929(13)
H7B H 1.0515(22) 1.6703(25) -0.2621(15)
C15B C 1.0573(2) 1.5396(2) -0.17633(13)
H8B H 1.0205(21) 1.4573(26) -0.2073(14)
loop_
_geom_bond_atom_site_label_1
_geom_bond_atom_site_label_2
_geom_bond_site_symmetry_1
_geom_bond_site_symmetry_2
N1 C13 1_555 1_555
C1 H1 1_555 1_555
C2 C1 1_555 1_555
H2 C2 1_555 1_555
C3 C2 1_555 1_555
H3 C3 1_555 1_555
C4 C3 1_555 1_555
H4 C4 1_555 1_555
C5 C6 1_555 1_555
C6 C1 1_555 1_555
C7 C5 1_555 1_555
C8 C5 1_555 1_555
C9 C8 1_555 1_555
C10 C9 1_555 1_555
C11 C10 1_555 1_555
H5 C11 1_555 1_555
C12 C11 1_555 1_555
H6 C12 1_555 1_555
C13 C12 1_555 1_555
C14 C13 1_555 1_555
H7 C14 1_555 1_555
C15 C10 1_555 1_555
H8 C15 1_555 1_555
C16 N1 1_555 1_555
C17 C16 1_555 1_555
H9 C17 1_555 1_555
C18 C17 1_555 1_555
H10 C18 1_555 1_555
C19 C18 1_555 1_555
H11 C19 1_555 1_555
C20 C19 1_555 1_555
H12 C20 1_555 1_555
C21 C16 1_555 1_555
H13 C21 1_555 1_555
C22 N1 1_555 1_555
C23 C22 1_555 1_555
H14 C23 1_555 1_555
C24 C23 1_555 1_555
H15 C24 1_555 1_555
C25 C24 1_555 1_555
H16 C25 1_555 1_555
C26 C25 1_555 1_555
H17 C26 1_555 1_555
C27 C22 1_555 1_555
H18 C27 1_555 1_555
C7B C4 1_555 1_555
C5B C7B 1_555 1_555
C6B C7 1_555 1_555
C1B C6B 1_555 1_555
H1B C1B 1_555 1_555
C2B C1B 1_555 1_555
H2B C2B 1_555 1_555
C3B C2B 1_555 1_555
H3B C3B 1_555 1_555
C4B C7 1_555 1_555
H4B C4B 1_555 1_555
C8B C5B 1_555 1_555
C9B C8B 1_555 1_555
C10B C9B 1_555 1_555
C11B C10B 1_555 1_555
H5B C11B 1_555 1_555
C12B C11B 1_555 1_555
H6B C12B 1_555 1_555
C13B C12B 1_555 1_555
N1B C13B 1_555 1_555
C16B N1B 1_555 1_555
C17B C16B 1_555 1_555
H9B C17B 1_555 1_555
C18B C17B 1_555 1_555
H10B C18B 1_555 1_555
C19B C18B 1_555 1_555
H11B C19B 1_555 1_555
C20B C19B 1_555 1_555
H12B C20B 1_555 1_555
C21B C16B 1_555 1_555
H13B C21B 1_555 1_555
C22B N1B 1_555 1_555
C23B C22B 1_555 1_555
H14B C23B 1_555 1_555
C24B C23B 1_555 1_555
H15B C24B 1_555 1_555
C25B C24B 1_555 1_555
H16B C25B 1_555 1_555
C26B C25B 1_555 1_555
H17B C26B 1_555 1_555
C27B C22B 1_555 1_555
H18B C27B 1_555 1_555
C14B C13B 1_555 1_555
H7B C14B 1_555 1_555
C15B C10B 1_555 1_555
H8B C15B 1_555 1_555
C6 C7B 1_555 1_555
C14 C15 1_555 1_555
C20 C21 1_555 1_555
C26 C27 1_555 1_555
C5B C6B 1_555 1_555
C3B C4B 1_555 1_555
C20B C21B 1_555 1_555
C26B C27B 1_555 1_555
C14B C15B 1_555 1_555

#END
