
#######################################################################
#
#                 Cambridge Crystallographic Data Centre
#                                CCDC 
#
#######################################################################
#
# If this CIF has been generated from an entry in the Cambridge 
# Structural Database, then it will include bibliographic, chemical, 
# crystal, experimental, refinement or atomic coordinate data resulting 
# from the CCDC's data processing and validation procedures.
#
#######################################################################

data_TIQJOS
_chemical_name_common            3-Deoxy-methyl-alpha-D-mannopyranoside
_chemical_formula_moiety         'C7 H14 O5'
_chemical_name_systematic        '3-Deoxy-methyl-\a-D-arabino hexopyranoside'
_symmetry_cell_setting           orthorhombic
_symmetry_space_group_name_H-M   'P 21 21 21'
_symmetry_Int_Tables_number      19
_space_group_name_Hall           'P 2ac 2ab'
loop_
_symmetry_equiv_pos_site_id
_symmetry_equiv_pos_as_xyz
1 x,y,z
2 1/2-x,-y,1/2+z
3 1/2+x,1/2-y,-z
4 -x,1/2+y,1/2-z
_cell_length_a                   8.830(2)
_cell_length_b                   9.363(2)
_cell_length_c                   10.134(2)
_cell_angle_alpha                90
_cell_angle_beta                 90
_cell_angle_gamma                90
_cell_volume                     837.831
_exptl_crystal_colour            colorless
_cell_formula_units_Z            4
loop_
_atom_site_label
_atom_site_type_symbol
_atom_site_fract_x
_atom_site_fract_y
_atom_site_fract_z
O1 O -0.1196(2) -0.9117(2) -0.4833(2)
O2 O 0.2985(2) -0.9015(2) -0.4818(2)
O3 O -0.1187(2) -1.1266(2) -0.6010(2)
O4 O -0.0764(2) -0.7742(2) -0.7285(2)
C1 C 0.0325(3) -0.9232(3) -0.4297(2)
C2 C 0.1291(3) -0.9327(3) -0.6621(2)
C3 C -0.0328(3) -0.9200(3) -0.7097(3)
H1 H -0.0449(4) -0.9718(14) -0.7907(22)
O5 O 0.0106(2) -0.6936(2) -0.3147(2)
H2 H -0.0571(29) -0.6766(2) -0.3679(28)
C4 C -0.1410(3) -0.9773(3) -0.6071(2)
C5 C 0.0267(4) -0.8430(3) -0.3005(3)
C6 C 0.1494(3) -0.8657(3) -0.5263(2)
H3 H 0.1400(4) -0.7661(30) -0.5327(3)
C7 C -0.2185(4) -1.1980(4) -0.5114(4)
H4 H 0.1957(29) -0.8921(27) -0.7201(25)
H5 H 0.1538(26) -1.0285(27) -0.6536(23)
H6 H 0.3238(38) -0.8395(37) -0.4232(33)
H7 H 0.0500(27) -1.0257(26) -0.4072(23)
H8 H -0.2422(28) -0.9561(24) -0.6303(23)
H9 H 0.1230(38) -0.8492(31) -0.2530(30)
H10 H -0.0550(34) -0.8778(32) -0.2436(32)
H11 H -0.3320(47) -1.1844(46) -0.5343(39)
H12 H -0.0107(45) -0.7322(37) -0.7843(37)
H13 H -0.1978(36) -1.1673(36) -0.4295(34)
H14 H -0.1917(35) -1.2999(38) -0.5135(31)
loop_
_geom_bond_atom_site_label_1
_geom_bond_atom_site_label_2
_geom_bond_site_symmetry_1
_geom_bond_site_symmetry_2
O1 C1 1_555 1_555
O2 C6 1_555 1_555
O3 C4 1_555 1_555
O4 C3 1_555 1_555
C1 C5 1_555 1_555
C2 C3 1_555 1_555
C3 H1 1_555 1_555
O5 H2 1_555 1_555
C4 O1 1_555 1_555
C5 O5 1_555 1_555
C6 C1 1_555 1_555
H3 C6 1_555 1_555
C7 O3 1_555 1_555
H4 C2 1_555 1_555
H5 C2 1_555 1_555
H6 O2 1_555 1_555
H7 C1 1_555 1_555
H8 C4 1_555 1_555
H9 C5 1_555 1_555
H10 C5 1_555 1_555
H11 C7 1_555 1_555
H12 O4 1_555 1_555
H13 C7 1_555 1_555
H14 C7 1_555 1_555
C2 C6 1_555 1_555
C3 C4 1_555 1_555

#END
