
#######################################################################
#
#                 Cambridge Crystallographic Data Centre
#                                CCDC 
#
#######################################################################
#
# If this CIF has been generated from an entry in the Cambridge 
# Structural Database, then it will include bibliographic, chemical, 
# crystal, experimental, refinement or atomic coordinate data resulting 
# from the CCDC's data processing and validation procedures.
#
#######################################################################

data_TIQKEL
_chemical_formula_moiety         'C22 H16 N2 O2'
_chemical_name_systematic        2,5-Dimethoxydibenzo[a,k][3,8]phenanthroline
_symmetry_cell_setting           triclinic
_symmetry_space_group_name_H-M   'P -1'
_symmetry_Int_Tables_number      2
_space_group_name_Hall           '-P 1'
loop_
_symmetry_equiv_pos_site_id
_symmetry_equiv_pos_as_xyz
1 x,y,z
2 -x,-y,-z
_cell_length_a                   7.965(3)
_cell_length_b                   8.718(3)
_cell_length_c                   12.816(5)
_cell_angle_alpha                100.64(3)
_cell_angle_beta                 107.39(3)
_cell_angle_gamma                96.14(3)
_cell_volume                     822.083
_cell_formula_units_Z            2
loop_
_atom_site_label
_atom_site_type_symbol
_atom_site_fract_x
_atom_site_fract_y
_atom_site_fract_z
C1 C 0.3659(2) 0.09727(18) 0.08231(13)
C2 C 0.4963(2) 0.12440(18) 0.18361(13)
C3 C 0.51352(18) 0.26288(15) 0.26633(11)
C4 C 0.39424(18) 0.36983(15) 0.24752(11)
C5 C 0.23285(18) 0.31845(16) 0.15221(11)
C6 C 0.23196(19) 0.19255(16) 0.06639(12)
C7 C 0.0858(2) 0.16166(17) -0.03858(12)
C8 C 0.06578(19) 0.37701(16) 0.14154(11)
C9 C -0.07239(19) 0.32616(17) 0.03697(12)
C10 C -0.2385(2) 0.3738(2) 0.02418(14)
C11 C -0.2708(2) 0.4645(2) 0.11261(14)
C12 C -0.1386(2) 0.5081(2) 0.21804(14)
C13 C 0.0254(2) 0.46454(18) 0.23255(13)
C14 C 0.45350(18) 0.52885(15) 0.31933(11)
C15 C 0.60260(18) 0.55309(16) 0.41747(11)
C16 C 0.65701(18) 0.30282(16) 0.37275(12)
C17 C 0.3870(2) 0.66374(17) 0.28954(13)
C18 C 0.4606(2) 0.81252(18) 0.35625(14)
C19 C 0.5980(2) 0.83277(18) 0.45805(15)
C20 C 0.6670(2) 0.70525(18) 0.48830(13)
C21 C -0.0229(3) 0.0267(3) -0.23077(15)
C22 C 0.8917(2) 0.2206(2) 0.49909(15)
N1 N -0.05451(17) 0.22575(15) -0.05554(10)
N2 N 0.69690(15) 0.43449(13) 0.44661(10)
O1 O 0.11063(16) 0.05699(14) -0.12237(9)
O2 O 0.75184(14) 0.18568(12) 0.39254(9)
H1 H 0.291(2) 0.6517(17) 0.2197(13)
H2 H 0.766(2) 0.7160(19) 0.5567(14)
H3 H 0.582(2) 0.053(2) 0.1989(14)
H4 H 0.355(2) 0.011(2) 0.0231(15)
H5 H 0.114(2) 0.4938(18) 0.3075(14)
H6 H -0.332(2) 0.3324(19) -0.0507(15)
H7 H -0.165(2) 0.565(2) 0.2822(15)
H8 H 0.416(2) 0.906(2) 0.3321(15)
H9 H 0.648(2) 0.937(2) 0.5073(15)
H10 H -0.386(3) 0.497(2) 0.1032(15)
H11 H 0.950(3) 0.131(2) 0.4953(15)
H12 H 0.839(3) 0.235(2) 0.5635(17)
H13 H 0.975(3) 0.316(2) 0.5077(16)
H14 H -0.143(4) -0.015(3) -0.230(2)
H15 H 0.022(3) -0.040(3) -0.278(2)
H16 H -0.038(3) 0.124(3) -0.257(2)
loop_
_geom_bond_atom_site_label_1
_geom_bond_atom_site_label_2
_geom_bond_site_symmetry_1
_geom_bond_site_symmetry_2
C1 C2 1_555 1_555
C2 C3 1_555 1_555
C3 C4 1_555 1_555
C4 C5 1_555 1_555
C5 C6 1_555 1_555
C6 C1 1_555 1_555
C7 C6 1_555 1_555
C8 C5 1_555 1_555
C9 C8 1_555 1_555
C10 C9 1_555 1_555
C11 C10 1_555 1_555
C12 C11 1_555 1_555
C13 C8 1_555 1_555
C14 C4 1_555 1_555
C15 C14 1_555 1_555
C16 C3 1_555 1_555
C17 C14 1_555 1_555
C18 C17 1_555 1_555
C19 C18 1_555 1_555
C20 C15 1_555 1_555
C21 O1 1_555 1_555
C22 O2 1_555 1_555
N1 C7 1_555 1_555
N2 C15 1_555 1_555
O1 C7 1_555 1_555
O2 C16 1_555 1_555
H1 C17 1_555 1_555
H2 C20 1_555 1_555
H3 C2 1_555 1_555
H4 C1 1_555 1_555
H5 C13 1_555 1_555
H6 C10 1_555 1_555
H7 C12 1_555 1_555
H8 C18 1_555 1_555
H9 C19 1_555 1_555
H10 C11 1_555 1_555
H11 C22 1_555 1_555
H12 C22 1_555 1_555
H13 C22 1_555 1_555
H14 C21 1_555 1_555
H15 C21 1_555 1_555
H16 C21 1_555 1_555
C9 N1 1_555 1_555
C12 C13 1_555 1_555
C16 N2 1_555 1_555
C19 C20 1_555 1_555

#END
