
#######################################################################
#
#                 Cambridge Crystallographic Data Centre
#                                CCDC 
#
#######################################################################
#
# If this CIF has been generated from an entry in the Cambridge 
# Structural Database, then it will include bibliographic, chemical, 
# crystal, experimental, refinement or atomic coordinate data resulting 
# from the CCDC's data processing and validation procedures.
#
#######################################################################

data_TIQKIO
_chemical_formula_moiety         'C42 H66 N6'
_chemical_name_systematic        
2,6,8,12,14,18-Hexaaza-1,7,13(1,2),4,10,16(1,4)-hexacyclohexanacyclooctadecaphane-2,5,8,11,14,17-hexaene
_symmetry_cell_setting           monoclinic
_symmetry_space_group_name_H-M   'P 21'
_symmetry_Int_Tables_number      4
_space_group_name_Hall           'P 2yb'
loop_
_symmetry_equiv_pos_site_id
_symmetry_equiv_pos_as_xyz
1 x,y,z
2 -x,1/2+y,-z
_cell_length_a                   18.857(4)
_cell_length_b                   5.2300(10)
_cell_length_c                   20.925(4)
_cell_angle_alpha                90
_cell_angle_beta                 109.68(3)
_cell_angle_gamma                90
_cell_volume                     1943.13
_exptl_crystal_colour            colorless
_exptl_crystal_description       needle
_cell_formula_units_Z            2
_exptl_crystal_recrystallization_method 'methanol/ethyl acetate/dichloromethane'
loop_
_atom_site_label
_atom_site_type_symbol
_atom_site_fract_x
_atom_site_fract_y
_atom_site_fract_z
C1 C 1.1467(2) -0.4533(8) 0.30645(18)
H1 H 1.1682 -0.2856 0.3169
C2 C 1.1114(2) -0.5329(8) 0.35978(18)
H2 H 1.0831 -0.6876 0.3453
C3 C 1.1711(2) -0.5728(10) 0.42866(19)
H3 H 1.1927 -0.4102 0.4462
H4 H 1.1477 -0.6412 0.4592
C4 C 1.2346(2) -0.7515(10) 0.4271(2)
H5 H 1.2726 -0.7615 0.4712
H6 H 1.2143 -0.9198 0.4146
C5 C 1.2691(2) -0.6629(10) 0.37542(19)
H7 H 1.2916 -0.4981 0.3889
H8 H 1.3077 -0.7791 0.3735
C6 C 1.20818(19) -0.6406(9) 0.30547(18)
H9 H 1.1856 -0.8056 0.2924
H10 H 1.2303 -0.5881 0.2724
N1 N 1.08664(17) -0.4505(7) 0.24019(16)
N2 N 1.06110(18) -0.3251(7) 0.36554(17)
C7 C 0.9912(2) -0.3610(8) 0.34502(19)
H11 H 0.9714 -0.5224 0.3250
C8 C 0.9366(2) -0.1590(8) 0.34932(19)
H12 H 0.9464 -0.0083 0.3275
C9 C 0.85470(19) -0.2376(8) 0.31215(18)
H13 H 0.8476 -0.2670 0.2651
H14 H 0.8452 -0.3954 0.3313
C10 C 0.7986(2) -0.0362(8) 0.31824(17)
H15 H 0.8056 0.1180 0.2962
H16 H 0.7481 -0.0954 0.2958
C11 C 0.81015(19) 0.0209(8) 0.39336(18)
H17 H 0.8016 -0.1330 0.4147
C12 C 0.89181(19) 0.1090(8) 0.42926(18)
H18 H 0.9002 0.2654 0.4089
H19 H 0.8998 0.1423 0.4763
C13 C 0.9478(2) -0.0899(8) 0.42326(18)
H20 H 0.9418 -0.2421 0.4466
H21 H 0.9981 -0.0274 0.4449
C14 C 0.7541(2) 0.2179(8) 0.39762(17)
H22 H 0.7654 0.3953 0.3941
N3 N 0.69218(16) 0.1567(6) 0.40561(15)
N4 N 0.60296(16) 0.4063(7) 0.28057(15)
C15 C 0.63912(19) 0.3618(8) 0.40406(17)
H23 H 0.6643 0.5238 0.4086
C16 C 0.57416(19) 0.3513(8) 0.33640(17)
H24 H 0.5516 0.1844 0.3299
C17 C 0.5145(2) 0.5507(9) 0.33518(19)
H25 H 0.5367 0.7172 0.3375
H26 H 0.4731 0.5398 0.2932
C18 C 0.4854(2) 0.5186(9) 0.39476(19)
H27 H 0.4511 0.6553 0.3938
H28 H 0.4585 0.3600 0.3902
C19 C 0.5502(2) 0.5245(9) 0.46153(19)
H29 H 0.5732 0.6907 0.4684
H30 H 0.5312 0.4926 0.4979
C20 C 0.6093(2) 0.3244(8) 0.46290(18)
H31 H 0.5874 0.1572 0.4598
H32 H 0.6503 0.3350 0.5051
C21 C 0.59952(19) 0.2323(8) 0.23815(17)
H33 H 0.5789 0.0700 0.2443
C22 C 0.6261(2) 0.2680(8) 0.17838(17)
H34 H 0.6622 0.1361 0.1803
C23 C 0.6649(2) 0.5249(9) 0.17964(18)
H35 H 0.6300 0.6590 0.1793
H36 H 0.7075 0.5408 0.2206
C24 C 0.6902(2) 0.5596(9) 0.11799(18)
H37 H 0.7128 0.7249 0.1193
H38 H 0.7275 0.4324 0.1197
C25 C 0.6234(2) 0.5267(8) 0.05157(18)
H39 H 0.5867 0.6543 0.0513
C26 C 0.5866(2) 0.2692(9) 0.04992(18)
H40 H 0.5448 0.2485 0.0085
H41 H 0.6228 0.1383 0.0516
C27 C 0.5604(2) 0.2364(9) 0.11155(17)
H42 H 0.5377 0.0712 0.1099
H43 H 0.5230 0.3638 0.1093
C28 C 0.6488(2) 0.5777(9) -0.00856(18)
H44 H 0.6725 0.7380 -0.0110
N5 N 0.64034(16) 0.4178(7) -0.05563(15)
N6 N 0.79358(17) 0.3222(7) -0.04990(15)
C29 C 0.6679(2) 0.4922(8) -0.11126(17)
H45 H 0.6893 0.6604 -0.1024
C30 C 0.72934(19) 0.3053(8) -0.11313(17)
H46 H 0.7094 0.1347 -0.1183
C31 C 0.7556(2) 0.3652(9) -0.17332(17)
H47 H 0.7779 0.5324 -0.1667
H48 H 0.7935 0.2447 -0.1747
C32 C 0.6905(2) 0.3619(8) -0.24020(18)
H49 H 0.7084 0.4050 -0.2767
H50 H 0.6692 0.1932 -0.2482
C33 C 0.6295(2) 0.5508(9) -0.23799(18)
H51 H 0.6501 0.7204 -0.2332
H52 H 0.5875 0.5440 -0.2796
C34 C 0.6028(2) 0.4941(8) -0.17760(18)
H53 H 0.5780 0.3309 -0.1845
H54 H 0.5670 0.6213 -0.1753
C35 C 0.8188(2) 0.1168(9) -0.0199(2)
H55 H 0.7937 -0.0401 -0.0381
C36 C 0.8848(2) 0.1024(9) 0.04408(19)
H56 H 0.9018 0.2725 0.0587
C37 C 0.8637(2) -0.0342(13) 0.0989(2)
H57 H 0.8253 0.0631 0.1085
H58 H 0.8433 -0.1997 0.0830
C38 C 0.9313(2) -0.0698(14) 0.1638(2)
H59 H 0.9486 0.0959 0.1822
H60 H 0.9164 -0.1627 0.1967
C39 C 0.9965(2) -0.2071(9) 0.1510(2)
H61 H 0.9790 -0.3734 0.1331
C40 C 1.0175(2) -0.0599(11) 0.09763(19)
H62 H 1.0325 0.1103 0.1137
H63 H 1.0591 -0.1415 0.0893
C41 C 0.9495(2) -0.0358(11) 0.03249(19)
H64 H 0.9330 -0.2062 0.0178
H65 H 0.9635 0.0459 -0.0026
C42 C 1.0615(2) -0.2359(9) 0.2153(2)
H66 H 1.0844 -0.0839 0.2391
loop_
_geom_bond_atom_site_label_1
_geom_bond_atom_site_label_2
_geom_bond_site_symmetry_1
_geom_bond_site_symmetry_2
C1 H1 1_555 1_555
C2 C1 1_555 1_555
H2 C2 1_555 1_555
C3 C2 1_555 1_555
H3 C3 1_555 1_555
H4 C3 1_555 1_555
C4 C3 1_555 1_555
H5 C4 1_555 1_555
H6 C4 1_555 1_555
C5 C4 1_555 1_555
H7 C5 1_555 1_555
H8 C5 1_555 1_555
C6 C1 1_555 1_555
H9 C6 1_555 1_555
H10 C6 1_555 1_555
N1 C1 1_555 1_555
N2 C2 1_555 1_555
C7 N2 1_555 1_555
H11 C7 1_555 1_555
C8 C7 1_555 1_555
H12 C8 1_555 1_555
C9 C8 1_555 1_555
H13 C9 1_555 1_555
H14 C9 1_555 1_555
C10 C9 1_555 1_555
H15 C10 1_555 1_555
H16 C10 1_555 1_555
C11 C10 1_555 1_555
H17 C11 1_555 1_555
C12 C11 1_555 1_555
H18 C12 1_555 1_555
H19 C12 1_555 1_555
C13 C8 1_555 1_555
H20 C13 1_555 1_555
H21 C13 1_555 1_555
C14 C11 1_555 1_555
H22 C14 1_555 1_555
N3 C14 1_555 1_555
N4 C16 1_555 1_555
C15 N3 1_555 1_555
H23 C15 1_555 1_555
C16 C15 1_555 1_555
H24 C16 1_555 1_555
C17 C16 1_555 1_555
H25 C17 1_555 1_555
H26 C17 1_555 1_555
C18 C17 1_555 1_555
H27 C18 1_555 1_555
H28 C18 1_555 1_555
C19 C18 1_555 1_555
H29 C19 1_555 1_555
H30 C19 1_555 1_555
C20 C15 1_555 1_555
H31 C20 1_555 1_555
H32 C20 1_555 1_555
C21 N4 1_555 1_555
H33 C21 1_555 1_555
C22 C21 1_555 1_555
H34 C22 1_555 1_555
C23 C22 1_555 1_555
H35 C23 1_555 1_555
H36 C23 1_555 1_555
C24 C23 1_555 1_555
H37 C24 1_555 1_555
H38 C24 1_555 1_555
C25 C24 1_555 1_555
H39 C25 1_555 1_555
C26 C25 1_555 1_555
H40 C26 1_555 1_555
H41 C26 1_555 1_555
C27 C22 1_555 1_555
H42 C27 1_555 1_555
H43 C27 1_555 1_555
C28 C25 1_555 1_555
H44 C28 1_555 1_555
N5 C28 1_555 1_555
N6 C30 1_555 1_555
C29 N5 1_555 1_555
H45 C29 1_555 1_555
C30 C29 1_555 1_555
H46 C30 1_555 1_555
C31 C30 1_555 1_555
H47 C31 1_555 1_555
H48 C31 1_555 1_555
C32 C31 1_555 1_555
H49 C32 1_555 1_555
H50 C32 1_555 1_555
C33 C32 1_555 1_555
H51 C33 1_555 1_555
H52 C33 1_555 1_555
C34 C29 1_555 1_555
H53 C34 1_555 1_555
H54 C34 1_555 1_555
C35 N6 1_555 1_555
H55 C35 1_555 1_555
C36 C35 1_555 1_555
H56 C36 1_555 1_555
C37 C36 1_555 1_555
H57 C37 1_555 1_555
H58 C37 1_555 1_555
C38 C37 1_555 1_555
H59 C38 1_555 1_555
H60 C38 1_555 1_555
C39 C38 1_555 1_555
H61 C39 1_555 1_555
C40 C39 1_555 1_555
H62 C40 1_555 1_555
H63 C40 1_555 1_555
C41 C36 1_555 1_555
H64 C41 1_555 1_555
H65 C41 1_555 1_555
C42 N1 1_555 1_555
H66 C42 1_555 1_555
C5 C6 1_555 1_555
C12 C13 1_555 1_555
C19 C20 1_555 1_555
C26 C27 1_555 1_555
C33 C34 1_555 1_555
C39 C42 1_555 1_555
C40 C41 1_555 1_555

#END
