
#######################################################################
#
#                 Cambridge Crystallographic Data Centre
#                                CCDC 
#
#######################################################################
#
# If this CIF has been generated from an entry in the Cambridge 
# Structural Database, then it will include bibliographic, chemical, 
# crystal, experimental, refinement or atomic coordinate data resulting 
# from the CCDC's data processing and validation procedures.
#
#######################################################################

data_TIQNEP
_chemical_formula_moiety         'C12 H12 Cl2 O1'
_chemical_name_systematic        
1-(3,5-dichlorophenyl)-3-methylidenepent-4-en-1-ol
_symmetry_cell_setting           monoclinic
_symmetry_space_group_name_H-M   'P 21'
_symmetry_Int_Tables_number      4
_space_group_name_Hall           'P 2yb'
loop_
_symmetry_equiv_pos_site_id
_symmetry_equiv_pos_as_xyz
1 x,y,z
2 -x,1/2+y,-z
_cell_length_a                   10.442(2)
_cell_length_b                   4.8336(11)
_cell_length_c                   12.394(3)
_cell_angle_alpha                90
_cell_angle_beta                 112.794(5)
_cell_angle_gamma                90
_cell_volume                     576.702
_exptl_crystal_colour            colorless
_exptl_crystal_description       lath
_cell_formula_units_Z            2
loop_
_atom_site_label
_atom_site_type_symbol
_atom_site_fract_x
_atom_site_fract_y
_atom_site_fract_z
C1 C 0.53963(19) 0.1802(4) 0.81306(15)
C2 C 0.43900(19) 0.2944(4) 0.71315(16)
H1 H 0.344886 0.235944 0.685929
C3 C 0.48121(19) 0.4965(4) 0.65486(15)
C4 C 0.61800(19) 0.5831(4) 0.69259(15)
H2 H 0.643909 0.722176 0.650782
C5 C 0.71787(18) 0.4638(4) 0.79293(14)
C6 C 0.67811(19) 0.2620(4) 0.85426(16)
H3 H 0.744604 0.181595 0.923135
C7 C 0.86847(18) 0.5504(4) 0.82867(14)
H4 H 0.869174 0.743204 0.799631
C8 C 0.94178(19) 0.3632(4) 0.76989(16)
H5 H 0.955269 0.177731 0.806484
H6 H 0.881068 0.341700 0.686149
C9 C 1.08086(19) 0.4740(4) 0.77926(15)
C10 C 1.0843(2) 0.6939(4) 0.69865(17)
H7 H 1.172397 0.773146 0.712080
C11 C 0.9770(3) 0.7925(5) 0.6093(2)
H8 H 0.886676 0.720081 0.592166
H9 H 0.990302 0.935707 0.562148
C12 C 1.1989(2) 0.3782(4) 0.85985(18)
H10 H 1.285453 0.452066 0.865211
H11 H 1.196432 0.235926 0.911914
O1 O 0.94143(14) 0.5534(3) 0.95293(11)
Cl1 Cl 0.48933(5) -0.07054(9) 0.88942(4)
Cl2 Cl 0.35772(5) 0.65010(10) 0.53119(4)
H12 H 0.972(3) 0.416(8) 0.971(2)
loop_
_geom_bond_atom_site_label_1
_geom_bond_atom_site_label_2
_geom_bond_site_symmetry_1
_geom_bond_site_symmetry_2
C1 C2 1_555 1_555
C2 H1 1_555 1_555
C3 C2 1_555 1_555
C4 C3 1_555 1_555
H2 C4 1_555 1_555
C5 C4 1_555 1_555
C6 C1 1_555 1_555
H3 C6 1_555 1_555
C7 C5 1_555 1_555
H4 C7 1_555 1_555
C8 C7 1_555 1_555
H5 C8 1_555 1_555
H6 C8 1_555 1_555
C9 C8 1_555 1_555
C10 C9 1_555 1_555
H7 C10 1_555 1_555
C11 C10 1_555 1_555
H8 C11 1_555 1_555
H9 C11 1_555 1_555
C12 C9 1_555 1_555
H10 C12 1_555 1_555
H11 C12 1_555 1_555
O1 C7 1_555 1_555
Cl1 C1 1_555 1_555
Cl2 C3 1_555 1_555
H12 O1 1_555 1_555
C5 C6 1_555 1_555

#END
