
#######################################################################
#
#                 Cambridge Crystallographic Data Centre
#                                CCDC 
#
#######################################################################
#
# If this CIF has been generated from an entry in the Cambridge 
# Structural Database, then it will include bibliographic, chemical, 
# crystal, experimental, refinement or atomic coordinate data resulting 
# from the CCDC's data processing and validation procedures.
#
#######################################################################

data_TIQRIW
_chemical_name_common            
10-(4-Bromobenzyl)-2-hydroxy-2,3-dihydro-1H-pyrrolo[2,1-c][1,4]benzodiazepine-5,11(10H,11aH)-dione
_chemical_formula_moiety         'C19 H17 Br1 N2 O3'
_chemical_name_systematic        
(2R,11aS)-10-(4-bromobenzyl)-2-hydroxy-2,3-dihydro-1H-benzo[e]pyrrolo[1,2-a][1,4]diazepine-5,11(10H,11aH)-dione
_symmetry_cell_setting           monoclinic
_symmetry_space_group_name_H-M   'P 21'
_symmetry_Int_Tables_number      4
_space_group_name_Hall           'P 2yb'
loop_
_symmetry_equiv_pos_site_id
_symmetry_equiv_pos_as_xyz
1 x,y,z
2 -x,1/2+y,-z
_cell_length_a                   5.7253(6)
_cell_length_b                   12.3763(13)
_cell_length_c                   11.9108(13)
_cell_angle_alpha                90
_cell_angle_beta                 94.641(2)
_cell_angle_gamma                90
_cell_volume                     841.209
_exptl_crystal_colour            colorless
_exptl_crystal_description       plate
_cell_formula_units_Z            2
loop_
_atom_site_label
_atom_site_type_symbol
_atom_site_fract_x
_atom_site_fract_y
_atom_site_fract_z
Br1 Br 0.44813(6) -0.11626(4) 0.82432(3)
C1 C 0.2070(4) 0.45948(19) 0.63003(18)
C2 C 0.3560(4) 0.4048(2) 0.56213(19)
H1 H 0.3382 0.3308 0.5508
C3 C 0.5302(5) 0.4601(2) 0.5115(2)
H2 H 0.6264 0.4233 0.4652
C4 C 0.5612(5) 0.5677(3) 0.5292(2)
H3 H 0.6857 0.6032 0.4998
C5 C 0.4077(4) 0.6242(2) 0.5908(2)
H4 H 0.4255 0.6985 0.5997
C6 C 0.2258(4) 0.57142(19) 0.64008(17)
C7 C 0.0610(4) 0.6449(2) 0.69491(19)
C8 C -0.1226(6) 0.6827(2) 0.8712(2)
H5 H -0.2910 0.6719 0.8646
H6 H -0.0890 0.7582 0.8574
C9 C -0.0145(8) 0.6467(3) 0.9851(2)
H7 H -0.1143 0.6654 1.0453
C10 C 0.0021(7) 0.5257(3) 0.9702(2)
H8 H -0.1485 0.4914 0.9770
H9 H 0.1164 0.4946 1.0255
C11 C 0.0796(5) 0.51286(19) 0.85099(18)
H10 H 0.2509 0.5095 0.8530
C12 C -0.0279(4) 0.41616(19) 0.7892(2)
C13 C -0.0476(4) 0.29417(18) 0.63303(19)
H11 H -0.0287 0.2958 0.5529
H12 H -0.2137 0.2874 0.6424
C14 C 0.0771(4) 0.1961(2) 0.68344(17)
C15 C 0.2972(4) 0.20137(19) 0.74289(19)
H13 H 0.3704 0.2680 0.7545
C16 C 0.4072(4) 0.1089(2) 0.7846(2)
H14 H 0.5541 0.1127 0.8239
C17 C 0.2967(4) 0.0109(2) 0.7674(2)
C18 C 0.0785(4) 0.0024(2) 0.7100(2)
H15 H 0.0059 -0.0644 0.6994
C19 C -0.0299(4) 0.0961(2) 0.6686(2)
H16 H -0.1775 0.0917 0.6301
N1 N -0.0066(4) 0.61185(17) 0.79446(16)
N2 N 0.0367(3) 0.3969(2) 0.68303(13)
O1 O -0.1676(3) 0.35632(14) 0.83086(15)
O2 O 0.0018(4) 0.73099(16) 0.65206(16)
O3 O 0.2152(5) 0.6881(2) 1.00720(18)
H17 H 0.206(8) 0.746(4) 1.050(4)
loop_
_geom_bond_atom_site_label_1
_geom_bond_atom_site_label_2
_geom_bond_site_symmetry_1
_geom_bond_site_symmetry_2
Br1 C17 1_555 1_555
C1 C2 1_555 1_555
C2 H1 1_555 1_555
C3 C2 1_555 1_555
H2 C3 1_555 1_555
C4 C3 1_555 1_555
H3 C4 1_555 1_555
C5 C4 1_555 1_555
H4 C5 1_555 1_555
C6 C1 1_555 1_555
C7 C6 1_555 1_555
C8 H5 1_555 1_555
H6 C8 1_555 1_555
C9 C8 1_555 1_555
H7 C9 1_555 1_555
C10 C9 1_555 1_555
H8 C10 1_555 1_555
H9 C10 1_555 1_555
C11 C10 1_555 1_555
H10 C11 1_555 1_555
C12 C11 1_555 1_555
C13 H11 1_555 1_555
H12 C13 1_555 1_555
C14 C13 1_555 1_555
C15 C14 1_555 1_555
H13 C15 1_555 1_555
C16 C15 1_555 1_555
H14 C16 1_555 1_555
C17 C16 1_555 1_555
C18 C17 1_555 1_555
H15 C18 1_555 1_555
C19 C14 1_555 1_555
H16 C19 1_555 1_555
N1 C7 1_555 1_555
N2 C1 1_555 1_555
O1 C12 1_555 1_555
O2 C7 1_555 1_555
O3 C9 1_555 1_555
H17 O3 1_555 1_555
C5 C6 1_555 1_555
C8 N1 1_555 1_555
C11 N1 1_555 1_555
C12 N2 1_555 1_555
C13 N2 1_555 1_555
C18 C19 1_555 1_555

#END
