
#######################################################################
#
#                 Cambridge Crystallographic Data Centre
#                                CCDC 
#
#######################################################################
#
# If this CIF has been generated from an entry in the Cambridge 
# Structural Database, then it will include bibliographic, chemical, 
# crystal, experimental, refinement or atomic coordinate data resulting 
# from the CCDC's data processing and validation procedures.
#
#######################################################################

data_TIQTIX
_chemical_formula_moiety         'C14 H13 F1 N2 O2'
_chemical_name_systematic        
4-(3-Fluorophenyl)-1,2,3,4,5,6,7,8-octahydroquinazoline-2,5-dione
_symmetry_cell_setting           monoclinic
_symmetry_space_group_name_H-M   'C 2/c'
_symmetry_Int_Tables_number      15
_space_group_name_Hall           '-C 2yn'
loop_
_symmetry_equiv_pos_site_id
_symmetry_equiv_pos_as_xyz
1 x,y,z
2 1/2+x,1/2+y,z
3 -x,y,1/2-z
4 1/2-x,1/2+y,1/2-z
5 -x,-y,-z
6 1/2-x,1/2-y,-z
7 x,-y,1/2+z
8 1/2+x,1/2-y,1/2+z
_cell_length_a                   21.027(6)
_cell_length_b                   8.3110(16)
_cell_length_c                   14.027(3)
_cell_angle_alpha                90
_cell_angle_beta                 93.49(2)
_cell_angle_gamma                90
_cell_volume                     2446.75
_exptl_crystal_colour            colorless
_exptl_crystal_description       prismatic
_chemical_melting_point          '313 deg.C'
_cell_formula_units_Z            8
_exptl_crystal_recrystallization_method ethanol
loop_
_atom_site_label
_atom_site_type_symbol
_atom_site_fract_x
_atom_site_fract_y
_atom_site_fract_z
F1 F 0.19531(17) -0.0235(5) 0.1164(2)
O1 O 0.03410(10) 0.1207(3) 0.59417(13)
O2 O 0.07980(11) 0.4872(3) 0.22235(15)
N1 N 0.07874(12) 0.3529(3) 0.54590(17)
H1 H 0.0828(14) 0.386(4) 0.6049(14)
C1 C 0.05278(13) 0.2020(3) 0.52790(19)
N2 N 0.04794(12) 0.1560(3) 0.43674(16)
H2 H 0.0284(12) 0.066(3) 0.4262(19)
C2 C 0.07365(13) 0.2405(3) 0.35622(18)
H3 H 0.0416 0.2367 0.3025
C3 C 0.08474(12) 0.4144(3) 0.38268(19)
C4 C 0.08802(14) 0.5299(4) 0.3061(2)
C5 C 0.1011(2) 0.7031(4) 0.3324(3)
H4 H 0.0609 0.7603 0.3333
H5 H 0.1257 0.7520 0.2838
C6 C 0.1370(2) 0.7212(4) 0.4284(3)
H6 H 0.1396 0.8343 0.4453
H7 H 0.1800 0.6809 0.4246
C7 C 0.10419(15) 0.6297(4) 0.5056(2)
H8 H 0.1317 0.6280 0.5637
H9 H 0.0651 0.6847 0.5193
C8 C 0.08916(12) 0.4610(3) 0.47501(19)
C9 C 0.13418(13) 0.1619(3) 0.32443(19)
C10 C 0.13668(17) 0.1020(4) 0.2329(2)
H10 H 0.1014 0.1087 0.1899
C11 C 0.1922(2) 0.0321(5) 0.2064(3)
C12 C 0.2446(2) 0.0168(5) 0.2669(3)
H11 H 0.2812 -0.0331 0.2476
C13 C 0.24199(18) 0.0768(5) 0.3571(3)
H12 H 0.2775 0.0681 0.3996
C14 C 0.18794(15) 0.1496(4) 0.3863(2)
H13 H 0.1874 0.1909 0.4478
loop_
_geom_bond_atom_site_label_1
_geom_bond_atom_site_label_2
_geom_bond_site_symmetry_1
_geom_bond_site_symmetry_2
F1 C11 1_555 1_555
O1 C1 1_555 1_555
O2 C4 1_555 1_555
N1 H1 1_555 1_555
C1 N1 1_555 1_555
N2 C1 1_555 1_555
H2 N2 1_555 1_555
C2 N2 1_555 1_555
H3 C2 1_555 1_555
C3 C2 1_555 1_555
C4 C3 1_555 1_555
C5 C4 1_555 1_555
H4 C5 1_555 1_555
H5 C5 1_555 1_555
C6 C5 1_555 1_555
H6 C6 1_555 1_555
H7 C6 1_555 1_555
C7 C6 1_555 1_555
H8 C7 1_555 1_555
H9 C7 1_555 1_555
C8 N1 1_555 1_555
C9 C2 1_555 1_555
C10 C9 1_555 1_555
H10 C10 1_555 1_555
C11 C10 1_555 1_555
C12 C11 1_555 1_555
H11 C12 1_555 1_555
C13 C12 1_555 1_555
H12 C13 1_555 1_555
C14 C9 1_555 1_555
H13 C14 1_555 1_555
C3 C8 1_555 1_555
C7 C8 1_555 1_555
C13 C14 1_555 1_555

#END
