
#######################################################################
#
#                 Cambridge Crystallographic Data Centre
#                                CCDC 
#
#######################################################################
#
# If this CIF has been generated from an entry in the Cambridge 
# Structural Database, then it will include bibliographic, chemical, 
# crystal, experimental, refinement or atomic coordinate data resulting 
# from the CCDC's data processing and validation procedures.
#
#######################################################################

data_TIQTUK
_chemical_formula_moiety         'C60 H72 N6 S3 2+,2.75(H2 O1),2(Cl1 1-)'
_chemical_name_systematic        
'3,4,7,8,15,16,19,20,27,28,31,32-Dodecaethyl-37,40,43-trithia-39,41,44,45-tetra-aza-38,42-diazoniadecacyclo[32.2.1.1^2,5^.1^6,9^.1^10,13^.1^14,17^.1^18,21^.1^22,25^.1^26,29^.1^30,33^]pentatetraconta-1(36),2,4,6,8,10,12,14(42),15,17,19,21,23,25,27,29,31,33(38),34-nonadecaene dichloride hydrate'
_symmetry_cell_setting           triclinic
_symmetry_space_group_name_H-M   'P -1'
_symmetry_Int_Tables_number      2
_space_group_name_Hall           '-P 1'
loop_
_symmetry_equiv_pos_site_id
_symmetry_equiv_pos_as_xyz
1 x,y,z
2 -x,-y,-z
_cell_length_a                   15.090(2)
_cell_length_b                   20.120(3)
_cell_length_c                   19.1100(10)
_cell_angle_alpha                89.97(3)
_cell_angle_beta                 100.85(4)
_cell_angle_gamma                89.98(4)
_cell_volume                     5698.28
_exptl_crystal_colour            violet
_exptl_crystal_description       rhombohedral
_cell_formula_units_Z            4
loop_
_atom_site_label
_atom_site_type_symbol
_atom_site_fract_x
_atom_site_fract_y
_atom_site_fract_z
S1 S 0.20446(13) 0.04384(10) 1.04559(11)
S2 S -0.15461(13) 0.17249(9) 0.82453(10)
S3 S -0.06381(11) -0.15163(9) 0.81696(9)
C1 C -0.1383(4) -0.1793(3) 0.7415(4)
C2 C -0.1188(4) -0.2445(4) 0.7282(4)
H1 H -0.1518 -0.2686 0.6907
N1 N 0.2213(4) -0.1094(3) 1.0285(3)
H2 H 0.1695 -0.0918 1.0121
C3 C 0.0649(4) -0.2393(4) 0.8847(4)
C4 C -0.0581(6) 0.2841(4) 0.8768(4)
C5 C 0.3285(5) 0.0908(4) 1.1435(4)
H3 H 0.3630 0.1196 1.1756
N2 N -0.2239(4) -0.0741(3) 0.7255(3)
H4 H -0.1904 -0.0543 0.7607
C6 C 0.2457(4) -0.1730(4) 1.0157(4)
N3 N 0.1148(3) -0.1891(3) 0.9215(3)
H5 H 0.1048 -0.1474 0.9140
C7 C 0.2525(5) 0.1117(3) 1.0945(4)
C8 C 0.1886(5) 0.3579(4) 1.1084(4)
H6 H 0.1769 0.3569 1.1566
H7 H 0.1380 0.3804 1.0791
C9 C 0.2446(5) 0.2374(4) 1.1156(4)
C10 C -0.4090(5) 0.0550(5) 0.6761(4)
N4 N 0.1446(4) 0.1915(3) 1.0285(3)
H8 H 0.1143 0.1624 1.0010
C11 C 0.3651(5) -0.1218(4) 1.0843(4)
C12 C -0.1343(6) 0.2563(4) 0.8306(4)
C13 C -0.0082(4) -0.2272(3) 0.8271(4)
C14 C 0.2878(5) -0.0098(4) 1.0892(4)
C15 C -0.2981(5) -0.0459(4) 0.6837(4)
N5 N -0.0087(4) 0.2490(3) 0.9339(3)
H9 H -0.0209 0.2092 0.9455
C16 C 0.0606(5) 0.2855(3) 0.9687(4)
C17 C 0.0637(5) -0.3682(3) 0.8961(4)
H10 H -0.0012 -0.3640 0.8816
H11 H 0.0756 -0.3959 0.9385
C18 C -0.2097(5) -0.1367(3) 0.7049(4)
C19 C 0.2839(5) -0.3853(4) 0.9986(5)
H12 H 0.3284 -0.3620 0.9781
H13 H 0.2494 -0.4137 0.9632
H14 H 0.3135 -0.4117 1.0380
C20 C 0.4589(5) -0.1086(4) 1.1244(5)
H15 H 0.4897 -0.1505 1.1363
H16 H 0.4555 -0.0859 1.1686
C21 C 0.1267(5) 0.2588(3) 1.0255(4)
C22 C 0.3472(5) 0.0261(4) 1.1401(4)
H17 H 0.3962 0.0064 1.1697
C23 C -0.2493(6) 0.1827(4) 0.7583(4)
C24 C 0.2919(4) -0.0778(4) 1.0713(4)
C25 C 0.2176(4) 0.1773(3) 1.0816(4)
C26 C -0.3267(5) 0.0200(4) 0.6933(4)
C27 C -0.2577(8) -0.1471(6) 0.6373(6)
N6 N -0.2626(4) 0.0656(3) 0.7258(3)
H18 H -0.2070 0.0563 0.7425
C28 C 0.2205(4) -0.3348(3) 1.0248(4)
H19 H 0.1743 -0.3592 1.0431
H20 H 0.2551 -0.3099 1.0641
C29 C 0.1036(4) -0.3002(3) 0.9142(4)
C30 C 0.3995(4) -0.2367(4) 1.0340(4)
H21 H 0.4579 -0.2307 1.0647
H22 H 0.3755 -0.2790 1.0462
C31 C 0.0581(5) 0.3476(3) 0.9323(4)
C32 C -0.3164(8) -0.0921(6) 0.6214(6)
C33 C -0.3911(6) 0.1215(5) 0.6960(4)
C34 C 0.5135(6) -0.0659(5) 1.0809(6)
H23 H 0.5221 -0.0901 1.0394
H24 H 0.5712 -0.0555 1.1096
H25 H 0.4814 -0.0255 1.0666
C35 C -0.0413(7) 0.4013(4) 0.8211(5)
H26 H -0.0654 0.3815 0.7752
H27 H 0.0132 0.4252 0.8166
C36 C -0.2997(6) 0.1258(4) 0.7273(4)
C37 C 0.1887(5) 0.2880(4) 1.0831(4)
C38 C 0.4122(6) -0.2395(4) 0.9585(5)
H28 H 0.3548 -0.2462 0.9277
H29 H 0.4518 -0.2757 0.9528
H30 H 0.4381 -0.1985 0.9463
C39 C -0.4600(7) 0.1770(6) 0.6878(6)
H31 H -0.4406 0.2102 0.7242
H32 H -0.5172 0.1591 0.6954
C40 C 0.1830(4) -0.2151(3) 0.9719(4)
C41 C 0.1742(4) -0.2855(3) 0.9688(4)
C42 C 0.3368(4) -0.1814(3) 1.0486(4)
C43 C 0.2723(6) 0.4003(4) 1.1090(5)
H33 H 0.2863 0.4013 1.0620
H34 H 0.3222 0.3816 1.1417
H35 H 0.2612 0.4447 1.1236
C44 C 0.1290(6) 0.3980(4) 0.9404(4)
H36 H 0.1458 0.4052 0.8944
H37 H 0.1817 0.3809 0.9724
C45 C 0.1018(5) -0.4025(4) 0.8364(4)
H38 H 0.0885 -0.3761 0.7939
H39 H 0.0747 -0.4456 0.8274
H40 H 0.1659 -0.4073 0.8506
C46 C -0.1103(8) 0.4509(4) 0.8399(5)
H41 H -0.1196 0.4860 0.8052
H42 H -0.0882 0.4693 0.8863
H43 H -0.1664 0.4285 0.8400
C47 C 0.4126(5) 0.2530(5) 1.1580(5)
H44 H 0.4122 0.2897 1.1259
H45 H 0.4259 0.2127 1.1350
H46 H 0.4578 0.2602 1.1999
C48 C 0.3195(5) 0.2469(4) 1.1792(4)
H47 H 0.3201 0.2095 1.2114
H48 H 0.3078 0.2868 1.2045
C49 C -0.2629(8) 0.2506(4) 0.7416(5)
H49 H -0.3095 0.2667 0.7069
C50 C -0.4742(8) 0.2105(6) 0.6145(6)
H50 H -0.4963 0.1784 0.5782
H51 H -0.4179 0.2282 0.6065
H52 H -0.5173 0.2458 0.6128
C51 C -0.2521(7) -0.2022(6) 0.5836(6)
H53 H -0.2650 -0.1832 0.5361
H54 H -0.1907 -0.2189 0.5916
C52 C 0.1030(6) 0.4652(4) 0.9691(5)
H55 H 0.0552 0.4850 0.9353
H56 H 0.1545 0.4942 0.9765
H57 H 0.0832 0.4585 1.0134
C53 C -0.3151(13) -0.2601(9) 0.5862(13)
H58 H -0.3763 -0.2445 0.5772
H59 H -0.3016 -0.2804 0.6324
H60 H -0.3074 -0.2921 0.5505
C54 C -0.2004(8) 0.2895(4) 0.7818(5)
H61 H -0.2012 0.3355 0.7773
C55 C -0.5473(7) -0.0049(7) 0.7019(6)
H62 H -0.6099 -0.0119 0.6820
H63 H -0.5420 0.0201 0.7452
H64 H -0.5178 -0.0471 0.7118
C56 C -0.5017(6) 0.0344(6) 0.6474(5)
H65 H -0.5017 0.0068 0.6058
H66 H -0.5375 0.0737 0.6320
C57 C -0.0483(5) -0.2705(4) 0.7736(4)
H67 H -0.0280 -0.3137 0.7696
C58 C -0.0171(6) 0.3462(4) 0.8760(4)
C59 C -0.3766(9) -0.0790(6) 0.5543(7)
H68 H -0.3823 -0.1185 0.5247
H69 H -0.4360 -0.0672 0.5627
C60 C -0.3469(9) -0.0350(7) 0.5252(8)
H70 H -0.3393 0.0034 0.5555
H71 H -0.3878 -0.0247 0.4816
H72 H -0.2896 -0.0480 0.5146
S4 S 0.80851(13) 0.59448(12) 0.48507(10)
S5 S 1.21307(13) 0.59564(10) 0.69414(10)
C67 C 1.1719(5) 0.7295(4) 0.6848(4)
C68 C 1.3969(4) 0.4661(4) 0.8090(3)
C69 C 1.0185(5) 0.2553(5) 0.6984(4)
N7 N 1.2506(4) 0.4522(3) 0.7630(3)
H83 H 1.1958 0.4598 0.7424
C70 C 0.8736(6) 0.7905(5) 0.4497(5)
C71 C 1.2226(5) 0.3350(3) 0.7858(4)
C72 C 0.9812(5) 0.7719(4) 0.5498(5)
C73 C 1.3443(5) 0.6214(4) 0.7936(4)
H84 H 1.3956 0.6173 0.8289
N8 N 0.7736(4) 0.3336(5) 0.5376(4)
H85 H 0.8008 0.3676 0.5591
C74 C 1.3171(5) 0.4992(4) 0.7748(4)
C75 C 0.5847(6) 0.4830(8) 0.3976(5)
C76 C 0.8750(6) 0.2525(6) 0.6074(5)
C77 C 0.7995(6) 0.2667(6) 0.5529(5)
N9 N 1.1077(4) 0.7185(3) 0.6260(4)
H86 H 1.0996 0.6815 0.6033
C78 C 0.7141(6) 0.5703(5) 0.4257(4)
C79 C 0.9403(6) 0.8219(5) 0.4964(5)
C80 C 1.3757(5) 0.3990(4) 0.8169(4)
C81 C 0.8704(6) 0.7229(5) 0.4721(4)
C82 C 1.4877(5) 0.4981(4) 0.8319(4)
H87 H 1.4898 0.5392 0.8057
H88 H 1.5341 0.4688 0.8206
C83 C 1.0506(6) 0.8902(4) 0.6671(5)
H89 H 1.0372 0.8932 0.7147
H90 H 0.9938 0.8936 0.6336
C84 C 0.6733(5) 0.5065(6) 0.4272(4)
C85 C 1.0568(5) 0.7758(4) 0.6078(5)
C86 C 1.1656(7) 0.1124(4) 0.8019(5)
H91 H 1.1349 0.1067 0.7535
H92 H 1.1562 0.0738 0.8293
H93 H 1.2290 0.1181 0.8031
N10 N 0.7176(4) 0.4522(4) 0.4621(3)
H94 H 0.7720 0.4527 0.4859
C87 C 1.1279(5) 0.1744(4) 0.8341(4)
H95 H 1.0628 0.1705 0.8274
H96 H 1.1513 0.1752 0.8850
C88 C 0.8982(6) 0.1931(6) 0.6421(5)
H97 H 0.8632 0.1550 0.6324
C89 C 0.6857(6) 0.6211(5) 0.3769(5)
H98 H 0.6364 0.6164 0.3399
C90 C 1.0990(5) 0.2735(4) 0.7437(4)
C91 C 1.2314(5) 0.6776(4) 0.7161(4)
N11 N 1.1454(4) 0.3313(3) 0.7367(3)
H99 H 1.1276 0.3612 0.7050
C92 C 1.3014(5) 0.5675(4) 0.7592(4)
C93 C 1.1508(5) 0.2397(4) 0.8023(4)
N12 N 0.9356(4) 0.7147(3) 0.5323(3)
H100 H 0.9459 0.6781 0.5556
C94 C 1.2108(6) 0.8278(4) 0.7739(4)
H101 H 1.1718 0.8617 0.7877
H102 H 1.2210 0.7947 0.8115
C95 C 1.3009(7) 0.8596(4) 0.7688(5)
H103 H 1.2913 0.8947 0.7340
H104 H 1.3401 0.8267 0.7547
H105 H 1.3280 0.8776 0.8143
C96 C 1.1615(5) 0.7946(4) 0.7053(4)
C97 C 1.0908(5) 0.8234(4) 0.6586(5)
C98 C 1.1103(6) 0.9503(4) 0.6554(6)
H106 H 1.1323 0.9444 0.6118
H107 H 1.1604 0.9534 0.6945
H108 H 1.0752 0.9904 0.6526
C99 C 0.8208(6) 0.8239(5) 0.3846(4)
H109 H 0.8150 0.7931 0.3449
H110 H 0.8551 0.8619 0.3731
C100 C 1.2246(5) 0.2767(4) 0.8290(4)
C101 C 1.3068(5) 0.6822(4) 0.7724(4)
H111 H 1.3287 0.7223 0.7931
C102 C 0.9009(6) 0.9413(5) 0.5099(6)
H112 H 0.8514 0.9424 0.4701
H113 H 0.9270 0.9848 0.5175
H114 H 0.8795 0.9274 0.5518
C103 C 1.4462(5) 0.3471(4) 0.8420(4)
H115 H 1.4908 0.3659 0.8800
H116 H 1.4178 0.3102 0.8620
C104 C 0.8088(6) 0.6740(4) 0.4464(4)
C105 C 0.7336(7) 0.6765(6) 0.3870(4)
H117 H 0.7200 0.7139 0.3583
C106 C 0.7261(6) 0.8478(5) 0.3914(5)
H118 H 0.6967 0.8670 0.3471
H119 H 0.7310 0.8806 0.4284
H120 H 0.6913 0.8108 0.4029
C107 C 1.5067(5) 0.5125(4) 0.9108(4)
H121 H 1.4680 0.5478 0.9207
H122 H 1.5685 0.5257 0.9253
H123 H 1.4955 0.4733 0.9365
C108 C 0.5781(6) 0.4171(9) 0.4129(5)
C109 C 0.4646(7) 0.3621(9) 0.3190(5)
H124 H 0.4447 0.3975 0.2860
H125 H 0.4185 0.3287 0.3151
H126 H 0.5188 0.3429 0.3084
C110 C 0.4849(7) 0.3917(7) 0.4003(5)
H127 H 0.4430 0.4272 0.4051
H128 H 0.4787 0.3570 0.4343
C111 C 0.5063(6) 0.5287(6) 0.3595(5)
H129 H 0.5268 0.5535 0.3220
H130 H 0.4559 0.5012 0.3376
C112 C 1.3404(6) 0.2074(5) 0.9130(6)
H131 H 1.3742 0.2058 0.8751
H132 H 1.3046 0.1679 0.9119
H133 H 1.3813 0.2102 0.9579
C113 C 1.4939(7) 0.3205(5) 0.7860(5)
H134 H 1.4517 0.2971 0.7507
H135 H 1.5409 0.2907 0.8075
H136 H 1.5197 0.3567 0.7639
C114 C 1.2797(6) 0.2673(4) 0.9034(5)
H137 H 1.3165 0.3066 0.9159
H138 H 1.2386 0.2641 0.9367
C115 C 0.9718(5) 0.8926(5) 0.4945(5)
H139 H 0.9856 0.9021 0.4480
H140 H 1.0268 0.8984 0.5296
C116 C 1.2832(5) 0.3909(4) 0.7887(4)
C117 C 0.7734(14) 0.1462(9) 0.4870(10)
H141 H 0.7552 0.1341 0.4372
H142 H 0.8373 0.1371 0.5015
C118 C 0.4751(7) 0.5765(8) 0.4097(6)
H143 H 0.4254 0.6021 0.3846
H144 H 0.5237 0.6058 0.4293
H145 H 0.4561 0.5523 0.4476
C119 C 0.6627(6) 0.3976(6) 0.4532(4)
C120 C 0.9751(5) 0.1943(5) 0.6910(4)
H146 H 0.9973 0.1572 0.7176
C121 C 0.6983(6) 0.3370(6) 0.4830(5)
S6 S 0.95713(14) 0.31299(14) 0.63862(11)
C122 C 0.6943(8) 0.2595(6) 0.4545(6)
C123 C 0.6374(10) 0.2355(7) 0.3856(9)
H147 H 0.6765 0.2113 0.3597
H148 H 0.6156 0.2743 0.3573
C124 C 0.7212(9) 0.1073(6) 0.5312(8)
H149 H 0.7034 0.1357 0.5665
H150 H 0.7580 0.0717 0.5543
H151 H 0.6684 0.0891 0.5014
C125 C 0.7549(7) 0.2196(6) 0.4969(6)
C126 C 0.5556(11) 0.1911(13) 0.3896(10)
H152 H 0.5762 0.1477 0.4063
H153 H 0.5184 0.1874 0.3432
H154 H 0.5212 0.2103 0.4219
Cl1 Cl 0.01261(12) -0.09258(9) 1.03716(10)
Cl2 Cl 1.05435(14) 0.46703(11) 0.64548(12)
Cl3 Cl 0.7679(2) 0.57618(18) 0.68728(16)
Cl4 Cl -0.0560(2) 0.02379(17) 0.7560(2)
O2 O 0.9149(3) 0.4235(3) 0.4696(3)
H167 H 0.9386 0.4467 0.4407
H168 H 0.9338 0.4371 0.5119
O3 O 0.9487(4) 0.6158(3) 0.6408(3)
H169 H 0.9807 0.5808 0.6459
H170 H 0.9004 0.6092 0.6568
O4 O 0.0869(4) -0.0482(3) 0.8905(3)
H171 H 0.0543 -0.0142 0.8937
H172 H 0.1210 -0.0407 0.8607
O5 O 0.8350(5) 0.4477(5) 0.6199(5)
H173 H 0.8902 0.4593 0.6264
H174 H 0.8056 0.4747 0.6411
O6 O 0.6876(7) 0.4408(5) 0.7406(10)
H175 H 0.6730 0.4475 0.6893
H176 H 0.6820 0.3940 0.7511
C61? C -0.2975(11) -0.1526(8) 0.6634(8)
C62? C -0.3525(11) -0.0987(8) 0.6486(9)
C63? C -0.2997(18) -0.2381(13) 0.5687(16)
H73? H -0.3218 -0.2810 0.5519
H74? H -0.2352 -0.2372 0.5739
H75? H -0.3257 -0.2047 0.5351
C64? C -0.3246(9) -0.2249(7) 0.6372(8)
H76? H -0.2948 -0.2567 0.6720
H77? H -0.3893 -0.2305 0.6330
C65? C -0.4385(10) -0.1037(6) 0.5912(8)
H78? H -0.4493 -0.1499 0.5777
H79? H -0.4896 -0.0880 0.6107
C66? C -0.4312(14) -0.0633(15) 0.5261(11)
H80? H -0.4103 -0.0194 0.5402
H81? H -0.4894 -0.0606 0.4955
H82? H -0.3893 -0.0843 0.5010
C127? C 0.6548(9) 0.2822(8) 0.4850(9)
C128? C 0.7807(18) 0.1354(12) 0.4930(13)
H155? H 0.7734 0.0880 0.4934
H156? H 0.8404 0.1469 0.5170
H157? H 0.7717 0.1508 0.4446
C129? C 0.7149(9) 0.2403(6) 0.5295(8)
C130? C 0.6042(17) 0.2239(19) 0.3711(15)
H158? H 0.6420 0.2552 0.3526
H159? H 0.5508 0.2158 0.3360
H160? H 0.6365 0.1829 0.3821
C131? C 0.5807(9) 0.2489(6) 0.4313(9)
H161? H 0.5559 0.2129 0.4554
H162? H 0.5327 0.2811 0.4171
C132? C 0.7122(9) 0.1676(8) 0.5305(8)
H163? H 0.6523 0.1531 0.5081
H164? H 0.7228 0.1527 0.5796
Cl5? Cl -0.0882(3) 0.0431(2) 0.6705(3)
O1? O -0.0784(8) 0.0017(6) 0.8213(6)
H165? H -0.1040 0.0030 0.8574
H166? H -0.0589 -0.0375 0.8165
loop_
_geom_bond_atom_site_label_1
_geom_bond_atom_site_label_2
_geom_bond_site_symmetry_1
_geom_bond_site_symmetry_2
S1 C7 1_555 1_555
S2 C12 1_555 1_555
S3 C1 1_555 1_555
C1 C2 1_555 1_555
C2 H1 1_555 1_555
N1 H2 1_555 1_555
C3 N3 1_555 1_555
C4 C12 1_555 1_555
C5 H3 1_555 1_555
N2 H4 1_555 1_555
C6 N1 1_555 1_555
N3 H5 1_555 1_555
C7 C5 1_555 1_555
C8 H6 1_555 1_555
H7 C8 1_555 1_555
C9 C25 1_555 1_555
C10 C26 1_555 1_555
N4 H8 1_555 1_555
C11 C20 1_555 1_555
C12 C54 1_555 1_555
C13 S3 1_555 1_555
C14 S1 1_555 1_555
C15 N2 1_555 1_555
N5 C4 1_555 1_555
H9 N5 1_555 1_555
C16 N5 1_555 1_555
C17 H10 1_555 1_555
H11 C17 1_555 1_555
C18 C1 1_555 1_555
C19 H12 1_555 1_555
H13 C19 1_555 1_555
H14 C19 1_555 1_555
C20 H15 1_555 1_555
H16 C20 1_555 1_555
C21 N4 1_555 1_555
C22 C5 1_555 1_555
H17 C22 1_555 1_555
C23 S2 1_555 1_555
C24 N1 1_555 1_555
C25 C7 1_555 1_555
C26 C15 1_555 1_555
C27 C18 1_555 1_555
N6 C26 1_555 1_555
H18 N6 1_555 1_555
C28 C19 1_555 1_555
H19 C28 1_555 1_555
H20 C28 1_555 1_555
C29 C3 1_555 1_555
C30 H21 1_555 1_555
H22 C30 1_555 1_555
C31 C16 1_555 1_555
C32 C15 1_555 1_555
C33 C10 1_555 1_555
C34 C20 1_555 1_555
H23 C34 1_555 1_555
H24 C34 1_555 1_555
H25 C34 1_555 1_555
C35 H26 1_555 1_555
H27 C35 1_555 1_555
C36 C23 1_555 1_555
C37 C8 1_555 1_555
C38 C30 1_555 1_555
H28 C38 1_555 1_555
H29 C38 1_555 1_555
H30 C38 1_555 1_555
C39 C33 1_555 1_555
H31 C39 1_555 1_555
H32 C39 1_555 1_555
C40 C6 1_555 1_555
C41 C28 1_555 1_555
C42 C6 1_555 1_555
C43 C8 1_555 1_555
H33 C43 1_555 1_555
H34 C43 1_555 1_555
H35 C43 1_555 1_555
C44 C31 1_555 1_555
H36 C44 1_555 1_555
H37 C44 1_555 1_555
C45 C17 1_555 1_555
H38 C45 1_555 1_555
H39 C45 1_555 1_555
H40 C45 1_555 1_555
C46 C35 1_555 1_555
H41 C46 1_555 1_555
H42 C46 1_555 1_555
H43 C46 1_555 1_555
C47 H44 1_555 1_555
H45 C47 1_555 1_555
H46 C47 1_555 1_555
C48 C9 1_555 1_555
H47 C48 1_555 1_555
H48 C48 1_555 1_555
C49 C23 1_555 1_555
H49 C49 1_555 1_555
C50 C39 1_555 1_555
H50 C50 1_555 1_555
H51 C50 1_555 1_555
H52 C50 1_555 1_555
C51 C27 1_555 1_555
H53 C51 1_555 1_555
H54 C51 1_555 1_555
C52 C44 1_555 1_555
H55 C52 1_555 1_555
H56 C52 1_555 1_555
H57 C52 1_555 1_555
C53 C51 1_555 1_555
H58 C53 1_555 1_555
H59 C53 1_555 1_555
H60 C53 1_555 1_555
C54 C49 1_555 1_555
H61 C54 1_555 1_555
C55 H62 1_555 1_555
H63 C55 1_555 1_555
H64 C55 1_555 1_555
C56 C10 1_555 1_555
H65 C56 1_555 1_555
H66 C56 1_555 1_555
C57 C2 1_555 1_555
H67 C57 1_555 1_555
C58 C4 1_555 1_555
C59 C32 1_555 1_555
H68 C59 1_555 1_555
H69 C59 1_555 1_555
C60 C59 1_555 1_555
H70 C60 1_555 1_555
H71 C60 1_555 1_555
H72 C60 1_555 1_555
S4 C78 1_555 1_555
S5 C91 1_555 1_555
C67 N9 1_555 1_555
C68 C74 1_555 1_555
C69 C90 1_555 1_555
N7 H83 1_555 1_555
C70 C79 1_555 1_555
C71 N11 1_555 1_555
C72 C79 1_555 1_555
C73 H84 1_555 1_555
N8 H85 1_555 1_555
C74 N7 1_555 1_555
C75 C84 1_555 1_555
C76 C77 1_555 1_555
C77 N8 1_555 1_555
N9 H86 1_555 1_555
C78 C84 1_555 1_555
C79 C115 1_555 1_555
C80 C68 1_555 1_555
C81 C70 1_555 1_555
C82 C68 1_555 1_555
H87 C82 1_555 1_555
H88 C82 1_555 1_555
C83 H89 1_555 1_555
H90 C83 1_555 1_555
C84 N10 1_555 1_555
C85 C72 1_555 1_555
C86 H91 1_555 1_555
H92 C86 1_555 1_555
H93 C86 1_555 1_555
N10 H94 1_555 1_555
C87 C86 1_555 1_555
H95 C87 1_555 1_555
H96 C87 1_555 1_555
C88 C76 1_555 1_555
H97 C88 1_555 1_555
C89 C78 1_555 1_555
H98 C89 1_555 1_555
C90 N11 1_555 1_555
C91 C67 1_555 1_555
N11 H99 1_555 1_555
C92 S5 1_555 1_555
C93 C87 1_555 1_555
N12 C72 1_555 1_555
H100 N12 1_555 1_555
C94 H101 1_555 1_555
H102 C94 1_555 1_555
C95 C94 1_555 1_555
H103 C95 1_555 1_555
H104 C95 1_555 1_555
H105 C95 1_555 1_555
C96 C67 1_555 1_555
C97 C83 1_555 1_555
C98 C83 1_555 1_555
H106 C98 1_555 1_555
H107 C98 1_555 1_555
H108 C98 1_555 1_555
C99 C70 1_555 1_555
H109 C99 1_555 1_555
H110 C99 1_555 1_555
C100 C71 1_555 1_555
C101 C73 1_555 1_555
H111 C101 1_555 1_555
C102 H112 1_555 1_555
H113 C102 1_555 1_555
H114 C102 1_555 1_555
C103 C80 1_555 1_555
H115 C103 1_555 1_555
H116 C103 1_555 1_555
C104 S4 1_555 1_555
C105 C89 1_555 1_555
H117 C105 1_555 1_555
C106 C99 1_555 1_555
H118 C106 1_555 1_555
H119 C106 1_555 1_555
H120 C106 1_555 1_555
C107 C82 1_555 1_555
H121 C107 1_555 1_555
H122 C107 1_555 1_555
H123 C107 1_555 1_555
C108 C75 1_555 1_555
C109 H124 1_555 1_555
H125 C109 1_555 1_555
H126 C109 1_555 1_555
C110 C108 1_555 1_555
H127 C110 1_555 1_555
H128 C110 1_555 1_555
C111 C75 1_555 1_555
H129 C111 1_555 1_555
H130 C111 1_555 1_555
C112 H131 1_555 1_555
H132 C112 1_555 1_555
H133 C112 1_555 1_555
C113 C103 1_555 1_555
H134 C113 1_555 1_555
H135 C113 1_555 1_555
H136 C113 1_555 1_555
C114 C100 1_555 1_555
H137 C114 1_555 1_555
H138 C114 1_555 1_555
C115 C102 1_555 1_555
H139 C115 1_555 1_555
H140 C115 1_555 1_555
C116 N7 1_555 1_555
C117 H141 1_555 1_555
H142 C117 1_555 1_555
C118 C111 1_555 1_555
H143 C118 1_555 1_555
H144 C118 1_555 1_555
H145 C118 1_555 1_555
C119 N10 1_555 1_555
C120 C69 1_555 1_555
H146 C120 1_555 1_555
C121 N8 1_555 1_555
S6 C69 1_555 1_555
C122 C121 1_555 1_555
C123 C122 1_555 1_555
H147 C123 1_555 1_555
H148 C123 1_555 1_555
C124 C117 1_555 1_555
H149 C124 1_555 1_555
H150 C124 1_555 1_555
H151 C124 1_555 1_555
C125 C77 1_555 1_555
C126 C123 1_555 1_555
H152 C126 1_555 1_555
H153 C126 1_555 1_555
H154 C126 1_555 1_555
O2 H167 1_555 1_555
H168 O2 1_555 1_555
O3 H169 1_555 1_555
H170 O3 1_555 1_555
O4 H171 1_555 1_555
H172 O4 1_555 1_555
O5 H173 1_555 1_555
H174 O5 1_555 1_555
O6 H175 1_555 1_555
H176 O6 1_555 1_555
C3 C13 1_555 1_555
N2 C18 1_555 1_555
N3 C40 1_555 1_555
C9 C37 1_555 1_555
N4 C25 1_555 1_555
C11 C24 1_555 1_555
C11 C42 1_555 1_555
C13 C57 1_555 1_555
C14 C22 1_555 1_555
C14 C24 1_555 1_555
C16 C21 1_555 1_555
C17 C29 1_555 1_555
C21 C37 1_555 1_555
C27 C32 1_555 1_555
N6 C36 1_555 1_555
C29 C41 1_555 1_555
C30 C42 1_555 1_555
C31 C58 1_555 1_555
C33 C36 1_555 1_555
C35 C58 1_555 1_555
C40 C41 1_555 1_555
C47 C48 1_555 1_555
C55 C56 1_555 1_555
C71 C116 1_555 1_555
C73 C92 1_555 1_555
C74 C92 1_555 1_555
C76 S6 1_555 1_555
N9 C85 1_555 1_555
C80 C116 1_555 1_555
C81 N12 1_555 1_555
C81 C104 1_555 1_555
C85 C97 1_555 1_555
C88 C120 1_555 1_555
C90 C93 1_555 1_555
C91 C101 1_555 1_555
C93 C100 1_555 1_555
C94 C96 1_555 1_555
C96 C97 1_555 1_555
C104 C105 1_555 1_555
C108 C119 1_555 1_555
C109 C110 1_555 1_555
C112 C114 1_555 1_555
C117 C125 1_555 1_555
C119 C121 1_555 1_555
C122 C125 1_555 1_555

#END
