
#######################################################################
#
#                 Cambridge Crystallographic Data Centre
#                                CCDC 
#
#######################################################################
#
# If this CIF has been generated from an entry in the Cambridge 
# Structural Database, then it will include bibliographic, chemical, 
# crystal, experimental, refinement or atomic coordinate data resulting 
# from the CCDC's data processing and validation procedures.
#
#######################################################################

data_TIQWIC
_chemical_formula_moiety         'C20 H13 F7 N2 O2'
_chemical_name_systematic        
N-[5-(heptafluoropropyl)-6-methoxyquinolin-8-yl]benzamide
_symmetry_cell_setting           orthorhombic
_symmetry_space_group_name_H-M   'P n a 21'
_symmetry_Int_Tables_number      33
_space_group_name_Hall           'P 2c -2n'
loop_
_symmetry_equiv_pos_site_id
_symmetry_equiv_pos_as_xyz
1 x,y,z
2 -x,-y,1/2+z
3 1/2-x,1/2+y,1/2+z
4 1/2+x,1/2-y,z
_cell_length_a                   7.2673(10)
_cell_length_b                   28.113(4)
_cell_length_c                   9.3376(13)
_cell_angle_alpha                90
_cell_angle_beta                 90
_cell_angle_gamma                90
_cell_volume                     1907.72
_exptl_crystal_colour            colorless
_exptl_crystal_description       block
_cell_formula_units_Z            4
loop_
_atom_site_label
_atom_site_type_symbol
_atom_site_fract_x
_atom_site_fract_y
_atom_site_fract_z
F2 F 0.380(2) 0.4783(7) 0.144(3)
F3 F 0.659(3) 0.4787(8) 0.118(3)
F4 F 0.565(4) 0.4917(9) 0.325(2)
F5 F 0.6821(16) 0.4095(8) 0.3327(16)
F6 F 0.553(3) 0.3888(5) 0.1291(15)
F7 F 0.2178(6) 0.39819(13) 0.2288(5)
F8 F 0.3002(6) 0.43088(14) 0.4235(5)
O1 O 0.4755(7) 0.38437(16) 0.6078(6)
O2 O 0.5222(7) 0.2267(2) 0.8025(5)
N1 N 0.4311(6) 0.21388(18) 0.5771(4)
H1 H 0.4039 0.1916 0.5177
N2 N 0.3367(6) 0.22009(18) 0.3085(5)
C1 C 0.5226(16) 0.4657(3) 0.1908(11)
C2 C 0.5277(11) 0.4174(2) 0.2519(9)
C3 C 0.3552(9) 0.3977(2) 0.3262(7)
C4 C 0.3792(7) 0.3495(2) 0.3919(6)
C5 C 0.4328(7) 0.3444(2) 0.5337(6)
C6 C 0.4847(9) 0.3832(3) 0.7592(7)
H2 H 0.5888 0.3645 0.7883
H3 H 0.3741 0.3692 0.7965
H4 H 0.4973 0.4149 0.7953
C7 C 0.4516(7) 0.2997(2) 0.5973(6)
H5 H 0.4879 0.2976 0.6926
C8 C 0.4174(5) 0.25913(19) 0.5220(5)
C9 C 0.4807(7) 0.1983(2) 0.7104(6)
C10 C 0.4772(7) 0.1462(2) 0.7339(7)
C11 C 0.4895(8) 0.1314(3) 0.8781(8)
H6 H 0.4996 0.1537 0.9511
C12 C 0.4865(10) 0.0837(4) 0.9098(9)
H7 H 0.4949 0.0735 1.0044
C13 C 0.4715(11) 0.0517(3) 0.8033(12)
H8 H 0.4683 0.0196 0.8261
C14 C 0.4608(11) 0.0647(3) 0.6645(10)
H9 H 0.4517 0.0417 0.5932
C15 C 0.4636(8) 0.1118(3) 0.6298(8)
H10 H 0.4561 0.1209 0.5342
C16 C 0.3663(6) 0.26244(18) 0.3749(5)
C17 C 0.3481(6) 0.3067(2) 0.3100(5)
C18 C 0.3018(7) 0.3054(2) 0.1621(5)
H11 H 0.2896 0.3337 0.1111
C19 C 0.2758(8) 0.2638(2) 0.0959(6)
H12 H 0.2472 0.2633 -0.0012
C20 C 0.2910(8) 0.2213(2) 0.1705(6)
H13 H 0.2687 0.1929 0.1228
F1? F 0.406(4) 0.4602(10) 0.071(3)
F9? F 0.714(4) 0.4712(13) 0.153(4)
F10? F 0.456(3) 0.4975(4) 0.273(3)
F11? F 0.653(4) 0.4316(17) 0.379(4)
F12? F 0.613(5) 0.3869(10) 0.186(6)
loop_
_geom_bond_atom_site_label_1
_geom_bond_atom_site_label_2
_geom_bond_site_symmetry_1
_geom_bond_site_symmetry_2
F2 C1 1_555 1_555
F3 C1 1_555 1_555
F4 C1 1_555 1_555
F5 C2 1_555 1_555
F6 C2 1_555 1_555
F7 C3 1_555 1_555
F8 C3 1_555 1_555
O1 C5 1_555 1_555
O2 C9 1_555 1_555
N1 H1 1_555 1_555
N2 C16 1_555 1_555
C1 C2 1_555 1_555
C2 C3 1_555 1_555
C3 C4 1_555 1_555
C4 C5 1_555 1_555
C5 C7 1_555 1_555
C6 O1 1_555 1_555
H2 C6 1_555 1_555
H3 C6 1_555 1_555
H4 C6 1_555 1_555
C7 H5 1_555 1_555
C8 N1 1_555 1_555
C9 N1 1_555 1_555
C10 C9 1_555 1_555
C11 C10 1_555 1_555
H6 C11 1_555 1_555
C12 C11 1_555 1_555
H7 C12 1_555 1_555
C13 C12 1_555 1_555
H8 C13 1_555 1_555
C14 C13 1_555 1_555
H9 C14 1_555 1_555
C15 C10 1_555 1_555
H10 C15 1_555 1_555
C16 C8 1_555 1_555
C17 C4 1_555 1_555
C18 C17 1_555 1_555
H11 C18 1_555 1_555
C19 C18 1_555 1_555
H12 C19 1_555 1_555
C20 N2 1_555 1_555
H13 C20 1_555 1_555
C7 C8 1_555 1_555
C14 C15 1_555 1_555
C16 C17 1_555 1_555
C19 C20 1_555 1_555

#END
