
#######################################################################
#
#                 Cambridge Crystallographic Data Centre
#                                CCDC 
#
#######################################################################
#
# If this CIF has been generated from an entry in the Cambridge 
# Structural Database, then it will include bibliographic, chemical, 
# crystal, experimental, refinement or atomic coordinate data resulting 
# from the CCDC's data processing and validation procedures.
#
#######################################################################

data_TIQWUL
_chemical_formula_moiety         'C10 H17 Cl1 O9 S2'
_chemical_name_systematic        
'4,6-O-Ethylidene-2,3-di-O-methanesulfonyl-\a-D-glucopyranosyl chloride'
_symmetry_cell_setting           monoclinic
_symmetry_space_group_name_H-M   'P 21'
_symmetry_Int_Tables_number      4
_space_group_name_Hall           'P 2yb'
loop_
_symmetry_equiv_pos_site_id
_symmetry_equiv_pos_as_xyz
1 x,y,z
2 -x,1/2+y,-z
_cell_length_a                   10.124(4)
_cell_length_b                   9.517(4)
_cell_length_c                   18.058(8)
_cell_angle_alpha                90
_cell_angle_beta                 105.176(14)
_cell_angle_gamma                90
_cell_volume                     1679.21
_exptl_crystal_colour            colorless
_chemical_melting_point          130-132deg.C
_cell_formula_units_Z            4
loop_
_atom_site_label
_atom_site_type_symbol
_atom_site_fract_x
_atom_site_fract_y
_atom_site_fract_z
Cl1 Cl 0.59069(12) 0.57286(14) 0.40503(7)
S1 S 0.71583(12) 0.74840(14) 0.60598(6)
S2 S 0.26146(15) 0.6787(2) 0.61091(7)
O1 O 0.4392(3) 0.7978(4) 0.3533(2)
O2 O 0.1203(3) 0.7173(4) 0.4019(2)
O3 O 0.0782(4) 0.7296(5) 0.2684(2)
O4 O 0.5790(3) 0.6845(4) 0.5530(2)
O5 O 0.8101(3) 0.6348(4) 0.6195(2)
O6 O 0.7462(4) 0.8741(5) 0.5708(2)
O7 O 0.3095(3) 0.7714(4) 0.5509(2)
O8 O 0.3196(6) 0.7426(6) 0.6820(2)
O9 O 0.2865(6) 0.5374(5) 0.5998(3)
C1 C 0.5394(5) 0.7520(5) 0.4177(2)
H1 H 0.6199(5) 0.8122(5) 0.4231(2)
C2 C 0.4924(5) 0.7656(5) 0.4919(2)
H2 H 0.4982(5) 0.8647(5) 0.5073(2)
C3 C 0.3475(4) 0.7143(5) 0.4844(2)
H3 H 0.3441(4) 0.6114(5) 0.4844(2)
C4 C 0.2529(4) 0.7729(5) 0.4124(2)
H4 H 0.2495(4) 0.8754(5) 0.4163(2)
C5 C 0.3084(5) 0.7329(6) 0.3455(2)
H5 H 0.3178(5) 0.6306(6) 0.3438(2)
C6 C 0.2107(5) 0.7840(7) 0.2715(3)
H6 H 0.2083(5) 0.8859(7) 0.2704(3)
H7 H 0.2407(5) 0.7512(7) 0.2277(3)
C7 C 0.0310(5) 0.7694(7) 0.3322(3)
H8 H 0.0266(5) 0.8721(7) 0.3345(3)
C8 C -0.1069(6) 0.7097(10) 0.3252(4)
H9 H -0.1384(6) 0.7372(10) 0.3688(4)
H10 H -0.1025(6) 0.6091(10) 0.3230(4)
H11 H -0.1692(6) 0.7442(10) 0.2791(4)
C9 C 0.6737(6) 0.7878(8) 0.6910(3)
H12 H 0.6099(6) 0.8646(8) 0.6825(3)
H13 H 0.7549(6) 0.8137(8) 0.7295(3)
H14 H 0.6329(6) 0.7070(8) 0.7079(3)
C10 C 0.0914(8) 0.7158(14) 0.5854(5)
H15 H 0.0781(8) 0.8138(14) 0.5939(5)
H16 H 0.0461(8) 0.6606(14) 0.6159(5)
H17 H 0.0539(8) 0.6941(14) 0.5322(5)
Cl2 Cl 0.5023(2) 1.0595(2) 0.79501(7)
S3 S 0.80038(13) 0.8885(2) 0.98397(8)
S4 S 0.55766(12) 0.50453(14) 0.87082(6)
O10 O 0.3396(3) 1.0339(3) 0.8873(2)
O11 O 0.2191(3) 0.6765(3) 0.8373(2)
O12 O 0.0310(3) 0.8248(4) 0.8129(2)
O13 O 0.6754(3) 0.8696(4) 0.9106(2)
O14 O 0.7507(4) 0.9346(7) 1.0457(2)
O15 O 0.8979(5) 0.9656(7) 0.9606(3)
O16 O 0.5032(3) 0.6282(3) 0.9143(2)
O17 O 0.6088(4) 0.4042(4) 0.9291(2)
O18 O 0.6456(4) 0.5617(5) 0.8286(2)
C11 C 0.4766(5) 1.0218(6) 0.8900(3)
H18 H 0.5269(5) 1.0926(6) 0.9259(3)
C12 C 0.5356(4) 0.8792(5) 0.9174(2)
H19 H 0.5378(4) 0.8700(5) 0.9718(2)
C13 C 0.4535(4) 0.7584(5) 0.8745(2)
H20 H 0.4591(4) 0.7555(5) 0.8211(2)
C14 C 0.3084(4) 0.7818(5) 0.8785(2)
H21 H 0.3058(4) 0.7796(5) 0.9324(2)
C15 C 0.2558(5) 0.9223(6) 0.8444(3)
H22 H 0.2583(5) 0.9261(6) 0.7905(3)
C16 C 0.1100(5) 0.9406(6) 0.8500(3)
H23 H 0.1083(5) 0.9442(6) 0.9034(3)
H24 H 0.0723(5) 1.0277(6) 0.8255(3)
C17 C 0.0854(5) 0.6950(6) 0.8457(3)
H25 H 0.0889(5) 0.6954(6) 0.9005(3)
C18 C -0.0041(5) 0.5776(7) 0.8075(3)
H26 H -0.0948(5) 0.5909(7) 0.8135(3)
H27 H 0.0321(5) 0.4901(7) 0.8306(3)
H28 H -0.0073(5) 0.5762(7) 0.7539(3)
C19 C 0.8573(7) 0.7166(8) 1.0001(4)
H29 H 0.7903(7) 0.6618(8) 1.0164(4)
H30 H 0.9422(7) 0.7149(8) 1.0393(4)
H31 H 0.8708(7) 0.6777(8) 0.9536(4)
C20 C 0.4097(6) 0.4385(6) 0.8069(3)
H32 H 0.3748(6) 0.5065(6) 0.7673(3)
H33 H 0.3417(6) 0.4198(6) 0.8340(3)
H34 H 0.4312(6) 0.3532(6) 0.7842(3)
loop_
_geom_bond_atom_site_label_1
_geom_bond_atom_site_label_2
_geom_bond_site_symmetry_1
_geom_bond_site_symmetry_2
Cl1 C1 1_555 1_555
S1 O4 1_555 1_555
S2 O7 1_555 1_555
O1 C1 1_555 1_555
O2 C4 1_555 1_555
O3 C6 1_555 1_555
O4 C2 1_555 1_555
O5 S1 1_555 1_555
O6 S1 1_555 1_555
O7 C3 1_555 1_555
O8 S2 1_555 1_555
O9 S2 1_555 1_555
C1 H1 1_555 1_555
C2 C1 1_555 1_555
H2 C2 1_555 1_555
C3 C2 1_555 1_555
H3 C3 1_555 1_555
C4 C3 1_555 1_555
H4 C4 1_555 1_555
C5 O1 1_555 1_555
H5 C5 1_555 1_555
C6 C5 1_555 1_555
H6 C6 1_555 1_555
H7 C6 1_555 1_555
C7 O2 1_555 1_555
H8 C7 1_555 1_555
C8 C7 1_555 1_555
H9 C8 1_555 1_555
H10 C8 1_555 1_555
H11 C8 1_555 1_555
C9 S1 1_555 1_555
H12 C9 1_555 1_555
H13 C9 1_555 1_555
H14 C9 1_555 1_555
C10 S2 1_555 1_555
H15 C10 1_555 1_555
H16 C10 1_555 1_555
H17 C10 1_555 1_555
Cl2 C11 1_555 1_555
S3 O13 1_555 1_555
S4 O16 1_555 1_555
O10 C11 1_555 1_555
O11 C14 1_555 1_555
O12 C16 1_555 1_555
O13 C12 1_555 1_555
O14 S3 1_555 1_555
O15 S3 1_555 1_555
O16 C13 1_555 1_555
O17 S4 1_555 1_555
O18 S4 1_555 1_555
C11 H18 1_555 1_555
C12 C11 1_555 1_555
H19 C12 1_555 1_555
C13 C12 1_555 1_555
H20 C13 1_555 1_555
C14 C13 1_555 1_555
H21 C14 1_555 1_555
C15 O10 1_555 1_555
H22 C15 1_555 1_555
C16 C15 1_555 1_555
H23 C16 1_555 1_555
H24 C16 1_555 1_555
C17 O11 1_555 1_555
H25 C17 1_555 1_555
C18 C17 1_555 1_555
H26 C18 1_555 1_555
H27 C18 1_555 1_555
H28 C18 1_555 1_555
C19 S3 1_555 1_555
H29 C19 1_555 1_555
H30 C19 1_555 1_555
H31 C19 1_555 1_555
C20 S4 1_555 1_555
H32 C20 1_555 1_555
H33 C20 1_555 1_555
H34 C20 1_555 1_555
O3 C7 1_555 1_555
C4 C5 1_555 1_555
O12 C17 1_555 1_555
C14 C15 1_555 1_555

#END
