
#######################################################################
#
#                 Cambridge Crystallographic Data Centre
#                                CCDC 
#
#######################################################################
#
# If this CIF has been generated from an entry in the Cambridge 
# Structural Database, then it will include bibliographic, chemical, 
# crystal, experimental, refinement or atomic coordinate data resulting 
# from the CCDC's data processing and validation procedures.
#
#######################################################################

data_TIQXEY
_chemical_formula_moiety         'C44 H44 P2,0.5(C2 H3 N1)'
_chemical_name_systematic        
'(3,3,9,9-Tetramethyl-3,4,5,7,8,9-hexahydrocyclohepta[4,5]benzo[1,2][7]annulene-1,11-diyl)bis(diphenylphosphine) acetonitrile solvate'
_symmetry_cell_setting           monoclinic
_symmetry_space_group_name_H-M   'P 21/c'
_symmetry_Int_Tables_number      14
_space_group_name_Hall           '-P 2ybc'
loop_
_symmetry_equiv_pos_site_id
_symmetry_equiv_pos_as_xyz
1 x,y,z
2 -x,1/2+y,1/2-z
3 -x,-y,-z
4 x,1/2-y,1/2+z
_cell_length_a                   12.3814(4)
_cell_length_b                   11.5360(4)
_cell_length_c                   29.4117(9)
_cell_angle_alpha                90
_cell_angle_beta                 112.0760(10)
_cell_angle_gamma                90
_cell_volume                     3892.94
_exptl_crystal_colour            colorless
_exptl_crystal_description       plate
_cell_formula_units_Z            4
loop_
_atom_site_label
_atom_site_type_symbol
_atom_site_fract_x
_atom_site_fract_y
_atom_site_fract_z
P1 P -0.19849(6) -0.16342(6) -0.20168(3)
P2 P 0.19874(6) -0.18461(6) -0.06067(3)
C1 C 0.0715(2) -0.1308(2) -0.17299(9)
H1 H 0.0387 -0.1894 -0.1595
C2 C 0.0000(2) -0.0718(2) -0.21478(9)
C3 C 0.0472(2) 0.0202(2) -0.23245(9)
C4 C 0.1649(2) 0.0447(2) -0.20947(10)
H2 H 0.1967 0.1068 -0.2216
C5 C 0.2381(2) -0.0175(2) -0.16966(10)
C6 C 0.1901(2) -0.1060(2) -0.15052(9)
C7 C -0.1247(2) -0.1055(2) -0.24067(9)
C8 C -0.1757(2) -0.1083(2) -0.28986(10)
H3 H -0.2569 -0.1243 -0.3030
C9 C -0.1195(2) -0.0890(2) -0.32706(10)
C10 C -0.0719(3) 0.0355(2) -0.32499(10)
H4 H -0.0063 0.0336 -0.3365
H5 H -0.1339 0.0843 -0.3483
C11 C -0.0297(2) 0.0935(2) -0.27449(10)
H6 H 0.0135 0.1647 -0.2759
H7 H -0.0988 0.1173 -0.2675
C12 C 0.2656(2) -0.1728(2) -0.10645(9)
C13 C 0.3693(2) -0.2155(2) -0.10257(10)
H8 H 0.4141 -0.2526 -0.0725
C14 C 0.4221(2) -0.2106(3) -0.14136(10)
C15 C 0.4472(2) -0.0840(3) -0.15296(11)
H9 H 0.5284 -0.0645 -0.1317
H10 H 0.4418 -0.0811 -0.1874
C16 C 0.3665(2) 0.0098(2) -0.14608(11)
H11 H 0.3867 0.0218 -0.1105
H12 H 0.3816 0.0835 -0.1599
C17 C -0.0217(3) -0.1773(3) -0.31938(12)
H13 H 0.0395 -0.1659 -0.2869
H14 H 0.0111 -0.1664 -0.3447
H15 H -0.0532 -0.2559 -0.3217
C18 C -0.2122(3) -0.1091(3) -0.37842(11)
H16 H -0.2424 -0.1883 -0.3807
H17 H -0.1773 -0.0981 -0.4030
H18 H -0.2761 -0.0537 -0.3844
C19 C 0.3414(3) -0.2713(3) -0.18874(11)
H19 H 0.3262 -0.3509 -0.1811
H20 H 0.3792 -0.2726 -0.2126
H21 H 0.2676 -0.2288 -0.2025
C20 C 0.5387(3) -0.2762(3) -0.12280(13)
H22 H 0.5899 -0.2435 -0.0913
H23 H 0.5760 -0.2685 -0.1467
H24 H 0.5247 -0.3583 -0.1185
C21 C -0.3518(2) -0.1582(2) -0.24362(10)
C22 C -0.4089(3) -0.2624(3) -0.26156(11)
H25 H -0.3693 -0.3338 -0.2508
C23 C -0.5238(3) -0.2626(3) -0.29518(12)
H26 H -0.5621 -0.3339 -0.3073
C24 C -0.5816(3) -0.1592(3) -0.31072(12)
H27 H -0.6595 -0.1592 -0.3340
C25 C -0.5266(3) -0.0560(3) -0.29244(12)
H28 H -0.5674 0.0150 -0.3027
C26 C -0.4126(3) -0.0546(3) -0.25929(11)
H29 H -0.3754 0.0172 -0.2471
C27 C -0.1926(2) -0.0432(2) -0.16047(10)
C28 C -0.1647(2) 0.0714(3) -0.16657(11)
H30 H -0.1445 0.0914 -0.1937
C29 C -0.1661(3) 0.1563(3) -0.13356(12)
H31 H -0.1458 0.2338 -0.1379
C30 C -0.1971(3) 0.1286(3) -0.09437(11)
H32 H -0.1993 0.1872 -0.0721
C31 C -0.2247(3) 0.0163(3) -0.08767(11)
H33 H -0.2463 -0.0026 -0.0608
C32 C -0.2208(2) -0.0691(3) -0.11998(10)
H34 H -0.2378 -0.1470 -0.1145
C33 C 0.3075(3) -0.2639(3) -0.01038(10)
C34 C 0.3866(3) -0.2168(3) 0.03269(11)
H35 H 0.3906 -0.1350 0.0370
C35 C 0.4598(3) -0.2875(3) 0.06956(12)
H36 H 0.5130 -0.2538 0.0989
C36 C 0.4560(3) -0.4051(3) 0.06403(15)
H37 H 0.5058 -0.4531 0.0895
C37 C 0.3799(4) -0.4536(3) 0.02144(17)
H38 H 0.3788 -0.5353 0.0171
C38 C 0.3047(4) -0.3840(3) -0.01525(14)
H39 H 0.2505 -0.4187 -0.0441
C39 C 0.2128(2) -0.0322(3) -0.04110(10)
C40 C 0.1128(3) 0.0247(3) -0.04224(11)
H40 H 0.0415 -0.0167 -0.0514
C41 C 0.1163(3) 0.1417(3) -0.03009(13)
H41 H 0.0475 0.1796 -0.0308
C42 C 0.2189(3) 0.2021(3) -0.01707(12)
H42 H 0.2210 0.2820 -0.0089
C43 C 0.3199(3) 0.1470(3) -0.01582(12)
H43 H 0.3911 0.1887 -0.0065
C44 C 0.3158(3) 0.0309(3) -0.02830(11)
H44 H 0.3844 -0.0063 -0.0281
C45 C -0.0947(7) -0.3743(5) -0.0741(3)
H45 H -0.0269 -0.3255 -0.0568
H46 H -0.1566 -0.3580 -0.0619
H47 H -0.1230 -0.3577 -0.1094
C46 C -0.0610(6) -0.4977(5) -0.0656(2)
N1 N -0.0323(7) -0.5872(5) -0.0589(2)
loop_
_geom_bond_atom_site_label_1
_geom_bond_atom_site_label_2
_geom_bond_site_symmetry_1
_geom_bond_site_symmetry_2
P1 C7 1_555 1_555
P2 C12 1_555 1_555
C1 H1 1_555 1_555
C2 C1 1_555 1_555
C3 C2 1_555 1_555
C4 C3 1_555 1_555
H2 C4 1_555 1_555
C5 C4 1_555 1_555
C6 C1 1_555 1_555
C7 C2 1_555 1_555
C8 C7 1_555 1_555
H3 C8 1_555 1_555
C9 C8 1_555 1_555
C10 C9 1_555 1_555
H4 C10 1_555 1_555
H5 C10 1_555 1_555
C11 C3 1_555 1_555
H6 C11 1_555 1_555
H7 C11 1_555 1_555
C12 C6 1_555 1_555
C13 C12 1_555 1_555
H8 C13 1_555 1_555
C14 C13 1_555 1_555
C15 C14 1_555 1_555
H9 C15 1_555 1_555
H10 C15 1_555 1_555
C16 C5 1_555 1_555
H11 C16 1_555 1_555
H12 C16 1_555 1_555
C17 C9 1_555 1_555
H13 C17 1_555 1_555
H14 C17 1_555 1_555
H15 C17 1_555 1_555
C18 C9 1_555 1_555
H16 C18 1_555 1_555
H17 C18 1_555 1_555
H18 C18 1_555 1_555
C19 C14 1_555 1_555
H19 C19 1_555 1_555
H20 C19 1_555 1_555
H21 C19 1_555 1_555
C20 C14 1_555 1_555
H22 C20 1_555 1_555
H23 C20 1_555 1_555
H24 C20 1_555 1_555
C21 P1 1_555 1_555
C22 C21 1_555 1_555
H25 C22 1_555 1_555
C23 C22 1_555 1_555
H26 C23 1_555 1_555
C24 C23 1_555 1_555
H27 C24 1_555 1_555
C25 C24 1_555 1_555
H28 C25 1_555 1_555
C26 C21 1_555 1_555
H29 C26 1_555 1_555
C27 P1 1_555 1_555
C28 C27 1_555 1_555
H30 C28 1_555 1_555
C29 C28 1_555 1_555
H31 C29 1_555 1_555
C30 C29 1_555 1_555
H32 C30 1_555 1_555
C31 C30 1_555 1_555
H33 C31 1_555 1_555
C32 C27 1_555 1_555
H34 C32 1_555 1_555
C33 P2 1_555 1_555
C34 C33 1_555 1_555
H35 C34 1_555 1_555
C35 C34 1_555 1_555
H36 C35 1_555 1_555
C36 C35 1_555 1_555
H37 C36 1_555 1_555
C37 C36 1_555 1_555
H38 C37 1_555 1_555
C38 C33 1_555 1_555
H39 C38 1_555 1_555
C39 P2 1_555 1_555
C40 C39 1_555 1_555
H40 C40 1_555 1_555
C41 C40 1_555 1_555
H41 C41 1_555 1_555
C42 C41 1_555 1_555
H42 C42 1_555 1_555
C43 C42 1_555 1_555
H43 C43 1_555 1_555
C44 C39 1_555 1_555
H44 C44 1_555 1_555
C45 H45 1_555 1_555
H46 C45 1_555 1_555
H47 C45 1_555 1_555
C46 C45 1_555 1_555
N1 C46 1_555 1_555
C5 C6 1_555 1_555
C10 C11 1_555 1_555
C15 C16 1_555 1_555
C25 C26 1_555 1_555
C31 C32 1_555 1_555
C37 C38 1_555 1_555
C43 C44 1_555 1_555

#END
