
#######################################################################
#
#                 Cambridge Crystallographic Data Centre
#                                CCDC 
#
#######################################################################
#
# If this CIF has been generated from an entry in the Cambridge 
# Structural Database, then it will include bibliographic, chemical, 
# crystal, experimental, refinement or atomic coordinate data resulting 
# from the CCDC's data processing and validation procedures.
#
#######################################################################

data_TIRCUU
_chemical_formula_moiety         'C23 H20 N4 O4 S1'
_chemical_name_systematic        
'3-((5R,8S,9R)-1-methyl-4-oxo-3,9-diphenyl-6-thioxo-2,3,7-triazaspiro[4.4]non-1-enecarbonyl)oxazolidin-2-one unknown solvate'
_symmetry_cell_setting           monoclinic
_symmetry_space_group_name_H-M   'P 21/c'
_symmetry_Int_Tables_number      14
_space_group_name_Hall           '-P 2ybc'
loop_
_symmetry_equiv_pos_site_id
_symmetry_equiv_pos_as_xyz
1 x,y,z
2 -x,1/2+y,1/2-z
3 -x,-y,-z
4 x,1/2-y,1/2+z
_cell_length_a                   14.07(2)
_cell_length_b                   11.657(17)
_cell_length_c                   15.58(2)
_cell_angle_alpha                90
_cell_angle_beta                 106.582(15)
_cell_angle_gamma                90
_cell_volume                     2449.07
_exptl_crystal_colour            yellow
_exptl_crystal_description       block
_cell_formula_units_Z            4
loop_
_atom_site_label
_atom_site_type_symbol
_atom_site_fract_x
_atom_site_fract_y
_atom_site_fract_z
C1 C 0.8394(3) 1.0842(4) -0.0666(2)
C2 C 0.7782(3) 1.0790(5) -0.1540(3)
H1 H 0.7127 1.0553 -0.1652
C3 C 0.8150(4) 1.1092(5) -0.2248(2)
H2 H 0.7740 1.1057 -0.2833
C4 C 0.9129(4) 1.1446(4) -0.2081(3)
H3 H 0.9375 1.1649 -0.2555
C5 C 0.9741(3) 1.1499(5) -0.1206(4)
H4 H 1.0396 1.1736 -0.1095
C6 C 0.9373(3) 1.1197(5) -0.0499(3)
H5 H 0.9783 1.1232 0.0087
C7 C 0.5944(5) 0.5970(5) 0.0817(4)
C8 C 0.5321(6) 0.4648(5) 0.1606(4)
H6 H 0.5682 0.4145 0.2084
H7 H 0.4685 0.4302 0.1310
C9 C 0.5184(5) 0.5801(5) 0.1965(4)
H8 H 0.4495 0.5937 0.1933
H9 H 0.5589 0.5889 0.2579
C10 C 0.5360(4) 0.7712(5) 0.1397(4)
C11 C 0.5859(4) 0.8514(4) 0.0875(3)
H10 H 0.5624 0.8325 0.0236
C12 C 0.6983(4) 0.8544(4) 0.1163(3)
H11 H 0.7225 0.8068 0.0751
C13 C 0.7195(4) 0.9835(4) 0.1001(3)
C14 C 0.6278(4) 1.0442(5) 0.1103(3)
C15 C 0.7477(4) 0.8152(4) 0.2111(4)
C16 C 0.7158(4) 0.8532(5) 0.2821(4)
H12 H 0.6636 0.9052 0.2722
C17 C 0.7608(5) 0.8146(7) 0.3680(4)
H13 H 0.7387 0.8396 0.4157
C18 C 0.8375(6) 0.7401(8) 0.3821(5)
H14 H 0.8697 0.7162 0.4401
C19 C 0.8680(6) 0.6999(7) 0.3129(5)
H15 H 0.9189 0.6463 0.3231
C20 C 0.8236(5) 0.7383(5) 0.2278(4)
H16 H 0.8457 0.7114 0.1807
C21 C 0.8184(4) 1.0367(5) 0.1457(4)
C22 C 0.7176(4) 0.9990(4) 0.0020(4)
C23 C 0.8615(5) 1.0532(5) 0.2440(4)
H17 H 0.8804 0.9801 0.2721
H18 H 0.8131 1.0883 0.2683
H19 H 0.9188 1.1017 0.2549
N1 N 0.5513(3) 0.6563(3) 0.1364(3)
N2 N 0.5579(3) 0.9676(4) 0.1006(3)
H20 H 0.4989 0.9853 0.1018
N3 N 0.8634(3) 1.0752(4) 0.0921(3)
N4 N 0.8049(3) 1.0517(4) 0.0044(3)
O1 O 0.6329(3) 0.6349(3) 0.0277(3)
O2 O 0.5885(3) 0.4854(3) 0.0973(3)
O3 O 0.4873(3) 0.8093(3) 0.1847(3)
O4 O 0.6521(3) 0.9713(3) -0.0630(2)
S1 S 0.62018(13) 1.18281(13) 0.12405(12)
loop_
_geom_bond_atom_site_label_1
_geom_bond_atom_site_label_2
_geom_bond_site_symmetry_1
_geom_bond_site_symmetry_2
C1 C2 1_555 1_555
C2 H1 1_555 1_555
C3 C2 1_555 1_555
H2 C3 1_555 1_555
C4 C3 1_555 1_555
H3 C4 1_555 1_555
C5 C4 1_555 1_555
H4 C5 1_555 1_555
C6 C1 1_555 1_555
H5 C6 1_555 1_555
C7 N1 1_555 1_555
C8 H6 1_555 1_555
H7 C8 1_555 1_555
C9 C8 1_555 1_555
H8 C9 1_555 1_555
H9 C9 1_555 1_555
C10 C11 1_555 1_555
C11 H10 1_555 1_555
C12 C11 1_555 1_555
H11 C12 1_555 1_555
C13 C12 1_555 1_555
C14 C13 1_555 1_555
C15 C12 1_555 1_555
C16 C15 1_555 1_555
H12 C16 1_555 1_555
C17 C16 1_555 1_555
H13 C17 1_555 1_555
C18 C17 1_555 1_555
H14 C18 1_555 1_555
C19 C18 1_555 1_555
H15 C19 1_555 1_555
C20 C15 1_555 1_555
H16 C20 1_555 1_555
C21 C13 1_555 1_555
C22 C13 1_555 1_555
C23 C21 1_555 1_555
H17 C23 1_555 1_555
H18 C23 1_555 1_555
H19 C23 1_555 1_555
N1 C9 1_555 1_555
N2 C11 1_555 1_555
H20 N2 1_555 1_555
N3 C21 1_555 1_555
N4 C1 1_555 1_555
O1 C7 1_555 1_555
O2 C7 1_555 1_555
O3 C10 1_555 1_555
O4 C22 1_555 1_555
S1 C14 1_555 1_555
C5 C6 1_555 1_555
C8 O2 1_555 1_555
C10 N1 1_555 1_555
C14 N2 1_555 1_555
C19 C20 1_555 1_555
C22 N4 1_555 1_555
N3 N4 1_555 1_555

#END
