
#######################################################################
#
#                 Cambridge Crystallographic Data Centre
#                                CCDC 
#
#######################################################################
#
# If this CIF has been generated from an entry in the Cambridge 
# Structural Database, then it will include bibliographic, chemical, 
# crystal, experimental, refinement or atomic coordinate data resulting 
# from the CCDC's data processing and validation procedures.
#
#######################################################################

data_TIRDOP
_chemical_formula_moiety         'C19 H16 Cl1 N1 O4'
_chemical_name_systematic        
7-Chloro-3-hydroxy-3-(4-(3-methoxyphenyl)-4-oxobut-2-en-1-yl)-1,3-dihydro-2H-indol-2-one
_symmetry_cell_setting           monoclinic
_symmetry_space_group_name_H-M   'P 21/n'
_symmetry_Int_Tables_number      14
_space_group_name_Hall           '-P 2yn'
loop_
_symmetry_equiv_pos_site_id
_symmetry_equiv_pos_as_xyz
1 x,y,z
2 1/2-x,1/2+y,1/2-z
3 -x,-y,-z
4 1/2+x,1/2-y,1/2+z
_cell_length_a                   7.739(8)
_cell_length_b                   12.167(13)
_cell_length_c                   18.029(20)
_cell_angle_alpha                90
_cell_angle_beta                 101.89(2)
_cell_angle_gamma                90
_cell_volume                     1661.2
_cell_formula_units_Z            4
loop_
_atom_site_label
_atom_site_type_symbol
_atom_site_fract_x
_atom_site_fract_y
_atom_site_fract_z
C1 C 0.7671(7) -0.1069(5) -0.0278(3)
H1 H 0.7312 -0.0375 -0.0154
C2 C 0.9029(9) -0.1199(6) -0.0684(4)
H2 H 0.9561 -0.0577 -0.0837
C3 C 0.9570(8) -0.2181(5) -0.0853(4)
H3 H 1.0489 -0.2245 -0.1111
C4 C 0.8767(9) -0.3109(5) -0.0645(4)
C5 C 0.7420(7) -0.3023(5) -0.0263(3)
C6 C 0.6908(7) -0.1989(4) -0.0077(3)
C7 C 0.5413(7) -0.2159(4) 0.0345(3)
C8 C 0.5116(8) -0.3389(5) 0.0268(3)
C9 C 0.5956(8) -0.1916(5) 0.1209(3)
H4 H 0.5018 -0.2152 0.1457
H5 H 0.7009 -0.2333 0.1424
C10 C 0.6301(8) -0.0742(5) 0.1356(3)
H6 H 0.7183 -0.0424 0.1146
C11 C 0.5476(8) -0.0098(5) 0.1756(3)
H7 H 0.4624 -0.0403 0.1990
C12 C 0.5850(7) 0.1083(4) 0.1849(3)
C13 C 0.5160(7) 0.1714(5) 0.2431(3)
C14 C 0.4759(8) 0.1186(5) 0.3058(3)
H8 H 0.4870 0.0428 0.3113
C15 C 0.4187(9) 0.1822(6) 0.3597(4)
H9 H 0.3924 0.1484 0.4023
C16 C 0.4002(8) 0.2926(6) 0.3519(4)
H10 H 0.3621 0.3334 0.3892
C17 C 0.4378(8) 0.3452(5) 0.2889(3)
C18 C 0.4979(8) 0.2842(5) 0.2344(3)
H11 H 0.5259 0.3187 0.1923
C19 C 0.4587(11) 0.5124(6) 0.2243(5)
H12 H 0.5848 0.5149 0.2305
H13 H 0.4130 0.5859 0.2229
H14 H 0.4088 0.4754 0.1778
Cl1 Cl 0.9238(6) -0.4114(3) -0.0841(3)
N1 N 0.6391(7) -0.3854(4) -0.0045(3)
O1 O 0.3914(6) -0.3909(3) 0.0458(3)
O2 O 0.3869(5) -0.1544(3) 0.0080(2)
H15 H 0.3747 -0.1444 -0.0377
O3 O 0.6718(6) 0.1546(3) 0.1458(2)
O4 O 0.4136(7) 0.4547(4) 0.2859(3)
loop_
_geom_bond_atom_site_label_1
_geom_bond_atom_site_label_2
_geom_bond_site_symmetry_1
_geom_bond_site_symmetry_2
C1 H1 1_555 1_555
C2 C1 1_555 1_555
H2 C2 1_555 1_555
C3 C2 1_555 1_555
H3 C3 1_555 1_555
C4 C3 1_555 1_555
C5 C4 1_555 1_555
C6 C1 1_555 1_555
C7 C6 1_555 1_555
C8 C7 1_555 1_555
C9 C7 1_555 1_555
H4 C9 1_555 1_555
H5 C9 1_555 1_555
C10 C9 1_555 1_555
H6 C10 1_555 1_555
C11 C10 1_555 1_555
H7 C11 1_555 1_555
C12 C11 1_555 1_555
C13 C12 1_555 1_555
C14 C13 1_555 1_555
H8 C14 1_555 1_555
C15 C14 1_555 1_555
H9 C15 1_555 1_555
C16 C15 1_555 1_555
H10 C16 1_555 1_555
C17 C16 1_555 1_555
C18 C13 1_555 1_555
H11 C18 1_555 1_555
C19 H12 1_555 1_555
H13 C19 1_555 1_555
H14 C19 1_555 1_555
Cl1 C4 1_555 1_555
N1 C5 1_555 1_555
O1 C8 1_555 1_555
O2 C7 1_555 1_555
H15 O2 1_555 1_555
O3 C12 1_555 1_555
O4 C17 1_555 1_555
C5 C6 1_555 1_555
C8 N1 1_555 1_555
C17 C18 1_555 1_555
C19 O4 1_555 1_555

#END
