
#######################################################################
#
#                 Cambridge Crystallographic Data Centre
#                                CCDC 
#
#######################################################################
#
# If this CIF has been generated from an entry in the Cambridge 
# Structural Database, then it will include bibliographic, chemical, 
# crystal, experimental, refinement or atomic coordinate data resulting 
# from the CCDC's data processing and validation procedures.
#
#######################################################################

data_TIRGEI
_chemical_formula_moiety         'C15 H20 O5'
_chemical_name_systematic        
3-((2,4-Dimethoxy-6-methylphenyl)(hydroxy)methyl)-4-methyldihydrofuran-2(3H)-one
_symmetry_cell_setting           triclinic
_symmetry_space_group_name_H-M   'P 1'
_symmetry_Int_Tables_number      1
_space_group_name_Hall           'P 1'
loop_
_symmetry_equiv_pos_site_id
_symmetry_equiv_pos_as_xyz
1 x,y,z
_cell_length_a                   7.359(5)
_cell_length_b                   7.989(5)
_cell_length_c                   12.405(5)
_cell_angle_alpha                83.867(5)
_cell_angle_beta                 80.951(5)
_cell_angle_gamma                87.080(5)
_cell_volume                     715.671
_cell_formula_units_Z            2
loop_
_atom_site_label
_atom_site_type_symbol
_atom_site_fract_x
_atom_site_fract_y
_atom_site_fract_z
O1 O 0.7473(9) 0.8405(10) 1.3740(6)
O2 O 1.1340(9) 1.0501(9) 1.6081(5)
C1 C 1.0327(12) 0.9554(10) 1.2995(7)
O3 O 1.1020(8) 0.5717(8) 1.0232(5)
O4 O 1.0505(10) 0.8370(10) 0.9547(5)
C2 C 0.9285(12) 0.9381(10) 1.4979(7)
H1 H 0.8423 0.9038 1.5584
C3 C 1.2169(12) 1.0686(11) 1.4208(7)
H2 H 1.3185 1.1264 1.4307
O5 O 1.0056(10) 1.0708(8) 1.1146(5)
H3 H 0.9846 1.0493 1.0547
C4 C 1.1372(15) 0.4863(12) 1.1223(9)
H4 H 1.2652 0.4475 1.1151
H5 H 1.0611 0.3885 1.1403
C5 C 1.0888(11) 1.0170(10) 1.5095(7)
C6 C 0.9944(15) 0.9182(11) 1.1901(7)
H6 H 0.8667 0.8829 1.2004
C7 C 0.9037(12) 0.9131(9) 1.3924(7)
C8 C 1.0859(11) 0.7384(12) 1.0322(8)
C9 C 1.1140(13) 0.7743(11) 1.1458(6)
H7 H 1.2421 0.8063 1.1404
C10 C 1.0964(11) 0.6012(9) 1.2135(7)
H8 H 0.9678 0.5887 1.2478
C11 C 1.3677(18) 1.0799(13) 1.2220(7)
H9 H 1.4584 1.1301 1.2548
H10 H 1.3292 1.1580 1.1649
H11 H 1.4197 0.9795 1.1914
C12 C 1.0120(16) 0.9925(14) 1.7048(8)
H12 H 1.0597 1.0193 1.7684
H13 H 1.0013 0.8728 1.7079
H14 H 0.8929 1.0468 1.7031
C13 C 1.1940(13) 1.0332(9) 1.3132(6)
C14 C 1.2136(15) 0.5698(11) 1.2993(8)
H15 H 1.1922 0.4595 1.3369
H16 H 1.1849 0.6527 1.3506
H17 H 1.3406 0.5766 1.2666
C15 C 0.6167(12) 0.8017(11) 1.4599(8)
H18 H 0.5162 0.7522 1.4355
H19 H 0.5733 0.9020 1.4934
H20 H 0.6670 0.7229 1.5124
O6 O 0.6832(10) 0.4871(9) 1.1257(5)
O7 O 0.6094(8) 0.2713(7) 0.4757(4)
C16 C 0.5492(11) 0.2929(10) 0.7679(8)
O8 O 0.7336(11) 0.2576(8) 0.9658(6)
H21 H 0.7517 0.2766 1.0269
O9 O 0.6387(10) 0.7512(8) 1.0619(6)
C17 C 1.1343(16) 0.5275(17) 0.6260(11)
H22 H 1.2283 0.5797 0.6550
H23 H 1.0897 0.6040 0.5702
H24 H 1.1846 0.4269 0.5950
C18 C 0.5295(15) 0.7632(14) 0.7775(9)
H25 H 0.5634 0.6851 0.7234
H26 H 0.5583 0.8752 0.7452
H27 H 0.3998 0.7584 0.8037
C19 C 0.8376(11) 0.4111(10) 0.6912(7)
C20 C 0.6484(12) 0.3072(10) 0.5737(7)
O10 O 0.9900(10) 0.4867(9) 0.7097(6)
C21 C 0.7435(13) 0.4049(11) 0.8972(7)
H28 H 0.8708 0.4407 0.8883
C22 C 0.6203(11) 0.5516(10) 0.9389(6)
H29 H 0.4919 0.5196 0.9456
C23 C 0.7272(15) 0.3281(12) 0.3797(7)
H30 H 0.6847 0.2910 0.3172
H31 H 0.8497 0.2833 0.3837
H32 H 0.7276 0.4490 0.3725
C24 C 0.6386(13) 0.7159(12) 0.8754(7)
H33 H 0.7693 0.7251 0.8449
C25 C 0.5196(12) 0.2633(10) 0.6667(7)
H34 H 0.4118 0.2130 0.6589
C26 C 0.6556(12) 0.5871(12) 1.0515(7)
C27 C 0.8065(11) 0.3795(10) 0.5873(7)
H35 H 0.8946 0.4080 0.5265
C28 C 0.4052(12) 0.2508(10) 0.8612(7)
H36 H 0.3054 0.2008 0.8364
H37 H 0.3609 0.3514 0.8943
H38 H 0.4548 0.1726 0.9143
C29 C 0.7092(11) 0.3654(9) 0.7845(7)
C30 C 0.5967(14) 0.8457(11) 0.9593(8)
H39 H 0.6743 0.9421 0.9385
H40 H 0.4687 0.8842 0.9666
loop_
_geom_bond_atom_site_label_1
_geom_bond_atom_site_label_2
_geom_bond_site_symmetry_1
_geom_bond_site_symmetry_2
O1 C7 1_555 1_555
O2 C5 1_555 1_555
C1 C6 1_555 1_555
O3 C4 1_555 1_555
O4 C8 1_555 1_555
C2 H1 1_555 1_555
C3 H2 1_555 1_555
O5 H3 1_555 1_555
C4 H4 1_555 1_555
H5 C4 1_555 1_555
C5 C2 1_555 1_555
C6 O5 1_555 1_555
H6 C6 1_555 1_555
C7 C1 1_555 1_555
C8 O3 1_555 1_555
C9 C6 1_555 1_555
H7 C9 1_555 1_555
C10 C4 1_555 1_555
H8 C10 1_555 1_555
C11 H9 1_555 1_555
H10 C11 1_555 1_555
H11 C11 1_555 1_555
C12 O2 1_555 1_555
H12 C12 1_555 1_555
H13 C12 1_555 1_555
H14 C12 1_555 1_555
C13 C1 1_555 1_555
C14 C10 1_555 1_555
H15 C14 1_555 1_555
H16 C14 1_555 1_555
H17 C14 1_555 1_555
C15 O1 1_555 1_555
H18 C15 1_555 1_555
H19 C15 1_555 1_555
H20 C15 1_555 1_555
O6 C26 1_555 1_555
O7 C20 1_555 1_555
C16 C25 1_555 1_555
O8 H21 1_555 1_555
O9 C26 1_555 1_555
C17 H22 1_555 1_555
H23 C17 1_555 1_555
H24 C17 1_555 1_555
C18 H25 1_555 1_555
H26 C18 1_555 1_555
H27 C18 1_555 1_555
C19 O10 1_555 1_555
C20 C25 1_555 1_555
O10 C17 1_555 1_555
C21 O8 1_555 1_555
H28 C21 1_555 1_555
C22 C21 1_555 1_555
H29 C22 1_555 1_555
C23 O7 1_555 1_555
H30 C23 1_555 1_555
H31 C23 1_555 1_555
H32 C23 1_555 1_555
C24 C18 1_555 1_555
H33 C24 1_555 1_555
C25 H34 1_555 1_555
C26 C22 1_555 1_555
C27 C19 1_555 1_555
H35 C27 1_555 1_555
C28 C16 1_555 1_555
H36 C28 1_555 1_555
H37 C28 1_555 1_555
H38 C28 1_555 1_555
C29 C16 1_555 1_555
C30 O9 1_555 1_555
H39 C30 1_555 1_555
H40 C30 1_555 1_555
C2 C7 1_555 1_555
C3 C5 1_555 1_555
C3 C13 1_555 1_555
C8 C9 1_555 1_555
C9 C10 1_555 1_555
C11 C13 1_555 1_555
C19 C29 1_555 1_555
C20 C27 1_555 1_555
C21 C29 1_555 1_555
C22 C24 1_555 1_555
C24 C30 1_555 1_555

#END
