
#######################################################################
#
#                 Cambridge Crystallographic Data Centre
#                                CCDC 
#
#######################################################################
#
# If this CIF has been generated from an entry in the Cambridge 
# Structural Database, then it will include bibliographic, chemical, 
# crystal, experimental, refinement or atomic coordinate data resulting 
# from the CCDC's data processing and validation procedures.
#
#######################################################################

data_TIRKIQ
_chemical_formula_moiety         'C60 H62 N4'
_chemical_name_systematic        5,10,15,20-tetrakis(4-t-Butylphenyl)porphyrin
_symmetry_cell_setting           monoclinic
_symmetry_space_group_name_H-M   'P 21/c'
_symmetry_Int_Tables_number      14
_space_group_name_Hall           '-P 2ybc'
loop_
_symmetry_equiv_pos_site_id
_symmetry_equiv_pos_as_xyz
1 x,y,z
2 -x,1/2+y,1/2-z
3 -x,-y,-z
4 x,1/2-y,1/2+z
_cell_length_a                   13.637(3)
_cell_length_b                   16.274(3)
_cell_length_c                   11.482(2)
_cell_angle_alpha                90
_cell_angle_beta                 105.93(3)
_cell_angle_gamma                90
_cell_volume                     2450.33
_exptl_crystal_colour            violet
_exptl_crystal_description       prism
_cell_formula_units_Z            2
loop_
_atom_site_label
_atom_site_type_symbol
_atom_site_fract_x
_atom_site_fract_y
_atom_site_fract_z
N1 N 0.38363(17) 0.04687(14) 0.0605(2)
H1 H 0.4299 0.0278 0.0299
N2 N 0.55377(18) 0.11826(14) -0.0109(2)
C1 C 0.6418(2) 0.13787(18) -0.0431(2)
C2 C 0.3684(2) 0.12707(18) 0.0850(2)
C3 C 0.2257(2) -0.17507(19) 0.2164(3)
H2 H 0.2920 -0.1905 0.2564
C4 C 0.4256(2) 0.19476(18) 0.0646(2)
C5 C 0.3109(2) 0.00297(18) 0.0944(2)
C6 C 0.5125(2) 0.18914(17) 0.0232(2)
C7 C 0.5783(2) 0.25538(18) 0.0122(3)
H3 H 0.5694 0.3103 0.0291
C8 C 0.2830(2) 0.13394(19) 0.1366(3)
H4 H 0.2572 0.1821 0.1603
C9 C 0.3983(2) 0.30893(18) 0.2022(3)
H5 H 0.4272 0.2761 0.2691
C10 C 0.3201(2) 0.43862(18) 0.1218(3)
C11 C 0.6559(2) 0.22422(18) -0.0272(3)
H6 H 0.7094 0.2543 -0.0415
C12 C 0.2967(2) -0.08280(18) 0.0845(2)
C13 C 0.2091(2) -0.11911(18) 0.1212(3)
C14 C 0.1454(2) -0.2080(2) 0.2523(3)
H7 H 0.1589 -0.2450 0.3166
C15 C 0.3913(2) 0.27932(18) 0.0864(3)
C16 C 0.1083(2) -0.09857(19) 0.0630(3)
H8 H 0.0950 -0.0619 -0.0016
C17 C 0.0438(2) -0.18718(18) 0.1947(3)
C18 C 0.2483(2) 0.05757(19) 0.1436(3)
H9 H 0.1944 0.0425 0.1742
C19 C -0.1470(2) -0.1955(2) 0.1628(3)
H10 H -0.1506 -0.1367 0.1646
H11 H -0.1990 -0.2185 0.1950
H12 H -0.1573 -0.2137 0.0808
C20 C -0.0422(2) -0.2239(2) 0.2394(3)
C21 C -0.0384(3) -0.3181(2) 0.2324(4)
H13 H -0.0442 -0.3344 0.1504
H14 H -0.0939 -0.3411 0.2580
H15 H 0.0251 -0.3375 0.2842
C22 C 0.3630(2) 0.38685(18) 0.2194(3)
H16 H 0.3680 0.4049 0.2977
C23 C 0.2858(3) 0.52550(19) 0.1448(3)
C24 C -0.0295(3) -0.1972(2) 0.3707(3)
H17 H 0.0347 -0.2167 0.4207
H18 H -0.0839 -0.2199 0.3988
H19 H -0.0314 -0.1383 0.3747
C25 C 0.3511(2) 0.33190(19) -0.0100(3)
H20 H 0.3479 0.3147 -0.0882
C26 C 0.0275(2) -0.13136(19) 0.0991(3)
H21 H -0.0388 -0.1159 0.0588
C27 C 0.3156(3) 0.4094(2) 0.0075(3)
H22 H 0.2881 0.4426 -0.0594
C28 C 0.2180(3) 0.5644(2) 0.0285(3)
H23 H 0.2569 0.5718 -0.0288
H24 H 0.1937 0.6167 0.0473
H25 H 0.1611 0.5290 -0.0055
C29 C 0.3815(3) 0.5781(2) 0.1917(3)
H26 H 0.4248 0.5534 0.2635
H27 H 0.3623 0.6322 0.2103
H28 H 0.4175 0.5815 0.1308
C30 C 0.2259(3) 0.5251(2) 0.2392(4)
H29 H 0.1660 0.4917 0.2109
H30 H 0.2062 0.5803 0.2522
H31 H 0.2677 0.5031 0.3139
N1B N 0.61637(17) -0.04687(14) -0.0605(2)
H1B H 0.5701 -0.0278 -0.0299
N2B N 0.44623(18) -0.11826(14) 0.0109(2)
C1B C 0.3582(2) -0.13787(18) 0.0431(2)
C2B C 0.6316(2) -0.12707(18) -0.0850(2)
C3B C 0.7743(2) 0.17507(19) -0.2164(3)
H2B H 0.7080 0.1905 -0.2564
C4B C 0.5744(2) -0.19476(18) -0.0646(2)
C5B C 0.6891(2) -0.00297(18) -0.0944(2)
C6B C 0.4875(2) -0.18914(17) -0.0232(2)
C7B C 0.4217(2) -0.25538(18) -0.0122(3)
H3B H 0.4306 -0.3103 -0.0291
C8B C 0.7170(2) -0.13394(19) -0.1366(3)
H4B H 0.7428 -0.1821 -0.1603
C9B C 0.6017(2) -0.30893(18) -0.2022(3)
H5B H 0.5728 -0.2761 -0.2691
C10B C 0.6799(2) -0.43862(18) -0.1218(3)
C11B C 0.3441(2) -0.22422(18) 0.0272(3)
H6B H 0.2906 -0.2543 0.0415
C12B C 0.7033(2) 0.08280(18) -0.0845(2)
C13B C 0.7909(2) 0.11911(18) -0.1212(3)
C14B C 0.8546(2) 0.2080(2) -0.2523(3)
H7B H 0.8411 0.2450 -0.3166
C15B C 0.6087(2) -0.27932(18) -0.0864(3)
C16B C 0.8917(2) 0.09857(19) -0.0630(3)
H8B H 0.9050 0.0619 0.0016
C17B C 0.9562(2) 0.18718(18) -0.1947(3)
C18B C 0.7517(2) -0.05757(19) -0.1436(3)
H9B H 0.8056 -0.0425 -0.1742
C19B C 1.1470(2) 0.1955(2) -0.1628(3)
H10B H 1.1506 0.1367 -0.1646
H11B H 1.1990 0.2185 -0.1950
H12B H 1.1573 0.2137 -0.0808
C20B C 1.0422(2) 0.2239(2) -0.2394(3)
C21B C 1.0384(3) 0.3181(2) -0.2324(4)
H13B H 1.0442 0.3344 -0.1504
H14B H 1.0939 0.3411 -0.2580
H15B H 0.9749 0.3375 -0.2842
C22B C 0.6370(2) -0.38685(18) -0.2194(3)
H16B H 0.6320 -0.4049 -0.2977
C23B C 0.7142(3) -0.52550(19) -0.1448(3)
C24B C 1.0295(3) 0.1972(2) -0.3707(3)
H17B H 0.9653 0.2167 -0.4207
H18B H 1.0839 0.2199 -0.3988
H19B H 1.0314 0.1383 -0.3747
C25B C 0.6489(2) -0.33190(19) 0.0100(3)
H20B H 0.6521 -0.3147 0.0882
C26B C 0.9725(2) 0.13136(19) -0.0991(3)
H21B H 1.0388 0.1159 -0.0588
C27B C 0.6844(3) -0.4094(2) -0.0075(3)
H22B H 0.7119 -0.4426 0.0594
C28B C 0.7820(3) -0.5644(2) -0.0285(3)
H23B H 0.7431 -0.5718 0.0288
H24B H 0.8063 -0.6167 -0.0473
H25B H 0.8389 -0.5290 0.0055
C29B C 0.6185(3) -0.5781(2) -0.1917(3)
H26B H 0.5752 -0.5534 -0.2635
H27B H 0.6377 -0.6322 -0.2103
H28B H 0.5825 -0.5815 -0.1308
C30B C 0.7741(3) -0.5251(2) -0.2392(4)
H29B H 0.8340 -0.4917 -0.2109
H30B H 0.7938 -0.5803 -0.2522
H31B H 0.7323 -0.5031 -0.3139
loop_
_geom_bond_atom_site_label_1
_geom_bond_atom_site_label_2
_geom_bond_site_symmetry_1
_geom_bond_site_symmetry_2
N1 H1 1_555 1_555
N2 C1 1_555 1_555
C1 C11 1_555 1_555
C2 N1 1_555 1_555
C3 H2 1_555 1_555
C4 C2 1_555 1_555
C5 N1 1_555 1_555
C6 N2 1_555 1_555
C7 C6 1_555 1_555
H3 C7 1_555 1_555
C8 C2 1_555 1_555
H4 C8 1_555 1_555
C9 H5 1_555 1_555
C10 C22 1_555 1_555
C11 C7 1_555 1_555
H6 C11 1_555 1_555
C12 C5 1_555 1_555
C13 C3 1_555 1_555
C14 C3 1_555 1_555
H7 C14 1_555 1_555
C15 C4 1_555 1_555
C16 C13 1_555 1_555
H8 C16 1_555 1_555
C17 C14 1_555 1_555
C18 C5 1_555 1_555
H9 C18 1_555 1_555
C19 H10 1_555 1_555
H11 C19 1_555 1_555
H12 C19 1_555 1_555
C20 C17 1_555 1_555
C21 C20 1_555 1_555
H13 C21 1_555 1_555
H14 C21 1_555 1_555
H15 C21 1_555 1_555
C22 C9 1_555 1_555
H16 C22 1_555 1_555
C23 C10 1_555 1_555
C24 C20 1_555 1_555
H17 C24 1_555 1_555
H18 C24 1_555 1_555
H19 C24 1_555 1_555
C25 C15 1_555 1_555
H20 C25 1_555 1_555
C26 C16 1_555 1_555
H21 C26 1_555 1_555
C27 C10 1_555 1_555
H22 C27 1_555 1_555
C28 C23 1_555 1_555
H23 C28 1_555 1_555
H24 C28 1_555 1_555
H25 C28 1_555 1_555
C29 C23 1_555 1_555
H26 C29 1_555 1_555
H27 C29 1_555 1_555
H28 C29 1_555 1_555
C30 C23 1_555 1_555
H29 C30 1_555 1_555
H30 C30 1_555 1_555
H31 C30 1_555 1_555
N1B H1B 1_555 1_555
N2B C1B 1_555 1_555
C1B C12 1_555 1_555
C2B N1B 1_555 1_555
C3B H2B 1_555 1_555
C4B C2B 1_555 1_555
C5B N1B 1_555 1_555
C6B N2B 1_555 1_555
C7B C6B 1_555 1_555
H3B C7B 1_555 1_555
C8B C2B 1_555 1_555
H4B C8B 1_555 1_555
C9B H5B 1_555 1_555
C10B C22B 1_555 1_555
C11B C1B 1_555 1_555
H6B C11B 1_555 1_555
C12B C1 1_555 1_555
C13B C3B 1_555 1_555
C14B C3B 1_555 1_555
H7B C14B 1_555 1_555
C15B C4B 1_555 1_555
C16B C13B 1_555 1_555
H8B C16B 1_555 1_555
C17B C14B 1_555 1_555
C18B C5B 1_555 1_555
H9B C18B 1_555 1_555
C19B H10B 1_555 1_555
H11B C19B 1_555 1_555
H12B C19B 1_555 1_555
C20B C17B 1_555 1_555
C21B C20B 1_555 1_555
H13B C21B 1_555 1_555
H14B C21B 1_555 1_555
H15B C21B 1_555 1_555
C22B C9B 1_555 1_555
H16B C22B 1_555 1_555
C23B C10B 1_555 1_555
C24B C20B 1_555 1_555
H17B C24B 1_555 1_555
H18B C24B 1_555 1_555
H19B C24B 1_555 1_555
C25B C15B 1_555 1_555
H20B C25B 1_555 1_555
C26B C16B 1_555 1_555
H21B C26B 1_555 1_555
C27B C10B 1_555 1_555
H22B C27B 1_555 1_555
C28B C23B 1_555 1_555
H23B C28B 1_555 1_555
H24B C28B 1_555 1_555
H25B C28B 1_555 1_555
C29B C23B 1_555 1_555
H26B C29B 1_555 1_555
H27B C29B 1_555 1_555
H28B C29B 1_555 1_555
C30B C23B 1_555 1_555
H29B C30B 1_555 1_555
H30B C30B 1_555 1_555
H31B C30B 1_555 1_555
C4 C6 1_555 1_555
C8 C18 1_555 1_555
C9 C15 1_555 1_555
C12 C13 1_555 1_555
C17 C26 1_555 1_555
C19 C20 1_555 1_555
C25 C27 1_555 1_555
C4B C6B 1_555 1_555
C5B C12B 1_555 1_555
C7B C11B 1_555 1_555
C8B C18B 1_555 1_555
C9B C15B 1_555 1_555
C12B C13B 1_555 1_555
C17B C26B 1_555 1_555
C19B C20B 1_555 1_555
C25B C27B 1_555 1_555

#END
