
#######################################################################
#
#                 Cambridge Crystallographic Data Centre
#                                CCDC 
#
#######################################################################
#
# If this CIF has been generated from an entry in the Cambridge 
# Structural Database, then it will include bibliographic, chemical, 
# crystal, experimental, refinement or atomic coordinate data resulting 
# from the CCDC's data processing and validation procedures.
#
#######################################################################

data_TIRKEK
_chemical_formula_moiety         'C36 H62 Li2 N8 Si4'
_chemical_name_systematic        
bis((\m~2~-4-Methyl-2-(trimethylsilylamino)pyridinato)-(4-methyl-2-(trimethylsilylamino)pyridine)-lithium)
_symmetry_cell_setting           monoclinic
_symmetry_space_group_name_H-M   'P 21/n'
_symmetry_Int_Tables_number      14
_space_group_name_Hall           '-P 2yn'
loop_
_symmetry_equiv_pos_site_id
_symmetry_equiv_pos_as_xyz
1 x,y,z
2 1/2-x,1/2+y,1/2-z
3 -x,-y,-z
4 1/2+x,1/2-y,1/2+z
_cell_length_a                   10.6592(10)
_cell_length_b                   13.0069(10)
_cell_length_c                   16.0537(10)
_cell_angle_alpha                90
_cell_angle_beta                 99.646(7)
_cell_angle_gamma                90
_cell_volume                     2194.27
_exptl_crystal_colour            'light yellow'
_cell_formula_units_Z            2
loop_
_atom_site_label
_atom_site_type_symbol
_atom_site_fract_x
_atom_site_fract_y
_atom_site_fract_z
C1 C 0.5280(3) 0.0633(2) 0.2162(2)
H1 H 0.4538(3) 0.0177(2) 0.2070(2)
H2 H 0.5397(3) 0.0904(2) 0.2740(2)
H3 H 0.6040(3) 0.0247(2) 0.2081(2)
C2 C 0.3641(3) 0.2490(2) 0.1658(2)
H4 H 0.3474(3) 0.3072(2) 0.1266(2)
H5 H 0.3848(3) 0.2748(2) 0.2238(2)
H6 H 0.2883(3) 0.2052(2) 0.1604(2)
C3 C 0.6466(3) 0.2559(2) 0.1602(2)
H7 H 0.6360(3) 0.3139(2) 0.1207(2)
H8 H 0.7218(3) 0.2160(2) 0.1525(2)
H9 H 0.6576(3) 0.2818(2) 0.2183(2)
C4 C 0.2110(3) -0.3949(2) 0.0705(2)
H10 H 0.2890(3) -0.3943(2) 0.0457(2)
H11 H 0.1793(3) -0.4655(2) 0.0716(2)
H12 H 0.2293(3) -0.3679(2) 0.1282(2)
C5 C -0.0608(3) -0.3131(2) 0.0517(2)
H13 H -0.1245(3) -0.2698(2) 0.0170(2)
H14 H -0.0433(3) -0.2859(2) 0.1094(2)
H15 H -0.0933(3) -0.3835(2) 0.0527(2)
C6 C 0.0482(3) -0.3616(2) -0.1046(2)
H16 H -0.0165(3) -0.3170(2) -0.1369(2)
H17 H 0.0150(3) -0.4318(2) -0.1042(2)
H18 H 0.1247(3) -0.3614(2) -0.1310(2)
C7 C 0.1230(2) -0.1060(2) -0.04002(14)
C8 C -0.0003(2) -0.0964(2) -0.08653(15)
H19 H -0.0618(2) -0.1481(2) -0.08239(15)
C9 C -0.0327(2) -0.0127(2) -0.13810(14)
C10 C -0.1648(3) -0.0001(2) -0.1874(2)
H20 H -0.1694(3) 0.0638(2) -0.2202(2)
H21 H -0.2261(3) 0.0027(2) -0.1483(2)
H22 H -0.1848(3) -0.0585(2) -0.2259(2)
C11 C 0.1775(2) 0.0494(2) -0.0919(2)
H23 H 0.2390(2) 0.1019(2) -0.0935(2)
C12 C 0.0606(2) 0.0613(2) -0.1418(2)
H24 H 0.0437(2) 0.1191(2) -0.1781(2)
C13 C 0.4823(2) 0.1847(2) -0.02922(14)
C14 C 0.4318(2) 0.2857(2) -0.0393(2)
H25 H 0.3974(2) 0.3164(2) 0.0056(2)
C15 C 0.4314(3) 0.3404(2) -0.1132(2)
C16 C 0.4822(3) 0.2943(2) -0.1781(2)
H26 H 0.4811(3) 0.3286(2) -0.2305(2)
C17 C 0.5339(3) 0.1977(2) -0.1649(2)
H27 H 0.5706(3) 0.1675(2) -0.2090(2)
C18 C 0.3786(4) 0.4483(2) -0.1232(2)
H28 H 0.3864(4) 0.4745(2) -0.1793(2)
H29 H 0.4265(4) 0.4928(2) -0.0798(2)
H30 H 0.2888(4) 0.4476(2) -0.1168(2)
Li1 Li 0.3965(4) -0.0214(3) 0.0190(2)
N1 N 0.4822(2) 0.12230(15) 0.03880(12)
N2 N 0.5362(2) 0.1431(2) -0.09325(12)
H31 H 0.2355(28) -0.1872(20) 0.0312(17)
N3 N 0.1590(2) -0.1914(2) 0.00901(13)
N4 N 0.2111(2) -0.03176(15) -0.04099(12)
Si1 Si 0.50240(6) 0.17167(5) 0.13960(4)
Si2 Si 0.08848(6) -0.31328(5) 0.00585(4)
Li1B Li 0.6035(4) 0.0214(3) -0.0190(2)
N1B N 0.5178(2) -0.12230(15) -0.03880(12)
C13B C 0.5177(2) -0.1847(2) 0.02922(14)
C14B C 0.5682(2) -0.2857(2) 0.0393(2)
H25B H 0.6026(2) -0.3164(2) -0.0056(2)
C15B C 0.5686(3) -0.3404(2) 0.1132(2)
C16B C 0.5178(3) -0.2943(2) 0.1781(2)
H26B H 0.5189(3) -0.3286(2) 0.2305(2)
C17B C 0.4661(3) -0.1977(2) 0.1649(2)
H27B H 0.4294(3) -0.1675(2) 0.2090(2)
N2B N 0.4638(2) -0.1431(2) 0.09325(12)
N4B N 0.7889(2) 0.03176(15) 0.04099(12)
C7B C 0.8770(2) 0.1060(2) 0.04002(14)
C8B C 1.0003(2) 0.0964(2) 0.08653(15)
H19B H 1.0618(2) 0.1481(2) 0.08239(15)
C9B C 1.0327(2) 0.0127(2) 0.13810(14)
C10B C 1.1648(3) 0.0001(2) 0.1874(2)
H20B H 1.1694(3) -0.0638(2) 0.2202(2)
H21B H 1.2261(3) -0.0027(2) 0.1483(2)
H22B H 1.1848(3) 0.0585(2) 0.2259(2)
C12B C 0.9394(2) -0.0613(2) 0.1418(2)
C11B C 0.8225(2) -0.0494(2) 0.0919(2)
H23B H 0.7610(2) -0.1019(2) 0.0935(2)
H24B H 0.9563(2) -0.1191(2) 0.1781(2)
N3B N 0.8410(2) 0.1914(2) -0.00901(13)
H31B H 0.7645(28) 0.1872(20) -0.0312(17)
Si2B Si 0.91152(6) 0.31328(5) -0.00585(4)
C4B C 0.7890(3) 0.3949(2) -0.0705(2)
H10B H 0.7110(3) 0.3943(2) -0.0457(2)
H11B H 0.8207(3) 0.4655(2) -0.0716(2)
H12B H 0.7707(3) 0.3679(2) -0.1282(2)
C5B C 1.0608(3) 0.3131(2) -0.0517(2)
H13B H 1.1245(3) 0.2698(2) -0.0170(2)
H14B H 1.0433(3) 0.2859(2) -0.1094(2)
H15B H 1.0933(3) 0.3835(2) -0.0527(2)
C6B C 0.9518(3) 0.3616(2) 0.1046(2)
H16B H 1.0165(3) 0.3170(2) 0.1369(2)
H17B H 0.9850(3) 0.4318(2) 0.1042(2)
H18B H 0.8753(3) 0.3614(2) 0.1310(2)
Si1B Si 0.49760(6) -0.17167(5) -0.13960(4)
C1B C 0.4720(3) -0.0633(2) -0.2162(2)
H1B H 0.5462(3) -0.0177(2) -0.2070(2)
H2B H 0.4603(3) -0.0904(2) -0.2740(2)
H3B H 0.3960(3) -0.0247(2) -0.2081(2)
C2B C 0.6359(3) -0.2490(2) -0.1658(2)
H4B H 0.6526(3) -0.3072(2) -0.1266(2)
H5B H 0.6152(3) -0.2748(2) -0.2238(2)
H6B H 0.7117(3) -0.2052(2) -0.1604(2)
C3B C 0.3534(3) -0.2559(2) -0.1602(2)
H7B H 0.3640(3) -0.3139(2) -0.1207(2)
H8B H 0.2782(3) -0.2160(2) -0.1525(2)
H9B H 0.3424(3) -0.2818(2) -0.2183(2)
C18B C 0.6214(4) -0.4483(2) 0.1232(2)
H28B H 0.6136(4) -0.4745(2) 0.1793(2)
H29B H 0.5735(4) -0.4928(2) 0.0798(2)
H30B H 0.7112(4) -0.4476(2) 0.1168(2)
loop_
_geom_bond_atom_site_label_1
_geom_bond_atom_site_label_2
_geom_bond_site_symmetry_1
_geom_bond_site_symmetry_2
C1 H1 1_555 1_555
H2 C1 1_555 1_555
H3 C1 1_555 1_555
C2 H4 1_555 1_555
H5 C2 1_555 1_555
H6 C2 1_555 1_555
C3 H7 1_555 1_555
H8 C3 1_555 1_555
H9 C3 1_555 1_555
C4 H10 1_555 1_555
H11 C4 1_555 1_555
H12 C4 1_555 1_555
C5 H13 1_555 1_555
H14 C5 1_555 1_555
H15 C5 1_555 1_555
C6 H16 1_555 1_555
H17 C6 1_555 1_555
H18 C6 1_555 1_555
C7 C8 1_555 1_555
C8 H19 1_555 1_555
C9 C8 1_555 1_555
C10 C9 1_555 1_555
H20 C10 1_555 1_555
H21 C10 1_555 1_555
H22 C10 1_555 1_555
C11 H23 1_555 1_555
C12 C9 1_555 1_555
H24 C12 1_555 1_555
C13 C14 1_555 1_555
C14 H25 1_555 1_555
C15 C14 1_555 1_555
C16 C15 1_555 1_555
H26 C16 1_555 1_555
C17 C16 1_555 1_555
H27 C17 1_555 1_555
C18 C15 1_555 1_555
H28 C18 1_555 1_555
H29 C18 1_555 1_555
H30 C18 1_555 1_555
Li1 N1 1_555 1_555
N1 C13 1_555 1_555
N2 C13 1_555 1_555
H31 N3 1_555 1_555
N3 C7 1_555 1_555
N4 C7 1_555 1_555
Si1 C1 1_555 1_555
Si2 C4 1_555 1_555
Li1B N1 1_555 1_555
N1B Li1 1_555 1_555
C13B N1B 1_555 1_555
C14B C13B 1_555 1_555
H25B C14B 1_555 1_555
C15B C14B 1_555 1_555
C16B C15B 1_555 1_555
H26B C16B 1_555 1_555
C17B C16B 1_555 1_555
H27B C17B 1_555 1_555
N2B Li1 1_555 1_555
N4B Li1B 1_555 1_555
C7B N4B 1_555 1_555
C8B C7B 1_555 1_555
H19B C8B 1_555 1_555
C9B C8B 1_555 1_555
C10B C9B 1_555 1_555
H20B C10B 1_555 1_555
H21B C10B 1_555 1_555
H22B C10B 1_555 1_555
C12B C9B 1_555 1_555
C11B N4B 1_555 1_555
H23B C11B 1_555 1_555
H24B C12B 1_555 1_555
N3B C7B 1_555 1_555
H31B N3B 1_555 1_555
Si2B N3B 1_555 1_555
C4B Si2B 1_555 1_555
H10B C4B 1_555 1_555
H11B C4B 1_555 1_555
H12B C4B 1_555 1_555
C5B Si2B 1_555 1_555
H13B C5B 1_555 1_555
H14B C5B 1_555 1_555
H15B C5B 1_555 1_555
C6B Si2B 1_555 1_555
H16B C6B 1_555 1_555
H17B C6B 1_555 1_555
H18B C6B 1_555 1_555
Si1B N1B 1_555 1_555
C1B Si1B 1_555 1_555
H1B C1B 1_555 1_555
H2B C1B 1_555 1_555
H3B C1B 1_555 1_555
C2B Si1B 1_555 1_555
H4B C2B 1_555 1_555
H5B C2B 1_555 1_555
H6B C2B 1_555 1_555
C3B Si1B 1_555 1_555
H7B C3B 1_555 1_555
H8B C3B 1_555 1_555
H9B C3B 1_555 1_555
C18B C15B 1_555 1_555
H28B C18B 1_555 1_555
H29B C18B 1_555 1_555
H30B C18B 1_555 1_555
C2 Si1 1_555 1_555
C3 Si1 1_555 1_555
C5 Si2 1_555 1_555
C6 Si2 1_555 1_555
C11 C12 1_555 1_555
C11 N4 1_555 1_555
C17 N2 1_555 1_555
Li1 N4 1_555 1_555
N1 Si1 1_555 1_555
N2 Li1B 1_555 1_555
N3 Si2 1_555 1_555
Li1B N1B 1_555 1_555
C13B N2B 1_555 1_555
C17B N2B 1_555 1_555
C12B C11B 1_555 1_555

#END
