
#######################################################################
#
#                 Cambridge Crystallographic Data Centre
#                                CCDC 
#
#######################################################################
#
# If this CIF has been generated from an entry in the Cambridge 
# Structural Database, then it will include bibliographic, chemical, 
# crystal, experimental, refinement or atomic coordinate data resulting 
# from the CCDC's data processing and validation procedures.
#
#######################################################################

data_TIRLAJ
_chemical_formula_moiety         'C52 H46 N4 O2,2(C1 H4 O1)'
_chemical_name_systematic        
"4,4'-(10,20-bis(4-t-Butylphenyl)porphyrin-5,15-diyl)diphenol methanol solvate"
_symmetry_cell_setting           monoclinic
_symmetry_space_group_name_H-M   'P 21/c'
_symmetry_Int_Tables_number      14
_space_group_name_Hall           '-P 2ybc'
loop_
_symmetry_equiv_pos_site_id
_symmetry_equiv_pos_as_xyz
1 x,y,z
2 -x,1/2+y,1/2-z
3 -x,-y,-z
4 x,1/2-y,1/2+z
_cell_length_a                   12.461(3)
_cell_length_b                   15.818(3)
_cell_length_c                   12.572(3)
_cell_angle_alpha                90
_cell_angle_beta                 112.65(3)
_cell_angle_gamma                90
_cell_volume                     2286.92
_exptl_crystal_colour            violet
_exptl_crystal_description       prism
_cell_formula_units_Z            2
loop_
_atom_site_label
_atom_site_type_symbol
_atom_site_fract_x
_atom_site_fract_y
_atom_site_fract_z
N1 N 0.9404(2) 0.38541(16) 0.5267(2)
N2 N 0.8898(2) 0.56346(15) 0.5638(2)
H1 H 0.9365 0.5386 0.5382
C1 C 0.9741(3) 0.30608(18) 0.5072(3)
O1 O 1.1777(3) -0.05103(15) 0.4169(2)
H2 H 1.1834 -0.0588 0.3548
C2 C 0.7093(3) 0.40820(18) 0.6525(3)
C3 C 0.8141(2) 0.52265(19) 0.6018(3)
C4 C 0.5445(3) 0.3642(2) 0.7470(3)
C5 C 0.8557(3) 0.37208(19) 0.5696(3)
C6 C 0.6624(3) 0.3620(2) 0.8121(3)
H3 H 0.6882 0.3461 0.8891
C7 C 0.7966(3) 0.4350(2) 0.6046(3)
C8 C 0.8355(3) 0.28276(19) 0.5763(3)
H4 H 0.7820 0.2582 0.6020
C9 C 0.7931(3) 0.6630(2) 0.6184(3)
H5 H 0.7675 0.7152 0.6332
C10 C 0.8806(2) 0.64931(19) 0.5723(3)
C11 C 1.0577(3) 0.28844(19) 0.4615(3)
C12 C 1.0872(3) 0.19873(19) 0.4479(3)
C13 C 0.7544(3) 0.5865(2) 0.6366(3)
H6 H 0.6981 0.5773 0.6669
C14 C 1.0705(3) 0.16533(19) 0.3407(3)
H7 H 1.0389 0.1993 0.2756
C15 C 0.9084(3) 0.2415(2) 0.5382(3)
H8 H 0.9154 0.1833 0.5328
C16 C 0.7437(3) 0.3828(2) 0.7660(3)
H9 H 0.8226 0.3796 0.8121
C17 C 1.1480(3) 0.0310(2) 0.4244(3)
C18 C 1.1000(3) 0.0825(2) 0.3285(3)
H10 H 1.0874 0.0613 0.2557
C19 C 0.5910(3) 0.4102(2) 0.5855(3)
H11 H 0.5655 0.4264 0.5086
C20 C 0.5102(3) 0.3881(2) 0.6325(3)
H12 H 0.4314 0.3895 0.5859
C21 C 1.1329(3) 0.1454(2) 0.5432(3)
H13 H 1.1439 0.1661 0.6159
C22 C 0.4580(3) 0.3424(3) 0.8027(3)
C23 C 1.1621(4) 0.0629(2) 0.5320(3)
H14 H 1.1914 0.0283 0.5967
C24 C 0.3322(3) 0.3484(3) 0.7190(4)
H15 H 0.3190 0.3096 0.6565
H16 H 0.3161 0.4049 0.6893
H17 H 0.2819 0.3345 0.7582
C25 C 0.4725(5) 0.4087(4) 0.8994(5)
H18 H 0.4615 0.4645 0.8671
H19 H 0.5492 0.4041 0.9584
H20 H 0.4158 0.3981 0.9322
C26 C 0.4833(4) 0.2558(4) 0.8553(6)
H21 H 0.4337 0.2447 0.8962
H22 H 0.5631 0.2529 0.9078
H23 H 0.4693 0.2145 0.7955
N1B N 1.0596(2) 0.61459(16) 0.4733(2)
N2B N 1.1102(2) 0.43654(15) 0.4362(2)
H1B H 1.0635 0.4614 0.4618
C1B C 1.0259(3) 0.69392(18) 0.4928(3)
O1B O 0.8223(3) 1.05103(15) 0.5831(2)
H2B H 0.8166 1.0588 0.6452
C2B C 1.2907(3) 0.59180(18) 0.3475(3)
C3B C 1.1859(2) 0.47735(19) 0.3982(3)
C4B C 1.4555(3) 0.6358(2) 0.2530(3)
C5B C 1.1443(3) 0.62792(19) 0.4304(3)
C6B C 1.3376(3) 0.6380(2) 0.1879(3)
H3B H 1.3118 0.6539 0.1109
C7B C 1.2034(3) 0.5650(2) 0.3954(3)
C8B C 1.1645(3) 0.71724(19) 0.4237(3)
H4B H 1.2180 0.7418 0.3980
C9B C 1.2069(3) 0.3370(2) 0.3816(3)
H5B H 1.2325 0.2848 0.3668
C10B C 1.1194(2) 0.35069(19) 0.4277(3)
C11B C 0.9423(3) 0.71156(19) 0.5385(3)
C12B C 0.9128(3) 0.80127(19) 0.5521(3)
C13B C 1.2456(3) 0.4135(2) 0.3634(3)
H6B H 1.3019 0.4227 0.3331
C14B C 0.9295(3) 0.83467(19) 0.6593(3)
H7B H 0.9611 0.8007 0.7244
C15B C 1.0916(3) 0.7585(2) 0.4618(3)
H8B H 1.0846 0.8167 0.4672
C16B C 1.2563(3) 0.6172(2) 0.2340(3)
H9B H 1.1774 0.6204 0.1879
C17B C 0.8520(3) 0.9690(2) 0.5756(3)
C18B C 0.9000(3) 0.9175(2) 0.6715(3)
H10B H 0.9126 0.9387 0.7443
C19B C 1.4090(3) 0.5898(2) 0.4145(3)
H11B H 1.4345 0.5736 0.4914
C20B C 1.4898(3) 0.6119(2) 0.3675(3)
H12B H 1.5686 0.6105 0.4141
C21B C 0.8671(3) 0.8546(2) 0.4568(3)
H13B H 0.8561 0.8339 0.3841
C22B C 1.5420(3) 0.6576(3) 0.1973(3)
C23B C 0.8379(4) 0.9371(2) 0.4680(3)
H14B H 0.8086 0.9717 0.4033
C24B C 1.6678(3) 0.6516(3) 0.2810(4)
H15B H 1.6810 0.6904 0.3435
H16B H 1.6839 0.5951 0.3107
H17B H 1.7181 0.6655 0.2418
C25B C 1.5275(5) 0.5913(4) 0.1006(5)
H18B H 1.5385 0.5355 0.1329
H19B H 1.4508 0.5959 0.0416
H20B H 1.5842 0.6019 0.0678
C26B C 1.5167(4) 0.7442(4) 0.1447(6)
H21B H 1.5663 0.7553 0.1038
H22B H 1.4369 0.7471 0.0922
H23B H 1.5307 0.7855 0.2045
O2 O 0.7954(2) 0.07900(19) 0.7825(3)
H24 H 0.8427 0.0831 0.8491
C27 C 0.6941(4) 0.1257(3) 0.7698(4)
H25 H 0.6512 0.0964 0.8076
H26 H 0.6465 0.1318 0.6894
H27 H 0.7160 0.1806 0.8038
loop_
_geom_bond_atom_site_label_1
_geom_bond_atom_site_label_2
_geom_bond_site_symmetry_1
_geom_bond_site_symmetry_2
N1 C1 1_555 1_555
N2 H1 1_555 1_555
C1 C11 1_555 1_555
O1 H2 1_555 1_555
C2 C7 1_555 1_555
C3 N2 1_555 1_555
C4 C6 1_555 1_555
C5 N1 1_555 1_555
C6 H3 1_555 1_555
C7 C3 1_555 1_555
C8 C5 1_555 1_555
H4 C8 1_555 1_555
C9 H5 1_555 1_555
C10 N2 1_555 1_555
C11 C12 1_555 1_555
C12 C14 1_555 1_555
C13 C3 1_555 1_555
H6 C13 1_555 1_555
C14 H7 1_555 1_555
C15 C1 1_555 1_555
H8 C15 1_555 1_555
C16 C2 1_555 1_555
H9 C16 1_555 1_555
C17 O1 1_555 1_555
C18 C14 1_555 1_555
H10 C18 1_555 1_555
C19 C2 1_555 1_555
H11 C19 1_555 1_555
C20 C4 1_555 1_555
H12 C20 1_555 1_555
C21 C12 1_555 1_555
H13 C21 1_555 1_555
C22 C4 1_555 1_555
C23 C17 1_555 1_555
H14 C23 1_555 1_555
C24 C22 1_555 1_555
H15 C24 1_555 1_555
H16 C24 1_555 1_555
H17 C24 1_555 1_555
C25 C22 1_555 1_555
H18 C25 1_555 1_555
H19 C25 1_555 1_555
H20 C25 1_555 1_555
C26 C22 1_555 1_555
H21 C26 1_555 1_555
H22 C26 1_555 1_555
H23 C26 1_555 1_555
O2 H24 1_555 1_555
C27 O2 1_555 1_555
H25 C27 1_555 1_555
H26 C27 1_555 1_555
H27 C27 1_555 1_555
N1B C1B 1_555 1_555
N2B H1B 1_555 1_555
C1B C11B 1_555 1_555
O1B H2B 1_555 1_555
C2B C7B 1_555 1_555
C3B N2B 1_555 1_555
C4B C6B 1_555 1_555
C5B N1B 1_555 1_555
C6B H3B 1_555 1_555
C7B C3B 1_555 1_555
C8B C5B 1_555 1_555
H4B C8B 1_555 1_555
C9B H5B 1_555 1_555
C10B C11 1_555 1_555
C11B C10 1_555 1_555
C12B C11B 1_555 1_555
C13B C3B 1_555 1_555
H6B C13B 1_555 1_555
C14B C12B 1_555 1_555
H7B C14B 1_555 1_555
C15B C1B 1_555 1_555
H8B C15B 1_555 1_555
C16B C2B 1_555 1_555
H9B C16B 1_555 1_555
C17B O1B 1_555 1_555
C18B C14B 1_555 1_555
H10B C18B 1_555 1_555
C19B C2B 1_555 1_555
H11B C19B 1_555 1_555
C20B C4B 1_555 1_555
H12B C20B 1_555 1_555
C21B C12B 1_555 1_555
H13B C21B 1_555 1_555
C22B C4B 1_555 1_555
C23B C17B 1_555 1_555
H14B C23B 1_555 1_555
C24B C22B 1_555 1_555
H15B C24B 1_555 1_555
H16B C24B 1_555 1_555
H17B C24B 1_555 1_555
C25B C22B 1_555 1_555
H18B C25B 1_555 1_555
H19B C25B 1_555 1_555
H20B C25B 1_555 1_555
C26B C22B 1_555 1_555
H21B C26B 1_555 1_555
H22B C26B 1_555 1_555
H23B C26B 1_555 1_555
C5 C7 1_555 1_555
C6 C16 1_555 1_555
C8 C15 1_555 1_555
C9 C10 1_555 1_555
C9 C13 1_555 1_555
C17 C18 1_555 1_555
C19 C20 1_555 1_555
C21 C23 1_555 1_555
N2B C10B 1_555 1_555
C5B C7B 1_555 1_555
C6B C16B 1_555 1_555
C8B C15B 1_555 1_555
C9B C10B 1_555 1_555
C9B C13B 1_555 1_555
C17B C18B 1_555 1_555
C19B C20B 1_555 1_555
C21B C23B 1_555 1_555

#END
