
#######################################################################
#
#                 Cambridge Crystallographic Data Centre
#                                CCDC 
#
#######################################################################
#
# If this CIF has been generated from an entry in the Cambridge 
# Structural Database, then it will include bibliographic, chemical, 
# crystal, experimental, refinement or atomic coordinate data resulting 
# from the CCDC's data processing and validation procedures.
#
#######################################################################

data_TIRPUI
_chemical_formula_moiety         'C18 H16 Cl2 N6 O6'
_chemical_name_systematic        
11,26-dichloro-2,8,14,17,20,23-hexaoxa-10,12,25,27,28,29-hexaazatetracyclo[22.3.1.1^3,7^.1^9,13^]triaconta-1(28),3(30),4,6,9(29),10,12,24,26-nonaene
_symmetry_cell_setting           orthorhombic
_symmetry_space_group_name_H-M   'P 21 21 21'
_symmetry_Int_Tables_number      19
_space_group_name_Hall           'P 2ac 2ab'
loop_
_symmetry_equiv_pos_site_id
_symmetry_equiv_pos_as_xyz
1 x,y,z
2 1/2-x,-y,1/2+z
3 -x,1/2+y,1/2-z
4 1/2+x,1/2-y,-z
_cell_length_a                   8.6000(13)
_cell_length_b                   14.037(2)
_cell_length_c                   16.802(3)
_cell_angle_alpha                90
_cell_angle_beta                 90
_cell_angle_gamma                90
_cell_volume                     2028.31
_exptl_crystal_colour            colorless
_exptl_crystal_description       block
_cell_formula_units_Z            4
loop_
_atom_site_label
_atom_site_type_symbol
_atom_site_fract_x
_atom_site_fract_y
_atom_site_fract_z
Cl1 Cl 0.86665(7) 0.84226(4) 0.28693(3)
Cl2 Cl 0.26012(8) 0.38273(5) 0.85922(4)
O1 O 0.71556(19) 0.54248(11) 0.75731(10)
O2 O 0.9759(2) 0.71100(12) 0.54697(11)
O3 O 0.60124(19) 0.56779(11) 0.39643(10)
O4 O 0.57016(19) 0.36206(11) 0.39182(10)
O5 O 0.54618(18) 0.18894(12) 0.47545(10)
O6 O 0.53362(19) 0.29193(11) 0.61637(9)
N1 N 0.9158(2) 0.77314(14) 0.42738(12)
N2 N 0.7291(2) 0.69383(13) 0.34602(11)
N3 N 0.7868(2) 0.63453(13) 0.47555(11)
N4 N 0.3996(2) 0.33667(14) 0.72882(12)
N5 N 0.5048(2) 0.46680(14) 0.80264(11)
N6 N 0.6254(2) 0.41806(13) 0.68123(11)
C1 C 0.8416(3) 0.54991(15) 0.70396(13)
C2 C 0.9594(3) 0.48309(16) 0.70605(13)
H1 H 0.957386 0.432460 0.743559
C3 C 1.0808(3) 0.49167(17) 0.65204(14)
H2 H 1.162112 0.445878 0.651834
C4 C 1.0839(3) 0.56712(17) 0.59810(14)
H3 H 1.165716 0.572783 0.560404
C5 C 0.9663(3) 0.63295(16) 0.60068(13)
C6 C 0.8422(3) 0.62702(16) 0.65265(14)
H4 H 0.761698 0.673353 0.653138
C7 C 0.8878(3) 0.70484(16) 0.48106(13)
C8 C 0.8326(2) 0.76015(15) 0.36205(14)
C9 C 0.7084(2) 0.63376(15) 0.40765(13)
C10 C 0.5653(3) 0.50623(16) 0.46399(13)
H5 H 0.505735 0.542152 0.504495
H6 H 0.662682 0.483099 0.488794
C11 C 0.4714(3) 0.42379(16) 0.43447(16)
H7 H 0.424134 0.389550 0.479944
H8 H 0.386789 0.446805 0.399468
C12 C 0.4924(3) 0.28076(17) 0.36016(14)
H9 H 0.566912 0.243602 0.327727
H10 H 0.407942 0.302529 0.324469
C13 C 0.4238(3) 0.21631(16) 0.42327(14)
H11 H 0.341760 0.250427 0.453224
H12 H 0.376885 0.159279 0.398258
C14 C 0.4936(3) 0.14660(16) 0.54710(14)
H13 H 0.582976 0.115985 0.573997
H14 H 0.417574 0.096013 0.533942
C15 C 0.4186(3) 0.21585(16) 0.60405(14)
H15 H 0.321644 0.242043 0.581079
H16 H 0.393565 0.184073 0.655066
C16 C 0.5168(3) 0.34951(15) 0.67738(13)
C17 C 0.4048(3) 0.39780(15) 0.78897(15)
C18 C 0.6131(3) 0.47225(15) 0.74479(13)
loop_
_geom_bond_atom_site_label_1
_geom_bond_atom_site_label_2
_geom_bond_site_symmetry_1
_geom_bond_site_symmetry_2
Cl1 C8 1_555 1_555
Cl2 C17 1_555 1_555
O1 C1 1_555 1_555
O2 C5 1_555 1_555
O3 C9 1_555 1_555
O4 C11 1_555 1_555
O5 C13 1_555 1_555
O6 C15 1_555 1_555
N1 C7 1_555 1_555
N2 C8 1_555 1_555
N3 C7 1_555 1_555
N4 C16 1_555 1_555
N5 C17 1_555 1_555
N6 C16 1_555 1_555
C1 C2 1_555 1_555
C2 H1 1_555 1_555
C3 C2 1_555 1_555
H2 C3 1_555 1_555
C4 C3 1_555 1_555
H3 C4 1_555 1_555
C5 C4 1_555 1_555
C6 C1 1_555 1_555
H4 C6 1_555 1_555
C7 O2 1_555 1_555
C8 N1 1_555 1_555
C9 N2 1_555 1_555
C10 O3 1_555 1_555
H5 C10 1_555 1_555
H6 C10 1_555 1_555
C11 C10 1_555 1_555
H7 C11 1_555 1_555
H8 C11 1_555 1_555
C12 O4 1_555 1_555
H9 C12 1_555 1_555
H10 C12 1_555 1_555
C13 C12 1_555 1_555
H11 C13 1_555 1_555
H12 C13 1_555 1_555
C14 O5 1_555 1_555
H13 C14 1_555 1_555
H14 C14 1_555 1_555
C15 C14 1_555 1_555
H15 C15 1_555 1_555
H16 C15 1_555 1_555
C16 O6 1_555 1_555
C17 N4 1_555 1_555
C18 O1 1_555 1_555
N3 C9 1_555 1_555
N5 C18 1_555 1_555
N6 C18 1_555 1_555
C5 C6 1_555 1_555

#END
