
#######################################################################
#
#                 Cambridge Crystallographic Data Centre
#                                CCDC 
#
#######################################################################
#
# If this CIF has been generated from an entry in the Cambridge 
# Structural Database, then it will include bibliographic, chemical, 
# crystal, experimental, refinement or atomic coordinate data resulting 
# from the CCDC's data processing and validation procedures.
#
#######################################################################

data_TIRQET
_chemical_formula_moiety         'C48 H40 N12 O16,2(C7 H8)'
_chemical_name_systematic        
'4,7,10,13,19,25,31,34,37,40,46,52,55,61,67,73-hexadecaoxa-2,15,17,27,29,42,44,54,63,65,66,75-dodecaazaundecacyclo[41.11.7.7^16,28^.1^3,53^.1^14,18^.1^20,24^.1^26,30^.1^41,45^.1^47,51^.1^56,60^.1^68,72^]hexaheptaconta-1,3(63),14(75),15,17,20(74),21,23,26(66),27,29,41(65),42,44,47(64),48,50,53,56(62),57,59,68(76),69,71-tetracosaene toluene solvate'
_symmetry_cell_setting           orthorhombic
_symmetry_space_group_name_H-M   'F d d d'
_symmetry_Int_Tables_number      70
_space_group_name_Hall           '-F 2uv 2vw'
loop_
_symmetry_equiv_pos_site_id
_symmetry_equiv_pos_as_xyz
1 x,y,z
2 3/4-x,3/4-y,z
3 3/4-x,y,3/4-z
4 x,3/4-y,3/4-z
5 x,1/2+y,1/2+z
6 3/4-x,1/4-y,1/2+z
7 3/4-x,1/2+y,1/4-z
8 x,1/4-y,1/4-z
9 1/2+x,y,1/2+z
10 1/4-x,3/4-y,1/2+z
11 1/4-x,y,1/4-z
12 1/2+x,3/4-y,1/4-z
13 1/2+x,1/2+y,z
14 1/4-x,1/4-y,z
15 1/4-x,1/2+y,3/4-z
16 1/2+x,1/4-y,3/4-z
17 -x,-y,-z
18 1/4+x,1/4+y,-z
19 1/4+x,-y,1/4+z
20 -x,1/4+y,1/4+z
21 -x,1/2-y,1/2-z
22 1/4+x,3/4+y,1/2-z
23 1/4+x,1/2-y,3/4+z
24 -x,3/4+y,3/4+z
25 1/2-x,-y,1/2-z
26 3/4+x,1/4+y,1/2-z
27 3/4+x,-y,3/4+z
28 1/2-x,1/4+y,3/4+z
29 1/2-x,1/2-y,-z
30 3/4+x,3/4+y,-z
31 3/4+x,1/2-y,1/4+z
32 1/2-x,3/4+y,1/4+z
_cell_length_a                   17.129(3)
_cell_length_b                   25.420(4)
_cell_length_c                   28.125(5)
_cell_angle_alpha                90
_cell_angle_beta                 90
_cell_angle_gamma                90
_cell_volume                     12246.2
_exptl_crystal_colour            colorless
_exptl_crystal_description       block
_cell_formula_units_Z            8
loop_
_atom_site_label
_atom_site_type_symbol
_atom_site_fract_x
_atom_site_fract_y
_atom_site_fract_z
O1 O 0.29403(6) 0.48988(4) 0.57020(4)
O2 O 0.19349(5) 0.32378(4) 0.58923(4)
O3 O 0.05434(5) 0.45242(4) 0.51786(3)
O4 O -0.01294(7) 0.39915(4) 0.43483(3)
N1 N 0.24916(6) 0.40596(4) 0.58341(4)
N2 N 0.12104(6) 0.38603(4) 0.55569(4)
N3 N 0.17491(7) 0.47138(4) 0.54262(4)
C1 C 0.35829(8) 0.47738(5) 0.59956(5)
C2 C 0.42251(8) 0.45347(5) 0.57963(5)
H1 H 0.4229 0.4432 0.5479
C3 C 0.48635(7) 0.44540(5) 0.60868(5)
C4 C 0.48719(8) 0.46012(5) 0.65589(5)
H2 H 0.5309 0.4540 0.6748
C5 C 0.42130(8) 0.48425(5) 0.67456(5)
H3 H 0.4208 0.4944 0.7063
C6 C 0.35623(8) 0.49346(5) 0.64649(5)
H4 H 0.3123 0.5100 0.6589
C7 C 0.23716(8) 0.45379(5) 0.56549(5)
C8 C 0.18913(7) 0.37429(5) 0.57590(5)
C9 C 0.11829(8) 0.43540(5) 0.53977(5)
C10 C -0.01351(8) 0.41798(6) 0.51720(5)
H5 H -0.0598 0.4390 0.5114
H6 H -0.0192 0.4018 0.5482
C11 C -0.00864(8) 0.37558(6) 0.48026(5)
H7 H 0.0401 0.3565 0.4835
H8 H -0.0513 0.3509 0.4843
C12 C -0.01083(11) 0.36069(6) 0.39831(5)
H9 H -0.0561 0.3379 0.4005
H10 H 0.0358 0.3393 0.4012
O1A O 0.45597(6) 0.26012(4) 0.57020(4)
O2A O 0.55651(5) 0.42622(4) 0.58923(4)
O3A O 0.69566(5) 0.29758(4) 0.51786(3)
O4A O 0.76294(7) 0.35085(4) 0.43483(3)
N1A N 0.50084(6) 0.34404(4) 0.58341(4)
N2A N 0.62896(6) 0.36397(4) 0.55569(4)
N3A N 0.57509(7) 0.27862(4) 0.54262(4)
C1A C 0.39171(8) 0.27262(5) 0.59956(5)
C2A C 0.32749(8) 0.29653(5) 0.57963(5)
H1A H 0.3271 0.3068 0.5479
C3A C 0.26365(7) 0.30460(5) 0.60868(5)
C4A C 0.26281(8) 0.28988(5) 0.65589(5)
H2A H 0.2191 0.2960 0.6748
C5A C 0.32870(8) 0.26575(5) 0.67456(5)
H3A H 0.3292 0.2556 0.7063
C6A C 0.39377(8) 0.25654(5) 0.64649(5)
H4A H 0.4377 0.2400 0.6589
C7A C 0.51284(8) 0.29621(5) 0.56549(5)
C8A C 0.56087(7) 0.37571(5) 0.57590(5)
C9A C 0.63171(8) 0.31460(5) 0.53977(5)
C10A C 0.76351(8) 0.33202(6) 0.51720(5)
H5A H 0.8098 0.3110 0.5114
H6A H 0.7692 0.3482 0.5482
C11A C 0.75864(8) 0.37442(6) 0.48026(5)
H7A H 0.7099 0.3935 0.4835
H8A H 0.8013 0.3991 0.4843
C12A C 0.76083(11) 0.38931(6) 0.39831(5)
H9A H 0.8061 0.4121 0.4005
H10A H 0.7142 0.4107 0.4012
O1C O 0.29403(6) 0.26012(4) 0.17980(4)
O2C O 0.19349(5) 0.42622(4) 0.16077(4)
O3C O 0.05434(5) 0.29758(4) 0.23214(3)
O4C O -0.01294(7) 0.35085(4) 0.31517(3)
N1C N 0.24916(6) 0.34404(4) 0.16659(4)
N2C N 0.12104(6) 0.36397(4) 0.19431(4)
N3C N 0.17491(7) 0.27862(4) 0.20738(4)
C1C C 0.35829(8) 0.27262(5) 0.15044(5)
C2C C 0.42251(8) 0.29653(5) 0.17037(5)
H1C H 0.4229 0.3068 0.2021
C3C C 0.48635(7) 0.30460(5) 0.14132(5)
C4C C 0.48719(8) 0.28988(5) 0.09411(5)
H2C H 0.5309 0.2960 0.0752
C5C C 0.42130(8) 0.26575(5) 0.07544(5)
H3C H 0.4208 0.2556 0.0437
C6C C 0.35623(8) 0.25654(5) 0.10351(5)
H4C H 0.3123 0.2400 0.0911
C7C C 0.23716(8) 0.29621(5) 0.18451(5)
C8C C 0.18913(7) 0.37571(5) 0.17410(5)
C9C C 0.11829(8) 0.31460(5) 0.21023(5)
C10C C -0.01351(8) 0.33202(6) 0.23280(5)
H5C H -0.0598 0.3110 0.2386
H6C H -0.0192 0.3482 0.2018
C11C C -0.00864(8) 0.37442(6) 0.26974(5)
H7C H 0.0401 0.3935 0.2665
H8C H -0.0513 0.3991 0.2657
C12C C -0.01083(11) 0.38931(6) 0.35169(5)
H9C H -0.0561 0.4121 0.3495
H10C H 0.0358 0.4107 0.3488
O1B O 0.45597(6) 0.48988(4) 0.17980(4)
O2B O 0.55651(5) 0.32378(4) 0.16077(4)
O3B O 0.69566(5) 0.45242(4) 0.23214(3)
O4B O 0.76294(7) 0.39915(4) 0.31517(3)
N1B N 0.50084(6) 0.40596(4) 0.16659(4)
N2B N 0.62896(6) 0.38603(4) 0.19431(4)
N3B N 0.57509(7) 0.47138(4) 0.20738(4)
C1B C 0.39171(8) 0.47738(5) 0.15044(5)
C2B C 0.32749(8) 0.45347(5) 0.17037(5)
H1B H 0.3271 0.4432 0.2021
C3B C 0.26365(7) 0.44540(5) 0.14132(5)
C4B C 0.26281(8) 0.46012(5) 0.09411(5)
H2B H 0.2191 0.4540 0.0752
C5B C 0.32870(8) 0.48425(5) 0.07544(5)
H3B H 0.3292 0.4944 0.0437
C6B C 0.39377(8) 0.49346(5) 0.10351(5)
H4B H 0.4377 0.5100 0.0911
C7B C 0.51284(8) 0.45379(5) 0.18451(5)
C8B C 0.56087(7) 0.37429(5) 0.17410(5)
C9B C 0.63171(8) 0.43540(5) 0.21023(5)
C10B C 0.76351(8) 0.41798(6) 0.23280(5)
H5B H 0.8098 0.4390 0.2386
H6B H 0.7692 0.4018 0.2018
C11B C 0.75864(8) 0.37558(6) 0.26974(5)
H7B H 0.7099 0.3565 0.2665
H8B H 0.8013 0.3509 0.2657
C12B C 0.76083(11) 0.36069(6) 0.35169(5)
H9B H 0.8061 0.3379 0.3495
H10B H 0.7142 0.3393 0.3488
C13? C 0.4145(4) 0.3869(2) 0.44539(17)
C14? C 0.4113(5) 0.3324(4) 0.4507(5)
H11? H 0.4563 0.3128 0.4560
C15? C 0.3386(3) 0.3084(2) 0.44784(18)
H12? H 0.3382 0.2719 0.4459
C16? C 0.2679(5) 0.3327(3) 0.4475(3)
H13? H 0.2209 0.3145 0.4469
C17? C 0.2723(4) 0.3870(2) 0.4483(2)
H14? H 0.2271 0.4065 0.4533
C18? C 0.3433(5) 0.4133(4) 0.4416(5)
H15? H 0.3430 0.4490 0.4345
C19? C 0.4923(9) 0.4099(6) 0.4419(6)
H16? H 0.5077 0.4233 0.4725
H17? H 0.4917 0.4381 0.4192
H18? H 0.5288 0.3835 0.4319
loop_
_geom_bond_atom_site_label_1
_geom_bond_atom_site_label_2
_geom_bond_site_symmetry_1
_geom_bond_site_symmetry_2
O1 C1 1_555 1_555
O2 C8 1_555 1_555
O3 C9 1_555 1_555
O4 C11 1_555 1_555
N1 C7 1_555 1_555
N2 C8 1_555 1_555
N3 C7 1_555 1_555
C1 C2 1_555 1_555
C2 H1 1_555 1_555
C3 C2 1_555 1_555
C4 C3 1_555 1_555
H2 C4 1_555 1_555
C5 C4 1_555 1_555
H3 C5 1_555 1_555
C6 C1 1_555 1_555
H4 C6 1_555 1_555
C7 O1 1_555 1_555
C8 N1 1_555 1_555
C9 N2 1_555 1_555
C10 O3 1_555 1_555
H5 C10 1_555 1_555
H6 C10 1_555 1_555
C11 C10 1_555 1_555
H7 C11 1_555 1_555
H8 C11 1_555 1_555
C12 O4 1_555 1_555
H9 C12 1_555 1_555
H10 C12 1_555 1_555
O1A C1A 1_555 1_555
O2A C3 1_555 1_555
O3A C9A 1_555 1_555
O4A C11A 1_555 1_555
N1A C7A 1_555 1_555
N2A C8A 1_555 1_555
N3A C7A 1_555 1_555
C1A C2A 1_555 1_555
C2A H1A 1_555 1_555
C3A O2 1_555 1_555
C4A C3A 1_555 1_555
H2A C4A 1_555 1_555
C5A C4A 1_555 1_555
H3A C5A 1_555 1_555
C6A C1A 1_555 1_555
H4A C6A 1_555 1_555
C7A O1A 1_555 1_555
C8A O2A 1_555 1_555
C9A N2A 1_555 1_555
C10A O3A 1_555 1_555
H5A C10A 1_555 1_555
H6A C10A 1_555 1_555
C11A C10A 1_555 1_555
H7A C11A 1_555 1_555
H8A C11A 1_555 1_555
C12A O4A 1_555 1_555
H9A C12A 1_555 1_555
H10A C12A 1_555 1_555
O1C C1C 1_555 1_555
O2C C8C 1_555 1_555
O3C C9C 1_555 1_555
O4C C11C 1_555 1_555
N1C C7C 1_555 1_555
N2C C8C 1_555 1_555
N3C C7C 1_555 1_555
C1C C2C 1_555 1_555
C2C H1C 1_555 1_555
C3C C2C 1_555 1_555
C4C C3C 1_555 1_555
H2C C4C 1_555 1_555
C5C C4C 1_555 1_555
H3C C5C 1_555 1_555
C6C C1C 1_555 1_555
H4C C6C 1_555 1_555
C7C O1C 1_555 1_555
C8C N1C 1_555 1_555
C9C N2C 1_555 1_555
C10C O3C 1_555 1_555
H5C C10C 1_555 1_555
H6C C10C 1_555 1_555
C11C C10C 1_555 1_555
H7C C11C 1_555 1_555
H8C C11C 1_555 1_555
C12C C12 1_555 1_555
H9C C12C 1_555 1_555
H10C C12C 1_555 1_555
O1B C1B 1_555 1_555
O2B C3C 1_555 1_555
O3B C9B 1_555 1_555
O4B C11B 1_555 1_555
N1B C7B 1_555 1_555
N2B C8B 1_555 1_555
N3B C7B 1_555 1_555
C1B C2B 1_555 1_555
C2B H1B 1_555 1_555
C3B O2C 1_555 1_555
C4B C3B 1_555 1_555
H2B C4B 1_555 1_555
C5B C4B 1_555 1_555
H3B C5B 1_555 1_555
C6B C1B 1_555 1_555
H4B C6B 1_555 1_555
C7B O1B 1_555 1_555
C8B O2B 1_555 1_555
C9B N2B 1_555 1_555
C10B O3B 1_555 1_555
H5B C10B 1_555 1_555
H6B C10B 1_555 1_555
C11B C10B 1_555 1_555
H7B C11B 1_555 1_555
H8B C11B 1_555 1_555
C12B C12A 1_555 1_555
H9B C12B 1_555 1_555
H10B C12B 1_555 1_555
N3 C9 1_555 1_555
C5 C6 1_555 1_555
N1A C8A 1_555 1_555
N3A C9A 1_555 1_555
C2A C3A 1_555 1_555
C5A C6A 1_555 1_555
O4C C12C 1_555 1_555
N3C C9C 1_555 1_555
C5C C6C 1_555 1_555
O4B C12B 1_555 1_555
N1B C8B 1_555 1_555
N3B C9B 1_555 1_555
C2B C3B 1_555 1_555
C5B C6B 1_555 1_555

#END
