
#######################################################################
#
#                 Cambridge Crystallographic Data Centre
#                                CCDC 
#
#######################################################################
#
# If this CIF has been generated from an entry in the Cambridge 
# Structural Database, then it will include bibliographic, chemical, 
# crystal, experimental, refinement or atomic coordinate data resulting 
# from the CCDC's data processing and validation procedures.
#
#######################################################################

data_TIRQUJ
_chemical_formula_moiety         'C44 H32 N12 O14,3(C1 H2 Cl2)'
_chemical_name_systematic        
'4,7,10,16,22,28,31,34,40,46,49,55,61,67-tetradecaoxa-2,12,14,24,26,36,38,48,57,59,60,69-dodecaazaundecacyclo[35.11.7.7^13,25^.1^3,47^.1^11,15^.1^17,21^.1^23,27^.1^35,39^.1^41,45^.1^50,54^.1^62,66^]heptaconta-1,3(57),11(69),12,14,17(68),18,20,23(60),24,26,35(59),36,38,41(58),42,44,47,50(56),51,53,62(70),63,65-tetracosaene dichloromethane solvate'
_symmetry_cell_setting           triclinic
_symmetry_space_group_name_H-M   'P -1'
_symmetry_Int_Tables_number      2
_space_group_name_Hall           '-P 1'
loop_
_symmetry_equiv_pos_site_id
_symmetry_equiv_pos_as_xyz
1 x,y,z
2 -x,-y,-z
_cell_length_a                   8.704(6)
_cell_length_b                   12.920(9)
_cell_length_c                   14.031(10)
_cell_angle_alpha                113.246(2)
_cell_angle_beta                 102.623(11)
_cell_angle_gamma                100.343(6)
_cell_volume                     1351.14
_exptl_crystal_colour            colorless
_exptl_crystal_description       plate
_cell_formula_units_Z            1
loop_
_atom_site_label
_atom_site_type_symbol
_atom_site_fract_x
_atom_site_fract_y
_atom_site_fract_z
O1 O 0.2882(3) 0.4057(2) 0.00532(19)
O2 O -0.1200(3) 0.47137(18) 0.15456(17)
O3 O -0.0342(3) 0.6357(2) 0.54293(18)
O4 O 0.3188(3) 0.98607(19) 0.60837(18)
O5 O 0.3406(3) 0.77312(18) 0.24338(18)
O6 O 0.3620(3) 0.8691(2) 0.87201(17)
O7 O 0.5680(3) 0.7765(2) 0.99447(19)
N1 N 0.3150(3) 0.5901(2) 0.1229(2)
N2 N 0.0728(3) 0.4335(2) 0.0738(2)
N3 N 0.1060(3) 0.6288(2) 0.20693(19)
N4 N 0.1349(3) 0.8091(2) 0.56652(19)
N5 N 0.1569(3) 0.7475(2) 0.7077(2)
N6 N 0.3403(4) 0.9298(2) 0.7419(2)
C1 C 0.1992(5) 0.2803(3) -0.0547(3)
H1 H 0.1098 0.2648 -0.1183
H2 H 0.1533 0.2536 -0.0084
C2 C 0.2205(4) 0.4777(3) 0.0690(2)
C3 C 0.0270(3) 0.5142(3) 0.1463(2)
C4 C 0.2481(3) 0.6599(3) 0.1891(2)
C5 C -0.1604(3) 0.5397(2) 0.2476(2)
C6 C -0.2964(4) 0.5798(3) 0.2302(3)
H3 H -0.3562 0.5651 0.1602
C7 C -0.3404(4) 0.6432(4) 0.3212(3)
H4 H -0.4297 0.6725 0.3121
C8 C -0.2525(4) 0.6629(3) 0.4254(3)
H5 H -0.2829 0.7044 0.4858
C9 C -0.1194(4) 0.6197(3) 0.4374(2)
C10 C -0.0706(4) 0.5570(3) 0.3500(2)
H6 H 0.0187 0.5278 0.3595
C11 C 0.0909(4) 0.7356(3) 0.6069(2)
C12 C 0.2820(4) 0.8472(3) 0.7704(2)
C13 C 0.2616(4) 0.9037(3) 0.6391(2)
C14 C 0.2699(4) 0.9580(3) 0.4969(2)
C15 C 0.3201(4) 0.8721(3) 0.4247(2)
H7 H 0.3773 0.8273 0.4475
C16 C 0.2818(4) 0.8555(2) 0.3172(2)
C17 C 0.2005(4) 0.9226(3) 0.2820(3)
H8 H 0.1783 0.9110 0.2100
C18 C 0.1526(6) 1.0080(4) 0.3564(3)
H9 H 0.0975 1.0538 0.3338
C19 C 0.1857(5) 1.0260(3) 0.4641(3)
H10 H 0.1520 1.0826 0.5134
C20 C 0.3049(5) 0.7805(3) 0.9067(3)
H11 H 0.2961 0.7027 0.8523
H12 H 0.1969 0.7808 0.9145
C21 C 0.4259(4) 0.8088(3) 1.0143(2)
H13 H 0.4563 0.8925 1.0631
H14 H 0.3770 0.7655 1.0485
C22 C 0.6776(4) 0.7825(3) 1.0894(3)
H15 H 0.6165 0.7452 1.1233
H16 H 0.7340 0.8642 1.1422
O1A O 0.7118(3) 0.5943(2) 0.99468(19)
O2A O 1.1200(3) 0.52863(18) 0.84544(17)
O3A O 1.0342(3) 0.3643(2) 0.45707(18)
O4A O 0.6812(3) 0.01393(19) 0.39163(18)
O5A O 0.6594(3) 0.22688(18) 0.75662(18)
O6A O 0.6380(3) 0.1309(2) 0.12799(17)
O7A O 0.4320(3) 0.2235(2) 0.00553(19)
N1A N 0.6850(3) 0.4099(2) 0.8771(2)
N2A N 0.9272(3) 0.5665(2) 0.9262(2)
N3A N 0.8940(3) 0.3712(2) 0.79307(19)
N4A N 0.8651(3) 0.1909(2) 0.43348(19)
N5A N 0.8431(3) 0.2525(2) 0.2923(2)
N6A N 0.6597(4) 0.0702(2) 0.2581(2)
C1A C 0.8008(5) 0.7197(3) 1.0547(3)
H1A H 0.8902 0.7352 1.1183
H2A H 0.8467 0.7464 1.0084
C2A C 0.7795(4) 0.5223(3) 0.9310(2)
C3A C 0.9730(3) 0.4858(3) 0.8537(2)
C4A C 0.7519(3) 0.3401(3) 0.8109(2)
C5A C 1.1604(3) 0.4603(2) 0.7524(2)
C6A C 1.2964(4) 0.4202(3) 0.7698(3)
H3A H 1.3562 0.4349 0.8398
C7A C 1.3404(4) 0.3568(4) 0.6788(3)
H4A H 1.4297 0.3275 0.6879
C8A C 1.2525(4) 0.3371(3) 0.5746(3)
H5A H 1.2829 0.2956 0.5142
C9A C 1.1194(4) 0.3803(3) 0.5626(2)
C10A C 1.0706(4) 0.4430(3) 0.6500(2)
H6A H 0.9813 0.4722 0.6405
C11A C 0.9091(4) 0.2644(3) 0.3931(2)
C12A C 0.7180(4) 0.1528(3) 0.2296(2)
C13A C 0.7384(4) 0.0963(3) 0.3609(2)
C14A C 0.7301(4) 0.0420(3) 0.5031(2)
C15A C 0.6799(4) 0.1279(3) 0.5753(2)
H7A H 0.6227 0.1727 0.5525
C16A C 0.7182(4) 0.1445(2) 0.6828(2)
C17A C 0.7995(4) 0.0774(3) 0.7180(3)
H8A H 0.8217 0.0890 0.7900
C18A C 0.8474(6) -0.0080(4) 0.6436(3)
H9A H 0.9025 -0.0538 0.6662
C19A C 0.8143(5) -0.0260(3) 0.5359(3)
H10A H 0.8480 -0.0826 0.4866
C20A C 0.6951(5) 0.2195(3) 0.0933(3)
H11A H 0.7039 0.2973 0.1477
H12A H 0.8031 0.2192 0.0855
C21A C 0.5741(4) 0.1912(3) -0.0143(2)
H13A H 0.5437 0.1075 -0.0631
H14A H 0.6230 0.2345 -0.0485
C22A C 0.3224(4) 0.2175(3) -0.0894(3)
H15A H 0.3835 0.2548 -0.1233
H16A H 0.2660 0.1358 -0.1422
Cl1 Cl 0.4422(6) 0.6555(6) 0.5843(4)
Cl2 Cl 0.7377(10) 0.6343(10) 0.7229(5)
C23 C 0.5383(9) 0.6429(7) 0.7013(7)
H17 H 0.5378 0.7102 0.7647
H18 H 0.4704 0.5730 0.6989
H19? H 0.4269 0.5897 0.6681
H20? H 0.5593 0.6828 0.7797
Cl3? Cl 0.5521(11) 0.7462(7) 0.6524(7)
Cl4? Cl 0.6788(7) 0.5584(7) 0.6745(7)
C24? C 0.1651(12) 0.0299(9) 0.0399(6)
H21? H 0.1994 -0.0284 0.0595
H22? H 0.2607 0.0788 0.0370
Cl5? Cl 0.0934(7) 0.1176(5) 0.1404(4)
Cl6? Cl 0.0136(5) -0.0427(4) -0.0905(3)
loop_
_geom_bond_atom_site_label_1
_geom_bond_atom_site_label_2
_geom_bond_site_symmetry_1
_geom_bond_site_symmetry_2
O1 C1 1_555 1_555
O2 C3 1_555 1_555
O3 C9 1_555 1_555
O4 C13 1_555 1_555
O5 C4 1_555 1_555
O6 C12 1_555 1_555
O7 C21 1_555 1_555
N1 C2 1_555 1_555
N2 C2 1_555 1_555
N3 C3 1_555 1_555
N4 C11 1_555 1_555
N5 C11 1_555 1_555
N6 C12 1_555 1_555
C1 H1 1_555 1_555
H2 C1 1_555 1_555
C2 O1 1_555 1_555
C3 N2 1_555 1_555
C4 N1 1_555 1_555
C5 O2 1_555 1_555
C6 C5 1_555 1_555
H3 C6 1_555 1_555
C7 C6 1_555 1_555
H4 C7 1_555 1_555
C8 C7 1_555 1_555
H5 C8 1_555 1_555
C9 C8 1_555 1_555
C10 C5 1_555 1_555
H6 C10 1_555 1_555
C11 O3 1_555 1_555
C12 N5 1_555 1_555
C13 N4 1_555 1_555
C14 O4 1_555 1_555
C15 C14 1_555 1_555
H7 C15 1_555 1_555
C16 O5 1_555 1_555
C17 C16 1_555 1_555
H8 C17 1_555 1_555
C18 C17 1_555 1_555
H9 C18 1_555 1_555
C19 C14 1_555 1_555
H10 C19 1_555 1_555
C20 O6 1_555 1_555
H11 C20 1_555 1_555
H12 C20 1_555 1_555
C21 C20 1_555 1_555
H13 C21 1_555 1_555
H14 C21 1_555 1_555
C22 O7 1_555 1_555
H15 C22 1_555 1_555
H16 C22 1_555 1_555
Cl1 C23 1_555 1_555
Cl2 C23 1_555 1_555
C23 H17 1_555 1_555
H18 C23 1_555 1_555
O1A C1A 1_555 1_555
O2A C3A 1_555 1_555
O3A C9A 1_555 1_555
O4A C13A 1_555 1_555
O5A C4A 1_555 1_555
O6A C12A 1_555 1_555
O7A C21A 1_555 1_555
N1A C2A 1_555 1_555
N2A C2A 1_555 1_555
N3A C3A 1_555 1_555
N4A C11A 1_555 1_555
N5A C11A 1_555 1_555
N6A C12A 1_555 1_555
C1A C22 1_555 1_555
H1A C1A 1_555 1_555
H2A C1A 1_555 1_555
C2A O1A 1_555 1_555
C3A N2A 1_555 1_555
C4A N1A 1_555 1_555
C5A O2A 1_555 1_555
C6A C5A 1_555 1_555
H3A C6A 1_555 1_555
C7A C6A 1_555 1_555
H4A C7A 1_555 1_555
C8A C7A 1_555 1_555
H5A C8A 1_555 1_555
C9A C8A 1_555 1_555
C10A C5A 1_555 1_555
H6A C10A 1_555 1_555
C11A O3A 1_555 1_555
C12A N5A 1_555 1_555
C13A N4A 1_555 1_555
C14A O4A 1_555 1_555
C15A C14A 1_555 1_555
H7A C15A 1_555 1_555
C16A O5A 1_555 1_555
C17A C16A 1_555 1_555
H8A C17A 1_555 1_555
C18A C17A 1_555 1_555
H9A C18A 1_555 1_555
C19A C14A 1_555 1_555
H10A C19A 1_555 1_555
C20A O6A 1_555 1_555
H11A C20A 1_555 1_555
H12A C20A 1_555 1_555
C21A C20A 1_555 1_555
H13A C21A 1_555 1_555
H14A C21A 1_555 1_555
C22A C1 1_555 1_555
H15A C22A 1_555 1_555
H16A C22A 1_555 1_555
N3 C4 1_555 1_555
N6 C13 1_555 1_555
C9 C10 1_555 1_555
C15 C16 1_555 1_555
C18 C19 1_555 1_555
O7A C22A 1_555 1_555
N3A C4A 1_555 1_555
N6A C13A 1_555 1_555
C9A C10A 1_555 1_555
C15A C16A 1_555 1_555
C18A C19A 1_555 1_555

#END
