
#######################################################################
#
#                 Cambridge Crystallographic Data Centre
#                                CCDC 
#
#######################################################################
#
# If this CIF has been generated from an entry in the Cambridge 
# Structural Database, then it will include bibliographic, chemical, 
# crystal, experimental, refinement or atomic coordinate data resulting 
# from the CCDC's data processing and validation procedures.
#
#######################################################################

data_TIRQOD
_chemical_formula_moiety         'C26 H24 N6 O9'
_chemical_name_systematic        
4,7,10,13,16,22,28,31,37-nonaoxa-2,18,20,30,39,41-hexaazahexacyclo[17.11.7.1^3,29^.1^17,21^.1^23,27^.1^32,36^]hentetraconta-1,3(39),17(41),18,20,23(40),24,26,29,32(38),33,35-dodecaene
_symmetry_cell_setting           triclinic
_symmetry_space_group_name_H-M   'P -1'
_symmetry_Int_Tables_number      2
_space_group_name_Hall           '-P 1'
loop_
_symmetry_equiv_pos_site_id
_symmetry_equiv_pos_as_xyz
1 x,y,z
2 -x,-y,-z
_cell_length_a                   8.6523(16)
_cell_length_b                   12.075(2)
_cell_length_c                   13.549(2)
_cell_angle_alpha                97.837(2)
_cell_angle_beta                 98.273(3)
_cell_angle_gamma                109.738(2)
_cell_volume                     1292.27
_exptl_crystal_colour            colorless
_exptl_crystal_description       Prism
_cell_formula_units_Z            2
loop_
_atom_site_label
_atom_site_type_symbol
_atom_site_fract_x
_atom_site_fract_y
_atom_site_fract_z
O1 O 0.81803(12) 1.02892(8) 0.80439(7)
O2 O 0.82821(11) 0.71162(8) 0.97901(7)
O3 O 0.29311(11) 0.47267(8) 0.81229(7)
O4 O 0.31934(11) 0.76711(9) 0.60510(7)
O5 O 0.67693(11) 0.30765(8) 0.88481(7)
O6 O 0.79335(13) 0.41058(9) 0.73117(7)
O7 O 0.71400(13) 0.54435(10) 0.51589(8)
O8 O 0.75408(13) 0.76173(9) 0.43466(8)
O9 O 0.73593(13) 0.99004(9) 0.46541(8)
N1 N 0.76024(13) 0.51245(9) 0.93758(8)
N2 N 0.48034(14) 0.38784(9) 0.85422(8)
N3 N 0.55871(13) 0.60055(9) 0.89265(8)
N4 N 0.56603(14) 0.89297(10) 0.71089(9)
N5 N 0.51923(14) 0.87406(10) 0.53099(9)
N6 N 0.77710(14) 1.01362(10) 0.63481(9)
C1 C 0.78100(16) 0.97074(11) 0.88612(10)
C2 C 0.71990(17) 1.02044(12) 0.96181(11)
H1 H 0.6973 1.0899 0.9579
C3 C 0.69258(19) 0.96464(13) 1.04429(12)
H2 H 0.6513 0.9973 1.0960
C4 C 0.72598(17) 0.86098(12) 1.05054(11)
H3 H 0.7081 0.8239 1.1059
C5 C 0.78625(16) 0.81433(11) 0.97277(10)
C6 C 0.81613(16) 0.86771(11) 0.89037(10)
H4 H 0.8586 0.8355 0.8391
C7 C 0.70905(16) 0.60390(11) 0.93438(9)
C8 C 0.64032(16) 0.40707(11) 0.89243(10)
C9 C 0.45176(15) 0.48882(11) 0.85530(9)
C10 C 0.26179(15) 0.57584(11) 0.79308(10)
C11 C 0.31327(15) 0.62298(12) 0.71067(10)
H5 H 0.3711 0.5901 0.6701
C12 C 0.27488(15) 0.72104(12) 0.69150(10)
C13 C 0.18645(16) 0.76970(12) 0.74947(11)
H6 H 0.1619 0.8356 0.7347
C14 C 0.13480(17) 0.71835(13) 0.83034(11)
H7 H 0.0745 0.7499 0.8700
C15 C 0.17221(16) 0.62052(12) 0.85255(10)
H8 H 0.1374 0.5858 0.9066
C16 C 0.47595(16) 0.84835(11) 0.61711(10)
C17 C 0.67342(17) 0.95629(12) 0.54548(11)
C18 C 0.71494(16) 0.97540(11) 0.71286(11)
C19 C 0.84537(17) 0.32156(12) 0.87017(11)
H9 H 0.8756 0.2568 0.8915
H10 H 0.9254 0.3970 0.9109
C20 C 0.84927(18) 0.31945(12) 0.75930(11)
H11 H 0.9623 0.3345 0.7484
H12 H 0.7763 0.2417 0.7187
C21 C 0.7945(2) 0.42279(15) 0.62892(11)
H13 H 0.7506 0.3445 0.5842
H14 H 0.9079 0.4647 0.6209
C22 C 0.6847(2) 0.49405(17) 0.60348(12)
H15 H 0.5679 0.4419 0.5921
H16 H 0.7058 0.5582 0.6611
C23 C 0.8619(2) 0.64863(15) 0.53593(13)
H17 H 0.9592 0.6268 0.5529
H18 H 0.8604 0.7049 0.5938
C24 C 0.87496(19) 0.70691(14) 0.44578(13)
H19 H 0.9865 0.7669 0.4547
H20 H 0.8559 0.6473 0.3851
C25 C 0.77360(19) 0.83115(13) 0.35736(11)
H21 H 0.7367 0.7790 0.2907
H22 H 0.8905 0.8816 0.3650
C26 C 0.6693(2) 0.90675(14) 0.36839(11)
H23 H 0.6718 0.9507 0.3134
H24 H 0.5539 0.8562 0.3653
loop_
_geom_bond_atom_site_label_1
_geom_bond_atom_site_label_2
_geom_bond_site_symmetry_1
_geom_bond_site_symmetry_2
O1 C1 1_555 1_555
O2 C5 1_555 1_555
O3 C9 1_555 1_555
O4 C12 1_555 1_555
O5 C8 1_555 1_555
O6 C20 1_555 1_555
O7 C22 1_555 1_555
O8 C24 1_555 1_555
O9 C17 1_555 1_555
N1 C7 1_555 1_555
N2 C8 1_555 1_555
N3 C7 1_555 1_555
N4 C16 1_555 1_555
N5 C16 1_555 1_555
N6 C17 1_555 1_555
C1 C2 1_555 1_555
C2 H1 1_555 1_555
C3 C2 1_555 1_555
H2 C3 1_555 1_555
C4 C3 1_555 1_555
H3 C4 1_555 1_555
C5 C4 1_555 1_555
C6 C1 1_555 1_555
H4 C6 1_555 1_555
C7 O2 1_555 1_555
C8 N1 1_555 1_555
C9 N2 1_555 1_555
C10 O3 1_555 1_555
C11 C10 1_555 1_555
H5 C11 1_555 1_555
C12 C11 1_555 1_555
C13 C12 1_555 1_555
H6 C13 1_555 1_555
C14 C13 1_555 1_555
H7 C14 1_555 1_555
C15 C10 1_555 1_555
H8 C15 1_555 1_555
C16 O4 1_555 1_555
C17 N5 1_555 1_555
C18 O1 1_555 1_555
C19 O5 1_555 1_555
H9 C19 1_555 1_555
H10 C19 1_555 1_555
C20 C19 1_555 1_555
H11 C20 1_555 1_555
H12 C20 1_555 1_555
C21 O6 1_555 1_555
H13 C21 1_555 1_555
H14 C21 1_555 1_555
C22 C21 1_555 1_555
H15 C22 1_555 1_555
H16 C22 1_555 1_555
C23 O7 1_555 1_555
H17 C23 1_555 1_555
H18 C23 1_555 1_555
C24 C23 1_555 1_555
H19 C24 1_555 1_555
H20 C24 1_555 1_555
C25 O8 1_555 1_555
H21 C25 1_555 1_555
H22 C25 1_555 1_555
C26 O9 1_555 1_555
H23 C26 1_555 1_555
H24 C26 1_555 1_555
N3 C9 1_555 1_555
N4 C18 1_555 1_555
N6 C18 1_555 1_555
C5 C6 1_555 1_555
C14 C15 1_555 1_555
C25 C26 1_555 1_555

#END
