
#######################################################################
#
#                 Cambridge Crystallographic Data Centre
#                                CCDC 
#
#######################################################################
#
# If this CIF has been generated from an entry in the Cambridge 
# Structural Database, then it will include bibliographic, chemical, 
# crystal, experimental, refinement or atomic coordinate data resulting 
# from the CCDC's data processing and validation procedures.
#
#######################################################################

data_TIRQAO
_chemical_formula_moiety         'C38 H32 O2'
_chemical_name_systematic        
4',7'-bis(3-methylphenyl)-5',8'-diphenyl-9'-oxaspiro[cyclopropane-1,3'-tricyclo[4.3.2.0^1,6^]undecane]-4',7'-dien-2'-one
_symmetry_cell_setting           triclinic
_symmetry_space_group_name_H-M   'P -1'
_symmetry_Int_Tables_number      2
_space_group_name_Hall           '-P 1'
loop_
_symmetry_equiv_pos_site_id
_symmetry_equiv_pos_as_xyz
1 x,y,z
2 -x,-y,-z
_cell_length_a                   8.0059(5)
_cell_length_b                   13.2066(8)
_cell_length_c                   14.6206(11)
_cell_angle_alpha                79.046(6)
_cell_angle_beta                 75.191(6)
_cell_angle_gamma                81.987(5)
_cell_volume                     1460.54
_exptl_crystal_colour            yellow
_exptl_crystal_description       block
_cell_formula_units_Z            2
loop_
_atom_site_label
_atom_site_type_symbol
_atom_site_fract_x
_atom_site_fract_y
_atom_site_fract_z
O1 O 0.1656(3) 0.5357(2) 0.5247(2)
O2 O 0.1800(3) 0.7240(2) 0.4129(2)
C1 C 0.2323(7) 0.8845(4) 0.5005(3)
H1 H 0.1982 0.8235 0.5403
C2 C 0.2248(9) 0.9707(5) 0.5401(4)
H2 H 0.1911 0.9667 0.6064
C3 C 0.2655(9) 1.0618(4) 0.4847(5)
H3 H 0.2554 1.1213 0.5118
C4 C 0.3211(8) 1.0649(4) 0.3890(5)
H4 H 0.3508 1.1273 0.3502
C5 C 0.3347(6) 0.9792(3) 0.3482(4)
H5 H 0.3752 0.9833 0.2821
C6 C 0.2883(5) 0.8848(3) 0.4045(3)
C7 C 0.3033(5) 0.7906(3) 0.3628(3)
C8 C 0.4129(4) 0.7563(3) 0.2862(3)
C9 C 0.3560(4) 0.6558(3) 0.2752(2)
C10 C 0.2149(4) 0.6322(3) 0.3685(3)
C11 C 0.2100(5) 0.6676(4) 0.2177(3)
H6 H 0.1787 0.7387 0.1912
H7 H 0.2346 0.6232 0.1692
C12 C 0.0816(5) 0.6265(4) 0.3101(3)
H8 H 0.0544 0.5566 0.3124
H9 H -0.0235 0.6725 0.3254
C13 C 0.2428(4) 0.5396(3) 0.4416(3)
C14 C 0.3624(4) 0.4531(3) 0.4053(3)
C15 C 0.4147(6) 0.3707(3) 0.4843(3)
H10 H 0.5292 0.3335 0.4697
H11 H 0.3752 0.3842 0.5497
C16 C 0.2838(6) 0.3483(3) 0.4378(3)
H12 H 0.1644 0.3485 0.4747
H13 H 0.3185 0.2978 0.3946
C17 C 0.4857(4) 0.4737(3) 0.3089(2)
C18 C 0.4899(4) 0.5664(3) 0.2524(2)
C19 C 0.5614(5) 0.8094(3) 0.2230(3)
C20 C 0.6896(5) 0.8330(3) 0.2600(3)
H14 H 0.6804 0.8161 0.3257
C21 C 0.8300(6) 0.8804(4) 0.2040(5)
H15 H 0.9160 0.8952 0.2305
C22 C 0.8405(8) 0.9057(4) 0.1078(6)
H16 H 0.9366 0.9372 0.0688
C23 C 0.7142(8) 0.8864(4) 0.0664(4)
C24 C 0.5734(5) 0.8371(3) 0.1251(3)
H17 H 0.4869 0.8226 0.0988
C25 C 0.7240(10) 0.9142(6) -0.0402(5)
H18 H 0.7484 0.8522 -0.0684
H19 H 0.8146 0.9588 -0.0696
H20 H 0.6151 0.9493 -0.0501
C26 C 0.6220(4) 0.5828(2) 0.1592(2)
C27 C 0.7895(5) 0.6017(3) 0.1578(3)
H21 H 0.8193 0.6018 0.2152
C28 C 0.9103(5) 0.6201(4) 0.0735(3)
H22 H 1.0205 0.6340 0.0745
C29 C 0.8736(7) 0.6185(4) -0.0111(3)
H23 H 0.9570 0.6320 -0.0681
C30 C 0.7151(7) 0.5971(4) -0.0119(3)
H24 H 0.6903 0.5938 -0.0700
C31 C 0.5874(6) 0.5798(3) 0.0721(3)
H25 H 0.4778 0.5662 0.0698
C32 C 0.6087(5) 0.3835(3) 0.2762(3)
C33 C 0.7673(5) 0.3594(3) 0.2984(3)
H26 H 0.8020 0.3987 0.3355
C34 C 0.8756(6) 0.2761(4) 0.2652(4)
C35 C 0.8281(9) 0.2181(4) 0.2117(4)
H27 H 0.9028 0.1620 0.1913
C36 C 0.6727(10) 0.2399(4) 0.1865(4)
H28 H 0.6408 0.2007 0.1482
C37 C 0.5634(7) 0.3234(3) 0.2207(3)
H29 H 0.4559 0.3391 0.2053
C38 C 1.0284(13) 0.2556(9) 0.2813(7)
H30 H 1.0878 0.1983 0.2505
H31 H 1.0190 0.2381 0.3491
H32 H 1.0922 0.3152 0.2563
loop_
_geom_bond_atom_site_label_1
_geom_bond_atom_site_label_2
_geom_bond_site_symmetry_1
_geom_bond_site_symmetry_2
O1 C13 1_555 1_555
O2 C7 1_555 1_555
C1 H1 1_555 1_555
C2 C1 1_555 1_555
H2 C2 1_555 1_555
C3 C2 1_555 1_555
H3 C3 1_555 1_555
C4 C3 1_555 1_555
H4 C4 1_555 1_555
C5 C4 1_555 1_555
H5 C5 1_555 1_555
C6 C1 1_555 1_555
C7 C6 1_555 1_555
C8 C7 1_555 1_555
C9 C8 1_555 1_555
C10 O2 1_555 1_555
C11 C9 1_555 1_555
H6 C11 1_555 1_555
H7 C11 1_555 1_555
C12 C10 1_555 1_555
H8 C12 1_555 1_555
H9 C12 1_555 1_555
C13 C10 1_555 1_555
C14 C13 1_555 1_555
C15 C14 1_555 1_555
H10 C15 1_555 1_555
H11 C15 1_555 1_555
C16 C14 1_555 1_555
H12 C16 1_555 1_555
H13 C16 1_555 1_555
C17 C14 1_555 1_555
C18 C9 1_555 1_555
C19 C8 1_555 1_555
C20 C19 1_555 1_555
H14 C20 1_555 1_555
C21 C20 1_555 1_555
H15 C21 1_555 1_555
C22 C21 1_555 1_555
H16 C22 1_555 1_555
C23 C22 1_555 1_555
C24 C19 1_555 1_555
H17 C24 1_555 1_555
C25 C23 1_555 1_555
H18 C25 1_555 1_555
H19 C25 1_555 1_555
H20 C25 1_555 1_555
C26 C18 1_555 1_555
C27 C26 1_555 1_555
H21 C27 1_555 1_555
C28 C27 1_555 1_555
H22 C28 1_555 1_555
C29 C28 1_555 1_555
H23 C29 1_555 1_555
C30 C29 1_555 1_555
H24 C30 1_555 1_555
C31 C26 1_555 1_555
H25 C31 1_555 1_555
C32 C17 1_555 1_555
C33 C32 1_555 1_555
H26 C33 1_555 1_555
C34 C33 1_555 1_555
C35 C34 1_555 1_555
H27 C35 1_555 1_555
C36 C35 1_555 1_555
H28 C36 1_555 1_555
C37 C32 1_555 1_555
H29 C37 1_555 1_555
C38 C34 1_555 1_555
H30 C38 1_555 1_555
H31 C38 1_555 1_555
H32 C38 1_555 1_555
C5 C6 1_555 1_555
C9 C10 1_555 1_555
C11 C12 1_555 1_555
C15 C16 1_555 1_555
C17 C18 1_555 1_555
C23 C24 1_555 1_555
C30 C31 1_555 1_555
C36 C37 1_555 1_555

#END
