
#######################################################################
#
#                 Cambridge Crystallographic Data Centre
#                                CCDC 
#
#######################################################################
#
# If this CIF has been generated from an entry in the Cambridge 
# Structural Database, then it will include bibliographic, chemical, 
# crystal, experimental, refinement or atomic coordinate data resulting 
# from the CCDC's data processing and validation procedures.
#
#######################################################################

data_TIRROE
_chemical_formula_moiety         
'C40 H24 N12 O12,C16 H36 N1 1+,C3 H3 O4 1-,C1 H1 Cl3'
_chemical_name_systematic        
'tetra-n-butylammonium carboxyacetate 4,7,13,19,25,28,34,40,43,49,55,61-dodecaoxa-2,9,11,21,23,30,32,42,51,53,54,63-dodecaazaundecacyclo[29.11.7.7^10,22^.1^3,41^.1^8,12^.1^14,18^.1^20,24^.1^29,33^.1^35,39^.1^44,48^.1^56,60^]tetrahexaconta-1,3(51),8(63),9,11,14(62),15,17,20(54),21,23,29(53),30,32,35(52),36,38,41,44(50),45,47,56(64),57,59-tetracosaene chloroform solvate'
_symmetry_cell_setting           triclinic
_symmetry_space_group_name_H-M   'P -1'
_symmetry_Int_Tables_number      2
_space_group_name_Hall           '-P 1'
loop_
_symmetry_equiv_pos_site_id
_symmetry_equiv_pos_as_xyz
1 x,y,z
2 -x,-y,-z
_cell_length_a                   12.475(4)
_cell_length_b                   14.775(3)
_cell_length_c                   19.732(5)
_cell_angle_alpha                72.708(18)
_cell_angle_beta                 88.501(19)
_cell_angle_gamma                65.976(10)
_cell_volume                     3152.95
_exptl_crystal_colour            colorless
_exptl_crystal_description       prism
_cell_formula_units_Z            2
loop_
_atom_site_label
_atom_site_type_symbol
_atom_site_fract_x
_atom_site_fract_y
_atom_site_fract_z
O7 O 1.0261(3) 0.3417(3) 0.3049(2)
O8 O 0.6549(3) 0.4336(2) 0.37805(17)
O9 O 0.6537(3) 0.1240(2) 0.34822(19)
O10 O 1.0053(3) 0.0545(3) 0.24861(19)
O11 O 0.9271(3) -0.2068(2) 0.38418(19)
O12 O 0.9534(3) 0.4034(2) 0.51647(18)
N7 N 0.9962(4) 0.3735(3) 0.4093(2)
N8 N 0.8386(3) 0.3812(3) 0.3381(2)
N9 N 0.8025(3) 0.4253(3) 0.4459(2)
N10 N 0.8276(3) 0.1001(3) 0.2973(2)
N11 N 0.7862(3) -0.0409(3) 0.3701(2)
N12 N 0.9661(3) -0.0762(3) 0.3151(2)
C21 C 0.9174(4) 0.4007(3) 0.4540(3)
C22 C 0.7712(4) 0.4117(3) 0.3874(3)
C23 C 0.9492(4) 0.3660(4) 0.3528(3)
C24 C 0.6221(4) 0.3847(3) 0.3366(2)
C25 C 0.5422(4) 0.4452(3) 0.2771(2)
H13 H 0.513955 0.518989 0.262143
C26 C 0.5034(4) 0.3976(4) 0.2392(3)
H14 H 0.449401 0.438672 0.197359
C27 C 0.5428(4) 0.2903(4) 0.2618(3)
H15 H 0.515789 0.257094 0.236119
C28 C 0.6215(4) 0.2329(3) 0.3219(3)
C29 C 0.6629(4) 0.2775(3) 0.3603(2)
H16 H 0.717729 0.236111 0.401794
C30 C 0.7618(4) 0.0596(3) 0.3381(3)
C31 C 0.8910(4) -0.1039(4) 0.3562(3)
C32 C 0.9284(4) 0.0261(4) 0.2890(3)
C33 C 0.9914(4) 0.1591(4) 0.2278(3)
C34 C 0.9816(4) 0.2100(4) 0.1557(3)
H17 H 0.977240 0.177755 0.121427
C35 C 0.9784(4) 0.3086(5) 0.1349(3)
H18 H 0.970005 0.345210 0.085408
C36 C 0.9871(4) 0.3554(4) 0.1837(3)
H19 H 0.983920 0.423899 0.168909
C37 C 1.0005(4) 0.3001(4) 0.2544(3)
C38 C 1.0025(4) 0.2026(4) 0.2779(2)
H20 H 1.011270 0.166133 0.327451
C39 C 1.0787(5) 0.3603(4) 0.5379(3)
H21 H 1.091250 0.382282 0.578616
H22 H 1.117131 0.388907 0.497853
C40 C 0.8639(5) -0.2433(4) 0.4409(3)
H23 H 0.779496 -0.216333 0.423717
H24 H 0.869898 -0.219492 0.481969
O7A O 0.9739(3) -0.3417(3) 0.6951(2)
O8A O 1.3451(3) -0.4336(2) 0.62195(17)
O9A O 1.3463(3) -0.1240(2) 0.65178(19)
O10A O 0.9947(3) -0.0545(3) 0.75139(19)
O11A O 1.0729(3) 0.2068(2) 0.61582(19)
O12A O 1.0466(3) -0.4034(2) 0.48353(18)
N7A N 1.0038(4) -0.3735(3) 0.5907(2)
N8A N 1.1614(3) -0.3812(3) 0.6619(2)
N9A N 1.1975(3) -0.4253(3) 0.5541(2)
N10A N 1.1724(3) -0.1001(3) 0.7027(2)
N11A N 1.2138(3) 0.0409(3) 0.6299(2)
N12A N 1.0339(3) 0.0762(3) 0.6849(2)
C21A C 1.0826(4) -0.4007(3) 0.5460(3)
C22A C 1.2288(4) -0.4117(3) 0.6126(3)
C23A C 1.0508(4) -0.3660(4) 0.6472(3)
C24A C 1.3779(4) -0.3847(3) 0.6634(2)
C25A C 1.4578(4) -0.4452(3) 0.7229(2)
H13A H 1.486045 -0.518989 0.737857
C26A C 1.4966(4) -0.3976(4) 0.7608(3)
H14A H 1.550599 -0.438672 0.802641
C27A C 1.4572(4) -0.2903(4) 0.7382(3)
H15A H 1.484211 -0.257094 0.763881
C28A C 1.3785(4) -0.2329(3) 0.6781(3)
C29A C 1.3371(4) -0.2775(3) 0.6397(2)
H16A H 1.282271 -0.236111 0.598206
C30A C 1.2382(4) -0.0596(3) 0.6619(3)
C31A C 1.1090(4) 0.1039(4) 0.6438(3)
C32A C 1.0716(4) -0.0261(4) 0.7110(3)
C33A C 1.0086(4) -0.1591(4) 0.7722(3)
C34A C 1.0184(4) -0.2100(4) 0.8443(3)
H17A H 1.022760 -0.177755 0.878573
C35A C 1.0216(4) -0.3086(5) 0.8651(3)
H18A H 1.029995 -0.345210 0.914592
C36A C 1.0129(4) -0.3554(4) 0.8163(3)
H19A H 1.016080 -0.423899 0.831091
C37A C 0.9995(4) -0.3001(4) 0.7456(3)
C38A C 0.9975(4) -0.2026(4) 0.7221(2)
H20A H 0.988730 -0.166133 0.672549
C39A C 0.9213(5) -0.3603(4) 0.4621(3)
H21A H 0.908750 -0.382282 0.421384
H22A H 0.882869 -0.388907 0.502147
C40A C 1.1361(5) 0.2433(4) 0.5591(3)
H23A H 1.220504 0.216333 0.576283
H24A H 1.130102 0.219492 0.518031
N13 N 0.6542(3) 0.2131(3) 0.65163(18)
C41 C 0.5398(4) 0.2942(4) 0.6057(2)
H25 H 0.482940 0.262304 0.609268
H26 H 0.505892 0.352854 0.625614
C42 C 0.5519(4) 0.3378(4) 0.5273(2)
H27 H 0.604782 0.280230 0.509928
H28 H 0.588146 0.387707 0.521673
C43 C 0.4310(4) 0.3935(4) 0.4821(3)
H29 H 0.373228 0.439298 0.506254
H30 H 0.437710 0.438193 0.435144
C44 C 0.3854(5) 0.3179(5) 0.4706(3)
H31 H 0.311802 0.356872 0.438426
H32 H 0.370475 0.278559 0.516572
H33 H 0.444343 0.269521 0.449472
C45 C 0.7469(4) 0.2570(4) 0.6472(2)
H34 H 0.823307 0.198828 0.670503
H35 H 0.756336 0.284523 0.596290
C46 C 0.7213(4) 0.3422(4) 0.6807(2)
H36 H 0.722356 0.313559 0.732951
H37 H 0.641644 0.398298 0.661444
C47 C 0.8129(4) 0.3869(4) 0.6649(3)
H38 H 0.892736 0.329086 0.678896
H39 H 0.805423 0.421990 0.612917
C48 C 0.7999(5) 0.4640(5) 0.7039(3)
H40 H 0.723450 0.524297 0.687402
H41 H 0.863524 0.487297 0.694263
H42 H 0.804197 0.430546 0.755339
C49 C 0.7082(4) 0.1181(3) 0.6256(2)
H43 H 0.735595 0.139351 0.578425
H44 H 0.778454 0.065213 0.659053
C50 C 0.6263(4) 0.0670(4) 0.6188(3)
H45 H 0.580087 0.064480 0.660312
H46 H 0.570192 0.109933 0.575135
C51 C 0.6935(6) -0.0415(5) 0.6152(4)
H47 H 0.748212 -0.084187 0.659441
H48 H 0.741825 -0.038517 0.574642
C52 C 0.6166(6) -0.0950(5) 0.6062(4)
H49 H 0.565806 -0.055917 0.560897
H50 H 0.567563 -0.097540 0.645754
H51 H 0.666696 -0.166128 0.606288
C53 C 0.6225(4) 0.1829(4) 0.7273(2)
H52 H 0.556713 0.161826 0.726723
H53 H 0.593655 0.245106 0.743625
C54 C 0.7230(4) 0.0951(4) 0.7807(2)
H54 H 0.795293 0.107614 0.774179
H55 H 0.739020 0.028201 0.772324
C55 C 0.6922(4) 0.0880(4) 0.8570(3)
H56 H 0.681674 0.153244 0.866262
H57 H 0.616517 0.081076 0.862230
C56 C 0.7877(5) -0.0043(4) 0.9117(3)
H58 H 0.795351 -0.069282 0.904245
H59 H 0.766150 -0.004855 0.959863
H60 H 0.862998 0.001755 0.906123
Cl1 Cl 1.00999(15) 0.84236(15) 0.16738(9)
Cl2 Cl 1.07703(17) 0.83745(19) 0.02757(10)
Cl3 Cl 0.97301(19) 0.70269(18) 0.10614(14)
C57 C 0.9764(5) 0.8233(5) 0.0888(3)
H61 H 0.896014 0.878143 0.067094
O1 O 0.6403(3) 0.8618(2) -0.18754(18)
O2 O 0.2648(3) 0.8940(2) -0.14297(19)
O3 O 0.4233(3) 0.6655(3) 0.09481(17)
O4 O 0.8022(3) 0.6095(2) 0.04400(16)
O5 O 0.3316(3) 1.1724(2) -0.26962(16)
O6 O 0.6787(3) 0.6449(2) 0.25754(16)
N1 N 0.4866(3) 1.0168(3) -0.23028(19)
N2 N 0.2916(3) 1.0332(3) -0.2090(2)
N3 N 0.4557(3) 0.8691(3) -0.16094(18)
N4 N 0.6093(3) 0.6417(3) 0.06216(19)
N5 N 0.5502(3) 0.6585(3) 0.17527(19)
N6 N 0.7491(3) 0.6243(3) 0.15126(19)
C1 C 0.5220(4) 0.9166(3) -0.1927(2)
C2 C 0.3695(4) 1.0700(3) -0.2350(2)
C3 C 0.3417(4) 0.9330(3) -0.1718(2)
C4 C 0.3091(4) 0.7927(3) -0.0935(3)
C5 C 0.3006(4) 0.7139(4) -0.1124(3)
H1 H 0.272520 0.725285 -0.159849
C6 C 0.3334(4) 0.6177(4) -0.0615(3)
H2 H 0.326378 0.562694 -0.073754
C7 C 0.3767(4) 0.5999(3) 0.0076(3)
H3 H 0.399147 0.533725 0.042892
C8 C 0.3861(4) 0.6815(4) 0.0234(2)
C9 C 0.3515(4) 0.7780(3) -0.0253(3)
H4 H 0.356465 0.833581 -0.012733
C10 C 0.5333(4) 0.6550(3) 0.1108(2)
C11 C 0.6615(4) 0.6422(3) 0.1913(2)
C12 C 0.7156(4) 0.6275(3) 0.0867(2)
C13 C 0.7706(4) 0.6334(3) -0.0297(2)
C14 C 0.7149(4) 0.7363(3) -0.0713(2)
H5 H 0.693970 0.791408 -0.051201
C15 C 0.6907(4) 0.7562(3) -0.1432(2)
C16 C 0.7225(4) 0.6789(4) -0.1738(3)
H6 H 0.706486 0.695039 -0.223835
C17 C 0.7789(4) 0.5760(4) -0.1304(3)
H7 H 0.800960 0.521122 -0.150798
C18 C 0.8031(4) 0.5528(3) -0.0579(3)
H8 H 0.841563 0.482376 -0.028108
C19 C 0.2234(4) 1.2412(3) -0.2479(3)
H9 H 0.226876 1.221058 -0.195226
H10 H 0.153675 1.236495 -0.266776
C20 C 0.7847(4) 0.6506(3) 0.2781(2)
H11 H 0.852729 0.602334 0.260897
H12 H 0.798350 0.628383 0.330824
O1A O 0.3597(3) 1.1382(2) 0.18754(18)
O2A O 0.7352(3) 1.1060(2) 0.14297(19)
O3A O 0.5767(3) 1.3345(3) -0.09481(17)
O4A O 0.1978(3) 1.3905(2) -0.04400(16)
O5A O 0.6684(3) 0.8276(2) 0.26962(16)
O6A O 0.3213(3) 1.3551(2) -0.25754(16)
N1A N 0.5134(3) 0.9832(3) 0.23028(19)
N2A N 0.7084(3) 0.9668(3) 0.2090(2)
N3A N 0.5443(3) 1.1309(3) 0.16094(18)
N4A N 0.3907(3) 1.3583(3) -0.06216(19)
N5A N 0.4498(3) 1.3415(3) -0.17527(19)
N6A N 0.2509(3) 1.3757(3) -0.15126(19)
C1A C 0.4780(4) 1.0834(3) 0.1927(2)
C2A C 0.6305(4) 0.9300(3) 0.2350(2)
C3A C 0.6583(4) 1.0670(3) 0.1718(2)
C4A C 0.6909(4) 1.2073(3) 0.0935(3)
C5A C 0.6994(4) 1.2861(4) 0.1124(3)
H1A H 0.727480 1.274715 0.159849
C6A C 0.6666(4) 1.3823(4) 0.0615(3)
H2A H 0.673622 1.437306 0.073754
C7A C 0.6233(4) 1.4001(3) -0.0076(3)
H3A H 0.600853 1.466275 -0.042892
C8A C 0.6139(4) 1.3185(4) -0.0234(2)
C9A C 0.6485(4) 1.2220(3) 0.0253(3)
H4A H 0.643535 1.166419 0.012733
C10A C 0.4667(4) 1.3450(3) -0.1108(2)
C11A C 0.3385(4) 1.3578(3) -0.1913(2)
C12A C 0.2844(4) 1.3725(3) -0.0867(2)
C13A C 0.2294(4) 1.3666(3) 0.0297(2)
C14A C 0.2851(4) 1.2637(3) 0.0713(2)
H5A H 0.306030 1.208592 0.051201
C15A C 0.3093(4) 1.2438(3) 0.1432(2)
C16A C 0.2775(4) 1.3211(4) 0.1738(3)
H6A H 0.293514 1.304961 0.223835
C17A C 0.2211(4) 1.4240(4) 0.1304(3)
H7A H 0.199040 1.478878 0.150798
C18A C 0.1969(4) 1.4472(3) 0.0579(3)
H8A H 0.158437 1.517624 0.028108
C19A C 0.7766(4) 0.7588(3) 0.2479(3)
H9A H 0.773124 0.778942 0.195226
H10A H 0.846325 0.763505 0.266776
C20A C 0.2153(4) 1.3494(3) -0.2781(2)
H11A H 0.147271 1.397666 -0.260897
H12A H 0.201650 1.371617 -0.330824
O13? O 0.5906(7) 0.8698(5) 0.0343(4)
O14? O 0.6859(7) 0.9442(7) 0.0785(4)
O15? O 0.3238(8) 1.1458(6) -0.0667(4)
H62? H 0.344307 1.175162 -0.104857
O16? O 0.4137(7) 0.9759(6) -0.0465(4)
C58? C 0.6020(12) 0.938990 0.0465(14)
C59? C 0.5032(9) 1.0520(7) 0.0089(6)
H63? H 0.467452 1.084089 0.046104
H64? H 0.540693 1.095128 -0.021191
C60? C 0.406559 1.0545(10) -0.0369(13)
O17? O 0.9459(7) -0.1071(6) 0.5198(5)
O18? O 1.1353(7) -0.1901(5) 0.5086(4)
O19? O 0.9542(12) 0.1754(7) 0.4656(6)
O20? O 0.8516(7) 0.0816(5) 0.4912(4)
H65? H 0.864751 0.019124 0.497297
C61? C 1.047(3) -0.112(2) 0.5064(16)
C62? C 1.0563(9) -0.0072(8) 0.4832(7)
H66? H 1.079182 0.004512 0.434000
H67? H 1.122095 -0.014049 0.514205
C63? C 0.948(3) 0.0920(17) 0.4840(14)
loop_
_geom_bond_atom_site_label_1
_geom_bond_atom_site_label_2
_geom_bond_site_symmetry_1
_geom_bond_site_symmetry_2
O1 C1 1_555 1_555
O2 C3 1_555 1_555
O3 C8 1_555 1_555
O4 C12 1_555 1_555
O5 C2 1_555 1_555
O6 C11 1_555 1_555
N1 C1 1_555 1_555
N2 C2 1_555 1_555
N3 C1 1_555 1_555
N4 C10 1_555 1_555
N5 C10 1_555 1_555
N6 C11 1_555 1_555
C2 N1 1_555 1_555
C3 N2 1_555 1_555
C4 O2 1_555 1_555
C5 C4 1_555 1_555
H1 C5 1_555 1_555
C6 C5 1_555 1_555
H2 C6 1_555 1_555
C7 C6 1_555 1_555
H3 C7 1_555 1_555
C8 C7 1_555 1_555
C9 C4 1_555 1_555
H4 C9 1_555 1_555
C10 O3 1_555 1_555
C11 N5 1_555 1_555
C12 N4 1_555 1_555
C13 O4 1_555 1_555
C14 C13 1_555 1_555
H5 C14 1_555 1_555
C15 O1 1_555 1_555
C16 C15 1_555 1_555
H6 C16 1_555 1_555
C17 C16 1_555 1_555
H7 C17 1_555 1_555
C18 C13 1_555 1_555
H8 C18 1_555 1_555
C19 O5 1_555 1_555
H9 C19 1_555 1_555
H10 C19 1_555 1_555
C20 O6 1_555 1_555
H11 C20 1_555 1_555
H12 C20 1_555 1_555
O7 C23 1_555 1_555
O8 C22 1_555 1_555
O9 C28 1_555 1_555
O10 C32 1_555 1_555
O11 C31 1_555 1_555
O12 C21 1_555 1_555
N7 C21 1_555 1_555
N8 C22 1_555 1_555
N9 C21 1_555 1_555
N10 C30 1_555 1_555
N11 C30 1_555 1_555
N12 C31 1_555 1_555
C22 N9 1_555 1_555
C23 N7 1_555 1_555
C24 O8 1_555 1_555
C25 C24 1_555 1_555
H13 C25 1_555 1_555
C26 C25 1_555 1_555
H14 C26 1_555 1_555
C27 C26 1_555 1_555
H15 C27 1_555 1_555
C28 C27 1_555 1_555
C29 C24 1_555 1_555
H16 C29 1_555 1_555
C30 O9 1_555 1_555
C31 N11 1_555 1_555
C32 N10 1_555 1_555
C33 O10 1_555 1_555
C34 C33 1_555 1_555
H17 C34 1_555 1_555
C35 C34 1_555 1_555
H18 C35 1_555 1_555
C36 C35 1_555 1_555
H19 C36 1_555 1_555
C37 O7 1_555 1_555
C38 C33 1_555 1_555
H20 C38 1_555 1_555
C39 O12 1_555 1_555
H21 C39 1_555 1_555
H22 C39 1_555 1_555
C40 O11 1_555 1_555
H23 C40 1_555 1_555
H24 C40 1_555 1_555
N13 C41 1_555 1_555
C41 H25 1_555 1_555
H26 C41 1_555 1_555
C42 C41 1_555 1_555
H27 C42 1_555 1_555
H28 C42 1_555 1_555
C43 C42 1_555 1_555
H29 C43 1_555 1_555
H30 C43 1_555 1_555
C44 C43 1_555 1_555
H31 C44 1_555 1_555
H32 C44 1_555 1_555
H33 C44 1_555 1_555
C45 N13 1_555 1_555
H34 C45 1_555 1_555
H35 C45 1_555 1_555
C46 C45 1_555 1_555
H36 C46 1_555 1_555
H37 C46 1_555 1_555
C47 C46 1_555 1_555
H38 C47 1_555 1_555
H39 C47 1_555 1_555
C48 C47 1_555 1_555
H40 C48 1_555 1_555
H41 C48 1_555 1_555
H42 C48 1_555 1_555
C49 N13 1_555 1_555
H43 C49 1_555 1_555
H44 C49 1_555 1_555
C50 C49 1_555 1_555
H45 C50 1_555 1_555
H46 C50 1_555 1_555
C51 C50 1_555 1_555
H47 C51 1_555 1_555
H48 C51 1_555 1_555
C52 C51 1_555 1_555
H49 C52 1_555 1_555
H50 C52 1_555 1_555
H51 C52 1_555 1_555
C53 N13 1_555 1_555
H52 C53 1_555 1_555
H53 C53 1_555 1_555
C54 C53 1_555 1_555
H54 C54 1_555 1_555
H55 C54 1_555 1_555
C55 C54 1_555 1_555
H56 C55 1_555 1_555
H57 C55 1_555 1_555
C56 C55 1_555 1_555
H58 C56 1_555 1_555
H59 C56 1_555 1_555
H60 C56 1_555 1_555
Cl1 C57 1_555 1_555
Cl2 C57 1_555 1_555
Cl3 C57 1_555 1_555
C57 H61 1_555 1_555
O1A C1A 1_555 1_555
O2A C3A 1_555 1_555
O3A C8A 1_555 1_555
O4A C12A 1_555 1_555
O5A C2A 1_555 1_555
O6A C11A 1_555 1_555
N1A C1A 1_555 1_555
N2A C2A 1_555 1_555
N3A C1A 1_555 1_555
N4A C10A 1_555 1_555
N5A C10A 1_555 1_555
N6A C11A 1_555 1_555
C2A N1A 1_555 1_555
C3A N2A 1_555 1_555
C4A O2A 1_555 1_555
C5A C4A 1_555 1_555
H1A C5A 1_555 1_555
C6A C5A 1_555 1_555
H2A C6A 1_555 1_555
C7A C6A 1_555 1_555
H3A C7A 1_555 1_555
C8A C7A 1_555 1_555
C9A C4A 1_555 1_555
H4A C9A 1_555 1_555
C10A O3A 1_555 1_555
C11A N5A 1_555 1_555
C12A N4A 1_555 1_555
C13A O4A 1_555 1_555
C14A C13A 1_555 1_555
H5A C14A 1_555 1_555
C15A O1A 1_555 1_555
C16A C15A 1_555 1_555
H6A C16A 1_555 1_555
C17A C16A 1_555 1_555
H7A C17A 1_555 1_555
C18A C13A 1_555 1_555
H8A C18A 1_555 1_555
C19A C20 1_555 1_555
H9A C19A 1_555 1_555
H10A C19A 1_555 1_555
C20A C19 1_555 1_555
H11A C20A 1_555 1_555
H12A C20A 1_555 1_555
O7A C23A 1_555 1_555
O8A C22A 1_555 1_555
O9A C28A 1_555 1_555
O10A C32A 1_555 1_555
O11A C31A 1_555 1_555
O12A C21A 1_555 1_555
N7A C21A 1_555 1_555
N8A C22A 1_555 1_555
N9A C21A 1_555 1_555
N10A C30A 1_555 1_555
N11A C30A 1_555 1_555
N12A C31A 1_555 1_555
C22A N9A 1_555 1_555
C23A N7A 1_555 1_555
C24A O8A 1_555 1_555
C25A C24A 1_555 1_555
H13A C25A 1_555 1_555
C26A C25A 1_555 1_555
H14A C26A 1_555 1_555
C27A C26A 1_555 1_555
H15A C27A 1_555 1_555
C28A C27A 1_555 1_555
C29A C24A 1_555 1_555
H16A C29A 1_555 1_555
C30A O9A 1_555 1_555
C31A N11A 1_555 1_555
C32A N10A 1_555 1_555
C33A O10A 1_555 1_555
C34A C33A 1_555 1_555
H17A C34A 1_555 1_555
C35A C34A 1_555 1_555
H18A C35A 1_555 1_555
C36A C35A 1_555 1_555
H19A C36A 1_555 1_555
C37A O7A 1_555 1_555
C38A C33A 1_555 1_555
H20A C38A 1_555 1_555
C39A C40 1_555 1_555
H21A C39A 1_555 1_555
H22A C39A 1_555 1_555
C40A C39 1_555 1_555
H23A C40A 1_555 1_555
H24A C40A 1_555 1_555
N3 C3 1_555 1_555
N6 C12 1_555 1_555
C8 C9 1_555 1_555
C14 C15 1_555 1_555
C17 C18 1_555 1_555
N8 C23 1_555 1_555
N12 C32 1_555 1_555
C28 C29 1_555 1_555
C36 C37 1_555 1_555
C37 C38 1_555 1_555
O5A C19A 1_555 1_555
O6A C20A 1_555 1_555
N3A C3A 1_555 1_555
N6A C12A 1_555 1_555
C8A C9A 1_555 1_555
C14A C15A 1_555 1_555
C17A C18A 1_555 1_555
O11A C40A 1_555 1_555
O12A C39A 1_555 1_555
N8A C23A 1_555 1_555
N12A C32A 1_555 1_555
C28A C29A 1_555 1_555
C36A C37A 1_555 1_555
C37A C38A 1_555 1_555

#END
