
#######################################################################
#
#                 Cambridge Crystallographic Data Centre
#                                CCDC 
#
#######################################################################
#
# If this CIF has been generated from an entry in the Cambridge 
# Structural Database, then it will include bibliographic, chemical, 
# crystal, experimental, refinement or atomic coordinate data resulting 
# from the CCDC's data processing and validation procedures.
#
#######################################################################

data_TIRSEU
_chemical_formula_moiety         'C15 H18 N2 O2,H2 O1'
_chemical_name_systematic        
'3-(2-Phenylvinyl)hexahydro-6H-pyrimido[1,6-c][1,3]oxazin-6-one monohydrate'
_symmetry_cell_setting           orthorhombic
_symmetry_space_group_name_H-M   'P 21 21 21'
_symmetry_Int_Tables_number      19
_space_group_name_Hall           'P 2ac 2ab'
loop_
_symmetry_equiv_pos_site_id
_symmetry_equiv_pos_as_xyz
1 x,y,z
2 1/2-x,-y,1/2+z
3 -x,1/2+y,1/2-z
4 1/2+x,1/2-y,-z
_cell_length_a                   6.1025(6)
_cell_length_b                   6.3610(6)
_cell_length_c                   36.103(3)
_cell_angle_alpha                90
_cell_angle_beta                 90
_cell_angle_gamma                90
_cell_volume                     1401.45
_exptl_crystal_colour            colorless
_exptl_crystal_description       plate
_cell_formula_units_Z            4
loop_
_atom_site_label
_atom_site_type_symbol
_atom_site_fract_x
_atom_site_fract_y
_atom_site_fract_z
O1 O 1.23553(18) 0.32990(17) 0.76354(3)
C1 C 1.1005(2) 0.2719(2) 0.78753(4)
C2 C 0.9356(2) 0.4243(2) 0.80282(4)
H1 H 0.8717 0.5053 0.7820
H2 H 1.0123 0.5250 0.8192
C3 C 0.7507(2) 0.3215(2) 0.82449(4)
H3 H 0.6496 0.2479 0.8070
C4 C 0.6227(2) 0.4839(2) 0.84670(4)
H4 H 0.5381 0.5738 0.8295
H5 H 0.7268 0.5751 0.8603
C5 C 0.4662(2) 0.3822(2) 0.87425(4)
H6 H 0.3485 0.3048 0.8606
C6 C 0.3657(2) 0.5431(2) 0.89915(4)
H7 H 0.4585 0.6481 0.9094
C7 C 0.1545(2) 0.5481(2) 0.90784(4)
H8 H 0.0638 0.4395 0.8983
C8 C 0.0499(2) 0.7094(2) 0.93123(4)
C9 C 0.1400(3) 0.9103(2) 0.93584(4)
H9 H 0.2748 0.9447 0.9242
C10 C 0.0334(3) 1.0592(2) 0.95736(4)
H10 H 0.0956 1.1950 0.9604
C11 C -0.1638(3) 1.0103(3) 0.97443(4)
H11 H -0.2369 1.1127 0.9891
C12 C -0.2536(3) 0.8132(3) 0.97013(4)
H12 H -0.3882 0.7797 0.9820
C13 C -0.1487(2) 0.6637(2) 0.94868(4)
H13 H -0.2124 0.5284 0.9458
O2 O 0.58981(17) 0.23699(16) 0.89689(3)
C14 C 0.6847(2) 0.0796(2) 0.87466(4)
H14 H 0.5689 0.0100 0.8599
H15 H 0.7534 -0.0279 0.8907
N1 N 0.85010(19) 0.16717(18) 0.84972(3)
C15 C 0.9447(3) -0.0024(2) 0.82815(4)
H16 H 0.8265 -0.0791 0.8151
H17 H 1.0192 -0.1025 0.8449
N2 N 1.1015(2) 0.07783(18) 0.80118(3)
H18 H 1.2044 -0.0084 0.7934
O3 O 0.3668(2) 0.74958(19) 0.77143(3)
H19 H 0.489(4) 0.761(3) 0.7595(6)
H20 H 0.317(4) 0.636(4) 0.7687(6)
loop_
_geom_bond_atom_site_label_1
_geom_bond_atom_site_label_2
_geom_bond_site_symmetry_1
_geom_bond_site_symmetry_2
O1 C1 1_555 1_555
C1 C2 1_555 1_555
C2 H1 1_555 1_555
H2 C2 1_555 1_555
C3 C2 1_555 1_555
H3 C3 1_555 1_555
C4 C3 1_555 1_555
H4 C4 1_555 1_555
H5 C4 1_555 1_555
C5 C4 1_555 1_555
H6 C5 1_555 1_555
C6 C5 1_555 1_555
H7 C6 1_555 1_555
C7 C6 1_555 1_555
H8 C7 1_555 1_555
C8 C7 1_555 1_555
C9 C8 1_555 1_555
H9 C9 1_555 1_555
C10 C9 1_555 1_555
H10 C10 1_555 1_555
C11 C10 1_555 1_555
H11 C11 1_555 1_555
C12 C11 1_555 1_555
H12 C12 1_555 1_555
C13 C8 1_555 1_555
H13 C13 1_555 1_555
O2 C5 1_555 1_555
C14 O2 1_555 1_555
H14 C14 1_555 1_555
H15 C14 1_555 1_555
N1 C3 1_555 1_555
C15 N1 1_555 1_555
H16 C15 1_555 1_555
H17 C15 1_555 1_555
N2 C1 1_555 1_555
H18 N2 1_555 1_555
O3 H19 1_555 1_555
H20 O3 1_555 1_555
C12 C13 1_555 1_555
C14 N1 1_555 1_555
C15 N2 1_555 1_555

#END
