
#######################################################################
#
#                 Cambridge Crystallographic Data Centre
#                                CCDC 
#
#######################################################################
#
# If this CIF has been generated from an entry in the Cambridge 
# Structural Database, then it will include bibliographic, chemical, 
# crystal, experimental, refinement or atomic coordinate data resulting 
# from the CCDC's data processing and validation procedures.
#
#######################################################################

data_TIRVUN
_chemical_formula_moiety         'C7 H3 N2 O6 1-,C10 H10 N3 1+'
_chemical_name_systematic        
'2-(pyridin-2-ylamino)pyridinium 2,4-dinitrobenzoate'
_symmetry_cell_setting           triclinic
_symmetry_space_group_name_H-M   'P -1'
_symmetry_Int_Tables_number      2
_space_group_name_Hall           '-P 1'
loop_
_symmetry_equiv_pos_site_id
_symmetry_equiv_pos_as_xyz
1 x,y,z
2 -x,-y,-z
_cell_length_a                   7.8583(7)
_cell_length_b                   8.4537(8)
_cell_length_c                   13.0553(12)
_cell_angle_alpha                96.6780(10)
_cell_angle_beta                 94.6740(10)
_cell_angle_gamma                101.9060(10)
_cell_volume                     837.892
_exptl_crystal_colour            colorless
_exptl_crystal_description       rhombus
_cell_formula_units_Z            2
loop_
_atom_site_label
_atom_site_type_symbol
_atom_site_fract_x
_atom_site_fract_y
_atom_site_fract_z
N1 N 0.23085(17) 0.39889(15) 0.91053(10)
H1 H 0.2219 0.3268 0.8570
C1 C 0.29849(19) 0.36148(18) 1.00115(12)
C2 C 0.3596(2) 0.21722(19) 1.00396(13)
H2 H 0.3542 0.1454 0.9436
C3 C 0.4269(2) 0.1840(2) 1.09643(14)
H3 H 0.4663 0.0880 1.0993
C4 C 0.4372(2) 0.2925(2) 1.18684(14)
H4 H 0.4837 0.2699 1.2500
C5 C 0.3788(2) 0.4308(2) 1.18122(13)
H5 H 0.3864 0.5046 1.2410
N2 N 0.30916(17) 0.46383(16) 1.08970(10)
H6 H 0.261(3) 0.569(3) 1.0768(17)
C6 C 0.1741(2) 0.54028(19) 0.89376(12)
C7 C 0.1240(2) 0.5628(2) 0.79236(14)
H7 H 0.1303(19) 0.4823(18) 0.7413(12)
C8 C 0.0738(2) 0.7044(2) 0.77764(15)
H8 H 0.0396 0.7229 0.7110
C9 C 0.0737(2) 0.8201(2) 0.86144(15)
H9 H 0.0413 0.9177 0.8522
C10 C 0.1222(2) 0.7877(2) 0.95803(14)
H10 H 0.1215 0.8652 1.0146
N3 N 0.17121(17) 0.64890(15) 0.97550(10)
O1 O 0.19814(17) 0.19875(15) 0.73016(9)
O2 O 0.42456(19) 0.0831(2) 0.75868(10)
C11 C 0.3096(2) 0.1209(2) 0.70337(13)
C12 C 0.2902(2) 0.05621(19) 0.58821(12)
C13 C 0.2649(2) 0.14895(18) 0.50959(12)
C14 C 0.2336(2) 0.08539(18) 0.40608(12)
H11 H 0.2162 0.1505 0.3552
C15 C 0.2292(2) -0.07811(18) 0.38096(12)
C16 C 0.2543(2) -0.1765(2) 0.45482(13)
H12 H 0.2507 -0.2868 0.4361
C17 C 0.2851(2) -0.1074(2) 0.55795(13)
H13 H 0.3030 -0.1730 0.6085
N4 N 0.2803(2) 0.32636(18) 0.53353(12)
O3 O 0.4002(2) 0.40381(15) 0.59473(11)
O4 O 0.1735(2) 0.38608(17) 0.48857(14)
N5 N 0.19967(17) -0.14692(18) 0.27085(11)
O5 O 0.19575(17) -0.29220(15) 0.24863(10)
O6 O 0.18054(17) -0.05506(15) 0.20723(9)
loop_
_geom_bond_atom_site_label_1
_geom_bond_atom_site_label_2
_geom_bond_site_symmetry_1
_geom_bond_site_symmetry_2
N1 H1 1_555 1_555
C1 N1 1_555 1_555
C2 C1 1_555 1_555
H2 C2 1_555 1_555
C3 C2 1_555 1_555
H3 C3 1_555 1_555
C4 C3 1_555 1_555
H4 C4 1_555 1_555
C5 C4 1_555 1_555
H5 C5 1_555 1_555
N2 C1 1_555 1_555
H6 N2 1_555 1_555
C6 N1 1_555 1_555
C7 C6 1_555 1_555
H7 C7 1_555 1_555
C8 C7 1_555 1_555
H8 C8 1_555 1_555
C9 C8 1_555 1_555
H9 C9 1_555 1_555
C10 C9 1_555 1_555
H10 C10 1_555 1_555
N3 C6 1_555 1_555
O1 C11 1_555 1_555
O2 C11 1_555 1_555
C11 C12 1_555 1_555
C12 C13 1_555 1_555
C13 C14 1_555 1_555
C14 H11 1_555 1_555
C15 C14 1_555 1_555
C16 C15 1_555 1_555
H12 C16 1_555 1_555
C17 C12 1_555 1_555
H13 C17 1_555 1_555
N4 C13 1_555 1_555
O3 N4 1_555 1_555
O4 N4 1_555 1_555
N5 C15 1_555 1_555
O5 N5 1_555 1_555
O6 N5 1_555 1_555
C5 N2 1_555 1_555
C10 N3 1_555 1_555
C16 C17 1_555 1_555

#END
