
#######################################################################
#
#                 Cambridge Crystallographic Data Centre
#                                CCDC 
#
#######################################################################
#
# If this CIF has been generated from an entry in the Cambridge 
# Structural Database, then it will include bibliographic, chemical, 
# crystal, experimental, refinement or atomic coordinate data resulting 
# from the CCDC's data processing and validation procedures.
#
#######################################################################

data_TIRVOH
_chemical_formula_moiety         'C10 H10 N3 1+,C6 H2 N3 O7 1-'
_chemical_name_systematic        
'2-(pyridin-2-ylamino)pyridinium 2,4,6-trinitrophenolate'
_symmetry_cell_setting           triclinic
_symmetry_space_group_name_H-M   'P -1'
_symmetry_Int_Tables_number      2
_space_group_name_Hall           '-P 1'
loop_
_symmetry_equiv_pos_site_id
_symmetry_equiv_pos_as_xyz
1 x,y,z
2 -x,-y,-z
_cell_length_a                   7.892(11)
_cell_length_b                   9.252(13)
_cell_length_c                   12.336(17)
_cell_angle_alpha                105.045(16)
_cell_angle_beta                 101.672(16)
_cell_angle_gamma                96.214(16)
_cell_volume                     839.476
_exptl_crystal_colour            yellow
_exptl_crystal_description       slice
_cell_formula_units_Z            2
loop_
_atom_site_label
_atom_site_type_symbol
_atom_site_fract_x
_atom_site_fract_y
_atom_site_fract_z
N1 N 0.0673(7) 0.9021(6) 0.8073(4)
H1 H -0.0053 0.9165 0.7505
C1 C 0.1035(9) 0.7571(8) 0.7919(5)
C2 C 0.0172(9) 0.6416(8) 0.6930(5)
H2 H -0.0656 0.6606 0.6354
C3 C 0.0568(9) 0.5003(8) 0.6825(6)
H3 H 0.0004 0.4215 0.6167
C4 C 0.1805(10) 0.4716(8) 0.7687(6)
H4 H 0.2069 0.3745 0.7618
C5 C 0.2611(9) 0.5886(8) 0.8628(6)
H5 H 0.3445 0.5711 0.9208
N2 N 0.2241(7) 0.7318(6) 0.8753(4)
C6 C 0.1327(9) 1.0276(8) 0.9025(5)
C7 C 0.0690(9) 1.1638(8) 0.9069(6)
H6 H -0.0171 1.1722 0.8462
C8 C 0.1368(10) 1.2830(8) 1.0024(6)
H7 H 0.0966 1.3749 1.0076
C9 C 0.2651(10) 1.2698(8) 1.0923(6)
H8 H 0.3131 1.3520 1.1575
C10 C 0.3192(9) 1.1334(8) 1.0829(6)
H9 H 0.4034 1.1221 1.1435
N3 N 0.2545(7) 1.0155(6) 0.9889(4)
H10 H 0.2924 0.9309 0.9846
C11 C 0.3411(8) 0.1383(7) 0.4390(5)
C12 C 0.4954(8) 0.2533(7) 0.5008(5)
C13 C 0.5690(8) 0.2895(7) 0.6158(5)
H11 H 0.6632 0.3689 0.6505
C14 C 0.5013(9) 0.2057(7) 0.6813(5)
C15 C 0.3632(8) 0.0868(7) 0.6302(5)
H12 H 0.3214 0.0301 0.6744
C16 C 0.2877(8) 0.0522(6) 0.5149(5)
O1 O 0.2655(6) 0.1188(5) 0.3373(4)
N4 N 0.5825(8) 0.3420(7) 0.4359(5)
O2 O 0.5613(8) 0.2864(7) 0.3330(5)
O3 O 0.6791(6) 0.4605(5) 0.4908(4)
N5 N 0.1486(7) -0.0787(6) 0.4665(5)
O4 O 0.0755(7) -0.1165(6) 0.3653(4)
O5 O 0.1106(7) -0.1517(5) 0.5300(4)
N6 N 0.5810(9) 0.2430(7) 0.8038(5)
O6 O 0.7094(8) 0.3444(6) 0.8459(4)
O7 O 0.5171(7) 0.1701(6) 0.8609(4)
loop_
_geom_bond_atom_site_label_1
_geom_bond_atom_site_label_2
_geom_bond_site_symmetry_1
_geom_bond_site_symmetry_2
N1 H1 1_555 1_555
C1 N1 1_555 1_555
C2 C1 1_555 1_555
H2 C2 1_555 1_555
C3 C2 1_555 1_555
H3 C3 1_555 1_555
C4 C3 1_555 1_555
H4 C4 1_555 1_555
C5 C4 1_555 1_555
H5 C5 1_555 1_555
N2 C1 1_555 1_555
C6 N1 1_555 1_555
C7 C6 1_555 1_555
H6 C7 1_555 1_555
C8 C7 1_555 1_555
H7 C8 1_555 1_555
C9 C8 1_555 1_555
H8 C9 1_555 1_555
C10 C9 1_555 1_555
H9 C10 1_555 1_555
N3 C6 1_555 1_555
H10 N3 1_555 1_555
C11 C12 1_555 1_555
C12 C13 1_555 1_555
C13 H11 1_555 1_555
C14 C13 1_555 1_555
C15 C14 1_555 1_555
H12 C15 1_555 1_555
C16 C11 1_555 1_555
O1 C11 1_555 1_555
N4 C12 1_555 1_555
O2 N4 1_555 1_555
O3 N4 1_555 1_555
N5 C16 1_555 1_555
O4 N5 1_555 1_555
O5 N5 1_555 1_555
N6 C14 1_555 1_555
O6 N6 1_555 1_555
O7 N6 1_555 1_555
C5 N2 1_555 1_555
C10 N3 1_555 1_555
C15 C16 1_555 1_555

#END
