
#######################################################################
#
#                 Cambridge Crystallographic Data Centre
#                                CCDC 
#
#######################################################################
#
# If this CIF has been generated from an entry in the Cambridge 
# Structural Database, then it will include bibliographic, chemical, 
# crystal, experimental, refinement or atomic coordinate data resulting 
# from the CCDC's data processing and validation procedures.
#
#######################################################################

data_TISBAA
_chemical_formula_moiety         'C19 H21 N3 O5 S1'
_chemical_name_systematic        
1-(4-Methoxyphenyl)-2-((4-nitrophenyl)sulfonyl)tetrahydro-1H,5H-pyrazolo[1,2-a]pyrazole
_symmetry_cell_setting           monoclinic
_symmetry_space_group_name_H-M   'P 21/c'
_symmetry_Int_Tables_number      14
_space_group_name_Hall           '-P 2ybc'
loop_
_symmetry_equiv_pos_site_id
_symmetry_equiv_pos_as_xyz
1 x,y,z
2 -x,1/2+y,1/2-z
3 -x,-y,-z
4 x,1/2-y,1/2+z
_cell_length_a                   9.3530(3)
_cell_length_b                   21.9827(7)
_cell_length_c                   18.6010(6)
_cell_angle_alpha                90
_cell_angle_beta                 103.7550(10)
_cell_angle_gamma                90
_cell_volume                     3714.76
_exptl_crystal_colour            yellow
_exptl_crystal_description       block
_cell_formula_units_Z            8
loop_
_atom_site_label
_atom_site_type_symbol
_atom_site_fract_x
_atom_site_fract_y
_atom_site_fract_z
S1 S -0.10939(3) 0.902179(13) 0.442754(15)
O1 O -0.13112(10) 0.95702(4) 0.48152(5)
O2 O -0.22301(10) 0.85637(4) 0.42959(5)
O3 O 0.38147(11) 0.81757(5) 0.22821(5)
O4 O -0.02973(12) 0.94568(5) 0.10052(5)
N1 N 0.11017(11) 0.79869(5) 0.59379(6)
N2 N 0.18965(11) 0.78298(5) 0.53736(6)
C1 C 0.09782(13) 0.80760(5) 0.46613(6)
H1 H 0.0059 0.7830 0.4501
C2 C 0.06146(14) 0.86123(6) 0.57599(7)
H2 H 0.1297 0.8903 0.6074
H3 H -0.0384 0.8675 0.5841
O5 O 0.13966(12) 1.00545(5) 0.16275(6)
N3 N 0.03591(13) 0.97027(5) 0.15815(6)
C3 C 0.06075(12) 0.87062(5) 0.49275(6)
H4 H 0.1418 0.8994 0.4895
C4 C -0.00933(13) 0.95535(5) 0.22662(6)
C5 C 0.32020(13) 0.81629(6) 0.28846(7)
C6 C 0.12858(13) 0.77539(6) 0.34059(7)
H5 H 0.0449 0.7499 0.3362
C7 C 0.19762(13) 0.77898(6) 0.28213(7)
H6 H 0.1613 0.7561 0.2382
C8 C 0.30660(13) 0.84377(5) 0.41205(6)
H7 H 0.3456 0.8652 0.4568
C9 C -0.11565(13) 0.88490(6) 0.29623(7)
H8 H -0.1645 0.8477 0.3005
C10 C -0.07554(12) 0.92402(5) 0.35655(6)
C11 C -0.08303(14) 0.90115(6) 0.22956(7)
H9 H -0.1106 0.8757 0.1872
C12 C 0.18024(12) 0.80854(5) 0.40555(6)
C13 C -0.01018(14) 0.75336(6) 0.58528(7)
H10 H -0.0921 0.7630 0.5422
H11 H -0.0486 0.7510 0.6304
C14 C -0.00582(13) 0.97946(5) 0.35191(7)
H12 H 0.0178 1.0059 0.3934
C15 C 0.37668(13) 0.84810(6) 0.35394(7)
H13 H 0.4623 0.8725 0.3589
C16 C 0.19620(15) 0.71605(6) 0.54012(8)
H14 H 0.2915 0.7024 0.5717
H15 H 0.1857 0.6991 0.4898
C17 C 0.02851(14) 0.99543(6) 0.28586(7)
H16 H 0.0766 1.0328 0.2812
C18 C 0.06764(16) 0.69463(6) 0.57302(8)
H17 H 0.0004 0.6675 0.5381
H18 H 0.1049 0.6728 0.6203
C19 C 0.47660(18) 0.86741(7) 0.22341(8)
H19 H 0.5641 0.8654 0.2646
H20 H 0.4246 0.9058 0.2259
H21 H 0.5064 0.8653 0.1764
S2 S 0.73602(3) 0.694447(13) 0.236762(16)
O6 O 0.84788(9) 0.65296(4) 0.22464(5)
O7 O 0.17970(11) 0.57833(5) 0.42120(6)
O8 O 0.74947(10) 0.75794(4) 0.21981(5)
N4 N 0.43239(11) 0.58204(5) 0.13475(5)
N5 N 0.50637(11) 0.60509(5) 0.07975(5)
N6 N 0.62331(13) 0.65171(5) 0.53367(6)
O9 O 0.65362(14) 0.60127(5) 0.56074(6)
C20 C 0.43459(12) 0.59634(5) 0.26624(6)
C21 C 0.54091(13) 0.66805(5) 0.10272(6)
H22 H 0.4607 0.6956 0.0777
H23 H 0.6335 0.6811 0.0904
O10 O 0.55761(15) 0.69061(5) 0.56033(6)
C22 C 0.66467(13) 0.66611(6) 0.46393(7)
C23 C 0.52219(12) 0.60342(5) 0.20823(6)
H24 H 0.6151 0.5792 0.2226
C24 C 0.72436(13) 0.68758(5) 0.33003(7)
C25 C 0.55762(12) 0.66917(5) 0.18832(6)
H25 H 0.4820 0.6973 0.1998
C26 C 0.26874(14) 0.58163(6) 0.37215(7)
C27 C 0.59637(15) 0.71516(6) 0.42291(7)
H26 H 0.5308 0.7407 0.4410
C28 C 0.29976(13) 0.62647(6) 0.25870(7)
H27 H 0.2646 0.6523 0.2174
C29 C 0.44007(14) 0.51579(6) 0.12543(7)
H28 H 0.3567 0.5015 0.0856
H29 H 0.4363 0.4946 0.1719
C30 C 0.21735(13) 0.61897(6) 0.31072(7)
H30 H 0.1256 0.6393 0.3047
C31 C 0.76630(13) 0.62901(6) 0.44174(7)
H31 H 0.8132 0.5967 0.4723
C32 C 0.48210(13) 0.55802(5) 0.32656(7)
H32 H 0.5719 0.5364 0.3315
C33 C 0.40084(14) 0.55044(6) 0.38026(7)
H33 H 0.4355 0.5244 0.4215
C34 C 0.63731(14) 0.56561(6) 0.08387(7)
H34 H 0.7228 0.5806 0.1219
H35 H 0.6642 0.5641 0.0355
C35 C 0.79765(13) 0.64034(6) 0.37357(7)
H36 H 0.8678 0.6163 0.3570
C36 C 0.62690(14) 0.72571(6) 0.35453(7)
H37 H 0.5816 0.7587 0.3246
C37 C 0.58840(15) 0.50294(6) 0.10486(7)
H38 H 0.6613 0.4857 0.1475
H39 H 0.5749 0.4744 0.0627
C38 C 0.23955(17) 0.54962(7) 0.49088(8)
H40 H 0.2641 0.5073 0.4826
H41 H 0.1668 0.5507 0.5211
H42 H 0.3287 0.5712 0.5166
loop_
_geom_bond_atom_site_label_1
_geom_bond_atom_site_label_2
_geom_bond_site_symmetry_1
_geom_bond_site_symmetry_2
S1 O1 1_555 1_555
O2 S1 1_555 1_555
O3 C5 1_555 1_555
O4 N3 1_555 1_555
N1 N2 1_555 1_555
N2 C1 1_555 1_555
C1 H1 1_555 1_555
C2 N1 1_555 1_555
H2 C2 1_555 1_555
H3 C2 1_555 1_555
O5 N3 1_555 1_555
N3 C4 1_555 1_555
C3 S1 1_555 1_555
H4 C3 1_555 1_555
C4 C11 1_555 1_555
C5 C7 1_555 1_555
C6 H5 1_555 1_555
C7 C6 1_555 1_555
H6 C7 1_555 1_555
C8 H7 1_555 1_555
C9 H8 1_555 1_555
C10 S1 1_555 1_555
C11 C9 1_555 1_555
H9 C11 1_555 1_555
C12 C1 1_555 1_555
C13 N1 1_555 1_555
H10 C13 1_555 1_555
H11 C13 1_555 1_555
C14 C10 1_555 1_555
H12 C14 1_555 1_555
C15 C5 1_555 1_555
H13 C15 1_555 1_555
C16 N2 1_555 1_555
H14 C16 1_555 1_555
H15 C16 1_555 1_555
C17 C4 1_555 1_555
H16 C17 1_555 1_555
C18 C13 1_555 1_555
H17 C18 1_555 1_555
H18 C18 1_555 1_555
C19 O3 1_555 1_555
H19 C19 1_555 1_555
H20 C19 1_555 1_555
H21 C19 1_555 1_555
S2 O6 1_555 1_555
O7 C26 1_555 1_555
O8 S2 1_555 1_555
N4 N5 1_555 1_555
N5 C21 1_555 1_555
N6 O9 1_555 1_555
C20 C23 1_555 1_555
C21 H22 1_555 1_555
H23 C21 1_555 1_555
O10 N6 1_555 1_555
C22 N6 1_555 1_555
C23 N4 1_555 1_555
H24 C23 1_555 1_555
C24 S2 1_555 1_555
C25 S2 1_555 1_555
H25 C25 1_555 1_555
C26 C30 1_555 1_555
C27 C22 1_555 1_555
H26 C27 1_555 1_555
C28 C20 1_555 1_555
H27 C28 1_555 1_555
C29 N4 1_555 1_555
H28 C29 1_555 1_555
H29 C29 1_555 1_555
C30 C28 1_555 1_555
H30 C30 1_555 1_555
C31 C22 1_555 1_555
H31 C31 1_555 1_555
C32 C20 1_555 1_555
H32 C32 1_555 1_555
C33 C26 1_555 1_555
H33 C33 1_555 1_555
C34 N5 1_555 1_555
H34 C34 1_555 1_555
H35 C34 1_555 1_555
C35 C24 1_555 1_555
H36 C35 1_555 1_555
C36 C24 1_555 1_555
H37 C36 1_555 1_555
C37 C29 1_555 1_555
H38 C37 1_555 1_555
H39 C37 1_555 1_555
C38 O7 1_555 1_555
H40 C38 1_555 1_555
H41 C38 1_555 1_555
H42 C38 1_555 1_555
C1 C3 1_555 1_555
C2 C3 1_555 1_555
C6 C12 1_555 1_555
C8 C12 1_555 1_555
C8 C15 1_555 1_555
C9 C10 1_555 1_555
C14 C17 1_555 1_555
C16 C18 1_555 1_555
C21 C25 1_555 1_555
C23 C25 1_555 1_555
C27 C36 1_555 1_555
C31 C35 1_555 1_555
C32 C33 1_555 1_555
C34 C37 1_555 1_555

#END
