
#######################################################################
#
#                 Cambridge Crystallographic Data Centre
#                                CCDC 
#
#######################################################################
#
# If this CIF has been generated from an entry in the Cambridge 
# Structural Database, then it will include bibliographic, chemical, 
# crystal, experimental, refinement or atomic coordinate data resulting 
# from the CCDC's data processing and validation procedures.
#
#######################################################################

data_TISDUW
_chemical_formula_moiety         'C64 H76 Li4 N8 Si2'
_chemical_name_systematic        
bis(\m~4~-N,N'-(Dimethylsilanediyl)bis(N'-tert-butylnaphthalene-1-carboximidamide))-tetra-lithium
_symmetry_cell_setting           monoclinic
_symmetry_space_group_name_H-M   'C 2/c'
_symmetry_Int_Tables_number      15
_space_group_name_Hall           '-C 2yn'
loop_
_symmetry_equiv_pos_site_id
_symmetry_equiv_pos_as_xyz
1 x,y,z
2 -x,y,1/2-z
3 1/2+x,1/2+y,z
4 1/2-x,1/2+y,1/2-z
5 -x,-y,-z
6 x,-y,1/2+z
7 1/2-x,1/2-y,-z
8 1/2+x,1/2-y,1/2+z
_cell_length_a                   20.312(6)
_cell_length_b                   18.046(5)
_cell_length_c                   18.102(5)
_cell_angle_alpha                90
_cell_angle_beta                 93.725(5)
_cell_angle_gamma                90
_cell_volume                     6621.28
_exptl_crystal_colour            colorless
_exptl_crystal_description       block
_cell_formula_units_Z            4
loop_
_atom_site_label
_atom_site_type_symbol
_atom_site_fract_x
_atom_site_fract_y
_atom_site_fract_z
Li1 Li 0.4402(4) 0.7248(4) 0.1359(4)
Li2 Li 0.5000 0.8134(5) 0.2500
Li3 Li 0.5000 0.6763(5) 0.2500
N1 N 0.39411(19) 0.6313(2) 0.1018(2)
N2 N 0.40397(19) 0.66893(19) 0.22115(18)
N3 N 0.45317(15) 0.74900(17) 0.32721(16)
N4 N 0.52852(15) 0.83384(18) 0.36541(17)
Si1 Si 0.38069(6) 0.70181(7) 0.30365(6)
C1 C 0.3738(3) 0.5859(4) 0.0375(3)
C2 C 0.3061(4) 0.5938(7) 0.0129(4)
H1 H 0.2971 0.6452 0.0001
H2 H 0.2786 0.5788 0.0521
H3 H 0.2965 0.5628 -0.0302
C3 C 0.3770(6) 0.5011(5) 0.0542(5)
H4 H 0.3457 0.4889 0.0905
H5 H 0.4212 0.4881 0.0735
H6 H 0.3663 0.4737 0.0089
C4 C 0.4238(3) 0.5991(4) -0.0172(3)
H7 H 0.4241 0.6512 -0.0303
H8 H 0.4131 0.5697 -0.0612
H9 H 0.4671 0.5849 0.0042
C5 C 0.3078(8) 0.5851(10) 0.1887(8)
C6 C 0.3188(9) 0.5173(9) 0.2263(9)
H10 H 0.3611 0.4966 0.2250
C7 C 0.2725(11) 0.4774(14) 0.2658(12)
H11 H 0.2836 0.4358 0.2953
C8 C 0.2067(10) 0.5070(10) 0.2561(9)
H12 H 0.1712 0.4824 0.2763
C9 C 0.1961(3) 0.5721(6) 0.2167(5)
C10 C 0.1319(3) 0.5990(7) 0.2103(5)
H13 H 0.0981 0.5733 0.2323
C11 C 0.1177(2) 0.6641(7) 0.1713(5)
H14 H 0.0743 0.6823 0.1670
C12 C 0.1678(3) 0.7022(6) 0.1387(6)
H15 H 0.1582 0.7462 0.1124
C13 C 0.2320(3) 0.6753(4) 0.1452(4)
H16 H 0.2658 0.7011 0.1231
C14 C 0.2462(2) 0.6103(4) 0.1841(3)
C15 C 0.3751(2) 0.6247(3) 0.1680(3)
C16 C 0.3066(2) 0.7631(4) 0.2935(3)
H17 H 0.2750 0.7482 0.3286
H18 H 0.2865 0.7589 0.2436
H19 H 0.3197 0.8141 0.3030
C17 C 0.3666(3) 0.6284(3) 0.3732(3)
H20 H 0.3241 0.6362 0.3935
H21 H 0.4011 0.6306 0.4127
H22 H 0.3671 0.5802 0.3496
C18 C 0.46811(19) 0.8074(2) 0.3698(2)
C19 C 0.4161(2) 0.8403(2) 0.4157(2)
C20 C 0.3810(2) 0.9011(3) 0.3912(3)
H23 H 0.3917 0.9239 0.3469
C21 C 0.3299(3) 0.9302(3) 0.4298(3)
H24 H 0.3072 0.9727 0.4120
C22 C 0.3133(3) 0.8979(4) 0.4919(4)
H25 H 0.2781 0.9173 0.5170
C23 C 0.3474(3) 0.8349(4) 0.5213(3)
C24 C 0.3299(4) 0.8001(5) 0.5846(4)
H26 H 0.2948 0.8191 0.6103
C25 C 0.3616(4) 0.7401(5) 0.6103(4)
H27 H 0.3482 0.7174 0.6535
C26 C 0.4155(3) 0.7094(4) 0.5738(3)
H28 H 0.4376 0.6671 0.5928
C27 C 0.4341(2) 0.7425(3) 0.5113(2)
H29 H 0.4700 0.7234 0.4871
C28 C 0.3998(2) 0.8059(3) 0.4818(2)
C29 C 0.5602(2) 0.8956(3) 0.4075(3)
C30 C 0.5411(3) 0.9690(3) 0.3707(4)
H30 H 0.5507 0.9672 0.3189
H31 H 0.5660 1.0088 0.3952
H32 H 0.4943 0.9776 0.3744
C31 C 0.5456(3) 0.8991(4) 0.4884(3)
H33 H 0.5578 0.8525 0.5122
H34 H 0.4988 0.9080 0.4924
H35 H 0.5707 0.9391 0.5124
C32 C 0.6332(3) 0.8823(4) 0.4039(4)
H36 H 0.6448 0.8353 0.4272
H37 H 0.6575 0.9219 0.4295
H38 H 0.6441 0.8810 0.3525
N1A N 0.60589(19) 0.6313(2) 0.3982(2)
N2A N 0.59603(19) 0.66893(19) 0.27885(18)
N3A N 0.54683(15) 0.74900(17) 0.17279(16)
N4A N 0.47148(15) 0.83384(18) 0.13459(17)
Si1A Si 0.61931(6) 0.70181(7) 0.19635(6)
C1A C 0.6262(3) 0.5859(4) 0.4625(3)
C2A C 0.6939(4) 0.5938(7) 0.4871(4)
H1A H 0.7029 0.6452 0.4999
H2A H 0.7214 0.5788 0.4479
H3A H 0.7035 0.5628 0.5302
C3A C 0.6230(6) 0.5011(5) 0.4458(5)
H4A H 0.6543 0.4889 0.4095
H5A H 0.5788 0.4881 0.4265
H6A H 0.6337 0.4737 0.4911
C4A C 0.5762(3) 0.5991(4) 0.5172(3)
H7A H 0.5759 0.6512 0.5303
H8A H 0.5869 0.5697 0.5612
H9A H 0.5329 0.5849 0.4958
C5A C 0.6922(8) 0.5851(10) 0.3113(8)
C6A C 0.6812(9) 0.5173(9) 0.2737(9)
H10A H 0.6389 0.4966 0.2750
C7A C 0.7275(11) 0.4774(14) 0.2342(12)
H11A H 0.7164 0.4358 0.2047
C8A C 0.7933(10) 0.5070(10) 0.2439(9)
H12A H 0.8288 0.4824 0.2237
C9A C 0.8039(3) 0.5721(6) 0.2833(5)
C10A C 0.8681(3) 0.5990(7) 0.2897(5)
H13A H 0.9019 0.5733 0.2677
C11A C 0.8823(2) 0.6641(7) 0.3287(5)
H14A H 0.9257 0.6823 0.3330
C12A C 0.8322(3) 0.7022(6) 0.3613(6)
H15A H 0.8418 0.7462 0.3876
C13A C 0.7680(3) 0.6753(4) 0.3548(4)
H16A H 0.7342 0.7011 0.3769
C14A C 0.7538(2) 0.6103(4) 0.3159(3)
C15A C 0.6249(2) 0.6247(3) 0.3320(3)
C16A C 0.6934(2) 0.7631(4) 0.2065(3)
H17A H 0.7250 0.7482 0.1714
H18A H 0.7135 0.7589 0.2564
H19A H 0.6803 0.8141 0.1970
C17A C 0.6334(3) 0.6284(3) 0.1268(3)
H20A H 0.6759 0.6362 0.1065
H21A H 0.5989 0.6306 0.0873
H22A H 0.6329 0.5802 0.1504
C18A C 0.53189(19) 0.8074(2) 0.1302(2)
C19A C 0.5839(2) 0.8403(2) 0.0843(2)
C20A C 0.6190(2) 0.9011(3) 0.1088(3)
H23A H 0.6083 0.9239 0.1531
C21A C 0.6701(3) 0.9302(3) 0.0702(3)
H24A H 0.6928 0.9727 0.0880
C22A C 0.6867(3) 0.8979(4) 0.0081(4)
H25A H 0.7219 0.9173 -0.0170
C23A C 0.6526(3) 0.8349(4) -0.0213(3)
C24A C 0.6701(4) 0.8001(5) -0.0846(4)
H26A H 0.7052 0.8191 -0.1103
C25A C 0.6384(4) 0.7401(5) -0.1103(4)
H27A H 0.6518 0.7174 -0.1535
C26A C 0.5845(3) 0.7094(4) -0.0738(3)
H28A H 0.5624 0.6671 -0.0928
C27A C 0.5659(2) 0.7425(3) -0.0113(2)
H29A H 0.5300 0.7234 0.0129
C28A C 0.6002(2) 0.8059(3) 0.0182(2)
C29A C 0.4398(2) 0.8956(3) 0.0925(3)
C30A C 0.4589(3) 0.9690(3) 0.1293(4)
H30A H 0.4493 0.9672 0.1811
H31A H 0.4340 1.0088 0.1048
H32A H 0.5057 0.9776 0.1256
C31A C 0.4544(3) 0.8991(4) 0.0116(3)
H33A H 0.4422 0.8525 -0.0122
H34A H 0.5012 0.9080 0.0076
H35A H 0.4293 0.9391 -0.0124
C32A C 0.3668(3) 0.8823(4) 0.0961(4)
H36A H 0.3552 0.8353 0.0728
H37A H 0.3425 0.9219 0.0705
H38A H 0.3559 0.8810 0.1475
Li1A Li 0.5598(4) 0.7248(4) 0.3641(4)
C33? C 0.3450(3) 0.5535(4) 0.2004(3)
C34? C 0.2776(3) 0.5631(4) 0.2060(3)
H39? H 0.2566 0.6061 0.1868
C35? C 0.2412(3) 0.5091(4) 0.2400(3)
H40? H 0.1956 0.5156 0.2438
C36? C 0.2722(3) 0.4456(4) 0.2684(3)
H41? H 0.2482 0.4087 0.2916
C37? C 0.3403(7) 0.4379(6) 0.2617(6)
C38? C 0.3715(9) 0.3734(5) 0.2872(5)
H42? H 0.3474 0.3365 0.3103
C39? C 0.4385(9) 0.3636(5) 0.2788(7)
H43? H 0.4597 0.3200 0.2960
C40? C 0.4742(7) 0.4181(7) 0.2447(8)
H44? H 0.5194 0.4115 0.2390
C41? C 0.4429(7) 0.4826(6) 0.2192(6)
H45? H 0.4670 0.5195 0.1962
C42? C 0.3759(7) 0.4925(5) 0.2277(5)
loop_
_geom_bond_atom_site_label_1
_geom_bond_atom_site_label_2
_geom_bond_site_symmetry_1
_geom_bond_site_symmetry_2
Li1 N1 1_555 1_555
Li2 N3 1_555 1_555
Li3 N2 1_555 1_555
N1 C1 1_555 1_555
N2 Li1 1_555 1_555
N3 Li3 1_555 1_555
N4 Li2 1_555 1_555
Si1 N2 1_555 1_555
C1 C2 1_555 1_555
C2 H1 1_555 1_555
H2 C2 1_555 1_555
H3 C2 1_555 1_555
C3 C1 1_555 1_555
H4 C3 1_555 1_555
H5 C3 1_555 1_555
H6 C3 1_555 1_555
C4 C1 1_555 1_555
H7 C4 1_555 1_555
H8 C4 1_555 1_555
H9 C4 1_555 1_555
C5 C6 1_555 1_555
C6 H10 1_555 1_555
C7 C6 1_555 1_555
H11 C7 1_555 1_555
C8 C7 1_555 1_555
H12 C8 1_555 1_555
C9 C8 1_555 1_555
C10 C9 1_555 1_555
H13 C10 1_555 1_555
C11 C10 1_555 1_555
H14 C11 1_555 1_555
C12 C11 1_555 1_555
H15 C12 1_555 1_555
C13 C12 1_555 1_555
H16 C13 1_555 1_555
C14 C5 1_555 1_555
C15 N1 1_555 1_555
C16 Si1 1_555 1_555
H17 C16 1_555 1_555
H18 C16 1_555 1_555
H19 C16 1_555 1_555
C17 Si1 1_555 1_555
H20 C17 1_555 1_555
H21 C17 1_555 1_555
H22 C17 1_555 1_555
C18 N3 1_555 1_555
C19 C18 1_555 1_555
C20 C19 1_555 1_555
H23 C20 1_555 1_555
C21 C20 1_555 1_555
H24 C21 1_555 1_555
C22 C21 1_555 1_555
H25 C22 1_555 1_555
C23 C22 1_555 1_555
C24 C23 1_555 1_555
H26 C24 1_555 1_555
C25 C24 1_555 1_555
H27 C25 1_555 1_555
C26 C25 1_555 1_555
H28 C26 1_555 1_555
C27 C26 1_555 1_555
H29 C27 1_555 1_555
C28 C19 1_555 1_555
C29 N4 1_555 1_555
C30 C29 1_555 1_555
H30 C30 1_555 1_555
H31 C30 1_555 1_555
H32 C30 1_555 1_555
C31 C29 1_555 1_555
H33 C31 1_555 1_555
H34 C31 1_555 1_555
H35 C31 1_555 1_555
C32 C29 1_555 1_555
H36 C32 1_555 1_555
H37 C32 1_555 1_555
H38 C32 1_555 1_555
N1A C1A 1_555 1_555
N2A Li3 1_555 1_555
N3A Li1 1_555 1_555
N4A Li1 1_555 1_555
Si1A N2A 1_555 1_555
C1A C2A 1_555 1_555
C2A H1A 1_555 1_555
H2A C2A 1_555 1_555
H3A C2A 1_555 1_555
C3A C1A 1_555 1_555
H4A C3A 1_555 1_555
H5A C3A 1_555 1_555
H6A C3A 1_555 1_555
C4A C1A 1_555 1_555
H7A C4A 1_555 1_555
H8A C4A 1_555 1_555
H9A C4A 1_555 1_555
C5A C6A 1_555 1_555
C6A H10A 1_555 1_555
C7A C6A 1_555 1_555
H11A C7A 1_555 1_555
C8A C7A 1_555 1_555
H12A C8A 1_555 1_555
C9A C8A 1_555 1_555
C10A C9A 1_555 1_555
H13A C10A 1_555 1_555
C11A C10A 1_555 1_555
H14A C11A 1_555 1_555
C12A C11A 1_555 1_555
H15A C12A 1_555 1_555
C13A C12A 1_555 1_555
H16A C13A 1_555 1_555
C14A C5A 1_555 1_555
C15A N1A 1_555 1_555
C16A Si1A 1_555 1_555
H17A C16A 1_555 1_555
H18A C16A 1_555 1_555
H19A C16A 1_555 1_555
C17A Si1A 1_555 1_555
H20A C17A 1_555 1_555
H21A C17A 1_555 1_555
H22A C17A 1_555 1_555
C18A N3A 1_555 1_555
C19A C18A 1_555 1_555
C20A C19A 1_555 1_555
H23A C20A 1_555 1_555
C21A C20A 1_555 1_555
H24A C21A 1_555 1_555
C22A C21A 1_555 1_555
H25A C22A 1_555 1_555
C23A C22A 1_555 1_555
C24A C23A 1_555 1_555
H26A C24A 1_555 1_555
C25A C24A 1_555 1_555
H27A C25A 1_555 1_555
C26A C25A 1_555 1_555
H28A C26A 1_555 1_555
C27A C26A 1_555 1_555
H29A C27A 1_555 1_555
C28A C19A 1_555 1_555
C29A N4A 1_555 1_555
C30A C29A 1_555 1_555
H30A C30A 1_555 1_555
H31A C30A 1_555 1_555
H32A C30A 1_555 1_555
C31A C29A 1_555 1_555
H33A C31A 1_555 1_555
H34A C31A 1_555 1_555
H35A C31A 1_555 1_555
C32A C29A 1_555 1_555
H36A C32A 1_555 1_555
H37A C32A 1_555 1_555
H38A C32A 1_555 1_555
Li1A N3 1_555 1_555
Li2 N3A 1_555 1_555
Li2 N4A 1_555 1_555
Li3 N3A 1_555 1_555
N2 C15 1_555 1_555
N3 Si1 1_555 1_555
N4 C18 1_555 1_555
N4 Li1A 1_555 1_555
C5 C15 1_555 1_555
C9 C14 1_555 1_555
C13 C14 1_555 1_555
C23 C28 1_555 1_555
C27 C28 1_555 1_555
N1A Li1A 1_555 1_555
N2A C15A 1_555 1_555
N2A Li1A 1_555 1_555
N3A Si1A 1_555 1_555
N4A C18A 1_555 1_555
C5A C15A 1_555 1_555
C9A C14A 1_555 1_555
C13A C14A 1_555 1_555
C23A C28A 1_555 1_555
C27A C28A 1_555 1_555

#END
