
#######################################################################
#
#                 Cambridge Crystallographic Data Centre
#                                CCDC 
#
#######################################################################
#
# If this CIF has been generated from an entry in the Cambridge 
# Structural Database, then it will include bibliographic, chemical, 
# crystal, experimental, refinement or atomic coordinate data resulting 
# from the CCDC's data processing and validation procedures.
#
#######################################################################

data_TISFIM
_chemical_formula_moiety         'C17 H12 Cl1 N3 O1,H2 O1'
_chemical_name_systematic        
'2-(4-Chlorophenyl)-8-methyl-2,5-dihydro-3H-pyrazolo[4,3-c]quinolin-3-one monohydrate'
_symmetry_cell_setting           orthorhombic
_symmetry_space_group_name_H-M   'P b c a'
_symmetry_Int_Tables_number      61
_space_group_name_Hall           '-P 2ac 2ab'
loop_
_symmetry_equiv_pos_site_id
_symmetry_equiv_pos_as_xyz
1 x,y,z
2 1/2-x,-y,1/2+z
3 1/2+x,1/2-y,-z
4 -x,1/2+y,1/2-z
5 -x,-y,-z
6 1/2+x,y,1/2-z
7 1/2-x,1/2+y,z
8 x,1/2-y,1/2+z
_cell_length_a                   35.11(6)
_cell_length_b                   12.34(2)
_cell_length_c                   6.916(13)
_cell_angle_alpha                90
_cell_angle_beta                 90
_cell_angle_gamma                90
_cell_volume                     2996.41
_exptl_crystal_colour            yellow
_exptl_crystal_description       needle
_cell_formula_units_Z            8
loop_
_atom_site_label
_atom_site_type_symbol
_atom_site_fract_x
_atom_site_fract_y
_atom_site_fract_z
Cl1 Cl 0.785103(18) 0.68680(5) 0.14092(11)
O1 O 0.59056(4) 0.61205(12) 0.3135(2)
N1 N 0.63631(5) 0.47205(14) 0.2949(3)
N2 N 0.52529(5) 0.29174(15) 0.3585(3)
H1 H 0.5012 0.2815 0.3702
C1 C 0.59970(6) 0.51207(18) 0.3145(3)
C2 C 0.58917(6) 0.21418(18) 0.3261(3)
N3 N 0.63871(5) 0.35644(15) 0.2956(3)
C3 C 0.53376(6) 0.09508(18) 0.3541(3)
H2 H 0.5076 0.0860 0.3674
C4 C 0.53854(6) 0.39498(18) 0.3523(3)
H3 H 0.5216 0.4527 0.3622
C5 C 0.60311(6) 0.32503(18) 0.3175(3)
C6 C 0.54937(6) 0.20064(17) 0.3467(3)
C7 C 0.57685(6) 0.41440(18) 0.3313(3)
C8 C 0.71201(7) 0.68646(19) 0.2765(4)
H4 H 0.7162 0.7579 0.3134
C9 C 0.62302(7) -0.08306(18) 0.3103(4)
H5 H 0.6221 -0.1214 0.4310
H6 H 0.6487 -0.0609 0.2844
H7 H 0.6143 -0.1296 0.2083
C10 C 0.59747(6) 0.01645(18) 0.3218(3)
C11 C 0.67701(7) 0.63685(18) 0.3147(4)
H8 H 0.6579 0.6747 0.3785
C12 C 0.69980(7) 0.47261(19) 0.1568(4)
H9 H 0.6955 0.4020 0.1151
C13 C 0.61267(7) 0.12086(19) 0.3147(3)
H10 H 0.6389 0.1295 0.3022
C14 C 0.67101(6) 0.52883(18) 0.2556(3)
C15 C 0.55736(7) 0.00466(18) 0.3418(3)
H11 H 0.5468 -0.0644 0.3467
C16 C 0.73456(7) 0.5220(2) 0.1211(4)
H12 H 0.7537 0.4846 0.0565
C17 C 0.74060(7) 0.6283(2) 0.1829(4)
O2 O 0.45021(4) 0.25106(14) 0.4402(3)
H13 H 0.4351(7) 0.209(2) 0.374(4)
H14 H 0.4364(7) 0.2972(19) 0.508(4)
loop_
_geom_bond_atom_site_label_1
_geom_bond_atom_site_label_2
_geom_bond_site_symmetry_1
_geom_bond_site_symmetry_2
Cl1 C17 1_555 1_555
O1 C1 1_555 1_555
N1 C1 1_555 1_555
N2 H1 1_555 1_555
C1 C7 1_555 1_555
C2 C5 1_555 1_555
N3 N1 1_555 1_555
C3 H2 1_555 1_555
C4 N2 1_555 1_555
H3 C4 1_555 1_555
C5 N3 1_555 1_555
C6 N2 1_555 1_555
C7 C4 1_555 1_555
C8 H4 1_555 1_555
C9 H5 1_555 1_555
H6 C9 1_555 1_555
H7 C9 1_555 1_555
C10 C9 1_555 1_555
C11 C8 1_555 1_555
H8 C11 1_555 1_555
C12 H9 1_555 1_555
C13 C2 1_555 1_555
H10 C13 1_555 1_555
C14 N1 1_555 1_555
C15 C3 1_555 1_555
H11 C15 1_555 1_555
C16 C12 1_555 1_555
H12 C16 1_555 1_555
C17 C8 1_555 1_555
O2 H13 1_555 1_555
H14 O2 1_555 1_555
C2 C6 1_555 1_555
C3 C6 1_555 1_555
C5 C7 1_555 1_555
C10 C13 1_555 1_555
C10 C15 1_555 1_555
C11 C14 1_555 1_555
C12 C14 1_555 1_555
C16 C17 1_555 1_555

#END
