
#######################################################################
#
#                 Cambridge Crystallographic Data Centre
#                                CCDC 
#
#######################################################################
#
# If this CIF has been generated from an entry in the Cambridge 
# Structural Database, then it will include bibliographic, chemical, 
# crystal, experimental, refinement or atomic coordinate data resulting 
# from the CCDC's data processing and validation procedures.
#
#######################################################################

data_TISFOS
_chemical_formula_moiety         'C17 H12 N4 O3,H2 O1'
_chemical_name_systematic        
'6-Methyl-2-(4-nitrophenyl)-2,5-dihydro-3H-pyrazolo[4,3-c]quinolin-3-one monohydrate'
_symmetry_cell_setting           monoclinic
_symmetry_space_group_name_H-M   'P 21/n'
_symmetry_Int_Tables_number      14
_space_group_name_Hall           '-P 2yn'
loop_
_symmetry_equiv_pos_site_id
_symmetry_equiv_pos_as_xyz
1 x,y,z
2 1/2-x,1/2+y,1/2-z
3 -x,-y,-z
4 1/2+x,1/2-y,1/2+z
_cell_length_a                   4.706(2)
_cell_length_b                   27.273(13)
_cell_length_c                   11.546(6)
_cell_angle_alpha                90
_cell_angle_beta                 97.449(5)
_cell_angle_gamma                90
_cell_volume                     1469.39
_exptl_crystal_colour            colorless
_exptl_crystal_description       Prism
_cell_formula_units_Z            4
loop_
_atom_site_label
_atom_site_type_symbol
_atom_site_fract_x
_atom_site_fract_y
_atom_site_fract_z
O1 O 0.6041(3) 0.02384(4) 0.86442(10)
N1 N 1.2686(3) 0.08871(5) 0.41876(11)
O2 O 1.2690(3) 0.12325(4) 0.34979(10)
N2 N 0.0099(3) 0.11038(4) 1.06145(11)
H1 H -0.105(4) 0.0978(7) 1.1169(18)
O3 O 1.4162(3) 0.05162(4) 0.41264(11)
N3 N 0.5880(3) 0.10289(4) 0.78185(11)
N4 N 0.4522(3) 0.14828(4) 0.79440(11)
C1 C -0.1895(4) 0.19156(5) 1.08138(13)
C2 C -0.0181(3) 0.15920(5) 1.02450(12)
C3 C 0.3014(3) 0.14094(5) 0.88114(12)
C4 C 0.0949(4) 0.22461(5) 0.89502(14)
H2 H 0.1884 0.2356 0.8338
C5 C 0.1753(3) 0.07780(5) 1.01466(12)
H3 H 0.1882 0.0457 1.0419
C6 C -0.0733(4) 0.25625(5) 0.94966(14)
H4 H -0.0946 0.2886 0.9249
C7 C -0.3416(4) 0.17446(6) 1.18048(13)
H5 H -0.2043 0.1689 1.2482
H6 H -0.4419 0.1445 1.1589
H7 H -0.4760 0.1990 1.1977
C8 C 0.9356(4) 0.13451(5) 0.52432(13)
H8 H 0.9430 0.1604 0.4725
C9 C 1.0808(4) 0.05231(5) 0.58751(13)
H9 H 1.1870 0.0242 0.5780
C10 C 0.7576(3) 0.09830(5) 0.69117(12)
C11 C 0.5160(4) 0.06677(5) 0.85986(12)
C12 C 0.3254(3) 0.09224(5) 0.92632(12)
C13 C 0.7714(4) 0.13790(5) 0.61451(13)
H10 H 0.6697 0.1665 0.6246
C14 C 1.0898(4) 0.09190(5) 0.51193(12)
C15 C 0.1247(3) 0.17574(5) 0.93208(12)
C16 C 0.9127(4) 0.05525(5) 0.67674(13)
H11 H 0.9022 0.0289 0.7270
C17 C -0.2122(4) 0.23965(5) 1.04240(14)
H12 H -0.3230 0.2616 1.0790
O4 O 0.2426(3) -0.05225(4) 0.78285(11)
H13 H 0.346(5) -0.0263(10) 0.812(2)
H14 H 0.346(6) -0.0588(9) 0.725(2)
loop_
_geom_bond_atom_site_label_1
_geom_bond_atom_site_label_2
_geom_bond_site_symmetry_1
_geom_bond_site_symmetry_2
O1 C11 1_555 1_555
N1 O2 1_555 1_555
N2 H1 1_555 1_555
O3 N1 1_555 1_555
N3 N4 1_555 1_555
N4 C3 1_555 1_555
C1 C2 1_555 1_555
C2 N2 1_555 1_555
C3 C12 1_555 1_555
C4 H2 1_555 1_555
C5 N2 1_555 1_555
H3 C5 1_555 1_555
C6 C4 1_555 1_555
H4 C6 1_555 1_555
C7 C1 1_555 1_555
H5 C7 1_555 1_555
H6 C7 1_555 1_555
H7 C7 1_555 1_555
C8 H8 1_555 1_555
C9 H9 1_555 1_555
C10 N3 1_555 1_555
C11 N3 1_555 1_555
C12 C5 1_555 1_555
C13 C8 1_555 1_555
H10 C13 1_555 1_555
C14 N1 1_555 1_555
C15 C2 1_555 1_555
C16 C9 1_555 1_555
H11 C16 1_555 1_555
C17 C1 1_555 1_555
H12 C17 1_555 1_555
O4 H13 1_555 1_555
H14 O4 1_555 1_555
C3 C15 1_555 1_555
C4 C15 1_555 1_555
C6 C17 1_555 1_555
C8 C14 1_555 1_555
C9 C14 1_555 1_555
C10 C13 1_555 1_555
C10 C16 1_555 1_555
C11 C12 1_555 1_555

#END
