
#######################################################################
#
#                 Cambridge Crystallographic Data Centre
#                                CCDC 
#
#######################################################################
#
# If this CIF has been generated from an entry in the Cambridge 
# Structural Database, then it will include bibliographic, chemical, 
# crystal, experimental, refinement or atomic coordinate data resulting 
# from the CCDC's data processing and validation procedures.
#
#######################################################################

data_TISKEM
_chemical_formula_moiety         'C14 H14 N2 O2,2(H2 O1)'
_chemical_name_systematic        
'Methyl (E)-3-(4-((1H-imidazol-1-yl)methyl)phenyl)acrylate dihydrate'
_symmetry_cell_setting           monoclinic
_symmetry_space_group_name_H-M   'P 21/c'
_symmetry_Int_Tables_number      14
_space_group_name_Hall           '-P 2ybc'
loop_
_symmetry_equiv_pos_site_id
_symmetry_equiv_pos_as_xyz
1 x,y,z
2 -x,1/2+y,1/2-z
3 -x,-y,-z
4 x,1/2-y,1/2+z
_cell_length_a                   4.721(2)
_cell_length_b                   9.606(5)
_cell_length_c                   31.948(15)
_cell_angle_alpha                90
_cell_angle_beta                 91.149(8)
_cell_angle_gamma                90
_cell_volume                     1448.55
_exptl_crystal_colour            yellow
_exptl_crystal_description       needle
_cell_formula_units_Z            4
loop_
_atom_site_label
_atom_site_type_symbol
_atom_site_fract_x
_atom_site_fract_y
_atom_site_fract_z
O1 O 0.8496(4) 0.75571(17) 1.01635(5)
O3 O 0.8453(4) 0.6070(2) 0.96319(5)
N1 N 1.7828(6) 1.1308(3) 0.72757(7)
N2 N 1.9253(4) 1.1446(2) 0.79332(6)
C1 C 1.9525(8) 1.0811(4) 0.75644(10)
C2 C 1.6371(8) 1.2332(4) 0.74723(10)
H5 H 1.501(7) 1.284(3) 0.7322(9)
C3 C 1.7194(6) 1.2414(3) 0.78747(10)
H6 H 1.661(6) 1.304(3) 0.8082(8)
C4 C 2.0605(7) 1.1063(4) 0.83307(9)
H7 H 2.103(6) 1.191(3) 0.8480(8)
H8 H 2.224(6) 1.056(3) 0.8260(8)
C5 C 1.8642(5) 1.0213(2) 0.85933(7)
C6 C 1.7922(6) 0.8874(3) 0.84731(8)
H9 H 1.875(5) 0.848(2) 0.8221(7)
C7 C 1.5989(6) 0.8123(3) 0.86929(8)
H10 H 1.555(5) 0.723(2) 0.8608(6)
C8 C 1.4735(5) 0.8656(2) 0.90456(7)
C9 C 1.5513(6) 0.9970(3) 0.91691(9)
H11 H 1.476(5) 1.035(2) 0.9401(7)
C10 C 1.7433(6) 1.0752(3) 0.89462(8)
H12 H 1.796(5) 1.167(3) 0.9035(7)
C11 C 1.2651(6) 0.7812(3) 0.92644(8)
H13 H 1.218(5) 0.697(3) 0.9140(7)
C12 C 1.1324(6) 0.8112(3) 0.96065(8)
H14 H 1.176(6) 0.898(3) 0.9750(8)
C13 C 0.9303(5) 0.7129(3) 0.97901(8)
C14 C 0.6618(9) 0.6637(4) 1.03838(11)
H15 H 0.471(9) 0.674(4) 1.0290(11)
H16 H 0.730(7) 0.569(4) 1.0377(10)
H17 H 0.661(7) 0.694(3) 1.0681(10)
H18 H 2.087(7) 1.009(3) 0.7544(9)
O2 O 0.2002(5) 0.9428(2) 0.61121(8)
H1 H 0.372(10) 0.954(4) 0.6277(12)
H2 H 0.202(7) 0.994(3) 0.5919(9)
O4 O 0.7011(6) 0.9712(2) 0.65414(8)
H3 H 0.717(7) 1.025(4) 0.6795(11)
H4 H 0.858(8) 0.962(3) 0.6442(10)
loop_
_geom_bond_atom_site_label_1
_geom_bond_atom_site_label_2
_geom_bond_site_symmetry_1
_geom_bond_site_symmetry_2
O1 C13 1_555 1_555
O2 H1 1_555 1_555
H2 O2 1_555 1_555
O3 C13 1_555 1_555
O4 H3 1_555 1_555
H4 O4 1_555 1_555
N1 C1 1_555 1_555
N2 C1 1_555 1_555
C1 H18 1_555 1_555
C2 N1 1_555 1_555
H5 C2 1_555 1_555
C3 N2 1_555 1_555
H6 C3 1_555 1_555
C4 N2 1_555 1_555
H7 C4 1_555 1_555
H8 C4 1_555 1_555
C5 C4 1_555 1_555
C6 C5 1_555 1_555
H9 C6 1_555 1_555
C7 C6 1_555 1_555
H10 C7 1_555 1_555
C8 C7 1_555 1_555
C9 C8 1_555 1_555
H11 C9 1_555 1_555
C10 C5 1_555 1_555
H12 C10 1_555 1_555
C11 C8 1_555 1_555
H13 C11 1_555 1_555
C12 C11 1_555 1_555
H14 C12 1_555 1_555
C13 C12 1_555 1_555
C14 O1 1_555 1_555
H15 C14 1_555 1_555
H16 C14 1_555 1_555
H17 C14 1_555 1_555
C2 C3 1_555 1_555
C9 C10 1_555 1_555

#END
