
#######################################################################
#
#                 Cambridge Crystallographic Data Centre
#                                CCDC 
#
#######################################################################
#
# If this CIF has been generated from an entry in the Cambridge 
# Structural Database, then it will include bibliographic, chemical, 
# crystal, experimental, refinement or atomic coordinate data resulting 
# from the CCDC's data processing and validation procedures.
#
#######################################################################

data_TISLAI
_chemical_formula_moiety         'C21 H54 N8 6+,6(Cl1 1-),3.5(H2 O1)'
_chemical_name_systematic        
'4,8,14,18,23,27-Hexa-azonia-1,11-diazabicyclo(9.9.9)nonacosane chloride clathrate pentachloride hydrate'
_symmetry_cell_setting           monoclinic
_symmetry_space_group_name_H-M   'P 21/n'
_symmetry_Int_Tables_number      14
_space_group_name_Hall           '-P 2yn'
loop_
_symmetry_equiv_pos_site_id
_symmetry_equiv_pos_as_xyz
1 x,y,z
2 1/2-x,1/2+y,1/2-z
3 -x,-y,-z
4 1/2+x,1/2-y,1/2+z
_cell_length_a                   18.797(9)
_cell_length_b                   15.596(8)
_cell_length_c                   12.697(6)
_cell_angle_alpha                90
_cell_angle_beta                 106.37(5)
_cell_angle_gamma                90
_cell_volume                     3571.33
_cell_formula_units_Z            4
loop_
_atom_site_label
_atom_site_type_symbol
_atom_site_fract_x
_atom_site_fract_y
_atom_site_fract_z
Cl1 Cl 1.0462(1) 0.7472(1) 0.2164(1)
Cl2 Cl 0.9594(1) 0.5242(1) 0.2719(2)
Cl3 Cl 0.8733(1) 0.8889(1) 0.0802(2)
Cl4 Cl 1.2827(1) 0.9656(1) 0.2900(2)
Cl5 Cl 1.1181(1) 0.8461(1) 0.5096(2)
Cl6 Cl 0.9752(1) 0.7911(2) -0.2213(2)
N1 N 0.8993(3) 0.7590(4) 0.3806(5)
N2 N 1.1892(3) 0.7341(4) 0.0678(5)
N3 N 1.0380(4) 0.6558(4) 0.4541(5)
N4 N 1.1992(3) 0.6502(4) 0.2853(5)
N5 N 0.9810(4) 0.9113(4) 0.3256(6)
N6 N 1.1315(3) 0.9001(4) 0.1433(5)
N7 N 0.8702(3) 0.6924(4) 0.1518(5)
N8 N 1.0306(3) 0.6720(3) -0.0209(5)
C1 C 0.9102(5) 0.6879(6) 0.4624(8)
C2 C 0.9896(5) 0.6718(5) 0.5273(6)
C3 C 1.1087(5) 0.6085(6) 0.5086(7)
C4 C 1.1496(5) 0.5854(5) 0.4260(7)
C5 C 1.1962(4) 0.6582(5) 0.3992(6)
C6 C 1.2609(4) 0.6997(5) 0.2578(7)
C7 C 1.2546(4) 0.6887(5) 0.1373(7)
C8 C 0.9081(5) 0.8413(5) 0.4410(8)
C9 C 0.9163(5) 0.9184(5) 0.3713(7)
C10 C 1.0074(4) 0.9962(4) 0.2974(6)
C11 C 1.0795(4) 0.9878(5) 0.2661(6)
C12 C 1.0716(4) 0.9605(5) 0.1476(6)
C13 C 1.1436(5) 0.8837(5) 0.0336(7)
C14 C 1.2084(5) 0.8221(4) 0.0470(8)
C15 C 0.8249(4) 0.7537(6) 0.3030(7)
C16 C 0.8150(4) 0.6844(5) 0.2155(7)
C17 C 0.8465(4) 0.6508(5) 0.0419(6)
C18 C 0.8993(4) 0.6751(4) -0.0258(6)
C19 C 0.9678(4) 0.6187(5) -0.0078(6)
C20 C 1.0976(4) 0.6236(5) -0.0280(7)
C21 C 1.1574(5) 0.6859(5) -0.0364(7)
H1 H 1.009 0.621 0.390
H2 H 1.051 0.712 0.428
H3 H 1.206 0.588 0.271
H4 H 1.151 0.671 0.236
H5 H 1.023 0.883 0.382
H6 H 0.967 0.875 0.258
H7 H 1.179 0.924 0.193
H8 H 1.120 0.844 0.173
H9 H 0.918 0.665 0.195
H10 H 0.879 0.755 0.141
H11 H 1.012 0.706 -0.090
H12 H 1.046 0.712 0.043
H13 H 0.881 0.702 0.515
H14 H 0.890 0.634 0.423
H15 H 0.991 0.620 0.575
H16 H 1.009 0.723 0.574
H17 H 1.097 0.555 0.543
H18 H 1.141 0.646 0.566
H19 H 1.183 0.536 0.455
H20 H 1.112 0.568 0.356
H21 H 1.248 0.655 0.450
H22 H 1.174 0.715 0.409
H23 H 1.257 0.762 0.275
H24 H 1.310 0.677 0.303
H25 H 1.250 0.626 0.119
H26 H 1.300 0.712 0.123
H27 H 0.863 0.850 0.467
H28 H 0.953 0.838 0.505
H29 H 0.922 0.971 0.418
H30 H 0.870 0.923 0.309
H31 H 0.969 1.021 0.234
H32 H 1.015 1.035 0.362
H33 H 1.105 1.045 0.278
H34 H 1.111 0.944 0.316
H35 H 1.074 1.012 0.102
H36 H 1.023 0.932 0.118
H37 H 1.098 0.858 -0.017
H38 H 1.155 0.939 0.002
H39 H 1.250 0.842 0.110
H40 H 1.224 0.823 -0.022
H41 H 0.789 0.742 0.346
H42 H 0.813 0.810 0.265
H43 H 0.764 0.689 0.164
H44 H 0.821 0.627 0.252
H45 H 0.847 0.587 0.052
H46 H 0.795 0.670 0.002
H47 H 0.916 0.735 -0.007
H48 H 0.871 0.672 -0.105
H49 H 0.957 0.571 -0.063
H50 H 0.981 0.594 0.068
H51 H 1.117 0.587 0.039
H52 H 1.084 0.586 -0.095
H53 H 1.135 0.728 -0.096
H54 H 1.198 0.653 -0.055
O1 O 1.1339(4) 0.8449(5) 0.7586(6)
O2 O 0.7676(5) 1.0262(5) 0.1510(8)
O3 O 0.7967(7) 0.4395(8) 0.2202(10)
O4 O 1.2171(12) 1.0125(14) 0.5177(20)
O5? O 1.2403(19) 1.0220(22) 0.6122(31)
loop_
_geom_bond_atom_site_label_1
_geom_bond_atom_site_label_2
_geom_bond_site_symmetry_1
_geom_bond_site_symmetry_2
N1 C1 1_555 1_555
N2 C7 1_555 1_555
N3 C2 1_555 1_555
N4 C5 1_555 1_555
N5 C9 1_555 1_555
N6 C12 1_555 1_555
N7 C16 1_555 1_555
N8 C19 1_555 1_555
C1 C2 1_555 1_555
C2 H15 1_555 1_555
C3 N3 1_555 1_555
C4 C3 1_555 1_555
C5 C4 1_555 1_555
C6 N4 1_555 1_555
C7 C6 1_555 1_555
C8 N1 1_555 1_555
C9 C8 1_555 1_555
C10 N5 1_555 1_555
C11 C10 1_555 1_555
C12 C11 1_555 1_555
C13 N6 1_555 1_555
C14 N2 1_555 1_555
C15 N1 1_555 1_555
C16 C15 1_555 1_555
C17 N7 1_555 1_555
C18 C17 1_555 1_555
C19 C18 1_555 1_555
C20 N8 1_555 1_555
C21 N2 1_555 1_555
H1 N3 1_555 1_555
H2 N3 1_555 1_555
H3 N4 1_555 1_555
H4 N4 1_555 1_555
H5 N5 1_555 1_555
H6 N5 1_555 1_555
H7 N6 1_555 1_555
H8 N6 1_555 1_555
H9 N7 1_555 1_555
H10 N7 1_555 1_555
H11 N8 1_555 1_555
H12 N8 1_555 1_555
H13 C1 1_555 1_555
H14 C1 1_555 1_555
H16 C2 1_555 1_555
H17 C3 1_555 1_555
H18 C3 1_555 1_555
H19 C4 1_555 1_555
H20 C4 1_555 1_555
H21 C5 1_555 1_555
H22 C5 1_555 1_555
H23 C6 1_555 1_555
H24 C6 1_555 1_555
H25 C7 1_555 1_555
H26 C7 1_555 1_555
H27 C8 1_555 1_555
H28 C8 1_555 1_555
H29 C9 1_555 1_555
H30 C9 1_555 1_555
H31 C10 1_555 1_555
H32 C10 1_555 1_555
H33 C11 1_555 1_555
H34 C11 1_555 1_555
H35 C12 1_555 1_555
H36 C12 1_555 1_555
H37 C13 1_555 1_555
H38 C13 1_555 1_555
H39 C14 1_555 1_555
H40 C14 1_555 1_555
H41 C15 1_555 1_555
H42 C15 1_555 1_555
H43 C16 1_555 1_555
H44 C16 1_555 1_555
H45 C17 1_555 1_555
H46 C17 1_555 1_555
H47 C18 1_555 1_555
H48 C18 1_555 1_555
H49 C19 1_555 1_555
H50 C19 1_555 1_555
H51 C20 1_555 1_555
H52 C20 1_555 1_555
H53 C21 1_555 1_555
H54 C21 1_555 1_555
C13 C14 1_555 1_555
C20 C21 1_555 1_555

#END
