
#######################################################################
#
#                 Cambridge Crystallographic Data Centre
#                                CCDC 
#
#######################################################################
#
# If this CIF has been generated from an entry in the Cambridge 
# Structural Database, then it will include bibliographic, chemical, 
# crystal, experimental, refinement or atomic coordinate data resulting 
# from the CCDC's data processing and validation procedures.
#
#######################################################################

data_TISLOW
_chemical_formula_moiety         'C24 H40 O3 Si4'
_chemical_name_systematic        
2-Methoxy-4,4,5,5-tetrakis(trimethylsilylethynyl)-1,3-dioxolane
_symmetry_cell_setting           monoclinic
_symmetry_space_group_name_H-M   'P 21/c'
_symmetry_Int_Tables_number      14
_space_group_name_Hall           '-P 2ybc'
loop_
_symmetry_equiv_pos_site_id
_symmetry_equiv_pos_as_xyz
1 x,y,z
2 -x,1/2+y,1/2-z
3 -x,-y,-z
4 x,1/2-y,1/2+z
_cell_length_a                   10.517(2)
_cell_length_b                   17.641(6)
_cell_length_c                   18.377(5)
_cell_angle_alpha                90
_cell_angle_beta                 103.22(2)
_cell_angle_gamma                90
_cell_volume                     3319.14
_exptl_crystal_colour            colorless
_chemical_melting_point          76-77deg.C
_cell_formula_units_Z            4
loop_
_atom_site_label
_atom_site_type_symbol
_atom_site_fract_x
_atom_site_fract_y
_atom_site_fract_z
Si1 Si 0.3625(2) 0.2352(1) 0.4042(1)
Si2 Si 0.1267(1) 0.1672(1) 0.6333(1)
Si3 Si 0.7594(2) 0.3940(1) 0.7369(1)
Si4 Si 0.7803(2) 0.0988(1) 0.9105(1)
O1 O 0.7404(4) 0.0031(2) 0.5816(3)
C1 C 0.7108(6) 0.0500(4) 0.6298(4)
O2 O 0.7331(3) 0.1277(2) 0.6173(2)
C2 C 0.6238(5) 0.1723(3) 0.6265(3)
C3 C 0.5551(4) 0.1156(3) 0.6718(3)
O3 O 0.5795(3) 0.0455(2) 0.6375(2)
C4 C 0.6752(7) 0.0197(5) 0.5041(4)
C5 C 0.5381(5) 0.1901(3) 0.5530(3)
C6 C 0.4688(5) 0.2064(3) 0.4936(3)
C7 C 0.6712(5) 0.2425(3) 0.6666(3)
C8 C 0.7062(5) 0.3006(3) 0.6961(3)
C9 C 0.4149(6) 0.1280(3) 0.6605(3)
C10 C 0.3009(5) 0.1418(3) 0.6524(3)
C11 C 0.6216(5) 0.1148(3) 0.7519(3)
C12 C 0.6806(5) 0.1104(3) 0.8145(3)
C13 C 0.4342(7) 0.1997(5) 0.3280(3)
C14 C 0.3570(7) 0.3398(4) 0.4019(4)
C15 C 0.1998(6) 0.1957(4) 0.3984(3)
C16 C 0.9049(10) 0.4226(5) 0.7035(6)
C17 C 0.6266(9) 0.4589(5) 0.7063(6)
C18 C 0.8006(10) 0.3880(5) 0.8367(4)
C19 C 0.0364(5) 0.1082(4) 0.5558(3)
C20 C 0.1187(7) 0.2684(4) 0.6081(4)
C21 C 0.0652(5) 0.1527(4) 0.7177(3)
C22 C 0.7619(10) 0.1816(7) 0.9663(4)
C23 C 0.7200(12) 0.0208(8) 0.9536(6)
C24 C 0.9500(7) 0.0904(7) 0.9057(4)
H1 H 0.7662 0.0363 0.6772
H2 H 0.7004 -0.0167 0.4711
H3 H 0.5823 0.0179 0.4986
H4 H 0.7003 0.0696 0.4918
H5 H 0.5192 0.2214 0.3321
H6 H 0.4416 0.1456 0.3323
H7 H 0.3790 0.2127 0.2805
H8 H 0.3194 0.3578 0.4416
H9 H 0.4441 0.3595 0.4084
H10 H 0.3049 0.3567 0.3547
H11 H 0.1642 0.2159 0.4380
H12 H 0.1436 0.2087 0.3511
H13 H 0.2062 0.1416 0.4029
H14 H 0.8816 0.4265 0.6500
H15 H 0.9364 0.4708 0.7246
H16 H 0.9721 0.3851 0.7181
H17 H 0.6070 0.4612 0.6527
H18 H 0.5514 0.4411 0.7225
H19 H 0.6496 0.5086 0.7264
H20 H 0.7251 0.3735 0.8545
H21 H 0.8677 0.3505 0.8514
H22 H 0.8320 0.4361 0.8579
H23 H 0.0433 0.0560 0.5710
H24 H -0.0538 0.1230 0.5436
H25 H 0.0727 0.1145 0.5128
H26 H 0.1504 0.2755 0.5636
H27 H 0.0297 0.2853 0.5995
H28 H 0.1715 0.2971 0.6483
H29 H 0.0703 0.0998 0.7301
H30 H 0.1179 0.1811 0.7581
H31 H -0.0239 0.1693 0.7093
H32 H 0.8146 0.1755 1.0160
H33 H 0.7894 0.2260 0.9440
H34 H 0.6719 0.1868 0.9683
H35 H 0.7284 -0.0239 0.9254
H36 H 0.7690 0.0146 1.0042
H37 H 0.6296 0.0289 0.9534
H38 H 0.9611 0.0469 0.8764
H39 H 0.9756 0.1352 0.8831
H40 H 1.0034 0.0849 0.9553
loop_
_geom_bond_atom_site_label_1
_geom_bond_atom_site_label_2
_geom_bond_site_symmetry_1
_geom_bond_site_symmetry_2
Si1 C6 1_555 1_555
Si2 C10 1_555 1_555
Si3 C8 1_555 1_555
Si4 C12 1_555 1_555
O1 C1 1_555 1_555
C1 O2 1_555 1_555
O2 C2 1_555 1_555
C2 C3 1_555 1_555
C3 O3 1_555 1_555
O3 C1 1_555 1_555
C4 O1 1_555 1_555
C5 C2 1_555 1_555
C6 C5 1_555 1_555
C7 C2 1_555 1_555
C8 C7 1_555 1_555
C9 C3 1_555 1_555
C10 C9 1_555 1_555
C11 C3 1_555 1_555
C12 C11 1_555 1_555
C13 Si1 1_555 1_555
C14 Si1 1_555 1_555
C15 Si1 1_555 1_555
C16 Si3 1_555 1_555
C17 Si3 1_555 1_555
C18 Si3 1_555 1_555
C19 Si2 1_555 1_555
C20 Si2 1_555 1_555
C21 Si2 1_555 1_555
C22 Si4 1_555 1_555
C23 Si4 1_555 1_555
C24 Si4 1_555 1_555
H1 C1 1_555 1_555
H2 C4 1_555 1_555
H3 C4 1_555 1_555
H4 C4 1_555 1_555
H5 C13 1_555 1_555
H6 C13 1_555 1_555
H7 C13 1_555 1_555
H8 C14 1_555 1_555
H9 C14 1_555 1_555
H10 C14 1_555 1_555
H11 C15 1_555 1_555
H12 C15 1_555 1_555
H13 C15 1_555 1_555
H14 C16 1_555 1_555
H15 C16 1_555 1_555
H16 C16 1_555 1_555
H17 C17 1_555 1_555
H18 C17 1_555 1_555
H19 C17 1_555 1_555
H20 C18 1_555 1_555
H21 C18 1_555 1_555
H22 C18 1_555 1_555
H23 C19 1_555 1_555
H24 C19 1_555 1_555
H25 C19 1_555 1_555
H26 C20 1_555 1_555
H27 C20 1_555 1_555
H28 C20 1_555 1_555
H29 C21 1_555 1_555
H30 C21 1_555 1_555
H31 C21 1_555 1_555
H32 C22 1_555 1_555
H33 C22 1_555 1_555
H34 C22 1_555 1_555
H35 C23 1_555 1_555
H36 C23 1_555 1_555
H37 C23 1_555 1_555
H38 C24 1_555 1_555
H39 C24 1_555 1_555
H40 C24 1_555 1_555

#END
