
#######################################################################
#
#                 Cambridge Crystallographic Data Centre
#                                CCDC 
#
#######################################################################
#
# If this CIF has been generated from an entry in the Cambridge 
# Structural Database, then it will include bibliographic, chemical, 
# crystal, experimental, refinement or atomic coordinate data resulting 
# from the CCDC's data processing and validation procedures.
#
#######################################################################

data_TISSEU
_chemical_name_common            
"cis-5,8,11,14,21,24,27,30,34,42-Decaoxa-44-azapentacyclo[16.14.11.1$36,40!.0$4,31!.0$15,20!]tetratetraconta-1,3,15,17,19,31,36(44),37,39-nonaene-35,41-dione 1,1'-dimethyl-4,4'-bipyridinium clathrate bis(hexafluorophosphate) acetone unknown solvate"
_chemical_formula_moiety         
'C33 H37 N1 O12,C12 H14 N2 2+,2(F6 P1 1-),C3 H6 O1'
_chemical_name_systematic        
"cis-1,12(1,2,4)-Dibenzena-26(2,6)pyridina-2,5,8,11,13,16,19,22,24,28-decaoxabicyclo[10.10.7]nonacosaphane-25,27-dione 1,1'-dimethyl-4,4'-bipyridinium clathrate bis(hexafluorophosphate) acetone unknown solvate"
_symmetry_cell_setting           triclinic
_symmetry_space_group_name_H-M   'P -1'
_symmetry_Int_Tables_number      2
_space_group_name_Hall           '-P 1'
loop_
_symmetry_equiv_pos_site_id
_symmetry_equiv_pos_as_xyz
1 x,y,z
2 -x,-y,-z
_cell_length_a                   12.4297(12)
_cell_length_b                   14.3880(14)
_cell_length_c                   15.8418(15)
_cell_angle_alpha                95.354(2)
_cell_angle_beta                 90.600(2)
_cell_angle_gamma                108.356(2)
_cell_volume                     2674.86
_exptl_crystal_colour            yellow
_cell_formula_units_Z            2
loop_
_atom_site_label
_atom_site_type_symbol
_atom_site_fract_x
_atom_site_fract_y
_atom_site_fract_z
O1 O 0.42053(15) 0.94179(13) 0.59833(12)
C4 C 0.3599(2) 0.97773(19) 0.63968(16)
C5 C 0.3905(4) 1.0860(2) 0.66344(19)
H1 H 0.4667 1.1189 0.6445
H2 H 0.3892 1.0991 0.7252
H3 H 0.3356 1.1112 0.6362
C6 C 0.2538(3) 0.9153(3) 0.6738(3)
H4 H 0.2503 0.8461 0.6647
H5 H 0.1883 0.9240 0.6445
H6 H 0.2525 0.9345 0.7347
P1 P 0.84182(4) 0.39089(4) 0.14550(3)
F1 F 0.89970(10) 0.49128(9) 0.20550(7)
F2 F 0.78497(10) 0.29168(8) 0.08433(8)
F3 F 0.72407(10) 0.41334(9) 0.14562(8)
F4 F 0.87688(11) 0.45036(9) 0.06400(8)
F5 F 0.96021(10) 0.36807(9) 0.14485(9)
F6 F 0.80769(11) 0.33259(10) 0.22693(8)
P2 P 0.91216(5) 0.89809(4) 0.18774(3)
F7 F 1.00624(12) 0.84684(10) 0.20197(8)
F8 F 0.96077(12) 0.97373(10) 0.26963(8)
F9 F 0.86370(11) 0.82315(10) 0.10409(8)
F10 F 0.99783(13) 0.97078(10) 0.12936(9)
F11 F 0.81938(14) 0.95070(13) 0.17087(10)
F12 F 0.82714(13) 0.82562(11) 0.24401(10)
N1 N 0.55892(13) -0.00273(11) 0.79244(10)
O2 O 0.71761(12) -0.08774(10) 0.63544(9)
O3 O 0.71844(11) 0.06618(9) 0.67599(8)
O4 O 0.37290(14) -0.00427(11) 0.96088(10)
O5 O 0.47119(11) 0.11959(10) 0.88930(8)
O6 O 0.43870(11) 0.46463(10) 0.78449(8)
O7 O 0.37409(11) 0.46144(10) 0.60511(8)
O8 O 0.46403(11) 0.30720(10) 0.54299(8)
O9 O 0.70937(11) 0.36951(9) 0.50108(9)
O10 O 0.88495(11) 0.49890(9) 0.57742(8)
O11 O 0.89635(12) 0.69519(10) 0.64948(10)
O12 O 0.82281(12) 0.72210(10) 0.81777(9)
O13 O 0.61838(11) 0.57550(10) 0.87093(8)
C7 C 0.68276(16) -0.03080(13) 0.67891(12)
C8 C 0.59350(16) -0.06695(14) 0.74228(12)
C9 C 0.55117(17) -0.16881(14) 0.74429(13)
H7 H 0.5786 -0.2114 0.7074
C10 C 0.46895(18) -0.20639(15) 0.80059(14)
H8 H 0.4381 -0.2754 0.8031
C11 C 0.43247(18) -0.14153(15) 0.85324(14)
H9 H 0.3764 -0.1650 0.8933
C12 C 0.47911(16) -0.04131(14) 0.84671(13)
C13 C 0.43580(16) 0.02614(15) 0.90526(13)
C14 C 0.42285(17) 0.18282(15) 0.94507(12)
H10 H 0.4382 0.1761 1.0053
H11 H 0.3397 0.1627 0.9345
C15 C 0.47584(16) 0.28715(14) 0.92708(12)
C16 C 0.42826(16) 0.32503(14) 0.86334(12)
H12 H 0.3624 0.2842 0.8315
C17 C 0.47684(16) 0.42151(14) 0.84657(11)
C18 C 0.57382(16) 0.48237(14) 0.89459(12)
C19 C 0.61808(16) 0.44538(15) 0.95911(12)
H13 H 0.6819 0.4867 0.9928
C20 C 0.56942(16) 0.34771(15) 0.97489(12)
H14 H 0.6009 0.3225 1.0189
C21 C 0.32828(16) 0.41283(15) 0.74576(12)
H15 H 0.2693 0.4065 0.7883
H16 H 0.3251 0.3461 0.7213
C22 C 0.30940(17) 0.47212(15) 0.67719(12)
H17 H 0.2278 0.4502 0.6598
H18 H 0.3314 0.5424 0.6995
C23 C 0.31548(17) 0.37833(16) 0.54711(13)
H19 H 0.2602 0.3953 0.5111
H20 H 0.2733 0.3231 0.5790
C24 C 0.39846(17) 0.34805(16) 0.49245(12)
H21 H 0.3575 0.2987 0.4456
H22 H 0.4488 0.4059 0.4674
C25 C 0.51745(16) 0.24677(14) 0.49491(13)
H23 H 0.4607 0.2009 0.4535
H24 H 0.5423 0.2067 0.5338
C26 C 0.61853(16) 0.30226(14) 0.44746(12)
H25 H 0.6480 0.2541 0.4147
H26 H 0.5931 0.3396 0.4064
C27 C 0.77806(15) 0.33212(13) 0.54568(11)
C28 C 0.76019(16) 0.23325(13) 0.55305(12)
H27 H 0.6981 0.1850 0.5225
C29 C 0.83252(16) 0.20362(13) 0.60498(12)
C30 C 0.92600(16) 0.27366(14) 0.64587(12)
H28 H 0.9759 0.2538 0.6806
C31 C 0.94756(16) 0.37320(14) 0.63651(11)
H29 H 1.0132 0.4206 0.6635
C32 C 0.87377(16) 0.40318(13) 0.58803(11)
C33 C 0.80792(17) 0.09663(14) 0.61437(12)
H30 H 0.7826 0.0576 0.5588
H31 H 0.8776 0.0845 0.6344
C34 C 0.98719(16) 0.57245(14) 0.61182(12)
H32 H 1.0539 0.5622 0.5837
H33 H 0.9962 0.5683 0.6734
C35 C 0.97824(18) 0.67130(14) 0.59661(14)
H34 H 1.0531 0.7222 0.6086
H35 H 0.9560 0.6706 0.5363
C36 C 0.94296(18) 0.78155(14) 0.70581(13)
H36 H 0.9734 0.8389 0.6731
H37 H 1.0061 0.7749 0.7408
C37 C 0.85290(19) 0.79756(14) 0.76223(13)
H38 H 0.8816 0.8628 0.7956
H39 H 0.7855 0.7957 0.7275
C38 C 0.74996(17) 0.73652(14) 0.88217(13)
H40 H 0.6852 0.7523 0.8572
H41 H 0.7916 0.7920 0.9241
C39 C 0.70805(17) 0.64362(15) 0.92440(12)
H42 H 0.7704 0.6158 0.9322
H43 H 0.6795 0.6572 0.9808
N2 N 0.69108(13) 0.45663(11) 0.71225(10)
N3 N 0.89912(14) 0.18301(12) 0.97583(10)
C40 C 0.82588(15) 0.44637(13) 0.81364(12)
H44 H 0.8902 0.4784 0.8506
C41 C 0.78354(15) 0.50047(14) 0.76372(11)
H45 H 0.8197 0.5695 0.7654
C42 C 0.63876(16) 0.35885(14) 0.70875(12)
H46 H 0.5729 0.3292 0.6727
C43 C 0.67964(16) 0.30155(14) 0.75668(11)
H47 H 0.6427 0.2325 0.7530
C44 C 0.77534(15) 0.34469(13) 0.81074(11)
C45 C 0.82126(15) 0.28627(13) 0.86462(11)
C46 C 0.75808(15) 0.19092(14) 0.87838(12)
H48 H 0.6866 0.1602 0.8493
C47 C 0.79859(16) 0.14092(14) 0.93390(12)
H49 H 0.7549 0.0756 0.9428
C48 C 0.96445(16) 0.27333(14) 0.96068(13)
H50 H 1.0369 0.3013 0.9890
C49 C 0.92836(16) 0.32561(14) 0.90520(12)
H51 H 0.9763 0.3888 0.8943
C50 C 0.93662(19) 0.13067(16) 1.04034(13)
H52 H 0.9891 0.0984 1.0153
H53 H 0.8705 0.0810 1.0601
H54 H 0.9751 0.1779 1.0884
C51 C 0.64716(17) 0.51734(14) 0.65964(12)
H55 H 0.5976 0.5461 0.6932
H56 H 0.6040 0.4761 0.6101
H57 H 0.7108 0.5701 0.6407
C1? C 1.0086(7) 0.0501(5) 0.4900(3)
C2? C 0.9203(4) 0.0691(3) 0.4456(2)
C3? C 0.9069(6) -0.1027(5) 0.4782(5)
loop_
_geom_bond_atom_site_label_1
_geom_bond_atom_site_label_2
_geom_bond_site_symmetry_1
_geom_bond_site_symmetry_2
O1 C4 1_555 1_555
C4 C5 1_555 1_555
C5 H1 1_555 1_555
H2 C5 1_555 1_555
H3 C5 1_555 1_555
C6 C4 1_555 1_555
H4 C6 1_555 1_555
H5 C6 1_555 1_555
H6 C6 1_555 1_555
P1 F1 1_555 1_555
F2 P1 1_555 1_555
F3 P1 1_555 1_555
F4 P1 1_555 1_555
F5 P1 1_555 1_555
F6 P1 1_555 1_555
P2 F7 1_555 1_555
F8 P2 1_555 1_555
F9 P2 1_555 1_555
F10 P2 1_555 1_555
F11 P2 1_555 1_555
F12 P2 1_555 1_555
N1 C8 1_555 1_555
O2 C7 1_555 1_555
O3 C7 1_555 1_555
O4 C13 1_555 1_555
O5 C13 1_555 1_555
O6 C17 1_555 1_555
O7 C22 1_555 1_555
O8 C24 1_555 1_555
O9 C26 1_555 1_555
O10 C32 1_555 1_555
O11 C35 1_555 1_555
O12 C37 1_555 1_555
O13 C18 1_555 1_555
C7 C8 1_555 1_555
C8 C9 1_555 1_555
C9 H7 1_555 1_555
C10 C9 1_555 1_555
H8 C10 1_555 1_555
C11 C10 1_555 1_555
H9 C11 1_555 1_555
C12 N1 1_555 1_555
C13 C12 1_555 1_555
C14 O5 1_555 1_555
H10 C14 1_555 1_555
H11 C14 1_555 1_555
C15 C14 1_555 1_555
C16 C15 1_555 1_555
H12 C16 1_555 1_555
C17 C16 1_555 1_555
C18 C17 1_555 1_555
C19 C18 1_555 1_555
H13 C19 1_555 1_555
C20 C15 1_555 1_555
H14 C20 1_555 1_555
C21 O6 1_555 1_555
H15 C21 1_555 1_555
H16 C21 1_555 1_555
C22 C21 1_555 1_555
H17 C22 1_555 1_555
H18 C22 1_555 1_555
C23 O7 1_555 1_555
H19 C23 1_555 1_555
H20 C23 1_555 1_555
C24 C23 1_555 1_555
H21 C24 1_555 1_555
H22 C24 1_555 1_555
C25 O8 1_555 1_555
H23 C25 1_555 1_555
H24 C25 1_555 1_555
C26 C25 1_555 1_555
H25 C26 1_555 1_555
H26 C26 1_555 1_555
C27 O9 1_555 1_555
C28 C27 1_555 1_555
H27 C28 1_555 1_555
C29 C28 1_555 1_555
C30 C29 1_555 1_555
H28 C30 1_555 1_555
C31 C30 1_555 1_555
H29 C31 1_555 1_555
C32 C27 1_555 1_555
C33 O3 1_555 1_555
H30 C33 1_555 1_555
H31 C33 1_555 1_555
C34 O10 1_555 1_555
H32 C34 1_555 1_555
H33 C34 1_555 1_555
C35 C34 1_555 1_555
H34 C35 1_555 1_555
H35 C35 1_555 1_555
C36 O11 1_555 1_555
H36 C36 1_555 1_555
H37 C36 1_555 1_555
C37 C36 1_555 1_555
H38 C37 1_555 1_555
H39 C37 1_555 1_555
C38 O12 1_555 1_555
H40 C38 1_555 1_555
H41 C38 1_555 1_555
C39 O13 1_555 1_555
H42 C39 1_555 1_555
H43 C39 1_555 1_555
N2 C41 1_555 1_555
N3 C47 1_555 1_555
C40 H44 1_555 1_555
C41 C40 1_555 1_555
H45 C41 1_555 1_555
C42 N2 1_555 1_555
H46 C42 1_555 1_555
C43 C42 1_555 1_555
H47 C43 1_555 1_555
C44 C40 1_555 1_555
C45 C44 1_555 1_555
C46 C45 1_555 1_555
H48 C46 1_555 1_555
C47 C46 1_555 1_555
H49 C47 1_555 1_555
C48 N3 1_555 1_555
H50 C48 1_555 1_555
C49 C45 1_555 1_555
H51 C49 1_555 1_555
C50 N3 1_555 1_555
H52 C50 1_555 1_555
H53 C50 1_555 1_555
H54 C50 1_555 1_555
C51 N2 1_555 1_555
H55 C51 1_555 1_555
H56 C51 1_555 1_555
H57 C51 1_555 1_555
C11 C12 1_555 1_555
C19 C20 1_555 1_555
C29 C33 1_555 1_555
C31 C32 1_555 1_555
C38 C39 1_555 1_555
C43 C44 1_555 1_555
C48 C49 1_555 1_555

#END
