
#######################################################################
#
#                 Cambridge Crystallographic Data Centre
#                                CCDC 
#
#######################################################################
#
# If this CIF has been generated from an entry in the Cambridge 
# Structural Database, then it will include bibliographic, chemical, 
# crystal, experimental, refinement or atomic coordinate data resulting 
# from the CCDC's data processing and validation procedures.
#
#######################################################################

data_TISSAQ
_chemical_name_common            
"cis-5,8,11,14,21,24,27,30,34,42-Decaoxa-44-azapentacyclo[16.14.11.1$36,40!.0$4,31!.0$15,20!]tetratetraconta-1,3,15,17,19,31,36(44),37,39-nonaene-35,41-dione 1-methyl-1'-hydroxyethyl-4,4'-bipyridinium clathrate bis(hexafluorophosphate) acetone solvate"
_chemical_formula_moiety         
'C33 H37 N1 O12,C13 H16 N2 O1 2+,2(F6 P1 1-),2(C3 H6 O1)'
_chemical_name_systematic        
"cis-1,12(1,2,4)-Dibenzena-26(2,6)pyridina-2,5,8,11,13,16,19,22,24,28-decaoxabicyclo[10.10.7]nonacosaphane-25,27-dione 1-methyl-1'-hydroxyethyl-4,4'-bipyridinium clathrate bis(hexafluorophosphate) acetone solvate"
_symmetry_cell_setting           triclinic
_symmetry_space_group_name_H-M   'P -1'
_symmetry_Int_Tables_number      2
_space_group_name_Hall           '-P 1'
loop_
_symmetry_equiv_pos_site_id
_symmetry_equiv_pos_as_xyz
1 x,y,z
2 -x,-y,-z
_cell_length_a                   11.6015(18)
_cell_length_b                   13.783(2)
_cell_length_c                   19.737(3)
_cell_angle_alpha                98.258(2)
_cell_angle_beta                 104.045(2)
_cell_angle_gamma                105.721(2)
_cell_volume                     2872.09
_exptl_crystal_colour            yellow
_exptl_crystal_description       block
_cell_formula_units_Z            2
loop_
_atom_site_label
_atom_site_type_symbol
_atom_site_fract_x
_atom_site_fract_y
_atom_site_fract_z
O1 O 0.37462(18) -0.09170(15) 0.15711(11)
O2 O 0.2621(2) -0.11114(16) 0.27517(12)
O3 O 0.3818(2) 0.01077(19) 0.40902(12)
O4 O 0.5872(2) 0.19133(19) 0.45999(12)
O5 O 0.8056(2) 0.18262(19) 0.46287(13)
O6 O 0.9777(3) 0.1542(3) 0.38098(18)
O7 O 0.8778(2) 0.0286(2) 0.23671(15)
O8 O 0.60975(19) -0.04612(16) 0.16110(11)
O9 O 0.69450(18) 0.29155(15) 0.07640(10)
O10 O 0.7613(2) 0.33722(17) -0.01565(11)
O11 O 0.9166(2) 0.47735(15) 0.31291(11)
O12 O 1.1061(3) 0.5951(2) 0.33744(13)
N1 N 0.8990(2) 0.43440(17) 0.17186(12)
C1 C 0.5419(3) 0.0064(2) 0.12353(14)
C2 C 0.5926(3) 0.0842(2) 0.09219(14)
H1 H 0.6780 0.1000 0.0931
C3 C 0.5202(3) 0.1403(2) 0.05897(14)
C4 C 0.3951(3) 0.1154(2) 0.05678(15)
H2 H 0.3450 0.1528 0.0344
C5 C 0.3425(3) 0.0358(2) 0.08717(15)
H3 H 0.2561 0.0182 0.0842
C6 C 0.4150(3) -0.0181(2) 0.12190(14)
C7 C 0.2420(3) -0.1256(2) 0.15177(17)
H4 H 0.1927 -0.1704 0.1039
H5 H 0.2121 -0.0651 0.1588
C8 C 0.2268(3) -0.1844(2) 0.20896(18)
H6 H 0.1386 -0.2286 0.1976
H7 H 0.2808 -0.2293 0.2122
C9 C 0.2763(4) -0.1574(3) 0.33560(19)
H8 H 0.3544 -0.1761 0.3447
H9 H 0.2047 -0.2211 0.3265
C10 C 0.2812(4) -0.0813(3) 0.39875(19)
H10 H 0.2011 -0.0657 0.3906
H11 H 0.2940 -0.1103 0.4420
C11 C 0.3951(4) 0.0878(3) 0.46956(19)
H12 H 0.4431 0.0740 0.5139
H13 H 0.3116 0.0868 0.4739
C12 C 0.4632(4) 0.1911(3) 0.45918(19)
H14 H 0.4191 0.2026 0.4129
H15 H 0.4672 0.2470 0.4982
C13 C 0.6623(4) 0.2739(3) 0.44345(16)
C14 C 0.6278(4) 0.3571(3) 0.42431(18)
H16 H 0.5470 0.3610 0.4235
C15 C 0.7115(4) 0.4351(3) 0.40625(18)
H17 H 0.6872 0.4919 0.3929
C16 C 0.8292(4) 0.4308(2) 0.40754(16)
C17 C 0.8657(3) 0.3474(3) 0.42761(15)
H18 H 0.9470 0.3443 0.4288
C18 C 0.7823(4) 0.2693(3) 0.44577(16)
C19 C 0.9329(4) 0.1857(3) 0.4924(2)
H19 H 0.9428 0.1662 0.5393
H20 H 0.9897 0.2571 0.5003
C20 C 0.9679(5) 0.1136(3) 0.4431(4)
H21 H 1.0491 0.1062 0.4680
H22 H 0.9035 0.0445 0.4286
C21 C 1.0522(5) 0.1229(5) 0.3348(4)
H23 H 1.0731 0.1756 0.3067
H24 H 1.1318 0.1199 0.3657
C22 C 0.9879(4) 0.0283(5) 0.2888(3)
H25 H 0.9633 -0.0235 0.3170
H26 H 1.0442 0.0069 0.2636
C23 C 0.8095(3) -0.0734(3) 0.1960(2)
H27 H 0.7740 -0.1162 0.2268
H28 H 0.8660 -0.1049 0.1774
C24 C 0.7069(3) -0.0703(3) 0.13543(19)
H29 H 0.7406 -0.0174 0.1101
H30 H 0.6716 -0.1383 0.1010
C25 C 0.5769(3) 0.2228(2) 0.02460(15)
H31 H 0.5934 0.1916 -0.0190
H32 H 0.5188 0.2624 0.0106
C26 C 0.7777(3) 0.3440(2) 0.04790(14)
C27 C 0.8963(3) 0.4134(2) 0.10294(14)
C28 C 0.9968(3) 0.4535(2) 0.07783(16)
H33 H 0.9905 0.4347 0.0285
C29 C 1.1061(3) 0.5212(2) 0.12585(17)
H34 H 1.1759 0.5512 0.1101
C30 C 1.1124(3) 0.5448(2) 0.19744(17)
H35 H 1.1868 0.5904 0.2320
C31 C 1.0068(3) 0.4998(2) 0.21740(16)
C32 C 1.0156(3) 0.5295(2) 0.29549(16)
C33 C 0.9200(4) 0.5134(2) 0.38790(17)
H36 H 0.8971 0.5777 0.3928
H37 H 1.0055 0.5284 0.4203
O13 O 0.4128(2) 0.65431(17) 0.21255(13)
N2 N 0.5933(2) 0.08564(18) 0.29838(12)
N3 N 0.4865(2) 0.49428(18) 0.14718(13)
C34 C 0.6109(3) -0.0058(2) 0.32594(18)
H38 H 0.6972 -0.0057 0.3314
H39 H 0.5525 -0.0691 0.2921
H40 H 0.5946 -0.0028 0.3725
C35 C 0.6876(3) 0.1517(2) 0.28378(14)
H41 H 0.7669 0.1408 0.2925
C36 C 0.6713(3) 0.2346(2) 0.25654(14)
H42 H 0.7385 0.2805 0.2459
C37 C 0.5549(3) 0.2512(2) 0.24443(14)
C38 C 0.4597(3) 0.1813(2) 0.26049(15)
H43 H 0.3797 0.1906 0.2528
C39 C 0.4802(3) 0.0989(2) 0.28743(15)
H44 H 0.4146 0.0514 0.2983
C40 C 0.3947(3) 0.4285(3) 0.1631(2)
H45 H 0.3134 0.4356 0.1516
C41 C 0.4154(3) 0.3506(3) 0.1958(2)
H46 H 0.3484 0.3047 0.2066
C42 C 0.5326(3) 0.3387(2) 0.21300(14)
C43 C 0.6273(3) 0.4106(2) 0.19869(17)
H47 H 0.7101 0.4070 0.2117
C44 C 0.6029(3) 0.4874(2) 0.16581(16)
H48 H 0.6690 0.5361 0.1562
C45 C 0.4606(3) 0.5768(2) 0.11080(17)
H49 H 0.3718 0.5534 0.0813
H50 H 0.5137 0.5904 0.0786
C46 C 0.4873(3) 0.6750(2) 0.16534(18)
H51 H 0.5772 0.7009 0.1930
H52 H 0.4674 0.7287 0.1407
H59 H 0.470(4) 0.674(4) 0.253(3)
P1 P 0.79810(10) 0.67595(7) 0.04552(5)
F7 F 0.7660(3) 0.69791(17) 0.11899(13)
F8 F 0.7488(3) 0.55433(17) 0.04287(14)
F9 F 0.8241(3) 0.6515(3) -0.02924(14)
F10 F 0.8405(3) 0.79597(18) 0.04710(16)
F11 F 0.6561(2) 0.66550(19) 0.00302(13)
F12 F 0.9363(3) 0.6840(2) 0.08545(16)
P2 P 0.70535(10) 0.74455(7) 0.37411(5)
F1 F 0.7035(4) 0.6952(2) 0.44058(14)
F2 F 0.6403(2) 0.63210(15) 0.32140(11)
F3 F 0.8387(3) 0.7348(3) 0.3787(2)
F4 F 0.5688(2) 0.75410(18) 0.36825(13)
F5 F 0.7060(3) 0.79561(18) 0.30716(14)
F6 F 0.7678(3) 0.85716(19) 0.42558(14)
O14 O 0.2997(6) 0.3349(5) 0.3316(4)
C47 C 0.2186(8) 0.3962(5) 0.4161(3)
H53 H 0.1675 0.3233 0.4045
H54 H 0.1637 0.4391 0.4087
H55 H 0.2703 0.4159 0.4663
C48 C 0.2986(4) 0.4116(5) 0.3703(3)
C49 C 0.3881(6) 0.5189(5) 0.3773(4)
H56 H 0.4372 0.5150 0.3437
H57 H 0.4446 0.5446 0.4264
H58 H 0.3398 0.5660 0.3665
loop_
_geom_bond_atom_site_label_1
_geom_bond_atom_site_label_2
_geom_bond_site_symmetry_1
_geom_bond_site_symmetry_2
O1 C6 1_555 1_555
O2 C8 1_555 1_555
O3 C10 1_555 1_555
O4 C12 1_555 1_555
O5 C18 1_555 1_555
O6 C20 1_555 1_555
O7 C22 1_555 1_555
O8 C1 1_555 1_555
O9 C25 1_555 1_555
O10 C26 1_555 1_555
O11 C32 1_555 1_555
O12 C32 1_555 1_555
O13 C46 1_555 1_555
N1 C27 1_555 1_555
N2 C34 1_555 1_555
N3 C40 1_555 1_555
C1 C2 1_555 1_555
C2 H1 1_555 1_555
C3 C2 1_555 1_555
C4 C3 1_555 1_555
H2 C4 1_555 1_555
C5 C4 1_555 1_555
H3 C5 1_555 1_555
C6 C1 1_555 1_555
C7 O1 1_555 1_555
H4 C7 1_555 1_555
H5 C7 1_555 1_555
C8 C7 1_555 1_555
H6 C8 1_555 1_555
H7 C8 1_555 1_555
C9 O2 1_555 1_555
H8 C9 1_555 1_555
H9 C9 1_555 1_555
C10 C9 1_555 1_555
H10 C10 1_555 1_555
H11 C10 1_555 1_555
C11 O3 1_555 1_555
H12 C11 1_555 1_555
H13 C11 1_555 1_555
C12 C11 1_555 1_555
H14 C12 1_555 1_555
H15 C12 1_555 1_555
C13 O4 1_555 1_555
C14 C13 1_555 1_555
H16 C14 1_555 1_555
C15 C14 1_555 1_555
H17 C15 1_555 1_555
C16 C15 1_555 1_555
C17 C16 1_555 1_555
H18 C17 1_555 1_555
C18 C13 1_555 1_555
C19 O5 1_555 1_555
H19 C19 1_555 1_555
H20 C19 1_555 1_555
C20 C19 1_555 1_555
H21 C20 1_555 1_555
H22 C20 1_555 1_555
C21 O6 1_555 1_555
H23 C21 1_555 1_555
H24 C21 1_555 1_555
C22 C21 1_555 1_555
H25 C22 1_555 1_555
H26 C22 1_555 1_555
C23 O7 1_555 1_555
H27 C23 1_555 1_555
H28 C23 1_555 1_555
C24 O8 1_555 1_555
H29 C24 1_555 1_555
H30 C24 1_555 1_555
C25 C3 1_555 1_555
H31 C25 1_555 1_555
H32 C25 1_555 1_555
C26 O9 1_555 1_555
C27 C26 1_555 1_555
C28 C27 1_555 1_555
H33 C28 1_555 1_555
C29 C28 1_555 1_555
H34 C29 1_555 1_555
C30 C29 1_555 1_555
H35 C30 1_555 1_555
C31 N1 1_555 1_555
C32 C31 1_555 1_555
C33 O11 1_555 1_555
H36 C33 1_555 1_555
H37 C33 1_555 1_555
C34 H38 1_555 1_555
H39 C34 1_555 1_555
H40 C34 1_555 1_555
C35 N2 1_555 1_555
H41 C35 1_555 1_555
C36 C35 1_555 1_555
H42 C36 1_555 1_555
C37 C36 1_555 1_555
C38 C37 1_555 1_555
H43 C38 1_555 1_555
C39 N2 1_555 1_555
H44 C39 1_555 1_555
C40 H45 1_555 1_555
C41 C40 1_555 1_555
H46 C41 1_555 1_555
C42 C37 1_555 1_555
C43 C42 1_555 1_555
H47 C43 1_555 1_555
C44 N3 1_555 1_555
H48 C44 1_555 1_555
C45 N3 1_555 1_555
H49 C45 1_555 1_555
H50 C45 1_555 1_555
C46 C45 1_555 1_555
H51 C46 1_555 1_555
H52 C46 1_555 1_555
P1 F7 1_555 1_555
P2 F1 1_555 1_555
F2 P2 1_555 1_555
F3 P2 1_555 1_555
F4 P2 1_555 1_555
F5 P2 1_555 1_555
F6 P2 1_555 1_555
F8 P1 1_555 1_555
F9 P1 1_555 1_555
F10 P1 1_555 1_555
F11 P1 1_555 1_555
F12 P1 1_555 1_555
O14 C48 1_555 1_555
C47 H53 1_555 1_555
H54 C47 1_555 1_555
H55 C47 1_555 1_555
C48 C47 1_555 1_555
C49 C48 1_555 1_555
H56 C49 1_555 1_555
H57 C49 1_555 1_555
H58 C49 1_555 1_555
H59 O13 1_555 1_555
C5 C6 1_555 1_555
C16 C33 1_555 1_555
C17 C18 1_555 1_555
C23 C24 1_555 1_555
C30 C31 1_555 1_555
C38 C39 1_555 1_555
C41 C42 1_555 1_555
C43 C44 1_555 1_555

#END
