
#######################################################################
#
#                 Cambridge Crystallographic Data Centre
#                                CCDC 
#
#######################################################################
#
# If this CIF has been generated from an entry in the Cambridge 
# Structural Database, then it will include bibliographic, chemical, 
# crystal, experimental, refinement or atomic coordinate data resulting 
# from the CCDC's data processing and validation procedures.
#
#######################################################################

data_TITLUD
_chemical_formula_moiety         'C62 H56 N2 O4 S6,2(C1 H1 Cl3)'
_chemical_name_systematic        
"2,17-bis(4-Tolylsulfonyl)-2,17-diaza-32,47,50,53-tetrathia(3.3)(3,3')(3,3')(3.3)(5,5')(3,5)(3.3)(3',5')(5,5')b phenylo(3)phane chloroform solvate"
_symmetry_cell_setting           monoclinic
_symmetry_space_group_name_H-M   'P 21/c'
_symmetry_Int_Tables_number      14
_space_group_name_Hall           '-P 2ybc'
loop_
_symmetry_equiv_pos_site_id
_symmetry_equiv_pos_as_xyz
1 x,y,z
2 -x,1/2+y,1/2-z
3 -x,-y,-z
4 x,1/2-y,1/2+z
_cell_length_a                   15.064(3)
_cell_length_b                   14.774(3)
_cell_length_c                   28.961(7)
_cell_angle_alpha                90
_cell_angle_beta                 101.09(8)
_cell_angle_gamma                90
_cell_volume                     6325.07
_exptl_crystal_colour            colorless
_chemical_melting_point          'above 300deg.C'
_cell_formula_units_Z            4
loop_
_atom_site_label
_atom_site_type_symbol
_atom_site_fract_x
_atom_site_fract_y
_atom_site_fract_z
Cl1 Cl 0.5940(3) 0.7742(4) -0.0553(2)
Cl2 Cl 0.6568(2) 0.9522(4) -0.0287(2)
Cl3 Cl 0.5179(4) 0.8707(4) 0.0126(1)
C63 C 0.6170 0.8500 -0.0090
H1 H 0.66705 0.82231 0.01821
Cl4 Cl 1.009(1) 0.390(2) 0.0266(5)
Cl5 Cl 0.970(2) 0.215(1) 0.0572(8)
Cl6 Cl 0.8293(9) 0.343(1) 0.0302(5)
C64 C 0.9400(6) 0.3294(7) 0.0571(3)
H2 H 0.95036 0.35301 0.09187
S1 S 0.2834(4) 0.8295(4) 0.07541(9)
S2 S 0.5555(3) 0.5125(3) 0.1553(1)
S3 S 0.1067(2) 0.8225(3) 0.3247(1)
S4 S 0.3274(3) 0.4771(5) 0.3872(2)
S5 S -0.2135(3) 0.6915(4) 0.0697(2)
S6 S 0.2287(4) 0.0890(4) 0.1952(2)
O1 O 0.3088(9) 0.0520(8) 0.1825(4)
O2 O 0.2153(8) 0.0722(8) 0.2425(5)
O3 O -0.2700(9) 0.7364(8) 0.0955(5)
O4 O -0.1788(9) 0.7401(9) 0.0345(5)
N1 N -0.1271(8) 0.6542(9) 0.1084(5)
N2 N 0.2327(9) 0.198(1) 0.1885(5)
C1 C 0.0344(8) 0.608(2) 0.1011(4)
C2 C 0.062(1) 0.694(1) 0.0984(4)
C3 C 0.154(2) 0.714(1) 0.1065(5)
C4 C 0.2151(8) 0.647(2) 0.1191(4)
C5 C 0.187(1) 0.560(1) 0.1224(4)
C6 C 0.096(2) 0.541(1) 0.1141(5)
C7 C 0.251(1) 0.486(1) 0.1374(5)
C8 C 0.337(2) 0.5063(9) 0.1598(5)
C9 C 0.3968(8) 0.439(2) 0.1750(4)
C10 C 0.370(1) 0.349(1) 0.1686(5)
C11 C 0.283(2) 0.329(1) 0.1471(6)
C12 C 0.2247(8) 0.396(2) 0.1299(4)
C13 C 0.409(1) 0.796(1) 0.1596(7)
C14 C 0.3806(8) 0.799(1) 0.2014(9)
C15 C 0.418(1) 0.741(2) 0.2369(5)
C16 C 0.489(1) 0.686(1) 0.2314(6)
C17 C 0.5183(7) 0.6846(9) 0.1897(9)
C18 C 0.480(1) 0.741(1) 0.1541(5)
C19 C 0.384(1) 0.732(2) 0.2815(4)
C20 C 0.326(1) 0.798(1) 0.2934(7)
C21 C 0.2898(8) 0.788(1) 0.3324(8)
C22 C 0.314(1) 0.715(2) 0.3620(5)
C23 C 0.374(1) 0.6505(9) 0.3510(6)
C24 C 0.4073(8) 0.658(1) 0.3107(8)
C25 C 0.061(1) 0.7266(9) 0.2401(5)
C26 C -0.020(1) 0.720(1) 0.2088(5)
C27 C -0.0510(7) 0.636(2) 0.1915(3)
C28 C -0.001(1) 0.560(1) 0.2055(5)
C29 C 0.082(1) 0.567(1) 0.2344(6)
C30 C 0.1127(7) 0.652(1) 0.2521(4)
C31 C 0.136(1) 0.482(1) 0.2453(7)
C32 C 0.1225(8) 0.405(2) 0.2184(4)
C33 C 0.177(1) 0.332(1) 0.2302(6)
C34 C 0.246(1) 0.335(1) 0.2693(7)
C35 C 0.2607(8) 0.412(2) 0.2956(4)
C36 C 0.205(1) 0.485(1) 0.2842(6)
C37 C -0.1424 0.6295 0.1557
C38 C -0.0672 0.5876 0.0880
C39 C 0.2543 0.2310 0.1426
C40 C 0.1539 0.2477 0.1992
C41 C 0.3376 0.4097 0.3375
C42 C 0.4031 0.5724 0.3855
C43 C 0.2247 0.8601 0.3441
C44 C 0.0910 0.8147 0.2609
C45 C 0.3730 0.8712 0.1227
C46 C 0.1865 0.8114 0.1032
C47 C 0.4968 0.4616 0.1987
C48 C 0.5950 0.6222 0.1800
C49 C 0.1324(9) 0.0447(8) 0.1567(5)
C50 C 0.053(1) 0.0296(9) 0.1723(4)
C51 C -0.0240(9) 0.0034(9) 0.1407(5)
C52 C -0.0213(8) -0.0070(7) 0.0931(4)
C53 C 0.057(1) 0.0105(9) 0.0774(4)
C54 C 0.1341(8) 0.0380(9) 0.1091(6)
C55 C -0.104(1) -0.042(1) 0.0593(6)
C56 C -0.2728(7) 0.5985(8) 0.0433(5)
C57 C -0.3184(9) 0.542(1) 0.0683(4)
C58 C -0.3669(8) 0.4697(9) 0.0463(4)
C59 C -0.3708(6) 0.4550(7) -0.0009(4)
C60 C -0.3262(8) 0.5123(9) -0.0262(4)
C61 C -0.2759(8) 0.5831(9) -0.0040(5)
C62 C -0.4240(9) 0.3756(9) -0.0251(6)
H4 H 0.01704 0.74385 0.09044
H5 H 0.28122 0.66119 0.12597
H6 H 0.07512 0.47749 0.11757
H7 H 0.35640 0.57093 0.16499
H8 H 0.41369 0.29934 0.17980
H9 H 0.16299 0.38155 0.11190
H10 H 0.33255 0.84232 0.20638
H11 H 0.51982 0.64700 0.25807
H12 H 0.50375 0.74329 0.12412
H13 H 0.31195 0.85322 0.27319
H14 H 0.28817 0.70831 0.39111
H15 H 0.44850 0.61064 0.30212
H16 H -0.05708 0.77501 0.19874
H17 H -0.02454 0.49857 0.19457
H18 H 0.17290 0.65725 0.27360
H19 H 0.07254 0.40248 0.19016
H20 H 0.28577 0.28116 0.27814
H21 H 0.21415 0.54120 0.30413
H22 H -0.18720 0.67208 0.16530
H23 H -0.16618 0.56623 0.15521
H24 H -0.08535 0.58895 0.05289
H25 H -0.07774 0.52559 0.09969
H26 H 0.30444 0.19368 0.13440
H27 H 0.19936 0.22517 0.11725
H28 H 0.11852 0.20529 0.21553
H29 H 0.11581 0.26742 0.16865
H30 H 0.39348 0.42972 0.32655
H31 H 0.34487 0.34535 0.34835
H34 H 0.41556 0.59926 0.41777
H35 H 0.46032 0.54714 0.37808
H38 H 0.23675 0.87053 0.37882
H39 H 0.23429 0.91783 0.32763
H40 H 0.04491 0.86088 0.24711
H41 H 0.15014 0.82928 0.25177
H42 H 0.34841 0.92244 0.13899
H43 H 0.42447 0.89338 0.10849
H44 H 0.20250 0.83566 0.13598
H45 H 0.13479 0.84677 0.08502
H46 H 0.49685 0.50519 0.22513
H47 H 0.52857 0.40477 0.21119
H48 H 0.63816 0.61166 0.21039
H49 H 0.62718 0.65347 0.15740
H50 H 0.05139 0.03757 0.20635
H51 H -0.08153 -0.00814 0.15212
H52 H 0.05858 0.00370 0.04326
H53 H 0.19074 0.05294 0.09741
H54 H -0.09015 -0.04556 0.02689
H55 H -0.11906 -0.10426 0.06945
H56 H -0.15600 -0.00083 0.05941
H57 H -0.31671 0.55391 0.10253
H58 H -0.39912 0.42793 0.06469
H59 H -0.33038 0.50257 -0.06074
H60 H -0.24155 0.62331 -0.02209
H61 H -0.41964 0.37497 -0.05914
H62 H -0.48884 0.38141 -0.02224
H63 H -0.39865 0.31791 -0.00995
Cl7? Cl 0.881(1) 0.3828(9) 0.0190(5)
Cl8? Cl 1.0315(7) 0.264(1) 0.0322(4)
Cl9? Cl 0.860(1) 0.198(1) 0.0423(4)
S7? S 0.4384(6) 0.472(2) 0.3569(9)
C65? C 0.9162(4) 0.2721(5) 0.0114(3)
H3? H 0.90175 0.25565 -0.02395
H32? H 0.30558 0.41588 0.36455
H33? H 0.36057 0.34634 0.33639
H36? H 0.45473 0.59315 0.41025
H37? H 0.35079 0.55573 0.40047
loop_
_geom_bond_atom_site_label_1
_geom_bond_atom_site_label_2
_geom_bond_site_symmetry_1
_geom_bond_site_symmetry_2
Cl1 C63 1_555 1_555
Cl2 C63 1_555 1_555
Cl3 C63 1_555 1_555
Cl4 C64 1_555 1_555
Cl5 C64 1_555 1_555
Cl6 C64 1_555 1_555
S1 C45 1_555 1_555
S2 C47 1_555 1_555
S3 C43 1_555 1_555
S4 C41 1_555 1_555
S5 O3 1_555 1_555
S6 O1 1_555 1_555
O2 S6 1_555 1_555
O4 S5 1_555 1_555
N1 S5 1_555 1_555
N2 S6 1_555 1_555
C1 C2 1_555 1_555
C2 C3 1_555 1_555
C3 C4 1_555 1_555
C4 C5 1_555 1_555
C5 C6 1_555 1_555
C6 C1 1_555 1_555
C7 C5 1_555 1_555
C8 C7 1_555 1_555
C9 C8 1_555 1_555
C10 C9 1_555 1_555
C11 C10 1_555 1_555
C12 C7 1_555 1_555
C13 C14 1_555 1_555
C14 C15 1_555 1_555
C15 C16 1_555 1_555
C16 C17 1_555 1_555
C17 C18 1_555 1_555
C18 C13 1_555 1_555
C19 C15 1_555 1_555
C20 C19 1_555 1_555
C21 C20 1_555 1_555
C22 C21 1_555 1_555
C23 C22 1_555 1_555
C24 C19 1_555 1_555
C25 C26 1_555 1_555
C26 C27 1_555 1_555
C27 C28 1_555 1_555
C28 C29 1_555 1_555
C29 C30 1_555 1_555
C30 C25 1_555 1_555
C31 C29 1_555 1_555
C32 C31 1_555 1_555
C33 C32 1_555 1_555
C34 C33 1_555 1_555
C35 C34 1_555 1_555
C36 C31 1_555 1_555
C37 N1 1_555 1_555
C38 N1 1_555 1_555
C39 N2 1_555 1_555
C40 N2 1_555 1_555
C41 C35 1_555 1_555
C42 S4 1_555 1_555
C43 C21 1_555 1_555
C44 S3 1_555 1_555
C45 C13 1_555 1_555
C46 S1 1_555 1_555
C47 C9 1_555 1_555
C48 S2 1_555 1_555
C49 S6 1_555 1_555
C50 C49 1_555 1_555
C51 C50 1_555 1_555
C52 C51 1_555 1_555
C53 C52 1_555 1_555
C54 C49 1_555 1_555
C55 C52 1_555 1_555
C56 S5 1_555 1_555
C57 C56 1_555 1_555
C58 C57 1_555 1_555
C59 C58 1_555 1_555
C60 C59 1_555 1_555
C61 C56 1_555 1_555
C62 C59 1_555 1_555
C63 H1 1_555 1_555
C64 H2 1_555 1_555
H4 C2 1_555 1_555
H5 C4 1_555 1_555
H6 C6 1_555 1_555
H7 C8 1_555 1_555
H8 C10 1_555 1_555
H9 C12 1_555 1_555
H10 C14 1_555 1_555
H11 C16 1_555 1_555
H12 C18 1_555 1_555
H13 C20 1_555 1_555
H14 C22 1_555 1_555
H15 C24 1_555 1_555
H16 C26 1_555 1_555
H17 C28 1_555 1_555
H18 C30 1_555 1_555
H19 C32 1_555 1_555
H20 C34 1_555 1_555
H21 C36 1_555 1_555
H22 C37 1_555 1_555
H23 C37 1_555 1_555
H24 C38 1_555 1_555
H25 C38 1_555 1_555
H26 C39 1_555 1_555
H27 C39 1_555 1_555
H28 C40 1_555 1_555
H29 C40 1_555 1_555
H30 C41 1_555 1_555
H31 C41 1_555 1_555
H34 C42 1_555 1_555
H35 C42 1_555 1_555
H38 C43 1_555 1_555
H39 C43 1_555 1_555
H40 C44 1_555 1_555
H41 C44 1_555 1_555
H42 C45 1_555 1_555
H43 C45 1_555 1_555
H44 C46 1_555 1_555
H45 C46 1_555 1_555
H46 C47 1_555 1_555
H47 C47 1_555 1_555
H48 C48 1_555 1_555
H49 C48 1_555 1_555
H50 C50 1_555 1_555
H51 C51 1_555 1_555
H52 C53 1_555 1_555
H53 C54 1_555 1_555
H54 C55 1_555 1_555
H55 C55 1_555 1_555
H56 C55 1_555 1_555
H57 C57 1_555 1_555
H58 C58 1_555 1_555
H59 C60 1_555 1_555
H60 C61 1_555 1_555
H61 C62 1_555 1_555
H62 C62 1_555 1_555
H63 C62 1_555 1_555
C1 C38 1_555 1_555
C3 C46 1_555 1_555
C11 C39 1_555 1_555
C11 C12 1_555 1_555
C17 C48 1_555 1_555
C23 C42 1_555 1_555
C23 C24 1_555 1_555
C25 C44 1_555 1_555
C27 C37 1_555 1_555
C33 C40 1_555 1_555
C35 C36 1_555 1_555
C53 C54 1_555 1_555
C60 C61 1_555 1_555

#END
