
#######################################################################
#
#                 Cambridge Crystallographic Data Centre
#                                CCDC 
#
#######################################################################
#
# If this CIF has been generated from an entry in the Cambridge 
# Structural Database, then it will include bibliographic, chemical, 
# crystal, experimental, refinement or atomic coordinate data resulting 
# from the CCDC's data processing and validation procedures.
#
#######################################################################

data_TITMAK
_chemical_formula_moiety         'C22 H24 Br4'
_chemical_name_systematic        
5,7,14,16-tetrakis(Bromomethyl)(3.3)metacyclophane
_symmetry_cell_setting           triclinic
_symmetry_space_group_name_H-M   'P -1'
_symmetry_Int_Tables_number      2
_space_group_name_Hall           '-P 1'
loop_
_symmetry_equiv_pos_site_id
_symmetry_equiv_pos_as_xyz
1 x,y,z
2 -x,-y,-z
_cell_length_a                   11.477(3)
_cell_length_b                   14.629(5)
_cell_length_c                   15.239(5)
_cell_angle_alpha                115.98(2)
_cell_angle_beta                 91.68(3)
_cell_angle_gamma                105.87(3)
_cell_volume                     2179.22
_exptl_crystal_colour            colorless
_cell_formula_units_Z            4
loop_
_atom_site_label
_atom_site_type_symbol
_atom_site_fract_x
_atom_site_fract_y
_atom_site_fract_z
Br1 Br 0.6840(1) 0.4900(1) 0.5331(1)
Br2 Br 0.3745(1) 0.5221(1) 0.2236(1)
Br3 Br 0.7861(1) 0.7487(1) 0.1358(1)
Br4 Br 1.0793(1) 0.7411(1) 0.4589(1)
C1 C 1.0428(7) 0.4292(6) 0.2441(5)
C2 C 0.9847(6) 0.4276(6) 0.3339(6)
C3 C 0.8470(6) 0.3703(6) 0.3154(5)
C4 C 0.7653(5) 0.4256(5) 0.2920(5)
C5 C 0.7461(6) 0.5173(5) 0.3644(5)
C6 C 0.6747(6) 0.5656(6) 0.3363(5)
C7 C 0.6234(6) 0.5269(5) 0.2378(5)
C8 C 0.6391(6) 0.4338(5) 0.1663(5)
C9 C 0.7080(5) 0.3851(5) 0.1955(5)
C10 C 0.5888(6) 0.3876(6) 0.0580(5)
C11 C 0.6558(7) 0.4414(7) 0.0003(6)
C12 C 0.7852(7) 0.4360(7) -0.0169(6)
C13 C 0.8840(6) 0.4989(6) 0.0730(5)
C14 C 0.9338(7) 0.6106(6) 0.1171(6)
C15 C 1.0202(7) 0.6635(6) 0.2039(6)
C16 C 1.0574(6) 0.6083(6) 0.2479(5)
C17 C 1.0104(6) 0.4979(5) 0.2038(5)
C18 C 0.9299(6) 0.4485(6) 0.1157(5)
C19 C 0.7962(6) 0.5625(6) 0.4714(5)
C20 C 0.5466(6) 0.5841(6) 0.2176(6)
C21 C 0.9066(8) 0.6790(7) 0.0755(7)
C22 C 1.1510(7) 0.6701(7) 0.3424(6)
H1 H 1.1315(7) 0.4533(6) 0.2629(5)
H2 H 1.0187(7) 0.3561(6) 0.1910(5)
H3 H 1.0268(6) 0.3943(6) 0.3614(6)
H4 H 1.0011(6) 0.5013(6) 0.3840(6)
H5 H 0.8286(6) 0.2987(6) 0.2607(5)
H6 H 0.8262(6) 0.3627(6) 0.3737(5)
H7 H 0.6605(6) 0.6259(6) 0.3848(5)
H8 H 0.7165(5) 0.3216(5) 0.1477(5)
H9 H 0.5046(6) 0.3881(6) 0.0525(5)
H10 H 0.5862(6) 0.3132(6) 0.0256(5)
H11 H 0.6614(7) 0.5165(7) 0.0344(6)
H12 H 0.6048(7) 0.4104(7) -0.0640(6)
H13 H 0.7819(7) 0.3614(7) -0.0460(6)
H14 H 0.8085(7) 0.4613(7) -0.0651(6)
H15 H 1.0540(7) 0.7378(6) 0.2332(6)
H16 H 0.9045(6) 0.3740(6) 0.0822(5)
H17 H 0.8069(6) 0.6387(6) 0.5048(5)
H18 H 0.8760(6) 0.5534(6) 0.4783(5)
H19 H 0.5527(6) 0.5791(6) 0.1524(6)
H20 H 0.5764(6) 0.6593(6) 0.2660(6)
H21 H 0.8764(8) 0.6349(7) 0.0050(7)
H22 H 0.9825(8) 0.7338(7) 0.0840(7)
H23 H 1.2168(7) 0.7237(7) 0.3361(6)
H24 H 1.1864(7) 0.6213(7) 0.3519(6)
Br5 Br 0.1995(1) 0.0945(1) 0.5927(1)
Br6 Br -0.1183(1) 0.0988(1) 0.2583(1)
Br7 Br 0.1361(1) -0.1287(1) -0.0120(1)
Br8 Br 0.4258(1) -0.1678(1) 0.2706(1)
C23 C 0.6130(6) 0.1564(7) 0.3662(6)
C24 C 0.5444(7) 0.1412(6) 0.4460(5)
C25 C 0.4536(7) 0.2017(6) 0.4831(5)
C26 C 0.3331(6) 0.1603(5) 0.4136(5)
C27 C 0.2387(7) 0.0709(5) 0.4004(6)
C28 C 0.1351(6) 0.0340(6) 0.3310(5)
C29 C 0.1217(6) 0.0814(5) 0.2715(5)
C30 C 0.2147(6) 0.1735(5) 0.2850(5)
C31 C 0.3172(6) 0.2109(5) 0.3575(5)
C32 C 0.2083(8) 0.2314(6) 0.2253(6)
C33 C 0.2343(7) 0.1794(6) 0.1184(6)
C34 C 0.3692(7) 0.1878(6) 0.1099(6)
C35 C 0.4187(6) 0.1164(6) 0.1374(6)
C36 C 0.3844(6) 0.0049(6) 0.0784(5)
C37 C 0.4316(7) -0.0529(6) 0.1117(6)
C38 C 0.5058(6) -0.0091(6) 0.2031(6)
C39 C 0.5388(6) 0.1018(6) 0.2632(5)
C40 C 0.4975(6) 0.1603(6) 0.2259(6)
C41 C 0.2423(8) 0.0161(7) 0.4623(6)
C42 C 0.0071(6) 0.0352(6) 0.1985(6)
C43 C 0.3029(7) -0.0513(6) -0.0183(6)
C44 C 0.5494(7) -0.0815(7) 0.2288(6)
H25 H 0.6454(6) 0.2327(7) 0.3869(6)
H26 H 0.6826(6) 0.1303(7) 0.3631(6)
H27 H 0.5005(7) 0.0653(6) 0.4202(5)
H28 H 0.6051(7) 0.1616(6) 0.5025(5)
H29 H 0.4933(7) 0.2759(6) 0.4984(5)
H30 H 0.4353(7) 0.2010(6) 0.5446(5)
H31 H 0.0713(6) -0.0254(6) 0.3237(5)
H32 H 0.3786(6) 0.2735(5) 0.3690(5)
H33 H 0.2667(8) 0.3032(6) 0.2607(6)
H34 H 0.1269(8) 0.2385(6) 0.2221(6)
H35 H 0.1854(7) 0.1041(6) 0.0860(6)
H36 H 0.2070(7) 0.2128(6) 0.0826(6)
H37 H 0.3789(7) 0.1712(6) 0.0421(6)
H38 H 0.4194(7) 0.2616(6) 0.1519(6)
H39 H 0.4128(7) -0.1261(6) 0.0704(6)
H40 H 0.5248(6) 0.2346(6) 0.2632(6)
H41 H 0.3241(8) 0.0113(7) 0.4712(6)
H42 H 0.1848(8) -0.0563(7) 0.4286(6)
H43 H -0.0237(6) -0.0418(6) 0.1744(6)
H44 H 0.0245(6) 0.0484(6) 0.1424(6)
H45 H 0.3375(7) -0.1019(6) -0.0662(6)
H46 H 0.2982(7) 0.0003(6) -0.0409(6)
H47 H 0.6200(7) -0.0390(7) 0.2817(6)
H48 H 0.5764(7) -0.1290(7) 0.1716(6)
loop_
_geom_bond_atom_site_label_1
_geom_bond_atom_site_label_2
_geom_bond_site_symmetry_1
_geom_bond_site_symmetry_2
Br1 C19 1_555 1_555
Br2 C20 1_555 1_555
Br3 C21 1_555 1_555
Br4 C22 1_555 1_555
C1 C2 1_555 1_555
C2 C3 1_555 1_555
C3 C4 1_555 1_555
C4 C5 1_555 1_555
C5 C6 1_555 1_555
C6 C7 1_555 1_555
C7 C8 1_555 1_555
C8 C9 1_555 1_555
C9 C4 1_555 1_555
C10 C8 1_555 1_555
C11 C10 1_555 1_555
C12 C11 1_555 1_555
C13 C12 1_555 1_555
C14 C13 1_555 1_555
C15 C14 1_555 1_555
C16 C15 1_555 1_555
C17 C1 1_555 1_555
C18 C13 1_555 1_555
C19 C5 1_555 1_555
C20 C7 1_555 1_555
C21 C14 1_555 1_555
C22 C16 1_555 1_555
Br5 C41 1_555 1_555
Br6 C42 1_555 1_555
Br7 C43 1_555 1_555
Br8 C44 1_555 1_555
C23 C24 1_555 1_555
C24 C25 1_555 1_555
C25 C26 1_555 1_555
C26 C27 1_555 1_555
C27 C28 1_555 1_555
C28 C29 1_555 1_555
C29 C30 1_555 1_555
C30 C31 1_555 1_555
C31 C26 1_555 1_555
C32 C30 1_555 1_555
C33 C32 1_555 1_555
C34 C33 1_555 1_555
C35 C34 1_555 1_555
C36 C35 1_555 1_555
C37 C36 1_555 1_555
C38 C37 1_555 1_555
C39 C23 1_555 1_555
C40 C35 1_555 1_555
C41 C27 1_555 1_555
C42 C29 1_555 1_555
C43 C36 1_555 1_555
C44 C38 1_555 1_555
H1 C1 1_555 1_555
H2 C1 1_555 1_555
H3 C2 1_555 1_555
H4 C2 1_555 1_555
H5 C3 1_555 1_555
H6 C3 1_555 1_555
H7 C6 1_555 1_555
H8 C9 1_555 1_555
H9 C10 1_555 1_555
H10 C10 1_555 1_555
H11 C11 1_555 1_555
H12 C11 1_555 1_555
H13 C12 1_555 1_555
H14 C12 1_555 1_555
H15 C15 1_555 1_555
H16 C18 1_555 1_555
H17 C19 1_555 1_555
H18 C19 1_555 1_555
H19 C20 1_555 1_555
H20 C20 1_555 1_555
H21 C21 1_555 1_555
H22 C21 1_555 1_555
H23 C22 1_555 1_555
H24 C22 1_555 1_555
H25 C23 1_555 1_555
H26 C23 1_555 1_555
H27 C24 1_555 1_555
H28 C24 1_555 1_555
H29 C25 1_555 1_555
H30 C25 1_555 1_555
H31 C28 1_555 1_555
H32 C31 1_555 1_555
H33 C32 1_555 1_555
H34 C32 1_555 1_555
H35 C33 1_555 1_555
H36 C33 1_555 1_555
H37 C34 1_555 1_555
H38 C34 1_555 1_555
H39 C37 1_555 1_555
H40 C40 1_555 1_555
H41 C41 1_555 1_555
H42 C41 1_555 1_555
H43 C42 1_555 1_555
H44 C42 1_555 1_555
H45 C43 1_555 1_555
H46 C43 1_555 1_555
H47 C44 1_555 1_555
H48 C44 1_555 1_555
C16 C17 1_555 1_555
C17 C18 1_555 1_555
C38 C39 1_555 1_555
C39 C40 1_555 1_555

#END
