
#######################################################################
#
#                 Cambridge Crystallographic Data Centre
#                                CCDC 
#
#######################################################################
#
# If this CIF has been generated from an entry in the Cambridge 
# Structural Database, then it will include bibliographic, chemical, 
# crystal, experimental, refinement or atomic coordinate data resulting 
# from the CCDC's data processing and validation procedures.
#
#######################################################################

data_TITRUL
_chemical_formula_moiety         'C18 H17 Cl1 O4'
_chemical_name_systematic        
2-(2-chlorobenzyl)-2-methyl-4-(2-methyl-5-oxo-2,5-dihydrofuran-2-yl)cyclopentane-1,3-dione
_symmetry_cell_setting           monoclinic
_symmetry_space_group_name_H-M   'P 21'
_symmetry_Int_Tables_number      4
_space_group_name_Hall           'P 2yb'
loop_
_symmetry_equiv_pos_site_id
_symmetry_equiv_pos_as_xyz
1 x,y,z
2 -x,1/2+y,-z
_cell_length_a                   6.6348(9)
_cell_length_b                   11.6431(15)
_cell_length_c                   10.7797(14)
_cell_angle_alpha                90
_cell_angle_beta                 99.155(8)
_cell_angle_gamma                90
_cell_volume                     822.12
_exptl_crystal_colour            colorless
_exptl_crystal_description       needle
_cell_formula_units_Z            2
loop_
_atom_site_label
_atom_site_type_symbol
_atom_site_fract_x
_atom_site_fract_y
_atom_site_fract_z
Cl1 Cl -0.51631(9) -0.68792(6) -0.40046(5)
O1 O -0.3729(3) -0.93074(14) 0.22371(18)
O2 O -0.5691(2) -0.77873(11) 0.16510(13)
O3 O -0.9596(2) -0.60277(15) -0.01327(19)
O4 O -0.4917(2) -0.85370(11) -0.14840(14)
C1 C -0.3905(4) -0.8284(2) 0.2173(2)
C2 C -0.5481(3) -0.65412(15) 0.16857(18)
C3 C -0.5904(3) -0.61167(15) 0.03160(17)
H1 H -0.5777 -0.5279 0.0297
C4 C -0.8034(3) -0.64721(14) -0.03228(19)
C5 C -0.7932(3) -0.74628(14) -0.12262(18)
C6 C -0.8843(3) -0.70211(16) -0.25678(19)
H2 H -1.0265 -0.6822 -0.2577
H3 H -0.8129 -0.6326 -0.2737
C7 C -0.8714(3) -0.78665(18) -0.36029(19)
C8 C -1.0266(4) -0.8677(2) -0.3938(2)
H4 H -1.1388 -0.8673 -0.3519
C9 C -1.0187(5) -0.9474(2) -0.4861(3)
H5 H -1.1247 -0.9997 -0.5066
C10 C -0.8550(6) -0.9499(3) -0.5481(3)
H6 H -0.8484 -1.0052 -0.6096
C11 C -0.6995(5) -0.8714(2) -0.5203(2)
H7 H -0.5884 -0.8727 -0.5631
C12 C -0.7107(3) -0.79025(18) -0.4276(2)
C13 C -0.5659(3) -0.76765(14) -0.11267(16)
C14 C -0.4509(3) -0.66601(17) -0.05262(18)
H8 H -0.4223 -0.6118 -0.1160
H9 H -0.3227 -0.6899 -0.0032
C15 C -0.9070(3) -0.85125(16) -0.0843(2)
H10 H -0.8549 -0.8709 0.0013
H11 H -0.8876 -0.9147 -0.1380
H12 H -1.0499 -0.8341 -0.0920
C16 C -0.3340(4) -0.63881(19) 0.2303(2)
H13 H -0.2704 -0.5680 0.2463
C17 C -0.2467(4) -0.7371(2) 0.2592(3)
H14 H -0.1135 -0.7473 0.3001
C18 C -0.6975(4) -0.6046(2) 0.2477(2)
H15 H -0.6712 -0.6372 0.3305
H16 H -0.8345 -0.6227 0.2094
H17 H -0.6812 -0.5228 0.2531
loop_
_geom_bond_atom_site_label_1
_geom_bond_atom_site_label_2
_geom_bond_site_symmetry_1
_geom_bond_site_symmetry_2
Cl1 C12 1_555 1_555
O1 C1 1_555 1_555
O2 C1 1_555 1_555
O3 C4 1_555 1_555
O4 C13 1_555 1_555
C1 C17 1_555 1_555
C2 O2 1_555 1_555
C3 C2 1_555 1_555
H1 C3 1_555 1_555
C4 C3 1_555 1_555
C5 C4 1_555 1_555
C6 C5 1_555 1_555
H2 C6 1_555 1_555
H3 C6 1_555 1_555
C7 C6 1_555 1_555
C8 C7 1_555 1_555
H4 C8 1_555 1_555
C9 C8 1_555 1_555
H5 C9 1_555 1_555
C10 C9 1_555 1_555
H6 C10 1_555 1_555
C11 C10 1_555 1_555
H7 C11 1_555 1_555
C12 C7 1_555 1_555
C13 C5 1_555 1_555
C14 C3 1_555 1_555
H8 C14 1_555 1_555
H9 C14 1_555 1_555
C15 C5 1_555 1_555
H10 C15 1_555 1_555
H11 C15 1_555 1_555
H12 C15 1_555 1_555
C16 C2 1_555 1_555
H13 C16 1_555 1_555
C17 C16 1_555 1_555
H14 C17 1_555 1_555
C18 C2 1_555 1_555
H15 C18 1_555 1_555
H16 C18 1_555 1_555
H17 C18 1_555 1_555
C11 C12 1_555 1_555
C13 C14 1_555 1_555

#END
