
#######################################################################
#
#                 Cambridge Crystallographic Data Centre
#                                CCDC 
#
#######################################################################
#
# If this CIF has been generated from an entry in the Cambridge 
# Structural Database, then it will include bibliographic, chemical, 
# crystal, experimental, refinement or atomic coordinate data resulting 
# from the CCDC's data processing and validation procedures.
#
#######################################################################

data_TITSEW
_chemical_formula_moiety         'C18 H15 Cl1 O4'
_chemical_name_systematic        
2-(4-chlorobenzyl)-2-methyl-4-(2-methyl-5-oxo-2,5-dihydrofuran-2-yl)cyclopent-4-ene-1,3-dione
_symmetry_cell_setting           orthorhombic
_symmetry_space_group_name_H-M   'P 21 21 21'
_symmetry_Int_Tables_number      19
_space_group_name_Hall           'P 2ac 2ab'
loop_
_symmetry_equiv_pos_site_id
_symmetry_equiv_pos_as_xyz
1 x,y,z
2 1/2-x,-y,1/2+z
3 1/2+x,1/2-y,-z
4 -x,1/2+y,1/2-z
_cell_length_a                   6.465(5)
_cell_length_b                   16.927(5)
_cell_length_c                   29.143(5)
_cell_angle_alpha                90
_cell_angle_beta                 90
_cell_angle_gamma                90
_cell_volume                     3189.21
_exptl_crystal_colour            colorless
_exptl_crystal_description       block
_cell_formula_units_Z            8
loop_
_atom_site_label
_atom_site_type_symbol
_atom_site_fract_x
_atom_site_fract_y
_atom_site_fract_z
C1 C 0.5815(4) 0.65297(16) 0.54443(9)
C2 C 0.6468(4) 0.67467(15) 0.50085(9)
H1 H 0.7825 0.6947 0.4963
C3 C 0.5138(4) 0.66702(14) 0.46430(9)
H2 H 0.5590 0.6819 0.4345
C4 C 0.3126(4) 0.63770(14) 0.47014(8)
C5 C 0.2495(4) 0.61943(15) 0.51455(9)
H3 H 0.1121 0.6015 0.5195
C6 C 0.3808(4) 0.62664(15) 0.55159(9)
H4 H 0.3345 0.6138 0.5816
C7 C 0.1787(4) 0.62015(15) 0.42911(8)
H5 H 0.2075 0.6596 0.4049
H6 H 0.0316 0.6256 0.4380
C8 C 0.2143(4) 0.53601(14) 0.40925(8)
C9 C 0.0804(4) 0.52097(17) 0.36695(9)
H7 H 0.1198 0.5578 0.3425
H8 H -0.0655 0.5289 0.3748
H9 H 0.1010 0.4666 0.3564
C10 C 0.4437(4) 0.52492(15) 0.39940(8)
C11 C 0.5344(4) 0.47393(15) 0.43500(8)
H10 H 0.6782 0.4640 0.4386
C12 C 0.3862(4) 0.44355(14) 0.46160(8)
C13 C 0.1809(4) 0.47578(15) 0.44722(8)
C14 C 0.4083(4) 0.38550(15) 0.50046(8)
C15 C 0.2954(4) 0.30895(15) 0.48965(9)
H11 H 0.3432 0.2884 0.4601
H12 H 0.1463 0.3190 0.4882
H13 H 0.3239 0.2701 0.5138
C16 C 0.3485(4) 0.42009(15) 0.54618(8)
H14 H 0.2138 0.4380 0.5540
C17 C 0.5100(4) 0.42196(15) 0.57382(9)
H15 H 0.5102 0.4408 0.6045
C18 C 0.6893(4) 0.38998(15) 0.54912(8)
O1 O 0.0156(3) 0.45771(12) 0.46386(6)
O2 O 0.5360(3) 0.55397(11) 0.36693(6)
O3 O 0.6279(3) 0.36904(10) 0.50598(5)
O4 O 0.8648(3) 0.37936(12) 0.56180(6)
Cl1 Cl 0.75396(11) 0.65767(4) 0.59021(2)
C19 C 0.8214(4) 0.23445(16) 0.81257(9)
C20 C 0.7487(5) 0.17723(15) 0.78322(9)
H16 H 0.6174 0.1536 0.7883
C21 C 0.8690(4) 0.15446(16) 0.74625(9)
H17 H 0.8183 0.1155 0.7257
C22 C 1.0626(4) 0.18760(16) 0.73866(9)
C23 C 1.1365(4) 0.24188(16) 0.77044(9)
H18 H 1.2719 0.2627 0.7667
C24 C 1.0173(4) 0.26653(17) 0.80762(9)
H19 H 1.0687 0.3042 0.8289
C25 C 1.1791(4) 0.17123(15) 0.69466(9)
H20 H 1.1498 0.1166 0.6845
H21 H 1.3295 0.1755 0.7005
C26 C 1.1175(4) 0.22965(16) 0.65610(9)
C27 C 1.2386(5) 0.21332(17) 0.61193(9)
H22 H 1.2079 0.1598 0.6011
H23 H 1.3872 0.2181 0.6180
H24 H 1.1983 0.2516 0.5884
C28 C 0.8843(4) 0.22730(16) 0.64800(8)
C29 C 0.7951(4) 0.30402(15) 0.66131(8)
H25 H 0.6515 0.3159 0.6610
C30 C 0.9432(4) 0.35466(16) 0.67395(8)
C31 C 1.1481(4) 0.31485(16) 0.67158(8)
C32 C 0.9200(4) 0.43873(15) 0.68947(9)
C33 C 1.0376(5) 0.49676(16) 0.65917(9)
H26 H 0.9949 0.4898 0.6272
H27 H 1.1865 0.4869 0.6619
H28 H 1.0071 0.5509 0.6690
C34 C 0.9717(4) 0.44558(15) 0.73957(9)
H29 H 1.1051 0.4369 0.7523
C35 C 0.8071(4) 0.46513(15) 0.76337(9)
H30 H 0.8011 0.4705 0.7958
C36 C 0.6338(4) 0.47725(15) 0.73158(9)
O5 O 0.7903(3) 0.17079(10) 0.63266(6)
O6 O 1.3128(3) 0.34534(12) 0.68070(6)
O7 O 0.7020(3) 0.45968(10) 0.68793(6)
O8 O 0.4604(3) 0.49931(12) 0.73841(7)
Cl2 Cl 0.66479(12) 0.26823(5) 0.85711(2)
loop_
_geom_bond_atom_site_label_1
_geom_bond_atom_site_label_2
_geom_bond_site_symmetry_1
_geom_bond_site_symmetry_2
C1 C2 1_555 1_555
C2 H1 1_555 1_555
C3 C2 1_555 1_555
H2 C3 1_555 1_555
C4 C3 1_555 1_555
C5 C4 1_555 1_555
H3 C5 1_555 1_555
C6 C1 1_555 1_555
H4 C6 1_555 1_555
C7 C4 1_555 1_555
H5 C7 1_555 1_555
H6 C7 1_555 1_555
C8 C7 1_555 1_555
C9 C8 1_555 1_555
H7 C9 1_555 1_555
H8 C9 1_555 1_555
H9 C9 1_555 1_555
C10 C8 1_555 1_555
C11 C10 1_555 1_555
H10 C11 1_555 1_555
C12 C11 1_555 1_555
C13 C8 1_555 1_555
C14 C12 1_555 1_555
C15 C14 1_555 1_555
H11 C15 1_555 1_555
H12 C15 1_555 1_555
H13 C15 1_555 1_555
C16 C14 1_555 1_555
H14 C16 1_555 1_555
C17 C16 1_555 1_555
H15 C17 1_555 1_555
C18 C17 1_555 1_555
O1 C13 1_555 1_555
O2 C10 1_555 1_555
O3 C14 1_555 1_555
O4 C18 1_555 1_555
Cl1 C1 1_555 1_555
C19 C20 1_555 1_555
C20 H16 1_555 1_555
C21 C20 1_555 1_555
H17 C21 1_555 1_555
C22 C21 1_555 1_555
C23 C22 1_555 1_555
H18 C23 1_555 1_555
C24 C19 1_555 1_555
H19 C24 1_555 1_555
C25 C22 1_555 1_555
H20 C25 1_555 1_555
H21 C25 1_555 1_555
C26 C25 1_555 1_555
C27 C26 1_555 1_555
H22 C27 1_555 1_555
H23 C27 1_555 1_555
H24 C27 1_555 1_555
C28 C26 1_555 1_555
C29 C28 1_555 1_555
H25 C29 1_555 1_555
C30 C29 1_555 1_555
C31 C26 1_555 1_555
C32 C30 1_555 1_555
C33 C32 1_555 1_555
H26 C33 1_555 1_555
H27 C33 1_555 1_555
H28 C33 1_555 1_555
C34 C32 1_555 1_555
H29 C34 1_555 1_555
C35 C34 1_555 1_555
H30 C35 1_555 1_555
C36 C35 1_555 1_555
O5 C28 1_555 1_555
O6 C31 1_555 1_555
O7 C32 1_555 1_555
O8 C36 1_555 1_555
Cl2 C19 1_555 1_555
C5 C6 1_555 1_555
C12 C13 1_555 1_555
C18 O3 1_555 1_555
C23 C24 1_555 1_555
C30 C31 1_555 1_555
C36 O7 1_555 1_555

#END
