
#######################################################################
#
#                 Cambridge Crystallographic Data Centre
#                                CCDC 
#
#######################################################################
#
# If this CIF has been generated from an entry in the Cambridge 
# Structural Database, then it will include bibliographic, chemical, 
# crystal, experimental, refinement or atomic coordinate data resulting 
# from the CCDC's data processing and validation procedures.
#
#######################################################################

data_TITSIA
_chemical_formula_moiety         'C6 H16 N1 1+,C1 F3 O3 S1 1-'
_chemical_name_systematic        
'bis(isopropyl)ammonium trifluoromethanesulfonate'
_symmetry_cell_setting           tetragonal
_symmetry_space_group_name_H-M   'P 4/n m m'
_symmetry_Int_Tables_number      129
_space_group_name_Hall           '-P 4a 2a'
loop_
_symmetry_equiv_pos_site_id
_symmetry_equiv_pos_as_xyz
1 x,y,z
2 1/2-y,x,z
3 1/2-x,1/2-y,z
4 y,1/2-x,z
5 1/2+x,-y,-z
6 -x,1/2+y,-z
7 1/2+y,1/2+x,-z
8 -y,-x,-z
9 -x,-y,-z
10 1/2+y,-x,-z
11 1/2+x,1/2+y,-z
12 -y,1/2+x,-z
13 1/2-x,y,z
14 x,1/2-y,z
15 1/2-y,1/2-x,z
16 y,x,z
_cell_length_a                   8.9683(8)
_cell_length_b                   8.9683(8)
_cell_length_c                   8.2107(10)
_cell_angle_alpha                90
_cell_angle_beta                 90
_cell_angle_gamma                90
_cell_volume                     660.39
_cell_formula_units_Z            2
loop_
_atom_site_label
_atom_site_type_symbol
_atom_site_fract_x
_atom_site_fract_y
_atom_site_fract_z
S1 S 0.2500 0.2500 0.3438(3)
C1 C 0.2500 0.2500 0.1343(17)
F1 F 0.1546(5) 0.3454(5) 0.0732(8)
O1 O 0.1744(11) 0.3848(14) 0.3826(11)
F1A F 0.1546(5) 0.1546(5) 0.0732(8)
O1A O 0.1152(14) 0.1744(11) 0.3826(11)
F1B F 0.3454(5) 0.1546(5) 0.0732(8)
O1B O 0.3256(11) 0.1152(14) 0.3826(11)
F1C F 0.3454(5) 0.3454(5) 0.0732(8)
O1C O 0.3848(14) 0.3256(11) 0.3826(11)
O1L O 0.3256(11) 0.3848(14) 0.3826(11)
O1M O 0.1744(11) 0.1152(14) 0.3826(11)
O1N O 0.1152(14) 0.3256(11) 0.3826(11)
O1O O 0.3848(14) 0.1744(11) 0.3826(11)
C2 C 0.2500 0.6105(9) 0.7441(9)
C3 C 0.2500 0.7500 0.6470(11)
H1 H 0.1191 0.6994 0.4960
N1 N 0.1888(8) 0.6888(8) 0.5000
H2 H 0.3493 0.5945 0.7907
H3 H 0.2241 0.5262 0.6736
H4 H 0.1766 0.6186 0.8321
H5 H 0.1544 0.7500 0.6117
C2B C 0.2500 0.8895(9) 0.7441(9)
H1B H 0.3809 0.8006 0.4960
N1B N 0.3112(8) 0.8112(8) 0.5000
H2B H 0.1507 0.9055 0.7907
H3B H 0.2759 0.9738 0.6736
H4B H 0.3234 0.8814 0.8321
H5B H 0.3456 0.7500 0.6117
C2F C 0.1105(9) 0.7500 0.2559(9)
C3F C 0.2500 0.7500 0.3530(11)
H1F H 0.1994 0.6191 0.5040
H2F H 0.0945 0.8493 0.2093
H3F H 0.0262 0.7241 0.3264
H4F H 0.1186 0.6766 0.1679
H5F H 0.2500 0.6544 0.3883
C2G C 0.3895(9) 0.7500 0.2559(9)
H1G H 0.3006 0.8809 0.5040
H2G H 0.4055 0.6507 0.2093
H3G H 0.4738 0.7759 0.3264
H4G H 0.3814 0.8234 0.1679
H5G H 0.2500 0.8456 0.3883
H1I H 0.1994 0.8809 0.5040
N1I N 0.1888(8) 0.8112(8) 0.5000
H2I H 0.0945 0.6507 0.2093
H3I H 0.0262 0.7759 0.3264
H4I H 0.1186 0.8234 0.1679
H1K H 0.3006 0.6191 0.5040
N1K N 0.3112(8) 0.6888(8) 0.5000
H2K H 0.4055 0.8493 0.2093
H3K H 0.4738 0.7241 0.3264
H4K H 0.3814 0.6766 0.1679
H1L H 0.3809 0.6994 0.4960
H2L H 0.1507 0.5945 0.7907
H3L H 0.2759 0.5262 0.6736
H4L H 0.3234 0.6186 0.8321
H1M H 0.1191 0.8006 0.4960
H2M H 0.3493 0.9055 0.7907
H3M H 0.2241 0.9738 0.6736
H4M H 0.1766 0.8814 0.8321
loop_
_geom_bond_atom_site_label_1
_geom_bond_atom_site_label_2
_geom_bond_site_symmetry_1
_geom_bond_site_symmetry_2
S1 C1 1_555 1_555
C1 F1 1_555 1_555
O1 S1 1_555 1_555
C2 C3 1_555 1_555
C3 N1 1_555 1_555
H1 N1 1_555 1_555
N1 H5 1_555 1_555
H2 C2 1_555 1_555
H3 C2 1_555 1_555
H4 C2 1_555 1_555
H5 C3 1_555 1_555
F1A C1 1_555 1_555
O1A S1 1_555 1_555
F1B C1 1_555 1_555
O1B S1 1_555 1_555
F1C C1 1_555 1_555
O1C S1 1_555 1_555
O1L S1 1_555 1_555
O1M S1 1_555 1_555
O1N S1 1_555 1_555
O1O S1 1_555 1_555
C2B C3 1_555 1_555
H1B N1B 1_555 1_555
N1B C3 1_555 1_555
H2B C2B 1_555 1_555
H3B C2B 1_555 1_555
H4B C2B 1_555 1_555
H5B C3 1_555 1_555
C2F C3F 1_555 1_555
C3F N1 1_555 1_555
H1F N1 1_555 1_555
H2F C2F 1_555 1_555
H3F C2F 1_555 1_555
H4F C2F 1_555 1_555
H5F N1 1_555 1_555
C2G C3F 1_555 1_555
H1G N1B 1_555 1_555
H2G C2G 1_555 1_555
H3G C2G 1_555 1_555
H4G C2G 1_555 1_555
H5G N1B 1_555 1_555
H1I N1B 1_555 1_555
N1I C3 1_555 1_555
H2I C2F 1_555 1_555
H3I C2F 1_555 1_555
H4I C2F 1_555 1_555
H1K N1 1_555 1_555
N1K C3 1_555 1_555
H2K C2G 1_555 1_555
H3K C2G 1_555 1_555
H4K C2G 1_555 1_555
H1L N1B 1_555 1_555
H2L C2 1_555 1_555
H3L C2 1_555 1_555
H4L C2 1_555 1_555
H1M N1 1_555 1_555
H2M C2B 1_555 1_555
H3M C2B 1_555 1_555
H4M C2B 1_555 1_555
O1 O1L 1_555 1_555
O1 O1N 1_555 1_555
H1 N1I 1_555 1_555
N1 N1B 1_555 1_555
N1 N1I 1_555 1_555
N1 N1K 1_555 1_555
H5 N1I 1_555 1_555
O1A O1M 1_555 1_555
O1A O1N 1_555 1_555
O1B O1M 1_555 1_555
O1B O1O 1_555 1_555
O1C O1L 1_555 1_555
O1C O1O 1_555 1_555
H1B N1K 1_555 1_555
N1B H5B 1_555 1_555
N1B C3F 1_555 1_555
N1B N1I 1_555 1_555
N1B N1K 1_555 1_555
H5B N1K 1_555 1_555
C3F H5F 1_555 1_555
C3F H5G 1_555 1_555
C3F N1I 1_555 1_555
C3F N1K 1_555 1_555
H1F N1K 1_555 1_555
H5F N1K 1_555 1_555
H1G N1I 1_555 1_555
H5G N1I 1_555 1_555
H1I N1I 1_555 1_555
N1I N1K 1_555 1_555
N1I H1M 1_555 1_555
H1K N1K 1_555 1_555
N1K H1L 1_555 1_555

#END
