
#######################################################################
#
#                 Cambridge Crystallographic Data Centre
#                                CCDC 
#
#######################################################################
#
# If this CIF has been generated from an entry in the Cambridge 
# Structural Database, then it will include bibliographic, chemical, 
# crystal, experimental, refinement or atomic coordinate data resulting 
# from the CCDC's data processing and validation procedures.
#
#######################################################################

data_TITSAS
_chemical_formula_moiety         'C17 H18 O2'
_chemical_name_systematic        
2-benzyl-4-(but-2-en-2-yl)-2-methylcyclopent-4-ene-1,3-dione
_symmetry_cell_setting           orthorhombic
_symmetry_space_group_name_H-M   'P 21 21 21'
_symmetry_Int_Tables_number      19
_space_group_name_Hall           'P 2ac 2ab'
loop_
_symmetry_equiv_pos_site_id
_symmetry_equiv_pos_as_xyz
1 x,y,z
2 1/2+x,1/2-y,-z
3 -x,1/2+y,1/2-z
4 1/2-x,-y,1/2+z
_cell_length_a                   6.569(8)
_cell_length_b                   13.286(17)
_cell_length_c                   17.05(2)
_cell_angle_alpha                90
_cell_angle_beta                 90
_cell_angle_gamma                90
_cell_volume                     1488.05
_exptl_crystal_colour            yellow
_exptl_crystal_description       block
_cell_formula_units_Z            4
loop_
_atom_site_label
_atom_site_type_symbol
_atom_site_fract_x
_atom_site_fract_y
_atom_site_fract_z
C1 C 1.2943(5) 2.1054(3) 1.8264(2)
H1 H 1.3669 2.1034 1.7796
O1 O 1.3862(3) 1.92692(19) 1.68085(15)
C2 C 1.2759(9) 2.1513(3) 1.9611(3)
H2 H 1.3324 2.1817 2.0052
C3 C 1.3817(8) 2.1494(3) 1.8914(3)
H3 H 1.5111 2.1775 1.8882
C4 C 1.0977(5) 2.0636(2) 1.82916(18)
C5 C 0.9998(5) 2.0192(2) 1.75720(16)
H4 H 1.0407 2.0590 1.7122
H5 H 0.8534 2.0258 1.7625
C6 C 1.0495(4) 1.9059(2) 1.73927(15)
C7 C 0.9971(4) 1.8358(2) 1.80732(15)
C8 C 1.1851(3) 1.77773(18) 1.83240(13)
C9 C 1.1951(4) 1.69945(18) 1.89372(14)
C10 C 1.0318(5) 1.6797(2) 1.93829(15)
H6 H 0.9162 1.7186 1.9297
C11 C 1.0192(6) 1.6001(3) 2.00106(19)
H7 H 1.0089 1.6318 2.0515
H8 H 1.1393 1.5590 1.9994
H9 H 0.9014 1.5589 1.9922
C12 C 1.0879(10) 2.1084(3) 1.9651(2)
H10 H 1.0186 2.1083 2.0126
C13 C 0.9973(7) 2.0647(3) 1.89980(19)
H11 H 0.8684 2.0362 1.9039
C14 C 1.2775(4) 1.8866(2) 1.72985(16)
C15 C 1.3407(4) 1.8095(2) 1.78662(16)
H12 H 1.4731 1.7852 1.7907
C16 C 1.3958(5) 1.6442(3) 1.9033(2)
H13 H 1.5060 1.6916 1.9011
H14 H 1.4107 1.5958 1.8620
H15 H 1.3976 1.6102 1.9530
O2 O 0.8259(3) 1.82823(18) 1.83450(13)
C17 C 0.9323(5) 1.8717(3) 1.66585(17)
H16 H 0.9628 1.9161 1.6230
H17 H 0.7887 1.8733 1.6764
H18 H 0.9722 1.8044 1.6524
loop_
_geom_bond_atom_site_label_1
_geom_bond_atom_site_label_2
_geom_bond_site_symmetry_1
_geom_bond_site_symmetry_2
C1 H1 1_555 1_555
O1 C14 1_555 1_555
C2 H2 1_555 1_555
C3 C1 1_555 1_555
H3 C3 1_555 1_555
C4 C1 1_555 1_555
C5 C4 1_555 1_555
H4 C5 1_555 1_555
H5 C5 1_555 1_555
C6 C5 1_555 1_555
C7 C6 1_555 1_555
C8 C7 1_555 1_555
C9 C8 1_555 1_555
C10 C9 1_555 1_555
H6 C10 1_555 1_555
C11 C10 1_555 1_555
H7 C11 1_555 1_555
H8 C11 1_555 1_555
H9 C11 1_555 1_555
C12 C2 1_555 1_555
H10 C12 1_555 1_555
C13 C4 1_555 1_555
H11 C13 1_555 1_555
C14 C6 1_555 1_555
C15 C8 1_555 1_555
H12 C15 1_555 1_555
C16 C9 1_555 1_555
H13 C16 1_555 1_555
H14 C16 1_555 1_555
H15 C16 1_555 1_555
O2 C7 1_555 1_555
C17 C6 1_555 1_555
H16 C17 1_555 1_555
H17 C17 1_555 1_555
H18 C17 1_555 1_555
C2 C3 1_555 1_555
C12 C13 1_555 1_555
C14 C15 1_555 1_555

#END
