
#######################################################################
#
#                 Cambridge Crystallographic Data Centre
#                                CCDC 
#
#######################################################################
#
# If this CIF has been generated from an entry in the Cambridge 
# Structural Database, then it will include bibliographic, chemical, 
# crystal, experimental, refinement or atomic coordinate data resulting 
# from the CCDC's data processing and validation procedures.
#
#######################################################################

data_TITTEW
_chemical_formula_moiety         'C12 H11 N3 O1'
_chemical_name_systematic        N-(3-Methylphenyl)pyrazine-2-carboxamide
_symmetry_cell_setting           monoclinic
_symmetry_space_group_name_H-M   'P 21/n'
_symmetry_Int_Tables_number      14
_space_group_name_Hall           '-P 2yn'
loop_
_symmetry_equiv_pos_site_id
_symmetry_equiv_pos_as_xyz
1 x,y,z
2 1/2-x,1/2+y,1/2-z
3 -x,-y,-z
4 1/2+x,1/2-y,1/2+z
_cell_length_a                   10.2736(4)
_cell_length_b                   10.8639(4)
_cell_length_c                   18.5040(5)
_cell_angle_alpha                90
_cell_angle_beta                 90.1970(19)
_cell_angle_gamma                90
_cell_volume                     2065.24
_exptl_crystal_colour            colorless
_exptl_crystal_description       lath
_chemical_melting_point          '386-388 K'
_cell_formula_units_Z            8
_exptl_crystal_recrystallization_method ethanol
loop_
_atom_site_label
_atom_site_type_symbol
_atom_site_fract_x
_atom_site_fract_y
_atom_site_fract_z
N1 N 0.68630(14) 0.03517(13) 0.44889(8)
C1 C 0.60803(16) 0.13411(15) 0.44756(9)
C2 C 0.63989(17) 0.24174(16) 0.48358(9)
N2 N 0.75039(15) 0.25435(14) 0.52130(8)
C3 C 0.82793(18) 0.15576(17) 0.52247(10)
C4 C 0.79558(17) 0.04764(17) 0.48726(10)
C5 C 0.48322(17) 0.12929(15) 0.40513(9)
O1 O 0.41583(13) 0.22192(11) 0.39933(7)
N3 N 0.45557(14) 0.01806(13) 0.37594(7)
C6 C 0.34420(16) -0.01176(15) 0.33402(9)
C7 C 0.22540(17) 0.04723(16) 0.34415(9)
C8 C 0.11700(17) 0.01228(16) 0.30384(10)
C9 C -0.01220(18) 0.0739(2) 0.31739(11)
C10 C 0.13012(18) -0.08102(16) 0.25261(10)
C11 C 0.24800(18) -0.13969(16) 0.24276(10)
C12 C 0.35547(17) -0.10611(16) 0.28359(9)
H1 H 0.5811 0.3091 0.4814
H2 H 0.9079 0.1600 0.5483
H3 H 0.8535 -0.0203 0.4905
H4 H 0.5162 -0.0386 0.3807
H5 H 0.2183 0.1115 0.3787
H6 H -0.0804 0.0112 0.3213
H7 H -0.0326 0.1295 0.2772
H8 H -0.0076 0.1211 0.3625
H9 H 0.0571 -0.1045 0.2241
H10 H 0.2554 -0.2034 0.2078
H11 H 0.4363 -0.1472 0.2772
N4 N 0.65064(14) 0.53499(13) 0.45772(8)
C13 C 0.72346(16) 0.63636(15) 0.46236(9)
C14 C 0.69669(17) 0.74038(16) 0.42131(10)
N5 N 0.59396(15) 0.74692(14) 0.37704(8)
C15 C 0.52033(18) 0.64533(17) 0.37308(10)
C16 C 0.54946(17) 0.53986(16) 0.41202(9)
C17 C 0.83558(16) 0.64020(16) 0.51486(9)
O2 O 0.89671(12) 0.73659(11) 0.52285(7)
N6 N 0.85835(14) 0.53389(13) 0.55062(7)
C18 C 0.95313(17) 0.51124(16) 0.60467(9)
C19 C 1.05332(16) 0.59302(16) 0.62107(9)
C20 C 1.14199(16) 0.56709(16) 0.67612(9)
C21 C 1.24590(18) 0.65918(18) 0.69581(10)
C22 C 1.13155(17) 0.45661(17) 0.71340(10)
C23 C 1.03274(18) 0.37433(17) 0.69662(10)
C24 C 0.94310(17) 0.40089(16) 0.64321(10)
H12 H 0.7534 0.8092 0.4248
H13 H 0.4457 0.6456 0.3426
H14 H 0.4962 0.4691 0.4061
H15 H 0.8087 0.4712 0.5384
H16 H 1.0613 0.6674 0.5944
H17 H 1.2431 0.6753 0.7479
H18 H 1.2307 0.7361 0.6694
H19 H 1.3315 0.6261 0.6830
H20 H 1.1923 0.4373 0.7505
H21 H 1.0267 0.2988 0.7222
H22 H 0.8749 0.3446 0.6326
loop_
_geom_bond_atom_site_label_1
_geom_bond_atom_site_label_2
_geom_bond_site_symmetry_1
_geom_bond_site_symmetry_2
N1 C1 1_555 1_555
C1 C2 1_555 1_555
C2 N2 1_555 1_555
N2 C3 1_555 1_555
C3 C4 1_555 1_555
C4 N1 1_555 1_555
C5 C1 1_555 1_555
O1 C5 1_555 1_555
N3 C5 1_555 1_555
C6 N3 1_555 1_555
C7 C6 1_555 1_555
C8 C7 1_555 1_555
C9 C8 1_555 1_555
C10 C8 1_555 1_555
C11 C10 1_555 1_555
C12 C6 1_555 1_555
N4 C13 1_555 1_555
C13 C14 1_555 1_555
C14 N5 1_555 1_555
N5 C15 1_555 1_555
C15 C16 1_555 1_555
C16 N4 1_555 1_555
C17 C13 1_555 1_555
O2 C17 1_555 1_555
N6 C17 1_555 1_555
C18 N6 1_555 1_555
C19 C18 1_555 1_555
C20 C19 1_555 1_555
C21 C20 1_555 1_555
C22 C20 1_555 1_555
C23 C22 1_555 1_555
C24 C18 1_555 1_555
H1 C2 1_555 1_555
H2 C3 1_555 1_555
H3 C4 1_555 1_555
H4 N3 1_555 1_555
H5 C7 1_555 1_555
H6 C9 1_555 1_555
H7 C9 1_555 1_555
H8 C9 1_555 1_555
H9 C10 1_555 1_555
H10 C11 1_555 1_555
H11 C12 1_555 1_555
H12 C14 1_555 1_555
H13 C15 1_555 1_555
H14 C16 1_555 1_555
H15 N6 1_555 1_555
H16 C19 1_555 1_555
H17 C21 1_555 1_555
H18 C21 1_555 1_555
H19 C21 1_555 1_555
H20 C22 1_555 1_555
H21 C23 1_555 1_555
H22 C24 1_555 1_555
C11 C12 1_555 1_555
C23 C24 1_555 1_555

#END
