
#######################################################################
#
#                 Cambridge Crystallographic Data Centre
#                                CCDC 
#
#######################################################################
#
# If this CIF has been generated from an entry in the Cambridge 
# Structural Database, then it will include bibliographic, chemical, 
# crystal, experimental, refinement or atomic coordinate data resulting 
# from the CCDC's data processing and validation procedures.
#
#######################################################################

data_TITTUM
_chemical_formula_moiety         'C12 H8 F3 N3 O1'
_chemical_name_systematic        
N-(4-Trifluoromethylphenyl)pyrazine-2-carboxamide
_symmetry_cell_setting           triclinic
_symmetry_space_group_name_H-M   'P -1'
_symmetry_Int_Tables_number      2
_space_group_name_Hall           '-P 1'
loop_
_symmetry_equiv_pos_site_id
_symmetry_equiv_pos_as_xyz
1 x,y,z
2 -x,-y,-z
_cell_length_a                   5.8885(6)
_cell_length_b                   7.5257(9)
_cell_length_c                   13.2762(16)
_cell_angle_alpha                78.349(7)
_cell_angle_beta                 86.460(8)
_cell_angle_gamma                70.146(8)
_cell_volume                     541.949
_exptl_crystal_colour            colorless
_exptl_crystal_description       plate
_chemical_melting_point          '414-416 K'
_cell_formula_units_Z            2
_exptl_crystal_recrystallization_method ethanol
loop_
_atom_site_label
_atom_site_type_symbol
_atom_site_fract_x
_atom_site_fract_y
_atom_site_fract_z
N1 N 0.4642(3) 0.0776(2) 0.67664(12)
C1 C 0.6716(3) 0.0956(3) 0.63740(14)
C2 C 0.8860(3) 0.0147(3) 0.69233(15)
N2 N 0.8998(3) -0.0863(2) 0.78857(12)
C3 C 0.6928(3) -0.1037(3) 0.82780(15)
C4 C 0.4765(4) -0.0230(3) 0.77258(15)
C5 C 0.6718(3) 0.2071(3) 0.53023(15)
O1 O 0.8569(2) 0.2324(2) 0.49320(10)
N3 N 0.4543(3) 0.2760(2) 0.48069(12)
C6 C 0.3975(3) 0.3849(3) 0.38014(14)
C7 C 0.5729(3) 0.4053(3) 0.30741(15)
C8 C 0.5035(3) 0.5075(3) 0.20846(15)
C9 C 0.2613(3) 0.5896(3) 0.18149(14)
C10 C 0.1909(3) 0.6885(3) 0.07300(15)
F1 F -0.0373(2) 0.80723(19) 0.06405(9)
F2 F 0.3306(2) 0.79080(18) 0.03048(9)
F3 F 0.2095(2) 0.56168(19) 0.01173(9)
C11 C 0.0874(3) 0.5709(3) 0.25408(15)
C12 C 0.1548(4) 0.4684(3) 0.35307(15)
H1 H 1.0286 0.0312 0.6608
H2 H 0.6928 -0.1738 0.8959
H3 H 0.3339 -0.0398 0.8040
H4 H 0.3343 0.2492 0.5157
H5 H 0.7393 0.3495 0.3255
H6 H 0.6230 0.5211 0.1589
H7 H -0.0789 0.6286 0.2360
H8 H 0.0347 0.4554 0.4024
loop_
_geom_bond_atom_site_label_1
_geom_bond_atom_site_label_2
_geom_bond_site_symmetry_1
_geom_bond_site_symmetry_2
N1 C1 1_555 1_555
C1 C2 1_555 1_555
C2 N2 1_555 1_555
N2 C3 1_555 1_555
C3 C4 1_555 1_555
C4 N1 1_555 1_555
C5 C1 1_555 1_555
O1 C5 1_555 1_555
N3 C5 1_555 1_555
C6 N3 1_555 1_555
C7 C6 1_555 1_555
C8 C7 1_555 1_555
C9 C8 1_555 1_555
C10 C9 1_555 1_555
F1 C10 1_555 1_555
F2 C10 1_555 1_555
F3 C10 1_555 1_555
C11 C9 1_555 1_555
C12 C6 1_555 1_555
H1 C2 1_555 1_555
H2 C3 1_555 1_555
H3 C4 1_555 1_555
H4 N3 1_555 1_555
H5 C7 1_555 1_555
H6 C8 1_555 1_555
H7 C11 1_555 1_555
H8 C12 1_555 1_555
C11 C12 1_555 1_555

#END
