
#######################################################################
#
#                 Cambridge Crystallographic Data Centre
#                                CCDC 
#
#######################################################################
#
# If this CIF has been generated from an entry in the Cambridge 
# Structural Database, then it will include bibliographic, chemical, 
# crystal, experimental, refinement or atomic coordinate data resulting 
# from the CCDC's data processing and validation procedures.
#
#######################################################################

data_TITTOG
_chemical_formula_moiety         'C12 H8 F3 N3 O1'
_chemical_name_systematic        
N-(2-Trifluoromethylphenyl)pyrazine-2-carboxamide
_symmetry_cell_setting           triclinic
_symmetry_space_group_name_H-M   'P -1'
_symmetry_Int_Tables_number      2
_space_group_name_Hall           '-P 1'
loop_
_symmetry_equiv_pos_site_id
_symmetry_equiv_pos_as_xyz
1 x,y,z
2 -x,-y,-z
_cell_length_a                   7.6748(3)
_cell_length_b                   7.8967(3)
_cell_length_c                   9.8421(5)
_cell_angle_alpha                96.682(2)
_cell_angle_beta                 103.357(3)
_cell_angle_gamma                101.659(2)
_cell_volume                     559.995
_exptl_crystal_colour            colorless
_exptl_crystal_description       plate
_chemical_melting_point          '399-401 K'
_cell_formula_units_Z            2
_exptl_crystal_recrystallization_method ethanol
loop_
_atom_site_label
_atom_site_type_symbol
_atom_site_fract_x
_atom_site_fract_y
_atom_site_fract_z
N1 N 0.34737(18) 0.79967(17) 0.59128(15)
C1 C 0.2689(2) 0.6787(2) 0.65814(17)
C2 C 0.2443(2) 0.7214(2) 0.79182(18)
N2 N 0.2970(2) 0.88637(19) 0.86311(15)
C3 C 0.3737(2) 1.0065(2) 0.79589(19)
C4 C 0.3993(2) 0.9642(2) 0.66203(18)
C5 C 0.2068(2) 0.4908(2) 0.58368(17)
O1 O 0.12952(19) 0.37674(16) 0.63717(14)
N3 N 0.24636(19) 0.46685(17) 0.45599(14)
C6 C 0.2126(2) 0.3095(2) 0.36122(17)
C7 C 0.2401(2) 0.3143(2) 0.22472(17)
C8 C 0.2910(2) 0.4849(2) 0.17449(18)
F1 F 0.44325(15) 0.59610(13) 0.26314(12)
F2 F 0.15813(15) 0.57363(14) 0.16439(13)
F3 F 0.32610(17) 0.46648(14) 0.04791(12)
C9 C 0.2135(2) 0.1596(2) 0.13159(18)
C10 C 0.1573(2) -0.0021(2) 0.17053(19)
C11 C 0.1266(2) -0.0077(2) 0.30308(19)
C12 C 0.1541(2) 0.1454(2) 0.39789(18)
H1 H 0.1882 0.6308 0.8344
H2 H 0.4121 1.1257 0.8414
H3 H 0.4555 1.0549 0.6196
H4 H 0.3020 0.5730 0.4383
H5 H 0.2339 0.1642 0.0404
H6 H 0.1401 -0.1077 0.1067
H7 H 0.0861 -0.1179 0.3295
H8 H 0.1331 0.1389 0.4888
loop_
_geom_bond_atom_site_label_1
_geom_bond_atom_site_label_2
_geom_bond_site_symmetry_1
_geom_bond_site_symmetry_2
N1 C1 1_555 1_555
C1 C2 1_555 1_555
C2 N2 1_555 1_555
N2 C3 1_555 1_555
C3 C4 1_555 1_555
C4 N1 1_555 1_555
C5 C1 1_555 1_555
O1 C5 1_555 1_555
N3 C5 1_555 1_555
C6 N3 1_555 1_555
C7 C6 1_555 1_555
C8 C7 1_555 1_555
F1 C8 1_555 1_555
F2 C8 1_555 1_555
F3 C8 1_555 1_555
C9 C7 1_555 1_555
C10 C9 1_555 1_555
C11 C10 1_555 1_555
C12 C6 1_555 1_555
H1 C2 1_555 1_555
H2 C3 1_555 1_555
H3 C4 1_555 1_555
H4 N3 1_555 1_555
H5 C9 1_555 1_555
H6 C10 1_555 1_555
H7 C11 1_555 1_555
H8 C12 1_555 1_555
C11 C12 1_555 1_555

#END
