
#######################################################################
#
#                 Cambridge Crystallographic Data Centre
#                                CCDC 
#
#######################################################################
#
# If this CIF has been generated from an entry in the Cambridge 
# Structural Database, then it will include bibliographic, chemical, 
# crystal, experimental, refinement or atomic coordinate data resulting 
# from the CCDC's data processing and validation procedures.
#
#######################################################################

data_TITVOH
_chemical_formula_moiety         'C15 H18 O1 S2'
_chemical_name_systematic        
8-(1,3-Dithian-2-ylidene)pentacyclo(3.3.3.0^2,6^.0^4,9^)undecan-10-one
_symmetry_cell_setting           monoclinic
_symmetry_space_group_name_H-M   'P 21/c'
_symmetry_Int_Tables_number      14
_space_group_name_Hall           '-P 2ybc'
loop_
_symmetry_equiv_pos_site_id
_symmetry_equiv_pos_as_xyz
1 x,y,z
2 -x,1/2+y,1/2-z
3 -x,-y,-z
4 x,1/2-y,1/2+z
_cell_length_a                   6.611(1)
_cell_length_b                   22.193(8)
_cell_length_c                   9.424(2)
_cell_angle_alpha                90
_cell_angle_beta                 101.33(1)
_cell_angle_gamma                90
_cell_volume                     1355.72
_exptl_crystal_colour            colorless
_cell_formula_units_Z            4
loop_
_atom_site_label
_atom_site_type_symbol
_atom_site_fract_x
_atom_site_fract_y
_atom_site_fract_z
C1 C 0.1330(3) 0.6217(1) 1.0441(2)
C2 C 0.2412(4) 0.6821(1) 1.0509(2)
C3 C 0.0854(3) 0.7093(1) 0.9286(2)
C4 C -0.1257(3) 0.6995(1) 0.9688(2)
C5 C -0.2745(3) 0.7009(1) 0.8233(2)
C6 C -0.1550(2) 0.6697(1) 0.7233(2)
C7 C 0.0655(3) 0.6641(1) 0.8026(2)
C8 C 0.1077(3) 0.6017(1) 0.8857(2)
C9 C -0.0813(3) 0.5626(1) 0.8642(2)
O1 O -0.1182(2) 0.5194(1) 0.7859(1)
C10 C -0.2132(3) 0.5840(1) 0.9685(2)
C11 C -0.0943(3) 0.6368(1) 1.0472(2)
C12 C -0.2309(2) 0.6496(1) 0.5909(2)
S1 S -0.0644(1) 0.6193(1) 0.4845(1)
C13 C -0.2048(3) 0.5538(1) 0.4086(2)
C14 C -0.4214(3) 0.5668(1) 0.3295(2)
C15 C -0.5586(3) 0.5887(1) 0.4282(2)
S2 S -0.4911(1) 0.6615(1) 0.5093(1)
loop_
_geom_bond_atom_site_label_1
_geom_bond_atom_site_label_2
_geom_bond_site_symmetry_1
_geom_bond_site_symmetry_2
C1 C2 1_555 1_555
C2 C3 1_555 1_555
C3 C4 1_555 1_555
C4 C5 1_555 1_555
C5 C6 1_555 1_555
C6 C7 1_555 1_555
C7 C3 1_555 1_555
C8 C1 1_555 1_555
C9 C8 1_555 1_555
O1 C9 1_555 1_555
C10 C9 1_555 1_555
C11 C1 1_555 1_555
C12 C6 1_555 1_555
S1 C12 1_555 1_555
C13 S1 1_555 1_555
C14 C13 1_555 1_555
C15 C14 1_555 1_555
S2 C12 1_555 1_555
C4 C11 1_555 1_555
C7 C8 1_555 1_555
C10 C11 1_555 1_555
C15 S2 1_555 1_555

#END
