
#######################################################################
#
#                 Cambridge Crystallographic Data Centre
#                                CCDC 
#
#######################################################################
#
# If this CIF has been generated from an entry in the Cambridge 
# Structural Database, then it will include bibliographic, chemical, 
# crystal, experimental, refinement or atomic coordinate data resulting 
# from the CCDC's data processing and validation procedures.
#
#######################################################################

data_TITVIC
_chemical_formula_moiety         'C11 H8 Cl1 N3 O1'
_chemical_name_systematic        N-(4-Chlorophenyl)pyrazine-2-carboxamide
_symmetry_cell_setting           triclinic
_symmetry_space_group_name_H-M   'P -1'
_symmetry_Int_Tables_number      2
_space_group_name_Hall           '-P 1'
loop_
_symmetry_equiv_pos_site_id
_symmetry_equiv_pos_as_xyz
1 x,y,z
2 -x,-y,-z
_cell_length_a                   5.8636(3)
_cell_length_b                   7.2433(5)
_cell_length_c                   13.1459(9)
_cell_angle_alpha                100.854(3)
_cell_angle_beta                 97.750(4)
_cell_angle_gamma                110.783(4)
_cell_volume                     500.144
_exptl_crystal_colour            colorless
_exptl_crystal_description       lath
_chemical_melting_point          '455-457 K'
_cell_formula_units_Z            2
_exptl_crystal_recrystallization_method ethanol
loop_
_atom_site_label
_atom_site_type_symbol
_atom_site_fract_x
_atom_site_fract_y
_atom_site_fract_z
N1 N 0.2103(3) -0.0323(2) 0.23472(12)
C1 C 0.4562(3) 0.0284(3) 0.26868(14)
C2 C 0.6058(4) -0.0164(3) 0.20246(15)
N2 N 0.5139(3) -0.1211(2) 0.10086(12)
C3 C 0.2681(4) -0.1807(3) 0.06706(15)
C4 C 0.1172(4) -0.1373(3) 0.13307(15)
C5 C 0.5768(3) 0.1475(3) 0.38171(14)
O1 O 0.8023(3) 0.2029(2) 0.41436(10)
N3 N 0.4168(3) 0.1842(2) 0.44006(12)
C6 C 0.4719(4) 0.2914(3) 0.54754(14)
C7 C 0.7132(4) 0.4095(3) 0.60639(15)
C8 C 0.7504(4) 0.5134(3) 0.71184(15)
C9 C 0.5475(4) 0.4983(3) 0.75752(14)
Cl1 Cl 0.59225(10) 0.62828(8) 0.88903(4)
C10 C 0.3069(4) 0.3822(3) 0.69922(14)
C11 C 0.2694(4) 0.2794(3) 0.59435(14)
H1 H 0.7801 0.0293 0.2306
H2 H 0.1932 -0.2556 -0.0047
H3 H -0.0573 -0.1837 0.1051
H4 H 0.2617 0.1334 0.4032
H5 H 0.8523 0.4195 0.5749
H6 H 0.9152 0.5946 0.7523
H7 H 0.1681 0.3729 0.7308
H8 H 0.1041 0.2000 0.5540
loop_
_geom_bond_atom_site_label_1
_geom_bond_atom_site_label_2
_geom_bond_site_symmetry_1
_geom_bond_site_symmetry_2
N1 C1 1_555 1_555
C1 C2 1_555 1_555
C2 N2 1_555 1_555
N2 C3 1_555 1_555
C3 C4 1_555 1_555
C4 N1 1_555 1_555
C5 C1 1_555 1_555
O1 C5 1_555 1_555
N3 C5 1_555 1_555
C6 N3 1_555 1_555
C7 C6 1_555 1_555
C8 C7 1_555 1_555
C9 C8 1_555 1_555
Cl1 C9 1_555 1_555
C10 C9 1_555 1_555
C11 C6 1_555 1_555
H1 C2 1_555 1_555
H2 C3 1_555 1_555
H3 C4 1_555 1_555
H4 N3 1_555 1_555
H5 C7 1_555 1_555
H6 C8 1_555 1_555
H7 C10 1_555 1_555
H8 C11 1_555 1_555
C10 C11 1_555 1_555

#END
