
#######################################################################
#
#                 Cambridge Crystallographic Data Centre
#                                CCDC 
#
#######################################################################
#
# If this CIF has been generated from an entry in the Cambridge 
# Structural Database, then it will include bibliographic, chemical, 
# crystal, experimental, refinement or atomic coordinate data resulting 
# from the CCDC's data processing and validation procedures.
#
#######################################################################

data_TITWEY
_chemical_formula_moiety         'C15 H16 O3'
_chemical_name_systematic        
endo-6-Carboxymethylhexacyclo(6.5.0.0^2,7^.0^4,12^.0^5,10^.0^9,13^)tridecan-3-one
_symmetry_cell_setting           orthorhombic
_symmetry_space_group_name_H-M   'P b c a'
_symmetry_Int_Tables_number      61
_space_group_name_Hall           '-P 2ac 2ab'
loop_
_symmetry_equiv_pos_site_id
_symmetry_equiv_pos_as_xyz
1 x,y,z
2 1/2-x,-y,1/2+z
3 1/2+x,1/2-y,-z
4 -x,1/2+y,1/2-z
5 -x,-y,-z
6 1/2+x,y,1/2-z
7 1/2-x,1/2+y,z
8 x,1/2-y,1/2+z
_cell_length_a                   8.101(2)
_cell_length_b                   12.857(3)
_cell_length_c                   21.971(7)
_cell_angle_alpha                90
_cell_angle_beta                 90
_cell_angle_gamma                90
_cell_volume                     2288.38
_exptl_crystal_colour            colorless
_cell_formula_units_Z            8
loop_
_atom_site_label
_atom_site_type_symbol
_atom_site_fract_x
_atom_site_fract_y
_atom_site_fract_z
C1 C 0.6688(4) 0.4777(2) 0.5543(1)
C2 C 0.5363(3) 0.4518(2) 0.6026(1)
C3 C 0.5961(3) 0.4636(2) 0.6656(1)
O1 O 0.5297(2) 0.5181(1) 0.7037(1)
C4 C 0.7513(3) 0.4057(2) 0.6784(1)
C5 C 0.7511(3) 0.2901(2) 0.6547(1)
C6 C 0.5880(3) 0.2568(2) 0.6269(1)
C7 C 0.5363(3) 0.3357(2) 0.5795(1)
C8 C 0.6681(4) 0.3625(2) 0.5317(1)
C9 C 0.8492(4) 0.3507(2) 0.5527(1)
C10 C 0.8958(3) 0.2900(2) 0.6097(1)
C11 C 1.0170(4) 0.3642(2) 0.6398(2)
C12 C 0.8959(3) 0.4541(2) 0.6423(1)
C13 C 0.8500(4) 0.4647(2) 0.5754(1)
C14 C 0.4575(3) 0.2396(2) 0.6758(1)
C15 C 0.3179(3) 0.1685(2) 0.6582(1)
O2 O 0.3021(2) 0.1277(2) 0.6097(1)
O3 O 0.2157(2) 0.1543(2) 0.7041(1)
loop_
_geom_bond_atom_site_label_1
_geom_bond_atom_site_label_2
_geom_bond_site_symmetry_1
_geom_bond_site_symmetry_2
C1 C2 1_555 1_555
C2 C3 1_555 1_555
C3 O1 1_555 1_555
C4 C3 1_555 1_555
C5 C4 1_555 1_555
C6 C5 1_555 1_555
C7 C2 1_555 1_555
C8 C1 1_555 1_555
C9 C8 1_555 1_555
C10 C5 1_555 1_555
C11 C10 1_555 1_555
C12 C4 1_555 1_555
C13 C1 1_555 1_555
C14 C6 1_555 1_555
C15 C14 1_555 1_555
O2 C15 1_555 1_555
O3 C15 1_555 1_555
C6 C7 1_555 1_555
C7 C8 1_555 1_555
C9 C13 1_555 1_555
C9 C10 1_555 1_555
C11 C12 1_555 1_555
C12 C13 1_555 1_555

#END
