
#######################################################################
#
#                 Cambridge Crystallographic Data Centre
#                                CCDC 
#
#######################################################################
#
# If this CIF has been generated from an entry in the Cambridge 
# Structural Database, then it will include bibliographic, chemical, 
# crystal, experimental, refinement or atomic coordinate data resulting 
# from the CCDC's data processing and validation procedures.
#
#######################################################################

data_TITWOJ
_chemical_formula_moiety         'C11 H7 Cl1 F1 N3 O1'
_chemical_name_systematic        
N-(2-Chloro-4-fluorophenyl)pyrazine-2-carboxamide
_symmetry_cell_setting           monoclinic
_symmetry_space_group_name_H-M   'C c'
_symmetry_Int_Tables_number      9
_space_group_name_Hall           'C -2yc'
loop_
_symmetry_equiv_pos_site_id
_symmetry_equiv_pos_as_xyz
1 x,y,z
2 x,-y,1/2+z
3 1/2+x,1/2+y,z
4 1/2+x,1/2-y,1/2+z
_cell_length_a                   18.733(4)
_cell_length_b                   3.8502(8)
_cell_length_c                   14.839(3)
_cell_angle_alpha                90
_cell_angle_beta                 99.472(3)
_cell_angle_gamma                90
_cell_volume                     1055.68
_exptl_crystal_colour            colorless
_exptl_crystal_description       block
_chemical_melting_point          '403-405 K'
_cell_formula_units_Z            4
_exptl_crystal_recrystallization_method ethanol
loop_
_atom_site_label
_atom_site_type_symbol
_atom_site_fract_x
_atom_site_fract_y
_atom_site_fract_z
N1 N 0.58972(8) 0.7356(4) 0.13943(10)
C1 C 0.61812(9) 0.8121(4) 0.22615(11)
C2 C 0.68266(8) 0.9941(4) 0.24885(11)
N2 N 0.72057(8) 1.1033(4) 0.18514(11)
C3 C 0.69254(9) 1.0259(5) 0.09870(12)
C4 C 0.62763(10) 0.8435(4) 0.07578(12)
C5 C 0.57815(8) 0.6966(4) 0.30107(10)
O1 O 0.60173(7) 0.7537(4) 0.38139(9)
N3 N 0.51543(7) 0.5244(3) 0.26860(8)
C6 C 0.46288(8) 0.3994(4) 0.31769(9)
C7 C 0.40303(8) 0.2219(4) 0.26962(10)
Cl1 Cl 0.39651(2) 0.15255(9) 0.15311(2)
C8 C 0.34726(9) 0.0970(4) 0.31201(11)
C9 C 0.35301(9) 0.1533(4) 0.40452(11)
F1 F 0.29899(6) 0.0320(3) 0.44732(8)
C10 C 0.41079(9) 0.3241(4) 0.45536(11)
C11 C 0.46593(9) 0.4476(4) 0.41160(10)
H1 H 0.7004 1.0424 0.3113
H2 H 0.7176 1.0975 0.0512
H3 H 0.6099 0.7946 0.0133
H4 H 0.5063 0.4974 0.2089
H5 H 0.3070 -0.0219 0.2786
H6 H 0.4129 0.3568 0.5192
H7 H 0.5060 0.5657 0.4458
loop_
_geom_bond_atom_site_label_1
_geom_bond_atom_site_label_2
_geom_bond_site_symmetry_1
_geom_bond_site_symmetry_2
N1 C1 1_555 1_555
C1 C2 1_555 1_555
C2 N2 1_555 1_555
N2 C3 1_555 1_555
C3 C4 1_555 1_555
C4 N1 1_555 1_555
C5 C1 1_555 1_555
O1 C5 1_555 1_555
N3 C5 1_555 1_555
C6 N3 1_555 1_555
C7 C6 1_555 1_555
Cl1 C7 1_555 1_555
C8 C7 1_555 1_555
C9 C8 1_555 1_555
F1 C9 1_555 1_555
C10 C9 1_555 1_555
C11 C6 1_555 1_555
H1 C2 1_555 1_555
H2 C3 1_555 1_555
H3 C4 1_555 1_555
H4 N3 1_555 1_555
H5 C8 1_555 1_555
H6 C10 1_555 1_555
H7 C11 1_555 1_555
C10 C11 1_555 1_555

#END
