
#######################################################################
#
#                 Cambridge Crystallographic Data Centre
#                                CCDC 
#
#######################################################################
#
# If this CIF has been generated from an entry in the Cambridge 
# Structural Database, then it will include bibliographic, chemical, 
# crystal, experimental, refinement or atomic coordinate data resulting 
# from the CCDC's data processing and validation procedures.
#
#######################################################################

data_TITWUP
_chemical_formula_moiety         'C11 H7 Cl1 F1 N3 O1'
_chemical_name_systematic        
N-(4-Chloro-2-fluorophenyl)pyrazine-2-carboxamide
_symmetry_cell_setting           monoclinic
_symmetry_space_group_name_H-M   'P 21/c'
_symmetry_Int_Tables_number      14
_space_group_name_Hall           '-P 2ybc'
loop_
_symmetry_equiv_pos_site_id
_symmetry_equiv_pos_as_xyz
1 x,y,z
2 -x,1/2+y,1/2-z
3 -x,-y,-z
4 x,1/2-y,1/2+z
_cell_length_a                   6.8885(2)
_cell_length_b                   10.5369(5)
_cell_length_c                   14.6683(7)
_cell_angle_alpha                90
_cell_angle_beta                 99.008(3)
_cell_angle_gamma                90
_cell_volume                     1051.54
_exptl_crystal_colour            colorless
_exptl_crystal_description       needle
_chemical_melting_point          '438-439 K'
_cell_formula_units_Z            4
_exptl_crystal_recrystallization_method ethanol
loop_
_atom_site_label
_atom_site_type_symbol
_atom_site_fract_x
_atom_site_fract_y
_atom_site_fract_z
N1 N 0.1577(3) 0.33660(18) 0.33583(12)
C1 C 0.1690(3) 0.2941(2) 0.42208(15)
C2 C 0.1414(3) 0.1672(2) 0.44199(16)
N2 N 0.1037(3) 0.07971(19) 0.37480(14)
C3 C 0.0927(3) 0.1227(2) 0.28893(17)
C4 C 0.1194(3) 0.2500(2) 0.26898(16)
C5 C 0.2147(3) 0.3886(2) 0.49933(14)
O1 O 0.2190(3) 0.35856(16) 0.57997(11)
N3 N 0.2490(3) 0.50689(16) 0.46880(12)
C6 C 0.2903(3) 0.6177(2) 0.52125(15)
C7 C 0.2996(3) 0.7310(2) 0.47305(14)
F1 F 0.2682(2) 0.72518(13) 0.37956(8)
C8 C 0.3350(3) 0.8472(2) 0.51551(15)
C9 C 0.3653(3) 0.8498(2) 0.61107(16)
Cl1 Cl 0.40321(9) 0.99463(5) 0.66766(4)
C10 C 0.3618(3) 0.7396(2) 0.66226(15)
C11 C 0.3249(3) 0.6233(2) 0.61750(14)
H1 H 0.1494 0.1415 0.5046
H2 H 0.0654 0.0643 0.2393
H3 H 0.1102 0.2758 0.2064
H4 H 0.2354 0.5103 0.4074
H5 H 0.3384 0.9228 0.4805
H6 H 0.3845 0.7433 0.7278
H7 H 0.3234 0.5477 0.6526
loop_
_geom_bond_atom_site_label_1
_geom_bond_atom_site_label_2
_geom_bond_site_symmetry_1
_geom_bond_site_symmetry_2
N1 C1 1_555 1_555
C1 C2 1_555 1_555
C2 N2 1_555 1_555
N2 C3 1_555 1_555
C3 C4 1_555 1_555
C4 N1 1_555 1_555
C5 C1 1_555 1_555
O1 C5 1_555 1_555
N3 C5 1_555 1_555
C6 N3 1_555 1_555
C7 C6 1_555 1_555
F1 C7 1_555 1_555
C8 C7 1_555 1_555
C9 C8 1_555 1_555
Cl1 C9 1_555 1_555
C10 C9 1_555 1_555
C11 C6 1_555 1_555
H1 C2 1_555 1_555
H2 C3 1_555 1_555
H3 C4 1_555 1_555
H4 N3 1_555 1_555
H5 C8 1_555 1_555
H6 C10 1_555 1_555
H7 C11 1_555 1_555
C10 C11 1_555 1_555

#END
