
#######################################################################
#
#                 Cambridge Crystallographic Data Centre
#                                CCDC 
#
#######################################################################
#
# If this CIF has been generated from an entry in the Cambridge 
# Structural Database, then it will include bibliographic, chemical, 
# crystal, experimental, refinement or atomic coordinate data resulting 
# from the CCDC's data processing and validation procedures.
#
#######################################################################

data_TITWAV
_chemical_formula_moiety         'C11 H8 N4 O3'
_chemical_name_systematic        N-(2-Nitrophenyl)pyrazine-2-carboxamide
_symmetry_cell_setting           monoclinic
_symmetry_space_group_name_H-M   'P 21/n'
_symmetry_Int_Tables_number      14
_space_group_name_Hall           '-P 2yn'
loop_
_symmetry_equiv_pos_site_id
_symmetry_equiv_pos_as_xyz
1 x,y,z
2 1/2-x,1/2+y,1/2-z
3 -x,-y,-z
4 1/2+x,1/2-y,1/2+z
_cell_length_a                   3.6598(2)
_cell_length_b                   21.7123(17)
_cell_length_c                   13.1158(10)
_cell_angle_alpha                90
_cell_angle_beta                 91.281(5)
_cell_angle_gamma                90
_cell_volume                     1041.96
_exptl_crystal_colour            yellow
_exptl_crystal_description       lath
_chemical_melting_point          '443-445 K'
_cell_formula_units_Z            4
_exptl_crystal_recrystallization_method ethanol
loop_
_atom_site_label
_atom_site_type_symbol
_atom_site_fract_x
_atom_site_fract_y
_atom_site_fract_z
N1 N -0.1850(5) 0.53464(9) 0.88022(16)
C1 C -0.0416(6) 0.56080(11) 0.79746(19)
C2 C -0.0117(6) 0.62421(11) 0.7878(2)
N2 N -0.1205(5) 0.66273(9) 0.86046(17)
C3 C -0.2559(6) 0.63660(11) 0.9435(2)
C4 C -0.2905(6) 0.57313(11) 0.95331(19)
C5 C 0.0926(6) 0.51945(11) 0.71441(19)
O1 O 0.2630(5) 0.54106(7) 0.64350(13)
N3 N 0.0104(5) 0.45926(8) 0.72852(15)
C6 C 0.0908(6) 0.40893(10) 0.66584(19)
C7 C 0.0410(6) 0.34788(11) 0.69925(18)
N4 N -0.0980(5) 0.33331(10) 0.79989(16)
O2 O -0.2605(5) 0.37332(8) 0.84866(13)
O3 O -0.0514(6) 0.28109(9) 0.83390(15)
C8 C 0.1230(6) 0.29763(11) 0.63835(19)
C9 C 0.2538(6) 0.30676(12) 0.54240(19)
C10 C 0.3049(6) 0.36632(11) 0.5075(2)
C11 C 0.2267(6) 0.41660(11) 0.56828(18)
H1 H 0.0894 0.6408 0.7276
H2 H -0.3314 0.6622 0.9978
H3 H -0.3919 0.5567 1.0136
H4 H -0.1097 0.4490 0.7834
H5 H 0.0886 0.2570 0.6632
H6 H 0.3088 0.2726 0.5002
H7 H 0.3950 0.3728 0.4410
H8 H 0.2663 0.4570 0.5430
loop_
_geom_bond_atom_site_label_1
_geom_bond_atom_site_label_2
_geom_bond_site_symmetry_1
_geom_bond_site_symmetry_2
N1 C1 1_555 1_555
C1 C2 1_555 1_555
C2 N2 1_555 1_555
N2 C3 1_555 1_555
C3 C4 1_555 1_555
C4 N1 1_555 1_555
C5 C1 1_555 1_555
O1 C5 1_555 1_555
N3 C5 1_555 1_555
C6 N3 1_555 1_555
C7 C6 1_555 1_555
N4 C7 1_555 1_555
O2 N4 1_555 1_555
O3 N4 1_555 1_555
C8 C7 1_555 1_555
C9 C8 1_555 1_555
C10 C9 1_555 1_555
C11 C6 1_555 1_555
H1 C2 1_555 1_555
H2 C3 1_555 1_555
H3 C4 1_555 1_555
H4 N3 1_555 1_555
H5 C8 1_555 1_555
H6 C9 1_555 1_555
H7 C10 1_555 1_555
H8 C11 1_555 1_555
C10 C11 1_555 1_555

#END
