
#######################################################################
#
#                 Cambridge Crystallographic Data Centre
#                                CCDC 
#
#######################################################################
#
# If this CIF has been generated from an entry in the Cambridge 
# Structural Database, then it will include bibliographic, chemical, 
# crystal, experimental, refinement or atomic coordinate data resulting 
# from the CCDC's data processing and validation procedures.
#
#######################################################################

data_TITYIF
_chemical_formula_moiety         'C14 H14 F3 O7 P1'
_chemical_name_systematic        
'2-(3-(Trifluoromethyl)phenoxy)ethyl 1-oxo-2,6,7-trioxa-1\l^5^-phosphabicyclo(2.2.2)octane-4-carboxylate'
_symmetry_cell_setting           monoclinic
_symmetry_space_group_name_H-M   'P 21/n'
_symmetry_Int_Tables_number      14
_space_group_name_Hall           '-P 2yn'
loop_
_symmetry_equiv_pos_site_id
_symmetry_equiv_pos_as_xyz
1 x,y,z
2 1/2-x,1/2+y,1/2-z
3 -x,-y,-z
4 1/2+x,1/2-y,1/2+z
_cell_length_a                   5.7824(3)
_cell_length_b                   27.5060(16)
_cell_length_c                   10.2878(6)
_cell_angle_alpha                90
_cell_angle_beta                 96.738(1)
_cell_angle_gamma                90
_cell_volume                     1624.98
_exptl_crystal_colour            colorless
_exptl_crystal_description       plate
_cell_formula_units_Z            4
_exptl_crystal_recrystallization_method dichloromethane/n-hexane
loop_
_atom_site_label
_atom_site_type_symbol
_atom_site_fract_x
_atom_site_fract_y
_atom_site_fract_z
C1 C 0.3969(4) 0.14250(8) 0.3106(2)
H1 H 0.5300 0.1356 0.3744
H2 H 0.3031 0.1133 0.2985
C2 C 0.4076(4) 0.22884(9) 0.3762(2)
H3 H 0.3254 0.2552 0.4134
H4 H 0.5473 0.2218 0.4350
C3 C 0.0422(4) 0.19358(11) 0.2599(2)
H5 H -0.0585 0.1653 0.2523
H6 H -0.0459 0.2207 0.2886
C4 C 0.2525(3) 0.18376(8) 0.3603(2)
C5 C 0.1682(4) 0.16870(8) 0.4885(2)
C6 C 0.2903(5) 0.15256(10) 0.7125(2)
H7 H 0.1908 0.1241 0.7030
H8 H 0.2108 0.1778 0.7559
C7 C 0.5158(5) 0.14044(9) 0.7905(2)
H9 H 0.6266 0.1666 0.7853
H10 H 0.4938 0.1356 0.8817
C8 C 0.8002(4) 0.07776(9) 0.7983(2)
C9 C 0.8907(5) 0.03932(9) 0.7345(2)
H11 H 0.8138 0.0281 0.6557
C10 C 1.0948(5) 0.01744(10) 0.7873(3)
C11 C 1.2075(6) 0.03407(13) 0.9055(3)
H12 H 1.3452 0.0195 0.9418
C12 C 1.1166(6) 0.07149(13) 0.9678(3)
H13 H 1.1933 0.0824 1.0469
C13 C 0.9127(5) 0.09386(10) 0.9166(2)
H14 H 0.8516 0.1194 0.9610
C14 C 1.1925(6) -0.02293(13) 0.7178(4)
F1 F 1.0315(9) -0.0476(3) 0.6324(13)
F2 F 1.3280(17) -0.0092(4) 0.6315(8)
F3 F 1.295(3) -0.0570(4) 0.7881(7)
O1 O 0.4623(3) 0.22048(7) 0.00883(16)
O2 O 0.4701(3) 0.24307(6) 0.24834(15)
O3 O 0.4763(3) 0.15669(6) 0.18650(16)
O4 O 0.1178(3) 0.20463(7) 0.13298(16)
O5 O -0.0280(3) 0.15716(8) 0.49924(19)
O6 O 0.3411(3) 0.16937(6) 0.58442(16)
O7 O 0.5992(3) 0.09700(6) 0.73729(15)
P1 P 0.38795(10) 0.20768(2) 0.13331(6)
F4? F 1.0849(18) -0.0629(3) 0.7297(14)
F5? F 1.4149(10) -0.0324(4) 0.7722(12)
F6? F 1.218(3) -0.0137(5) 0.5991(8)
loop_
_geom_bond_atom_site_label_1
_geom_bond_atom_site_label_2
_geom_bond_site_symmetry_1
_geom_bond_site_symmetry_2
C1 H1 1_555 1_555
H2 C1 1_555 1_555
C2 H3 1_555 1_555
H4 C2 1_555 1_555
C3 H5 1_555 1_555
H6 C3 1_555 1_555
C4 C1 1_555 1_555
C5 C4 1_555 1_555
C6 H7 1_555 1_555
H8 C6 1_555 1_555
C7 C6 1_555 1_555
H9 C7 1_555 1_555
H10 C7 1_555 1_555
C8 C9 1_555 1_555
C9 H11 1_555 1_555
C10 C9 1_555 1_555
C11 C10 1_555 1_555
H12 C11 1_555 1_555
C12 C11 1_555 1_555
H13 C12 1_555 1_555
C13 C8 1_555 1_555
H14 C13 1_555 1_555
C14 C10 1_555 1_555
F1 C14 1_555 1_555
F2 C14 1_555 1_555
F3 C14 1_555 1_555
O1 P1 1_555 1_555
O2 C2 1_555 1_555
O3 C1 1_555 1_555
O4 C3 1_555 1_555
O5 C5 1_555 1_555
O6 C5 1_555 1_555
O7 C7 1_555 1_555
P1 O2 1_555 1_555
C2 C4 1_555 1_555
C3 C4 1_555 1_555
C6 O6 1_555 1_555
C8 O7 1_555 1_555
C12 C13 1_555 1_555
O3 P1 1_555 1_555
O4 P1 1_555 1_555

#END
