
#######################################################################
#
#                 Cambridge Crystallographic Data Centre
#                                CCDC 
#
#######################################################################
#
# If this CIF has been generated from an entry in the Cambridge 
# Structural Database, then it will include bibliographic, chemical, 
# crystal, experimental, refinement or atomic coordinate data resulting 
# from the CCDC's data processing and validation procedures.
#
#######################################################################

data_TITZIH01
_chemical_formula_moiety         'C29 H21 Br1 N2 O1'
_chemical_name_systematic        
(1-(4-bromophenyl)-2-(4-methylphenyl)-4-phenyl-1H-imidazol-5-yl)(phenyl)methanone
_symmetry_cell_setting           triclinic
_symmetry_space_group_name_H-M   'P -1'
_symmetry_Int_Tables_number      2
_space_group_name_Hall           '-P 1'
loop_
_symmetry_equiv_pos_site_id
_symmetry_equiv_pos_as_xyz
1 x,y,z
2 -x,-y,-z
_cell_length_a                   9.724(3)
_cell_length_b                   11.142(3)
_cell_length_c                   12.910(4)
_cell_angle_alpha                98.826(5)
_cell_angle_beta                 103.604(5)
_cell_angle_gamma                112.844(5)
_cell_volume                     1205.18
_exptl_crystal_colour            yellow
_exptl_crystal_description       plate
_cell_formula_units_Z            2
loop_
_atom_site_label
_atom_site_type_symbol
_atom_site_fract_x
_atom_site_fract_y
_atom_site_fract_z
Br1 Br 0.31791(9) -0.08292(10) -0.45331(6)
O1 O 0.8593(4) 0.3113(4) -0.0117(3)
N1 N 0.8951(5) -0.0226(5) 0.1374(4)
N2 N 0.7760(5) 0.0369(4) 0.0004(3)
C1 C 0.7110(7) -0.0222(6) -0.1989(4)
H1 H 0.8035 -0.0312 -0.1927
C2 C 0.5976(8) -0.0545(6) -0.3035(5)
H2 H 0.6128 -0.0910 -0.3672
C3 C 0.4679(7) -0.0334(6) -0.3127(5)
C4 C 0.4422(6) 0.0215(5) -0.2207(5)
H3 H 0.3552 0.0395 -0.2281
C5 C 0.5466(6) 0.0497(5) -0.1173(4)
H4 H 0.5297 0.0864 -0.0544
C6 C 0.6772(7) 0.0235(5) -0.1065(4)
C7 C 0.7934(7) -0.2901(6) 0.0006(5)
H5 H 0.8945 -0.2499 0.0517
C8 C 0.7224(7) -0.4262(7) -0.0486(5)
H6 H 0.7770 -0.4766 -0.0305
C9 C 0.5752(8) -0.4899(6) -0.1228(5)
C10 C 0.4904(8) -0.4137(6) -0.1492(5)
H7 H 0.3881 -0.4559 -0.1987
C11 C 0.5620(8) -0.2766(6) -0.1003(5)
H8 H 0.5072 -0.2261 -0.1173
C12 C 0.7165(6) -0.2112(5) -0.0250(4)
C13 C 0.4996(9) -0.6414(6) -0.1753(6)
H9 H 0.5294 -0.6592 -0.2397
H10 H 0.3869 -0.6763 -0.1964
H11 H 0.5346 -0.6845 -0.1230
C14 C 0.7954(6) -0.0670(6) 0.0360(4)
C15 C 1.0610(8) 0.1319(7) 0.3678(5)
H12 H 0.9849 0.0439 0.3549
C16 C 1.1689(9) 0.1988(9) 0.4717(6)
H13 H 1.1638 0.1579 0.5292
C17 C 1.2846(9) 0.3270(10) 0.4899(6)
H14 H 1.3601 0.3727 0.5595
C18 C 1.2886(9) 0.3873(8) 0.4054(6)
H15 H 1.3647 0.4755 0.4193
C19 C 1.1825(6) 0.3205(6) 0.3002(5)
H16 H 1.1912 0.3608 0.2426
C20 C 1.0626(7) 0.1925(6) 0.2813(4)
C21 C 0.9420(6) 0.1145(6) 0.1709(4)
C22 C 0.8520(6) 0.3549(6) 0.2647(5)
H17 H 0.7978 0.2642 0.2616
C23 C 0.8786(8) 0.4547(8) 0.3556(5)
H18 H 0.8405 0.4313 0.4128
C24 C 0.9614(10) 0.5882(8) 0.3609(7)
H19 H 0.9805 0.6555 0.4223
C25 C 1.0160(9) 0.6224(7) 0.2756(7)
H20 H 1.0729 0.7130 0.2796
C26 C 0.9874(8) 0.5248(6) 0.1861(5)
H21 H 1.0233 0.5492 0.1282
C27 C 0.9053(6) 0.3892(6) 0.1790(4)
C28 C 0.8755(6) 0.2869(6) 0.0785(4)
C29 C 0.8662(6) 0.1547(5) 0.0879(4)
loop_
_geom_bond_atom_site_label_1
_geom_bond_atom_site_label_2
_geom_bond_site_symmetry_1
_geom_bond_site_symmetry_2
Br1 C3 1_555 1_555
O1 C28 1_555 1_555
N1 C14 1_555 1_555
N2 C6 1_555 1_555
C1 H1 1_555 1_555
C2 C1 1_555 1_555
H2 C2 1_555 1_555
C3 C2 1_555 1_555
C4 C3 1_555 1_555
H3 C4 1_555 1_555
C5 C4 1_555 1_555
H4 C5 1_555 1_555
C6 C1 1_555 1_555
C7 H5 1_555 1_555
C8 C7 1_555 1_555
H6 C8 1_555 1_555
C9 C8 1_555 1_555
C10 C9 1_555 1_555
H7 C10 1_555 1_555
C11 C10 1_555 1_555
H8 C11 1_555 1_555
C12 C7 1_555 1_555
C13 C9 1_555 1_555
H9 C13 1_555 1_555
H10 C13 1_555 1_555
H11 C13 1_555 1_555
C14 N2 1_555 1_555
C15 H12 1_555 1_555
C16 C15 1_555 1_555
H13 C16 1_555 1_555
C17 C16 1_555 1_555
H14 C17 1_555 1_555
C18 C17 1_555 1_555
H15 C18 1_555 1_555
C19 C18 1_555 1_555
H16 C19 1_555 1_555
C20 C15 1_555 1_555
C21 N1 1_555 1_555
C22 H17 1_555 1_555
C23 C22 1_555 1_555
H18 C23 1_555 1_555
C24 C23 1_555 1_555
H19 C24 1_555 1_555
C25 C24 1_555 1_555
H20 C25 1_555 1_555
C26 C25 1_555 1_555
H21 C26 1_555 1_555
C27 C22 1_555 1_555
C28 C27 1_555 1_555
C29 N2 1_555 1_555
C5 C6 1_555 1_555
C11 C12 1_555 1_555
C12 C14 1_555 1_555
C19 C20 1_555 1_555
C20 C21 1_555 1_555
C21 C29 1_555 1_555
C26 C27 1_555 1_555
C28 C29 1_555 1_555

#END
