
#######################################################################
#
#                 Cambridge Crystallographic Data Centre
#                                CCDC 
#
#######################################################################
#
# If this CIF has been generated from an entry in the Cambridge 
# Structural Database, then it will include bibliographic, chemical, 
# crystal, experimental, refinement or atomic coordinate data resulting 
# from the CCDC's data processing and validation procedures.
#
#######################################################################

data_TITZIH
_chemical_formula_moiety         'C29 H21 Br1 N2 O1'
_chemical_name_systematic        
(1-(4-Bromophenyl)-2-(4-methylphenyl)-4-phenyl-1H-imidazol-5-yl)(phenyl)methanone
_symmetry_cell_setting           triclinic
_symmetry_space_group_name_H-M   'P -1'
_symmetry_Int_Tables_number      2
_space_group_name_Hall           '-P 1'
loop_
_symmetry_equiv_pos_site_id
_symmetry_equiv_pos_as_xyz
1 x,y,z
2 -x,-y,-z
_cell_length_a                   9.589(2)
_cell_length_b                   11.106(3)
_cell_length_c                   12.722(3)
_cell_angle_alpha                98.630(3)
_cell_angle_beta                 103.019(3)
_cell_angle_gamma                113.172(3)
_cell_volume                     1169.64
_exptl_crystal_colour            colorless
_exptl_crystal_description       block
_chemical_melting_point          '463-465 K'
_cell_formula_units_Z            2
loop_
_atom_site_label
_atom_site_type_symbol
_atom_site_fract_x
_atom_site_fract_y
_atom_site_fract_z
N1 N 0.7755(2) 0.53641(17) 0.50023(14)
C1 C 0.7959(2) 0.4321(2) 0.53572(17)
N2 N 0.8971(2) 0.47650(18) 0.63853(15)
C2 C 0.9428(2) 0.6134(2) 0.67254(17)
C3 C 0.8658(2) 0.6533(2) 0.58852(17)
C4 C 0.6754(2) 0.5228(2) 0.39174(17)
C5 C 0.5447(3) 0.5506(2) 0.38201(18)
H1 H 0.5277 0.5892 0.4470
C6 C 0.4391(3) 0.5216(2) 0.27706(18)
H2 H 0.3500 0.5412 0.2693
C7 C 0.4649(3) 0.4637(2) 0.18361(17)
C8 C 0.5985(3) 0.4409(2) 0.19261(18)
H3 H 0.6167 0.4043 0.1275
C9 C 0.7052(3) 0.4721(2) 0.29769(19)
H4 H 0.7985 0.4586 0.3050
Br1 Br 0.31243(3) 0.41243(3) 0.04158(2)
C10 C 0.7154(3) 0.2868(2) 0.47437(18)
C11 C 0.5606(3) 0.2213(2) 0.39965(19)
H5 H 0.5032 0.2723 0.3816
C12 C 0.4901(3) 0.0831(2) 0.35181(19)
H6 H 0.3845 0.0401 0.3012
C13 C 0.5707(3) 0.0055(2) 0.37625(19)
C14 C 0.7246(3) 0.0710(2) 0.45169(19)
H7 H 0.7815 0.0197 0.4697
C15 C 0.7961(3) 0.2090(2) 0.50081(19)
H8 H 0.9008 0.2514 0.5529
C16 C 0.4953(3) -0.1439(3) 0.3242(2)
H9 H 0.5362 -0.1623 0.2626
H10 H 0.3792 -0.1781 0.2952
H11 H 0.5211 -0.1896 0.3805
C17 C 1.0621(3) 0.6904(2) 0.78330(17)
C18 C 1.0617(3) 0.6271(2) 0.87028(19)
H12 H 0.9840 0.5363 0.8572
C19 C 1.1728(3) 0.6949(3) 0.9750(2)
H13 H 1.1716 0.6508 1.0334
C20 C 1.2854(3) 0.8266(3) 0.9946(2)
H14 H 1.3604 0.8740 1.0671
C21 C 1.2896(3) 0.8901(3) 0.9092(2)
H15 H 1.3681 0.9807 0.9229
C22 C 1.1794(3) 0.8218(2) 0.8032(2)
H16 H 1.1843 0.8651 0.7443
C23 C 0.8747(2) 0.7863(2) 0.57811(18)
O1 O 0.85784(18) 0.81081(15) 0.48650(12)
C24 C 0.9026(2) 0.8887(2) 0.67991(18)
C25 C 0.8453(3) 0.8511(2) 0.76727(18)
H17 H 0.7887 0.7577 0.7634
C26 C 0.8709(3) 0.9498(2) 0.85962(19)
H18 H 0.8303 0.9243 0.9186
C27 C 0.9556(3) 1.0856(3) 0.8660(2)
H19 H 0.9748 1.1532 0.9300
C28 C 1.0126(3) 1.1235(3) 0.7794(2)
H20 H 1.0710 1.2170 0.7843
C29 C 0.9847(3) 1.0256(2) 0.68592(19)
H21 H 1.0216 1.0518 0.6258
loop_
_geom_bond_atom_site_label_1
_geom_bond_atom_site_label_2
_geom_bond_site_symmetry_1
_geom_bond_site_symmetry_2
N1 C1 1_555 1_555
C1 N2 1_555 1_555
N2 C2 1_555 1_555
C2 C3 1_555 1_555
C3 N1 1_555 1_555
C4 N1 1_555 1_555
C5 C4 1_555 1_555
H1 C5 1_555 1_555
C6 C5 1_555 1_555
H2 C6 1_555 1_555
C7 C6 1_555 1_555
C8 C7 1_555 1_555
H3 C8 1_555 1_555
C9 C4 1_555 1_555
H4 C9 1_555 1_555
Br1 C7 1_555 1_555
C10 C1 1_555 1_555
C11 C10 1_555 1_555
H5 C11 1_555 1_555
C12 C11 1_555 1_555
H6 C12 1_555 1_555
C13 C12 1_555 1_555
C14 C13 1_555 1_555
H7 C14 1_555 1_555
C15 C10 1_555 1_555
H8 C15 1_555 1_555
C16 C13 1_555 1_555
H9 C16 1_555 1_555
H10 C16 1_555 1_555
H11 C16 1_555 1_555
C17 C2 1_555 1_555
C18 C17 1_555 1_555
H12 C18 1_555 1_555
C19 C18 1_555 1_555
H13 C19 1_555 1_555
C20 C19 1_555 1_555
H14 C20 1_555 1_555
C21 C20 1_555 1_555
H15 C21 1_555 1_555
C22 C17 1_555 1_555
H16 C22 1_555 1_555
C23 C3 1_555 1_555
O1 C23 1_555 1_555
C24 C23 1_555 1_555
C25 C24 1_555 1_555
H17 C25 1_555 1_555
C26 C25 1_555 1_555
H18 C26 1_555 1_555
C27 C26 1_555 1_555
H19 C27 1_555 1_555
C28 C27 1_555 1_555
H20 C28 1_555 1_555
C29 C24 1_555 1_555
H21 C29 1_555 1_555
C8 C9 1_555 1_555
C14 C15 1_555 1_555
C21 C22 1_555 1_555
C28 C29 1_555 1_555

#END
