
#######################################################################
#
#                 Cambridge Crystallographic Data Centre
#                                CCDC 
#
#######################################################################
#
# If this CIF has been generated from an entry in the Cambridge 
# Structural Database, then it will include bibliographic, chemical, 
# crystal, experimental, refinement or atomic coordinate data resulting 
# from the CCDC's data processing and validation procedures.
#
#######################################################################

data_TIVBUV
_chemical_compound_source        'bark of Taxus wallichiana'
_chemical_formula_moiety         'C37 H53 N1 O8'
_chemical_name_systematic        7,2'-bis(Deacetoxy)austrospicatine
_chemical_properties_biological  'related to antitumor agent'
_symmetry_cell_setting           orthorhombic
_symmetry_space_group_name_H-M   'P 21 21 21'
_symmetry_Int_Tables_number      19
_space_group_name_Hall           'P 2ac 2ab'
loop_
_symmetry_equiv_pos_site_id
_symmetry_equiv_pos_as_xyz
1 x,y,z
2 1/2-x,-y,1/2+z
3 1/2+x,1/2-y,-z
4 -x,1/2+y,1/2-z
_cell_length_a                   8.234(2)
_cell_length_b                   17.191(3)
_cell_length_c                   24.889(5)
_cell_angle_alpha                90
_cell_angle_beta                 90
_cell_angle_gamma                90
_cell_volume                     3523.06
_exptl_crystal_colour            colorless
_chemical_melting_point          199-200deg.C
_cell_formula_units_Z            4
loop_
_atom_site_label
_atom_site_type_symbol
_atom_site_fract_x
_atom_site_fract_y
_atom_site_fract_z
C1 C 0.87494 0.26193 0.17672
C2 C 0.84437 0.35433 0.17926
C3 C 0.67658 0.38080 0.21013
C4 C 0.72029 0.45187 0.24685
C5 C 0.58748 0.46971 0.28504
C6 C 0.42182 0.48418 0.25531
C7 C 0.37981 0.41710 0.21659
C8 C 0.52766 0.40672 0.17813
C9 C 0.48537 0.34197 0.13382
C10 C 0.44262 0.26019 0.15345
C11 C 0.59246 0.22172 0.17453
C12 C 0.59140 0.20154 0.22981
C13 C 0.74458 0.17236 0.25417
C14 C 0.88793 0.23121 0.23645
C15 C 0.76165 0.21141 0.14495
C16 C 0.77120 0.23467 0.08069
C17 C 0.81897 0.12399 0.14298
C18 C 0.44010 0.20082 0.26288
C19 C 0.56247 0.47834 0.14187
C20 C 0.86331 0.49226 0.24941
C21 C 0.54010 0.41995 0.37177
C22 C 0.51109 0.34927 0.40023
C23 C 0.34256 0.32726 0.38963
C24 C 0.18417 0.41404 0.45260
C25 C 0.04500 0.37439 0.36553
C26 C 0.27549 0.24586 0.41393
C27 C 0.19249 0.18941 0.38491
C28 C 0.14216 0.11994 0.40658
C29 C 0.19444 0.09880 0.46276
C30 C 0.28297 0.15865 0.49283
C31 C 0.32318 0.23012 0.47006
C32 C 0.30016 0.38586 0.06006
C33 C 0.13442 0.40388 0.04410
C34 C 0.28837 0.15899 0.10715
C35 C 0.24763 0.12104 0.05454
C36 C 0.77271 0.14137 0.34631
C37 C 0.73613 0.15071 0.40570
N1 N 0.20976 0.38560 0.39339
O1 O 0.56196 0.40293 0.31865
O2 O 0.32083 0.36649 0.11228
O3 O 0.40296 0.21697 0.10076
O4 O 0.73691 0.19257 0.31261
O5 O 0.56111 0.47960 0.39056
O6 O 0.41640 0.38294 0.02941
O7 O 0.23116 0.14309 0.14982
O8 O 0.82764 0.07796 0.33160
loop_
_geom_bond_atom_site_label_1
_geom_bond_atom_site_label_2
_geom_bond_site_symmetry_1
_geom_bond_site_symmetry_2
C1 C2 1_555 1_555
C2 C3 1_555 1_555
C3 C4 1_555 1_555
C4 C5 1_555 1_555
C5 C6 1_555 1_555
C6 C7 1_555 1_555
C7 C8 1_555 1_555
C8 C3 1_555 1_555
C9 C8 1_555 1_555
C10 C9 1_555 1_555
C11 C10 1_555 1_555
C12 C11 1_555 1_555
C13 C12 1_555 1_555
C14 C1 1_555 1_555
C15 C1 1_555 1_555
C16 C15 1_555 1_555
C17 C15 1_555 1_555
C18 C12 1_555 1_555
C19 C8 1_555 1_555
C20 C4 1_555 1_555
C21 C22 1_555 1_555
C22 C23 1_555 1_555
C23 C26 1_555 1_555
C24 N1 1_555 1_555
C25 N1 1_555 1_555
C26 C27 1_555 1_555
C27 C28 1_555 1_555
C28 C29 1_555 1_555
C29 C30 1_555 1_555
C30 C31 1_555 1_555
C31 C26 1_555 1_555
C32 C33 1_555 1_555
C34 C35 1_555 1_555
C36 C37 1_555 1_555
N1 C23 1_555 1_555
O1 C5 1_555 1_555
O2 C9 1_555 1_555
O3 C10 1_555 1_555
O4 C13 1_555 1_555
O5 C21 1_555 1_555
O6 C32 1_555 1_555
O7 C34 1_555 1_555
O8 C36 1_555 1_555
C11 C15 1_555 1_555
C13 C14 1_555 1_555
C21 O1 1_555 1_555
C32 O2 1_555 1_555
C34 O3 1_555 1_555
C36 O4 1_555 1_555

#END
