
#######################################################################
#
#                 Cambridge Crystallographic Data Centre
#                                CCDC 
#
#######################################################################
#
# If this CIF has been generated from an entry in the Cambridge 
# Structural Database, then it will include bibliographic, chemical, 
# crystal, experimental, refinement or atomic coordinate data resulting 
# from the CCDC's data processing and validation procedures.
#
#######################################################################

data_TIVBUW
_chemical_compound_source        'roots of Morinda citrifolia Linn'
_chemical_name_common            Nordamnacanthal
_chemical_formula_moiety         'C15 H8 O5'
_chemical_name_systematic        
1,3-Dihydroxy-9,10-dioxo-9,10-dihydroanthracene-2-carbaldehyde
_symmetry_cell_setting           monoclinic
_symmetry_space_group_name_H-M   'P 21/c'
_symmetry_Int_Tables_number      14
_space_group_name_Hall           '-P 2ybc'
loop_
_symmetry_equiv_pos_site_id
_symmetry_equiv_pos_as_xyz
1 x,y,z
2 -x,1/2+y,1/2-z
3 -x,-y,-z
4 x,1/2-y,1/2+z
_cell_length_a                   10.547(2)
_cell_length_b                   5.669(1)
_cell_length_c                   20.231(3)
_cell_angle_alpha                90
_cell_angle_beta                 110.62(4)
_cell_angle_gamma                90
_cell_volume                     1132.14
_exptl_crystal_colour            orange
_exptl_crystal_description       prism
_cell_formula_units_Z            4
_exptl_crystal_recrystallization_method chloroform
loop_
_atom_site_label
_atom_site_type_symbol
_atom_site_fract_x
_atom_site_fract_y
_atom_site_fract_z
O1 O 0.32777(16) 1.4401(3) -0.05914(8)
O2 O 0.02849(14) 0.7077(2) -0.03142(7)
O3 O 0.22406(15) 0.5649(2) 0.07880(7)
H1 H 0.1487 0.5610 0.0479
O4 O 0.62014(15) 1.0321(3) 0.15870(9)
H2 H 0.6408 0.9283 0.1889
O5 O 0.58762(18) 0.6610(3) 0.22568(9)
C1 C 0.2604(2) 1.2727(3) -0.05264(10)
C2 C 0.12238(19) 1.2323(3) -0.10446(9)
C3 C 0.04523(18) 1.0390(3) -0.09796(9)
C4 C 0.09986(19) 0.8728(3) -0.03790(10)
C5 C 0.23549(18) 0.9106(3) 0.01290(10)
C6 C 0.31419(18) 1.1053(3) 0.00715(10)
C7 C 0.4429(2) 1.1451(4) 0.05601(11)
H3 H 0.4935 1.2742 0.0513
C8 C 0.4949(2) 0.9898(4) 0.11180(11)
C9 C 0.4211(2) 0.7925(4) 0.11979(10)
C10 C 0.2905(2) 0.7533(3) 0.06963(10)
C11 C 0.4762(3) 0.6333(4) 0.17886(13)
H4 H 0.4247 0.5031 0.1817
C12 C -0.0846(2) 1.0056(4) -0.14710(10)
H5 H -0.1359 0.8766 -0.1430
C13 C -0.1371(2) 1.1638(4) -0.20178(10)
H6 H -0.2239 1.1414 -0.2346
C14 C -0.0613(2) 1.3547(4) -0.20791(11)
H7 H -0.0975 1.4613 -0.2447
C15 C 0.0679(2) 1.3894(4) -0.15996(10)
H8 H 0.1185 1.5183 -0.1648
loop_
_geom_bond_atom_site_label_1
_geom_bond_atom_site_label_2
_geom_bond_site_symmetry_1
_geom_bond_site_symmetry_2
O1 C1 1_555 1_555
O2 C4 1_555 1_555
O3 H1 1_555 1_555
O4 H2 1_555 1_555
O5 C11 1_555 1_555
C1 C2 1_555 1_555
C2 C3 1_555 1_555
C3 C4 1_555 1_555
C4 C5 1_555 1_555
C5 C6 1_555 1_555
C6 C1 1_555 1_555
C7 C6 1_555 1_555
H3 C7 1_555 1_555
C8 O4 1_555 1_555
C9 C8 1_555 1_555
C10 O3 1_555 1_555
C11 C9 1_555 1_555
H4 C11 1_555 1_555
C12 C3 1_555 1_555
H5 C12 1_555 1_555
C13 C12 1_555 1_555
H6 C13 1_555 1_555
C14 C13 1_555 1_555
H7 C14 1_555 1_555
C15 C2 1_555 1_555
H8 C15 1_555 1_555
C5 C10 1_555 1_555
C7 C8 1_555 1_555
C9 C10 1_555 1_555
C14 C15 1_555 1_555

#END
