
#######################################################################
#
#                 Cambridge Crystallographic Data Centre
#                                CCDC 
#
#######################################################################
#
# If this CIF has been generated from an entry in the Cambridge 
# Structural Database, then it will include bibliographic, chemical, 
# crystal, experimental, refinement or atomic coordinate data resulting 
# from the CCDC's data processing and validation procedures.
#
#######################################################################

data_TIVBIJ
_chemical_compound_source        
'Chinese medicinal plant Dactylicapnos torulosa'
_chemical_formula_moiety         'C42 H38 N2 O14,C1 H1 Cl3'
_chemical_name_systematic        'Dactylicapnosine chloroform solvate'
_symmetry_cell_setting           triclinic
_symmetry_space_group_name_H-M   'P -1'
_symmetry_Int_Tables_number      2
_space_group_name_Hall           '-P 1'
loop_
_symmetry_equiv_pos_site_id
_symmetry_equiv_pos_as_xyz
1 x,y,z
2 -x,-y,-z
_cell_length_a                   10.877(1)
_cell_length_b                   13.804(1)
_cell_length_c                   14.280(1)
_cell_angle_alpha                88.38(1)
_cell_angle_beta                 84.12(1)
_cell_angle_gamma                86.05(1)
_cell_volume                     2127.25
_exptl_crystal_colour            yellow
_chemical_melting_point          135-136deg.C
_cell_formula_units_Z            2
loop_
_atom_site_label
_atom_site_type_symbol
_atom_site_fract_x
_atom_site_fract_y
_atom_site_fract_z
O1 O 0.4772(2) 0.1966(2) 0.6180(2)
N1 N 0.3622(3) 0.1822(2) 0.6795(2)
C1 C 0.3152(4) 0.0927(3) 0.6494(4)
C2 C 0.2781(3) 0.2644(3) 0.6554(3)
C3 C 0.3121(4) 0.3609(3) 0.6897(2)
C4 C 0.2326(3) 0.4420(3) 0.6485(2)
C5 C 0.1280(4) 0.4800(3) 0.7046(3)
C6 C 0.0506(4) 0.5478(3) 0.6656(3)
O2 O -0.0558(3) 0.5948(3) 0.7075(2)
C7 C -0.1032(4) 0.6531(3) 0.6356(4)
O3 O -0.0183(3) 0.6480(2) 0.5527(2)
C8 C 0.0738(4) 0.5803(3) 0.5747(3)
C9 C 0.1741(4) 0.5463(3) 0.5171(3)
C10 C 0.2560(3) 0.4753(3) 0.5543(2)
C11 C 0.3640(3) 0.4325(3) 0.4975(2)
C12 C 0.4026(3) 0.4442(3) 0.4067(2)
O4 O 0.3416(2) 0.5061(2) 0.3443(2)
C13 C 0.4012(4) 0.4984(3) 0.2541(3)
O5 O 0.3599(3) 0.5442(2) 0.1907(2)
C14 C 0.5093(3) 0.4305(2) 0.2597(2)
C15 C 0.6005(4) 0.3997(3) 0.1895(2)
O6 O 0.6003(3) 0.4378(2) 0.1006(2)
C16 C 0.5735(5) 0.3719(4) 0.0322(3)
C17 C 0.6924(4) 0.3331(3) 0.2161(3)
O7 O 0.7831(3) 0.3062(2) 0.1454(2)
C18 C 0.8704(5) 0.2288(4) 0.1629(4)
C19 C 0.6914(4) 0.2970(3) 0.3078(3)
C20 C 0.5997(4) 0.3294(3) 0.3770(3)
C21 C 0.5100(3) 0.3973(3) 0.3520(2)
C22 C 0.5761(3) 0.1518(3) 0.6650(2)
C23 C 0.6945(3) 0.1497(2) 0.6002(2)
C24 C 0.7151(4) 0.1078(3) 0.5116(6)
C25 C 0.8326(4) 0.1077(3) 0.4690(2)
O8 O 0.8776(3) 0.0717(2) 0.3819(2)
C26 C 1.0072(4) 0.0834(3) 0.3736(3)
O9 O 1.0367(3) 0.1336(2) 0.4525(2)
C27 C 0.9270(3) 0.1465(3) 0.5103(2)
C28 C 0.9091(3) 0.1905(3) 0.5953(2)
C29 C 0.7881(3) 0.1900(2) 0.6407(2)
C30 C 0.7433(3) 0.2296(2) 0.7362(2)
C31 C 0.7996(3) 0.1822(2) 0.8217(2)
O10 O 0.8569(2) 0.0857(2) 0.7991(2)
C32 C 0.9717(3) 0.0743(3) 0.8302(2)
O11 O 1.0324(3) -0.0010(2) 0.8195(2)
C33 C 0.9988(3) 0.1654(2) 0.8728(2)
C34 C 1.1012(3) 0.1903(3) 0.9132(2)
O12 O 1.2038(2) 0.1305(2) 0.9228(2)
C35 C 1.1921(4) 0.0454(3) 0.9787(4)
C36 C 1.1022(3) 0.2871(3) 0.9438(3)
O13 O 1.2054(3) 0.3086(2) 0.9826(2)
C37 C 1.2054(5) 0.4040(4) 1.0216(4)
C38 C 1.0019(4) 0.3517(3) 0.9326(3)
C39 C 0.8990(3) 0.3253(3) 0.8934(2)
C40 C 0.8985(3) 0.2313(2) 0.8639(2)
O14 O 0.6990(2) 0.1720(2) 0.8900(2)
N2 N 0.6027(3) 0.1381(2) 0.8352(2)
C41 C 0.4873(4) 0.1509(4) 0.8971(3)
C42 C 0.6062(3) 0.2052(3) 0.7525(2)
H1 H 0.2424(19) 0.0780(14) 0.6898(15)
H2 H 0.3775(12) 0.0403(6) 0.6530(23)
H3 H 0.2948(30) 0.1008(9) 0.5857(9)
H4 H 0.1948(3) 0.2524(3) 0.6823(3)
H5 H 0.2776(3) 0.2685(3) 0.5875(3)
H6 H 0.2993(4) 0.3619(3) 0.7579(2)
H7 H 0.3988(4) 0.3699(3) 0.6706(2)
H8 H 0.1118(4) 0.4593(3) 0.7670(3)
H9 H -0.1165(4) 0.7199(3) 0.6558(4)
H10 H -0.1822(4) 0.6310(3) 0.6224(4)
H11 H 0.1880(4) 0.5692(3) 0.4553(3)
H12 H 0.4147(3) 0.3898(3) 0.5304(2)
H13 H 0.6437(13) 0.3267(17) 0.0186(19)
H14 H 0.5555(33) 0.4072(4) -0.0242(9)
H15 H 0.5030(21) 0.3372(19) 0.0562(10)
H16 H 0.9198(28) 0.2122(22) 0.1053(7)
H17 H 0.8277(5) 0.1735(11) 0.1872(29)
H18 H 0.9230(26) 0.2483(11) 0.2081(24)
H19 H 0.7527(4) 0.2507(3) 0.3231(3)
H20 H 0.5992(4) 0.3057(3) 0.4387(3)
H21 H 0.5572(3) 0.0850(3) 0.6833(2)
H22 H 0.6519(4) 0.0815(3) 0.4834(3)
H23 H 1.0523(4) 0.0203(3) 0.3706(3)
H24 H 1.0310(4) 0.1197(3) 0.3163(3)
H25 H 0.9724(3) 0.2188(3) 0.6215(2)
H26 H 0.7497(3) 0.3001(2) 0.7359(2)
H27 H 1.2729(5) 0.0154(14) 0.9861(20)
H28 H 1.1449(27) 0.0013(11) 0.9486(12)
H29 H 1.1505(28) 0.0615(5) 1.0394(9)
H30 H 1.2799(20) 0.4089(12) 1.0514(28)
H31 H 1.1348(23) 0.4143(13) 1.0672(22)
H32 H 1.2015(41) 0.4523(4) 0.9721(6)
H33 H 1.0038(4) 0.4152(3) 0.9522(3)
H34 H 0.8319(3) 0.3696(3) 0.8871(2)
H35 H 0.4195(6) 0.1334(25) 0.8645(9)
H36 H 0.4742(17) 0.2175(6) 0.9152(20)
H37 H 0.4927(13) 0.1101(19) 0.9523(12)
H38 H 0.5509(3) 0.2636(3) 0.7644(2)
C43 C 0.6270(5) -0.1078(4) 0.7741(4)
Cl1 Cl 0.6452(2) -0.1258(1) 0.6543(1)
Cl2 Cl 0.4713(2) -0.1083(1) 0.8179(1)
Cl3 Cl 0.7129(2) -0.1948(2) 0.8332(1)
H39 H 0.6562(5) -0.0441(4) 0.7858(4)
loop_
_geom_bond_atom_site_label_1
_geom_bond_atom_site_label_2
_geom_bond_site_symmetry_1
_geom_bond_site_symmetry_2
O1 N1 1_555 1_555
N1 C1 1_555 1_555
C1 H1 1_555 1_555
C2 N1 1_555 1_555
C3 C2 1_555 1_555
C4 C3 1_555 1_555
C5 C4 1_555 1_555
C6 C5 1_555 1_555
O2 C6 1_555 1_555
C7 O2 1_555 1_555
O3 C7 1_555 1_555
C8 C6 1_555 1_555
C9 C8 1_555 1_555
C10 C4 1_555 1_555
C11 C10 1_555 1_555
C12 C11 1_555 1_555
O4 C12 1_555 1_555
C13 O4 1_555 1_555
O5 C13 1_555 1_555
C14 C13 1_555 1_555
C15 C14 1_555 1_555
O6 C15 1_555 1_555
C16 O6 1_555 1_555
C17 C15 1_555 1_555
O7 C17 1_555 1_555
C18 O7 1_555 1_555
C19 C17 1_555 1_555
C20 C19 1_555 1_555
C21 C12 1_555 1_555
C22 O1 1_555 1_555
C23 C22 1_555 1_555
C24 C23 1_555 1_555
C25 C24 1_555 1_555
O8 C25 1_555 1_555
C26 O8 1_555 1_555
O9 C26 1_555 1_555
C27 C25 1_555 1_555
C28 C27 1_555 1_555
C29 C23 1_555 1_555
C30 C29 1_555 1_555
C31 C30 1_555 1_555
O10 C31 1_555 1_555
C32 O10 1_555 1_555
O11 C32 1_555 1_555
C33 C32 1_555 1_555
C34 C33 1_555 1_555
O12 C34 1_555 1_555
C35 O12 1_555 1_555
C36 C34 1_555 1_555
O13 C36 1_555 1_555
C37 O13 1_555 1_555
C38 C36 1_555 1_555
C39 C38 1_555 1_555
C40 C31 1_555 1_555
O14 C31 1_555 1_555
N2 O14 1_555 1_555
C41 N2 1_555 1_555
C42 C22 1_555 1_555
C43 Cl1 1_555 1_555
Cl2 C43 1_555 1_555
Cl3 C43 1_555 1_555
H2 C1 1_555 1_555
H3 C1 1_555 1_555
H4 C2 1_555 1_555
H5 C2 1_555 1_555
H6 C3 1_555 1_555
H7 C3 1_555 1_555
H8 C5 1_555 1_555
H9 C7 1_555 1_555
H10 C7 1_555 1_555
H11 C9 1_555 1_555
H12 C11 1_555 1_555
H13 C16 1_555 1_555
H14 C16 1_555 1_555
H15 C16 1_555 1_555
H16 C18 1_555 1_555
H17 C18 1_555 1_555
H18 C18 1_555 1_555
H19 C19 1_555 1_555
H20 C20 1_555 1_555
H21 C22 1_555 1_555
H22 C24 1_555 1_555
H23 C26 1_555 1_555
H24 C26 1_555 1_555
H25 C28 1_555 1_555
H26 C30 1_555 1_555
H27 C35 1_555 1_555
H28 C35 1_555 1_555
H29 C35 1_555 1_555
H30 C37 1_555 1_555
H31 C37 1_555 1_555
H32 C37 1_555 1_555
H33 C38 1_555 1_555
H34 C39 1_555 1_555
H35 C41 1_555 1_555
H36 C41 1_555 1_555
H37 C41 1_555 1_555
H38 C42 1_555 1_555
H39 C43 1_555 1_555
O3 C8 1_555 1_555
C9 C10 1_555 1_555
C14 C21 1_555 1_555
C20 C21 1_555 1_555
O9 C27 1_555 1_555
C28 C29 1_555 1_555
C30 C42 1_555 1_555
C33 C40 1_555 1_555
C39 C40 1_555 1_555
N2 C42 1_555 1_555

#END
