
#######################################################################
#
#                 Cambridge Crystallographic Data Centre
#                                CCDC 
#
#######################################################################
#
# If this CIF has been generated from an entry in the Cambridge 
# Structural Database, then it will include bibliographic, chemical, 
# crystal, experimental, refinement or atomic coordinate data resulting 
# from the CCDC's data processing and validation procedures.
#
#######################################################################

data_TIVDUY
_chemical_formula_moiety         'C13 H9 N3 O1'
_chemical_name_systematic        (E)-4-(4-Hydroxyphenyldiazenyl)benzonitrile
_symmetry_cell_setting           monoclinic
_symmetry_space_group_name_H-M   'C c'
_symmetry_Int_Tables_number      9
_space_group_name_Hall           'C -2yc'
loop_
_symmetry_equiv_pos_site_id
_symmetry_equiv_pos_as_xyz
1 x,y,z
2 x,-y,1/2+z
3 1/2+x,1/2+y,z
4 1/2+x,1/2-y,1/2+z
_cell_length_a                   6.5307(13)
_cell_length_b                   10.747(2)
_cell_length_c                   15.851(3)
_cell_angle_alpha                90
_cell_angle_beta                 93.54(3)
_cell_angle_gamma                90
_cell_volume                     1110.39
_exptl_crystal_colour            yellow
_exptl_crystal_description       block
_cell_formula_units_Z            4
_exptl_crystal_recrystallization_method 'ethyl acetate'
loop_
_atom_site_label
_atom_site_type_symbol
_atom_site_fract_x
_atom_site_fract_y
_atom_site_fract_z
N1 N 0.2824(5) 0.0455(4) 0.1896(2)
N2 N 0.1650(5) 0.1302(4) 0.1608(2)
C1 C 0.4581(6) 0.0892(5) 0.2376(3)
O1 O 0.9855(5) 0.1997(4) 0.3729(2)
H1 H 1.0618 0.1372 0.3848
C2 C -0.3689(6) 0.0230(5) 0.0211(3)
C3 C -0.0130(6) 0.0862(4) 0.1136(3)
C4 C 0.7767(7) 0.0358(5) 0.3110(3)
H2 H 0.8709 -0.0242 0.3303
C5 C -0.5570(7) -0.0106(5) -0.0251(3)
C6 C -0.0538(7) -0.0375(5) 0.0957(3)
H3 H 0.0385 -0.0988 0.1146
C7 C -0.3273(7) 0.1461(5) 0.0391(3)
H4 H -0.4188 0.2075 0.0197
C8 C -0.2315(6) -0.0695(5) 0.0497(3)
H5 H -0.2600 -0.1526 0.0377
C9 C 0.4922(6) 0.2126(4) 0.2580(3)
H6 H 0.3959 0.2725 0.2407
C10 C 0.8129(7) 0.1589(4) 0.3289(3)
C11 C 0.6011(7) 0.0010(5) 0.2644(3)
H7 H 0.5788 -0.0823 0.2511
C12 C 0.6682(7) 0.2471(5) 0.3040(3)
H8 H 0.6898 0.3302 0.3183
N3 N -0.7085(7) -0.0361(5) -0.0604(3)
C13 C -0.1502(7) 0.1783(5) 0.0860(3)
H9 H -0.1228 0.2613 0.0990
loop_
_geom_bond_atom_site_label_1
_geom_bond_atom_site_label_2
_geom_bond_site_symmetry_1
_geom_bond_site_symmetry_2
N1 N2 1_555 1_555
N2 C3 1_555 1_555
C1 N1 1_555 1_555
O1 H1 1_555 1_555
C2 C5 1_555 1_555
C3 C6 1_555 1_555
C4 H2 1_555 1_555
C5 N3 1_555 1_555
C6 H3 1_555 1_555
C7 C2 1_555 1_555
H4 C7 1_555 1_555
C8 C2 1_555 1_555
H5 C8 1_555 1_555
C9 C1 1_555 1_555
H6 C9 1_555 1_555
C10 O1 1_555 1_555
C11 C1 1_555 1_555
H7 C11 1_555 1_555
C12 C9 1_555 1_555
H8 C12 1_555 1_555
C13 C3 1_555 1_555
H9 C13 1_555 1_555
C4 C10 1_555 1_555
C4 C11 1_555 1_555
C6 C8 1_555 1_555
C7 C13 1_555 1_555
C10 C12 1_555 1_555

#END
