
#######################################################################
#
#                 Cambridge Crystallographic Data Centre
#                                CCDC 
#
#######################################################################
#
# If this CIF has been generated from an entry in the Cambridge 
# Structural Database, then it will include bibliographic, chemical, 
# crystal, experimental, refinement or atomic coordinate data resulting 
# from the CCDC's data processing and validation procedures.
#
#######################################################################

data_TIVHUC
_chemical_formula_moiety         'C24 H38 O6'
_chemical_name_systematic        
anti-syn-syn-anti-syn-Hexadecahydro-3'H,3''H,3'''H,3''''H-2,2':2',2'':2'',2''':2''',2'''':2'''',2'''''-sexifuran
_symmetry_cell_setting           monoclinic
_symmetry_space_group_name_H-M   'P 21'
_symmetry_Int_Tables_number      4
_space_group_name_Hall           'P 2yb'
loop_
_symmetry_equiv_pos_site_id
_symmetry_equiv_pos_as_xyz
1 x,y,z
2 -x,1/2+y,-z
_cell_length_a                   10.6475(10)
_cell_length_b                   8.5764(10)
_cell_length_c                   12.780(2)
_cell_angle_alpha                90
_cell_angle_beta                 113.614(7)
_cell_angle_gamma                90
_cell_volume                     1069.31
_exptl_crystal_colour            colorless
_exptl_crystal_description       'thick plate'
_chemical_melting_point          '140-142 deg.C'
_cell_formula_units_Z            2
loop_
_atom_site_label
_atom_site_type_symbol
_atom_site_fract_x
_atom_site_fract_y
_atom_site_fract_z
C1 C 1.1816(3) 0.9353(4) 0.8634(2)
H1 H 1.0968 0.8716 0.8246
C2 C 1.2789(3) 0.8452(4) 0.9692(3)
H4 H 1.2573 0.7325 0.9621
H5 H 1.2733 0.8855 1.0398
C4 C 1.4227(7) 0.8761(11) 0.9692(6)
H8 H 1.4646 0.9713 1.0131
H9 H 1.4849 0.7866 1.0017
C5 C 1.3926(3) 0.8960(6) 0.8483(3)
H12 H 1.4546 0.9756 0.8387
H13 H 1.4082 0.7965 0.8161
C6 C 1.1396(2) 1.0964(3) 0.8904(2)
C7 C 1.0624(3) 1.0776(4) 0.9698(2)
H14 H 0.9682 1.1194 0.9326
H15 H 1.0571 0.9662 0.988
C8 C 1.1439(3) 1.1689(4) 1.0778(2)
H16 H 1.0967 1.2677 1.0797
H17 H 1.1555 1.1071 1.1465
C9 C 1.2804(3) 1.2009(6) 1.0734(3)
H18 H 1.3098 1.3091 1.0984
H19 H 1.3505 1.1286 1.1248
C10 C 1.0621(2) 1.2070(3) 0.7864(2)
C11 C 1.1629(3) 1.2739(4) 0.7369(2)
H20 H 1.2469 1.2093 0.7615
H21 H 1.1193 1.2744 0.6524
C12 C 1.1978(4) 1.4383(5) 0.7819(3)
H22 H 1.1701 1.514 0.7181
H23 H 1.2975 1.4488 0.8275
C13 C 1.1180(3) 1.4669(4) 0.8565(4)
H24 H 1.1812 1.4692 0.9381
H25 H 1.069 1.5679 0.8366
C14 C 0.9283(2) 1.1332(3) 0.69217(19)
C15 C 0.9600(3) 1.0498(4) 0.5980(2)
H26 H 0.9346 1.1171 0.5296
H27 H 1.059 1.0251 0.626
C16 C 0.8760(3) 0.9016(4) 0.5691(2)
H28 H 0.9333 0.8112 0.5679
H29 H 0.7985 0.9104 0.4935
C17 C 0.8239(3) 0.8831(3) 0.6628(2)
H30 H 0.7226 0.8893 0.6305
H31 H 0.8521 0.7808 0.7009
C18 C 0.8057(2) 1.2518(3) 0.6398(2)
C19 C 0.8443(3) 1.4053(4) 0.5980(3)
H32 H 0.8563 1.4903 0.6536
H33 H 0.9301 1.3934 0.586
C20 C 0.7228(3) 1.4390(5) 0.4848(3)
H34 H 0.6493 1.4964 0.4973
H35 H 0.7516 1.4994 0.4322
C21 C 0.6771(4) 1.2768(5) 0.4400(3)
H36 H 0.5778 1.2759 0.3907
H37 H 0.7278 1.24 0.3946
C22 C 0.7333(2) 1.2799(4) 0.7220(2)
H38 H 0.805 1.2877 0.8016
C23 C 0.6272(3) 1.1578(5) 0.7207(3)
H39 H 0.5997 1.0919 0.6514
H40 H 0.6652 1.0898 0.7888
C24 C 0.5081(3) 1.2481(6) 0.7210(4)
H43 H 0.5176 1.2708 0.7998
H44 H 0.4208 1.1923 0.6796
C26 C 0.5169(3) 1.3961(7) 0.6589(4)
H47 H 0.4722 1.381 0.5751
H48 H 0.4716 1.4839 0.6802
O1 O 1.2544(2) 0.9434(3) 0.78940(16)
O2 O 1.26535(17) 1.1791(3) 0.95819(14)
O3 O 1.02286(18) 1.3418(2) 0.83492(17)
O4 O 0.88245(16) 1.0075(2) 0.74347(13)
O5 O 0.70551(18) 1.1791(3) 0.53756(14)
O6 O 0.6592(2) 1.4263(3) 0.6935(2)
H2? H 1.3166 0.9144 1.0367
H3? H 1.2312 0.7566 0.987
C3? C 1.3890(9) 0.7894(15) 0.9345(10)
H6? H 1.4784 0.7887 1.001
H7? H 1.3688 0.6823 0.9033
H10? H 1.4523 0.9865 0.8836
H11? H 1.4268 0.8433 0.7959
H41? H 0.6317 1.1377 0.7984
H42? H 0.6392 1.0584 0.6863
C25? C 0.4854(11) 1.2438(17) 0.6411(13)
H45? H 0.4577 1.2161 0.5597
H46? H 0.4105 1.216 0.6649
H49? H 0.4875 1.4353 0.7183
H50? H 0.4653 1.4542 0.5876
loop_
_geom_bond_atom_site_label_1
_geom_bond_atom_site_label_2
_geom_bond_site_symmetry_1
_geom_bond_site_symmetry_2
C1 H1 1_555 1_555
C2 C1 1_555 1_555
H4 C2 1_555 1_555
H5 C2 1_555 1_555
C4 C2 1_555 1_555
H8 C4 1_555 1_555
H9 C4 1_555 1_555
C5 C4 1_555 1_555
H12 C5 1_555 1_555
H13 C5 1_555 1_555
C6 C1 1_555 1_555
C7 C6 1_555 1_555
H14 C7 1_555 1_555
H15 C7 1_555 1_555
C8 C7 1_555 1_555
H16 C8 1_555 1_555
H17 C8 1_555 1_555
C9 C8 1_555 1_555
H18 C9 1_555 1_555
H19 C9 1_555 1_555
C10 C6 1_555 1_555
C11 C10 1_555 1_555
H20 C11 1_555 1_555
H21 C11 1_555 1_555
C12 C11 1_555 1_555
H22 C12 1_555 1_555
H23 C12 1_555 1_555
C13 C12 1_555 1_555
H24 C13 1_555 1_555
H25 C13 1_555 1_555
C14 C10 1_555 1_555
C15 C14 1_555 1_555
H26 C15 1_555 1_555
H27 C15 1_555 1_555
C16 C15 1_555 1_555
H28 C16 1_555 1_555
H29 C16 1_555 1_555
C17 C16 1_555 1_555
H30 C17 1_555 1_555
H31 C17 1_555 1_555
C18 C14 1_555 1_555
C19 C18 1_555 1_555
H32 C19 1_555 1_555
H33 C19 1_555 1_555
C20 C19 1_555 1_555
H34 C20 1_555 1_555
H35 C20 1_555 1_555
C21 C20 1_555 1_555
H36 C21 1_555 1_555
H37 C21 1_555 1_555
C22 C18 1_555 1_555
H38 C22 1_555 1_555
C23 C22 1_555 1_555
H39 C23 1_555 1_555
H40 C23 1_555 1_555
C24 C23 1_555 1_555
H43 C24 1_555 1_555
H44 C24 1_555 1_555
C26 C24 1_555 1_555
H47 C26 1_555 1_555
H48 C26 1_555 1_555
O1 C1 1_555 1_555
O2 C6 1_555 1_555
O3 C10 1_555 1_555
O4 C14 1_555 1_555
O5 C18 1_555 1_555
O6 C22 1_555 1_555
C5 O1 1_555 1_555
C9 O2 1_555 1_555
C13 O3 1_555 1_555
C17 O4 1_555 1_555
C21 O5 1_555 1_555
C26 O6 1_555 1_555

#END
