
#######################################################################
#
#                 Cambridge Crystallographic Data Centre
#                                CCDC 
#
#######################################################################
#
# If this CIF has been generated from an entry in the Cambridge 
# Structural Database, then it will include bibliographic, chemical, 
# crystal, experimental, refinement or atomic coordinate data resulting 
# from the CCDC's data processing and validation procedures.
#
#######################################################################

data_TIVJOY
_chemical_formula_moiety         'C24 H38 O6'
_chemical_name_systematic        
anti-syn-anti-syn-syn-Hexadecahydro-3'H,3''H,3'''H,3''''H-2,2':2',2'':2'',2''':2''',2'''':2'''',2'''''-sexifuran
_symmetry_cell_setting           monoclinic
_symmetry_space_group_name_H-M   'P 21/n'
_symmetry_Int_Tables_number      14
_space_group_name_Hall           '-P 2yn'
loop_
_symmetry_equiv_pos_site_id
_symmetry_equiv_pos_as_xyz
1 x,y,z
2 1/2-x,1/2+y,1/2-z
3 -x,-y,-z
4 1/2+x,1/2-y,1/2+z
_cell_length_a                   11.961(1)
_cell_length_b                   14.4933(10)
_cell_length_c                   13.1231(10)
_cell_angle_alpha                90
_cell_angle_beta                 110.603(4)
_cell_angle_gamma                90
_cell_volume                     2129.44
_exptl_crystal_colour            colorless
_exptl_crystal_description       rod
_chemical_melting_point          '162-164 deg.C'
_cell_formula_units_Z            4
loop_
_atom_site_label
_atom_site_type_symbol
_atom_site_fract_x
_atom_site_fract_y
_atom_site_fract_z
C1 C 0.33359(11) 0.16356(9) 0.78439(10)
H1 H 0.3503 0.2072 0.847
C2 C 0.42281(12) 0.08310(10) 0.81860(12)
H2 H 0.4478 0.0714 0.8978
H3 H 0.3877 0.026 0.7789
C3 C 0.52848(14) 0.11616(11) 0.78765(14)
H4 H 0.6014 0.1227 0.8531
H5 H 0.5449 0.0725 0.7366
C4 C 0.48844(12) 0.20869(10) 0.73393(12)
H6 H 0.5216 0.2594 0.7865
H7 H 0.5157 0.2169 0.6715
C5 C 0.19950(11) 0.14084(8) 0.74057(10)
C6 C 0.17012(13) 0.08303(10) 0.63426(11)
H8 H 0.2427 0.0737 0.6156
H9 H 0.1373 0.022 0.6428
C7 C 0.07754(14) 0.13946(11) 0.54648(11)
H10 H 0.0917 0.1363 0.4766
H11 H -0.0044 0.1174 0.5349
C8 C 0.09597(13) 0.23651(11) 0.59188(10)
H12 H 0.1584 0.2687 0.572
H13 H 0.0209 0.2724 0.5637
C9 C 0.15287(11) 0.09454(9) 0.82609(10)
C10 C 0.02113(12) 0.06463(9) 0.77264(11)
H14 H -0.0249 0.0817 0.8195
H15 H -0.0157 0.0949 0.701
C11 C 0.02228(15) -0.04044(11) 0.75912(13)
H16 H -0.0342 -0.0702 0.7888
H17 H -0.0006 -0.0571 0.6813
C12 C 0.14894(15) -0.07072(10) 0.82186(13)
H18 H 0.1512 -0.1085 0.8854
H19 H 0.18 -0.1084 0.7747
C13 C 0.17395(11) 0.14656(9) 0.93792(9)
C14 C 0.13161(12) 0.08096(9) 1.01188(10)
H20 H 0.0617 0.1073 1.0254
H21 H 0.1096 0.0196 0.9774
C15 C 0.23851(13) 0.07336(11) 1.11790(11)
H22 H 0.2354 0.1211 1.1708
H23 H 0.2424 0.0116 1.1513
C16 C 0.34281(12) 0.08886(10) 1.08052(11)
H24 H 0.4127 0.1127 1.1409
H25 H 0.3657 0.0307 1.0534
C17 C 0.12297(11) 0.24776(8) 0.93834(9)
C18 C 0.19969(12) 0.32474(8) 0.91304(10)
H26 H 0.2764 0.2996 0.9124
H27 H 0.1565 0.3536 0.8416
C19 C 0.22065(12) 0.39453(9) 1.00524(10)
H28 H 0.2973 0.4276 1.0208
H29 H 0.1547 0.4399 0.9883
C20 C 0.22352(12) 0.33245(9) 1.09859(10)
H30 H 0.303 0.3033 1.1317
H31 H 0.2052 0.3678 1.1554
C21 C -0.01065(11) 0.26181(9) 0.86935(10)
H32 H -0.0262 0.2359 0.795
C22 C -0.10274(12) 0.22111(10) 0.91489(11)
H33 H -0.1398 0.1646 0.8747
H34 H -0.0647 0.2058 0.9931
C23 C -0.19513(14) 0.29702(12) 0.89832(13)
H35 H -0.2578 0.2936 0.8251
H36 H -0.2329 0.2945 0.9543
C24 C -0.11922(14) 0.38202(11) 0.91055(12)
H37 H -0.1688 0.4355 0.8744
H38 H -0.0777 0.3969 0.9884
O1 O 0.36143(8) 0.20874(6) 0.69796(7)
O2 O 0.13262(8) 0.22532(6) 0.70755(6)
O3 O 0.22043(9) 0.01041(6) 0.85739(8)
O4 O 0.30121(7) 0.15560(6) 0.99458(6)
O5 O 0.13375(8) 0.26448(6) 1.05092(6)
O6 O -0.03544(8) 0.35992(6) 0.85966(7)
loop_
_geom_bond_atom_site_label_1
_geom_bond_atom_site_label_2
_geom_bond_site_symmetry_1
_geom_bond_site_symmetry_2
C1 H1 1_555 1_555
C2 C1 1_555 1_555
H2 C2 1_555 1_555
H3 C2 1_555 1_555
C3 C2 1_555 1_555
H4 C3 1_555 1_555
H5 C3 1_555 1_555
C4 C3 1_555 1_555
H6 C4 1_555 1_555
H7 C4 1_555 1_555
C5 C1 1_555 1_555
C6 C5 1_555 1_555
H8 C6 1_555 1_555
H9 C6 1_555 1_555
C7 C6 1_555 1_555
H10 C7 1_555 1_555
H11 C7 1_555 1_555
C8 C7 1_555 1_555
H12 C8 1_555 1_555
H13 C8 1_555 1_555
C9 C5 1_555 1_555
C10 C9 1_555 1_555
H14 C10 1_555 1_555
H15 C10 1_555 1_555
C11 C10 1_555 1_555
H16 C11 1_555 1_555
H17 C11 1_555 1_555
C12 C11 1_555 1_555
H18 C12 1_555 1_555
H19 C12 1_555 1_555
C13 C9 1_555 1_555
C14 C13 1_555 1_555
H20 C14 1_555 1_555
H21 C14 1_555 1_555
C15 C14 1_555 1_555
H22 C15 1_555 1_555
H23 C15 1_555 1_555
C16 C15 1_555 1_555
H24 C16 1_555 1_555
H25 C16 1_555 1_555
C17 C13 1_555 1_555
C18 C17 1_555 1_555
H26 C18 1_555 1_555
H27 C18 1_555 1_555
C19 C18 1_555 1_555
H28 C19 1_555 1_555
H29 C19 1_555 1_555
C20 C19 1_555 1_555
H30 C20 1_555 1_555
H31 C20 1_555 1_555
C21 C17 1_555 1_555
H32 C21 1_555 1_555
C22 C21 1_555 1_555
H33 C22 1_555 1_555
H34 C22 1_555 1_555
C23 C22 1_555 1_555
H35 C23 1_555 1_555
H36 C23 1_555 1_555
C24 C23 1_555 1_555
H37 C24 1_555 1_555
H38 C24 1_555 1_555
O1 C1 1_555 1_555
O2 C5 1_555 1_555
O3 C9 1_555 1_555
O4 C13 1_555 1_555
O5 C17 1_555 1_555
O6 C21 1_555 1_555
C4 O1 1_555 1_555
C8 O2 1_555 1_555
C12 O3 1_555 1_555
C16 O4 1_555 1_555
C20 O5 1_555 1_555
C24 O6 1_555 1_555

#END
