
#######################################################################
#
#                 Cambridge Crystallographic Data Centre
#                                CCDC 
#
#######################################################################
#
# If this CIF has been generated from an entry in the Cambridge 
# Structural Database, then it will include bibliographic, chemical, 
# crystal, experimental, refinement or atomic coordinate data resulting 
# from the CCDC's data processing and validation procedures.
#
#######################################################################

data_TIVJEO
_chemical_formula_moiety         'C24 H38 O6'
_chemical_name_systematic        
syn-syn-syn-anti-anti-Hexadecahydro-3'H,3''H,3'''H,3''''H-2,2':2',2'':2'',2''':2''',2'''':2'''',2'''''-sexifuran
_symmetry_cell_setting           monoclinic
_symmetry_space_group_name_H-M   'P 21/n'
_symmetry_Int_Tables_number      14
_space_group_name_Hall           '-P 2yn'
loop_
_symmetry_equiv_pos_site_id
_symmetry_equiv_pos_as_xyz
1 x,y,z
2 1/2-x,1/2+y,1/2-z
3 -x,-y,-z
4 1/2+x,1/2-y,1/2+z
_cell_length_a                   11.9083(10)
_cell_length_b                   14.1740(10)
_cell_length_c                   13.367(2)
_cell_angle_alpha                90
_cell_angle_beta                 109.920(4)
_cell_angle_gamma                90
_cell_volume                     2121.2
_exptl_crystal_colour            colorless
_exptl_crystal_description       plate
_chemical_melting_point          '157-159 deg.C'
_cell_formula_units_Z            4
loop_
_atom_site_label
_atom_site_type_symbol
_atom_site_fract_x
_atom_site_fract_y
_atom_site_fract_z
C1 C 0.50911(14) 0.27256(11) 0.15489(14)
H1 H 0.5209 0.2516 0.2292
C2 C 0.60874(15) 0.23009(13) 0.12099(15)
H2 H 0.6381 0.1701 0.1588
H3 H 0.5811 0.2186 0.0433
C3 C 0.70498(17) 0.30587(15) 0.15309(18)
H4 H 0.7536 0.3016 0.2296
H5 H 0.7581 0.3021 0.1101
C4 C 0.63054(18) 0.39440(14) 0.12896(17)
H6 H 0.6755 0.4479 0.1718
H7 H 0.6078 0.4108 0.0526
C5 C 0.37854(14) 0.25165(11) 0.08494(12)
C6 C 0.29364(15) 0.32706(11) 0.10261(13)
H8 H 0.217 0.2984 0.1002
H9 H 0.3303 0.3587 0.1722
C7 C 0.27438(17) 0.39717(12) 0.01093(14)
H10 H 0.1959 0.4289 -0.0076
H11 H 0.3384 0.4453 0.0283
C8 C 0.27964(16) 0.33323(13) -0.07658(14)
H12 H 0.2014 0.3024 -0.1116
H13 H 0.3018 0.369 -0.1307
C9 C 0.33863(14) 0.14512(11) 0.09227(12)
C10 C 0.39604(15) 0.08114(12) 0.02724(13)
H14 H 0.4465 0.1192 -0.0029
H15 H 0.4461 0.0315 0.0733
C11 C 0.29277(18) 0.03746(18) -0.06085(18)
H16 H 0.3057 0.0426 -0.13
H17 H 0.2838 -0.03 -0.0458
C12 C 0.18487(17) 0.09200(14) -0.06289(15)
H18 H 0.1626 0.1374 -0.1228
H19 H 0.1168 0.0487 -0.0726
C13 C 0.35891(13) 0.09845(11) 0.20486(12)
C14 C 0.31945(15) -0.00661(11) 0.19184(14)
H20 H 0.2728 -0.0216 0.2385
H21 H 0.2693 -0.0198 0.1172
C15 C 0.43368(16) -0.06530(12) 0.22316(15)
H22 H 0.4281 -0.1201 0.2671
H23 H 0.4496 -0.0882 0.1593
C16 C 0.53001(17) 0.00211(12) 0.28625(16)
H24 H 0.5489 -0.0087 0.3634
H25 H 0.6036 -0.0079 0.2689
C17 C 0.30433(14) 0.14894(11) 0.28266(12)
C18 C 0.34337(16) 0.09995(12) 0.39291(14)
H26 H 0.2742 0.0904 0.4169
H27 H 0.3807 0.038 0.3903
C19 C 0.43367(19) 0.16785(14) 0.46693(15)
H28 H 0.4283 0.1673 0.5392
H29 H 0.5163 0.1517 0.4718
C20 C 0.39679(18) 0.26127(13) 0.41420(14)
H30 H 0.3327 0.2896 0.436
H31 H 0.4655 0.3052 0.4332
C21 C 0.16763(14) 0.16150(11) 0.23758(13)
H32 H 0.1479 0.2025 0.173
C22 C 0.08485(15) 0.07609(13) 0.21018(15)
H33 H 0.1156 0.0243 0.262
H34 H 0.0734 0.0525 0.1376
C23 C -0.03036(16) 0.11732(14) 0.21755(15)
H35 H -0.076 0.1517 0.1518
H36 H -0.0816 0.0677 0.2316
C24 C 0.01698(17) 0.18335(14) 0.31086(17)
H37 H -0.0354 0.2393 0.3007
H38 H 0.0194 0.1511 0.3773
O1 O 0.52774(10) 0.37424(8) 0.15578(11)
O2 O 0.36917(10) 0.26462(8) -0.02581(9)
O3 O 0.21199(9) 0.14103(8) 0.03520(9)
O4 O 0.48701(10) 0.09606(7) 0.25915(9)
O5 O 0.35483(10) 0.24236(8) 0.30301(9)
O6 O 0.13381(10) 0.21120(8) 0.31749(10)
loop_
_geom_bond_atom_site_label_1
_geom_bond_atom_site_label_2
_geom_bond_site_symmetry_1
_geom_bond_site_symmetry_2
C1 H1 1_555 1_555
C2 C1 1_555 1_555
H2 C2 1_555 1_555
H3 C2 1_555 1_555
C3 C2 1_555 1_555
H4 C3 1_555 1_555
H5 C3 1_555 1_555
C4 C3 1_555 1_555
H6 C4 1_555 1_555
H7 C4 1_555 1_555
C5 C1 1_555 1_555
C6 C5 1_555 1_555
H8 C6 1_555 1_555
H9 C6 1_555 1_555
C7 C6 1_555 1_555
H10 C7 1_555 1_555
H11 C7 1_555 1_555
C8 C7 1_555 1_555
H12 C8 1_555 1_555
H13 C8 1_555 1_555
C9 C5 1_555 1_555
C10 C9 1_555 1_555
H14 C10 1_555 1_555
H15 C10 1_555 1_555
C11 C10 1_555 1_555
H16 C11 1_555 1_555
H17 C11 1_555 1_555
C12 C11 1_555 1_555
H18 C12 1_555 1_555
H19 C12 1_555 1_555
C13 C9 1_555 1_555
C14 C13 1_555 1_555
H20 C14 1_555 1_555
H21 C14 1_555 1_555
C15 C14 1_555 1_555
H22 C15 1_555 1_555
H23 C15 1_555 1_555
C16 C15 1_555 1_555
H24 C16 1_555 1_555
H25 C16 1_555 1_555
C17 C13 1_555 1_555
C18 C17 1_555 1_555
H26 C18 1_555 1_555
H27 C18 1_555 1_555
C19 C18 1_555 1_555
H28 C19 1_555 1_555
H29 C19 1_555 1_555
C20 C19 1_555 1_555
H30 C20 1_555 1_555
H31 C20 1_555 1_555
C21 C17 1_555 1_555
H32 C21 1_555 1_555
C22 C21 1_555 1_555
H33 C22 1_555 1_555
H34 C22 1_555 1_555
C23 C22 1_555 1_555
H35 C23 1_555 1_555
H36 C23 1_555 1_555
C24 C23 1_555 1_555
H37 C24 1_555 1_555
H38 C24 1_555 1_555
O1 C1 1_555 1_555
O2 C5 1_555 1_555
O3 C9 1_555 1_555
O4 C13 1_555 1_555
O5 C17 1_555 1_555
O6 C21 1_555 1_555
C4 O1 1_555 1_555
C8 O2 1_555 1_555
C12 O3 1_555 1_555
C16 O4 1_555 1_555
C20 O5 1_555 1_555
C24 O6 1_555 1_555

#END
