
#######################################################################
#
#                 Cambridge Crystallographic Data Centre
#                                CCDC 
#
#######################################################################
#
# If this CIF has been generated from an entry in the Cambridge 
# Structural Database, then it will include bibliographic, chemical, 
# crystal, experimental, refinement or atomic coordinate data resulting 
# from the CCDC's data processing and validation procedures.
#
#######################################################################

data_TIVJUF
_chemical_name_common            
'2,4,6,8,10,12-hexanitrohexaazaisowurtzitane 1,3-dinitrobenzene'
_chemical_formula_moiety         'C6 H6 N12 O12,C6 H4 N2 O4'
_chemical_name_systematic        
'2,4,6,8,10,12-hexanitro-2,4,6,8,10,12-hexaazatetracyclo[5.5.0.0^3,11^.0^5,9^]dodecane 1,3-dinitrobenzene'
_symmetry_cell_setting           orthorhombic
_symmetry_space_group_name_H-M   'P b c a'
_symmetry_Int_Tables_number      61
_space_group_name_Hall           '-P 2ac 2ab'
loop_
_symmetry_equiv_pos_site_id
_symmetry_equiv_pos_as_xyz
1 x,y,z
2 1/2-x,-y,1/2+z
3 -x,1/2+y,1/2-z
4 1/2+x,1/2-y,-z
5 -x,-y,-z
6 1/2+x,y,1/2-z
7 x,1/2-y,1/2+z
8 1/2-x,1/2+y,z
_cell_length_a                   9.4703(6)
_cell_length_b                   13.4589(8)
_cell_length_c                   33.620(2)
_cell_angle_alpha                90
_cell_angle_beta                 90
_cell_angle_gamma                90
_cell_volume                     4285.2
_exptl_crystal_colour            colorless
_exptl_crystal_description       prismatic
_cell_formula_units_Z            8
loop_
_atom_site_label
_atom_site_type_symbol
_atom_site_fract_x
_atom_site_fract_y
_atom_site_fract_z
O1 O 0.1197(2) 0.75390(11) 0.40337(5)
O2 O 0.0151(2) 0.64290(12) 0.43976(4)
O3 O 0.42361(15) 0.58940(12) 0.34129(6)
O4 O 0.38709(15) 0.43195(11) 0.33795(5)
O5 O -0.15713(15) 0.81797(10) 0.31300(5)
O6 O -0.32824(13) 0.71982(10) 0.32927(4)
O7 O 0.19477(13) 0.64013(9) 0.25187(4)
O8 O 0.08560(16) 0.50681(10) 0.23250(4)
O9 O -0.17851(15) 0.47197(11) 0.43217(4)
O10 O -0.33994(14) 0.52655(12) 0.39244(4)
O11 O 0.13435(17) 0.29816(11) 0.29921(5)
O12 O -0.04800(17) 0.33334(10) 0.26296(4)
N1 N 0.09705(15) 0.60290(10) 0.38116(4)
N2 N 0.07423(18) 0.67089(12) 0.40987(5)
N3 N 0.20354(13) 0.53502(10) 0.32868(4)
N4 N 0.35066(16) 0.51733(13) 0.33764(5)
N5 N -0.10521(13) 0.66479(10) 0.33491(4)
N6 N -0.20573(16) 0.74015(10) 0.32397(4)
N7 N -0.00210(13) 0.59507(10) 0.28212(4)
N8 N 0.10008(14) 0.57959(10) 0.25374(4)
N9 N -0.12110(14) 0.51165(10) 0.37009(4)
N10 N -0.22024(16) 0.50383(11) 0.40056(4)
N11 N 0.00492(14) 0.43143(9) 0.31418(4)
N12 N 0.03361(17) 0.34844(11) 0.28974(5)
C1 C 0.15040(17) 0.63108(12) 0.34223(5)
H1 H 0.2261 0.6805 0.3442
C2 C 0.02666(17) 0.50662(12) 0.37992(5)
H2 H 0.0421 0.4693 0.4046
C3 C 0.10670(17) 0.45767(12) 0.34403(5)
H3 H 0.1596 0.3990 0.3528
C4 C 0.02793(16) 0.66692(11) 0.31352(4)
H4 H 0.0474 0.7330 0.3026
C5 C -0.15947(16) 0.56197(11) 0.33393(4)
H5 H -0.2620 0.5611 0.3300
C6 C -0.08149(17) 0.50999(11) 0.29849(5)
H6 H -0.1492 0.4843 0.2790
O13 O 0.50269(18) 0.77923(12) 0.39984(4)
O14 O 0.72278(19) 0.75457(13) 0.41342(4)
O15 O 0.85126(18) 0.58742(13) 0.53427(5)
O16 O 0.69007(19) 0.53162(13) 0.57340(5)
N13 N 0.5969(2) 0.74588(12) 0.42050(5)
N14 N 0.7278(2) 0.57489(12) 0.54327(5)
C7 C 0.5559(2) 0.69343(13) 0.45726(5)
C8 C 0.6617(2) 0.65843(13) 0.48164(5)
H7 H 0.7566 0.6645 0.4749
C9 C 0.6191(2) 0.61397(13) 0.51650(5)
C10 C 0.4797(2) 0.60357(13) 0.52734(6)
H8 H 0.4551 0.5742 0.5514
C11 C 0.3779(2) 0.63788(14) 0.50158(6)
H9 H 0.2830 0.6304 0.5080
C12 C 0.4151(2) 0.68322(14) 0.46629(6)
H10 H 0.3462 0.7065 0.4489
loop_
_geom_bond_atom_site_label_1
_geom_bond_atom_site_label_2
_geom_bond_site_symmetry_1
_geom_bond_site_symmetry_2
O1 N2 1_555 1_555
O2 N2 1_555 1_555
O3 N4 1_555 1_555
O4 N4 1_555 1_555
O5 N6 1_555 1_555
O6 N6 1_555 1_555
O7 N8 1_555 1_555
O8 N8 1_555 1_555
O9 N10 1_555 1_555
O10 N10 1_555 1_555
O11 N12 1_555 1_555
O12 N12 1_555 1_555
N1 N2 1_555 1_555
N3 N4 1_555 1_555
N5 N6 1_555 1_555
N7 N8 1_555 1_555
N9 N10 1_555 1_555
N11 N12 1_555 1_555
C1 N1 1_555 1_555
H1 C1 1_555 1_555
C2 N1 1_555 1_555
H2 C2 1_555 1_555
C3 N3 1_555 1_555
H3 C3 1_555 1_555
C4 N5 1_555 1_555
H4 C4 1_555 1_555
C5 N5 1_555 1_555
H5 C5 1_555 1_555
C6 N7 1_555 1_555
H6 C6 1_555 1_555
O13 N13 1_555 1_555
O14 N13 1_555 1_555
O15 N14 1_555 1_555
O16 N14 1_555 1_555
N13 C7 1_555 1_555
N14 C9 1_555 1_555
C7 C8 1_555 1_555
C8 H7 1_555 1_555
C9 C8 1_555 1_555
C10 C9 1_555 1_555
H8 C10 1_555 1_555
C11 C10 1_555 1_555
H9 C11 1_555 1_555
C12 C7 1_555 1_555
H10 C12 1_555 1_555
N3 C1 1_555 1_555
N7 C4 1_555 1_555
N9 C2 1_555 1_555
N9 C5 1_555 1_555
N11 C3 1_555 1_555
N11 C6 1_555 1_555
C1 C4 1_555 1_555
C2 C3 1_555 1_555
C5 C6 1_555 1_555
C11 C12 1_555 1_555

#END
