
#######################################################################
#
#                 Cambridge Crystallographic Data Centre
#                                CCDC 
#
#######################################################################
#
# If this CIF has been generated from an entry in the Cambridge 
# Structural Database, then it will include bibliographic, chemical, 
# crystal, experimental, refinement or atomic coordinate data resulting 
# from the CCDC's data processing and validation procedures.
#
#######################################################################

data_TIVKIU
_chemical_formula_moiety         'C28 H23 Cl1 N4 O2'
_chemical_name_systematic        
1-Benzyl-7-chloro-3-((1-(2-hydroxybenzyl)-1H-1,2,3-triazol-4-yl)methyl)-3-(prop-2-yn-1-yl)-1,3-dihydro-2H-indol-2-one
_symmetry_cell_setting           orthorhombic
_symmetry_space_group_name_H-M   'P 21 21 21'
_symmetry_Int_Tables_number      19
_space_group_name_Hall           'P 2ac 2ab'
loop_
_symmetry_equiv_pos_site_id
_symmetry_equiv_pos_as_xyz
1 x,y,z
2 1/2-x,-y,1/2+z
3 1/2+x,1/2-y,-z
4 -x,1/2+y,1/2-z
_cell_length_a                   24.846(12)
_cell_length_b                   13.173(6)
_cell_length_c                   7.666(4)
_cell_angle_alpha                90
_cell_angle_beta                 90
_cell_angle_gamma                90
_cell_volume                     2509.05
_exptl_crystal_colour            colorless
_exptl_crystal_description       block
_cell_formula_units_Z            4
loop_
_atom_site_label
_atom_site_type_symbol
_atom_site_fract_x
_atom_site_fract_y
_atom_site_fract_z
Cl1 Cl 0.24278(6) 0.57680(12) 0.1594(3)
O1 O -0.00525(13) 0.6638(3) 0.9896(4)
H1 H 0.0057 0.7224 0.9836
O2 O 0.07546(12) 0.8419(2) 0.0150(4)
N1 N 0.00167(14) 0.6341(3) 0.5728(4)
N2 N -0.00777(16) 0.6269(3) 0.4025(4)
N3 N 0.01330(15) 0.7077(3) 0.3306(4)
N4 N 0.14251(13) 0.7369(2) 0.1140(4)
C1 C -0.05734(17) 0.6607(3) 0.9431(5)
C2 C -0.0992(2) 0.7078(4) 1.0315(6)
H2 H -0.0922 0.7445 1.1325
C3 C -0.1510(2) 0.7003(4) 0.9702(9)
H3 H -0.1788 0.7319 1.0306
C4 C -0.1623(2) 0.6466(5) 0.8203(9)
H4 H -0.1974 0.6421 0.7787
C5 C -0.12105(19) 0.6001(4) 0.7340(6)
H5 H -0.1288 0.5629 0.6339
C6 C -0.06845(17) 0.6061(3) 0.7894(5)
C7 C -0.02296(18) 0.5591(3) 0.6902(5)
H6 H 0.0039 0.5339 0.7712
H7 H -0.0362 0.5021 0.6226
C8 C 0.02891(16) 0.7193(3) 0.6097(5)
H8 H 0.0403 0.7413 0.7189
C9 C 0.03650(15) 0.7667(3) 0.4546(5)
C10 C 0.06124(17) 0.8671(3) 0.4120(5)
H9 H 0.0680 0.9027 0.5206
H10 H 0.0352 0.9067 0.3469
C11 C 0.11381(15) 0.8644(3) 0.3073(5)
C12 C 0.10619(15) 0.8141(3) 0.1295(5)
C13 C 0.21827(17) 0.6670(3) 0.3022(8)
C14 C 0.2447(2) 0.6801(4) 0.4604(9)
H11 H 0.2740 0.6390 0.4873
C15 C 0.2284(2) 0.7521(5) 0.5769(7)
H12 H 0.2468 0.7593 0.6819
C16 C 0.1847(2) 0.8150(4) 0.5408(6)
H13 H 0.1735 0.8639 0.6205
C17 C 0.15856(15) 0.8026(3) 0.3828(5)
C18 C 0.17506(15) 0.7297(3) 0.2642(5)
C19 C 0.12591(19) 0.5742(4) -0.0445(9)
C20 C 0.1287(2) 0.5194(6) -0.1952(12)
H14 H 0.1420 0.5487 -0.2967
C21 C 0.1109(3) 0.4165(9) -0.195(2)
H15 H 0.1138 0.3769 -0.2948
C22 C 0.0898(3) 0.3777(7) -0.047(3)
H16 H 0.0770 0.3113 -0.0480
C23 C 0.0865(3) 0.4308(5) 0.1015(19)
H17 H 0.0726 0.4020 0.2026
C24 C 0.1045(2) 0.5303(4) 0.0993(13)
H18 H 0.1018 0.5686 0.2008
C25 C 0.1478(2) 0.6808(3) -0.0465(6)
H19 H 0.1856 0.6778 -0.0769
H20 H 0.1296 0.7183 -0.1381
C26 C 0.13166(17) 0.9764(3) 0.2737(6)
H21 H 0.1024 1.0128 0.2182
H22 H 0.1389 1.0090 0.3846
C27 C 0.17922(18) 0.9834(3) 0.1644(6)
C28 C 0.2165(2) 0.9863(5) 0.0735(10)
H23 H 0.243(3) 0.990(5) 0.007(8)
loop_
_geom_bond_atom_site_label_1
_geom_bond_atom_site_label_2
_geom_bond_site_symmetry_1
_geom_bond_site_symmetry_2
Cl1 C13 1_555 1_555
O1 H1 1_555 1_555
O2 C12 1_555 1_555
N1 N2 1_555 1_555
N2 N3 1_555 1_555
N3 C9 1_555 1_555
N4 C12 1_555 1_555
C1 O1 1_555 1_555
C2 C1 1_555 1_555
H2 C2 1_555 1_555
C3 C2 1_555 1_555
H3 C3 1_555 1_555
C4 C3 1_555 1_555
H4 C4 1_555 1_555
C5 C4 1_555 1_555
H5 C5 1_555 1_555
C6 C1 1_555 1_555
C7 N1 1_555 1_555
H6 C7 1_555 1_555
H7 C7 1_555 1_555
C8 N1 1_555 1_555
H8 C8 1_555 1_555
C9 C8 1_555 1_555
C10 C9 1_555 1_555
H9 C10 1_555 1_555
H10 C10 1_555 1_555
C11 C10 1_555 1_555
C12 C11 1_555 1_555
C13 C14 1_555 1_555
C14 H11 1_555 1_555
C15 C14 1_555 1_555
H12 C15 1_555 1_555
C16 C15 1_555 1_555
H13 C16 1_555 1_555
C17 C11 1_555 1_555
C18 N4 1_555 1_555
C19 C20 1_555 1_555
C20 H14 1_555 1_555
C21 C20 1_555 1_555
H15 C21 1_555 1_555
C22 C21 1_555 1_555
H16 C22 1_555 1_555
C23 C22 1_555 1_555
H17 C23 1_555 1_555
C24 C19 1_555 1_555
H18 C24 1_555 1_555
C25 N4 1_555 1_555
H19 C25 1_555 1_555
H20 C25 1_555 1_555
C26 C11 1_555 1_555
H21 C26 1_555 1_555
H22 C26 1_555 1_555
C27 C26 1_555 1_555
C28 C27 1_555 1_555
H23 C28 1_555 1_555
C5 C6 1_555 1_555
C6 C7 1_555 1_555
C13 C18 1_555 1_555
C16 C17 1_555 1_555
C17 C18 1_555 1_555
C19 C25 1_555 1_555
C23 C24 1_555 1_555

#END
