
#######################################################################
#
#                 Cambridge Crystallographic Data Centre
#                                CCDC 
#
#######################################################################
#
# If this CIF has been generated from an entry in the Cambridge 
# Structural Database, then it will include bibliographic, chemical, 
# crystal, experimental, refinement or atomic coordinate data resulting 
# from the CCDC's data processing and validation procedures.
#
#######################################################################

data_TIVMOC
_chemical_formula_moiety         'C15 H20 Br1 N1 O3'
_chemical_name_systematic        
4-Bromo-2-(1-hydroxy-5-methylhex-4-en-3-yl)-N-methoxybenzamide
_symmetry_cell_setting           monoclinic
_symmetry_space_group_name_H-M   'P 21'
_symmetry_Int_Tables_number      4
_space_group_name_Hall           'P 2yb'
loop_
_symmetry_equiv_pos_site_id
_symmetry_equiv_pos_as_xyz
1 x,y,z
2 -x,1/2+y,-z
_cell_length_a                   8.0078(5)
_cell_length_b                   7.1876(4)
_cell_length_c                   13.4198(8)
_cell_angle_alpha                90
_cell_angle_beta                 90.271(5)
_cell_angle_gamma                90
_cell_volume                     772.393
_exptl_crystal_colour            colorless
_exptl_crystal_description       needle
_cell_formula_units_Z            2
loop_
_atom_site_label
_atom_site_type_symbol
_atom_site_fract_x
_atom_site_fract_y
_atom_site_fract_z
Br1 Br 0.45493(7) 0.36796(15) 0.51093(4)
O1 O 1.0302(5) 0.9177(7) 0.2486(5)
H1 H 1.0748 0.8150 0.2480
O2 O 1.1973(5) 0.5811(7) 0.2793(4)
O3 O 1.3355(6) 0.2675(9) 0.2090(5)
N1 N 1.1914(6) 0.2657(9) 0.2665(5)
H2 H 1.1445 0.1631 0.2838
C1 C 0.8197(6) 0.5762(8) 0.1983(4)
H3 H 0.9350 0.5765 0.1742
C2 C 0.7604(7) 0.7781(9) 0.2049(4)
H4 H 0.7663 0.8333 0.1390
H5 H 0.6441 0.7787 0.2249
C3 C 0.8586(8) 0.8983(8) 0.2766(5)
H6 H 0.8077 1.0206 0.2796
H7 H 0.8532 0.8439 0.3427
C4 C 0.7144(7) 0.4677(9) 0.1252(4)
H8 H 0.5997 0.4871 0.1275
C5 C 0.7693(8) 0.3471(12) 0.0579(4)
C6 C 0.6473(15) 0.2439(15) -0.0095(6)
H9 H 0.5358 0.2857 0.0037
H10 H 0.6550 0.1128 0.0031
H11 H 0.6743 0.2682 -0.0779
C7 C 0.9487(12) 0.2988(15) 0.0406(7)
H12 H 1.0188 0.3935 0.0691
H13 H 0.9690 0.2907 -0.0297
H14 H 0.9735 0.1813 0.0713
C8 C 0.8181(6) 0.4853(7) 0.3000(4)
C9 C 0.6675(6) 0.4675(8) 0.3512(4)
H15 H 0.5694 0.5129 0.3230
C10 C 0.6632(6) 0.3826(12) 0.4439(4)
C11 C 0.8056(8) 0.3072(9) 0.4876(4)
H16 H 0.8009 0.2478 0.5491
C12 C 0.9535(7) 0.3234(9) 0.4368(4)
H17 H 1.0503 0.2739 0.4647
C13 C 0.9628(6) 0.4120(7) 0.3447(4)
C14 C 1.1297(6) 0.4285(8) 0.2936(4)
C15 C 1.4334(11) 0.1148(12) 0.2341(8)
H18 H 1.4633 0.1215 0.3034
H19 H 1.5328 0.1149 0.1945
H20 H 1.3717 0.0025 0.2219
loop_
_geom_bond_atom_site_label_1
_geom_bond_atom_site_label_2
_geom_bond_site_symmetry_1
_geom_bond_site_symmetry_2
Br1 C10 1_555 1_555
O1 H1 1_555 1_555
O2 C14 1_555 1_555
O3 N1 1_555 1_555
N1 H2 1_555 1_555
C1 H3 1_555 1_555
C2 C1 1_555 1_555
H4 C2 1_555 1_555
H5 C2 1_555 1_555
C3 O1 1_555 1_555
H6 C3 1_555 1_555
H7 C3 1_555 1_555
C4 C1 1_555 1_555
H8 C4 1_555 1_555
C5 C4 1_555 1_555
C6 C5 1_555 1_555
H9 C6 1_555 1_555
H10 C6 1_555 1_555
H11 C6 1_555 1_555
C7 C5 1_555 1_555
H12 C7 1_555 1_555
H13 C7 1_555 1_555
H14 C7 1_555 1_555
C8 C1 1_555 1_555
C9 C8 1_555 1_555
H15 C9 1_555 1_555
C10 C9 1_555 1_555
C11 C10 1_555 1_555
H16 C11 1_555 1_555
C12 C11 1_555 1_555
H17 C12 1_555 1_555
C13 C8 1_555 1_555
C14 N1 1_555 1_555
C15 O3 1_555 1_555
H18 C15 1_555 1_555
H19 C15 1_555 1_555
H20 C15 1_555 1_555
C2 C3 1_555 1_555
C12 C13 1_555 1_555
C13 C14 1_555 1_555

#END
