
#######################################################################
#
#                 Cambridge Crystallographic Data Centre
#                                CCDC 
#
#######################################################################
#
# If this CIF has been generated from an entry in the Cambridge 
# Structural Database, then it will include bibliographic, chemical, 
# crystal, experimental, refinement or atomic coordinate data resulting 
# from the CCDC's data processing and validation procedures.
#
#######################################################################

data_TIVROF
_chemical_formula_moiety         'C35 H29 N1 O1'
_chemical_name_systematic        
5-Vinyl-1-azabicyclo(2.2.2)oct-2-yl-9-spiro-9'-(bifluoren-2'-ylmethanone)
_symmetry_cell_setting           orthorhombic
_symmetry_space_group_name_H-M   'P 21 21 21'
_symmetry_Int_Tables_number      19
_space_group_name_Hall           'P 2ac 2ab'
loop_
_symmetry_equiv_pos_site_id
_symmetry_equiv_pos_as_xyz
1 x,y,z
2 1/2-x,-y,1/2+z
3 1/2+x,1/2-y,-z
4 -x,1/2+y,1/2-z
_cell_length_a                   9.583(10)
_cell_length_b                   11.879(15)
_cell_length_c                   23.05(3)
_cell_angle_alpha                90
_cell_angle_beta                 90
_cell_angle_gamma                90
_cell_volume                     2623.93
_exptl_crystal_colour            colorless
_cell_formula_units_Z            4
loop_
_atom_site_label
_atom_site_type_symbol
_atom_site_fract_x
_atom_site_fract_y
_atom_site_fract_z
O1 O 0.2572(4) 0.8909(2) 0.7622(1)
N1 N 0.1633(3) 0.9889(2) 0.6350(1)
C1 C 0.2497(4) 1.0824(3) 0.6553(2)
C2 C 0.1649(4) 1.1792(3) 0.6823(2)
C3 C 0.0187(4) 1.1331(3) 0.6921(2)
C4 C -0.0485(5) 1.1104(4) 0.6330(2)
C5 C 0.0527(4) 1.0361(3) 0.5980(2)
C6 C 0.0284(4) 1.0218(3) 0.7257(2)
C7 C 0.0980(3) 0.9341(3) 0.6858(1)
C8 C 0.2089(4) 0.8629(3) 0.7153(1)
C9 C 0.2306(5) 1.2253(3) 0.7359(2)
C10 C 0.2701(5) 1.3274(3) 0.7444(2)
C11 C 0.2107(3) 0.7170(2) 0.6342(1)
C12 C 0.2625(3) 0.7583(2) 0.6873(1)
C13 C 0.3661(4) 0.6974(3) 0.7153(1)
C14 C 0.4181(3) 0.5983(3) 0.6938(1)
C15 C 0.4904(3) 0.3679(3) 0.6207(1)
C16 C 0.5005(3) 0.2805(3) 0.5815(2)
C17 C 0.4196(3) 0.2787(3) 0.5324(2)
C18 C 0.3242(3) 0.3629(3) 0.5212(1)
C19 C 0.2157(3) 0.5532(2) 0.5580(1)
C20 C 0.2603(3) 0.6173(2) 0.6124(1)
C21 C 0.3645(3) 0.5570(3) 0.6417(1)
C22 C 0.3972(3) 0.4551(3) 0.6094(1)
C23 C 0.3134(3) 0.4514(3) 0.5598(1)
C24 C -0.0112(3) 0.4640(3) 0.6022(1)
C25 C -0.1521(3) 0.4422(3) 0.5943(1)
C26 C -0.2178(3) 0.4740(3) 0.5438(1)
C27 C -0.1457(3) 0.5287(3) 0.4998(1)
C28 C 0.0756(4) 0.6698(3) 0.4199(1)
C29 C 0.1856(4) 0.7302(3) 0.3974(1)
C30 C 0.3127(4) 0.7334(3) 0.4254(1)
C31 C 0.3318(3) 0.6777(3) 0.4777(1)
C32 C 0.0616(3) 0.5180(2) 0.5589(1)
C33 C -0.0054(3) 0.5513(2) 0.5080(1)
C34 C 0.0944(3) 0.6141(2) 0.4722(1)
C35 C 0.2218(3) 0.6186(2) 0.5011(1)
H1 H 0.3049 1.1099 0.6235
H2 H 0.3124 1.0543 0.6844
H3 H 0.1599 1.2389 0.6544
H4 H -0.0342 1.1876 0.7136
H5 H -0.0610 1.1804 0.6129
H6 H -0.1380 1.0753 0.6378
H7 H 0.0006 0.9744 0.5819
H8 H 0.0939 1.0772 0.5665
H9 H -0.0640 0.9974 0.7358
H10 H 0.0817 1.0308 0.7606
H11 H 0.0268 0.8845 0.6715
H12 H 0.2432 1.1730 0.7672
H13 H 0.2594 1.3822 0.7141
H14 H 0.3110 1.3486 0.7808
H15 H 0.1408 0.7585 0.6135
H16 H 0.4037 0.7269 0.7508
H17 H 0.4886 0.5569 0.7143
H18 H 0.5482 0.3699 0.6547
H19 H 0.5637 0.2195 0.5891
H20 H 0.4284 0.2174 0.5055
H21 H 0.2664 0.3608 0.4872
H22 H 0.0358 0.4412 0.6370
H23 H -0.2047 0.4068 0.6247
H24 H -0.3147 0.4563 0.5384
H25 H -0.1918 0.5510 0.4647
H26 H -0.0118 0.6648 0.3996
H27 H 0.1724 0.7713 0.3621
H28 H 0.3888 0.7743 0.4084
H29 H 0.4193 0.6811 0.4980
loop_
_geom_bond_atom_site_label_1
_geom_bond_atom_site_label_2
_geom_bond_site_symmetry_1
_geom_bond_site_symmetry_2
O1 C8 1_555 1_555
N1 C1 1_555 1_555
C1 C2 1_555 1_555
C2 C3 1_555 1_555
C3 C4 1_555 1_555
C4 C5 1_555 1_555
C5 N1 1_555 1_555
C6 C3 1_555 1_555
C7 N1 1_555 1_555
C8 C7 1_555 1_555
C9 C2 1_555 1_555
C10 C9 1_555 1_555
C11 C12 1_555 1_555
C12 C8 1_555 1_555
C13 C12 1_555 1_555
C14 C13 1_555 1_555
C15 C16 1_555 1_555
C16 C17 1_555 1_555
C17 C18 1_555 1_555
C18 C23 1_555 1_555
C19 C20 1_555 1_555
C20 C11 1_555 1_555
C21 C14 1_555 1_555
C22 C15 1_555 1_555
C23 C19 1_555 1_555
C24 C25 1_555 1_555
C25 C26 1_555 1_555
C26 C27 1_555 1_555
C27 C33 1_555 1_555
C28 C29 1_555 1_555
C29 C30 1_555 1_555
C30 C31 1_555 1_555
C31 C35 1_555 1_555
C32 C19 1_555 1_555
C33 C32 1_555 1_555
C34 C28 1_555 1_555
C35 C19 1_555 1_555
H1 C1 1_555 1_555
H2 C1 1_555 1_555
H3 C2 1_555 1_555
H4 C3 1_555 1_555
H5 C4 1_555 1_555
H6 C4 1_555 1_555
H7 C5 1_555 1_555
H8 C5 1_555 1_555
H9 C6 1_555 1_555
H10 C6 1_555 1_555
H11 C7 1_555 1_555
H12 C9 1_555 1_555
H13 C10 1_555 1_555
H14 C10 1_555 1_555
H15 C11 1_555 1_555
H16 C13 1_555 1_555
H17 C14 1_555 1_555
H18 C15 1_555 1_555
H19 C16 1_555 1_555
H20 C17 1_555 1_555
H21 C18 1_555 1_555
H22 C24 1_555 1_555
H23 C25 1_555 1_555
H24 C26 1_555 1_555
H25 C27 1_555 1_555
H26 C28 1_555 1_555
H27 C29 1_555 1_555
H28 C30 1_555 1_555
H29 C31 1_555 1_555
C6 C7 1_555 1_555
C20 C21 1_555 1_555
C21 C22 1_555 1_555
C22 C23 1_555 1_555
C24 C32 1_555 1_555
C33 C34 1_555 1_555
C34 C35 1_555 1_555

#END
