
#######################################################################
#
#                 Cambridge Crystallographic Data Centre
#                                CCDC 
#
#######################################################################
#
# If this CIF has been generated from an entry in the Cambridge 
# Structural Database, then it will include bibliographic, chemical, 
# crystal, experimental, refinement or atomic coordinate data resulting 
# from the CCDC's data processing and validation procedures.
#
#######################################################################

data_TIVSEY01
_chemical_formula_moiety         'C18 H34 P1 1+,C18 H1 B1 F15 1-'
_chemical_name_systematic        
'tricyclohexylphosphonium hydrido(tris(pentafluorophenyl))borate'
_symmetry_cell_setting           monoclinic
_symmetry_space_group_name_H-M   'C 2/c'
_symmetry_Int_Tables_number      15
_space_group_name_Hall           '-C 2yn'
loop_
_symmetry_equiv_pos_site_id
_symmetry_equiv_pos_as_xyz
1 x,y,z
2 -x,y,1/2-z
3 1/2+x,1/2+y,z
4 1/2-x,1/2+y,1/2-z
5 -x,-y,-z
6 x,-y,1/2+z
7 1/2-x,1/2-y,-z
8 1/2+x,1/2-y,1/2+z
_cell_length_a                   28.898(3)
_cell_length_b                   11.2532(9)
_cell_length_c                   21.7565(19)
_cell_angle_alpha                90
_cell_angle_beta                 105.318(5)
_cell_angle_gamma                90
_cell_volume                     6823.76
_exptl_crystal_colour            colorless
_exptl_crystal_description       needle
_cell_formula_units_Z            8
loop_
_atom_site_label
_atom_site_type_symbol
_atom_site_fract_x
_atom_site_fract_y
_atom_site_fract_z
B1 B 0.5734(3) 0.4532(9) 0.3852(5)
H1 H 0.562(3) 0.565(8) 0.385(4)
C1 C 0.6014(3) 0.4319(7) 0.3288(4)
C2 C 0.5933(3) 0.5105(8) 0.2773(4)
F1 F 0.5606(2) 0.5985(5) 0.2702(2)
C3 C 0.6175(4) 0.5050(8) 0.2310(4)
F2 F 0.6073(3) 0.5820(5) 0.1812(3)
C4 C 0.6519(3) 0.4216(9) 0.2347(4)
F3 F 0.6768(3) 0.4152(6) 0.1897(3)
C5 C 0.6626(3) 0.3435(8) 0.2844(4)
F4 F 0.69681(19) 0.2593(5) 0.2896(3)
C6 C 0.6376(3) 0.3505(7) 0.3294(3)
F5 F 0.64765(18) 0.2667(4) 0.3769(2)
C7 C 0.6101(3) 0.4245(7) 0.4554(4)
C8 C 0.6428(3) 0.5077(7) 0.4840(4)
F6 F 0.64483(17) 0.6144(4) 0.4537(2)
C9 C 0.6758(3) 0.4960(7) 0.5430(4)
F7 F 0.70642(17) 0.5841(4) 0.5667(2)
C10 C 0.6762(3) 0.3929(7) 0.5781(3)
F8 F 0.70797(16) 0.3796(4) 0.6346(2)
C11 C 0.6436(3) 0.3067(7) 0.5522(4)
F9 F 0.64204(17) 0.2051(4) 0.5848(2)
C12 C 0.6124(3) 0.3231(8) 0.4917(4)
F10 F 0.58251(16) 0.2287(4) 0.4695(2)
C13 C 0.5236(3) 0.3735(7) 0.3756(4)
C14 C 0.5110(3) 0.2719(8) 0.3418(4)
F11 F 0.54317(16) 0.2202(4) 0.3136(3)
C15 C 0.4697(3) 0.2122(8) 0.3370(5)
F12 F 0.46019(18) 0.1066(4) 0.3048(3)
C16 C 0.4379(3) 0.2553(8) 0.3668(4)
F13 F 0.3958(2) 0.1926(6) 0.3626(3)
C17 C 0.4443(3) 0.3581(9) 0.3983(5)
F14 F 0.4138(2) 0.4000(6) 0.4288(3)
C18 C 0.4894(4) 0.4201(8) 0.4025(4)
F15 F 0.49507(19) 0.5210(5) 0.4353(2)
C19 C 0.6558(4) 0.0635(8) 0.8479(5)
H2 H 0.6877 0.0241 0.8648
P1 P 0.62430(7) 0.03005(19) 0.90707(10)
H3 H 0.602(3) -0.076(8) 0.890(4)
C20 C 0.6358(4) 0.0036(9) 0.7876(5)
H4 H 0.603 0.034 0.7684
H5 H 0.6334 -0.0826 0.7953
C21 C 0.6679(4) 0.0238(9) 0.7395(4)
H6 H 0.699 -0.0176 0.7553
H7 H 0.6515 -0.0093 0.6972
C22 C 0.6764(5) 0.1563(11) 0.7336(5)
H8 H 0.6981 0.1678 0.7057
H9 H 0.6454 0.1948 0.7126
C23 C 0.6968(4) 0.2149(9) 0.7938(5)
H10 H 0.6984 0.3014 0.7862
H11 H 0.7301 0.1861 0.8113
C24 C 0.6686(3) 0.1945(7) 0.8437(4)
H12 H 0.6881 0.2218 0.8859
H13 H 0.6388 0.2423 0.8323
C25 C 0.6646(3) 0.0150(7) 0.9867(4)
H14 H 0.6457 -0.0251 1.0131
C26 C 0.7079(3) -0.0669(8) 0.9884(5)
H15 H 0.6961 -0.1449 0.9696
H16 H 0.7277 -0.0314 0.9624
C27 C 0.7388(3) -0.0851(8) 1.0566(5)
H17 H 0.7204 -0.1312 1.0809
H18 H 0.7677 -0.1317 1.0556
C28 C 0.7543(3) 0.0331(8) 1.0902(5)
H19 H 0.7761 0.0748 1.0692
H20 H 0.7719 0.0181 1.1351
C29 C 0.7103(3) 0.1118(8) 1.0879(4)
H21 H 0.6898 0.073 1.112
H22 H 0.7211 0.1891 1.1085
C30 C 0.6812(3) 0.1327(7) 1.0194(4)
H23 H 0.653 0.1828 1.019
H24 H 0.7012 0.1753 0.9958
C31 C 0.5748(3) 0.1294(7) 0.9070(3)
H25 H 0.588 0.2114 0.9165
C32 C 0.5375(3) 0.1323(8) 0.8425(4)
H26 H 0.5526 0.1632 0.8098
H27 H 0.5262 0.0504 0.8302
C33 C 0.4946(3) 0.2103(8) 0.8443(4)
H28 H 0.4701 0.2046 0.8029
H29 H 0.5052 0.2941 0.8506
C34 C 0.4720(3) 0.1736(8) 0.8978(4)
H30 H 0.4457 0.229 0.8993
H31 H 0.4583 0.0927 0.8895
C35 C 0.5102(3) 0.1756(8) 0.9616(4)
H32 H 0.4956 0.1514 0.9959
H33 H 0.5225 0.2577 0.9707
C36 C 0.5522(3) 0.0921(7) 0.9613(4)
H34 H 0.5405 0.0092 0.9546
H35 H 0.5766 0.0964 1.0028
loop_
_geom_bond_atom_site_label_1
_geom_bond_atom_site_label_2
_geom_bond_site_symmetry_1
_geom_bond_site_symmetry_2
B1 H1 1_555 1_555
C1 B1 1_555 1_555
C2 C1 1_555 1_555
F1 C2 1_555 1_555
C3 C2 1_555 1_555
F2 C3 1_555 1_555
C4 C3 1_555 1_555
F3 C4 1_555 1_555
C5 C4 1_555 1_555
F4 C5 1_555 1_555
C6 C1 1_555 1_555
F5 C6 1_555 1_555
C7 B1 1_555 1_555
C8 C7 1_555 1_555
F6 C8 1_555 1_555
C9 C8 1_555 1_555
F7 C9 1_555 1_555
C10 C9 1_555 1_555
F8 C10 1_555 1_555
C11 C10 1_555 1_555
F9 C11 1_555 1_555
C12 C7 1_555 1_555
F10 C12 1_555 1_555
C13 B1 1_555 1_555
C14 C13 1_555 1_555
F11 C14 1_555 1_555
C15 C14 1_555 1_555
F12 C15 1_555 1_555
C16 C15 1_555 1_555
F13 C16 1_555 1_555
C17 C16 1_555 1_555
F14 C17 1_555 1_555
C18 C13 1_555 1_555
F15 C18 1_555 1_555
C19 H2 1_555 1_555
P1 C19 1_555 1_555
H3 P1 1_555 1_555
C20 C19 1_555 1_555
H4 C20 1_555 1_555
H5 C20 1_555 1_555
C21 C20 1_555 1_555
H6 C21 1_555 1_555
H7 C21 1_555 1_555
C22 C21 1_555 1_555
H8 C22 1_555 1_555
H9 C22 1_555 1_555
C23 C22 1_555 1_555
H10 C23 1_555 1_555
H11 C23 1_555 1_555
C24 C19 1_555 1_555
H12 C24 1_555 1_555
H13 C24 1_555 1_555
C25 P1 1_555 1_555
H14 C25 1_555 1_555
C26 C25 1_555 1_555
H15 C26 1_555 1_555
H16 C26 1_555 1_555
C27 C26 1_555 1_555
H17 C27 1_555 1_555
H18 C27 1_555 1_555
C28 C27 1_555 1_555
H19 C28 1_555 1_555
H20 C28 1_555 1_555
C29 C28 1_555 1_555
H21 C29 1_555 1_555
H22 C29 1_555 1_555
C30 C25 1_555 1_555
H23 C30 1_555 1_555
H24 C30 1_555 1_555
C31 P1 1_555 1_555
H25 C31 1_555 1_555
C32 C31 1_555 1_555
H26 C32 1_555 1_555
H27 C32 1_555 1_555
C33 C32 1_555 1_555
H28 C33 1_555 1_555
H29 C33 1_555 1_555
C34 C33 1_555 1_555
H30 C34 1_555 1_555
H31 C34 1_555 1_555
C35 C34 1_555 1_555
H32 C35 1_555 1_555
H33 C35 1_555 1_555
C36 C31 1_555 1_555
H34 C36 1_555 1_555
H35 C36 1_555 1_555
C5 C6 1_555 1_555
C11 C12 1_555 1_555
C17 C18 1_555 1_555
C23 C24 1_555 1_555
C29 C30 1_555 1_555
C35 C36 1_555 1_555

#END
