
#######################################################################
#
#                 Cambridge Crystallographic Data Centre
#                                CCDC 
#
#######################################################################
#
# If this CIF has been generated from an entry in the Cambridge 
# Structural Database, then it will include bibliographic, chemical, 
# crystal, experimental, refinement or atomic coordinate data resulting 
# from the CCDC's data processing and validation procedures.
#
#######################################################################

data_TIVTUN
_chemical_formula_moiety         'C56 H48 N4 O4'
_chemical_name_systematic        
8,8'-(N,N'-bis(Benzyloxycarbonyl)hexa-2,4-diyn-1,6-diamino)-6,6-octano-bis(phenanthridine)
_symmetry_cell_setting           monoclinic
_symmetry_space_group_name_H-M   'C 2/c'
_symmetry_Int_Tables_number      15
_space_group_name_Hall           '-C 2yn'
loop_
_symmetry_equiv_pos_site_id
_symmetry_equiv_pos_as_xyz
1 x,y,z
2 -x,y,1/2-z
3 1/2+x,1/2+y,z
4 1/2-x,1/2+y,1/2-z
5 -x,-y,-z
6 x,-y,1/2+z
7 1/2-x,1/2-y,-z
8 1/2+x,1/2-y,1/2+z
_cell_length_a                   15.400(5)
_cell_length_b                   11.376(1)
_cell_length_c                   25.392(5)
_cell_angle_alpha                90
_cell_angle_beta                 103.52(3)
_cell_angle_gamma                90
_cell_volume                     4325.16
_chemical_melting_point          209-210deg.C
_cell_formula_units_Z            4
loop_
_atom_site_label
_atom_site_type_symbol
_atom_site_fract_x
_atom_site_fract_y
_atom_site_fract_z
O1 O 0.0053(7) 0.4958(9) 0.4154(4)
O2 O 0.1072(6) 0.4564(7) 0.3676(4)
N1 N -0.1917(9) -0.0831(11) 0.4477(5)
N2 N 0.0550(6) 0.3098(10) 0.4076(4)
C1 C -0.2087(12) 0.1149(14) 0.5593(7)
C2 C -0.2666(12) 0.0539(16) 0.5824(7)
C3 C -0.3003(10) -0.0541(15) 0.5597(6)
C4 C -0.2758(9) -0.0955(13) 0.5141(5)
C5 C -0.2155(9) -0.0347(12) 0.4924(5)
C6 C -0.13636 -0.02972 0.42557
C7 C -0.1002(10) 0.0836(12) 0.4422(5)
C8 C -0.0452(9) 0.1449(14) 0.4163(5)
C9 C -0.0051(9) 0.2516(11) 0.4353(5)
C10 C -0.0255(9) 0.3023(13) 0.4795(5)
C11 C -0.0811(10) 0.2460(13) 0.5068(6)
C12 C -0.1199(8) 0.1363(12) 0.4885(5)
C13 C -0.1802(9) 0.0716(13) 0.5143(5)
C14 C 0.2238(6) 0.6744(9) 0.3118(5)
C15 C 0.2621(6) 0.6888(9) 0.2676(5)
C16 C 0.2326(6) 0.6208(9) 0.2211(5)
C17 C 0.1648(6) 0.5384(9) 0.2189(5)
C18 C 0.1264(6) 0.5240(9) 0.2631(5)
C19 C -0.11228 -0.08497 0.37726
C20 C -0.0428(11) -0.134(2) 0.3756(12)
C21 C -0.023(5) -0.109(7) 0.3283(14)
C22 C 0.00181 -0.12919 0.28205
C23 C 0.1559(6) 0.5920(9) 0.3095(5)
C26 C 0.1142(12) 0.5813(12) 0.3569(7)
C27 C 0.0500(9) 0.4283(13) 0.3992(5)
C28 C 0.1105(9) 0.2362(12) 0.3811(5)
C29 C 0.0648(9) 0.2213(11) 0.3241(7)
C30 C 0.0233(10) 0.2166(13) 0.2765(6)
H1 H -0.1827(12) 0.1975(14) 0.5772(7)
H2 H -0.2884(12) 0.0892(16) 0.6166(7)
H3 H -0.3447(10) -0.1044(15) 0.5783(6)
H4 H -0.3038(9) -0.1772(13) 0.4960(5)
H5 H -0.0318(9) 0.1082(14) 0.3798(5)
H6 H 0.0025(9) 0.3867(13) 0.4938(5)
H7 H -0.0961(10) 0.2863(13) 0.5421(6)
H8 H 0.2466(6) 0.7270(9) 0.3478(5)
H9 H 0.3147(6) 0.7526(9) 0.2693(5)
H10 H 0.2623(6) 0.6319(9) 0.1869(5)
H11 H 0.1419(6) 0.4857(9) 0.1829(5)
H12 H 0.0739(6) 0.4602(9) 0.2613(5)
H13 H 0.1544(12) 0.6250(12) 0.3921(7)
H14 H 0.0484(12) 0.6200(12) 0.3468(7)
H15 H 0.1746(9) 0.2774(12) 0.3839(5)
H16 H 0.1201(9) 0.1510(12) 0.4004(5)
C22A C -0.00181 -0.12919 0.21795
C21A C 0.023(5) -0.109(7) 0.1717(14)
C20A C 0.0428(11) -0.134(2) 0.1244(12)
C19A C 0.11228 -0.08497 0.12274
C6A C 0.13636 -0.02972 0.07443
N1A N 0.1917(9) -0.0831(11) 0.0523(5)
C5A C 0.2155(9) -0.0347(12) 0.0076(5)
C4A C 0.2758(9) -0.0955(13) -0.0141(5)
C3A C 0.3003(10) -0.0541(15) -0.0597(6)
C2A C 0.2666(12) 0.0539(16) -0.0824(7)
C1A C 0.2087(12) 0.1149(14) -0.0593(7)
C13A C 0.1802(9) 0.0716(13) -0.0143(5)
C12A C 0.1199(8) 0.1363(12) 0.0115(5)
C7A C 0.1002(10) 0.0836(12) 0.0578(5)
C8A C 0.0452(9) 0.1449(14) 0.0837(5)
C9A C 0.0051(9) 0.2516(11) 0.0647(5)
N2A N -0.0550(6) 0.3098(10) 0.0924(4)
C27A C -0.0500(9) 0.4283(13) 0.1008(5)
O1A O -0.0053(7) 0.4958(9) 0.0846(4)
O2A O -0.1072(6) 0.4564(7) 0.1324(4)
C26A C -0.1142(12) 0.5813(12) 0.1431(7)
C23A C -0.1559(6) 0.5920(9) 0.1905(5)
C14A C -0.2238(6) 0.6744(9) 0.1882(5)
C15A C -0.2621(6) 0.6888(9) 0.2324(5)
C16A C -0.2326(6) 0.6208(9) 0.2789(5)
C17A C -0.1648(6) 0.5384(9) 0.2811(5)
C18A C -0.1264(6) 0.5240(9) 0.2369(5)
H12A H -0.0739(6) 0.4602(9) 0.2387(5)
H11A H -0.1419(6) 0.4857(9) 0.3171(5)
H10A H -0.2623(6) 0.6319(9) 0.3131(5)
H9A H -0.3147(6) 0.7526(9) 0.2307(5)
H8A H -0.2466(6) 0.7270(9) 0.1522(5)
H13A H -0.1544(12) 0.6250(12) 0.1079(7)
H14A H -0.0484(12) 0.6200(12) 0.1532(7)
C28A C -0.1105(9) 0.2362(12) 0.1189(5)
C29A C -0.0648(9) 0.2213(11) 0.1759(7)
C30A C -0.0233(10) 0.2166(13) 0.2235(6)
H15A H -0.1746(9) 0.2774(12) 0.1161(5)
H16A H -0.1201(9) 0.1510(12) 0.0996(5)
C10A C 0.0255(9) 0.3023(13) 0.0205(5)
C11A C 0.0811(10) 0.2460(13) -0.0068(6)
H7A H 0.0961(10) 0.2863(13) -0.0421(6)
H6A H -0.0025(9) 0.3867(13) 0.0062(5)
H5A H 0.0318(9) 0.1082(14) 0.1202(5)
H1A H 0.1827(12) 0.1975(14) -0.0772(7)
H2A H 0.2884(12) 0.0892(16) -0.1166(7)
H3A H 0.3447(10) -0.1044(15) -0.0783(6)
H4A H 0.3038(9) -0.1772(13) 0.0040(5)
C24? C -0.103(3) -0.097(4) 0.3315(7)
C25? C -0.0702(12) -0.119(3) 0.2934(11)
loop_
_geom_bond_atom_site_label_1
_geom_bond_atom_site_label_2
_geom_bond_site_symmetry_1
_geom_bond_site_symmetry_2
O1 C27 1_555 1_555
O2 C26 1_555 1_555
N1 C5 1_555 1_555
N2 C9 1_555 1_555
C1 C2 1_555 1_555
C2 C3 1_555 1_555
C3 C4 1_555 1_555
C4 C5 1_555 1_555
C5 C13 1_555 1_555
C6 N1 1_555 1_555
C7 C6 1_555 1_555
C8 C7 1_555 1_555
C9 C8 1_555 1_555
C10 C9 1_555 1_555
C11 C10 1_555 1_555
C12 C7 1_555 1_555
C13 C1 1_555 1_555
C14 C15 1_555 1_555
C15 C16 1_555 1_555
C16 C17 1_555 1_555
C17 C18 1_555 1_555
C18 C23 1_555 1_555
C19 C6 1_555 1_555
C20 C19 1_555 1_555
C21 C20 1_555 1_555
C22 C21 1_555 1_555
C23 C14 1_555 1_555
C26 C23 1_555 1_555
C27 O2 1_555 1_555
C28 N2 1_555 1_555
C29 C28 1_555 1_555
C30 C29 1_555 1_555
H1 C1 1_555 1_555
H2 C2 1_555 1_555
H3 C3 1_555 1_555
H4 C4 1_555 1_555
H5 C8 1_555 1_555
H6 C10 1_555 1_555
H7 C11 1_555 1_555
H8 C14 1_555 1_555
H9 C15 1_555 1_555
H10 C16 1_555 1_555
H11 C17 1_555 1_555
H12 C18 1_555 1_555
H13 C26 1_555 1_555
H14 C26 1_555 1_555
H15 C28 1_555 1_555
H16 C28 1_555 1_555
C22A C22 1_555 1_555
C21A C22A 1_555 1_555
C20A C21A 1_555 1_555
C19A C20A 1_555 1_555
C6A C19A 1_555 1_555
N1A C6A 1_555 1_555
C5A N1A 1_555 1_555
C4A C5A 1_555 1_555
C3A C4A 1_555 1_555
C2A C3A 1_555 1_555
C1A C2A 1_555 1_555
C13A C5A 1_555 1_555
C12A C13A 1_555 1_555
C7A C6A 1_555 1_555
C8A C7A 1_555 1_555
C9A C8A 1_555 1_555
N2A C9A 1_555 1_555
C27A N2A 1_555 1_555
O1A C27A 1_555 1_555
O2A C27A 1_555 1_555
C26A O2A 1_555 1_555
C23A C26A 1_555 1_555
C14A C23A 1_555 1_555
C15A C14A 1_555 1_555
C16A C15A 1_555 1_555
C17A C16A 1_555 1_555
C18A C23A 1_555 1_555
H12A C18A 1_555 1_555
H11A C17A 1_555 1_555
H10A C16A 1_555 1_555
H9A C15A 1_555 1_555
H8A C14A 1_555 1_555
H13A C26A 1_555 1_555
H14A C26A 1_555 1_555
C28A N2A 1_555 1_555
C29A C28A 1_555 1_555
C30A C30 1_555 1_555
H15A C28A 1_555 1_555
H16A C28A 1_555 1_555
C10A C9A 1_555 1_555
C11A C12A 1_555 1_555
H7A C11A 1_555 1_555
H6A C10A 1_555 1_555
H5A C8A 1_555 1_555
H1A C1A 1_555 1_555
H2A C2A 1_555 1_555
H3A C3A 1_555 1_555
H4A C4A 1_555 1_555
N2 C27 1_555 1_555
C11 C12 1_555 1_555
C12 C13 1_555 1_555
C1A C13A 1_555 1_555
C12A C7A 1_555 1_555
C17A C18A 1_555 1_555
C29A C30A 1_555 1_555
C10A C11A 1_555 1_555

#END
