
#######################################################################
#
#                 Cambridge Crystallographic Data Centre
#                                CCDC 
#
#######################################################################
#
# If this CIF has been generated from an entry in the Cambridge 
# Structural Database, then it will include bibliographic, chemical, 
# crystal, experimental, refinement or atomic coordinate data resulting 
# from the CCDC's data processing and validation procedures.
#
#######################################################################

data_TIVTID
_chemical_name_common            
'Tetraethylammonium 5,17-dichloro-2,8,14,20-tetraoxa-4,6,16,18,26,28-hexaazapentacyclo[19.3.1.1$3,7!.1$9,13!.1$15,19!]octacosa-1(25),3(28),4,6,9(27),10,12,15(26),16,18,21,23-dodecaene nitrate'
_chemical_formula_moiety         'C8 H20 N1 1+,C18 H8 Cl2 N6 O4,N1 O3 1-'
_chemical_name_systematic        
'Tetraethylammonium 5,17-dichloro-2,8,14,20-tetraoxacalix[2]arene[2]triazine nitrate'
_symmetry_cell_setting           orthorhombic
_symmetry_space_group_name_H-M   'C m c a'
_symmetry_Int_Tables_number      64
_space_group_name_Hall           '-C 2ac 2'
loop_
_symmetry_equiv_pos_site_id
_symmetry_equiv_pos_as_xyz
1 x,y,z
2 -x,1/2-y,1/2+z
3 -x,1/2+y,1/2-z
4 x,-y,-z
5 1/2+x,1/2+y,z
6 1/2-x,-y,1/2+z
7 1/2-x,y,1/2-z
8 1/2+x,1/2-y,-z
9 -x,-y,-z
10 x,1/2+y,1/2-z
11 x,1/2-y,1/2+z
12 -x,y,z
13 1/2-x,1/2-y,-z
14 1/2+x,y,1/2-z
15 1/2+x,-y,1/2+z
16 1/2-x,1/2+y,z
_cell_length_a                   36.529(7)
_cell_length_b                   17.756(4)
_cell_length_c                   17.766(4)
_cell_angle_alpha                90
_cell_angle_beta                 90
_cell_angle_gamma                90
_cell_volume                     11523.2
_exptl_crystal_colour            colorless
_exptl_crystal_description       block
_cell_formula_units_Z            16
loop_
_atom_site_label
_atom_site_type_symbol
_atom_site_fract_x
_atom_site_fract_y
_atom_site_fract_z
Cl1 Cl 0.25039(2) 0.06136(4) 0.42043(4)
O1 O 0.31323(5) 0.20252(12) 0.61362(10)
O2 O 0.18779(5) 0.19865(12) 0.61649(11)
N1 N 0.28317(6) 0.14026(13) 0.52313(12)
N2 N 0.21782(6) 0.13767(13) 0.52482(12)
N3 N 0.25048(6) 0.20613(13) 0.61876(12)
C1 C 0.28081(7) 0.18265(15) 0.58498(15)
C2 C 0.25069(8) 0.11978(15) 0.49782(14)
C3 C 0.22021(7) 0.18064(15) 0.58644(15)
C4 C 0.31241(7) 0.24180(15) 0.68336(15)
C5 C 0.31195(8) 0.31903(16) 0.68268(16)
H1 H 0.3124 0.3460 0.6365
C6 C 0.31088(8) 0.35671(16) 0.75062(18)
H2 H 0.3101 0.4102 0.7513
C7 C 0.18823(7) 0.23984(16) 0.68499(15)
C8 C 0.18912(8) 0.31706(16) 0.68217(16)
H3 H 0.1897 0.3427 0.6353
C9 C 0.18737(7) 0.20001(15) 0.75142(15)
H4 H 0.1867 0.1465 0.7522
Cl1F Cl 0.24961(2) 0.06136(4) 1.07957(4)
O1F O 0.18677(5) 0.20252(12) 0.88638(10)
O2F O 0.31221(5) 0.19865(12) 0.88351(11)
N1F N 0.21683(6) 0.14026(13) 0.97687(12)
N2F N 0.28218(6) 0.13767(13) 0.97518(12)
N3F N 0.24952(6) 0.20613(13) 0.88124(12)
C1F C 0.21919(7) 0.18265(15) 0.91502(15)
C2F C 0.24931(8) 0.11978(15) 1.00218(14)
C3F C 0.27979(7) 0.18064(15) 0.91356(15)
C4F C 0.18759(7) 0.24180(15) 0.81664(15)
C5F C 0.18805(8) 0.31903(16) 0.81732(16)
H1F H 0.1876 0.3460 0.8635
C6F C 0.18912(8) 0.35671(16) 0.74938(18)
H2F H 0.1899 0.4102 0.7487
C7F C 0.31177(7) 0.23984(16) 0.81501(15)
C8F C 0.31088(8) 0.31706(16) 0.81783(16)
H3F H 0.3103 0.3427 0.8647
C9F C 0.31263(7) 0.20001(15) 0.74858(15)
H4F H 0.3133 0.1465 0.7478
Cl2 Cl 0.0000 -0.58092(5) 0.43889(5)
Cl3 Cl 0.0000 0.07847(5) 0.43863(5)
O3 O -0.06269(5) -0.11789(11) 0.30156(12)
O4 O -0.06287(5) -0.38763(11) 0.29756(12)
N4 N -0.03271(6) -0.47834(13) 0.35985(13)
N5 N 0.0000 -0.38454(18) 0.29184(19)
N6 N 0.0000 -0.12170(18) 0.29632(18)
N7 N -0.03270(6) -0.02624(13) 0.36254(13)
C10 C -0.06195(7) -0.18652(15) 0.26054(15)
C11 C -0.06113(7) -0.18341(17) 0.18350(16)
H5 H -0.0608 -0.1363 0.1581
C12 C -0.06077(8) -0.25037(17) 0.14335(16)
H6 H -0.0600 -0.2494 0.0899
C13 C -0.06161(7) -0.31854(17) 0.18097(16)
H7 H -0.0618 -0.3647 0.1539
C14 C -0.06219(7) -0.31829(15) 0.25751(16)
C15 C -0.06254(7) -0.25321(15) 0.30027(15)
H8 H -0.0632 -0.2544 0.3537
C16 C -0.03024(7) -0.41703(15) 0.31639(15)
C17 C 0.0000 -0.5046(2) 0.3789(2)
C18 C -0.03023(7) -0.08831(15) 0.32048(15)
C19 C 0.0000 0.00022(19) 0.3814(2)
O3K O 0.06269(5) -0.11789(11) 0.30156(12)
O4K O 0.06287(5) -0.38763(11) 0.29756(12)
N4K N 0.03271(6) -0.47834(13) 0.35985(13)
N7K N 0.03270(6) -0.02624(13) 0.36254(13)
C10K C 0.06195(7) -0.18652(15) 0.26054(15)
C11K C 0.06113(7) -0.18341(17) 0.18350(16)
H5K H 0.0608 -0.1363 0.1581
C12K C 0.06077(8) -0.25037(17) 0.14335(16)
H6K H 0.0600 -0.2494 0.0899
C13K C 0.06161(7) -0.31854(17) 0.18097(16)
H7K H 0.0618 -0.3647 0.1539
C14K C 0.06219(7) -0.31829(15) 0.25751(16)
C15K C 0.06254(7) -0.25321(15) 0.30027(15)
H8K H 0.0632 -0.2544 0.3537
C16K C 0.03024(7) -0.41703(15) 0.31639(15)
C18K C 0.03023(7) -0.08831(15) 0.32048(15)
N8 N 0.37540(9) 0.0000 0.5000
C20 C 0.40045(7) 0.06735(16) 0.49077(16)
H9 H 0.4159 0.0713 0.5364
H10 H 0.4170 0.0574 0.4477
C21 C 0.38226(9) 0.14244(17) 0.4781(2)
H11 H 0.4009 0.1822 0.4773
H12 H 0.3648 0.1523 0.5189
H13 H 0.3692 0.1417 0.4299
C22 C 0.35004(7) 0.00910(16) 0.56715(16)
H14 H 0.3335 0.0522 0.5572
H15 H 0.3346 -0.0366 0.5710
C23 C 0.36838(9) 0.0218(2) 0.64210(17)
H16 H 0.3497 0.0249 0.6817
H17 H 0.3823 0.0689 0.6405
H18 H 0.3850 -0.0202 0.6528
C20C C 0.40045(7) -0.06735(16) 0.50923(16)
H9C H 0.4159 -0.0713 0.4636
H10C H 0.4170 -0.0574 0.5523
C21C C 0.38226(9) -0.14244(17) 0.5219(2)
H11C H 0.4009 -0.1822 0.5227
H12C H 0.3648 -0.1523 0.4811
H13C H 0.3692 -0.1417 0.5701
C22C C 0.35004(7) -0.00910(16) 0.43285(16)
H14C H 0.3335 -0.0522 0.4428
H15C H 0.3346 0.0366 0.4290
C23C C 0.36838(9) -0.0218(2) 0.35790(17)
H16C H 0.3497 -0.0249 0.3183
H17C H 0.3823 -0.0689 0.3595
H18C H 0.3850 0.0202 0.3472
N9 N 0.12524(8) 0.0000 0.5000
C24 C 0.10008(8) 0.06795(16) 0.49988(15)
H19 H 0.0841 0.0648 0.4550
H20 H 0.0841 0.0650 0.5448
C25 C 0.11855(9) 0.14357(16) 0.49975(19)
H21 H 0.1000 0.1833 0.5027
H22 H 0.1327 0.1494 0.4533
H23 H 0.1350 0.1473 0.5432
C26 C 0.15065(7) 0.00000(15) 0.43199(15)
H24 H 0.1666 0.0450 0.4351
H25 H 0.1667 -0.0448 0.4353
C27 C 0.13228(9) -0.0003(2) 0.35601(17)
H26 H 0.1509 -0.0037 0.3165
H27 H 0.1183 0.0463 0.3496
H28 H 0.1157 -0.0436 0.3525
C24C C 0.10008(8) -0.06795(16) 0.50012(15)
H19C H 0.0841 -0.0648 0.5450
H20C H 0.0841 -0.0650 0.4552
C25C C 0.11855(9) -0.14357(16) 0.50025(19)
H21C H 0.1000 -0.1833 0.4973
H22C H 0.1327 -0.1494 0.5467
H23C H 0.1350 -0.1473 0.4568
C26C C 0.15065(7) 0.00000(15) 0.56801(15)
H24C H 0.1666 -0.0450 0.5649
H25C H 0.1667 0.0448 0.5647
C27C C 0.13228(9) 0.0003(2) 0.64399(17)
H26C H 0.1509 0.0037 0.6835
H27C H 0.1183 -0.0463 0.6504
H28C H 0.1157 0.0436 0.6475
N10 N 0.0000 0.2482(3) 0.5438(2)
O5 O 0.02878(11) 0.2052(3) 0.5393(2)
O6 O 0.0000 0.3089(4) 0.5571(4)
O5K O -0.02878(11) 0.2052(3) 0.5393(2)
O7? O 0.0285(2) 0.2975(6) 0.5400(4)
O8? O 0.0000 0.1939(11) 0.5563(10)
N11? N 0.2500 -0.0445 0.2500
O9? O 0.22034(15) -0.0388(3) 0.2940(4)
O10? O 0.27835(15) -0.0391(3) 0.2962(4)
O11? O 0.2512(3) -0.0562(4) 0.1915(4)
loop_
_geom_bond_atom_site_label_1
_geom_bond_atom_site_label_2
_geom_bond_site_symmetry_1
_geom_bond_site_symmetry_2
Cl1 C2 1_555 1_555
O1 C1 1_555 1_555
O2 C3 1_555 1_555
N1 C1 1_555 1_555
N2 C2 1_555 1_555
N3 C1 1_555 1_555
C2 N1 1_555 1_555
C3 N2 1_555 1_555
C4 O1 1_555 1_555
C5 C4 1_555 1_555
H1 C5 1_555 1_555
C6 C5 1_555 1_555
H2 C6 1_555 1_555
C7 O2 1_555 1_555
C8 C7 1_555 1_555
H3 C8 1_555 1_555
C9 C7 1_555 1_555
H4 C9 1_555 1_555
Cl2 C17 1_555 1_555
Cl3 C19 1_555 1_555
O3 C10 1_555 1_555
O4 C14 1_555 1_555
N4 C16 1_555 1_555
N5 C16 1_555 1_555
N6 C18 1_555 1_555
N7 C18 1_555 1_555
C10 C11 1_555 1_555
C11 H5 1_555 1_555
C12 C11 1_555 1_555
H6 C12 1_555 1_555
C13 C12 1_555 1_555
H7 C13 1_555 1_555
C14 C13 1_555 1_555
C15 C10 1_555 1_555
H8 C15 1_555 1_555
C16 O4 1_555 1_555
C17 N4 1_555 1_555
C18 O3 1_555 1_555
C19 N7 1_555 1_555
N8 C20 1_555 1_555
C20 H9 1_555 1_555
H10 C20 1_555 1_555
C21 C20 1_555 1_555
H11 C21 1_555 1_555
H12 C21 1_555 1_555
H13 C21 1_555 1_555
C22 N8 1_555 1_555
H14 C22 1_555 1_555
H15 C22 1_555 1_555
C23 C22 1_555 1_555
H16 C23 1_555 1_555
H17 C23 1_555 1_555
H18 C23 1_555 1_555
N9 C24 1_555 1_555
C24 H19 1_555 1_555
H20 C24 1_555 1_555
C25 C24 1_555 1_555
H21 C25 1_555 1_555
H22 C25 1_555 1_555
H23 C25 1_555 1_555
C26 N9 1_555 1_555
H24 C26 1_555 1_555
H25 C26 1_555 1_555
C27 C26 1_555 1_555
H26 C27 1_555 1_555
H27 C27 1_555 1_555
H28 C27 1_555 1_555
N10 O5 1_555 1_555
O6 N10 1_555 1_555
Cl1F C2F 1_555 1_555
O1F C1F 1_555 1_555
O2F C3F 1_555 1_555
N1F C1F 1_555 1_555
N2F C2F 1_555 1_555
N3F C1F 1_555 1_555
C2F N1F 1_555 1_555
C3F N2F 1_555 1_555
C4F C9 1_555 1_555
C5F C4F 1_555 1_555
H1F C5F 1_555 1_555
C6F C8 1_555 1_555
H2F C6F 1_555 1_555
C7F O2F 1_555 1_555
C8F C6 1_555 1_555
H3F C8F 1_555 1_555
C9F C4 1_555 1_555
H4F C9F 1_555 1_555
O3K C10K 1_555 1_555
O4K C14K 1_555 1_555
N4K C17 1_555 1_555
N7K C19 1_555 1_555
C10K C11K 1_555 1_555
C11K H5K 1_555 1_555
C12K C11K 1_555 1_555
H6K C12K 1_555 1_555
C13K C12K 1_555 1_555
H7K C13K 1_555 1_555
C14K C13K 1_555 1_555
C15K C10K 1_555 1_555
H8K C15K 1_555 1_555
C16K N5 1_555 1_555
C18K N6 1_555 1_555
C20C N8 1_555 1_555
H9C C20C 1_555 1_555
H10C C20C 1_555 1_555
C21C C20C 1_555 1_555
H11C C21C 1_555 1_555
H12C C21C 1_555 1_555
H13C C21C 1_555 1_555
C22C N8 1_555 1_555
H14C C22C 1_555 1_555
H15C C22C 1_555 1_555
C23C C22C 1_555 1_555
H16C C23C 1_555 1_555
H17C C23C 1_555 1_555
H18C C23C 1_555 1_555
C24C N9 1_555 1_555
H19C C24C 1_555 1_555
H20C C24C 1_555 1_555
C25C C24C 1_555 1_555
H21C C25C 1_555 1_555
H22C C25C 1_555 1_555
H23C C25C 1_555 1_555
C26C N9 1_555 1_555
H24C C26C 1_555 1_555
H25C C26C 1_555 1_555
C27C C26C 1_555 1_555
H26C C27C 1_555 1_555
H27C C27C 1_555 1_555
H28C C27C 1_555 1_555
O5K N10 1_555 1_555
N3 C3 1_555 1_555
C14 C15 1_555 1_555
O1F C4F 1_555 1_555
N3F C3F 1_555 1_555
C5F C6F 1_555 1_555
C7F C8F 1_555 1_555
C7F C9F 1_555 1_555
O3K C18K 1_555 1_555
O4K C16K 1_555 1_555
N4K C16K 1_555 1_555
N7K C18K 1_555 1_555
C14K C15K 1_555 1_555

#END
