
#######################################################################
#
#                 Cambridge Crystallographic Data Centre
#                                CCDC 
#
#######################################################################
#
# If this CIF has been generated from an entry in the Cambridge 
# Structural Database, then it will include bibliographic, chemical, 
# crystal, experimental, refinement or atomic coordinate data resulting 
# from the CCDC's data processing and validation procedures.
#
#######################################################################

data_TIVTOJ
_chemical_name_common            
'Tetraethylammonium 5,17-dichloro-2,8,14,20-tetraoxa-4,6,16,18,26,28-hexaazapentacyclo[19.3.1.1$3,7!.1$9,13!.1$15,19!]octacosa-1(25),3(28),4,6,9(27),10,12,15(26),16,18,21,23-dodecaene tetrafluoroborate'
_chemical_formula_moiety         'C8 H20 N1 1+,C18 H8 Cl2 N6 O4,B1 F4 1-'
_chemical_name_systematic        
'Tetraethylammonium 5,17-dichloro-2,8,14,20-tetraoxacalix[2]arene[2]triazine tetrafluoroborate'
_symmetry_cell_setting           triclinic
_symmetry_space_group_name_H-M   'P -1'
_symmetry_Int_Tables_number      2
_space_group_name_Hall           '-P 1'
loop_
_symmetry_equiv_pos_site_id
_symmetry_equiv_pos_as_xyz
1 x,y,z
2 -x,-y,-z
_cell_length_a                   10.916(5)
_cell_length_b                   11.380(6)
_cell_length_c                   12.186(6)
_cell_angle_alpha                88.894(17)
_cell_angle_beta                 87.433(16)
_cell_angle_gamma                84.956(14)
_cell_volume                     1506.24
_exptl_crystal_colour            colorless
_exptl_crystal_description       block
_cell_formula_units_Z            2
loop_
_atom_site_label
_atom_site_type_symbol
_atom_site_fract_x
_atom_site_fract_y
_atom_site_fract_z
Cl1 Cl 1.12082(15) -0.11994(15) 0.79397(14)
Cl2 Cl 0.38676(19) 0.62716(17) 0.87746(16)
O1 O 0.4398(3) 0.2873(3) 0.6451(4)
O2 O 0.7553(3) -0.0285(3) 0.5887(3)
O3 O 1.0466(3) 0.2358(3) 0.5735(3)
O4 O 0.7327(4) 0.5533(3) 0.6195(4)
N1 N 0.4201(5) 0.4447(5) 0.7520(4)
N2 N 0.5915(4) 0.4154(4) 0.6251(4)
N3 N 0.5721(5) 0.5823(4) 0.7391(4)
N4 N 0.9263(4) -0.0697(4) 0.6808(4)
N5 N 1.0801(4) 0.0683(4) 0.6734(4)
N6 N 0.8964(4) 0.1074(4) 0.5736(4)
C1 C 0.4658(6) 0.5414(6) 0.7793(5)
C2 C 0.4874(5) 0.3850(5) 0.6755(5)
C3 C 0.6277(5) 0.5133(5) 0.6638(5)
C4 C 0.5112(5) 0.2125(5) 0.5724(5)
C5 C 0.4823(5) 0.2074(5) 0.4646(5)
H1 H 0.4158 0.2576 0.4375
C6 C 0.5493(5) 0.1301(5) 0.3959(5)
H2 H 0.5318 0.1295 0.3203
C7 C 0.6432(5) 0.0520(5) 0.4361(5)
H3 H 0.6889 -0.0034 0.3895
C8 C 0.6669(5) 0.0580(5) 0.5448(5)
C9 C 0.6052(5) 0.1368(5) 0.6150(5)
H4 H 0.6256 0.1400 0.6898
C10 C 0.8634(5) 0.0056(5) 0.6154(4)
C11 C 1.0342(5) -0.0297(5) 0.7055(4)
C12 C 1.0048(5) 0.1335(5) 0.6080(4)
C13 C 0.9590(5) 0.3205(5) 0.5256(5)
C14 C 0.9644(5) 0.3372(5) 0.4142(5)
H5 H 1.0198 0.2890 0.3683
C15 C 0.8857(6) 0.4278(6) 0.3700(5)
H6 H 0.8866 0.4411 0.2927
C16 C 0.8075(5) 0.4973(5) 0.4372(5)
H7 H 0.7549 0.5596 0.4074
C17 C 0.8061(5) 0.4758(5) 0.5484(5)
C18 C 0.8820(5) 0.3862(5) 0.5953(5)
H8 H 0.8801 0.3717 0.6724
F1 F 0.1694(5) 0.8404(5) 0.1836(4)
F2 F 0.3452(8) 0.8310(9) 0.0877(10)
F3 F 0.2757(11) 0.6655(8) 0.1596(7)
F4 F 0.1851(7) 0.7527(9) 0.0192(5)
B1 B 0.2438(7) 0.7725(6) 0.1120(6)
N7 N 0.2368(4) 0.2294(4) 0.9929(4)
C19 C 0.2423(7) 0.3492(6) 1.0437(6)
H9 H 0.3186 0.3477 1.0847
H10 H 0.2481 0.4086 0.9837
C20 C 0.1353(9) 0.3883(9) 1.1197(7)
H11 H 0.0598 0.3967 1.0787
H12 H 0.1490 0.4643 1.1513
H13 H 0.1273 0.3295 1.1788
C21 C 0.2312(6) 0.1328(6) 1.0804(5)
H14 H 0.1549 0.1485 1.1267
H15 H 0.2267 0.0564 1.0440
C22 C 0.3405(7) 0.1226(8) 1.1536(6)
H16 H 0.4159 0.1012 1.1093
H17 H 0.3292 0.0617 1.2102
H18 H 0.3469 0.1985 1.1888
C23 C 0.1208(6) 0.2256(6) 0.9289(6)
H19 H 0.1208 0.1464 0.8967
H20 H 0.0484 0.2366 0.9807
C24 C 0.1072(7) 0.3172(8) 0.8380(6)
H21 H 0.1777 0.3063 0.7854
H22 H 0.1040 0.3962 0.8693
H23 H 0.0311 0.3087 0.8004
C25 C 0.3510(6) 0.2070(6) 0.9183(5)
H24 H 0.3523 0.2719 0.8630
H25 H 0.4243 0.2099 0.9628
C26 C 0.3618(8) 0.0921(8) 0.8591(7)
H26 H 0.2976 0.0932 0.8052
H27 H 0.3519 0.0274 0.9121
H28 H 0.4429 0.0805 0.8212
F5? F 0.263(2) 0.8287(18) 0.0151(13)
F6? F 0.3573(14) 0.736(2) 0.1482(14)
F7? F 0.190(2) 0.6726(18) 0.096(2)
loop_
_geom_bond_atom_site_label_1
_geom_bond_atom_site_label_2
_geom_bond_site_symmetry_1
_geom_bond_site_symmetry_2
Cl1 C11 1_555 1_555
Cl2 C1 1_555 1_555
O1 C2 1_555 1_555
O2 C8 1_555 1_555
O3 C12 1_555 1_555
O4 C3 1_555 1_555
N1 C1 1_555 1_555
N2 C2 1_555 1_555
N3 C1 1_555 1_555
N4 C10 1_555 1_555
N5 C11 1_555 1_555
N6 C10 1_555 1_555
C2 N1 1_555 1_555
C3 N2 1_555 1_555
C4 O1 1_555 1_555
C5 C4 1_555 1_555
H1 C5 1_555 1_555
C6 C5 1_555 1_555
H2 C6 1_555 1_555
C7 C6 1_555 1_555
H3 C7 1_555 1_555
C8 C7 1_555 1_555
C9 C4 1_555 1_555
H4 C9 1_555 1_555
C10 O2 1_555 1_555
C11 N4 1_555 1_555
C12 N5 1_555 1_555
C13 O3 1_555 1_555
C14 C13 1_555 1_555
H5 C14 1_555 1_555
C15 C14 1_555 1_555
H6 C15 1_555 1_555
C16 C15 1_555 1_555
H7 C16 1_555 1_555
C17 O4 1_555 1_555
C18 C13 1_555 1_555
H8 C18 1_555 1_555
F1 B1 1_555 1_555
F2 B1 1_555 1_555
F3 B1 1_555 1_555
F4 B1 1_555 1_555
N7 C19 1_555 1_555
C19 H9 1_555 1_555
H10 C19 1_555 1_555
C20 C19 1_555 1_555
H11 C20 1_555 1_555
H12 C20 1_555 1_555
H13 C20 1_555 1_555
C21 N7 1_555 1_555
H14 C21 1_555 1_555
H15 C21 1_555 1_555
C22 C21 1_555 1_555
H16 C22 1_555 1_555
H17 C22 1_555 1_555
H18 C22 1_555 1_555
C23 N7 1_555 1_555
H19 C23 1_555 1_555
H20 C23 1_555 1_555
C24 C23 1_555 1_555
H21 C24 1_555 1_555
H22 C24 1_555 1_555
H23 C24 1_555 1_555
C25 N7 1_555 1_555
H24 C25 1_555 1_555
H25 C25 1_555 1_555
C26 C25 1_555 1_555
H26 C26 1_555 1_555
H27 C26 1_555 1_555
H28 C26 1_555 1_555
N3 C3 1_555 1_555
N6 C12 1_555 1_555
C8 C9 1_555 1_555
C16 C17 1_555 1_555
C17 C18 1_555 1_555

#END
