
#######################################################################
#
#                 Cambridge Crystallographic Data Centre
#                                CCDC 
#
#######################################################################
#
# If this CIF has been generated from an entry in the Cambridge 
# Structural Database, then it will include bibliographic, chemical, 
# crystal, experimental, refinement or atomic coordinate data resulting 
# from the CCDC's data processing and validation procedures.
#
#######################################################################

data_TIVTAV
_chemical_name_common            
'Tetraethylammonium 5,17-dichloro-2,8,14,20-tetraoxa-4,6,16,18,26,28-hexaazapentacyclo[19.3.1.1$3,7!.1$9,13!.1$15,19!]octacosa-1(25),3(28),4,6,9(27),10,12,15(26),16,18,21,23-dodecaene thiocyanate'
_chemical_formula_moiety         'C8 H20 N1 1+,C18 H8 Cl2 N6 O4,C1 N1 S1 1-'
_chemical_name_systematic        
'Tetraethylammonium 5,17-dichloro-2,8,14,20-tetraoxacalix[2]arene[2]triazine thiocyanate'
_symmetry_cell_setting           monoclinic
_symmetry_space_group_name_H-M   'P 21/c'
_symmetry_Int_Tables_number      14
_space_group_name_Hall           '-P 2ybc'
loop_
_symmetry_equiv_pos_site_id
_symmetry_equiv_pos_as_xyz
1 x,y,z
2 -x,1/2+y,1/2-z
3 -x,-y,-z
4 x,1/2-y,1/2+z
_cell_length_a                   10.804(3)
_cell_length_b                   12.288(3)
_cell_length_c                   22.243(5)
_cell_angle_alpha                90
_cell_angle_beta                 90.85(3)
_cell_angle_gamma                90
_cell_volume                     2952.65
_exptl_crystal_colour            colorless
_exptl_crystal_description       plate
_cell_formula_units_Z            4
loop_
_atom_site_label
_atom_site_type_symbol
_atom_site_fract_x
_atom_site_fract_y
_atom_site_fract_z
Cl1 Cl 1.09210(8) 0.62570(7) 0.33782(4)
Cl2 Cl 0.36633(8) -0.10107(7) 0.34012(4)
O1 O 0.75414(19) -0.01531(17) 0.44030(10)
O2 O 1.05033(19) 0.27684(17) 0.43635(11)
O3 O 0.73300(19) 0.52282(17) 0.45078(10)
O4 O 0.4369(2) 0.23096(18) 0.45057(11)
N1 N 0.4062(2) 0.0729(2) 0.40235(12)
N2 N 0.5730(2) -0.0533(2) 0.39500(11)
N3 N 0.6000(2) 0.1111(2) 0.45050(11)
N4 N 1.0671(2) 0.4403(2) 0.39199(11)
N5 N 0.9023(2) 0.5678(2) 0.39962(12)
N6 N 0.8887(2) 0.3958(2) 0.44872(12)
C1 C 0.4846(3) 0.1351(2) 0.43414(14)
C2 C 0.4588(3) -0.0188(3) 0.38449(14)
C3 C 0.6382(3) 0.0171(2) 0.42858(13)
C4 C 0.8329(3) 0.0596(2) 0.47112(13)
C5 C 0.8484(3) 0.0473(2) 0.53199(14)
H1 H 0.8037 -0.0066 0.5532
C6 C 0.9315(3) 0.1161(3) 0.56203(15)
H2 H 0.9423 0.1101 0.6044
C7 C 0.9984(3) 0.1931(3) 0.53067(15)
H3 H 1.0563 0.2391 0.5507
C8 C 0.9783(3) 0.2010(2) 0.46924(14)
C9 C 0.8960(3) 0.1362(2) 0.43816(14)
H4 H 0.8832 0.1438 0.3960
C10 C 0.9985(3) 0.3741(2) 0.42583(14)
C11 C 1.0118(3) 0.5348(2) 0.38182(14)
C12 C 0.8455(3) 0.4928(2) 0.43304(13)
C13 C 0.6626(3) 0.4448(2) 0.48249(14)
C14 C 0.6653(3) 0.4477(3) 0.54421(14)
H5 H 0.7165 0.4982 0.5652
C15 C 0.5916(3) 0.3749(3) 0.57510(15)
H6 H 0.5930 0.3745 0.6178
C16 C 0.5158(3) 0.3027(3) 0.54402(15)
H7 H 0.4636 0.2540 0.5651
C17 C 0.5173(3) 0.3026(2) 0.48247(14)
C18 C 0.5905(3) 0.3724(3) 0.45001(14)
H8 H 0.5913 0.3707 0.4073
S1 S 0.18573(10) 0.81217(10) 0.20979(5)
N7 N 0.3865(4) 0.6734(4) 0.19273(19)
C19 C 0.3059(4) 0.7281(4) 0.20040(16)
N8 N 0.2559(2) 0.2842(2) 0.25137(10)
C20 C 0.3749(3) 0.3489(3) 0.25726(14)
H9 H 0.4450 0.2973 0.2606
H10 H 0.3859 0.3916 0.2199
C21 C 0.3811(4) 0.4259(3) 0.31016(17)
H11 H 0.4613 0.4633 0.3107
H12 H 0.3718 0.3846 0.3475
H13 H 0.3144 0.4796 0.3065
C22 C 0.1439(3) 0.3581(3) 0.24835(14)
H14 H 0.1347 0.3939 0.2879
H15 H 0.0694 0.3128 0.2412
C23 C 0.1483(3) 0.4456(3) 0.20016(17)
H16 H 0.1568 0.4113 0.1607
H17 H 0.2192 0.4935 0.2080
H18 H 0.0717 0.4883 0.2008
C24 C 0.2614(3) 0.2186(3) 0.19366(14)
H19 H 0.1785 0.1873 0.1853
H20 H 0.2810 0.2685 0.1602
C25 C 0.3552(4) 0.1274(3) 0.19456(17)
H21 H 0.3591 0.0944 0.1545
H22 H 0.3305 0.0722 0.2238
H23 H 0.4367 0.1565 0.2059
C26 C 0.2451(3) 0.2112(3) 0.30595(14)
H24 H 0.2364 0.2576 0.3420
H25 H 0.3229 0.1694 0.3107
C27 C 0.1374(3) 0.1315(3) 0.30358(17)
H26 H 0.1468 0.0827 0.2691
H27 H 0.0595 0.1718 0.2993
H28 H 0.1365 0.0887 0.3407
loop_
_geom_bond_atom_site_label_1
_geom_bond_atom_site_label_2
_geom_bond_site_symmetry_1
_geom_bond_site_symmetry_2
Cl1 C11 1_555 1_555
Cl2 C2 1_555 1_555
O1 C3 1_555 1_555
O2 C8 1_555 1_555
O3 C12 1_555 1_555
O4 C1 1_555 1_555
N1 C1 1_555 1_555
N2 C2 1_555 1_555
N3 C1 1_555 1_555
N4 C10 1_555 1_555
N5 C11 1_555 1_555
N6 C10 1_555 1_555
C2 N1 1_555 1_555
C3 N2 1_555 1_555
C4 O1 1_555 1_555
C5 C4 1_555 1_555
H1 C5 1_555 1_555
C6 C5 1_555 1_555
H2 C6 1_555 1_555
C7 C6 1_555 1_555
H3 C7 1_555 1_555
C8 C7 1_555 1_555
C9 C4 1_555 1_555
H4 C9 1_555 1_555
C10 O2 1_555 1_555
C11 N4 1_555 1_555
C12 N5 1_555 1_555
C13 O3 1_555 1_555
C14 C13 1_555 1_555
H5 C14 1_555 1_555
C15 C14 1_555 1_555
H6 C15 1_555 1_555
C16 C15 1_555 1_555
H7 C16 1_555 1_555
C17 O4 1_555 1_555
C18 C13 1_555 1_555
H8 C18 1_555 1_555
S1 C19 1_555 1_555
N7 C19 1_555 1_555
N8 C20 1_555 1_555
C20 H9 1_555 1_555
H10 C20 1_555 1_555
C21 C20 1_555 1_555
H11 C21 1_555 1_555
H12 C21 1_555 1_555
H13 C21 1_555 1_555
C22 N8 1_555 1_555
H14 C22 1_555 1_555
H15 C22 1_555 1_555
C23 C22 1_555 1_555
H16 C23 1_555 1_555
H17 C23 1_555 1_555
H18 C23 1_555 1_555
C24 N8 1_555 1_555
H19 C24 1_555 1_555
H20 C24 1_555 1_555
C25 C24 1_555 1_555
H21 C25 1_555 1_555
H22 C25 1_555 1_555
H23 C25 1_555 1_555
C26 N8 1_555 1_555
H24 C26 1_555 1_555
H25 C26 1_555 1_555
C27 C26 1_555 1_555
H26 C27 1_555 1_555
H27 C27 1_555 1_555
H28 C27 1_555 1_555
N3 C3 1_555 1_555
N6 C12 1_555 1_555
C8 C9 1_555 1_555
C16 C17 1_555 1_555
C17 C18 1_555 1_555

#END
