
#######################################################################
#
#                 Cambridge Crystallographic Data Centre
#                                CCDC 
#
#######################################################################
#
# If this CIF has been generated from an entry in the Cambridge 
# Structural Database, then it will include bibliographic, chemical, 
# crystal, experimental, refinement or atomic coordinate data resulting 
# from the CCDC's data processing and validation procedures.
#
#######################################################################

data_TIVWEC
_chemical_formula_moiety         'C34 H48 O7'
_chemical_name_systematic        
6'-sec-Butyl-4',7,15-trihydroxy-5',6,10,14,16-pentamethyl-3',4',5',6'-tetrahydro-3H-spiro[2,20-dioxatricyclo[17.3.1.0^4,9^]tricosa-4,6,8,10,12,16-hexaene-21,2'-pyran]-3-one
_symmetry_cell_setting           orthorhombic
_symmetry_space_group_name_H-M   'P 21 21 21'
_symmetry_Int_Tables_number      19
_space_group_name_Hall           'P 2ac 2ab'
loop_
_symmetry_equiv_pos_site_id
_symmetry_equiv_pos_as_xyz
1 x,y,z
2 1/2-x,-y,1/2+z
3 -x,1/2+y,1/2-z
4 1/2+x,1/2-y,-z
_cell_length_a                   10.780(2)
_cell_length_b                   14.083(3)
_cell_length_c                   22.105(4)
_cell_angle_alpha                90
_cell_angle_beta                 90
_cell_angle_gamma                90
_cell_volume                     3355.86
_exptl_crystal_colour            colorless
_exptl_crystal_description       block
_cell_formula_units_Z            4
loop_
_atom_site_label
_atom_site_type_symbol
_atom_site_fract_x
_atom_site_fract_y
_atom_site_fract_z
O1 O 0.30477(10) 0.51060(8) -0.06137(5)
O2 O 0.19940(10) 0.61359(8) 0.10601(4)
O3 O 0.20451(15) 0.77191(9) 0.11144(5)
O4 O 0.12153(10) 0.44963(8) -0.07875(5)
O5 O 0.10534(16) 0.66036(12) 0.38466(6)
H1 H 0.1373 0.6122 0.3985
O6 O 0.81845(12) 0.65992(10) 0.05260(7)
H2 H 0.8506 0.6651 0.0191
O7 O -0.06347(12) 0.65879(9) -0.06972(6)
H3 H -0.1298 0.6782 -0.0831
C1 C 0.19709(13) 0.69572(11) 0.13592(7)
C2 C 0.17950(13) 0.68358(11) 0.20208(7)
C3 C 0.10338(16) 0.74824(12) 0.23187(8)
H4 H 0.0690 0.7980 0.2099
C4 C 0.07695(16) 0.74140(14) 0.29278(8)
C5 C 0.12861(17) 0.66566(14) 0.32431(8)
C6 C 0.20499(15) 0.60105(13) 0.29565(7)
H5 H 0.2373 0.5505 0.3177
C7 C 0.23477(13) 0.60972(11) 0.23479(7)
C8 C 0.33642(14) 0.54948(12) 0.21015(7)
C9 C 0.44040(15) 0.59202(13) 0.19177(7)
H6 H 0.4395 0.6581 0.1919
C10 C 0.55447(15) 0.54798(14) 0.17166(8)
H7 H 0.5593 0.4821 0.1726
C11 C 0.65232(16) 0.59552(15) 0.15203(8)
H8 H 0.6454 0.6612 0.1495
C12 C 0.77285(15) 0.55213(16) 0.13367(9)
H9 H 0.7679 0.4841 0.1426
C13 C 0.79750(15) 0.56249(14) 0.06546(9)
H10 H 0.8743 0.5281 0.0563
C14 C 0.69554(15) 0.51914(14) 0.02767(9)
C15 C 0.62269(16) 0.57027(15) -0.00771(9)
H11 H 0.6366 0.6354 -0.0090
C16 C 0.51896(17) 0.53170(18) -0.04615(9)
H12 H 0.5138 0.4636 -0.0399
H13 H 0.5393 0.5423 -0.0884
C17 C 0.39184(15) 0.57523(13) -0.03338(8)
H14 H 0.3861 0.6376 -0.0528
C18 C 0.36320(15) 0.58478(13) 0.03372(8)
H15 H 0.3764 0.5244 0.0538
H16 H 0.4183 0.6312 0.0519
C19 C 0.23019(14) 0.61566(11) 0.04182(6)
H17 H 0.2188 0.6799 0.0258
C20 C 0.14277(14) 0.54749(11) 0.01054(7)
H18 H 0.0586 0.5714 0.0137
H19 H 0.1459 0.4865 0.0308
C21 C 0.17583(14) 0.53423(11) -0.05621(7)
C22 C 0.14552(16) 0.61817(12) -0.09735(7)
H20 H 0.1986 0.6150 -0.1327
H21 H 0.1653 0.6764 -0.0760
C23 C 0.01058(17) 0.62306(12) -0.11836(7)
H22 H 0.0053 0.6678 -0.1522
C24 C -0.03409(16) 0.52620(12) -0.14009(7)
H23 H 0.0171 0.5078 -0.1748
C25 C -0.01074(15) 0.45483(12) -0.08964(7)
H24 H -0.0503 0.4789 -0.0528
C26 C -0.05716(18) 0.35399(13) -0.10027(8)
H25 H -0.1464 0.3588 -0.1081
C27 C -0.0427(2) 0.29317(15) -0.04389(9)
H26 H -0.0601 0.3316 -0.0085
H27 H 0.0425 0.2715 -0.0411
C28 C -0.1291(3) 0.20697(18) -0.04404(12)
H28 H -0.1162 0.1706 -0.0079
H29 H -0.1116 0.1682 -0.0787
H30 H -0.2137 0.2280 -0.0456
C29 C 0.6839(2) 0.41304(16) 0.03494(14)
H31 H 0.6175 0.3902 0.0100
H32 H 0.6667 0.3982 0.0765
H33 H 0.7601 0.3832 0.0230
C30 C 0.8810(2) 0.5927(3) 0.17062(12)
H34 H 0.8634 0.5860 0.2130
H35 H 0.8916 0.6587 0.1610
H36 H 0.9556 0.5587 0.1610
C31 C 0.31718(19) 0.44411(14) 0.21095(10)
H37 H 0.3885 0.4132 0.1940
H38 H 0.2451 0.4284 0.1875
H39 H 0.3057 0.4232 0.2519
C32 C -0.0058(3) 0.8120(2) 0.32467(11)
H40 H -0.0338 0.8589 0.2963
H41 H 0.0398 0.8424 0.3565
H42 H -0.0761 0.7795 0.3415
C33 C -0.0004(3) 0.30646(16) -0.15535(10)
H43 H -0.0115 0.3464 -0.1901
H44 H -0.0403 0.2465 -0.1622
H45 H 0.0866 0.2964 -0.1485
C34 C -0.16926(19) 0.52918(16) -0.16114(10)
H46 H -0.1941 0.4671 -0.1744
H47 H -0.1773 0.5733 -0.1940
H48 H -0.2212 0.5490 -0.1282
loop_
_geom_bond_atom_site_label_1
_geom_bond_atom_site_label_2
_geom_bond_site_symmetry_1
_geom_bond_site_symmetry_2
O1 C17 1_555 1_555
O2 C1 1_555 1_555
O3 C1 1_555 1_555
O4 C21 1_555 1_555
O5 H1 1_555 1_555
O6 H2 1_555 1_555
O7 H3 1_555 1_555
C1 C2 1_555 1_555
C2 C3 1_555 1_555
C3 H4 1_555 1_555
C4 C3 1_555 1_555
C5 O5 1_555 1_555
C6 C5 1_555 1_555
H5 C6 1_555 1_555
C7 C2 1_555 1_555
C8 C7 1_555 1_555
C9 C8 1_555 1_555
H6 C9 1_555 1_555
C10 C9 1_555 1_555
H7 C10 1_555 1_555
C11 C10 1_555 1_555
H8 C11 1_555 1_555
C12 C11 1_555 1_555
H9 C12 1_555 1_555
C13 O6 1_555 1_555
H10 C13 1_555 1_555
C14 C13 1_555 1_555
C15 C14 1_555 1_555
H11 C15 1_555 1_555
C16 C15 1_555 1_555
H12 C16 1_555 1_555
H13 C16 1_555 1_555
C17 C16 1_555 1_555
H14 C17 1_555 1_555
C18 C17 1_555 1_555
H15 C18 1_555 1_555
H16 C18 1_555 1_555
C19 O2 1_555 1_555
H17 C19 1_555 1_555
C20 C19 1_555 1_555
H18 C20 1_555 1_555
H19 C20 1_555 1_555
C21 O1 1_555 1_555
C22 C21 1_555 1_555
H20 C22 1_555 1_555
H21 C22 1_555 1_555
C23 O7 1_555 1_555
H22 C23 1_555 1_555
C24 C23 1_555 1_555
H23 C24 1_555 1_555
C25 O4 1_555 1_555
H24 C25 1_555 1_555
C26 C25 1_555 1_555
H25 C26 1_555 1_555
C27 C26 1_555 1_555
H26 C27 1_555 1_555
H27 C27 1_555 1_555
C28 C27 1_555 1_555
H28 C28 1_555 1_555
H29 C28 1_555 1_555
H30 C28 1_555 1_555
C29 C14 1_555 1_555
H31 C29 1_555 1_555
H32 C29 1_555 1_555
H33 C29 1_555 1_555
C30 C12 1_555 1_555
H34 C30 1_555 1_555
H35 C30 1_555 1_555
H36 C30 1_555 1_555
C31 C8 1_555 1_555
H37 C31 1_555 1_555
H38 C31 1_555 1_555
H39 C31 1_555 1_555
C32 C4 1_555 1_555
H40 C32 1_555 1_555
H41 C32 1_555 1_555
H42 C32 1_555 1_555
C33 C26 1_555 1_555
H43 C33 1_555 1_555
H44 C33 1_555 1_555
H45 C33 1_555 1_555
C34 C24 1_555 1_555
H46 C34 1_555 1_555
H47 C34 1_555 1_555
H48 C34 1_555 1_555
C4 C5 1_555 1_555
C6 C7 1_555 1_555
C12 C13 1_555 1_555
C18 C19 1_555 1_555
C20 C21 1_555 1_555
C22 C23 1_555 1_555
C24 C25 1_555 1_555

#END
