
#######################################################################
#
#                 Cambridge Crystallographic Data Centre
#                                CCDC 
#
#######################################################################
#
# If this CIF has been generated from an entry in the Cambridge 
# Structural Database, then it will include bibliographic, chemical, 
# crystal, experimental, refinement or atomic coordinate data resulting 
# from the CCDC's data processing and validation procedures.
#
#######################################################################

data_TIWFEM
_chemical_formula_moiety         'C36 H31 N7'
_chemical_name_systematic        
5-(3,3-Dicyano-1-(4-(dimethylamino)phenyl)prop-2-en-1-ylidene)-2,4-bis(4-(dimethylamino)phenyl)cyclopenta-1,3-diene-1,3-dicarbonitrile
_symmetry_cell_setting           monoclinic
_symmetry_space_group_name_H-M   'P 21/c'
_symmetry_Int_Tables_number      14
_space_group_name_Hall           '-P 2ybc'
loop_
_symmetry_equiv_pos_site_id
_symmetry_equiv_pos_as_xyz
1 x,y,z
2 -x,1/2+y,1/2-z
3 -x,-y,-z
4 x,1/2-y,1/2+z
_cell_length_a                   10.8943(4)
_cell_length_b                   14.1475(6)
_cell_length_c                   19.8825(8)
_cell_angle_alpha                90
_cell_angle_beta                 103.698(2)
_cell_angle_gamma                90
_cell_volume                     2977.27
_exptl_crystal_colour            black
_exptl_crystal_description       needle
_cell_formula_units_Z            4
loop_
_atom_site_label
_atom_site_type_symbol
_atom_site_fract_x
_atom_site_fract_y
_atom_site_fract_z
N1 N 0.3466(2) 0.01215(15) 0.07067(11)
N2 N 0.56653(15) 0.23219(12) -0.20622(8)
N3 N 0.04965(15) 0.11125(12) 0.23449(8)
N4 N -0.00823(18) 0.86453(13) 0.10679(9)
N5 N 0.27499(16) 0.63019(12) -0.12603(8)
N6 N 0.19335(17) 0.44301(12) 0.19223(8)
N7 N 0.71668(19) 0.11112(15) 0.06558(10)
C1 C 0.4061(2) 0.07892(16) 0.06868(11)
C2 C 0.48692(18) 0.15810(14) 0.06515(9)
C3 C 0.45213(18) 0.25053(14) 0.06033(9)
H1 H 0.5191(19) 0.2975(14) 0.0521(10)
C4 C 0.33339(17) 0.28972(13) 0.06842(9)
C5 C 0.29406(17) 0.37854(13) 0.03891(9)
C6 C 0.22302(17) 0.44806(13) 0.06746(9)
C7 C 0.21143(16) 0.53052(13) 0.02856(9)
C8 C 0.27353(17) 0.51304(13) -0.02709(9)
C9 C 0.32325(16) 0.42153(13) -0.02186(9)
C10 C 0.38480(16) 0.37326(13) -0.07013(9)
C11 C 0.47034(17) 0.42002(15) -0.10138(9)
H2 H 0.4864(19) 0.4859(16) -0.0922(11)
C12 C 0.53105(18) 0.37399(15) -0.14550(9)
H3 H 0.5937(19) 0.4069(14) -0.1637(10)
C13 C 0.50755(17) 0.27759(14) -0.16190(9)
C14 C 0.41843(18) 0.23090(15) -0.13222(9)
H4 H 0.396(2) 0.1653(16) -0.1446(11)
C15 C 0.36010(18) 0.27798(14) -0.08767(9)
H5 H 0.2958(19) 0.2441(14) -0.0690(10)
C16 C 0.6669(2) 0.27859(18) -0.23025(11)
H6 H 0.737(2) 0.2997(15) -0.1900(11)
H7 H 0.638(2) 0.3375(17) -0.2603(12)
H8 H 0.696(2) 0.2387(18) -0.2619(13)
C17 C 0.5383(2) 0.13353(17) -0.22514(13)
H9 H 0.440(3) 0.123(2) -0.2400(15)
H10 H 0.581(2) 0.1191(18) -0.2629(14)
H11 H 0.569(2) 0.0932(18) -0.1856(13)
C18 C 0.26148(17) 0.24253(13) 0.11096(9)
C19 C 0.31946(18) 0.19112(14) 0.17070(9)
H12 H 0.4124(19) 0.1868(13) 0.1846(10)
C20 C 0.25094(18) 0.14890(14) 0.21123(9)
H13 H 0.2942(19) 0.1180(14) 0.2512(11)
C21 C 0.11752(17) 0.15496(13) 0.19485(9)
C22 C 0.05744(18) 0.20697(13) 0.13487(9)
H14 H -0.032(2) 0.2082(14) 0.1220(10)
C23 C 0.12819(18) 0.24906(14) 0.09470(9)
H15 H 0.0838(18) 0.2828(14) 0.0501(10)
C24 C 0.1092(2) 0.04209(15) 0.28628(10)
H16 H 0.043(2) 0.0097(15) 0.3013(10)
H17 H 0.156(2) -0.0034(16) 0.2642(11)
H18 H 0.173(2) 0.0742(16) 0.3259(12)
C25 C -0.08623(19) 0.12623(17) 0.22255(11)
H19 H -0.115(2) 0.1011(16) 0.2599(13)
H20 H -0.109(2) 0.1953(17) 0.2168(11)
H21 H -0.134(2) 0.0965(16) 0.1808(12)
C26 C 0.15110(17) 0.61732(13) 0.04335(9)
C27 C 0.19683(19) 0.70727(14) 0.03294(9)
H22 H 0.270(2) 0.7142(16) 0.0144(11)
C28 C 0.14653(19) 0.78843(15) 0.05365(9)
H23 H 0.185(2) 0.8495(16) 0.0492(11)
C29 C 0.04460(18) 0.78357(15) 0.08612(10)
C30 C -0.00442(19) 0.69385(15) 0.09456(10)
H24 H -0.078(2) 0.6875(14) 0.1111(10)
C31 C 0.04717(17) 0.61341(15) 0.07397(9)
H25 H 0.010(2) 0.5536(16) 0.0797(11)
C32 C 0.0439(3) 0.95626(18) 0.09600(15)
H26 H 0.128(3) 0.9712(19) 0.1305(15)
H27 H 0.058(3) 0.9609(19) 0.0504(15)
H28 H -0.017(3) 1.007(2) 0.1027(13)
C33 C -0.0708(3) 0.8607(2) 0.16372(15)
H29 H -0.118(3) 0.8041(19) 0.1673(13)
H30 H -0.119(3) 0.915(2) 0.1656(17)
H31 H 0.002(3) 0.858(2) 0.2135(19)
C34 C 0.27406(17) 0.57743(13) -0.08204(9)
C35 C 0.20400(17) 0.44383(13) 0.13612(9)
C36 C 0.6144(2) 0.13248(15) 0.06445(10)
loop_
_geom_bond_atom_site_label_1
_geom_bond_atom_site_label_2
_geom_bond_site_symmetry_1
_geom_bond_site_symmetry_2
N1 C1 1_555 1_555
N2 C13 1_555 1_555
N3 C21 1_555 1_555
N4 C29 1_555 1_555
N5 C34 1_555 1_555
N6 C35 1_555 1_555
N7 C36 1_555 1_555
C1 C2 1_555 1_555
C2 C3 1_555 1_555
C3 H1 1_555 1_555
C4 C3 1_555 1_555
C5 C4 1_555 1_555
C6 C5 1_555 1_555
C7 C6 1_555 1_555
C8 C7 1_555 1_555
C9 C5 1_555 1_555
C10 C9 1_555 1_555
C11 C10 1_555 1_555
H2 C11 1_555 1_555
C12 C11 1_555 1_555
H3 C12 1_555 1_555
C13 C12 1_555 1_555
C14 C13 1_555 1_555
H4 C14 1_555 1_555
C15 C10 1_555 1_555
H5 C15 1_555 1_555
C16 N2 1_555 1_555
H6 C16 1_555 1_555
H7 C16 1_555 1_555
H8 C16 1_555 1_555
C17 N2 1_555 1_555
H9 C17 1_555 1_555
H10 C17 1_555 1_555
H11 C17 1_555 1_555
C18 C4 1_555 1_555
C19 C18 1_555 1_555
H12 C19 1_555 1_555
C20 C19 1_555 1_555
H13 C20 1_555 1_555
C21 C20 1_555 1_555
C22 C21 1_555 1_555
H14 C22 1_555 1_555
C23 C18 1_555 1_555
H15 C23 1_555 1_555
C24 N3 1_555 1_555
H16 C24 1_555 1_555
H17 C24 1_555 1_555
H18 C24 1_555 1_555
C25 N3 1_555 1_555
H19 C25 1_555 1_555
H20 C25 1_555 1_555
H21 C25 1_555 1_555
C26 C7 1_555 1_555
C27 C26 1_555 1_555
H22 C27 1_555 1_555
C28 C27 1_555 1_555
H23 C28 1_555 1_555
C29 C28 1_555 1_555
C30 C29 1_555 1_555
H24 C30 1_555 1_555
C31 C26 1_555 1_555
H25 C31 1_555 1_555
C32 N4 1_555 1_555
H26 C32 1_555 1_555
H27 C32 1_555 1_555
H28 C32 1_555 1_555
C33 N4 1_555 1_555
H29 C33 1_555 1_555
H30 C33 1_555 1_555
H31 C33 1_555 1_555
C34 C8 1_555 1_555
C35 C6 1_555 1_555
C36 C2 1_555 1_555
C8 C9 1_555 1_555
C14 C15 1_555 1_555
C22 C23 1_555 1_555
C30 C31 1_555 1_555

#END
