
#######################################################################
#
#                 Cambridge Crystallographic Data Centre
#                                CCDC 
#
#######################################################################
#
# If this CIF has been generated from an entry in the Cambridge 
# Structural Database, then it will include bibliographic, chemical, 
# crystal, experimental, refinement or atomic coordinate data resulting 
# from the CCDC's data processing and validation procedures.
#
#######################################################################

data_TIWGAJ
_chemical_formula_moiety         'C26 H20 N6,C1 H2 Cl2'
_chemical_name_systematic        
"4,4''-bis(Dimethylamino)-1,1':3',1''-terphenyl-2',4',5',6'-tetracarbonitrile dichloromethane solvate"
_symmetry_cell_setting           monoclinic
_symmetry_space_group_name_H-M   'P 21/n'
_symmetry_Int_Tables_number      14
_space_group_name_Hall           '-P 2yn'
loop_
_symmetry_equiv_pos_site_id
_symmetry_equiv_pos_as_xyz
1 x,y,z
2 1/2-x,1/2+y,1/2-z
3 -x,-y,-z
4 1/2+x,1/2-y,1/2+z
_cell_length_a                   13.1343(5)
_cell_length_b                   8.4280(4)
_cell_length_c                   22.6288(10)
_cell_angle_alpha                90
_cell_angle_beta                 95.780(2)
_cell_angle_gamma                90
_cell_volume                     2492.18
_exptl_crystal_colour            red
_exptl_crystal_description       prism
_cell_formula_units_Z            4
loop_
_atom_site_label
_atom_site_type_symbol
_atom_site_fract_x
_atom_site_fract_y
_atom_site_fract_z
Cl1 Cl 1.19880(4) 0.14410(6) -0.15126(2)
Cl2 Cl 1.1592(3) -0.1366(4) -0.22271(16)
C1 C 1.24709(15) 0.0173(2) -0.20387(8)
H1 H 1.2601 0.0847 -0.2435
H2 H 1.3200 -0.0326 -0.1854
N1 N 1.17661(12) 1.35628(18) 0.28326(7)
N2 N 1.19308(12) 1.18124(18) 0.13407(7)
N3 N 1.11221(12) 0.60305(17) -0.03162(6)
N4 N 0.94509(12) 0.50002(18) 0.21919(6)
N5 N 0.86291(11) 0.46739(17) 0.47866(6)
N6 N 1.08797(12) 1.10355(19) 0.41771(7)
C2 C 1.10720(13) 1.07189(19) 0.26657(7)
C3 C 1.10964(12) 1.00639(19) 0.20980(7)
C4 C 1.07484(12) 0.85194(19) 0.19746(7)
C5 C 1.03530(13) 0.76746(19) 0.24386(7)
C6 C 1.03211(12) 0.82951(19) 0.30145(7)
C7 C 1.07076(13) 0.9829(2) 0.31223(7)
C8 C 1.14583(13) 1.2298(2) 0.27720(7)
C9 C 1.15519(13) 1.1004(2) 0.16613(7)
C10 C 1.07930(13) 0.78158(19) 0.13822(7)
C11 C 1.03926(13) 0.8621(2) 0.08730(7)
H5 H 1.0042(13) 0.965(2) 0.0916(7)
C12 C 1.04687(13) 0.8016(2) 0.03142(7)
H6 H 1.0171(13) 0.860(2) -0.0031(8)
C13 C 1.09891(13) 0.6582(2) 0.02385(7)
C14 C 1.13762(13) 0.5751(2) 0.07543(8)
H7 H 1.1741(13) 0.473(2) 0.0723(8)
C15 C 1.12642(13) 0.6357(2) 0.13095(8)
H8 H 1.1536(13) 0.574(2) 0.1638(8)
C16 C 1.07119(17) 0.6894(2) -0.08394(8)
H9 H 0.9959(16) 0.707(2) -0.0850(9)
H10 H 1.0862(15) 0.636(2) -0.1171(10)
H11 H 1.1076(14) 0.796(2) -0.0867(8)
C17 C 1.17557(18) 0.4652(2) -0.03876(9)
H12 H 1.2447(17) 0.477(2) -0.0192(9)
H13 H 1.1448(14) 0.369(2) -0.0237(8)
H14 H 1.1835(16) 0.449(2) -0.0806(10)
C18 C 0.98689(13) 0.6170(2) 0.23001(7)
C19 C 0.98829(13) 0.7375(2) 0.34787(7)
C20 C 1.02001(14) 0.5818(2) 0.36053(7)
H15 H 1.0721(13) 0.538(2) 0.3411(8)
C21 C 0.97838(13) 0.4923(2) 0.40262(7)
H16 H 1.0067(13) 0.385(2) 0.4104(8)
C22 C 0.90143(13) 0.5549(2) 0.43517(7)
C23 C 0.86845(13) 0.7108(2) 0.42200(8)
H17 H 0.8166(13) 0.756(2) 0.4419(8)
C24 C 0.91147(13) 0.7997(2) 0.37998(7)
H18 H 0.8855(13) 0.905(2) 0.3717(7)
C25 C 0.77801(16) 0.5273(3) 0.50830(9)
H19 H 0.7652(15) 0.458(2) 0.5405(9)
H20 H 0.7141(16) 0.532(2) 0.4799(9)
H21 H 0.7887(16) 0.637(3) 0.5236(10)
C26 C 0.88666(17) 0.2999(2) 0.48456(9)
H22 H 0.9594(15) 0.282(2) 0.4902(8)
H23 H 0.8575(14) 0.257(2) 0.5186(9)
H24 H 0.8621(14) 0.238(2) 0.4507(9)
C27 C 1.07802(13) 1.0494(2) 0.37124(8)
Cl3? Cl 1.1582(5) -0.1216(12) -0.2329(7)
H3? H 1.2715 0.0887 -0.2401
H4? H 1.3141 -0.0445 -0.1829
loop_
_geom_bond_atom_site_label_1
_geom_bond_atom_site_label_2
_geom_bond_site_symmetry_1
_geom_bond_site_symmetry_2
Cl1 C1 1_555 1_555
Cl2 C1 1_555 1_555
C1 H1 1_555 1_555
H2 C1 1_555 1_555
N1 C8 1_555 1_555
N2 C9 1_555 1_555
N3 C13 1_555 1_555
N4 C18 1_555 1_555
N5 C22 1_555 1_555
N6 C27 1_555 1_555
C2 C3 1_555 1_555
C3 C4 1_555 1_555
C4 C5 1_555 1_555
C5 C6 1_555 1_555
C6 C7 1_555 1_555
C7 C2 1_555 1_555
C8 C2 1_555 1_555
C9 C3 1_555 1_555
C10 C4 1_555 1_555
C11 C10 1_555 1_555
H5 C11 1_555 1_555
C12 C11 1_555 1_555
H6 C12 1_555 1_555
C13 C12 1_555 1_555
C14 C13 1_555 1_555
H7 C14 1_555 1_555
C15 C10 1_555 1_555
H8 C15 1_555 1_555
C16 N3 1_555 1_555
H9 C16 1_555 1_555
H10 C16 1_555 1_555
H11 C16 1_555 1_555
C17 N3 1_555 1_555
H12 C17 1_555 1_555
H13 C17 1_555 1_555
H14 C17 1_555 1_555
C18 C5 1_555 1_555
C19 C6 1_555 1_555
C20 C19 1_555 1_555
H15 C20 1_555 1_555
C21 C20 1_555 1_555
H16 C21 1_555 1_555
C22 C21 1_555 1_555
C23 C22 1_555 1_555
H17 C23 1_555 1_555
C24 C19 1_555 1_555
H18 C24 1_555 1_555
C25 N5 1_555 1_555
H19 C25 1_555 1_555
H20 C25 1_555 1_555
H21 C25 1_555 1_555
C26 N5 1_555 1_555
H22 C26 1_555 1_555
H23 C26 1_555 1_555
H24 C26 1_555 1_555
C27 C7 1_555 1_555
C14 C15 1_555 1_555
C23 C24 1_555 1_555

#END
