
#######################################################################
#
#                 Cambridge Crystallographic Data Centre
#                                CCDC 
#
#######################################################################
#
# If this CIF has been generated from an entry in the Cambridge 
# Structural Database, then it will include bibliographic, chemical, 
# crystal, experimental, refinement or atomic coordinate data resulting 
# from the CCDC's data processing and validation procedures.
#
#######################################################################

data_TIWRIC
_chemical_formula_moiety         'C16 H14 N2 O2 S1'
_chemical_name_systematic        
N-Cyano-4-methyl-N-(2-phenylvinyl)benzenesulfonamide
_symmetry_cell_setting           triclinic
_symmetry_space_group_name_H-M   'P -1'
_symmetry_Int_Tables_number      2
_space_group_name_Hall           '-P 1'
loop_
_symmetry_equiv_pos_site_id
_symmetry_equiv_pos_as_xyz
1 x,y,z
2 -x,-y,-z
_cell_length_a                   8.2877(12)
_cell_length_b                   8.7172(16)
_cell_length_c                   10.9347(18)
_cell_angle_alpha                88.867(7)
_cell_angle_beta                 74.001(6)
_cell_angle_gamma                73.228(7)
_cell_volume                     725.546
_exptl_crystal_colour            colorless
_exptl_crystal_description       prism
_cell_formula_units_Z            2
loop_
_atom_site_label
_atom_site_type_symbol
_atom_site_fract_x
_atom_site_fract_y
_atom_site_fract_z
C1 C 0.4084(6) 0.4602(5) 0.7840(4)
C2 C 0.4128(6) 0.3708(6) 0.8891(4)
H1 H 0.5063 0.3567 0.9266
C3 C 0.2807(6) 0.3021(6) 0.9392(4)
H2 H 0.2857 0.2379 1.0101
C4 C 0.1410(6) 0.3246(6) 0.8885(4)
C5 C -0.0060(6) 0.2511(6) 0.9454(4)
H3 H -0.0929 0.2802 0.8972
H4 H -0.0623 0.2917 1.0345
H5 H 0.0423 0.1340 0.9412
C6 C 0.1362(6) 0.4179(6) 0.7842(4)
H6 H 0.0391 0.4370 0.7499
C7 C 0.2696(6) 0.4827(6) 0.7301(4)
H7 H 0.2677 0.5425 0.6566
C8 C 0.4178(6) 0.8206(6) 0.8257(5)
C9 C 0.4241(6) 0.8026(6) 0.6038(4)
H8 H 0.4781 0.7436 0.5235
C10 C 0.3018(6) 0.9359(6) 0.6094(4)
H9 H 0.2445 0.9907 0.6910
C11 C 0.2429(6) 1.0111(6) 0.5011(4)
C12 C 0.3144(6) 0.9414(6) 0.3772(4)
H10 H 0.4058 0.8426 0.3605
C13 C 0.2546(7) 1.0137(6) 0.2785(4)
H11 H 0.3043 0.9646 0.1944
C14 C 0.1218(6) 1.1581(6) 0.3019(4)
H12 H 0.0801 1.2083 0.2342
C15 C 0.0512(6) 1.2279(6) 0.4233(4)
H13 H -0.0387 1.3278 0.4393
C16 C 0.1092(6) 1.1548(6) 0.5223(4)
H14 H 0.0569 1.2036 0.6063
N1 N 0.4838(5) 0.7375(5) 0.7108(3)
N2 N 0.3616(5) 0.8893(5) 0.9232(4)
O1 O 0.6911(4) 0.5229(4) 0.7959(3)
O2 O 0.6536(4) 0.4838(4) 0.5815(3)
S1 S 0.58220(16) 0.53794(16) 0.71327(11)
loop_
_geom_bond_atom_site_label_1
_geom_bond_atom_site_label_2
_geom_bond_site_symmetry_1
_geom_bond_site_symmetry_2
C1 C2 1_555 1_555
C2 H1 1_555 1_555
C3 C2 1_555 1_555
H2 C3 1_555 1_555
C4 C3 1_555 1_555
C5 C4 1_555 1_555
H3 C5 1_555 1_555
H4 C5 1_555 1_555
H5 C5 1_555 1_555
C6 C4 1_555 1_555
H6 C6 1_555 1_555
C7 C1 1_555 1_555
H7 C7 1_555 1_555
C8 N1 1_555 1_555
C9 H8 1_555 1_555
C10 C9 1_555 1_555
H9 C10 1_555 1_555
C11 C10 1_555 1_555
C12 C11 1_555 1_555
H10 C12 1_555 1_555
C13 C12 1_555 1_555
H11 C13 1_555 1_555
C14 C13 1_555 1_555
H12 C14 1_555 1_555
C15 C14 1_555 1_555
H13 C15 1_555 1_555
C16 C11 1_555 1_555
H14 C16 1_555 1_555
N1 C9 1_555 1_555
N2 C8 1_555 1_555
O1 S1 1_555 1_555
O2 S1 1_555 1_555
S1 C1 1_555 1_555
C6 C7 1_555 1_555
C15 C16 1_555 1_555
N1 S1 1_555 1_555

#END
