
#######################################################################
#
#                 Cambridge Crystallographic Data Centre
#                                CCDC 
#
#######################################################################
#
# If this CIF has been generated from an entry in the Cambridge 
# Structural Database, then it will include bibliographic, chemical, 
# crystal, experimental, refinement or atomic coordinate data resulting 
# from the CCDC's data processing and validation procedures.
#
#######################################################################

data_TIWZII
_chemical_formula_moiety         'C50 H52 B2,C9 H12'
_chemical_name_systematic        
'9,10-bis(Dimesitylboryl)anthracene mesitylene solvate'
_symmetry_cell_setting           triclinic
_symmetry_space_group_name_H-M   'P -1'
_symmetry_Int_Tables_number      2
_space_group_name_Hall           '-P 1'
loop_
_symmetry_equiv_pos_site_id
_symmetry_equiv_pos_as_xyz
1 x,y,z
2 -x,-y,-z
_cell_length_a                   8.321(1)
_cell_length_b                   16.892(2)
_cell_length_c                   17.349(2)
_cell_angle_alpha                92.30(1)
_cell_angle_beta                 101.59(1)
_cell_angle_gamma                99.90(1)
_cell_volume                     2346.2
_exptl_crystal_colour            yellow
_cell_formula_units_Z            2
loop_
_atom_site_label
_atom_site_type_symbol
_atom_site_fract_x
_atom_site_fract_y
_atom_site_fract_z
C1 C 0.4102(2) 0.9318(1) 0.5318(1)
C2 C 0.5332(2) 0.9905(1) 0.5822(1)
C3 C 0.5766(3) 0.9838(1) 0.6659(1)
C4 C 0.6969(3) 1.0376(1) 0.7143(1)
C5 C 0.7870(3) 1.1028(1) 0.6829(1)
C6 C 0.7521(3) 1.1118(1) 0.6044(1)
C7 C 0.3764(2) 0.9424(1) 0.4498(1)
C8 C 0.2437(3) 0.8520(1) 0.6390(1)
C9 C 0.1193(3) 0.8983(1) 0.6430(1)
C10 C 0.0390(3) 0.8947(1) 0.7062(1)
C11 C 0.0816(3) 0.8480(1) 0.7686(1)
C12 C 0.2066(3) 0.8044(1) 0.7661(1)
C13 C 0.2871(3) 0.8043(1) 0.7026(1)
C14 C 0.0645(3) 0.9507(1) 0.5779(1)
C15 C -0.0055(4) 0.8453(2) 0.8376(2)
C16 C 0.4234(3) 0.7555(2) 0.7068(1)
C17 C 0.3396(3) 0.7684(1) 0.5237(1)
C18 C 0.1959(3) 0.7081(1) 0.4975(1)
C19 C 0.2093(3) 0.6351(1) 0.4609(1)
C20 C 0.3609(3) 0.6185(1) 0.4500(1)
C21 C 0.5022(3) 0.6773(1) 0.4766(1)
C22 C 0.4947(3) 0.7513(1) 0.5125(1)
C23 C 0.0238(3) 0.7213(1) 0.5038(1)
C24 C 0.3715(4) 0.5394(2) 0.4089(2)
C25 C 0.6562(3) 0.8108(1) 0.5414(2)
B1 B 0.3296(3) 0.8517(1) 0.5651(1)
H1 H 0.5184 0.9390 0.6877
H2 H 0.7203 1.0317 0.7701
H3 H 0.8730 1.1409 0.7172
H4 H 0.8154 1.1561 0.5840
H5 H -0.0487 0.9249 0.7064
H6 H 0.2397 0.7729 0.8093
H7 H -0.0426 0.9635 0.5802
H8 H 0.0608 0.9226 0.5282
H9 H 0.1473 0.9989 0.5832
H10 H -0.1149 0.8577 0.8211
H11 H 0.0585 0.8832 0.8800
H12 H -0.0139 0.7923 0.8564
H13 H 0.5303 0.7907 0.7193
H14 H 0.4101 0.7251 0.6572
H15 H 0.4151 0.7180 0.7466
H16 H 0.1103 0.5952 0.4422
H17 H 0.6083 0.6665 0.4700
H18 H -0.0596 0.6773 0.4764
H19 H 0.0059 0.7709 0.4814
H20 H 0.0176 0.7265 0.5584
H21 H 0.2806 0.5259 0.3639
H22 H 0.3680 0.4981 0.4452
H23 H 0.4767 0.5447 0.3931
H24 H 0.7494 0.7870 0.5342
H25 H 0.6670 0.8268 0.5962
H26 H 0.6527 0.8580 0.5126
C7A C 0.6236(2) 1.0576(1) 0.5502(1)
C1A C 0.5898(2) 1.0682(1) 0.4682(1)
C2A C 0.4668(2) 1.0095(1) 0.4178(1)
C3A C 0.4234(3) 1.0162(1) 0.3341(1)
C4A C 0.3031(3) 0.9624(1) 0.2857(1)
C5A C 0.2130(3) 0.8972(1) 0.3171(1)
C6A C 0.2479(3) 0.8882(1) 0.3956(1)
H4A H 0.1846 0.8439 0.4160
H3A H 0.1270 0.8591 0.2828
H2A H 0.2797 0.9683 0.2299
H1A H 0.4816 1.0610 0.3123
B1A B 0.6704(3) 1.1483(1) 0.4349(1)
C8A C 0.7563(3) 1.1480(1) 0.3610(1)
C9A C 0.8807(3) 1.1017(1) 0.3570(1)
C10A C 0.9610(3) 1.1053(1) 0.2938(1)
C11A C 0.9184(3) 1.1520(1) 0.2314(1)
C12A C 0.7934(3) 1.1956(1) 0.2339(1)
C13A C 0.7129(3) 1.1957(1) 0.2974(1)
C16A C 0.5766(3) 1.2445(2) 0.2932(1)
H13A H 0.4697 1.2093 0.2807
H14A H 0.5899 1.2749 0.3428
H15A H 0.5849 1.2820 0.2534
H6A H 0.7603 1.2271 0.1907
C15A C 1.0055(4) 1.1547(2) 0.1624(2)
H10A H 1.1149 1.1423 0.1789
H11A H 0.9415 1.1168 0.1200
H12A H 1.0139 1.2077 0.1436
H5A H 1.0487 1.0751 0.2936
C14A C 0.9355(3) 1.0493(1) 0.4221(1)
H7A H 1.0426 1.0365 0.4198
H8A H 0.9392 1.0774 0.4718
H9A H 0.8527 1.0011 0.4168
C17A C 0.6604(3) 1.2316(1) 0.4763(1)
C18A C 0.8041(3) 1.2919(1) 0.5025(1)
C19A C 0.7907(3) 1.3649(1) 0.5391(1)
C20A C 0.6391(3) 1.3815(1) 0.5500(1)
C21A C 0.4978(3) 1.3227(1) 0.5234(1)
C22A C 0.5053(3) 1.2487(1) 0.4875(1)
C25A C 0.3438(3) 1.1892(1) 0.4586(2)
H24A H 0.2506 1.2130 0.4658
H25A H 0.3330 1.1732 0.4038
H26A H 0.3473 1.1420 0.4874
H17A H 0.3917 1.3335 0.5300
C24A C 0.6285(4) 1.4606(2) 0.5911(2)
H21A H 0.7194 1.4741 0.6361
H22A H 0.6320 1.5019 0.5548
H23A H 0.5233 1.4553 0.6069
H16A H 0.8897 1.4048 0.5578
C23A C 0.9762(3) 1.2787(1) 0.4962(1)
H18A H 1.0596 1.3227 0.5236
H19A H 0.9941 1.2291 0.5186
H20A H 0.9824 1.2735 0.4416
C26 C 0.6060(3) 0.5131(1) 0.0783(1)
C27 C 0.4932(3) 0.4398(1) 0.0541(1)
C28 C 0.4768(3) 0.3763(1) 0.1061(1)
C29 C 0.3646(3) 0.3066(1) 0.0850(1)
C30 C 0.2570(3) 0.2951(1) 0.0100(1)
C31 C 0.2670(3) 0.3530(1) -0.0420(1)
C32 C 0.6140(3) 0.5733(1) 0.0237(1)
C33 C 0.8309(3) 0.4738(1) 0.2049(1)
C34 C 0.9416(3) 0.4441(1) 0.1635(1)
C35 C 1.0564(3) 0.3997(1) 0.2008(1)
C36 C 1.0664(3) 0.3811(1) 0.2784(1)
C37 C 0.9540(3) 0.4077(1) 0.3185(1)
C38 C 0.8396(3) 0.4534(1) 0.2841(1)
C39 C 0.9476(3) 0.4624(2) 0.0795(1)
C40 C 1.1950(3) 0.3342(2) 0.3176(2)
C41 C 0.7221(3) 0.4783(2) 0.3332(1)
C42 C 0.6925(3) 0.6091(1) 0.2145(1)
C43 C 0.8337(3) 0.6652(1) 0.2538(1)
C44 C 0.8135(3) 0.7356(1) 0.2926(1)
C45 C 0.6569(3) 0.7528(1) 0.2947(1)
C46 C 0.5181(3) 0.6963(1) 0.2584(1)
C47 C 0.5325(3) 0.6256(1) 0.2181(1)
C48 C 1.0107(3) 0.6546(2) 0.2529(2)
C49 C 0.6389(4) 0.8321(2) 0.3328(2)
C50 C 0.3736(3) 0.5683(2) 0.1805(2)
B2 B 0.7119(3) 0.5309(1) 0.1665(1)
H27 H 0.5478 0.3838 0.1578
H28 H 0.3589 0.2652 0.1211
H29 H 0.1764 0.2462 -0.0046
H30 H 0.1913 0.3446 -0.0925
H31 H 1.1313 0.3814 0.1717
H32 H 0.9563 0.3945 0.3720
H33 H 0.8455 0.4377 0.0441
H34 H 1.0409 0.4434 0.0655
H35 H 0.9664 0.5199 0.0772
H36 H 1.2417 0.3545 0.3713
H37 H 1.2800 0.3373 0.2871
H38 H 1.1419 0.2787 0.3144
H39 H 0.7513 0.5350 0.3488
H40 H 0.7284 0.4478 0.3789
H41 H 0.6097 0.4651 0.3029
H42 H 0.9110 0.7734 0.3186
H43 H 0.4090 0.7060 0.2611
H44 H 1.0898 0.7005 0.2797
H45 H 1.0205 0.6477 0.1990
H46 H 1.0308 0.6064 0.2776
H47 H 0.7423 0.8565 0.3674
H48 H 0.5514 0.8223 0.3617
H49 H 0.6074 0.8673 0.2926
H50 H 0.3457 0.5753 0.1251
H51 H 0.2843 0.5783 0.2048
H52 H 0.3881 0.5137 0.1880
C32A C 0.3860(3) 0.4267(1) -0.0237(1)
C26A C 0.3940(3) 0.4869(1) -0.0783(1)
C27A C 0.5068(3) 0.5602(1) -0.0541(1)
C28A C 0.5232(3) 0.6237(1) -0.1061(1)
C29A C 0.6354(3) 0.6934(1) -0.0850(1)
C30A C 0.7430(3) 0.7049(1) -0.0100(1)
C31A C 0.7330(3) 0.6470(1) 0.0420(1)
H30A H 0.8087 0.6554 0.0925
H29A H 0.8236 0.7538 0.0046
H28A H 0.6411 0.7348 -0.1211
H27A H 0.4522 0.6162 -0.1578
B2A B 0.2881(3) 0.4691(1) -0.1665(1)
C33A C 0.1691(3) 0.5262(1) -0.2049(1)
C34A C 0.0584(3) 0.5559(1) -0.1635(1)
C35A C -0.0564(3) 0.6003(1) -0.2008(1)
C36A C -0.0664(3) 0.6189(1) -0.2784(1)
C37A C 0.0460(3) 0.5923(1) -0.3185(1)
C38A C 0.1604(3) 0.5466(1) -0.2841(1)
C41A C 0.2779(3) 0.5217(2) -0.3332(1)
H39A H 0.2487 0.4650 -0.3488
H40A H 0.2716 0.5522 -0.3789
H41A H 0.3903 0.5349 -0.3029
H32A H 0.0437 0.6055 -0.3720
C40A C -0.1950(3) 0.6658(2) -0.3176(2)
H36A H -0.2417 0.6455 -0.3713
H37A H -0.2800 0.6627 -0.2871
H38A H -0.1419 0.7213 -0.3144
H31A H -0.1313 0.6186 -0.1717
C39A C 0.0524(3) 0.5376(2) -0.0795(1)
H33A H 0.1545 0.5623 -0.0441
H34A H -0.0409 0.5566 -0.0655
H35A H 0.0336 0.4801 -0.0772
C42A C 0.3075(3) 0.3909(1) -0.2145(1)
C43A C 0.1663(3) 0.3348(1) -0.2538(1)
C44A C 0.1865(3) 0.2644(1) -0.2926(1)
C45A C 0.3431(3) 0.2472(1) -0.2947(1)
C46A C 0.4819(3) 0.3037(1) -0.2584(1)
C47A C 0.4675(3) 0.3744(1) -0.2181(1)
C50A C 0.6264(3) 0.4317(2) -0.1805(2)
H50A H 0.6543 0.4247 -0.1251
H51A H 0.7157 0.4217 -0.2048
H52A H 0.6119 0.4863 -0.1880
H43A H 0.5910 0.2940 -0.2611
C49A C 0.3611(4) 0.1679(2) -0.3328(2)
H47A H 0.2577 0.1435 -0.3674
H48A H 0.4486 0.1777 -0.3617
H49A H 0.3926 0.1327 -0.2926
H42A H 0.0890 0.2266 -0.3186
C48A C -0.0107(3) 0.3454(2) -0.2529(2)
H44A H -0.0898 0.2995 -0.2797
H45A H -0.0205 0.3523 -0.1990
H46A H -0.0308 0.3936 -0.2776
C51 C 0.3558(4) 0.0947(2) 0.8741(2)
C52 C 0.4643(4) 0.1666(2) 0.8986(2)
C53 C 0.6320(4) 0.1693(2) 0.9293(2)
C54 C 0.6895(4) 0.0967(2) 0.9351(2)
C55 C 0.5831(4) 0.0233(2) 0.9102(2)
C56 C 0.4167(4) 0.0234(2) 0.8800(2)
C57 C 0.1727(4) 0.0933(2) 0.8425(3)
C58 C 0.7463(6) 0.2500(3) 0.9563(3)
C59 C 0.6474(6) -0.0552(2) 0.9169(2)
H53 H 0.4219 0.2160 0.8933
H54 H 0.8057 0.0976 0.9564
H55 H 0.3412 -0.0266 0.8622
H56 H 0.1574 0.1474 0.8336
H57 H 0.1083 0.0728 0.8800
H58 H 0.1329 0.0604 0.7937
H59 H 0.7582 0.2800 0.9113
H60 H 0.8536 0.2404 0.9824
H61 H 0.7037 0.2810 0.9926
H62 H 0.6032 -0.0893 0.8691
H63 H 0.6161 -0.0817 0.9610
H64 H 0.7671 -0.0434 0.9266
loop_
_geom_bond_atom_site_label_1
_geom_bond_atom_site_label_2
_geom_bond_site_symmetry_1
_geom_bond_site_symmetry_2
C1 C2 1_555 1_555
C2 C3 1_555 1_555
C3 C4 1_555 1_555
C4 C5 1_555 1_555
C5 C6 1_555 1_555
C6 H4 1_555 1_555
C7 C1 1_555 1_555
C8 C9 1_555 1_555
C9 C10 1_555 1_555
C10 C11 1_555 1_555
C11 C12 1_555 1_555
C12 C13 1_555 1_555
C13 C8 1_555 1_555
C14 C9 1_555 1_555
C15 C11 1_555 1_555
C16 C13 1_555 1_555
C17 C18 1_555 1_555
C18 C19 1_555 1_555
C19 C20 1_555 1_555
C20 C21 1_555 1_555
C21 C22 1_555 1_555
C22 C17 1_555 1_555
C23 C18 1_555 1_555
C24 C20 1_555 1_555
C25 C22 1_555 1_555
B1 C1 1_555 1_555
C26 C27 1_555 1_555
C27 C28 1_555 1_555
C28 C29 1_555 1_555
C29 C30 1_555 1_555
C30 C31 1_555 1_555
C31 H30 1_555 1_555
C32 C26 1_555 1_555
C33 C34 1_555 1_555
C34 C35 1_555 1_555
C35 C36 1_555 1_555
C36 C37 1_555 1_555
C37 C38 1_555 1_555
C38 C33 1_555 1_555
C39 C34 1_555 1_555
C40 C36 1_555 1_555
C41 C38 1_555 1_555
C42 C43 1_555 1_555
C43 C44 1_555 1_555
C44 C45 1_555 1_555
C45 C46 1_555 1_555
C46 C47 1_555 1_555
C47 C42 1_555 1_555
C48 C43 1_555 1_555
C49 C45 1_555 1_555
C50 C47 1_555 1_555
B2 C26 1_555 1_555
C51 C52 1_555 1_555
C52 C53 1_555 1_555
C53 C54 1_555 1_555
C54 C55 1_555 1_555
C55 C56 1_555 1_555
C56 C51 1_555 1_555
C57 C51 1_555 1_555
C58 C53 1_555 1_555
C59 C55 1_555 1_555
H1 C3 1_555 1_555
H2 C4 1_555 1_555
H3 C5 1_555 1_555
H5 C10 1_555 1_555
H6 C12 1_555 1_555
H7 C14 1_555 1_555
H8 C14 1_555 1_555
H9 C14 1_555 1_555
H10 C15 1_555 1_555
H11 C15 1_555 1_555
H12 C15 1_555 1_555
H13 C16 1_555 1_555
H14 C16 1_555 1_555
H15 C16 1_555 1_555
H16 C19 1_555 1_555
H17 C21 1_555 1_555
H18 C23 1_555 1_555
H19 C23 1_555 1_555
H20 C23 1_555 1_555
H21 C24 1_555 1_555
H22 C24 1_555 1_555
H23 C24 1_555 1_555
H24 C25 1_555 1_555
H25 C25 1_555 1_555
H26 C25 1_555 1_555
H27 C28 1_555 1_555
H28 C29 1_555 1_555
H29 C30 1_555 1_555
H31 C35 1_555 1_555
H32 C37 1_555 1_555
H33 C39 1_555 1_555
H34 C39 1_555 1_555
H35 C39 1_555 1_555
H36 C40 1_555 1_555
H37 C40 1_555 1_555
H38 C40 1_555 1_555
H39 C41 1_555 1_555
H40 C41 1_555 1_555
H41 C41 1_555 1_555
H42 C44 1_555 1_555
H43 C46 1_555 1_555
H44 C48 1_555 1_555
H45 C48 1_555 1_555
H46 C48 1_555 1_555
H47 C49 1_555 1_555
H48 C49 1_555 1_555
H49 C49 1_555 1_555
H50 C50 1_555 1_555
H51 C50 1_555 1_555
H52 C50 1_555 1_555
H53 C52 1_555 1_555
H54 C54 1_555 1_555
H55 C56 1_555 1_555
H56 C57 1_555 1_555
H57 C57 1_555 1_555
H58 C57 1_555 1_555
H59 C58 1_555 1_555
H60 C58 1_555 1_555
H61 C58 1_555 1_555
H62 C59 1_555 1_555
H63 C59 1_555 1_555
H64 C59 1_555 1_555
C7A C2 1_555 1_555
C1A C7A 1_555 1_555
C2A C7 1_555 1_555
C3A C2A 1_555 1_555
C4A C3A 1_555 1_555
C5A C4A 1_555 1_555
C6A C7 1_555 1_555
H4A C6A 1_555 1_555
H3A C5A 1_555 1_555
H2A C4A 1_555 1_555
H1A C3A 1_555 1_555
B1A C1A 1_555 1_555
C8A B1A 1_555 1_555
C9A C8A 1_555 1_555
C10A C9A 1_555 1_555
C11A C10A 1_555 1_555
C12A C11A 1_555 1_555
C13A C8A 1_555 1_555
C16A C13A 1_555 1_555
H13A C16A 1_555 1_555
H14A C16A 1_555 1_555
H15A C16A 1_555 1_555
H6A C12A 1_555 1_555
C15A C11A 1_555 1_555
H10A C15A 1_555 1_555
H11A C15A 1_555 1_555
H12A C15A 1_555 1_555
H5A C10A 1_555 1_555
C14A C9A 1_555 1_555
H7A C14A 1_555 1_555
H8A C14A 1_555 1_555
H9A C14A 1_555 1_555
C17A B1A 1_555 1_555
C18A C17A 1_555 1_555
C19A C18A 1_555 1_555
C20A C19A 1_555 1_555
C21A C20A 1_555 1_555
C22A C17A 1_555 1_555
C25A C22A 1_555 1_555
H24A C25A 1_555 1_555
H25A C25A 1_555 1_555
H26A C25A 1_555 1_555
H17A C21A 1_555 1_555
C24A C20A 1_555 1_555
H21A C24A 1_555 1_555
H22A C24A 1_555 1_555
H23A C24A 1_555 1_555
H16A C19A 1_555 1_555
C23A C18A 1_555 1_555
H18A C23A 1_555 1_555
H19A C23A 1_555 1_555
H20A C23A 1_555 1_555
C32A C27 1_555 1_555
C26A C32A 1_555 1_555
C27A C32 1_555 1_555
C28A C27A 1_555 1_555
C29A C28A 1_555 1_555
C30A C29A 1_555 1_555
C31A C32 1_555 1_555
H30A C31A 1_555 1_555
H29A C30A 1_555 1_555
H28A C29A 1_555 1_555
H27A C28A 1_555 1_555
B2A C26A 1_555 1_555
C33A B2A 1_555 1_555
C34A C33A 1_555 1_555
C35A C34A 1_555 1_555
C36A C35A 1_555 1_555
C37A C36A 1_555 1_555
C38A C33A 1_555 1_555
C41A C38A 1_555 1_555
H39A C41A 1_555 1_555
H40A C41A 1_555 1_555
H41A C41A 1_555 1_555
H32A C37A 1_555 1_555
C40A C36A 1_555 1_555
H36A C40A 1_555 1_555
H37A C40A 1_555 1_555
H38A C40A 1_555 1_555
H31A C35A 1_555 1_555
C39A C34A 1_555 1_555
H33A C39A 1_555 1_555
H34A C39A 1_555 1_555
H35A C39A 1_555 1_555
C42A B2A 1_555 1_555
C43A C42A 1_555 1_555
C44A C43A 1_555 1_555
C45A C44A 1_555 1_555
C46A C45A 1_555 1_555
C47A C42A 1_555 1_555
C50A C47A 1_555 1_555
H50A C50A 1_555 1_555
H51A C50A 1_555 1_555
H52A C50A 1_555 1_555
H43A C46A 1_555 1_555
C49A C45A 1_555 1_555
H47A C49A 1_555 1_555
H48A C49A 1_555 1_555
H49A C49A 1_555 1_555
H42A C44A 1_555 1_555
C48A C43A 1_555 1_555
H44A C48A 1_555 1_555
H45A C48A 1_555 1_555
H46A C48A 1_555 1_555
C6 C7A 1_555 1_555
C8 B1 1_555 1_555
C17 B1 1_555 1_555
C31 C32A 1_555 1_555
C33 B2 1_555 1_555
C42 B2 1_555 1_555
C1A C2A 1_555 1_555
C5A C6A 1_555 1_555
C12A C13A 1_555 1_555
C21A C22A 1_555 1_555
C26A C27A 1_555 1_555
C30A C31A 1_555 1_555
C37A C38A 1_555 1_555
C46A C47A 1_555 1_555

#END
