
#######################################################################
#
#                 Cambridge Crystallographic Data Centre
#                                CCDC 
#
#######################################################################
#
# If this CIF has been generated from an entry in the Cambridge 
# Structural Database, then it will include bibliographic, chemical, 
# crystal, experimental, refinement or atomic coordinate data resulting 
# from the CCDC's data processing and validation procedures.
#
#######################################################################

data_TIXBUY
_chemical_formula_moiety         'C17 H11 F2 N1 O4'
_chemical_name_systematic        
rel-(3aR,8bR)-5,8-difluoro-3a,8b-dihydro-3a-(2-methoxyphenyl)-1H-benzofuro(2,3-c)pyrrole-1,3(2H)-dione
_symmetry_cell_setting           triclinic
_symmetry_space_group_name_H-M   'P -1'
_symmetry_Int_Tables_number      2
_space_group_name_Hall           '-P 1'
loop_
_symmetry_equiv_pos_site_id
_symmetry_equiv_pos_as_xyz
1 x,y,z
2 -x,-y,-z
_cell_length_a                   7.8429(5)
_cell_length_b                   13.2870(9)
_cell_length_c                   13.6819(10)
_cell_angle_alpha                91.340(2)
_cell_angle_beta                 93.242(2)
_cell_angle_gamma                90.453(2)
_cell_volume                     1423.04
_exptl_crystal_colour            colorless
_exptl_crystal_description       polyhedron
_cell_formula_units_Z            4
loop_
_atom_site_label
_atom_site_type_symbol
_atom_site_fract_x
_atom_site_fract_y
_atom_site_fract_z
N1 N 0.50070(16) 0.57708(9) 0.23275(9)
H1 H 0.590(2) 0.6103(13) 0.2149(13)
C1 C 0.35780(18) 0.62658(10) 0.26056(10)
C2 C 0.22767(18) 0.54832(10) 0.28945(10)
H2 H 0.1136 0.5562 0.2542
C3 C 0.31027(18) 0.44514(10) 0.26704(10)
C4 C 0.48460(18) 0.47337(10) 0.22753(10)
O1 O 0.34048(13) 0.71705(7) 0.26383(8)
O2 O 0.59081(13) 0.41516(7) 0.20198(8)
C5 C 0.21673(17) 0.54650(10) 0.39845(10)
C6 C 0.29031(18) 0.45889(10) 0.43229(11)
C7 C 0.29225(18) 0.43619(11) 0.53045(11)
C8 C 0.21867(18) 0.50209(12) 0.59509(11)
H3 H 0.2172 0.4862 0.6624
C9 C 0.14691(19) 0.59119(12) 0.56247(11)
H4 H 0.0985 0.6371 0.6071
C10 C 0.14683(18) 0.61207(11) 0.46431(11)
O3 O 0.35145(13) 0.39819(7) 0.36063(7)
F1 F 0.36242(12) 0.34918(7) 0.56148(6)
F2 F 0.07294(12) 0.69679(6) 0.43009(7)
C11 C 0.20664(18) 0.37309(11) 0.20071(11)
C12 C 0.17390(19) 0.39903(11) 0.10343(12)
C13 C 0.0798(2) 0.33525(13) 0.03866(13)
H5 H 0.0588 0.3527 -0.0278
C14 C 0.0169(2) 0.24516(14) 0.07302(16)
H6 H -0.0492 0.2014 0.0297
C15 C 0.0491(2) 0.21864(13) 0.16913(16)
H7 H 0.0057 0.1568 0.1914
C16 C 0.1445(2) 0.28201(12) 0.23325(13)
H8 H 0.1676 0.2634 0.2993
O4 O 0.23716(15) 0.49149(8) 0.08018(8)
C17 C 0.2647(2) 0.50868(13) -0.02081(11)
H9 H 0.3391 0.4563 -0.0458
H10 H 0.3189 0.5748 -0.0269
H11 H 0.1549 0.5067 -0.0588
N2 N 1.01015(16) 0.81648(9) 0.24559(9)
H12 H 1.101(3) 0.7805(13) 0.2567(13)
C18 C 0.85479(18) 0.77092(10) 0.22557(10)
C19 C 0.71998(17) 0.85255(10) 0.21061(10)
H13 H 0.6199 0.8432 0.2518
C20 C 0.81861(18) 0.95335(10) 0.23436(10)
C21 C 1.00430(18) 0.91989(10) 0.25893(10)
O5 O 0.83038(13) 0.68061(7) 0.21808(8)
O6 O 1.12329(13) 0.97438(8) 0.28211(7)
C22 C 0.66909(17) 0.86220(10) 0.10327(10)
C23 C 0.74003(17) 0.94998(10) 0.07077(10)
C24 C 0.72138(19) 0.97607(11) -0.02632(11)
C25 C 0.6290(2) 0.91421(11) -0.09251(11)
H14 H 0.6160 0.9319 -0.1594
C26 C 0.55475(19) 0.82572(11) -0.06125(11)
H15 H 0.4905 0.7829 -0.1063
C27 C 0.57600(18) 0.80143(10) 0.03603(11)
O7 O 0.82577(13) 1.00647(7) 0.14269(7)
F3 F 0.79391(12) 1.06203(6) -0.05590(6)
F4 F 0.50613(12) 0.71493(6) 0.06642(6)
C28 C 0.75123(17) 1.02300(10) 0.31179(10)
C29 C 0.75373(18) 0.99121(11) 0.40891(11)
C30 C 0.69984(19) 1.05528(12) 0.48289(11)
H16 H 0.7035 1.0341 0.5488
C31 C 0.6408(2) 1.15026(12) 0.45928(12)
H17 H 0.6040 1.1941 0.5096
C32 C 0.6348(2) 1.18212(12) 0.36396(13)
H18 H 0.5921 1.2469 0.3485
C33 C 0.69184(19) 1.11845(11) 0.29048(11)
H19 H 0.6900 1.1408 0.2250
O8 O 0.81345(14) 0.89598(8) 0.42301(7)
C34 C 0.8326(2) 0.86259(12) 0.52178(11)
H20 H 0.9139 0.9068 0.5595
H21 H 0.8752 0.7935 0.5220
H22 H 0.7217 0.8647 0.5514
loop_
_geom_bond_atom_site_label_1
_geom_bond_atom_site_label_2
_geom_bond_site_symmetry_1
_geom_bond_site_symmetry_2
N1 H1 1_555 1_555
C1 N1 1_555 1_555
C2 C1 1_555 1_555
H2 C2 1_555 1_555
C3 C2 1_555 1_555
C4 N1 1_555 1_555
O1 C1 1_555 1_555
O2 C4 1_555 1_555
C5 C2 1_555 1_555
C6 C5 1_555 1_555
C7 C6 1_555 1_555
C8 C7 1_555 1_555
H3 C8 1_555 1_555
C9 C8 1_555 1_555
H4 C9 1_555 1_555
C10 C5 1_555 1_555
O3 C3 1_555 1_555
F1 C7 1_555 1_555
F2 C10 1_555 1_555
C11 C3 1_555 1_555
C12 C11 1_555 1_555
C13 C12 1_555 1_555
H5 C13 1_555 1_555
C14 C13 1_555 1_555
H6 C14 1_555 1_555
C15 C14 1_555 1_555
H7 C15 1_555 1_555
C16 C11 1_555 1_555
H8 C16 1_555 1_555
O4 C12 1_555 1_555
C17 O4 1_555 1_555
H9 C17 1_555 1_555
H10 C17 1_555 1_555
H11 C17 1_555 1_555
N2 H12 1_555 1_555
C18 N2 1_555 1_555
C19 C18 1_555 1_555
H13 C19 1_555 1_555
C20 C19 1_555 1_555
C21 N2 1_555 1_555
O5 C18 1_555 1_555
O6 C21 1_555 1_555
C22 C19 1_555 1_555
C23 C22 1_555 1_555
C24 C23 1_555 1_555
C25 C24 1_555 1_555
H14 C25 1_555 1_555
C26 C25 1_555 1_555
H15 C26 1_555 1_555
C27 C22 1_555 1_555
O7 C20 1_555 1_555
F3 C24 1_555 1_555
F4 C27 1_555 1_555
C28 C20 1_555 1_555
C29 C28 1_555 1_555
C30 C29 1_555 1_555
H16 C30 1_555 1_555
C31 C30 1_555 1_555
H17 C31 1_555 1_555
C32 C31 1_555 1_555
H18 C32 1_555 1_555
C33 C28 1_555 1_555
H19 C33 1_555 1_555
O8 C29 1_555 1_555
C34 O8 1_555 1_555
H20 C34 1_555 1_555
H21 C34 1_555 1_555
H22 C34 1_555 1_555
C3 C4 1_555 1_555
C6 O3 1_555 1_555
C9 C10 1_555 1_555
C15 C16 1_555 1_555
C20 C21 1_555 1_555
C23 O7 1_555 1_555
C26 C27 1_555 1_555
C32 C33 1_555 1_555

#END
