
#######################################################################
#
#                 Cambridge Crystallographic Data Centre
#                                CCDC 
#
#######################################################################
#
# If this CIF has been generated from an entry in the Cambridge 
# Structural Database, then it will include bibliographic, chemical, 
# crystal, experimental, refinement or atomic coordinate data resulting 
# from the CCDC's data processing and validation procedures.
#
#######################################################################

data_TIXHAK
_chemical_formula_moiety         'C30 H25 N1 O2 S1'
_chemical_name_systematic        
4-(2,2-Diphenylvinylidene)-2-(p-toluenesulfonyl)-1,2,3,4-tetrahydroisoquinoline
_symmetry_cell_setting           triclinic
_symmetry_space_group_name_H-M   'P -1'
_symmetry_Int_Tables_number      2
_space_group_name_Hall           '-P 1'
loop_
_symmetry_equiv_pos_site_id
_symmetry_equiv_pos_as_xyz
1 x,y,z
2 -x,-y,-z
_cell_length_a                   10.000(5)
_cell_length_b                   10.912(6)
_cell_length_c                   12.122(6)
_cell_angle_alpha                88.339(8)
_cell_angle_beta                 72.154(7)
_cell_angle_gamma                84.058(8)
_cell_volume                     1252.34
_exptl_crystal_colour            colorless
_exptl_crystal_description       sheet
_cell_formula_units_Z            2
loop_
_atom_site_label
_atom_site_type_symbol
_atom_site_fract_x
_atom_site_fract_y
_atom_site_fract_z
S1 S 1.05415(7) 0.87933(8) -0.20841(7)
O1 O 0.9859(2) 0.98995(19) -0.14619(19)
O2 O 1.0543(2) 0.8629(2) -0.32489(17)
N1 N 0.9765(2) 0.7644(2) -0.13356(18)
C1 C 0.8345(9) 0.5946(9) 0.5292(6)
H1 H 0.8702 0.5614 0.5871
C2 C 0.8772(6) 0.7083(8) 0.4789(5)
H2 H 0.9385 0.7510 0.5037
C3 C 0.8234(4) 0.7537(5) 0.3905(4)
H3 H 0.8522 0.8266 0.3535
C4 C 0.7277(4) 0.6918(4) 0.3571(3)
C5 C 0.6882(5) 0.5809(5) 0.4100(4)
H4 H 0.6244 0.5385 0.3881
C6 C 0.7446(8) 0.5335(7) 0.4960(5)
H5 H 0.7193 0.4586 0.5305
C7 C 0.4670(4) 0.8621(4) 0.4006(3)
H6 H 0.5134 0.8503 0.4564
C8 C 0.3336(4) 0.9295(4) 0.4291(4)
H7 H 0.2936 0.9642 0.5026
C9 C 0.2619(4) 0.9444(4) 0.3483(4)
H8 H 0.1719 0.9862 0.3676
C10 C 0.3244(4) 0.8970(3) 0.2395(4)
H9 H 0.2779 0.9095 0.1838
C11 C 0.4568(3) 0.8304(3) 0.2108(3)
H10 H 0.4967 0.7971 0.1368
C12 C 0.5302(3) 0.8132(3) 0.2916(3)
C13 C 0.6712(3) 0.7408(3) 0.2614(2)
C14 C 0.7504(3) 0.7172(3) 0.1542(3)
C15 C 0.8331(3) 0.6884(3) 0.0499(2)
C16 C 0.7088(3) 0.5050(3) 0.0291(3)
H11 H 0.6463 0.5203 0.1030
C17 C 0.6933(4) 0.4090(4) -0.0350(4)
H12 H 0.6196 0.3602 -0.0050
C18 C 0.7879(5) 0.3845(4) -0.1449(4)
H13 H 0.7786 0.3184 -0.1879
C19 C 0.8941(4) 0.4574(3) -0.1894(3)
H14 H 0.9571 0.4405 -0.2628
C20 C 0.9099(3) 0.5559(3) -0.1274(2)
C21 C 0.8176(3) 0.5800(3) -0.0159(2)
C22 C 0.9545(3) 0.7634(3) -0.0079(2)
H15 H 0.9332 0.8470 0.0221
H16 H 1.0395 0.7275 0.0081
C23 C 1.0221(3) 0.6397(3) -0.1829(2)
H17 H 1.1100 0.6086 -0.1690
H18 H 1.0381 0.6423 -0.2660
C24 C 1.2303(3) 0.8596(3) -0.2064(2)
C25 C 1.3313(3) 0.7872(3) -0.2903(3)
H19 H 1.3080 0.7543 -0.3512
C26 C 1.4667(3) 0.7644(4) -0.2828(3)
H20 H 1.5342 0.7170 -0.3399
C27 C 1.5045(3) 0.8100(3) -0.1929(3)
C28 C 1.4029(3) 0.8835(3) -0.1111(3)
H21 H 1.4271 0.9170 -0.0510
C29 C 1.2658(3) 0.9085(3) -0.1161(3)
H22 H 1.1990 0.9573 -0.0597
C30 C 1.6510(3) 0.7794(4) -0.1824(4)
H23 H 1.7069 0.7281 -0.2463
H24 H 1.6448 0.7365 -0.1110
H25 H 1.6942 0.8541 -0.1832
loop_
_geom_bond_atom_site_label_1
_geom_bond_atom_site_label_2
_geom_bond_site_symmetry_1
_geom_bond_site_symmetry_2
S1 O1 1_555 1_555
O2 S1 1_555 1_555
N1 S1 1_555 1_555
C1 H1 1_555 1_555
C2 C1 1_555 1_555
H2 C2 1_555 1_555
C3 C2 1_555 1_555
H3 C3 1_555 1_555
C4 C3 1_555 1_555
C5 C4 1_555 1_555
H4 C5 1_555 1_555
C6 C1 1_555 1_555
H5 C6 1_555 1_555
C7 H6 1_555 1_555
C8 C7 1_555 1_555
H7 C8 1_555 1_555
C9 C8 1_555 1_555
H8 C9 1_555 1_555
C10 C9 1_555 1_555
H9 C10 1_555 1_555
C11 C10 1_555 1_555
H10 C11 1_555 1_555
C12 C7 1_555 1_555
C13 C4 1_555 1_555
C14 C13 1_555 1_555
C15 C14 1_555 1_555
C16 H11 1_555 1_555
C17 C16 1_555 1_555
H12 C17 1_555 1_555
C18 C17 1_555 1_555
H13 C18 1_555 1_555
C19 C18 1_555 1_555
H14 C19 1_555 1_555
C20 C19 1_555 1_555
C21 C15 1_555 1_555
C22 N1 1_555 1_555
H15 C22 1_555 1_555
H16 C22 1_555 1_555
C23 N1 1_555 1_555
H17 C23 1_555 1_555
H18 C23 1_555 1_555
C24 S1 1_555 1_555
C25 C24 1_555 1_555
H19 C25 1_555 1_555
C26 C25 1_555 1_555
H20 C26 1_555 1_555
C27 C26 1_555 1_555
C28 C27 1_555 1_555
H21 C28 1_555 1_555
C29 C24 1_555 1_555
H22 C29 1_555 1_555
C30 C27 1_555 1_555
H23 C30 1_555 1_555
H24 C30 1_555 1_555
H25 C30 1_555 1_555
C5 C6 1_555 1_555
C11 C12 1_555 1_555
C12 C13 1_555 1_555
C15 C22 1_555 1_555
C16 C21 1_555 1_555
C20 C21 1_555 1_555
C20 C23 1_555 1_555
C28 C29 1_555 1_555

#END
