
#######################################################################
#
#                 Cambridge Crystallographic Data Centre
#                                CCDC 
#
#######################################################################
#
# If this CIF has been generated from an entry in the Cambridge 
# Structural Database, then it will include bibliographic, chemical, 
# crystal, experimental, refinement or atomic coordinate data resulting 
# from the CCDC's data processing and validation procedures.
#
#######################################################################

data_TIXKIW
_chemical_formula_moiety         'C26 H31 N1 O6 S1'
_chemical_name_systematic        
3a-(1,3-bis(3,4-dimethoxyphenyl)prop-2-en-1-yl)-3-methyl-3a,4,6,7-tetrahydro-7aH-thiopyrano[3,4-d][1,2]oxazol-7a-ol
_symmetry_cell_setting           orthorhombic
_symmetry_space_group_name_H-M   'P 21 21 21'
_symmetry_Int_Tables_number      19
_space_group_name_Hall           'P 2ac 2ab'
loop_
_symmetry_equiv_pos_site_id
_symmetry_equiv_pos_as_xyz
1 x,y,z
2 1/2-x,-y,1/2+z
3 -x,1/2+y,1/2-z
4 1/2+x,1/2-y,-z
_cell_length_a                   7.8654(6)
_cell_length_b                   14.2730(10)
_cell_length_c                   22.0700(16)
_cell_angle_alpha                90
_cell_angle_beta                 90
_cell_angle_gamma                90
_cell_volume                     2477.64
_exptl_crystal_colour            colorless
_exptl_crystal_description       block
_cell_formula_units_Z            4
loop_
_atom_site_label
_atom_site_type_symbol
_atom_site_fract_x
_atom_site_fract_y
_atom_site_fract_z
N1 N 0.4670(2) 0.11681(13) 0.75049(10)
S1 S 0.73754(7) 0.30525(5) 0.80704(3)
O1 O -0.0922(2) 0.68351(9) 1.01518(7)
O2 O -0.2414(2) 0.58243(10) 0.93593(8)
O3 O -0.07976(19) -0.01709(10) 0.76245(7)
O4 O -0.0578(2) -0.14219(9) 0.84461(7)
O5 O 0.17590(17) 0.28531(10) 0.77103(7)
H1 H 0.1442 0.3059 0.7382
O6 O 0.3734(2) 0.19154(12) 0.72439(7)
C1 C -0.0200(3) 0.46349(14) 0.93846(9)
H2 H -0.0759 0.4268 0.9099
C2 C -0.0908(3) 0.54669(14) 0.95627(9)
C3 C -0.0087(3) 0.60307(14) 0.99960(10)
C4 C 0.1431(3) 0.57384(15) 1.02296(11)
H3 H 0.1992 0.6109 1.0513
C5 C 0.2147(3) 0.48901(15) 1.00484(11)
H4 H 0.3178 0.4701 1.0215
C6 C 0.1354(3) 0.43247(14) 0.96259(10)
C7 C 0.2182(3) 0.34508(14) 0.94378(10)
H5 H 0.3111 0.3267 0.9670
C8 C 0.1786(3) 0.28915(14) 0.89835(10)
H6 H 0.0814 0.3024 0.8759
C9 C 0.2840(3) 0.20428(13) 0.88097(9)
H7 H 0.3546 0.1921 0.9167
C10 C 0.1809(3) 0.11449(13) 0.87267(9)
C11 C 0.1905(3) 0.04668(15) 0.91685(10)
H8 H 0.2508 0.0591 0.9522
C12 C 0.1116(3) -0.04058(15) 0.90970(10)
H9 H 0.1191 -0.0854 0.9401
C13 C 0.0232(3) -0.05945(13) 0.85751(10)
C14 C 0.0103(2) 0.00935(13) 0.81280(9)
C15 C 0.0867(3) 0.09529(13) 0.82070(9)
H10 H 0.0753 0.1411 0.7910
C16 C -0.0119(4) 0.74303(17) 1.05856(14)
H11 H -0.0823 0.7968 1.0659
H12 H 0.0964 0.7630 1.0432
H13 H 0.0042 0.7093 1.0958
C17 C -0.3440(4) 0.52603(19) 0.89791(14)
H14 H -0.4461 0.5594 0.8877
H15 H -0.3730 0.4691 0.9187
H16 H -0.2827 0.5113 0.8615
C18 C -0.0918(4) 0.04857(18) 0.71412(10)
H17 H -0.1588 0.0223 0.6820
H18 H 0.0201 0.0627 0.6993
H19 H -0.1446 0.1050 0.7285
C19 C -0.0179(4) -0.22224(15) 0.88009(13)
H20 H -0.0844 -0.2746 0.8665
H21 H -0.0432 -0.2096 0.9219
H22 H 0.1007 -0.2366 0.8759
C20 C 0.3483(3) 0.26638(14) 0.76855(10)
C21 C 0.4427(3) 0.35180(18) 0.74501(15)
H23 H 0.3959 0.3689 0.7059
H24 H 0.4229 0.4037 0.7725
C22 C 0.6332(3) 0.3377(2) 0.73828(15)
H25 H 0.6833 0.3953 0.7233
H26 H 0.6533 0.2894 0.7082
C23 C 0.5557(3) 0.28750(17) 0.85554(11)
H27 H 0.5942 0.2601 0.8933
H28 H 0.5063 0.3481 0.8649
C24 C 0.4160(2) 0.22425(13) 0.82856(9)
C25 C 0.4912(3) 0.13433(14) 0.80606(11)
C26 C 0.5885(4) 0.06856(18) 0.84513(12)
H29 H 0.6255 0.0160 0.8214
H30 H 0.5170 0.0470 0.8775
H31 H 0.6856 0.1002 0.8617
loop_
_geom_bond_atom_site_label_1
_geom_bond_atom_site_label_2
_geom_bond_site_symmetry_1
_geom_bond_site_symmetry_2
N1 O6 1_555 1_555
S1 C22 1_555 1_555
O1 C3 1_555 1_555
O2 C2 1_555 1_555
O3 C14 1_555 1_555
O4 C13 1_555 1_555
O5 H1 1_555 1_555
O6 C20 1_555 1_555
C1 H2 1_555 1_555
C2 C1 1_555 1_555
C3 C2 1_555 1_555
C4 C3 1_555 1_555
H3 C4 1_555 1_555
C5 C4 1_555 1_555
H4 C5 1_555 1_555
C6 C1 1_555 1_555
C7 C6 1_555 1_555
H5 C7 1_555 1_555
C8 C7 1_555 1_555
H6 C8 1_555 1_555
C9 C8 1_555 1_555
H7 C9 1_555 1_555
C10 C9 1_555 1_555
C11 C10 1_555 1_555
H8 C11 1_555 1_555
C12 C11 1_555 1_555
H9 C12 1_555 1_555
C13 C12 1_555 1_555
C14 C13 1_555 1_555
C15 C10 1_555 1_555
H10 C15 1_555 1_555
C16 O1 1_555 1_555
H11 C16 1_555 1_555
H12 C16 1_555 1_555
H13 C16 1_555 1_555
C17 O2 1_555 1_555
H14 C17 1_555 1_555
H15 C17 1_555 1_555
H16 C17 1_555 1_555
C18 O3 1_555 1_555
H17 C18 1_555 1_555
H18 C18 1_555 1_555
H19 C18 1_555 1_555
C19 O4 1_555 1_555
H20 C19 1_555 1_555
H21 C19 1_555 1_555
H22 C19 1_555 1_555
C20 O5 1_555 1_555
C21 C20 1_555 1_555
H23 C21 1_555 1_555
H24 C21 1_555 1_555
C22 C21 1_555 1_555
H25 C22 1_555 1_555
H26 C22 1_555 1_555
C23 S1 1_555 1_555
H27 C23 1_555 1_555
H28 C23 1_555 1_555
C24 C9 1_555 1_555
C25 N1 1_555 1_555
C26 C25 1_555 1_555
H29 C26 1_555 1_555
H30 C26 1_555 1_555
H31 C26 1_555 1_555
C5 C6 1_555 1_555
C14 C15 1_555 1_555
C20 C24 1_555 1_555
C23 C24 1_555 1_555
C24 C25 1_555 1_555

#END
