
#######################################################################
#
#                 Cambridge Crystallographic Data Centre
#                                CCDC 
#
#######################################################################
#
# If this CIF has been generated from an entry in the Cambridge 
# Structural Database, then it will include bibliographic, chemical, 
# crystal, experimental, refinement or atomic coordinate data resulting 
# from the CCDC's data processing and validation procedures.
#
#######################################################################

data_TIXQUM01
_chemical_formula_moiety         'C7 H8 N2 O2'
_chemical_name_systematic        2-Methyl-5-nitroaniline
_symmetry_cell_setting           monoclinic
_symmetry_space_group_name_H-M   'P 21/n'
_symmetry_Int_Tables_number      14
_space_group_name_Hall           '-P 2yn'
loop_
_symmetry_equiv_pos_site_id
_symmetry_equiv_pos_as_xyz
1 x,y,z
2 1/2-x,1/2+y,1/2-z
3 -x,-y,-z
4 1/2+x,1/2-y,1/2+z
_cell_length_a                   9.369(2)
_cell_length_b                   5.563(1)
_cell_length_c                   13.626(3)
_cell_angle_alpha                90
_cell_angle_beta                 92.36(3)
_cell_angle_gamma                90
_cell_volume                     709.581
_exptl_crystal_colour            orange
_exptl_crystal_description       'irregular prism'
_cell_formula_units_Z            4
_exptl_crystal_recrystallization_method methanol
loop_
_atom_site_label
_atom_site_type_symbol
_atom_site_fract_x
_atom_site_fract_y
_atom_site_fract_z
C1 C 1.00918(9) 0.1891(2) 0.29213(8)
C2 C 0.96433(9) -0.0194(2) 0.23937(7)
C3 C 0.86971(10) -0.1782(2) 0.28168(8)
C4 C 0.81377(10) -0.1356(2) 0.37340(8)
C5 C 0.85647(9) 0.0742(2) 0.42127(7)
C6 C 0.95266(9) 0.2355(2) 0.38383(7)
C7 C 1.01863(11) -0.0674(2) 0.13949(9)
N1 N 1.10806(9) 0.34293(15) 0.25496(7)
N2 N 0.79435(7) 0.13194(13) 0.51505(6)
O1 O 0.6994(2) 0.0025(3) 0.54424(12)
O2 O 0.8377(2) 0.3094(3) 0.56024(11)
H1 H 0.8379(3) -0.3399(5) 0.2419(2)
H2 H 0.7401(3) -0.2593(5) 0.4065(2)
H3 H 0.9826(3) 0.3960(5) 0.4244(2)
H4 H 1.1247(3) 0.5013(5) 0.2891(3)
H5 H 1.1320(3) 0.3373(6) 0.1841(2)
H6 H 1.1340(3) -0.0916(8) 0.1416(3)
H7 H 0.9955(5) 0.0843(7) 0.0895(3)
H8 H 0.9713(4) -0.2277(7) 0.1067(3)
loop_
_geom_bond_atom_site_label_1
_geom_bond_atom_site_label_2
_geom_bond_site_symmetry_1
_geom_bond_site_symmetry_2
C1 C2 1_555 1_555
C2 C3 1_555 1_555
C3 C4 1_555 1_555
C4 C5 1_555 1_555
C5 C6 1_555 1_555
C6 C1 1_555 1_555
C7 C2 1_555 1_555
N1 C1 1_555 1_555
N2 C5 1_555 1_555
O1 N2 1_555 1_555
O2 N2 1_555 1_555
H1 C3 1_555 1_555
H2 C4 1_555 1_555
H3 C6 1_555 1_555
H4 N1 1_555 1_555
H5 N1 1_555 1_555
H6 C7 1_555 1_555
H7 C7 1_555 1_555
H8 C7 1_555 1_555

#END
