
#######################################################################
#
#                 Cambridge Crystallographic Data Centre
#                                CCDC 
#
#######################################################################
#
# If this CIF has been generated from an entry in the Cambridge 
# Structural Database, then it will include bibliographic, chemical, 
# crystal, experimental, refinement or atomic coordinate data resulting 
# from the CCDC's data processing and validation procedures.
#
#######################################################################

data_TIXWIH
_chemical_formula_moiety         'C20 H20 N4 O4'
_chemical_name_systematic        
'(E)-Ethyl 3-((R)-1-phenylethylamino)-3-(4-nitrophenylamino)-2-cyanoacrylate'
_chemical_properties_biological  
'In vivo tests showed some protection effect but no inactivation or curative effects against the tobacco mosaic virus (TMV)'
_symmetry_cell_setting           orthorhombic
_symmetry_space_group_name_H-M   'P 21 21 21'
_symmetry_Int_Tables_number      19
_space_group_name_Hall           'P 2ac 2ab'
loop_
_symmetry_equiv_pos_site_id
_symmetry_equiv_pos_as_xyz
1 x,y,z
2 1/2-x,-y,1/2+z
3 -x,1/2+y,1/2-z
4 1/2+x,1/2-y,-z
_cell_length_a                   9.545(4)
_cell_length_b                   10.757(4)
_cell_length_c                   19.011(8)
_cell_angle_alpha                90
_cell_angle_beta                 90
_cell_angle_gamma                90
_cell_volume                     1951.97
_exptl_crystal_colour            white
_chemical_melting_point          '200-202.5 deg.C'
_cell_formula_units_Z            4
loop_
_atom_site_label
_atom_site_type_symbol
_atom_site_fract_x
_atom_site_fract_y
_atom_site_fract_z
O1 O 0.7369(2) 0.0564(2) 0.03551(11)
O2 O 0.8878(2) -0.10366(19) 0.04561(11)
O3 O 0.9291(4) -0.2752(3) 0.45757(17)
O4 O 1.0698(3) -0.1406(4) 0.50366(16)
N1 N 1.0840(3) -0.0841(2) 0.19030(14)
N2 N 0.7398(2) 0.2227(2) 0.14133(12)
H1 H 0.7268 0.2114 0.0970
N3 N 0.8572(2) 0.1663(2) 0.24265(12)
H2 H 0.8611 0.2435 0.2541
N4 N 0.9866(4) -0.1736(4) 0.45848(17)
C1 C 0.7507(5) -0.2417(5) -0.0268(2)
H3 H 0.7861 -0.3115 -0.0009
H4 H 0.7322 -0.2663 -0.0745
H5 H 0.6655 -0.2128 -0.0054
C2 C 0.8545(4) -0.1417(3) -0.02636(17)
H6 H 0.8183 -0.0709 -0.0523
H7 H 0.9392 -0.1698 -0.0496
C3 C 0.8255(3) 0.0017(3) 0.07005(16)
C4 C 0.8740(3) 0.0345(3) 0.13908(14)
C5 C 0.9887(3) -0.0315(3) 0.16764(16)
C6 C 0.8218(3) 0.1406(2) 0.17476(14)
C7 C 0.8879(3) 0.0799(3) 0.29580(15)
C8 C 0.8154(3) -0.0325(3) 0.30129(17)
H8 H 0.7446 -0.0512 0.2694
C9 C 0.8488(3) -0.1161(3) 0.35411(17)
H9 H 0.8024 -0.1920 0.3572
C10 C 0.9514(3) -0.0857(3) 0.40203(16)
C11 C 1.0202(4) 0.0266(4) 0.39939(17)
H10 H 1.0872 0.0467 0.4330
C12 C 0.9880(3) 0.1101(3) 0.34549(16)
H11 H 1.0340 0.1862 0.3430
C13 C 0.6701(3) 0.3304(3) 0.17370(15)
H12 H 0.7419 0.3821 0.1961
C14 C 0.6020(4) 0.4061(3) 0.11476(16)
H13 H 0.6712 0.4265 0.0800
H14 H 0.5633 0.4812 0.1339
H15 H 0.5287 0.3581 0.0934
C15 C 0.5630(3) 0.2961(3) 0.22856(15)
C16 C 0.5585(3) 0.3580(3) 0.29245(16)
H16 H 0.6277 0.4160 0.3029
C17 C 0.4536(3) 0.3359(3) 0.34108(17)
H17 H 0.4520 0.3797 0.3832
C18 C 0.3524(4) 0.2496(3) 0.3272(2)
H18 H 0.2817 0.2345 0.3597
C19 C 0.3559(3) 0.1846(3) 0.2641(2)
H19 H 0.2873 0.1257 0.2543
C20 C 0.4607(3) 0.2071(3) 0.21604(18)
H20 H 0.4629 0.1618 0.1744
loop_
_geom_bond_atom_site_label_1
_geom_bond_atom_site_label_2
_geom_bond_site_symmetry_1
_geom_bond_site_symmetry_2
O1 C3 1_555 1_555
O2 C2 1_555 1_555
O3 N4 1_555 1_555
O4 N4 1_555 1_555
N1 C5 1_555 1_555
N2 H1 1_555 1_555
N3 H2 1_555 1_555
N4 C10 1_555 1_555
C1 H3 1_555 1_555
H4 C1 1_555 1_555
H5 C1 1_555 1_555
C2 C1 1_555 1_555
H6 C2 1_555 1_555
H7 C2 1_555 1_555
C3 O2 1_555 1_555
C4 C3 1_555 1_555
C5 C4 1_555 1_555
C6 N2 1_555 1_555
C7 N3 1_555 1_555
C8 C7 1_555 1_555
H8 C8 1_555 1_555
C9 C8 1_555 1_555
H9 C9 1_555 1_555
C10 C9 1_555 1_555
C11 C10 1_555 1_555
H10 C11 1_555 1_555
C12 C7 1_555 1_555
H11 C12 1_555 1_555
C13 N2 1_555 1_555
H12 C13 1_555 1_555
C14 C13 1_555 1_555
H13 C14 1_555 1_555
H14 C14 1_555 1_555
H15 C14 1_555 1_555
C15 C13 1_555 1_555
C16 C15 1_555 1_555
H16 C16 1_555 1_555
C17 C16 1_555 1_555
H17 C17 1_555 1_555
C18 C17 1_555 1_555
H18 C18 1_555 1_555
C19 C18 1_555 1_555
H19 C19 1_555 1_555
C20 C15 1_555 1_555
H20 C20 1_555 1_555
N3 C6 1_555 1_555
C4 C6 1_555 1_555
C11 C12 1_555 1_555
C19 C20 1_555 1_555

#END
