
#######################################################################
#
#                 Cambridge Crystallographic Data Centre
#                                CCDC 
#
#######################################################################
#
# If this CIF has been generated from an entry in the Cambridge 
# Structural Database, then it will include bibliographic, chemical, 
# crystal, experimental, refinement or atomic coordinate data resulting 
# from the CCDC's data processing and validation procedures.
#
#######################################################################

data_TIYCOV
_chemical_formula_moiety         'C14 H15 I1 O2'
_chemical_name_systematic        3-Butyl-4-iodo-5-phenylfuran-2(5H)-one
_symmetry_cell_setting           orthorhombic
_symmetry_space_group_name_H-M   'P 21 21 21'
_symmetry_Int_Tables_number      19
_space_group_name_Hall           'P 2ac 2ab'
loop_
_symmetry_equiv_pos_site_id
_symmetry_equiv_pos_as_xyz
1 x,y,z
2 1/2-x,-y,1/2+z
3 -x,1/2+y,1/2-z
4 1/2+x,1/2-y,-z
_cell_length_a                   8.378(2)
_cell_length_b                   9.574(3)
_cell_length_c                   17.660(5)
_cell_angle_alpha                90
_cell_angle_beta                 90
_cell_angle_gamma                90
_cell_volume                     1416.53
_exptl_crystal_colour            colorless
_exptl_crystal_description       block
_cell_formula_units_Z            4
loop_
_atom_site_label
_atom_site_type_symbol
_atom_site_fract_x
_atom_site_fract_y
_atom_site_fract_z
I1 I 1.25235(2) 0.041008(19) 0.093286(9)
O1 O 0.6091(2) 0.0309(4) 0.11714(15)
O2 O 0.7667(3) 0.1062(2) 0.02338(10)
C1 C 0.9705(5) -0.1077(4) -0.06561(19)
H1 H 0.9375 -0.1573 -0.0232
C2 C 1.0093(5) -0.1783(4) -0.1313(2)
H2 H 1.0035 -0.2753 -0.1329
C3 C 1.0566(5) -0.1049(4) -0.1944(2)
H3 H 1.0813 -0.1520 -0.2390
C4 C 1.0674(5) 0.0378(4) -0.19162(19)
H4 H 1.1004 0.0873 -0.2341
C5 C 1.0296(4) 0.1083(4) -0.12596(18)
H5 H 1.0374 0.2051 -0.1245
C6 C 0.9805(3) 0.0368(3) -0.06260(16)
C7 C 0.9386(3) 0.1147(3) 0.00901(15)
H6 H 0.9702 0.2128 0.0040
C8 C 1.0084(3) 0.0549(3) 0.08044(15)
C9 C 0.8960(4) 0.0163(4) 0.12877(19)
C10 C 0.7419(4) 0.0489(3) 0.09256(14)
C11 C 0.9076(4) -0.0468(4) 0.20606(16)
H7 H 0.9957 -0.1126 0.2069
H8 H 0.8104 -0.0982 0.2166
C12 C 0.9329(4) 0.0610(4) 0.26772(16)
H9 H 1.0283 0.1143 0.2563
H10 H 0.8433 0.1252 0.2677
C13 C 0.9496(6) -0.0017(4) 0.34593(17)
H11 H 0.8511 -0.0492 0.3589
H12 H 1.0341 -0.0709 0.3450
C14 C 0.9864(6) 0.1048(6) 0.4065(2)
H13 H 0.9954 0.0588 0.4546
H14 H 0.9020 0.1725 0.4086
H15 H 1.0852 0.1507 0.3947
loop_
_geom_bond_atom_site_label_1
_geom_bond_atom_site_label_2
_geom_bond_site_symmetry_1
_geom_bond_site_symmetry_2
I1 C8 1_555 1_555
O1 C10 1_555 1_555
O2 C7 1_555 1_555
C1 H1 1_555 1_555
C2 C1 1_555 1_555
H2 C2 1_555 1_555
C3 C2 1_555 1_555
H3 C3 1_555 1_555
C4 C3 1_555 1_555
H4 C4 1_555 1_555
C5 C4 1_555 1_555
H5 C5 1_555 1_555
C6 C1 1_555 1_555
C7 C6 1_555 1_555
H6 C7 1_555 1_555
C8 C7 1_555 1_555
C9 C8 1_555 1_555
C10 O2 1_555 1_555
C11 C9 1_555 1_555
H7 C11 1_555 1_555
H8 C11 1_555 1_555
C12 C11 1_555 1_555
H9 C12 1_555 1_555
H10 C12 1_555 1_555
C13 C12 1_555 1_555
H11 C13 1_555 1_555
H12 C13 1_555 1_555
C14 C13 1_555 1_555
H13 C14 1_555 1_555
H14 C14 1_555 1_555
H15 C14 1_555 1_555
C5 C6 1_555 1_555
C9 C10 1_555 1_555

#END
