
#######################################################################
#
#                 Cambridge Crystallographic Data Centre
#                                CCDC 
#
#######################################################################
#
# If this CIF has been generated from an entry in the Cambridge 
# Structural Database, then it will include bibliographic, chemical, 
# crystal, experimental, refinement or atomic coordinate data resulting 
# from the CCDC's data processing and validation procedures.
#
#######################################################################

data_TIYDUC01
_chemical_formula_moiety         'C4 Br2 Cl2 N8 O8'
_chemical_name_systematic        
1,1'-Diazene-1,2-diylbis(2-bromo-N-chloro-2,2-dinitroethanimine)
_symmetry_cell_setting           monoclinic
_symmetry_space_group_name_H-M   'P 21/n'
_symmetry_Int_Tables_number      14
_space_group_name_Hall           '-P 2yn'
loop_
_symmetry_equiv_pos_site_id
_symmetry_equiv_pos_as_xyz
1 x,y,z
2 1/2-x,1/2+y,1/2-z
3 -x,-y,-z
4 1/2+x,1/2-y,1/2+z
_cell_length_a                   7.9800(7)
_cell_length_b                   7.1271(7)
_cell_length_c                   12.9548(12)
_cell_angle_alpha                90
_cell_angle_beta                 102.7060(10)
_cell_angle_gamma                90
_cell_volume                     718.752
_exptl_crystal_colour            green
_exptl_crystal_description       plate
_cell_formula_units_Z            2
loop_
_atom_site_label
_atom_site_type_symbol
_atom_site_fract_x
_atom_site_fract_y
_atom_site_fract_z
Br1 Br 0.60783(5) 0.03904(4) 0.87308(2)
Cl1 Cl 1.1969(11) 0.2578(13) 0.8286(10)
O1 O 0.8845(2) 0.3098(3) 1.10326(14)
N1 N 0.7489(3) 0.2872(3) 1.04049(15)
C1 C 0.9421(3) 0.1968(3) 0.91623(17)
O2 O 0.6052(2) 0.3044(3) 1.05630(15)
C2 C 0.7590(3) 0.2390(3) 0.92613(17)
N2 N 0.6991(3) 0.4240(3) 0.86545(17)
O3 O 0.6104(3) 0.4114(3) 0.77744(15)
N3 N 1.0387(3) 0.0439(2) 0.97049(15)
O4 O 0.7515(3) 0.5670(2) 0.91333(17)
N4 N 0.9976(3) 0.3003(3) 0.85165(15)
Br1B Br 1.39217(5) -0.03904(4) 1.12692(2)
Cl1B Cl 0.8031(11) -0.2578(13) 1.1714(10)
O1B O 1.1155(2) -0.3098(3) 0.89674(14)
N1B N 1.2511(3) -0.2872(3) 0.95951(15)
C1B C 1.0579(3) -0.1968(3) 1.08377(17)
O2B O 1.3948(2) -0.3044(3) 0.94370(15)
C2B C 1.2410(3) -0.2390(3) 1.07387(17)
N2B N 1.3009(3) -0.4240(3) 1.13455(17)
O3B O 1.3896(3) -0.4114(3) 1.22256(15)
N3B N 0.9613(3) -0.0439(2) 1.02951(15)
O4B O 1.2485(3) -0.5670(2) 1.08667(17)
N4B N 1.0024(3) -0.3003(3) 1.14835(15)
Cl2? Cl 0.615(5) 0.070(4) 0.855(3)
Br2? Br 1.2107(16) 0.238(2) 0.8309(14)
loop_
_geom_bond_atom_site_label_1
_geom_bond_atom_site_label_2
_geom_bond_site_symmetry_1
_geom_bond_site_symmetry_2
Br1 C2 1_555 1_555
Cl1 N4 1_555 1_555
O1 N1 1_555 1_555
N1 O2 1_555 1_555
C1 C2 1_555 1_555
C2 N1 1_555 1_555
N2 C2 1_555 1_555
O3 N2 1_555 1_555
N3 C1 1_555 1_555
O4 N2 1_555 1_555
N4 C1 1_555 1_555
Br1B C2B 1_555 1_555
Cl1B N4B 1_555 1_555
O1B N1B 1_555 1_555
N1B O2B 1_555 1_555
C1B C2B 1_555 1_555
C2B N1B 1_555 1_555
N2B C2B 1_555 1_555
O3B N2B 1_555 1_555
N3B N3 1_555 1_555
O4B N2B 1_555 1_555
N4B C1B 1_555 1_555
C1B N3B 1_555 1_555

#END
