
#######################################################################
#
#                 Cambridge Crystallographic Data Centre
#                                CCDC 
#
#######################################################################
#
# If this CIF has been generated from an entry in the Cambridge 
# Structural Database, then it will include bibliographic, chemical, 
# crystal, experimental, refinement or atomic coordinate data resulting 
# from the CCDC's data processing and validation procedures.
#
#######################################################################

data_TIYGIT
_chemical_formula_moiety         'C20 H22 N2 O2 S1'
_chemical_name_systematic        
1-(Ethylsulfonyl)-3a,8-dimethyl-3-phenyl-1,3a,8,8a-tetrahydropyrrolo[2,3-b]indole
_symmetry_cell_setting           orthorhombic
_symmetry_space_group_name_H-M   'P 21 21 21'
_symmetry_Int_Tables_number      19
_space_group_name_Hall           'P 2ac 2ab'
loop_
_symmetry_equiv_pos_site_id
_symmetry_equiv_pos_as_xyz
1 x,y,z
2 1/2-x,-y,1/2+z
3 1/2+x,1/2-y,-z
4 -x,1/2+y,1/2-z
_cell_length_a                   10.0751(12)
_cell_length_b                   10.7241(13)
_cell_length_c                   16.6027(19)
_cell_angle_alpha                90
_cell_angle_beta                 90
_cell_angle_gamma                90
_cell_volume                     1793.86
_exptl_crystal_colour            colorless
_exptl_crystal_description       prism
_cell_formula_units_Z            4
loop_
_atom_site_label
_atom_site_type_symbol
_atom_site_fract_x
_atom_site_fract_y
_atom_site_fract_z
S1 S 0.28552(5) 0.70995(4) 0.02019(3)
O1 O 0.2816(2) 0.76883(17) -0.05733(10)
O2 O 0.17272(18) 0.72217(18) 0.07257(13)
N1 N 0.30479(16) 0.55831(15) 0.00431(10)
N2 N 0.3596(4) 0.4639(4) -0.1213(2)
C1 C 0.47551(18) 0.39689(17) -0.00006(11)
C2 C 0.2972(2) 0.48015(18) 0.07324(12)
C3 C 0.44591(17) 0.29165(19) -0.05912(11)
C4 C 0.38801(19) 0.29027(18) 0.13648(11)
C5 C 0.38734(19) 0.38889(17) 0.07494(11)
C6 C 0.4677(2) 0.1651(2) -0.05200(14)
H1 H 0.5031 0.1320 -0.0049
C7 C 0.2675(2) 0.24935(18) 0.16933(12)
H2 H 0.1882 0.2819 0.1498
C8 C 0.4197(2) 0.51375(18) -0.04570(12)
C9 C 0.3933(2) 0.3411(2) -0.12949(13)
C10 C 0.2642(3) 0.1609(2) 0.23059(13)
H3 H 0.1833 0.1368 0.2526
C11 C 0.5054(2) 0.2365(2) 0.16624(14)
H4 H 0.5872 0.2612 0.1457
C12 C 0.6255(2) 0.4109(2) 0.01451(14)
C13 C 0.4288(2) 0.7580(2) 0.07236(16)
H5 H 0.4422 0.7041 0.1186
H6 H 0.5053 0.7494 0.0373
C14 C 0.3857(2) 0.1374(3) -0.18680(17)
H7 H 0.3656 0.0847 -0.2296
C15 C 0.3642(2) 0.2651(3) -0.19538(15)
H8 H 0.3318 0.2984 -0.2432
C16 C 0.3812(3) 0.1085(2) 0.25896(14)
H9 H 0.3792 0.0486 0.2994
C17 C 0.4995(3) 0.1461(2) 0.22666(14)
H10 H 0.5778 0.1105 0.2454
C18 C 0.4355(2) 0.0871(2) -0.11736(16)
H11 H 0.4480 0.0015 -0.1133
C19 C 0.3346(3) 0.5504(3) -0.18597(13)
H12 H 0.2741 0.6136 -0.1679
H13 H 0.2965 0.5066 -0.2308
H14 H 0.4166 0.5884 -0.2023
C20 C 0.4187(4) 0.8912(3) 0.1005(3)
H15 H 0.3913 0.9432 0.0565
H16 H 0.5037 0.9186 0.1198
H17 H 0.3548 0.8968 0.1432
H18 H 0.660(3) 0.3332(19) 0.0307(18)
H19 H 0.232(3) 0.499(3) 0.1022(15)
H20 H 0.636(3) 0.477(2) 0.0515(13)
H21 H 0.672(3) 0.432(3) -0.0326(13)
H22 H 0.482(3) 0.582(3) -0.0598(15)
H23? H 0.2446 0.5630 -0.1689
H24? H 0.3353 0.5080 -0.2369
H25? H 0.3780 0.6296 -0.1914
N3? N 0.4045(4) 0.4752(4) -0.1264(2)
loop_
_geom_bond_atom_site_label_1
_geom_bond_atom_site_label_2
_geom_bond_site_symmetry_1
_geom_bond_site_symmetry_2
S1 O1 1_555 1_555
O2 S1 1_555 1_555
N1 S1 1_555 1_555
N2 C8 1_555 1_555
C1 C3 1_555 1_555
C2 N1 1_555 1_555
C3 C6 1_555 1_555
C4 C5 1_555 1_555
C5 C1 1_555 1_555
C6 H1 1_555 1_555
C7 C4 1_555 1_555
H2 C7 1_555 1_555
C8 N1 1_555 1_555
C9 N2 1_555 1_555
C10 C7 1_555 1_555
H3 C10 1_555 1_555
C11 C4 1_555 1_555
H4 C11 1_555 1_555
C12 C1 1_555 1_555
C13 S1 1_555 1_555
H5 C13 1_555 1_555
H6 C13 1_555 1_555
C14 H7 1_555 1_555
C15 C9 1_555 1_555
H8 C15 1_555 1_555
C16 C10 1_555 1_555
H9 C16 1_555 1_555
C17 C11 1_555 1_555
H10 C17 1_555 1_555
C18 C6 1_555 1_555
H11 C18 1_555 1_555
C19 N2 1_555 1_555
H12 C19 1_555 1_555
H13 C19 1_555 1_555
H14 C19 1_555 1_555
C20 C13 1_555 1_555
H15 C20 1_555 1_555
H16 C20 1_555 1_555
H17 C20 1_555 1_555
H18 C12 1_555 1_555
H19 C2 1_555 1_555
H20 C12 1_555 1_555
H21 C12 1_555 1_555
H22 C8 1_555 1_555
C1 C8 1_555 1_555
C2 C5 1_555 1_555
C3 C9 1_555 1_555
C14 C15 1_555 1_555
C14 C18 1_555 1_555
C16 C17 1_555 1_555

#END
