
#######################################################################
#
#                 Cambridge Crystallographic Data Centre
#                                CCDC 
#
#######################################################################
#
# If this CIF has been generated from an entry in the Cambridge 
# Structural Database, then it will include bibliographic, chemical, 
# crystal, experimental, refinement or atomic coordinate data resulting 
# from the CCDC's data processing and validation procedures.
#
#######################################################################

data_TIYGEP
_chemical_formula_moiety         'C19 H22 N2 O2 S1'
_chemical_name_systematic        
3a,8-Dimethyl-1-(methylsulfonyl)-3-phenyl-1,2,3,3a,8,8a-hexahydropyrrolo[2,3-b]indole
_symmetry_cell_setting           orthorhombic
_symmetry_space_group_name_H-M   'P 21 21 21'
_symmetry_Int_Tables_number      19
_space_group_name_Hall           'P 2ac 2ab'
loop_
_symmetry_equiv_pos_site_id
_symmetry_equiv_pos_as_xyz
1 x,y,z
2 1/2-x,-y,1/2+z
3 1/2+x,1/2-y,-z
4 -x,1/2+y,1/2-z
_cell_length_a                   6.70930(10)
_cell_length_b                   8.8356(2)
_cell_length_c                   28.7168(7)
_cell_angle_alpha                90
_cell_angle_beta                 90
_cell_angle_gamma                90
_cell_volume                     1702.35
_exptl_crystal_colour            colorless
_exptl_crystal_description       plate
_cell_formula_units_Z            4
loop_
_atom_site_label
_atom_site_type_symbol
_atom_site_fract_x
_atom_site_fract_y
_atom_site_fract_z
S1 S 0.84344(2) 0.155931(17) 0.220702(5)
O1 O 0.73037(9) 0.02051(5) 0.228238(16)
O2 O 1.05732(7) 0.14884(6) 0.22170(2)
N1 N 0.78190(7) 0.22176(6) 0.169690(17)
N2 N 0.51090(7) 0.12342(5) 0.121062(17)
C1 C 0.54758(8) 0.39020(6) 0.132965(19)
C2 C 0.40209(7) 0.35637(6) 0.094510(19)
C3 C 0.38773(8) 0.19857(6) 0.089434(19)
C4 C 0.56990(8) 0.23333(6) 0.156703(19)
C5 C 0.76334(8) 0.41586(6) 0.113363(19)
C6 C 0.80375(8) 0.57603(6) 0.09780(2)
C7 C 0.29255(8) 0.45218(6) 0.06613(2)
C8 C 0.48018(9) 0.51346(7) 0.16653(2)
C9 C 0.26215(8) 0.13489(7) 0.05619(2)
C10 C 0.16743(8) 0.38932(7) 0.03212(2)
C11 C 0.15311(8) 0.23253(7) 0.02746(2)
C12 C 0.89873(8) 0.35173(8) 0.15125(2)
C13 C 0.75209(9) 0.61684(7) 0.05230(2)
C14 C 0.45141(10) -0.02596(7) 0.13710(3)
C15 C 0.88253(9) 0.68806(7) 0.12687(3)
C16 C 0.77613(10) 0.76438(8) 0.03627(2)
C17 C 0.76635(11) 0.29059(8) 0.26254(2)
C18 C 0.90862(10) 0.83585(8) 0.11087(3)
C19 C 0.85494(10) 0.87487(8) 0.06561(3)
H1 H 0.4771(16) 0.2201(11) 0.1883(4)
H2 H 0.7805(13) 0.3386(11) 0.0838(3)
H3 H 0.3037(13) 0.5729(12) 0.0704(3)
H4 H 0.4610(15) 0.6172(12) 0.1487(4)
H5 H 0.5855(15) 0.5322(11) 0.1942(4)
H6 H 0.3424(17) 0.4808(11) 0.1822(4)
H7 H 0.2437(14) 0.0148(12) 0.0531(3)
H8 H 0.0827(15) 0.4629(12) 0.0096(3)
H9 H 0.0571(16) 0.1838(12) 0.0015(4)
H10 H 1.0390(16) 0.3125(12) 0.1374(4)
H11 H 0.9314(16) 0.4334(14) 0.1782(4)
H12 H 0.6928(14) 0.5299(12) 0.0303(4)
H13 H 0.3083(18) -0.0278(13) 0.1552(4)
H14 H 0.5642(16) -0.0672(13) 0.1605(4)
H15 H 0.4393(15) -0.1022(13) 0.1079(4)
H16 H 0.9203(16) 0.6650(13) 0.1615(4)
H17 H 0.7353(18) 0.7926(13) 0.0007(4)
H18 H 0.6096(18) 0.3067(12) 0.2598(4)
H19 H 0.8440(18) 0.3881(13) 0.2569(4)
H20 H 0.8081(18) 0.2467(13) 0.2967(4)
H21 H 0.9661(17) 0.9165(14) 0.1346(4)
H22 H 0.8698(16) 0.9925(14) 0.0545(4)
loop_
_geom_bond_atom_site_label_1
_geom_bond_atom_site_label_2
_geom_bond_site_symmetry_1
_geom_bond_site_symmetry_2
S1 O1 1_555 1_555
O2 S1 1_555 1_555
N1 S1 1_555 1_555
N2 C3 1_555 1_555
C1 C2 1_555 1_555
C2 C3 1_555 1_555
C3 C9 1_555 1_555
C4 N1 1_555 1_555
C5 C1 1_555 1_555
C6 C5 1_555 1_555
C7 C2 1_555 1_555
C8 C1 1_555 1_555
C9 C11 1_555 1_555
C10 C7 1_555 1_555
C11 C10 1_555 1_555
C12 N1 1_555 1_555
C13 C6 1_555 1_555
C14 N2 1_555 1_555
C15 C6 1_555 1_555
C16 C13 1_555 1_555
C17 S1 1_555 1_555
C18 C15 1_555 1_555
C19 C16 1_555 1_555
H1 C4 1_555 1_555
H2 C5 1_555 1_555
H3 C7 1_555 1_555
H4 C8 1_555 1_555
H5 C8 1_555 1_555
H6 C8 1_555 1_555
H7 C9 1_555 1_555
H8 C10 1_555 1_555
H9 C11 1_555 1_555
H10 C12 1_555 1_555
H11 C12 1_555 1_555
H12 C13 1_555 1_555
H13 C14 1_555 1_555
H14 C14 1_555 1_555
H15 C14 1_555 1_555
H16 C15 1_555 1_555
H17 C16 1_555 1_555
H18 C17 1_555 1_555
H19 C17 1_555 1_555
H20 C17 1_555 1_555
H21 C18 1_555 1_555
H22 C19 1_555 1_555
N2 C4 1_555 1_555
C1 C4 1_555 1_555
C5 C12 1_555 1_555
C18 C19 1_555 1_555

#END
