
#######################################################################
#
#                 Cambridge Crystallographic Data Centre
#                                CCDC 
#
#######################################################################
#
# If this CIF has been generated from an entry in the Cambridge 
# Structural Database, then it will include bibliographic, chemical, 
# crystal, experimental, refinement or atomic coordinate data resulting 
# from the CCDC's data processing and validation procedures.
#
#######################################################################

data_TIYHOA
_chemical_formula_moiety         'C32 H39 N2 O1 P1'
_chemical_name_systematic        
'1,3-bis(2,2-dimethyl-1-(1-naphthyl)propyl)-1,3,2-diazaphospholidine 2-oxide'
_symmetry_cell_setting           orthorhombic
_symmetry_space_group_name_H-M   'P 21 21 21'
_symmetry_Int_Tables_number      19
_space_group_name_Hall           'P 2ac 2ab'
loop_
_symmetry_equiv_pos_site_id
_symmetry_equiv_pos_as_xyz
1 x,y,z
2 1/2-x,-y,1/2+z
3 -x,1/2+y,1/2-z
4 1/2+x,1/2-y,-z
_cell_length_a                   6.91670(10)
_cell_length_b                   16.1463(3)
_cell_length_c                   25.1508(5)
_cell_angle_alpha                90
_cell_angle_beta                 90
_cell_angle_gamma                90
_cell_volume                     2808.82
_exptl_crystal_colour            colorless
_exptl_crystal_description       needle
_cell_formula_units_Z            4
loop_
_atom_site_label
_atom_site_type_symbol
_atom_site_fract_x
_atom_site_fract_y
_atom_site_fract_z
P1 P 0.23488(9) 0.52935(4) 0.20425(2)
H1 H 0.202(4) 0.4516(17) 0.1880(11)
O1 O 0.4373(3) 0.54047(13) 0.21989(7)
N1 N 0.1491(3) 0.58841(14) 0.15622(8)
N2 N 0.0625(3) 0.55157(13) 0.24691(8)
C1 C -0.0571(4) 0.6023(2) 0.16417(11)
H2 H -0.1319 0.5581 0.1481
H3 H -0.0963 0.6545 0.1484
C2 C -0.0875(4) 0.60401(19) 0.22340(10)
H4 H -0.0767 0.6602 0.2367
H5 H -0.2148 0.5829 0.2323
C3 C 0.2522(4) 0.59197(15) 0.10496(9)
H6 H 0.3722 0.5614 0.1116
C4 C 0.1542(4) 0.54350(16) 0.06064(9)
C5 C 0.2425(4) 0.47011(15) 0.03881(8)
C6 C 0.4207(4) 0.43780(17) 0.05594(11)
H7 H 0.4879 0.4646 0.0829
C7 C 0.4976(5) 0.36759(19) 0.03369(14)
H8 H 0.6152 0.3473 0.0460
C8 C 0.4016(6) 0.3263(2) -0.00713(13)
H9 H 0.4548 0.2788 -0.0220
C9 C 0.2312(6) 0.35567(19) -0.02496(12)
H10 H 0.1684 0.3283 -0.0525
C10 C 0.1458(5) 0.42714(18) -0.00267(10)
C11 C -0.0348(5) 0.4564(2) -0.02134(12)
H11 H -0.0978 0.4285 -0.0486
C12 C -0.1167(5) 0.5247(3) 0.00014(12)
H12 H -0.2362 0.5430 -0.0121
C13 C -0.0218(4) 0.5681(2) 0.04089(12)
H13 H -0.0802 0.6151 0.0550
C14 C 0.3220(5) 0.68122(18) 0.09088(11)
C15 C 0.4430(9) 0.6750(3) 0.0403(2)
H14 H 0.5036 0.7273 0.0334
H15 H 0.3611 0.6604 0.0110
H16 H 0.5405 0.6332 0.0449
C16 C 0.1601(6) 0.7441(2) 0.08284(17)
H17 H 0.2145 0.7965 0.0729
H18 H 0.0887 0.7502 0.1153
H19 H 0.0750 0.7251 0.0552
C17 C 0.4493(6) 0.7130(2) 0.13646(19)
H20 H 0.5496 0.6735 0.1437
H21 H 0.3716 0.7206 0.1677
H22 H 0.5064 0.7650 0.1265
C18 C 0.0946(4) 0.54845(14) 0.30550(9)
H23 H 0.2354 0.5486 0.3099
C19 C 0.0267(4) 0.62912(16) 0.33026(9)
C20 C 0.1420(4) 0.70208(16) 0.32561(9)
C21 C 0.3200(4) 0.70337(18) 0.29823(12)
H24 H 0.3688 0.6545 0.2840
C22 C 0.4233(6) 0.7761(2) 0.29222(15)
H25 H 0.5391 0.7760 0.2734
C23 C 0.3536(7) 0.8502(2) 0.31442(17)
H26 H 0.4231 0.8990 0.3102
C24 C 0.1852(7) 0.8505(2) 0.34199(15)
H27 H 0.1426 0.8996 0.3574
C25 C 0.0731(5) 0.77813(17) 0.34783(11)
C26 C -0.1056(6) 0.7802(2) 0.37394(12)
H28 H -0.1487 0.8293 0.3892
C27 C -0.2157(6) 0.7115(2) 0.37717(12)
H29 H -0.3354 0.7137 0.3940
C28 C -0.1503(5) 0.63678(19) 0.35529(11)
H30 H -0.2293 0.5903 0.3577
C29 C 0.0261(5) 0.46492(17) 0.33043(11)
C30 C -0.1850(6) 0.4427(2) 0.31930(14)
H31 H -0.2040 0.3845 0.3250
H32 H -0.2159 0.4561 0.2831
H33 H -0.2675 0.4735 0.3428
C31 C 0.0687(6) 0.4662(2) 0.39022(11)
H34 H -0.0076 0.5085 0.4069
H35 H 0.2034 0.4776 0.3958
H36 H 0.0371 0.4133 0.4054
C32 C 0.1510(7) 0.39641(18) 0.30537(14)
H37 H 0.2849 0.4118 0.3074
H38 H 0.1150 0.3893 0.2688
H39 H 0.1311 0.3454 0.3242
loop_
_geom_bond_atom_site_label_1
_geom_bond_atom_site_label_2
_geom_bond_site_symmetry_1
_geom_bond_site_symmetry_2
P1 H1 1_555 1_555
O1 P1 1_555 1_555
N1 P1 1_555 1_555
N2 P1 1_555 1_555
C1 N1 1_555 1_555
H2 C1 1_555 1_555
H3 C1 1_555 1_555
C2 N2 1_555 1_555
H4 C2 1_555 1_555
H5 C2 1_555 1_555
C3 N1 1_555 1_555
H6 C3 1_555 1_555
C4 C3 1_555 1_555
C5 C4 1_555 1_555
C6 C5 1_555 1_555
H7 C6 1_555 1_555
C7 C6 1_555 1_555
H8 C7 1_555 1_555
C8 C7 1_555 1_555
H9 C8 1_555 1_555
C9 C8 1_555 1_555
H10 C9 1_555 1_555
C10 C5 1_555 1_555
C11 C10 1_555 1_555
H11 C11 1_555 1_555
C12 C11 1_555 1_555
H12 C12 1_555 1_555
C13 C4 1_555 1_555
H13 C13 1_555 1_555
C14 C3 1_555 1_555
C15 C14 1_555 1_555
H14 C15 1_555 1_555
H15 C15 1_555 1_555
H16 C15 1_555 1_555
C16 C14 1_555 1_555
H17 C16 1_555 1_555
H18 C16 1_555 1_555
H19 C16 1_555 1_555
C17 C14 1_555 1_555
H20 C17 1_555 1_555
H21 C17 1_555 1_555
H22 C17 1_555 1_555
C18 N2 1_555 1_555
H23 C18 1_555 1_555
C19 C18 1_555 1_555
C20 C19 1_555 1_555
C21 C20 1_555 1_555
H24 C21 1_555 1_555
C22 C21 1_555 1_555
H25 C22 1_555 1_555
C23 C22 1_555 1_555
H26 C23 1_555 1_555
C24 C23 1_555 1_555
H27 C24 1_555 1_555
C25 C20 1_555 1_555
C26 C25 1_555 1_555
H28 C26 1_555 1_555
C27 C26 1_555 1_555
H29 C27 1_555 1_555
C28 C19 1_555 1_555
H30 C28 1_555 1_555
C29 C18 1_555 1_555
C30 C29 1_555 1_555
H31 C30 1_555 1_555
H32 C30 1_555 1_555
H33 C30 1_555 1_555
C31 C29 1_555 1_555
H34 C31 1_555 1_555
H35 C31 1_555 1_555
H36 C31 1_555 1_555
C32 C29 1_555 1_555
H37 C32 1_555 1_555
H38 C32 1_555 1_555
H39 C32 1_555 1_555
C1 C2 1_555 1_555
C9 C10 1_555 1_555
C12 C13 1_555 1_555
C24 C25 1_555 1_555
C27 C28 1_555 1_555

#END
