
#######################################################################
#
#                 Cambridge Crystallographic Data Centre
#                                CCDC 
#
#######################################################################
#
# If this CIF has been generated from an entry in the Cambridge 
# Structural Database, then it will include bibliographic, chemical, 
# crystal, experimental, refinement or atomic coordinate data resulting 
# from the CCDC's data processing and validation procedures.
#
#######################################################################

data_TIYHIU
_chemical_formula_moiety         'C11 H20 N1 O1 1+,Br1 1-'
_chemical_name_systematic        
'8a-Allyl-7-methylhexahydro-1H-pyrrolo[2,1-c][1,4]oxazin-5-ium bromide'
_symmetry_cell_setting           orthorhombic
_symmetry_space_group_name_H-M   'P 21 21 21'
_symmetry_Int_Tables_number      19
_space_group_name_Hall           'P 2ac 2ab'
loop_
_symmetry_equiv_pos_site_id
_symmetry_equiv_pos_as_xyz
1 x,y,z
2 1/2-x,-y,1/2+z
3 -x,1/2+y,1/2-z
4 1/2+x,1/2-y,-z
_cell_length_a                   7.70090(13)
_cell_length_b                   8.44732(20)
_cell_length_c                   19.9183(4)
_cell_angle_alpha                90
_cell_angle_beta                 90
_cell_angle_gamma                90
_cell_volume                     1295.72
_exptl_crystal_colour            colorless
_exptl_crystal_description       needle
_cell_formula_units_Z            4
loop_
_atom_site_label
_atom_site_type_symbol
_atom_site_fract_x
_atom_site_fract_y
_atom_site_fract_z
Br1 Br 0.67746(3) 0.60446(3) 0.425326(11)
O1 O 0.0596(2) 0.80309(18) 0.29372(7)
N1 N 0.28104(18) 0.65085(16) 0.38733(6)
H1 H 0.3969 0.6345 0.3931
C1 C 0.2542(3) 0.8264(2) 0.38785(9)
H2 H 0.3448 0.8769 0.3616
H3 H 0.2625 0.8653 0.4336
C2 C 0.0799(4) 0.8694(3) 0.35926(11)
H4 H -0.0110 0.8301 0.3885
H5 H 0.0694 0.9837 0.3568
C3 C 0.0581(2) 0.6362(2) 0.29885(9)
H6 H 0.0287 0.5914 0.2555
H7 H -0.0311 0.6046 0.3305
C4 C 0.2315(2) 0.5693(2) 0.32164(8)
C5 C 0.2105(3) 0.3961(3) 0.34285(9)
H8 H 0.3039 0.3328 0.3243
H9 H 0.1011 0.3546 0.3263
C6 C 0.2147(3) 0.3893(2) 0.42023(9)
H10 H 0.3304 0.3539 0.4343
C7 C 0.1918(3) 0.5610(2) 0.44155(8)
H11 H 0.0698 0.5891 0.4441
H12 H 0.2457 0.5805 0.4848
C8 C 0.3752(3) 0.6006(3) 0.27021(9)
H13 H 0.3857 0.7139 0.2634
H14 H 0.4846 0.5626 0.2882
C9 C 0.3430(3) 0.5225(3) 0.20364(10)
H15 H 0.3275 0.4133 0.2031
C10 C 0.3356(3) 0.5974(4) 0.14692(11)
H16 H 0.3506 0.7066 0.1458
H17 H 0.3152 0.5419 0.1074
C11 C 0.0803(5) 0.2816(3) 0.45234(13)
H18 H 0.0793 0.2983 0.5000
H19 H 0.1089 0.1732 0.4430
H20 H -0.0324 0.3052 0.4343
loop_
_geom_bond_atom_site_label_1
_geom_bond_atom_site_label_2
_geom_bond_site_symmetry_1
_geom_bond_site_symmetry_2
O1 C2 1_555 1_555
N1 H1 1_555 1_555
C1 N1 1_555 1_555
H2 C1 1_555 1_555
H3 C1 1_555 1_555
C2 C1 1_555 1_555
H4 C2 1_555 1_555
H5 C2 1_555 1_555
C3 O1 1_555 1_555
H6 C3 1_555 1_555
H7 C3 1_555 1_555
C4 N1 1_555 1_555
C5 C4 1_555 1_555
H8 C5 1_555 1_555
H9 C5 1_555 1_555
C6 C5 1_555 1_555
H10 C6 1_555 1_555
C7 N1 1_555 1_555
H11 C7 1_555 1_555
H12 C7 1_555 1_555
C8 C4 1_555 1_555
H13 C8 1_555 1_555
H14 C8 1_555 1_555
C9 C8 1_555 1_555
H15 C9 1_555 1_555
C10 C9 1_555 1_555
H16 C10 1_555 1_555
H17 C10 1_555 1_555
C11 C6 1_555 1_555
H18 C11 1_555 1_555
H19 C11 1_555 1_555
H20 C11 1_555 1_555
C3 C4 1_555 1_555
C6 C7 1_555 1_555

#END
