
#######################################################################
#
#                 Cambridge Crystallographic Data Centre
#                                CCDC 
#
#######################################################################
#
# If this CIF has been generated from an entry in the Cambridge 
# Structural Database, then it will include bibliographic, chemical, 
# crystal, experimental, refinement or atomic coordinate data resulting 
# from the CCDC's data processing and validation procedures.
#
#######################################################################

data_TIYLOE
_chemical_formula_moiety         'C18 H18 O6,H2 O1'
_chemical_name_systematic        
'(2S,3S)-5,6-Dimethoxy-2-(4-methoxyphenyl)-2,3-dihydro-1-benzofuran-3-carboxylic acid monohydrate'
_symmetry_cell_setting           monoclinic
_symmetry_space_group_name_H-M   'P 21'
_symmetry_Int_Tables_number      4
_space_group_name_Hall           'P 2yb'
loop_
_symmetry_equiv_pos_site_id
_symmetry_equiv_pos_as_xyz
1 x,y,z
2 -x,1/2+y,-z
_cell_length_a                   10.2635(3)
_cell_length_b                   5.08800(10)
_cell_length_c                   15.9439(4)
_cell_angle_alpha                90
_cell_angle_beta                 97.1880(10)
_cell_angle_gamma                90
_cell_volume                     826.058
_exptl_crystal_colour            colorless
_exptl_crystal_description       prism
_cell_formula_units_Z            2
loop_
_atom_site_label
_atom_site_type_symbol
_atom_site_fract_x
_atom_site_fract_y
_atom_site_fract_z
O1 O 0.97898(11) 0.4360(3) 0.31312(7)
O2 O 0.75797(11) -0.2027(3) 0.14072(7)
O3 O 1.34334(10) 0.3609(3) 0.14787(7)
O4 O 1.22721(11) -0.0122(3) 0.06379(7)
O5 O 0.66035(13) 0.3404(3) 0.61877(7)
O6 O 0.64078(14) 0.1278(5) 0.18270(12)
C1 C 0.84643(14) 0.3236(4) 0.29877(9)
C2 C 0.86054(15) 0.0628(3) 0.25124(9)
C3 C 0.98446(14) 0.1175(4) 0.21082(9)
C4 C 1.04633(15) 0.3283(4) 0.25241(9)
C5 C 1.16758(15) 0.4234(4) 0.23555(9)
C6 C 1.22419(14) 0.2959(4) 0.17256(9)
C7 C 1.16068(15) 0.0862(4) 0.12695(9)
C8 C 1.04128(15) -0.0083(4) 0.14681(10)
C9 C 0.79217(14) 0.3174(4) 0.38231(9)
C10 C 0.84322(17) 0.1519(4) 0.44838(11)
C11 C 0.79751(18) 0.1630(4) 0.52598(11)
C12 C 0.69948(15) 0.3427(4) 0.53951(10)
C13 C 0.64687(16) 0.5069(4) 0.47498(10)
C14 C 0.69448(16) 0.4928(4) 0.39679(10)
C15 C 0.74051(15) 0.0034(4) 0.18853(10)
C16 C 1.41604(17) 0.5684(4) 0.19266(11)
C17 C 1.16074(18) -0.1965(5) 0.00682(11)
C18 C 0.57054(19) 0.5426(4) 0.63664(11)
H1 H 0.7956(19) 0.443(5) 0.2623(12)
H2 H 0.878(2) -0.089(6) 0.2861(14)
H3 H 1.2103(19) 0.571(5) 0.2647(12)
H4 H 0.9961(19) -0.144(6) 0.1165(12)
H5 H 0.908(2) 0.030(6) 0.4395(13)
H6 H 0.838(2) 0.045(6) 0.5672(14)
H7 H 0.578(2) 0.627(6) 0.4829(14)
H8 H 0.660(2) 0.606(6) 0.3506(14)
H9 H 0.689(2) -0.218(6) 0.1038(15)
H10 H 1.430(2) 0.525(5) 0.2518(14)
H11 H 1.372(3) 0.735(7) 0.1841(16)
H12 H 1.497(2) 0.587(6) 0.1713(14)
H13 H 1.145(2) -0.368(6) 0.0367(14)
H14 H 1.074(2) -0.119(6) -0.0206(15)
H15 H 1.220(2) -0.234(5) -0.0346(13)
H16 H 0.614(2) 0.721(6) 0.6253(15)
H17 H 0.565(2) 0.533(6) 0.6989(15)
H18 H 0.483(2) 0.516(6) 0.5997(13)
O7 O 0.56685(11) -0.2600(3) 0.01131(7)
H19 H 0.612(2) -0.278(6) -0.0376(11)
H20 H 0.516(3) -0.094(4) 0.0046(16)
loop_
_geom_bond_atom_site_label_1
_geom_bond_atom_site_label_2
_geom_bond_site_symmetry_1
_geom_bond_site_symmetry_2
O1 C1 1_555 1_555
O2 C15 1_555 1_555
O3 C6 1_555 1_555
O4 C7 1_555 1_555
O5 C12 1_555 1_555
O6 C15 1_555 1_555
C1 C2 1_555 1_555
C2 C3 1_555 1_555
C3 C4 1_555 1_555
C4 O1 1_555 1_555
C5 C4 1_555 1_555
C6 C5 1_555 1_555
C7 C6 1_555 1_555
C8 C3 1_555 1_555
C9 C1 1_555 1_555
C10 C9 1_555 1_555
C11 C10 1_555 1_555
C12 C11 1_555 1_555
C13 C12 1_555 1_555
C14 C9 1_555 1_555
C15 C2 1_555 1_555
C16 O3 1_555 1_555
C17 O4 1_555 1_555
C18 O5 1_555 1_555
H1 C1 1_555 1_555
H2 C2 1_555 1_555
H3 C5 1_555 1_555
H4 C8 1_555 1_555
H5 C10 1_555 1_555
H6 C11 1_555 1_555
H7 C13 1_555 1_555
H8 C14 1_555 1_555
H9 O2 1_555 1_555
H10 C16 1_555 1_555
H11 C16 1_555 1_555
H12 C16 1_555 1_555
H13 C17 1_555 1_555
H14 C17 1_555 1_555
H15 C17 1_555 1_555
H16 C18 1_555 1_555
H17 C18 1_555 1_555
H18 C18 1_555 1_555
O7 H19 1_555 1_555
H20 O7 1_555 1_555
C7 C8 1_555 1_555
C13 C14 1_555 1_555

#END
