
#######################################################################
#
#                 Cambridge Crystallographic Data Centre
#                                CCDC 
#
#######################################################################
#
# If this CIF has been generated from an entry in the Cambridge 
# Structural Database, then it will include bibliographic, chemical, 
# crystal, experimental, refinement or atomic coordinate data resulting 
# from the CCDC's data processing and validation procedures.
#
#######################################################################

data_TIYLIY
_chemical_formula_moiety         'C44 H34 N2 O4'
_chemical_name_systematic        
2,13-Dibutylpyrrolo[3''',4''':6'',7'']anthra[2'',3'':5',6']cycloocta[1',2':6,7]naphtho[2,3-f]isoindole-1,3,12,14(2H,13H)-tetrone
_symmetry_cell_setting           monoclinic
_symmetry_space_group_name_H-M   'P 21/c'
_symmetry_Int_Tables_number      14
_space_group_name_Hall           '-P 2ybc'
loop_
_symmetry_equiv_pos_site_id
_symmetry_equiv_pos_as_xyz
1 x,y,z
2 -x,1/2+y,1/2-z
3 -x,-y,-z
4 x,1/2-y,1/2+z
_cell_length_a                   4.67790(10)
_cell_length_b                   12.8530(2)
_cell_length_c                   53.3818(7)
_cell_angle_alpha                90
_cell_angle_beta                 91.8752(5)
_cell_angle_gamma                90
_cell_volume                     3207.86
_exptl_crystal_colour            orange
_exptl_crystal_description       Prism
_cell_formula_units_Z            4
loop_
_atom_site_label
_atom_site_type_symbol
_atom_site_fract_x
_atom_site_fract_y
_atom_site_fract_z
C1 C -0.7037(5) 0.18287(18) 0.09971(4)
C2 C -0.6357(5) 0.07504(18) 0.09658(4)
C3 C -0.7819(5) -0.00780(19) 0.11066(4)
H1 H -0.9144 -0.0611 0.0997
C4 C -0.7684(5) -0.02386(18) 0.13531(4)
H2 H -0.8868 -0.0899 0.1421
C5 C -0.6095(5) 0.03853(18) 0.15439(4)
C6 C -0.6747(5) 0.14644(18) 0.15854(4)
C7 C -0.8939(5) 0.20388(18) 0.14329(4)
H3 H -1.0672 0.2374 0.1536
C8 C -0.9052(5) 0.21960(18) 0.11852(4)
H4 H -1.0849 0.2650 0.1113
C9 C -0.5893(5) 0.25434(18) 0.08364(4)
H5 H -0.6531 0.3351 0.0850
C10 C -0.3906(5) 0.22586(17) 0.06527(4)
C11 C -0.3136(5) 0.11881(18) 0.06297(4)
C12 C -0.4478(5) 0.04521(18) 0.07859(4)
H6 H -0.4010 -0.0367 0.0763
C13 C -0.2688(5) 0.29957(18) 0.04934(4)
H7 H -0.3293 0.3806 0.0508
C14 C -0.0714(5) 0.26990(17) 0.03167(4)
C15 C 0.0101(5) 0.16185(17) 0.02967(4)
C16 C -0.1152(5) 0.08895(17) 0.04520(4)
H8 H -0.0582 0.0076 0.0435
C17 C 0.0503(5) 0.34529(18) 0.01541(4)
H9 H -0.0087 0.4266 0.0165
C18 C 0.2417(5) 0.31212(17) -0.00141(4)
C19 C 0.3268(5) 0.20618(17) -0.00317(4)
C20 C 0.2165(5) 0.13116(18) 0.01173(4)
H10 H 0.2825 0.0507 0.0101
C21 C 0.3940(5) 0.37156(18) -0.02053(4)
C22 C 0.5361(5) 0.19866(18) -0.02333(4)
O1 O 0.3799(4) 0.46347(13) -0.02605(3)
N1 N 0.5647(4) 0.30004(15) -0.03268(3)
O2 O 0.6641(3) 0.12360(13) -0.03102(3)
C23 C -0.4116(5) -0.01052(18) 0.16989(4)
H11 H -0.3688 -0.0924 0.1670
C24 C -0.2617(5) 0.04245(18) 0.18954(4)
C25 C -0.3309(4) 0.14887(17) 0.19418(4)
C26 C -0.5441(5) 0.19719(18) 0.17851(4)
H12 H -0.6057 0.2766 0.1824
C27 C -0.0502(5) -0.00702(17) 0.20463(4)
H13 H 0.0026 -0.0876 0.2011
C28 C 0.0922(4) 0.04586(17) 0.22403(4)
C29 C 0.0211(4) 0.15336(17) 0.22882(4)
C30 C -0.1885(5) 0.20220(17) 0.21381(4)
H14 H -0.2422 0.2827 0.2174
C31 C 0.3087(5) -0.00499(17) 0.23924(4)
H15 H 0.3672 -0.0851 0.2357
C32 C 0.4382(5) 0.04976(17) 0.25812(4)
C33 C 0.3678(5) 0.15583(17) 0.26289(4)
C34 C 0.1680(5) 0.20802(17) 0.24885(4)
H16 H 0.1205 0.2888 0.2527
C35 C 0.6622(5) 0.01760(18) 0.27670(4)
N2 N 0.7141(4) 0.10504(14) 0.29188(3)
C36 C 0.5491(5) 0.19085(17) 0.28450(4)
O3 O 0.7826(3) -0.06548(13) 0.27952(3)
O4 O 0.5615(4) 0.27541(12) 0.29472(3)
C37 C 0.7494(5) 0.3305(2) -0.05288(4)
H17 H 0.9130 0.2710 -0.0552
H18 H 0.8573 0.4033 -0.0479
C38 C 0.5829(5) 0.3449(2) -0.07760(5)
H19 H 0.4127 0.4017 -0.0750
H20 H 0.7259 0.3759 -0.0915
C39 C 0.4535(6) 0.2450(2) -0.08726(5)
H21 H 0.3033 0.2163 -0.0736
H22 H 0.6232 0.1871 -0.0887
C40 C 0.2978(7) 0.2545(3) -0.11262(5)
H23 H 0.2200 0.1806 -0.1183
H24 H 0.4408 0.2828 -0.1260
H25 H 0.1242 0.3068 -0.1112
C41 C 0.9179(5) 0.10793(19) 0.31304(4)
H26 H 1.0219 0.1840 0.3138
H27 H 1.0828 0.0492 0.3104
C42 C 0.7726(6) 0.08788(19) 0.33779(4)
H28 H 0.9259 0.1027 0.3532
H29 H 0.5958 0.1426 0.3395
C43 C 0.6580(6) -0.0225(2) 0.34016(4)
H30 H 0.8343 -0.0773 0.3382
H31 H 0.5026 -0.0370 0.3248
C44 C 0.5161(6) -0.0428(2) 0.36500(5)
H32 H 0.4416 -0.1206 0.3654
H33 H 0.3416 0.0087 0.3669
H34 H 0.6667 -0.0307 0.3800
loop_
_geom_bond_atom_site_label_1
_geom_bond_atom_site_label_2
_geom_bond_site_symmetry_1
_geom_bond_site_symmetry_2
C1 C2 1_555 1_555
C2 C3 1_555 1_555
C3 H1 1_555 1_555
C4 C3 1_555 1_555
H2 C4 1_555 1_555
C5 C4 1_555 1_555
C6 C5 1_555 1_555
C7 C6 1_555 1_555
H3 C7 1_555 1_555
C8 C1 1_555 1_555
H4 C8 1_555 1_555
C9 C1 1_555 1_555
H5 C9 1_555 1_555
C10 C9 1_555 1_555
C11 C10 1_555 1_555
C12 C2 1_555 1_555
H6 C12 1_555 1_555
C13 C10 1_555 1_555
H7 C13 1_555 1_555
C14 C13 1_555 1_555
C15 C14 1_555 1_555
C16 C11 1_555 1_555
H8 C16 1_555 1_555
C17 C14 1_555 1_555
H9 C17 1_555 1_555
C18 C17 1_555 1_555
C19 C18 1_555 1_555
C20 C15 1_555 1_555
H10 C20 1_555 1_555
C21 C18 1_555 1_555
C22 C19 1_555 1_555
O1 C21 1_555 1_555
N1 C21 1_555 1_555
O2 C22 1_555 1_555
C23 C5 1_555 1_555
H11 C23 1_555 1_555
C24 C23 1_555 1_555
C25 C24 1_555 1_555
C26 C6 1_555 1_555
H12 C26 1_555 1_555
C27 C24 1_555 1_555
H13 C27 1_555 1_555
C28 C27 1_555 1_555
C29 C28 1_555 1_555
C30 C25 1_555 1_555
H14 C30 1_555 1_555
C31 C28 1_555 1_555
H15 C31 1_555 1_555
C32 C31 1_555 1_555
C33 C32 1_555 1_555
C34 C29 1_555 1_555
H16 C34 1_555 1_555
C35 C32 1_555 1_555
N2 C35 1_555 1_555
C36 C33 1_555 1_555
O3 C35 1_555 1_555
O4 C36 1_555 1_555
C37 N1 1_555 1_555
H17 C37 1_555 1_555
H18 C37 1_555 1_555
C38 C37 1_555 1_555
H19 C38 1_555 1_555
H20 C38 1_555 1_555
C39 C38 1_555 1_555
H21 C39 1_555 1_555
H22 C39 1_555 1_555
C40 C39 1_555 1_555
H23 C40 1_555 1_555
H24 C40 1_555 1_555
H25 C40 1_555 1_555
C41 N2 1_555 1_555
H26 C41 1_555 1_555
H27 C41 1_555 1_555
C42 C41 1_555 1_555
H28 C42 1_555 1_555
H29 C42 1_555 1_555
C43 C42 1_555 1_555
H30 C43 1_555 1_555
H31 C43 1_555 1_555
C44 C43 1_555 1_555
H32 C44 1_555 1_555
H33 C44 1_555 1_555
H34 C44 1_555 1_555
C7 C8 1_555 1_555
C11 C12 1_555 1_555
C15 C16 1_555 1_555
C19 C20 1_555 1_555
C22 N1 1_555 1_555
C25 C26 1_555 1_555
C29 C30 1_555 1_555
C33 C34 1_555 1_555
N2 C36 1_555 1_555

#END
