
#######################################################################
#
#                 Cambridge Crystallographic Data Centre
#                                CCDC 
#
#######################################################################
#
# If this CIF has been generated from an entry in the Cambridge 
# Structural Database, then it will include bibliographic, chemical, 
# crystal, experimental, refinement or atomic coordinate data resulting 
# from the CCDC's data processing and validation procedures.
#
#######################################################################

data_TIYLEU
_chemical_formula_moiety         'C20 H17 N1 O2'
_chemical_name_systematic        
2-Butyl-1H-naphtho[2,3-f]isoindole-1,3(2H)-dione
_symmetry_cell_setting           monoclinic
_symmetry_space_group_name_H-M   'P 21/c'
_symmetry_Int_Tables_number      14
_space_group_name_Hall           '-P 2ybc'
loop_
_symmetry_equiv_pos_site_id
_symmetry_equiv_pos_as_xyz
1 x,y,z
2 -x,1/2+y,1/2-z
3 -x,-y,-z
4 x,1/2-y,1/2+z
_cell_length_a                   17.309(2)
_cell_length_b                   11.5835(14)
_cell_length_c                   7.4963(9)
_cell_angle_alpha                90
_cell_angle_beta                 101.442(2)
_cell_angle_gamma                90
_cell_volume                     1473.13
_exptl_crystal_colour            yellow
_exptl_crystal_description       Prism
_cell_formula_units_Z            4
loop_
_atom_site_label
_atom_site_type_symbol
_atom_site_fract_x
_atom_site_fract_y
_atom_site_fract_z
O1 O 0.29197(5) -0.04783(8) 0.94258(13)
O2 O 0.28006(5) 0.28435(8) 0.60819(14)
N1 N 0.30502(6) 0.11522(9) 0.77251(14)
C1 C 0.17479(7) 0.16106(11) 0.67132(16)
C2 C 0.10556(7) 0.21004(10) 0.58937(17)
H1 H 0.1050 0.2866 0.5061
C3 C 0.03340(7) 0.15863(10) 0.61511(16)
C4 C -0.03983(7) 0.20540(10) 0.53703(17)
H2 H -0.0420 0.2814 0.4520
C5 C -0.11041(7) 0.15703(11) 0.56545(16)
C6 C -0.18556(8) 0.20571(11) 0.48847(18)
H3 H -0.1888 0.2820 0.4039
C7 C -0.25315(8) 0.15696(12) 0.52052(18)
H4 H -0.3095 0.1951 0.4614
C8 C -0.25047(8) 0.05656(12) 0.63068(18)
H5 H -0.3047 0.0193 0.6556
C9 C -0.17992(8) 0.00693(11) 0.70518(18)
H6 H -0.1788 -0.0702 0.7874
C10 C -0.10767(7) 0.05535(11) 0.67608(17)
C11 C -0.03432(7) 0.00707(11) 0.75176(17)
H7 H -0.0324 -0.0705 0.8331
C12 C 0.03634(7) 0.05567(10) 0.72572(16)
C13 C 0.11129(7) 0.00597(10) 0.80513(17)
H8 H 0.1146 -0.0723 0.8852
C14 C 0.17785(7) 0.05900(10) 0.77795(17)
C15 C 0.26239(7) 0.03008(11) 0.84516(17)
C16 C 0.25690(8) 0.19825(11) 0.67387(17)
C17 C 0.39029(7) 0.12772(11) 0.82416(18)
H9 H 0.4089 0.1076 0.9686
H10 H 0.4061 0.2174 0.8043
C18 C 0.43425(8) 0.04962(12) 0.7148(2)
H11 H 0.4123 0.0645 0.5698
H12 H 0.4227 -0.0404 0.7438
C19 C 0.52317(8) 0.07135(13) 0.7598(2)
H13 H 0.5424 0.0761 0.9074
H14 H 0.5532 -0.0018 0.7117
C20 C 0.54776(9) 0.18123(15) 0.6760(2)
H15 H 0.5350 0.1737 0.5323
H16 H 0.6090 0.1945 0.7216
H17 H 0.5164 0.2522 0.7155
loop_
_geom_bond_atom_site_label_1
_geom_bond_atom_site_label_2
_geom_bond_site_symmetry_1
_geom_bond_site_symmetry_2
O1 C15 1_555 1_555
O2 C16 1_555 1_555
N1 C15 1_555 1_555
C1 C2 1_555 1_555
C2 H1 1_555 1_555
C3 C2 1_555 1_555
C4 C3 1_555 1_555
H2 C4 1_555 1_555
C5 C4 1_555 1_555
C6 C5 1_555 1_555
H3 C6 1_555 1_555
C7 C6 1_555 1_555
H4 C7 1_555 1_555
C8 C7 1_555 1_555
H5 C8 1_555 1_555
C9 C8 1_555 1_555
H6 C9 1_555 1_555
C10 C5 1_555 1_555
C11 C10 1_555 1_555
H7 C11 1_555 1_555
C12 C3 1_555 1_555
C13 C12 1_555 1_555
H8 C13 1_555 1_555
C14 C1 1_555 1_555
C15 C14 1_555 1_555
C16 N1 1_555 1_555
C17 N1 1_555 1_555
H9 C17 1_555 1_555
H10 C17 1_555 1_555
C18 C17 1_555 1_555
H11 C18 1_555 1_555
H12 C18 1_555 1_555
C19 C18 1_555 1_555
H13 C19 1_555 1_555
H14 C19 1_555 1_555
C20 C19 1_555 1_555
H15 C20 1_555 1_555
H16 C20 1_555 1_555
H17 C20 1_555 1_555
C1 C16 1_555 1_555
C9 C10 1_555 1_555
C11 C12 1_555 1_555
C13 C14 1_555 1_555

#END
