
#######################################################################
#
#                 Cambridge Crystallographic Data Centre
#                                CCDC 
#
#######################################################################
#
# If this CIF has been generated from an entry in the Cambridge 
# Structural Database, then it will include bibliographic, chemical, 
# crystal, experimental, refinement or atomic coordinate data resulting 
# from the CCDC's data processing and validation procedures.
#
#######################################################################

data_TIYQID
_chemical_formula_moiety         'C20 H28 N2 O2'
_chemical_name_systematic        
(1-(2,6-Diisopropylphenyl)-3-isopropyl-1H-imidazol-3-ium-2-yl)acetate
_symmetry_cell_setting           monoclinic
_symmetry_space_group_name_H-M   'P 21/c'
_symmetry_Int_Tables_number      14
_space_group_name_Hall           '-P 2ybc'
loop_
_symmetry_equiv_pos_site_id
_symmetry_equiv_pos_as_xyz
1 x,y,z
2 -x,1/2+y,1/2-z
3 -x,-y,-z
4 x,1/2-y,1/2+z
_cell_length_a                   10.5264(2)
_cell_length_b                   15.4743(3)
_cell_length_c                   11.5956(2)
_cell_angle_alpha                90
_cell_angle_beta                 104.7300(10)
_cell_angle_gamma                90
_cell_volume                     1826.72
_exptl_crystal_colour            colorless
_exptl_crystal_description       block
_cell_formula_units_Z            4
loop_
_atom_site_label
_atom_site_type_symbol
_atom_site_fract_x
_atom_site_fract_y
_atom_site_fract_z
N1 N 0.26374(13) 0.16073(8) 0.79091(11)
N2 N 0.07248(14) 0.19596(9) 0.81165(12)
C1 C 0.38189(16) 0.11368(10) 0.78854(14)
C2 C 0.16538(16) 0.13475(11) 0.83797(14)
C3 C 0.37902(17) 0.06256(11) 0.68865(15)
C4 C -0.05420(17) 0.19530(12) 0.84556(15)
H1 H -0.0628 0.1402 0.8847
C5 C 0.23043(17) 0.23946(11) 0.73432(14)
H2 H 0.2811 0.2713 0.6946
C6 C 0.49408(17) 0.12619(11) 0.88216(15)
O1 O 0.08163(16) -0.08784(8) 0.89533(14)
C7 C 0.60956(18) 0.08645(11) 0.87155(16)
H3 H 0.6864 0.0934 0.9317
C8 C 0.11141(17) 0.26140(11) 0.74744(14)
H4 H 0.0643 0.3111 0.7188
C9 C 0.16350(17) 0.05489(11) 0.90715(15)
H5 H 0.1369 0.0697 0.9789
H6 H 0.2523 0.0323 0.9317
C10 C 0.49344(18) 0.18308(12) 0.98868(15)
H7 H 0.4017 0.1934 0.9892
C11 C 0.61113(19) 0.03690(12) 0.77276(17)
H8 H 0.6892 0.0117 0.7662
C12 C 0.49755(19) 0.02466(12) 0.68381(16)
H9 H 0.5002 -0.0099 0.6188
C13 C 0.25494(18) 0.04971(11) 0.58998(15)
H10 H 0.1807 0.0701 0.6192
C14 C 0.0709(2) -0.01862(12) 0.84037(17)
O2 O -0.00200(19) -0.00003(10) 0.74270(15)
C15 C 0.2571(2) 0.10148(14) 0.47910(17)
H11 H 0.2702 0.1615 0.4995
H12 H 0.1750 0.0943 0.4206
H13 H 0.3274 0.0813 0.4472
C16 C -0.16459(19) 0.20304(15) 0.73400(18)
H14 H -0.1611 0.1553 0.6820
H15 H -0.1558 0.2562 0.6942
H16 H -0.2472 0.2025 0.7548
C17 C -0.0535(2) 0.26776(15) 0.93226(19)
H17 H 0.0179 0.2597 1.0017
H18 H -0.1350 0.2679 0.9551
H19 H -0.0430 0.3219 0.8953
C18 C 0.5562(2) 0.27032(12) 0.97682(17)
H20 H 0.5113 0.2969 0.9029
H21 H 0.6470 0.2621 0.9782
H22 H 0.5499 0.3069 1.0420
C19 C 0.5617(2) 0.13978(14) 1.10621(17)
H23 H 0.5200 0.0855 1.1126
H24 H 0.5557 0.1764 1.1714
H25 H 0.6524 0.1302 1.1086
C20 C 0.2316(3) -0.04492(14) 0.5566(2)
H26 H 0.2293 -0.0778 0.6262
H27 H 0.3013 -0.0658 0.5244
H28 H 0.1493 -0.0510 0.4980
loop_
_geom_bond_atom_site_label_1
_geom_bond_atom_site_label_2
_geom_bond_site_symmetry_1
_geom_bond_site_symmetry_2
N1 C1 1_555 1_555
N2 C2 1_555 1_555
C1 C3 1_555 1_555
C2 N1 1_555 1_555
C3 C12 1_555 1_555
C4 N2 1_555 1_555
H1 C4 1_555 1_555
C5 N1 1_555 1_555
H2 C5 1_555 1_555
C6 C1 1_555 1_555
O1 C14 1_555 1_555
C7 C6 1_555 1_555
H3 C7 1_555 1_555
C8 N2 1_555 1_555
H4 C8 1_555 1_555
C9 C2 1_555 1_555
H5 C9 1_555 1_555
H6 C9 1_555 1_555
C10 C6 1_555 1_555
H7 C10 1_555 1_555
C11 C7 1_555 1_555
H8 C11 1_555 1_555
C12 C11 1_555 1_555
H9 C12 1_555 1_555
C13 C3 1_555 1_555
H10 C13 1_555 1_555
C14 C9 1_555 1_555
O2 C14 1_555 1_555
C15 C13 1_555 1_555
H11 C15 1_555 1_555
H12 C15 1_555 1_555
H13 C15 1_555 1_555
C16 C4 1_555 1_555
H14 C16 1_555 1_555
H15 C16 1_555 1_555
H16 C16 1_555 1_555
C17 C4 1_555 1_555
H17 C17 1_555 1_555
H18 C17 1_555 1_555
H19 C17 1_555 1_555
C18 C10 1_555 1_555
H20 C18 1_555 1_555
H21 C18 1_555 1_555
H22 C18 1_555 1_555
C19 C10 1_555 1_555
H23 C19 1_555 1_555
H24 C19 1_555 1_555
H25 C19 1_555 1_555
C20 C13 1_555 1_555
H26 C20 1_555 1_555
H27 C20 1_555 1_555
H28 C20 1_555 1_555
C5 C8 1_555 1_555

#END
