
#######################################################################
#
#                 Cambridge Crystallographic Data Centre
#                                CCDC 
#
#######################################################################
#
# If this CIF has been generated from an entry in the Cambridge 
# Structural Database, then it will include bibliographic, chemical, 
# crystal, experimental, refinement or atomic coordinate data resulting 
# from the CCDC's data processing and validation procedures.
#
#######################################################################

data_TIYQUP
_chemical_formula_moiety         'C10 H16 N2 O2'
_chemical_name_systematic        
(1-t-Butyl-3-methyl-1H-imidazol-3-ium-2-yl)acetate
_symmetry_cell_setting           orthorhombic
_symmetry_space_group_name_H-M   'P 21 21 21'
_symmetry_Int_Tables_number      19
_space_group_name_Hall           'P 2ac 2ab'
loop_
_symmetry_equiv_pos_site_id
_symmetry_equiv_pos_as_xyz
1 x,y,z
2 1/2-x,-y,1/2+z
3 -x,1/2+y,1/2-z
4 1/2+x,1/2-y,-z
_cell_length_a                   8.440(3)
_cell_length_b                   8.862(3)
_cell_length_c                   13.239(4)
_cell_angle_alpha                90
_cell_angle_beta                 90
_cell_angle_gamma                90
_cell_volume                     990.215
_exptl_crystal_colour            colorless
_exptl_crystal_description       block
_cell_formula_units_Z            4
loop_
_atom_site_label
_atom_site_type_symbol
_atom_site_fract_x
_atom_site_fract_y
_atom_site_fract_z
N1 N 0.0243(4) 0.5955(4) 0.0437(2)
O1 O -0.1653(4) 0.8644(4) 0.1553(2)
N2 N -0.2066(4) 0.4898(4) 0.0583(2)
O2 O -0.2085(4) 0.8099(4) 0.3170(2)
C1 C -0.1545(5) 0.4687(5) -0.0402(3)
H1 H -0.2083 0.4177 -0.0912
C2 C -0.0126(5) 0.5350(5) -0.0485(3)
H2 H 0.0497 0.5393 -0.1064
C3 C 0.1692(5) 0.6744(6) 0.0704(3)
H3 H 0.1642 0.7053 0.1398
H4 H 0.1809 0.7617 0.0280
H5 H 0.2581 0.6084 0.0609
C4 C -0.1649(5) 0.7829(6) 0.2305(3)
C5 C -0.3592(5) 0.4260(5) 0.1000(3)
C6 C -0.0940(5) 0.5663(5) 0.1089(3)
C7 C -0.3183(5) 0.2901(5) 0.1643(3)
H6 H -0.2503 0.3208 0.2187
H7 H -0.2648 0.2163 0.1236
H8 H -0.4137 0.2472 0.1914
C8 C -0.0922(5) 0.6179(5) 0.2160(3)
H9 H 0.0162 0.6176 0.2404
H10 H -0.1522 0.5471 0.2568
C9 C -0.4665(5) 0.3821(6) 0.0119(3)
H11 H -0.4152 0.3061 -0.0282
H12 H -0.4869 0.4692 -0.0292
H13 H -0.5648 0.3432 0.0375
C10 C -0.4455(5) 0.5441(5) 0.1610(3)
H14 H -0.3807 0.5748 0.2169
H15 H -0.5432 0.5028 0.1858
H16 H -0.4676 0.6299 0.1190
loop_
_geom_bond_atom_site_label_1
_geom_bond_atom_site_label_2
_geom_bond_site_symmetry_1
_geom_bond_site_symmetry_2
N1 C2 1_555 1_555
O1 C4 1_555 1_555
N2 C1 1_555 1_555
O2 C4 1_555 1_555
C1 H1 1_555 1_555
C2 C1 1_555 1_555
H2 C2 1_555 1_555
C3 N1 1_555 1_555
H3 C3 1_555 1_555
H4 C3 1_555 1_555
H5 C3 1_555 1_555
C4 C8 1_555 1_555
C5 N2 1_555 1_555
C6 N1 1_555 1_555
C7 C5 1_555 1_555
H6 C7 1_555 1_555
H7 C7 1_555 1_555
H8 C7 1_555 1_555
C8 C6 1_555 1_555
H9 C8 1_555 1_555
H10 C8 1_555 1_555
C9 C5 1_555 1_555
H11 C9 1_555 1_555
H12 C9 1_555 1_555
H13 C9 1_555 1_555
C10 C5 1_555 1_555
H14 C10 1_555 1_555
H15 C10 1_555 1_555
H16 C10 1_555 1_555
N2 C6 1_555 1_555

#END
