
#######################################################################
#
#                 Cambridge Crystallographic Data Centre
#                                CCDC 
#
#######################################################################
#
# If this CIF has been generated from an entry in the Cambridge 
# Structural Database, then it will include bibliographic, chemical, 
# crystal, experimental, refinement or atomic coordinate data resulting 
# from the CCDC's data processing and validation procedures.
#
#######################################################################

data_TIYRAW
_chemical_formula_moiety         'C11 H18 N2 O2'
_chemical_name_systematic        
(1,3-Diisopropyl-1H-imidazol-3-ium-2-yl)acetate
_symmetry_cell_setting           monoclinic
_symmetry_space_group_name_H-M   'P 21/c'
_symmetry_Int_Tables_number      14
_space_group_name_Hall           '-P 2ybc'
loop_
_symmetry_equiv_pos_site_id
_symmetry_equiv_pos_as_xyz
1 x,y,z
2 -x,1/2+y,1/2-z
3 -x,-y,-z
4 x,1/2-y,1/2+z
_cell_length_a                   10.3471(9)
_cell_length_b                   10.6302(8)
_cell_length_c                   11.6411(9)
_cell_angle_alpha                90
_cell_angle_beta                 114.972(5)
_cell_angle_gamma                90
_cell_volume                     1160.72
_exptl_crystal_colour            colorless
_exptl_crystal_description       block
_cell_formula_units_Z            4
loop_
_atom_site_label
_atom_site_type_symbol
_atom_site_fract_x
_atom_site_fract_y
_atom_site_fract_z
N1 N 0.58572(14) 0.10404(12) 0.20334(13)
N2 N 0.79298(14) 0.16811(12) 0.22538(12)
C1 C 0.77802(16) -0.04396(16) 0.45849(15)
C2 C 0.78710(17) -0.04026(15) 0.32891(15)
H1 H 0.8863 -0.0467 0.3433
H2 H 0.7373 -0.1127 0.2792
O1 O 0.82524(15) 0.05083(12) 0.52589(12)
O2 O 0.72897(14) -0.14097(13) 0.48291(12)
C3 C 0.72554(16) 0.07543(14) 0.25545(15)
C4 C 0.94904(17) 0.18056(16) 0.26480(16)
H3 H 0.9979 0.1142 0.3264
C5 C 0.56568(19) 0.21712(16) 0.13923(16)
H4 H 0.4794 0.2583 0.0954
C6 C 0.47244(18) 0.03283(17) 0.22154(16)
H5 H 0.5116 -0.0489 0.2591
C7 C 0.69422(19) 0.25591(16) 0.15237(16)
H6 H 0.7135 0.3289 0.1184
C8 C 0.9820(2) 0.16368(18) 0.15050(18)
H7 H 0.9498 0.0823 0.1137
H8 H 1.0830 0.1703 0.1764
H9 H 0.9341 0.2277 0.0890
C9 C 0.9984(2) 0.30669(18) 0.32792(17)
H10 H 0.9765 0.3132 0.4000
H11 H 0.9506 0.3726 0.2688
H12 H 1.0995 0.3144 0.3550
C10 C 0.4301(2) 0.1031(2) 0.3130(2)
H13 H 0.5121 0.1135 0.3923
H14 H 0.3584 0.0564 0.3265
H15 H 0.3931 0.1843 0.2786
C11 C 0.3482(2) 0.0099(3) 0.0956(2)
H16 H 0.3801 -0.0357 0.0412
H17 H 0.3085 0.0890 0.0571
H18 H 0.2767 -0.0383 0.1082
loop_
_geom_bond_atom_site_label_1
_geom_bond_atom_site_label_2
_geom_bond_site_symmetry_1
_geom_bond_site_symmetry_2
N1 C3 1_555 1_555
N2 C3 1_555 1_555
C1 C2 1_555 1_555
C2 H1 1_555 1_555
H2 C2 1_555 1_555
O1 C1 1_555 1_555
O2 C1 1_555 1_555
C3 C2 1_555 1_555
C4 N2 1_555 1_555
H3 C4 1_555 1_555
C5 N1 1_555 1_555
H4 C5 1_555 1_555
C6 N1 1_555 1_555
H5 C6 1_555 1_555
C7 N2 1_555 1_555
H6 C7 1_555 1_555
C8 C4 1_555 1_555
H7 C8 1_555 1_555
H8 C8 1_555 1_555
H9 C8 1_555 1_555
C9 C4 1_555 1_555
H10 C9 1_555 1_555
H11 C9 1_555 1_555
H12 C9 1_555 1_555
C10 C6 1_555 1_555
H13 C10 1_555 1_555
H14 C10 1_555 1_555
H15 C10 1_555 1_555
C11 C6 1_555 1_555
H16 C11 1_555 1_555
H17 C11 1_555 1_555
H18 C11 1_555 1_555
C5 C7 1_555 1_555

#END
