
#######################################################################
#
#                 Cambridge Crystallographic Data Centre
#                                CCDC 
#
#######################################################################
#
# If this CIF has been generated from an entry in the Cambridge 
# Structural Database, then it will include bibliographic, chemical, 
# crystal, experimental, refinement or atomic coordinate data resulting 
# from the CCDC's data processing and validation procedures.
#
#######################################################################

data_TIYSUR
_chemical_formula_moiety         'C33 H33 Cl1 O4'
_chemical_name_systematic        
'Diethyl 12-chloro-2-ethyl-9-(4-ethylphenyl)-9,10-secogona-1(10),2,4,8,11,13-hexaen-6-yne-16,16-dicarboxylate'
_symmetry_cell_setting           orthorhombic
_symmetry_space_group_name_H-M   'P b c a'
_symmetry_Int_Tables_number      61
_space_group_name_Hall           '-P 2ac 2ab'
loop_
_symmetry_equiv_pos_site_id
_symmetry_equiv_pos_as_xyz
1 x,y,z
2 1/2-x,-y,1/2+z
3 -x,1/2+y,1/2-z
4 1/2+x,1/2-y,-z
5 -x,-y,-z
6 1/2+x,y,1/2-z
7 x,1/2-y,1/2+z
8 1/2-x,1/2+y,z
_cell_length_a                   12.1117(9)
_cell_length_b                   15.1500(12)
_cell_length_c                   31.225(2)
_cell_angle_alpha                90
_cell_angle_beta                 90
_cell_angle_gamma                90
_cell_volume                     5729.55
_cell_formula_units_Z            8
loop_
_atom_site_label
_atom_site_type_symbol
_atom_site_fract_x
_atom_site_fract_y
_atom_site_fract_z
C1 C 0.38530(16) 0.34408(13) 0.37104(6)
C2 C 0.49241(17) 0.30790(14) 0.36972(6)
C3 C 0.50634(18) 0.22414(14) 0.35214(7)
H1 H 0.5764 0.1990 0.3515
C4 C 0.41832(19) 0.17785(14) 0.33563(7)
C5 C 0.31343(17) 0.21361(13) 0.33544(6)
C6 C 0.29799(16) 0.29619(13) 0.35320(6)
C7 C 0.17842(17) 0.32229(16) 0.35219(7)
H2 H 0.1693 0.3803 0.3395
H3 H 0.1473 0.3228 0.3808
C8 C 0.12249(17) 0.25007(15) 0.32401(6)
C9 C 0.20761(19) 0.17410(15) 0.32000(7)
H4 H 0.1864 0.1242 0.3376
H5 H 0.2142 0.1547 0.2905
C10 C 0.09566(19) 0.28809(16) 0.28026(7)
C11 C -0.0262(3) 0.3806(2) 0.24168(8)
H6 H 0.0312 0.4188 0.2305
H7 H -0.0392 0.3339 0.2210
C12 C -0.1259(3) 0.4306(2) 0.24777(11)
H8 H -0.1839 0.3919 0.2572
H9 H -0.1469 0.4578 0.2212
H10 H -0.1137 0.4754 0.2690
C13 C 0.0164(2) 0.21670(18) 0.34425(8)
C14 C -0.1244(3) 0.1064(4) 0.33757(13)
H11 H -0.1064 0.0458 0.3448
H12 H -0.1500 0.1357 0.3633
C15 C -0.2031(3) 0.1077(4) 0.30814(18)
H13 H -0.2117 0.1667 0.2974
H14 H -0.2714 0.0884 0.3206
H15 H -0.1834 0.0690 0.2850
C16 C 0.36204(16) 0.42838(14) 0.38984(6)
C17 C 0.33686(18) 0.49586(14) 0.40704(6)
C18 C 0.31060(19) 0.57644(14) 0.42896(6)
C19 C 0.2017(2) 0.60608(16) 0.43189(7)
H16 H 0.1454 0.5730 0.4196
C20 C 0.1766(2) 0.68368(17) 0.45279(8)
H17 H 0.1035 0.7023 0.4542
C21 C 0.2577(3) 0.73408(16) 0.47162(7)
C22 C 0.3648(3) 0.70468(17) 0.46872(8)
H18 H 0.4207 0.7378 0.4813
C23 C 0.3917(2) 0.62741(17) 0.44769(8)
H19 H 0.4651 0.6096 0.4461
C24 C 0.2300(3) 0.81828(17) 0.49542(9)
H20 H 0.2875 0.8615 0.4901
H21 H 0.1614 0.8419 0.4843
C25 C 0.2189(3) 0.80551(19) 0.54209(9)
H22 H 0.1646 0.7607 0.5476
H23 H 0.1961 0.8599 0.5552
H24 H 0.2886 0.7876 0.5538
C26 C 0.59174(17) 0.35598(14) 0.38535(7)
C27 C 0.59643(19) 0.39665(16) 0.42515(7)
H25 H 0.5345 0.3961 0.4428
C28 C 0.6917(2) 0.43798(16) 0.43898(8)
H26 H 0.6929 0.4640 0.4660
C29 C 0.7851(2) 0.44156(16) 0.41373(9)
C30 C 0.7811(2) 0.40131(18) 0.37402(9)
H27 H 0.8429 0.4027 0.3564
C31 C 0.68633(18) 0.35891(16) 0.36012(8)
H28 H 0.6859 0.3319 0.3334
C32 C 0.8909(2) 0.4857(2) 0.42907(12)
H29 H 0.9267 0.5136 0.4048
H30 H 0.8718 0.5318 0.4493
C33 C 0.9684(3) 0.4258(2) 0.44920(12)
H31 H 0.9347 0.3994 0.4739
H32 H 1.0331 0.4579 0.4578
H33 H 0.9889 0.3805 0.4292
Cl1 Cl 0.43851(6) 0.07174(4) 0.31563(2)
O1 O 0.14581(17) 0.27303(15) 0.24824(5)
O2 O 0.00989(14) 0.34233(12) 0.28193(5)
O3 O -0.02278(16) 0.24190(15) 0.37672(6)
O4 O -0.02493(19) 0.15168(18) 0.32105(7)
loop_
_geom_bond_atom_site_label_1
_geom_bond_atom_site_label_2
_geom_bond_site_symmetry_1
_geom_bond_site_symmetry_2
C1 C2 1_555 1_555
C2 C3 1_555 1_555
C3 H1 1_555 1_555
C4 C3 1_555 1_555
C5 C4 1_555 1_555
C6 C1 1_555 1_555
C7 C6 1_555 1_555
H2 C7 1_555 1_555
H3 C7 1_555 1_555
C8 C7 1_555 1_555
C9 C5 1_555 1_555
H4 C9 1_555 1_555
H5 C9 1_555 1_555
C10 C8 1_555 1_555
C11 H6 1_555 1_555
H7 C11 1_555 1_555
C12 C11 1_555 1_555
H8 C12 1_555 1_555
H9 C12 1_555 1_555
H10 C12 1_555 1_555
C13 C8 1_555 1_555
C14 H11 1_555 1_555
H12 C14 1_555 1_555
C15 C14 1_555 1_555
H13 C15 1_555 1_555
H14 C15 1_555 1_555
H15 C15 1_555 1_555
C16 C1 1_555 1_555
C17 C16 1_555 1_555
C18 C17 1_555 1_555
C19 C18 1_555 1_555
H16 C19 1_555 1_555
C20 C19 1_555 1_555
H17 C20 1_555 1_555
C21 C20 1_555 1_555
C22 C21 1_555 1_555
H18 C22 1_555 1_555
C23 C18 1_555 1_555
H19 C23 1_555 1_555
C24 C21 1_555 1_555
H20 C24 1_555 1_555
H21 C24 1_555 1_555
C25 C24 1_555 1_555
H22 C25 1_555 1_555
H23 C25 1_555 1_555
H24 C25 1_555 1_555
C26 C2 1_555 1_555
C27 C26 1_555 1_555
H25 C27 1_555 1_555
C28 C27 1_555 1_555
H26 C28 1_555 1_555
C29 C28 1_555 1_555
C30 C29 1_555 1_555
H27 C30 1_555 1_555
C31 C26 1_555 1_555
H28 C31 1_555 1_555
C32 C29 1_555 1_555
H29 C32 1_555 1_555
H30 C32 1_555 1_555
C33 C32 1_555 1_555
H31 C33 1_555 1_555
H32 C33 1_555 1_555
H33 C33 1_555 1_555
Cl1 C4 1_555 1_555
O1 C10 1_555 1_555
O2 C10 1_555 1_555
O3 C13 1_555 1_555
O4 C13 1_555 1_555
C5 C6 1_555 1_555
C8 C9 1_555 1_555
C11 O2 1_555 1_555
C14 O4 1_555 1_555
C22 C23 1_555 1_555
C30 C31 1_555 1_555

#END
