
#######################################################################
#
#                 Cambridge Crystallographic Data Centre
#                                CCDC 
#
#######################################################################
#
# If this CIF has been generated from an entry in the Cambridge 
# Structural Database, then it will include bibliographic, chemical, 
# crystal, experimental, refinement or atomic coordinate data resulting 
# from the CCDC's data processing and validation procedures.
#
#######################################################################

data_TIYTAY
_chemical_formula_moiety         'C29 H25 Cl1 O4'
_chemical_name_systematic        
'Diethyl 12-chloro-9-phenyl-9,10-secogona-1(10),2,4,8(14),9,12-hexaen-6-yne-16,16-dicarboxylate'
_symmetry_cell_setting           monoclinic
_symmetry_space_group_name_H-M   'P 21/c'
_symmetry_Int_Tables_number      14
_space_group_name_Hall           '-P 2ybc'
loop_
_symmetry_equiv_pos_site_id
_symmetry_equiv_pos_as_xyz
1 x,y,z
2 -x,1/2+y,1/2-z
3 -x,-y,-z
4 x,1/2-y,1/2+z
_cell_length_a                   9.4930(12)
_cell_length_b                   32.264(4)
_cell_length_c                   7.8878(10)
_cell_angle_alpha                90
_cell_angle_beta                 90.902(2)
_cell_angle_gamma                90
_cell_volume                     2415.59
_cell_formula_units_Z            4
loop_
_atom_site_label
_atom_site_type_symbol
_atom_site_fract_x
_atom_site_fract_y
_atom_site_fract_z
C1 C -0.05989(18) 0.07969(5) 0.4108(2)
C2 C 0.0760(2) 0.05272(6) 0.4120(3)
H1 H 0.0962 0.0419 0.5245
H2 H 0.0668 0.0297 0.3333
C3 C 0.18877(19) 0.08196(5) 0.3577(2)
C4 C 0.3275(2) 0.07382(5) 0.3221(3)
C5 C 0.41813(19) 0.10477(6) 0.2737(3)
H3 H 0.5104 0.0982 0.2466
C6 C 0.37327(18) 0.14608(5) 0.2647(2)
C7 C 0.23193(18) 0.15530(5) 0.3059(2)
C8 C 0.14172(18) 0.12271(5) 0.3488(2)
C9 C -0.01081(18) 0.12560(5) 0.3952(3)
H4 H -0.0647 0.1400 0.3078
H5 H -0.0215 0.1401 0.5019
C10 C 0.47577(18) 0.17863(5) 0.2181(2)
C11 C 0.61451(19) 0.17695(6) 0.2790(2)
H6 H 0.6437 0.1548 0.3462
C12 C 0.7088(2) 0.20804(6) 0.2403(3)
H7 H 0.8009 0.2066 0.2818
C13 C 0.6680(2) 0.24083(7) 0.1415(3)
H8 H 0.7313 0.2621 0.1188
C14 C 0.5327(2) 0.24232(7) 0.0758(3)
H9 H 0.5055 0.2642 0.0059
C15 C 0.4378(2) 0.21152(6) 0.1131(2)
H10 H 0.3470 0.2127 0.0675
C16 C 0.18116(18) 0.19706(5) 0.3128(2)
C17 C 0.14217(19) 0.23220(5) 0.3210(2)
C18 C 0.10673(18) 0.27529(5) 0.3314(2)
C19 C 0.1987(2) 0.30502(6) 0.2698(3)
H11 H 0.2802 0.2970 0.2147
C20 C 0.1684(3) 0.34665(6) 0.2909(3)
H12 H 0.2302 0.3665 0.2502
C21 C 0.0481(3) 0.35892(6) 0.3714(3)
H13 H 0.0294 0.3870 0.3868
C22 C -0.0440(3) 0.32976(6) 0.4286(3)
H14 H -0.1268 0.3380 0.4803
C23 C -0.0150(2) 0.28828(6) 0.4103(3)
H15 H -0.0778 0.2687 0.4514
C24 C -0.1429(2) 0.07348(5) 0.5724(3)
C25 C -0.3453(4) 0.09478(9) 0.7217(4)
H16 H -0.4100 0.0715 0.7164
H17 H -0.2843 0.0911 0.8204
C26 C -0.4225(4) 0.13221(11) 0.7376(4)
H18 H -0.3588 0.1553 0.7364
H19 H -0.4724 0.1320 0.8426
H20 H -0.4886 0.1346 0.6448
C27 C -0.15309(19) 0.06772(5) 0.2588(2)
C28 C -0.2622(3) 0.01060(7) 0.1198(3)
H21 H -0.3553 0.0228 0.1104
H22 H -0.2118 0.0167 0.0167
C29 C -0.2738(5) -0.03349(10) 0.1416(5)
H23 H -0.1825 -0.0460 0.1310
H24 H -0.3365 -0.0446 0.0565
H25 H -0.3100 -0.0394 0.2520
Cl1 Cl 0.38993(6) 0.023200(15) 0.34043(9)
O1 O -0.10662(18) 0.05288(5) 0.6904(2)
O2 O -0.26009(17) 0.09558(5) 0.5682(2)
O3 O -0.1909(2) 0.09034(5) 0.1481(2)
O4 O -0.18670(17) 0.02792(4) 0.2653(2)
loop_
_geom_bond_atom_site_label_1
_geom_bond_atom_site_label_2
_geom_bond_site_symmetry_1
_geom_bond_site_symmetry_2
C1 C2 1_555 1_555
C2 H1 1_555 1_555
H2 C2 1_555 1_555
C3 C2 1_555 1_555
C4 C3 1_555 1_555
C5 C4 1_555 1_555
H3 C5 1_555 1_555
C6 C5 1_555 1_555
C7 C6 1_555 1_555
C8 C3 1_555 1_555
C9 C1 1_555 1_555
H4 C9 1_555 1_555
H5 C9 1_555 1_555
C10 C6 1_555 1_555
C11 C10 1_555 1_555
H6 C11 1_555 1_555
C12 C11 1_555 1_555
H7 C12 1_555 1_555
C13 C12 1_555 1_555
H8 C13 1_555 1_555
C14 C13 1_555 1_555
H9 C14 1_555 1_555
C15 C10 1_555 1_555
H10 C15 1_555 1_555
C16 C7 1_555 1_555
C17 C16 1_555 1_555
C18 C17 1_555 1_555
C19 C18 1_555 1_555
H11 C19 1_555 1_555
C20 C19 1_555 1_555
H12 C20 1_555 1_555
C21 C20 1_555 1_555
H13 C21 1_555 1_555
C22 C21 1_555 1_555
H14 C22 1_555 1_555
C23 C18 1_555 1_555
H15 C23 1_555 1_555
C24 C1 1_555 1_555
C25 H16 1_555 1_555
H17 C25 1_555 1_555
C26 C25 1_555 1_555
H18 C26 1_555 1_555
H19 C26 1_555 1_555
H20 C26 1_555 1_555
C27 C1 1_555 1_555
C28 H21 1_555 1_555
H22 C28 1_555 1_555
C29 C28 1_555 1_555
H23 C29 1_555 1_555
H24 C29 1_555 1_555
H25 C29 1_555 1_555
Cl1 C4 1_555 1_555
O1 C24 1_555 1_555
O2 C24 1_555 1_555
O3 C27 1_555 1_555
O4 C27 1_555 1_555
C7 C8 1_555 1_555
C8 C9 1_555 1_555
C14 C15 1_555 1_555
C22 C23 1_555 1_555
C25 O2 1_555 1_555
C28 O4 1_555 1_555

#END
