
#######################################################################
#
#                 Cambridge Crystallographic Data Centre
#                                CCDC 
#
#######################################################################
#
# If this CIF has been generated from an entry in the Cambridge 
# Structural Database, then it will include bibliographic, chemical, 
# crystal, experimental, refinement or atomic coordinate data resulting 
# from the CCDC's data processing and validation procedures.
#
#######################################################################

data_TIZTUT
_chemical_formula_moiety         'C2 H8 N1 O6 P2 1-,C9 H8 N1 O1 1+,H2 O1'
_chemical_name_systematic        
'8-Hydroxyquinolinium (1-ammonioethane-1,1-diyl)bis(hydrogen phosphonate) monohydrate'
_symmetry_cell_setting           monoclinic
_symmetry_space_group_name_H-M   'P 21/c'
_symmetry_Int_Tables_number      14
_space_group_name_Hall           '-P 2ybc'
loop_
_symmetry_equiv_pos_site_id
_symmetry_equiv_pos_as_xyz
1 x,y,z
2 -x,1/2+y,1/2-z
3 -x,-y,-z
4 x,1/2-y,1/2+z
_cell_length_a                   14.437(9)
_cell_length_b                   17.293(11)
_cell_length_c                   5.604(4)
_cell_angle_alpha                90
_cell_angle_beta                 90.202(8)
_cell_angle_gamma                90
_cell_volume                     1399.08
_cell_formula_units_Z            4
loop_
_atom_site_label
_atom_site_type_symbol
_atom_site_fract_x
_atom_site_fract_y
_atom_site_fract_z
C1 C 0.1372(4) 0.4034(3) 0.6224(12)
C2 C 0.2082(5) 0.3376(4) 0.5913(16)
H1 H 0.1795 0.2951 0.5092
H2 H 0.2294 0.3207 0.7452
H3 H 0.2598 0.3560 0.5000
N1 N 0.1065(4) 0.4286(3) 0.3826(11)
H4 H 0.1557 0.4403 0.2946
H5 H 0.0703 0.4700 0.3961
H6 H 0.0749 0.3905 0.3128
O1 O 0.2277(3) 0.4578(3) 1.0155(11)
O2 O 0.2650(3) 0.5143(3) 0.6071(11)
O3 O 0.1179(3) 0.5500(2) 0.7974(11)
H7 H 0.0906 0.5565 0.9301
O4 O -0.0343(3) 0.4306(2) 0.8001(10)
O5 O -0.0077(3) 0.3074(2) 0.5839(10)
O6 O 0.0619(4) 0.3253(3) 1.0018(9)
H8 H 0.0692 0.2774 0.9745
P1 P 0.03339(10) 0.36547(8) 0.7746(3)
P2 P 0.19348(11) 0.48532(9) 0.7781(4)
C3 C 0.4557(9) 0.6740(6) 0.749(3)
C4 C 0.5319(7) 0.7190(8) 0.811(3)
H9 H 0.5860 0.6955 0.8650
C5 C 0.5271(7) 0.7990(8) 0.793(3)
H10 H 0.5781 0.8291 0.8351
C6 C 0.4462(9) 0.8342(6) 0.713(3)
H11 H 0.4430 0.8878 0.7014
C7 C 0.3700(7) 0.7892(8) 0.651(3)
C8 C 0.3748(7) 0.7092(8) 0.669(3)
C9 C 0.2869(14) 0.8273(11) 0.554(4)
H12 H 0.2828 0.8806 0.5362
C10 C 0.2134(15) 0.7769(11) 0.490(4)
H13 H 0.1580 0.7981 0.4358
C11 C 0.2209(15) 0.7016(12) 0.505(4)
H14 H 0.1700 0.6715 0.4632
H15 H 0.302(18) 0.623(7) 0.65(4)
N2 N 0.2981(12) 0.6655(10) 0.579(4)
O7 O 0.4554(7) 0.5915(7) 0.729(5)
H16 H 0.5088 0.5709 0.7319
O8 O 0.3931(5) 0.4669(6) 0.273(2)
H17 H 0.3429 0.4652 0.1938
H18 H 0.3956 0.4910 0.4054
loop_
_geom_bond_atom_site_label_1
_geom_bond_atom_site_label_2
_geom_bond_site_symmetry_1
_geom_bond_site_symmetry_2
C1 C2 1_555 1_555
C2 H1 1_555 1_555
H2 C2 1_555 1_555
H3 C2 1_555 1_555
N1 C1 1_555 1_555
H4 N1 1_555 1_555
H5 N1 1_555 1_555
H6 N1 1_555 1_555
O1 P2 1_555 1_555
O2 P2 1_555 1_555
O3 H7 1_555 1_555
O4 P1 1_555 1_555
O5 P1 1_555 1_555
O6 H8 1_555 1_555
P1 C1 1_555 1_555
P2 C1 1_555 1_555
C3 C4 1_555 1_555
C4 H9 1_555 1_555
C5 C4 1_555 1_555
H10 C5 1_555 1_555
C6 C5 1_555 1_555
H11 C6 1_555 1_555
C7 C6 1_555 1_555
C8 C3 1_555 1_555
C9 C7 1_555 1_555
H12 C9 1_555 1_555
C10 C9 1_555 1_555
H13 C10 1_555 1_555
C11 C10 1_555 1_555
H14 C11 1_555 1_555
H15 N2 1_555 1_555
N2 C8 1_555 1_555
O7 C3 1_555 1_555
H16 O7 1_555 1_555
O8 H17 1_555 1_555
H18 O8 1_555 1_555
O3 P2 1_555 1_555
O6 P1 1_555 1_555
C7 C8 1_555 1_555
C11 N2 1_555 1_555

#END
