
#######################################################################
#
#                 Cambridge Crystallographic Data Centre
#                                CCDC 
#
#######################################################################
#
# If this CIF has been generated from an entry in the Cambridge 
# Structural Database, then it will include bibliographic, chemical, 
# crystal, experimental, refinement or atomic coordinate data resulting 
# from the CCDC's data processing and validation procedures.
#
#######################################################################

data_TMANIA01
_chemical_name_common            'Trimethylamine nitroimide'
_chemical_formula_moiety         'C3 H9 N3 O2'
_chemical_name_systematic        Trimethylammonionitramidate
_symmetry_cell_setting           orthorhombic
_symmetry_space_group_name_H-M   'P n m a'
_symmetry_Int_Tables_number      62
_space_group_name_Hall           '-P 2ac 2n'
loop_
_symmetry_equiv_pos_site_id
_symmetry_equiv_pos_as_xyz
1 x,y,z
2 1/2-x,-y,1/2+z
3 1/2+x,1/2-y,1/2-z
4 -x,1/2+y,-z
5 -x,-y,-z
6 1/2+x,y,1/2-z
7 1/2-x,1/2+y,1/2+z
8 x,1/2-y,z
_cell_length_a                   12.064(2)
_cell_length_b                   6.622(2)
_cell_length_c                   7.051(1)
_cell_angle_alpha                90
_cell_angle_beta                 90
_cell_angle_gamma                90
_cell_volume                     563.289
_cell_formula_units_Z            4
loop_
_atom_site_label
_atom_site_type_symbol
_atom_site_fract_x
_atom_site_fract_y
_atom_site_fract_z
O1 O 0.49108(6) 0.25000 0.50075(10)
O2 O 0.37128(7) 0.25000 0.26804(9)
N1 N 0.33200(5) 0.25000 0.75775(8)
N2 N 0.30532(9) 0.25000 0.55406(11)
N3 N 0.39324(6) 0.25000 0.44379(8)
C1 C 0.21907(6) 0.25000 0.84579(10)
C2 C 0.39059(5) 0.06203(9) 0.82115(7)
H1 H 0.23118 0.25000 0.99467
H2 H 0.17801 0.11632 0.80219
H3 H 0.46935 0.05403 0.75504
H4 H 0.39531 0.06914 0.97108
H5 H 0.34150 -0.06328 0.77975
H2G H 0.17801 0.38368 0.80219
C2G C 0.39059(5) 0.43797(9) 0.82115(7)
H3G H 0.46935 0.44597 0.75504
H4G H 0.39531 0.43086 0.97108
H5G H 0.34150 0.56328 0.77975
loop_
_geom_bond_atom_site_label_1
_geom_bond_atom_site_label_2
_geom_bond_site_symmetry_1
_geom_bond_site_symmetry_2
O1 N3 1_555 1_555
O2 N3 1_555 1_555
N1 N2 1_555 1_555
N2 N3 1_555 1_555
C1 N1 1_555 1_555
C2 N1 1_555 1_555
H1 C1 1_555 1_555
H2 C1 1_555 1_555
H3 C2 1_555 1_555
H4 C2 1_555 1_555
H5 C2 1_555 1_555
H2G C1 1_555 1_555
C2G N1 1_555 1_555
H3G C2G 1_555 1_555
H4G C2G 1_555 1_555
H5G C2G 1_555 1_555

#END
