
#######################################################################
#
#                 Cambridge Crystallographic Data Centre
#                                CCDC 
#
#######################################################################
#
# If this CIF has been generated from an entry in the Cambridge 
# Structural Database, then it will include bibliographic, chemical, 
# crystal, experimental, refinement or atomic coordinate data resulting 
# from the CCDC's data processing and validation procedures.
#
#######################################################################

data_TMASBR02
_chemical_formula_moiety         'C3 H9 As1 Br1 1+,Br1 1-'
_chemical_name_systematic        'Bromo-trimethyl-arsenic bromide'
_symmetry_cell_setting           hexagonal
_symmetry_space_group_name_H-M   'P 63 m c'
_symmetry_Int_Tables_number      186
_space_group_name_Hall           "P 6c -2'c"
loop_
_symmetry_equiv_pos_site_id
_symmetry_equiv_pos_as_xyz
1 x,y,z
2 x-y,x,1/2+z
3 y,x,1/2+z
4 -y,x-y,z
5 -x+y,y,z
6 -x,-y,1/2+z
7 -x,-x+y,1/2+z
8 -x+y,-x,z
9 -y,-x,z
10 y,-x+y,1/2+z
11 x-y,-y,1/2+z
12 x,x-y,z
_cell_length_a                   7.1200(10)
_cell_length_b                   7.1200(10)
_cell_length_c                   9.354(2)
_cell_angle_alpha                90
_cell_angle_beta                 90
_cell_angle_gamma                120
_cell_volume                     410.665
_exptl_crystal_colour            colorless
_cell_formula_units_Z            2
loop_
_atom_site_label
_atom_site_type_symbol
_atom_site_fract_x
_atom_site_fract_y
_atom_site_fract_z
As1 As 0.3333 0.6667 0.5642
Br1 Br 0.3333 0.6667 0.8085(4)
C1 C 0.1842(8) 0.3685(15) 0.5121(18)
H1 H 0.1878 0.3757 0.4096
H2 H 0.2564 0.2928 0.5440
H2D H 0.0364 0.2928 0.5440
C1C C 0.6315(15) 0.8157(17) 0.5121(18)
H1C H 0.6243 0.8121 0.4096
H2C H 0.7072 0.9636 0.5440
H2H H 0.7072 0.7436 0.5440
C1G C 0.1843(17) 0.8158(8) 0.5121(18)
H1G H 0.1879 0.8122 0.4096
H2G H 0.0364 0.7436 0.5440
H2K H 0.2564 0.9636 0.5440
Br2 Br 0.3333 0.6667 0.1694(4)
loop_
_geom_bond_atom_site_label_1
_geom_bond_atom_site_label_2
_geom_bond_site_symmetry_1
_geom_bond_site_symmetry_2
As1 Br1 1_555 1_555
C1 As1 1_555 1_555
H1 C1 1_555 1_555
H2 C1 1_555 1_555
H2D C1 1_555 1_555
C1C As1 1_555 1_555
H1C C1C 1_555 1_555
H2C C1C 1_555 1_555
H2H C1C 1_555 1_555
C1G As1 1_555 1_555
H1G C1G 1_555 1_555
H2G C1G 1_555 1_555
H2K C1G 1_555 1_555

#END
