
#######################################################################
#
#                 Cambridge Crystallographic Data Centre
#                                CCDC 
#
#######################################################################
#
# If this CIF has been generated from an entry in the Cambridge 
# Structural Database, then it will include bibliographic, chemical, 
# crystal, experimental, refinement or atomic coordinate data resulting 
# from the CCDC's data processing and validation procedures.
#
#######################################################################

data_TMDHCB01
_chemical_formula_moiety         'C20 H18'
_chemical_name_systematic        
1,4,7,10-Tetramethyl-5,6-didehydrodibenzo(a,e)cyclo-octene
_symmetry_cell_setting           orthorhombic
_symmetry_space_group_name_H-M   'P 21 21 21'
_symmetry_Int_Tables_number      19
_space_group_name_Hall           'P 2ac 2ab'
loop_
_symmetry_equiv_pos_site_id
_symmetry_equiv_pos_as_xyz
1 x,y,z
2 1/2+x,1/2-y,-z
3 -x,1/2+y,1/2-z
4 1/2-x,-y,1/2+z
_cell_length_a                   5.011(2)
_cell_length_b                   13.228(4)
_cell_length_c                   22.245(6)
_cell_angle_alpha                90
_cell_angle_beta                 90
_cell_angle_gamma                90
_cell_volume                     1474.52
_exptl_crystal_colour            yellowish
_chemical_melting_point          88deg.C(dec.)
_cell_formula_units_Z            4
loop_
_atom_site_label
_atom_site_type_symbol
_atom_site_fract_x
_atom_site_fract_y
_atom_site_fract_z
H1 H 0.3676 0.2008 0.3147
H2 H 0.0421 0.3143 0.3456
H3 H -0.0546 0.6069 -0.0743
H4 H 0.2445 0.4866 -0.1075
H5 H 0.8120 0.2146 0.2060
H6 H 0.5643 0.1584 0.1752
H7 H 0.6624 0.1251 0.2407
H8 H -0.0594 0.5352 0.2991
H9 H -0.2646 0.4536 0.3252
H10 H -0.2900 0.4907 0.2570
H11 H -0.3639 0.6112 0.0509
H12 H -0.2749 0.6938 0.0023
H13 H -0.1608 0.6992 0.0695
H14 H 0.5385 0.2841 -0.0318
H15 H 0.7149 0.3836 -0.0414
H16 H 0.5174 0.3462 -0.0934
C1 C 0.4326(17) 0.2593(4) 0.2307(3)
C2 C 0.3141(22) 0.2538(5) 0.2879(3)
C3 C 0.1212(21) 0.3221(5) 0.3065(3)
C4 C 0.0415(18) 0.4020(5) 0.2697(3)
C5 C 0.1623(15) 0.4080(5) 0.2130(3)
C6 C 0.0917(17) 0.4850(5) 0.1705(3)
C7 C 0.0770(18) 0.5206(5) 0.1198(3)
C8 C 0.1209(17) 0.5160(4) 0.0559(2)
C9 C -0.0219(18) 0.5783(4) 0.0158(3)
C10 C 0.0346(21) 0.5651(5) -0.0453(3)
C11 C 0.2146(20) 0.4928(5) -0.0650(3)
C12 C 0.3575(18) 0.4292(4) -0.0264(3)
C13 C 0.3099(17) 0.4424(5) 0.0365(3)
C14 C 0.4742(20) 0.3845(5) 0.0779(3)
C15 C 0.4902(22) 0.3486(5) 0.1345(3)
C16 C 0.3529(17) 0.3385(5) 0.1928(3)
C17 C 0.6389(21) 0.1824(5) 0.2133(4)
C18 C -0.1648(21) 0.4750(6) 0.2895(3)
C19 C -0.2163(19) 0.6538(5) 0.0370(3)
C20 C 0.5424(24) 0.3517(5) -0.0498(3)
H17 H 0.6470 0.3617 0.0501
H18 H 0.6859 0.3030 0.1407
loop_
_geom_bond_atom_site_label_1
_geom_bond_atom_site_label_2
_geom_bond_site_symmetry_1
_geom_bond_site_symmetry_2
H1 C2 1_555 1_555
H2 C3 1_555 1_555
H3 C10 1_555 1_555
H4 C11 1_555 1_555
H5 C17 1_555 1_555
H6 C17 1_555 1_555
H7 C17 1_555 1_555
H8 C18 1_555 1_555
H9 C18 1_555 1_555
H10 C18 1_555 1_555
H11 C19 1_555 1_555
H12 C19 1_555 1_555
H13 C19 1_555 1_555
H14 C20 1_555 1_555
H15 C20 1_555 1_555
H16 C20 1_555 1_555
C1 C2 1_555 1_555
C2 C3 1_555 1_555
C3 C4 1_555 1_555
C4 C5 1_555 1_555
C5 C6 1_555 1_555
C6 C7 1_555 1_555
C7 C8 1_555 1_555
C8 C9 1_555 1_555
C9 C10 1_555 1_555
C10 C11 1_555 1_555
C11 C12 1_555 1_555
C12 C13 1_555 1_555
C13 C8 1_555 1_555
C14 C13 1_555 1_555
C15 C14 1_555 1_555
C16 C1 1_555 1_555
C17 C1 1_555 1_555
C18 C4 1_555 1_555
C19 C9 1_555 1_555
C20 C12 1_555 1_555
H17 C14 1_555 1_555
H18 C15 1_555 1_555
C5 C16 1_555 1_555
C15 C16 1_555 1_555

#END
