
#######################################################################
#
#                 Cambridge Crystallographic Data Centre
#                                CCDC 
#
#######################################################################
#
# If this CIF has been generated from an entry in the Cambridge 
# Structural Database, then it will include bibliographic, chemical, 
# crystal, experimental, refinement or atomic coordinate data resulting 
# from the CCDC's data processing and validation procedures.
#
#######################################################################

data_TMSLAS10
_chemical_formula_moiety         'C43 H32 O8'
_chemical_name_systematic        
(+-)-Methyl-4,5-dimethoxy-2-(2,6-dimethoxy-1-oxo-9-phenyl-5-phenalenyl)-1-oxo-8-phenyl-1,2-dihydro-2-acenaphthylene-carboxylate
_symmetry_cell_setting           orthorhombic
_symmetry_space_group_name_H-M   'P b c a'
_symmetry_Int_Tables_number      61
_space_group_name_Hall           '-P 2ac 2ab'
loop_
_symmetry_equiv_pos_site_id
_symmetry_equiv_pos_as_xyz
1 x,y,z
2 1/2-x,1/2+y,z
3 x,1/2-y,1/2+z
4 1/2-x,-y,1/2+z
5 -x,-y,-z
6 1/2+x,1/2-y,-z
7 -x,1/2+y,1/2-z
8 1/2+x,y,1/2-z
_cell_length_a                   19.874(5)
_cell_length_b                   29.835(8)
_cell_length_c                   11.569(2)
_cell_angle_alpha                90
_cell_angle_beta                 90
_cell_angle_gamma                90
_cell_volume                     6859.73
_chemical_melting_point          447-9K
_cell_formula_units_Z            8
loop_
_atom_site_label
_atom_site_type_symbol
_atom_site_fract_x
_atom_site_fract_y
_atom_site_fract_z
O1 O 0.61780 0.35450 -0.25150
O2 O 0.56240 0.28290 -0.34170
O3 O 0.82410 0.22780 0.13720
C1 C 0.62930 0.31890 -0.20280
C2 C 0.60710 0.27640 -0.25520
C3 C 0.63390 0.23730 -0.22220
C4 C 0.68260 0.23510 -0.13010
C5 C 0.71320 0.19570 -0.10110
C6 C 0.76210 0.19220 -0.01300
C7 C 0.77790 0.22980 0.04910
C8 C 0.74420 0.27130 0.02760
C9 C 0.75430 0.30920 0.09700
C10 C 0.71940 0.34820 0.07590
C11 C 0.67500 0.35240 -0.01870
C12 C 0.66670 0.31570 -0.09200
C13 C 0.69810 0.27450 -0.06490
C14 C 0.63780 0.39550 -0.03330
C15 C 0.56850 0.39590 -0.04370
C16 C 0.53370 0.43530 -0.05890
C17 C 0.56920 0.47530 -0.06320
C18 C 0.63720 0.47610 -0.04990
C19 C 0.67200 0.43560 -0.03430
C20 C 0.88930 0.24740 0.11050
C21 C 0.53700 0.24350 -0.39820
H1 H 0.62100 0.20800 -0.26500
H2 H 0.70000 0.16800 -0.14600
H3 H 0.78700 0.30700 0.16000
H4 H 0.72400 0.37300 0.13000
H5 H 0.54600 0.36700 -0.03400
H6 H 0.48000 0.43700 -0.06800
H7 H 0.54300 0.50300 -0.08000
H8 H 0.66600 0.50600 -0.04800
H9 H 0.72500 0.43700 -0.02900
H10 H 0.88900 0.26900 0.05000
H11 H 0.51500 0.22400 -0.33500
H12 H 0.57500 0.22500 -0.43700
H13 H 0.50500 0.25700 -0.45200
O4 O 0.89440 0.17450 -0.11870
O5 O 0.61100 0.03300 0.02510
O6 O 0.65990 -0.00590 -0.16690
O7 O 0.89400 0.13130 0.11840
O8 O 0.79240 0.13840 0.19770
C22 C 0.85190 0.14570 -0.10340
C23 C 0.79900 0.14760 -0.00300
C24 C 0.75460 0.10730 -0.03030
C25 C 0.69880 0.09040 0.02480
C26 C 0.66670 0.05260 -0.02290
C27 C 0.68970 0.03260 -0.12440
C28 C 0.74620 0.04960 -0.18190
C29 C 0.77530 0.03370 -0.28580
C30 C 0.83200 0.05350 -0.33110
C31 C 0.86520 0.09050 -0.27730
C32 C 0.83680 0.10660 -0.17640
C33 C 0.77840 0.08660 -0.13140
C34 C 0.92790 0.10880 -0.32870
C35 C 0.98610 0.11230 -0.26590
C36 C 1.04500 0.12870 -0.31790
C37 C 1.04330 0.14280 -0.43100
C38 C 0.98530 0.13930 -0.49390
C39 C 0.92770 0.12200 -0.44390
C40 C 0.59460 0.00080 -0.21880
C41 C 0.58840 0.04930 0.13490
C42 C 0.83470 0.13930 0.11050
C43 C 0.82260 0.13040 0.31090
H14 H 0.68000 0.10200 0.10000
H15 H 0.75400 0.00700 -0.32600
H16 H 0.84800 0.04100 -0.40700
H17 H 0.99000 0.10400 -0.18100
H18 H 1.09100 0.13400 -0.26700
H19 H 1.08300 0.15300 -0.47000
H20 H 0.98300 0.14800 -0.57900
H21 H 0.88400 0.11900 -0.49000
H22 H 0.57900 -0.03000 -0.25000
H23 H 0.60200 0.01200 -0.29000
H24 H 0.57300 0.08200 0.12800
H25 H 0.63300 0.05100 0.19400
H26 H 0.55400 0.03000 0.15000
H27 H 0.85700 0.15200 0.32300
H28 H 0.88900 0.12100 0.28000
H29 H 0.79100 0.12900 0.35800
loop_
_geom_bond_atom_site_label_1
_geom_bond_atom_site_label_2
_geom_bond_site_symmetry_1
_geom_bond_site_symmetry_2
O1 C1 1_555 1_555
O2 C2 1_555 1_555
O3 C7 1_555 1_555
C1 C2 1_555 1_555
C2 C3 1_555 1_555
C3 C4 1_555 1_555
C4 C5 1_555 1_555
C5 C6 1_555 1_555
C6 C7 1_555 1_555
C7 C8 1_555 1_555
C8 C9 1_555 1_555
C9 C10 1_555 1_555
C10 C11 1_555 1_555
C11 C12 1_555 1_555
C12 C1 1_555 1_555
C13 C4 1_555 1_555
C14 C11 1_555 1_555
C15 C14 1_555 1_555
C16 C15 1_555 1_555
C17 C16 1_555 1_555
C18 C17 1_555 1_555
C19 C14 1_555 1_555
C20 O3 1_555 1_555
C21 O2 1_555 1_555
H1 C3 1_555 1_555
H2 C5 1_555 1_555
H3 C9 1_555 1_555
H4 C10 1_555 1_555
H5 C15 1_555 1_555
H6 C16 1_555 1_555
H7 C17 1_555 1_555
H8 C18 1_555 1_555
H9 C19 1_555 1_555
H10 C20 1_555 1_555
H11 C21 1_555 1_555
H12 C21 1_555 1_555
H13 C21 1_555 1_555
O4 C22 1_555 1_555
O5 C26 1_555 1_555
O6 C27 1_555 1_555
O7 C42 1_555 1_555
O8 C42 1_555 1_555
C22 C23 1_555 1_555
C23 C6 1_555 1_555
C24 C23 1_555 1_555
C25 C24 1_555 1_555
C26 C25 1_555 1_555
C27 C26 1_555 1_555
C28 C27 1_555 1_555
C29 C28 1_555 1_555
C30 C29 1_555 1_555
C31 C30 1_555 1_555
C32 C22 1_555 1_555
C33 C24 1_555 1_555
C34 C31 1_555 1_555
C35 C34 1_555 1_555
C36 C35 1_555 1_555
C37 C36 1_555 1_555
C38 C37 1_555 1_555
C39 C34 1_555 1_555
C40 O6 1_555 1_555
C41 O5 1_555 1_555
C42 C23 1_555 1_555
C43 O8 1_555 1_555
H14 C25 1_555 1_555
H15 C29 1_555 1_555
H16 C30 1_555 1_555
H17 C35 1_555 1_555
H18 C36 1_555 1_555
H19 C37 1_555 1_555
H20 C38 1_555 1_555
H21 C39 1_555 1_555
H22 C40 1_555 1_555
H23 C40 1_555 1_555
H24 C41 1_555 1_555
H25 C41 1_555 1_555
H26 C41 1_555 1_555
H27 C43 1_555 1_555
H28 C43 1_555 1_555
H29 C43 1_555 1_555
C8 C13 1_555 1_555
C12 C13 1_555 1_555
C18 C19 1_555 1_555
C28 C33 1_555 1_555
C31 C32 1_555 1_555
C32 C33 1_555 1_555
C38 C39 1_555 1_555

#END
