
#######################################################################
#
#                 Cambridge Crystallographic Data Centre
#                                CCDC 
#
#######################################################################
#
# If this CIF has been generated from an entry in the Cambridge 
# Structural Database, then it will include bibliographic, chemical, 
# crystal, experimental, refinement or atomic coordinate data resulting 
# from the CCDC's data processing and validation procedures.
#
#######################################################################

data_TMTHUR01
_chemical_formula_moiety         'C5 H10 N2 S1'
_chemical_name_systematic        1,3-diazacycloheptane-2-thione
_symmetry_cell_setting           monoclinic
_symmetry_space_group_name_H-M   'P 21/m'
_symmetry_Int_Tables_number      11
_space_group_name_Hall           '-P 2yb'
loop_
_symmetry_equiv_pos_site_id
_symmetry_equiv_pos_as_xyz
1 x,y,z
2 -x,1/2+y,-z
3 -x,-y,-z
4 x,1/2-y,z
_cell_length_a                   5.042(2)
_cell_length_b                   8.429(4)
_cell_length_c                   8.108(4)
_cell_angle_alpha                90
_cell_angle_beta                 104.748(8)
_cell_angle_gamma                90
_cell_volume                     333.23
_exptl_crystal_colour            colorless
_exptl_crystal_description       plate
_cell_formula_units_Z            2
loop_
_atom_site_label
_atom_site_type_symbol
_atom_site_fract_x
_atom_site_fract_y
_atom_site_fract_z
S1 S 0.48458(13) 0.2500 0.41208(7)
C1 C 0.3249(4) 0.2500 0.5747(3)
N1 N 0.254(3) 0.3913(11) 0.623(2)
H1 H 0.2785 0.4712 0.5610
C2 C 0.142(3) 0.4303(15) 0.7650(13)
H2 H -0.0554 0.4449 0.7151
H3 H 0.2144 0.5358 0.8023
C3 C 0.1623(13) 0.3369(9) 0.9293(9)
H4 H -0.0212 0.3284 0.9488
H5 H 0.2774 0.3964 1.0249
N1C N 0.254(3) 0.1087(11) 0.623(2)
H1C H 0.2785 0.0288 0.5610
C2C C 0.142(3) 0.0697(15) 0.7650(13)
H2C H -0.0554 0.0551 0.7151
H3C H 0.2144 -0.0358 0.8023
C3C C 0.1623(13) 0.1631(9) 0.9293(9)
H4C H -0.0212 0.1716 0.9488
H5C H 0.2774 0.1036 1.0249
C4? C 0.2823(12) 0.1684(8) 0.9284(7)
H6? H 0.2713 0.1089 1.0302
H7? H 0.4739 0.1724 0.9224
C5? C 0.095(2) 0.0928(13) 0.7634(11)
H8? H 0.0605 -0.0201 0.7785
H9? H -0.0799 0.1491 0.7243
N2? N 0.273(4) 0.1176(10) 0.651(2)
H10? H 0.3587 0.0335 0.6307
loop_
_geom_bond_atom_site_label_1
_geom_bond_atom_site_label_2
_geom_bond_site_symmetry_1
_geom_bond_site_symmetry_2
S1 C1 1_555 1_555
C1 N1 1_555 1_555
N1 H1 1_555 1_555
C2 N1 1_555 1_555
H2 C2 1_555 1_555
H3 C2 1_555 1_555
C3 C2 1_555 1_555
H4 C3 1_555 1_555
H5 C3 1_555 1_555
N1C C1 1_555 1_555
H1C N1C 1_555 1_555
C2C N1C 1_555 1_555
H2C C2C 1_555 1_555
H3C C2C 1_555 1_555
C3C C3 1_555 1_555
H4C C3C 1_555 1_555
H5C C3C 1_555 1_555
C2C C3C 1_555 1_555

#END
