
#######################################################################
#
#                 Cambridge Crystallographic Data Centre
#                                CCDC 
#
#######################################################################
#
# If this CIF has been generated from an entry in the Cambridge 
# Structural Database, then it will include bibliographic, chemical, 
# crystal, experimental, refinement or atomic coordinate data resulting 
# from the CCDC's data processing and validation procedures.
#
#######################################################################

data_TMZBCO11
_chemical_name_common            syn-(methyl,methyl)-bimane
_chemical_formula_moiety         'C10 H12 N2 O2'
_chemical_name_systematic        
syn-2,3,5,6-tetramethyl-1H,7H-pyrazolo[1,2-a]pyrazole-1,7-dione
_symmetry_cell_setting           monoclinic
_symmetry_space_group_name_H-M   'P n'
_symmetry_Int_Tables_number      7
_space_group_name_Hall           'P -2yac'
loop_
_symmetry_equiv_pos_site_id
_symmetry_equiv_pos_as_xyz
1 x,y,z
2 1/2+x,-y,1/2+z
_cell_length_a                   6.51250(10)
_cell_length_b                   5.97220(10)
_cell_length_c                   12.10290(10)
_cell_angle_alpha                90
_cell_angle_beta                 95.6560(10)
_cell_angle_gamma                90
_cell_volume                     468.438
_exptl_crystal_colour            colorless
_exptl_crystal_description       plate
_cell_formula_units_Z            2
loop_
_atom_site_label
_atom_site_type_symbol
_atom_site_fract_x
_atom_site_fract_y
_atom_site_fract_z
O1 O 0.2821(4) 0.0695(4) 0.6816(2)
O2 O 0.1256(4) 0.5059(6) 0.5336(3)
N1 N 0.4050(6) 0.2631(7) 0.5358(3)
N2 N 0.5725(6) 0.2436(7) 0.4761(3)
C1 C 0.4094(5) 0.0932(6) 0.6161(3)
C2 C 0.5952(6) -0.0326(6) 0.5993(3)
C3 C 0.6882(6) 0.0612(6) 0.5149(3)
C4 C 0.5633(5) 0.4127(6) 0.3964(3)
C5 C 0.3925(5) 0.5377(6) 0.4069(3)
C6 C 0.2838(5) 0.4484(6) 0.4962(3)
C7 C 0.6656(7) -0.2315(7) 0.6682(3)
H1 H 0.6891 -0.1872 0.7464
H2 H 0.7943 -0.2893 0.6435
H3 H 0.5596 -0.3484 0.6599
C8 C 0.8787(5) -0.0033(8) 0.4653(4)
H4 H 0.9347 -0.1411 0.5004
H5 H 0.9809 0.1169 0.4773
H6 H 0.8467 -0.0283 0.3855
C9 C 0.7245(5) 0.4301(7) 0.3179(3)
H7 H 0.8597 0.4516 0.3598
H8 H 0.6940 0.5580 0.2682
H9 H 0.7260 0.2924 0.2740
C10 C 0.3175(6) 0.7361(7) 0.3388(3)
H10 H 0.1822 0.7024 0.2994
H11 H 0.4157 0.7703 0.2848
H12 H 0.3054 0.8655 0.3875
loop_
_geom_bond_atom_site_label_1
_geom_bond_atom_site_label_2
_geom_bond_site_symmetry_1
_geom_bond_site_symmetry_2
O1 C1 1_555 1_555
O2 C6 1_555 1_555
N1 N2 1_555 1_555
N2 C3 1_555 1_555
C1 N1 1_555 1_555
C2 C1 1_555 1_555
C3 C2 1_555 1_555
C4 N2 1_555 1_555
C5 C4 1_555 1_555
C6 N1 1_555 1_555
C7 C2 1_555 1_555
H1 C7 1_555 1_555
H2 C7 1_555 1_555
H3 C7 1_555 1_555
C8 C3 1_555 1_555
H4 C8 1_555 1_555
H5 C8 1_555 1_555
H6 C8 1_555 1_555
C9 C4 1_555 1_555
H7 C9 1_555 1_555
H8 C9 1_555 1_555
H9 C9 1_555 1_555
C10 C5 1_555 1_555
H10 C10 1_555 1_555
H11 C10 1_555 1_555
H12 C10 1_555 1_555
C5 C6 1_555 1_555

#END
