
#######################################################################
#
#                 Cambridge Crystallographic Data Centre
#                                CCDC 
#
#######################################################################
#
# If this CIF has been generated from an entry in the Cambridge 
# Structural Database, then it will include bibliographic, chemical, 
# crystal, experimental, refinement or atomic coordinate data resulting 
# from the CCDC's data processing and validation procedures.
#
#######################################################################

data_TNOXYL01
_chemical_formula_moiety         'C8 H7 N3 O6'
_chemical_name_systematic        2,4,6-Trinitro-m-xylene
_symmetry_cell_setting           orthorhombic
_symmetry_space_group_name_H-M   'P b c n'
_symmetry_Int_Tables_number      60
_space_group_name_Hall           '-P 2n 2ab'
loop_
_symmetry_equiv_pos_site_id
_symmetry_equiv_pos_as_xyz
1 x,y,z
2 1/2-x,1/2-y,1/2+z
3 -x,y,1/2-z
4 1/2+x,1/2-y,-z
5 -x,-y,-z
6 1/2+x,1/2+y,1/2-z
7 x,-y,1/2+z
8 1/2-x,1/2+y,z
_cell_length_a                   5.7487(11)
_cell_length_b                   15.043(3)
_cell_length_c                   11.415(2)
_cell_angle_alpha                90
_cell_angle_beta                 90
_cell_angle_gamma                90
_cell_volume                     987.143
_exptl_crystal_colour            colorless
_exptl_crystal_description       block
_cell_formula_units_Z            4
_exptl_crystal_recrystallization_method 'acetic acid'
loop_
_atom_site_label
_atom_site_type_symbol
_atom_site_fract_x
_atom_site_fract_y
_atom_site_fract_z
O1 O 0.24978(18) 0.13792(6) 0.42775(10)
O2 O -0.01456(18) 0.23834(7) 0.40188(10)
O3 O 0.6597(2) 0.53223(7) 0.29956(11)
N1 N 0.1826(2) 0.20910(7) 0.38935(10)
N2 N 0.5000 0.49511(10) 0.2500
C1 C 0.5000 0.21575(11) 0.2500
H1 H 0.5000 0.1539 0.2500
C2 C 0.3479(2) 0.26255(8) 0.32016(11)
C3 C 0.3431(2) 0.35538(8) 0.32562(11)
C4 C 0.5000 0.39600(11) 0.2500
C5 C 0.1942(3) 0.40869(9) 0.40784(14)
H2 H 0.2682 0.4646 0.4237
H3 H 0.1743 0.3765 0.4798
H4 H 0.0450 0.4190 0.3726
O1B O 0.75022(18) 0.13792(6) 0.07225(10)
O2B O 1.01456(18) 0.23834(7) 0.09812(10)
O3B O 0.3403(2) 0.53223(7) 0.20044(11)
N1B N 0.8174(2) 0.20910(7) 0.11065(10)
C2B C 0.6521(2) 0.26255(8) 0.17984(11)
C3B C 0.6569(2) 0.35538(8) 0.17438(11)
C5B C 0.8058(3) 0.40869(9) 0.09216(14)
H2B H 0.7318 0.4646 0.0763
H3B H 0.8257 0.3765 0.0202
H4B H 0.9550 0.4190 0.1274
loop_
_geom_bond_atom_site_label_1
_geom_bond_atom_site_label_2
_geom_bond_site_symmetry_1
_geom_bond_site_symmetry_2
O1 N1 1_555 1_555
O2 N1 1_555 1_555
O3 N2 1_555 1_555
N1 C2 1_555 1_555
N2 C4 1_555 1_555
C1 H1 1_555 1_555
C2 C1 1_555 1_555
C3 C2 1_555 1_555
C4 C3 1_555 1_555
C5 C3 1_555 1_555
H2 C5 1_555 1_555
H3 C5 1_555 1_555
H4 C5 1_555 1_555
O1B N1B 1_555 1_555
O2B N1B 1_555 1_555
O3B N2 1_555 1_555
N1B C2B 1_555 1_555
C2B C1 1_555 1_555
C3B C4 1_555 1_555
C5B C3B 1_555 1_555
H2B C5B 1_555 1_555
H3B C5B 1_555 1_555
H4B C5B 1_555 1_555
C2B C3B 1_555 1_555

#END
