
#######################################################################
#
#                 Cambridge Crystallographic Data Centre
#                                CCDC 
#
#######################################################################
#
# If this CIF has been generated from an entry in the Cambridge 
# Structural Database, then it will include bibliographic, chemical, 
# crystal, experimental, refinement or atomic coordinate data resulting 
# from the CCDC's data processing and validation procedures.
#
#######################################################################

data_TOBHOJ
_chemical_formula_moiety         'C16 H17 F3 N4 O1 S2'
_chemical_name_systematic        
2-Methyl-N-(2,2,2-trifluoro-1-(6-phenyl[1,3]thiazolo[3,2-b][1,2,4]triazol-5-yl)ethyl)propane-2-sulfinamide
_symmetry_cell_setting           orthorhombic
_symmetry_space_group_name_H-M   'P 21 21 21'
_symmetry_Int_Tables_number      19
_space_group_name_Hall           'P 2ac 2ab'
loop_
_symmetry_equiv_pos_site_id
_symmetry_equiv_pos_as_xyz
1 x,y,z
2 1/2-x,-y,1/2+z
3 -x,1/2+y,1/2-z
4 1/2+x,1/2-y,-z
_cell_length_a                   10.499(16)
_cell_length_b                   11.042(16)
_cell_length_c                   16.30(2)
_cell_angle_alpha                90
_cell_angle_beta                 90
_cell_angle_gamma                90
_cell_volume                     1889.66
_cell_formula_units_Z            4
loop_
_atom_site_label
_atom_site_type_symbol
_atom_site_fract_x
_atom_site_fract_y
_atom_site_fract_z
C1 C 0.8009(4) 0.4471(4) 0.2911(3)
H1 H 0.8041 0.5312 0.2945
C2 C 0.8511(4) 0.2719(3) 0.2598(3)
C3 C 0.7673(4) 0.0714(3) 0.2910(3)
C4 C 0.6968(4) 0.1584(3) 0.3271(2)
C5 C 0.5851(4) 0.1420(3) 0.3802(2)
C6 C 0.5872(5) 0.1816(5) 0.4612(3)
H2 H 0.6579 0.2228 0.4812
C7 C 0.4836(7) 0.1596(6) 0.5122(4)
H3 H 0.4850 0.1861 0.5663
C8 C 0.3779(6) 0.0981(5) 0.4822(4)
H4 H 0.3086 0.0834 0.5163
C9 C 0.3758(5) 0.0585(5) 0.4012(4)
H5 H 0.3051 0.0173 0.3812
C10 C 0.4795(4) 0.0804(5) 0.3502(3)
H6 H 0.4781 0.0539 0.2961
C11 C 0.7579(4) -0.0609(3) 0.3105(3)
H7 H 0.6860 -0.0703 0.3482
C12 C 0.7302(5) -0.1388(4) 0.2374(3)
C13 C 0.9659(5) -0.1313(4) 0.5037(3)
C14 C 0.9562(8) -0.2136(9) 0.5794(4)
H8 H 0.9759 -0.2954 0.5641
H9 H 0.8713 -0.2101 0.6011
H10 H 1.0154 -0.1867 0.6204
C15 C 1.0996(5) -0.1330(6) 0.4675(4)
H11 H 1.1585 -0.0995 0.5064
H12 H 1.1011 -0.0857 0.4181
H13 H 1.1235 -0.2149 0.4552
C16 C 0.9212(10) -0.0031(6) 0.5212(5)
H14 H 0.9227 0.0432 0.4713
H15 H 0.9766 0.0337 0.5608
H16 H 0.8359 -0.0052 0.5424
F1 F 0.8156(4) -0.1306(3) 0.1780(2)
F2 F 0.7200(4) -0.2538(2) 0.2572(2)
F3 F 0.6199(4) -0.1079(3) 0.2026(2)
N1 N 0.7428(3) 0.2705(2) 0.30731(19)
N2 N 0.7129(3) 0.3853(3) 0.3281(2)
N3 N 0.8885(3) 0.3831(3) 0.2471(2)
N4 N 0.8708(3) -0.1024(3) 0.3539(2)
H17 H 0.9453 -0.0779 0.3395
O1 O 0.9019(5) -0.3146(3) 0.4085(3)
S1 S 0.89357(11) 0.12763(9) 0.23260(8)
S2 S 0.85364(10) -0.19684(9) 0.43082(7)
loop_
_geom_bond_atom_site_label_1
_geom_bond_atom_site_label_2
_geom_bond_site_symmetry_1
_geom_bond_site_symmetry_2
C1 H1 1_555 1_555
C2 N1 1_555 1_555
C3 C4 1_555 1_555
C4 C5 1_555 1_555
C5 C6 1_555 1_555
C6 H2 1_555 1_555
C7 C6 1_555 1_555
H3 C7 1_555 1_555
C8 C7 1_555 1_555
H4 C8 1_555 1_555
C9 C8 1_555 1_555
H5 C9 1_555 1_555
C10 C5 1_555 1_555
H6 C10 1_555 1_555
C11 C3 1_555 1_555
H7 C11 1_555 1_555
C12 C11 1_555 1_555
C13 C14 1_555 1_555
C14 H8 1_555 1_555
H9 C14 1_555 1_555
H10 C14 1_555 1_555
C15 C13 1_555 1_555
H11 C15 1_555 1_555
H12 C15 1_555 1_555
H13 C15 1_555 1_555
C16 C13 1_555 1_555
H14 C16 1_555 1_555
H15 C16 1_555 1_555
H16 C16 1_555 1_555
F1 C12 1_555 1_555
F2 C12 1_555 1_555
F3 C12 1_555 1_555
N1 C4 1_555 1_555
N2 C1 1_555 1_555
N3 C1 1_555 1_555
N4 C11 1_555 1_555
H17 N4 1_555 1_555
O1 S2 1_555 1_555
S1 C2 1_555 1_555
S2 C13 1_555 1_555
C2 N3 1_555 1_555
C3 S1 1_555 1_555
C9 C10 1_555 1_555
N1 N2 1_555 1_555
N4 S2 1_555 1_555

#END
