
#######################################################################
#
#                 Cambridge Crystallographic Data Centre
#                                CCDC 
#
#######################################################################
#
# If this CIF has been generated from an entry in the Cambridge 
# Structural Database, then it will include bibliographic, chemical, 
# crystal, experimental, refinement or atomic coordinate data resulting 
# from the CCDC's data processing and validation procedures.
#
#######################################################################

data_TOBSUA
_chemical_formula_moiety         'C15 H18 N2 O1 S1'
_chemical_name_systematic        
N-((2-Phenylethyl)carbamothioyl)cyclopent-1-ene-1-carboxamide
_symmetry_cell_setting           triclinic
_symmetry_space_group_name_H-M   'P -1'
_symmetry_Int_Tables_number      2
_space_group_name_Hall           '-P 1'
loop_
_symmetry_equiv_pos_site_id
_symmetry_equiv_pos_as_xyz
1 x,y,z
2 -x,-y,-z
_cell_length_a                   6.9500(7)
_cell_length_b                   9.4618(9)
_cell_length_c                   11.3256(11)
_cell_angle_alpha                71.522(9)
_cell_angle_beta                 81.830(8)
_cell_angle_gamma                89.237(8)
_cell_volume                     698.801
_exptl_crystal_colour            colorless
_exptl_crystal_description       block
_cell_formula_units_Z            2
loop_
_atom_site_label
_atom_site_type_symbol
_atom_site_fract_x
_atom_site_fract_y
_atom_site_fract_z
S1 S 0.36088(8) 0.66039(6) 0.05499(5)
O1 O 0.62606(19) 0.40797(16) 0.40459(12)
N1 N 0.5855(2) 0.47579(18) 0.19780(15)
H1 H 0.6232 0.4564 0.1291
N2 N 0.3728(2) 0.60696(18) 0.29820(15)
H2 H 0.4204 0.5610 0.3656
C1 C -0.2587(3) 0.7967(3) 0.3777(2)
H3 H -0.2558 0.7432 0.4619
C2 C -0.3899(3) 0.9092(3) 0.3459(3)
H4 H -0.4736 0.9312 0.4089
C3 C -0.3976(3) 0.9882(3) 0.2224(3)
H5 H -0.4851 1.0643 0.2017
C4 C -0.2749(3) 0.9543(3) 0.1290(2)
H6 H -0.2812 1.0061 0.0449
C5 C -0.1426(3) 0.8434(2) 0.1606(2)
H7 H -0.0592 0.8221 0.0971
C6 C -0.1316(3) 0.7633(2) 0.28499(19)
C7 C 0.0183(3) 0.6458(2) 0.3156(2)
H8 H 0.0210 0.5869 0.2591
H9 H -0.0185 0.5796 0.4008
C8 C 0.2215(3) 0.7135(2) 0.30341(19)
H10 H 0.2438 0.7991 0.2276
H11 H 0.2288 0.7481 0.3747
C9 C 0.4394(3) 0.5785(2) 0.19257(18)
C10 C 0.6779(3) 0.4009(2) 0.29879(18)
C11 C 0.8462(3) 0.3135(2) 0.27206(18)
C12 C 0.9470(3) 0.3227(2) 0.1613(2)
H12 H 0.9168 0.3851 0.0850
C13 C 1.1149(3) 0.2212(3) 0.1730(2)
H13 H 1.0988 0.1458 0.1335
H14 H 1.2362 0.2769 0.1342
C14 C 1.1120(4) 0.1521(3) 0.3112(2)
H15 H 1.2288 0.1819 0.3362
H16 H 1.1068 0.0443 0.3335
C15 C 0.9320(3) 0.2052(3) 0.37765(19)
H17 H 0.8413 0.1225 0.4235
H18 H 0.9675 0.2535 0.4356
loop_
_geom_bond_atom_site_label_1
_geom_bond_atom_site_label_2
_geom_bond_site_symmetry_1
_geom_bond_site_symmetry_2
S1 C9 1_555 1_555
O1 C10 1_555 1_555
N1 H1 1_555 1_555
N2 H2 1_555 1_555
C1 H3 1_555 1_555
C2 C1 1_555 1_555
H4 C2 1_555 1_555
C3 C2 1_555 1_555
H5 C3 1_555 1_555
C4 C3 1_555 1_555
H6 C4 1_555 1_555
C5 C4 1_555 1_555
H7 C5 1_555 1_555
C6 C1 1_555 1_555
C7 C6 1_555 1_555
H8 C7 1_555 1_555
H9 C7 1_555 1_555
C8 N2 1_555 1_555
H10 C8 1_555 1_555
H11 C8 1_555 1_555
C9 N1 1_555 1_555
C10 N1 1_555 1_555
C11 C10 1_555 1_555
C12 C11 1_555 1_555
H12 C12 1_555 1_555
C13 C12 1_555 1_555
H13 C13 1_555 1_555
H14 C13 1_555 1_555
C14 C13 1_555 1_555
H15 C14 1_555 1_555
H16 C14 1_555 1_555
C15 C11 1_555 1_555
H17 C15 1_555 1_555
H18 C15 1_555 1_555
N2 C9 1_555 1_555
C5 C6 1_555 1_555
C7 C8 1_555 1_555
C14 C15 1_555 1_555

#END
