
#######################################################################
#
#                 Cambridge Crystallographic Data Centre
#                                CCDC 
#
#######################################################################
#
# If this CIF has been generated from an entry in the Cambridge 
# Structural Database, then it will include bibliographic, chemical, 
# crystal, experimental, refinement or atomic coordinate data resulting 
# from the CCDC's data processing and validation procedures.
#
#######################################################################

data_TOBSEK
_chemical_formula_moiety         'C22 H18 N4 O1 S1'
_chemical_name_systematic        
5-Benzyl-4-((3-phenoxybenzylidene)amino)-4H-1,2,4-triazole-3-thiol
_symmetry_cell_setting           monoclinic
_symmetry_space_group_name_H-M   'P 21/c'
_symmetry_Int_Tables_number      14
_space_group_name_Hall           '-P 2ybc'
loop_
_symmetry_equiv_pos_site_id
_symmetry_equiv_pos_as_xyz
1 x,y,z
2 -x,1/2+y,1/2-z
3 -x,-y,-z
4 x,1/2-y,1/2+z
_cell_length_a                   16.0289(16)
_cell_length_b                   5.8022(6)
_cell_length_c                   20.542(2)
_cell_angle_alpha                90
_cell_angle_beta                 95.667(2)
_cell_angle_gamma                90
_cell_volume                     1901.13
_cell_formula_units_Z            4
loop_
_atom_site_label
_atom_site_type_symbol
_atom_site_fract_x
_atom_site_fract_y
_atom_site_fract_z
O1 O 0.23871(12) 1.2823(3) 0.21916(9)
S1 S 0.05057(4) 0.26739(15) 0.06979(4)
N1 N 0.25313(13) 0.4319(3) 0.05521(10)
N2 N 0.20712(12) 0.2566(3) 0.02303(10)
N3 N 0.12367(13) -0.0099(4) -0.01322(11)
N4 N 0.19712(13) -0.0484(4) -0.04164(11)
C1 C 0.17780(19) 1.0596(5) 0.30215(15)
H1 H 0.2189 0.9468 0.3016
C2 C 0.1178(2) 1.0458(5) 0.34537(16)
H2 H 0.1183 0.9217 0.3741
C3 C 0.0566(2) 1.2132(6) 0.34691(16)
H3 H 0.0168 1.2033 0.3768
C4 C 0.0555(2) 1.3935(6) 0.30395(16)
H4 H 0.0142 1.5061 0.3044
C5 C 0.11501(19) 1.4099(5) 0.25990(14)
H5 H 0.1139 1.5324 0.2306
C6 C 0.17595(17) 1.2429(4) 0.25980(13)
C7 C 0.27487(16) 1.1015(4) 0.18890(12)
C8 C 0.36036(17) 1.1149(5) 0.18490(12)
H6 H 0.3911 1.2371 0.2042
C9 C 0.39958(17) 0.9459(5) 0.15205(14)
H7 H 0.4571 0.9539 0.1497
C10 C 0.35461(16) 0.7652(4) 0.12270(13)
H8 H 0.3819 0.6503 0.1014
C11 C 0.26815(16) 0.7550(4) 0.12492(12)
C12 C 0.22889(15) 0.9234(4) 0.15934(12)
H9 H 0.1714 0.9155 0.1623
C13 C 0.21782(16) 0.5735(4) 0.09069(12)
H10 H 0.1607 0.5621 0.0949
C14 C 0.12641(16) 0.1746(5) 0.02641(12)
C15 C 0.24687(15) 0.1142(4) -0.01808(12)
C16 C 0.33485(16) 0.1570(5) -0.03241(14)
H11 H 0.3705 0.1635 0.0086
H12 H 0.3376 0.3060 -0.0535
C17 C 0.36838(15) -0.0234(4) -0.07542(13)
C18 C 0.34781(17) -0.0216(5) -0.14250(14)
H13 H 0.3128 0.0934 -0.1612
C19 C 0.37819(19) -0.1866(6) -0.18185(15)
H14 H 0.3634 -0.1827 -0.2268
C20 C 0.43008(19) -0.3568(5) -0.15541(17)
H15 H 0.4503 -0.4693 -0.1820
C21 C 0.4517(2) -0.3594(6) -0.08971(17)
H16 H 0.4871 -0.4741 -0.0714
C22 C 0.42163(18) -0.1938(5) -0.04987(14)
H17 H 0.4376 -0.1974 -0.0051
H18 H 0.0142 0.1996 0.0980
loop_
_geom_bond_atom_site_label_1
_geom_bond_atom_site_label_2
_geom_bond_site_symmetry_1
_geom_bond_site_symmetry_2
O1 C6 1_555 1_555
S1 C14 1_555 1_555
N1 N2 1_555 1_555
N2 C14 1_555 1_555
N3 N4 1_555 1_555
N4 C15 1_555 1_555
C1 H1 1_555 1_555
C2 C1 1_555 1_555
H2 C2 1_555 1_555
C3 C2 1_555 1_555
H3 C3 1_555 1_555
C4 C3 1_555 1_555
H4 C4 1_555 1_555
C5 C4 1_555 1_555
H5 C5 1_555 1_555
C6 C1 1_555 1_555
C7 O1 1_555 1_555
C8 C7 1_555 1_555
H6 C8 1_555 1_555
C9 C8 1_555 1_555
H7 C9 1_555 1_555
C10 C9 1_555 1_555
H8 C10 1_555 1_555
C11 C10 1_555 1_555
C12 C7 1_555 1_555
H9 C12 1_555 1_555
C13 N1 1_555 1_555
H10 C13 1_555 1_555
C14 N3 1_555 1_555
C15 N2 1_555 1_555
C16 C15 1_555 1_555
H11 C16 1_555 1_555
H12 C16 1_555 1_555
C17 C16 1_555 1_555
C18 C17 1_555 1_555
H13 C18 1_555 1_555
C19 C18 1_555 1_555
H14 C19 1_555 1_555
C20 C19 1_555 1_555
H15 C20 1_555 1_555
C21 C20 1_555 1_555
H16 C21 1_555 1_555
C22 C17 1_555 1_555
H17 C22 1_555 1_555
H18 S1 1_555 1_555
C5 C6 1_555 1_555
C11 C12 1_555 1_555
C11 C13 1_555 1_555
C21 C22 1_555 1_555

#END
