
#######################################################################
#
#                 Cambridge Crystallographic Data Centre
#                                CCDC 
#
#######################################################################
#
# If this CIF has been generated from an entry in the Cambridge 
# Structural Database, then it will include bibliographic, chemical, 
# crystal, experimental, refinement or atomic coordinate data resulting 
# from the CCDC's data processing and validation procedures.
#
#######################################################################

data_TOBVOX
_chemical_formula_moiety         'C27 H34 N2 O1,C1 H1 Cl3'
_chemical_name_systematic        
'6,8-Di-t-butyl-3-(2,4-dimethylquinolin-7-yl)-3,4-dihydro-2H-1,3-benzoxazine chloroform solvate'
_symmetry_cell_setting           triclinic
_symmetry_space_group_name_H-M   'P -1'
_symmetry_Int_Tables_number      2
_space_group_name_Hall           '-P 1'
loop_
_symmetry_equiv_pos_site_id
_symmetry_equiv_pos_as_xyz
1 x,y,z
2 -x,-y,-z
_cell_length_a                   10.852(2)
_cell_length_b                   11.352(2)
_cell_length_c                   13.050(3)
_cell_angle_alpha                101.95(3)
_cell_angle_beta                 92.94(3)
_cell_angle_gamma                114.64(3)
_cell_volume                     1412.38
_exptl_crystal_colour            yellow
_exptl_crystal_description       block
_cell_formula_units_Z            2
loop_
_atom_site_label
_atom_site_type_symbol
_atom_site_fract_x
_atom_site_fract_y
_atom_site_fract_z
Cl1 Cl 0.4626(3) 0.0643(2) 0.3898(3)
Cl2 Cl 0.4681(3) 0.3155(3) 0.4820(2)
Cl3 Cl 0.3524(3) 0.1881(4) 0.2632(2)
C1 C 0.4797(7) 0.2174(7) 0.3660(6)
H1 H 0.5701 0.2633 0.3456
O1 O 0.7155(4) -0.0640(3) 0.3009(3)
N1 N 0.7757(5) 0.3955(4) 0.3212(4)
N2 N 0.9327(4) 0.0831(4) 0.4137(3)
C2 C 0.8049(7) 0.5161(6) 0.3058(5)
C3 C 0.9400(7) 0.6139(6) 0.3157(5)
H2 H 0.9542 0.6953 0.3017
C4 C 1.0524(6) 0.5950(5) 0.3451(4)
C5 C 1.0243(5) 0.4671(5) 0.3636(4)
C6 C 0.8864(5) 0.3714(5) 0.3499(4)
C7 C 1.1259(6) 0.4322(5) 0.3960(5)
H3 H 1.2173 0.4949 0.4074
C8 C 1.0949(6) 0.3084(5) 0.4114(4)
H4 H 1.1652 0.2888 0.4341
C9 C 0.9587(5) 0.2100(5) 0.3935(4)
C10 C 0.8532(5) 0.2415(5) 0.3631(4)
H5 H 0.7622 0.1779 0.3516
C11 C 0.6869(8) 0.5448(7) 0.2767(6)
H6 H 0.6034 0.4633 0.2604
H7 H 0.7010 0.5814 0.2159
H8 H 0.6805 0.6080 0.3351
C12 C 1.1949(8) 0.7009(6) 0.3549(6)
H9 H 1.2439 0.6675 0.3069
H10 H 1.2408 0.7254 0.4262
H11 H 1.1920 0.7781 0.3378
C13 C 0.7916(6) -0.0099(5) 0.4069(4)
H12 H 0.7467 0.0349 0.4510
H13 H 0.7885 -0.0833 0.4354
C14 C 1.0028(6) 0.0104(5) 0.3556(4)
H14 H 1.0180 -0.0453 0.3972
H15 H 1.0916 0.0741 0.3455
C15 C 0.9197(5) -0.0766(5) 0.2488(4)
C16 C 0.7808(5) -0.1087(5) 0.2253(4)
C17 C 0.7036(5) -0.1843(5) 0.1242(4)
C18 C 0.7738(5) -0.2282(5) 0.0518(4)
H16 H 0.7258 -0.2786 -0.0155
C19 C 0.9122(5) -0.2022(5) 0.0725(4)
C20 C 0.9822(6) -0.1239(5) 0.1712(4)
H17 H 1.0751 -0.1017 0.1865
C21 C 0.5550(6) -0.2129(6) 0.0981(5)
C22 C 0.4661(6) -0.2894(7) 0.1717(6)
H18 H 0.4738 -0.3715 0.1668
H19 H 0.3721 -0.3090 0.1509
H20 H 0.4967 -0.2356 0.2434
C23 C 0.5443(8) -0.0779(8) 0.1071(6)
H21 H 0.5847 -0.0207 0.1769
H22 H 0.4495 -0.0957 0.0942
H23 H 0.5920 -0.0346 0.0556
C24 C 0.4902(8) -0.3019(9) -0.0161(6)
H24 H 0.5402 -0.2576 -0.0663
H25 H 0.3963 -0.3170 -0.0295
H26 H 0.4939 -0.3862 -0.0232
C25 C 0.9783(6) -0.2551(5) -0.0153(5)
C26 C 0.9822(10) -0.1873(9) -0.1055(6)
H27 H 0.8913 -0.2005 -0.1297
H28 H 1.0167 -0.2257 -0.1630
H29 H 1.0412 -0.0932 -0.0806
C27 C 1.1245(8) -0.2311(10) 0.0276(8)
H30 H 1.1843 -0.1369 0.0452
H31 H 1.1579 -0.2773 -0.0257
H32 H 1.1221 -0.2643 0.0898
C28 C 0.8945(10) -0.4039(7) -0.0608(8)
H33 H 0.8787 -0.4483 -0.0043
H34 H 0.9434 -0.4375 -0.1086
H35 H 0.8081 -0.4204 -0.0983
loop_
_geom_bond_atom_site_label_1
_geom_bond_atom_site_label_2
_geom_bond_site_symmetry_1
_geom_bond_site_symmetry_2
Cl1 C1 1_555 1_555
Cl2 C1 1_555 1_555
Cl3 C1 1_555 1_555
C1 H1 1_555 1_555
O1 C13 1_555 1_555
N1 C2 1_555 1_555
N2 C9 1_555 1_555
C2 C3 1_555 1_555
C3 H2 1_555 1_555
C4 C3 1_555 1_555
C5 C4 1_555 1_555
C6 N1 1_555 1_555
C7 C5 1_555 1_555
H3 C7 1_555 1_555
C8 C7 1_555 1_555
H4 C8 1_555 1_555
C9 C8 1_555 1_555
C10 C6 1_555 1_555
H5 C10 1_555 1_555
C11 C2 1_555 1_555
H6 C11 1_555 1_555
H7 C11 1_555 1_555
H8 C11 1_555 1_555
C12 C4 1_555 1_555
H9 C12 1_555 1_555
H10 C12 1_555 1_555
H11 C12 1_555 1_555
C13 N2 1_555 1_555
H12 C13 1_555 1_555
H13 C13 1_555 1_555
C14 N2 1_555 1_555
H14 C14 1_555 1_555
H15 C14 1_555 1_555
C15 C14 1_555 1_555
C16 O1 1_555 1_555
C17 C16 1_555 1_555
C18 C17 1_555 1_555
H16 C18 1_555 1_555
C19 C18 1_555 1_555
C20 C15 1_555 1_555
H17 C20 1_555 1_555
C21 C17 1_555 1_555
C22 C21 1_555 1_555
H18 C22 1_555 1_555
H19 C22 1_555 1_555
H20 C22 1_555 1_555
C23 C21 1_555 1_555
H21 C23 1_555 1_555
H22 C23 1_555 1_555
H23 C23 1_555 1_555
C24 C21 1_555 1_555
H24 C24 1_555 1_555
H25 C24 1_555 1_555
H26 C24 1_555 1_555
C25 C19 1_555 1_555
C26 C25 1_555 1_555
H27 C26 1_555 1_555
H28 C26 1_555 1_555
H29 C26 1_555 1_555
C27 C25 1_555 1_555
H30 C27 1_555 1_555
H31 C27 1_555 1_555
H32 C27 1_555 1_555
C28 C25 1_555 1_555
H33 C28 1_555 1_555
H34 C28 1_555 1_555
H35 C28 1_555 1_555
C5 C6 1_555 1_555
C9 C10 1_555 1_555
C15 C16 1_555 1_555
C19 C20 1_555 1_555

#END
