
#######################################################################
#
#                 Cambridge Crystallographic Data Centre
#                                CCDC 
#
#######################################################################
#
# If this CIF has been generated from an entry in the Cambridge 
# Structural Database, then it will include bibliographic, chemical, 
# crystal, experimental, refinement or atomic coordinate data resulting 
# from the CCDC's data processing and validation procedures.
#
#######################################################################

data_TOBZUH
_chemical_formula_moiety         'C18 H20 Br1 N1 O3'
_chemical_name_systematic        
'Ethyl 9-(4-bromophenyl)-10-hydroxy-8-azabicyclo[4.3.1]deca-2,4-diene-7-carboxylate'
_symmetry_cell_setting           orthorhombic
_symmetry_space_group_name_H-M   'P 21 21 21'
_symmetry_Int_Tables_number      19
_space_group_name_Hall           'P 2ac 2ab'
loop_
_symmetry_equiv_pos_site_id
_symmetry_equiv_pos_as_xyz
1 x,y,z
2 1/2-x,-y,1/2+z
3 -x,1/2+y,1/2-z
4 1/2+x,1/2-y,-z
_cell_length_a                   7.1757(17)
_cell_length_b                   8.249(2)
_cell_length_c                   28.018(7)
_cell_angle_alpha                90
_cell_angle_beta                 90
_cell_angle_gamma                90
_cell_volume                     1658.45
_exptl_crystal_colour            colorless
_exptl_crystal_description       block
_cell_formula_units_Z            4
loop_
_atom_site_label
_atom_site_type_symbol
_atom_site_fract_x
_atom_site_fract_y
_atom_site_fract_z
Br1 Br 1.07454(5) 0.55705(5) 0.805922(12)
O1 O 0.2998(3) 0.9517(3) 0.56485(8)
H1 H 0.2781 1.0448 0.5757
O2 O 0.2315(3) 0.2726(3) 0.59289(10)
O3 O -0.0465(3) 0.3862(3) 0.58071(11)
C1 C 0.2040(4) 0.6791(3) 0.57789(11)
H2 H 0.0773 0.7024 0.5647
C2 C 0.2733(4) 0.8344(3) 0.60166(11)
H3 H 0.1720 0.8748 0.6231
C3 C 0.4482(4) 0.8106(3) 0.63206(10)
H4 H 0.4680 0.9133 0.6504
C4 C 0.4073(4) 0.6742(3) 0.66934(9)
H5 H 0.3019 0.7133 0.6897
C5 C 0.1801(3) 0.5476(4) 0.61738(10)
H6 H 0.0762 0.5826 0.6388
C6 C 0.6235(4) 0.7786(3) 0.60473(11)
H7 H 0.7346 0.8202 0.6185
C7 C 0.6445(4) 0.6995(4) 0.56368(12)
H8 H 0.7697 0.6890 0.5531
C8 C 0.5054(4) 0.6265(4) 0.53250(10)
H9 H 0.5532 0.5774 0.5044
C9 C 0.3213(4) 0.6185(3) 0.53757(11)
H10 H 0.2557 0.5675 0.5122
C10 C 0.5700(4) 0.6418(3) 0.70246(9)
C11 C 0.7152(4) 0.5371(3) 0.69055(10)
H11 H 0.7122 0.4820 0.6608
C12 C 0.8636(4) 0.5117(4) 0.72116(11)
H12 H 0.9622 0.4406 0.7125
C13 C 0.8665(4) 0.5912(4) 0.76464(10)
C14 C 0.7245(4) 0.6931(4) 0.77817(11)
H13 H 0.7264 0.7450 0.8084
C15 C 0.5781(4) 0.7185(4) 0.74654(10)
H14 H 0.4806 0.7906 0.7553
C16 C 0.1264(4) 0.3855(3) 0.59546(10)
C17 C -0.1147(5) 0.2402(6) 0.55672(19)
H15 H -0.1040 0.2529 0.5217
H16 H -0.0393 0.1452 0.5665
C18 C -0.3090(5) 0.2155(4) 0.56998(15)
H17 H -0.3175 0.1959 0.6044
H18 H -0.3588 0.1217 0.5527
H19 H -0.3814 0.3122 0.5617
N1 N 0.3456(3) 0.5238(3) 0.64680(8)
H20 H 0.4253 0.4810 0.6276
loop_
_geom_bond_atom_site_label_1
_geom_bond_atom_site_label_2
_geom_bond_site_symmetry_1
_geom_bond_site_symmetry_2
Br1 C13 1_555 1_555
O1 H1 1_555 1_555
O2 C16 1_555 1_555
O3 C16 1_555 1_555
C1 H2 1_555 1_555
C2 O1 1_555 1_555
H3 C2 1_555 1_555
C3 C2 1_555 1_555
H4 C3 1_555 1_555
C4 C3 1_555 1_555
H5 C4 1_555 1_555
C5 C1 1_555 1_555
H6 C5 1_555 1_555
C6 C3 1_555 1_555
H7 C6 1_555 1_555
C7 C6 1_555 1_555
H8 C7 1_555 1_555
C8 C7 1_555 1_555
H9 C8 1_555 1_555
C9 C1 1_555 1_555
H10 C9 1_555 1_555
C10 C4 1_555 1_555
C11 C10 1_555 1_555
H11 C11 1_555 1_555
C12 C11 1_555 1_555
H12 C12 1_555 1_555
C13 C12 1_555 1_555
C14 C13 1_555 1_555
H13 C14 1_555 1_555
C15 C10 1_555 1_555
H14 C15 1_555 1_555
C16 C5 1_555 1_555
C17 O3 1_555 1_555
H15 C17 1_555 1_555
H16 C17 1_555 1_555
C18 C17 1_555 1_555
H17 C18 1_555 1_555
H18 C18 1_555 1_555
H19 C18 1_555 1_555
N1 C4 1_555 1_555
H20 N1 1_555 1_555
C1 C2 1_555 1_555
C5 N1 1_555 1_555
C8 C9 1_555 1_555
C14 C15 1_555 1_555

#END
