
#######################################################################
#
#                 Cambridge Crystallographic Data Centre
#                                CCDC 
#
#######################################################################
#
# If this CIF has been generated from an entry in the Cambridge 
# Structural Database, then it will include bibliographic, chemical, 
# crystal, experimental, refinement or atomic coordinate data resulting 
# from the CCDC's data processing and validation procedures.
#
#######################################################################

data_TOCGAV
_chemical_formula_moiety         'C34 H38 N2 O4 S2'
_chemical_name_systematic        
2,8-dioctyl[1]benzothieno[4,5,6,7-lmn]thieno[3,2-f][3,8]phenanthroline-1,3,7,9(2H,8H)-tetrone
_symmetry_cell_setting           monoclinic
_symmetry_space_group_name_H-M   'P 21/c'
_symmetry_Int_Tables_number      14
_space_group_name_Hall           '-P 2ybc'
loop_
_symmetry_equiv_pos_site_id
_symmetry_equiv_pos_as_xyz
1 x,y,z
2 -x,1/2+y,1/2-z
3 -x,-y,-z
4 x,1/2-y,1/2+z
_cell_length_a                   16.91(2)
_cell_length_b                   5.089(6)
_cell_length_c                   18.16(2)
_cell_angle_alpha                90
_cell_angle_beta                 108.224(17)
_cell_angle_gamma                90
_cell_volume                     1484.37
_chemical_melting_point          '287-288 deg.C'
_cell_formula_units_Z            2
loop_
_atom_site_label
_atom_site_type_symbol
_atom_site_fract_x
_atom_site_fract_y
_atom_site_fract_z
C1 C 0.5173(3) 0.6654(7) 0.6065(2)
C2 C 0.5882(3) 0.6313(7) 0.5798(2)
C3 C 0.6378(5) 0.4047(11) 0.6236(4)
H1 H 0.6841 0.3337 0.6136
C4 C 0.6079(3) 0.3187(8) 0.6776(2)
H2 H 0.6219 0.1724 0.7098
C5 C 0.5961(3) 0.7886(7) 0.5204(2)
C6 C 0.5355(3) 0.9845(7) 0.4866(2)
C7 C 0.5436(3) 1.1450(7) 0.4268(2)
C8 C 0.6167(3) 1.1204(7) 0.4003(2)
C9 C 0.6692(3) 0.7552(8) 0.4918(2)
O1 O 0.7215(2) 0.5814(6) 0.51555(17)
O2 O 0.62524(18) 1.2568(5) 0.34795(15)
N1 N 0.6773(2) 0.9358(6) 0.43688(19)
S1 S 0.51585(13) 0.4551(3) 0.68092(10)
C10 C 0.7525(3) 0.9229(10) 0.4126(2)
H3 H 0.7976 0.8479 0.4543
H4 H 0.7686 1.0998 0.4034
C11 C 0.7404(3) 0.7596(8) 0.3395(2)
H5 H 0.7288 0.5792 0.3499
H6 H 0.6926 0.8260 0.2988
C12 C 0.8154(3) 0.7645(11) 0.3113(3)
H7 H 0.8249 0.9438 0.2981
H8 H 0.8638 0.7091 0.3533
C13 C 0.8072(3) 0.5918(10) 0.2421(3)
H9 H 0.7568 0.6413 0.2015
H10 H 0.8002 0.4119 0.2565
C14 C 0.8785(3) 0.5986(12) 0.2086(3)
H11 H 0.8829 0.7762 0.1908
H12 H 0.9294 0.5616 0.2501
C15 C 0.8740(3) 0.4170(12) 0.1439(3)
H13 H 0.8216 0.4483 0.1036
H14 H 0.8721 0.2392 0.1626
C16 C 0.9411(3) 0.4283(13) 0.1077(3)
H15 H 0.9390 0.6000 0.0840
H16 H 0.9939 0.4160 0.1488
C17 C 0.9408(3) 0.2286(12) 0.0488(3)
H17 H 0.9621 0.0659 0.0740
H18 H 0.9751 0.2872 0.0188
H19 H 0.8849 0.2029 0.0153
C1B C 0.4827(3) 1.3346(7) 0.3935(2)
C2B C 0.4118(3) 1.3687(7) 0.4202(2)
C3B C 0.3622(5) 1.5953(11) 0.3764(4)
H1B H 0.3159 1.6663 0.3864
C4B C 0.3921(3) 1.6813(8) 0.3224(2)
H2B H 0.3781 1.8276 0.2902
C5B C 0.4039(3) 1.2114(7) 0.4796(2)
C6B C 0.4645(3) 1.0155(7) 0.5134(2)
C7B C 0.4564(3) 0.8550(7) 0.5732(2)
C8B C 0.3833(3) 0.8796(7) 0.5997(2)
C9B C 0.3308(3) 1.2448(8) 0.5082(2)
O1B O 0.2785(2) 1.4186(6) 0.48445(17)
O2B O 0.37476(18) 0.7432(5) 0.65205(15)
N1B N 0.3227(2) 1.0642(6) 0.56312(19)
S1B S 0.48415(13) 1.5449(3) 0.31908(10)
C10B C 0.2475(3) 1.0771(10) 0.5874(2)
H3B H 0.2024 1.1521 0.5457
H4B H 0.2314 0.9002 0.5966
C11B C 0.2596(3) 1.2404(8) 0.6605(2)
H5B H 0.2712 1.4208 0.6501
H6B H 0.3074 1.1740 0.7012
C12B C 0.1846(3) 1.2355(11) 0.6887(3)
H7B H 0.1751 1.0562 0.7019
H8B H 0.1362 1.2909 0.6467
C13B C 0.1928(3) 1.4082(10) 0.7579(3)
H9B H 0.2432 1.3587 0.7985
H10B H 0.1998 1.5881 0.7435
C14B C 0.1215(3) 1.4014(12) 0.7914(3)
H11B H 0.1171 1.2238 0.8092
H12B H 0.0706 1.4384 0.7499
C15B C 0.1260(3) 1.5830(12) 0.8561(3)
H13B H 0.1784 1.5517 0.8964
H14B H 0.1279 1.7608 0.8374
C16B C 0.0589(3) 1.5717(13) 0.8923(3)
H15B H 0.0610 1.4000 0.9160
H16B H 0.0061 1.5840 0.8512
C17B C 0.0592(3) 1.7714(12) 0.9512(3)
H17B H 0.0379 1.9341 0.9260
H18B H 0.0249 1.7128 0.9812
H19B H 0.1151 1.7971 0.9847
C18? C 0.535(3) 0.472(8) 0.670(2)
H20? H 0.5011 0.4507 0.7012
S2? S 0.6671(6) 0.4277(16) 0.6231(5)
loop_
_geom_bond_atom_site_label_1
_geom_bond_atom_site_label_2
_geom_bond_site_symmetry_1
_geom_bond_site_symmetry_2
C1 C2 1_555 1_555
C2 C3 1_555 1_555
C3 H1 1_555 1_555
C4 C3 1_555 1_555
H2 C4 1_555 1_555
C5 C2 1_555 1_555
C6 C5 1_555 1_555
C7 C6 1_555 1_555
C8 C7 1_555 1_555
C9 C5 1_555 1_555
O1 C9 1_555 1_555
O2 C8 1_555 1_555
N1 C8 1_555 1_555
S1 C1 1_555 1_555
C10 N1 1_555 1_555
H3 C10 1_555 1_555
H4 C10 1_555 1_555
C11 C10 1_555 1_555
H5 C11 1_555 1_555
H6 C11 1_555 1_555
C12 C11 1_555 1_555
H7 C12 1_555 1_555
H8 C12 1_555 1_555
C13 C12 1_555 1_555
H9 C13 1_555 1_555
H10 C13 1_555 1_555
C14 C13 1_555 1_555
H11 C14 1_555 1_555
H12 C14 1_555 1_555
C15 C14 1_555 1_555
H13 C15 1_555 1_555
H14 C15 1_555 1_555
C16 C15 1_555 1_555
H15 C16 1_555 1_555
H16 C16 1_555 1_555
C17 C16 1_555 1_555
H17 C17 1_555 1_555
H18 C17 1_555 1_555
H19 C17 1_555 1_555
C1B C7 1_555 1_555
C2B C1B 1_555 1_555
C3B C2B 1_555 1_555
H1B C3B 1_555 1_555
C4B C3B 1_555 1_555
H2B C4B 1_555 1_555
C5B C2B 1_555 1_555
C6B C6 1_555 1_555
C7B C1 1_555 1_555
C8B C7B 1_555 1_555
C9B C5B 1_555 1_555
O1B C9B 1_555 1_555
O2B C8B 1_555 1_555
N1B C8B 1_555 1_555
S1B C1B 1_555 1_555
C10B N1B 1_555 1_555
H3B C10B 1_555 1_555
H4B C10B 1_555 1_555
C11B C10B 1_555 1_555
H5B C11B 1_555 1_555
H6B C11B 1_555 1_555
C12B C11B 1_555 1_555
H7B C12B 1_555 1_555
H8B C12B 1_555 1_555
C13B C12B 1_555 1_555
H9B C13B 1_555 1_555
H10B C13B 1_555 1_555
C14B C13B 1_555 1_555
H11B C14B 1_555 1_555
H12B C14B 1_555 1_555
C15B C14B 1_555 1_555
H13B C15B 1_555 1_555
H14B C15B 1_555 1_555
C16B C15B 1_555 1_555
H15B C16B 1_555 1_555
H16B C16B 1_555 1_555
C17B C16B 1_555 1_555
H17B C17B 1_555 1_555
H18B C17B 1_555 1_555
H19B C17B 1_555 1_555
C4 S1 1_555 1_555
C9 N1 1_555 1_555
C4B S1B 1_555 1_555
C5B C6B 1_555 1_555
C6B C7B 1_555 1_555
C9B N1B 1_555 1_555

#END
