
#######################################################################
#
#                 Cambridge Crystallographic Data Centre
#                                CCDC 
#
#######################################################################
#
# If this CIF has been generated from an entry in the Cambridge 
# Structural Database, then it will include bibliographic, chemical, 
# crystal, experimental, refinement or atomic coordinate data resulting 
# from the CCDC's data processing and validation procedures.
#
#######################################################################

data_TOCNIK
_chemical_formula_moiety         'C36 H38 N4 O3'
_chemical_name_systematic        
3',6'-bis(diethylamino)-2-((4-methoxybenzylidene)amino)spiro[isoindole-1,9'-xanthen]-3(2H)-one
_symmetry_cell_setting           monoclinic
_symmetry_space_group_name_H-M   'P 21/n'
_symmetry_Int_Tables_number      14
_space_group_name_Hall           '-P 2yn'
loop_
_symmetry_equiv_pos_site_id
_symmetry_equiv_pos_as_xyz
1 x,y,z
2 1/2-x,1/2+y,1/2-z
3 -x,-y,-z
4 1/2+x,1/2-y,1/2+z
_cell_length_a                   16.391(2)
_cell_length_b                   11.8403(16)
_cell_length_c                   17.229(2)
_cell_angle_alpha                90
_cell_angle_beta                 111.145(10)
_cell_angle_gamma                90
_cell_volume                     3118.58
_cell_formula_units_Z            4
loop_
_atom_site_label
_atom_site_type_symbol
_atom_site_fract_x
_atom_site_fract_y
_atom_site_fract_z
O1 O 0.01856(15) 0.0354(2) 0.85038(16)
O2 O 0.30235(13) 0.41816(18) 0.87645(14)
O3 O 0.33553(18) 0.0501(3) 1.3451(2)
N1 N 0.13230(17) 0.1618(2) 0.87050(19)
N2 N 0.18039(19) 0.1623(2) 0.9574(2)
N3 N 0.1164(2) 0.6987(2) 0.9200(2)
N4 N 0.51570(19) 0.1725(3) 0.8413(2)
C1 C 0.0583(2) 0.1042(3) 0.8243(3)
C2 C 0.0381(2) 0.1409(3) 0.7384(2)
C3 C -0.0283(2) 0.1055(3) 0.6669(3)
H1 H -0.0682 0.0511 0.6692
C4 C -0.0337(3) 0.1524(4) 0.5927(3)
H2 H -0.0778 0.1294 0.5439
C5 C 0.0257(3) 0.2337(4) 0.5894(3)
H3 H 0.0207 0.2648 0.5383
C6 C 0.0919(2) 0.2694(3) 0.6601(3)
H4 H 0.1316 0.3240 0.6575
C7 C 0.0979(2) 0.2219(3) 0.7357(2)
C8 C 0.16299(19) 0.2473(2) 0.8228(2)
C9 C 0.1522(2) 0.3651(2) 0.85066(19)
C10 C 0.0725(2) 0.4036(3) 0.8524(2)
H5 H 0.0255 0.3538 0.8370
C11 C 0.0598(2) 0.5107(3) 0.8754(2)
H6 H 0.0053 0.5315 0.8761
C12 C 0.1285(2) 0.5899(3) 0.8982(2)
C13 C 0.2090(2) 0.5522(3) 0.8976(2)
H7 H 0.2564 0.6013 0.9129
C14 C 0.21904(19) 0.4429(3) 0.87469(19)
C15 C 0.3189(2) 0.3101(3) 0.8549(2)
C16 C 0.4049(2) 0.2937(3) 0.8607(2)
H8 H 0.4448 0.3529 0.8776
C17 C 0.4318(2) 0.1898(3) 0.8415(2)
C18 C 0.3684(2) 0.1035(3) 0.8162(2)
H9 H 0.3838 0.0326 0.8028
C19 C 0.2846(2) 0.1233(3) 0.8113(2)
H10 H 0.2443 0.0647 0.7940
C20 C 0.25631(19) 0.2269(3) 0.83102(18)
C21 C 0.0317(3) 0.7395(3) 0.9184(3)
H11 H -0.0144 0.7030 0.8731
H12 H 0.0277 0.8201 0.9077
C22 C 0.0179(3) 0.7171(4) 0.9977(3)
H13 H -0.0396 0.7416 0.9927
H14 H 0.0608 0.7576 1.0421
H15 H 0.0236 0.6376 1.0095
C23 C 0.1864(3) 0.7809(3) 0.9423(3)
H16 H 0.2413 0.7431 0.9721
H17 H 0.1766 0.8362 0.9795
C24 C 0.1935(3) 0.8405(3) 0.8687(3)
H18 H 0.2376 0.8980 0.8873
H19 H 0.1383 0.8744 0.8371
H20 H 0.2093 0.7873 0.8345
C25 C 0.5537(2) 0.0603(3) 0.8548(3)
H21 H 0.6018 0.0584 0.8346
H22 H 0.5101 0.0066 0.8222
C26 C 0.5867(3) 0.0237(4) 0.9440(3)
H23 H 0.6072 -0.0528 0.9479
H24 H 0.5402 0.0285 0.9653
H25 H 0.6339 0.0720 0.9759
C27 C 0.5758(3) 0.2677(4) 0.8567(4)
H26 H 0.5412 0.3353 0.8362
H27 H 0.6039 0.2762 0.9165
C28 C 0.6424(5) 0.2649(6) 0.8223(4)
H28 H 0.6798 0.3294 0.8412
H29 H 0.6163 0.2662 0.7627
H30 H 0.6762 0.1971 0.8398
C29 C 0.1580(2) 0.0932(3) 1.0006(3)
H31 H 0.1107 0.0458 0.9747
C30 C 0.2042(2) 0.0841(3) 1.0916(3)
C31 C 0.1786(3) 0.0054(4) 1.1362(3)
H32 H 0.1309 -0.0404 1.1084
C32 C 0.2202(3) -0.0088(4) 1.2192(3)
H33 H 0.2018 -0.0644 1.2473
C33 C 0.2895(3) 0.0593(4) 1.2613(3)
C34 C 0.3176(3) 0.1423(4) 1.2201(3)
H34 H 0.3645 0.1887 1.2492
C35 C 0.2749(3) 0.1554(3) 1.1345(3)
H35 H 0.2929 0.2108 1.1059
C36 C 0.3112(3) -0.0373(5) 1.3903(3)
H36 H 0.3507 -0.0369 1.4472
H37 H 0.3139 -0.1092 1.3657
H38 H 0.2527 -0.0241 1.3883
loop_
_geom_bond_atom_site_label_1
_geom_bond_atom_site_label_2
_geom_bond_site_symmetry_1
_geom_bond_site_symmetry_2
O1 C1 1_555 1_555
O2 C14 1_555 1_555
O3 C33 1_555 1_555
N1 N2 1_555 1_555
N2 C29 1_555 1_555
N3 C12 1_555 1_555
N4 C17 1_555 1_555
C1 N1 1_555 1_555
C2 C1 1_555 1_555
C3 C2 1_555 1_555
H1 C3 1_555 1_555
C4 C3 1_555 1_555
H2 C4 1_555 1_555
C5 C4 1_555 1_555
H3 C5 1_555 1_555
C6 C5 1_555 1_555
H4 C6 1_555 1_555
C7 C2 1_555 1_555
C8 N1 1_555 1_555
C9 C8 1_555 1_555
C10 C9 1_555 1_555
H5 C10 1_555 1_555
C11 C10 1_555 1_555
H6 C11 1_555 1_555
C12 C11 1_555 1_555
C13 C12 1_555 1_555
H7 C13 1_555 1_555
C14 C9 1_555 1_555
C15 O2 1_555 1_555
C16 C15 1_555 1_555
H8 C16 1_555 1_555
C17 C16 1_555 1_555
C18 C17 1_555 1_555
H9 C18 1_555 1_555
C19 C18 1_555 1_555
H10 C19 1_555 1_555
C20 C8 1_555 1_555
C21 N3 1_555 1_555
H11 C21 1_555 1_555
H12 C21 1_555 1_555
C22 C21 1_555 1_555
H13 C22 1_555 1_555
H14 C22 1_555 1_555
H15 C22 1_555 1_555
C23 N3 1_555 1_555
H16 C23 1_555 1_555
H17 C23 1_555 1_555
C24 C23 1_555 1_555
H18 C24 1_555 1_555
H19 C24 1_555 1_555
H20 C24 1_555 1_555
C25 N4 1_555 1_555
H21 C25 1_555 1_555
H22 C25 1_555 1_555
C26 C25 1_555 1_555
H23 C26 1_555 1_555
H24 C26 1_555 1_555
H25 C26 1_555 1_555
C27 N4 1_555 1_555
H26 C27 1_555 1_555
H27 C27 1_555 1_555
C28 C27 1_555 1_555
H28 C28 1_555 1_555
H29 C28 1_555 1_555
H30 C28 1_555 1_555
C29 H31 1_555 1_555
C30 C29 1_555 1_555
C31 C30 1_555 1_555
H32 C31 1_555 1_555
C32 C31 1_555 1_555
H33 C32 1_555 1_555
C33 C32 1_555 1_555
C34 C33 1_555 1_555
H34 C34 1_555 1_555
C35 C30 1_555 1_555
H35 C35 1_555 1_555
C36 O3 1_555 1_555
H36 C36 1_555 1_555
H37 C36 1_555 1_555
H38 C36 1_555 1_555
C6 C7 1_555 1_555
C7 C8 1_555 1_555
C13 C14 1_555 1_555
C15 C20 1_555 1_555
C19 C20 1_555 1_555
C34 C35 1_555 1_555

#END
