
#######################################################################
#
#                 Cambridge Crystallographic Data Centre
#                                CCDC 
#
#######################################################################
#
# If this CIF has been generated from an entry in the Cambridge 
# Structural Database, then it will include bibliographic, chemical, 
# crystal, experimental, refinement or atomic coordinate data resulting 
# from the CCDC's data processing and validation procedures.
#
#######################################################################

data_TOCNAC
_chemical_formula_moiety         'C22 H44 N6 O2 6+,3(O4 S1 2-),7.5(H2 O1)'
_chemical_name_systematic        
'6,19-dimethyl-27,28-dioxa-3,6,9,16,19,22-hexaazoniatricyclo[22.2.1.1^11,14^]octacosa-1(26),11,13,24-tetraene trisulfate hydrate'
_symmetry_cell_setting           triclinic
_symmetry_space_group_name_H-M   'P -1'
_symmetry_Int_Tables_number      2
_space_group_name_Hall           '-P 1'
loop_
_symmetry_equiv_pos_site_id
_symmetry_equiv_pos_as_xyz
1 x,y,z
2 -x,-y,-z
_cell_length_a                   13.0481(5)
_cell_length_b                   13.2273(5)
_cell_length_c                   23.4746(8)
_cell_angle_alpha                102.934(2)
_cell_angle_beta                 93.491(2)
_cell_angle_gamma                100.629(3)
_cell_volume                     3858.82
_exptl_crystal_colour            colorless
_exptl_crystal_description       needle
_cell_formula_units_Z            4
loop_
_atom_site_label
_atom_site_type_symbol
_atom_site_fract_x
_atom_site_fract_y
_atom_site_fract_z
N1 N 0.22288(13) 0.50422(13) 0.49676(7)
H1 H 0.2444(17) 0.5107(18) 0.4620(7)
C1 C 0.17390(17) 0.59946(16) 0.51524(10)
H2 H 0.1501 0.6023 0.5547
H3 H 0.1121 0.5938 0.4872
C2 C 0.25324(17) 0.69938(16) 0.51664(10)
H4 H 0.3138 0.7059 0.5457
H5 H 0.2791 0.6949 0.4776
N2 N 0.20591(14) 0.79461(14) 0.53254(7)
H6 H 0.1777(17) 0.8006(19) 0.5664(7)
H7 H 0.1542(15) 0.7925(19) 0.5058(9)
C3 C 0.28343(17) 0.89633(16) 0.53740(9)
H8 H 0.2473 0.9568 0.5457
H9 H 0.3384 0.9064 0.5703
C4 C 0.33207(17) 0.89327(16) 0.48186(8)
O1 O 0.26363(11) 0.88519(11) 0.43313(6)
C5 C 0.42821(17) 0.88513(17) 0.46610(9)
H10 H 0.4887 0.8877 0.4915
C6 C 0.42165(17) 0.87192(17) 0.40384(9)
H11 H 0.4771 0.8649 0.3798
C7 C 0.32115(16) 0.87136(15) 0.38581(8)
C8 C 0.26192(16) 0.85618(15) 0.32791(8)
H12 H 0.3120 0.8649 0.2985
H13 H 0.2196 0.9116 0.3300
N3 N 0.19065(13) 0.74937(13) 0.30801(7)
H14 H 0.1472(15) 0.7521(18) 0.2781(8)
H15 H 0.1510(16) 0.7369(18) 0.3366(8)
C9 C 0.24574(15) 0.66011(15) 0.29044(9)
H16 H 0.2951 0.6578 0.3236
H17 H 0.2861 0.6694 0.2569
C10 C 0.16308(15) 0.55818(15) 0.27296(9)
H18 H 0.1295 0.5455 0.3081
H19 H 0.1082 0.5661 0.2442
N4 N 0.20872(13) 0.46436(13) 0.24646(7)
H20 H 0.2601(14) 0.4574(18) 0.2718(8)
C11 C 0.12642(15) 0.36466(15) 0.23783(9)
H21 H 0.0755 0.3587 0.2036
H22 H 0.0879 0.3675 0.2730
C12 C 0.17767(16) 0.26848(15) 0.22762(9)
H23 H 0.2196 0.2680 0.1938
H24 H 0.2255 0.2724 0.2628
N5 N 0.09584(14) 0.16946(13) 0.21561(7)
H25 H 0.0581(16) 0.1607(18) 0.1816(7)
H26 H 0.0485(15) 0.1777(18) 0.2408(9)
C13 C 0.14117(17) 0.07305(16) 0.21672(9)
H27 H 0.0846 0.0088 0.2060
H28 H 0.1928 0.0657 0.1876
C14 C 0.19300(16) 0.08358(15) 0.27636(8)
O2 O 0.12622(11) 0.08343(11) 0.31994(6)
C15 C 0.29338(17) 0.10305(17) 0.29996(9)
H29 H 0.3539 0.1074 0.2794
C16 C 0.29110(18) 0.11586(17) 0.36199(10)
H30 H 0.3499 0.1300 0.3906
C17 C 0.18982(17) 0.10405(16) 0.37196(9)
C18 C 0.13516(18) 0.10957(16) 0.42601(9)
H31 H 0.1832 0.1018 0.4583
H32 H 0.0737 0.0502 0.4188
N6 N 0.09933(13) 0.21306(14) 0.44418(7)
H33 H 0.0610(16) 0.2049(19) 0.4735(8)
H34 H 0.0533(15) 0.2214(19) 0.4169(8)
C19 C 0.18547(16) 0.30782(16) 0.45961(9)
H35 H 0.2187 0.3182 0.4240
H36 H 0.2395 0.2981 0.4882
C20 C 0.14086(16) 0.40443(16) 0.48620(9)
H37 H 0.0814 0.4090 0.4592
H38 H 0.1140 0.3967 0.5239
C21 C 0.31189(18) 0.50449(18) 0.54003(10)
H39 H 0.2870 0.5070 0.5788
H40 H 0.3674 0.5667 0.5424
H41 H 0.3396 0.4400 0.5273
C22 C 0.25184(17) 0.47425(16) 0.18977(9)
H42 H 0.1957 0.4798 0.1617
H43 H 0.2805 0.4116 0.1737
H44 H 0.3076 0.5378 0.1969
N7 N 0.23545(13) 0.50541(13) 1.00248(7)
H45 H 0.2516(18) 0.5076(18) 0.9665(7)
C23 C 0.19427(16) 0.60505(16) 1.02342(9)
H46 H 0.1764 0.6105 1.0642
H47 H 0.1298 0.6026 0.9982
C24 C 0.27693(17) 0.70108(16) 1.02104(11)
H48 H 0.3383 0.7075 1.0495
H49 H 0.3006 0.6913 0.9813
N8 N 0.23490(14) 0.79963(14) 1.03501(7)
H50 H 0.2112(17) 0.8066(19) 1.0701(7)
H51 H 0.1795(14) 0.7953(19) 1.0082(9)
C25 C 0.31718(17) 0.89671(16) 1.03639(8)
H52 H 0.2859 0.9605 1.0456
H53 H 0.3746 0.9044 1.0676
C26 C 0.36009(17) 0.88823(16) 0.97887(9)
O3 O 0.28924(11) 0.88680(11) 0.93230(6)
C27 C 0.45428(17) 0.87791(16) 0.96032(9)
H54 H 0.5156 0.8761 0.9837
C28 C 0.44353(17) 0.87029(16) 0.89821(9)
H55 H 0.4967 0.8635 0.8726
C29 C 0.34315(16) 0.87457(15) 0.88332(8)
C30 C 0.27956(16) 0.86306(15) 0.82713(8)
H56 H 0.3268 0.8714 0.7963
H57 H 0.2387 0.9199 0.8315
N9 N 0.20581(13) 0.75749(13) 0.80825(7)
H58 H 0.1610(15) 0.7583(18) 0.7779(8)
H59 H 0.1688(16) 0.7450(18) 0.8374(8)
C31 C 0.25780(15) 0.66583(15) 0.79108(9)
H60 H 0.3056 0.6619 0.8246
H61 H 0.2994 0.6738 0.7579
C32 C 0.17276(16) 0.56593(15) 0.77304(9)
H62 H 0.1354 0.5559 0.8074
H63 H 0.1213 0.5741 0.7425
N10 N 0.21742(13) 0.47034(13) 0.74975(7)
H64 H 0.2721(14) 0.4678(18) 0.7738(9)
C33 C 0.13600(15) 0.37119(15) 0.74427(9)
H65 H 0.0853 0.3608 0.7093
H66 H 0.0972 0.3783 0.7794
C34 C 0.18771(16) 0.27583(15) 0.73844(9)
H67 H 0.2334 0.2737 0.7062
H68 H 0.2319 0.2822 0.7754
N11 N 0.10644(13) 0.17642(13) 0.72586(7)
H69 H 0.0724(17) 0.1645(18) 0.6898(7)
H70 H 0.0555(14) 0.1857(18) 0.7491(9)
C35 C 0.15069(16) 0.08000(16) 0.72974(8)
H71 H 0.0939 0.0160 0.7189
H72 H 0.2040 0.0711 0.7017
C36 C 0.19919(16) 0.09186(15) 0.79021(8)
O4 O 0.12991(11) 0.08527(11) 0.83200(6)
C37 C 0.29895(16) 0.11589(16) 0.81563(9)
H73 H 0.3608 0.1250 0.7964
C38 C 0.29343(17) 0.12505(16) 0.87737(9)
H74 H 0.3509 0.1412 0.9070
C39 C 0.19116(17) 0.10622(16) 0.88498(8)
C40 C 0.13229(19) 0.11246(17) 0.93748(9)
H75 H 0.1768 0.1028 0.9707
H76 H 0.0691 0.0549 0.9289
N12 N 0.10015(14) 0.21782(14) 0.95432(7)
H77 H 0.0552(16) 0.2126(19) 0.9807(9)
H78 H 0.0587(17) 0.2296(19) 0.9257(9)
C41 C 0.19030(16) 0.30842(16) 0.97457(9)
H79 H 0.2322 0.3166 0.9415
H80 H 0.2360 0.2949 1.0061
C42 C 0.15031(17) 0.40927(16) 0.99763(10)
H81 H 0.0900 0.4119 0.9707
H82 H 0.1260 0.4091 1.0367
C43 C 0.33044(17) 0.50374(17) 1.04097(9)
H83 H 0.3128 0.5084 1.0814
H84 H 0.3862 0.5641 1.0402
H85 H 0.3545 0.4376 1.0266
C44 C 0.26125(17) 0.47523(17) 0.69264(8)
H86 H 0.2838 0.4089 0.6764
H87 H 0.3215 0.5346 0.6993
H88 H 0.2072 0.4854 0.6648
S1 S 0.37848(4) 0.49823(4) 0.37711(2)
O5 O 0.35909(12) 0.42867(13) 0.31652(6)
O6 O 0.41339(13) 0.44221(14) 0.41910(7)
O7 O 0.27846(13) 0.52899(14) 0.39223(7)
O8 O 0.45650(15) 0.59289(15) 0.37603(8)
S2 S 0.38772(4) 0.49020(4) 0.87917(2)
O9 O 0.38993(11) 0.47356(12) 0.81442(6)
O10 O 0.28178(13) 0.50537(15) 0.89255(7)
O11 O 0.46649(16) 0.58341(15) 0.90870(7)
O12 O 0.40924(15) 0.39660(14) 0.89727(7)
S3 S 0.09261(4) 0.76795(4) 0.66805(2)
O13 O 0.18199(12) 0.71457(13) 0.66802(7)
O14 O 0.08289(11) 0.82307(12) 0.72924(6)
O15 O 0.10883(15) 0.84525(14) 0.63123(7)
O16 O -0.00611(13) 0.69197(14) 0.64456(7)
S4 S 0.09381(4) 0.76257(4) 0.16617(2)
O17 O 0.07578(11) 0.81575(12) 0.22639(6)
O18 O 0.15008(18) 0.84088(15) 0.13837(8)
O19 O -0.00789(15) 0.71112(16) 0.13265(8)
O20 O 0.1559(2) 0.68359(19) 0.17025(8)
S5 S -0.01888(4) 0.21931(4) 0.08685(2)
O21 O -0.04021(12) 0.13343(11) 0.11780(6)
O22 O 0.09397(12) 0.26384(12) 0.09271(6)
O23 O -0.05701(12) 0.17952(15) 0.02383(6)
O24 O -0.07606(15) 0.30240(13) 0.11324(8)
S6 S 0.00447(4) 0.21984(4) 0.58948(2)
O25 O -0.01555(13) 0.13572(11) 0.62156(6)
O26 O 0.11664(12) 0.26798(12) 0.59629(6)
O27 O -0.03184(12) 0.17631(13) 0.52612(6)
O28 O -0.05669(13) 0.30145(12) 0.61307(7)
O29 O 0.49322(13) 0.36444(13) 0.72843(7)
H89 H 0.4622 0.4080 0.7515
H90 H 0.4991 0.3804 0.6919
O30 O 0.49875(14) 0.72392(14) 0.57392(8)
H91 H 0.5355 0.6762 0.5861
H92 H 0.4640 0.7460 0.6093
O31 O 0.39407(13) 0.79955(14) 0.66917(8)
H93 H 0.3236 0.7776 0.6693
H94 H 0.4024 0.8656 0.6832
O32 O 0.61698(13) 0.84309(13) 0.31697(7)
H95 H 0.6567 0.8465 0.3527
H96 H 0.5871 0.7738 0.3029
O33 O 0.53790(13) 0.71263(13) 1.02075(7)
H97 H 0.5054 0.6658 0.9854
H98 H 0.5583 0.6670 1.0389
O34 O 0.40639(12) 0.29854(13) 0.15504(7)
H99 H 0.4433 0.3004 0.1878
H100 H 0.4491 0.3399 0.1397
O35 O 0.72583(14) 0.84966(14) 0.42271(8)
H101 H 0.6839 0.8135 0.4384
H102 H 0.7787 0.8162 0.4193
O36 O 0.50912(13) 0.32300(14) 0.26767(7)
H103 H 0.5349 0.2900 0.2885
H104 H 0.4650 0.3538 0.2892
O37 O 0.58770(13) 0.71995(14) 0.46981(8)
H105 H 0.5620 0.7027 0.5002
H106 H 0.5388 0.6775 0.4392
O38 O 0.52260(15) 0.99565(15) 0.28210(9)
H107 H 0.5591 0.9471 0.2928
H108 H 0.4743 0.9650 0.2475
O39 O 0.55162(14) 0.29906(14) 0.83139(8)
H109 H 0.5045 0.3238 0.8502
H110 H 0.5322 0.3203 0.7970
O40 O 0.24891(14) 0.13404(14) 0.08575(8)
H111 H 0.3029 0.1738 0.1016
H112 H 0.2041 0.1659 0.0848
O41 O 0.37926(15) 0.88762(15) 0.18388(9)
H113 H 0.4018 0.8239 0.1725
H114 H 0.3083 0.8785 0.1764
O42 O -0.0095(2) 0.49283(19) 0.08500(11)
H115 H -0.0265 0.4333 0.1087
H116 H 0.0172 0.5603 0.1192
O44 O 0.0316(7) 0.4944(4) 0.5992(4)
H119 H 0.0138 0.5620 0.6206
H120 H -0.0099 0.4255 0.6056
O43? O 0.0241(5) 0.4960(5) 0.1392(3)
H117? H -0.0240 0.4333 0.1092
H118? H 0.0197 0.5603 0.1197
O45? O 0.0536(9) 0.4954(10) 0.6249(8)
H121? H 0.0345 0.5593 0.6136
H122? H 0.0108 0.4228 0.5986
loop_
_geom_bond_atom_site_label_1
_geom_bond_atom_site_label_2
_geom_bond_site_symmetry_1
_geom_bond_site_symmetry_2
N1 H1 1_555 1_555
C1 N1 1_555 1_555
H2 C1 1_555 1_555
H3 C1 1_555 1_555
C2 C1 1_555 1_555
H4 C2 1_555 1_555
H5 C2 1_555 1_555
N2 C2 1_555 1_555
H6 N2 1_555 1_555
H7 N2 1_555 1_555
C3 N2 1_555 1_555
H8 C3 1_555 1_555
H9 C3 1_555 1_555
C4 C3 1_555 1_555
O1 C4 1_555 1_555
C5 C4 1_555 1_555
H10 C5 1_555 1_555
C6 C5 1_555 1_555
H11 C6 1_555 1_555
C7 O1 1_555 1_555
C8 C7 1_555 1_555
H12 C8 1_555 1_555
H13 C8 1_555 1_555
N3 C8 1_555 1_555
H14 N3 1_555 1_555
H15 N3 1_555 1_555
C9 N3 1_555 1_555
H16 C9 1_555 1_555
H17 C9 1_555 1_555
C10 C9 1_555 1_555
H18 C10 1_555 1_555
H19 C10 1_555 1_555
N4 C10 1_555 1_555
H20 N4 1_555 1_555
C11 N4 1_555 1_555
H21 C11 1_555 1_555
H22 C11 1_555 1_555
C12 C11 1_555 1_555
H23 C12 1_555 1_555
H24 C12 1_555 1_555
N5 C12 1_555 1_555
H25 N5 1_555 1_555
H26 N5 1_555 1_555
C13 N5 1_555 1_555
H27 C13 1_555 1_555
H28 C13 1_555 1_555
C14 C13 1_555 1_555
O2 C14 1_555 1_555
C15 C14 1_555 1_555
H29 C15 1_555 1_555
C16 C15 1_555 1_555
H30 C16 1_555 1_555
C17 O2 1_555 1_555
C18 C17 1_555 1_555
H31 C18 1_555 1_555
H32 C18 1_555 1_555
N6 C18 1_555 1_555
H33 N6 1_555 1_555
H34 N6 1_555 1_555
C19 N6 1_555 1_555
H35 C19 1_555 1_555
H36 C19 1_555 1_555
C20 N1 1_555 1_555
H37 C20 1_555 1_555
H38 C20 1_555 1_555
C21 N1 1_555 1_555
H39 C21 1_555 1_555
H40 C21 1_555 1_555
H41 C21 1_555 1_555
C22 N4 1_555 1_555
H42 C22 1_555 1_555
H43 C22 1_555 1_555
H44 C22 1_555 1_555
N7 H45 1_555 1_555
C23 N7 1_555 1_555
H46 C23 1_555 1_555
H47 C23 1_555 1_555
C24 C23 1_555 1_555
H48 C24 1_555 1_555
H49 C24 1_555 1_555
N8 C24 1_555 1_555
H50 N8 1_555 1_555
H51 N8 1_555 1_555
C25 N8 1_555 1_555
H52 C25 1_555 1_555
H53 C25 1_555 1_555
C26 C25 1_555 1_555
O3 C26 1_555 1_555
C27 C26 1_555 1_555
H54 C27 1_555 1_555
C28 C27 1_555 1_555
H55 C28 1_555 1_555
C29 O3 1_555 1_555
C30 C29 1_555 1_555
H56 C30 1_555 1_555
H57 C30 1_555 1_555
N9 C30 1_555 1_555
H58 N9 1_555 1_555
H59 N9 1_555 1_555
C31 N9 1_555 1_555
H60 C31 1_555 1_555
H61 C31 1_555 1_555
C32 C31 1_555 1_555
H62 C32 1_555 1_555
H63 C32 1_555 1_555
N10 C32 1_555 1_555
H64 N10 1_555 1_555
C33 N10 1_555 1_555
H65 C33 1_555 1_555
H66 C33 1_555 1_555
C34 C33 1_555 1_555
H67 C34 1_555 1_555
H68 C34 1_555 1_555
N11 C34 1_555 1_555
H69 N11 1_555 1_555
H70 N11 1_555 1_555
C35 N11 1_555 1_555
H71 C35 1_555 1_555
H72 C35 1_555 1_555
C36 C35 1_555 1_555
O4 C36 1_555 1_555
C37 C36 1_555 1_555
H73 C37 1_555 1_555
C38 C37 1_555 1_555
H74 C38 1_555 1_555
C39 O4 1_555 1_555
C40 C39 1_555 1_555
H75 C40 1_555 1_555
H76 C40 1_555 1_555
N12 C40 1_555 1_555
H77 N12 1_555 1_555
H78 N12 1_555 1_555
C41 N12 1_555 1_555
H79 C41 1_555 1_555
H80 C41 1_555 1_555
C42 N7 1_555 1_555
H81 C42 1_555 1_555
H82 C42 1_555 1_555
C43 N7 1_555 1_555
H83 C43 1_555 1_555
H84 C43 1_555 1_555
H85 C43 1_555 1_555
C44 N10 1_555 1_555
H86 C44 1_555 1_555
H87 C44 1_555 1_555
H88 C44 1_555 1_555
S1 O5 1_555 1_555
O6 S1 1_555 1_555
O7 S1 1_555 1_555
O8 S1 1_555 1_555
S2 O9 1_555 1_555
O10 S2 1_555 1_555
O11 S2 1_555 1_555
O12 S2 1_555 1_555
S3 O13 1_555 1_555
O14 S3 1_555 1_555
O15 S3 1_555 1_555
O16 S3 1_555 1_555
S4 O17 1_555 1_555
O18 S4 1_555 1_555
O19 S4 1_555 1_555
O20 S4 1_555 1_555
S5 O21 1_555 1_555
O22 S5 1_555 1_555
O23 S5 1_555 1_555
O24 S5 1_555 1_555
S6 O25 1_555 1_555
O26 S6 1_555 1_555
O27 S6 1_555 1_555
O28 S6 1_555 1_555
O29 H89 1_555 1_555
H90 O29 1_555 1_555
O30 H91 1_555 1_555
H92 O30 1_555 1_555
O31 H93 1_555 1_555
H94 O31 1_555 1_555
O32 H95 1_555 1_555
H96 O32 1_555 1_555
O33 H97 1_555 1_555
H98 O33 1_555 1_555
O34 H99 1_555 1_555
H100 O34 1_555 1_555
O35 H101 1_555 1_555
H102 O35 1_555 1_555
O36 H103 1_555 1_555
H104 O36 1_555 1_555
O37 H105 1_555 1_555
H106 O37 1_555 1_555
O38 H107 1_555 1_555
H108 O38 1_555 1_555
O39 H109 1_555 1_555
H110 O39 1_555 1_555
O40 H111 1_555 1_555
H112 O40 1_555 1_555
O41 H113 1_555 1_555
H114 O41 1_555 1_555
O42 H115 1_555 1_555
H116 O42 1_555 1_555
O44 H119 1_555 1_555
H120 O44 1_555 1_555
C6 C7 1_555 1_555
C16 C17 1_555 1_555
C19 C20 1_555 1_555
C28 C29 1_555 1_555
C38 C39 1_555 1_555
C41 C42 1_555 1_555

#END
