
#######################################################################
#
#                 Cambridge Crystallographic Data Centre
#                                CCDC 
#
#######################################################################
#
# If this CIF has been generated from an entry in the Cambridge 
# Structural Database, then it will include bibliographic, chemical, 
# crystal, experimental, refinement or atomic coordinate data resulting 
# from the CCDC's data processing and validation procedures.
#
#######################################################################

data_TOCSAF
_chemical_formula_moiety         'C23 H52 Li1 N3 Si2'
_chemical_name_systematic        
5-(t-Butyldimethylsilyl)-1-trimethylsilyl-2-t-butyl-1-aza-2,4-pentadienyl-(tetramethylethylenediamine)-lithium
_symmetry_cell_setting           triclinic
_symmetry_space_group_name_H-M   'P -1'
_symmetry_Int_Tables_number      2
_space_group_name_Hall           '-P 1'
loop_
_symmetry_equiv_pos_site_id
_symmetry_equiv_pos_as_xyz
1 x,y,z
2 -x,-y,-z
_cell_length_a                   10.222(4)
_cell_length_b                   12.261(3)
_cell_length_c                   14.193(3)
_cell_angle_alpha                64.44(2)
_cell_angle_beta                 75.80(3)
_cell_angle_gamma                83.79(3)
_cell_volume                     1555.71
_cell_formula_units_Z            2
loop_
_atom_site_label
_atom_site_type_symbol
_atom_site_fract_x
_atom_site_fract_y
_atom_site_fract_z
Li1 Li 0.4970(7) 0.8509(7) 0.8204(6)
Si1 Si 0.2345(1) 0.7274(1) 0.9740(1)
Si2 Si 0.1666(2) 0.6094(1) 0.6382(1)
N1 N 0.3046(3) 0.8455(3) 0.8627(3)
N2 N 0.6238(4) 0.8298(5) 0.6922(4)
N3 N 0.6690(4) 0.8558(5) 0.8720(4)
C1 C 0.2435(4) 0.9270(4) 0.7844(3)
C2 C 0.1952(4) 0.9016(4) 0.7147(3)
C3 C 0.2042(4) 0.7876(4) 0.7095(3)
C4 C 0.1544(5) 0.7570(4) 0.6448(4)
C5 C 0.2316(5) 1.0575(4) 0.7755(4)
C6 C 0.1352(7) 1.0573(5) 0.8760(5)
C7 C 0.3680(6) 1.0976(5) 0.7759(7)
C8 C 0.1836(11) 1.1504(5) 0.6791(6)
C9 C -0.0043(6) 0.5403(6) 0.6821(5)
C10 C 0.2712(8) 0.5021(5) 0.7297(6)
C11 C 0.2403(6) 0.6302(5) 0.4967(4)
C12 C 0.3819(8) 0.6825(7) 0.4600(7)
C13 C 0.2483(7) 0.5093(6) 0.4871(5)
C14 C 0.1486(9) 0.7166(6) 0.4231(5)
C15 C 0.0547(5) 0.7024(5) 0.9835(5)
C16 C 0.2414(7) 0.7458(6) 1.0975(4)
C17 C 0.3280(7) 0.5852(5) 0.9866(5)
C18 C 0.6645(7) 0.7628(7) 0.9815(6)
C19 C 0.6909(8) 0.9710(7) 0.8715(7)
C20 C 0.7753(7) 0.8289(11) 0.7969(7)
C21 C 0.7570(6) 0.8397(9) 0.7058(7)
C22 C 0.6038(8) 0.7142(8) 0.6933(7)
C23 C 0.5991(8) 0.9238(8) 0.5937(5)
H1 H 0.1527(4) 0.9641(4) 0.6665(3)
H2 H 0.2499(4) 0.7270(4) 0.7565(3)
H3 H 0.1085(5) 0.8175(4) 0.5980(4)
H4 H 0.1646(7) 0.9985(5) 0.9381(5)
H5 H 0.0461(7) 1.0373(5) 0.8778(5)
H6 H 0.1340(7) 1.1359(5) 0.8755(5)
H7 H 0.3995(6) 1.0390(5) 0.8370(7)
H8 H 0.3581(6) 1.1746(5) 0.7794(7)
H9 H 0.4320(6) 1.1043(5) 0.7116(7)
H10 H 0.2437(11) 1.1515(5) 0.6150(6)
H11 H 0.1823(11) 1.2287(5) 0.6793(6)
H12 H 0.0943(11) 1.1301(5) 0.6817(6)
H13 H 0.0034(6) 0.4635(6) 0.6783(5)
H14 H -0.0612(6) 0.5928(6) 0.6362(5)
H15 H -0.0430(6) 0.5291(6) 0.7545(5)
H16 H 0.2763(8) 0.4259(5) 0.7250(6)
H17 H 0.2310(8) 0.4907(5) 0.8019(6)
H18 H 0.3604(8) 0.5344(5) 0.7093(6)
H19 H 0.3782(8) 0.7581(7) 0.4656(7)
H20 H 0.4180(8) 0.6953(7) 0.3869(7)
H21 H 0.4387(8) 0.6270(7) 0.5044(7)
H22 H 0.1596(7) 0.4754(6) 0.5100(5)
H23 H 0.3056(7) 0.4543(6) 0.5314(5)
H24 H 0.2849(7) 0.5226(6) 0.4139(5)
H25 H 0.0597(9) 0.6829(6) 0.4469(5)
H26 H 0.1854(9) 0.7267(6) 0.3508(5)
H27 H 0.1440(9) 0.7937(6) 0.4261(5)
H28 H 0.0040(5) 0.7749(5) 0.9772(5)
H29 H 0.0190(5) 0.6377(5) 1.0514(5)
H30 H 0.0483(5) 0.6817(5) 0.9269(5)
H31 H 0.1945(7) 0.8184(6) 1.0965(4)
H32 H 0.3338(7) 0.7509(6) 1.0991(4)
H33 H 0.1995(7) 0.6775(6) 1.1600(4)
H34 H 0.4214(7) 0.5959(5) 0.9819(5)
H35 H 0.3202(7) 0.5651(5) 0.9299(5)
H36 H 0.2909(7) 0.5211(5) 1.0544(5)
H37 H 0.5935(7) 0.7815(7) 1.0307(6)
H38 H 0.7493(7) 0.7608(7) 1.0000(6)
H39 H 0.6478(7) 0.6853(7) 0.9853(6)
H40 H 0.6187(8) 0.9863(7) 0.9221(7)
H41 H 0.6933(8) 1.0342(7) 0.8012(7)
H42 H 0.7751(8) 0.9688(7) 0.8908(7)
H43 H 0.8513(7) 0.8798(11) 0.7808(7)
H44 H 0.8033(7) 0.7461(11) 0.8342(7)
H45 H 0.8133(6) 0.7792(9) 0.6881(7)
H46 H 0.7924(6) 0.9180(9) 0.6522(7)
H47 H 0.6199(8) 0.6503(8) 0.7586(7)
H48 H 0.6653(8) 0.7064(8) 0.6334(7)
H49 H 0.5127(8) 0.7091(8) 0.6884(7)
H50 H 0.5101(9) 0.9147(8) 0.5872(5)
H51 H 0.6644(9) 0.9183(8) 0.5345(5)
H52 H 0.6062(9) 1.0012(8) 0.5938(5)
loop_
_geom_bond_atom_site_label_1
_geom_bond_atom_site_label_2
_geom_bond_site_symmetry_1
_geom_bond_site_symmetry_2
Li1 N1 1_555 1_555
Si1 N1 1_555 1_555
Si2 C4 1_555 1_555
N1 C1 1_555 1_555
N2 Li1 1_555 1_555
N3 Li1 1_555 1_555
C1 C2 1_555 1_555
C2 C3 1_555 1_555
C3 C4 1_555 1_555
C4 H3 1_555 1_555
C5 C1 1_555 1_555
C6 C5 1_555 1_555
C7 C5 1_555 1_555
C8 C5 1_555 1_555
C9 Si2 1_555 1_555
C10 Si2 1_555 1_555
C11 Si2 1_555 1_555
C12 C11 1_555 1_555
C13 C11 1_555 1_555
C14 C11 1_555 1_555
C15 Si1 1_555 1_555
C16 Si1 1_555 1_555
C17 Si1 1_555 1_555
C18 N3 1_555 1_555
C19 N3 1_555 1_555
C20 N3 1_555 1_555
C21 N2 1_555 1_555
C22 N2 1_555 1_555
C23 N2 1_555 1_555
H1 C2 1_555 1_555
H2 C3 1_555 1_555
H4 C6 1_555 1_555
H5 C6 1_555 1_555
H6 C6 1_555 1_555
H7 C7 1_555 1_555
H8 C7 1_555 1_555
H9 C7 1_555 1_555
H10 C8 1_555 1_555
H11 C8 1_555 1_555
H12 C8 1_555 1_555
H13 C9 1_555 1_555
H14 C9 1_555 1_555
H15 C9 1_555 1_555
H16 C10 1_555 1_555
H17 C10 1_555 1_555
H18 C10 1_555 1_555
H19 C12 1_555 1_555
H20 C12 1_555 1_555
H21 C12 1_555 1_555
H22 C13 1_555 1_555
H23 C13 1_555 1_555
H24 C13 1_555 1_555
H25 C14 1_555 1_555
H26 C14 1_555 1_555
H27 C14 1_555 1_555
H28 C15 1_555 1_555
H29 C15 1_555 1_555
H30 C15 1_555 1_555
H31 C16 1_555 1_555
H32 C16 1_555 1_555
H33 C16 1_555 1_555
H34 C17 1_555 1_555
H35 C17 1_555 1_555
H36 C17 1_555 1_555
H37 C18 1_555 1_555
H38 C18 1_555 1_555
H39 C18 1_555 1_555
H40 C19 1_555 1_555
H41 C19 1_555 1_555
H42 C19 1_555 1_555
H43 C20 1_555 1_555
H44 C20 1_555 1_555
H45 C21 1_555 1_555
H46 C21 1_555 1_555
H47 C22 1_555 1_555
H48 C22 1_555 1_555
H49 C22 1_555 1_555
H50 C23 1_555 1_555
H51 C23 1_555 1_555
H52 C23 1_555 1_555
C20 C21 1_555 1_555

#END
