
#######################################################################
#
#                 Cambridge Crystallographic Data Centre
#                                CCDC 
#
#######################################################################
#
# If this CIF has been generated from an entry in the Cambridge 
# Structural Database, then it will include bibliographic, chemical, 
# crystal, experimental, refinement or atomic coordinate data resulting 
# from the CCDC's data processing and validation procedures.
#
#######################################################################

data_TOCYUH
_chemical_formula_moiety         'C24 H26 N2 O3'
_chemical_name_systematic        
3-(4-(5-(4-t-Butylphenyl)-1,3,4-oxadiazol-2-yl)benzyl)-4-hydroxypent-3-en-2-one
_symmetry_cell_setting           monoclinic
_symmetry_space_group_name_H-M   'P 21/c'
_symmetry_Int_Tables_number      14
_space_group_name_Hall           '-P 2ybc'
loop_
_symmetry_equiv_pos_site_id
_symmetry_equiv_pos_as_xyz
1 x,y,z
2 -x,1/2+y,1/2-z
3 -x,-y,-z
4 x,1/2-y,1/2+z
_cell_length_a                   9.2790(17)
_cell_length_b                   17.285(3)
_cell_length_c                   13.653(2)
_cell_angle_alpha                90
_cell_angle_beta                 106.450(3)
_cell_angle_gamma                90
_cell_volume                     2100.14
_cell_formula_units_Z            4
loop_
_atom_site_label
_atom_site_type_symbol
_atom_site_fract_x
_atom_site_fract_y
_atom_site_fract_z
O1 O 0.8799(4) 0.04274(19) 0.6097(2)
O2 O 0.4016(4) -0.2187(2) 0.9751(3)
O3 O 0.4422(5) -0.3434(2) 0.9010(3)
H1 H 0.4302 -0.3119 0.9450
N1 N 1.0352(5) -0.0521(3) 0.6760(3)
N2 N 1.1177(5) 0.0076(3) 0.6461(3)
C1 C 0.8986(7) -0.0294(3) 0.6537(4)
C2 C 1.0223(6) 0.0622(3) 0.6084(4)
C3 C 1.0479(6) 0.1372(3) 0.5693(4)
C4 C 1.1810(6) 0.1543(3) 0.5495(4)
H2 H 1.2597 0.1172 0.5636
C5 C 1.2013(6) 0.2256(3) 0.5088(4)
H3 H 1.2946 0.2365 0.4959
C6 C 1.0894(6) 0.2815(3) 0.4865(4)
C7 C 0.9573(7) 0.2640(4) 0.5074(5)
H4 H 0.8790 0.3014 0.4936
C8 C 0.9352(7) 0.1935(4) 0.5482(4)
H5 H 0.8424 0.1831 0.5620
C9 C 1.1126(6) 0.3602(3) 0.4391(4)
C10 C 1.2105(13) 0.4118(8) 0.5240(8)
H6 H 1.2236 0.4625 0.4957
H7 H 1.3090 0.3874 0.5522
H8 H 1.1614 0.4182 0.5783
C11 C 1.1959(14) 0.3497(9) 0.3576(9)
H9 H 1.2181 0.4005 0.3335
H10 H 1.1328 0.3201 0.3001
H11 H 1.2900 0.3217 0.3871
C12 C 0.9658(11) 0.4034(8) 0.3893(9)
H12 H 0.9288 0.4277 0.4424
H13 H 0.8906 0.3669 0.3502
H14 H 0.9842 0.4434 0.3433
C13 C 0.7653(6) -0.0680(3) 0.6667(4)
C14 C 0.6229(6) -0.0362(3) 0.6294(4)
H15 H 0.6110 0.0123 0.5953
C15 C 0.4978(6) -0.0747(3) 0.6416(4)
H16 H 0.4010 -0.0522 0.6153
C16 C 0.5119(6) -0.1454(3) 0.6917(4)
C17 C 0.6546(7) -0.1755(3) 0.7294(4)
H17 H 0.6672 -0.2233 0.7653
C18 C 0.7793(7) -0.1384(3) 0.7165(4)
H18 H 0.8757 -0.1614 0.7420
C19 C 0.3746(6) -0.1870(3) 0.7015(4)
H19 H 0.3437 -0.2252 0.6454
H20 H 0.2920 -0.1489 0.6923
C20 C 0.3934(6) -0.2294(3) 0.8036(4)
C21 C 0.3832(6) -0.1866(4) 0.8892(5)
C22 C 0.3491(7) -0.1014(3) 0.8823(5)
H21 H 0.3630 -0.0805 0.9511
H22 H 0.2449 -0.0933 0.8414
H23 H 0.4171 -0.0750 0.8500
C23 C 0.4261(6) -0.3067(4) 0.8130(4)
C24 C 0.4495(7) -0.3613(3) 0.7318(5)
H24 H 0.5519 -0.3820 0.7536
H25 H 0.4344 -0.3331 0.6674
H26 H 0.3773 -0.4040 0.7221
C25? C 1.1410(15) 0.4226(7) 0.5212(8)
H27? H 1.1743 0.4701 0.4952
H28? H 1.2189 0.4050 0.5818
H29? H 1.0479 0.4328 0.5395
C26? C 1.2476(11) 0.3617(10) 0.3930(10)
H30? H 1.2488 0.4111 0.3581
H31? H 1.2378 0.3192 0.3441
H32? H 1.3415 0.3558 0.4479
C27? C 0.9726(10) 0.3795(9) 0.3529(8)
H33? H 0.8859 0.3832 0.3802
H34? H 0.9548 0.3387 0.3010
H35? H 0.9871 0.4290 0.3221
loop_
_geom_bond_atom_site_label_1
_geom_bond_atom_site_label_2
_geom_bond_site_symmetry_1
_geom_bond_site_symmetry_2
O1 C1 1_555 1_555
O2 C21 1_555 1_555
O3 H1 1_555 1_555
N1 N2 1_555 1_555
N2 C2 1_555 1_555
C1 N1 1_555 1_555
C2 O1 1_555 1_555
C3 C2 1_555 1_555
C4 C3 1_555 1_555
H2 C4 1_555 1_555
C5 C4 1_555 1_555
H3 C5 1_555 1_555
C6 C5 1_555 1_555
C7 C6 1_555 1_555
H4 C7 1_555 1_555
C8 C3 1_555 1_555
H5 C8 1_555 1_555
C9 C6 1_555 1_555
C10 C9 1_555 1_555
H6 C10 1_555 1_555
H7 C10 1_555 1_555
H8 C10 1_555 1_555
C11 C9 1_555 1_555
H9 C11 1_555 1_555
H10 C11 1_555 1_555
H11 C11 1_555 1_555
C12 C9 1_555 1_555
H12 C12 1_555 1_555
H13 C12 1_555 1_555
H14 C12 1_555 1_555
C13 C1 1_555 1_555
C14 C13 1_555 1_555
H15 C14 1_555 1_555
C15 C14 1_555 1_555
H16 C15 1_555 1_555
C16 C15 1_555 1_555
C17 C16 1_555 1_555
H17 C17 1_555 1_555
C18 C13 1_555 1_555
H18 C18 1_555 1_555
C19 C16 1_555 1_555
H19 C19 1_555 1_555
H20 C19 1_555 1_555
C20 C19 1_555 1_555
C21 C20 1_555 1_555
C22 C21 1_555 1_555
H21 C22 1_555 1_555
H22 C22 1_555 1_555
H23 C22 1_555 1_555
C23 O3 1_555 1_555
C24 C23 1_555 1_555
H24 C24 1_555 1_555
H25 C24 1_555 1_555
H26 C24 1_555 1_555
C7 C8 1_555 1_555
C17 C18 1_555 1_555
C20 C23 1_555 1_555

#END
