
#######################################################################
#
#                 Cambridge Crystallographic Data Centre
#                                CCDC 
#
#######################################################################
#
# If this CIF has been generated from an entry in the Cambridge 
# Structural Database, then it will include bibliographic, chemical, 
# crystal, experimental, refinement or atomic coordinate data resulting 
# from the CCDC's data processing and validation procedures.
#
#######################################################################

data_TODGUO
_chemical_formula_moiety         'C14 H14 O3'
_chemical_name_systematic        
1,2,2a,8,9,9a-Hexahydro-2a,9a-dimethylcyclobuta(b)(1)benzoxepin-8,9-dione
_symmetry_cell_setting           monoclinic
_symmetry_space_group_name_H-M   'P 21/c'
_symmetry_Int_Tables_number      14
_space_group_name_Hall           '-P 2ybc'
loop_
_symmetry_equiv_pos_site_id
_symmetry_equiv_pos_as_xyz
1 x,y,z
2 -x,1/2+y,1/2-z
3 -x,-y,-z
4 x,1/2-y,1/2+z
_cell_length_a                   10.596(2)
_cell_length_b                   9.171(3)
_cell_length_c                   13.090(4)
_cell_angle_alpha                90
_cell_angle_beta                 112.21(2)
_cell_angle_gamma                90
_cell_volume                     1177.65
_exptl_crystal_colour            colorless
_chemical_melting_point          85deg.C
_cell_formula_units_Z            4
loop_
_atom_site_label
_atom_site_type_symbol
_atom_site_fract_x
_atom_site_fract_y
_atom_site_fract_z
O1 O 0.8502(1) 0.4866(1) 0.3425(1)
O2 O 0.7658(2) 0.4488(2) 0.0131(1)
O3 O 0.5854(2) 0.3705(2) 0.1166(1)
C1 C 0.9464(2) 0.5319(2) 0.3013(2)
C2 C 1.0740(2) 0.5721(2) 0.3744(2)
C3 C 1.1728(2) 0.6132(3) 0.3349(2)
C4 C 1.1449(2) 0.6140(3) 0.2231(2)
C5 C 1.0190(3) 0.5720(2) 0.1506(2)
C6 C 0.9167(2) 0.5294(2) 0.1879(2)
C7 C 0.7832(2) 0.4813(2) 0.1077(2)
C8 C 0.6602(2) 0.4753(2) 0.1420(2)
C9 C 0.6386(2) 0.6057(2) 0.2041(2)
C10 C 0.5226(3) 0.5805(3) 0.2461(2)
C11 C 0.6265(2) 0.5172(3) 0.3541(2)
C12 C 0.7405(2) 0.5891(2) 0.3273(2)
C13 C 0.6383(3) 0.7447(3) 0.1410(2)
C14 C 0.7930(3) 0.7291(3) 0.3877(2)
H1 H 1.085(2) 0.570(3) 0.448(2)
H2 H 1.262(3) 0.644(3) 0.385(2)
H3 H 1.218(3) 0.650(3) 0.195(2)
H4 H 0.993(2) 0.574(2) 0.070(2)
H5 H 0.447(3) 0.522(3) 0.201(2)
H6 H 0.483(2) 0.674(3) 0.255(2)
H7 H 0.635(2) 0.408(3) 0.356(2)
H8 H 0.616(2) 0.546(2) 0.421(2)
H9 H 0.626(4) 0.827(3) 0.181(2)
H10 H 0.557(3) 0.745(3) 0.071(2)
H11 H 0.724(3) 0.752(3) 0.127(2)
H12 H 0.852(4) 0.782(3) 0.359(2)
H13 H 0.850(3) 0.702(3) 0.465(2)
H14 H 0.716(3) 0.795(3) 0.386(2)
loop_
_geom_bond_atom_site_label_1
_geom_bond_atom_site_label_2
_geom_bond_site_symmetry_1
_geom_bond_site_symmetry_2
O1 C1 1_555 1_555
O2 C7 1_555 1_555
O3 C8 1_555 1_555
C1 C2 1_555 1_555
C2 C3 1_555 1_555
C3 C4 1_555 1_555
C4 C5 1_555 1_555
C5 C6 1_555 1_555
C6 C1 1_555 1_555
C7 C6 1_555 1_555
C8 C7 1_555 1_555
C9 C8 1_555 1_555
C10 C9 1_555 1_555
C11 C10 1_555 1_555
C12 O1 1_555 1_555
C13 C9 1_555 1_555
C14 C12 1_555 1_555
H1 C2 1_555 1_555
H2 C3 1_555 1_555
H3 C4 1_555 1_555
H4 C5 1_555 1_555
H5 C10 1_555 1_555
H6 C10 1_555 1_555
H7 C11 1_555 1_555
H8 C11 1_555 1_555
H9 C13 1_555 1_555
H10 C13 1_555 1_555
H11 C13 1_555 1_555
H12 C14 1_555 1_555
H13 C14 1_555 1_555
H14 C14 1_555 1_555
C9 C12 1_555 1_555
C11 C12 1_555 1_555

#END
