
#######################################################################
#
#                 Cambridge Crystallographic Data Centre
#                                CCDC 
#
#######################################################################
#
# If this CIF has been generated from an entry in the Cambridge 
# Structural Database, then it will include bibliographic, chemical, 
# crystal, experimental, refinement or atomic coordinate data resulting 
# from the CCDC's data processing and validation procedures.
#
#######################################################################

data_TODJAZ
_chemical_formula_moiety         'C17 H22 Br1 N1 O3'
_chemical_name_systematic        
't-Butyl 3-(4-bromobenzyl)-2-oxopiperidine-1-carboxylate'
_symmetry_cell_setting           orthorhombic
_symmetry_space_group_name_H-M   'P 21 21 21'
_symmetry_Int_Tables_number      19
_space_group_name_Hall           'P 2ac 2ab'
loop_
_symmetry_equiv_pos_site_id
_symmetry_equiv_pos_as_xyz
1 x,y,z
2 1/2-x,-y,1/2+z
3 -x,1/2+y,1/2-z
4 1/2+x,1/2-y,-z
_cell_length_a                   8.9400(18)
_cell_length_b                   10.810(2)
_cell_length_c                   18.140(4)
_cell_angle_alpha                90
_cell_angle_beta                 90
_cell_angle_gamma                90
_cell_volume                     1753.07
_exptl_crystal_colour            colorless
_exptl_crystal_description       prismatic
_cell_formula_units_Z            4
loop_
_atom_site_label
_atom_site_type_symbol
_atom_site_fract_x
_atom_site_fract_y
_atom_site_fract_z
Br1 Br 1.29017(7) 1.22060(5) 0.99268(3)
N1 N 0.9034(4) 0.4808(3) 0.83186(18)
O1 O 0.7210(4) 0.6250(3) 0.8184(2)
O2 O 0.8975(3) 0.2905(3) 0.77951(17)
O3 O 0.6840(3) 0.3906(3) 0.80457(15)
C1 C 0.8432(4) 0.5969(4) 0.8404(2)
C2 C 0.9427(4) 0.6896(4) 0.8789(2)
H1 H 1.0188 0.7154 0.8432
C3 C 1.0237(7) 0.6283(5) 0.9420(3)
H2 H 1.0955 0.6863 0.9624
H3 H 0.9521 0.6086 0.9804
C4 C 1.1025(8) 0.5147(5) 0.9204(5)
H4 H 1.2091 0.5311 0.9207
H5 H 1.0830 0.4518 0.9573
C5 C 1.0620(6) 0.4655(6) 0.8485(4)
H6 H 1.0868 0.3782 0.8468
H7 H 1.1205 0.5071 0.8109
C6 C 0.8299(4) 0.3779(4) 0.8022(2)
C7 C 0.5840(5) 0.2979(4) 0.7715(2)
C8 C 0.4305(5) 0.3512(5) 0.7884(3)
H8 H 0.4202 0.3626 0.8406
H9 H 0.3547 0.2953 0.7712
H10 H 0.4196 0.4295 0.7640
C9 C 0.6092(6) 0.2931(7) 0.6898(3)
H11 H 0.5996 0.3747 0.6695
H12 H 0.5364 0.2395 0.6676
H13 H 0.7078 0.2619 0.6799
C10 C 0.5996(7) 0.1754(5) 0.8108(4)
H14 H 0.6914 0.1363 0.7961
H15 H 0.5168 0.1230 0.7982
H16 H 0.6006 0.1889 0.8631
C11 C 0.8577(5) 0.8058(5) 0.9017(3)
H17 H 0.7968 0.8333 0.8606
H18 H 0.7909 0.7853 0.9421
C12 C 0.9566(5) 0.9085(4) 0.9249(3)
C13 C 0.9972(5) 0.9284(4) 0.9976(2)
H19 H 0.9579 0.8768 1.0338
C14 C 1.0923(5) 1.0201(4) 1.0182(2)
H20 H 1.1157 1.0321 1.0677
C15 C 1.1533(5) 1.0945(4) 0.9649(2)
C16 C 1.1156(7) 1.0802(5) 0.8926(3)
H21 H 1.1558 1.1320 0.8567
C17 C 1.0182(7) 0.9887(5) 0.8736(3)
H22 H 0.9919 0.9797 0.8243
loop_
_geom_bond_atom_site_label_1
_geom_bond_atom_site_label_2
_geom_bond_site_symmetry_1
_geom_bond_site_symmetry_2
Br1 C15 1_555 1_555
N1 C1 1_555 1_555
O1 C1 1_555 1_555
O2 C6 1_555 1_555
O3 C6 1_555 1_555
C1 C2 1_555 1_555
C2 H1 1_555 1_555
C3 C2 1_555 1_555
H2 C3 1_555 1_555
H3 C3 1_555 1_555
C4 C3 1_555 1_555
H4 C4 1_555 1_555
H5 C4 1_555 1_555
C5 N1 1_555 1_555
H6 C5 1_555 1_555
H7 C5 1_555 1_555
C6 N1 1_555 1_555
C7 O3 1_555 1_555
C8 C7 1_555 1_555
H8 C8 1_555 1_555
H9 C8 1_555 1_555
H10 C8 1_555 1_555
C9 C7 1_555 1_555
H11 C9 1_555 1_555
H12 C9 1_555 1_555
H13 C9 1_555 1_555
C10 C7 1_555 1_555
H14 C10 1_555 1_555
H15 C10 1_555 1_555
H16 C10 1_555 1_555
C11 C2 1_555 1_555
H17 C11 1_555 1_555
H18 C11 1_555 1_555
C12 C11 1_555 1_555
C13 C12 1_555 1_555
H19 C13 1_555 1_555
C14 C13 1_555 1_555
H20 C14 1_555 1_555
C15 C14 1_555 1_555
C16 C15 1_555 1_555
H21 C16 1_555 1_555
C17 C12 1_555 1_555
H22 C17 1_555 1_555
C4 C5 1_555 1_555
C16 C17 1_555 1_555

#END
