
#######################################################################
#
#                 Cambridge Crystallographic Data Centre
#                                CCDC 
#
#######################################################################
#
# If this CIF has been generated from an entry in the Cambridge 
# Structural Database, then it will include bibliographic, chemical, 
# crystal, experimental, refinement or atomic coordinate data resulting 
# from the CCDC's data processing and validation procedures.
#
#######################################################################

data_TODJED
_chemical_formula_moiety         'C18 H24 Br1 N1 O3'
_chemical_name_systematic        
't-Butyl 3-(4-bromobenzyl)-2-oxoazepane-1-carboxylate'
_symmetry_cell_setting           monoclinic
_symmetry_space_group_name_H-M   'P 21'
_symmetry_Int_Tables_number      4
_space_group_name_Hall           'P 2yb'
loop_
_symmetry_equiv_pos_site_id
_symmetry_equiv_pos_as_xyz
1 x,y,z
2 -x,1/2+y,-z
_cell_length_a                   5.9367(5)
_cell_length_b                   9.6602(9)
_cell_length_c                   16.5042(15)
_cell_angle_alpha                90
_cell_angle_beta                 95.813(2)
_cell_angle_gamma                90
_cell_volume                     941.644
_exptl_crystal_colour            colorless
_exptl_crystal_description       prismatic
_cell_formula_units_Z            2
loop_
_atom_site_label
_atom_site_type_symbol
_atom_site_fract_x
_atom_site_fract_y
_atom_site_fract_z
Br1 Br -0.13856(5) 0.11241(4) 1.193447(17)
N1 N 0.2366(4) 0.3174(3) 0.68099(15)
O1 O 0.5680(3) 0.3328(3) 0.76272(15)
O2 O 0.2391(6) 0.3935(3) 0.54991(16)
O3 O 0.4037(4) 0.5183(2) 0.65329(13)
C1 C 0.3721(5) 0.2970(3) 0.75315(18)
C2 C 0.0279(6) 0.2365(4) 0.6589(2)
H1 H -0.0343 0.2629 0.6044
H2 H -0.0826 0.2605 0.6960
C3 C 0.0630(8) 0.0807(4) 0.6611(2)
H3 H 0.2071 0.0598 0.6410
H4 H -0.0548 0.0377 0.6245
C4 C 0.0599(8) 0.0171(4) 0.7454(3)
H5 H -0.0829 0.0395 0.7661
H6 H 0.0681 -0.0828 0.7407
C5 C 0.2509(8) 0.0656(4) 0.8061(2)
H7 H 0.3928 0.0357 0.7874
H8 H 0.2366 0.0202 0.8577
C6 C 0.2630(6) 0.2219(3) 0.8207(2)
H9 H 0.1077 0.2563 0.8205
C7 C 0.3900(5) 0.2590(4) 0.9019(2)
H10 H 0.5345 0.2113 0.9069
H11 H 0.4206 0.3576 0.9027
C8 C 0.2669(5) 0.2232(3) 0.97421(19)
C9 C 0.3464(4) 0.1271(4) 1.03198(18)
H12 H 0.4816 0.0815 1.0259
C10 C 0.2323(4) 0.0966(4) 1.09811(17)
H13 H 0.2915 0.0333 1.1371
C11 C 0.0306(5) 0.1607(3) 1.10572(18)
C12 C -0.0569(6) 0.2566(4) 1.0504(2)
H14 H -0.1944 0.2996 1.0563
C13 C 0.0631(6) 0.2882(4) 0.9856(2)
H15 H 0.0063 0.3549 0.9484
C14 C 0.2966(6) 0.4108(3) 0.62026(19)
C15 C 0.4872(5) 0.6293(4) 0.6017(2)
C16 C 0.6130(15) 0.5721(11) 0.5339(6)
H16 H 0.7291 0.5098 0.5563
H17 H 0.6807 0.6468 0.5067
H18 H 0.5092 0.5233 0.4957
C17 C 0.2666(19) 0.7069(13) 0.5675(7)
H19 H 0.1848 0.6513 0.5262
H20 H 0.3059 0.7937 0.5444
H21 H 0.1736 0.7232 0.6108
C18 C 0.632(2) 0.7180(18) 0.6603(10)
H22 H 0.5425 0.7526 0.7012
H23 H 0.6904 0.7942 0.6316
H24 H 0.7551 0.6640 0.6857
C19? C 0.699(2) 0.5768(13) 0.5702(7)
H25? H 0.7934 0.5333 0.6137
H26? H 0.7798 0.6528 0.5491
H27? H 0.6610 0.5107 0.5276
C20? C 0.318(2) 0.6882(19) 0.5405(9)
H28? H 0.2794 0.6212 0.4984
H29? H 0.3786 0.7695 0.5173
H30? H 0.1846 0.7124 0.5658
C21? C 0.559(3) 0.7418(18) 0.6655(13)
H31? H 0.4270 0.7798 0.6862
H32? H 0.6391 0.8140 0.6405
H33? H 0.6559 0.7017 0.7094
loop_
_geom_bond_atom_site_label_1
_geom_bond_atom_site_label_2
_geom_bond_site_symmetry_1
_geom_bond_site_symmetry_2
Br1 C11 1_555 1_555
N1 C1 1_555 1_555
O1 C1 1_555 1_555
O2 C14 1_555 1_555
O3 C14 1_555 1_555
C1 C6 1_555 1_555
C2 N1 1_555 1_555
H1 C2 1_555 1_555
H2 C2 1_555 1_555
C3 C2 1_555 1_555
H3 C3 1_555 1_555
H4 C3 1_555 1_555
C4 C3 1_555 1_555
H5 C4 1_555 1_555
H6 C4 1_555 1_555
C5 C4 1_555 1_555
H7 C5 1_555 1_555
H8 C5 1_555 1_555
C6 C5 1_555 1_555
H9 C6 1_555 1_555
C7 C6 1_555 1_555
H10 C7 1_555 1_555
H11 C7 1_555 1_555
C8 C7 1_555 1_555
C9 C8 1_555 1_555
H12 C9 1_555 1_555
C10 C9 1_555 1_555
H13 C10 1_555 1_555
C11 C10 1_555 1_555
C12 C11 1_555 1_555
H14 C12 1_555 1_555
C13 C8 1_555 1_555
H15 C13 1_555 1_555
C14 N1 1_555 1_555
C15 O3 1_555 1_555
C16 C15 1_555 1_555
H16 C16 1_555 1_555
H17 C16 1_555 1_555
H18 C16 1_555 1_555
C17 C15 1_555 1_555
H19 C17 1_555 1_555
H20 C17 1_555 1_555
H21 C17 1_555 1_555
C18 C15 1_555 1_555
H22 C18 1_555 1_555
H23 C18 1_555 1_555
H24 C18 1_555 1_555
C12 C13 1_555 1_555

#END
