
#######################################################################
#
#                 Cambridge Crystallographic Data Centre
#                                CCDC 
#
#######################################################################
#
# If this CIF has been generated from an entry in the Cambridge 
# Structural Database, then it will include bibliographic, chemical, 
# crystal, experimental, refinement or atomic coordinate data resulting 
# from the CCDC's data processing and validation procedures.
#
#######################################################################

data_TODSAG
_chemical_formula_moiety         'C9 H18 N4 O2'
_chemical_name_systematic        1,4,7,10-Tetra-azacyclotridecane-11,13-dione
_symmetry_cell_setting           triclinic
_symmetry_space_group_name_H-M   'P -1'
_symmetry_Int_Tables_number      2
_space_group_name_Hall           '-P 1'
loop_
_symmetry_equiv_pos_site_id
_symmetry_equiv_pos_as_xyz
1 x,y,z
2 -x,-y,-z
_cell_length_a                   8.658(2)
_cell_length_b                   8.663(2)
_cell_length_c                   8.888(2)
_cell_angle_alpha                69.11(3)
_cell_angle_beta                 83.51(3)
_cell_angle_gamma                62.49(3)
_cell_volume                     551.321
_exptl_crystal_colour            colorless
_cell_formula_units_Z            2
loop_
_atom_site_label
_atom_site_type_symbol
_atom_site_fract_x
_atom_site_fract_y
_atom_site_fract_z
O1 O 0.1559(2) 0.0134(2) 0.9052(2)
O2 O -0.2644(2) 0.5183(3) 0.5564(2)
N1 N -0.4233(3) 0.1202(3) 0.6740(3)
N2 N -0.0822(3) -0.165(3) 0.7033(2)
N3 N 0.1391(2) 0.0106(3) 0.6565(2)
N4 N -0.2547(3) 0.2940(3) 0.7880(2)
C1 C -0.3931(3) -0.0694(4) 0.7087(3)
C2 C -0.2163(3) -0.2073(3) 0.7929(3)
C3 C 0.0880(3) -0.2637(3) 0.7911(3)
C4 C 0.2129(3) -0.1895(3) 0.7026(3)
C5 C 0.1116(3) 0.0961(3) 0.7616(3)
C6 C 0.0137(3) 0.3052(3) 0.6924(3)
C7 C -0.1806(3) 0.3815(3) 0.6727(3)
C8 C -0.4401(3) 0.3473(3) 0.7862(3)
C9 C -0.4759(3) 0.1861(3) 0.8094(3)
H1 H -0.5000(38) 0.1974(39) 0.5970(32)
H2 H -0.1201(29) -0.0380(33) 0.6875(25)
H3 H 0.1070(33) 0.0718(35) 0.5565(32)
H4 H -0.1855(33) 0.2018(34) 0.8687(29)
H5 H -0.4015(3) -0.0870(4) 0.6086(3)
H6 H -0.4824(3) -0.0907(4) 0.7763(3)
H7 H -0.2146(3) -0.2062(3) 0.9014(3)
H8 H -0.1922(3) -0.3310(3) 0.8005(3)
H9 H 0.1355(3) -0.3936(3) 0.8039(3)
H10 H 0.0749(3) -0.2542(3) 0.8978(3)
H11 H 0.3183(3) -0.2474(3) 0.7712(3)
H12 H 0.2450(3) -0.2232(3) 0.6065(3)
H13 H 0.0391(3) 0.3558(3) 0.7623(3)
H14 H 0.0568(3) 0.3473(3) 0.5879(3)
H15 H -0.4957(3) 0.4438(3) 0.6840(3)
H16 H -0.4909(3) 0.3979(3) 0.8713(3)
H17 H -0.4132(3) 0.0858(3) 0.9075(3)
H18 H -0.5996(3) 0.2238(3) 0.8217(3)
loop_
_geom_bond_atom_site_label_1
_geom_bond_atom_site_label_2
_geom_bond_site_symmetry_1
_geom_bond_site_symmetry_2
O1 C5 1_555 1_555
O2 C7 1_555 1_555
N1 C1 1_555 1_555
N2 C2 1_555 1_555
N3 C4 1_555 1_555
N4 C7 1_555 1_555
C1 C2 1_555 1_555
C2 H7 1_555 1_555
C3 N2 1_555 1_555
C4 C3 1_555 1_555
C5 N3 1_555 1_555
C6 C5 1_555 1_555
C7 C6 1_555 1_555
C8 N4 1_555 1_555
C9 N1 1_555 1_555
H1 N1 1_555 1_555
H2 N2 1_555 1_555
H3 N3 1_555 1_555
H4 N4 1_555 1_555
H5 C1 1_555 1_555
H6 C1 1_555 1_555
H8 C2 1_555 1_555
H9 C3 1_555 1_555
H10 C3 1_555 1_555
H11 C4 1_555 1_555
H12 C4 1_555 1_555
H13 C6 1_555 1_555
H14 C6 1_555 1_555
H15 C8 1_555 1_555
H16 C8 1_555 1_555
H17 C9 1_555 1_555
H18 C9 1_555 1_555
C8 C9 1_555 1_555

#END
