
#######################################################################
#
#                 Cambridge Crystallographic Data Centre
#                                CCDC 
#
#######################################################################
#
# If this CIF has been generated from an entry in the Cambridge 
# Structural Database, then it will include bibliographic, chemical, 
# crystal, experimental, refinement or atomic coordinate data resulting 
# from the CCDC's data processing and validation procedures.
#
#######################################################################

data_TODTOX
_chemical_formula_moiety         'C14 H10 N2 O3 Se1'
_chemical_name_systematic        2-Benzyl-5-nitro-1,2-benzoselenazol-3(2H)-one
_symmetry_cell_setting           orthorhombic
_symmetry_space_group_name_H-M   'P c c n'
_symmetry_Int_Tables_number      56
_space_group_name_Hall           '-P 2ab 2ac'
loop_
_symmetry_equiv_pos_site_id
_symmetry_equiv_pos_as_xyz
1 x,y,z
2 1/2+x,-y,1/2-z
3 -x,1/2+y,1/2-z
4 1/2-x,1/2-y,z
5 -x,-y,-z
6 1/2-x,y,1/2+z
7 x,1/2-y,1/2+z
8 1/2+x,1/2+y,-z
_cell_length_a                   25.121(3)
_cell_length_b                   8.1738(11)
_cell_length_c                   12.8146(17)
_cell_angle_alpha                90
_cell_angle_beta                 90
_cell_angle_gamma                90
_cell_volume                     2631.27
_exptl_crystal_colour            'pale yellow'
_exptl_crystal_description       block
_cell_formula_units_Z            8
loop_
_atom_site_label
_atom_site_type_symbol
_atom_site_fract_x
_atom_site_fract_y
_atom_site_fract_z
Se1 Se 0.62132(2) 0.21443(9) 0.26057(5)
O1 O 0.6501(2) 0.2588(8) -0.0399(4)
N1 N 0.6136(2) 0.1866(7) 0.1174(5)
C1 C 0.6482(3) 0.2674(8) 0.0552(5)
C2 C 0.6785(2) 0.3531(8) 0.2266(5)
C3 C 0.7264(2) 0.4560(8) 0.0782(5)
H1 H 0.7309 0.4655 0.0064
C4 C 0.7526(3) 0.5279(9) 0.2543(5)
H2 H 0.7750 0.5855 0.2988
O2 O 0.8346(2) 0.6950(7) 0.1663(6)
C5 C 0.5171(2) 0.1471(9) 0.0963(5)
C6 C 0.6855(2) 0.3634(8) 0.1195(4)
N2 N 0.8044(2) 0.6327(7) 0.1058(6)
C7 C 0.7604(2) 0.5342(8) 0.1470(5)
C8 C 0.5719(2) 0.0782(10) 0.0770(6)
H3 H 0.5748 -0.0279 0.1105
H4 H 0.5770 0.0627 0.0027
C9 C 0.7116(3) 0.4361(8) 0.2943(5)
H5 H 0.7062 0.4301 0.3660
O3 O 0.8075(3) 0.6462(9) 0.0127(6)
C10 C 0.4964(3) 0.2634(10) 0.0292(7)
H6 H 0.5165 0.2986 -0.0274
C11 C 0.4367(4) 0.1640(15) 0.1962(10)
H7 H 0.4163 0.1285 0.2523
C12 C 0.4470(4) 0.3269(13) 0.0450(11)
H8 H 0.4330 0.4026 -0.0017
C13 C 0.4871(3) 0.0990(10) 0.1796(6)
H9 H 0.5006 0.0217 0.2259
C14 C 0.4178(3) 0.2784(14) 0.1308(11)
H10 H 0.3847 0.3253 0.1435
loop_
_geom_bond_atom_site_label_1
_geom_bond_atom_site_label_2
_geom_bond_site_symmetry_1
_geom_bond_site_symmetry_2
Se1 N1 1_555 1_555
O1 C1 1_555 1_555
N1 C1 1_555 1_555
C1 C6 1_555 1_555
C2 Se1 1_555 1_555
C3 H1 1_555 1_555
C4 H2 1_555 1_555
O2 N2 1_555 1_555
C5 C8 1_555 1_555
C6 C2 1_555 1_555
N2 C7 1_555 1_555
C7 C3 1_555 1_555
C8 N1 1_555 1_555
H3 C8 1_555 1_555
H4 C8 1_555 1_555
C9 C2 1_555 1_555
H5 C9 1_555 1_555
O3 N2 1_555 1_555
C10 C5 1_555 1_555
H6 C10 1_555 1_555
C11 H7 1_555 1_555
C12 C10 1_555 1_555
H8 C12 1_555 1_555
C13 C5 1_555 1_555
H9 C13 1_555 1_555
C14 C11 1_555 1_555
H10 C14 1_555 1_555
C3 C6 1_555 1_555
C4 C7 1_555 1_555
C4 C9 1_555 1_555
C11 C13 1_555 1_555
C12 C14 1_555 1_555

#END
