
#######################################################################
#
#                 Cambridge Crystallographic Data Centre
#                                CCDC 
#
#######################################################################
#
# If this CIF has been generated from an entry in the Cambridge 
# Structural Database, then it will include bibliographic, chemical, 
# crystal, experimental, refinement or atomic coordinate data resulting 
# from the CCDC's data processing and validation procedures.
#
#######################################################################

data_TODTUD
_chemical_formula_moiety         'C10 H8 N2 O3 Se1'
_chemical_name_systematic        2-allyl-5-nitro-1,2-benzoselenazol-3(2H)-one
_symmetry_cell_setting           orthorhombic
_symmetry_space_group_name_H-M   'F d d 2'
_symmetry_Int_Tables_number      43
_space_group_name_Hall           'F 2 -2d'
loop_
_symmetry_equiv_pos_site_id
_symmetry_equiv_pos_as_xyz
1 x,y,z
2 -x,-y,z
3 1/4-x,1/4+y,1/4+z
4 1/4+x,1/4-y,1/4+z
5 x,1/2+y,1/2+z
6 -x,1/2-y,1/2+z
7 1/4-x,3/4+y,3/4+z
8 1/4+x,3/4-y,3/4+z
9 1/2+x,y,1/2+z
10 1/2-x,-y,1/2+z
11 3/4-x,1/4+y,3/4+z
12 3/4+x,1/4-y,3/4+z
13 1/2+x,1/2+y,z
14 1/2-x,1/2-y,z
15 3/4-x,3/4+y,1/4+z
16 3/4+x,3/4-y,1/4+z
_cell_length_a                   24.513(2)
_cell_length_b                   42.263(4)
_cell_length_c                   4.1537(3)
_cell_angle_alpha                90
_cell_angle_beta                 90
_cell_angle_gamma                90
_cell_volume                     4303.2
_exptl_crystal_colour            colorless
_exptl_crystal_description       plate
_cell_formula_units_Z            16
loop_
_atom_site_label
_atom_site_type_symbol
_atom_site_fract_x
_atom_site_fract_y
_atom_site_fract_z
Se1 Se 1.061050(12) 0.137443(8) -0.09645(13)
N1 N 0.91615(14) 0.03710(8) 0.5025(9)
N2 N 0.99202(11) 0.15266(6) -0.2170(6)
O1 O 0.93547(11) 0.01481(7) 0.6461(11)
O2 O 0.86715(10) 0.04222(6) 0.4849(9)
O3 O 0.90089(9) 0.14205(5) -0.1912(6)
C1 C 1.02321(12) 0.10361(7) 0.0934(8)
C2 C 1.04444(13) 0.07792(8) 0.2595(9)
H1 H 1.0823 0.0757 0.2849
C3 C 1.00956(13) 0.05581(8) 0.3861(11)
H2 H 1.0233 0.0381 0.4957
C4 C 0.95337(13) 0.05998(7) 0.3502(9)
C5 C 0.93144(12) 0.08496(7) 0.1845(9)
H3 H 0.8935 0.0870 0.1591
C6 C 0.96672(13) 0.10701(7) 0.0562(7)
C7 C 0.94899(11) 0.13499(7) -0.1234(12)
C8 C 0.98557(13) 0.18154(8) -0.4067(8)
H4 H 0.9550 0.1787 -0.5562
H5 H 1.0186 0.1849 -0.5350
C9 C 0.97544(17) 0.21028(9) -0.2070(10)
H6 H 1.0032 0.2169 -0.0661
C10 C 0.9314(2) 0.22649(13) -0.2154(13)
H7 H 0.9028 0.2205 -0.3538
H8 H 0.9275 0.2444 -0.0832
loop_
_geom_bond_atom_site_label_1
_geom_bond_atom_site_label_2
_geom_bond_site_symmetry_1
_geom_bond_site_symmetry_2
Se1 N2 1_555 1_555
N1 O1 1_555 1_555
N2 C7 1_555 1_555
O2 N1 1_555 1_555
O3 C7 1_555 1_555
C1 Se1 1_555 1_555
C2 C1 1_555 1_555
H1 C2 1_555 1_555
C3 C2 1_555 1_555
H2 C3 1_555 1_555
C4 N1 1_555 1_555
C5 C4 1_555 1_555
H3 C5 1_555 1_555
C6 C1 1_555 1_555
C7 C6 1_555 1_555
C8 N2 1_555 1_555
H4 C8 1_555 1_555
H5 C8 1_555 1_555
C9 C8 1_555 1_555
H6 C9 1_555 1_555
C10 C9 1_555 1_555
H7 C10 1_555 1_555
H8 C10 1_555 1_555
C3 C4 1_555 1_555
C5 C6 1_555 1_555

#END
