
#######################################################################
#
#                 Cambridge Crystallographic Data Centre
#                                CCDC 
#
#######################################################################
#
# If this CIF has been generated from an entry in the Cambridge 
# Structural Database, then it will include bibliographic, chemical, 
# crystal, experimental, refinement or atomic coordinate data resulting 
# from the CCDC's data processing and validation procedures.
#
#######################################################################

data_TODVEP
_chemical_formula_moiety         'C15 H12 N2 O3 Se1'
_chemical_name_systematic        
5-nitro-2-(1-phenylethyl)-1,2-benzoselenazol-3(2H)-one
_symmetry_cell_setting           orthorhombic
_symmetry_space_group_name_H-M   'P 21 21 21'
_symmetry_Int_Tables_number      19
_space_group_name_Hall           'P 2ac 2ab'
loop_
_symmetry_equiv_pos_site_id
_symmetry_equiv_pos_as_xyz
1 x,y,z
2 1/2+x,1/2-y,-z
3 -x,1/2+y,1/2-z
4 1/2-x,-y,1/2+z
_cell_length_a                   6.5803(6)
_cell_length_b                   6.6436(6)
_cell_length_c                   32.419(3)
_cell_angle_alpha                90
_cell_angle_beta                 90
_cell_angle_gamma                90
_cell_volume                     1417.26
_exptl_crystal_colour            'pale yellow'
_exptl_crystal_description       plate
_cell_formula_units_Z            4
loop_
_atom_site_label
_atom_site_type_symbol
_atom_site_fract_x
_atom_site_fract_y
_atom_site_fract_z
Se1 Se 0.44908(4) 0.08264(5) 0.846485(9)
O1 O -0.1381(3) 0.0521(5) 0.82331(7)
O2 O -0.0451(4) 0.0722(5) 0.66666(8)
O3 O 0.2564(4) 0.0873(5) 0.64159(7)
N1 N 0.1692(3) 0.0606(4) 0.85600(7)
N2 N 0.1403(5) 0.0841(6) 0.67067(8)
C1 C 0.0885(5) 0.0265(5) 0.89813(9)
H1 H -0.0158 -0.0783 0.8960
C2 C 0.2585(5) -0.0574(6) 0.92500(9)
C3 C 0.3625(6) 0.0601(7) 0.95280(11)
H2 H 0.3230 0.1930 0.9569
C4 C 0.5252(8) -0.0172(9) 0.97469(15)
H3 H 0.5952 0.0637 0.9933
C5 C 0.5828(7) -0.2128(11) 0.96884(14)
H4 H 0.6913 -0.2654 0.9837
C6 C 0.4816(8) -0.3315(7) 0.94121(14)
H5 H 0.5220 -0.4641 0.9370
C7 C 0.3198(6) -0.2536(6) 0.91963(11)
H6 H 0.2505 -0.3351 0.9010
C8 C -0.0151(6) 0.2144(6) 0.91436(12)
H7 H 0.0833 0.3202 0.9173
H8 H -0.0751 0.1863 0.9407
H9 H -0.1190 0.2558 0.8954
C9 C 0.0491(5) 0.0638(5) 0.82239(9)
C10 C 0.1704(4) 0.0810(5) 0.78469(8)
C11 C 0.3786(4) 0.0976(5) 0.79036(8)
C12 C 0.5105(4) 0.1155(5) 0.75719(10)
H10 H 0.6494 0.1310 0.7615
C13 C 0.4330(5) 0.1100(5) 0.71786(9)
H11 H 0.5190 0.1187 0.6952
C14 C 0.2239(4) 0.0913(5) 0.71242(9)
C15 C 0.0920(4) 0.0760(6) 0.74502(9)
H12 H -0.0470 0.0626 0.7406
loop_
_geom_bond_atom_site_label_1
_geom_bond_atom_site_label_2
_geom_bond_site_symmetry_1
_geom_bond_site_symmetry_2
Se1 N1 1_555 1_555
O1 C9 1_555 1_555
O2 N2 1_555 1_555
O3 N2 1_555 1_555
N1 C1 1_555 1_555
N2 C14 1_555 1_555
C1 H1 1_555 1_555
C2 C1 1_555 1_555
C3 C2 1_555 1_555
H2 C3 1_555 1_555
C4 C3 1_555 1_555
H3 C4 1_555 1_555
C5 C4 1_555 1_555
H4 C5 1_555 1_555
C6 C5 1_555 1_555
H5 C6 1_555 1_555
C7 C2 1_555 1_555
H6 C7 1_555 1_555
C8 C1 1_555 1_555
H7 C8 1_555 1_555
H8 C8 1_555 1_555
H9 C8 1_555 1_555
C9 N1 1_555 1_555
C10 C9 1_555 1_555
C11 Se1 1_555 1_555
C12 C11 1_555 1_555
H10 C12 1_555 1_555
C13 C12 1_555 1_555
H11 C13 1_555 1_555
C14 C13 1_555 1_555
C15 C10 1_555 1_555
H12 C15 1_555 1_555
C6 C7 1_555 1_555
C10 C11 1_555 1_555
C14 C15 1_555 1_555

#END
