
#######################################################################
#
#                 Cambridge Crystallographic Data Centre
#                                CCDC 
#
#######################################################################
#
# If this CIF has been generated from an entry in the Cambridge 
# Structural Database, then it will include bibliographic, chemical, 
# crystal, experimental, refinement or atomic coordinate data resulting 
# from the CCDC's data processing and validation procedures.
#
#######################################################################

data_TOFZUL
_chemical_formula_moiety         'C23 H18 O3'
_chemical_name_systematic        
(4S,5S)-5-Benzoyl-4,5-diphenyldihydrofuran-2(3H)-one
_symmetry_cell_setting           monoclinic
_symmetry_space_group_name_H-M   'P 21'
_symmetry_Int_Tables_number      4
_space_group_name_Hall           'P 2yb'
loop_
_symmetry_equiv_pos_site_id
_symmetry_equiv_pos_as_xyz
1 x,y,z
2 -x,1/2+y,-z
_cell_length_a                   6.7969(3)
_cell_length_b                   14.0639(6)
_cell_length_c                   9.4194(4)
_cell_angle_alpha                90
_cell_angle_beta                 96.811(5)
_cell_angle_gamma                90
_cell_volume                     894.055
_exptl_crystal_colour            colorless
_exptl_crystal_description       prism
_cell_formula_units_Z            2
loop_
_atom_site_label
_atom_site_type_symbol
_atom_site_fract_x
_atom_site_fract_y
_atom_site_fract_z
O1 O 0.1482(2) 0.41922(13) 0.46328(15)
O2 O 0.61186(18) 0.40698(9) 0.35780(12)
O3 O 0.8201(2) 0.29653(11) 0.29756(16)
C1 C 0.0619(3) 0.51083(19) 0.2004(2)
H1 H -0.0367 0.4730 0.2316
C2 C 0.0223(4) 0.5640(2) 0.0781(3)
H2 H -0.1025 0.5613 0.0258
C3 C 0.1669(4) 0.6216(2) 0.0323(3)
H3 H 0.1388 0.6579 -0.0502
C4 C 0.3527(4) 0.62545(17) 0.1084(2)
H4 H 0.4494 0.6647 0.0777
C5 C 0.3955(3) 0.57116(14) 0.2300(2)
H5 H 0.5218 0.5731 0.2802
C6 C 0.2507(3) 0.51346(14) 0.27812(19)
C7 C 0.2848(3) 0.45199(14) 0.40766(19)
C8 C 0.4978(3) 0.42954(13) 0.47571(17)
C9 C 0.5071(3) 0.33491(13) 0.56400(19)
H6 H 0.4048 0.2927 0.5169
C10 C 0.7074(3) 0.29479(16) 0.5345(2)
H7 H 0.8140 0.3197 0.6019
H8 H 0.7083 0.2259 0.5399
C11 C 0.7261(3) 0.32793(13) 0.3861(2)
C12 C 0.5860(3) 0.51521(13) 0.55873(18)
C13 C 0.4775(3) 0.56181(15) 0.6537(2)
H9 H 0.3491 0.5421 0.6633
C14 C 0.5598(4) 0.63760(16) 0.7343(2)
H10 H 0.4867 0.6683 0.7981
C15 C 0.7500(4) 0.66770(16) 0.7202(2)
H11 H 0.8047 0.7187 0.7740
C16 C 0.8575(3) 0.62221(18) 0.6266(3)
H12 H 0.9856 0.6424 0.6171
C17 C 0.7769(3) 0.54640(15) 0.5463(2)
H13 H 0.8515 0.5160 0.4832
C18 C 0.4723(3) 0.34182(13) 0.71987(19)
C19 C 0.2902(3) 0.31494(16) 0.7582(2)
H14 H 0.1927 0.2926 0.6886
C20 C 0.2511(4) 0.3210(2) 0.8999(3)
H15 H 0.1276 0.3035 0.9246
C21 C 0.3964(5) 0.35290(19) 1.0028(3)
H16 H 0.3714 0.3570 1.0976
C22 C 0.5780(5) 0.37870(17) 0.9661(2)
H17 H 0.6761 0.3999 1.0362
C23 C 0.6162(4) 0.37339(15) 0.8256(2)
H18 H 0.7400 0.3912 0.8017
loop_
_geom_bond_atom_site_label_1
_geom_bond_atom_site_label_2
_geom_bond_site_symmetry_1
_geom_bond_site_symmetry_2
O1 C7 1_555 1_555
O2 C8 1_555 1_555
O3 C11 1_555 1_555
C1 H1 1_555 1_555
C2 C1 1_555 1_555
H2 C2 1_555 1_555
C3 C2 1_555 1_555
H3 C3 1_555 1_555
C4 C3 1_555 1_555
H4 C4 1_555 1_555
C5 C4 1_555 1_555
H5 C5 1_555 1_555
C6 C1 1_555 1_555
C7 C6 1_555 1_555
C8 C7 1_555 1_555
C9 C8 1_555 1_555
H6 C9 1_555 1_555
C10 C9 1_555 1_555
H7 C10 1_555 1_555
H8 C10 1_555 1_555
C11 O2 1_555 1_555
C12 C8 1_555 1_555
C13 C12 1_555 1_555
H9 C13 1_555 1_555
C14 C13 1_555 1_555
H10 C14 1_555 1_555
C15 C14 1_555 1_555
H11 C15 1_555 1_555
C16 C15 1_555 1_555
H12 C16 1_555 1_555
C17 C12 1_555 1_555
H13 C17 1_555 1_555
C18 C9 1_555 1_555
C19 C18 1_555 1_555
H14 C19 1_555 1_555
C20 C19 1_555 1_555
H15 C20 1_555 1_555
C21 C20 1_555 1_555
H16 C21 1_555 1_555
C22 C21 1_555 1_555
H17 C22 1_555 1_555
C23 C18 1_555 1_555
H18 C23 1_555 1_555
C5 C6 1_555 1_555
C10 C11 1_555 1_555
C16 C17 1_555 1_555
C22 C23 1_555 1_555

#END
