
#######################################################################
#
#                 Cambridge Crystallographic Data Centre
#                                CCDC 
#
#######################################################################
#
# If this CIF has been generated from an entry in the Cambridge 
# Structural Database, then it will include bibliographic, chemical, 
# crystal, experimental, refinement or atomic coordinate data resulting 
# from the CCDC's data processing and validation procedures.
#
#######################################################################

data_TOGYIZ
_chemical_formula_moiety         'C15 H22 O3'
_chemical_name_systematic        
7-hydroxy-6,6,9a-trimethyl-4,5,5a,6,7,8,9,9a-octahydronaphtho[1,2-c]furan-3(1H)-one
_symmetry_cell_setting           orthorhombic
_symmetry_space_group_name_H-M   'P 21 21 21'
_symmetry_Int_Tables_number      19
_space_group_name_Hall           'P 2ac 2ab'
loop_
_symmetry_equiv_pos_site_id
_symmetry_equiv_pos_as_xyz
1 x,y,z
2 1/2-x,-y,1/2+z
3 -x,1/2+y,1/2-z
4 1/2+x,1/2-y,-z
_cell_length_a                   7.3041(2)
_cell_length_b                   11.6752(3)
_cell_length_c                   15.6101(4)
_cell_angle_alpha                90
_cell_angle_beta                 90
_cell_angle_gamma                90
_cell_volume                     1331.18
_exptl_crystal_colour            colorless
_exptl_crystal_description       prism
_cell_formula_units_Z            4
loop_
_atom_site_label
_atom_site_type_symbol
_atom_site_fract_x
_atom_site_fract_y
_atom_site_fract_z
O1 O 0.8086(4) 0.72411(16) 0.26720(13)
O2 O 1.1017(4) 0.74134(17) 0.22811(14)
O3 O 0.8528(3) 0.89190(18) 0.66055(12)
H1 H 0.7901 0.8634 0.7003
C1 C 0.9767(6) 0.7743(2) 0.27173(18)
C2 C 0.9714(4) 0.8652(2) 0.33607(15)
C3 C 0.8055(4) 0.86622(19) 0.37126(15)
C4 C 0.6903(5) 0.7777(2) 0.3289(2)
H2 H 0.6465 0.7222 0.3703
H3 H 0.5858 0.8126 0.3008
C5 C 0.7457(3) 0.9475(2) 0.44088(14)
C6 C 0.6207(4) 0.8866(2) 0.50591(16)
H4 H 0.5048 0.8685 0.4788
H5 H 0.6774 0.8153 0.5235
C7 C 0.5863(4) 0.9609(3) 0.58449(18)
H6 H 0.5223 1.0300 0.5673
H7 H 0.5086 0.9197 0.6243
C8 C 0.7636(4) 0.9933(2) 0.62882(15)
H8 H 0.7347 1.0431 0.6775
C9 C 0.8985(4) 1.0560(2) 0.57004(15)
C10 C 0.9257(3) 0.98385(19) 0.48733(14)
H9 H 0.9795 0.9117 0.5073
C11 C 1.0652(4) 1.0315(2) 0.42351(16)
H10 H 1.0111 1.0951 0.3925
H11 H 1.1709 1.0602 0.4545
C12 C 1.1269(4) 0.9402(2) 0.35994(16)
H12 H 1.1755 0.9768 0.3090
H13 H 1.2235 0.8944 0.3853
C13 C 0.6390(4) 1.0446(2) 0.39570(16)
H14 H 0.7234 1.0934 0.3659
H15 H 0.5733 1.0886 0.4376
H16 H 0.5541 1.0120 0.3556
C14 C 1.0830(4) 1.0676(3) 0.61699(17)
H17 H 1.0624 1.0962 0.6738
H18 H 1.1604 1.1199 0.5863
H19 H 1.1413 0.9940 0.6201
C15 C 0.8277(5) 1.1788(2) 0.5530(2)
H20 H 0.7014 1.1757 0.5363
H21 H 0.8984 1.2131 0.5080
H22 H 0.8394 1.2237 0.6043
loop_
_geom_bond_atom_site_label_1
_geom_bond_atom_site_label_2
_geom_bond_site_symmetry_1
_geom_bond_site_symmetry_2
O1 C1 1_555 1_555
O2 C1 1_555 1_555
O3 H1 1_555 1_555
C1 C2 1_555 1_555
C2 C3 1_555 1_555
C3 C4 1_555 1_555
C4 O1 1_555 1_555
H2 C4 1_555 1_555
H3 C4 1_555 1_555
C5 C3 1_555 1_555
C6 C5 1_555 1_555
H4 C6 1_555 1_555
H5 C6 1_555 1_555
C7 C6 1_555 1_555
H6 C7 1_555 1_555
H7 C7 1_555 1_555
C8 O3 1_555 1_555
H8 C8 1_555 1_555
C9 C8 1_555 1_555
C10 C5 1_555 1_555
H9 C10 1_555 1_555
C11 C10 1_555 1_555
H10 C11 1_555 1_555
H11 C11 1_555 1_555
C12 C2 1_555 1_555
H12 C12 1_555 1_555
H13 C12 1_555 1_555
C13 C5 1_555 1_555
H14 C13 1_555 1_555
H15 C13 1_555 1_555
H16 C13 1_555 1_555
C14 C9 1_555 1_555
H17 C14 1_555 1_555
H18 C14 1_555 1_555
H19 C14 1_555 1_555
C15 C9 1_555 1_555
H20 C15 1_555 1_555
H21 C15 1_555 1_555
H22 C15 1_555 1_555
C7 C8 1_555 1_555
C9 C10 1_555 1_555
C11 C12 1_555 1_555

#END
