
#######################################################################
#
#                 Cambridge Crystallographic Data Centre
#                                CCDC 
#
#######################################################################
#
# If this CIF has been generated from an entry in the Cambridge 
# Structural Database, then it will include bibliographic, chemical, 
# crystal, experimental, refinement or atomic coordinate data resulting 
# from the CCDC's data processing and validation procedures.
#
#######################################################################

data_TOHBIB
_chemical_formula_moiety         'C11 H10 N4 O2 S1,H2 O1'
_chemical_name_systematic        
'2-Amino-5-methyl-10bH-1,3,4-thiadiazolo(3,2-c)quinazolin-6-ium-10b-carboxylate monohydrate'
_symmetry_cell_setting           triclinic
_symmetry_space_group_name_H-M   'P -1'
_symmetry_Int_Tables_number      2
_space_group_name_Hall           '-P 1'
loop_
_symmetry_equiv_pos_site_id
_symmetry_equiv_pos_as_xyz
1 x,y,z
2 -x,-y,-z
_cell_length_a                   8.084(4)
_cell_length_b                   8.389(3)
_cell_length_c                   10.216(3)
_cell_angle_alpha                96.04(3)
_cell_angle_beta                 92.73(3)
_cell_angle_gamma                115.90(4)
_cell_volume                     616.366
_exptl_crystal_colour            'light brown'
_cell_formula_units_Z            2
loop_
_atom_site_label
_atom_site_type_symbol
_atom_site_fract_x
_atom_site_fract_y
_atom_site_fract_z
S1 S 0.22000(6) 0.47947(6) 0.00425(5)
O1 O 0.2317(2) 0.6858(2) 0.34147(15)
O2 O 0.0211(2) 0.4064(2) 0.26229(14)
N1 N 0.6367(2) 0.6070(2) 0.3400(2)
N2 N 0.4835(2) 0.6835(2) 0.18423(15)
N3 N 0.4735(2) 0.8038(2) 0.1030(2)
N4 N 0.2949(3) 0.7900(3) -0.0860(2)
C1 C 0.1743(2) 0.5416(2) 0.2686(2)
C2 C 0.3138(2) 0.5152(2) 0.1772(2)
C3 C 0.3584(3) 0.3717(2) 0.2196(2)
C4 C 0.2426(3) 0.1901(3) 0.1833(2)
C5 C 0.2757(3) 0.0643(3) 0.2416(3)
C6 C 0.4236(3) 0.1182(3) 0.3373(3)
C7 C 0.5446(3) 0.2976(3) 0.3717(2)
C8 C 0.5126(3) 0.4246(3) 0.3114(2)
C9 C 0.6288(2) 0.7283(3) 0.2701(2)
C10 C 0.7819(3) 0.9125(3) 0.2884(3)
C11 C 0.3409(2) 0.7138(3) 0.0074(2)
H1 H 0.196(4) 0.722(4) -0.137(3)
H2 H 0.362(4) 0.904(4) -0.092(2)
H3 H 0.740(3) 0.640(3) 0.393(2)
H4 H 0.141(3) 0.156(3) 0.118(3)
H5 H 0.193(4) -0.061(4) 0.211(3)
H6 H 0.451(4) 0.037(4) 0.380(3)
H7 H 0.652(3) 0.337(3) 0.434(3)
H8 H 0.732(4) 0.994(4) 0.316(3)
H9 H 0.829(4) 0.944(3) 0.202(3)
H10 H 0.876(4) 0.919(3) 0.351(3)
O3 O 0.9663(2) 0.7155(2) 0.4910(2)
H11 H 1.041(4) 0.700(3) 0.444(3)
H12 H 0.978(3) 0.683(3) 0.561(3)
loop_
_geom_bond_atom_site_label_1
_geom_bond_atom_site_label_2
_geom_bond_site_symmetry_1
_geom_bond_site_symmetry_2
S1 C2 1_555 1_555
O1 C1 1_555 1_555
O2 C1 1_555 1_555
O3 H11 1_555 1_555
N1 C8 1_555 1_555
N2 N3 1_555 1_555
N3 C11 1_555 1_555
N4 C11 1_555 1_555
C1 C2 1_555 1_555
C2 N2 1_555 1_555
C3 C2 1_555 1_555
C4 C3 1_555 1_555
C5 C4 1_555 1_555
C6 C5 1_555 1_555
C7 C6 1_555 1_555
C8 C3 1_555 1_555
C9 N1 1_555 1_555
C10 C9 1_555 1_555
C11 S1 1_555 1_555
H1 N4 1_555 1_555
H2 N4 1_555 1_555
H3 N1 1_555 1_555
H4 C4 1_555 1_555
H5 C5 1_555 1_555
H6 C6 1_555 1_555
H7 C7 1_555 1_555
H8 C10 1_555 1_555
H9 C10 1_555 1_555
H10 C10 1_555 1_555
H12 O3 1_555 1_555
N2 C9 1_555 1_555
C7 C8 1_555 1_555

#END
