
#######################################################################
#
#                 Cambridge Crystallographic Data Centre
#                                CCDC 
#
#######################################################################
#
# If this CIF has been generated from an entry in the Cambridge 
# Structural Database, then it will include bibliographic, chemical, 
# crystal, experimental, refinement or atomic coordinate data resulting 
# from the CCDC's data processing and validation procedures.
#
#######################################################################

data_TOHMIM
_chemical_formula_moiety         'C24 H44 B2 O4'
_chemical_name_systematic        
1,4-bis(4,4,5,5-Tetramethyldioxoborolane)-2,3-bis(n-butyl)-1,3-butadiene
_symmetry_cell_setting           monoclinic
_symmetry_space_group_name_H-M   'P 21/n'
_symmetry_Int_Tables_number      14
_space_group_name_Hall           '-P 2yn'
loop_
_symmetry_equiv_pos_site_id
_symmetry_equiv_pos_as_xyz
1 x,y,z
2 1/2-x,1/2+y,1/2-z
3 -x,-y,-z
4 1/2+x,1/2-y,1/2+z
_cell_length_a                   6.377(1)
_cell_length_b                   17.103(2)
_cell_length_c                   12.266(4)
_cell_angle_alpha                90
_cell_angle_beta                 94.26(2)
_cell_angle_gamma                90
_cell_volume                     1334.11
_exptl_crystal_colour            colorless
_cell_formula_units_Z            2
loop_
_atom_site_label
_atom_site_type_symbol
_atom_site_fract_x
_atom_site_fract_y
_atom_site_fract_z
O1 O 0.1451(4) 0.2060(1) 0.5943(2)
O2 O 0.1561(4) 0.1845(1) 0.4120(2)
C1 C 0.0346(5) 0.2724(2) 0.5426(3)
C2 C -0.0063(5) 0.2445(2) 0.4224(2)
C3 C 0.1856(7) 0.3406(2) 0.5552(3)
C4 C -0.1618(6) 0.2868(3) 0.6041(3)
C5 C 0.0278(6) 0.3043(2) 0.3343(3)
C6 C -0.2182(6) 0.2047(3) 0.3986(3)
C7 C 0.3598(5) 0.0883(2) 0.5458(2)
C8 C 0.4360(4) 0.0339(2) 0.4782(2)
C9 C 0.3849(4) 0.0391(2) 0.3546(2)
C10 C 0.1875(5) -0.0078(2) 0.3168(2)
C11 C 0.1294(5) 0.0008(2) 0.1942(3)
C12 C -0.0672(5) -0.0451(2) 0.1558(3)
B1 B 0.2196(6) 0.1601(2) 0.5155(3)
H1 H 0.120 0.386 0.523
H2 H 0.222 0.350 0.631
H3 H 0.311 0.329 0.518
H4 H -0.239 0.330 0.573
H5 H -0.248 0.241 0.598
H6 H -0.123 0.297 0.680
H7 H -0.075 0.345 0.337
H8 H 0.167 0.326 0.347
H9 H 0.016 0.281 0.263
H10 H -0.330 0.241 0.405
H11 H -0.225 0.183 0.326
H12 H -0.233 0.164 0.451
H13 H 0.397 0.082 0.622
H14 H 0.503 0.020 0.318
H15 H 0.362 0.092 0.335
H16 H 0.071 0.010 0.356
H17 H 0.213 -0.062 0.332
H18 H 0.247 -0.016 0.155
H19 H 0.103 0.055 0.179
H20 H -0.097 -0.038 0.079
H21 H -0.042 -0.099 0.171
H22 H -0.185 -0.028 0.195
C8B C 0.5640(4) -0.0339(2) 0.5218(2)
C7B C 0.6402(5) -0.0883(2) 0.4542(2)
B1B B 0.7804(6) -0.1601(2) 0.4845(3)
O1B O 0.8549(4) -0.2060(1) 0.4057(2)
C1B C 0.9654(5) -0.2724(2) 0.4574(3)
C2B C 1.0063(5) -0.2445(2) 0.5776(2)
O2B O 0.8439(4) -0.1845(1) 0.5880(2)
C5B C 0.9722(6) -0.3043(2) 0.6657(3)
H7B H 1.075 -0.345 0.663
H8B H 0.833 -0.326 0.653
H9B H 0.984 -0.281 0.737
C6B C 1.2182(6) -0.2047(3) 0.6014(3)
H10B H 1.330 -0.241 0.595
H11B H 1.225 -0.183 0.674
H12B H 1.233 -0.164 0.549
C3B C 0.8144(7) -0.3406(2) 0.4448(3)
H1B H 0.880 -0.386 0.477
H2B H 0.778 -0.350 0.369
H3B H 0.689 -0.329 0.482
C4B C 1.1618(6) -0.2868(3) 0.3959(3)
H4B H 1.239 -0.330 0.427
H5B H 1.248 -0.241 0.402
H6B H 1.123 -0.297 0.320
H13B H 0.603 -0.082 0.378
C9B C 0.6151(4) -0.0391(2) 0.6454(2)
C10B C 0.8125(5) 0.0078(2) 0.6832(2)
C11B C 0.8706(5) -0.0008(2) 0.8058(3)
C12B C 1.0672(5) 0.0451(2) 0.8442(3)
H20B H 1.097 0.038 0.921
H21B H 1.042 0.099 0.829
H22B H 1.185 0.028 0.805
H18B H 0.753 0.016 0.845
H19B H 0.897 -0.055 0.821
H16B H 0.929 -0.010 0.644
H17B H 0.787 0.062 0.668
H14B H 0.497 -0.020 0.682
H15B H 0.638 -0.092 0.665
loop_
_geom_bond_atom_site_label_1
_geom_bond_atom_site_label_2
_geom_bond_site_symmetry_1
_geom_bond_site_symmetry_2
O1 C1 1_555 1_555
O2 C2 1_555 1_555
C1 C2 1_555 1_555
C2 C5 1_555 1_555
C3 C1 1_555 1_555
C4 C1 1_555 1_555
C5 H7 1_555 1_555
C6 C2 1_555 1_555
C7 C8 1_555 1_555
C8 C9 1_555 1_555
C9 C10 1_555 1_555
C10 C11 1_555 1_555
C11 C12 1_555 1_555
C12 H20 1_555 1_555
B1 O1 1_555 1_555
H1 C3 1_555 1_555
H2 C3 1_555 1_555
H3 C3 1_555 1_555
H4 C4 1_555 1_555
H5 C4 1_555 1_555
H6 C4 1_555 1_555
H8 C5 1_555 1_555
H9 C5 1_555 1_555
H10 C6 1_555 1_555
H11 C6 1_555 1_555
H12 C6 1_555 1_555
H13 C7 1_555 1_555
H14 C9 1_555 1_555
H15 C9 1_555 1_555
H16 C10 1_555 1_555
H17 C10 1_555 1_555
H18 C11 1_555 1_555
H19 C11 1_555 1_555
H21 C12 1_555 1_555
H22 C12 1_555 1_555
C8B C8 1_555 1_555
C7B C8B 1_555 1_555
B1B C7B 1_555 1_555
O1B B1B 1_555 1_555
C1B O1B 1_555 1_555
C2B C1B 1_555 1_555
O2B B1B 1_555 1_555
C5B C2B 1_555 1_555
H7B C5B 1_555 1_555
H8B C5B 1_555 1_555
H9B C5B 1_555 1_555
C6B C2B 1_555 1_555
H10B C6B 1_555 1_555
H11B C6B 1_555 1_555
H12B C6B 1_555 1_555
C3B C1B 1_555 1_555
H1B C3B 1_555 1_555
H2B C3B 1_555 1_555
H3B C3B 1_555 1_555
C4B C1B 1_555 1_555
H4B C4B 1_555 1_555
H5B C4B 1_555 1_555
H6B C4B 1_555 1_555
H13B C7B 1_555 1_555
C9B C8B 1_555 1_555
C10B C9B 1_555 1_555
C11B C10B 1_555 1_555
C12B C11B 1_555 1_555
H20B C12B 1_555 1_555
H21B C12B 1_555 1_555
H22B C12B 1_555 1_555
H18B C11B 1_555 1_555
H19B C11B 1_555 1_555
H16B C10B 1_555 1_555
H17B C10B 1_555 1_555
H14B C9B 1_555 1_555
H15B C9B 1_555 1_555
O2 B1 1_555 1_555
C7 B1 1_555 1_555
C2B O2B 1_555 1_555

#END
