
#######################################################################
#
#                 Cambridge Crystallographic Data Centre
#                                CCDC 
#
#######################################################################
#
# If this CIF has been generated from an entry in the Cambridge 
# Structural Database, then it will include bibliographic, chemical, 
# crystal, experimental, refinement or atomic coordinate data resulting 
# from the CCDC's data processing and validation procedures.
#
#######################################################################

data_TOHMAG
_chemical_formula_moiety         'C15 H22 O3'
_chemical_name_systematic        
4-hydroxy-3,5,5,7-tetramethyl-5,6,6a,7,8,9-hexahydroindeno[3a,4-b]furan-2(4H)-one
_symmetry_cell_setting           orthorhombic
_symmetry_space_group_name_H-M   'P 21 21 21'
_symmetry_Int_Tables_number      19
_space_group_name_Hall           'P 2ac 2ab'
loop_
_symmetry_equiv_pos_site_id
_symmetry_equiv_pos_as_xyz
1 x,y,z
2 1/2-x,-y,1/2+z
3 -x,1/2+y,1/2-z
4 1/2+x,1/2-y,-z
_cell_length_a                   8.064(1)
_cell_length_b                   11.542(1)
_cell_length_c                   14.904(1)
_cell_angle_alpha                90
_cell_angle_beta                 90
_cell_angle_gamma                90
_cell_volume                     1387.19
_exptl_crystal_colour            colorless
_exptl_crystal_description       prism
_cell_formula_units_Z            4
loop_
_atom_site_label
_atom_site_type_symbol
_atom_site_fract_x
_atom_site_fract_y
_atom_site_fract_z
O1 O 0.7682(2) 1.01121(15) 0.64620(11)
O2 O 0.5737(3) 1.14445(19) 0.66969(16)
O3 O 0.7633(2) 0.70447(13) 0.82306(14)
H1 H 0.6621 0.6877 0.8198
C1 C 0.6449(3) 1.0580(2) 0.69489(18)
C2 C 0.6208(3) 0.9896(2) 0.77757(18)
C3 C 0.7308(2) 0.90400(18) 0.77699(15)
C4 C 0.8319(3) 0.90875(19) 0.69269(15)
C5 C 0.4968(4) 1.0253(3) 0.8470(2)
H2 H 0.4967 0.9687 0.8960
H3 H 0.3862 1.0286 0.8198
H4 H 0.5263 1.1018 0.8705
C6 C 0.7810(3) 0.82252(18) 0.85036(16)
H5 H 0.7116 0.8371 0.9048
C7 C 0.9649(3) 0.84530(19) 0.87263(15)
C8 C 1.0678(2) 0.83763(18) 0.78589(15)
H6 H 1.1858 0.8510 0.8011
H7 H 1.0585 0.7580 0.7618
C9 C 1.0176(2) 0.92323(16) 0.71189(15)
H8 H 1.0415 1.0045 0.7313
C10 C 1.0973(3) 0.8995(2) 0.61916(16)
H9 H 1.0771 0.9691 0.5807
C11 C 0.9936(4) 0.8006(2) 0.58152(19)
H10 H 0.9816 0.8089 0.5157
H11 H 1.0477 0.7253 0.5942
C12 C 0.8240(4) 0.8060(2) 0.62679(18)
H12 H 0.8009 0.7330 0.6593
H13 H 0.7357 0.8184 0.5817
C13 C 1.2829(4) 0.8775(3) 0.6203(2)
H14 H 1.3219 0.8633 0.5590
H15 H 1.3067 0.8095 0.6576
H16 H 1.3400 0.9453 0.6450
C14 C 1.0267(4) 0.7547(3) 0.93984(17)
H17 H 1.1435 0.7695 0.9539
H18 H 1.0154 0.6772 0.9137
H19 H 0.9607 0.7595 0.9949
C15 C 0.9804(4) 0.9662(2) 0.91564(18)
H20 H 1.0969 0.9816 0.9301
H21 H 0.9140 0.9690 0.9707
H22 H 0.9402 1.0250 0.8735
loop_
_geom_bond_atom_site_label_1
_geom_bond_atom_site_label_2
_geom_bond_site_symmetry_1
_geom_bond_site_symmetry_2
O1 C1 1_555 1_555
O2 C1 1_555 1_555
O3 H1 1_555 1_555
C1 C2 1_555 1_555
C2 C3 1_555 1_555
C3 C4 1_555 1_555
C4 O1 1_555 1_555
C5 C2 1_555 1_555
H2 C5 1_555 1_555
H3 C5 1_555 1_555
H4 C5 1_555 1_555
C6 O3 1_555 1_555
H5 C6 1_555 1_555
C7 C6 1_555 1_555
C8 C7 1_555 1_555
H6 C8 1_555 1_555
H7 C8 1_555 1_555
C9 C4 1_555 1_555
H8 C9 1_555 1_555
C10 C9 1_555 1_555
H9 C10 1_555 1_555
C11 C10 1_555 1_555
H10 C11 1_555 1_555
H11 C11 1_555 1_555
C12 C4 1_555 1_555
H12 C12 1_555 1_555
H13 C12 1_555 1_555
C13 C10 1_555 1_555
H14 C13 1_555 1_555
H15 C13 1_555 1_555
H16 C13 1_555 1_555
C14 C7 1_555 1_555
H17 C14 1_555 1_555
H18 C14 1_555 1_555
H19 C14 1_555 1_555
C15 C7 1_555 1_555
H20 C15 1_555 1_555
H21 C15 1_555 1_555
H22 C15 1_555 1_555
C3 C6 1_555 1_555
C8 C9 1_555 1_555
C11 C12 1_555 1_555

#END
