
#######################################################################
#
#                 Cambridge Crystallographic Data Centre
#                                CCDC 
#
#######################################################################
#
# If this CIF has been generated from an entry in the Cambridge 
# Structural Database, then it will include bibliographic, chemical, 
# crystal, experimental, refinement or atomic coordinate data resulting 
# from the CCDC's data processing and validation procedures.
#
#######################################################################

data_TOHQIR
_chemical_formula_moiety         'C26 H34 O8'
_chemical_name_systematic        
(4'R,7S)-9-(2',2'-Dimethyl(1',3')dioxolan-4'-yl)-7-(4''-methoxybenzyloxymethyl)-3,3,8-trimethyl-2,4-dioxaspiro(5.5)undec-8-en-1,5-dione
_symmetry_cell_setting           orthorhombic
_symmetry_space_group_name_H-M   'P 21 21 21'
_symmetry_Int_Tables_number      19
_space_group_name_Hall           'P 2ac 2ab'
loop_
_symmetry_equiv_pos_site_id
_symmetry_equiv_pos_as_xyz
1 x,y,z
2 1/2-x,-y,1/2+z
3 1/2+x,1/2-y,-z
4 -x,1/2+y,1/2-z
_cell_length_a                   7.7070(4)
_cell_length_b                   15.2117(7)
_cell_length_c                   20.8506(9)
_cell_angle_alpha                90
_cell_angle_beta                 90
_cell_angle_gamma                90
_cell_volume                     2444.45
_cell_formula_units_Z            4
loop_
_atom_site_label
_atom_site_type_symbol
_atom_site_fract_x
_atom_site_fract_y
_atom_site_fract_z
O1 O 0.1146(2) 0.0959(1) 0.2173(1)
O2 O -0.0750(2) 0.2202(1) 0.2177(1)
O3 O 0.3771(2) 0.1042(1) 0.2549(1)
O4 O -0.0077(2) 0.3432(1) 0.2656(1)
O5 O 0.3616(2) 0.4193(1) 0.5504(1)
O6 O 0.1537(2) 0.4312(1) 0.4722(1)
O7 O 0.3201(2) 0.2790(1) 0.1601(1)
O8 O 0.2843(2) 0.0402(1) -0.0844(1)
C1 C -0.0605(2) 0.1266(1) 0.2094(1)
C2 C 0.2379(2) 0.1385(1) 0.2502(1)
C3 C 0.1938(2) 0.2256(1) 0.2823(1)
C4 C 0.0319(2) 0.2685(1) 0.2553(1)
C5 C -0.1750(1) 0.0804(2) 0.2576(1)
C6 C -0.1082(3) 0.1074(2) 0.1407(1)
C7 C 0.1589(2) 0.2040(1) 0.3542(1)
C8 C 0.1345(2) 0.2866(1) 0.3942(1)
C9 C 0.2826(2) 0.3505(1) 0.3852(1)
C10 C 0.3833(2) 0.3494(1) 0.3333(1)
C11 C 0.3548(2) 0.2868(1) 0.2774(1)
C12 C 0.5436(3) 0.4063(1) 0.3262(1)
C13 C 0.3146(2) 0.4118(1) 0.4413(1)
C14 C 0.4192(1) 0.3717(1) 0.4958(1)
C15 C 0.1855(2) 0.4455(1) 0.5390(1)
C16 C 0.0591(3) 0.3897(2) 0.5759(1)
C17 C 0.1702(1) 0.5419(2) 0.5541(1)
C18 C 0.3552(3) 0.3364(1) 0.2127(1)
C19 C 0.4749(3) 0.2462(1) 0.1307(1)
C20 C 0.4290(2) 0.1926(1) 0.0725(1)
C21 C 0.4787(2) 0.2184(1) 0.0116(1)
C22 C 0.4359(2) 0.1690(1) -0.0423(1)
C23 C 0.3386(2) 0.0928(1) -0.0351(1)
C24 C 0.2875(2) 0.0662(1) 0.0260(1)
C25 C 0.3347(2) 0.1148(1) 0.0789(1)
C26 C 0.3437(3) 0.0623(1) -0.1469(1)
H1 H -0.1400(30) 0.0955(16) 0.3027(12)
H2 H -0.1610(30) 0.0182(16) 0.2479(12)
H3 H -0.2990(30) 0.1006(14) 0.2509(10)
H4 H -0.0330(30) 0.1402(15) 0.1146(12)
H5 H -0.2250(3) 0.1224(16) 0.1340(12)
H6 H -0.0940(30) 0.0503(16) 0.1339(11)
H7 H 0.2630(30) 0.1724(12) 0.3708(9)
H8 H 0.0600(20) 0.1640(11) 0.3586(9)
H9 H 0.1330(30) 0.2701(12) 0.4392(10)
H10 H 0.0190(30) 0.3131(13) 0.3851(9)
H11 H 0.4540(20) 0.2491(12) 0.2781(9)
H12 H 0.6320(30) 0.3736(16) 0.3077(12)
H13 H 0.5220(30) 0.4574(18) 0.2994(13)
H14 H 0.5810(30) 0.4310(14) 0.3656(11)
H15 H 0.3730(30) 0.4689(13) 0.4276(9)
H16 H 0.5470(30) 0.3810(12) 0.4911(9)
H17 H 0.3950(30) 0.3065(13) 0.4997(10)
H18 H 0.0740(40) 0.4032(18) 0.6225(14)
H19 H -0.0580(40) 0.3991(17) 0.5621(12)
H20 H 0.0930(30) 0.3353(14) 0.5693(9)
H21 H 0.2040(40) 0.5496(19) 0.5968(15)
H22 H 0.0510(40) 0.5619(17) 0.5514(12)
H23 H 0.2540(50) 0.5800(20) 0.5254(16)
H24 H 0.4640(30) 0.3655(15) 0.2070(11)
H25 H 0.2610(30) 0.3842(15) 0.2129(11)
H26 H 0.5320(30) 0.2140(16) 0.1632(13)
H27 H 0.5380(30) 0.2934(14) 0.1173(10)
H28 H 0.5400(30) 0.2717(13) 0.0055(10)
H29 H 0.4710(30) 0.1865(13) -0.0840(9)
H30 H 0.2230(30) 0.0136(14) 0.0321(10)
loop_
_geom_bond_atom_site_label_1
_geom_bond_atom_site_label_2
_geom_bond_site_symmetry_1
_geom_bond_site_symmetry_2
O1 C1 1_555 1_555
O2 C1 1_555 1_555
O3 C2 1_555 1_555
O4 C4 1_555 1_555
O5 C14 1_555 1_555
O6 C13 1_555 1_555
O7 C18 1_555 1_555
O8 C23 1_555 1_555
C1 C5 1_555 1_555
C2 O1 1_555 1_555
C3 C2 1_555 1_555
C4 O2 1_555 1_555
C5 H1 1_555 1_555
C6 C1 1_555 1_555
C7 C3 1_555 1_555
C8 C7 1_555 1_555
C9 C8 1_555 1_555
C10 C9 1_555 1_555
C11 C3 1_555 1_555
C12 C10 1_555 1_555
C13 C9 1_555 1_555
C14 C13 1_555 1_555
C15 O5 1_555 1_555
C16 C15 1_555 1_555
C17 C15 1_555 1_555
C18 C11 1_555 1_555
C19 O7 1_555 1_555
C20 C19 1_555 1_555
C21 C20 1_555 1_555
C22 C21 1_555 1_555
C23 C22 1_555 1_555
C24 C23 1_555 1_555
C25 C20 1_555 1_555
C26 O8 1_555 1_555
H2 C5 1_555 1_555
H3 C5 1_555 1_555
H4 C6 1_555 1_555
H5 C6 1_555 1_555
H6 C6 1_555 1_555
H7 C7 1_555 1_555
H8 C7 1_555 1_555
H9 C8 1_555 1_555
H10 C8 1_555 1_555
H11 C11 1_555 1_555
H12 C12 1_555 1_555
H13 C12 1_555 1_555
H14 C12 1_555 1_555
H15 C13 1_555 1_555
H16 C14 1_555 1_555
H17 C14 1_555 1_555
H18 C16 1_555 1_555
H19 C16 1_555 1_555
H20 C16 1_555 1_555
H21 C17 1_555 1_555
H22 C17 1_555 1_555
H23 C17 1_555 1_555
H24 C18 1_555 1_555
H25 C18 1_555 1_555
H26 C19 1_555 1_555
H27 C19 1_555 1_555
H28 C21 1_555 1_555
H29 C22 1_555 1_555
H30 C24 1_555 1_555
O6 C15 1_555 1_555
C3 C4 1_555 1_555
C10 C11 1_555 1_555
C24 C25 1_555 1_555

#END
