
#######################################################################
#
#                 Cambridge Crystallographic Data Centre
#                                CCDC 
#
#######################################################################
#
# If this CIF has been generated from an entry in the Cambridge 
# Structural Database, then it will include bibliographic, chemical, 
# crystal, experimental, refinement or atomic coordinate data resulting 
# from the CCDC's data processing and validation procedures.
#
#######################################################################

data_TOHXAP01
_chemical_formula_moiety         'C14 H10 N2 O2'
_chemical_name_systematic        1-(2-Aminophenyl)-2-(2-nitrophenyl)ethyne
_symmetry_cell_setting           monoclinic
_symmetry_space_group_name_H-M   'P 21/c'
_symmetry_Int_Tables_number      14
_space_group_name_Hall           '-P 2ybc'
loop_
_symmetry_equiv_pos_site_id
_symmetry_equiv_pos_as_xyz
1 x,y,z
2 x,1/2-y,1/2+z
3 -x,-y,-z
4 -x,1/2+y,1/2-z
_cell_length_a                   24.411(2)
_cell_length_b                   5.6368(5)
_cell_length_c                   18.558(2)
_cell_angle_alpha                90
_cell_angle_beta                 111.505(8)
_cell_angle_gamma                90
_cell_volume                     2375.81
_exptl_crystal_colour            'dark red'
_exptl_crystal_description       needle
_cell_formula_units_Z            8
loop_
_atom_site_label
_atom_site_type_symbol
_atom_site_fract_x
_atom_site_fract_y
_atom_site_fract_z
O1 O 0.02579(5) 0.3488(3) 0.57078(7)
O2 O -0.01332(5) 0.4413(3) 0.65269(7)
N1 N 0.07045(6) 0.0643(3) 0.45682(8)
N2 N 0.02310(6) 0.4741(3) 0.62278(7)
C1 C 0.11897(7) 0.1109(3) 0.43926(9)
C2 C 0.13482(8) -0.0343(4) 0.3895(1)
C3 C 0.18196(9) 0.0201(4) 0.3701(1)
C4 C 0.21628(7) 0.2192(4) 0.3999(1)
C5 C 0.20230(7) 0.3638(4) 0.45006(9)
C6 C 0.15400(6) 0.3125(3) 0.47096(8)
C7 C 0.13909(6) 0.4578(3) 0.52399(8)
C8 C 0.12279(6) 0.5614(3) 0.56855(9)
C9 C 0.11017(6) 0.7062(3) 0.62345(8)
C10 C 0.14703(7) 0.9021(3) 0.65372(9)
C11 C 0.13871(8) 1.0499(3) 0.7075(1)
C12 C 0.09334(8) 1.0083(4) 0.73374(9)
C13 C 0.05605(7) 0.8205(4) 0.70503(9)
C14 C 0.06439(6) 0.6721(3) 0.65087(8)
H1 H 0.0659(8) 0.135(4) 0.499(1)
H2 H 0.0517(7) -0.069(3) 0.4390(9)
H5 H 0.1082(7) -0.174(4) 0.3677(9)
H6 H 0.1925(7) -0.072(3) 0.3348(9)
H7 H 0.2505(7) 0.262(4) 0.3883(8)
H8 H 0.2266(6) 0.506(3) 0.4750(8)
H9 H 0.1798(6) 0.931(3) 0.6351(7)
H10 H 0.1650(7) 1.184(4) 0.7290(9)
H11 H 0.0859(7) 1.100(3) 0.7709(9)
H12 H 0.0222(6) 0.792(4) 0.7195(8)
O3 O 0.47434(6) 0.3619(3) 0.54938(7)
O4 O 0.51188(6) 0.4648(3) 0.66807(8)
N3 N 0.43297(6) 0.0563(3) 0.39536(8)
N4 N 0.47564(6) 0.4898(3) 0.60272(7)
C15 C 0.38368(7) 0.0929(3) 0.33124(9)
C16 C 0.36804(8) -0.0599(4) 0.2676(1)
C17 C 0.31942(9) -0.0179(4) 0.2032(1)
C18 C 0.28369(8) 0.1793(4) 0.1978(1)
C19 C 0.29824(7) 0.3317(4) 0.25940(9)
C20 C 0.34739(6) 0.2912(3) 0.32665(8)
C21 C 0.36103(6) 0.4440(3) 0.39232(9)
C22 C 0.37543(7) 0.5526(3) 0.45153(9)
C23 C 0.38603(6) 0.7028(3) 0.51711(8)
C24 C 0.34641(8) 0.8891(4) 0.5105(1)
C25 C 0.35327(8) 1.0418(4) 0.5707(1)
C26 C 0.39997(8) 1.0172(4) 0.6402(1)
C27 C 0.43941(8) 0.8367(4) 0.64907(9)
C28 C 0.43245(6) 0.6816(3) 0.58860(8)
H3 H 0.4365(7) 0.128(3) 0.4380(9)
H4 H 0.4512(7) -0.080(3) 0.3971(9)
H13 H 0.3946(7) -0.200(4) 0.2735(9)
H14 H 0.3122(7) -0.106(3) 0.1622(9)
H15 H 0.2473(6) 0.202(4) 0.1505(8)
H16 H 0.2741(7) 0.467(3) 0.2595(8)
H17 H 0.3138(6) 0.907(3) 0.4625(8)
H18 H 0.3246(7) 1.171(3) 0.5633(8)
H19 H 0.4056(7) 1.114(3) 0.6832(9)
H20 H 0.4734(7) 0.821(4) 0.6945(9)
loop_
_geom_bond_atom_site_label_1
_geom_bond_atom_site_label_2
_geom_bond_site_symmetry_1
_geom_bond_site_symmetry_2
O1 N2 1_555 1_555
O2 N2 1_555 1_555
N1 C1 1_555 1_555
N2 C14 1_555 1_555
C1 C2 1_555 1_555
C2 C3 1_555 1_555
C3 C4 1_555 1_555
C4 C5 1_555 1_555
C5 C6 1_555 1_555
C6 C1 1_555 1_555
C7 C6 1_555 1_555
C8 C7 1_555 1_555
C9 C8 1_555 1_555
C10 C9 1_555 1_555
C11 C10 1_555 1_555
C12 C11 1_555 1_555
C13 C12 1_555 1_555
C14 C9 1_555 1_555
O3 N4 1_555 1_555
O4 N4 1_555 1_555
N3 C15 1_555 1_555
N4 C28 1_555 1_555
C15 C16 1_555 1_555
C16 C17 1_555 1_555
C17 C18 1_555 1_555
C18 C19 1_555 1_555
C19 C20 1_555 1_555
C20 C15 1_555 1_555
C21 C20 1_555 1_555
C22 C21 1_555 1_555
C23 C22 1_555 1_555
C24 C23 1_555 1_555
C25 C24 1_555 1_555
C26 C25 1_555 1_555
C27 C26 1_555 1_555
C28 C23 1_555 1_555
H1 N1 1_555 1_555
H2 N1 1_555 1_555
H3 N3 1_555 1_555
H4 N3 1_555 1_555
H5 C2 1_555 1_555
H6 C3 1_555 1_555
H7 C4 1_555 1_555
H8 C5 1_555 1_555
H9 C10 1_555 1_555
H10 C11 1_555 1_555
H11 C12 1_555 1_555
H12 C13 1_555 1_555
H13 C16 1_555 1_555
H14 C17 1_555 1_555
H15 C18 1_555 1_555
H16 C19 1_555 1_555
H17 C24 1_555 1_555
H18 C25 1_555 1_555
H19 C26 1_555 1_555
H20 C27 1_555 1_555
C13 C14 1_555 1_555
C27 C28 1_555 1_555

#END
