
#######################################################################
#
#                 Cambridge Crystallographic Data Centre
#                                CCDC 
#
#######################################################################
#
# If this CIF has been generated from an entry in the Cambridge 
# Structural Database, then it will include bibliographic, chemical, 
# crystal, experimental, refinement or atomic coordinate data resulting 
# from the CCDC's data processing and validation procedures.
#
#######################################################################

data_TOJLAG
_chemical_formula_moiety         'C30 H24'
_chemical_name_systematic        
1,1'-(3-(Diphenylmethylidene)cyclopent-1-ene-1,2-diyl)dibenzene
_symmetry_cell_setting           triclinic
_symmetry_space_group_name_H-M   'P -1'
_symmetry_Int_Tables_number      2
_space_group_name_Hall           '-P 1'
loop_
_symmetry_equiv_pos_site_id
_symmetry_equiv_pos_as_xyz
1 x,y,z
2 -x,-y,-z
_cell_length_a                   6.4454(14)
_cell_length_b                   11.125(3)
_cell_length_c                   15.380(3)
_cell_angle_alpha                92.479(4)
_cell_angle_beta                 92.629(4)
_cell_angle_gamma                95.834(5)
_cell_volume                     1094.68
_exptl_crystal_colour            colorless
_exptl_crystal_description       prismatic
_cell_formula_units_Z            2
loop_
_atom_site_label
_atom_site_type_symbol
_atom_site_fract_x
_atom_site_fract_y
_atom_site_fract_z
C1 C 1.0174(5) 0.1399(3) 0.74542(19)
C2 C 1.0837(5) 0.0308(3) 0.7288(2)
C3 C 0.9972(6) -0.0243(3) 0.6417(2)
H1 H 0.9400 -0.1076 0.6466
H2 H 1.1041 -0.0213 0.5992
C4 C 0.8263(6) 0.0551(3) 0.6168(2)
H3 H 0.8289 0.0724 0.5556
H4 H 0.6897 0.0155 0.6282
C5 C 0.8750(5) 0.1696(3) 0.67335(19)
C6 C 0.8017(5) 0.2761(3) 0.65590(18)
C7 C 0.6468(5) 0.2824(3) 0.58091(19)
C8 C 0.4473(6) 0.2268(3) 0.5809(2)
H5 H 0.4089 0.1792 0.6269
C9 C 0.3015(6) 0.2397(4) 0.5141(2)
H6 H 0.1671 0.2007 0.5154
C10 C 0.3547(7) 0.3094(4) 0.4464(3)
H7 H 0.2569 0.3190 0.4015
C11 C 0.5523(8) 0.3649(5) 0.4452(3)
H8 H 0.5904 0.4113 0.3985
C12 C 0.6971(6) 0.3533(4) 0.5123(2)
H9 H 0.8303 0.3939 0.5112
C13 C 0.8666(5) 0.3944(3) 0.70344(18)
C14 C 0.7171(5) 0.4575(3) 0.7405(2)
H10 H 0.5779 0.4254 0.7361
C15 C 0.7725(7) 0.5683(3) 0.7844(2)
H11 H 0.6707 0.6100 0.8095
C16 C 0.9749(7) 0.6160(3) 0.7907(2)
H12 H 1.0112 0.6901 0.8207
C17 C 1.1253(6) 0.5570(3) 0.7537(3)
H13 H 1.2636 0.5907 0.7574
C18 C 1.0693(6) 0.4438(3) 0.7096(2)
H14 H 1.1716 0.4025 0.6845
C19 C 1.0845(5) 0.2196(3) 0.82441(19)
C20 C 0.9403(6) 0.2559(3) 0.8795(2)
H15 H 0.7992 0.2309 0.8679
C21 C 1.0042(7) 0.3307(3) 0.9531(2)
H16 H 0.9063 0.3544 0.9911
C22 C 1.2104(7) 0.3686(3) 0.9689(2)
H17 H 1.2525 0.4195 1.0174
C23 C 1.3561(6) 0.3328(3) 0.9145(2)
H18 H 1.4967 0.3592 0.9256
C24 C 1.2928(6) 0.2575(3) 0.8430(2)
H19 H 1.3922 0.2316 0.8065
C25 C 1.2290(6) -0.0333(3) 0.7837(2)
C26 C 1.2134(7) -0.0384(3) 0.8728(2)
H20 H 1.1080 -0.0020 0.8998
C27 C 1.3528(9) -0.0968(4) 0.9220(3)
H21 H 1.3396 -0.1011 0.9817
C28 C 1.5116(9) -0.1487(4) 0.8825(4)
H22 H 1.6094 -0.1853 0.9158
C29 C 1.5246(9) -0.1460(5) 0.7942(4)
H23 H 1.6311 -0.1814 0.7672
C30 C 1.3822(7) -0.0917(4) 0.7451(3)
H24 H 1.3887 -0.0941 0.6848
loop_
_geom_bond_atom_site_label_1
_geom_bond_atom_site_label_2
_geom_bond_site_symmetry_1
_geom_bond_site_symmetry_2
C1 C2 1_555 1_555
C2 C3 1_555 1_555
C3 H1 1_555 1_555
H2 C3 1_555 1_555
C4 C3 1_555 1_555
H3 C4 1_555 1_555
H4 C4 1_555 1_555
C5 C1 1_555 1_555
C6 C5 1_555 1_555
C7 C6 1_555 1_555
C8 C7 1_555 1_555
H5 C8 1_555 1_555
C9 C8 1_555 1_555
H6 C9 1_555 1_555
C10 C9 1_555 1_555
H7 C10 1_555 1_555
C11 C10 1_555 1_555
H8 C11 1_555 1_555
C12 C7 1_555 1_555
H9 C12 1_555 1_555
C13 C6 1_555 1_555
C14 C13 1_555 1_555
H10 C14 1_555 1_555
C15 C14 1_555 1_555
H11 C15 1_555 1_555
C16 C15 1_555 1_555
H12 C16 1_555 1_555
C17 C16 1_555 1_555
H13 C17 1_555 1_555
C18 C13 1_555 1_555
H14 C18 1_555 1_555
C19 C1 1_555 1_555
C20 C19 1_555 1_555
H15 C20 1_555 1_555
C21 C20 1_555 1_555
H16 C21 1_555 1_555
C22 C21 1_555 1_555
H17 C22 1_555 1_555
C23 C22 1_555 1_555
H18 C23 1_555 1_555
C24 C19 1_555 1_555
H19 C24 1_555 1_555
C25 C2 1_555 1_555
C26 C25 1_555 1_555
H20 C26 1_555 1_555
C27 C26 1_555 1_555
H21 C27 1_555 1_555
C28 C27 1_555 1_555
H22 C28 1_555 1_555
C29 C28 1_555 1_555
H23 C29 1_555 1_555
C30 C25 1_555 1_555
H24 C30 1_555 1_555
C4 C5 1_555 1_555
C11 C12 1_555 1_555
C17 C18 1_555 1_555
C23 C24 1_555 1_555
C29 C30 1_555 1_555

#END
