
#######################################################################
#
#                 Cambridge Crystallographic Data Centre
#                                CCDC 
#
#######################################################################
#
# If this CIF has been generated from an entry in the Cambridge 
# Structural Database, then it will include bibliographic, chemical, 
# crystal, experimental, refinement or atomic coordinate data resulting 
# from the CCDC's data processing and validation procedures.
#
#######################################################################

data_TOJNAH
_chemical_formula_moiety         'C18 H20 N6'
_chemical_name_systematic        meso-3,4-bis(Benzotriazol-2-yl)hexane
_symmetry_cell_setting           monoclinic
_symmetry_space_group_name_H-M   'P 21/c'
_symmetry_Int_Tables_number      14
_space_group_name_Hall           '-P 2ybc'
loop_
_symmetry_equiv_pos_site_id
_symmetry_equiv_pos_as_xyz
1 x,y,z
2 -x,1/2+y,1/2-z
3 -x,-y,-z
4 x,1/2-y,1/2+z
_cell_length_a                   5.946(1)
_cell_length_b                   7.839(2)
_cell_length_c                   18.744(4)
_cell_angle_alpha                90
_cell_angle_beta                 90.91(3)
_cell_angle_gamma                90
_cell_volume                     873.561
_exptl_crystal_colour            colorless
_chemical_melting_point          180-183deg.C
_cell_formula_units_Z            2
loop_
_atom_site_label
_atom_site_type_symbol
_atom_site_fract_x
_atom_site_fract_y
_atom_site_fract_z
C1 C 0.2654(4) -0.3019(3) 0.0876(1)
C2 C 0.4608(3) -0.2160(2) 0.0511(1)
C3 C 0.4015(3) -0.0441(2) 0.0185(1)
N1 N 0.4517(2) 0.1164(2) 0.1288(1)
N2 N 0.3194(2) 0.0724(2) 0.0737(1)
N3 N 0.1157(2) 0.1421(2) 0.0695(1)
C4 C 0.1108(3) 0.2425(2) 0.1290(1)
C5 C -0.0611(3) 0.3473(3) 0.1552(1)
C6 C -0.0156(3) 0.4332(3) 0.2173(1)
C7 C 0.1933(3) 0.4183(3) 0.2541(1)
C8 C 0.3626(3) 0.3174(2) 0.2296(1)
C9 C 0.3193(3) 0.2275(2) 0.1654(1)
H1 H 0.3148(4) -0.4116(3) 0.1074(1)
H2 H 0.1431(4) -0.3208(3) 0.0529(1)
H3 H 0.2120(4) -0.2287(3) 0.1262(1)
H4 H 0.5160(3) -0.2922(2) 0.0131(1)
H5 H 0.5849(3) -0.2002(2) 0.0864(1)
H6 H 0.2781(3) -0.0616(2) -0.0176(1)
H7 H -0.2019(3) 0.3579(3) 0.1310(1)
H8 H -0.1281(3) 0.5053(3) 0.2364(1)
H9 H 0.2164(3) 0.4804(3) 0.2971(1)
H10 H 0.5025(3) 0.3080(2) 0.2545(1)
C3B C 0.5985(3) 0.0441(2) -0.0185(1)
C2B C 0.5392(3) 0.2160(2) -0.0511(1)
C1B C 0.7346(4) 0.3019(3) -0.0876(1)
H1B H 0.6852(4) 0.4116(3) -0.1074(1)
H2B H 0.8569(4) 0.3208(3) -0.0529(1)
H3B H 0.7880(4) 0.2287(3) -0.1262(1)
H4B H 0.4840(3) 0.2922(2) -0.0131(1)
H5B H 0.4151(3) 0.2002(2) -0.0864(1)
N2B N 0.6806(2) -0.0724(2) -0.0737(1)
N1B N 0.5483(2) -0.1164(2) -0.1288(1)
C9B C 0.6807(3) -0.2275(2) -0.1654(1)
C4B C 0.8892(3) -0.2425(2) -0.1290(1)
N3B N 0.8843(2) -0.1421(2) -0.0695(1)
C5B C 1.0611(3) -0.3473(3) -0.1552(1)
C6B C 1.0156(3) -0.4332(3) -0.2173(1)
C7B C 0.8067(3) -0.4183(3) -0.2541(1)
C8B C 0.6374(3) -0.3174(2) -0.2296(1)
H10B H 0.4975(3) -0.3080(2) -0.2545(1)
H9B H 0.7836(3) -0.4804(3) -0.2971(1)
H8B H 1.1281(3) -0.5053(3) -0.2364(1)
H7B H 1.2019(3) -0.3579(3) -0.1310(1)
H6B H 0.7219(3) 0.0616(2) 0.0176(1)
loop_
_geom_bond_atom_site_label_1
_geom_bond_atom_site_label_2
_geom_bond_site_symmetry_1
_geom_bond_site_symmetry_2
C1 C2 1_555 1_555
C2 C3 1_555 1_555
C3 N2 1_555 1_555
N1 N2 1_555 1_555
N2 N3 1_555 1_555
N3 C4 1_555 1_555
C4 C5 1_555 1_555
C5 C6 1_555 1_555
C6 C7 1_555 1_555
C7 C8 1_555 1_555
C8 C9 1_555 1_555
C9 N1 1_555 1_555
H1 C1 1_555 1_555
H2 C1 1_555 1_555
H3 C1 1_555 1_555
H4 C2 1_555 1_555
H5 C2 1_555 1_555
H6 C3 1_555 1_555
H7 C5 1_555 1_555
H8 C6 1_555 1_555
H9 C7 1_555 1_555
H10 C8 1_555 1_555
C3B C3 1_555 1_555
C2B C3B 1_555 1_555
C1B C2B 1_555 1_555
H1B C1B 1_555 1_555
H2B C1B 1_555 1_555
H3B C1B 1_555 1_555
H4B C2B 1_555 1_555
H5B C2B 1_555 1_555
N2B C3B 1_555 1_555
N1B N2B 1_555 1_555
C9B N1B 1_555 1_555
C4B C9B 1_555 1_555
N3B N2B 1_555 1_555
C5B C4B 1_555 1_555
C6B C5B 1_555 1_555
C7B C6B 1_555 1_555
C8B C9B 1_555 1_555
H10B C8B 1_555 1_555
H9B C7B 1_555 1_555
H8B C6B 1_555 1_555
H7B C5B 1_555 1_555
H6B C3B 1_555 1_555
C4 C9 1_555 1_555
C4B N3B 1_555 1_555
C7B C8B 1_555 1_555

#END
