
#######################################################################
#
#                 Cambridge Crystallographic Data Centre
#                                CCDC 
#
#######################################################################
#
# If this CIF has been generated from an entry in the Cambridge 
# Structural Database, then it will include bibliographic, chemical, 
# crystal, experimental, refinement or atomic coordinate data resulting 
# from the CCDC's data processing and validation procedures.
#
#######################################################################

data_TOJXAT
_chemical_formula_moiety         'C13 H9 N1,C6 F4 I2'
_chemical_name_systematic        
'1,2,4,5-tetrafluoro-3,6-diiodobenzene benzo[f]quinoline'
_symmetry_cell_setting           monoclinic
_symmetry_space_group_name_H-M   'P 21'
_symmetry_Int_Tables_number      4
_space_group_name_Hall           'P 2yb'
loop_
_symmetry_equiv_pos_site_id
_symmetry_equiv_pos_as_xyz
1 x,y,z
2 -x,1/2+y,-z
_cell_length_a                   8.3207(7)
_cell_length_b                   6.7511(6)
_cell_length_c                   32.383(3)
_cell_angle_alpha                90
_cell_angle_beta                 96.561(2)
_cell_angle_gamma                90
_cell_volume                     1807.17
_cell_formula_units_Z            4
loop_
_atom_site_label
_atom_site_type_symbol
_atom_site_fract_x
_atom_site_fract_y
_atom_site_fract_z
C1 C 0.4295(9) 0.8423(15) 0.5901(2)
C2 C 0.5002(12) 0.6549(16) 0.5869(3)
C3 C 0.5887(12) 0.5656(14) 0.6205(3)
C4 C 0.6099(11) 0.6584(15) 0.6585(3)
C5 C 0.5439(10) 0.8426(16) 0.6618(2)
C6 C 0.4592(9) 0.9251(12) 0.6282(3)
F1 F 0.4830(8) 0.5576(9) 0.55066(17)
F2 F 0.6520(8) 0.3883(9) 0.6156(2)
F3 F 0.5629(7) 0.9401(10) 0.69801(16)
F4 F 0.3913(7) 1.1102(8) 0.63385(17)
I1 I 0.29954(7) 0.97914(10) 0.539180(18)
I2 I 0.74160(8) 0.52248(12) 0.70927(2)
C7 C 0.9824(10) 0.1686(14) 0.8392(3)
C8 C 0.9157(10) -0.0161(16) 0.8348(3)
C9 C 0.8548(10) -0.1087(13) 0.8674(3)
C10 C 0.8612(9) -0.0192(15) 0.9056(2)
C11 C 0.9334(11) 0.1679(14) 0.9098(3)
C12 C 0.9909(11) 0.2556(13) 0.8773(3)
F5 F 0.9046(8) -0.1091(9) 0.79807(16)
F6 F 0.7869(8) -0.2867(9) 0.86120(18)
F7 F 0.9448(7) 0.2582(9) 0.94650(17)
F8 F 1.0597(7) 0.4357(8) 0.88312(19)
I3 I 1.06670(8) 0.31654(12) 0.78907(2)
I4 I 0.77166(7) -0.15851(10) 0.956459(18)
C13 C 0.3742(10) 0.1385(13) 0.9368(3)
C14 C 0.4508(9) 0.3264(14) 0.9310(3)
H1 H 0.4621 0.4173 0.9527
C15 C 0.5058(11) 0.3727(14) 0.8951(3)
H2 H 0.5533 0.4961 0.8926
C16 C 0.4949(10) 0.2418(13) 0.8606(3)
C17 C 0.5565(11) 0.2852(16) 0.8239(3)
H3 H 0.6066 0.4072 0.8215
C18 C 0.5477(12) 0.1598(19) 0.7914(3)
H4 H 0.5838 0.1989 0.7665
C19 C 0.4847(14) -0.027(2) 0.7954(3)
H5 H 0.4881 -0.1192 0.7741
C20 C 0.4172(11) -0.0780(15) 0.8304(3)
H6 H 0.3676 -0.2009 0.8317
C21 C 0.4213(10) 0.0523(14) 0.8644(2)
C22 C 0.3594(9) 0.0032(13) 0.9031(2)
C23 C 0.2845(9) -0.1828(15) 0.9102(3)
H7 H 0.2710 -0.2783 0.8894
C24 C 0.2340(11) -0.2165(15) 0.9475(3)
H8 H 0.1863 -0.3371 0.9527
C25 C 0.2527(12) -0.0715(18) 0.9784(3)
H9 H 0.2149 -0.0982 1.0038
N1 N 0.3204(10) 0.0984(13) 0.9735(2)
C26 C -0.0620(10) 0.6813(13) 0.5681(3)
C27 C 0.0171(10) 0.4967(15) 0.5714(3)
H10 H 0.0080 0.4114 0.5487
C28 C 0.1058(11) 0.4419(16) 0.6070(3)
H11 H 0.1569 0.3192 0.6085
C29 C 0.1230(10) 0.5699(14) 0.6430(3)
C30 C 0.2153(11) 0.5089(17) 0.6796(3)
H12 H 0.2661 0.3860 0.6810
C31 C 0.2298(13) 0.632(2) 0.7132(3)
H13 H 0.2893 0.5910 0.7378
C32 C 0.1556(13) 0.819(2) 0.7111(3)
H14 H 0.1670 0.9030 0.7340
C33 C 0.0673(11) 0.8781(15) 0.6752(3)
H15 H 0.0208 1.0035 0.6739
C34 C 0.0444(10) 0.7556(14) 0.6404(3)
C35 C -0.0474(9) 0.8105(14) 0.6021(2)
C36 C -0.1316(10) 0.9932(15) 0.5962(3)
H16 H -0.1302 1.0831 0.6180
C37 C -0.2153(12) 1.0372(16) 0.5580(3)
H17 H -0.2663 1.1590 0.5533
C38 C -0.2218(12) 0.8969(16) 0.5270(3)
H18 H -0.2824 0.9255 0.5018
N2 N -0.1471(10) 0.7242(13) 0.5310(2)
loop_
_geom_bond_atom_site_label_1
_geom_bond_atom_site_label_2
_geom_bond_site_symmetry_1
_geom_bond_site_symmetry_2
C1 C2 1_555 1_555
C2 C3 1_555 1_555
C3 C4 1_555 1_555
C4 C5 1_555 1_555
C5 C6 1_555 1_555
C6 C1 1_555 1_555
F1 C2 1_555 1_555
F2 C3 1_555 1_555
F3 C5 1_555 1_555
F4 C6 1_555 1_555
I1 C1 1_555 1_555
I2 C4 1_555 1_555
C7 C8 1_555 1_555
C8 C9 1_555 1_555
C9 C10 1_555 1_555
C10 C11 1_555 1_555
C11 C12 1_555 1_555
C12 C7 1_555 1_555
F5 C8 1_555 1_555
F6 C9 1_555 1_555
F7 C11 1_555 1_555
F8 C12 1_555 1_555
I3 C7 1_555 1_555
I4 C10 1_555 1_555
C13 C14 1_555 1_555
C14 H1 1_555 1_555
C15 C14 1_555 1_555
H2 C15 1_555 1_555
C16 C15 1_555 1_555
C17 C16 1_555 1_555
H3 C17 1_555 1_555
C18 C17 1_555 1_555
H4 C18 1_555 1_555
C19 C18 1_555 1_555
H5 C19 1_555 1_555
C20 C19 1_555 1_555
H6 C20 1_555 1_555
C21 C16 1_555 1_555
C22 C13 1_555 1_555
C23 C22 1_555 1_555
H7 C23 1_555 1_555
C24 C23 1_555 1_555
H8 C24 1_555 1_555
C25 C24 1_555 1_555
H9 C25 1_555 1_555
N1 C13 1_555 1_555
C26 C27 1_555 1_555
C27 H10 1_555 1_555
C28 C27 1_555 1_555
H11 C28 1_555 1_555
C29 C28 1_555 1_555
C30 C29 1_555 1_555
H12 C30 1_555 1_555
C31 C30 1_555 1_555
H13 C31 1_555 1_555
C32 C31 1_555 1_555
H14 C32 1_555 1_555
C33 C32 1_555 1_555
H15 C33 1_555 1_555
C34 C29 1_555 1_555
C35 C26 1_555 1_555
C36 C35 1_555 1_555
H16 C36 1_555 1_555
C37 C36 1_555 1_555
H17 C37 1_555 1_555
C38 C37 1_555 1_555
H18 C38 1_555 1_555
N2 C26 1_555 1_555
C20 C21 1_555 1_555
C21 C22 1_555 1_555
C25 N1 1_555 1_555
C33 C34 1_555 1_555
C34 C35 1_555 1_555
C38 N2 1_555 1_555

#END
