
#######################################################################
#
#                 Cambridge Crystallographic Data Centre
#                                CCDC 
#
#######################################################################
#
# If this CIF has been generated from an entry in the Cambridge 
# Structural Database, then it will include bibliographic, chemical, 
# crystal, experimental, refinement or atomic coordinate data resulting 
# from the CCDC's data processing and validation procedures.
#
#######################################################################

data_TOJZID
_chemical_formula_moiety         'C17 H15 Cl1 N2 O2'
_chemical_name_systematic        
2-(4-chlorobenzylidene)-3-(4-methoxyphenyl)-5-oxopyrazolidin-2-ium-1-ide
_symmetry_cell_setting           triclinic
_symmetry_space_group_name_H-M   'P -1'
_symmetry_Int_Tables_number      2
_space_group_name_Hall           '-P 1'
loop_
_symmetry_equiv_pos_site_id
_symmetry_equiv_pos_as_xyz
1 x,y,z
2 -x,-y,-z
_cell_length_a                   5.6966(6)
_cell_length_b                   10.6852(13)
_cell_length_c                   12.7750(17)
_cell_angle_alpha                101.573(7)
_cell_angle_beta                 100.620(7)
_cell_angle_gamma                101.311(6)
_cell_volume                     726.475
_exptl_crystal_colour            colorless
_exptl_crystal_description       plate
_cell_formula_units_Z            2
loop_
_atom_site_label
_atom_site_type_symbol
_atom_site_fract_x
_atom_site_fract_y
_atom_site_fract_z
C1 C 0.3159(5) 0.3078(3) 0.0427(3)
C2 C 0.3044(5) 0.3400(3) 0.1510(3)
H1 H 0.161(7) 0.3085(15) 0.1716(10)
C3 C 0.5098(5) 0.4202(3) 0.2295(3)
H2 H 0.5032(6) 0.4434(11) 0.305(3)
C4 C 0.7274(5) 0.4666(3) 0.1972(3)
C5 C 0.7338(6) 0.4289(3) 0.0867(3)
H3 H 0.868(7) 0.4554(14) 0.0670(11)
C6 C 0.5296(6) 0.3501(3) 0.0079(3)
H4 H 0.5348(6) 0.3261(12) -0.066(3)
C7 C 0.9528(5) 0.5525(3) 0.2711(3)
H5 H 1.080(6) 0.5715(10) 0.2403(15)
C8 C 0.9363(6) 0.6628(3) 0.5421(3)
C9 C 1.2007(6) 0.7358(3) 0.5523(3)
H6 H 1.2191(8) 0.826(3) 0.5724(7)
H7 H 1.309(3) 0.7121(7) 0.6044(16)
C10 C 1.2471(5) 0.6936(3) 0.4386(3)
H8 H 1.362(5) 0.644(2) 0.4414(3)
C11 C 1.3200(5) 0.8005(3) 0.3817(3)
C12 C 1.2013(5) 0.9032(3) 0.3819(3)
H9 H 1.076(6) 0.9091(4) 0.4234(18)
C13 C 1.2591(6) 0.9962(3) 0.3244(3)
H10 H 1.178(4) 1.065(3) 0.3263(3)
C14 C 1.4372(5) 0.9886(3) 0.2629(3)
C15 C 1.5645(6) 0.8904(3) 0.2644(3)
H11 H 1.688(6) 0.8869(3) 0.2269(17)
C16 C 1.5032(5) 0.7974(3) 0.3235(3)
H12 H 1.590(4) 0.729(3) 0.3241(3)
C17 C 1.6705(7) 1.0860(4) 0.1506(3)
H13 H 1.641(3) 0.998(3) 0.095(2)
H14 H 1.833(4) 1.103(3) 0.2060(15)
H15 H 1.677(4) 1.159(3) 0.110(2)
Cl1 Cl 0.05505(14) 0.21060(9) -0.05673(7)
N1 N 0.9930(4) 0.6049(2) 0.3753(2)
N2 N 0.8252(5) 0.5891(3) 0.4379(2)
O1 O 0.8327(4) 0.6705(3) 0.6184(2)
O2 O 1.4761(4) 1.0831(2) 0.2062(2)
loop_
_geom_bond_atom_site_label_1
_geom_bond_atom_site_label_2
_geom_bond_site_symmetry_1
_geom_bond_site_symmetry_2
C1 C2 1_555 1_555
C2 H1 1_555 1_555
C3 C2 1_555 1_555
H2 C3 1_555 1_555
C4 C3 1_555 1_555
C5 C4 1_555 1_555
H3 C5 1_555 1_555
C6 C1 1_555 1_555
H4 C6 1_555 1_555
C7 C4 1_555 1_555
H5 C7 1_555 1_555
C8 C9 1_555 1_555
C9 H6 1_555 1_555
H7 C9 1_555 1_555
C10 C9 1_555 1_555
H8 C10 1_555 1_555
C11 C10 1_555 1_555
C12 C11 1_555 1_555
H9 C12 1_555 1_555
C13 C12 1_555 1_555
H10 C13 1_555 1_555
C14 C13 1_555 1_555
C15 C14 1_555 1_555
H11 C15 1_555 1_555
C16 C11 1_555 1_555
H12 C16 1_555 1_555
C17 H13 1_555 1_555
H14 C17 1_555 1_555
H15 C17 1_555 1_555
Cl1 C1 1_555 1_555
N1 C7 1_555 1_555
N2 C8 1_555 1_555
O1 C8 1_555 1_555
O2 C14 1_555 1_555
C5 C6 1_555 1_555
C10 N1 1_555 1_555
C15 C16 1_555 1_555
C17 O2 1_555 1_555
N1 N2 1_555 1_555

#END
