
#######################################################################
#
#                 Cambridge Crystallographic Data Centre
#                                CCDC 
#
#######################################################################
#
# If this CIF has been generated from an entry in the Cambridge 
# Structural Database, then it will include bibliographic, chemical, 
# crystal, experimental, refinement or atomic coordinate data resulting 
# from the CCDC's data processing and validation procedures.
#
#######################################################################

data_TOKFEG
_chemical_formula_moiety         '2(C13 H9 N1),C6 F4 I2'
_chemical_name_systematic        
'1,2,4,5-tetrafluoro-3,6-diiodobenzene bis(phenanthridine)'
_symmetry_cell_setting           monoclinic
_symmetry_space_group_name_H-M   'P 21/c'
_symmetry_Int_Tables_number      14
_space_group_name_Hall           '-P 2ybc'
loop_
_symmetry_equiv_pos_site_id
_symmetry_equiv_pos_as_xyz
1 x,y,z
2 -x,1/2+y,1/2-z
3 -x,-y,-z
4 x,1/2-y,1/2+z
_cell_length_a                   9.5953(7)
_cell_length_b                   5.7426(4)
_cell_length_c                   24.9356(17)
_cell_angle_alpha                90
_cell_angle_beta                 95.9550(10)
_cell_angle_gamma                90
_cell_volume                     1366.59
_cell_formula_units_Z            2
loop_
_atom_site_label
_atom_site_type_symbol
_atom_site_fract_x
_atom_site_fract_y
_atom_site_fract_z
I1 I 0.19401(2) -0.09780(4) 0.432667(9)
C1 C 0.0780(3) -0.3367(5) 0.47325(12)
C2 C -0.0033(3) -0.5036(6) 0.44541(12)
C3 C -0.0789(3) -0.6627(5) 0.47158(13)
F1 F -0.0101(2) -0.5133(4) 0.39131(7)
F2 F -0.1553(2) -0.8227(4) 0.44199(8)
I1B I -0.19401(2) -0.90220(4) 0.567333(9)
C1B C -0.0780(3) -0.6633(5) 0.52675(12)
C2B C 0.0033(3) -0.4964(6) 0.55459(12)
C3B C 0.0789(3) -0.3373(5) 0.52842(13)
F1B F 0.0101(2) -0.4867(4) 0.60869(7)
F2B F 0.1553(2) -0.1773(4) 0.55801(8)
C4 C 0.4084(3) 0.4045(6) 0.37339(13)
C5 C 0.4929(4) 0.3981(7) 0.42240(15)
H1 H 0.4828 0.2770 0.4464
C6 C 0.5899(4) 0.5670(8) 0.43535(16)
H2 H 0.6447 0.5626 0.4684
C7 C 0.6069(4) 0.7463(7) 0.39918(17)
H3 H 0.6733 0.8616 0.4081
C8 C 0.5268(4) 0.7545(6) 0.35065(15)
H4 H 0.5403 0.8747 0.3267
C9 C 0.4248(3) 0.5857(5) 0.33620(13)
C10 C 0.3350(3) 0.5864(5) 0.28606(13)
C11 C 0.3400(4) 0.7542(6) 0.24491(14)
H5 H 0.4038 0.8762 0.2497
C12 C 0.2536(4) 0.7405(7) 0.19870(15)
H6 H 0.2594 0.8534 0.1723
C13 C 0.1561(4) 0.5613(7) 0.18961(16)
H7 H 0.0968 0.5551 0.1577
C14 C 0.1488(4) 0.3950(7) 0.22835(14)
H8 H 0.0847 0.2738 0.2226
C15 C 0.2374(3) 0.4051(6) 0.27699(13)
C16 C 0.2317(4) 0.2337(6) 0.31774(14)
H9 H 0.1668 0.1141 0.3111
N1 N 0.3093(3) 0.2302(5) 0.36319(11)
loop_
_geom_bond_atom_site_label_1
_geom_bond_atom_site_label_2
_geom_bond_site_symmetry_1
_geom_bond_site_symmetry_2
I1 C1 1_555 1_555
C1 C2 1_555 1_555
C2 C3 1_555 1_555
C3 F2 1_555 1_555
F1 C2 1_555 1_555
C4 C5 1_555 1_555
C5 H1 1_555 1_555
C6 C5 1_555 1_555
H2 C6 1_555 1_555
C7 C6 1_555 1_555
H3 C7 1_555 1_555
C8 C7 1_555 1_555
H4 C8 1_555 1_555
C9 C4 1_555 1_555
C10 C9 1_555 1_555
C11 C10 1_555 1_555
H5 C11 1_555 1_555
C12 C11 1_555 1_555
H6 C12 1_555 1_555
C13 C12 1_555 1_555
H7 C13 1_555 1_555
C14 C13 1_555 1_555
H8 C14 1_555 1_555
C15 C10 1_555 1_555
C16 C15 1_555 1_555
H9 C16 1_555 1_555
N1 C4 1_555 1_555
I1B C1B 1_555 1_555
C1B C3 1_555 1_555
C2B C1B 1_555 1_555
C3B C1 1_555 1_555
F1B C2B 1_555 1_555
F2B C3B 1_555 1_555
C8 C9 1_555 1_555
C14 C15 1_555 1_555
C16 N1 1_555 1_555
C2B C3B 1_555 1_555

#END
