
#######################################################################
#
#                 Cambridge Crystallographic Data Centre
#                                CCDC 
#
#######################################################################
#
# If this CIF has been generated from an entry in the Cambridge 
# Structural Database, then it will include bibliographic, chemical, 
# crystal, experimental, refinement or atomic coordinate data resulting 
# from the CCDC's data processing and validation procedures.
#
#######################################################################

data_TOKGUV
_chemical_formula_moiety         'C6 H18 N3 O1 P1,C2 H12 B10'
_chemical_name_systematic        'Hexamethylphosphoramide p-dicarbadodecaborane'
_symmetry_cell_setting           monoclinic
_symmetry_space_group_name_H-M   'P 21/c'
_symmetry_Int_Tables_number      14
_space_group_name_Hall           '-P 2ybc'
loop_
_symmetry_equiv_pos_site_id
_symmetry_equiv_pos_as_xyz
1 x,y,z
2 -x,1/2+y,1/2-z
3 -x,-y,-z
4 x,1/2-y,1/2+z
_cell_length_a                   10.234(2)
_cell_length_b                   14.338(3)
_cell_length_c                   13.531(3)
_cell_angle_alpha                90
_cell_angle_beta                 102.81(3)
_cell_angle_gamma                90
_cell_volume                     1936.06
_exptl_crystal_colour            colorless
_cell_formula_units_Z            4
loop_
_atom_site_label
_atom_site_type_symbol
_atom_site_fract_x
_atom_site_fract_y
_atom_site_fract_z
C1 C 0.6088(4) 0.0748(3) 0.0175(2)
B1 B 0.5828(4) 0.0159(3) 0.1207(3)
B2 B 0.5892(4) 0.0109(3) -0.0907(3)
B3 B 0.6594(4) -0.0389(3) 0.0305(3)
B4 B 0.4655(4) 0.0993(3) 0.0575(3)
B5 B 0.4693(4) 0.0956(3) -0.0743(3)
H1 H 0.6708(26) 0.1189(20) 0.0309(19)
H2 H 0.6425(28) 0.0313(20) 0.1935(22)
H3 H 0.6476(29) 0.0247(21) -0.1442(22)
H4 H 0.7637(30) -0.0544(21) 0.0499(21)
H5 H 0.4528(27) 0.1655(21) 0.0933(21)
H6 H 0.4619(28) 0.1608(22) -0.1202(22)
B2B B 0.4108(4) -0.0109(3) 0.0907(3)
C1B C 0.3912(4) -0.0748(3) -0.0175(2)
B1B B 0.4172(4) -0.0159(3) -0.1207(3)
B3B B 0.3406(4) 0.0389(3) -0.0305(3)
B4B B 0.5345(4) -0.0993(3) -0.0575(3)
B5B B 0.5307(4) -0.0956(3) 0.0743(3)
H1B H 0.3292(26) -0.1189(20) -0.0309(19)
H3B H 0.3524(29) -0.0247(21) 0.1442(22)
H5B H 0.5472(27) -0.1655(21) -0.0933(21)
H6B H 0.5381(28) -0.1608(22) 0.1202(22)
H4B H 0.2363(30) 0.0544(21) -0.0499(21)
H2B H 0.3575(28) -0.0313(20) -0.1935(22)
C2 C 0.5648(4) 0.0967(3) 0.5107(3)
B6 B 0.3936(4) 0.0921(3) 0.4827(3)
B7 B 0.4882(4) 0.0610(3) 0.3913(3)
B8 B 0.6413(4) 0.0115(3) 0.4573(3)
B9 B 0.4896(4) 0.0606(3) 0.6049(3)
B10 B 0.6431(4) 0.0109(3) 0.5892(3)
H7 H 0.6039(30) 0.1530(23) 0.5184(22)
H8 H 0.3318(30) 0.1530(23) 0.4758(22)
H9 H 0.4881(31) 0.1068(23) 0.3244(24)
H10 H 0.7331(32) 0.0282(22) 0.4327(22)
H11 H 0.4841(28) 0.1045(21) 0.6681(22)
H12 H 0.7365(31) 0.0250(22) 0.6442(22)
B6B B 0.6064(4) -0.0921(3) 0.5173(3)
C2B C 0.4352(4) -0.0967(3) 0.4893(3)
B7B B 0.5118(4) -0.0610(3) 0.6087(3)
B8B B 0.3587(4) -0.0115(3) 0.5427(3)
B9B B 0.5104(4) -0.0606(3) 0.3951(3)
B10B B 0.3569(4) -0.0109(3) 0.4108(3)
H10B H 0.2669(32) -0.0282(22) 0.5673(22)
H11B H 0.5159(28) -0.1045(21) 0.3319(22)
H12B H 0.2635(31) -0.0250(22) 0.3558(22)
H7B H 0.3961(30) -0.1530(23) 0.4816(22)
H9B H 0.5119(31) -0.1068(23) 0.6756(24)
H8B H 0.6682(30) -0.1530(23) 0.5242(22)
O1 O 0.8100(2) 0.2416(2) 0.0692(2)
P1 P 0.9241(1) 0.2451(1) 0.1582(1)
N1 N 1.0052(3) 0.1465(2) 0.1929(2)
C3 C 1.0703(4) 0.0994(3) 0.1205(3)
C4 C 0.9655(3) 0.0817(2) 0.2636(3)
N2 N 0.8721(3) 0.2825(2) 0.2578(2)
C5 C 0.9644(4) 0.3158(3) 0.3493(3)
C6 C 0.7369(3) 0.2626(3) 0.2718(3)
N3 N 1.0447(3) 0.3115(2) 0.1360(2)
C7 C 1.1845(3) 0.3101(3) 0.1915(3)
C8 C 1.0160(3) 0.3841(2) 0.0579(2)
H13 H 1.1481(16) 0.0643(15) 0.1575(3)
H14 H 1.0997(24) 0.1459(3) 0.0770(13)
H15 H 1.0066(9) 0.0565(14) 0.0786(14)
H16 H 1.0444(5) 0.0479(11) 0.3006(12)
H17 H 0.9001(16) 0.0373(9) 0.2261(3)
H18 H 0.9251(19) 0.1164(3) 0.3117(10)
H19 H 0.9241(11) 0.3688(11) 0.3774(11)
H20 H 1.0485(10) 0.3356(16) 0.3325(4)
H21 H 0.9825(19) 0.2655(6) 0.3995(7)
H22 H 0.6981(9) 0.3195(5) 0.2934(17)
H23 H 0.7415(4) 0.2143(12) 0.3237(13)
H24 H 0.6807(7) 0.2407(16) 0.2077(5)
H25 H 1.2426(4) 0.2985(18) 0.1442(4)
H26 H 1.1970(7) 0.2605(12) 0.2426(14)
H27 H 1.2075(8) 0.3704(7) 0.2251(16)
H28 H 1.0751(14) 0.3760(9) 0.0106(9)
H29 H 1.0312(20) 0.4456(2) 0.0899(3)
H30 H 0.9224(7) 0.3791(9) 0.0209(10)
loop_
_geom_bond_atom_site_label_1
_geom_bond_atom_site_label_2
_geom_bond_site_symmetry_1
_geom_bond_site_symmetry_2
C1 B1 1_555 1_555
B1 B3 1_555 1_555
B2 C1 1_555 1_555
B3 C1 1_555 1_555
B4 C1 1_555 1_555
B5 C1 1_555 1_555
C2 B6 1_555 1_555
B6 B7 1_555 1_555
B7 C2 1_555 1_555
B8 C2 1_555 1_555
B9 C2 1_555 1_555
B10 C2 1_555 1_555
O1 P1 1_555 1_555
P1 N1 1_555 1_555
N1 C3 1_555 1_555
C3 H13 1_555 1_555
C4 N1 1_555 1_555
N2 P1 1_555 1_555
C5 N2 1_555 1_555
C6 N2 1_555 1_555
N3 P1 1_555 1_555
C7 N3 1_555 1_555
C8 N3 1_555 1_555
H1 C1 1_555 1_555
H2 B1 1_555 1_555
H3 B2 1_555 1_555
H4 B3 1_555 1_555
H5 B4 1_555 1_555
H6 B5 1_555 1_555
H7 C2 1_555 1_555
H8 B6 1_555 1_555
H9 B7 1_555 1_555
H10 B8 1_555 1_555
H11 B9 1_555 1_555
H12 B10 1_555 1_555
H14 C3 1_555 1_555
H15 C3 1_555 1_555
H16 C4 1_555 1_555
H17 C4 1_555 1_555
H18 C4 1_555 1_555
H19 C5 1_555 1_555
H20 C5 1_555 1_555
H21 C5 1_555 1_555
H22 C6 1_555 1_555
H23 C6 1_555 1_555
H24 C6 1_555 1_555
H25 C7 1_555 1_555
H26 C7 1_555 1_555
H27 C7 1_555 1_555
H28 C8 1_555 1_555
H29 C8 1_555 1_555
H30 C8 1_555 1_555
B2B B1 1_555 1_555
C1B B2B 1_555 1_555
B1B B2 1_555 1_555
B3B B4 1_555 1_555
B4B B2 1_555 1_555
B5B B1 1_555 1_555
H1B C1B 1_555 1_555
H3B B2B 1_555 1_555
H5B B4B 1_555 1_555
H6B B5B 1_555 1_555
H4B B3B 1_555 1_555
H2B B1B 1_555 1_555
B6B B8 1_555 1_555
C2B B6B 1_555 1_555
B7B B9 1_555 1_555
B8B B6 1_555 1_555
B9B B7 1_555 1_555
B10B B6 1_555 1_555
H10B B8B 1_555 1_555
H11B B9B 1_555 1_555
H12B B10B 1_555 1_555
H7B C2B 1_555 1_555
H9B B7B 1_555 1_555
H8B B6B 1_555 1_555
B1 B4 1_555 1_555
B2 B5 1_555 1_555
B2 B3 1_555 1_555
B3 B5B 1_555 1_555
B3 B4B 1_555 1_555
B4 B2B 1_555 1_555
B4 B5 1_555 1_555
B5 B1B 1_555 1_555
B5 B3B 1_555 1_555
B6 B9 1_555 1_555
B7 B8 1_555 1_555
B7 B10B 1_555 1_555
B8 B9B 1_555 1_555
B8 B10 1_555 1_555
B9 B8B 1_555 1_555
B9 B10 1_555 1_555
B10 B6B 1_555 1_555
B10 B7B 1_555 1_555
B2B B3B 1_555 1_555
B2B B5B 1_555 1_555
C1B B1B 1_555 1_555
C1B B4B 1_555 1_555
C1B B3B 1_555 1_555
C1B B5B 1_555 1_555
B1B B3B 1_555 1_555
B1B B4B 1_555 1_555
B4B B5B 1_555 1_555
B6B B7B 1_555 1_555
B6B B9B 1_555 1_555
C2B B7B 1_555 1_555
C2B B8B 1_555 1_555
C2B B10B 1_555 1_555
C2B B9B 1_555 1_555
B7B B8B 1_555 1_555
B8B B10B 1_555 1_555
B9B B10B 1_555 1_555

#END
