
#######################################################################
#
#                 Cambridge Crystallographic Data Centre
#                                CCDC 
#
#######################################################################
#
# If this CIF has been generated from an entry in the Cambridge 
# Structural Database, then it will include bibliographic, chemical, 
# crystal, experimental, refinement or atomic coordinate data resulting 
# from the CCDC's data processing and validation procedures.
#
#######################################################################

data_TOKSUH
_chemical_formula_moiety         'C54 H70 O10,3(C2 H3 N1)'
_chemical_name_systematic        
'24,26-(3,14-Dioxo-1,4,7,10,13,16-hexaoxahexadecano)-3,9,15,21-tetra-t-bu tylcalix(4)arene triacetonitrile clathrate'
_symmetry_cell_setting           monoclinic
_symmetry_space_group_name_H-M   'C 2/c'
_symmetry_Int_Tables_number      15
_space_group_name_Hall           '-C 2yn'
loop_
_symmetry_equiv_pos_site_id
_symmetry_equiv_pos_as_xyz
1 x,y,z
2 -x,y,1/2-z
3 1/2+x,1/2+y,z
4 1/2-x,1/2+y,1/2-z
5 -x,-y,-z
6 x,-y,1/2+z
7 1/2-x,1/2-y,-z
8 1/2+x,1/2-y,1/2+z
_cell_length_a                   23.587(7)
_cell_length_b                   21.153(6)
_cell_length_c                   15.608(8)
_cell_angle_alpha                90
_cell_angle_beta                 116.99(3)
_cell_angle_gamma                90
_cell_volume                     6939.23
_cell_formula_units_Z            4
loop_
_atom_site_label
_atom_site_type_symbol
_atom_site_fract_x
_atom_site_fract_y
_atom_site_fract_z
O1 O 0.5437(3) 0.8647(3) 0.8809(4)
O2 O 0.5873(2) 0.8734(3) 0.7284(4)
O3 O 0.5377(3) 0.9712(4) 0.6106(6)
O4 O 0.6250(3) 1.0268(3) 0.6878(5)
O5 O 0.5381(3) 1.1311(3) 0.6994(5)
C1 C 0.6220(4) 0.7880(4) 0.9598(5)
C2 C 0.6441(4) 0.7350(5) 1.0188(6)
C3 C 0.6073(4) 0.7039(5) 1.0542(7)
C4 C 0.5475(4) 0.7271(4) 1.0285(6)
C5 C 0.5254(4) 0.7810(4) 0.9721(6)
C6 C 0.5625(4) 0.8112(4) 0.9374(5)
C7 C 0.6334(5) 0.6458(5) 1.1191(8)
C8 C 0.6710(7) 0.6077(7) 1.086(1)
C9 C 0.673(1) 0.667(1) 1.217(1)
C10 C 0.5809(7) 0.6085(8) 1.116(2)
C11 C 0.6618(4) 0.8163(4) 0.9163(6)
C12 C 0.6478(4) 0.7843(4) 0.8217(5)
C13 C 0.6702(4) 0.7237(4) 0.8217(6)
C14 C 0.6563(4) 0.6895(4) 0.7396(6)
C15 C 0.6158(4) 0.7174(5) 0.6539(6)
C16 C 0.5917(4) 0.7777(5) 0.6488(6)
C17 C 0.6104(4) 0.8119(4) 0.7341(6)
C18 C 0.6831(5) 0.6242(5) 0.7393(7)
C19 C 0.7213(8) 0.5990(6) 0.833(1)
C20 C 0.6350(7) 0.5807(6) 0.683(1)
C21 C 0.7278(6) 0.6290(7) 0.700(1)
C22 C 0.4562(4) 0.8047(5) 0.9484(6)
C23 C 0.6290(5) 0.9211(5) 0.7270(8)
C24 C 0.5908(4) 0.9750(5) 0.6673(6)
C25 C 0.5985(5) 1.0832(5) 0.6324(7)
C26 C 0.5956(5) 1.1356(5) 0.6943(7)
C27 C 0.5319(5) 1.1830(5) 0.7517(8)
C16A C 0.4083(4) 0.7777(5) 0.8512(6)
C15A C 0.3842(4) 0.7174(5) 0.8461(6)
C14A C 0.3437(4) 0.6895(4) 0.7604(6)
C13A C 0.3298(4) 0.7237(4) 0.6783(6)
C12A C 0.3522(4) 0.7843(4) 0.6783(5)
C11A C 0.3382(4) 0.8163(4) 0.5837(6)
C1A C 0.3780(4) 0.7880(4) 0.5402(5)
C2A C 0.3559(4) 0.7350(5) 0.4812(6)
C3A C 0.3927(4) 0.7039(5) 0.4458(7)
C4A C 0.4525(4) 0.7271(4) 0.4715(6)
C5A C 0.4746(4) 0.7810(4) 0.5279(6)
C6A C 0.4375(4) 0.8112(4) 0.5626(5)
O1A O 0.4563(3) 0.8647(3) 0.6191(4)
C22A C 0.5438(4) 0.8047(5) 0.5516(6)
C27A C 0.4681(5) 1.1830(5) 0.7483(8)
O5A O 0.4619(3) 1.1311(3) 0.8006(5)
C26A C 0.4044(5) 1.1356(5) 0.8057(7)
C25A C 0.4015(5) 1.0832(5) 0.8676(7)
O4A O 0.3750(3) 1.0268(3) 0.8122(5)
C24A C 0.4092(4) 0.9750(5) 0.8327(6)
O3A O 0.4623(3) 0.9712(4) 0.8894(6)
C23A C 0.3710(5) 0.9211(5) 0.7730(8)
O2A O 0.4127(2) 0.8734(3) 0.7716(4)
C17A C 0.3896(4) 0.8119(4) 0.7659(6)
C7A C 0.3666(5) 0.6458(5) 0.3809(8)
C8A C 0.3290(7) 0.6077(7) 0.414(1)
C9A C 0.327(1) 0.667(1) 0.283(1)
C10A C 0.4191(7) 0.6085(8) 0.384(2)
C18A C 0.3169(5) 0.6242(5) 0.7607(7)
C19A C 0.2787(8) 0.5990(6) 0.667(1)
C20A C 0.3650(7) 0.5807(6) 0.817(1)
C21A C 0.2722(6) 0.6290(7) 0.800(1)
N1 N 0.4835(9) 1.050(2) 0.8842(7)
C28 C 0.5332(6) 1.042(3) 0.8985(8)
C29 C 0.5968(5) 1.0316(9) 0.9168(6)
N2 N 0.5000 0.5652(3) 0.7500
C30 C 0.5000 0.6165(7) 0.7500
C31 C 0.5000 0.6872(8) 0.7500
loop_
_geom_bond_atom_site_label_1
_geom_bond_atom_site_label_2
_geom_bond_site_symmetry_1
_geom_bond_site_symmetry_2
O1 C6 1_555 1_555
O2 C17 1_555 1_555
O3 C24 1_555 1_555
O4 C24 1_555 1_555
O5 C26 1_555 1_555
N1 C28 1_555 1_555
N2 C30 1_555 1_555
C1 C2 1_555 1_555
C2 C3 1_555 1_555
C3 C4 1_555 1_555
C4 C5 1_555 1_555
C5 C6 1_555 1_555
C6 C1 1_555 1_555
C7 C3 1_555 1_555
C8 C7 1_555 1_555
C9 C7 1_555 1_555
C10 C7 1_555 1_555
C11 C1 1_555 1_555
C12 C11 1_555 1_555
C13 C12 1_555 1_555
C14 C13 1_555 1_555
C15 C14 1_555 1_555
C16 C15 1_555 1_555
C17 C12 1_555 1_555
C18 C14 1_555 1_555
C19 C18 1_555 1_555
C20 C18 1_555 1_555
C21 C18 1_555 1_555
C22 C5 1_555 1_555
C23 O2 1_555 1_555
C24 C23 1_555 1_555
C25 O4 1_555 1_555
C26 C25 1_555 1_555
C27 O5 1_555 1_555
C28 C29 1_555 1_555
C30 C31 1_555 1_555
C16A C22 1_555 1_555
C15A C16A 1_555 1_555
C14A C15A 1_555 1_555
C13A C14A 1_555 1_555
C12A C13A 1_555 1_555
C11A C12A 1_555 1_555
C1A C11A 1_555 1_555
C2A C1A 1_555 1_555
C3A C2A 1_555 1_555
C4A C3A 1_555 1_555
C5A C4A 1_555 1_555
C6A C1A 1_555 1_555
O1A C6A 1_555 1_555
C22A C16 1_555 1_555
C27A C27 1_555 1_555
O5A C27A 1_555 1_555
C26A O5A 1_555 1_555
C25A C26A 1_555 1_555
O4A C25A 1_555 1_555
C24A O4A 1_555 1_555
O3A C24A 1_555 1_555
C23A C24A 1_555 1_555
O2A C23A 1_555 1_555
C17A C16A 1_555 1_555
C7A C3A 1_555 1_555
C8A C7A 1_555 1_555
C9A C7A 1_555 1_555
C10A C7A 1_555 1_555
C18A C14A 1_555 1_555
C19A C18A 1_555 1_555
C20A C18A 1_555 1_555
C21A C18A 1_555 1_555
C16 C17 1_555 1_555
C12A C17A 1_555 1_555
C5A C6A 1_555 1_555
C5A C22A 1_555 1_555
O2A C17A 1_555 1_555

#END
