
#######################################################################
#
#                 Cambridge Crystallographic Data Centre
#                                CCDC 
#
#######################################################################
#
# If this CIF has been generated from an entry in the Cambridge 
# Structural Database, then it will include bibliographic, chemical, 
# crystal, experimental, refinement or atomic coordinate data resulting 
# from the CCDC's data processing and validation procedures.
#
#######################################################################

data_TOKVOF
_chemical_formula_moiety         'C20 H18 O2'
_chemical_name_systematic        
cis-1-(2-Benzoyl-1-vinyl-2,3-dihydro-1H-inden-2-yl)ethanone
_symmetry_cell_setting           orthorhombic
_symmetry_space_group_name_H-M   'P b c a'
_symmetry_Int_Tables_number      61
_space_group_name_Hall           '-P 2ac 2ab'
loop_
_symmetry_equiv_pos_site_id
_symmetry_equiv_pos_as_xyz
1 x,y,z
2 1/2-x,-y,1/2+z
3 -x,1/2+y,1/2-z
4 1/2+x,1/2-y,-z
5 -x,-y,-z
6 1/2+x,y,1/2-z
7 x,1/2-y,1/2+z
8 1/2-x,1/2+y,z
_cell_length_a                   8.6769(15)
_cell_length_b                   17.545(2)
_cell_length_c                   20.948(2)
_cell_angle_alpha                90
_cell_angle_beta                 90
_cell_angle_gamma                90
_cell_volume                     3189.04
_exptl_crystal_colour            colorless
_exptl_crystal_description       block
_cell_formula_units_Z            8
loop_
_atom_site_label
_atom_site_type_symbol
_atom_site_fract_x
_atom_site_fract_y
_atom_site_fract_z
O1 O 0.5398(3) 0.89403(12) 0.72639(10)
O2 O 0.6103(2) 1.05685(11) 0.55525(10)
C1 C 0.1676(4) 0.89318(19) 0.5945(2)
H1 H 0.1796 0.9001 0.5508
H2 H 0.1002 0.8562 0.6097
C2 C 0.2447(3) 0.93504(16) 0.63423(16)
H3 H 0.2302 0.9267 0.6777
C3 C 0.3556(3) 0.99582(14) 0.61455(13)
H4 H 0.3697 0.9944 0.5681
C4 C 0.5165(3) 0.99284(14) 0.64844(12)
C5 C 0.5029(3) 1.04933(16) 0.70521(13)
H5 H 0.4748 1.0229 0.7442
H6 H 0.5992 1.0762 0.7121
C6 C 0.3784(3) 1.10297(15) 0.68494(13)
C7 C 0.2965(3) 1.07334(15) 0.63433(13)
C8 C 0.1742(3) 1.11300(17) 0.60818(15)
H7 H 0.1183 1.0929 0.5742
C9 C 0.1368(4) 1.18350(18) 0.63377(17)
H8 H 0.0549 1.2111 0.6168
C10 C 0.2188(4) 1.21294(18) 0.68368(18)
H9 H 0.1921 1.2604 0.7001
C11 C 0.3405(4) 1.17354(17) 0.71017(15)
H10 H 0.3959 1.1938 0.7442
C12 C 0.5601(3) 0.91224(15) 0.67119(13)
C13 C 0.6287(3) 0.85715(14) 0.62564(13)
C14 C 0.5938(3) 0.85627(14) 0.56154(13)
H11 H 0.5272 0.8927 0.5448
C15 C 0.6571(3) 0.80173(17) 0.52194(15)
H12 H 0.6301 0.8003 0.4790
C16 C 0.7601(4) 0.74942(19) 0.5460(2)
H13 H 0.8034 0.7130 0.5192
C17 C 0.7986(4) 0.75102(19) 0.6089(2)
H14 H 0.8698 0.7162 0.6247
C18 C 0.7328(3) 0.80379(16) 0.64932(16)
H15 H 0.7581 0.8038 0.6925
C19 C 0.6412(3) 1.02507(15) 0.60435(14)
C20 C 0.8059(3) 1.0208(2) 0.62690(17)
H16 H 0.8686 0.9985 0.5941
H17 H 0.8113 0.9899 0.6647
H18 H 0.8427 1.0711 0.6363
loop_
_geom_bond_atom_site_label_1
_geom_bond_atom_site_label_2
_geom_bond_site_symmetry_1
_geom_bond_site_symmetry_2
O1 C12 1_555 1_555
O2 C19 1_555 1_555
C1 H1 1_555 1_555
H2 C1 1_555 1_555
C2 C1 1_555 1_555
H3 C2 1_555 1_555
C3 C2 1_555 1_555
H4 C3 1_555 1_555
C4 C3 1_555 1_555
C5 C4 1_555 1_555
H5 C5 1_555 1_555
H6 C5 1_555 1_555
C6 C5 1_555 1_555
C7 C3 1_555 1_555
C8 C7 1_555 1_555
H7 C8 1_555 1_555
C9 C8 1_555 1_555
H8 C9 1_555 1_555
C10 C9 1_555 1_555
H9 C10 1_555 1_555
C11 C6 1_555 1_555
H10 C11 1_555 1_555
C12 C4 1_555 1_555
C13 C12 1_555 1_555
C14 C13 1_555 1_555
H11 C14 1_555 1_555
C15 C14 1_555 1_555
H12 C15 1_555 1_555
C16 C15 1_555 1_555
H13 C16 1_555 1_555
C17 C16 1_555 1_555
H14 C17 1_555 1_555
C18 C13 1_555 1_555
H15 C18 1_555 1_555
C19 C4 1_555 1_555
C20 C19 1_555 1_555
H16 C20 1_555 1_555
H17 C20 1_555 1_555
H18 C20 1_555 1_555
C6 C7 1_555 1_555
C10 C11 1_555 1_555
C17 C18 1_555 1_555

#END
