
#######################################################################
#
#                 Cambridge Crystallographic Data Centre
#                                CCDC 
#
#######################################################################
#
# If this CIF has been generated from an entry in the Cambridge 
# Structural Database, then it will include bibliographic, chemical, 
# crystal, experimental, refinement or atomic coordinate data resulting 
# from the CCDC's data processing and validation procedures.
#
#######################################################################

data_TOLBUT
_chemical_formula_moiety         'C30 H36 O4'
_chemical_name_systematic        
9-benzoyl-4,4,8,8-tetramethyl-11-(3-methylbut-2-en-1-yl)tetracyclo[7.3.1.1^7,11^.0^1,5^]tetradecane-10,12,13-trione
_symmetry_cell_setting           monoclinic
_symmetry_space_group_name_H-M   'P 21'
_symmetry_Int_Tables_number      4
_space_group_name_Hall           'P 2yb'
loop_
_symmetry_equiv_pos_site_id
_symmetry_equiv_pos_as_xyz
1 x,y,z
2 -x,1/2+y,-z
_cell_length_a                   10.7866(4)
_cell_length_b                   7.7855(3)
_cell_length_c                   14.9348(7)
_cell_angle_alpha                90
_cell_angle_beta                 99.410(4)
_cell_angle_gamma                90
_cell_volume                     1237.33
_cell_formula_units_Z            2
loop_
_atom_site_label
_atom_site_type_symbol
_atom_site_fract_x
_atom_site_fract_y
_atom_site_fract_z
O1 O 0.40070(13) 0.4163(2) 0.09436(9)
O2 O 0.79999(12) 0.3393(2) 0.23537(9)
O3 O 0.55858(12) 0.70510(19) 0.35434(9)
C1 C 0.55271(17) 0.5707(3) 0.31271(12)
C2 C 0.5154(2) 0.1727(3) 0.33127(14)
H1 H 0.5179 0.0610 0.3618
O4 O 0.82064(16) 0.5178(3) 0.46032(11)
C3 C 0.66130(18) 0.4429(3) 0.33311(13)
C4 C 0.46647(18) 0.4118(3) 0.16822(13)
C5 C 0.58040(18) 0.2912(3) 0.18299(13)
C6 C 0.5443(2) 0.1321(3) 0.23634(15)
H2 H 0.4713 0.0777 0.2012
H3 H 0.6129 0.0501 0.2422
C7 C 0.65928(19) 0.3783(3) 0.03827(13)
H4 H 0.6058 0.4721 0.0265
C8 C 0.69225(18) 0.3627(3) 0.24656(13)
C9 C 0.5829(2) 0.3362(3) 0.47970(14)
H5 H 0.5191 0.4230 0.4681
H6 H 0.6545 0.3816 0.5192
H7 H 0.5505 0.2390 0.5081
C10 C 0.79022(19) 0.7288(3) 0.24124(15)
H8 H 0.7252 0.6666 0.2075
C11 C 0.76728(19) 0.3852(3) 0.00585(13)
C12 C 0.9812(2) 0.9184(3) 0.34084(19)
H9 H 1.0451 0.9827 0.3745
C13 C 0.6157(2) 0.2335(3) 0.09197(14)
H10 H 0.6819 0.1482 0.1036
H11 H 0.5432 0.1794 0.0559
C14 C 0.1516(2) 0.3902(3) 0.18937(16)
H12 H 0.1484 0.2689 0.2002
H13 H 0.1988 0.4115 0.1413
H14 H 0.0677 0.4336 0.1723
C15 C 0.37866(19) 0.2348(3) 0.32669(15)
H15 H 0.3264 0.1707 0.2791
H16 H 0.3517 0.2048 0.3835
C16 C 0.35286(19) 0.6792(3) 0.21276(15)
H17 H 0.3984 0.7849 0.2293
H18 H 0.3297 0.6755 0.1472
C17 C 0.77540(18) 0.5469(3) 0.38202(13)
C18 C 0.8480(2) 0.8594(3) 0.20014(16)
H19 H 0.8227 0.8834 0.1389
C19 C 0.82879(18) 0.6901(3) 0.33266(14)
C20 C 0.43541(17) 0.5217(3) 0.24687(13)
C21 C 0.92493(19) 0.7878(3) 0.38191(16)
H20 H 0.9514 0.7645 0.4431
C22 C 0.6220(2) 0.2800(3) 0.38962(14)
C23 C 0.21463(19) 0.4803(3) 0.27556(15)
C24 C 0.7370(2) 0.1594(3) 0.41191(16)
H21 H 0.7147 0.0614 0.4449
H22 H 0.8048 0.2201 0.4482
H23 H 0.7628 0.1221 0.3565
C25 C 0.1353(2) 0.4479(4) 0.35006(16)
H24 H 0.0505 0.4847 0.3294
H25 H 0.1698 0.5112 0.4035
H26 H 0.1359 0.3275 0.3640
C26 C 0.23501(19) 0.6704(3) 0.25801(15)
H27 H 0.2476 0.7343 0.3145
H28 H 0.1630 0.7179 0.2183
C27 C 0.35241(18) 0.4238(3) 0.30962(14)
H29 H 0.3745 0.4778 0.3694
C28 C 0.8643(2) 0.2466(4) 0.01740(16)
H30 H 0.8282 0.1426 0.0361
H31 H 0.9337 0.2806 0.0627
H32 H 0.8934 0.2276 -0.0392
C29 C 0.9436(2) 0.9537(3) 0.2508(2)
H33 H 0.9823 1.0416 0.2234
C30 C 0.7986(2) 0.5380(4) -0.04739(18)
H34 H 0.8102 0.5018 -0.1069
H35 H 0.8745 0.5903 -0.0169
H36 H 0.7311 0.6196 -0.0524
loop_
_geom_bond_atom_site_label_1
_geom_bond_atom_site_label_2
_geom_bond_site_symmetry_1
_geom_bond_site_symmetry_2
O1 C4 1_555 1_555
O2 C8 1_555 1_555
O3 C1 1_555 1_555
C1 C3 1_555 1_555
C2 H1 1_555 1_555
O4 C17 1_555 1_555
C3 C8 1_555 1_555
C4 C5 1_555 1_555
C5 C6 1_555 1_555
C6 C2 1_555 1_555
H2 C6 1_555 1_555
H3 C6 1_555 1_555
C7 H4 1_555 1_555
C8 C5 1_555 1_555
C9 H5 1_555 1_555
H6 C9 1_555 1_555
H7 C9 1_555 1_555
C10 H8 1_555 1_555
C11 C7 1_555 1_555
C12 H9 1_555 1_555
C13 C5 1_555 1_555
H10 C13 1_555 1_555
H11 C13 1_555 1_555
C14 H12 1_555 1_555
H13 C14 1_555 1_555
H14 C14 1_555 1_555
C15 C2 1_555 1_555
H15 C15 1_555 1_555
H16 C15 1_555 1_555
C16 H17 1_555 1_555
H18 C16 1_555 1_555
C17 C3 1_555 1_555
C18 C10 1_555 1_555
H19 C18 1_555 1_555
C19 C10 1_555 1_555
C20 C1 1_555 1_555
C21 C12 1_555 1_555
H20 C21 1_555 1_555
C22 C2 1_555 1_555
C23 C14 1_555 1_555
C24 C22 1_555 1_555
H21 C24 1_555 1_555
H22 C24 1_555 1_555
H23 C24 1_555 1_555
C25 C23 1_555 1_555
H24 C25 1_555 1_555
H25 C25 1_555 1_555
H26 C25 1_555 1_555
C26 C16 1_555 1_555
H27 C26 1_555 1_555
H28 C26 1_555 1_555
C27 C15 1_555 1_555
H29 C27 1_555 1_555
C28 C11 1_555 1_555
H30 C28 1_555 1_555
H31 C28 1_555 1_555
H32 C28 1_555 1_555
C29 C12 1_555 1_555
H33 C29 1_555 1_555
C30 C11 1_555 1_555
H34 C30 1_555 1_555
H35 C30 1_555 1_555
H36 C30 1_555 1_555
C3 C22 1_555 1_555
C4 C20 1_555 1_555
C7 C13 1_555 1_555
C9 C22 1_555 1_555
C16 C20 1_555 1_555
C17 C19 1_555 1_555
C18 C29 1_555 1_555
C19 C21 1_555 1_555
C20 C27 1_555 1_555
C23 C26 1_555 1_555
C23 C27 1_555 1_555

#END
