
#######################################################################
#
#                 Cambridge Crystallographic Data Centre
#                                CCDC 
#
#######################################################################
#
# If this CIF has been generated from an entry in the Cambridge 
# Structural Database, then it will include bibliographic, chemical, 
# crystal, experimental, refinement or atomic coordinate data resulting 
# from the CCDC's data processing and validation procedures.
#
#######################################################################

data_TOLBEC
_chemical_compound_source        'dried root of Sophora flavescens'
_chemical_name_common            
3-Methoxy-6a,12a-dihydro-6H-[1,3]dioxolo[5,6][1]benzofuro[3,2-c]chromene
_chemical_formula_moiety         'C17 H14 O5'
_chemical_name_systematic        Pterocarpin
_chemical_properties_biological  'neuraminidase inhibitor'
_symmetry_cell_setting           monoclinic
_symmetry_space_group_name_H-M   'P 21'
_symmetry_Int_Tables_number      4
_space_group_name_Hall           'P 2yb'
loop_
_symmetry_equiv_pos_site_id
_symmetry_equiv_pos_as_xyz
1 x,y,z
2 -x,1/2+y,-z
_cell_length_a                   7.0459(11)
_cell_length_b                   8.0714(12)
_cell_length_c                   12.0720(19)
_cell_angle_alpha                90
_cell_angle_beta                 97.952(3)
_cell_angle_gamma                90
_cell_volume                     679.936
_exptl_crystal_colour            colorless
_exptl_crystal_description       needles
_chemical_melting_point          112-115deg.C
_cell_formula_units_Z            2
_exptl_crystal_recrystallization_method hexane
loop_
_atom_site_label
_atom_site_type_symbol
_atom_site_fract_x
_atom_site_fract_y
_atom_site_fract_z
O1 O 0.76263(19) 0.43539(19) 1.34766(10)
O2 O 0.45551(19) 0.4016(2) 1.25529(12)
O3 O 1.01924(18) 0.48272(17) 0.99433(11)
O4 O 0.74096(18) 0.28373(18) 0.72260(11)
O5 O 1.26596(19) 0.31762(18) 0.51359(11)
C1 C 0.5639(3) 0.4510(3) 1.35941(16)
H1 H 0.5337 0.5670 1.3769
H2 H 0.5325 0.3791 1.4208
C2 C 0.7648(3) 0.4465(2) 1.23390(14)
C3 C 0.5810(3) 0.4281(2) 1.17826(15)
C4 C 0.5386(2) 0.4333(2) 1.06327(15)
H3 H 0.4118 0.4214 1.0255
C5 C 0.6962(2) 0.4576(2) 1.00659(14)
C6 C 0.8814(2) 0.4692(2) 1.06354(14)
C7 C 0.9245(3) 0.4650(2) 1.18039(15)
H4 H 1.0511 0.4740 1.2190
C8 C 0.9153(3) 0.5272(2) 0.88395(14)
H5 H 0.9114 0.6507 0.8773
C9 C 0.7101(2) 0.4631(2) 0.88288(14)
H6 H 0.6136 0.5405 0.8423
C10 C 0.6913(3) 0.2893(2) 0.83416(15)
H7 H 0.7761 0.2133 0.8827
H8 H 0.5577 0.2504 0.8329
C11 C 0.9192(2) 0.3469(2) 0.71350(14)
C12 C 1.0122(2) 0.4581(2) 0.79086(14)
C13 C 1.1924(3) 0.5174(2) 0.77161(15)
H9 H 1.2592 0.5933 0.8230
C14 C 1.2741(3) 0.4677(2) 0.67976(15)
H10 H 1.3966 0.5082 0.6686
C15 C 1.1755(2) 0.3573(2) 0.60307(15)
C16 C 0.9986(3) 0.2949(2) 0.61971(15)
H11 H 0.9327 0.2182 0.5684
C17 C 1.1690(3) 0.2079(3) 0.43154(16)
H12 H 1.2485 0.1897 0.3721
H13 H 1.0465 0.2570 0.3995
H14 H 1.1457 0.1018 0.4668
loop_
_geom_bond_atom_site_label_1
_geom_bond_atom_site_label_2
_geom_bond_site_symmetry_1
_geom_bond_site_symmetry_2
O1 C1 1_555 1_555
O2 C1 1_555 1_555
O3 C6 1_555 1_555
O4 C10 1_555 1_555
O5 C15 1_555 1_555
C1 H1 1_555 1_555
H2 C1 1_555 1_555
C2 O1 1_555 1_555
C3 O2 1_555 1_555
C4 C3 1_555 1_555
H3 C4 1_555 1_555
C5 C4 1_555 1_555
C6 C5 1_555 1_555
C7 C2 1_555 1_555
H4 C7 1_555 1_555
C8 O3 1_555 1_555
H5 C8 1_555 1_555
C9 C5 1_555 1_555
H6 C9 1_555 1_555
C10 C9 1_555 1_555
H7 C10 1_555 1_555
H8 C10 1_555 1_555
C11 O4 1_555 1_555
C12 C8 1_555 1_555
C13 C12 1_555 1_555
H9 C13 1_555 1_555
C14 C13 1_555 1_555
H10 C14 1_555 1_555
C15 C14 1_555 1_555
C16 C11 1_555 1_555
H11 C16 1_555 1_555
C17 O5 1_555 1_555
H12 C17 1_555 1_555
H13 C17 1_555 1_555
H14 C17 1_555 1_555
C2 C3 1_555 1_555
C6 C7 1_555 1_555
C8 C9 1_555 1_555
C11 C12 1_555 1_555
C15 C16 1_555 1_555

#END
