
#######################################################################
#
#                 Cambridge Crystallographic Data Centre
#                                CCDC 
#
#######################################################################
#
# If this CIF has been generated from an entry in the Cambridge 
# Structural Database, then it will include bibliographic, chemical, 
# crystal, experimental, refinement or atomic coordinate data resulting 
# from the CCDC's data processing and validation procedures.
#
#######################################################################

data_TOLCOO
_chemical_formula_moiety         'C25 H29 F3 N4 O5 S1'
_chemical_name_systematic        
5,6,7-Triethoxy-4-(4-((4-(trifluoromethyl)phenyl)sulfonyl)piperazin-1-yl)quinazoline
_symmetry_cell_setting           monoclinic
_symmetry_space_group_name_H-M   'P 21/c'
_symmetry_Int_Tables_number      14
_space_group_name_Hall           '-P 2ybc'
loop_
_symmetry_equiv_pos_site_id
_symmetry_equiv_pos_as_xyz
1 x,y,z
2 -x,1/2+y,1/2-z
3 -x,-y,-z
4 x,1/2-y,1/2+z
_cell_length_a                   15.097(6)
_cell_length_b                   40.800(16)
_cell_length_c                   12.921(5)
_cell_angle_alpha                90
_cell_angle_beta                 92.977(3)
_cell_angle_gamma                90
_cell_volume                     7948.05
_exptl_crystal_colour            colorless
_exptl_crystal_description       Prism
_cell_formula_units_Z            12
loop_
_atom_site_label
_atom_site_type_symbol
_atom_site_fract_x
_atom_site_fract_y
_atom_site_fract_z
S1 S 0.47531(4) 0.171931(14) 0.26014(4)
F1 F 0.2268(5) 0.08695(12) -0.0873(4)
F2 F 0.3236(3) 0.05216(16) -0.0352(6)
F3 F 0.2045(5) 0.05984(16) 0.0439(3)
O1 O 0.52540(11) 0.15311(4) 0.33604(12)
O2 O 0.51965(11) 0.19324(4) 0.19075(12)
O3 O 0.15414(11) 0.18390(4) 0.50446(12)
O4 O 0.05367(11) 0.17044(4) 0.67449(12)
O5 O 0.00454(12) 0.21824(4) 0.80029(13)
N1 N 0.40673(13) 0.19474(5) 0.32223(14)
N2 N 0.14622(13) 0.29911(5) 0.59660(15)
C1 C 0.35944(16) 0.17996(6) 0.40805(17)
H1 H 0.3993 0.1648 0.4480
H2 H 0.3075 0.1674 0.3801
N3 N 0.27117(13) 0.23021(5) 0.41810(14)
N4 N 0.22747(13) 0.28320(5) 0.45030(15)
C2 C 0.16409(15) 0.24095(6) 0.55428(17)
C3 C 0.22124(15) 0.25167(6) 0.47425(17)
C4 C 0.13237(15) 0.26643(6) 0.61798(17)
C5 C 0.05571(16) 0.22780(6) 0.72227(18)
C6 C 0.41160(16) 0.14386(6) 0.18301(17)
C7 C 0.08024(16) 0.25944(6) 0.70295(18)
H3 H 0.0622 0.2767 0.7466
C8 C 0.32933(15) 0.20728(6) 0.47777(17)
H4 H 0.2969 0.1978 0.5354
H5 H 0.3817 0.2192 0.5079
C9 C 0.31655(17) 0.24448(6) 0.33057(17)
H6 H 0.3678 0.2577 0.3571
H7 H 0.2753 0.2591 0.2905
C10 C 0.38628(16) 0.15202(6) 0.08094(17)
H8 H 0.4012 0.1728 0.0534
C11 C 0.08217(15) 0.20189(6) 0.65644(18)
C12 C 0.33917(17) 0.12942(6) 0.02054(18)
H9 H 0.3223 0.1344 -0.0495
C13 C 0.34838(17) 0.21741(6) 0.26046(18)
H10 H 0.2968 0.2053 0.2293
H11 H 0.3814 0.2271 0.2037
C14 C 0.31646(17) 0.09937(6) 0.06208(19)
C15 C 0.13292(15) 0.20838(6) 0.57229(17)
C16 C 0.18724(16) 0.30493(6) 0.51190(19)
H12 H 0.1891 0.3272 0.4908
C17 C 0.11423(19) 0.14863(7) 0.3620(2)
H13 H 0.1365 0.1643 0.3121
H14 H 0.0658 0.1358 0.3287
H15 H 0.1623 0.1339 0.3858
C18 C 0.38811(18) 0.11400(6) 0.22471(19)
H16 H 0.4052 0.1089 0.2946
C19 C -0.02026(17) 0.24302(6) 0.87274(19)
H17 H -0.0561 0.2603 0.8366
H18 H 0.0333 0.2533 0.9060
C20 C 0.09886(19) 0.15508(7) 0.7636(2)
H19 H 0.0700 0.1339 0.7776
H20 H 0.0933 0.1692 0.8251
C21 C -0.07361(19) 0.22644(7) 0.9530(2)
H21 H -0.1259 0.2160 0.9190
H22 H -0.0926 0.2428 1.0029
H23 H -0.0371 0.2098 0.9893
C22 C 0.08079(18) 0.16677(7) 0.4526(2)
H24 H 0.0344 0.1826 0.4287
H25 H 0.0544 0.1512 0.5010
C23 C 0.33986(19) 0.09172(6) 0.1645(2)
H26 H 0.3228 0.0713 0.1929
C24 C 0.2681(2) 0.07439(7) -0.0035(2)
C25 C 0.1948(2) 0.14938(9) 0.7471(3)
H27 H 0.2008 0.1375 0.6819
H28 H 0.2211 0.1364 0.8046
H29 H 0.2255 0.1705 0.7439
S2 S 0.46252(4) 0.358073(16) 0.23410(5)
F7 F 0.61998(13) 0.21519(4) 0.41606(13)
F8 F 0.71810(11) 0.24794(4) 0.47993(14)
F9 F 0.59891(13) 0.24062(4) 0.55745(12)
O6 O 0.40124(11) 0.34502(5) 0.15651(13)
O7 O 0.43261(12) 0.38013(5) 0.31153(14)
O8 O 0.77174(11) 0.34826(4) -0.00617(12)
O9 O 0.84576(11) 0.32605(4) -0.18512(12)
O10 O 0.92085(11) 0.36718(4) -0.31385(12)
N5 N 0.53920(13) 0.37719(5) 0.17366(15)
C26 C 0.79706(15) 0.40474(6) -0.05670(17)
C27 C 0.84240(15) 0.35907(5) -0.16395(17)
N6 N 0.76448(14) 0.45177(5) 0.04843(15)
N7 N 0.68639(13) 0.40420(5) 0.07749(14)
N8 N 0.85390(14) 0.45905(5) -0.09871(16)
C28 C 0.51301(16) 0.32440(6) 0.30035(18)
C29 C 0.57621(16) 0.36064(6) 0.08369(17)
H30 H 0.5286 0.3489 0.0433
H31 H 0.6218 0.3445 0.1077
C30 C 0.88340(16) 0.38141(6) -0.23172(17)
C31 C 0.74929(16) 0.42071(5) 0.02400(17)
C32 C 0.61699(16) 0.38621(6) 0.01704(17)
H32 H 0.6430 0.3756 -0.0432
H33 H 0.5706 0.4017 -0.0093
C33 C 0.88483(16) 0.41438(6) -0.20943(18)
H34 H 0.9138 0.4292 -0.2533
C34 C 0.80344(15) 0.37021(5) -0.07608(17)
C35 C 0.54581(17) 0.32849(6) 0.40221(18)
H35 H 0.5423 0.3492 0.4355
C36 C 0.55825(17) 0.26810(6) 0.30175(18)
H36 H 0.5636 0.2476 0.2677
C37 C 0.97155(17) 0.38825(6) -0.37843(18)
H37 H 1.0184 0.3997 -0.3359
H38 H 0.9324 0.4049 -0.4125
C38 C 0.58361(16) 0.30182(6) 0.45413(18)
H39 H 0.6057 0.3041 0.5240
C39 C 0.84333(16) 0.42624(6) -0.12134(18)
C40 C 0.51979(17) 0.29445(6) 0.25025(18)
H40 H 0.4979 0.2922 0.1804
C41 C 0.65023(17) 0.42082(6) 0.16736(18)
H41 H 0.6055 0.4373 0.1433
H42 H 0.6984 0.4323 0.2075
C42 C 1.01261(19) 0.36717(7) -0.45869(19)
H43 H 1.0502 0.3505 -0.4241
H44 H 1.0487 0.3809 -0.5025
H45 H 0.9657 0.3565 -0.5017
C43 C 0.81801(18) 0.46869(6) -0.01285(19)
H46 H 0.8317 0.4904 0.0087
C44 C 0.60762(17) 0.39558(6) 0.23575(18)
H47 H 0.6534 0.3803 0.2647
H48 H 0.5802 0.4067 0.2942
C45 C 0.58921(16) 0.27191(6) 0.40441(18)
C46 C 0.80373(19) 0.31270(7) 0.13958(19)
H49 H 0.7824 0.3291 0.1880
H50 H 0.8503 0.2994 0.1746
H51 H 0.7544 0.2985 0.1158
C47 C 0.63079(18) 0.24385(6) 0.46281(19)
C48 C 0.7810(2) 0.28042(7) -0.2770(2)
H52 H 0.8366 0.2774 -0.3117
H53 H 0.7312 0.2733 -0.3233
H54 H 0.7824 0.2673 -0.2134
C49 C 0.8402(2) 0.32958(8) 0.0491(2)
H55 H 0.8889 0.3444 0.0732
H56 H 0.8647 0.3132 0.0020
C50 C 0.76988(18) 0.31577(6) -0.2505(2)
H57 H 0.7658 0.3291 -0.3146
H58 H 0.7147 0.3189 -0.2136
S3 S 0.48985(5) 0.020285(18) 0.23723(5)
F10 F 0.64326(14) -0.09902(4) 0.52848(14)
F11 F 0.74147(15) -0.06450(5) 0.58318(14)
F12 F 0.76276(14) -0.09319(5) 0.44760(15)
O11 O 0.43739(13) 0.00101(5) 0.16471(14)
O12 O 0.44776(13) 0.04152(5) 0.30871(15)
O13 O 0.80689(11) 0.02959(4) 0.00421(12)
O14 O 0.90816(12) 0.00999(4) -0.16014(13)
O15 O 0.95996(13) 0.05190(5) -0.29800(14)
N9 N 0.72892(14) 0.12983(5) 0.01888(16)
N10 N 0.81690(14) 0.14067(5) -0.12691(16)
N11 N 0.68579(13) 0.07778(5) 0.06590(15)
N12 N 0.55477(14) 0.04311(5) 0.16995(16)
C51 C 0.79708(15) 0.08440(6) -0.06646(17)
C52 C 0.87992(17) 0.04184(6) -0.15163(18)
C53 C 0.60251(17) 0.02686(6) 0.08676(18)
H59 H 0.5634 0.0106 0.0504
H60 H 0.6555 0.0153 0.1167
C54 C 0.88533(17) 0.09730(6) -0.21759(19)
H61 H 0.9055 0.1129 -0.2657
C55 C 0.73721(16) 0.09770(6) 0.00618(17)
C56 C 0.63868(18) 0.09365(6) 0.14878(19)
H62 H 0.5858 0.1053 0.1188
H63 H 0.6780 0.1099 0.1848
C57 C 0.63005(17) 0.05298(6) 0.01155(18)
H64 H 0.6635 0.0428 -0.0440
H65 H 0.5766 0.0636 -0.0210
C58 C 0.8501(2) -0.00048(6) 0.15841(19)
H66 H 0.8289 0.0175 0.2009
H67 H 0.8996 -0.0116 0.1958
H68 H 0.8019 -0.0161 0.1439
C59 C 0.90828(17) 0.06516(7) -0.22562(18)
C60 C 0.55769(17) -0.00701(6) 0.31187(19)
C61 C 0.65636(18) -0.05082(6) 0.4317(2)
C62 C 0.82843(16) 0.05128(6) -0.07191(18)
C63 C 0.58522(18) 0.00142(6) 0.41302(19)
H69 H 0.5705 0.0222 0.4403
C64 C 0.58231(19) -0.03686(6) 0.2697(2)
H70 H 0.5647 -0.0421 0.2000
C65 C 0.63404(17) -0.02077(6) 0.47314(19)
H71 H 0.6523 -0.0155 0.5426
C66 C 0.83124(16) 0.10741(6) -0.13719(18)
C67 C 0.77212(17) 0.14925(6) -0.0470(2)
H72 H 0.7696 0.1721 -0.0335
C68 C 0.61028(19) 0.06792(6) 0.22570(19)
H73 H 0.6633 0.0573 0.2594
H74 H 0.5762 0.0784 0.2801
C69 C 0.6323(2) -0.05869(6) 0.3294(2)
H75 H 0.6502 -0.0790 0.3009
C70 C 0.7016(2) -0.07646(7) 0.4978(2)
C71 C 0.9944(2) 0.07308(8) -0.3753(2)
H76 H 1.0312 0.0906 -0.3421
H77 H 0.9451 0.0834 -0.4172
C72 C 0.88078(18) 0.01300(7) 0.0583(2)
H78 H 0.9302 0.0286 0.0723
H79 H 0.9024 -0.0050 0.0149
C73 C 0.8510(2) -0.00933(7) -0.2304(2)
H80 H 0.8388 0.0025 -0.2965
H81 H 0.7939 -0.0140 -0.1991
C74 C 1.0499(2) 0.05205(9) -0.4433(2)
H82 H 1.0992 0.0425 -0.4014
H83 H 1.0733 0.0656 -0.4983
H84 H 1.0130 0.0345 -0.4744
C75 C 0.8999(3) -0.04017(9) -0.2485(3)
H85 H 0.9535 -0.0353 -0.2851
H86 H 0.8620 -0.0551 -0.2905
H87 H 0.9164 -0.0505 -0.1819
F4? F 0.2872(6) 0.07522(17) -0.1016(4)
F5? F 0.2812(6) 0.04396(10) 0.0251(5)
F6? F 0.1826(3) 0.0777(2) -0.0036(8)
loop_
_geom_bond_atom_site_label_1
_geom_bond_atom_site_label_2
_geom_bond_site_symmetry_1
_geom_bond_site_symmetry_2
S1 O1 1_555 1_555
F1 C24 1_555 1_555
F2 C24 1_555 1_555
F3 C24 1_555 1_555
O2 S1 1_555 1_555
O3 C15 1_555 1_555
O4 C11 1_555 1_555
O5 C5 1_555 1_555
N1 S1 1_555 1_555
N2 C4 1_555 1_555
C1 N1 1_555 1_555
H1 C1 1_555 1_555
H2 C1 1_555 1_555
N3 C3 1_555 1_555
N4 C3 1_555 1_555
C2 C3 1_555 1_555
C4 C2 1_555 1_555
C5 C7 1_555 1_555
C6 S1 1_555 1_555
C7 C4 1_555 1_555
H3 C7 1_555 1_555
C8 C1 1_555 1_555
H4 C8 1_555 1_555
H5 C8 1_555 1_555
C9 N3 1_555 1_555
H6 C9 1_555 1_555
H7 C9 1_555 1_555
C10 C6 1_555 1_555
H8 C10 1_555 1_555
C11 C5 1_555 1_555
C12 C10 1_555 1_555
H9 C12 1_555 1_555
C13 N1 1_555 1_555
H10 C13 1_555 1_555
H11 C13 1_555 1_555
C14 C12 1_555 1_555
C15 C2 1_555 1_555
C16 N2 1_555 1_555
H12 C16 1_555 1_555
C17 H13 1_555 1_555
H14 C17 1_555 1_555
H15 C17 1_555 1_555
C18 C6 1_555 1_555
H16 C18 1_555 1_555
C19 O5 1_555 1_555
H17 C19 1_555 1_555
H18 C19 1_555 1_555
C20 O4 1_555 1_555
H19 C20 1_555 1_555
H20 C20 1_555 1_555
C21 C19 1_555 1_555
H21 C21 1_555 1_555
H22 C21 1_555 1_555
H23 C21 1_555 1_555
C22 O3 1_555 1_555
H24 C22 1_555 1_555
H25 C22 1_555 1_555
C23 C14 1_555 1_555
H26 C23 1_555 1_555
C24 C14 1_555 1_555
C25 C20 1_555 1_555
H27 C25 1_555 1_555
H28 C25 1_555 1_555
H29 C25 1_555 1_555
S2 O6 1_555 1_555
F7 C47 1_555 1_555
F8 C47 1_555 1_555
F9 C47 1_555 1_555
O7 S2 1_555 1_555
O8 C34 1_555 1_555
O9 C27 1_555 1_555
O10 C30 1_555 1_555
N5 S2 1_555 1_555
C26 C31 1_555 1_555
C27 C30 1_555 1_555
N6 C31 1_555 1_555
N7 C31 1_555 1_555
N8 C39 1_555 1_555
C28 S2 1_555 1_555
C29 N5 1_555 1_555
H30 C29 1_555 1_555
H31 C29 1_555 1_555
C30 C33 1_555 1_555
C32 N7 1_555 1_555
H32 C32 1_555 1_555
H33 C32 1_555 1_555
C33 H34 1_555 1_555
C34 C26 1_555 1_555
C35 C28 1_555 1_555
H35 C35 1_555 1_555
C36 H36 1_555 1_555
C37 O10 1_555 1_555
H37 C37 1_555 1_555
H38 C37 1_555 1_555
C38 C35 1_555 1_555
H39 C38 1_555 1_555
C39 C26 1_555 1_555
C40 C28 1_555 1_555
H40 C40 1_555 1_555
C41 N7 1_555 1_555
H41 C41 1_555 1_555
H42 C41 1_555 1_555
C42 C37 1_555 1_555
H43 C42 1_555 1_555
H44 C42 1_555 1_555
H45 C42 1_555 1_555
C43 N6 1_555 1_555
H46 C43 1_555 1_555
C44 N5 1_555 1_555
H47 C44 1_555 1_555
H48 C44 1_555 1_555
C45 C36 1_555 1_555
C46 H49 1_555 1_555
H50 C46 1_555 1_555
H51 C46 1_555 1_555
C47 C45 1_555 1_555
C48 H52 1_555 1_555
H53 C48 1_555 1_555
H54 C48 1_555 1_555
C49 O8 1_555 1_555
H55 C49 1_555 1_555
H56 C49 1_555 1_555
C50 O9 1_555 1_555
H57 C50 1_555 1_555
H58 C50 1_555 1_555
S3 O11 1_555 1_555
F10 C70 1_555 1_555
F11 C70 1_555 1_555
F12 C70 1_555 1_555
O12 S3 1_555 1_555
O13 C62 1_555 1_555
O14 C52 1_555 1_555
O15 C59 1_555 1_555
N9 C55 1_555 1_555
N10 C66 1_555 1_555
N11 C55 1_555 1_555
N12 S3 1_555 1_555
C51 C55 1_555 1_555
C52 C59 1_555 1_555
C53 N12 1_555 1_555
H59 C53 1_555 1_555
H60 C53 1_555 1_555
C54 H61 1_555 1_555
C56 N11 1_555 1_555
H62 C56 1_555 1_555
H63 C56 1_555 1_555
C57 N11 1_555 1_555
H64 C57 1_555 1_555
H65 C57 1_555 1_555
C58 H66 1_555 1_555
H67 C58 1_555 1_555
H68 C58 1_555 1_555
C59 C54 1_555 1_555
C60 S3 1_555 1_555
C61 C65 1_555 1_555
C62 C51 1_555 1_555
C63 C60 1_555 1_555
H69 C63 1_555 1_555
C64 C60 1_555 1_555
H70 C64 1_555 1_555
C65 C63 1_555 1_555
H71 C65 1_555 1_555
C66 C51 1_555 1_555
C67 N9 1_555 1_555
H72 C67 1_555 1_555
C68 N12 1_555 1_555
H73 C68 1_555 1_555
H74 C68 1_555 1_555
C69 C61 1_555 1_555
H75 C69 1_555 1_555
C70 C61 1_555 1_555
C71 O15 1_555 1_555
H76 C71 1_555 1_555
H77 C71 1_555 1_555
C72 O13 1_555 1_555
H78 C72 1_555 1_555
H79 C72 1_555 1_555
C73 O14 1_555 1_555
H80 C73 1_555 1_555
H81 C73 1_555 1_555
C74 C71 1_555 1_555
H82 C74 1_555 1_555
H83 C74 1_555 1_555
H84 C74 1_555 1_555
C75 C73 1_555 1_555
H85 C75 1_555 1_555
H86 C75 1_555 1_555
H87 C75 1_555 1_555
N3 C8 1_555 1_555
N4 C16 1_555 1_555
C9 C13 1_555 1_555
C11 C15 1_555 1_555
C17 C22 1_555 1_555
C18 C23 1_555 1_555
C27 C34 1_555 1_555
N8 C43 1_555 1_555
C29 C32 1_555 1_555
C33 C39 1_555 1_555
C36 C40 1_555 1_555
C38 C45 1_555 1_555
C41 C44 1_555 1_555
C46 C49 1_555 1_555
C48 C50 1_555 1_555
N10 C67 1_555 1_555
C52 C62 1_555 1_555
C53 C57 1_555 1_555
C54 C66 1_555 1_555
C56 C68 1_555 1_555
C58 C72 1_555 1_555
C64 C69 1_555 1_555

#END
