
#######################################################################
#
#                 Cambridge Crystallographic Data Centre
#                                CCDC 
#
#######################################################################
#
# If this CIF has been generated from an entry in the Cambridge 
# Structural Database, then it will include bibliographic, chemical, 
# crystal, experimental, refinement or atomic coordinate data resulting 
# from the CCDC's data processing and validation procedures.
#
#######################################################################

data_TOLJAH
_chemical_compound_source        
'Corydalis ambigua Cham. et Schlecht. var. amurensis Maxim'
_chemical_name_common            8S-5-Methoxy-8-acetonyldihydrosanguirubine
_chemical_formula_moiety         'C26 H27 N1 O7'
_chemical_name_systematic        
1-[(13S)-12,13-Dihydro-5,7,9,10-tetramethoxy-12-methyl-[1,3]benzodioxolo-[4,5-i]phenanthridin-13-yl]propanone
_symmetry_cell_setting           orthorhombic
_symmetry_space_group_name_H-M   'P 21 21 21'
_symmetry_Int_Tables_number      19
_space_group_name_Hall           'P 2ac 2ab'
loop_
_symmetry_equiv_pos_site_id
_symmetry_equiv_pos_as_xyz
1 x,y,z
2 1/2-x,-y,1/2+z
3 -x,1/2+y,1/2-z
4 1/2+x,1/2-y,-z
_cell_length_a                   7.3388(1)
_cell_length_b                   12.9806(1)
_cell_length_c                   24.2173(2)
_cell_angle_alpha                90
_cell_angle_beta                 90
_cell_angle_gamma                90
_cell_volume                     2306.99
_exptl_crystal_colour            colorless
_exptl_crystal_description       prism
_cell_formula_units_Z            4
_chemical_properties_physical    Light-sensitive
_exptl_crystal_recrystallization_method dichloromethane/methanol
_exptl_crystal_preparation       'Magnetic properties'
loop_
_atom_site_label
_atom_site_type_symbol
_atom_site_fract_x
_atom_site_fract_y
_atom_site_fract_z
O1 O 0.9136(2) -0.33989(9) 0.51811(6)
O2 O 0.93634(18) -0.17403(8) 0.48409(5)
O3 O 1.0130(2) 0.20944(10) 0.49980(5)
O4 O 0.76070(19) -0.21761(8) 0.70224(5)
O5 O 0.81275(18) 0.08435(8) 0.80854(4)
O6 O 0.66739(18) 0.44889(8) 0.75496(4)
O7 O 0.63718(17) 0.45280(7) 0.65009(4)
N1 N 0.74225(15) 0.08656(8) 0.57878(4)
C1 C 0.8124(2) -0.20577(11) 0.64890(6)
C2 C 0.8401(2) -0.29050(11) 0.61395(7)
H1 H 0.8319 -0.3577 0.6271
C3 C 0.8795(2) -0.27050(11) 0.55988(7)
C4 C 0.8927(2) -0.17216(11) 0.53971(7)
C5 C 0.87058(19) -0.08728(10) 0.57303(6)
C6 C 0.8795(2) 0.02228(10) 0.55172(6)
H2 H 0.8536 0.0213 0.5120
C7 C 0.75821(18) 0.08150(10) 0.63773(5)
C8 C 0.80380(19) -0.00984(10) 0.66399(6)
C9 C 0.83056(19) -0.10331(10) 0.62939(6)
C10 C 0.8251(2) -0.00957(11) 0.72240(6)
H3 H 0.8587 -0.0699 0.7404
C11 C 0.7969(2) 0.07786(11) 0.75226(6)
C12 C 0.75078(19) 0.17302(10) 0.72628(6)
C13 C 0.73079(18) 0.17364(10) 0.66813(5)
C14 C 0.68978(19) 0.26904(10) 0.64168(5)
H4 H 0.6754 0.2710 0.6035
C15 C 0.6714(2) 0.35721(10) 0.67147(6)
C16 C 0.6901(2) 0.35559(10) 0.73012(6)
C17 C 0.7293(2) 0.26536(11) 0.75647(6)
H5 H 0.7420 0.2646 0.7947
C18 C 0.9066(3) -0.27890(13) 0.46880(8)
H6 H 0.9998 -0.3013 0.4431
H7 H 0.7887 -0.2863 0.4512
C19 C 1.0676(2) 0.06987(11) 0.56031(6)
H8 H 1.1021 0.0633 0.5988
H9 H 1.1564 0.0328 0.5383
C20 C 1.0691(2) 0.18269(11) 0.54405(7)
C21 C 1.1416(3) 0.25872(14) 0.58526(8)
H10 H 1.1348 0.3269 0.5701
H11 H 1.2662 0.2425 0.5936
H12 H 1.0702 0.2554 0.6184
C22 C 0.5572(2) 0.06573(11) 0.55966(6)
H13 H 0.4734 0.1102 0.5785
H14 H 0.5267 -0.0048 0.5672
H15 H 0.5500 0.0780 0.5206
C23 C 0.6159(3) 0.45955(12) 0.59200(7)
H16 H 0.5926 0.5298 0.5818
H17 H 0.5154 0.4172 0.5806
H18 H 0.7253 0.4362 0.5742
C24 C 0.6699(3) 0.45094(13) 0.81324(6)
H19 H 0.6527 0.5204 0.8258
H20 H 0.7850 0.4256 0.8263
H21 H 0.5737 0.4082 0.8273
C25 C 0.8452(3) -0.00786(14) 0.83803(7)
H22 H 0.8525 0.0070 0.8768
H23 H 0.9578 -0.0379 0.8259
H24 H 0.7472 -0.0553 0.8315
C26 C 0.7295(3) -0.31844(12) 0.72345(8)
H25 H 0.6940 -0.3139 0.7615
H26 H 0.8393 -0.3583 0.7205
H27 H 0.6343 -0.3511 0.7027
loop_
_geom_bond_atom_site_label_1
_geom_bond_atom_site_label_2
_geom_bond_site_symmetry_1
_geom_bond_site_symmetry_2
O1 C3 1_555 1_555
O2 C4 1_555 1_555
O3 C20 1_555 1_555
O4 C1 1_555 1_555
O5 C11 1_555 1_555
O6 C16 1_555 1_555
O7 C15 1_555 1_555
N1 C6 1_555 1_555
C1 C2 1_555 1_555
C2 H1 1_555 1_555
C3 C2 1_555 1_555
C4 C3 1_555 1_555
C5 C4 1_555 1_555
C6 C5 1_555 1_555
H2 C6 1_555 1_555
C7 N1 1_555 1_555
C8 C7 1_555 1_555
C9 C1 1_555 1_555
C10 C8 1_555 1_555
H3 C10 1_555 1_555
C11 C10 1_555 1_555
C12 C11 1_555 1_555
C13 C7 1_555 1_555
C14 C13 1_555 1_555
H4 C14 1_555 1_555
C15 C14 1_555 1_555
C16 C15 1_555 1_555
C17 C12 1_555 1_555
H5 C17 1_555 1_555
C18 O1 1_555 1_555
H6 C18 1_555 1_555
H7 C18 1_555 1_555
C19 C6 1_555 1_555
H8 C19 1_555 1_555
H9 C19 1_555 1_555
C20 C19 1_555 1_555
C21 C20 1_555 1_555
H10 C21 1_555 1_555
H11 C21 1_555 1_555
H12 C21 1_555 1_555
C22 N1 1_555 1_555
H13 C22 1_555 1_555
H14 C22 1_555 1_555
H15 C22 1_555 1_555
C23 O7 1_555 1_555
H16 C23 1_555 1_555
H17 C23 1_555 1_555
H18 C23 1_555 1_555
C24 O6 1_555 1_555
H19 C24 1_555 1_555
H20 C24 1_555 1_555
H21 C24 1_555 1_555
C25 O5 1_555 1_555
H22 C25 1_555 1_555
H23 C25 1_555 1_555
H24 C25 1_555 1_555
C26 O4 1_555 1_555
H25 C26 1_555 1_555
H26 C26 1_555 1_555
H27 C26 1_555 1_555
O2 C18 1_555 1_555
C5 C9 1_555 1_555
C8 C9 1_555 1_555
C12 C13 1_555 1_555
C16 C17 1_555 1_555

#END
