
#######################################################################
#
#                 Cambridge Crystallographic Data Centre
#                                CCDC 
#
#######################################################################
#
# If this CIF has been generated from an entry in the Cambridge 
# Structural Database, then it will include bibliographic, chemical, 
# crystal, experimental, refinement or atomic coordinate data resulting 
# from the CCDC's data processing and validation procedures.
#
#######################################################################

data_TOLKIQ
_chemical_formula_moiety         'C13 H14 N2 O4'
_chemical_name_systematic        
4-(2-Hydroxyphenyl)-5-methoxycarbonyl-6-methyl-3,4-dihydropyrimidin-2(1H)-one
_symmetry_cell_setting           monoclinic
_symmetry_space_group_name_H-M   'P 21/c'
_symmetry_Int_Tables_number      14
_space_group_name_Hall           '-P 2ybc'
loop_
_symmetry_equiv_pos_site_id
_symmetry_equiv_pos_as_xyz
1 x,y,z
2 -x,1/2+y,1/2-z
3 -x,-y,-z
4 x,1/2-y,1/2+z
_cell_length_a                   8.859(14)
_cell_length_b                   16.13(3)
_cell_length_c                   9.856(16)
_cell_angle_alpha                90
_cell_angle_beta                 114.98(2)
_cell_angle_gamma                90
_cell_volume                     1276.63
_exptl_crystal_colour            colorless
_exptl_crystal_description       plane
_cell_formula_units_Z            4
loop_
_atom_site_label
_atom_site_type_symbol
_atom_site_fract_x
_atom_site_fract_y
_atom_site_fract_z
C1 C -0.06430(19) 0.85577(9) 0.69426(17)
C2 C -0.1833(2) 0.88888(10) 0.56106(18)
C3 C -0.3374(2) 0.91193(12) 0.5503(2)
H1 H -0.4166 0.9332 0.4609
C4 C -0.3742(2) 0.90343(13) 0.6723(2)
H2 H -0.4777 0.9202 0.6651
C5 C -0.2597(2) 0.87049(13) 0.8043(2)
H3 H -0.2856 0.8645 0.8860
C6 C -0.1063(2) 0.84639(12) 0.81405(19)
H4 H -0.0293 0.8233 0.9028
C7 C 0.10558(18) 0.83430(9) 0.70194(15)
H5 H 0.0890 0.8007 0.6139
C8 C 0.21381(18) 0.78553(10) 0.83955(16)
C9 C 0.19004(19) 0.69523(10) 0.83961(17)
C10 C 0.0515(3) 0.57951(12) 0.6941(2)
H6 H 0.1473 0.5510 0.6958
H7 H -0.0433 0.5674 0.6021
H8 H 0.0298 0.5615 0.7770
H9 H 0.4296 0.9420 1.0264
C11 C 0.32727(19) 0.82580(10) 0.95860(16)
C12 C 0.4397(2) 0.79064(12) 1.1078(2)
H10 H 0.3988 0.7374 1.1202
H11 H 0.4426 0.8273 1.1856
H12 H 0.5500 0.7847 1.1134
C13 C 0.29975(18) 0.95110(10) 0.81316(16)
N1 N 0.19262(16) 0.91071(8) 0.69501(13)
H13 H 0.1724 0.9305 0.6080
N2 N 0.35020(18) 0.91074(8) 0.94770(14)
O1 O 0.35610(14) 1.02113(7) 0.80615(12)
O2 O -0.13802(16) 0.89727(9) 0.44519(13)
H14 H -0.2150 0.9181 0.3732
O3 O 0.25509(17) 0.64872(8) 0.94330(14)
O4 O 0.08231(17) 0.66779(8) 0.70517(13)
loop_
_geom_bond_atom_site_label_1
_geom_bond_atom_site_label_2
_geom_bond_site_symmetry_1
_geom_bond_site_symmetry_2
C1 C2 1_555 1_555
C2 C3 1_555 1_555
C3 H1 1_555 1_555
C4 C3 1_555 1_555
H2 C4 1_555 1_555
C5 C4 1_555 1_555
H3 C5 1_555 1_555
C6 C1 1_555 1_555
H4 C6 1_555 1_555
C7 C1 1_555 1_555
H5 C7 1_555 1_555
C8 C7 1_555 1_555
C9 C8 1_555 1_555
C10 H6 1_555 1_555
H7 C10 1_555 1_555
H8 C10 1_555 1_555
H9 N2 1_555 1_555
C11 C8 1_555 1_555
C12 C11 1_555 1_555
H10 C12 1_555 1_555
H11 C12 1_555 1_555
H12 C12 1_555 1_555
C13 N1 1_555 1_555
N1 C7 1_555 1_555
H13 N1 1_555 1_555
N2 C11 1_555 1_555
O1 C13 1_555 1_555
O2 C2 1_555 1_555
H14 O2 1_555 1_555
O3 C9 1_555 1_555
O4 C9 1_555 1_555
C5 C6 1_555 1_555
C10 O4 1_555 1_555
C13 N2 1_555 1_555

#END
