
#######################################################################
#
#                 Cambridge Crystallographic Data Centre
#                                CCDC 
#
#######################################################################
#
# If this CIF has been generated from an entry in the Cambridge 
# Structural Database, then it will include bibliographic, chemical, 
# crystal, experimental, refinement or atomic coordinate data resulting 
# from the CCDC's data processing and validation procedures.
#
#######################################################################

data_TOLMIS
_chemical_formula_moiety         'C39 H27 N2 O1 P1,H2 O1'
_chemical_name_systematic        
'2-(3-(diphenylphosphoryl)phenyl)-1-phenyl-1H-phenanthro[9,10-d]imidazole monohydrate'
_symmetry_cell_setting           monoclinic
_symmetry_space_group_name_H-M   'P 21/c'
_symmetry_Int_Tables_number      14
_space_group_name_Hall           '-P 2ybc'
loop_
_symmetry_equiv_pos_site_id
_symmetry_equiv_pos_as_xyz
1 x,y,z
2 -x,1/2+y,1/2-z
3 -x,-y,-z
4 x,1/2-y,1/2+z
_cell_length_a                   11.121(2)
_cell_length_b                   16.819(3)
_cell_length_c                   16.495(3)
_cell_angle_alpha                90
_cell_angle_beta                 94.15(3)
_cell_angle_gamma                90
_cell_volume                     3077.2
_cell_formula_units_Z            4
loop_
_atom_site_label
_atom_site_type_symbol
_atom_site_fract_x
_atom_site_fract_y
_atom_site_fract_z
C1 C 0.4080(2) 0.23703(14) 0.61906(11)
C2 C 0.5133(2) 0.19299(15) 0.61499(13)
H1 H 0.5650 0.2042 0.5746
C3 C 0.5421(3) 0.13299(16) 0.66986(15)
H2 H 0.6122 0.1035 0.6659
C4 C 0.4672(3) 0.11683(18) 0.73028(16)
H3 H 0.4866 0.0764 0.7674
C5 C 0.3637(3) 0.1602(2) 0.73599(16)
H4 H 0.3133 0.1493 0.7772
C6 C 0.3342(3) 0.22001(17) 0.68084(14)
H5 H 0.2639 0.2492 0.6852
C7 C 0.28149(19) 0.26449(15) 0.46292(12)
C8 C 0.3078(2) 0.18798(18) 0.43804(14)
H6 H 0.3715 0.1604 0.4646
C9 C 0.2405(3) 0.1522(2) 0.37438(17)
H7 H 0.2605 0.1014 0.3577
C10 C 0.1455(3) 0.1909(3) 0.33607(19)
H8 H 0.0994 0.1662 0.2941
C11 C 0.1176(3) 0.2662(3) 0.35927(19)
H9 H 0.0531 0.2927 0.3323
C12 C 0.1849(2) 0.3042(2) 0.42304(15)
H10 H 0.1651 0.3554 0.4385
C13 C 0.49945(19) 0.35343(13) 0.51238(11)
C14 C 0.5519(2) 0.41669(15) 0.55695(13)
H11 H 0.5155 0.4361 0.6019
C15 C 0.6573(2) 0.45044(16) 0.53455(13)
H12 H 0.6914 0.4930 0.5640
C16 C 0.7124(2) 0.42115(15) 0.46826(13)
H13 H 0.7835 0.4443 0.4534
C17 C 0.6628(2) 0.35761(13) 0.42360(12)
C18 C 0.55473(19) 0.32498(13) 0.44558(12)
H14 H 0.5192 0.2836 0.4150
C19 C 0.72583(19) 0.33114(14) 0.35257(12)
C20 C 0.6924(2) 0.18377(14) 0.36689(13)
C21 C 0.5913(2) 0.14459(16) 0.33383(16)
H15 H 0.5473 0.1649 0.2884
C22 C 0.5569(3) 0.07500(19) 0.3694(2)
H16 H 0.4894 0.0476 0.3476
C23 C 0.6217(4) 0.04608(19) 0.4366(2)
H17 H 0.5988 -0.0015 0.4598
C24 C 0.7201(3) 0.0865(2) 0.47026(19)
H18 H 0.7623 0.0670 0.5168
C25 C 0.7565(2) 0.15606(16) 0.43507(15)
H19 H 0.8234 0.1837 0.4573
C26 C 0.8060(2) 0.25512(15) 0.26040(12)
C27 C 0.8547(2) 0.19184(17) 0.21390(13)
C28 C 0.8372(2) 0.11034(18) 0.22686(15)
H20 H 0.7856 0.0942 0.2656
C29 C 0.8947(3) 0.0537(2) 0.18353(17)
H21 H 0.8819 -0.0001 0.1927
C30 C 0.9723(3) 0.0780(3) 0.12563(19)
H22 H 1.0129 0.0402 0.0968
C31 C 0.9890(3) 0.1566(2) 0.11115(17)
H23 H 1.0401 0.1712 0.0715
C32 C 0.9328(2) 0.21665(19) 0.15321(13)
C33 C 0.9561(2) 0.30072(19) 0.13907(13)
C34 C 1.0318(3) 0.3271(2) 0.07865(15)
H24 H 1.0656 0.2899 0.0453
C35 C 1.0560(3) 0.4058(2) 0.06852(18)
H25 H 1.1058 0.4212 0.0284
C36 C 1.0080(3) 0.4631(2) 0.11670(16)
H26 H 1.0261 0.5165 0.1095
C37 C 0.9336(2) 0.44036(19) 0.17520(14)
H27 H 0.9000 0.4787 0.2073
C38 C 0.9078(2) 0.36006(17) 0.18702(13)
C39 C 0.83308(19) 0.33347(15) 0.24988(12)
N1 N 0.78436(17) 0.38056(12) 0.30712(10)
N2 N 0.73443(17) 0.25356(12) 0.32694(10)
O1 O 0.28542(15) 0.37517(10) 0.58254(10)
P1 P 0.36191(5) 0.31349(4) 0.54742(3)
O2 O 0.3219(2) 0.03619(12) 0.22466(11)
H28 H 0.3109 0.0635 0.1814
H29 H 0.2909 -0.0094 0.2156
loop_
_geom_bond_atom_site_label_1
_geom_bond_atom_site_label_2
_geom_bond_site_symmetry_1
_geom_bond_site_symmetry_2
C1 C2 1_555 1_555
C2 H1 1_555 1_555
C3 C2 1_555 1_555
H2 C3 1_555 1_555
C4 C3 1_555 1_555
H3 C4 1_555 1_555
C5 C4 1_555 1_555
H4 C5 1_555 1_555
C6 C1 1_555 1_555
H5 C6 1_555 1_555
C7 C8 1_555 1_555
C8 H6 1_555 1_555
C9 C8 1_555 1_555
H7 C9 1_555 1_555
C10 C9 1_555 1_555
H8 C10 1_555 1_555
C11 C10 1_555 1_555
H9 C11 1_555 1_555
C12 C7 1_555 1_555
H10 C12 1_555 1_555
C13 C14 1_555 1_555
C14 H11 1_555 1_555
C15 C14 1_555 1_555
H12 C15 1_555 1_555
C16 C15 1_555 1_555
H13 C16 1_555 1_555
C17 C16 1_555 1_555
C18 C13 1_555 1_555
H14 C18 1_555 1_555
C19 C17 1_555 1_555
C20 C21 1_555 1_555
C21 H15 1_555 1_555
C22 C21 1_555 1_555
H16 C22 1_555 1_555
C23 C22 1_555 1_555
H17 C23 1_555 1_555
C24 C23 1_555 1_555
H18 C24 1_555 1_555
C25 C20 1_555 1_555
H19 C25 1_555 1_555
C26 C27 1_555 1_555
C27 C28 1_555 1_555
C28 H20 1_555 1_555
C29 C28 1_555 1_555
H21 C29 1_555 1_555
C30 C29 1_555 1_555
H22 C30 1_555 1_555
C31 C30 1_555 1_555
H23 C31 1_555 1_555
C32 C27 1_555 1_555
C33 C32 1_555 1_555
C34 C33 1_555 1_555
H24 C34 1_555 1_555
C35 C34 1_555 1_555
H25 C35 1_555 1_555
C36 C35 1_555 1_555
H26 C36 1_555 1_555
C37 C36 1_555 1_555
H27 C37 1_555 1_555
C38 C33 1_555 1_555
C39 C26 1_555 1_555
N1 C19 1_555 1_555
N2 C19 1_555 1_555
O1 P1 1_555 1_555
P1 C1 1_555 1_555
O2 H28 1_555 1_555
H29 O2 1_555 1_555
C5 C6 1_555 1_555
C7 P1 1_555 1_555
C11 C12 1_555 1_555
C13 P1 1_555 1_555
C17 C18 1_555 1_555
C20 N2 1_555 1_555
C24 C25 1_555 1_555
C26 N2 1_555 1_555
C31 C32 1_555 1_555
C37 C38 1_555 1_555
C38 C39 1_555 1_555
C39 N1 1_555 1_555

#END
