
#######################################################################
#
#                 Cambridge Crystallographic Data Centre
#                                CCDC 
#
#######################################################################
#
# If this CIF has been generated from an entry in the Cambridge 
# Structural Database, then it will include bibliographic, chemical, 
# crystal, experimental, refinement or atomic coordinate data resulting 
# from the CCDC's data processing and validation procedures.
#
#######################################################################

data_TOLNIS
_chemical_formula_moiety         'C26 H24 O4'
_chemical_name_systematic        
cis-3,3'-bis(2-Methylallyl)-3,3'-dihydroxy-2,2'-biindenylidene-1,1'-dione
_symmetry_cell_setting           triclinic
_symmetry_space_group_name_H-M   'P -1'
_symmetry_Int_Tables_number      2
_space_group_name_Hall           '-P 1'
loop_
_symmetry_equiv_pos_site_id
_symmetry_equiv_pos_as_xyz
1 x,y,z
2 -x,-y,-z
_cell_length_a                   9.009(2)
_cell_length_b                   11.320(3)
_cell_length_c                   12.049(3)
_cell_angle_alpha                66.526(4)
_cell_angle_beta                 89.706(4)
_cell_angle_gamma                72.121(4)
_cell_volume                     1062.95
_exptl_crystal_colour            colorless
_exptl_crystal_description       block
_chemical_melting_point          '238-240 deg.C'
_cell_formula_units_Z            2
_exptl_crystal_recrystallization_method dichloromethane
loop_
_atom_site_label
_atom_site_type_symbol
_atom_site_fract_x
_atom_site_fract_y
_atom_site_fract_z
O1 O 0.72454(13) 0.14406(13) 0.11761(11)
O2 O 0.55377(14) 0.06166(12) 0.30041(10)
H1 H 0.6300 0.0619 0.2630
O3 O 0.11694(13) 0.22994(14) 0.00699(10)
O4 O 0.33183(14) 0.13000(12) -0.12172(10)
H2 H 0.2481 0.1471 -0.0945
C1 C 0.63981(18) 0.16641(15) 0.02732(14)
C2 C 0.69331(19) 0.16416(16) -0.08713(15)
C3 C 0.8474(2) 0.13858(18) -0.11585(18)
H3 H 0.9297 0.1283 -0.0628
C4 C 0.8731(2) 0.1291(2) -0.2252(2)
H4 H 0.9741 0.1127 -0.2470
C5 C 0.7490(3) 0.14388(19) -0.30305(19)
H5 H 0.7691 0.1357 -0.3759
C6 C 0.5960(2) 0.17036(18) -0.27535(16)
H6 H 0.5141 0.1798 -0.3283
C7 C 0.56855(19) 0.18251(15) -0.16569(14)
C8 C 0.41253(18) 0.21814(15) -0.11710(13)
C9 C 0.3158(2) 0.37159(17) -0.19073(14)
H7 H 0.2191 0.3918 -0.1556
H8 H 0.3752 0.4254 -0.1796
C10 C 0.2730(2) 0.4188(2) -0.32644(15)
C11 C 0.3266(4) 0.5127(3) -0.4053(2)
H9 H 0.2989 0.5436 -0.4888
H10 H 0.3918 0.5473 -0.3770
C12 C 0.1683(3) 0.3600(3) -0.3673(2)
H11 H 0.1395 0.4075 -0.4542
H12 H 0.0751 0.3699 -0.3280
H13 H 0.2227 0.2650 -0.3459
C13 C 0.46448(17) 0.19438(14) 0.01460(13)
C14 C 0.37401(17) 0.19672(14) 0.10383(13)
C15 C 0.20136(18) 0.21291(16) 0.09549(13)
C16 C 0.15281(19) 0.19716(16) 0.21570(14)
C17 C 0.0056(2) 0.1986(2) 0.25332(16)
H14 H -0.0802 0.2182 0.1986
C18 C -0.0078(3) 0.1700(2) 0.37483(18)
H15 H -0.1048 0.1723 0.4024
C19 C 0.1218(3) 0.1378(2) 0.45624(17)
H16 H 0.1103 0.1169 0.5380
C20 C 0.2674(2) 0.13609(19) 0.41916(15)
H17 H 0.3536 0.1140 0.4746
C21 C 0.28128(19) 0.16844(16) 0.29593(14)
C22 C 0.42465(18) 0.18127(16) 0.23283(13)
C23 C 0.4591(2) 0.30946(18) 0.22809(16)
H18 H 0.4942 0.2931 0.3105
H19 H 0.5454 0.3202 0.1808
C24 C 0.3225(2) 0.44205(19) 0.17414(18)
C25 C 0.2884(3) 0.5176(2) 0.0544(2)
H20 H 0.2031 0.5984 0.0237
H21 H 0.3498 0.4898 0.0013
C26 C 0.2243(4) 0.4873(3) 0.2574(3)
H22 H 0.1447 0.5737 0.2110
H23 H 0.2890 0.4965 0.3144
H24 H 0.1752 0.4210 0.3010
loop_
_geom_bond_atom_site_label_1
_geom_bond_atom_site_label_2
_geom_bond_site_symmetry_1
_geom_bond_site_symmetry_2
O1 C1 1_555 1_555
O2 H1 1_555 1_555
O3 C15 1_555 1_555
O4 H2 1_555 1_555
C1 C2 1_555 1_555
C2 C3 1_555 1_555
C3 H3 1_555 1_555
C4 C3 1_555 1_555
H4 C4 1_555 1_555
C5 C4 1_555 1_555
H5 C5 1_555 1_555
C6 C5 1_555 1_555
H6 C6 1_555 1_555
C7 C2 1_555 1_555
C8 O4 1_555 1_555
C9 C8 1_555 1_555
H7 C9 1_555 1_555
H8 C9 1_555 1_555
C10 C9 1_555 1_555
C11 C10 1_555 1_555
H9 C11 1_555 1_555
H10 C11 1_555 1_555
C12 C10 1_555 1_555
H11 C12 1_555 1_555
H12 C12 1_555 1_555
H13 C12 1_555 1_555
C13 C1 1_555 1_555
C14 C13 1_555 1_555
C15 C14 1_555 1_555
C16 C15 1_555 1_555
C17 C16 1_555 1_555
H14 C17 1_555 1_555
C18 C17 1_555 1_555
H15 C18 1_555 1_555
C19 C18 1_555 1_555
H16 C19 1_555 1_555
C20 C19 1_555 1_555
H17 C20 1_555 1_555
C21 C16 1_555 1_555
C22 O2 1_555 1_555
C23 C22 1_555 1_555
H18 C23 1_555 1_555
H19 C23 1_555 1_555
C24 C23 1_555 1_555
C25 C24 1_555 1_555
H20 C25 1_555 1_555
H21 C25 1_555 1_555
C26 C24 1_555 1_555
H22 C26 1_555 1_555
H23 C26 1_555 1_555
H24 C26 1_555 1_555
C6 C7 1_555 1_555
C7 C8 1_555 1_555
C8 C13 1_555 1_555
C14 C22 1_555 1_555
C20 C21 1_555 1_555
C21 C22 1_555 1_555

#END
