
#######################################################################
#
#                 Cambridge Crystallographic Data Centre
#                                CCDC 
#
#######################################################################
#
# If this CIF has been generated from an entry in the Cambridge 
# Structural Database, then it will include bibliographic, chemical, 
# crystal, experimental, refinement or atomic coordinate data resulting 
# from the CCDC's data processing and validation procedures.
#
#######################################################################

data_TOLVIB
_chemical_formula_moiety         'C37 H31 Cl1 N2 O6'
_chemical_name_systematic        
"dimethyl 1-benzyl-3'-(4-chlorophenyl)-5-methyl-2-oxo-2'-(2-phenylvinyl)-1,2,2',3'-tetrahydrospiro[indole-3,6'-[1,3]oxazine]-4',5'-dicarboxylate"
_symmetry_cell_setting           monoclinic
_symmetry_space_group_name_H-M   'C 2/c'
_symmetry_Int_Tables_number      15
_space_group_name_Hall           '-C 2yn'
loop_
_symmetry_equiv_pos_site_id
_symmetry_equiv_pos_as_xyz
1 x,y,z
2 -x,y,1/2-z
3 1/2+x,1/2+y,z
4 1/2-x,1/2+y,1/2-z
5 -x,-y,-z
6 x,-y,1/2+z
7 1/2-x,1/2-y,-z
8 1/2+x,1/2-y,1/2+z
_cell_length_a                   27.319(4)
_cell_length_b                   10.2046(13)
_cell_length_c                   25.889(3)
_cell_angle_alpha                90
_cell_angle_beta                 112.435(2)
_cell_angle_gamma                90
_cell_volume                     6671.06
_cell_formula_units_Z            8
loop_
_atom_site_label
_atom_site_type_symbol
_atom_site_fract_x
_atom_site_fract_y
_atom_site_fract_z
C1 C 0.22020(14) 0.3719(4) 0.44120(17)
H1 H 0.2077 0.2869 0.4405
C2 C 0.27075(15) 0.3915(4) 0.44218(18)
H2 H 0.2918 0.3198 0.4422
C3 C 0.28977(16) 0.5159(5) 0.44315(17)
H3 H 0.3237 0.5288 0.4437
C4 C 0.25925(17) 0.6201(5) 0.44334(18)
H4 H 0.2721 0.7047 0.4438
C5 C 0.20855(15) 0.6005(4) 0.44279(16)
H5 H 0.1881 0.6730 0.4435
C6 C 0.18791(13) 0.4770(3) 0.44130(13)
C7 C 0.13295(12) 0.4606(3) 0.43758(13)
H6 H 0.1126 0.5364 0.4309
C8 C 0.10926(12) 0.3518(3) 0.44253(12)
H7 H 0.1292 0.2756 0.4539
C9 C 0.05167(11) 0.3474(3) 0.43055(11)
H8 H 0.0366 0.4349 0.4191
C10 C 0.10388(12) 0.3872(3) 0.56138(13)
H9 H 0.0999 0.4692 0.5446
C11 C 0.13930(15) 0.3697(5) 0.61580(15)
H10 H 0.1596 0.4397 0.6357
C12 C 0.14426(15) 0.2502(5) 0.64011(16)
C13 C 0.11488(15) 0.1456(5) 0.61197(17)
H11 H 0.1182 0.0647 0.6295
C14 C 0.08003(13) 0.1614(3) 0.55701(14)
H12 H 0.0605 0.0905 0.5370
C15 C 0.07456(11) 0.2826(3) 0.53235(12)
C16 C -0.01566(11) 0.2737(3) 0.46128(12)
C17 C -0.03431(11) 0.2589(3) 0.50920(12)
C18 C -0.06668(16) 0.1092(4) 0.55763(16)
H13 H -0.0414 0.1395 0.5928
H14 H -0.0718 0.0165 0.5597
H15 H -0.0997 0.1538 0.5494
C19 C -0.04971(11) 0.2686(3) 0.40681(12)
C20 C -0.10668(12) 0.2597(3) 0.39382(12)
C21 C -0.19042(14) 0.2255(5) 0.32130(17)
H16 H -0.2007 0.1439 0.3326
H17 H -0.2061 0.2328 0.2813
H18 H -0.2023 0.2968 0.3377
C22 C -0.04295(11) 0.1418(3) 0.32377(12)
C23 C -0.02886(11) 0.2683(3) 0.36062(11)
C24 C -0.04650(11) 0.3753(3) 0.31714(11)
C25 C -0.04624(12) 0.5101(3) 0.32187(13)
H19 H -0.0364 0.5489 0.3569
C26 C -0.06069(15) 0.5879(3) 0.27426(15)
C27 C -0.0577(2) 0.7364(4) 0.2790(2)
H20 H -0.0603 0.7628 0.3134
H21 H -0.0863 0.7743 0.2482
H22 H -0.0245 0.7658 0.2783
C28 C -0.07614(16) 0.5266(4) 0.22258(15)
H23 H -0.0859 0.5783 0.1906
C29 C -0.07761(14) 0.3918(3) 0.21666(14)
H24 H -0.0885 0.3527 0.1816
C30 C -0.06240(12) 0.3179(3) 0.26454(12)
C31 C -0.06856(12) 0.0896(3) 0.22339(13)
H25 H -0.0516 0.0069 0.2385
H26 H -0.0514 0.1243 0.1997
C32 C -0.12577(12) 0.0633(3) 0.18776(12)
C33 C -0.14106(17) 0.0340(5) 0.13298(16)
H27 H -0.1159 0.0364 0.1169
C34 C -0.19251(19) 0.0007(5) 0.09986(17)
H28 H -0.2009 -0.0236 0.0628
C35 C -0.22962(17) 0.0031(5) 0.12057(19)
H29 H -0.2647 -0.0139 0.0979
C36 C -0.21585(19) 0.0308(7) 0.1754(2)
H30 H -0.2414 0.0290 0.1910
C37 C -0.16398(17) 0.0618(6) 0.20837(19)
H31 H -0.1554 0.0822 0.2458
Cl1 Cl 0.18806(6) 0.2285(2) 0.70862(6)
N1 N 0.03696(9) 0.3009(2) 0.47640(9)
N2 N -0.05959(10) 0.1799(2) 0.26935(9)
O1 O 0.02865(7) 0.25890(19) 0.38491(8)
O2 O -0.03489(9) 0.3470(2) 0.53924(9)
O3 O -0.04715(9) 0.1360(2) 0.51377(9)
O4 O -0.12822(9) 0.2780(2) 0.42616(10)
O5 O -0.13329(8) 0.2303(2) 0.33977(9)
O6 O -0.03725(9) 0.0299(2) 0.34104(9)
loop_
_geom_bond_atom_site_label_1
_geom_bond_atom_site_label_2
_geom_bond_site_symmetry_1
_geom_bond_site_symmetry_2
C1 H1 1_555 1_555
C2 C1 1_555 1_555
H2 C2 1_555 1_555
C3 C2 1_555 1_555
H3 C3 1_555 1_555
C4 C3 1_555 1_555
H4 C4 1_555 1_555
C5 C4 1_555 1_555
H5 C5 1_555 1_555
C6 C1 1_555 1_555
C7 C6 1_555 1_555
H6 C7 1_555 1_555
C8 C7 1_555 1_555
H7 C8 1_555 1_555
C9 C8 1_555 1_555
H8 C9 1_555 1_555
C10 H9 1_555 1_555
C11 C10 1_555 1_555
H10 C11 1_555 1_555
C12 C11 1_555 1_555
C13 C12 1_555 1_555
H11 C13 1_555 1_555
C14 C13 1_555 1_555
H12 C14 1_555 1_555
C15 C10 1_555 1_555
C16 C17 1_555 1_555
C17 O2 1_555 1_555
C18 H13 1_555 1_555
H14 C18 1_555 1_555
H15 C18 1_555 1_555
C19 C16 1_555 1_555
C20 C19 1_555 1_555
C21 H16 1_555 1_555
H17 C21 1_555 1_555
H18 C21 1_555 1_555
C22 C23 1_555 1_555
C23 C19 1_555 1_555
C24 C23 1_555 1_555
C25 C24 1_555 1_555
H19 C25 1_555 1_555
C26 C25 1_555 1_555
C27 C26 1_555 1_555
H20 C27 1_555 1_555
H21 C27 1_555 1_555
H22 C27 1_555 1_555
C28 C26 1_555 1_555
H23 C28 1_555 1_555
C29 C28 1_555 1_555
H24 C29 1_555 1_555
C30 C24 1_555 1_555
C31 H25 1_555 1_555
H26 C31 1_555 1_555
C32 C31 1_555 1_555
C33 C32 1_555 1_555
H27 C33 1_555 1_555
C34 C33 1_555 1_555
H28 C34 1_555 1_555
C35 C34 1_555 1_555
H29 C35 1_555 1_555
C36 C35 1_555 1_555
H30 C36 1_555 1_555
C37 C32 1_555 1_555
H31 C37 1_555 1_555
Cl1 C12 1_555 1_555
N1 C9 1_555 1_555
N2 C22 1_555 1_555
O1 C9 1_555 1_555
O3 C17 1_555 1_555
O4 C20 1_555 1_555
O5 C20 1_555 1_555
O6 C22 1_555 1_555
C5 C6 1_555 1_555
C14 C15 1_555 1_555
C15 N1 1_555 1_555
C16 N1 1_555 1_555
C18 O3 1_555 1_555
C21 O5 1_555 1_555
C23 O1 1_555 1_555
C29 C30 1_555 1_555
C30 N2 1_555 1_555
C31 N2 1_555 1_555
C36 C37 1_555 1_555

#END
