
#######################################################################
#
#                 Cambridge Crystallographic Data Centre
#                                CCDC 
#
#######################################################################
#
# If this CIF has been generated from an entry in the Cambridge 
# Structural Database, then it will include bibliographic, chemical, 
# crystal, experimental, refinement or atomic coordinate data resulting 
# from the CCDC's data processing and validation procedures.
#
#######################################################################

data_TOLVAT
_chemical_formula_moiety         'C20 H22 N2 O4 S1'
_chemical_name_systematic        
'methyl 2-(((4-methylphenyl)sulfonyl)hydrazono)-1-phenylcyclopentanecarboxylate'
_symmetry_cell_setting           monoclinic
_symmetry_space_group_name_H-M   'P 21'
_symmetry_Int_Tables_number      4
_space_group_name_Hall           'P 2yb'
loop_
_symmetry_equiv_pos_site_id
_symmetry_equiv_pos_as_xyz
1 x,y,z
2 -x,1/2+y,-z
_cell_length_a                   9.7555(3)
_cell_length_b                   9.2402(3)
_cell_length_c                   10.6796(3)
_cell_angle_alpha                90
_cell_angle_beta                 94.071(3)
_cell_angle_gamma                90
_cell_volume                     960.26
_exptl_crystal_colour            'light colorless'
_cell_formula_units_Z            2
loop_
_atom_site_label
_atom_site_type_symbol
_atom_site_fract_x
_atom_site_fract_y
_atom_site_fract_z
S1 S -0.13616(8) -0.25501(10) -0.31118(6)
O1 O -0.0322(3) -0.2475(3) -0.3982(2)
N1 N -0.1303(2) -0.2742(3) -0.0700(2)
C1 C -0.3902(3) -0.6605(4) -0.3954(3)
C2 C -0.1512(3) -0.1494(4) 0.2098(3)
O2 O -0.2077(3) -0.1530(3) 0.3183(2)
N2 N -0.0487(2) -0.2673(4) -0.1740(2)
H1 H 0.0125 -0.3344 -0.1728
O3 O -0.2320(3) -0.1406(3) -0.3020(3)
C3 C -0.2305(3) -0.4165(4) -0.3395(3)
C4 C -0.2696(3) -0.3802(4) 0.1466(3)
C5 C 0.1157(3) -0.3047(5) 0.2022(3)
H2 H 0.1285 -0.2080 0.2365
H3 H 0.1953 -0.3631 0.2280
O4 O -0.1157(4) -0.0402(3) 0.1620(3)
C6 C -0.2814(4) -0.6247(5) -0.4657(3)
H4 H -0.2617 -0.6833 -0.5329
C7 C -0.0158(4) -0.3731(4) 0.2444(3)
H5 H -0.0271 -0.3522 0.3321
H6 H -0.0150 -0.4772 0.2326
C8 C -0.0611(3) -0.2894(4) 0.0344(3)
C9 C -0.2882(5) -0.5148(5) 0.1985(4)
H7 H -0.2146 -0.5620 0.2411
C10 C -0.2015(4) -0.5045(5) -0.4387(3)
H8 H -0.1286 -0.4826 -0.4870
C11 C -0.3374(4) -0.4503(4) -0.2662(3)
H9 H -0.3564 -0.3915 -0.1989
C12 C -0.4760(4) -0.7927(6) -0.4241(4)
H10 H -0.5021 -0.7961 -0.5124
H11 H -0.5569 -0.7889 -0.3780
H12 H -0.4237 -0.8776 -0.4002
C13 C -0.3802(3) -0.3144(5) 0.0840(4)
H13 H -0.3689 -0.2238 0.0482
C14 C -0.4152(3) -0.5712(5) -0.2939(3)
H14 H -0.4863 -0.5944 -0.2438
C15 C -0.2219(5) -0.0162(5) 0.3825(4)
H15 H -0.2689 0.0517 0.3265
H16 H -0.1325 0.0208 0.4088
H17 H -0.2738 -0.0304 0.4546
C16 C -0.1318(3) -0.3013(4) 0.1582(3)
C17 C 0.0926(3) -0.3001(5) 0.0598(3)
H18 H 0.1379 -0.2168 0.0260
H19 H 0.1276 -0.3871 0.0226
C18 C -0.4168(6) -0.5798(6) 0.1871(5)
H20 H -0.4280 -0.6712 0.2214
C19 C -0.5080(4) -0.3794(7) 0.0728(4)
H21 H -0.5812 -0.3332 0.0288
C20 C -0.5269(5) -0.5126(7) 0.1268(5)
H22 H -0.6132 -0.5559 0.1221
loop_
_geom_bond_atom_site_label_1
_geom_bond_atom_site_label_2
_geom_bond_site_symmetry_1
_geom_bond_site_symmetry_2
S1 O1 1_555 1_555
N1 N2 1_555 1_555
C1 C6 1_555 1_555
C2 O2 1_555 1_555
O2 C15 1_555 1_555
N2 S1 1_555 1_555
H1 N2 1_555 1_555
O3 S1 1_555 1_555
C3 S1 1_555 1_555
C4 C9 1_555 1_555
C5 H2 1_555 1_555
H3 C5 1_555 1_555
O4 C2 1_555 1_555
C6 H4 1_555 1_555
C7 C5 1_555 1_555
H5 C7 1_555 1_555
H6 C7 1_555 1_555
C8 N1 1_555 1_555
C9 H7 1_555 1_555
C10 C3 1_555 1_555
H8 C10 1_555 1_555
C11 C3 1_555 1_555
H9 C11 1_555 1_555
C12 C1 1_555 1_555
H10 C12 1_555 1_555
H11 C12 1_555 1_555
H12 C12 1_555 1_555
C13 C4 1_555 1_555
H13 C13 1_555 1_555
C14 C1 1_555 1_555
H14 C14 1_555 1_555
C15 H15 1_555 1_555
H16 C15 1_555 1_555
H17 C15 1_555 1_555
C16 C2 1_555 1_555
C17 C5 1_555 1_555
H18 C17 1_555 1_555
H19 C17 1_555 1_555
C18 C9 1_555 1_555
H20 C18 1_555 1_555
C19 C13 1_555 1_555
H21 C19 1_555 1_555
C20 C18 1_555 1_555
H22 C20 1_555 1_555
C4 C16 1_555 1_555
C6 C10 1_555 1_555
C7 C16 1_555 1_555
C8 C16 1_555 1_555
C8 C17 1_555 1_555
C11 C14 1_555 1_555
C19 C20 1_555 1_555

#END
