
#######################################################################
#
#                 Cambridge Crystallographic Data Centre
#                                CCDC 
#
#######################################################################
#
# If this CIF has been generated from an entry in the Cambridge 
# Structural Database, then it will include bibliographic, chemical, 
# crystal, experimental, refinement or atomic coordinate data resulting 
# from the CCDC's data processing and validation procedures.
#
#######################################################################

data_TOMATB10
_chemical_formula_moiety         'C27 H46 N1 O2 1+,Br1 1-'
_chemical_name_systematic        'Tomatidine hydrobromide'
_chemical_properties_biological  
'derivative of antifungal and cytostatic agent, cholinesterase inhibitor, antihistamine'
_symmetry_cell_setting           orthorhombic
_symmetry_space_group_name_H-M   'P 21 21 21'
_symmetry_Int_Tables_number      19
_space_group_name_Hall           'P 2bc 2ac'
loop_
_symmetry_equiv_pos_site_id
_symmetry_equiv_pos_as_xyz
1 x,y,z
2 -x,1/2-y,1/2+z
3 1/2+x,-y,1/2-z
4 1/2-x,1/2+y,-z
_cell_length_a                   14.07
_cell_length_b                   7.37
_cell_length_c                   24.7
_cell_angle_alpha                90
_cell_angle_beta                 90
_cell_angle_gamma                90
_cell_volume                     2561.29
_chemical_melting_point          281-3deg.C
_cell_formula_units_Z            4
loop_
_atom_site_label
_atom_site_type_symbol
_atom_site_fract_x
_atom_site_fract_y
_atom_site_fract_z
Br1 Br 0.19110 0.13590 0.07670
C1 C 0.66830 -0.41650 0.23320
C2 C 0.71370 -0.23680 0.21450
C3 C 0.82130 -0.42340 0.15020
C4 C 0.85960 -0.45380 0.09230
C5 C 0.90410 -0.26700 0.07210
C6 C 0.82620 -0.11330 0.07230
C7 C 0.86710 0.03550 0.04060
C8 C 0.90180 -0.06680 -0.00700
C9 C 0.92730 -0.26110 0.00890
C10 C 0.99460 -0.21390 0.10720
C11 C 0.79730 -0.19350 0.25390
C12 C 0.61080 -0.40000 0.28840
C13 C 1.03370 -0.30560 -0.00620
C14 C 1.04820 -0.47580 -0.03000
C15 C 1.05040 -0.13180 -0.04620
C16 C 1.03360 -0.16500 -0.10760
C17 C 1.05660 -0.00700 -0.13940
C18 C 1.15890 0.06540 -0.13290
C19 C 1.18530 0.23110 -0.16610
C20 C 1.17660 0.09290 -0.07240
C21 C 0.53860 -0.23560 0.28400
C22 C 0.58290 -0.06480 0.26600
C23 C 0.63320 -0.08260 0.21120
C24 C 0.66970 0.08910 0.18970
C25 C 0.70900 0.06040 0.13160
C26 C 0.78860 -0.07960 0.13130
C27 C 0.74870 -0.26430 0.15460
N1 N 1.15220 -0.06510 -0.03840
O1 O 0.49730 -0.21880 0.33640
O2 O 0.99490 0.01100 -0.02750
loop_
_geom_bond_atom_site_label_1
_geom_bond_atom_site_label_2
_geom_bond_site_symmetry_1
_geom_bond_site_symmetry_2
C1 C2 1_555 1_555
C2 C11 1_555 1_555
C3 C4 1_555 1_555
C4 C5 1_555 1_555
C5 C6 1_555 1_555
C6 C7 1_555 1_555
C7 C8 1_555 1_555
C8 C9 1_555 1_555
C9 C5 1_555 1_555
C10 C5 1_555 1_555
C12 C1 1_555 1_555
C13 C9 1_555 1_555
C14 C13 1_555 1_555
C15 C13 1_555 1_555
C16 C15 1_555 1_555
C17 C16 1_555 1_555
C18 C17 1_555 1_555
C19 C18 1_555 1_555
C20 C18 1_555 1_555
C21 C12 1_555 1_555
C22 C21 1_555 1_555
C23 C2 1_555 1_555
C24 C23 1_555 1_555
C25 C24 1_555 1_555
C26 C6 1_555 1_555
C27 C2 1_555 1_555
N1 C15 1_555 1_555
O1 C21 1_555 1_555
O2 C8 1_555 1_555
C3 C27 1_555 1_555
C15 O2 1_555 1_555
C20 N1 1_555 1_555
C22 C23 1_555 1_555
C25 C26 1_555 1_555
C26 C27 1_555 1_555

#END
