
#######################################################################
#
#                 Cambridge Crystallographic Data Centre
#                                CCDC 
#
#######################################################################
#
# If this CIF has been generated from an entry in the Cambridge 
# Structural Database, then it will include bibliographic, chemical, 
# crystal, experimental, refinement or atomic coordinate data resulting 
# from the CCDC's data processing and validation procedures.
#
#######################################################################

data_TOMPIV
_chemical_name_common            
'6,13-bis(2-(Di-isopropyl(4-(hydroxymethyl)phenyl)silyl)ethynyl)pentacene acetone solvate'
_chemical_formula_moiety         'C52 H54 O2 Si2,C3 H6 O1'
_chemical_name_systematic        
'(6,13-pentacenediylbis(2,1-ethynediyl(di-2-propanylsilanediyl)-4,1-phenylene))dimethanol acetone solvate'
_symmetry_cell_setting           monoclinic
_symmetry_space_group_name_H-M   'P 21/c'
_symmetry_Int_Tables_number      14
_space_group_name_Hall           '-P 2ybc'
loop_
_symmetry_equiv_pos_site_id
_symmetry_equiv_pos_as_xyz
1 x,y,z
2 -x,1/2+y,1/2-z
3 -x,-y,-z
4 x,1/2-y,1/2+z
_cell_length_a                   8.9392(9)
_cell_length_b                   52.448(5)
_cell_length_c                   15.6959(16)
_cell_angle_alpha                90
_cell_angle_beta                 102.5066(16)
_cell_angle_gamma                90
_cell_volume                     7184.3
_exptl_crystal_colour            blue
_exptl_crystal_description       prism
_cell_formula_units_Z            6
_exptl_crystal_recrystallization_method dichloromethane/acetone
loop_
_atom_site_label
_atom_site_type_symbol
_atom_site_fract_x
_atom_site_fract_y
_atom_site_fract_z
Si1 Si 0.01197(8) 0.251842(14) 0.75881(5)
Si2 Si -0.00245(8) 0.411224(13) 0.22766(5)
O1 O -0.4965(3) 0.15834(6) 0.56107(16)
H1 H -0.4119 0.1571 0.5462
O2 O 0.5290(6) 0.49874(10) 0.4406(2)
H2 H 0.6226 0.4959 0.4602
C1 C 0.0010(3) 0.31285(4) 0.55910(15)
C2 C -0.1163(3) 0.33145(4) 0.54112(15)
C3 C -0.2372(3) 0.33191(5) 0.58575(16)
H3 H -0.2398 0.3194 0.6292
C4 C -0.3524(3) 0.35006(5) 0.56817(16)
C5 C -0.4750(3) 0.35108(5) 0.61422(17)
H4 H -0.4779 0.3390 0.6591
C6 C -0.5864(3) 0.36896(6) 0.59452(19)
H5 H -0.6663 0.3694 0.6258
C7 C -0.5849(3) 0.38711(6) 0.5276(2)
H6 H -0.6644 0.3994 0.5143
C8 C -0.4717(3) 0.38710(5) 0.48254(19)
H7 H -0.4727 0.3994 0.4380
C9 C -0.3502(3) 0.36869(5) 0.50142(16)
C10 C -0.2310(3) 0.36865(5) 0.45747(16)
H8 H -0.2306 0.3810 0.4134
C11 C -0.1114(3) 0.35086(4) 0.47625(15)
C12 C 0.0128(3) 0.35120(5) 0.43264(15)
C13 C 0.1322(3) 0.33305(5) 0.45235(15)
C14 C 0.2550(3) 0.33278(5) 0.40918(15)
H9 H 0.2582 0.3453 0.3657
C15 C 0.3712(3) 0.31482(5) 0.42838(15)
C16 C 0.4953(3) 0.31389(5) 0.38392(17)
H10 H 0.5001 0.3261 0.3398
C17 C 0.6059(3) 0.29585(6) 0.40402(18)
H11 H 0.6860 0.2954 0.3730
C18 C 0.6037(3) 0.27766(6) 0.47084(19)
H12 H 0.6830 0.2653 0.4846
C19 C 0.4891(3) 0.27779(5) 0.51515(18)
H13 H 0.4890 0.2655 0.5597
C20 C 0.3685(3) 0.29614(5) 0.49554(16)
C21 C 0.2477(3) 0.29613(5) 0.53781(15)
H14 H 0.2465 0.2838 0.5820
C22 C 0.1267(3) 0.31380(4) 0.51739(15)
C23 C -0.0053(3) 0.29307(5) 0.62074(16)
C24 C -0.0066(3) 0.27584(5) 0.67159(17)
C25 C -0.0379(3) 0.26867(5) 0.85502(18)
H15 H 0.0268 0.2844 0.8663
C26 C -0.0019(4) 0.25250(7) 0.9379(2)
H16 H -0.0296 0.2620 0.9861
H17 H 0.1078 0.2485 0.9526
H18 H -0.0609 0.2366 0.9283
C27 C -0.2055(4) 0.27718(7) 0.8350(2)
H19 H -0.2280 0.2859 0.8861
H20 H -0.2721 0.2622 0.8209
H21 H -0.2237 0.2889 0.7852
C28 C 0.2137(3) 0.23930(5) 0.78035(19)
H22 H 0.2267 0.2274 0.8311
C29 C 0.3307(4) 0.26081(7) 0.8053(3)
H23 H 0.4345 0.2537 0.8161
H24 H 0.3145 0.2693 0.8581
H25 H 0.3180 0.2732 0.7575
C30 C 0.2454(4) 0.22433(7) 0.7028(2)
H26 H 0.3513 0.2181 0.7165
H27 H 0.2302 0.2354 0.6514
H28 H 0.1750 0.2098 0.6906
C31 C -0.1276(3) 0.22544(5) 0.72136(17)
C32 C -0.1086(3) 0.20108(5) 0.75863(17)
H29 H -0.0184 0.1975 0.8014
C33 C -0.2177(3) 0.18211(5) 0.73485(18)
H30 H -0.2007 0.1658 0.7617
C34 C -0.3507(3) 0.18648(5) 0.67278(18)
C35 C -0.3705(3) 0.21036(6) 0.6332(2)
H31 H -0.4597 0.2137 0.5894
C36 C -0.2613(3) 0.22933(6) 0.65717(19)
H32 H -0.2777 0.2455 0.6292
C37 C -0.4717(4) 0.16609(6) 0.6491(2)
H33 H -0.4408 0.1511 0.6871
H34 H -0.5693 0.1726 0.6609
C38 C 0.0156(3) 0.37055(5) 0.36848(16)
C39 C 0.0141(3) 0.38702(5) 0.31430(17)
C40 C -0.2049(3) 0.42322(5) 0.20368(19)
H35 H -0.2158 0.4357 0.1547
C41 C -0.3181(4) 0.40143(7) 0.1734(3)
H36 H -0.4229 0.4081 0.1613
H37 H -0.3067 0.3885 0.2193
H38 H -0.2969 0.3938 0.1202
C42 C -0.2441(4) 0.43704(7) 0.2817(2)
H39 H -0.3505 0.4430 0.2665
H40 H -0.1756 0.4517 0.2973
H41 H -0.2312 0.4253 0.3314
C43 C 0.0490(3) 0.39522(6) 0.13083(18)
H42 H -0.0173 0.3798 0.1171
C44 C 0.0161(4) 0.41246(7) 0.0496(2)
H43 H 0.0445 0.4035 0.0006
H44 H 0.0761 0.4282 0.0618
H45 H -0.0933 0.4167 0.0346
C45 C 0.2161(4) 0.38620(8) 0.1504(2)
H46 H 0.2384 0.3780 0.0984
H47 H 0.2325 0.3740 0.1987
H48 H 0.2842 0.4009 0.1666
C46 C 0.1380(3) 0.43711(5) 0.26902(17)
C47 C 0.2676(3) 0.43231(5) 0.33437(19)
H49 H 0.2800 0.4160 0.3610
C48 C 0.3789(3) 0.45073(6) 0.3616(2)
H50 H 0.4656 0.4469 0.4065
C49 C 0.3651(3) 0.47463(5) 0.32403(19)
C50 C 0.2356(3) 0.48014(5) 0.25995(19)
H51 H 0.2233 0.4966 0.2344
C51 C 0.1241(3) 0.46162(5) 0.23303(18)
H52 H 0.0363 0.4657 0.1891
C52 C 0.4923(4) 0.49412(6) 0.3498(2)
H53 H 0.5849 0.4879 0.3312
H54 H 0.4604 0.5103 0.3188
Si3 Si 0.00988(8) 0.574163(15) 1.28367(5)
O3 O -0.3180(5) 0.68200(6) 1.0815(2)
H55 H -0.3691 0.6770 1.0330
C53 C -0.0048(3) 0.51745(4) 1.06882(15)
C54 C -0.1237(3) 0.49928(5) 1.04450(15)
C55 C -0.2474(3) 0.49761(5) 1.08701(16)
H56 H -0.2508 0.5091 1.1335
C56 C -0.3634(3) 0.47998(5) 1.06352(16)
C57 C -0.4879(3) 0.47789(6) 1.10728(17)
H57 H -0.4929 0.4892 1.1539
C58 C -0.5983(3) 0.46010(6) 1.08329(19)
H58 H -0.6793 0.4590 1.1135
C59 C -0.5946(4) 0.44302(7) 1.0133(2)
H59 H -0.6730 0.4306 0.9973
C60 C -0.4801(3) 0.44437(6) 0.96929(19)
H60 H -0.4798 0.4330 0.9223
C61 C -0.3598(3) 0.46268(5) 0.99248(16)
C62 C -0.2394(3) 0.46402(5) 0.95001(16)
H61 H -0.2377 0.4526 0.9033
C63 C 0.1196(3) 0.51821(5) 1.02602(15)
C64 C -0.0090(3) 0.53520(5) 1.13758(16)
C65 C -0.0080(3) 0.55059(5) 1.19483(18)
C66 C -0.0708(3) 0.55980(6) 1.37374(19)
H62 H -0.0158 0.5434 1.3910
C67 C -0.0414(4) 0.57727(7) 1.4544(2)
H63 H -0.0844 0.5694 1.5005
H64 H 0.0692 0.5797 1.4754
H65 H -0.0902 0.5938 1.4386
C68 C -0.2411(4) 0.55378(7) 1.3442(2)
H66 H -0.2786 0.5464 1.3929
H67 H -0.2976 0.5695 1.3251
H68 H -0.2564 0.5416 1.2957
C69 C 0.2183(3) 0.58165(6) 1.3217(2)
H69 H 0.2271 0.5954 1.3667
C70 C 0.3069(4) 0.55847(8) 1.3659(4)
H70 H 0.4155 0.5629 1.3851
H71 H 0.2659 0.5534 1.4164
H72 H 0.2960 0.5443 1.3243
C71 C 0.2881(5) 0.59206(11) 1.2476(3)
H73 H 0.3970 0.5958 1.2701
H74 H 0.2773 0.5793 1.2009
H75 H 0.2347 0.6077 1.2245
C72 C -0.1038(3) 0.60299(5) 1.24116(17)
C73 C -0.0698(4) 0.62685(5) 1.28006(18)
H76 H 0.0164 0.6285 1.3272
C74 C -0.1584(4) 0.64817(6) 1.25181(19)
H77 H -0.1316 0.6641 1.2796
C75 C -0.2847(5) 0.64647(6) 1.1839(2)
C76 C -0.3215(5) 0.62285(7) 1.1450(2)
H78 H -0.4088 0.6213 1.0985
C77 C -0.2325(4) 0.60155(6) 1.1731(2)
H79 H -0.2600 0.5856 1.1452
C78 C -0.3764(6) 0.66985(7) 1.1517(3)
H80 H -0.3706 0.6820 1.2005
H81 H -0.4851 0.6651 1.1300
Si3B Si -0.00988(8) 0.425837(15) 0.71633(5)
O3B O 0.3180(5) 0.31800(6) 0.9185(2)
H55B H 0.3691 0.3230 0.9670
C53B C 0.0048(3) 0.48255(4) 0.93118(15)
C54B C 0.1237(3) 0.50072(5) 0.95550(15)
C55B C 0.2474(3) 0.50239(5) 0.91299(16)
H56B H 0.2508 0.4909 0.8665
C56B C 0.3634(3) 0.52002(5) 0.93648(16)
C57B C 0.4879(3) 0.52211(6) 0.89272(17)
H57B H 0.4929 0.5108 0.8461
C58B C 0.5983(3) 0.53990(6) 0.91671(19)
H58B H 0.6793 0.5410 0.8865
C59B C 0.5946(4) 0.55698(7) 0.9867(2)
H59B H 0.6730 0.5694 1.0027
C60B C 0.4801(3) 0.55563(6) 1.03071(19)
H60B H 0.4798 0.5670 1.0777
C61B C 0.3598(3) 0.53732(5) 1.00752(16)
C62B C 0.2394(3) 0.53598(5) 1.04999(16)
H61B H 0.2377 0.5474 1.0967
C63B C -0.1196(3) 0.48179(5) 0.97398(15)
C64B C 0.0090(3) 0.46480(5) 0.86242(16)
C65B C 0.0080(3) 0.44941(5) 0.80517(18)
C66B C 0.0708(3) 0.44020(6) 0.62626(19)
H62B H 0.0158 0.4566 0.6090
C67B C 0.0414(4) 0.42273(7) 0.5456(2)
H63B H 0.0844 0.4306 0.4995
H64B H -0.0692 0.4203 0.5246
H65B H 0.0902 0.4062 0.5614
C68B C 0.2411(4) 0.44622(7) 0.6558(2)
H66B H 0.2786 0.4536 0.6071
H67B H 0.2976 0.4305 0.6749
H68B H 0.2564 0.4584 0.7043
C69B C -0.2183(3) 0.41835(6) 0.6783(2)
H69B H -0.2271 0.4046 0.6333
C70B C -0.3069(4) 0.44153(8) 0.6341(4)
H70B H -0.4155 0.4371 0.6149
H71B H -0.2659 0.4466 0.5836
H72B H -0.2960 0.4557 0.6757
C71B C -0.2881(5) 0.40794(11) 0.7524(3)
H73B H -0.3970 0.4042 0.7299
H74B H -0.2773 0.4207 0.7991
H75B H -0.2347 0.3923 0.7755
C72B C 0.1038(3) 0.39701(5) 0.75884(17)
C73B C 0.0698(4) 0.37315(5) 0.71994(18)
H76B H -0.0164 0.3715 0.6728
C74B C 0.1584(4) 0.35183(6) 0.74819(19)
H77B H 0.1316 0.3359 0.7204
C75B C 0.2847(5) 0.35353(6) 0.8161(2)
C76B C 0.3215(5) 0.37715(7) 0.8550(2)
H78B H 0.4088 0.3787 0.9015
C77B C 0.2325(4) 0.39845(6) 0.8269(2)
H79B H 0.2600 0.4144 0.8548
C78B C 0.3764(6) 0.33015(7) 0.8483(3)
H80B H 0.3706 0.3180 0.7995
H81B H 0.4851 0.3349 0.8700
O4 O -0.2391(5) 0.15005(8) 0.4921(2)
C79 C -0.0252(7) 0.17587(10) 0.5412(4)
H82 H -0.0911 0.1873 0.5664
H83 H 0.0401 0.1860 0.5115
H84 H 0.0392 0.1659 0.5879
C80 C -0.1202(7) 0.15872(9) 0.4787(3)
C81 C -0.0697(10) 0.15243(12) 0.3987(4)
H85 H -0.1455 0.1413 0.3622
H86 H 0.0294 0.1437 0.4135
H87 H -0.0590 0.1681 0.3667
O5? O 0.8281(5) 0.48670(10) 0.4604(3)
C82? C 0.9932(7) 0.51161(15) 0.5635(4)
H88? H 1.0665 0.5247 0.5550
H89? H 1.0379 0.5013 0.6149
H90? H 0.8990 0.5198 0.5723
C83? C 0.9576(5) 0.49517(15) 0.4864(4)
C84? C 1.0813(6) 0.48815(17) 0.4432(5)
H91? H 1.0441 0.4753 0.3983
H92? H 1.1674 0.4812 0.4864
H93? H 1.1152 0.5033 0.4161
H94? H 0.5551 0.4816 0.4636
H95? H 0.5461 0.4959 0.3013
H96? H 0.4459 0.5108 0.3580
O6? O 0.6006(5) 0.48784(10) 0.4270(3)
loop_
_geom_bond_atom_site_label_1
_geom_bond_atom_site_label_2
_geom_bond_site_symmetry_1
_geom_bond_site_symmetry_2
Si1 C24 1_555 1_555
Si2 C39 1_555 1_555
O1 H1 1_555 1_555
O2 H2 1_555 1_555
C1 C2 1_555 1_555
C2 C3 1_555 1_555
C3 H3 1_555 1_555
C4 C3 1_555 1_555
C5 C4 1_555 1_555
H4 C5 1_555 1_555
C6 C5 1_555 1_555
H5 C6 1_555 1_555
C7 C6 1_555 1_555
H6 C7 1_555 1_555
C8 C7 1_555 1_555
H7 C8 1_555 1_555
C9 C4 1_555 1_555
C10 C9 1_555 1_555
H8 C10 1_555 1_555
C11 C2 1_555 1_555
C12 C11 1_555 1_555
C13 C12 1_555 1_555
C14 C13 1_555 1_555
H9 C14 1_555 1_555
C15 C14 1_555 1_555
C16 C15 1_555 1_555
H10 C16 1_555 1_555
C17 C16 1_555 1_555
H11 C17 1_555 1_555
C18 C17 1_555 1_555
H12 C18 1_555 1_555
C19 C18 1_555 1_555
H13 C19 1_555 1_555
C20 C15 1_555 1_555
C21 C20 1_555 1_555
H14 C21 1_555 1_555
C22 C1 1_555 1_555
C23 C1 1_555 1_555
C24 C23 1_555 1_555
C25 Si1 1_555 1_555
H15 C25 1_555 1_555
C26 C25 1_555 1_555
H16 C26 1_555 1_555
H17 C26 1_555 1_555
H18 C26 1_555 1_555
C27 C25 1_555 1_555
H19 C27 1_555 1_555
H20 C27 1_555 1_555
H21 C27 1_555 1_555
C28 Si1 1_555 1_555
H22 C28 1_555 1_555
C29 C28 1_555 1_555
H23 C29 1_555 1_555
H24 C29 1_555 1_555
H25 C29 1_555 1_555
C30 C28 1_555 1_555
H26 C30 1_555 1_555
H27 C30 1_555 1_555
H28 C30 1_555 1_555
C31 Si1 1_555 1_555
C32 C31 1_555 1_555
H29 C32 1_555 1_555
C33 C32 1_555 1_555
H30 C33 1_555 1_555
C34 C33 1_555 1_555
C35 C34 1_555 1_555
H31 C35 1_555 1_555
C36 C31 1_555 1_555
H32 C36 1_555 1_555
C37 O1 1_555 1_555
H33 C37 1_555 1_555
H34 C37 1_555 1_555
C38 C12 1_555 1_555
C39 C38 1_555 1_555
C40 Si2 1_555 1_555
H35 C40 1_555 1_555
C41 C40 1_555 1_555
H36 C41 1_555 1_555
H37 C41 1_555 1_555
H38 C41 1_555 1_555
C42 C40 1_555 1_555
H39 C42 1_555 1_555
H40 C42 1_555 1_555
H41 C42 1_555 1_555
C43 Si2 1_555 1_555
H42 C43 1_555 1_555
C44 C43 1_555 1_555
H43 C44 1_555 1_555
H44 C44 1_555 1_555
H45 C44 1_555 1_555
C45 C43 1_555 1_555
H46 C45 1_555 1_555
H47 C45 1_555 1_555
H48 C45 1_555 1_555
C46 Si2 1_555 1_555
C47 C46 1_555 1_555
H49 C47 1_555 1_555
C48 C47 1_555 1_555
H50 C48 1_555 1_555
C49 C48 1_555 1_555
C50 C49 1_555 1_555
H51 C50 1_555 1_555
C51 C46 1_555 1_555
H52 C51 1_555 1_555
C52 O2 1_555 1_555
H53 C52 1_555 1_555
H54 C52 1_555 1_555
Si3 C65 1_555 1_555
O3 H55 1_555 1_555
C53 C54 1_555 1_555
C54 C55 1_555 1_555
C55 H56 1_555 1_555
C56 C55 1_555 1_555
C57 C56 1_555 1_555
H57 C57 1_555 1_555
C58 C57 1_555 1_555
H58 C58 1_555 1_555
C59 C58 1_555 1_555
H59 C59 1_555 1_555
C60 C59 1_555 1_555
H60 C60 1_555 1_555
C61 C56 1_555 1_555
C62 C61 1_555 1_555
H61 C62 1_555 1_555
C63 C53 1_555 1_555
C64 C53 1_555 1_555
C65 C64 1_555 1_555
C66 Si3 1_555 1_555
H62 C66 1_555 1_555
C67 C66 1_555 1_555
H63 C67 1_555 1_555
H64 C67 1_555 1_555
H65 C67 1_555 1_555
C68 C66 1_555 1_555
H66 C68 1_555 1_555
H67 C68 1_555 1_555
H68 C68 1_555 1_555
C69 Si3 1_555 1_555
H69 C69 1_555 1_555
C70 C69 1_555 1_555
H70 C70 1_555 1_555
H71 C70 1_555 1_555
H72 C70 1_555 1_555
C71 C69 1_555 1_555
H73 C71 1_555 1_555
H74 C71 1_555 1_555
H75 C71 1_555 1_555
C72 Si3 1_555 1_555
C73 C72 1_555 1_555
H76 C73 1_555 1_555
C74 C73 1_555 1_555
H77 C74 1_555 1_555
C75 C74 1_555 1_555
C76 C75 1_555 1_555
H78 C76 1_555 1_555
C77 C72 1_555 1_555
H79 C77 1_555 1_555
C78 O3 1_555 1_555
H80 C78 1_555 1_555
H81 C78 1_555 1_555
O4 C80 1_555 1_555
C79 H82 1_555 1_555
H83 C79 1_555 1_555
H84 C79 1_555 1_555
C80 C79 1_555 1_555
C81 C80 1_555 1_555
H85 C81 1_555 1_555
H86 C81 1_555 1_555
H87 C81 1_555 1_555
Si3B C65B 1_555 1_555
O3B H55B 1_555 1_555
C53B C54B 1_555 1_555
C54B C63 1_555 1_555
C55B C54B 1_555 1_555
H56B C55B 1_555 1_555
C56B C55B 1_555 1_555
C57B C56B 1_555 1_555
H57B C57B 1_555 1_555
C58B C57B 1_555 1_555
H58B C58B 1_555 1_555
C59B C58B 1_555 1_555
H59B C59B 1_555 1_555
C60B C59B 1_555 1_555
H60B C60B 1_555 1_555
C61B C56B 1_555 1_555
C62B C63 1_555 1_555
H61B C62B 1_555 1_555
C63B C54 1_555 1_555
C64B C53B 1_555 1_555
C65B C64B 1_555 1_555
C66B Si3B 1_555 1_555
H62B C66B 1_555 1_555
C67B C66B 1_555 1_555
H63B C67B 1_555 1_555
H64B C67B 1_555 1_555
H65B C67B 1_555 1_555
C68B C66B 1_555 1_555
H66B C68B 1_555 1_555
H67B C68B 1_555 1_555
H68B C68B 1_555 1_555
C69B Si3B 1_555 1_555
H69B C69B 1_555 1_555
C70B C69B 1_555 1_555
H70B C70B 1_555 1_555
H71B C70B 1_555 1_555
H72B C70B 1_555 1_555
C71B C69B 1_555 1_555
H73B C71B 1_555 1_555
H74B C71B 1_555 1_555
H75B C71B 1_555 1_555
C72B Si3B 1_555 1_555
C73B C72B 1_555 1_555
H76B C73B 1_555 1_555
C74B C73B 1_555 1_555
H77B C74B 1_555 1_555
C75B C74B 1_555 1_555
C76B C75B 1_555 1_555
H78B C76B 1_555 1_555
C77B C72B 1_555 1_555
H79B C77B 1_555 1_555
C78B O3B 1_555 1_555
H80B C78B 1_555 1_555
H81B C78B 1_555 1_555
C8 C9 1_555 1_555
C10 C11 1_555 1_555
C13 C22 1_555 1_555
C19 C20 1_555 1_555
C21 C22 1_555 1_555
C34 C37 1_555 1_555
C35 C36 1_555 1_555
C49 C52 1_555 1_555
C50 C51 1_555 1_555
C60 C61 1_555 1_555
C62 C63B 1_555 1_555
C75 C78 1_555 1_555
C76 C77 1_555 1_555
C53B C63B 1_555 1_555
C60B C61B 1_555 1_555
C61B C62B 1_555 1_555
C75B C78B 1_555 1_555
C76B C77B 1_555 1_555

#END
