
#######################################################################
#
#                 Cambridge Crystallographic Data Centre
#                                CCDC 
#
#######################################################################
#
# If this CIF has been generated from an entry in the Cambridge 
# Structural Database, then it will include bibliographic, chemical, 
# crystal, experimental, refinement or atomic coordinate data resulting 
# from the CCDC's data processing and validation procedures.
#
#######################################################################

data_TOMPOC
_chemical_formula_moiety         'C18 H10 N2 O3 S3,C2 H6 O1 S1'
_chemical_name_systematic        
'4-((Z)-5-((Z)-2-Cyano-3-(2-thienyl)prop-2-en-1-ylidene)-4-oxo-2-thioxo-1,3-thiazolidin-3-yl)benzoic acid dimethyl sulfoxide solvate'
_symmetry_cell_setting           triclinic
_symmetry_space_group_name_H-M   'P -1'
_symmetry_Int_Tables_number      2
_space_group_name_Hall           '-P 1'
loop_
_symmetry_equiv_pos_site_id
_symmetry_equiv_pos_as_xyz
1 x,y,z
2 -x,-y,-z
_cell_length_a                   8.6855(5)
_cell_length_b                   9.9583(6)
_cell_length_c                   12.7372(7)
_cell_angle_alpha                100.7990(10)
_cell_angle_beta                 90.5890(10)
_cell_angle_gamma                100.0060(10)
_cell_volume                     1064.66
_exptl_crystal_description       block
_cell_formula_units_Z            2
loop_
_atom_site_label
_atom_site_type_symbol
_atom_site_fract_x
_atom_site_fract_y
_atom_site_fract_z
S1 S 0.31404(5) 0.68741(5) 0.36960(4)
S2 S 0.89461(6) 0.41356(6) 0.38095(4)
S3 S 0.04841(7) 0.83543(7) 0.41073(4)
O1 O -0.31602(16) 1.02233(13) -0.01840(11)
N1 N 0.14193(16) 0.72729(15) 0.21698(11)
O2 O 0.25089(15) 0.62442(14) 0.06569(10)
O3 O -0.39337(18) 0.80330(15) -0.10197(12)
C1 C 0.36066(19) 0.62218(18) 0.23878(13)
C2 C 0.02216(19) 0.77056(17) 0.15868(13)
C3 C 0.5972(2) 0.51345(18) 0.26287(14)
C4 C -0.20107(19) 0.85005(17) 0.03953(13)
C5 C 0.1571(2) 0.75445(19) 0.32647(14)
C6 C 0.4734(2) 0.55101(18) 0.20408(14)
H1 H 0.4717 0.5209 0.1303
C7 C -0.0840(2) 0.67075(18) 0.09318(14)
H2 H -0.0807 0.5771 0.0891
C8 C 0.8304(2) 0.39081(17) 0.24894(14)
C9 C 0.25114(19) 0.65479(17) 0.16175(14)
C10 C -0.0945(2) 0.94910(18) 0.10690(14)
H3 H -0.0984 1.0428 0.1120
C11 C 0.0176(2) 0.90988(18) 0.16667(15)
H4 H 0.0893 0.9767 0.2118
C12 C 0.6941(2) 0.43290(18) 0.21093(14)
H5 H 0.6676 0.3994 0.1387
C13 C -0.3147(2) 0.88848(19) -0.03346(14)
C14 C -0.1956(2) 0.71070(18) 0.03334(15)
H6 H -0.2674 0.6436 -0.0113
C15 C 0.9335(2) 0.32916(18) 0.18314(15)
H7 H 0.9192 0.3068 0.1090
N2 N 0.6419(2) 0.6200(3) 0.46305(15)
C16 C 1.0614(2) 0.3035(2) 0.23848(16)
H8 H 1.1421 0.2641 0.2052
C17 C 1.0553(2) 0.3420(2) 0.34508(17)
H9 H 1.1304 0.3308 0.3938
C18 C 0.6218(2) 0.5714(2) 0.37504(16)
H10 H -0.375(3) 1.038(2) -0.074(2)
S4 S 0.57415(6) 0.04378(5) 0.25028(4)
O4 O 0.45757(17) -0.07316(14) 0.18640(11)
C19 C 0.4648(3) 0.1382(3) 0.3452(2)
H11 H 0.3998 0.1855 0.3089
H12 H 0.5352 0.2050 0.3958
H13 H 0.4004 0.0753 0.3821
C20 C 0.6711(3) -0.0346(3) 0.3404(2)
H14 H 0.5958 -0.0771 0.3843
H15 H 0.7468 0.0352 0.3849
H16 H 0.7231 -0.1039 0.3004
loop_
_geom_bond_atom_site_label_1
_geom_bond_atom_site_label_2
_geom_bond_site_symmetry_1
_geom_bond_site_symmetry_2
S1 C1 1_555 1_555
S2 C8 1_555 1_555
S3 C5 1_555 1_555
O1 C13 1_555 1_555
N1 C2 1_555 1_555
O2 C9 1_555 1_555
O3 C13 1_555 1_555
C1 C6 1_555 1_555
C2 C7 1_555 1_555
C3 C6 1_555 1_555
C4 C10 1_555 1_555
C5 S1 1_555 1_555
C6 H1 1_555 1_555
C7 H2 1_555 1_555
C8 C12 1_555 1_555
C9 N1 1_555 1_555
C10 H3 1_555 1_555
C11 C2 1_555 1_555
H4 C11 1_555 1_555
C12 C3 1_555 1_555
H5 C12 1_555 1_555
C13 C4 1_555 1_555
C14 C4 1_555 1_555
H6 C14 1_555 1_555
C15 C8 1_555 1_555
H7 C15 1_555 1_555
N2 C18 1_555 1_555
C16 C15 1_555 1_555
H8 C16 1_555 1_555
C17 S2 1_555 1_555
H9 C17 1_555 1_555
C18 C3 1_555 1_555
H10 O1 1_555 1_555
S4 O4 1_555 1_555
C19 S4 1_555 1_555
H11 C19 1_555 1_555
H12 C19 1_555 1_555
H13 C19 1_555 1_555
C20 S4 1_555 1_555
H14 C20 1_555 1_555
H15 C20 1_555 1_555
H16 C20 1_555 1_555
N1 C5 1_555 1_555
C1 C9 1_555 1_555
C7 C14 1_555 1_555
C10 C11 1_555 1_555
C16 C17 1_555 1_555

#END
