
#######################################################################
#
#                 Cambridge Crystallographic Data Centre
#                                CCDC 
#
#######################################################################
#
# If this CIF has been generated from an entry in the Cambridge 
# Structural Database, then it will include bibliographic, chemical, 
# crystal, experimental, refinement or atomic coordinate data resulting 
# from the CCDC's data processing and validation procedures.
#
#######################################################################

data_TOMRAP
_chemical_name_common            
trans-beta-(alpha-Furoyl)-gamma-(4-methoxyphenyl)-gamma-butyrolactone
_chemical_formula_moiety         'C16 H14 O5'
_chemical_name_systematic        
trans-4-(2-Furoyl)-5-(4-methoxyphenyl)dihydro-2(3H)-furanone
_symmetry_cell_setting           monoclinic
_symmetry_space_group_name_H-M   'P 21/n'
_symmetry_Int_Tables_number      14
_space_group_name_Hall           '-P 2yn'
loop_
_symmetry_equiv_pos_site_id
_symmetry_equiv_pos_as_xyz
1 x,y,z
2 1/2-x,1/2+y,1/2-z
3 -x,-y,-z
4 1/2+x,1/2-y,1/2+z
_cell_length_a                   9.6580(12)
_cell_length_b                   5.6446(7)
_cell_length_c                   25.348(3)
_cell_angle_alpha                90
_cell_angle_beta                 91.452(2)
_cell_angle_gamma                90
_cell_volume                     1381.42
_exptl_crystal_colour            colorless
_chemical_melting_point          '108.8-109.1 deg.C'
_cell_formula_units_Z            4
loop_
_atom_site_label
_atom_site_type_symbol
_atom_site_fract_x
_atom_site_fract_y
_atom_site_fract_z
C1 C 0.4959(2) 0.3683(4) 0.08986(8)
C2 C 0.32134(17) 0.1764(3) 0.13425(6)
H1 H 0.3555 0.0205 0.1455
C3 C 0.28347(16) 0.1673(3) 0.07445(6)
H2 H 0.2171 0.2935 0.0656
C4 C 0.42127(18) 0.2212(3) 0.04976(7)
H3 H 0.4718 0.0765 0.0428
H4 H 0.4080 0.3077 0.0170
C5 C 0.22227(18) -0.0714(3) 0.05853(6)
C6 C 0.07352(17) -0.0981(3) 0.06052(6)
C7 C -0.03068(18) 0.0422(4) 0.07577(7)
H5 H -0.0231 0.1970 0.0881
C8 C -0.1543(2) -0.0917(4) 0.06946(7)
H6 H -0.2435 -0.0420 0.0769
C9 C -0.1175(2) -0.3027(4) 0.05085(8)
H7 H -0.1789 -0.4254 0.0430
C10 C 0.20889(17) 0.2519(3) 0.16985(6)
C11 C 0.16583(18) 0.1076(3) 0.21010(6)
H8 H 0.2104 -0.0364 0.2159
C12 C 0.05768(19) 0.1715(3) 0.24216(7)
H9 H 0.0296 0.0706 0.2688
C13 C -0.00775(19) 0.3863(4) 0.23407(7)
C14 C 0.03499(19) 0.5340(3) 0.19391(7)
H10 H -0.0093 0.6783 0.1881
C15 C 0.14204(19) 0.4683(3) 0.16279(7)
H11 H 0.1707 0.5703 0.1364
C16 C -0.1608(2) 0.3322(6) 0.30574(9)
H12 H -0.1933 0.1822 0.2925
H13 H -0.2352 0.4131 0.3225
H14 H -0.0862 0.3069 0.3309
O1 O 0.43553(13) 0.3461(3) 0.13726(5)
O2 O 0.59574(16) 0.4912(3) 0.08459(7)
O3 O -0.11307(15) 0.4718(3) 0.26319(6)
O4 O 0.29648(13) -0.2351(2) 0.04575(6)
O5 O 0.02088(13) -0.3147(2) 0.04494(5)
loop_
_geom_bond_atom_site_label_1
_geom_bond_atom_site_label_2
_geom_bond_site_symmetry_1
_geom_bond_site_symmetry_2
C1 C4 1_555 1_555
C2 H1 1_555 1_555
C3 C2 1_555 1_555
H2 C3 1_555 1_555
C4 C3 1_555 1_555
H3 C4 1_555 1_555
H4 C4 1_555 1_555
C5 C3 1_555 1_555
C6 C5 1_555 1_555
C7 C6 1_555 1_555
H5 C7 1_555 1_555
C8 C7 1_555 1_555
H6 C8 1_555 1_555
C9 C8 1_555 1_555
H7 C9 1_555 1_555
C10 C2 1_555 1_555
C11 C10 1_555 1_555
H8 C11 1_555 1_555
C12 C11 1_555 1_555
H9 C12 1_555 1_555
C13 C12 1_555 1_555
C14 C13 1_555 1_555
H10 C14 1_555 1_555
C15 C10 1_555 1_555
H11 C15 1_555 1_555
C16 H12 1_555 1_555
H13 C16 1_555 1_555
H14 C16 1_555 1_555
O1 C1 1_555 1_555
O2 C1 1_555 1_555
O3 C13 1_555 1_555
O4 C5 1_555 1_555
O5 C6 1_555 1_555
C2 O1 1_555 1_555
C9 O5 1_555 1_555
C14 C15 1_555 1_555
C16 O3 1_555 1_555

#END
