
#######################################################################
#
#                 Cambridge Crystallographic Data Centre
#                                CCDC 
#
#######################################################################
#
# If this CIF has been generated from an entry in the Cambridge 
# Structural Database, then it will include bibliographic, chemical, 
# crystal, experimental, refinement or atomic coordinate data resulting 
# from the CCDC's data processing and validation procedures.
#
#######################################################################

data_TOMTEV
_chemical_name_common            
'21-Phenylethynyl-N-fused-5,10,15,20-tetraphenylporphyrin chloroform solvate'
_chemical_formula_moiety         'C52 H32 N4,C1 H1 Cl3'
_chemical_name_systematic        
'1^3^-phenylethynyl-1^4^,2,4,6-tetraphenyl-1-(2,7)(pyrrolo(5,4-e)pyrrolizina)-3(2,5),5(2,5)-dipyrrolahexaphane-1,3,5-triene chloroform solvate'
_symmetry_cell_setting           monoclinic
_symmetry_space_group_name_H-M   'P 21/c'
_symmetry_Int_Tables_number      14
_space_group_name_Hall           '-P 2ybc'
loop_
_symmetry_equiv_pos_site_id
_symmetry_equiv_pos_as_xyz
1 x,y,z
2 -x,1/2+y,1/2-z
3 -x,-y,-z
4 x,1/2-y,1/2+z
_cell_length_a                   19.1338(10)
_cell_length_b                   17.8067(9)
_cell_length_c                   12.8666(7)
_cell_angle_alpha                90
_cell_angle_beta                 109.197(1)
_cell_angle_gamma                90
_cell_volume                     4140.01
_exptl_crystal_colour            violet
_exptl_crystal_description       plate
_cell_formula_units_Z            4
loop_
_atom_site_label
_atom_site_type_symbol
_atom_site_fract_x
_atom_site_fract_y
_atom_site_fract_z
C1 C -0.14538(14) 0.49120(14) 0.3924(2)
C2 C -0.09459(15) 0.44659(14) 0.3577(2)
H1 H -0.0623 0.4661 0.3229
C3 C -0.09895(15) 0.37281(15) 0.3811(2)
H2 H -0.0715 0.3336 0.3644
C4 C -0.15153(15) 0.36524(14) 0.4345(2)
C5 C -0.18203(14) 0.31065(13) 0.4869(2)
C6 C -0.22655(14) 0.35126(13) 0.5363(2)
C7 C -0.22218(14) 0.43022(14) 0.5095(2)
C8 C -0.27505(14) 0.35052(14) 0.5981(2)
C9 C -0.29612(15) 0.42820(14) 0.6036(2)
C10 C -0.34789(14) 0.46228(14) 0.6428(2)
C11 C -0.36732(14) 0.53964(14) 0.6194(2)
C12 C -0.40768(15) 0.58940(14) 0.6646(2)
H3 H -0.4319 0.5768 0.7150
C13 C -0.40479(15) 0.65930(15) 0.6211(2)
H4 H -0.4263 0.7033 0.6374
C14 C -0.36411(15) 0.65402(14) 0.5477(2)
C15 C -0.33935(14) 0.70674(13) 0.4850(2)
C16 C -0.28887(15) 0.68716(14) 0.4310(2)
C17 C -0.26808(16) 0.73364(15) 0.3541(2)
H5 H -0.2858 0.7821 0.3307
C18 C -0.21908(17) 0.69490(15) 0.3227(2)
H6 H -0.1954 0.7111 0.2732
C19 C -0.20883(15) 0.62270(14) 0.3788(2)
C20 C -0.15856(14) 0.56694(14) 0.3642(2)
N1 N -0.17749(12) 0.43780(11) 0.44419(18)
N2 N -0.25873(12) 0.47568(11) 0.54906(18)
N3 N -0.34463(12) 0.58084(11) 0.54825(18)
H7 H -0.3203 0.5625 0.5075
N4 N -0.25240(12) 0.61909(11) 0.44231(19)
C21 C -0.16656(14) 0.23031(14) 0.4860(2)
C22 C -0.15397(15) 0.19739(15) 0.3963(2)
H8 H -0.1566 0.2271 0.3347
C23 C -0.13768(18) 0.12209(16) 0.3950(3)
H9 H -0.1299 0.1007 0.3330
C24 C -0.1328(2) 0.07864(16) 0.4852(3)
H10 H -0.1195 0.0277 0.4864
C25 C -0.1474(2) 0.10954(16) 0.5734(3)
H11 H -0.1463 0.0791 0.6337
C26 C -0.16384(18) 0.18493(15) 0.5746(3)
H12 H -0.1732 0.2056 0.6359
C27 C -0.38376(15) 0.42137(13) 0.7119(2)
C28 C -0.34254(18) 0.39699(15) 0.8158(2)
H13 H -0.2911 0.4046 0.8417
C29 C -0.3766(2) 0.36129(17) 0.8825(3)
H14 H -0.3482 0.3448 0.9532
C30 C -0.4517(2) 0.35019(17) 0.8446(3)
H15 H -0.4750 0.3266 0.8898
C31 C -0.4929(2) 0.37332(18) 0.7413(3)
H16 H -0.5442 0.3647 0.7154
C32 C -0.45967(16) 0.40930(15) 0.6747(3)
H17 H -0.4885 0.4256 0.6041
C33 C -0.36600(15) 0.78598(14) 0.4779(2)
C34 C -0.44100(15) 0.80219(15) 0.4470(2)
H18 H -0.4758 0.7629 0.4322
C35 C -0.46470(17) 0.87618(16) 0.4382(2)
H19 H -0.5155 0.8868 0.4187
C36 C -0.41470(19) 0.93426(16) 0.4576(2)
H20 H -0.4312 0.9843 0.4507
C37 C -0.34095(19) 0.91854(16) 0.4871(3)
H21 H -0.3065 0.9579 0.4995
C38 C -0.31689(17) 0.84513(15) 0.4986(3)
H22 H -0.2658 0.8352 0.5211
C39 C -0.11120(15) 0.59641(13) 0.2995(2)
C40 C -0.13370(17) 0.58893(15) 0.1870(3)
H23 H -0.1782 0.5637 0.1506
C41 C -0.0922(2) 0.61773(18) 0.1263(3)
H24 H -0.1086 0.6125 0.0493
C42 C -0.0274(2) 0.6538(2) 0.1792(4)
H25 H 0.0011 0.6735 0.1383
C43 C -0.00361(19) 0.6615(2) 0.2900(4)
H26 H 0.0413 0.6862 0.3258
C44 C -0.04562(16) 0.63296(18) 0.3509(3)
H27 H -0.0290 0.6387 0.4278
C45 C -0.30090(15) 0.28601(14) 0.6393(2)
C46 C -0.31744(15) 0.23007(15) 0.6749(2)
C47 C -0.33816(15) 0.16278(15) 0.7198(2)
C48 C -0.37841(16) 0.16818(17) 0.7926(2)
H28 H -0.3909 0.2156 0.8134
C49 C -0.39976(18) 0.1039(2) 0.8339(3)
H29 H -0.4265 0.1079 0.8832
C50 C -0.3826(2) 0.0351(2) 0.8041(3)
H30 H -0.3984 -0.0083 0.8315
C51 C -0.34186(19) 0.02888(17) 0.7336(3)
H31 H -0.3293 -0.0190 0.7145
C52 C -0.31940(17) 0.09203(15) 0.6910(2)
H32 H -0.2917 0.0873 0.6430
C53 C 0.13811(18) 0.40803(15) 0.3075(3)
H33 H 0.1759 0.4174 0.3802
Cl1 Cl 0.18370(6) 0.40508(6) 0.21067(9)
Cl2 Cl 0.07506(5) 0.48264(5) 0.28071(10)
Cl3 Cl 0.09549(7) 0.32368(6) 0.31596(12)
loop_
_geom_bond_atom_site_label_1
_geom_bond_atom_site_label_2
_geom_bond_site_symmetry_1
_geom_bond_site_symmetry_2
C1 C2 1_555 1_555
C2 H1 1_555 1_555
C3 C2 1_555 1_555
H2 C3 1_555 1_555
C4 C3 1_555 1_555
C5 C4 1_555 1_555
C6 C5 1_555 1_555
C7 C6 1_555 1_555
C8 C6 1_555 1_555
C9 C8 1_555 1_555
C10 C9 1_555 1_555
C11 C10 1_555 1_555
C12 C11 1_555 1_555
H3 C12 1_555 1_555
C13 C12 1_555 1_555
H4 C13 1_555 1_555
C14 C13 1_555 1_555
C15 C14 1_555 1_555
C16 C15 1_555 1_555
C17 C16 1_555 1_555
H5 C17 1_555 1_555
C18 C17 1_555 1_555
H6 C18 1_555 1_555
C19 C18 1_555 1_555
C20 C1 1_555 1_555
N1 C1 1_555 1_555
N2 C7 1_555 1_555
N3 C11 1_555 1_555
H7 N3 1_555 1_555
N4 C16 1_555 1_555
C21 C5 1_555 1_555
C22 C21 1_555 1_555
H8 C22 1_555 1_555
C23 C22 1_555 1_555
H9 C23 1_555 1_555
C24 C23 1_555 1_555
H10 C24 1_555 1_555
C25 C24 1_555 1_555
H11 C25 1_555 1_555
C26 C21 1_555 1_555
H12 C26 1_555 1_555
C27 C10 1_555 1_555
C28 C27 1_555 1_555
H13 C28 1_555 1_555
C29 C28 1_555 1_555
H14 C29 1_555 1_555
C30 C29 1_555 1_555
H15 C30 1_555 1_555
C31 C30 1_555 1_555
H16 C31 1_555 1_555
C32 C27 1_555 1_555
H17 C32 1_555 1_555
C33 C15 1_555 1_555
C34 C33 1_555 1_555
H18 C34 1_555 1_555
C35 C34 1_555 1_555
H19 C35 1_555 1_555
C36 C35 1_555 1_555
H20 C36 1_555 1_555
C37 C36 1_555 1_555
H21 C37 1_555 1_555
C38 C33 1_555 1_555
H22 C38 1_555 1_555
C39 C20 1_555 1_555
C40 C39 1_555 1_555
H23 C40 1_555 1_555
C41 C40 1_555 1_555
H24 C41 1_555 1_555
C42 C41 1_555 1_555
H25 C42 1_555 1_555
C43 C42 1_555 1_555
H26 C43 1_555 1_555
C44 C39 1_555 1_555
H27 C44 1_555 1_555
C45 C8 1_555 1_555
C46 C45 1_555 1_555
C47 C46 1_555 1_555
C48 C47 1_555 1_555
H28 C48 1_555 1_555
C49 C48 1_555 1_555
H29 C49 1_555 1_555
C50 C49 1_555 1_555
H30 C50 1_555 1_555
C51 C50 1_555 1_555
H31 C51 1_555 1_555
C52 C47 1_555 1_555
H32 C52 1_555 1_555
C53 H33 1_555 1_555
Cl1 C53 1_555 1_555
Cl2 C53 1_555 1_555
Cl3 C53 1_555 1_555
C4 N1 1_555 1_555
C7 N1 1_555 1_555
C9 N2 1_555 1_555
C14 N3 1_555 1_555
C19 C20 1_555 1_555
C19 N4 1_555 1_555
C25 C26 1_555 1_555
C31 C32 1_555 1_555
C37 C38 1_555 1_555
C43 C44 1_555 1_555
C51 C52 1_555 1_555

#END
