
#######################################################################
#
#                 Cambridge Crystallographic Data Centre
#                                CCDC 
#
#######################################################################
#
# If this CIF has been generated from an entry in the Cambridge 
# Structural Database, then it will include bibliographic, chemical, 
# crystal, experimental, refinement or atomic coordinate data resulting 
# from the CCDC's data processing and validation procedures.
#
#######################################################################

data_TOMTIZ
_chemical_name_common            
'21-cyano-3-methoxy-N-confused-5,10,15,20-tetraphenylporphyrin dichloromethane solvate'
_chemical_formula_moiety         'C46 H31 N5 O1,2(C1 H2 Cl2)'
_chemical_name_systematic        
'21-cyano-3-methoxy-5,10,15,20-tetraphenyl-2-aza-21-carbaporphyrin dichloromethane solvate'
_symmetry_cell_setting           monoclinic
_symmetry_space_group_name_H-M   'P 21/c'
_symmetry_Int_Tables_number      14
_space_group_name_Hall           '-P 2ybc'
loop_
_symmetry_equiv_pos_site_id
_symmetry_equiv_pos_as_xyz
1 x,y,z
2 -x,1/2+y,1/2-z
3 -x,-y,-z
4 x,1/2-y,1/2+z
_cell_length_a                   12.9708(12)
_cell_length_b                   17.1469(16)
_cell_length_c                   18.7034(18)
_cell_angle_alpha                90
_cell_angle_beta                 106.409(2)
_cell_angle_gamma                90
_cell_volume                     3990.37
_exptl_crystal_colour            violet
_exptl_crystal_description       prism
_cell_formula_units_Z            4
loop_
_atom_site_label
_atom_site_type_symbol
_atom_site_fract_x
_atom_site_fract_y
_atom_site_fract_z
C1 C 0.8120(10) 0.9600(13) 0.3424(12)
C2 C 0.6983(3) 0.9760(3) 0.3028(2)
C3 C 0.6444(3) 0.9148(2) 0.32827(19)
C4 C 0.7237(3) 0.8684(2) 0.37851(19)
C5 C 0.7099(3) 0.8040(2) 0.42018(18)
C6 C 0.6144(2) 0.7932(2) 0.44182(18)
C7 C 0.5776(3) 0.7248(2) 0.46930(19)
H1 H 0.6119 0.6753 0.4753
C8 C 0.4843(3) 0.7426(2) 0.4855(2)
H2 H 0.4416 0.7071 0.5039
C9 C 0.4615(2) 0.8226(2) 0.47057(18)
C10 C 0.3785(2) 0.8680(2) 0.48295(19)
C11 C 0.3553(2) 0.9454(2) 0.45864(19)
C12 C 0.2774(3) 0.9939(2) 0.4807(2)
H3 H 0.2410 0.9812 0.5167
C13 C 0.2667(3) 1.0592(2) 0.4412(2)
H4 H 0.2213 1.1020 0.4434
C14 C 0.3382(2) 1.0525(2) 0.39391(19)
C15 C 0.3409(3) 1.1070(2) 0.33828(19)
C16 C 0.4138(3) 1.1051(2) 0.2948(2)
C17 C 0.4131(3) 1.1504(3) 0.2314(2)
H5 H 0.3610 1.1887 0.2090
C18 C 0.4983(3) 1.1301(3) 0.2079(2)
H6 H 0.5157 1.1511 0.1657
C19 C 0.5572(3) 1.0729(2) 0.2562(2)
C20 C 0.6573(3) 1.0398(3) 0.2569(2)
N1 N 0.8251(5) 0.8981(6) 0.3840(3)
N2 N 0.5413(2) 0.85048(17) 0.44304(15)
H7 H 0.5452 0.8988 0.4281
N3 N 0.3944(2) 0.98401(17) 0.40806(16)
N4 N 0.5009(2) 1.05771(19) 0.30691(17)
H8 H 0.5188 1.0222 0.3423
C21 C 0.5394(3) 0.8890(2) 0.2911(2)
N5 N 0.4549(3) 0.8669(2) 0.2599(2)
C22 C 0.7958(2) 0.7450(2) 0.44446(19)
C23 C 0.8469(3) 0.7165(2) 0.3935(2)
H9 H 0.8296 0.7377 0.3447
C24 C 0.9222(3) 0.6577(2) 0.4132(2)
H10 H 0.9549 0.6378 0.3775
C25 C 0.9505(3) 0.6275(2) 0.4847(2)
H11 H 1.0023 0.5870 0.4983
C26 C 0.9026(3) 0.6571(2) 0.5362(2)
H12 H 0.9227 0.6373 0.5856
C27 C 0.8259(3) 0.7150(2) 0.5166(2)
H13 H 0.7934 0.7345 0.5526
C28 C 0.3071(3) 0.8295(2) 0.52282(19)
C29 C 0.3480(3) 0.7923(2) 0.5906(2)
H14 H 0.4236 0.7912 0.6127
C30 C 0.2811(3) 0.7567(3) 0.6267(2)
H15 H 0.3107 0.7313 0.6732
C31 C 0.1711(3) 0.7581(3) 0.5950(3)
H16 H 0.1248 0.7338 0.6197
C32 C 0.1287(3) 0.7947(3) 0.5274(2)
H17 H 0.0531 0.7960 0.5056
C33 C 0.1960(3) 0.8296(2) 0.4914(2)
H18 H 0.1662 0.8541 0.4445
C34 C 0.2602(3) 1.1709(3) 0.3204(2)
C35 C 0.1511(4) 1.1540(4) 0.3005(2)
H19 H 0.1268 1.1016 0.2995
C36 C 0.0772(5) 1.2158(6) 0.2820(3)
H20 H 0.0021 1.2061 0.2693
C37 C 0.1165(9) 1.2922(6) 0.2826(3)
H21 H 0.0671 1.3343 0.2695
C38 C 0.2237(8) 1.3070(4) 0.3014(3)
H22 H 0.2488 1.3590 0.3010
C39 C 0.2933(5) 1.2484(3) 0.3203(2)
H23 H 0.3680 1.2596 0.3344
C40 C 0.7178(3) 1.0749(4) 0.2075(3)
C41 C 0.7245(4) 1.1538(4) 0.1976(3)
H24 H 0.6962 1.1892 0.2263
C42 C 0.7739(5) 1.1819(5) 0.1446(4)
H25 H 0.7779 1.2367 0.1381
C43 C 0.8151(5) 1.1348(7) 0.1036(5)
H26 H 0.8441 1.1547 0.0660
C44 C 0.8143(6) 1.0600(6) 0.1168(5)
H27 H 0.8491 1.0260 0.0909
C45 C 0.7646(5) 1.0278(5) 0.1669(4)
H28 H 0.7634 0.9728 0.1729
O1 O 0.8890(3) 1.0034(3) 0.3333(3)
C46 C 0.9957(5) 0.9838(7) 0.3782(6)
H29 H 1.0032 0.9973 0.4303
H30 H 1.0487 1.0130 0.3604
H31 H 1.0079 0.9277 0.3743
C47 C -0.2118(6) 1.4266(5) 0.2669(5)
H32 H -0.2472 1.4103 0.3049
H33 H -0.2591 1.4647 0.2333
Cl1 Cl -0.0847(3) 1.4708(2) 0.3113(2)
Cl2 Cl -0.1934(2) 1.3500(2) 0.21859(15)
C48 C -0.3832(9) 1.4372(5) 0.4245(7)
H34 H -0.3543 1.4103 0.4729
H35 H -0.3730 1.4017 0.3853
Cl3 Cl -0.3074(4) 1.5168(2) 0.4251(3)
Cl4 Cl -0.5192(3) 1.4491(2) 0.41022(16)
C49? C 0.8255(19) 0.905(2) 0.378(2)
C50? C 0.9961(11) 0.9584(11) 0.4334(14)
Cl5? Cl -0.1570(16) 1.4712(8) 0.3354(7)
Cl6? Cl -0.1245(9) 1.4114(7) 0.2133(8)
Cl7? Cl -0.2675(18) 1.4921(15) 0.4206(19)
Cl8? Cl -0.4814(16) 1.4603(14) 0.4319(13)
H36? H 1.0579 0.9475 0.4764
H37? H 0.9676 1.0103 0.4388
H38? H 1.0187 0.9566 0.3877
H39? H -0.2755 1.4559 0.2376
H40? H -0.2366 1.3757 0.2809
H41? H -0.4012 1.4054 0.3785
H42? H -0.3556 1.3999 0.4659
N6? N 0.8054(16) 0.965(2) 0.3360(17)
O2? O 0.9138(7) 0.9006(6) 0.4295(7)
loop_
_geom_bond_atom_site_label_1
_geom_bond_atom_site_label_2
_geom_bond_site_symmetry_1
_geom_bond_site_symmetry_2
C1 C2 1_555 1_555
C2 C3 1_555 1_555
C3 C4 1_555 1_555
C4 C5 1_555 1_555
C5 C6 1_555 1_555
C6 C7 1_555 1_555
C7 H1 1_555 1_555
C8 C7 1_555 1_555
H2 C8 1_555 1_555
C9 C8 1_555 1_555
C10 C9 1_555 1_555
C11 C10 1_555 1_555
C12 C11 1_555 1_555
H3 C12 1_555 1_555
C13 C12 1_555 1_555
H4 C13 1_555 1_555
C14 C13 1_555 1_555
C15 C14 1_555 1_555
C16 C15 1_555 1_555
C17 C16 1_555 1_555
H5 C17 1_555 1_555
C18 C17 1_555 1_555
H6 C18 1_555 1_555
C19 C18 1_555 1_555
C20 C2 1_555 1_555
N1 C1 1_555 1_555
N2 C6 1_555 1_555
H7 N2 1_555 1_555
N3 C11 1_555 1_555
N4 C16 1_555 1_555
H8 N4 1_555 1_555
C21 C3 1_555 1_555
N5 C21 1_555 1_555
C22 C5 1_555 1_555
C23 C22 1_555 1_555
H9 C23 1_555 1_555
C24 C23 1_555 1_555
H10 C24 1_555 1_555
C25 C24 1_555 1_555
H11 C25 1_555 1_555
C26 C25 1_555 1_555
H12 C26 1_555 1_555
C27 C22 1_555 1_555
H13 C27 1_555 1_555
C28 C10 1_555 1_555
C29 C28 1_555 1_555
H14 C29 1_555 1_555
C30 C29 1_555 1_555
H15 C30 1_555 1_555
C31 C30 1_555 1_555
H16 C31 1_555 1_555
C32 C31 1_555 1_555
H17 C32 1_555 1_555
C33 C28 1_555 1_555
H18 C33 1_555 1_555
C34 C15 1_555 1_555
C35 C34 1_555 1_555
H19 C35 1_555 1_555
C36 C35 1_555 1_555
H20 C36 1_555 1_555
C37 C36 1_555 1_555
H21 C37 1_555 1_555
C38 C37 1_555 1_555
H22 C38 1_555 1_555
C39 C34 1_555 1_555
H23 C39 1_555 1_555
C40 C20 1_555 1_555
C41 C40 1_555 1_555
H24 C41 1_555 1_555
C42 C41 1_555 1_555
H25 C42 1_555 1_555
C43 C42 1_555 1_555
H26 C43 1_555 1_555
C44 C43 1_555 1_555
H27 C44 1_555 1_555
C45 C40 1_555 1_555
H28 C45 1_555 1_555
O1 C1 1_555 1_555
C46 O1 1_555 1_555
H29 C46 1_555 1_555
H30 C46 1_555 1_555
H31 C46 1_555 1_555
C47 H32 1_555 1_555
H33 C47 1_555 1_555
Cl1 C47 1_555 1_555
Cl2 C47 1_555 1_555
C48 H34 1_555 1_555
H35 C48 1_555 1_555
Cl3 C48 1_555 1_555
Cl4 C48 1_555 1_555
C4 N1 1_555 1_555
C9 N2 1_555 1_555
C14 N3 1_555 1_555
C19 C20 1_555 1_555
C19 N4 1_555 1_555
C26 C27 1_555 1_555
C32 C33 1_555 1_555
C38 C39 1_555 1_555
C44 C45 1_555 1_555

#END
