
#######################################################################
#
#                 Cambridge Crystallographic Data Centre
#                                CCDC 
#
#######################################################################
#
# If this CIF has been generated from an entry in the Cambridge 
# Structural Database, then it will include bibliographic, chemical, 
# crystal, experimental, refinement or atomic coordinate data resulting 
# from the CCDC's data processing and validation procedures.
#
#######################################################################

data_TOMWOJ
_chemical_formula_moiety         'C5 H8 O4,C6 H6 N2 O1'
_chemical_name_systematic        'pyridine-2-carboxamide glutaric acid'
_symmetry_cell_setting           orthorhombic
_symmetry_space_group_name_H-M   'C m c a'
_symmetry_Int_Tables_number      64
_space_group_name_Hall           '-C 2ac 2'
loop_
_symmetry_equiv_pos_site_id
_symmetry_equiv_pos_as_xyz
1 x,y,z
2 -x,1/2-y,1/2+z
3 x,-y,-z
4 -x,1/2+y,1/2-z
5 1/2+x,1/2+y,z
6 1/2-x,-y,1/2+z
7 1/2+x,1/2-y,-z
8 1/2-x,y,1/2-z
9 -x,-y,-z
10 x,1/2+y,1/2-z
11 -x,y,z
12 x,1/2-y,1/2+z
13 1/2-x,1/2-y,-z
14 1/2+x,y,1/2-z
15 1/2-x,1/2+y,z
16 1/2+x,-y,1/2+z
_cell_length_a                   6.8556(14)
_cell_length_b                   20.441(4)
_cell_length_c                   17.581(3)
_cell_angle_alpha                90
_cell_angle_beta                 90
_cell_angle_gamma                90
_cell_volume                     2463.72
_cell_formula_units_Z            8
loop_
_atom_site_label
_atom_site_type_symbol
_atom_site_fract_x
_atom_site_fract_y
_atom_site_fract_z
O1 O 0.5000 0.42013(6) -0.07282(7)
N1 N 0.5000 0.27924(7) 0.04638(7)
N2 N 0.5000 0.31431(7) -0.10647(8)
H1 H 0.5000 0.3238 -0.1541
H2 H 0.5000 0.2741 -0.0922
C1 C 0.5000 0.39238(8) 0.08090(10)
H3 H 0.5000 0.4360 0.0660
C2 C 0.5000 0.26463(9) 0.12058(10)
H4 H 0.5000 0.2207 0.1345
C3 C 0.5000 0.36126(8) -0.05550(10)
C4 C 0.5000 0.34319(8) 0.02712(9)
C5 C 0.5000 0.37589(9) 0.15715(10)
H5 H 0.5000 0.4083 0.1942
C6 C 0.5000 0.31100(10) 0.17746(10)
H6 H 0.5000 0.2987 0.2284
O2 O 0.0000 0.63155(6) 0.23935(8)
O3 O 0.0000 0.53325(6) 0.28892(7)
H7 H 0.0007 0.5541 0.3288
O4 O 0.0000 0.32992(6) 0.12072(7)
O5 O 0.0000 0.34785(6) -0.00344(7)
C7 C 0.0000 0.46737(8) 0.15436(9)
H8 H 0.1145 0.4516 0.1811
C8 C 0.0000 0.44057(8) 0.07368(9)
H9 H -0.1141 0.4572 0.0474
C9 C 0.0000 0.54203(7) 0.15461(9)
H10 H 0.1140 0.5570 0.1270
C10 C 0.0000 0.57369(8) 0.23127(9)
C11 C 0.0000 0.36721(8) 0.06799(9)
H11 H 0.0000 0.3062(6) -0.0030(14)
H8J H -0.1145 0.4516 0.1811
H10J H -0.1140 0.5570 0.1270
H9J H 0.1141 0.4572 0.0474
H12? H 0.1145 0.4516 0.1811
H13? H -0.1141 0.4572 0.0474
H14? H 0.1140 0.5570 0.1270
loop_
_geom_bond_atom_site_label_1
_geom_bond_atom_site_label_2
_geom_bond_site_symmetry_1
_geom_bond_site_symmetry_2
O1 C3 1_555 1_555
N1 C2 1_555 1_555
N2 H1 1_555 1_555
H2 N2 1_555 1_555
C1 H3 1_555 1_555
C2 H4 1_555 1_555
C3 N2 1_555 1_555
C4 N1 1_555 1_555
C5 C1 1_555 1_555
H5 C5 1_555 1_555
C6 C2 1_555 1_555
H6 C6 1_555 1_555
O2 C10 1_555 1_555
O3 H7 1_555 1_555
O4 C11 1_555 1_555
O5 C11 1_555 1_555
C7 H8 1_555 1_555
C8 C7 1_555 1_555
H9 C8 1_555 1_555
C9 C7 1_555 1_555
H10 C9 1_555 1_555
C10 O3 1_555 1_555
C11 C8 1_555 1_555
H11 O5 1_555 1_555
H8J C7 1_555 1_555
H10J C9 1_555 1_555
H9J C8 1_555 1_555
C1 C4 1_555 1_555
C3 C4 1_555 1_555
C5 C6 1_555 1_555
C9 C10 1_555 1_555

#END
