
#######################################################################
#
#                 Cambridge Crystallographic Data Centre
#                                CCDC 
#
#######################################################################
#
# If this CIF has been generated from an entry in the Cambridge 
# Structural Database, then it will include bibliographic, chemical, 
# crystal, experimental, refinement or atomic coordinate data resulting 
# from the CCDC's data processing and validation procedures.
#
#######################################################################

data_TOMZIF
_chemical_formula_moiety         'C34 H27 P2 1+,C18 H1 B1 F15 1-'
_chemical_name_systematic        
'(8-(Diphenylphosphino)-1-naphthyl)(diphenyl)phosphonium tris(pentafluorophenyl)borate unknown solvate'
_symmetry_cell_setting           triclinic
_symmetry_space_group_name_H-M   'P -1'
_symmetry_Int_Tables_number      2
_space_group_name_Hall           '-P 1'
loop_
_symmetry_equiv_pos_site_id
_symmetry_equiv_pos_as_xyz
1 x,y,z
2 -x,-y,-z
_cell_length_a                   9.7493(5)
_cell_length_b                   13.3554(6)
_cell_length_c                   19.3935(9)
_cell_angle_alpha                100.853(2)
_cell_angle_beta                 99.692(2)
_cell_angle_gamma                94.678(4)
_cell_volume                     2427.8
_exptl_crystal_colour            colorless
_exptl_crystal_description       plate
_cell_formula_units_Z            2
_exptl_crystal_recrystallization_method pentane/dichloromethane
loop_
_atom_site_label
_atom_site_type_symbol
_atom_site_fract_x
_atom_site_fract_y
_atom_site_fract_z
P1 P 0.24924(7) 0.09338(5) 0.21400(4)
H1 H 0.188(3) 0.004(2) 0.2107(14)
P2 P -0.01003(7) 0.08456(6) 0.28887(4)
C1 C 0.3246(3) 0.1496(2) 0.30612(15)
C2 C 0.4582(3) 0.1989(2) 0.31449(16)
H2 H 0.4940 0.2065 0.2735
C3 C 0.5425(3) 0.2379(3) 0.38174(18)
H3 H 0.6310 0.2744 0.3857
C4 C 0.4949(3) 0.2222(3) 0.44091(18)
H4 H 0.5532 0.2446 0.4860
C5 C 0.3147(3) 0.1581(3) 0.49988(18)
H5 H 0.3771 0.1791 0.5439
C6 C 0.1823(3) 0.1137(3) 0.49797(18)
H6 H 0.1551 0.1006 0.5400
C7 C 0.0883(3) 0.0882(3) 0.43321(17)
H7 H -0.0037 0.0608 0.4329
C8 C 0.1242(3) 0.1014(2) 0.36942(15)
C9 C 0.2659(3) 0.1399(2) 0.36887(15)
C10 C 0.3585(3) 0.1725(2) 0.43585(15)
C11 C 0.3892(3) 0.0719(2) 0.16509(15)
C12 C 0.4560(3) -0.0158(2) 0.16844(16)
H8 H 0.4290 -0.0616 0.1964
C13 C 0.5621(3) -0.0351(3) 0.13065(18)
H9 H 0.6075 -0.0942 0.1328
C14 C 0.6016(3) 0.0323(3) 0.08965(18)
H10 H 0.6734 0.0184 0.0636
C15 C 0.5371(3) 0.1194(3) 0.08652(17)
H11 H 0.5653 0.1651 0.0588
C16 C 0.4304(3) 0.1398(3) 0.12437(16)
H12 H 0.3861 0.1995 0.1224
C17 C 0.1379(3) 0.1724(2) 0.17121(16)
C18 C 0.0436(3) 0.1288(3) 0.10864(17)
H13 H 0.0361 0.0580 0.0896
C19 C -0.0394(3) 0.1912(3) 0.0746(2)
H14 H -0.1041 0.1627 0.0323
C20 C -0.0271(4) 0.2948(3) 0.1025(2)
H15 H -0.0838 0.3365 0.0791
C21 C 0.0663(4) 0.3377(3) 0.1637(2)
H16 H 0.0740 0.4087 0.1820
C22 C 0.1494(4) 0.2771(2) 0.19872(19)
H17 H 0.2135 0.3066 0.2410
C23 C -0.1520(3) -0.0028(2) 0.30291(15)
C24 C -0.1617(3) -0.1051(2) 0.27032(17)
H18 H -0.0934 -0.1278 0.2441
C25 C -0.2711(4) -0.1750(2) 0.27584(19)
H19 H -0.2750 -0.2447 0.2545
C26 C -0.3731(3) -0.1422(3) 0.31239(18)
H20 H -0.4483 -0.1891 0.3151
C27 C -0.3658(3) -0.0406(3) 0.34518(17)
H21 H -0.4356 -0.0185 0.3706
C28 C -0.2557(3) 0.0292(2) 0.34090(16)
H22 H -0.2510 0.0984 0.3637
C29 C -0.0811(3) 0.2075(2) 0.30076(16)
C30 C -0.1852(3) 0.2206(3) 0.24587(18)
H23 H -0.2185 0.1657 0.2069
C31 C -0.2411(4) 0.3134(3) 0.2474(2)
H24 H -0.3120 0.3207 0.2100
C32 C -0.1926(4) 0.3936(3) 0.3035(2)
H25 H -0.2295 0.4566 0.3045
C33 C -0.0900(4) 0.3823(3) 0.3583(2)
H26 H -0.0570 0.4379 0.3968
C34 C -0.0343(4) 0.2897(3) 0.3575(2)
H27 H 0.0354 0.2828 0.3957
B1 B 0.1465(4) 0.7563(3) 0.1889(2)
H28 H 0.182(3) 0.845(2) 0.1908(15)
C35 C 0.0081(3) 0.7186(2) 0.12667(16)
C36 C -0.0682(3) 0.7865(2) 0.09541(16)
F1 F -0.0366(2) 0.88920(13) 0.12096(10)
C37 C -0.1757(3) 0.7579(2) 0.03702(16)
F2 F -0.2428(2) 0.83031(17) 0.00984(11)
C38 C -0.2112(3) 0.6570(3) 0.00531(16)
F3 F -0.3119(2) 0.62858(18) -0.05287(10)
C39 C -0.1418(3) 0.5848(2) 0.03445(17)
F4 F -0.1770(2) 0.48480(15) 0.00568(12)
C40 C -0.0365(3) 0.6168(2) 0.09330(16)
F5 F 0.0284(2) 0.54152(13) 0.11879(11)
C41 C 0.2744(3) 0.6931(3) 0.16735(18)
C42 C 0.3340(4) 0.7129(3) 0.10904(19)
F6 F 0.2823(2) 0.78057(18) 0.07193(12)
C43 C 0.4408(4) 0.6648(4) 0.0868(2)
F7 F 0.4923(3) 0.6860(3) 0.03061(16)
C44 C 0.4948(4) 0.5931(4) 0.1204(3)
F8 F 0.5997(3) 0.5412(3) 0.0987(2)
C45 C 0.4415(4) 0.5678(4) 0.1767(3)
F9 F 0.4880(3) 0.4937(3) 0.20946(19)
C46 C 0.3321(4) 0.6183(3) 0.1986(2)
F10 F 0.2786(3) 0.5874(2) 0.25230(15)
C47 C 0.1277(3) 0.7570(2) 0.27080(17)
C48 C 0.0312(4) 0.6961(2) 0.29408(18)
F11 F -0.0630(2) 0.62585(16) 0.24637(11)
C49 C 0.0245(4) 0.7007(3) 0.3655(2)
F12 F -0.0730(3) 0.63938(19) 0.38417(14)
C50 C 0.1188(5) 0.7689(3) 0.41711(18)
F13 F 0.1151(3) 0.7719(2) 0.48678(12)
C51 C 0.2145(4) 0.8320(3) 0.3972(2)
F14 F 0.3082(3) 0.8995(2) 0.44792(12)
C52 C 0.2165(3) 0.8259(2) 0.32632(18)
F15 F 0.31354(19) 0.89263(16) 0.31114(11)
loop_
_geom_bond_atom_site_label_1
_geom_bond_atom_site_label_2
_geom_bond_site_symmetry_1
_geom_bond_site_symmetry_2
P1 H1 1_555 1_555
P2 C8 1_555 1_555
C1 P1 1_555 1_555
C2 C1 1_555 1_555
H2 C2 1_555 1_555
C3 C2 1_555 1_555
H3 C3 1_555 1_555
C4 C3 1_555 1_555
H4 C4 1_555 1_555
C5 H5 1_555 1_555
C6 C5 1_555 1_555
H6 C6 1_555 1_555
C7 C6 1_555 1_555
H7 C7 1_555 1_555
C8 C7 1_555 1_555
C9 C1 1_555 1_555
C10 C4 1_555 1_555
C11 P1 1_555 1_555
C12 C11 1_555 1_555
H8 C12 1_555 1_555
C13 C12 1_555 1_555
H9 C13 1_555 1_555
C14 C13 1_555 1_555
H10 C14 1_555 1_555
C15 C14 1_555 1_555
H11 C15 1_555 1_555
C16 C11 1_555 1_555
H12 C16 1_555 1_555
C17 P1 1_555 1_555
C18 C17 1_555 1_555
H13 C18 1_555 1_555
C19 C18 1_555 1_555
H14 C19 1_555 1_555
C20 C19 1_555 1_555
H15 C20 1_555 1_555
C21 C20 1_555 1_555
H16 C21 1_555 1_555
C22 C17 1_555 1_555
H17 C22 1_555 1_555
C23 P2 1_555 1_555
C24 C23 1_555 1_555
H18 C24 1_555 1_555
C25 C24 1_555 1_555
H19 C25 1_555 1_555
C26 C25 1_555 1_555
H20 C26 1_555 1_555
C27 C26 1_555 1_555
H21 C27 1_555 1_555
C28 C23 1_555 1_555
H22 C28 1_555 1_555
C29 P2 1_555 1_555
C30 C29 1_555 1_555
H23 C30 1_555 1_555
C31 C30 1_555 1_555
H24 C31 1_555 1_555
C32 C31 1_555 1_555
H25 C32 1_555 1_555
C33 C32 1_555 1_555
H26 C33 1_555 1_555
C34 C29 1_555 1_555
H27 C34 1_555 1_555
B1 H28 1_555 1_555
C35 B1 1_555 1_555
C36 C35 1_555 1_555
F1 C36 1_555 1_555
C37 C36 1_555 1_555
F2 C37 1_555 1_555
C38 C37 1_555 1_555
F3 C38 1_555 1_555
C39 C38 1_555 1_555
F4 C39 1_555 1_555
C40 C35 1_555 1_555
F5 C40 1_555 1_555
C41 B1 1_555 1_555
C42 C41 1_555 1_555
F6 C42 1_555 1_555
C43 C42 1_555 1_555
F7 C43 1_555 1_555
C44 C43 1_555 1_555
F8 C44 1_555 1_555
C45 C44 1_555 1_555
F9 C45 1_555 1_555
C46 C41 1_555 1_555
F10 C46 1_555 1_555
C47 B1 1_555 1_555
C48 C47 1_555 1_555
F11 C48 1_555 1_555
C49 C48 1_555 1_555
F12 C49 1_555 1_555
C50 C49 1_555 1_555
F13 C50 1_555 1_555
C51 C50 1_555 1_555
F14 C51 1_555 1_555
C52 C47 1_555 1_555
F15 C52 1_555 1_555
C5 C10 1_555 1_555
C8 C9 1_555 1_555
C9 C10 1_555 1_555
C15 C16 1_555 1_555
C21 C22 1_555 1_555
C27 C28 1_555 1_555
C33 C34 1_555 1_555
C39 C40 1_555 1_555
C45 C46 1_555 1_555
C51 C52 1_555 1_555

#END
