
#######################################################################
#
#                 Cambridge Crystallographic Data Centre
#                                CCDC 
#
#######################################################################
#
# If this CIF has been generated from an entry in the Cambridge 
# Structural Database, then it will include bibliographic, chemical, 
# crystal, experimental, refinement or atomic coordinate data resulting 
# from the CCDC's data processing and validation procedures.
#
#######################################################################

data_TONCOP
_chemical_formula_moiety         'C48 H38 N4'
_chemical_name_systematic        
1,4-bis(2-(2,2'-bipyridin-5-ylethynyl)-4-t-butylphenyl)buta-1,3-diyne
_symmetry_cell_setting           orthorhombic
_symmetry_space_group_name_H-M   'P c a 21'
_symmetry_Int_Tables_number      29
_space_group_name_Hall           'P 2c -2ac'
loop_
_symmetry_equiv_pos_site_id
_symmetry_equiv_pos_as_xyz
1 x,y,z
2 -x,-y,1/2+z
3 1/2-x,y,1/2+z
4 1/2+x,-y,z
_cell_length_a                   19.8857(13)
_cell_length_b                   6.7009(4)
_cell_length_c                   27.6711(18)
_cell_angle_alpha                90
_cell_angle_beta                 90
_cell_angle_gamma                90
_cell_volume                     3687.23
_exptl_crystal_colour            'light yellow'
_exptl_crystal_description       plate
_cell_formula_units_Z            4
_exptl_crystal_recrystallization_method pentanes/chloroform
_exptl_crystal_preparation       fluorescent
loop_
_atom_site_label
_atom_site_type_symbol
_atom_site_fract_x
_atom_site_fract_y
_atom_site_fract_z
N1 N 0.19102(12) -0.7332(4) 0.26523(10)
N2 N 0.30941(13) -0.5616(4) 0.17405(9)
N3 N 0.45070(13) 1.0709(4) 0.44054(10)
N4 N 0.57206(14) 1.2380(4) 0.34976(11)
C1 C 0.14828(17) -0.8859(6) 0.27203(13)
H1 H 0.1215 -0.8869 0.3005
C2 C 0.14121(15) -1.0425(5) 0.23951(13)
H2 H 0.1100 -1.1471 0.2452
C3 C 0.18093(17) -1.0411(5) 0.19877(13)
H3 H 0.1778 -1.1471 0.1761
C4 C 0.22513(15) -0.8867(4) 0.19084(11)
H4 H 0.2527 -0.8844 0.1628
C5 C 0.22863(12) -0.7357(4) 0.22439(10)
C6 C 0.27516(12) -0.5646(4) 0.21640(10)
C7 C 0.28300(14) -0.4193(4) 0.25102(11)
H5 H 0.2586 -0.4262 0.2805
C8 C 0.32692(15) -0.2626(5) 0.24242(11)
H6 H 0.3330 -0.1612 0.2660
C9 C 0.36233(14) -0.2551(4) 0.19850(11)
C10 C 0.35217(15) -0.4099(5) 0.16593(11)
H7 H 0.3767 -0.4085 0.1364
C11 C 0.40709(14) -0.0933(4) 0.18844(10)
C12 C 0.44330(14) 0.0480(4) 0.18169(10)
C13 C 0.48278(12) 0.2248(4) 0.17909(10)
C14 C 0.51865(13) 0.2777(4) 0.13755(10)
H8 H 0.5181 0.1902 0.1105
C15 C 0.55537(13) 0.4561(4) 0.13458(10)
C16 C 0.55747(14) 0.5776(4) 0.17542(11)
H9 H 0.5833 0.6968 0.1748
C17 C 0.52239(13) 0.5270(4) 0.21700(10)
H10 H 0.5249 0.6124 0.2443
C18 C 0.48362(12) 0.3547(4) 0.21970(9)
C19 C 0.44250(13) 0.3088(4) 0.26024(10)
C20 C 0.40262(13) 0.2647(4) 0.29143(10)
C21 C 0.35696(13) 0.2177(4) 0.32665(10)
C22 C 0.31668(14) 0.1764(4) 0.35800(10)
C23 C 0.27441(12) 0.1474(4) 0.39913(9)
C24 C 0.23300(13) -0.0199(5) 0.40458(10)
H11 H 0.2306 -0.1161 0.3794
C25 C 0.19557(13) -0.0467(4) 0.44610(10)
H12 H 0.1680 -0.1620 0.4489
C26 C 0.19704(12) 0.0908(4) 0.48408(9)
C27 C 0.23690(12) 0.2598(4) 0.47843(10)
H13 H 0.2379 0.3570 0.5034
C28 C 0.27569(12) 0.2903(4) 0.43672(9)
C29 C 0.31744(13) 0.4626(4) 0.43169(11)
C30 C 0.35436(14) 0.6009(4) 0.42485(10)
C31 C 0.39975(14) 0.7628(4) 0.41578(12)
C32 C 0.40734(16) 0.9199(4) 0.44824(12)
H14 H 0.3810 0.9206 0.4769
C33 C 0.43835(15) 0.7672(5) 0.37306(13)
H15 H 0.4343 0.6634 0.3498
C34 C 0.48165(14) 0.9224(4) 0.36540(12)
H16 H 0.5080 0.9269 0.3368
C35 C 0.48707(13) 1.0715(4) 0.39904(11)
C36 C 0.53432(13) 1.2409(4) 0.39110(11)
C37 C 0.53870(15) 1.3893(4) 0.42494(12)
H17 H 0.5118 1.3864 0.4533
C38 C 0.58308(17) 1.5424(5) 0.41674(14)
H18 H 0.5870 1.6473 0.4397
C39 C 0.62213(16) 1.5454(5) 0.37549(14)
H19 H 0.6533 1.6503 0.3698
C40 C 0.61477(17) 1.3928(6) 0.34289(14)
H20 H 0.6409 1.3958 0.3141
C41 C 0.59068(14) 0.5134(4) 0.08682(10)
C42 C 0.6114(3) 0.7321(6) 0.08466(17)
H21 H 0.6486 0.7556 0.1072
H22 H 0.5731 0.8163 0.0936
H23 H 0.6260 0.7651 0.0518
C43 C 0.6528(2) 0.3802(8) 0.08000(17)
H24 H 0.6744 0.4121 0.0491
H25 H 0.6390 0.2398 0.0801
H26 H 0.6846 0.4038 0.1064
C44 C 0.5433(2) 0.4798(7) 0.04381(13)
H27 H 0.5674 0.5063 0.0136
H28 H 0.5047 0.5704 0.0464
H29 H 0.5274 0.3414 0.0440
C45 C 0.15879(13) 0.0533(5) 0.53169(10)
C46 C 0.1476(3) 0.2511(7) 0.56011(19)
H30 H 0.1262 0.3496 0.5389
H31 H 0.1910 0.3026 0.5713
H32 H 0.1184 0.2255 0.5880
C47 C 0.2029(3) -0.0758(10) 0.56316(19)
H33 H 0.1802 -0.1015 0.5939
H34 H 0.2456 -0.0071 0.5692
H35 H 0.2117 -0.2027 0.5467
C48 C 0.0899(2) -0.0361(11) 0.52346(17)
H36 H 0.0944 -0.1619 0.5057
H37 H 0.0624 0.0571 0.5047
H38 H 0.0683 -0.0615 0.5547
C49? C 0.5658(12) 0.723(3) 0.0780(10)
C50? C 0.6662(7) 0.511(4) 0.0992(8)
C51? C 0.5758(16) 0.373(3) 0.0464(7)
C52? C 0.1143(14) 0.223(3) 0.5451(9)
C53? C 0.2098(10) 0.017(5) 0.5715(8)
C54? C 0.1167(14) -0.142(3) 0.5267(8)
H39? H 0.5875 0.8144 0.1007
H40? H 0.5169 0.7273 0.0826
H41? H 0.5767 0.7627 0.0448
H42? H 0.6754 0.4028 0.1221
H43? H 0.6788 0.6390 0.1138
H44? H 0.6924 0.4900 0.0697
H45? H 0.6004 0.4148 0.0174
H46? H 0.5274 0.3734 0.0397
H47? H 0.5899 0.2378 0.0555
H48? H 0.0698 0.2038 0.5306
H49? H 0.1338 0.3481 0.5331
H50? H 0.1099 0.2295 0.5803
H51? H 0.1869 -0.0373 0.6000
H52? H 0.2318 0.1428 0.5800
H53? H 0.2437 -0.0789 0.5603
H54? H 0.0922 -0.1663 0.5568
H55? H 0.1468 -0.2541 0.5201
H56? H 0.0846 -0.1271 0.5000
loop_
_geom_bond_atom_site_label_1
_geom_bond_atom_site_label_2
_geom_bond_site_symmetry_1
_geom_bond_site_symmetry_2
N1 C1 1_555 1_555
N2 C6 1_555 1_555
N3 C32 1_555 1_555
N4 C36 1_555 1_555
C1 H1 1_555 1_555
C2 C1 1_555 1_555
H2 C2 1_555 1_555
C3 C2 1_555 1_555
H3 C3 1_555 1_555
C4 C3 1_555 1_555
H4 C4 1_555 1_555
C5 N1 1_555 1_555
C6 C5 1_555 1_555
C7 C6 1_555 1_555
H5 C7 1_555 1_555
C8 C7 1_555 1_555
H6 C8 1_555 1_555
C9 C8 1_555 1_555
C10 N2 1_555 1_555
H7 C10 1_555 1_555
C11 C9 1_555 1_555
C12 C11 1_555 1_555
C13 C12 1_555 1_555
C14 C13 1_555 1_555
H8 C14 1_555 1_555
C15 C14 1_555 1_555
C16 C15 1_555 1_555
H9 C16 1_555 1_555
C17 C16 1_555 1_555
H10 C17 1_555 1_555
C18 C13 1_555 1_555
C19 C18 1_555 1_555
C20 C19 1_555 1_555
C21 C20 1_555 1_555
C22 C21 1_555 1_555
C23 C22 1_555 1_555
C24 C23 1_555 1_555
H11 C24 1_555 1_555
C25 C24 1_555 1_555
H12 C25 1_555 1_555
C26 C25 1_555 1_555
C27 C26 1_555 1_555
H13 C27 1_555 1_555
C28 C23 1_555 1_555
C29 C28 1_555 1_555
C30 C29 1_555 1_555
C31 C30 1_555 1_555
C32 C31 1_555 1_555
H14 C32 1_555 1_555
C33 C31 1_555 1_555
H15 C33 1_555 1_555
C34 C33 1_555 1_555
H16 C34 1_555 1_555
C35 N3 1_555 1_555
C36 C35 1_555 1_555
C37 C36 1_555 1_555
H17 C37 1_555 1_555
C38 C37 1_555 1_555
H18 C38 1_555 1_555
C39 C38 1_555 1_555
H19 C39 1_555 1_555
C40 N4 1_555 1_555
H20 C40 1_555 1_555
C41 C15 1_555 1_555
C42 C41 1_555 1_555
H21 C42 1_555 1_555
H22 C42 1_555 1_555
H23 C42 1_555 1_555
C43 C41 1_555 1_555
H24 C43 1_555 1_555
H25 C43 1_555 1_555
H26 C43 1_555 1_555
C44 C41 1_555 1_555
H27 C44 1_555 1_555
H28 C44 1_555 1_555
H29 C44 1_555 1_555
C45 C26 1_555 1_555
C46 C45 1_555 1_555
H30 C46 1_555 1_555
H31 C46 1_555 1_555
H32 C46 1_555 1_555
C47 C45 1_555 1_555
H33 C47 1_555 1_555
H34 C47 1_555 1_555
H35 C47 1_555 1_555
C48 C45 1_555 1_555
H36 C48 1_555 1_555
H37 C48 1_555 1_555
H38 C48 1_555 1_555
C4 C5 1_555 1_555
C9 C10 1_555 1_555
C17 C18 1_555 1_555
C27 C28 1_555 1_555
C34 C35 1_555 1_555
C39 C40 1_555 1_555

#END
