
#######################################################################
#
#                 Cambridge Crystallographic Data Centre
#                                CCDC 
#
#######################################################################
#
# If this CIF has been generated from an entry in the Cambridge 
# Structural Database, then it will include bibliographic, chemical, 
# crystal, experimental, refinement or atomic coordinate data resulting 
# from the CCDC's data processing and validation procedures.
#
#######################################################################

data_TONZEC
_chemical_compound_source        'leaves and stems of Schisandra wilsoniana'
_chemical_name_common            
"(1S,3aR,3bS,4S,5aS,7aS,9R,13S,14aS,14bS,15aR)-13-(acetyloxy)-1,3a,3b,4,5,5a,6,7,9,11,12,13,13a,14,14b,15a-hexadecahydro-1,4,5a,11,11-pentamethyl-2,5,14-trioxo-2H,8H-7a,14a-epoxy-3,10,15-trioxaazuleno(6',5':5,6)cyclooct(1,2,3-cd)-as-indacene-9-acetic acid ethyl ester monohydrate"
_chemical_formula_moiety         'C33 H42 O11,H2 O1'
_chemical_name_systematic        'Wilsonianadilactone A monohydrate'
_chemical_properties_biological  'weak anti-HIV activity'
_symmetry_cell_setting           orthorhombic
_symmetry_space_group_name_H-M   'P 21 21 21'
_symmetry_Int_Tables_number      19
_space_group_name_Hall           'P 2ac 2ab'
loop_
_symmetry_equiv_pos_site_id
_symmetry_equiv_pos_as_xyz
1 x,y,z
2 1/2-x,-y,1/2+z
3 1/2+x,1/2-y,-z
4 -x,1/2+y,1/2-z
_cell_length_a                   12.221(1)
_cell_length_b                   16.033(1)
_cell_length_c                   17.673(1)
_cell_angle_alpha                90
_cell_angle_beta                 90
_cell_angle_gamma                90
_cell_volume                     3462.84
_exptl_crystal_colour            orange
_exptl_crystal_description       block
_chemical_melting_point          '177-178 deg.C'
_cell_formula_units_Z            4
loop_
_atom_site_label
_atom_site_type_symbol
_atom_site_fract_x
_atom_site_fract_y
_atom_site_fract_z
O1 O -0.7390(3) 0.0358(2) -0.86854(19)
O2 O -0.6524(4) 0.1400(2) -0.92617(19)
O3 O -0.5436(2) -0.06160(15) -0.83293(13)
O4 O -0.5543(2) -0.19617(14) -0.78581(12)
O5 O -0.4462(3) -0.02388(18) -0.69273(18)
O6 O -0.2226(2) -0.23060(18) -0.71008(17)
O7 O -0.3147(3) -0.33881(19) -0.95959(16)
O8 O -0.4276(3) -0.5142(2) -0.9866(2)
O9 O -0.8246(3) -0.2760(3) -0.6942(2)
O10 O -0.1664(7) -0.1550(3) -0.6151(4)
O11 O -0.5864(4) -0.4626(3) -1.0248(3)
C1 C -0.3823(3) -0.3695(2) -0.8998(2)
H1 H -0.3501 -0.4207 -0.8793
C2 C -0.4945(3) -0.3885(2) -0.9310(2)
H2 H -0.5439 -0.3994 -0.8892
H3 H -0.5215 -0.3398 -0.9576
C3 C -0.4966(3) -0.4614(2) -0.9836(2)
C4 C -0.2666(3) -0.2599(3) -0.9386(2)
C5 C -0.3160(3) -0.2411(2) -0.86191(19)
C6 C -0.2877(3) -0.1614(2) -0.8219(2)
H4 H -0.3371 -0.1182 -0.8396
H5 H -0.2142 -0.1453 -0.8367
C7 C -0.2928(3) -0.1637(2) -0.7358(2)
H6 H -0.2614 -0.1114 -0.7172
C8 C -0.4072(3) -0.1722(2) -0.70065(18)
H7 H -0.3987 -0.1788 -0.6458
C9 C -0.4882(3) -0.2390(2) -0.72872(17)
C10 C -0.3805(3) -0.3030(2) -0.83986(18)
C11 C -0.5628(3) -0.2657(2) -0.66444(19)
H8 H -0.5182 -0.2931 -0.6265
H9 H -0.6134 -0.3070 -0.6840
C12 C -0.6295(4) -0.1977(3) -0.6251(2)
H10 H -0.5788 -0.1567 -0.6052
H11 H -0.6666 -0.2228 -0.5823
C13 C -0.7162(3) -0.1511(3) -0.6733(2)
C14 C -0.6753(3) -0.0894(2) -0.73333(19)
H12 H -0.6701 -0.0340 -0.7101
C15 C -0.5653(3) -0.1102(2) -0.76852(17)
C16 C -0.4678(3) -0.0929(2) -0.71500(19)
C17 C -0.7881(4) -0.2108(3) -0.7180(3)
C18 C -0.7937(4) -0.1057(4) -0.6172(3)
H13 H -0.8487 -0.0759 -0.6450
H14 H -0.7523 -0.0672 -0.5871
H15 H -0.8282 -0.1460 -0.5848
C19 C -0.4382(4) -0.3154(2) -0.76642(19)
H16 H -0.3868 -0.3401 -0.7311
H17 H -0.4962 -0.3557 -0.7745
C20 C -0.8100(4) -0.1777(3) -0.7963(3)
H18 H -0.7630 -0.2085 -0.8314
C21 C -0.9256(5) -0.1888(6) -0.8222(4)
H19 H -0.9433 -0.2471 -0.8232
H20 H -0.9338 -0.1658 -0.8721
H21 H -0.9741 -0.1605 -0.7880
C22 C -0.7680(4) -0.0873(3) -0.7934(2)
H22 H -0.8270 -0.0517 -0.7743
C23 C -0.7339(4) -0.0552(3) -0.8697(3)
H23 H -0.7847 -0.0763 -0.9081
C24 C -0.6186(4) -0.0732(2) -0.89429(19)
H24 H -0.6116 -0.1286 -0.9173
C25 C -0.5984(5) -0.0044(3) -0.9505(2)
H25 H -0.6344 -0.0198 -0.9981
C26 C -0.6621(4) 0.0665(3) -0.9160(2)
C27 C -0.4813(6) 0.0186(4) -0.9684(3)
H26 H -0.4448 -0.0287 -0.9902
H27 H -0.4446 0.0348 -0.9227
H28 H -0.4803 0.0641 -1.0036
C28 C -0.1442(4) -0.2713(4) -0.9338(3)
H29 H -0.1274 -0.3120 -0.8957
H30 H -0.1105 -0.2191 -0.9208
H31 H -0.1168 -0.2899 -0.9818
C29 C -0.2964(5) -0.1964(3) -0.9990(2)
H32 H -0.2631 -0.2120 -1.0461
H33 H -0.2706 -0.1423 -0.9841
H34 H -0.3745 -0.1949 -1.0050
C30 C -0.6033(8) -0.5342(6) -1.0738(6)
H35 H -0.6359 -0.5166 -1.1213
H36 H -0.5340 -0.5611 -1.0847
C31 C -0.6727(17) -0.5889(13) -1.0363(13)
H37 H -0.6846 -0.6373 -1.0672
H38 H -0.7413 -0.5618 -1.0267
H39 H -0.6400 -0.6053 -0.9893
C32 C -0.1599(5) -0.2179(4) -0.6502(3)
C33 C -0.0929(4) -0.2901(4) -0.6293(4)
H40 H -0.0504 -0.2769 -0.5852
H41 H -0.0447 -0.3038 -0.6704
H42 H -0.1395 -0.3368 -0.6187
O12 O -0.885(3) -0.4438(12) -0.8071(12)
H43 H -0.9179 -0.4905 -0.8044
H44 H -0.9223 -0.4119 -0.7785
loop_
_geom_bond_atom_site_label_1
_geom_bond_atom_site_label_2
_geom_bond_site_symmetry_1
_geom_bond_site_symmetry_2
O1 C23 1_555 1_555
O2 C26 1_555 1_555
O3 C15 1_555 1_555
O4 C9 1_555 1_555
O5 C16 1_555 1_555
O6 C7 1_555 1_555
O7 C1 1_555 1_555
O8 C3 1_555 1_555
O9 C17 1_555 1_555
O10 C32 1_555 1_555
O11 C3 1_555 1_555
C1 H1 1_555 1_555
C2 C1 1_555 1_555
H2 C2 1_555 1_555
H3 C2 1_555 1_555
C3 C2 1_555 1_555
C4 O7 1_555 1_555
C5 C4 1_555 1_555
C6 C5 1_555 1_555
H4 C6 1_555 1_555
H5 C6 1_555 1_555
C7 C6 1_555 1_555
H6 C7 1_555 1_555
C8 C7 1_555 1_555
H7 C8 1_555 1_555
C9 C8 1_555 1_555
C10 C1 1_555 1_555
C11 C9 1_555 1_555
H8 C11 1_555 1_555
H9 C11 1_555 1_555
C12 C11 1_555 1_555
H10 C12 1_555 1_555
H11 C12 1_555 1_555
C13 C12 1_555 1_555
C14 C13 1_555 1_555
H12 C14 1_555 1_555
C15 O4 1_555 1_555
C16 C8 1_555 1_555
C17 C13 1_555 1_555
C18 C13 1_555 1_555
H13 C18 1_555 1_555
H14 C18 1_555 1_555
H15 C18 1_555 1_555
C19 C9 1_555 1_555
H16 C19 1_555 1_555
H17 C19 1_555 1_555
C20 C17 1_555 1_555
H18 C20 1_555 1_555
C21 C20 1_555 1_555
H19 C21 1_555 1_555
H20 C21 1_555 1_555
H21 C21 1_555 1_555
C22 C14 1_555 1_555
H22 C22 1_555 1_555
C23 C22 1_555 1_555
H23 C23 1_555 1_555
C24 O3 1_555 1_555
H24 C24 1_555 1_555
C25 C24 1_555 1_555
H25 C25 1_555 1_555
C26 O1 1_555 1_555
C27 C25 1_555 1_555
H26 C27 1_555 1_555
H27 C27 1_555 1_555
H28 C27 1_555 1_555
C28 C4 1_555 1_555
H29 C28 1_555 1_555
H30 C28 1_555 1_555
H31 C28 1_555 1_555
C29 C4 1_555 1_555
H32 C29 1_555 1_555
H33 C29 1_555 1_555
H34 C29 1_555 1_555
C30 O11 1_555 1_555
H35 C30 1_555 1_555
H36 C30 1_555 1_555
C31 C30 1_555 1_555
H37 C31 1_555 1_555
H38 C31 1_555 1_555
H39 C31 1_555 1_555
C32 O6 1_555 1_555
C33 C32 1_555 1_555
H40 C33 1_555 1_555
H41 C33 1_555 1_555
H42 C33 1_555 1_555
O12 H43 1_555 1_555
H44 O12 1_555 1_555
C5 C10 1_555 1_555
C10 C19 1_555 1_555
C14 C15 1_555 1_555
C15 C16 1_555 1_555
C20 C22 1_555 1_555
C23 C24 1_555 1_555
C25 C26 1_555 1_555

#END
