
#######################################################################
#
#                 Cambridge Crystallographic Data Centre
#                                CCDC 
#
#######################################################################
#
# If this CIF has been generated from an entry in the Cambridge 
# Structural Database, then it will include bibliographic, chemical, 
# crystal, experimental, refinement or atomic coordinate data resulting 
# from the CCDC's data processing and validation procedures.
#
#######################################################################

data_TOPGIP
_chemical_formula_moiety         'C29 H22 N2'
_chemical_name_systematic        
9-Ethyl-3-(4-phenyl-2-quinolinyl)-9H-carbazole
_symmetry_cell_setting           orthorhombic
_symmetry_space_group_name_H-M   'P b c a'
_symmetry_Int_Tables_number      61
_space_group_name_Hall           '-P 2ac 2ab'
loop_
_symmetry_equiv_pos_site_id
_symmetry_equiv_pos_as_xyz
1 x,y,z
2 1/2-x,-y,1/2+z
3 -x,1/2+y,1/2-z
4 1/2+x,1/2-y,-z
5 -x,-y,-z
6 1/2+x,y,1/2-z
7 x,1/2-y,1/2+z
8 1/2-x,1/2+y,z
_cell_length_a                   13.1867(6)
_cell_length_b                   12.8936(7)
_cell_length_c                   24.2656(10)
_cell_angle_alpha                90
_cell_angle_beta                 90
_cell_angle_gamma                90
_cell_volume                     4125.74
_exptl_crystal_colour            colorless
_exptl_crystal_description       block
_cell_formula_units_Z            8
loop_
_atom_site_label
_atom_site_type_symbol
_atom_site_fract_x
_atom_site_fract_y
_atom_site_fract_z
C1 C 0.13002(15) -0.01194(15) 0.45859(7)
C2 C 0.17849(16) -0.01023(15) 0.51055(8)
H1 H 0.2134 -0.069 0.5222
C3 C 0.17592(15) 0.07449(15) 0.54422(8)
C4 C 0.11998(15) 0.16330(15) 0.52558(8)
C5 C 0.10561(17) 0.25499(16) 0.55632(8)
H2 H 0.1337 0.2605 0.5914
C6 C 0.05104(18) 0.33555(17) 0.53532(10)
H3 H 0.0427 0.3956 0.5561
C7 C 0.00757(19) 0.32894(18) 0.48309(10)
H4 H -0.0288 0.3848 0.469
C8 C 0.01828(17) 0.24071(17) 0.45246(9)
H5 H -0.0113 0.2367 0.4177
C9 C 0.07367(15) 0.15584(15) 0.47306(8)
N1 N 0.07921(13) 0.06967(12) 0.43996(6)
C10 C 0.13348(15) -0.10459(15) 0.42257(7)
C11 C 0.20098(16) -0.18700(16) 0.43271(8)
H6 H 0.2444 -0.1825 0.4628
C12 C 0.20540(17) -0.27388(16) 0.39999(8)
H7 H 0.2512 -0.3269 0.4074
C13 C 0.13963(16) -0.27996(15) 0.35576(8)
N2 N 0.12888(14) -0.35824(13) 0.31685(7)
C14 C 0.04989(16) -0.33145(15) 0.28174(8)
C15 C 0.01158(18) -0.38447(16) 0.23646(8)
H8 H 0.0391 -0.4476 0.2256
C16 C -0.0680(2) -0.34111(18) 0.20825(9)
H9 H -0.0933 -0.3743 0.1771
C17 C -0.11138(19) -0.24842(17) 0.22539(9)
H10 H -0.1673 -0.2224 0.2066
C18 C -0.07296(18) -0.19423(16) 0.26978(8)
H11 H -0.1023 -0.1321 0.2809
C19 C 0.01047(16) -0.23436(15) 0.29763(7)
C20 C 0.06944(15) -0.20006(14) 0.34430(7)
C21 C 0.06782(15) -0.11255(14) 0.37776(8)
H12 H 0.0227 -0.059 0.3702
C22 C 0.22877(16) 0.07091(16) 0.59824(8)
C23 C 0.21976(18) -0.01685(16) 0.63146(8)
H13 H 0.1785 -0.0714 0.6203
C24 C 0.2717(2) -0.0236(2) 0.68098(9)
H14 H 0.2658 -0.0831 0.7025
C25 C 0.3315(2) 0.0567(2) 0.69848(10)
H15 H 0.3654 0.0523 0.732
C26 C 0.34130(19) 0.1441(2) 0.66628(10)
H16 H 0.3816 0.199 0.6781
C27 C 0.29159(17) 0.15030(18) 0.61664(9)
H17 H 0.3002 0.209 0.5948
C28 C 0.16901(18) -0.46282(16) 0.32450(9)
H18 H 0.2395 -0.4584 0.3358
H19 H 0.1665 -0.4997 0.2897
C29 C 0.1102(2) -0.52305(17) 0.36723(9)
H20 H 0.139 -0.591 0.3711
H21 H 0.0407 -0.5289 0.3559
H22 H 0.1135 -0.4875 0.4019
loop_
_geom_bond_atom_site_label_1
_geom_bond_atom_site_label_2
_geom_bond_site_symmetry_1
_geom_bond_site_symmetry_2
C1 C2 1_555 1_555
C2 H1 1_555 1_555
C3 C2 1_555 1_555
C4 C3 1_555 1_555
C5 C4 1_555 1_555
H2 C5 1_555 1_555
C6 C5 1_555 1_555
H3 C6 1_555 1_555
C7 C6 1_555 1_555
H4 C7 1_555 1_555
C8 C7 1_555 1_555
H5 C8 1_555 1_555
C9 C4 1_555 1_555
N1 C1 1_555 1_555
C10 C1 1_555 1_555
C11 C10 1_555 1_555
H6 C11 1_555 1_555
C12 C11 1_555 1_555
H7 C12 1_555 1_555
C13 C12 1_555 1_555
N2 C13 1_555 1_555
C14 N2 1_555 1_555
C15 C14 1_555 1_555
H8 C15 1_555 1_555
C16 C15 1_555 1_555
H9 C16 1_555 1_555
C17 C16 1_555 1_555
H10 C17 1_555 1_555
C18 C17 1_555 1_555
H11 C18 1_555 1_555
C19 C14 1_555 1_555
C20 C13 1_555 1_555
C21 C10 1_555 1_555
H12 C21 1_555 1_555
C22 C3 1_555 1_555
C23 C22 1_555 1_555
H13 C23 1_555 1_555
C24 C23 1_555 1_555
H14 C24 1_555 1_555
C25 C24 1_555 1_555
H15 C25 1_555 1_555
C26 C25 1_555 1_555
H16 C26 1_555 1_555
C27 C22 1_555 1_555
H17 C27 1_555 1_555
C28 N2 1_555 1_555
H18 C28 1_555 1_555
H19 C28 1_555 1_555
C29 C28 1_555 1_555
H20 C29 1_555 1_555
H21 C29 1_555 1_555
H22 C29 1_555 1_555
C8 C9 1_555 1_555
C9 N1 1_555 1_555
C18 C19 1_555 1_555
C19 C20 1_555 1_555
C20 C21 1_555 1_555
C26 C27 1_555 1_555

#END
