
#######################################################################
#
#                 Cambridge Crystallographic Data Centre
#                                CCDC 
#
#######################################################################
#
# If this CIF has been generated from an entry in the Cambridge 
# Structural Database, then it will include bibliographic, chemical, 
# crystal, experimental, refinement or atomic coordinate data resulting 
# from the CCDC's data processing and validation procedures.
#
#######################################################################

data_TOPMIV
_chemical_formula_moiety         'C36 H36 F12 N2 O6 S2'
_chemical_name_systematic        
(S,S)-4,4',6,6'-tetrakis(Trifluoromethyl)-N,N'-bis(7,7-dimethyl-2-oxobicyclo(2.2.1)heptylmethylsulfonylamino)biphenyl-2,2'-diamine
_symmetry_cell_setting           orthorhombic
_symmetry_space_group_name_H-M   'P 21 21 21'
_symmetry_Int_Tables_number      19
_space_group_name_Hall           'P 2ac 2ab'
loop_
_symmetry_equiv_pos_site_id
_symmetry_equiv_pos_as_xyz
1 x,y,z
2 1/2-x,-y,1/2+z
3 1/2+x,1/2-y,-z
4 -x,1/2+y,1/2-z
_cell_length_a                   13.8439(5)
_cell_length_b                   14.6436(6)
_cell_length_c                   37.6480(14)
_cell_angle_alpha                90
_cell_angle_beta                 90
_cell_angle_gamma                90
_cell_volume                     7632.17
_exptl_crystal_colour            colorless
_exptl_crystal_description       block
_chemical_melting_point          202-204deg.C
_cell_formula_units_Z            8
loop_
_atom_site_label
_atom_site_type_symbol
_atom_site_fract_x
_atom_site_fract_y
_atom_site_fract_z
S1 S 0.93507(14) -0.14246(14) 0.10637(5)
S2 S 0.78195(17) 0.26524(14) 0.08833(6)
F1 F 1.2234(5) -0.0608(9) 0.0270(2)
F2 F 1.1784(6) -0.1094(9) -0.0193(4)
F3 F 1.2152(6) 0.0210(9) -0.0148(4)
F4 F 0.9159(5) 0.1438(6) -0.05744(16)
F5 F 0.7875(6) 0.0688(6) -0.04499(18)
F6 F 0.8250(4) 0.1870(4) -0.01580(15)
F7 F 0.7785(11) -0.1074(6) -0.0261(3)
F8 F 0.7818(8) -0.1646(5) 0.0218(2)
F9 F 0.6598(6) -0.1623(7) -0.0081(4)
F10 F 0.4464(6) 0.1451(8) 0.0064(2)
F11 F 0.4131(5) 0.0296(7) 0.0341(3)
F12 F 0.4435(5) 0.1490(7) 0.0615(2)
O1 O 0.9521(6) -0.3670(6) 0.02606(17)
O2 O 1.0349(4) -0.1255(4) 0.11307(15)
O3 O 0.8698(4) -0.1473(4) 0.13591(14)
O4 O 0.7123(5) 0.3197(5) 0.06992(17)
O5 O 0.8751(5) 0.3019(5) 0.09614(18)
O6 O 0.7219(4) 0.1733(4) 0.20014(16)
N1 N 0.8916(5) -0.0585(5) 0.08126(16)
H1 H 0.8393 -0.0319 0.0880
N2 N 0.8055(5) 0.1719(4) 0.06569(19)
H2 H 0.8654 0.1573 0.0637
C1 C 0.9125(10) -0.3614(8) 0.1544(3)
H3 H 0.9767 -0.3402 0.1593
H4 H 0.8971 -0.4112 0.1700
H5 H 0.8673 -0.3126 0.1581
C2 C 0.8006(8) -0.4065(10) 0.1059(4)
H6 H 0.7686 -0.3484 0.1060
H7 H 0.7702 -0.4463 0.1228
H8 H 0.7963 -0.4330 0.0826
C3 C 0.9065(7) -0.3937(7) 0.1158(2)
C4 C 0.9734(7) -0.4772(7) 0.1094(3)
H9 H 0.9586 -0.5314 0.1236
C5 C 0.9636(10) -0.4893(8) 0.0693(3)
H10 H 1.0193 -0.5204 0.0594
H11 H 0.9056 -0.5231 0.0633
C6 C 0.9579(7) -0.3940(6) 0.0566(2)
C7 C 0.9607(6) -0.3321(5) 0.0896(2)
C8 C 1.0731(8) -0.4379(7) 0.1146(3)
H12 H 1.1201 -0.4714 0.1006
H13 H 1.0918 -0.4410 0.1394
C9 C 1.0671(6) -0.3340(7) 0.1016(3)
H14 H 1.0793 -0.2915 0.1209
H15 H 1.1110 -0.3217 0.0821
C10 C 0.9194(6) -0.2405(5) 0.0786(2)
H16 H 0.8505 -0.2488 0.0752
H17 H 0.9465 -0.2257 0.0556
C11 C 0.9358(6) -0.0284(5) 0.0495(2)
C12 C 1.0310(6) -0.0465(5) 0.0409(2)
H18 H 1.0695 -0.0799 0.0564
C13 C 1.0686(7) -0.0148(7) 0.0092(2)
C14 C 1.1713(8) -0.0387(7) 0.0011(3)
C15 C 1.0154(7) 0.0394(7) -0.0132(2)
H19 H 1.0437 0.0650 -0.0333
C16 C 0.9212(7) 0.0548(6) -0.0056(2)
C17 C 0.8619(7) 0.1124(7) -0.0313(2)
C18 C 0.8770(6) 0.0206(5) 0.0253(2)
C19 C 0.7707(6) 0.0333(6) 0.0323(2)
C20 C 0.7012(6) -0.0254(6) 0.0184(2)
C21 C 0.7288(6) -0.1156(6) 0.0023(2)
C22 C 0.6027(6) -0.0069(7) 0.0202(2)
H20 H 0.5576 -0.0480 0.0113
C23 C 0.5746(6) 0.0726(7) 0.0354(2)
C24 C 0.4702(8) 0.1015(8) 0.0346(3)
C25 C 0.6393(6) 0.1347(7) 0.0501(2)
H21 H 0.6177 0.1888 0.0603
C26 C 0.7384(6) 0.1133(5) 0.0492(2)
C27 C 0.7289(6) 0.2206(5) 0.1281(2)
H22 H 0.6753 0.1815 0.1214
H23 H 0.7765 0.1823 0.1397
C28 C 0.6921(6) 0.2896(5) 0.1551(2)
C29 C 0.5871(6) 0.3338(6) 0.1524(2)
C30 C 0.5096(6) 0.2590(6) 0.1508(3)
H24 H 0.4472 0.2856 0.1550
H25 H 0.5226 0.2138 0.1687
H26 H 0.5104 0.2308 0.1278
C31 C 0.5713(7) 0.4003(8) 0.1219(3)
H27 H 0.5595 0.3667 0.1004
H28 H 0.6278 0.4376 0.1190
H29 H 0.5167 0.4384 0.1270
C32 C 0.5974(6) 0.3815(5) 0.1897(2)
H30 H 0.5401 0.4162 0.1969
C33 C 0.6213(6) 0.3020(6) 0.2143(2)
H31 H 0.6546 0.3229 0.2354
H32 H 0.5633 0.2694 0.2212
C34 C 0.6849(6) 0.2440(6) 0.1920(2)
C35 C 0.6874(6) 0.4403(6) 0.1846(3)
H33 H 0.7158 0.4570 0.2072
H34 H 0.6726 0.4954 0.1713
C36 C 0.7560(6) 0.3764(5) 0.1631(2)
H35 H 0.8125 0.3602 0.1769
H36 H 0.7768 0.4055 0.1412
S3 S 0.62808(15) 0.92884(16) 0.12735(5)
S4 S 0.98068(14) 1.14663(15) 0.18726(6)
F13 F 0.4333(4) 1.1413(4) 0.22233(17)
F14 F 0.3874(4) 1.0062(4) 0.23476(16)
F15 F 0.4383(4) 1.0935(4) 0.27600(14)
F16 F 0.7512(5) 1.0404(7) 0.31558(16)
F17 F 0.8652(4) 1.0486(5) 0.27842(16)
F18 F 0.8167(5) 0.9202(5) 0.29563(16)
F19 F 0.7143(4) 0.7918(4) 0.25886(15)
F20 F 0.7054(4) 0.7689(4) 0.20305(15)
F21 F 0.7931(4) 0.6827(3) 0.23525(16)
F22 F 1.1390(7) 0.7559(11) 0.2374(3)
F23 F 1.1422(7) 0.7722(13) 0.1869(3)
F24 F 1.1844(7) 0.8673(7) 0.2167(7)
O7 O 0.3825(6) 0.9062(8) 0.1555(3)
O8 O 0.5642(4) 1.0041(4) 0.12397(15)
O9 O 0.6915(4) 0.9084(5) 0.09833(15)
O10 O 0.9286(4) 1.2298(4) 0.18535(16)
O11 O 1.0612(4) 1.1376(5) 0.21102(15)
O12 O 1.0098(4) 1.1566(4) 0.06976(16)
N3 N 0.7002(4) 0.9468(5) 0.16098(17)
H37 H 0.7611 0.9399 0.1574
N4 N 0.8987(4) 1.0694(4) 0.19717(18)
H38 H 0.8394 1.0869 0.1966
C37 C 0.3539(7) 0.7276(8) 0.0928(3)
H39 H 0.3151 0.6735 0.0871
C38 C 0.3926(11) 0.7827(9) 0.0603(4)
H40 H 0.4144 0.7421 0.0416
H41 H 0.3431 0.8228 0.0509
C39 C 0.4773(10) 0.8379(13) 0.0756(3)
H42 H 0.4666 0.9030 0.0730
H43 H 0.5377 0.8216 0.0642
C40 C 0.4766(7) 0.8072(7) 0.1179(3)
C41 C 0.4471(8) 0.7098(8) 0.1112(3)
C42 C 0.4225(11) 0.6742(15) 0.1496(4)
H44 H 0.3586 0.6489 0.1497
H45 H 0.4258 0.7240 0.1661
H46 H 0.4682 0.6280 0.1563
C43 C 0.5177(9) 0.6518(8) 0.0930(4)
H47 H 0.4896 0.5931 0.0884
H48 H 0.5738 0.6445 0.1078
H49 H 0.5361 0.6799 0.0710
C44 C 0.3028(8) 0.8011(11) 0.1135(4)
H50 H 0.2662 0.8409 0.0979
H51 H 0.2597 0.7751 0.1311
C45 C 0.3850(7) 0.8516(8) 0.1308(3)
C46 C 0.5650(6) 0.8295(6) 0.1392(2)
H52 H 0.6091 0.7783 0.1375
H53 H 0.5460 0.8349 0.1639
C47 C 0.6711(6) 0.9727(5) 0.1955(2)
C48 C 0.5781(5) 1.0064(6) 0.2025(2)
H54 H 0.5325 1.0091 0.1844
C49 C 0.5545(6) 1.0355(5) 0.2361(2)
C50 C 0.4542(6) 1.0685(6) 0.2423(2)
C51 C 0.6212(6) 1.0344(6) 0.2633(2)
H55 H 0.6050 1.0565 0.2856
C52 C 0.7118(6) 1.0004(6) 0.2568(2)
C53 C 0.7846(7) 1.0041(6) 0.2872(2)
C54 C 0.7387(5) 0.9678(5) 0.2232(2)
C55 C 0.8355(5) 0.9251(5) 0.21710(19)
C56 C 0.8504(6) 0.8319(6) 0.2242(2)
C57 C 0.7675(7) 0.7703(7) 0.2310(2)
C58 C 0.9430(6) 0.7936(6) 0.2232(2)
H56 H 0.9531 0.7321 0.2281
C59 C 1.0200(6) 0.8515(6) 0.2145(2)
C60 C 1.1191(7) 0.8117(7) 0.2142(3)
C61 C 1.0081(6) 0.9396(6) 0.2061(2)
H57 H 1.0614 0.9750 0.2002
C62 C 0.9154(6) 0.9787(5) 0.2064(2)
C63 C 1.0171(6) 1.1149(6) 0.1436(2)
H58 H 1.0408 1.0526 0.1443
H59 H 0.9607 1.1158 0.1283
C64 C 1.0956(6) 1.1756(6) 0.1267(2)
C65 C 1.1028(7) 1.2785(6) 0.1368(3)
H60 H 1.0517 1.3135 0.1256
H61 H 1.0992 1.2868 0.1623
C66 C 1.2024(7) 1.3066(7) 0.1225(3)
H62 H 1.1969 1.3577 0.1062
H63 H 1.2454 1.3233 0.1417
C67 C 1.2390(7) 1.2220(7) 0.1033(3)
H64 H 1.3087 1.2219 0.0986
C68 C 1.2042(6) 1.1445(6) 0.1279(2)
C69 C 1.2507(6) 1.1447(8) 0.1646(3)
H65 H 1.3165 1.1246 0.1628
H66 H 1.2157 1.1042 0.1800
H67 H 1.2491 1.2054 0.1742
C70 C 1.2185(7) 1.0474(6) 0.1129(3)
H68 H 1.1878 1.0431 0.0900
H69 H 1.1902 1.0037 0.1287
H70 H 1.2863 1.0351 0.1104
C71 C 1.1770(7) 1.2108(8) 0.0708(3)
H71 H 1.1692 1.2683 0.0583
H72 H 1.2040 1.1658 0.0546
C72 C 1.0838(6) 1.1789(6) 0.0861(3)
loop_
_geom_bond_atom_site_label_1
_geom_bond_atom_site_label_2
_geom_bond_site_symmetry_1
_geom_bond_site_symmetry_2
S1 O2 1_555 1_555
S2 O4 1_555 1_555
F1 C14 1_555 1_555
F2 C14 1_555 1_555
F3 C14 1_555 1_555
F4 C17 1_555 1_555
F5 C17 1_555 1_555
F6 C17 1_555 1_555
F7 C21 1_555 1_555
F8 C21 1_555 1_555
F9 C21 1_555 1_555
F10 C24 1_555 1_555
F11 C24 1_555 1_555
F12 C24 1_555 1_555
O1 C6 1_555 1_555
O3 S1 1_555 1_555
O5 S2 1_555 1_555
O6 C34 1_555 1_555
N1 S1 1_555 1_555
H1 N1 1_555 1_555
N2 S2 1_555 1_555
H2 N2 1_555 1_555
C1 H3 1_555 1_555
H4 C1 1_555 1_555
H5 C1 1_555 1_555
C2 H6 1_555 1_555
H7 C2 1_555 1_555
H8 C2 1_555 1_555
C3 C1 1_555 1_555
C4 C3 1_555 1_555
H9 C4 1_555 1_555
C5 C4 1_555 1_555
H10 C5 1_555 1_555
H11 C5 1_555 1_555
C6 C5 1_555 1_555
C7 C3 1_555 1_555
C8 C4 1_555 1_555
H12 C8 1_555 1_555
H13 C8 1_555 1_555
C9 C7 1_555 1_555
H14 C9 1_555 1_555
H15 C9 1_555 1_555
C10 S1 1_555 1_555
H16 C10 1_555 1_555
H17 C10 1_555 1_555
C11 N1 1_555 1_555
C12 C11 1_555 1_555
H18 C12 1_555 1_555
C13 C12 1_555 1_555
C14 C13 1_555 1_555
C15 C13 1_555 1_555
H19 C15 1_555 1_555
C16 C15 1_555 1_555
C17 C16 1_555 1_555
C18 C11 1_555 1_555
C19 C18 1_555 1_555
C20 C19 1_555 1_555
C21 C20 1_555 1_555
C22 C20 1_555 1_555
H20 C22 1_555 1_555
C23 C22 1_555 1_555
C24 C23 1_555 1_555
C25 C23 1_555 1_555
H21 C25 1_555 1_555
C26 N2 1_555 1_555
C27 S2 1_555 1_555
H22 C27 1_555 1_555
H23 C27 1_555 1_555
C28 C27 1_555 1_555
C29 C28 1_555 1_555
C30 C29 1_555 1_555
H24 C30 1_555 1_555
H25 C30 1_555 1_555
H26 C30 1_555 1_555
C31 C29 1_555 1_555
H27 C31 1_555 1_555
H28 C31 1_555 1_555
H29 C31 1_555 1_555
C32 C29 1_555 1_555
H30 C32 1_555 1_555
C33 C32 1_555 1_555
H31 C33 1_555 1_555
H32 C33 1_555 1_555
C34 C28 1_555 1_555
C35 C32 1_555 1_555
H33 C35 1_555 1_555
H34 C35 1_555 1_555
C36 C28 1_555 1_555
H35 C36 1_555 1_555
H36 C36 1_555 1_555
S3 O8 1_555 1_555
S4 O10 1_555 1_555
F13 C50 1_555 1_555
F14 C50 1_555 1_555
F15 C50 1_555 1_555
F16 C53 1_555 1_555
F17 C53 1_555 1_555
F18 C53 1_555 1_555
F19 C57 1_555 1_555
F20 C57 1_555 1_555
F21 C57 1_555 1_555
F22 C60 1_555 1_555
F23 C60 1_555 1_555
F24 C60 1_555 1_555
O7 C45 1_555 1_555
O9 S3 1_555 1_555
O11 S4 1_555 1_555
O12 C72 1_555 1_555
N3 S3 1_555 1_555
H37 N3 1_555 1_555
N4 S4 1_555 1_555
H38 N4 1_555 1_555
C37 H39 1_555 1_555
C38 C37 1_555 1_555
H40 C38 1_555 1_555
H41 C38 1_555 1_555
C39 C38 1_555 1_555
H42 C39 1_555 1_555
H43 C39 1_555 1_555
C40 C39 1_555 1_555
C41 C37 1_555 1_555
C42 C41 1_555 1_555
H44 C42 1_555 1_555
H45 C42 1_555 1_555
H46 C42 1_555 1_555
C43 C41 1_555 1_555
H47 C43 1_555 1_555
H48 C43 1_555 1_555
H49 C43 1_555 1_555
C44 C37 1_555 1_555
H50 C44 1_555 1_555
H51 C44 1_555 1_555
C45 C40 1_555 1_555
C46 S3 1_555 1_555
H52 C46 1_555 1_555
H53 C46 1_555 1_555
C47 N3 1_555 1_555
C48 C47 1_555 1_555
H54 C48 1_555 1_555
C49 C48 1_555 1_555
C50 C49 1_555 1_555
C51 C49 1_555 1_555
H55 C51 1_555 1_555
C52 C51 1_555 1_555
C53 C52 1_555 1_555
C54 C47 1_555 1_555
C55 C54 1_555 1_555
C56 C55 1_555 1_555
C57 C56 1_555 1_555
C58 C56 1_555 1_555
H56 C58 1_555 1_555
C59 C58 1_555 1_555
C60 C59 1_555 1_555
C61 C59 1_555 1_555
H57 C61 1_555 1_555
C62 N4 1_555 1_555
C63 S4 1_555 1_555
H58 C63 1_555 1_555
H59 C63 1_555 1_555
C64 C63 1_555 1_555
C65 C64 1_555 1_555
H60 C65 1_555 1_555
H61 C65 1_555 1_555
C66 C65 1_555 1_555
H62 C66 1_555 1_555
H63 C66 1_555 1_555
C67 C66 1_555 1_555
H64 C67 1_555 1_555
C68 C64 1_555 1_555
C69 C68 1_555 1_555
H65 C69 1_555 1_555
H66 C69 1_555 1_555
H67 C69 1_555 1_555
C70 C68 1_555 1_555
H68 C70 1_555 1_555
H69 C70 1_555 1_555
H70 C70 1_555 1_555
C71 C67 1_555 1_555
H71 C71 1_555 1_555
H72 C71 1_555 1_555
C72 C64 1_555 1_555
C2 C3 1_555 1_555
C6 C7 1_555 1_555
C7 C10 1_555 1_555
C8 C9 1_555 1_555
C16 C18 1_555 1_555
C19 C26 1_555 1_555
C25 C26 1_555 1_555
C33 C34 1_555 1_555
C35 C36 1_555 1_555
C40 C41 1_555 1_555
C40 C46 1_555 1_555
C44 C45 1_555 1_555
C52 C54 1_555 1_555
C55 C62 1_555 1_555
C61 C62 1_555 1_555
C67 C68 1_555 1_555
C71 C72 1_555 1_555

#END
