
#######################################################################
#
#                 Cambridge Crystallographic Data Centre
#                                CCDC 
#
#######################################################################
#
# If this CIF has been generated from an entry in the Cambridge 
# Structural Database, then it will include bibliographic, chemical, 
# crystal, experimental, refinement or atomic coordinate data resulting 
# from the CCDC's data processing and validation procedures.
#
#######################################################################

data_TOPMOC
_chemical_formula_moiety         'C23 H15 Br1 O5'
_chemical_name_systematic        
'methyl 11-bromo-13c-methoxy-1-oxo-1,13c-dihydrodibenzo[a,kl]xanthene-2-carboxylate'
_symmetry_cell_setting           triclinic
_symmetry_space_group_name_H-M   'P -1'
_symmetry_Int_Tables_number      2
_space_group_name_Hall           '-P 1'
loop_
_symmetry_equiv_pos_site_id
_symmetry_equiv_pos_as_xyz
1 x,y,z
2 -x,-y,-z
_cell_length_a                   9.0481(4)
_cell_length_b                   10.6997(9)
_cell_length_c                   11.7584(10)
_cell_angle_alpha                108.230(7)
_cell_angle_beta                 100.226(5)
_cell_angle_gamma                113.278(6)
_cell_volume                     932.162
_cell_formula_units_Z            2
loop_
_atom_site_label
_atom_site_type_symbol
_atom_site_fract_x
_atom_site_fract_y
_atom_site_fract_z
Br1 Br 0.16176(3) 0.84058(3) 0.37787(2)
O1 O -0.8191(2) 0.5113(2) 0.40039(16)
O2 O -0.7371(2) 0.47097(18) 0.07790(15)
O3 O -0.6318(2) 0.22800(19) 0.14372(16)
O4 O -0.9612(3) -0.0233(2) -0.23981(18)
O5 O -0.6789(2) 0.1287(2) -0.13286(17)
C1 C -0.1939(3) 0.6349(3) 0.2290(2)
H1 H -0.1554 0.6174 0.1603
C2 C -0.7307(3) 0.2628(3) 0.0973(2)
C3 C -0.6063(3) 0.5148(3) 0.2973(2)
C4 C -0.1291(3) 0.7652(3) 0.4558(2)
H2 H -0.0496 0.8323 0.5371
C5 C -0.8440(3) 0.0778(3) -0.1449(2)
C6 C -0.4280(3) 0.5856(3) 0.3126(2)
C7 C -0.3649(3) 0.5615(2) 0.2102(2)
H3 H -0.4418 0.4941 0.1282
C8 C -0.0764(3) 0.7370(3) 0.3530(2)
C9 C -0.7434(3) 0.4040(3) 0.1679(2)
C10 C -0.9207(3) 0.3434(3) 0.1780(2)
C11 C -1.0280(3) 0.1454(3) -0.0394(2)
H4 H -1.1177 0.0816 -0.1169
C12 C -0.6531(3) 0.5596(3) 0.4021(2)
C13 C -0.3047(3) 0.6916(3) 0.4370(2)
C14 C -1.0613(3) 0.2243(3) 0.0698(2)
C15 C -0.7675(4) 0.5958(3) 0.1127(3)
H5 H -0.7610 0.6339 0.0489
H6 H -0.6826 0.6731 0.1934
H7 H -0.8794 0.5649 0.1195
C16 C -0.8705(3) 0.1627(3) -0.0308(2)
C17 C -0.3626(3) 0.7267(3) 0.5427(2)
H8 H -0.2829 0.7933 0.6240
C18 C -0.5309(3) 0.6643(3) 0.5254(2)
H9 H -0.5673 0.6898 0.5942
C19 C -1.2269(3) 0.1806(3) 0.0730(3)
H10 H -1.3203 0.1036 0.0013
C20 C -0.9497(3) 0.4053(3) 0.2884(2)
C21 C -1.1158(4) 0.3617(3) 0.2919(3)
H11 H -1.1337 0.4059 0.3662
C22 C -1.2533(3) 0.2509(3) 0.1820(3)
H12 H -1.3646 0.2237 0.1816
C23 C -0.6484(4) 0.0625(3) -0.2468(3)
H13 H -0.5272 0.1054 -0.2302
H14 H -0.7001 0.0817 -0.3134
H15 H -0.6975 -0.0440 -0.2729
loop_
_geom_bond_atom_site_label_1
_geom_bond_atom_site_label_2
_geom_bond_site_symmetry_1
_geom_bond_site_symmetry_2
Br1 C8 1_555 1_555
O1 C12 1_555 1_555
O2 C9 1_555 1_555
O3 C2 1_555 1_555
O4 C5 1_555 1_555
O5 C5 1_555 1_555
C1 H1 1_555 1_555
C2 C9 1_555 1_555
C3 C6 1_555 1_555
C4 H2 1_555 1_555
C5 C16 1_555 1_555
C6 C7 1_555 1_555
C7 C1 1_555 1_555
H3 C7 1_555 1_555
C8 C1 1_555 1_555
C9 C3 1_555 1_555
C10 C9 1_555 1_555
C11 H4 1_555 1_555
C12 C3 1_555 1_555
C13 C4 1_555 1_555
C14 C10 1_555 1_555
C15 O2 1_555 1_555
H5 C15 1_555 1_555
H6 C15 1_555 1_555
H7 C15 1_555 1_555
C16 C2 1_555 1_555
C17 C13 1_555 1_555
H8 C17 1_555 1_555
C18 C12 1_555 1_555
H9 C18 1_555 1_555
C19 C14 1_555 1_555
H10 C19 1_555 1_555
C20 O1 1_555 1_555
C21 C20 1_555 1_555
H11 C21 1_555 1_555
C22 C19 1_555 1_555
H12 C22 1_555 1_555
C23 O5 1_555 1_555
H13 C23 1_555 1_555
H14 C23 1_555 1_555
H15 C23 1_555 1_555
C4 C8 1_555 1_555
C6 C13 1_555 1_555
C10 C20 1_555 1_555
C11 C14 1_555 1_555
C11 C16 1_555 1_555
C17 C18 1_555 1_555
C21 C22 1_555 1_555

#END
