
#######################################################################
#
#                 Cambridge Crystallographic Data Centre
#                                CCDC 
#
#######################################################################
#
# If this CIF has been generated from an entry in the Cambridge 
# Structural Database, then it will include bibliographic, chemical, 
# crystal, experimental, refinement or atomic coordinate data resulting 
# from the CCDC's data processing and validation procedures.
#
#######################################################################

data_TOPNOD
_chemical_formula_moiety         'C16 H15 N3 S1'
_chemical_name_systematic        
N-phenyl-2-(3-phenylprop-2-en-1-ylidene)hydrazinecarbothioamide
_symmetry_cell_setting           monoclinic
_symmetry_space_group_name_H-M   'P 21/n'
_symmetry_Int_Tables_number      14
_space_group_name_Hall           '-P 2yn'
loop_
_symmetry_equiv_pos_site_id
_symmetry_equiv_pos_as_xyz
1 x,y,z
2 1/2-x,1/2+y,1/2-z
3 -x,-y,-z
4 1/2+x,1/2-y,1/2+z
_cell_length_a                   8.3126(8)
_cell_length_b                   17.3527(17)
_cell_length_c                   10.4408(10)
_cell_angle_alpha                90
_cell_angle_beta                 100.913(3)
_cell_angle_gamma                90
_cell_volume                     1478.81
_exptl_crystal_description       block
_cell_formula_units_Z            4
loop_
_atom_site_label
_atom_site_type_symbol
_atom_site_fract_x
_atom_site_fract_y
_atom_site_fract_z
C1 C 0.3192(2) -0.03622(12) 0.15199(19)
H1 H 0.3141 -0.0723 0.2171
C2 C 0.2246(3) -0.04835(12) 0.02487(19)
H2 H 0.2351 -0.0130 -0.0400
C3 C 0.1223(3) -0.10709(12) -0.0066(2)
H3 H 0.1183 -0.1426 0.0594
C4 C 0.0158(2) -0.12280(11) -0.13130(19)
C5 C -0.0023(3) -0.07213(13) -0.2356(2)
H4 H 0.0558 -0.0260 -0.2269
C6 C -0.1046(3) -0.08887(16) -0.3515(2)
H5 H -0.1158 -0.0539 -0.4202
C7 C -0.1903(3) -0.15656(19) -0.3668(3)
H6 H -0.2591 -0.1680 -0.4456
C8 C -0.1737(3) -0.20732(17) -0.2648(3)
H7 H -0.2311 -0.2536 -0.2749
C9 C -0.0734(3) -0.19081(13) -0.1479(2)
H8 H -0.0651 -0.2255 -0.0791
C10 C 0.5730(2) 0.09485(11) 0.34722(18)
C11 C 0.6375(2) 0.22350(11) 0.26499(18)
C12 C 0.5471(3) 0.27987(12) 0.1897(2)
H9 H 0.4480 0.2672 0.1361
C13 C 0.6034(3) 0.35452(13) 0.1938(2)
H10 H 0.5422 0.3923 0.1433
C14 C 0.7492(3) 0.37340(13) 0.2720(2)
H11 H 0.7874 0.4239 0.2745
C15 C 0.8392(3) 0.31765(13) 0.3471(2)
H12 H 0.9376 0.3307 0.4013
C16 C 0.7849(2) 0.24258(12) 0.3425(2)
H13 H 0.8478 0.2048 0.3918
N1 N 0.4108(2) 0.02297(9) 0.17878(15)
N2 N 0.49207(19) 0.02908(9) 0.30533(15)
H14 H 0.4917 -0.0089 0.3583
N3 N 0.5752(2) 0.14733(9) 0.25345(15)
H15 H 0.5330 0.1328 0.1756
S1 S 0.65540(8) 0.10440(3) 0.50522(5)
loop_
_geom_bond_atom_site_label_1
_geom_bond_atom_site_label_2
_geom_bond_site_symmetry_1
_geom_bond_site_symmetry_2
C1 H1 1_555 1_555
C2 C1 1_555 1_555
H2 C2 1_555 1_555
C3 C2 1_555 1_555
H3 C3 1_555 1_555
C4 C3 1_555 1_555
C5 C4 1_555 1_555
H4 C5 1_555 1_555
C6 C5 1_555 1_555
H5 C6 1_555 1_555
C7 C6 1_555 1_555
H6 C7 1_555 1_555
C8 C7 1_555 1_555
H7 C8 1_555 1_555
C9 C4 1_555 1_555
H8 C9 1_555 1_555
C10 N2 1_555 1_555
C11 C12 1_555 1_555
C12 H9 1_555 1_555
C13 C12 1_555 1_555
H10 C13 1_555 1_555
C14 C13 1_555 1_555
H11 C14 1_555 1_555
C15 C14 1_555 1_555
H12 C15 1_555 1_555
C16 C11 1_555 1_555
H13 C16 1_555 1_555
N1 C1 1_555 1_555
N2 N1 1_555 1_555
H14 N2 1_555 1_555
N3 C10 1_555 1_555
H15 N3 1_555 1_555
S1 C10 1_555 1_555
C8 C9 1_555 1_555
C11 N3 1_555 1_555
C15 C16 1_555 1_555

#END
