
#######################################################################
#
#                 Cambridge Crystallographic Data Centre
#                                CCDC 
#
#######################################################################
#
# If this CIF has been generated from an entry in the Cambridge 
# Structural Database, then it will include bibliographic, chemical, 
# crystal, experimental, refinement or atomic coordinate data resulting 
# from the CCDC's data processing and validation procedures.
#
#######################################################################

data_TOPPIY
_chemical_formula_moiety         'C23 H24 O1 Si1'
_chemical_name_systematic        
6-(1-Naphthyl)-1-trimethylsilyl-1,1a,6,6a-tetrahydrocyclopropa[a]inden-6-ol
_symmetry_cell_setting           monoclinic
_symmetry_space_group_name_H-M   'P 21/c'
_symmetry_Int_Tables_number      14
_space_group_name_Hall           '-P 2ybc'
loop_
_symmetry_equiv_pos_site_id
_symmetry_equiv_pos_as_xyz
1 x,y,z
2 -x,1/2+y,1/2-z
3 -x,-y,-z
4 x,1/2-y,1/2+z
_cell_length_a                   13.397(2)
_cell_length_b                   8.4240(14)
_cell_length_c                   17.434(3)
_cell_angle_alpha                90
_cell_angle_beta                 104.160(3)
_cell_angle_gamma                90
_cell_volume                     1907.76
_exptl_crystal_colour            colorless
_exptl_crystal_description       block
_cell_formula_units_Z            4
_exptl_crystal_recrystallization_method dichloromethane
loop_
_atom_site_label
_atom_site_type_symbol
_atom_site_fract_x
_atom_site_fract_y
_atom_site_fract_z
Si1 Si 0.45342(7) 0.68015(12) 0.10881(5)
O1 O 0.1300(2) 0.8516(2) 0.04769(12)
C1 C 0.3340(3) 0.7290(4) 0.03379(18)
C2 C 0.3309(3) 0.8134(4) -0.04430(18)
C3 C 0.2972(2) 0.8985(4) 0.02035(17)
C4 C 0.1815(2) 0.9307(3) -0.00616(16)
C5 C 0.1514(2) 0.8499(3) -0.08684(16)
C6 C 0.2363(2) 0.7869(3) -0.10862(18)
C7 C 0.2243(3) 0.7078(4) -0.18008(19)
C8 C 0.1269(3) 0.6925(4) -0.2296(2)
C9 C 0.0425(3) 0.7519(4) -0.20731(19)
C10 C 0.0537(3) 0.8304(4) -0.13589(18)
C11 C 0.1589(2) 1.1085(3) -0.00722(17)
C12 C 0.1206(2) 1.1876(4) -0.07728(19)
C13 C 0.0995(3) 1.3512(4) -0.0796(2)
C14 C 0.1164(2) 1.4353(4) -0.0119(2)
C15 C 0.1573(2) 1.3627(3) 0.06266(18)
C16 C 0.1755(3) 1.4515(4) 0.1334(2)
C17 C 0.2151(3) 1.3819(4) 0.2042(2)
C18 C 0.2384(3) 1.2192(4) 0.2080(2)
C19 C 0.2209(2) 1.1292(4) 0.14087(18)
C20 C 0.1795(2) 1.1976(3) 0.06527(16)
C21 C 0.4345(3) 0.7260(5) 0.20788(19)
H1 H 0.4226 0.8402 0.2119
H2 H 0.4960 0.6949 0.2483
H3 H 0.3747 0.6673 0.2160
C22 C 0.4780(3) 0.4646(4) 0.1047(2)
H4 H 0.4196 0.4055 0.1150
H5 H 0.5407 0.4372 0.1449
H6 H 0.4868 0.4368 0.0522
C23 C 0.5612(3) 0.7997(5) 0.0903(2)
H7 H 0.5455 0.9129 0.0933
H8 H 0.5706 0.7751 0.0376
H9 H 0.6244 0.7745 0.1303
H10 H 0.071(3) 0.856(5) 0.033(2)
H11 H 0.2808(19) 0.660(3) 0.0298(13)
H12 H 0.397(2) 0.840(3) -0.0557(15)
H13 H 0.3409(19) 0.981(3) 0.0517(14)
H14 H 0.286(2) 0.667(3) -0.1950(15)
H15 H 0.121(2) 0.637(3) -0.2808(17)
H16 H -0.020(2) 0.736(3) -0.2374(17)
H17 H -0.002(2) 0.873(3) -0.1183(15)
H18 H 0.1090(18) 1.130(3) -0.1242(14)
H19 H 0.0770(18) 1.397(3) -0.1293(14)
H20 H 0.0994(19) 1.544(3) -0.0127(14)
H21 H 0.155(2) 1.558(4) 0.1278(16)
H22 H 0.228(2) 1.435(3) 0.2504(16)
H23 H 0.267(2) 1.170(3) 0.2579(17)
H24 H 0.2381(18) 1.022(3) 0.1454(14)
loop_
_geom_bond_atom_site_label_1
_geom_bond_atom_site_label_2
_geom_bond_site_symmetry_1
_geom_bond_site_symmetry_2
Si1 C1 1_555 1_555
O1 C4 1_555 1_555
C1 C2 1_555 1_555
C2 C3 1_555 1_555
C3 C1 1_555 1_555
C4 C3 1_555 1_555
C5 C4 1_555 1_555
C6 C2 1_555 1_555
C7 C6 1_555 1_555
C8 C7 1_555 1_555
C9 C8 1_555 1_555
C10 C5 1_555 1_555
C11 C4 1_555 1_555
C12 C11 1_555 1_555
C13 C12 1_555 1_555
C14 C13 1_555 1_555
C15 C14 1_555 1_555
C16 C15 1_555 1_555
C17 C16 1_555 1_555
C18 C17 1_555 1_555
C19 C18 1_555 1_555
C20 C11 1_555 1_555
C21 Si1 1_555 1_555
H1 C21 1_555 1_555
H2 C21 1_555 1_555
H3 C21 1_555 1_555
C22 Si1 1_555 1_555
H4 C22 1_555 1_555
H5 C22 1_555 1_555
H6 C22 1_555 1_555
C23 Si1 1_555 1_555
H7 C23 1_555 1_555
H8 C23 1_555 1_555
H9 C23 1_555 1_555
H10 O1 1_555 1_555
H11 C1 1_555 1_555
H12 C2 1_555 1_555
H13 C3 1_555 1_555
H14 C7 1_555 1_555
H15 C8 1_555 1_555
H16 C9 1_555 1_555
H17 C10 1_555 1_555
H18 C12 1_555 1_555
H19 C13 1_555 1_555
H20 C14 1_555 1_555
H21 C16 1_555 1_555
H22 C17 1_555 1_555
H23 C18 1_555 1_555
H24 C19 1_555 1_555
C5 C6 1_555 1_555
C9 C10 1_555 1_555
C15 C20 1_555 1_555
C19 C20 1_555 1_555

#END
