
#######################################################################
#
#                 Cambridge Crystallographic Data Centre
#                                CCDC 
#
#######################################################################
#
# If this CIF has been generated from an entry in the Cambridge 
# Structural Database, then it will include bibliographic, chemical, 
# crystal, experimental, refinement or atomic coordinate data resulting 
# from the CCDC's data processing and validation procedures.
#
#######################################################################

data_TOPROF
_chemical_formula_moiety         'C78 H18 O8,C1 H1 Cl3'
_chemical_name_systematic        
"61,62-Diethyl endo,endo-61,62-(o-xylene-\a,\a'-diyl) 1,2:7,21-dimethanoC60fullerene-61,61,62,62-tetracarboxylate chloroform solvate"
_symmetry_cell_setting           monoclinic
_symmetry_space_group_name_H-M   'P 21/c'
_symmetry_Int_Tables_number      14
_space_group_name_Hall           '-P 2ybc'
loop_
_symmetry_equiv_pos_site_id
_symmetry_equiv_pos_as_xyz
1 x,y,z
2 -x,1/2+y,1/2-z
3 -x,-y,-z
4 x,1/2-y,1/2+z
_cell_length_a                   17.469(14)
_cell_length_b                   14.471(9)
_cell_length_c                   19.51(2)
_cell_angle_alpha                90
_cell_angle_beta                 106.41(7)
_cell_angle_gamma                90
_cell_volume                     4731.1
_exptl_crystal_colour            'dark red'
_chemical_melting_point          'above 280deg.C'
_cell_formula_units_Z            4
loop_
_atom_site_label
_atom_site_type_symbol
_atom_site_fract_x
_atom_site_fract_y
_atom_site_fract_z
Cl1 Cl 0.7668(2) 0.1764(2) 0.0164(2)
Cl2 Cl 0.7898(2) 0.1953(3) 0.1648(2)
Cl3 Cl 0.6972(2) 0.0446(2) 0.0882(2)
C1 C 0.7254(6) 0.1592(6) 0.0823(5)
H1 H 0.6776 0.1956 0.0732
C2 C 0.7184(3) 0.0847(3) 0.7214(2)
C3 C 0.6767(3) 0.0594(3) 0.7803(2)
C4 C 0.6287(3) -0.0263(3) 0.7667(3)
C5 C 0.6141(2) -0.0754(3) 0.7033(2)
C6 C 0.6526(3) -0.0504(3) 0.6482(2)
C7 C 0.7030(3) 0.0217(3) 0.6574(2)
C8 C 0.7754(3) 0.0230(3) 0.6318(2)
C9 C 0.8402(3) 0.0595(3) 0.6926(2)
C10 C 0.8057(3) 0.0957(3) 0.7458(2)
C11 C 0.8496(3) 0.0926(3) 0.8174(3)
C12 C 0.8093(3) 0.0688(3) 0.8720(2)
C13 C 0.7309(3) 0.0487(3) 0.8548(2)
C14 C 0.7034(3) -0.0297(4) 0.8864(3)
C15 C 0.6409(3) -0.0767(4) 0.8334(3)
C16 C 0.6334(3) -0.1712(4) 0.8338(3)
C17 C 0.6165(3) -0.2222(4) 0.7678(3)
C18 C 0.6082(3) -0.1743(3) 0.7045(3)
C19 C 0.6427(3) -0.2116(3) 0.6506(2)
C20 C 0.6698(3) -0.1370(3) 0.6159(2)
C21 C 0.7382(3) -0.1469(3) 0.5945(2)
C22 C 0.7942(3) -0.0698(3) 0.5955(2)
C23 C 0.8753(3) -0.1094(3) 0.6276(2)
C24 C 0.9337(3) -0.0648(3) 0.6800(2)
C25 C 0.9161(3) 0.0206(3) 0.7131(3)
C26 C 0.9607(3) 0.0190(3) 0.7869(3)
C27 C 0.9274(3) 0.0542(3) 0.8381(3)
C28 C 0.9392(3) 0.0070(4) 0.9057(2)
C29 C 0.8659(3) 0.0146(4) 0.9262(3)
C30 C 0.8404(3) -0.0576(4) 0.9598(2)
C31 C 0.7559(3) -0.0820(4) 0.9388(3)
C32 C 0.7486(4) -0.1806(4) 0.9397(3)
C33 C 0.6899(3) -0.2254(4) 0.8887(3)
C34 C 0.7050(3) -0.3094(4) 0.8557(3)
C35 C 0.6610(3) -0.3073(4) 0.7816(3)
C36 C 0.6937(3) -0.3434(3) 0.7300(3)
C37 C 0.6840(3) -0.2950(3) 0.6638(3)
C38 C 0.7565(3) -0.3041(3) 0.6428(3)
C39 C 0.7832(3) -0.2306(3) 0.6102(2)
C40 C 0.8675(3) -0.2077(4) 0.6303(2)
C41 C 0.9207(3) -0.2599(4) 0.6825(3)
C42 C 0.9832(3) -0.2150(4) 0.7359(3)
C43 C 0.9894(3) -0.1183(4) 0.7350(3)
C44 C 1.0062(3) -0.0668(4) 0.8006(3)
C45 C 1.0174(3) -0.1122(4) 0.8650(3)
C46 C 0.9830(3) -0.0745(4) 0.9192(3)
C47 C 0.9549(3) -0.1508(4) 0.9532(3)
C48 C 0.8852(3) -0.1430(4) 0.9732(3)
C49 C 0.8294(3) -0.2194(4) 0.9608(3)
C50 C 0.8451(4) -0.3003(4) 0.9297(3)
C51 C 0.7833(4) -0.3463(4) 0.8764(3)
C52 C 0.8172(3) -0.3837(3) 0.8234(3)
C53 C 0.7745(3) -0.3829(3) 0.7513(3)
C54 C 0.8126(3) -0.3590(3) 0.6972(3)
C55 C 0.8927(3) -0.3367(3) 0.7168(3)
C56 C 0.9387(3) -0.3369(4) 0.7913(3)
C57 C 0.9946(3) -0.2617(4) 0.8031(3)
C58 C 1.0108(3) -0.2123(4) 0.8665(3)
C59 C 0.9718(3) -0.2361(4) 0.9202(3)
C60 C 0.9187(3) -0.3081(4) 0.9089(3)
C61 C 0.9006(3) -0.3608(4) 0.8431(3)
C62 C 0.6553(3) 0.1470(3) 0.7360(3)
C63 C 0.5731(3) 0.1484(3) 0.6823(3)
O1 O 0.5766(2) 0.1815(2) 0.6197(2)
C64 C 0.4989(3) 0.1946(4) 0.5671(3)
C65 C 0.5128(3) 0.2497(4) 0.5068(3)
C66 C 0.4867(4) 0.3405(4) 0.4988(3)
C67 C 0.4966(4) 0.3949(4) 0.4422(4)
C68 C 0.5335(4) 0.3591(5) 0.3959(4)
C69 C 0.5592(3) 0.2698(5) 0.4037(3)
C70 C 0.5499(3) 0.2136(3) 0.4579(3)
C71 C 0.5747(3) 0.1150(4) 0.4592(3)
O2 O 0.6563(2) 0.1060(2) 0.5040(2)
C72 C 0.6900(3) 0.0238(4) 0.5011(3)
C73 C 0.7722(3) 0.0195(3) 0.5530(2)
C74 C 0.8377(3) 0.0676(4) 0.5308(3)
O3 O 0.8136(3) 0.0887(4) 0.4632(2)
C75 C 0.8698(5) 0.1513(9) 0.4379(5)
C76 C 0.9165(11) 0.0992(10) 0.4152(10)
O4 O 0.9020(3) 0.0838(4) 0.5681(2)
O5 O 0.6580(2) -0.0388(3) 0.4637(2)
C77 C 0.6802(4) 0.2377(4) 0.7718(3)
O6 O 0.6301(2) 0.3033(3) 0.7444(2)
C78 C 0.6505(4) 0.3965(4) 0.7733(4)
C79 C 0.5806(4) 0.4522(5) 0.7457(5)
O7 O 0.7397(3) 0.2491(3) 0.8193(3)
O8 O 0.5139(2) 0.1259(3) 0.6958(2)
H2 H 0.4630 0.2263 0.5883
H3 H 0.4763 0.1357 0.5497
H4 H 0.4603 0.3658 0.5316
H5 H 0.4782 0.4577 0.4364
H6 H 0.5418 0.3968 0.3581
H7 H 0.5851 0.2446 0.3706
H8 H 0.5698 0.0925 0.4119
H9 H 0.5408 0.0787 0.4797
H10 H 0.8997 0.1910 0.4755
H11 H 0.8422 0.1873 0.3971
H12 H 0.9575 0.1258 0.3975
H13 H 0.9406 0.0635 0.4573
H14 H 0.8834 0.0598 0.3793
H15 H 0.6950 0.4207 0.7593
H16 H 0.5890 0.5150 0.7619
H17 H 0.5687 0.4507 0.6945
H18 H 0.5369 0.4263 0.7599
C80? C 0.9146 0.1841 0.4177
Cl4? Cl 0.7883 0.2484 0.0904
Cl5? Cl 0.7585 0.0520 0.0986
Cl6? Cl 0.8233 0.1020 0.1740
loop_
_geom_bond_atom_site_label_1
_geom_bond_atom_site_label_2
_geom_bond_site_symmetry_1
_geom_bond_site_symmetry_2
Cl1 C1 1_555 1_555
Cl2 C1 1_555 1_555
Cl3 C1 1_555 1_555
C1 H1 1_555 1_555
C2 C3 1_555 1_555
C3 C4 1_555 1_555
C4 C5 1_555 1_555
C5 C6 1_555 1_555
C6 C7 1_555 1_555
C7 C2 1_555 1_555
C8 C7 1_555 1_555
C9 C8 1_555 1_555
C10 C2 1_555 1_555
C11 C10 1_555 1_555
C12 C11 1_555 1_555
C13 C3 1_555 1_555
C14 C13 1_555 1_555
C15 C4 1_555 1_555
C16 C15 1_555 1_555
C17 C16 1_555 1_555
C18 C5 1_555 1_555
C19 C18 1_555 1_555
C20 C6 1_555 1_555
C21 C20 1_555 1_555
C22 C8 1_555 1_555
C23 C22 1_555 1_555
C24 C23 1_555 1_555
C25 C9 1_555 1_555
C26 C25 1_555 1_555
C27 C11 1_555 1_555
C28 C27 1_555 1_555
C29 C12 1_555 1_555
C30 C29 1_555 1_555
C31 C14 1_555 1_555
C32 C31 1_555 1_555
C33 C16 1_555 1_555
C34 C33 1_555 1_555
C35 C17 1_555 1_555
C36 C35 1_555 1_555
C37 C19 1_555 1_555
C38 C37 1_555 1_555
C39 C21 1_555 1_555
C40 C23 1_555 1_555
C41 C40 1_555 1_555
C42 C41 1_555 1_555
C43 C24 1_555 1_555
C44 C26 1_555 1_555
C45 C44 1_555 1_555
C46 C28 1_555 1_555
C47 C46 1_555 1_555
C48 C30 1_555 1_555
C49 C32 1_555 1_555
C50 C49 1_555 1_555
C51 C34 1_555 1_555
C52 C51 1_555 1_555
C53 C36 1_555 1_555
C54 C38 1_555 1_555
C55 C41 1_555 1_555
C56 C55 1_555 1_555
C57 C42 1_555 1_555
C58 C45 1_555 1_555
C59 C47 1_555 1_555
C60 C50 1_555 1_555
C61 C52 1_555 1_555
C62 C2 1_555 1_555
C63 C62 1_555 1_555
O1 C63 1_555 1_555
C64 O1 1_555 1_555
C65 C64 1_555 1_555
C66 C65 1_555 1_555
C67 C66 1_555 1_555
C68 C67 1_555 1_555
C69 C68 1_555 1_555
C70 C65 1_555 1_555
C71 C70 1_555 1_555
O2 C71 1_555 1_555
C72 O2 1_555 1_555
C73 C8 1_555 1_555
C74 C73 1_555 1_555
O3 C74 1_555 1_555
C75 O3 1_555 1_555
C76 C75 1_555 1_555
O4 C74 1_555 1_555
O5 C72 1_555 1_555
C77 C62 1_555 1_555
O6 C77 1_555 1_555
C78 O6 1_555 1_555
C79 C78 1_555 1_555
O7 C77 1_555 1_555
O8 C63 1_555 1_555
H2 C64 1_555 1_555
H3 C64 1_555 1_555
H4 C66 1_555 1_555
H5 C67 1_555 1_555
H6 C68 1_555 1_555
H7 C69 1_555 1_555
H8 C71 1_555 1_555
H9 C71 1_555 1_555
H10 C75 1_555 1_555
H11 C75 1_555 1_555
H12 C76 1_555 1_555
H13 C76 1_555 1_555
H14 C76 1_555 1_555
H15 C78 1_555 1_555
H16 C79 1_555 1_555
H17 C79 1_555 1_555
H18 C79 1_555 1_555
C3 C62 1_555 1_555
C9 C10 1_555 1_555
C12 C13 1_555 1_555
C14 C15 1_555 1_555
C17 C18 1_555 1_555
C19 C20 1_555 1_555
C21 C22 1_555 1_555
C22 C73 1_555 1_555
C24 C25 1_555 1_555
C26 C27 1_555 1_555
C28 C29 1_555 1_555
C30 C31 1_555 1_555
C32 C33 1_555 1_555
C34 C35 1_555 1_555
C36 C37 1_555 1_555
C38 C39 1_555 1_555
C39 C40 1_555 1_555
C42 C43 1_555 1_555
C43 C44 1_555 1_555
C45 C46 1_555 1_555
C47 C48 1_555 1_555
C48 C49 1_555 1_555
C50 C51 1_555 1_555
C52 C53 1_555 1_555
C53 C54 1_555 1_555
C54 C55 1_555 1_555
C56 C57 1_555 1_555
C56 C61 1_555 1_555
C57 C58 1_555 1_555
C58 C59 1_555 1_555
C59 C60 1_555 1_555
C60 C61 1_555 1_555
C69 C70 1_555 1_555
C72 C73 1_555 1_555

#END
