
#######################################################################
#
#                 Cambridge Crystallographic Data Centre
#                                CCDC 
#
#######################################################################
#
# If this CIF has been generated from an entry in the Cambridge 
# Structural Database, then it will include bibliographic, chemical, 
# crystal, experimental, refinement or atomic coordinate data resulting 
# from the CCDC's data processing and validation procedures.
#
#######################################################################

data_TOPXAZ
_chemical_formula_moiety         'C24 H17 N1 O6,C24 H16 N1 O6,C2 H4 O2,H2 O1'
_chemical_name_systematic        
'methyl 3-hydroxy-4-(8-hydroxy-2-(hydroxymethyl)naphtho[2,1-d][1,3]oxazol-9-yl)-2-naphthoate methyl 3-hydroxy-4-(8-hydroxy-2-(hydroxymethyl)naphtho[1,2-d][1,3]oxazol-9-yl)-2-naphthoate acetic acid monohydrate'
_symmetry_cell_setting           orthorhombic
_symmetry_space_group_name_H-M   'P c a 21'
_symmetry_Int_Tables_number      29
_space_group_name_Hall           'P 2c -2ac'
loop_
_symmetry_equiv_pos_site_id
_symmetry_equiv_pos_as_xyz
1 x,y,z
2 -x,-y,1/2+z
3 1/2+x,-y,z
4 1/2-x,y,1/2+z
_cell_length_a                   14.040(4)
_cell_length_b                   8.347(2)
_cell_length_c                   38.018(11)
_cell_angle_alpha                90
_cell_angle_beta                 90
_cell_angle_gamma                90
_cell_volume                     4455.4
_cell_formula_units_Z            4
loop_
_atom_site_label
_atom_site_type_symbol
_atom_site_fract_x
_atom_site_fract_y
_atom_site_fract_z
O1 O 0.7002(3) 0.8261(6) 0.31994(11)
O2 O 0.0418(3) 0.8218(6) 0.31257(11)
O3 O 0.15082(19) 0.3086(4) 0.39104(8)
H1 H 0.1983 0.3572 0.3844
C1 C 0.0057(3) 0.1227(5) 0.41897(11)
O4 O 0.0758(2) -0.0235(4) 0.37300(10)
H2 H 0.0613 -0.0688 0.3546
C2 C 0.2606(3) 0.2490(5) 0.43888(14)
O5 O 0.3239(2) 0.4122(5) 0.39250(11)
C3 C -0.1681(2) 0.1736(5) 0.41811(11)
O6 O -0.1355(2) 0.4299(5) 0.51090(9)
C4 C 0.2761(3) 0.1806(6) 0.47068(14)
H3 H 0.3341 0.1974 0.4819
C5 C 0.1006(2) 0.1371(5) 0.43654(11)
C6 C -0.1602(3) 0.3489(5) 0.47974(12)
C7 C 0.1702(2) 0.2328(5) 0.42170(11)
C8 C -0.0811(2) 0.2828(5) 0.46539(11)
C9 C -0.0778(3) 0.1914(5) 0.43388(12)
C10 C 0.1184(3) 0.0566(6) 0.46846(11)
N1 N -0.00558(19) 0.3228(4) 0.48659(8)
C11 C -0.0041(3) 0.0401(5) 0.38813(13)
O7 O 0.4209(2) 0.3302(4) 0.43596(11)
C12 C 0.2072(3) 0.0856(6) 0.48706(12)
C13 C -0.0950(3) 0.0175(6) 0.37214(15)
H4 H -0.1001 -0.0421 0.3516
C14 C -0.2484(3) 0.3317(6) 0.46328(13)
H5 H -0.3029 0.3790 0.4725
C15 C 0.3358(3) 0.3411(6) 0.42034(15)
C16 C -0.1736(3) 0.0825(5) 0.38679(12)
H6 H -0.2325 0.0672 0.3761
C17 C -0.0443(3) 0.4084(6) 0.51330(12)
C18 C 0.0525(3) -0.0465(7) 0.48447(15)
H7 H -0.0053 -0.0668 0.4734
C19 C 0.2228(4) 0.0071(7) 0.51997(16)
H8 H 0.2801 0.0223 0.5318
C20 C -0.2519(3) 0.2430(6) 0.43305(14)
H9 H -0.3103 0.2274 0.4220
C21 C 0.0716(4) -0.1180(7) 0.51624(14)
H10 H 0.0275 -0.1879 0.5261
C22 C 0.4995(3) 0.4039(7) 0.41797(19)
H11 H 0.5567 0.3893 0.4315
H12 H 0.4873 0.5163 0.4152
H13 H 0.5072 0.3552 0.3953
C23 C 0.1571(4) -0.0866(8) 0.53383(16)
H14 H 0.1678 -0.1326 0.5558
O8 O -0.0141(3) 0.5582(5) 0.56484(11)
H15 H 0.0255 0.5814 0.5799
C24 C 0.0266(4) 0.4548(8) 0.54043(18)
H16 H 0.0497 0.3597 0.5523
H17 H 0.0804 0.5069 0.5293
O9 O 0.5902(2) 0.3126(4) 0.24161(8)
H18 H 0.5425 0.3611 0.2480
C25 C 0.8209(2) 0.1942(5) 0.19815(11)
O10 O 0.4161(2) 0.4168(5) 0.23887(10)
C26 C 0.8239(2) 0.2839(5) 0.16711(12)
C27 C 0.5721(3) 0.2367(5) 0.21045(10)
C28 C 0.4057(3) 0.3423(5) 0.21124(14)
N2 N 0.8794(2) 0.4192(5) 0.12076(10)
C29 C 0.9054(3) 0.3427(5) 0.15183(12)
O11 O 0.74857(18) 0.3322(4) 0.14672(8)
C30 C 0.4823(3) 0.2552(5) 0.19373(12)
C31 C 0.6258(3) 0.0677(5) 0.16321(11)
C32 C 0.9955(3) 0.2339(6) 0.19819(15)
H19 H 1.0537 0.2176 0.2093
C33 C 0.6418(2) 0.1450(5) 0.19577(11)
O12 O 0.32154(19) 0.3293(4) 0.19627(11)
C34 C 0.7369(2) 0.1270(5) 0.21394(11)
C35 C 0.5390(3) 0.0919(5) 0.14539(12)
C36 C 0.8360(3) 0.0189(6) 0.26041(16)
H20 H 0.8406 -0.0402 0.2811
C37 C 0.9164(3) 0.0808(5) 0.24544(12)
H21 H 0.9751 0.0635 0.2561
C38 C 0.9944(3) 0.3170(6) 0.16766(13)
H22 H 1.0502 0.3554 0.1576
C39 C 0.4684(3) 0.1859(5) 0.16160(12)
H23 H 0.4107 0.2014 0.1501
C40 C 0.7889(3) 0.4088(5) 0.11934(11)
C41 C 0.6945(3) -0.0332(6) 0.14685(14)
H24 H 0.7515 -0.0539 0.1584
C42 C 0.7458(3) 0.0439(6) 0.24476(12)
C43 C 0.6791(4) -0.1006(7) 0.11461(15)
H25 H 0.7258 -0.1649 0.1046
C44 C 0.9118(3) 0.1699(5) 0.21431(13)
C45 C 0.5244(4) 0.0218(8) 0.11215(17)
H26 H 0.4673 0.0398 0.1004
C46 C 0.5935(4) -0.0740(8) 0.09644(15)
H27 H 0.5832 -0.1192 0.0744
O13 O 0.6656(2) -0.0185(4) 0.25962(10)
H28 H 0.6795 -0.0644 0.2780
C47 C 0.7190(4) 0.4631(8) 0.09265(16)
H29 H 0.6539 0.4431 0.0942
C48 C 0.2415(3) 0.3979(7) 0.2145(2)
H30 H 0.1845 0.3802 0.2011
H31 H 0.2514 0.5109 0.2175
H32 H 0.2352 0.3482 0.2372
O14 O 0.7596(2) 0.5452(5) 0.06565(11)
H33 H 0.7313 0.5249 0.0473
O15 O 0.3696(3) 0.3564(4) 0.31614(13)
C49 C 0.3682(5) 0.5009(7) 0.3150(3)
O16 O 0.2789(6) 0.5935(10) 0.3135(3)
H34 H 0.2603 0.5985 0.2931
C50 C 0.4603(6) 0.5940(9) 0.3184(3)
H35 H 0.4997 0.5453 0.3360
H36 H 0.4465 0.7026 0.3250
H37 H 0.4931 0.5932 0.2962
H38? H 0.0534 0.2989 0.4836
H39? H 0.9166 0.4640 0.1057
loop_
_geom_bond_atom_site_label_1
_geom_bond_atom_site_label_2
_geom_bond_site_symmetry_1
_geom_bond_site_symmetry_2
O3 H1 1_555 1_555
C1 C5 1_555 1_555
O4 H2 1_555 1_555
C2 C4 1_555 1_555
O5 C15 1_555 1_555
C3 C9 1_555 1_555
O6 C6 1_555 1_555
C4 H3 1_555 1_555
C5 C7 1_555 1_555
C6 C8 1_555 1_555
C7 O3 1_555 1_555
C8 C9 1_555 1_555
C9 C1 1_555 1_555
C10 C5 1_555 1_555
N1 C8 1_555 1_555
C11 C1 1_555 1_555
O7 C15 1_555 1_555
C12 C4 1_555 1_555
C13 C11 1_555 1_555
H4 C13 1_555 1_555
C14 C6 1_555 1_555
H5 C14 1_555 1_555
C15 C2 1_555 1_555
C16 C3 1_555 1_555
H6 C16 1_555 1_555
C17 O6 1_555 1_555
C18 C10 1_555 1_555
H7 C18 1_555 1_555
C19 C12 1_555 1_555
H8 C19 1_555 1_555
C20 C3 1_555 1_555
H9 C20 1_555 1_555
C21 C18 1_555 1_555
H10 C21 1_555 1_555
C22 O7 1_555 1_555
H11 C22 1_555 1_555
H12 C22 1_555 1_555
H13 C22 1_555 1_555
C23 C19 1_555 1_555
H14 C23 1_555 1_555
O8 H15 1_555 1_555
C24 C17 1_555 1_555
H16 C24 1_555 1_555
H17 C24 1_555 1_555
O9 H18 1_555 1_555
C25 C26 1_555 1_555
O10 C28 1_555 1_555
C26 C29 1_555 1_555
C27 O9 1_555 1_555
C28 C30 1_555 1_555
N2 C29 1_555 1_555
C29 C38 1_555 1_555
O11 C26 1_555 1_555
C30 C27 1_555 1_555
C31 C33 1_555 1_555
C32 H19 1_555 1_555
C33 C27 1_555 1_555
O12 C28 1_555 1_555
C34 C25 1_555 1_555
C35 C31 1_555 1_555
C36 H20 1_555 1_555
C37 C36 1_555 1_555
H21 C37 1_555 1_555
C38 C32 1_555 1_555
H22 C38 1_555 1_555
C39 C30 1_555 1_555
H23 C39 1_555 1_555
C40 N2 1_555 1_555
C41 C31 1_555 1_555
H24 C41 1_555 1_555
C42 C34 1_555 1_555
C43 C41 1_555 1_555
H25 C43 1_555 1_555
C44 C25 1_555 1_555
C45 C35 1_555 1_555
H26 C45 1_555 1_555
C46 C43 1_555 1_555
H27 C46 1_555 1_555
O13 C42 1_555 1_555
H28 O13 1_555 1_555
C47 C40 1_555 1_555
H29 C47 1_555 1_555
C48 O12 1_555 1_555
H30 C48 1_555 1_555
H31 C48 1_555 1_555
H32 C48 1_555 1_555
O14 C47 1_555 1_555
H33 O14 1_555 1_555
O15 C49 1_555 1_555
C49 O16 1_555 1_555
O16 H34 1_555 1_555
C50 C49 1_555 1_555
H35 C50 1_555 1_555
H36 C50 1_555 1_555
H37 C50 1_555 1_555
O4 C11 1_555 1_555
C2 C7 1_555 1_555
C10 C12 1_555 1_555
N1 C17 1_555 1_555
C13 C16 1_555 1_555
C14 C20 1_555 1_555
C21 C23 1_555 1_555
O8 C24 1_555 1_555
O11 C40 1_555 1_555
C32 C44 1_555 1_555
C33 C34 1_555 1_555
C35 C39 1_555 1_555
C36 C42 1_555 1_555
C37 C44 1_555 1_555
C45 C46 1_555 1_555

#END
