
#######################################################################
#
#                 Cambridge Crystallographic Data Centre
#                                CCDC 
#
#######################################################################
#
# If this CIF has been generated from an entry in the Cambridge 
# Structural Database, then it will include bibliographic, chemical, 
# crystal, experimental, refinement or atomic coordinate data resulting 
# from the CCDC's data processing and validation procedures.
#
#######################################################################

data_TOQROI
_chemical_formula_moiety         'C16 H20 F1 N1 O5'
_chemical_name_systematic        
't-butyl ((5-fluoro-2-oxo-1,3-dioxan-5-yl)(phenyl)methyl)carbamate'
_symmetry_cell_setting           orthorhombic
_symmetry_space_group_name_H-M   'P 21 21 21'
_symmetry_Int_Tables_number      19
_space_group_name_Hall           'P 2ac 2ab'
loop_
_symmetry_equiv_pos_site_id
_symmetry_equiv_pos_as_xyz
1 x,y,z
2 1/2-x,-y,1/2+z
3 -x,1/2+y,1/2-z
4 1/2+x,1/2-y,-z
_cell_length_a                   10.220(2)
_cell_length_b                   10.714(3)
_cell_length_c                   14.766(3)
_cell_angle_alpha                90
_cell_angle_beta                 90
_cell_angle_gamma                90
_cell_volume                     1616.83
_exptl_crystal_colour            colorless
_exptl_crystal_description       prismatic
_cell_formula_units_Z            4
loop_
_atom_site_label
_atom_site_type_symbol
_atom_site_fract_x
_atom_site_fract_y
_atom_site_fract_z
F1 F 0.02018(14) 0.11639(15) 0.20001(9)
N1 N 0.27637(19) 0.0440(2) 0.17768(15)
O1 O -0.1697(2) 0.4219(2) 0.13166(16)
O2 O -0.12032(17) 0.24116(19) 0.07081(12)
O3 O 0.0356(2) 0.36493(17) 0.13730(14)
O4 O 0.45023(18) 0.1257(2) 0.10497(14)
O5 O 0.46257(14) 0.05790(17) 0.25035(10)
C1 C -0.0883(3) 0.3461(3) 0.11353(18)
C2 C -0.0246(2) 0.1482(2) 0.04750(16)
H1 H 0.0133 0.1676 -0.0111
H2 H -0.0663 0.0671 0.0434
C3 C 0.0812(2) 0.1445(2) 0.11786(15)
C4 C 0.1366(3) 0.2734(3) 0.1254(2)
H3 H 0.1962 0.2768 0.1765
H4 H 0.1860 0.2926 0.0711
C5 C 0.1887(2) 0.0476(2) 0.10005(14)
H5 H 0.2401 0.0783 0.0486
C6 C 0.13971(19) -0.0815(2) 0.07458(15)
C7 C 0.1863(3) -0.1355(3) -0.00293(19)
H6 H 0.2445 -0.0916 -0.0394
C8 C 0.1481(4) -0.2543(3) -0.0279(2)
H7 H 0.1819 -0.2900 -0.0803
C9 C 0.0618(3) -0.3194(3) 0.0236(2)
H8 H 0.0351 -0.3989 0.0061
C10 C 0.0145(3) -0.2669(3) 0.1011(2)
H9 H -0.0440 -0.3114 0.1370
C11 C 0.0526(3) -0.1488(3) 0.12706(17)
H10 H 0.0195 -0.1142 0.1801
C12 C 0.4021(2) 0.0799(2) 0.17177(16)
C13 C 0.6010(2) 0.0910(2) 0.26388(17)
C14 C 0.6181(3) 0.2308(3) 0.2584(3)
H11 H 0.6069 0.2576 0.1969
H12 H 0.7041 0.2528 0.2789
H13 H 0.5539 0.2708 0.2960
C15 C 0.6253(3) 0.0435(3) 0.3590(2)
H14 H 0.5698 0.0874 0.4007
H15 H 0.7152 0.0572 0.3750
H16 H 0.6063 -0.0441 0.3617
C16 C 0.6860(3) 0.0205(3) 0.1979(2)
H17 H 0.6679 -0.0672 0.2025
H18 H 0.7764 0.0354 0.2118
H19 H 0.6678 0.0484 0.1374
H20 H 0.248(3) 0.012(3) 0.2262(18)
loop_
_geom_bond_atom_site_label_1
_geom_bond_atom_site_label_2
_geom_bond_site_symmetry_1
_geom_bond_site_symmetry_2
F1 C3 1_555 1_555
N1 C5 1_555 1_555
O1 C1 1_555 1_555
O2 C1 1_555 1_555
O3 C1 1_555 1_555
O4 C12 1_555 1_555
O5 C12 1_555 1_555
C2 O2 1_555 1_555
H1 C2 1_555 1_555
H2 C2 1_555 1_555
C3 C2 1_555 1_555
C4 O3 1_555 1_555
H3 C4 1_555 1_555
H4 C4 1_555 1_555
C5 C3 1_555 1_555
H5 C5 1_555 1_555
C6 C5 1_555 1_555
C7 C6 1_555 1_555
H6 C7 1_555 1_555
C8 C7 1_555 1_555
H7 C8 1_555 1_555
C9 C8 1_555 1_555
H8 C9 1_555 1_555
C10 C9 1_555 1_555
H9 C10 1_555 1_555
C11 C6 1_555 1_555
H10 C11 1_555 1_555
C12 N1 1_555 1_555
C13 O5 1_555 1_555
C14 C13 1_555 1_555
H11 C14 1_555 1_555
H12 C14 1_555 1_555
H13 C14 1_555 1_555
C15 C13 1_555 1_555
H14 C15 1_555 1_555
H15 C15 1_555 1_555
H16 C15 1_555 1_555
C16 C13 1_555 1_555
H17 C16 1_555 1_555
H18 C16 1_555 1_555
H19 C16 1_555 1_555
H20 N1 1_555 1_555
C3 C4 1_555 1_555
C10 C11 1_555 1_555

#END
