
#######################################################################
#
#                 Cambridge Crystallographic Data Centre
#                                CCDC 
#
#######################################################################
#
# If this CIF has been generated from an entry in the Cambridge 
# Structural Database, then it will include bibliographic, chemical, 
# crystal, experimental, refinement or atomic coordinate data resulting 
# from the CCDC's data processing and validation procedures.
#
#######################################################################

data_TORKOB
_chemical_formula_moiety         'C22 H17 N5 O3'
_chemical_name_systematic        
N-(2-Amino-6-(benzyloxy)-5-nitrosopyrimidin-4-yl)naphthalene-2-carboxamide
_symmetry_cell_setting           monoclinic
_symmetry_space_group_name_H-M   'P 21/c'
_symmetry_Int_Tables_number      14
_space_group_name_Hall           '-P 2ybc'
loop_
_symmetry_equiv_pos_site_id
_symmetry_equiv_pos_as_xyz
1 x,y,z
2 -x,1/2+y,1/2-z
3 -x,-y,-z
4 x,1/2-y,1/2+z
_cell_length_a                   12.1394(7)
_cell_length_b                   13.6862(7)
_cell_length_c                   11.2226(6)
_cell_angle_alpha                90
_cell_angle_beta                 94.296(2)
_cell_angle_gamma                90
_cell_volume                     1859.31
_exptl_crystal_colour            blue
_exptl_crystal_description       plate
_cell_formula_units_Z            4
loop_
_atom_site_label
_atom_site_type_symbol
_atom_site_fract_x
_atom_site_fract_y
_atom_site_fract_z
O1 O 0.55825(11) 0.10165(9) 0.69299(12)
O2 O 0.22868(12) 0.00360(9) 1.11565(12)
O3 O 0.38838(11) 0.26914(9) 0.89418(12)
N1 N 0.49822(12) -0.03985(11) 0.77363(13)
N2 N 0.37372(12) -0.03472(11) 0.93380(13)
N3 N 0.43468(14) -0.17717(12) 0.85835(15)
N4 N 0.31543(13) 0.11677(12) 1.00297(14)
N5 N 0.44103(12) 0.21301(11) 0.82781(14)
C1 C 0.43489(14) -0.08107(13) 0.85527(15)
C2 C 0.37343(14) 0.06142(13) 0.92777(15)
C3 C 0.43454(14) 0.11528(13) 0.84375(16)
C4 C 0.49783(14) 0.05513(13) 0.76950(16)
C5 C 0.24796(14) 0.08817(13) 1.09163(16)
C6 C 0.20057(14) 0.17215(13) 1.15671(16)
C7 C 0.21251(16) 0.26850(14) 1.12615(17)
C8 C 0.16746(15) 0.34451(14) 1.19199(17)
C9 C 0.18063(18) 0.44438(16) 1.1621(2)
C10 C 0.13959(19) 0.51670(16) 1.2291(2)
C11 C 0.08250(17) 0.49331(16) 1.3301(2)
C12 C 0.06683(16) 0.39798(16) 1.36039(18)
C13 C 0.10861(14) 0.32048(14) 1.29304(16)
C14 C 0.09632(16) 0.22083(15) 1.32234(17)
C15 C 0.14017(15) 0.14891(15) 1.25679(17)
C16 C 0.63091(17) 0.04228(14) 0.62378(18)
C17 C 0.70106(15) 0.11517(13) 0.56473(16)
C18 C 0.66181(16) 0.15903(13) 0.45722(16)
C19 C 0.71884(16) 0.23636(14) 0.41069(18)
C20 C 0.81607(17) 0.26893(16) 0.46979(19)
C21 C 0.85796(17) 0.22352(15) 0.5740(2)
C22 C 0.80041(16) 0.14692(15) 0.62165(18)
H1 H 0.5909(18) 0.1374(15) 0.4203(19)
H2 H 0.6749(18) 0.0012(16) 0.676(2)
H3 H 0.5850(18) 0.0061(16) 0.567(2)
H4 H 0.0287(18) 0.3794(16) 1.428(2)
H5 H 0.1323(16) 0.0841(15) 1.2756(18)
H6 H 0.0542(19) 0.2064(16) 1.387(2)
H7 H 0.854(2) 0.329(2) 0.436(2)
H8 H 0.6918(18) 0.2708(17) 0.343(2)
H9 H 0.8284(16) 0.1180(15) 0.696(2)
H10 H 0.4767(19) -0.2096(17) 0.812(2)
H11 H 0.2552(19) 0.2876(17) 1.055(2)
H12 H 0.3221(16) 0.1816(18) 0.9870(19)
H13 H 0.3931(19) -0.2082(19) 0.908(2)
H14 H 0.1483(18) 0.5838(18) 1.203(2)
H15 H 0.2171(19) 0.4548(17) 1.096(2)
H16 H 0.0556(18) 0.5473(17) 1.376(2)
H17 H 0.928(2) 0.2487(16) 0.618(2)
loop_
_geom_bond_atom_site_label_1
_geom_bond_atom_site_label_2
_geom_bond_site_symmetry_1
_geom_bond_site_symmetry_2
O1 C4 1_555 1_555
O2 C5 1_555 1_555
O3 N5 1_555 1_555
N1 C1 1_555 1_555
N2 C1 1_555 1_555
N3 C1 1_555 1_555
N4 C2 1_555 1_555
N5 C3 1_555 1_555
C2 N2 1_555 1_555
C3 C2 1_555 1_555
C4 N1 1_555 1_555
C5 N4 1_555 1_555
C6 C5 1_555 1_555
C7 C6 1_555 1_555
C8 C7 1_555 1_555
C9 C8 1_555 1_555
C10 C9 1_555 1_555
C11 C10 1_555 1_555
C12 C11 1_555 1_555
C13 C8 1_555 1_555
C14 C13 1_555 1_555
C15 C6 1_555 1_555
C16 O1 1_555 1_555
C17 C16 1_555 1_555
C18 C17 1_555 1_555
C19 C18 1_555 1_555
C20 C19 1_555 1_555
C21 C20 1_555 1_555
C22 C17 1_555 1_555
H1 C18 1_555 1_555
H2 C16 1_555 1_555
H3 C16 1_555 1_555
H4 C12 1_555 1_555
H5 C15 1_555 1_555
H6 C14 1_555 1_555
H7 C20 1_555 1_555
H8 C19 1_555 1_555
H9 C22 1_555 1_555
H10 N3 1_555 1_555
H11 C7 1_555 1_555
H12 N4 1_555 1_555
H13 N3 1_555 1_555
H14 C10 1_555 1_555
H15 C9 1_555 1_555
H16 C11 1_555 1_555
H17 C21 1_555 1_555
C3 C4 1_555 1_555
C12 C13 1_555 1_555
C14 C15 1_555 1_555
C21 C22 1_555 1_555

#END
