
#######################################################################
#
#                 Cambridge Crystallographic Data Centre
#                                CCDC 
#
#######################################################################
#
# If this CIF has been generated from an entry in the Cambridge 
# Structural Database, then it will include bibliographic, chemical, 
# crystal, experimental, refinement or atomic coordinate data resulting 
# from the CCDC's data processing and validation procedures.
#
#######################################################################

data_TORKUH
_chemical_formula_moiety         'C10 H15 N5 O2,C3 H2 F6 O1'
_chemical_name_systematic        
'(E)-6-Methoxy-5-nitroso-N^4^-(pent-2-enyl)pyrimidine-2,4-diamine hexafluoroisopropanol solvate'
_symmetry_cell_setting           monoclinic
_symmetry_space_group_name_H-M   'P 21/c'
_symmetry_Int_Tables_number      14
_space_group_name_Hall           '-P 2ybc'
loop_
_symmetry_equiv_pos_site_id
_symmetry_equiv_pos_as_xyz
1 x,y,z
2 -x,1/2+y,1/2-z
3 -x,-y,-z
4 x,1/2-y,1/2+z
_cell_length_a                   33.183(2)
_cell_length_b                   14.6867(6)
_cell_length_c                   7.3473(3)
_cell_angle_alpha                90
_cell_angle_beta                 91.7848(14)
_cell_angle_gamma                90
_cell_volume                     3578.96
_exptl_crystal_colour            amber
_exptl_crystal_description       Cube
_cell_formula_units_Z            8
loop_
_atom_site_label
_atom_site_type_symbol
_atom_site_fract_x
_atom_site_fract_y
_atom_site_fract_z
F1 F 1.17893(15) 0.6642(4) 0.3147(7)
F2 F 1.13241(15) 0.7087(3) 0.1264(7)
F3 F 1.11711(15) 0.6338(3) 0.3554(6)
F4 F 1.16851(15) 0.6054(4) -0.1530(6)
F5 F 1.21550(13) 0.5784(4) 0.0496(6)
F6 F 1.18285(14) 0.4684(4) -0.0780(6)
O5 O 1.11031(13) 0.5303(3) 0.0604(6)
C21 C 1.1446(2) 0.6409(4) 0.2306(10)
C22 C 1.14818(17) 0.5520(4) 0.1324(7)
C23 C 1.1793(2) 0.5534(5) -0.0135(10)
H29 H 1.1565 0.5061 0.2188
H34 H 1.1062(15) 0.4672(15) 0.040(7)
F7 F 0.68332(14) 0.4689(4) 0.9208(6)
F8 F 0.66856(15) 0.6040(4) 0.8476(6)
F9 F 0.71532(14) 0.5781(4) 1.0517(7)
F10 F 0.61725(15) 0.6356(3) 1.3585(6)
F11 F 0.63216(15) 0.7077(3) 1.1206(8)
F12 F 0.67879(14) 0.6663(4) 1.3138(7)
O6 O 0.61068(14) 0.5299(3) 1.0549(6)
C24 C 0.6784(2) 0.5522(6) 0.9885(10)
C25 C 0.64826(19) 0.5516(4) 1.1354(8)
C26 C 0.6441(2) 0.6420(6) 1.2296(10)
H30 H 0.6555 0.5058 1.2236
H33 H 0.6036(19) 0.473(2) 1.098(8)
O1 O 0.48284(12) 0.1372(2) 0.7494(5)
O2 O 0.59494(13) 0.1418(3) 0.5913(6)
N1 N 0.53619(15) 0.3863(4) 0.6893(6)
N2 N 0.47913(13) 0.2908(3) 0.7711(6)
N3 N 0.59477(14) 0.3186(3) 0.5981(6)
N4 N 0.55821(14) 0.1420(4) 0.6461(6)
C1 C 0.54039(17) 0.2197(4) 0.6736(7)
C2 C 0.55725(18) 0.3145(4) 0.6515(7)
C3 C 0.49830(17) 0.3717(3) 0.7472(8)
C4 C 0.49986(18) 0.2173(3) 0.7339(7)
C5 C 0.44112(19) 0.1343(4) 0.8023(9)
C6 C 0.61521(17) 0.4051(4) 0.5739(8)
C7 C 0.6580(3) 0.3941(5) 0.5129(9)
C8 C 0.6700(3) 0.3295(6) 0.4185(10)
C9 C 0.7175(4) 0.3113(9) 0.330(2)
C10 C 0.7378(4) 0.3744(10) 0.4146(12)
N10 N 0.47715(14) 0.4472(3) 0.7870(6)
H1 H 0.6076 0.2682 0.5768
H5 H 0.4322 0.0722 0.8087
H6 H 0.4246 0.1667 0.7145
H7 H 0.4390 0.1624 0.9195
H8 H 0.6008 0.4408 0.4836
H9 H 0.6162 0.4374 0.6875
H10 H 0.6775 0.4402 0.5433
H11 H 0.6519 0.2797 0.3950
H12 H 0.7278 0.2516 0.3577
H13 H 0.7155 0.3192 0.2005
H14 H 0.7641 0.3683 0.3652
H15 H 0.7396 0.3663 0.5442
H16 H 0.7273 0.4339 0.3870
H31 H 0.4880 0.5007 0.7748
H32 H 0.4527 0.4424 0.8248
O3 O 1.01718(12) 0.8624(2) 0.2498(5)
O4 O 0.90495(12) 0.8584(2) 0.4066(5)
N5 N 0.96380(13) 0.6129(2) 0.3124(6)
N6 N 1.02112(13) 0.7070(3) 0.2311(6)
N7 N 1.02315(13) 0.5540(3) 0.2127(6)
N8 N 0.90485(14) 0.6810(3) 0.4000(5)
N9 N 0.94203(14) 0.8600(2) 0.3538(5)
C11 C 0.95947(16) 0.7785(3) 0.3229(6)
C12 C 0.94260(17) 0.6907(3) 0.3440(6)
C13 C 1.00114(17) 0.6250(3) 0.2553(7)
C14 C 1.00083(16) 0.7788(3) 0.2668(6)
C15 C 1.05907(17) 0.8659(4) 0.1997(9)
C16 C 0.88424(17) 0.5948(4) 0.4239(7)
C17 C 0.84359(17) 0.6120(5) 0.5013(10)
C18 C 0.8277(3) 0.6649(11) 0.5642(16)
C19 C 0.7814(5) 0.6978(9) 0.6474(17)
C20 C 0.7634(3) 0.6201(8) 0.5883(16)
H2 H 1.0133 0.4993 0.2219
H3 H 1.0475 0.5617 0.1754
H4 H 0.8916 0.7304 0.4240
H17 H 1.0674 0.9284 0.1917
H18 H 1.0623 0.8366 0.0843
H19 H 1.0753 0.8354 0.2912
H20 H 0.8813 0.5650 0.3080
H21 H 0.8998 0.5570 0.5063
H22 H 0.8274 0.5596 0.4903
H23 H 0.8458 0.7136 0.5827
H24 H 0.7817 0.7044 0.7802
H25 H 0.7703 0.7526 0.5883
H26 H 0.7367 0.6265 0.6336
H27 H 0.7737 0.5609 0.6192
H28 H 0.7625 0.6272 0.4584
loop_
_geom_bond_atom_site_label_1
_geom_bond_atom_site_label_2
_geom_bond_site_symmetry_1
_geom_bond_site_symmetry_2
F1 C21 1_555 1_555
F2 C21 1_555 1_555
F3 C21 1_555 1_555
F4 C23 1_555 1_555
F5 C23 1_555 1_555
F6 C23 1_555 1_555
F7 C24 1_555 1_555
F8 C24 1_555 1_555
F9 C24 1_555 1_555
F10 C26 1_555 1_555
F11 C26 1_555 1_555
F12 C26 1_555 1_555
O1 C4 1_555 1_555
O2 N4 1_555 1_555
O3 C14 1_555 1_555
O4 N9 1_555 1_555
O5 C22 1_555 1_555
O6 C25 1_555 1_555
N1 C2 1_555 1_555
N2 C3 1_555 1_555
N3 C2 1_555 1_555
N4 C1 1_555 1_555
N5 C12 1_555 1_555
N6 C13 1_555 1_555
N7 C13 1_555 1_555
N8 C12 1_555 1_555
N9 C11 1_555 1_555
C1 C2 1_555 1_555
C3 N1 1_555 1_555
C4 N2 1_555 1_555
C5 O1 1_555 1_555
C6 N3 1_555 1_555
C7 C6 1_555 1_555
C8 C7 1_555 1_555
C9 C8 1_555 1_555
C10 C9 1_555 1_555
C11 C12 1_555 1_555
C13 N5 1_555 1_555
C14 N6 1_555 1_555
C15 O3 1_555 1_555
C16 N8 1_555 1_555
C17 C16 1_555 1_555
C18 C17 1_555 1_555
C19 C18 1_555 1_555
C20 C19 1_555 1_555
C21 C22 1_555 1_555
C22 C23 1_555 1_555
C24 C25 1_555 1_555
C25 C26 1_555 1_555
N10 C3 1_555 1_555
H1 N3 1_555 1_555
H2 N7 1_555 1_555
H3 N7 1_555 1_555
H4 N8 1_555 1_555
H5 C5 1_555 1_555
H6 C5 1_555 1_555
H7 C5 1_555 1_555
H8 C6 1_555 1_555
H9 C6 1_555 1_555
H10 C7 1_555 1_555
H11 C8 1_555 1_555
H12 C9 1_555 1_555
H13 C9 1_555 1_555
H14 C10 1_555 1_555
H15 C10 1_555 1_555
H16 C10 1_555 1_555
H17 C15 1_555 1_555
H18 C15 1_555 1_555
H19 C15 1_555 1_555
H20 C16 1_555 1_555
H21 C16 1_555 1_555
H22 C17 1_555 1_555
H23 C18 1_555 1_555
H24 C19 1_555 1_555
H25 C19 1_555 1_555
H26 C20 1_555 1_555
H27 C20 1_555 1_555
H28 C20 1_555 1_555
H29 C22 1_555 1_555
H30 C25 1_555 1_555
H31 N10 1_555 1_555
H32 N10 1_555 1_555
H33 O6 1_555 1_555
H34 O5 1_555 1_555
C1 C4 1_555 1_555
C11 C14 1_555 1_555

#END
