
#######################################################################
#
#                 Cambridge Crystallographic Data Centre
#                                CCDC 
#
#######################################################################
#
# If this CIF has been generated from an entry in the Cambridge 
# Structural Database, then it will include bibliographic, chemical, 
# crystal, experimental, refinement or atomic coordinate data resulting 
# from the CCDC's data processing and validation procedures.
#
#######################################################################

data_TORLET
_chemical_formula_moiety         'C32 H29 N2 1+,C1 H4 O1,I1 1-'
_chemical_name_systematic        
'2-(2-(1-Benzyl-1H-indol-3-yl)vinyl)-1,1,3-trimethyl-1H-benzo[e]indolium iodide methanol solvate'
_symmetry_cell_setting           monoclinic
_symmetry_space_group_name_H-M   'P 21/n'
_symmetry_Int_Tables_number      14
_space_group_name_Hall           '-P 2yn'
loop_
_symmetry_equiv_pos_site_id
_symmetry_equiv_pos_as_xyz
1 x,y,z
2 1/2-x,1/2+y,1/2-z
3 -x,-y,-z
4 1/2+x,1/2-y,1/2+z
_cell_length_a                   12.3860(14)
_cell_length_b                   10.3493(13)
_cell_length_c                   22.395(3)
_cell_angle_alpha                90
_cell_angle_beta                 100.695(2)
_cell_angle_gamma                90
_cell_volume                     2820.87
_cell_formula_units_Z            4
loop_
_atom_site_label
_atom_site_type_symbol
_atom_site_fract_x
_atom_site_fract_y
_atom_site_fract_z
I1 I 0.43035(3) 0.84927(4) 0.19978(2)
N1 N 0.6938(3) 0.1830(3) 0.27109(16)
N2 N 0.1774(3) 0.4777(3) 0.15792(13)
C1 C 0.7469(5) -0.0890(5) 0.3257(3)
H1 H 0.6822 -0.0956 0.2972
C2 C 0.7725(8) -0.1810(6) 0.3710(4)
H2 H 0.7255 -0.2505 0.3725
C3 C 0.8666(11) -0.1700(10) 0.4134(4)
H3 H 0.8836 -0.2325 0.4435
C4 C 0.9354(8) -0.0691(11) 0.4121(3)
H4 H 0.9981 -0.0614 0.4419
C5 C 0.9130(5) 0.0232(7) 0.3665(3)
H5 H 0.9615 0.0913 0.3652
C6 C 0.8184(4) 0.0129(4) 0.3233(2)
C7 C 0.7954(3) 0.1095(5) 0.2722(2)
H6 H 0.8565 0.1694 0.2760
H7 H 0.7906 0.0642 0.2339
C8 C 0.6795(3) 0.2835(4) 0.31037(18)
C9 C 0.7522(4) 0.3316(5) 0.3598(2)
H8 H 0.8222 0.2968 0.3714
C10 C 0.7170(4) 0.4324(5) 0.3912(2)
H9 H 0.7639 0.4664 0.4248
C11 C 0.6127(4) 0.4846(5) 0.3736(2)
H10 H 0.5906 0.5524 0.3958
C12 C 0.5415(4) 0.4376(5) 0.32394(19)
H11 H 0.4722 0.4741 0.3125
C13 C 0.5735(3) 0.3353(4) 0.29083(17)
C14 C 0.5239(3) 0.2620(4) 0.23770(17)
C15 C 0.6016(3) 0.1708(4) 0.22958(19)
H12 H 0.5910 0.1086 0.1990
C16 C 0.4231(3) 0.2750(4) 0.19744(18)
H13 H 0.4061 0.2108 0.1682
C17 C 0.3475(3) 0.3708(4) 0.19633(18)
H14 H 0.3648 0.4365 0.2249
C18 C 0.2457(3) 0.3805(4) 0.15626(17)
C19 C 0.0778(3) 0.4603(4) 0.11592(17)
C20 C -0.0140(3) 0.5411(4) 0.10821(17)
H15 H -0.0156 0.6156 0.1312
C21 C -0.1018(3) 0.5043(4) 0.06478(19)
H16 H -0.1648 0.5551 0.0586
C22 C -0.1001(3) 0.3926(4) 0.02934(18)
C23 C -0.1918(4) 0.3567(5) -0.0158(2)
H17 H -0.2543 0.4084 -0.0219
C24 C -0.1905(4) 0.2502(6) -0.0499(2)
H18 H -0.2518 0.2285 -0.0788
C25 C -0.0972(5) 0.1718(5) -0.0418(2)
H19 H -0.0965 0.0990 -0.0661
C26 C -0.0067(4) 0.2005(4) 0.0012(2)
H20 H 0.0542 0.1463 0.0063
C27 C -0.0048(3) 0.3121(4) 0.03829(17)
C28 C 0.0849(3) 0.3497(4) 0.08387(17)
C29 C 0.1940(3) 0.2845(4) 0.10771(17)
C30 C 0.2647(4) 0.2705(5) 0.0584(2)
H21 H 0.2263 0.2186 0.0257
H22 H 0.3331 0.2297 0.0754
H23 H 0.2788 0.3544 0.0432
C31 C 0.1741(4) 0.1551(4) 0.1380(2)
H24 H 0.1370 0.1708 0.1713
H25 H 0.2433 0.1137 0.1527
H26 H 0.1296 0.1002 0.1088
C32 C 0.1951(4) 0.5892(4) 0.19850(19)
H27 H 0.1738 0.5678 0.2364
H28 H 0.1518 0.6606 0.1801
H29 H 0.2715 0.6126 0.2057
O1 O 0.032(3) 0.424(3) 0.4693(8)
H30 H 0.0869 0.4411 0.4949
C33 C 0.0146(12) 0.5095(17) 0.4331(13)
H31 H -0.0409 0.4830 0.3996
H32 H 0.0808 0.5304 0.4187
H33 H -0.0105 0.5841 0.4521
loop_
_geom_bond_atom_site_label_1
_geom_bond_atom_site_label_2
_geom_bond_site_symmetry_1
_geom_bond_site_symmetry_2
N1 C7 1_555 1_555
N2 C18 1_555 1_555
C1 H1 1_555 1_555
C2 C1 1_555 1_555
H2 C2 1_555 1_555
C3 C2 1_555 1_555
H3 C3 1_555 1_555
C4 C3 1_555 1_555
H4 C4 1_555 1_555
C5 C4 1_555 1_555
H5 C5 1_555 1_555
C6 C1 1_555 1_555
C7 C6 1_555 1_555
H6 C7 1_555 1_555
H7 C7 1_555 1_555
C8 N1 1_555 1_555
C9 C8 1_555 1_555
H8 C9 1_555 1_555
C10 C9 1_555 1_555
H9 C10 1_555 1_555
C11 C10 1_555 1_555
H10 C11 1_555 1_555
C12 C11 1_555 1_555
H11 C12 1_555 1_555
C13 C8 1_555 1_555
C14 C13 1_555 1_555
C15 N1 1_555 1_555
H12 C15 1_555 1_555
C16 C14 1_555 1_555
H13 C16 1_555 1_555
C17 C16 1_555 1_555
H14 C17 1_555 1_555
C18 C17 1_555 1_555
C19 N2 1_555 1_555
C20 C19 1_555 1_555
H15 C20 1_555 1_555
C21 C20 1_555 1_555
H16 C21 1_555 1_555
C22 C21 1_555 1_555
C23 C22 1_555 1_555
H17 C23 1_555 1_555
C24 C23 1_555 1_555
H18 C24 1_555 1_555
C25 C24 1_555 1_555
H19 C25 1_555 1_555
C26 C25 1_555 1_555
H20 C26 1_555 1_555
C27 C22 1_555 1_555
C28 C19 1_555 1_555
C29 C18 1_555 1_555
C30 C29 1_555 1_555
H21 C30 1_555 1_555
H22 C30 1_555 1_555
H23 C30 1_555 1_555
C31 C29 1_555 1_555
H24 C31 1_555 1_555
H25 C31 1_555 1_555
H26 C31 1_555 1_555
C32 N2 1_555 1_555
H27 C32 1_555 1_555
H28 C32 1_555 1_555
H29 C32 1_555 1_555
O1 H30 1_555 1_555
C33 O1 1_555 1_555
H31 C33 1_555 1_555
H32 C33 1_555 1_555
H33 C33 1_555 1_555
C5 C6 1_555 1_555
C12 C13 1_555 1_555
C14 C15 1_555 1_555
C26 C27 1_555 1_555
C27 C28 1_555 1_555
C28 C29 1_555 1_555

#END
