
#######################################################################
#
#                 Cambridge Crystallographic Data Centre
#                                CCDC 
#
#######################################################################
#
# If this CIF has been generated from an entry in the Cambridge 
# Structural Database, then it will include bibliographic, chemical, 
# crystal, experimental, refinement or atomic coordinate data resulting 
# from the CCDC's data processing and validation procedures.
#
#######################################################################

data_TORLAP
_chemical_formula_moiety         'C26 H24 N3 1+,I1 1-'
_chemical_name_systematic        
'2-(2-(1-Benzyl-1H-indol-3-yl)vinyl)-1,3-dimethyl-1H-3,1-benzimidazol-3-ium iodide'
_symmetry_cell_setting           monoclinic
_symmetry_space_group_name_H-M   'P c'
_symmetry_Int_Tables_number      7
_space_group_name_Hall           'P -2yc'
loop_
_symmetry_equiv_pos_site_id
_symmetry_equiv_pos_as_xyz
1 x,y,z
2 x,-y,1/2+z
_cell_length_a                   9.676(2)
_cell_length_b                   5.8938(13)
_cell_length_c                   19.693(4)
_cell_angle_alpha                90
_cell_angle_beta                 94.577(3)
_cell_angle_gamma                90
_cell_volume                     1119.48
_cell_formula_units_Z            2
loop_
_atom_site_label
_atom_site_type_symbol
_atom_site_fract_x
_atom_site_fract_y
_atom_site_fract_z
I1 I 0.75828(4) 0.53707(7) 0.12993(4)
N1 N 0.1448(6) 1.0740(8) 0.2053(3)
N2 N 0.3562(5) 1.0728(8) 0.1730(2)
N3 N 0.0778(5) 0.1579(9) 0.0129(2)
C1 C 0.2135(7) 1.2561(11) 0.2368(3)
C2 C 0.1651(8) 1.4177(13) 0.2814(3)
H1 H 0.0745 1.4179 0.2940
C3 C 0.2618(9) 1.5761(13) 0.3053(4)
H2 H 0.2365 1.6852 0.3361
C4 C 0.3969(9) 1.5781(12) 0.2847(3)
H3 H 0.4584 1.6889 0.3019
C5 C 0.4411(7) 1.4217(12) 0.2398(4)
H4 H 0.5302 1.4255 0.2252
C6 C 0.3463(6) 1.2583(10) 0.2172(3)
C7 C 0.2334(7) 0.9624(9) 0.1673(3)
C8 C 0.1915(7) 0.7626(10) 0.1276(3)
H5 H 0.1013 0.7123 0.1315
C9 C 0.2658(7) 0.6425(11) 0.0862(3)
H6 H 0.3558 0.6899 0.0805
C10 C 0.2157(7) 0.4462(10) 0.0503(3)
C11 C 0.2929(8) 0.3056(12) 0.0053(3)
C12 C 0.4260(7) 0.3092(13) -0.0142(3)
H7 H 0.4870 0.4252 -0.0002
C13 C 0.4667(9) 0.1342(15) -0.0555(4)
H8 H 0.5564 0.1337 -0.0694
C14 C 0.3768(11) -0.0396(14) -0.0766(4)
H9 H 0.4079 -0.1547 -0.1039
C15 C 0.2414(10) -0.0460(12) -0.0580(4)
H10 H 0.1810 -0.1618 -0.0727
C16 C 0.2002(7) 0.1267(10) -0.0165(3)
C17 C 0.0856(7) 0.3451(11) 0.0522(3)
H11 H 0.0146 0.3991 0.0770
C18 C -0.0440(9) 0.0084(13) 0.0047(4)
H12 H -0.1068 0.0484 0.0388
H13 H -0.0140 -0.1467 0.0134
C19 C -0.1225(9) 0.0197(12) -0.0653(4)
C20 C -0.2012(9) -0.1689(16) -0.0843(5)
H14 H -0.2028 -0.2950 -0.0559
C21 C -0.2792(11) -0.164(3) -0.1482(7)
H15 H -0.3314 -0.2898 -0.1628
C22 C -0.2780(14) 0.021(3) -0.1876(6)
H16 H -0.3305 0.0222 -0.2293
C23 C -0.1984(10) 0.215(2) -0.1673(4)
H17 H -0.1983 0.3435 -0.1948
C24 C -0.1213(9) 0.2080(16) -0.1052(4)
H18 H -0.0680 0.3328 -0.0906
C25 C 0.0017(9) 1.0149(13) 0.2160(5)
H19 H -0.0407 0.9434 0.1758
H20 H -0.0488 1.1500 0.2255
H21 H 0.0004 0.9124 0.2538
C26 C 0.4824(7) 1.0167(11) 0.1404(4)
H22 H 0.5243 0.8839 0.1615
H23 H 0.5462 1.1414 0.1455
H24 H 0.4596 0.9877 0.0929
loop_
_geom_bond_atom_site_label_1
_geom_bond_atom_site_label_2
_geom_bond_site_symmetry_1
_geom_bond_site_symmetry_2
N1 C1 1_555 1_555
N2 C6 1_555 1_555
N3 C16 1_555 1_555
C1 C2 1_555 1_555
C2 H1 1_555 1_555
C3 C2 1_555 1_555
H2 C3 1_555 1_555
C4 C3 1_555 1_555
H3 C4 1_555 1_555
C5 C4 1_555 1_555
H4 C5 1_555 1_555
C6 C1 1_555 1_555
C7 N1 1_555 1_555
C8 C7 1_555 1_555
H5 C8 1_555 1_555
C9 C8 1_555 1_555
H6 C9 1_555 1_555
C10 C9 1_555 1_555
C11 C10 1_555 1_555
C12 C11 1_555 1_555
H7 C12 1_555 1_555
C13 C12 1_555 1_555
H8 C13 1_555 1_555
C14 C13 1_555 1_555
H9 C14 1_555 1_555
C15 C14 1_555 1_555
H10 C15 1_555 1_555
C16 C11 1_555 1_555
C17 N3 1_555 1_555
H11 C17 1_555 1_555
C18 N3 1_555 1_555
H12 C18 1_555 1_555
H13 C18 1_555 1_555
C19 C18 1_555 1_555
C20 C19 1_555 1_555
H14 C20 1_555 1_555
C21 C20 1_555 1_555
H15 C21 1_555 1_555
C22 C21 1_555 1_555
H16 C22 1_555 1_555
C23 C22 1_555 1_555
H17 C23 1_555 1_555
C24 C19 1_555 1_555
H18 C24 1_555 1_555
C25 N1 1_555 1_555
H19 C25 1_555 1_555
H20 C25 1_555 1_555
H21 C25 1_555 1_555
C26 N2 1_555 1_555
H22 C26 1_555 1_555
H23 C26 1_555 1_555
H24 C26 1_555 1_555
N2 C7 1_555 1_555
C5 C6 1_555 1_555
C10 C17 1_555 1_555
C15 C16 1_555 1_555
C23 C24 1_555 1_555

#END
