
#######################################################################
#
#                 Cambridge Crystallographic Data Centre
#                                CCDC 
#
#######################################################################
#
# If this CIF has been generated from an entry in the Cambridge 
# Structural Database, then it will include bibliographic, chemical, 
# crystal, experimental, refinement or atomic coordinate data resulting 
# from the CCDC's data processing and validation procedures.
#
#######################################################################

data_TORPEX01
_chemical_formula_moiety         'C18 H23 N2 O1 1+,N1 O3 1-,0.5(H2 O1)'
_chemical_name_systematic        
'4-(2-(4-(ethyl(2-hydroxyethyl)amino)phenyl)vinyl)-1-methylpyridinium nitrate hemihydrate'
_symmetry_cell_setting           monoclinic
_symmetry_space_group_name_H-M   'P 21/c'
_symmetry_Int_Tables_number      14
_space_group_name_Hall           '-P 2ybc'
loop_
_symmetry_equiv_pos_site_id
_symmetry_equiv_pos_as_xyz
1 x,y,z
2 -x,1/2+y,1/2-z
3 -x,-y,-z
4 x,1/2-y,1/2+z
_cell_length_a                   15.5115(17)
_cell_length_b                   14.6022(16)
_cell_length_c                   16.4765(19)
_cell_angle_alpha                90
_cell_angle_beta                 101.8350(10)
_cell_angle_gamma                90
_cell_volume                     3652.63
_exptl_crystal_colour            red
_exptl_crystal_description       block
_chemical_melting_point          '395 K'
_cell_formula_units_Z            8
loop_
_atom_site_label
_atom_site_type_symbol
_atom_site_fract_x
_atom_site_fract_y
_atom_site_fract_z
C1 C 0.90771(18) 0.3566(2) 1.20540(14)
H1 H 0.9608 0.3922 1.2134
H2 H 0.9203 0.2978 1.2312
H3 H 0.8648 0.3877 1.2299
C2 C 0.85027(15) 0.26123(17) 1.08554(14)
H4 H 0.8578 0.2106 1.1205
C3 C 0.81616(17) 0.2502(2) 1.00297(17)
H5 H 0.8004 0.1918 0.9827
C4 C 0.80435(15) 0.3235(3) 0.94863(15)
C5 C 0.83069(19) 0.4071(2) 0.98344(17)
H6 H 0.8253 0.4587 0.9497
C6 C 0.86415(17) 0.41630(18) 1.06533(16)
H7 H 0.8815 0.4739 1.0867
C7 C 0.7703(2) 0.3399(3) 0.8587(3)
H8 H 0.7737 0.3971 0.8348
C8 C 0.7347(3) 0.2683(3) 0.8143(3)
H9 H 0.7331 0.2111 0.8387
C9 C 0.69711(17) 0.2822(3) 0.72359(16)
C10 C 0.66142(18) 0.2018(3) 0.69138(16)
H10 H 0.6657 0.1513 0.7264
C11 C 0.61969(17) 0.1909(2) 0.61056(15)
H11 H 0.5962 0.1341 0.5925
C12 C 0.61162(15) 0.26392(17) 0.55440(13)
C13 C 0.64847(15) 0.34740(18) 0.58505(15)
H12 H 0.6452 0.3978 0.5501
C14 C 0.68982(15) 0.3550(2) 0.66746(18)
H13 H 0.7140 0.4113 0.6865
C15 C 0.55776(18) 0.32915(19) 0.41559(15)
H14 H 0.5491 0.3052 0.3596
H15 H 0.6109 0.3660 0.4253
C16 C 0.4805(2) 0.3897(2) 0.4224(2)
H16 H 0.4272 0.3542 0.4108
H17 H 0.4763 0.4389 0.3832
H18 H 0.4889 0.4143 0.4775
C17 C 0.5069(3) 0.1801(3) 0.4512(3)
H19 H 0.4569 0.2018 0.4104
H20 H 0.4859 0.1604 0.4999
C18 C 0.5512(4) 0.0980(4) 0.4149(4)
H21 H 0.5754 0.1179 0.3680
H22 H 0.5986 0.0729 0.4567
O1 O 0.4828(8) 0.0285(7) 0.3885(6)
H23 H 0.4735 0.0190 0.3297
N1 N 0.87290(11) 0.34430(13) 1.11629(10)
N2 N 0.56995(16) 0.25335(15) 0.47325(12)
C23 C 0.99709(15) 0.79038(18) 1.10168(12)
H31 H 1.0595 0.8004 1.1103
H32 H 0.9858 0.7369 1.1317
H33 H 0.9696 0.8426 1.1212
C24 C 0.94022(14) 0.69243(15) 0.98244(13)
H34 H 0.9492 0.6424 1.0182
C25 C 0.90635(14) 0.67910(15) 0.90044(13)
H35 H 0.8929 0.6200 0.8808
C26 C 0.89132(12) 0.75282(14) 0.84503(12)
C27 C 0.91638(14) 0.83908(15) 0.87844(12)
H36 H 0.9098 0.8901 0.8440
C28 C 0.95045(14) 0.84912(15) 0.96132(13)
H37 H 0.9666 0.9071 0.9824
C29 C 0.85149(13) 0.73746(14) 0.75868(12)
H38 H 0.8487 0.6776 0.7391
C30 C 0.81846(13) 0.80381(15) 0.70526(12)
H39 H 0.8241 0.8632 0.7261
C31 C 0.77504(13) 0.79460(14) 0.61922(12)
C32 C 0.76679(13) 0.71118(15) 0.57584(12)
H40 H 0.7903 0.6584 0.6035
C33 C 0.72528(13) 0.70496(14) 0.49425(12)
H41 H 0.7217 0.6484 0.4678
C34 C 0.68793(12) 0.78265(14) 0.44965(12)
C35 C 0.69637(14) 0.86600(15) 0.49283(13)
H42 H 0.6733 0.9191 0.4655
C36 C 0.73814(14) 0.87069(15) 0.57474(13)
H43 H 0.7418 0.9271 0.6015
C37 C 0.59927(15) 0.85546(17) 0.32473(14)
H44 H 0.5737 0.8915 0.3633
H45 H 0.5515 0.8341 0.2813
C38 C 0.65901(19) 0.9161(2) 0.28658(17)
H46 H 0.7080 0.9353 0.3287
H47 H 0.6268 0.9690 0.2624
H48 H 0.6802 0.8827 0.2444
C39 C 0.64478(14) 0.69331(16) 0.32029(13)
H49 H 0.7005 0.6621 0.3392
H50 H 0.6407 0.7096 0.2625
C40 C 0.57032(16) 0.62827(18) 0.32676(15)
H51 H 0.5748 0.6106 0.3842
H52 H 0.5144 0.6592 0.3083
N3 N 0.96098(11) 0.77709(12) 1.01264(10)
N4 N 0.64398(12) 0.77638(13) 0.36832(10)
O3 O 0.57310(12) 0.54893(12) 0.27801(11)
H53 H 0.6205 0.5104 0.3050
N5 N 0.93868(15) 0.44156(15) 0.78940(13)
O4 O 0.94309(18) 0.37594(17) 0.74487(15)
O5 O 0.9769(2) 0.44806(18) 0.86029(15)
O6 O 0.88408(18) 0.50073(15) 0.76188(17)
N6 N 0.78332(16) 0.02985(13) 0.87218(15)
O7 O 0.85952(15) 0.05457(16) 0.89505(17)
O8 O 0.73564(19) 0.02154(17) 0.92070(18)
O9 O 0.75723(19) 0.01095(17) 0.79874(15)
O10 O 0.8905(2) 0.5013(2) 0.58187(15)
H54 H 0.8821 0.4800 0.6325
H55 H 0.8405 0.4921 0.5391
C19? C 0.7618(4) 0.2755(5) 0.8675(4)
H24? H 0.7491 0.2132 0.8646
C20? C 0.7444(4) 0.3302(5) 0.8016(3)
H25? H 0.7598 0.3918 0.8032
C21? C 0.4877(6) 0.1240(10) 0.4312(6)
H26? H 0.4439 0.1631 0.3974
H27? H 0.4784 0.1216 0.4876
C22? C 0.5706(7) 0.1467(9) 0.4270(6)
H28? H 0.5790 0.1506 0.3704
H29? H 0.6138 0.1056 0.4588
O2? O 0.4930(10) 0.0277(8) 0.3927(5)
H30? H 0.4364 0.0019 0.3696
loop_
_geom_bond_atom_site_label_1
_geom_bond_atom_site_label_2
_geom_bond_site_symmetry_1
_geom_bond_site_symmetry_2
C1 H1 1_555 1_555
H2 C1 1_555 1_555
H3 C1 1_555 1_555
C2 H4 1_555 1_555
C3 C2 1_555 1_555
H5 C3 1_555 1_555
C4 C3 1_555 1_555
C5 C4 1_555 1_555
H6 C5 1_555 1_555
C6 C5 1_555 1_555
H7 C6 1_555 1_555
C7 C4 1_555 1_555
H8 C7 1_555 1_555
C8 C7 1_555 1_555
H9 C8 1_555 1_555
C9 C8 1_555 1_555
C10 C9 1_555 1_555
H10 C10 1_555 1_555
C11 C10 1_555 1_555
H11 C11 1_555 1_555
C12 C11 1_555 1_555
C13 C12 1_555 1_555
H12 C13 1_555 1_555
C14 C9 1_555 1_555
H13 C14 1_555 1_555
C15 H14 1_555 1_555
H15 C15 1_555 1_555
C16 C15 1_555 1_555
H16 C16 1_555 1_555
H17 C16 1_555 1_555
H18 C16 1_555 1_555
C17 H19 1_555 1_555
H20 C17 1_555 1_555
C18 C17 1_555 1_555
H21 C18 1_555 1_555
H22 C18 1_555 1_555
O1 C18 1_555 1_555
H23 O1 1_555 1_555
N1 C1 1_555 1_555
N2 C12 1_555 1_555
C23 H31 1_555 1_555
H32 C23 1_555 1_555
H33 C23 1_555 1_555
C24 H34 1_555 1_555
C25 C24 1_555 1_555
H35 C25 1_555 1_555
C26 C25 1_555 1_555
C27 C26 1_555 1_555
H36 C27 1_555 1_555
C28 C27 1_555 1_555
H37 C28 1_555 1_555
C29 C26 1_555 1_555
H38 C29 1_555 1_555
C30 C29 1_555 1_555
H39 C30 1_555 1_555
C31 C30 1_555 1_555
C32 C31 1_555 1_555
H40 C32 1_555 1_555
C33 C32 1_555 1_555
H41 C33 1_555 1_555
C34 C33 1_555 1_555
C35 C34 1_555 1_555
H42 C35 1_555 1_555
C36 C31 1_555 1_555
H43 C36 1_555 1_555
C37 H44 1_555 1_555
H45 C37 1_555 1_555
C38 C37 1_555 1_555
H46 C38 1_555 1_555
H47 C38 1_555 1_555
H48 C38 1_555 1_555
C39 H49 1_555 1_555
H50 C39 1_555 1_555
C40 C39 1_555 1_555
H51 C40 1_555 1_555
H52 C40 1_555 1_555
N3 C23 1_555 1_555
N4 C34 1_555 1_555
O3 C40 1_555 1_555
H53 O3 1_555 1_555
N5 O4 1_555 1_555
O5 N5 1_555 1_555
O6 N5 1_555 1_555
N6 O7 1_555 1_555
O8 N6 1_555 1_555
O9 N6 1_555 1_555
O10 H54 1_555 1_555
H55 O10 1_555 1_555
C2 N1 1_555 1_555
C6 N1 1_555 1_555
C13 C14 1_555 1_555
C15 N2 1_555 1_555
C17 N2 1_555 1_555
C24 N3 1_555 1_555
C28 N3 1_555 1_555
C35 C36 1_555 1_555
C37 N4 1_555 1_555
C39 N4 1_555 1_555

#END
