
#######################################################################
#
#                 Cambridge Crystallographic Data Centre
#                                CCDC 
#
#######################################################################
#
# If this CIF has been generated from an entry in the Cambridge 
# Structural Database, then it will include bibliographic, chemical, 
# crystal, experimental, refinement or atomic coordinate data resulting 
# from the CCDC's data processing and validation procedures.
#
#######################################################################

data_TORQAU
_chemical_formula_moiety         'C20 H22 N2 O5'
_chemical_name_systematic        
'methyl 18-hydroxy-14-methoxy-4-oxo-5,14-diazapentacyclo[10.4.3.0^1,13^.0^5,13^.0^6,11^]nonadeca-6,8,10,12(19)-tetraene-19-carboxylate'
_symmetry_cell_setting           triclinic
_symmetry_space_group_name_H-M   'P -1'
_symmetry_Int_Tables_number      2
_space_group_name_Hall           '-P 1'
loop_
_symmetry_equiv_pos_site_id
_symmetry_equiv_pos_as_xyz
1 x,y,z
2 -x,-y,-z
_cell_length_a                   9.272(5)
_cell_length_b                   15.087(8)
_cell_length_c                   26.669(14)
_cell_angle_alpha                75.828(11)
_cell_angle_beta                 88.836(13)
_cell_angle_gamma                88.885(12)
_cell_volume                     3615.95
_exptl_crystal_colour            white
_cell_formula_units_Z            8
_exptl_crystal_recrystallization_method 
'Re-crystallisation from solvent: ethyl ether/hexane'
loop_
_atom_site_label
_atom_site_type_symbol
_atom_site_fract_x
_atom_site_fract_y
_atom_site_fract_z
C1 C 1.2119(8) 0.3990(5) 0.3400(3)
H1 H 1.2869 0.4084 0.3157
C2 C 1.0704(9) 0.4089(5) 0.3245(3)
H2 H 1.0505 0.4269 0.2894
C3 C 0.9602(8) 0.3929(4) 0.3592(3)
H3 H 0.8657 0.3973 0.3477
C4 C 0.9870(7) 0.3696(4) 0.4125(3)
C5 C 1.1300(8) 0.3602(4) 0.4274(3)
C6 C 1.2410(8) 0.3749(4) 0.3925(3)
H4 H 1.3358 0.3688 0.4037
C7 C 0.8923(8) 0.3558(4) 0.4590(3)
C8 C 1.2532(8) 0.3248(5) 0.5122(3)
C9 C 1.2176(7) 0.2980(4) 0.5694(3)
H5 H 1.2998 0.3096 0.5887
H6 H 1.1979 0.2331 0.5798
C10 C 1.0875(7) 0.3515(5) 0.5818(3)
H7 H 1.1047 0.4165 0.5692
H8 H 1.0730 0.3385 0.6190
C11 C 0.9525(8) 0.3265(4) 0.5569(3)
C12 C 0.9904(7) 0.3094(4) 0.5031(3)
C13 C 0.7648(8) 0.3884(4) 0.4654(3)
C14 C 0.7125(7) 0.3971(4) 0.5179(3)
H9 H 0.6557 0.4539 0.5132
C15 C 0.8408(6) 0.4035(4) 0.5517(2)
H10 H 0.8882 0.4612 0.5374
H11 H 0.8048 0.4045 0.5860
C16 C 0.8937(8) 0.2332(4) 0.5890(2)
H12 H 0.9631 0.2030 0.6146
H13 H 0.8040 0.2422 0.6066
C17 C 0.8694(8) 0.1770(4) 0.5500(3)
H14 H 0.8759 0.1119 0.5657
H15 H 0.7774 0.1915 0.5331
C18 C 1.0982(7) 0.1234(4) 0.4630(3)
H16 H 1.0912 0.1037 0.4316
H17 H 1.1027 0.0710 0.4919
H18 H 1.1837 0.1588 0.4617
C19 C 0.5278(8) 0.5540(4) 0.3791(2)
H19 H 0.4981 0.6130 0.3833
H20 H 0.4442 0.5179 0.3782
H21 H 0.5819 0.5610 0.3474
C20 C 0.6667(8) 0.4258(5) 0.4206(3)
N1 N 1.1337(6) 0.3371(3) 0.4819(2)
N2 N 0.9884(6) 0.2077(4) 0.5152(2)
O1 O 0.9758(5) 0.1776(3) 0.46873(18)
O2 O 1.3735(5) 0.3391(3) 0.49323(18)
O3 O 0.6173(5) 0.5086(3) 0.42220(17)
O4 O 0.6399(5) 0.3887(3) 0.38744(18)
O5 O 0.6246(5) 0.3239(3) 0.54459(16)
H22 H 0.5470 0.3266 0.5300
C21 C 0.6314(8) -0.0794(5) 0.3141(3)
C22 C 0.6693(8) -0.1588(5) 0.2989(3)
H23 H 0.7656 -0.1747 0.2954
C23 C 0.5606(11) -0.2132(5) 0.2893(3)
H24 H 0.5834 -0.2672 0.2798
C24 C 0.4210(10) -0.1881(6) 0.2936(3)
H25 H 0.3500 -0.2256 0.2863
C25 C 0.4870(9) -0.0567(5) 0.3180(3)
C26 C 0.3785(8) -0.1106(5) 0.3081(3)
H26 H 0.2816 -0.0952 0.3111
C27 C 0.7215(8) -0.0025(4) 0.3220(3)
C28 C 0.3513(10) 0.0749(5) 0.3390(3)
C29 C 0.3771(7) 0.1618(5) 0.3541(3)
H27 H 0.3933 0.1485 0.3910
H28 H 0.2917 0.2007 0.3468
C30 C 0.5056(7) 0.2126(4) 0.3256(3)
H29 H 0.5134 0.2709 0.3346
H30 H 0.4906 0.2249 0.2886
C31 C 0.6464(8) 0.1576(4) 0.3390(3)
C32 C 0.6169(7) 0.0535(5) 0.3477(3)
C33 C 0.7526(8) 0.1882(4) 0.2940(3)
H31 H 0.7032 0.1898 0.2621
H32 H 0.7817 0.2501 0.2929
C34 C 0.8484(8) 0.0281(5) 0.3020(3)
C35 C 0.8874(8) 0.1286(5) 0.2961(3)
H33 H 0.9390 0.1492 0.2630
C36 C 0.9458(8) -0.0281(6) 0.2786(3)
C37 C 0.7379(8) 0.0708(4) 0.4216(3)
H34 H 0.8299 0.0484 0.4114
H35 H 0.7360 0.0657 0.4586
C38 C 0.7039(7) 0.1678(4) 0.3907(3)
H36 H 0.7901 0.2045 0.3853
H37 H 0.6319 0.1965 0.4087
C39 C 1.0899(9) -0.0320(5) 0.2054(3)
H38 H 1.1164 0.0065 0.1723
H39 H 1.0441 -0.0858 0.2006
H40 H 1.1747 -0.0494 0.2257
C40 C 0.5191(8) -0.1079(5) 0.4563(3)
H41 H 0.5300 -0.1729 0.4686
H42 H 0.4308 -0.0938 0.4376
H43 H 0.5166 -0.0803 0.4851
N3 N 0.4750(6) 0.0285(4) 0.3322(2)
N4 N 0.6157(6) 0.0245(4) 0.4053(2)
O6 O 0.9816(6) -0.1052(3) 0.29862(18)
O7 O 0.9903(6) 0.0176(3) 0.2321(2)
O8 O 0.9800(5) 0.1405(3) 0.3353(2)
H44 H 1.0561 0.1126 0.3336
O9 O 0.2351(5) 0.0487(4) 0.3301(2)
O10 O 0.6394(5) -0.0725(3) 0.42247(18)
C41 C 0.4947(8) 0.6056(5) 0.1842(3)
C42 C 0.4592(8) 0.5355(5) 0.2252(3)
H45 H 0.3633 0.5210 0.2336
C43 C 0.5694(9) 0.4867(5) 0.2541(3)
H46 H 0.5471 0.4379 0.2818
C44 C 0.7108(9) 0.5085(5) 0.2427(3)
H47 H 0.7829 0.4754 0.2633
C45 C 0.7485(8) 0.5811(5) 0.2000(3)
C46 C 0.6362(8) 0.6297(5) 0.1703(3)
C47 C 0.7683(8) 0.7428(5) 0.1048(3)
C48 C 0.7391(7) 0.8173(4) 0.0580(3)
H48 H 0.7224 0.7914 0.0287
H49 H 0.8219 0.8569 0.0498
C49 C 0.6065(7) 0.8723(4) 0.0681(3)
H50 H 0.5960 0.9262 0.0398
H51 H 0.6201 0.8925 0.0995
C50 C 0.4690(8) 0.8159(5) 0.0736(3)
C51 C 0.5035(7) 0.7167(5) 0.1036(3)
C52 C 0.3560(8) 0.8582(4) 0.1026(3)
H52 H 0.4007 0.8719 0.1324
H53 H 0.3237 0.9158 0.0803
C53 C 0.2756(8) 0.7068(5) 0.1544(3)
C54 C 0.2254(8) 0.7998(5) 0.1211(3)
H54 H 0.1665 0.8301 0.1431
C55 C 0.1808(8) 0.6610(5) 0.1985(3)
C56 C 0.0456(9) 0.6864(5) 0.2687(3)
H55 H 0.0230 0.7340 0.2859
H56 H 0.0911 0.6360 0.2925
H57 H -0.0416 0.6662 0.2564
C57 C 0.4182(8) 0.8075(5) 0.0206(3)
H58 H 0.3306 0.8432 0.0108
H59 H 0.4918 0.8285 -0.0058
C58 C 0.4056(7) 0.6736(4) 0.1485(3)
C59 C 0.6027(8) 0.5246(4) 0.0636(3)
H60 H 0.5911 0.4600 0.0769
H61 H 0.6924 0.5427 0.0751
H62 H 0.6027 0.5391 0.0265
C60 C 0.3906(8) 0.7060(5) 0.0273(3)
H63 H 0.2972 0.6885 0.0433
H64 H 0.3985 0.6883 -0.0053
N5 N 0.6481(6) 0.7028(4) 0.1270(2)
N6 N 0.5083(6) 0.6683(4) 0.0616(2)
O11 O 0.4871(5) 0.5720(3) 0.08179(17)
O12 O 0.1406(6) 0.7204(3) 0.2261(2)
O13 O 0.1379(5) 0.5849(3) 0.20777(19)
O14 O 0.1406(5) 0.7919(3) 0.07945(18)
H65 H 0.0625 0.7700 0.0904
O15 O 0.8865(5) 0.7203(3) 0.1229(2)
C61 C -0.0240(8) 0.1806(4) 0.0981(3)
C62 C 0.1188(8) 0.1570(5) 0.0939(2)
C63 C 0.1546(8) 0.0839(4) 0.0730(2)
H66 H 0.2507 0.0679 0.0689
C64 C 0.0449(9) 0.0352(4) 0.0583(3)
H67 H 0.0680 -0.0148 0.0449
C65 C -0.0982(9) 0.0596(5) 0.0630(3)
H68 H -0.1701 0.0259 0.0528
C66 C -0.1352(7) 0.1333(5) 0.0827(2)
H69 H -0.2311 0.1508 0.0856
C67 C 0.2062(8) 0.2193(5) 0.1165(2)
C68 C 0.3320(8) 0.2056(5) 0.1409(3)
C69 C 0.3714(8) 0.2616(5) 0.1780(3)
H70 H 0.4201 0.2210 0.2074
C70 C 0.4306(8) 0.1310(5) 0.1363(3)
C71 C 0.2373(7) 0.2999(4) 0.1986(3)
H71 H 0.2674 0.3398 0.2198
H72 H 0.1866 0.2494 0.2211
C72 C 0.1301(8) 0.3531(5) 0.1595(3)
C73 C 0.1056(8) 0.2994(5) 0.1175(2)
C74 C -0.1597(9) 0.2990(5) 0.1305(3)
C75 C -0.1364(7) 0.3823(4) 0.1501(3)
H73 H -0.2224 0.3953 0.1684
H74 H -0.1196 0.4342 0.1210
C76 C -0.0084(7) 0.3693(4) 0.1860(3)
H75 H 0.0006 0.4232 0.1993
H76 H -0.0260 0.3176 0.2151
C77 C 0.2330(8) 0.4312(4) 0.0749(3)
H77 H 0.2337 0.4881 0.0483
H78 H 0.3252 0.3997 0.0748
C78 C 0.1942(7) 0.4463(4) 0.1278(2)
H79 H 0.1235 0.4955 0.1249
H80 H 0.2792 0.4616 0.1445
C79 C 0.0237(8) 0.3631(4) -0.0091(3)
H81 H 0.0397 0.3384 -0.0387
H82 H 0.0183 0.4286 -0.0200
H83 H -0.0651 0.3403 0.0079
C80 C 0.6002(8) 0.0237(5) 0.1820(3)
H84 H 0.6372 0.0018 0.2163
H85 H 0.6776 0.0481 0.1585
H86 H 0.5572 -0.0259 0.1713
N7 N -0.0377(6) 0.2573(4) 0.1197(2)
N8 N 0.1118(6) 0.3734(4) 0.0695(2)
O16 O 0.1391(5) 0.3365(3) 0.02565(17)
O17 O 0.4654(5) 0.3349(3) 0.1565(2)
H87 H 0.5384 0.3149 0.1450
O18 O 0.4924(5) 0.0946(3) 0.18190(18)
O19 O 0.4585(6) 0.1038(4) 0.0992(2)
O20 O -0.2795(5) 0.2701(3) 0.1259(2)
H88? H 0.8042 0.6244 0.2129
H89? H 0.8116 0.5563 0.1772
loop_
_geom_bond_atom_site_label_1
_geom_bond_atom_site_label_2
_geom_bond_site_symmetry_1
_geom_bond_site_symmetry_2
C1 H1 1_555 1_555
C2 C1 1_555 1_555
H2 C2 1_555 1_555
C3 C2 1_555 1_555
H3 C3 1_555 1_555
C4 C3 1_555 1_555
C5 C4 1_555 1_555
C6 C1 1_555 1_555
H4 C6 1_555 1_555
C7 C4 1_555 1_555
C8 C9 1_555 1_555
C9 H5 1_555 1_555
H6 C9 1_555 1_555
C10 C9 1_555 1_555
H7 C10 1_555 1_555
H8 C10 1_555 1_555
C11 C10 1_555 1_555
C12 C7 1_555 1_555
C13 C7 1_555 1_555
C14 C13 1_555 1_555
H9 C14 1_555 1_555
C15 C11 1_555 1_555
H10 C15 1_555 1_555
H11 C15 1_555 1_555
C16 C11 1_555 1_555
H12 C16 1_555 1_555
H13 C16 1_555 1_555
C17 C16 1_555 1_555
H14 C17 1_555 1_555
H15 C17 1_555 1_555
C18 H16 1_555 1_555
H17 C18 1_555 1_555
H18 C18 1_555 1_555
C19 H19 1_555 1_555
H20 C19 1_555 1_555
H21 C19 1_555 1_555
C20 C13 1_555 1_555
N1 C5 1_555 1_555
N2 C12 1_555 1_555
O1 C18 1_555 1_555
O2 C8 1_555 1_555
O3 C19 1_555 1_555
O4 C20 1_555 1_555
O5 C14 1_555 1_555
H22 O5 1_555 1_555
C21 C22 1_555 1_555
C22 H23 1_555 1_555
C23 C22 1_555 1_555
H24 C23 1_555 1_555
C24 C23 1_555 1_555
H25 C24 1_555 1_555
C25 C21 1_555 1_555
C26 C24 1_555 1_555
H26 C26 1_555 1_555
C27 C21 1_555 1_555
C28 C29 1_555 1_555
C29 H27 1_555 1_555
H28 C29 1_555 1_555
C30 C29 1_555 1_555
H29 C30 1_555 1_555
H30 C30 1_555 1_555
C31 C30 1_555 1_555
C32 C27 1_555 1_555
C33 C31 1_555 1_555
H31 C33 1_555 1_555
H32 C33 1_555 1_555
C34 C27 1_555 1_555
C35 C33 1_555 1_555
H33 C35 1_555 1_555
C36 C34 1_555 1_555
C37 H34 1_555 1_555
H35 C37 1_555 1_555
C38 C31 1_555 1_555
H36 C38 1_555 1_555
H37 C38 1_555 1_555
C39 H38 1_555 1_555
H39 C39 1_555 1_555
H40 C39 1_555 1_555
C40 H41 1_555 1_555
H42 C40 1_555 1_555
H43 C40 1_555 1_555
N3 C25 1_555 1_555
N4 C32 1_555 1_555
O6 C36 1_555 1_555
O7 C36 1_555 1_555
O8 C35 1_555 1_555
H44 O8 1_555 1_555
O9 C28 1_555 1_555
O10 C40 1_555 1_555
C41 C42 1_555 1_555
C42 H45 1_555 1_555
C43 C42 1_555 1_555
H46 C43 1_555 1_555
C44 C43 1_555 1_555
H47 C44 1_555 1_555
C45 C44 1_555 1_555
C46 C41 1_555 1_555
C47 C48 1_555 1_555
C48 H48 1_555 1_555
H49 C48 1_555 1_555
C49 C48 1_555 1_555
H50 C49 1_555 1_555
H51 C49 1_555 1_555
C50 C49 1_555 1_555
C51 C50 1_555 1_555
C52 C50 1_555 1_555
H52 C52 1_555 1_555
H53 C52 1_555 1_555
C53 C54 1_555 1_555
C54 C52 1_555 1_555
H54 C54 1_555 1_555
C55 C53 1_555 1_555
C56 H55 1_555 1_555
H56 C56 1_555 1_555
H57 C56 1_555 1_555
C57 C50 1_555 1_555
H58 C57 1_555 1_555
H59 C57 1_555 1_555
C58 C41 1_555 1_555
C59 H60 1_555 1_555
H61 C59 1_555 1_555
H62 C59 1_555 1_555
C60 C57 1_555 1_555
H63 C60 1_555 1_555
H64 C60 1_555 1_555
N5 C46 1_555 1_555
N6 C51 1_555 1_555
O11 C59 1_555 1_555
O12 C55 1_555 1_555
O13 C55 1_555 1_555
O14 C54 1_555 1_555
H65 O14 1_555 1_555
O15 C47 1_555 1_555
C61 C62 1_555 1_555
C62 C63 1_555 1_555
C63 H66 1_555 1_555
C64 C63 1_555 1_555
H67 C64 1_555 1_555
C65 C64 1_555 1_555
H68 C65 1_555 1_555
C66 C61 1_555 1_555
H69 C66 1_555 1_555
C67 C62 1_555 1_555
C68 C67 1_555 1_555
C69 C68 1_555 1_555
H70 C69 1_555 1_555
C70 C68 1_555 1_555
C71 C69 1_555 1_555
H71 C71 1_555 1_555
H72 C71 1_555 1_555
C72 C71 1_555 1_555
C73 C67 1_555 1_555
C74 C75 1_555 1_555
C75 H73 1_555 1_555
H74 C75 1_555 1_555
C76 C72 1_555 1_555
H75 C76 1_555 1_555
H76 C76 1_555 1_555
C77 H77 1_555 1_555
H78 C77 1_555 1_555
C78 C72 1_555 1_555
H79 C78 1_555 1_555
H80 C78 1_555 1_555
C79 H81 1_555 1_555
H82 C79 1_555 1_555
H83 C79 1_555 1_555
C80 H84 1_555 1_555
H85 C80 1_555 1_555
H86 C80 1_555 1_555
N7 C61 1_555 1_555
N8 C73 1_555 1_555
O16 C79 1_555 1_555
O17 C69 1_555 1_555
H87 O17 1_555 1_555
O18 C70 1_555 1_555
O19 C70 1_555 1_555
O20 C74 1_555 1_555
C5 C6 1_555 1_555
C8 N1 1_555 1_555
C11 C12 1_555 1_555
C12 N1 1_555 1_555
C14 C15 1_555 1_555
C17 N2 1_555 1_555
C20 O3 1_555 1_555
N2 O1 1_555 1_555
C25 C26 1_555 1_555
C28 N3 1_555 1_555
C31 C32 1_555 1_555
C32 N3 1_555 1_555
C34 C35 1_555 1_555
C37 C38 1_555 1_555
C37 N4 1_555 1_555
C39 O7 1_555 1_555
N4 O10 1_555 1_555
C45 C46 1_555 1_555
C47 N5 1_555 1_555
C51 C58 1_555 1_555
C51 N5 1_555 1_555
C53 C58 1_555 1_555
C56 O12 1_555 1_555
C60 N6 1_555 1_555
N6 O11 1_555 1_555
C65 C66 1_555 1_555
C72 C73 1_555 1_555
C73 N7 1_555 1_555
C74 N7 1_555 1_555
C75 C76 1_555 1_555
C77 C78 1_555 1_555
C77 N8 1_555 1_555
C80 O18 1_555 1_555
N8 O16 1_555 1_555

#END
