
#######################################################################
#
#                 Cambridge Crystallographic Data Centre
#                                CCDC 
#
#######################################################################
#
# If this CIF has been generated from an entry in the Cambridge 
# Structural Database, then it will include bibliographic, chemical, 
# crystal, experimental, refinement or atomic coordinate data resulting 
# from the CCDC's data processing and validation procedures.
#
#######################################################################

data_TORQIC
_chemical_formula_moiety         'C8 H7 N1 O1'
_chemical_name_systematic        6,7-dihydro-5H-cyclopenta[b]pyridin-5-one
_symmetry_cell_setting           orthorhombic
_symmetry_space_group_name_H-M   'P b c a'
_symmetry_Int_Tables_number      61
_space_group_name_Hall           '-P 2ac 2ab'
loop_
_symmetry_equiv_pos_site_id
_symmetry_equiv_pos_as_xyz
1 x,y,z
2 1/2-x,-y,1/2+z
3 1/2+x,1/2-y,-z
4 -x,1/2+y,1/2-z
5 -x,-y,-z
6 1/2+x,y,1/2-z
7 1/2-x,1/2+y,z
8 x,1/2-y,1/2+z
_cell_length_a                   7.5044(13)
_cell_length_b                   11.9291(19)
_cell_length_c                   14.8473(19)
_cell_angle_alpha                90
_cell_angle_beta                 90
_cell_angle_gamma                90
_cell_volume                     1329.14
_exptl_crystal_colour            colorless
_exptl_crystal_description       prismatic
_cell_formula_units_Z            8
loop_
_atom_site_label
_atom_site_type_symbol
_atom_site_fract_x
_atom_site_fract_y
_atom_site_fract_z
N1 N 0.4892(2) 0.19551(15) -0.06781(10)
O1 O 0.13489(18) 0.02010(12) 0.15621(8)
C1 C 0.2946(2) 0.08595(13) 0.02607(10)
C2 C 0.2422(2) 0.08304(14) 0.12174(10)
C3 C 0.3477(2) 0.17319(15) 0.16974(10)
H1 H 0.4242 0.1401 0.2152
H2 H 0.2680 0.2260 0.1988
C4 C 0.4594(3) 0.23236(16) 0.09795(12)
H3 H 0.4268 0.3108 0.0933
H4 H 0.5855 0.2270 0.1118
C5 C 0.4164(2) 0.17080(13) 0.01221(10)
C6 C 0.4337(3) 0.12988(19) -0.13580(11)
H5 H 0.4810 0.1438 -0.1926
C7 C 0.3129(2) 0.04396(17) -0.12832(11)
H6 H 0.2803 0.0028 -0.1789
C8 C 0.2400(2) 0.01903(15) -0.04550(10)
H7 H 0.1590 -0.0392 -0.0379
loop_
_geom_bond_atom_site_label_1
_geom_bond_atom_site_label_2
_geom_bond_site_symmetry_1
_geom_bond_site_symmetry_2
N1 C5 1_555 1_555
O1 C2 1_555 1_555
C1 C2 1_555 1_555
C2 C3 1_555 1_555
C3 H1 1_555 1_555
H2 C3 1_555 1_555
C4 C3 1_555 1_555
H3 C4 1_555 1_555
H4 C4 1_555 1_555
C5 C1 1_555 1_555
C6 N1 1_555 1_555
H5 C6 1_555 1_555
C7 C6 1_555 1_555
H6 C7 1_555 1_555
C8 C1 1_555 1_555
H7 C8 1_555 1_555
C4 C5 1_555 1_555
C7 C8 1_555 1_555

#END
