
#######################################################################
#
#                 Cambridge Crystallographic Data Centre
#                                CCDC 
#
#######################################################################
#
# If this CIF has been generated from an entry in the Cambridge 
# Structural Database, then it will include bibliographic, chemical, 
# crystal, experimental, refinement or atomic coordinate data resulting 
# from the CCDC's data processing and validation procedures.
#
#######################################################################

data_TORSAW
_chemical_formula_moiety         'C35 H29 N3 O1,C1 H4 O1'
_chemical_name_systematic        
"1',5-Dimethyl-3-(3-methyl-1H-indol-7-yl)-2-phenyl-3,4-dihydro-2H-spiro[cyclopenta[b]indole-1,3'-indol]-2'(1'H)-one methanol solvate"
_symmetry_cell_setting           orthorhombic
_symmetry_space_group_name_H-M   'P 21 21 21'
_symmetry_Int_Tables_number      19
_space_group_name_Hall           'P 2ac 2ab'
loop_
_symmetry_equiv_pos_site_id
_symmetry_equiv_pos_as_xyz
1 x,y,z
2 1/2+x,1/2-y,-z
3 -x,1/2+y,1/2-z
4 1/2-x,-y,1/2+z
_cell_length_a                   11.6089(2)
_cell_length_b                   14.5676(2)
_cell_length_c                   17.1793(2)
_cell_angle_alpha                90
_cell_angle_beta                 90
_cell_angle_gamma                90
_cell_volume                     2905.26
_exptl_crystal_colour            colorless
_exptl_crystal_description       prism
_cell_formula_units_Z            4
loop_
_atom_site_label
_atom_site_type_symbol
_atom_site_fract_x
_atom_site_fract_y
_atom_site_fract_z
O1 O 0.58695(13) 0.45269(11) 0.87001(9)
N1 N 0.43010(16) 0.36134(12) 0.89377(10)
N2 N 0.57435(15) 0.65434(12) 1.09751(10)
H1 H 0.5861 0.7112 1.1129
N3 N 0.68279(15) 0.68706(12) 0.90572(11)
H2 H 0.6768 0.6350 0.9314
C1 C 0.49593(17) 0.43752(13) 0.90338(12)
C2 C 0.43601(17) 0.50158(14) 0.96249(12)
C3 C 0.40930(17) 0.59644(13) 0.91831(12)
H3 H 0.4679 0.6015 0.8759
C4 C 0.43621(18) 0.67711(14) 0.97707(12)
H4 H 0.3633 0.6969 1.0032
C5 C 0.51047(17) 0.62753(14) 1.03416(12)
C6 C 0.51155(17) 0.53490(14) 1.02742(12)
C7 C 0.33518(18) 0.44326(14) 0.98760(12)
C8 C 0.25356(19) 0.45598(15) 1.04501(13)
H5 H 0.2538 0.5102 1.0758
C9 C 0.1707(2) 0.38799(17) 1.05718(15)
H6 H 0.1132 0.3965 1.0959
C10 C 0.1716(2) 0.30830(18) 1.01323(17)
H7 H 0.1146 0.2627 1.0223
C11 C 0.2541(2) 0.29385(16) 0.95627(15)
H8 H 0.2550 0.2392 0.9261
C12 C 0.33519(19) 0.36215(14) 0.94504(12)
C13 C 0.4577(2) 0.28585(15) 0.84169(14)
H9 H 0.5289 0.2999 0.8134
H10 H 0.3947 0.2773 0.8045
H11 H 0.4682 0.2295 0.8721
C14 C 0.57822(17) 0.49820(14) 1.09018(12)
C15 C 0.61043(17) 0.41018(15) 1.11530(13)
H12 H 0.5848 0.3571 1.0883
C16 C 0.68005(18) 0.40246(15) 1.18006(13)
H13 H 0.7037 0.3433 1.1970
C17 C 0.71659(18) 0.48019(16) 1.22144(13)
H14 H 0.7644 0.4722 1.2658
C18 C 0.68520(17) 0.56848(15) 1.19962(12)
C19 C 0.61715(17) 0.57568(14) 1.13293(12)
C20 C 0.7204(2) 0.65296(16) 1.24400(14)
H15 H 0.7637 0.6941 1.2096
H16 H 0.7690 0.6352 1.2882
H17 H 0.6515 0.6846 1.2632
C21 C 0.48881(19) 0.75786(14) 0.93495(12)
C22 C 0.4261(2) 0.83724(14) 0.92076(14)
H18 H 0.3515 0.8432 0.9429
C23 C 0.4696(2) 0.90918(15) 0.87461(15)
H19 H 0.4239 0.9624 0.8664
C24 C 0.5769(2) 0.90374(15) 0.84120(13)
H20 H 0.6046 0.9518 0.8089
C25 C 0.64501(18) 0.82572(14) 0.85567(12)
C26 C 0.60019(18) 0.75479(14) 0.90266(13)
C27 C 0.77600(19) 0.71391(16) 0.86223(13)
H21 H 0.8440 0.6785 0.8554
C28 C 0.75803(19) 0.79815(16) 0.83014(13)
C29 C 0.8376(2) 0.85073(18) 0.77815(15)
H22 H 0.7969 0.8680 0.7304
H23 H 0.9042 0.8124 0.7650
H24 H 0.8639 0.9062 0.8050
C30 C 0.29361(18) 0.60242(13) 0.87898(12)
C31 C 0.2864(2) 0.59554(15) 0.79808(13)
H25 H 0.3551 0.5905 0.7683
C32 C 0.1809(2) 0.59595(17) 0.76061(15)
H26 H 0.1778 0.5913 0.7055
C33 C 0.0803(2) 0.60304(17) 0.80280(16)
H27 H 0.0079 0.6020 0.7771
C34 C 0.0856(2) 0.61178(16) 0.88323(16)
H28 H 0.0166 0.6171 0.9126
C35 C 0.19109(19) 0.61279(14) 0.92064(14)
H29 H 0.1939 0.6207 0.9755
O2 O 0.79768(17) 0.51082(12) 0.93400(13)
H30 H 0.7384 0.4873 0.9143
C36 C 0.8689(3) 0.4419(2) 0.9620(3)
H31 H 0.8831 0.3969 0.9207
H32 H 0.8316 0.4115 1.0063
H33 H 0.9422 0.4686 0.9789
loop_
_geom_bond_atom_site_label_1
_geom_bond_atom_site_label_2
_geom_bond_site_symmetry_1
_geom_bond_site_symmetry_2
O1 C1 1_555 1_555
N1 C1 1_555 1_555
N2 H1 1_555 1_555
N3 H2 1_555 1_555
C1 C2 1_555 1_555
C2 C3 1_555 1_555
C3 H3 1_555 1_555
C4 C3 1_555 1_555
H4 C4 1_555 1_555
C5 N2 1_555 1_555
C6 C2 1_555 1_555
C7 C2 1_555 1_555
C8 C7 1_555 1_555
H5 C8 1_555 1_555
C9 C8 1_555 1_555
H6 C9 1_555 1_555
C10 C9 1_555 1_555
H7 C10 1_555 1_555
C11 C10 1_555 1_555
H8 C11 1_555 1_555
C12 N1 1_555 1_555
C13 N1 1_555 1_555
H9 C13 1_555 1_555
H10 C13 1_555 1_555
H11 C13 1_555 1_555
C14 C6 1_555 1_555
C15 C14 1_555 1_555
H12 C15 1_555 1_555
C16 C15 1_555 1_555
H13 C16 1_555 1_555
C17 C16 1_555 1_555
H14 C17 1_555 1_555
C18 C17 1_555 1_555
C19 N2 1_555 1_555
C20 C18 1_555 1_555
H15 C20 1_555 1_555
H16 C20 1_555 1_555
H17 C20 1_555 1_555
C21 C4 1_555 1_555
C22 C21 1_555 1_555
H18 C22 1_555 1_555
C23 C22 1_555 1_555
H19 C23 1_555 1_555
C24 C23 1_555 1_555
H20 C24 1_555 1_555
C25 C24 1_555 1_555
C26 N3 1_555 1_555
C27 N3 1_555 1_555
H21 C27 1_555 1_555
C28 C25 1_555 1_555
C29 C28 1_555 1_555
H22 C29 1_555 1_555
H23 C29 1_555 1_555
H24 C29 1_555 1_555
C30 C3 1_555 1_555
C31 C30 1_555 1_555
H25 C31 1_555 1_555
C32 C31 1_555 1_555
H26 C32 1_555 1_555
C33 C32 1_555 1_555
H27 C33 1_555 1_555
C34 C33 1_555 1_555
H28 C34 1_555 1_555
C35 C30 1_555 1_555
H29 C35 1_555 1_555
O2 H30 1_555 1_555
C36 O2 1_555 1_555
H31 C36 1_555 1_555
H32 C36 1_555 1_555
H33 C36 1_555 1_555
C4 C5 1_555 1_555
C5 C6 1_555 1_555
C7 C12 1_555 1_555
C11 C12 1_555 1_555
C14 C19 1_555 1_555
C18 C19 1_555 1_555
C21 C26 1_555 1_555
C25 C26 1_555 1_555
C27 C28 1_555 1_555
C34 C35 1_555 1_555

#END
