
#######################################################################
#
#                 Cambridge Crystallographic Data Centre
#                                CCDC 
#
#######################################################################
#
# If this CIF has been generated from an entry in the Cambridge 
# Structural Database, then it will include bibliographic, chemical, 
# crystal, experimental, refinement or atomic coordinate data resulting 
# from the CCDC's data processing and validation procedures.
#
#######################################################################

data_TOSCOV
_chemical_name_common            
'5,11,17,23-Tetramethyl-2,8,14,20-tetraethyl-4,6,10,12,16,18,22,24-octahydroxycalix(4)arene methanol solvate'
_chemical_formula_moiety         'C40 H48 O8,2(C1 H4 O1)'
_chemical_name_systematic        
'2,8,14,20-tetraethyl-5,11,17,23-tetramethylpentacyclo[19.3.1.1^3,7^.1^9,13^.1^15,19^]octacosa-1(25),3(28),4,6,9(27),10,12,15(26),16,18,21,23-dodecaene-4,6,10,12,16,18,22,24-octol methanol solvate'
_symmetry_cell_setting           triclinic
_symmetry_space_group_name_H-M   'P -1'
_symmetry_Int_Tables_number      2
_space_group_name_Hall           '-P 1'
loop_
_symmetry_equiv_pos_site_id
_symmetry_equiv_pos_as_xyz
1 x,y,z
2 -x,-y,-z
_cell_length_a                   12.1523(17)
_cell_length_b                   12.5597(19)
_cell_length_c                   14.3332(14)
_cell_angle_alpha                104.789(11)
_cell_angle_beta                 102.134(10)
_cell_angle_gamma                107.641(13)
_cell_volume                     1915.05
_exptl_crystal_colour            colorless
_exptl_crystal_description       pillar
_cell_formula_units_Z            2
loop_
_atom_site_label
_atom_site_type_symbol
_atom_site_fract_x
_atom_site_fract_y
_atom_site_fract_z
O1 O -0.20687(18) -0.10310(18) 0.77643(16)
H1 H -0.262(3) -0.164(3) 0.733(3)
O2 O 0.08338(18) -0.21423(15) 0.63713(15)
H2 H 0.1392 -0.1791 0.6169
O3 O 0.24813(19) -0.08818(15) 0.56696(15)
H3 H 0.1892 -0.1071 0.5150
O4 O 0.43038(18) 0.30046(17) 0.54560(15)
H4 H 0.432(3) 0.260(3) 0.486(3)
O5 O 0.39387(17) 0.50982(16) 0.58128(14)
H5 H 0.4165 0.4521 0.5728
O6 O 0.07079(17) 0.58917(17) 0.68760(15)
H6 H 0.0866 0.6448 0.6640
O7 O -0.13093(17) 0.45292(17) 0.72767(15)
H7 H -0.0683 0.4957 0.7194
O8 O -0.27658(16) 0.09378(16) 0.79036(15)
H8 H -0.2550 0.0364 0.7909
C1 C -0.0028(2) 0.0311(2) 0.83532(19)
C2 C -0.0907(2) -0.0795(2) 0.76973(19)
C3 C -0.0633(2) -0.1610(2) 0.7019(2)
C4 C 0.0574(3) -0.1310(2) 0.70384(19)
C5 C 0.1494(2) -0.0233(2) 0.76925(19)
C6 C 0.1148(2) 0.0565(2) 0.83199(19)
H9 H 0.1750 0.1320 0.8744
C7 C -0.1586(3) -0.2788(2) 0.6311(2)
H10 H -0.1817 -0.3311 0.6699
H11 H -0.1261 -0.3155 0.5803
H12 H -0.2302 -0.2666 0.5970
C8 C 0.2819(2) 0.0074(2) 0.7761(2)
H13 H 0.2900 -0.0692 0.7436
C9 C 0.3673(3) 0.0583(3) 0.8862(2)
H14 H 0.4523 0.0773 0.8856
H15 H 0.3600 0.1331 0.9223
C10 C 0.3377(3) -0.0293(3) 0.9432(3)
H16 H 0.3956 0.0051 1.0120
H17 H 0.3437 -0.1039 0.9071
H18 H 0.2550 -0.0450 0.9471
C11 C 0.3192(2) 0.0863(2) 0.7143(2)
C12 C 0.3017(2) 0.0350(2) 0.6107(2)
C13 C 0.3408(2) 0.1035(2) 0.5526(2)
C14 C 0.3903(2) 0.2271(2) 0.5991(2)
C15 C 0.4035(2) 0.2825(2) 0.69981(19)
C16 C 0.3701(2) 0.2102(2) 0.7562(2)
H19 H 0.3825 0.2467 0.8263
C17 C 0.3335(3) 0.0468(3) 0.4446(2)
H20 H 0.2644 0.0515 0.3986
H21 H 0.3227 -0.0367 0.4319
H22 H 0.4088 0.0887 0.4328
C18 C 0.4546(2) 0.4183(2) 0.74617(19)
H23 H 0.5093 0.4486 0.7076
C19 C 0.5332(2) 0.4669(2) 0.8581(2)
H24 H 0.4814 0.4422 0.8996
H25 H 0.5959 0.4317 0.8653
C20 C 0.5955(3) 0.6021(2) 0.8985(2)
H26 H 0.6457 0.6286 0.9694
H27 H 0.5338 0.6376 0.8943
H28 H 0.6469 0.6271 0.8577
C21 C 0.3525(2) 0.4651(2) 0.72823(19)
C22 C 0.3253(2) 0.5058(2) 0.6473(2)
C23 C 0.2313(2) 0.5472(2) 0.63077(19)
C24 C 0.1668(2) 0.5513(2) 0.7003(2)
C25 C 0.1900(2) 0.5120(2) 0.78212(19)
C26 C 0.2822(2) 0.4674(2) 0.79255(19)
H29 H 0.2974 0.4372 0.8463
C27 C 0.2015(3) 0.5870(3) 0.5405(2)
H30 H 0.2382 0.5563 0.4904
H31 H 0.2339 0.6741 0.5632
H32 H 0.1131 0.5564 0.5095
C28 C 0.1197(2) 0.5194(2) 0.85765(19)
H33 H 0.0814 0.5779 0.8492
C29 C 0.2002(2) 0.5683(2) 0.9691(2)
H34 H 0.1478 0.5684 1.0135
H35 H 0.2430 0.5147 0.9803
C30 C 0.2936(3) 0.6936(2) 0.9994(2)
H36 H 0.3412 0.7208 1.0712
H37 H 0.2519 0.7472 0.9889
H38 H 0.3480 0.6935 0.9576
C31 C 0.0149(2) 0.4012(2) 0.83373(19)
C32 C -0.1027(2) 0.3772(2) 0.7746(2)
C33 C -0.2003(2) 0.2742(2) 0.7600(2)
C34 C -0.1772(2) 0.1921(2) 0.80446(19)
C35 C -0.0609(2) 0.2102(2) 0.86079(19)
C36 C 0.0327(2) 0.3150(2) 0.87336(19)
H39 H 0.1129 0.3284 0.9109
C37 C -0.3249(2) 0.2548(3) 0.6992(2)
H40 H -0.3296 0.2384 0.6276
H41 H -0.3425 0.3262 0.7238
H42 H -0.3844 0.1870 0.7063
C38 C -0.0352(2) 0.1205(2) 0.90762(19)
H43 H -0.1126 0.0745 0.9171
C39 C 0.0617(2) 0.1792(2) 1.01330(19)
H44 H 0.0732 0.1161 1.0392
H45 H 0.1399 0.2249 1.0064
C40 C 0.0288(3) 0.2617(3) 1.0900(2)
H46 H 0.0942 0.2971 1.1550
H47 H -0.0469 0.2165 1.0995
H48 H 0.0177 0.3248 1.0653
O9 O -0.0660(3) 0.1607(3) 0.6015(2)
H49 H -0.079(4) 0.186(4) 0.651(3)
C41 C 0.0499(4) 0.1737(4) 0.5976(3)
H50 H 0.0897 0.1477 0.6494
H51 H 0.0971 0.2575 0.6104
H52 H 0.0452 0.1253 0.5303
O10 O 0.56007(19) 0.74267(19) 0.65288(16)
H53 H 0.509(3) 0.659(3) 0.631(3)
C42 C 0.5049(3) 0.8094(3) 0.7118(3)
H54 H 0.4957 0.7819 0.7689
H55 H 0.4249 0.7974 0.6688
H56 H 0.5567 0.8941 0.7378
loop_
_geom_bond_atom_site_label_1
_geom_bond_atom_site_label_2
_geom_bond_site_symmetry_1
_geom_bond_site_symmetry_2
O1 H1 1_555 1_555
O2 H2 1_555 1_555
O3 H3 1_555 1_555
O4 H4 1_555 1_555
O5 H5 1_555 1_555
O6 H6 1_555 1_555
O7 H7 1_555 1_555
O8 H8 1_555 1_555
C1 C2 1_555 1_555
C2 O1 1_555 1_555
C3 C2 1_555 1_555
C4 O2 1_555 1_555
C5 C4 1_555 1_555
C6 C1 1_555 1_555
H9 C6 1_555 1_555
C7 C3 1_555 1_555
H10 C7 1_555 1_555
H11 C7 1_555 1_555
H12 C7 1_555 1_555
C8 C5 1_555 1_555
H13 C8 1_555 1_555
C9 C8 1_555 1_555
H14 C9 1_555 1_555
H15 C9 1_555 1_555
C10 C9 1_555 1_555
H16 C10 1_555 1_555
H17 C10 1_555 1_555
H18 C10 1_555 1_555
C11 C8 1_555 1_555
C12 O3 1_555 1_555
C13 C12 1_555 1_555
C14 O4 1_555 1_555
C15 C14 1_555 1_555
C16 C11 1_555 1_555
H19 C16 1_555 1_555
C17 C13 1_555 1_555
H20 C17 1_555 1_555
H21 C17 1_555 1_555
H22 C17 1_555 1_555
C18 C15 1_555 1_555
H23 C18 1_555 1_555
C19 C18 1_555 1_555
H24 C19 1_555 1_555
H25 C19 1_555 1_555
C20 C19 1_555 1_555
H26 C20 1_555 1_555
H27 C20 1_555 1_555
H28 C20 1_555 1_555
C21 C18 1_555 1_555
C22 O5 1_555 1_555
C23 C22 1_555 1_555
C24 O6 1_555 1_555
C25 C24 1_555 1_555
C26 C21 1_555 1_555
H29 C26 1_555 1_555
C27 C23 1_555 1_555
H30 C27 1_555 1_555
H31 C27 1_555 1_555
H32 C27 1_555 1_555
C28 C25 1_555 1_555
H33 C28 1_555 1_555
C29 C28 1_555 1_555
H34 C29 1_555 1_555
H35 C29 1_555 1_555
C30 C29 1_555 1_555
H36 C30 1_555 1_555
H37 C30 1_555 1_555
H38 C30 1_555 1_555
C31 C28 1_555 1_555
C32 O7 1_555 1_555
C33 C32 1_555 1_555
C34 O8 1_555 1_555
C35 C34 1_555 1_555
C36 C31 1_555 1_555
H39 C36 1_555 1_555
C37 C33 1_555 1_555
H40 C37 1_555 1_555
H41 C37 1_555 1_555
H42 C37 1_555 1_555
C38 C1 1_555 1_555
H43 C38 1_555 1_555
C39 C38 1_555 1_555
H44 C39 1_555 1_555
H45 C39 1_555 1_555
C40 C39 1_555 1_555
H46 C40 1_555 1_555
H47 C40 1_555 1_555
H48 C40 1_555 1_555
O9 H49 1_555 1_555
C41 O9 1_555 1_555
H50 C41 1_555 1_555
H51 C41 1_555 1_555
H52 C41 1_555 1_555
O10 H53 1_555 1_555
C42 O10 1_555 1_555
H54 C42 1_555 1_555
H55 C42 1_555 1_555
H56 C42 1_555 1_555
C3 C4 1_555 1_555
C5 C6 1_555 1_555
C11 C12 1_555 1_555
C13 C14 1_555 1_555
C15 C16 1_555 1_555
C21 C22 1_555 1_555
C23 C24 1_555 1_555
C25 C26 1_555 1_555
C31 C32 1_555 1_555
C33 C34 1_555 1_555
C35 C36 1_555 1_555
C35 C38 1_555 1_555

#END
