
#######################################################################
#
#                 Cambridge Crystallographic Data Centre
#                                CCDC 
#
#######################################################################
#
# If this CIF has been generated from an entry in the Cambridge 
# Structural Database, then it will include bibliographic, chemical, 
# crystal, experimental, refinement or atomic coordinate data resulting 
# from the CCDC's data processing and validation procedures.
#
#######################################################################

data_TOSDAI
_chemical_formula_moiety         
'2(C40 H48 O8),4(C1 H4 O1),6(H2 O1),Cl1 1-,C6 H16 N1 1+'
_chemical_name_systematic        
'triethylammonium chloride 5,11,17,23-Tetramethyl-2,8,14,20-tetraethyl-4,6,10,12,16,18,22,24-octahydroxycalix(4)arene methanol solvate hexahydrate'
_symmetry_cell_setting           orthorhombic
_symmetry_space_group_name_H-M   'P n n n'
_symmetry_Int_Tables_number      48
_space_group_name_Hall           '-P 2ab 2bc'
loop_
_symmetry_equiv_pos_site_id
_symmetry_equiv_pos_as_xyz
1 x,y,z
2 1/2-x,1/2-y,z
3 x,1/2-y,1/2-z
4 1/2-x,y,1/2-z
5 -x,-y,-z
6 1/2+x,1/2+y,-z
7 -x,1/2+y,1/2+z
8 1/2+x,-y,1/2+z
_cell_length_a                   12.6356(2)
_cell_length_b                   15.1060(2)
_cell_length_c                   23.0509(3)
_cell_angle_alpha                90
_cell_angle_beta                 90
_cell_angle_gamma                90
_cell_volume                     4399.8
_exptl_crystal_colour            colorless
_exptl_crystal_description       brick
_cell_formula_units_Z            2
loop_
_atom_site_label
_atom_site_type_symbol
_atom_site_fract_x
_atom_site_fract_y
_atom_site_fract_z
O5 O 0.2500 0.7500 0.18970(14)
H25 H 0.250(9) 0.712(4) 0.165(3)
H26 H 0.213(5) 0.757(8) 0.219(2)
H25A H 0.250(9) 0.788(4) 0.165(3)
H26A H 0.287(5) 0.743(8) 0.219(2)
O1 O 0.64588(13) 0.22168(10) 0.14557(8)
H1 H 0.614(5) 0.172(2) 0.146(3)
O2 O 0.48070(15) 0.50682(11) 0.14737(8)
H2 H 0.536(2) 0.533(2) 0.1581(15)
O3 O 0.28237(14) 0.57726(12) 0.14579(8)
H3 H 0.3444(13) 0.5550(19) 0.1486(15)
O4 O -0.06247(13) 0.44866(12) 0.14801(8)
H4 H -0.091(3) 0.398(2) 0.146(3)
C1 C 0.51011(15) 0.25483(14) 0.07555(9)
C2 C 0.57326(17) 0.28086(14) 0.12216(10)
C3 C 0.56516(19) 0.36461(15) 0.14741(10)
C4 C 0.49180(18) 0.42359(15) 0.12350(10)
C5 C 0.42761(16) 0.40113(14) 0.07623(9)
C6 C 0.43775(15) 0.31617(13) 0.05404(9)
H5 H 0.3933 0.2990 0.0227
C7 C 0.35122(16) 0.46844(13) 0.04958(9)
H6 H 0.3797 0.5285 0.0591
C8 C 0.34811(17) 0.46193(14) -0.01693(9)
H7 H 0.4211 0.4661 -0.0323
H8 H 0.3192 0.4035 -0.0282
C9 C 0.2807(2) 0.53463(17) -0.04414(11)
H9 H 0.2806 0.5277 -0.0864
H10 H 0.3101 0.5926 -0.0340
H11 H 0.2081 0.5303 -0.0295
C10 C 0.6328(2) 0.39002(18) 0.19862(12)
H12 H 0.6970 0.4198 0.1849
H13 H 0.6524 0.3367 0.2203
H14 H 0.5931 0.4301 0.2240
C11 C 0.24106(17) 0.46294(13) 0.07665(9)
C12 C 0.21097(18) 0.51772(15) 0.12254(10)
C13 C 0.1097(2) 0.51364(17) 0.14737(10)
C14 C 0.03710(17) 0.45431(16) 0.12358(10)
C15 C 0.06234(16) 0.39986(13) 0.07652(9)
C16 C 0.16523(16) 0.40464(13) 0.05513(9)
H15 H 0.1847 0.3662 0.0243
C17 C -0.01945(16) 0.33793(13) 0.04962(9)
H16 H -0.0906 0.3611 0.0611
C18 C -0.01577(17) 0.33909(14) -0.01721(9)
H17 H -0.0200 0.4011 -0.0309
H18 H 0.0528 0.3145 -0.0303
C19 C -0.1053(2) 0.28603(17) -0.04447(11)
H19 H -0.0993 0.2885 -0.0868
H20 H -0.1734 0.3111 -0.0325
H21 H -0.1008 0.2243 -0.0316
C20 C 0.0824(2) 0.5701(2) 0.19914(13)
H22 H 0.0519 0.6263 0.1859
H23 H 0.1466 0.5819 0.2217
H24 H 0.0308 0.5390 0.2235
O1A O -0.14588(13) 0.27832(10) 0.14557(8)
H1A H -0.114(5) 0.328(2) 0.146(3)
O2A O 0.01930(15) -0.00682(11) 0.14737(8)
H2A H -0.036(2) -0.033(2) 0.1581(15)
O3A O 0.21763(14) -0.07726(12) 0.14579(8)
H3A H 0.1556(13) -0.0550(19) 0.1486(15)
O4A O 0.56247(13) 0.05134(12) 0.14801(8)
H4A H 0.591(3) 0.102(2) 0.146(3)
C1A C -0.01011(15) 0.24517(14) 0.07555(9)
C2A C -0.07326(17) 0.21914(14) 0.12216(10)
C3A C -0.06516(19) 0.13539(15) 0.14741(10)
C4A C 0.00820(18) 0.07641(15) 0.12350(10)
C5A C 0.07239(16) 0.09887(14) 0.07623(9)
C6A C 0.06225(15) 0.18383(13) 0.05404(9)
H5A H 0.1067 0.2010 0.0227
C7A C 0.14878(16) 0.03156(13) 0.04958(9)
H6A H 0.1203 -0.0285 0.0591
C8A C 0.15189(17) 0.03807(14) -0.01693(9)
H7A H 0.0789 0.0339 -0.0323
H8A H 0.1808 0.0965 -0.0282
C9A C 0.2193(2) -0.03463(17) -0.04414(11)
H9A H 0.2194 -0.0277 -0.0864
H10A H 0.1899 -0.0926 -0.0340
H11A H 0.2919 -0.0303 -0.0295
C10A C -0.1328(2) 0.10998(18) 0.19862(12)
H12A H -0.1970 0.0802 0.1849
H13A H -0.1524 0.1633 0.2203
H14A H -0.0931 0.0699 0.2240
C11A C 0.25894(17) 0.03706(13) 0.07665(9)
C12A C 0.28903(18) -0.01772(15) 0.12254(10)
C13A C 0.3903(2) -0.01364(17) 0.14737(10)
C14A C 0.46290(17) 0.04569(16) 0.12358(10)
C15A C 0.43766(16) 0.10014(13) 0.07652(9)
C16A C 0.33477(16) 0.09536(13) 0.05513(9)
H15A H 0.3153 0.1338 0.0243
C17A C 0.51945(16) 0.16207(13) 0.04962(9)
H16A H 0.5906 0.1389 0.0611
C18A C 0.51577(17) 0.16091(14) -0.01721(9)
H17A H 0.5200 0.0989 -0.0309
H18A H 0.4472 0.1855 -0.0303
C19A C 0.6053(2) 0.21397(17) -0.04447(11)
H19A H 0.5993 0.2115 -0.0868
H20A H 0.6734 0.1889 -0.0325
H21A H 0.6008 0.2757 -0.0316
C20A C 0.4176(2) -0.0701(2) 0.19914(13)
H22A H 0.4481 -0.1263 0.1859
H23A H 0.3534 -0.0819 0.2217
H24A H 0.4692 -0.0390 0.2235
H27? H 0.710(2) 0.239(5) 0.147(3)
H28? H -0.091(5) 0.496(3) 0.162(3)
O6? O 0.3791(3) 0.3860(2) -0.1922(2)
H29? H 0.3240 0.3966 -0.1730
C21? C 0.4259(10) 0.3074(6) -0.1718(5)
H30? H 0.4871 0.2925 -0.1960
H31? H 0.3741 0.2591 -0.1735
H32? H 0.4489 0.3157 -0.1315
O7? O 0.3641(9) 0.3604(9) -0.1500(6)
H33? H 0.3470 0.3334 -0.1196
C22? C 0.414(3) 0.300(2) -0.1891(16)
H34? H 0.4852 0.3225 -0.1989
H35? H 0.3721 0.2952 -0.2246
H36? H 0.4207 0.2421 -0.1708
Cl1? Cl 0.2500 0.2500 -0.0716(3)
O8? O 0.1676(3) 0.4104(3) -0.1869(3)
H37? H 0.2362 0.4063 -0.1852
H38? H 0.1393 0.3649 -0.1697
Cl2? Cl 0.1776(10) 0.3823(9) -0.1445(8)
O9? O 0.2500 0.2500 0.3512(2)
H39? H 0.2771 0.2327 0.3839
H40? H 0.3011 0.3007 0.3433
N1? N 0.2500 0.2500 0.2315(3)
H41? H 0.2500 0.2500 0.2683
C23? C 0.1956(9) 0.3371(7) 0.2172(5)
H42? H 0.2181 0.3558 0.1779
H43? H 0.1183 0.3267 0.2158
C24? C 0.3606(7) 0.2840(8) 0.2185(6)
H44? H 0.3763 0.3392 0.2400
H45? H 0.3711 0.2943 0.1765
C25? C 0.4286(9) 0.2050(9) 0.2408(4)
H46? H 0.3890 0.1497 0.2358
H47? H 0.4448 0.2135 0.2820
H48? H 0.4947 0.2019 0.2186
C26? C 0.2170(13) 0.4118(10) 0.2587(7)
H49? H 0.2270 0.4669 0.2369
H50? H 0.2811 0.3989 0.2811
H51? H 0.1569 0.4184 0.2852
C27? C 0.221(2) 0.1749(12) 0.1972(9)
H52? H 0.2844 0.1433 0.1826
H53? H 0.1760 0.1922 0.1640
C28? C 0.1586(18) 0.1177(12) 0.2423(8)
H54? H 0.1311 0.0639 0.2240
H55? H 0.0995 0.1529 0.2574
H56? H 0.2059 0.1015 0.2742
loop_
_geom_bond_atom_site_label_1
_geom_bond_atom_site_label_2
_geom_bond_site_symmetry_1
_geom_bond_site_symmetry_2
O1 H1 1_555 1_555
O2 H2 1_555 1_555
O3 H3 1_555 1_555
O4 H4 1_555 1_555
C1 C2 1_555 1_555
C2 O1 1_555 1_555
C3 C2 1_555 1_555
C4 O2 1_555 1_555
C5 C4 1_555 1_555
C6 C1 1_555 1_555
H5 C6 1_555 1_555
C7 C5 1_555 1_555
H6 C7 1_555 1_555
C8 C7 1_555 1_555
H7 C8 1_555 1_555
H8 C8 1_555 1_555
C9 C8 1_555 1_555
H9 C9 1_555 1_555
H10 C9 1_555 1_555
H11 C9 1_555 1_555
C10 C3 1_555 1_555
H12 C10 1_555 1_555
H13 C10 1_555 1_555
H14 C10 1_555 1_555
C11 C7 1_555 1_555
C12 O3 1_555 1_555
C13 C12 1_555 1_555
C14 O4 1_555 1_555
C15 C14 1_555 1_555
C16 C11 1_555 1_555
H15 C16 1_555 1_555
C17 C15 1_555 1_555
H16 C17 1_555 1_555
C18 C17 1_555 1_555
H17 C18 1_555 1_555
H18 C18 1_555 1_555
C19 C18 1_555 1_555
H19 C19 1_555 1_555
H20 C19 1_555 1_555
H21 C19 1_555 1_555
C20 C13 1_555 1_555
H22 C20 1_555 1_555
H23 C20 1_555 1_555
H24 C20 1_555 1_555
O5 H25 1_555 1_555
H26 O5 1_555 1_555
O1A H1A 1_555 1_555
O2A H2A 1_555 1_555
O3A H3A 1_555 1_555
O4A H4A 1_555 1_555
C1A C17 1_555 1_555
C2A O1A 1_555 1_555
C3A C2A 1_555 1_555
C4A O2A 1_555 1_555
C5A C4A 1_555 1_555
C6A C1A 1_555 1_555
H5A C6A 1_555 1_555
C7A C5A 1_555 1_555
H6A C7A 1_555 1_555
C8A C7A 1_555 1_555
H7A C8A 1_555 1_555
H8A C8A 1_555 1_555
C9A C8A 1_555 1_555
H9A C9A 1_555 1_555
H10A C9A 1_555 1_555
H11A C9A 1_555 1_555
C10A C3A 1_555 1_555
H12A C10A 1_555 1_555
H13A C10A 1_555 1_555
H14A C10A 1_555 1_555
C11A C7A 1_555 1_555
C12A O3A 1_555 1_555
C13A C12A 1_555 1_555
C14A O4A 1_555 1_555
C15A C14A 1_555 1_555
C16A C11A 1_555 1_555
H15A C16A 1_555 1_555
C17A C1 1_555 1_555
H16A C17A 1_555 1_555
C18A C17A 1_555 1_555
H17A C18A 1_555 1_555
H18A C18A 1_555 1_555
C19A C18A 1_555 1_555
H19A C19A 1_555 1_555
H20A C19A 1_555 1_555
H21A C19A 1_555 1_555
C20A C13A 1_555 1_555
H22A C20A 1_555 1_555
H23A C20A 1_555 1_555
H24A C20A 1_555 1_555
H25A O5 1_555 1_555
H26A O5 1_555 1_555
C3 C4 1_555 1_555
C5 C6 1_555 1_555
C11 C12 1_555 1_555
C13 C14 1_555 1_555
C15 C16 1_555 1_555
C1A C2A 1_555 1_555
C3A C4A 1_555 1_555
C5A C6A 1_555 1_555
C11A C12A 1_555 1_555
C13A C14A 1_555 1_555
C15A C16A 1_555 1_555
C15A C17A 1_555 1_555

#END
