
#######################################################################
#
#                 Cambridge Crystallographic Data Centre
#                                CCDC 
#
#######################################################################
#
# If this CIF has been generated from an entry in the Cambridge 
# Structural Database, then it will include bibliographic, chemical, 
# crystal, experimental, refinement or atomic coordinate data resulting 
# from the CCDC's data processing and validation procedures.
#
#######################################################################

data_TOSFAI
_chemical_formula_moiety         'C20 H29 N1 O4'
_chemical_name_systematic        
'(3S)-3-((1S)-1-Hydroxyphenylmethyl)-1-oxa-4-azaspiro(4.5)decane-4-carboxylic acid t-butyl ester'
_symmetry_cell_setting           orthorhombic
_symmetry_space_group_name_H-M   'P 21 21 21'
_symmetry_Int_Tables_number      19
_space_group_name_Hall           'P 2ac 2ab'
loop_
_symmetry_equiv_pos_site_id
_symmetry_equiv_pos_as_xyz
1 x,y,z
2 1/2-x,-y,1/2+z
3 1/2+x,1/2-y,-z
4 -x,1/2+y,1/2-z
_cell_length_a                   13.356(1)
_cell_length_b                   14.690(1)
_cell_length_c                   10.0504(8)
_cell_angle_alpha                90
_cell_angle_beta                 90
_cell_angle_gamma                90
_cell_volume                     1971.88
_exptl_crystal_colour            white
_chemical_melting_point          140deg.C
_cell_formula_units_Z            4
loop_
_atom_site_label
_atom_site_type_symbol
_atom_site_fract_x
_atom_site_fract_y
_atom_site_fract_z
O1 O 0.5096(2) 0.9217(1) 0.4793(2)
O2 O 0.3549(2) 1.0764(1) 0.2504(2)
O3 O 0.5120(2) 0.7152(1) 0.1906(2)
O4 O 0.3699(1) 0.7886(1) 0.1311(2)
N1 N 0.4654(2) 0.8477(1) 0.2903(2)
C1 C 0.3965(2) 0.9252(2) 0.3055(3)
C2 C 0.4062(2) 0.9424(2) 0.4530(3)
C3 C 0.5347(2) 0.8414(2) 0.4063(3)
C4 C 0.5139(2) 0.7572(2) 0.4906(3)
C5 C 0.5866(3) 0.7513(2) 0.6095(3)
C6 C 0.6940(3) 0.7562(3) 0.5638(4)
C7 C 0.7130(2) 0.8424(3) 0.4871(4)
C8 C 0.6431(2) 0.8495(2) 0.3665(3)
C9 C 0.4308(2) 1.0097(2) 0.2272(3)
C10 C 0.4488(2) 0.9970(2) 0.0796(3)
C11 C 0.3707(2) 0.9924(2) -0.0103(4)
C12 C 0.3873(3) 0.9846(3) -0.1448(4)
C13 C 0.4836(3) 0.9820(3) -0.1925(3)
C14 C 0.5617(3) 0.9858(3) -0.1054(4)
C15 C 0.5448(2) 0.9933(2) 0.0303(3)
C16 C 0.4538(2) 0.7785(2) 0.2025(3)
C17 C 0.3391(3) 0.7219(2) 0.0289(3)
C18 C 0.2387(3) 0.7591(3) -0.0142(5)
C19 C 0.4136(4) 0.7220(3) -0.0822(4)
C20 C 0.3255(3) 0.6285(2) 0.0905(5)
H1 H 0.3300 0.9086 0.2823
H2 H 0.3634 0.9025 0.5024
H3 H 0.3912 1.0033 0.4750
H4 H 0.4468 0.7604 0.5247
H5 H 0.5204 0.7039 0.4384
H6 H 0.5725 0.7994 0.6690
H7 H 0.5754 0.6943 0.6539
H8 H 0.7362 0.7550 0.6395
H9 H 0.7080 0.7053 0.5086
H10 H 0.7025 0.8926 0.5435
H11 H 0.7807 0.8416 0.4571
H12 H 0.6591 0.8019 0.3050
H13 H 0.6536 0.9065 0.3244
H14 H 0.4908 1.0306 0.2661
H15 H 0.3029 0.9946 0.0223
H16 H 0.3330 0.9802 -0.2057
H17 H 0.4954 0.9780 -0.2855
H18 H 0.6284 0.9828 -0.1373
H19 H 0.6000 0.9964 0.0899
H20 H 0.2034 0.7174 -0.0686
H21 H 0.2444 0.8159 -0.0583
H22 H 0.1968 0.7696 0.0652
H23 H 0.4744 0.6898 -0.0576
H24 H 0.3880 0.6935 -0.1606
H25 H 0.4339 0.7831 -0.1060
H26 H 0.2833 0.5915 0.0371
H27 H 0.3873 0.5990 0.1050
H28 H 0.2927 0.6353 0.1771
H29 H 0.3972 1.1369 0.2609
loop_
_geom_bond_atom_site_label_1
_geom_bond_atom_site_label_2
_geom_bond_site_symmetry_1
_geom_bond_site_symmetry_2
O1 C2 1_555 1_555
O2 C9 1_555 1_555
O3 C16 1_555 1_555
O4 C16 1_555 1_555
N1 C1 1_555 1_555
C1 C2 1_555 1_555
C2 H2 1_555 1_555
C3 O1 1_555 1_555
C4 C3 1_555 1_555
C5 C4 1_555 1_555
C6 C5 1_555 1_555
C7 C6 1_555 1_555
C8 C3 1_555 1_555
C9 C1 1_555 1_555
C10 C9 1_555 1_555
C11 C10 1_555 1_555
C12 C11 1_555 1_555
C13 C12 1_555 1_555
C14 C13 1_555 1_555
C15 C10 1_555 1_555
C16 N1 1_555 1_555
C17 O4 1_555 1_555
C18 C17 1_555 1_555
C19 C17 1_555 1_555
C20 C17 1_555 1_555
H1 C1 1_555 1_555
H3 C2 1_555 1_555
H4 C4 1_555 1_555
H5 C4 1_555 1_555
H6 C5 1_555 1_555
H7 C5 1_555 1_555
H8 C6 1_555 1_555
H9 C6 1_555 1_555
H10 C7 1_555 1_555
H11 C7 1_555 1_555
H12 C8 1_555 1_555
H13 C8 1_555 1_555
H14 C9 1_555 1_555
H15 C11 1_555 1_555
H16 C12 1_555 1_555
H17 C13 1_555 1_555
H18 C14 1_555 1_555
H19 C15 1_555 1_555
H20 C18 1_555 1_555
H21 C18 1_555 1_555
H22 C18 1_555 1_555
H23 C19 1_555 1_555
H24 C19 1_555 1_555
H25 C19 1_555 1_555
H26 C20 1_555 1_555
H27 C20 1_555 1_555
H28 C20 1_555 1_555
H29 O2 1_555 1_555
N1 C3 1_555 1_555
C7 C8 1_555 1_555
C14 C15 1_555 1_555

#END
