
#######################################################################
#
#                 Cambridge Crystallographic Data Centre
#                                CCDC 
#
#######################################################################
#
# If this CIF has been generated from an entry in the Cambridge 
# Structural Database, then it will include bibliographic, chemical, 
# crystal, experimental, refinement or atomic coordinate data resulting 
# from the CCDC's data processing and validation procedures.
#
#######################################################################

data_TOSHUG
_chemical_formula_moiety         'C16 H13 N5'
_chemical_name_systematic        
6-(Pyridin-2-yl)-6,7-dihydro-5H-dipyrido[3,2-d:2',3'-f][1,3]diazepine
_symmetry_cell_setting           triclinic
_symmetry_space_group_name_H-M   'P -1'
_symmetry_Int_Tables_number      2
_space_group_name_Hall           '-P 1'
loop_
_symmetry_equiv_pos_site_id
_symmetry_equiv_pos_as_xyz
1 x,y,z
2 -x,-y,-z
_cell_length_a                   9.8020(15)
_cell_length_b                   11.0335(17)
_cell_length_c                   12.7221(15)
_cell_angle_alpha                87.172(7)
_cell_angle_beta                 84.520(7)
_cell_angle_gamma                85.678(7)
_cell_volume                     1364.49
_exptl_crystal_colour            colorless
_exptl_crystal_description       plate
_cell_formula_units_Z            4
loop_
_atom_site_label
_atom_site_type_symbol
_atom_site_fract_x
_atom_site_fract_y
_atom_site_fract_z
N1 N 0.1984(2) 0.16757(19) 0.22120(14)
N2 N 0.3528(2) 0.3411(2) 0.14715(14)
N3 N 0.3503(2) 0.18944(18) 0.47542(15)
N4 N 0.3501(2) 0.40531(19) 0.42832(14)
N5 N 0.6453(2) 0.37737(19) 0.43558(15)
C1 C 0.1248(3) 0.0732(2) 0.24688(19)
C2 C 0.1148(3) 0.0187(2) 0.3477(2)
C3 C 0.1885(3) 0.0620(2) 0.42170(19)
C4 C 0.2721(2) 0.1600(2) 0.39736(17)
C5 C 0.2707(2) 0.2144(2) 0.29395(16)
C6 C 0.3368(2) 0.3273(2) 0.25376(17)
C7 C 0.3666(2) 0.4201(2) 0.31817(17)
C8 C 0.4061(3) 0.5300(2) 0.2696(2)
C9 C 0.4138(3) 0.5460(3) 0.1612(2)
C10 C 0.3889(3) 0.4479(3) 0.1035(2)
C11 C 0.4231(2) 0.2974(2) 0.47550(17)
C12 C 0.5721(2) 0.2808(2) 0.42759(16)
C13 C 0.6278(3) 0.1758(2) 0.38066(19)
C14 C 0.7635(3) 0.1702(3) 0.3387(2)
C15 C 0.8393(3) 0.2694(3) 0.3455(2)
C16 C 0.7766(3) 0.3703(3) 0.39441(19)
H1 H 0.075(2) 0.034(2) 0.1886(18)
H2 H 0.058(3) -0.045(2) 0.3641(18)
H3 H 0.185(2) 0.024(2) 0.4953(17)
H4 H 0.318(3) 0.160(2) 0.541(2)
H5 H 0.369(3) 0.472(3) 0.462(2)
H6 H 0.424(2) 0.598(2) 0.3146(18)
H7 H 0.443(3) 0.626(3) 0.1269(19)
H8 H 0.392(3) 0.451(2) 0.024(2)
H9 H 0.424(2) 0.310(2) 0.5539(17)
H10 H 0.572(2) 0.105(2) 0.3809(17)
H11 H 0.804(2) 0.097(2) 0.3034(18)
H12 H 0.931(3) 0.267(2) 0.3164(19)
H13 H 0.825(3) 0.440(2) 0.4032(19)
N6 N 0.3707(2) 0.15337(18) 0.70509(14)
N7 N 0.1156(2) 0.22032(19) 0.65414(14)
N8 N 0.2203(2) 0.21104(19) 0.97791(15)
N9 N 0.1307(2) 0.39571(19) 0.88985(14)
N10 N -0.1158(2) 0.34982(18) 1.05724(15)
C17 C 0.4916(3) 0.0996(2) 0.7266(2)
C18 C 0.5283(3) 0.0823(3) 0.8290(2)
C19 C 0.4369(3) 0.1229(2) 0.9102(2)
C20 C 0.3089(2) 0.1814(2) 0.89096(17)
C21 C 0.2794(2) 0.1947(2) 0.78367(16)
C22 C 0.1524(2) 0.2577(2) 0.74552(16)
C23 C 0.0852(2) 0.3588(2) 0.79557(17)
C24 C -0.0192(3) 0.4250(2) 0.74593(19)
C25 C -0.0523(3) 0.3892(3) 0.6494(2)
C26 C 0.0154(3) 0.2864(3) 0.60772(19)
C27 C 0.1167(3) 0.3122(2) 0.98232(18)
C28 C -0.0262(3) 0.2693(2) 1.00701(17)
C29 C -0.0640(3) 0.1564(2) 0.9811(2)
C30 C -0.1961(3) 0.1247(3) 1.0108(2)
C31 C -0.2877(3) 0.2061(3) 1.0653(2)
C32 C -0.2439(3) 0.3179(3) 1.0854(2)
H14 H 0.567(3) 0.076(2) 0.6623(19)
H15 H 0.616(3) 0.044(2) 0.8404(18)
H16 H 0.456(2) 0.111(2) 0.981(2)
H17 H 0.259(3) 0.203(3) 1.036(2)
H18 H 0.098(3) 0.477(3) 0.908(2)
H19 H -0.064(2) 0.500(2) 0.7792(17)
H20 H -0.116(3) 0.435(2) 0.6129(19)
H21 H -0.007(3) 0.249(3) 0.541(2)
H22 H 0.134(2) 0.360(2) 1.0444(16)
H23 H 0.005(3) 0.098(2) 0.9418(19)
H24 H -0.224(3) 0.041(2) 0.9933(19)
H25 H -0.379(3) 0.183(2) 1.0936(19)
H26 H -0.302(3) 0.376(2) 1.1264(18)
loop_
_geom_bond_atom_site_label_1
_geom_bond_atom_site_label_2
_geom_bond_site_symmetry_1
_geom_bond_site_symmetry_2
N1 C1 1_555 1_555
N2 C6 1_555 1_555
N3 C4 1_555 1_555
N4 C7 1_555 1_555
N5 C12 1_555 1_555
C1 C2 1_555 1_555
C2 C3 1_555 1_555
C3 C4 1_555 1_555
C4 C5 1_555 1_555
C5 N1 1_555 1_555
C6 C5 1_555 1_555
C7 C6 1_555 1_555
C8 C7 1_555 1_555
C9 C8 1_555 1_555
C10 N2 1_555 1_555
C11 N3 1_555 1_555
C12 C11 1_555 1_555
C13 C12 1_555 1_555
C14 C13 1_555 1_555
C15 C14 1_555 1_555
C16 N5 1_555 1_555
H1 C1 1_555 1_555
H2 C2 1_555 1_555
H3 C3 1_555 1_555
H4 N3 1_555 1_555
H5 N4 1_555 1_555
H6 C8 1_555 1_555
H7 C9 1_555 1_555
H8 C10 1_555 1_555
H9 C11 1_555 1_555
H10 C13 1_555 1_555
H11 C14 1_555 1_555
H12 C15 1_555 1_555
H13 C16 1_555 1_555
N6 C17 1_555 1_555
N7 C22 1_555 1_555
N8 C20 1_555 1_555
N9 C23 1_555 1_555
N10 C28 1_555 1_555
C17 C18 1_555 1_555
C18 C19 1_555 1_555
C19 C20 1_555 1_555
C20 C21 1_555 1_555
C21 N6 1_555 1_555
C22 C21 1_555 1_555
C23 C22 1_555 1_555
C24 C23 1_555 1_555
C25 C24 1_555 1_555
C26 N7 1_555 1_555
C27 N8 1_555 1_555
C28 C27 1_555 1_555
C29 C28 1_555 1_555
C30 C29 1_555 1_555
C31 C30 1_555 1_555
C32 N10 1_555 1_555
H14 C17 1_555 1_555
H15 C18 1_555 1_555
H16 C19 1_555 1_555
H17 N8 1_555 1_555
H18 N9 1_555 1_555
H19 C24 1_555 1_555
H20 C25 1_555 1_555
H21 C26 1_555 1_555
H22 C27 1_555 1_555
H23 C29 1_555 1_555
H24 C30 1_555 1_555
H25 C31 1_555 1_555
H26 C32 1_555 1_555
N4 C11 1_555 1_555
C9 C10 1_555 1_555
C15 C16 1_555 1_555
N9 C27 1_555 1_555
C25 C26 1_555 1_555
C31 C32 1_555 1_555

#END
