
#######################################################################
#
#                 Cambridge Crystallographic Data Centre
#                                CCDC 
#
#######################################################################
#
# If this CIF has been generated from an entry in the Cambridge 
# Structural Database, then it will include bibliographic, chemical, 
# crystal, experimental, refinement or atomic coordinate data resulting 
# from the CCDC's data processing and validation procedures.
#
#######################################################################

data_TOSHUE
_chemical_formula_moiety         'C17 H20 N2 O7'
_chemical_name_systematic        
(3aR,4'R,5S,6S,6aR)-5-(2',2'-Dimethyl-1',3'-dioxolan-4'-yl)-6-hydroxy-3a-N-phenylcarboxamido-tetrahydrofuro(2,3-d)(1,2)oxazolidin-2-one
_symmetry_cell_setting           orthorhombic
_symmetry_space_group_name_H-M   'P 21 21 21'
_symmetry_Int_Tables_number      19
_space_group_name_Hall           'P 2ac 2ab'
loop_
_symmetry_equiv_pos_site_id
_symmetry_equiv_pos_as_xyz
1 x,y,z
2 1/2-x,-y,1/2+z
3 1/2+x,1/2-y,-z
4 -x,1/2+y,1/2-z
_cell_length_a                   7.123(4)
_cell_length_b                   14.133(4)
_cell_length_c                   17.118(4)
_cell_angle_alpha                90
_cell_angle_beta                 90
_cell_angle_gamma                90
_cell_volume                     1723.26
_chemical_melting_point          218-220deg.C(dec.)
_cell_formula_units_Z            4
loop_
_atom_site_label
_atom_site_type_symbol
_atom_site_fract_x
_atom_site_fract_y
_atom_site_fract_z
O1 O 1.4279(5) 0.3400(3) 0.5451(2)
O2 O 1.5216(4) 0.4221(2) 0.6510(1)
O3 O 1.3225(4) 0.4397(2) 0.8343(2)
O4 O 1.0164(4) 0.6321(2) 0.7815(2)
O5 O 0.7748(4) 0.6955(2) 0.7165(2)
O6 O 1.0364(3) 0.4168(2) 0.7154(1)
O7 O 0.6939(4) 0.4333(2) 0.8624(2)
N1 N 0.8043(5) 0.5348(2) 0.7333(2)
N2 N 0.9011(4) 0.3177(2) 0.8332(2)
C1 C 1.7262(7) 0.4162(4) 0.5398(3)
C2 C 1.6771(8) 0.2725(4) 0.6244(3)
C3 C 1.5907(6) 0.3611(3) 0.5897(2)
C4 C 1.2712(6) 0.3400(3) 0.5952(3)
C5 C 1.3410(5) 0.3854(3) 0.6716(2)
C6 C 1.2140(5) 0.4638(2) 0.7012(2)
C7 C 1.2633(5) 0.5080(3) 0.7803(2)
C8 C 1.0701(5) 0.5402(3) 0.8094(2)
C9 C 0.8521(5) 0.6269(2) 0.7411(2)
C10 C 0.9321(5) 0.4710(2) 0.7699(2)
C11 C 0.8312(5) 0.4041(2) 0.8264(2)
C12 C 0.8291(6) 0.2454(2) 0.8822(2)
C13 C 0.9494(7) 0.1978(3) 0.9323(2)
C14 C 0.8797(8) 0.1261(3) 0.9791(2)
C15 C 0.6930(8) 0.1022(3) 0.9765(2)
C16 C 0.5751(7) 0.1498(3) 0.9262(2)
C17 C 0.6401(6) 0.2209(3) 0.8792(2)
H1 H 1.7773 0.3764 0.4966
H2 H 1.8317 0.4428 0.5713
H3 H 1.6558 0.4718 0.5150
H4 H 1.7289 0.2305 0.5811
H5 H 1.7848 0.2884 0.6603
H6 H 1.5810 0.2362 0.6538
H7 H 1.2240 0.2738 0.6046
H8 H 1.1647 0.3784 0.5723
H9 H 1.3333 0.3361 0.7144
H10 H 1.2292 0.5165 0.6617
H11 H 1.3715 0.5540 0.7774
H12 H 1.3483 0.4695 0.8873
H13 H 1.0546 0.5475 0.8685
H14 H 0.7138 0.5345 0.7123
H15 H 0.9921 0.3155 0.8191
H16 H 1.0798 0.2174 0.9361
H17 H 0.9717 0.0896 1.0130
H18 H 0.6413 0.0523 1.0124
H19 H 0.4437 0.1315 0.9244
H20 H 0.5527 0.2554 0.8428
loop_
_geom_bond_atom_site_label_1
_geom_bond_atom_site_label_2
_geom_bond_site_symmetry_1
_geom_bond_site_symmetry_2
O1 C3 1_555 1_555
O2 C3 1_555 1_555
O3 C7 1_555 1_555
O4 C8 1_555 1_555
O5 C9 1_555 1_555
O6 C6 1_555 1_555
O7 C11 1_555 1_555
N1 C9 1_555 1_555
N2 C11 1_555 1_555
C1 C3 1_555 1_555
C2 C3 1_555 1_555
C4 O1 1_555 1_555
C5 O2 1_555 1_555
C6 C5 1_555 1_555
C7 C6 1_555 1_555
C8 C7 1_555 1_555
C9 O4 1_555 1_555
C10 O6 1_555 1_555
C11 C10 1_555 1_555
C12 N2 1_555 1_555
C13 C12 1_555 1_555
C14 C13 1_555 1_555
C15 C14 1_555 1_555
C16 C15 1_555 1_555
C17 C12 1_555 1_555
H1 C1 1_555 1_555
H2 C1 1_555 1_555
H3 C1 1_555 1_555
H4 C2 1_555 1_555
H5 C2 1_555 1_555
H6 C2 1_555 1_555
H7 C4 1_555 1_555
H8 C4 1_555 1_555
H9 C5 1_555 1_555
H10 C6 1_555 1_555
H11 C7 1_555 1_555
H12 O3 1_555 1_555
H13 C8 1_555 1_555
H14 N1 1_555 1_555
H15 N2 1_555 1_555
H16 C13 1_555 1_555
H17 C14 1_555 1_555
H18 C15 1_555 1_555
H19 C16 1_555 1_555
H20 C17 1_555 1_555
N1 C10 1_555 1_555
C4 C5 1_555 1_555
C8 C10 1_555 1_555
C16 C17 1_555 1_555

#END
