
#######################################################################
#
#                 Cambridge Crystallographic Data Centre
#                                CCDC 
#
#######################################################################
#
# If this CIF has been generated from an entry in the Cambridge 
# Structural Database, then it will include bibliographic, chemical, 
# crystal, experimental, refinement or atomic coordinate data resulting 
# from the CCDC's data processing and validation procedures.
#
#######################################################################

data_TOSHAM
_chemical_formula_moiety         'C30 H36 O5,C1 H4 O1'
_chemical_name_systematic        
'8-Benzoyl-3-hydroxy-9,9-dimethyl-6,10-bis(3-methylbut-2-en-1-yl)-4-oxatricyclo[6.3.1.0^1,5^]dodec-5-ene-7,12-dione methanol solvate'
_symmetry_cell_setting           orthorhombic
_symmetry_space_group_name_H-M   'P 21 21 21'
_symmetry_Int_Tables_number      19
_space_group_name_Hall           'P 2ac 2ab'
loop_
_symmetry_equiv_pos_site_id
_symmetry_equiv_pos_as_xyz
1 x,y,z
2 1/2-x,-y,1/2+z
3 -x,1/2+y,1/2-z
4 1/2+x,1/2-y,-z
_cell_length_a                   10.3477(2)
_cell_length_b                   15.2561(2)
_cell_length_c                   18.0350(3)
_cell_angle_alpha                90
_cell_angle_beta                 90
_cell_angle_gamma                90
_cell_volume                     2847.11
_cell_formula_units_Z            4
loop_
_atom_site_label
_atom_site_type_symbol
_atom_site_fract_x
_atom_site_fract_y
_atom_site_fract_z
C1 C 0.84554(16) 0.52467(12) 0.24066(9)
C2 C 0.73088(16) 0.51374(10) 0.18626(9)
C3 C 0.75424(17) 0.50786(10) 0.10729(9)
C4 C 0.87631(17) 0.49656(11) 0.08489(9)
C5 C 1.0527(2) 0.48803(15) 0.00653(12)
H1 H 1.0801 0.4273 -0.0014
C6 C 1.10026(19) 0.51991(14) 0.08124(12)
H2 H 1.1106 0.5831 0.0815
H3 H 1.1820 0.4928 0.0941
C7 C 0.99367(16) 0.49152(11) 0.13446(10)
C8 C 1.01911(18) 0.39868(12) 0.16564(11)
H4 H 1.0241 0.3582 0.1243
H5 H 1.1029 0.3989 0.1897
C9 C 0.91896(19) 0.36331(12) 0.22104(11)
H6 H 0.9665 0.3191 0.2495
C10 C 0.87975(19) 0.43318(12) 0.28007(10)
C11 C 0.96692(17) 0.55183(11) 0.19892(10)
C12 C 0.80562(19) 0.59901(13) 0.29569(10)
C13 C 0.74589(19) 0.68127(12) 0.26691(11)
C14 C 0.6662(2) 0.72756(16) 0.31558(15)
H7 H 0.6522 0.7070 0.3635
C15 C 0.6081(3) 0.8044(2) 0.29185(19)
H8 H 0.5563 0.8357 0.3246
C16 C 0.6250(3) 0.83486(16) 0.22215(19)
H9 H 0.5834 0.8858 0.2070
C17 C 0.7036(3) 0.79054(16) 0.17375(15)
H10 H 0.7169 0.8124 0.1262
C18 C 0.7630(2) 0.71385(14) 0.19527(12)
H11 H 0.8149 0.6836 0.1618
C19 C 0.64278(19) 0.51506(12) 0.05335(11)
H12 H 0.6581 0.4766 0.0115
H13 H 0.5638 0.4963 0.0775
C20 C 0.6269(2) 0.60782(14) 0.02610(10)
H14 H 0.6995 0.6335 0.0048
C21 C 0.5230(2) 0.65649(14) 0.02886(13)
C22 C 0.3986(3) 0.6255(3) 0.0572(3)
H15 H 0.4095 0.5686 0.0792
H16 H 0.3378 0.6217 0.0171
H17 H 0.3670 0.6657 0.0938
C23 C 0.5196(4) 0.7463(2) -0.0051(2)
H18 H 0.6032 0.7603 -0.0249
H19 H 0.4966 0.7885 0.0321
H20 H 0.4568 0.7474 -0.0443
C24 C 0.8098(2) 0.31083(12) 0.18307(12)
H21 H 0.7564 0.2835 0.2208
H22 H 0.7556 0.3508 0.1550
C25 C 0.8608(2) 0.24187(12) 0.13235(12)
H23 H 0.9313 0.2101 0.1498
C26 C 0.8186(2) 0.22018(13) 0.06571(12)
C27 C 0.8781(3) 0.14647(17) 0.02261(16)
H24 H 0.9499 0.1230 0.0498
H25 H 0.9076 0.1679 -0.0245
H26 H 0.8149 0.1013 0.0149
C28 C 0.7075(3) 0.2648(2) 0.02831(18)
H27 H 0.6923 0.3205 0.0514
H28 H 0.6316 0.2290 0.0327
H29 H 0.7274 0.2734 -0.0232
C29 C 0.7662(2) 0.39956(15) 0.32666(12)
H30 H 0.7889 0.3444 0.3488
H31 H 0.6919 0.3919 0.2955
H32 H 0.7467 0.4413 0.3649
C30 C 0.9976(2) 0.44612(17) 0.33171(12)
H33 H 0.9764 0.4879 0.3696
H34 H 1.0696 0.4674 0.3033
H35 H 1.0200 0.3912 0.3542
O1 O 0.82004(19) 0.59009(12) 0.36179(8)
O2 O 0.62115(12) 0.51367(9) 0.21200(7)
O3 O 1.0927(2) 0.53799(12) -0.04970(10)
H36 H 1.0832 0.5113 -0.0888
O4 O 0.91017(14) 0.49217(11) 0.01338(7)
O5 O 1.03485(14) 0.61248(10) 0.21647(8)
C31 C 0.3524(4) 0.5852(3) 0.2818(2)
H37 H 0.2782 0.5976 0.3120
H38 H 0.3302 0.5423 0.2451
H39 H 0.3806 0.6380 0.2578
O6 O 0.45110(17) 0.55302(12) 0.32614(9)
H40 H 0.5150 0.5432 0.3005
loop_
_geom_bond_atom_site_label_1
_geom_bond_atom_site_label_2
_geom_bond_site_symmetry_1
_geom_bond_site_symmetry_2
C1 C2 1_555 1_555
C2 C3 1_555 1_555
C3 C4 1_555 1_555
C4 C7 1_555 1_555
C5 H1 1_555 1_555
C6 C5 1_555 1_555
H2 C6 1_555 1_555
H3 C6 1_555 1_555
C7 C6 1_555 1_555
C8 C7 1_555 1_555
H4 C8 1_555 1_555
H5 C8 1_555 1_555
C9 C8 1_555 1_555
H6 C9 1_555 1_555
C10 C1 1_555 1_555
C11 C1 1_555 1_555
C12 C1 1_555 1_555
C13 C12 1_555 1_555
C14 C13 1_555 1_555
H7 C14 1_555 1_555
C15 C14 1_555 1_555
H8 C15 1_555 1_555
C16 C15 1_555 1_555
H9 C16 1_555 1_555
C17 C16 1_555 1_555
H10 C17 1_555 1_555
C18 C13 1_555 1_555
H11 C18 1_555 1_555
C19 C3 1_555 1_555
H12 C19 1_555 1_555
H13 C19 1_555 1_555
C20 C19 1_555 1_555
H14 C20 1_555 1_555
C21 C20 1_555 1_555
C22 C21 1_555 1_555
H15 C22 1_555 1_555
H16 C22 1_555 1_555
H17 C22 1_555 1_555
C23 C21 1_555 1_555
H18 C23 1_555 1_555
H19 C23 1_555 1_555
H20 C23 1_555 1_555
C24 C9 1_555 1_555
H21 C24 1_555 1_555
H22 C24 1_555 1_555
C25 C24 1_555 1_555
H23 C25 1_555 1_555
C26 C25 1_555 1_555
C27 C26 1_555 1_555
H24 C27 1_555 1_555
H25 C27 1_555 1_555
H26 C27 1_555 1_555
C28 C26 1_555 1_555
H27 C28 1_555 1_555
H28 C28 1_555 1_555
H29 C28 1_555 1_555
C29 C10 1_555 1_555
H30 C29 1_555 1_555
H31 C29 1_555 1_555
H32 C29 1_555 1_555
C30 C10 1_555 1_555
H33 C30 1_555 1_555
H34 C30 1_555 1_555
H35 C30 1_555 1_555
O1 C12 1_555 1_555
O2 C2 1_555 1_555
O3 C5 1_555 1_555
H36 O3 1_555 1_555
O4 C4 1_555 1_555
O5 C11 1_555 1_555
C31 H37 1_555 1_555
H38 C31 1_555 1_555
H39 C31 1_555 1_555
O6 C31 1_555 1_555
H40 O6 1_555 1_555
C5 O4 1_555 1_555
C7 C11 1_555 1_555
C9 C10 1_555 1_555
C17 C18 1_555 1_555

#END
