
#######################################################################
#
#                 Cambridge Crystallographic Data Centre
#                                CCDC 
#
#######################################################################
#
# If this CIF has been generated from an entry in the Cambridge 
# Structural Database, then it will include bibliographic, chemical, 
# crystal, experimental, refinement or atomic coordinate data resulting 
# from the CCDC's data processing and validation procedures.
#
#######################################################################

data_TOSLAO
_chemical_formula_moiety         'C13 H18 S2'
_chemical_name_systematic        
(+-)-9,12-Dimethyl-2,6-dithia(7)paracyclophane
_symmetry_cell_setting           triclinic
_symmetry_space_group_name_H-M   'P -1'
_symmetry_Int_Tables_number      2
_space_group_name_Hall           '-P 1'
loop_
_symmetry_equiv_pos_site_id
_symmetry_equiv_pos_as_xyz
1 x,y,z
2 -x,-y,-z
_cell_length_a                   6.802(3)
_cell_length_b                   7.546(3)
_cell_length_c                   13.742(5)
_cell_angle_alpha                75.99(3)
_cell_angle_beta                 82.08(3)
_cell_angle_gamma                66.62(3)
_cell_volume                     627.485
_exptl_crystal_colour            colorless
_chemical_melting_point          97deg.C
_cell_formula_units_Z            2
loop_
_atom_site_label
_atom_site_type_symbol
_atom_site_fract_x
_atom_site_fract_y
_atom_site_fract_z
C1 C 0.1120(3) 0.1922(3) 0.0558(1)
S1 S 0.3408(1) 0.2718(1) 0.0256(1)
C2 C 0.5081(2) 0.1524(2) 0.1338(1)
C3 C 0.4485(2) 0.2745(2) 0.2149(1)
C4 C 0.5246(2) 0.1561(2) 0.3194(1)
S2 S 0.3777(1) 0.2808(1) 0.4206(1)
C5 C 0.1520(3) 0.1964(3) 0.4555(1)
C6 C 0.0632(2) 0.1891(2) 0.3638(1)
C7 C 0.1409(2) 0.0110(2) 0.3324(1)
C8 C 0.1326(2) 0.0005(2) 0.2336(1)
C9 C 0.0477(2) 0.1775(2) 0.1650(1)
C10 C -0.0670(2) 0.3501(2) 0.2008(1)
C11 C -0.0649(2) 0.3596(2) 0.2998(1)
C12 C -0.1772(3) 0.5531(3) 0.3325(1)
C13 C 0.2296(3) -0.1978(2) 0.2031(2)
loop_
_geom_bond_atom_site_label_1
_geom_bond_atom_site_label_2
_geom_bond_site_symmetry_1
_geom_bond_site_symmetry_2
C1 S1 1_555 1_555
S1 C2 1_555 1_555
C2 C3 1_555 1_555
C3 C4 1_555 1_555
C4 S2 1_555 1_555
S2 C5 1_555 1_555
C5 C6 1_555 1_555
C6 C7 1_555 1_555
C7 C8 1_555 1_555
C8 C9 1_555 1_555
C9 C1 1_555 1_555
C10 C9 1_555 1_555
C11 C6 1_555 1_555
C12 C11 1_555 1_555
C13 C8 1_555 1_555
C10 C11 1_555 1_555

#END
