
#######################################################################
#
#                 Cambridge Crystallographic Data Centre
#                                CCDC 
#
#######################################################################
#
# If this CIF has been generated from an entry in the Cambridge 
# Structural Database, then it will include bibliographic, chemical, 
# crystal, experimental, refinement or atomic coordinate data resulting 
# from the CCDC's data processing and validation procedures.
#
#######################################################################

data_TOSLOC
_chemical_formula_moiety         'C14 H16 S2'
_chemical_name_systematic        
(+-)-10,13-Dimethyl-2,7-dithia(7)paracyclophan-4-yne
_symmetry_cell_setting           monoclinic
_symmetry_space_group_name_H-M   'P 21/c'
_symmetry_Int_Tables_number      14
_space_group_name_Hall           '-P 2ybc'
loop_
_symmetry_equiv_pos_site_id
_symmetry_equiv_pos_as_xyz
1 x,y,z
2 -x,1/2+y,1/2-z
3 -x,-y,-z
4 x,1/2-y,1/2+z
_cell_length_a                   8.774(3)
_cell_length_b                   20.897(9)
_cell_length_c                   7.567(3)
_cell_angle_alpha                90
_cell_angle_beta                 114.42(3)
_cell_angle_gamma                90
_cell_volume                     1263.29
_exptl_crystal_colour            colorless
_chemical_melting_point          149deg.C
_cell_formula_units_Z            4
loop_
_atom_site_label
_atom_site_type_symbol
_atom_site_fract_x
_atom_site_fract_y
_atom_site_fract_z
C1 C 1.0877(2) 0.1056(1) 0.5096(3)
S1 S 1.1131(1) 0.1838(1) 0.6251(1)
C2 C 0.9443(3) 0.2295(1) 0.4422(3)
C3 C 0.7773(3) 0.2211(1) 0.4387(3)
C4 C 0.6405(3) 0.2130(1) 0.4296(3)
C5 C 0.4730(2) 0.2015(1) 0.4214(3)
S2 S 0.3215(1) 0.1682(1) 0.1943(1)
C6 C 0.3777(3) 0.0834(1) 0.2176(3)
C7 C 0.5617(2) 0.0738(1) 0.2791(3)
C8 C 0.6386(3) 0.0856(1) 0.1537(3)
C9 C 0.8108(3) 0.0902(1) 0.2341(3)
C10 C 0.9099(2) 0.0836(1) 0.4319(3)
C11 C 0.8340(2) 0.0651(1) 0.5534(3)
C12 C 0.6612(2) 0.0606(1) 0.4727(3)
C13 C 0.5389(3) 0.0981(1) -0.0606(3)
C14 C 0.9334(3) 0.0558(1) 0.7682(3)
loop_
_geom_bond_atom_site_label_1
_geom_bond_atom_site_label_2
_geom_bond_site_symmetry_1
_geom_bond_site_symmetry_2
C1 S1 1_555 1_555
S1 C2 1_555 1_555
C2 C3 1_555 1_555
C3 C4 1_555 1_555
C4 C5 1_555 1_555
C5 S2 1_555 1_555
S2 C6 1_555 1_555
C6 C7 1_555 1_555
C7 C8 1_555 1_555
C8 C9 1_555 1_555
C9 C10 1_555 1_555
C10 C1 1_555 1_555
C11 C10 1_555 1_555
C12 C7 1_555 1_555
C13 C8 1_555 1_555
C14 C11 1_555 1_555
C11 C12 1_555 1_555

#END
