
#######################################################################
#
#                 Cambridge Crystallographic Data Centre
#                                CCDC 
#
#######################################################################
#
# If this CIF has been generated from an entry in the Cambridge 
# Structural Database, then it will include bibliographic, chemical, 
# crystal, experimental, refinement or atomic coordinate data resulting 
# from the CCDC's data processing and validation procedures.
#
#######################################################################

data_TOSLES
_chemical_formula_moiety         'C14 H20 S2'
_chemical_name_systematic        
(+-)-10,13-Dimethyl-2,7-dithia(8)paracyclophane
_symmetry_cell_setting           monoclinic
_symmetry_space_group_name_H-M   'P 21/c'
_symmetry_Int_Tables_number      14
_space_group_name_Hall           '-P 2ybc'
loop_
_symmetry_equiv_pos_site_id
_symmetry_equiv_pos_as_xyz
1 x,y,z
2 -x,1/2+y,1/2-z
3 -x,-y,-z
4 x,1/2-y,1/2+z
_cell_length_a                   14.068(1)
_cell_length_b                   7.176(1)
_cell_length_c                   13.875(1)
_cell_angle_alpha                90
_cell_angle_beta                 104.28(1)
_cell_angle_gamma                90
_cell_volume                     1357.43
_exptl_crystal_colour            colorless
_chemical_melting_point          74deg.C
_cell_formula_units_Z            4
loop_
_atom_site_label
_atom_site_type_symbol
_atom_site_fract_x
_atom_site_fract_y
_atom_site_fract_z
C1 C 0.0787(2) 0.4357(4) 0.3972(2)
S1 S 0.0139(1) 0.6423(1) 0.3358(1)
C2 C 0.0612(2) 0.8306(4) 0.4216(2)
C3 C 0.1552(2) 0.9251(4) 0.4079(2)
C4 C 0.2250(2) 0.9772(4) 0.5069(2)
C5 C 0.3289(2) 1.0275(4) 0.4981(2)
S2 S 0.4254(1) 0.9700(1) 0.6069(1)
C6 C 0.4583(2) 0.7303(4) 0.5809(2)
C7 C 0.3705(2) 0.6102(4) 0.5394(2)
C8 C 0.3081(2) 0.5481(4) 0.5971(2)
C9 C 0.2157(2) 0.4834(4) 0.5480(2)
C10 C 0.1856(2) 0.4696(3) 0.4446(2)
C11 C 0.2537(2) 0.5010(4) 0.3884(2)
C12 C 0.3442(2) 0.5743(4) 0.4371(2)
C13 C 0.3345(2) 0.5609(5) 0.7089(2)
C14 C 0.2292(2) 0.4676(5) 0.2776(2)
loop_
_geom_bond_atom_site_label_1
_geom_bond_atom_site_label_2
_geom_bond_site_symmetry_1
_geom_bond_site_symmetry_2
C1 S1 1_555 1_555
S1 C2 1_555 1_555
C2 C3 1_555 1_555
C3 C4 1_555 1_555
C4 C5 1_555 1_555
C5 S2 1_555 1_555
S2 C6 1_555 1_555
C6 C7 1_555 1_555
C7 C8 1_555 1_555
C8 C9 1_555 1_555
C9 C10 1_555 1_555
C10 C1 1_555 1_555
C11 C10 1_555 1_555
C12 C7 1_555 1_555
C13 C8 1_555 1_555
C14 C11 1_555 1_555
C11 C12 1_555 1_555

#END
