
#######################################################################
#
#                 Cambridge Crystallographic Data Centre
#                                CCDC 
#
#######################################################################
#
# If this CIF has been generated from an entry in the Cambridge 
# Structural Database, then it will include bibliographic, chemical, 
# crystal, experimental, refinement or atomic coordinate data resulting 
# from the CCDC's data processing and validation procedures.
#
#######################################################################

data_TOSQEZ
_chemical_formula_moiety         'C14 H8 Cl1 N3 S1'
_chemical_name_systematic        
3-(3-chlorophenyl)[1,2,4]triazolo[3,4-b][1,3]benzothiazole
_symmetry_cell_setting           orthorhombic
_symmetry_space_group_name_H-M   'P c c n'
_symmetry_Int_Tables_number      56
_space_group_name_Hall           '-P 2ab 2ac'
loop_
_symmetry_equiv_pos_site_id
_symmetry_equiv_pos_as_xyz
1 x,y,z
2 1/2-x,1/2-y,z
3 -x,1/2+y,1/2-z
4 1/2+x,-y,1/2-z
5 -x,-y,-z
6 1/2+x,1/2+y,-z
7 x,1/2-y,1/2+z
8 1/2-x,y,1/2+z
_cell_length_a                   7.4354(15)
_cell_length_b                   15.648(3)
_cell_length_c                   21.424(4)
_cell_angle_alpha                90
_cell_angle_beta                 90
_cell_angle_gamma                90
_cell_volume                     2492.66
_exptl_crystal_colour            colorless
_exptl_crystal_description       rod
_cell_formula_units_Z            8
loop_
_atom_site_label
_atom_site_type_symbol
_atom_site_fract_x
_atom_site_fract_y
_atom_site_fract_z
Cl1 Cl 0.62680(7) 1.15349(4) -0.19452(3)
S1 S 0.02542(7) 0.79725(3) 0.04768(2)
N1 N 0.12853(19) 0.89618(9) -0.04290(7)
N2 N 0.2551(2) 1.00945(10) -0.00152(7)
N3 N 0.2015(2) 0.95673(11) 0.04755(7)
C1 C 0.0029(2) 0.76281(12) -0.03031(10)
C2 C 0.0634(2) 0.82299(11) -0.07400(9)
C3 C 0.0596(2) 0.80613(11) -0.13720(9)
H1 H 0.1014 0.8470 -0.1666
C4 C -0.0075(2) 0.72738(12) -0.15647(11)
H2 H -0.0114 0.7141 -0.1997
C5 C -0.0688(3) 0.66783(12) -0.11323(13)
H3 H -0.1148 0.6147 -0.1275
C6 C -0.0641(3) 0.68447(12) -0.05007(12)
H4 H -0.1057 0.6434 -0.0208
C7 C 0.1266(2) 0.89049(12) 0.02082(9)
C8 C 0.2109(2) 0.97352(11) -0.05475(8)
C9 C 0.2382(2) 1.01444(10) -0.11564(8)
C10 C 0.4013(2) 1.05618(11) -0.12657(9)
H5 H 0.4955 1.0537 -0.0967
C11 C 0.4232(2) 1.10113(12) -0.18155(9)
C12 C 0.2892(3) 1.10546(12) -0.22624(9)
H6 H 0.3073 1.1364 -0.2639
C13 C 0.1275(3) 1.06353(12) -0.21492(9)
H7 H 0.0343 1.0657 -0.2452
C14 C 0.1011(2) 1.01873(11) -0.15992(9)
H8 H -0.0104 0.9909 -0.1524
loop_
_geom_bond_atom_site_label_1
_geom_bond_atom_site_label_2
_geom_bond_site_symmetry_1
_geom_bond_site_symmetry_2
Cl1 C11 1_555 1_555
S1 C1 1_555 1_555
N1 C2 1_555 1_555
N2 N3 1_555 1_555
N3 C7 1_555 1_555
C1 C2 1_555 1_555
C2 C3 1_555 1_555
C3 H1 1_555 1_555
C4 C3 1_555 1_555
H2 C4 1_555 1_555
C5 C4 1_555 1_555
H3 C5 1_555 1_555
C6 C1 1_555 1_555
H4 C6 1_555 1_555
C7 S1 1_555 1_555
C8 N1 1_555 1_555
C9 C8 1_555 1_555
C10 C9 1_555 1_555
H5 C10 1_555 1_555
C11 C10 1_555 1_555
C12 C11 1_555 1_555
H6 C12 1_555 1_555
C13 C12 1_555 1_555
H7 C13 1_555 1_555
C14 C9 1_555 1_555
H8 C14 1_555 1_555
N1 C7 1_555 1_555
N2 C8 1_555 1_555
C5 C6 1_555 1_555
C13 C14 1_555 1_555

#END
