
#######################################################################
#
#                 Cambridge Crystallographic Data Centre
#                                CCDC 
#
#######################################################################
#
# If this CIF has been generated from an entry in the Cambridge 
# Structural Database, then it will include bibliographic, chemical, 
# crystal, experimental, refinement or atomic coordinate data resulting 
# from the CCDC's data processing and validation procedures.
#
#######################################################################

data_TOSTEC
_chemical_formula_moiety         'C6 Cl3 N3 O6,C4 H8 O2'
_chemical_name_systematic        
'1,3,5-trichloro-2,4,6-trinitrobenzene 1,4-dioxane'
_symmetry_cell_setting           monoclinic
_symmetry_space_group_name_H-M   'C 2/c'
_symmetry_Int_Tables_number      15
_space_group_name_Hall           '-C 2yn'
loop_
_symmetry_equiv_pos_site_id
_symmetry_equiv_pos_as_xyz
1 x,y,z
2 -x,y,1/2-z
3 1/2+x,1/2+y,z
4 1/2-x,1/2+y,1/2-z
5 -x,-y,-z
6 x,-y,1/2+z
7 1/2-x,1/2-y,-z
8 1/2+x,1/2-y,1/2+z
_cell_length_a                   15.380(3)
_cell_length_b                   9.5560(19)
_cell_length_c                   12.400(3)
_cell_angle_alpha                90
_cell_angle_beta                 110.50(3)
_cell_angle_gamma                90
_cell_volume                     1707.03
_cell_formula_units_Z            4
loop_
_atom_site_label
_atom_site_type_symbol
_atom_site_fract_x
_atom_site_fract_y
_atom_site_fract_z
Cl1 Cl 0.0000 0.51521(15) 0.7500
C1 C 0.0000 0.3369(5) 0.7500
N1 N 0.0977(3) 0.3396(4) 0.6291(4)
O1 O 0.1739(3) 0.3780(5) 0.6841(4)
Cl2 Cl 0.10696(9) 0.02800(13) 0.61994(11)
C2 C 0.0476(3) 0.2614(4) 0.6930(3)
N2 N 0.0000 -0.1060(6) 0.7500
O2 O 0.0596(3) 0.3604(4) 0.5299(3)
C3 C 0.0482(3) 0.1171(4) 0.6914(3)
O3 O -0.0673(3) -0.1622(3) 0.6848(4)
C4 C 0.0000 0.0486(5) 0.7500
N1A N -0.0977(3) 0.3396(4) 0.8709(4)
O1A O -0.1739(3) 0.3780(5) 0.8159(4)
Cl2A Cl -0.10696(9) 0.02800(13) 0.88006(11)
C2A C -0.0476(3) 0.2614(4) 0.8070(3)
O2A O -0.0596(3) 0.3604(4) 0.9701(3)
C3A C -0.0482(3) 0.1171(4) 0.8086(3)
O3A O 0.0673(3) -0.1622(3) 0.8152(4)
O4 O 0.16561(18) 0.1772(3) 0.9752(3)
C5 C 0.2486(3) 0.1080(5) 0.9822(4)
H1 H 0.2339 0.0281 0.9307
H2 H 0.2790 0.0736 1.0600
C6 C 0.1867(3) 0.2970(5) 1.0491(4)
H3 H 0.2152 0.2673 1.1285
H4 H 0.1299 0.3467 1.0416
O4F O 0.33439(18) 0.3228(3) 1.0248(3)
C5F C 0.2514(3) 0.3920(5) 1.0178(4)
H1F H 0.2661 0.4719 1.0693
H2F H 0.2210 0.4264 0.9400
C6F C 0.3133(3) 0.2030(5) 0.9509(4)
H3F H 0.2848 0.2327 0.8715
H4F H 0.3701 0.1533 0.9584
loop_
_geom_bond_atom_site_label_1
_geom_bond_atom_site_label_2
_geom_bond_site_symmetry_1
_geom_bond_site_symmetry_2
Cl1 C1 1_555 1_555
C1 C2 1_555 1_555
N1 O1 1_555 1_555
Cl2 C3 1_555 1_555
C2 N1 1_555 1_555
N2 O3 1_555 1_555
O2 N1 1_555 1_555
C3 C2 1_555 1_555
C4 N2 1_555 1_555
O4 C5 1_555 1_555
C5 H1 1_555 1_555
H2 C5 1_555 1_555
C6 O4 1_555 1_555
H3 C6 1_555 1_555
H4 C6 1_555 1_555
N1A O1A 1_555 1_555
Cl2A C3A 1_555 1_555
C2A C1 1_555 1_555
O2A N1A 1_555 1_555
C3A C4 1_555 1_555
O3A N2 1_555 1_555
O4F C5F 1_555 1_555
C5F C6 1_555 1_555
H1F C5F 1_555 1_555
H2F C5F 1_555 1_555
C6F C5 1_555 1_555
H3F C6F 1_555 1_555
H4F C6F 1_555 1_555
C3 C4 1_555 1_555
N1A C2A 1_555 1_555
C2A C3A 1_555 1_555
O4F C6F 1_555 1_555

#END
