
#######################################################################
#
#                 Cambridge Crystallographic Data Centre
#                                CCDC 
#
#######################################################################
#
# If this CIF has been generated from an entry in the Cambridge 
# Structural Database, then it will include bibliographic, chemical, 
# crystal, experimental, refinement or atomic coordinate data resulting 
# from the CCDC's data processing and validation procedures.
#
#######################################################################

data_TOSYUX
_chemical_name_common            
"4,8-bis(8-oxyquinolinato)-4,8-Dihydro-p-diborino[2,3-b:5,6-b']dithiophene unknown solvate"
_chemical_formula_moiety         'C26 H16 B2 N2 O2 S2'
_chemical_name_systematic        
"2,8''-dihydrodispiro[1,3,2-oxazaborolo[5,4,3-ij]quinoline-2,4'-thieno[2',3':5,6][1,4]diborinino[2,3-b]thiophene-8',2''-[1,3,2]oxazaborolo[5,4,3-ij]quinoline] unknown solvate"
_symmetry_cell_setting           triclinic
_symmetry_space_group_name_H-M   'P -1'
_symmetry_Int_Tables_number      2
_space_group_name_Hall           '-P 1'
loop_
_symmetry_equiv_pos_site_id
_symmetry_equiv_pos_as_xyz
1 x,y,z
2 -x,-y,-z
_cell_length_a                   7.9127(4)
_cell_length_b                   9.3250(4)
_cell_length_c                   9.8060(4)
_cell_angle_alpha                92.99(2)
_cell_angle_beta                 101.30(1)
_cell_angle_gamma                113.32(1)
_cell_volume                     644.76
_exptl_crystal_colour            colorless
_chemical_melting_point          '360.7 K'
_cell_formula_units_Z            1
_exptl_crystal_recrystallization_method acetone
_exptl_crystal_preparation       Luminescent
loop_
_atom_site_label
_atom_site_type_symbol
_atom_site_fract_x
_atom_site_fract_y
_atom_site_fract_z
S1 S 0.35362(7) 0.74515(7) 0.22520(5)
O1 O 0.49956(19) 1.14046(18) 0.24997(15)
N1 N 0.1955(2) 1.0320(2) 0.30250(16)
C1 C 0.4268(2) 0.8877(2) 0.36896(19)
C2 C 0.1994(3) 1.1241(2) 0.19978(19)
C3 C 0.5150(3) 0.6863(2) 0.4546(2)
H1 H 0.5675 0.6357 0.5211
C4 C 0.5090(3) 0.8429(2) 0.4865(2)
B1 B 0.4114(3) 1.0514(3) 0.3623(2)
C5 C 0.0433(3) 1.1510(3) 0.1317(2)
C6 C 0.3786(3) 1.1862(2) 0.1701(2)
C7 C 0.0371(3) 0.9581(3) 0.3419(2)
H2 H 0.0331 0.8919 0.4128
C8 C 0.4059(4) 1.2813(3) 0.0661(2)
H3 H 0.5250 1.3255 0.0421
C9 C 0.4341(3) 0.6269(3) 0.3162(2)
H4 H 0.4240 0.5286 0.2749
C10 C -0.1274(3) 0.9779(3) 0.2781(3)
H5 H -0.2421 0.9236 0.3060
C11 C -0.1237(3) 1.0734(3) 0.1777(3)
H6 H -0.2345 1.0878 0.1382
C12 C 0.0756(4) 1.2499(3) 0.0272(2)
H7 H -0.0231 1.2746 -0.0221
C13 C 0.2521(4) 1.3107(3) -0.0034(2)
H8 H 0.2704 1.3760 -0.0752
S1A S 0.64638(7) 1.25485(7) 0.77480(5)
O1A O 0.50044(19) 0.85954(18) 0.75003(15)
N1A N 0.8045(2) 0.9680(2) 0.69750(16)
C1A C 0.5732(2) 1.1123(2) 0.63104(19)
C2A C 0.8006(3) 0.8759(2) 0.80022(19)
C3A C 0.4850(3) 1.3137(2) 0.5454(2)
H1A H 0.4325 1.3643 0.4789
C4A C 0.4910(3) 1.1571(2) 0.5135(2)
B1A B 0.5886(3) 0.9486(3) 0.6377(2)
C5A C 0.9567(3) 0.8490(3) 0.8683(2)
C6A C 0.6214(3) 0.8138(2) 0.8299(2)
C7A C 0.9629(3) 1.0419(3) 0.6581(2)
H2A H 0.9669 1.1081 0.5872
C8A C 0.5941(4) 0.7187(3) 0.9339(2)
H3A H 0.4750 0.6745 0.9579
C9A C 0.5659(3) 1.3731(3) 0.6838(2)
H4A H 0.5760 1.4714 0.7251
C10A C 1.1274(3) 1.0221(3) 0.7219(3)
H5A H 1.2421 1.0764 0.6940
C11A C 1.1237(3) 0.9266(3) 0.8223(3)
H6A H 1.2345 0.9122 0.8618
C12A C 0.9244(4) 0.7501(3) 0.9728(2)
H7A H 1.0231 0.7254 1.0221
C13A C 0.7479(4) 0.6893(3) 1.0034(2)
H8A H 0.7296 0.6240 1.0752
loop_
_geom_bond_atom_site_label_1
_geom_bond_atom_site_label_2
_geom_bond_site_symmetry_1
_geom_bond_site_symmetry_2
S1 C1 1_555 1_555
O1 B1 1_555 1_555
N1 C2 1_555 1_555
C1 C4 1_555 1_555
C2 C5 1_555 1_555
C3 H1 1_555 1_555
C4 C3 1_555 1_555
B1 N1 1_555 1_555
C5 C11 1_555 1_555
C6 O1 1_555 1_555
C7 N1 1_555 1_555
H2 C7 1_555 1_555
C8 C6 1_555 1_555
H3 C8 1_555 1_555
C9 S1 1_555 1_555
H4 C9 1_555 1_555
C10 C7 1_555 1_555
H5 C10 1_555 1_555
C11 C10 1_555 1_555
H6 C11 1_555 1_555
C12 C5 1_555 1_555
H7 C12 1_555 1_555
C13 C8 1_555 1_555
H8 C13 1_555 1_555
S1A C1A 1_555 1_555
O1A B1A 1_555 1_555
N1A C2A 1_555 1_555
C1A C4A 1_555 1_555
C2A C5A 1_555 1_555
C3A H1A 1_555 1_555
C4A B1 1_555 1_555
B1A C4 1_555 1_555
C5A C11A 1_555 1_555
C6A O1A 1_555 1_555
C7A N1A 1_555 1_555
H2A C7A 1_555 1_555
C8A C6A 1_555 1_555
H3A C8A 1_555 1_555
C9A S1A 1_555 1_555
H4A C9A 1_555 1_555
C10A C7A 1_555 1_555
H5A C10A 1_555 1_555
C11A C10A 1_555 1_555
H6A C11A 1_555 1_555
C12A C5A 1_555 1_555
H7A C12A 1_555 1_555
C13A C8A 1_555 1_555
H8A C13A 1_555 1_555
C1 B1 1_555 1_555
C2 C6 1_555 1_555
C3 C9 1_555 1_555
C12 C13 1_555 1_555
N1A B1A 1_555 1_555
C1A B1A 1_555 1_555
C2A C6A 1_555 1_555
C3A C4A 1_555 1_555
C3A C9A 1_555 1_555
C12A C13A 1_555 1_555

#END
