
#######################################################################
#
#                 Cambridge Crystallographic Data Centre
#                                CCDC 
#
#######################################################################
#
# If this CIF has been generated from an entry in the Cambridge 
# Structural Database, then it will include bibliographic, chemical, 
# crystal, experimental, refinement or atomic coordinate data resulting 
# from the CCDC's data processing and validation procedures.
#
#######################################################################

data_TOSZUY
_chemical_formula_moiety         'C72 H74,C2 H6 O1 S1'
_chemical_name_systematic        
"1,1',1'',1''',1'''',1''''',1'''''',1'''''''-octa-1,3,5,7-tetraene-1,2,3,4,5,6,7,8-octayloctakis(3,5-dimethylbenzene) dimethyl sulfoxide solvate"
_symmetry_cell_setting           triclinic
_symmetry_space_group_name_H-M   'P -1'
_symmetry_Int_Tables_number      2
_space_group_name_Hall           '-P 1'
loop_
_symmetry_equiv_pos_site_id
_symmetry_equiv_pos_as_xyz
1 x,y,z
2 -x,-y,-z
_cell_length_a                   14.3679(13)
_cell_length_b                   14.8455(14)
_cell_length_c                   16.0061(15)
_cell_angle_alpha                75.950(2)
_cell_angle_beta                 83.391(2)
_cell_angle_gamma                83.523(2)
_cell_volume                     3277.15
_exptl_crystal_colour            yellow
_exptl_crystal_description       block
_cell_formula_units_Z            2
loop_
_atom_site_label
_atom_site_type_symbol
_atom_site_fract_x
_atom_site_fract_y
_atom_site_fract_z
S1 S 0.3209(14) 0.3440(16) 0.7495(13)
O1 O 0.2565(6) 0.2742(6) 0.7638(7)
C1 C 0.4000(7) 0.3369(11) 0.6688(6)
H1 H 0.4609 0.3202 0.6901
H2 H 0.4000 0.3960 0.6278
H3 H 0.3855 0.2901 0.6412
C2 C 0.3797(16) 0.3655(16) 0.8263(12)
H4 H 0.3381 0.3644 0.8779
H5 H 0.4034 0.4257 0.8064
H6 H 0.4312 0.3186 0.8386
C3 C 0.4274(3) 1.2123(3) 0.2217(3)
H7 H 0.4464 1.1607 0.2641
C4 C 0.3465(3) 1.2101(3) 0.1816(3)
C5 C 0.3203(4) 1.2876(3) 0.1175(3)
H8 H 0.2676 1.2871 0.0889
C6 C 0.3709(4) 1.3653(3) 0.0952(3)
C7 C 0.4507(4) 1.3633(3) 0.1369(3)
H9 H 0.4861 1.4146 0.1215
C8 C 0.4795(3) 1.2876(3) 0.2007(3)
C9 C 0.5633(4) 1.2892(4) 0.2481(4)
H10 H 0.5428 1.2926 0.3066
H11 H 0.5966 1.3425 0.2199
H12 H 0.6043 1.2334 0.2483
C10 C 0.3384(6) 1.4512(4) 0.0279(5)
H13 H 0.3079 1.4979 0.0565
H14 H 0.2951 1.4345 -0.0060
H15 H 0.3918 1.4752 -0.0091
C11 C 0.2931(3) 1.1275(3) 0.2018(3)
H16 H 0.2697 1.1137 0.1549
C12 C 0.2734(3) 1.0693(3) 0.2786(3)
C13 C 0.2917(3) 1.0848(3) 0.3637(3)
C14 C 0.3243(4) 1.0097(3) 0.4278(3)
H17 H 0.3329 0.9503 0.4171
C15 C 0.3439(5) 1.0217(4) 0.5068(4)
C16 C 0.3289(5) 1.1095(5) 0.5227(4)
H18 H 0.3423 1.1180 0.5756
C17 C 0.2948(4) 1.1847(4) 0.4628(4)
C18 C 0.2755(3) 1.1718(3) 0.3826(3)
H19 H 0.2516 1.2224 0.3416
C19 C 0.3815(8) 0.9378(5) 0.5734(5)
H20 H 0.3476 0.9373 0.6288
H21 H 0.4471 0.9417 0.5770
H22 H 0.3734 0.8817 0.5564
C20 C 0.2763(6) 1.2812(5) 0.4814(5)
H23 H 0.2289 1.3170 0.4465
H24 H 0.3333 1.3120 0.4681
H25 H 0.2552 1.2754 0.5415
C21 C 0.2285(3) 0.9818(3) 0.2836(2)
C22 C 0.1302(3) 0.9814(3) 0.3268(3)
C23 C 0.0685(3) 1.0611(3) 0.3048(3)
H26 H 0.0900 1.1132 0.2653
C24 C -0.0243(4) 1.0642(4) 0.3404(4)
C25 C -0.0551(4) 0.9877(4) 0.3995(4)
H27 H -0.1173 0.9895 0.4232
C26 C 0.0050(4) 0.9065(4) 0.4252(3)
C27 C 0.0973(3) 0.9049(3) 0.3878(3)
H28 H 0.1380 0.8516 0.4037
C28 C -0.0912(4) 1.1514(5) 0.3146(6)
H29 H -0.0633 1.1927 0.2645
H30 H -0.1031 1.1822 0.3615
H31 H -0.1494 1.1342 0.3015
C29 C -0.0303(5) 0.8237(5) 0.4892(4)
H32 H 0.0221 0.7818 0.5108
H33 H -0.0682 0.7923 0.4616
H34 H -0.0674 0.8436 0.5363
C30 C 0.2717(3) 0.9118(3) 0.2487(2)
C31 C 0.3687(3) 0.9122(3) 0.2029(3)
C32 C 0.4438(3) 0.9478(3) 0.2280(3)
H35 H 0.4351 0.9713 0.2774
C33 C 0.5307(3) 0.9491(4) 0.1816(4)
C34 C 0.5432(4) 0.9137(5) 0.1080(4)
H36 H 0.6011 0.9165 0.0753
C35 C 0.4724(4) 0.8748(4) 0.0821(3)
C36 C 0.3862(3) 0.8737(3) 0.1304(3)
H37 H 0.3381 0.8464 0.1142
C37 C 0.4878(5) 0.8336(5) 0.0038(4)
H38 H 0.5305 0.8687 -0.0391
H39 H 0.4288 0.8356 -0.0196
H40 H 0.5138 0.7700 0.0202
C38 C 0.6101(4) 0.9918(6) 0.2090(5)
H41 H 0.6358 0.9494 0.2580
H42 H 0.5862 1.0493 0.2244
H43 H 0.6584 1.0037 0.1621
C39 C 0.2257(3) 0.8250(2) 0.2514(2)
C40 C 0.2780(3) 0.7389(3) 0.3014(3)
C41 C 0.3116(3) 0.7395(3) 0.3790(3)
H44 H 0.3012 0.7939 0.3991
C42 C 0.2970(3) 0.6571(3) 0.2715(3)
H45 H 0.2768 0.6552 0.2189
C43 C 0.3451(4) 0.5792(3) 0.3186(4)
C44 C 0.3752(4) 0.5827(4) 0.3965(4)
H46 H 0.4067 0.5298 0.4289
C45 C 0.3599(4) 0.6626(4) 0.4277(3)
C46 C 0.3946(6) 0.6666(5) 0.5134(4)
H47 H 0.4524 0.6960 0.5022
H48 H 0.4050 0.6045 0.5482
H49 H 0.3482 0.7019 0.5435
C47 C 0.3641(6) 0.4917(4) 0.2841(5)
H50 H 0.4242 0.4610 0.2997
H51 H 0.3641 0.5080 0.2223
H52 H 0.3159 0.4505 0.3087
C48 C 0.1491(3) 0.8252(3) 0.2101(2)
C49 C 0.1016(3) 0.9125(3) 0.1576(3)
C50 C 0.0047(3) 0.9294(3) 0.1713(3)
H53 H -0.0295 0.8851 0.2102
C51 C -0.0426(3) 1.0121(3) 0.1275(4)
C52 C 0.0091(4) 1.0769(3) 0.0691(4)
H54 H -0.0215 1.1324 0.0403
C53 C 0.1058(3) 1.0608(3) 0.0528(3)
C54 C 0.1502(3) 0.9786(3) 0.0974(3)
H55 H 0.2149 0.9673 0.0866
C55 C 0.1602(4) 1.1317(4) -0.0114(4)
H56 H 0.1612 1.1858 0.0113
H57 H 0.1308 1.1492 -0.0645
H58 H 0.2234 1.1056 -0.0219
C56 C -0.1483(4) 1.0300(4) 0.1448(5)
H59 H -0.1640 1.0943 0.1457
H60 H -0.1690 0.9913 0.1996
H61 H -0.1789 1.0156 0.0999
C57 C 0.1018(3) 0.7388(3) 0.2171(3)
C58 C 0.0709(3) 0.6900(3) 0.2954(3)
H62 H 0.0728 0.7180 0.3411
C59 C 0.0339(3) 0.5969(3) 0.3183(3)
C60 C 0.0749(4) 0.5261(3) 0.2794(3)
H63 H 0.1264 0.5374 0.2386
C61 C 0.0407(4) 0.4393(3) 0.3001(4)
C62 C 0.0854(6) 0.3649(4) 0.2543(5)
H64 H 0.0881 0.3054 0.2947
H65 H 0.1479 0.3792 0.2305
H66 H 0.0485 0.3630 0.2085
C63 C -0.0347(4) 0.4241(4) 0.3622(4)
H67 H -0.0589 0.3663 0.3760
C64 C -0.0756(4) 0.4918(4) 0.4048(4)
C65 C -0.0392(4) 0.5776(3) 0.3824(3)
H68 H -0.0643 0.6235 0.4112
C66 C -0.1564(5) 0.4728(5) 0.4737(5)
H69 H -0.1440 0.4933 0.5234
H70 H -0.1636 0.4072 0.4897
H71 H -0.2132 0.5059 0.4517
C67 C 0.0928(3) 0.7128(3) 0.1343(3)
C68 C 0.0116(4) 0.6775(3) 0.1196(3)
H72 H -0.0396 0.6732 0.1611
C69 C 0.0059(4) 0.6488(3) 0.0439(4)
C70 C 0.0819(5) 0.6575(4) -0.0177(4)
H73 H 0.0787 0.6376 -0.0681
C71 C 0.1621(5) 0.6943(3) -0.0073(3)
C72 C 0.1671(4) 0.7222(3) 0.0698(3)
H74 H 0.2209 0.7473 0.0778
C73 C 0.2456(5) 0.7045(4) -0.0757(4)
H75 H 0.3022 0.6783 -0.0492
H76 H 0.2506 0.7694 -0.1021
H77 H 0.2366 0.6724 -0.1191
C74 C -0.0822(5) 0.6076(5) 0.0322(6)
H78 H -0.1170 0.6514 -0.0100
H79 H -0.1203 0.5942 0.0863
H80 H -0.0650 0.5511 0.0129
loop_
_geom_bond_atom_site_label_1
_geom_bond_atom_site_label_2
_geom_bond_site_symmetry_1
_geom_bond_site_symmetry_2
S1 O1 1_555 1_555
C1 S1 1_555 1_555
H1 C1 1_555 1_555
H2 C1 1_555 1_555
H3 C1 1_555 1_555
C2 S1 1_555 1_555
H4 C2 1_555 1_555
H5 C2 1_555 1_555
H6 C2 1_555 1_555
C3 H7 1_555 1_555
C4 C3 1_555 1_555
C5 C4 1_555 1_555
H8 C5 1_555 1_555
C6 C5 1_555 1_555
C7 C6 1_555 1_555
H9 C7 1_555 1_555
C8 C3 1_555 1_555
C9 C8 1_555 1_555
H10 C9 1_555 1_555
H11 C9 1_555 1_555
H12 C9 1_555 1_555
C10 C6 1_555 1_555
H13 C10 1_555 1_555
H14 C10 1_555 1_555
H15 C10 1_555 1_555
C11 C4 1_555 1_555
H16 C11 1_555 1_555
C12 C11 1_555 1_555
C13 C12 1_555 1_555
C14 C13 1_555 1_555
H17 C14 1_555 1_555
C15 C14 1_555 1_555
C16 C15 1_555 1_555
H18 C16 1_555 1_555
C17 C16 1_555 1_555
C18 C13 1_555 1_555
H19 C18 1_555 1_555
C19 C15 1_555 1_555
H20 C19 1_555 1_555
H21 C19 1_555 1_555
H22 C19 1_555 1_555
C20 C17 1_555 1_555
H23 C20 1_555 1_555
H24 C20 1_555 1_555
H25 C20 1_555 1_555
C21 C12 1_555 1_555
C22 C21 1_555 1_555
C23 C22 1_555 1_555
H26 C23 1_555 1_555
C24 C23 1_555 1_555
C25 C24 1_555 1_555
H27 C25 1_555 1_555
C26 C25 1_555 1_555
C27 C22 1_555 1_555
H28 C27 1_555 1_555
C28 C24 1_555 1_555
H29 C28 1_555 1_555
H30 C28 1_555 1_555
H31 C28 1_555 1_555
C29 C26 1_555 1_555
H32 C29 1_555 1_555
H33 C29 1_555 1_555
H34 C29 1_555 1_555
C30 C21 1_555 1_555
C31 C30 1_555 1_555
C32 C31 1_555 1_555
H35 C32 1_555 1_555
C33 C32 1_555 1_555
C34 C33 1_555 1_555
H36 C34 1_555 1_555
C35 C34 1_555 1_555
C36 C31 1_555 1_555
H37 C36 1_555 1_555
C37 C35 1_555 1_555
H38 C37 1_555 1_555
H39 C37 1_555 1_555
H40 C37 1_555 1_555
C38 C33 1_555 1_555
H41 C38 1_555 1_555
H42 C38 1_555 1_555
H43 C38 1_555 1_555
C39 C30 1_555 1_555
C40 C39 1_555 1_555
C41 C40 1_555 1_555
H44 C41 1_555 1_555
C42 C40 1_555 1_555
H45 C42 1_555 1_555
C43 C42 1_555 1_555
C44 C43 1_555 1_555
H46 C44 1_555 1_555
C45 C41 1_555 1_555
C46 C45 1_555 1_555
H47 C46 1_555 1_555
H48 C46 1_555 1_555
H49 C46 1_555 1_555
C47 C43 1_555 1_555
H50 C47 1_555 1_555
H51 C47 1_555 1_555
H52 C47 1_555 1_555
C48 C39 1_555 1_555
C49 C48 1_555 1_555
C50 C49 1_555 1_555
H53 C50 1_555 1_555
C51 C50 1_555 1_555
C52 C51 1_555 1_555
H54 C52 1_555 1_555
C53 C52 1_555 1_555
C54 C49 1_555 1_555
H55 C54 1_555 1_555
C55 C53 1_555 1_555
H56 C55 1_555 1_555
H57 C55 1_555 1_555
H58 C55 1_555 1_555
C56 C51 1_555 1_555
H59 C56 1_555 1_555
H60 C56 1_555 1_555
H61 C56 1_555 1_555
C57 C48 1_555 1_555
C58 C57 1_555 1_555
H62 C58 1_555 1_555
C59 C58 1_555 1_555
C60 C59 1_555 1_555
H63 C60 1_555 1_555
C61 C60 1_555 1_555
C62 C61 1_555 1_555
H64 C62 1_555 1_555
H65 C62 1_555 1_555
H66 C62 1_555 1_555
C63 C61 1_555 1_555
H67 C63 1_555 1_555
C64 C63 1_555 1_555
C65 C59 1_555 1_555
H68 C65 1_555 1_555
C66 C64 1_555 1_555
H69 C66 1_555 1_555
H70 C66 1_555 1_555
H71 C66 1_555 1_555
C67 C57 1_555 1_555
C68 C67 1_555 1_555
H72 C68 1_555 1_555
C69 C68 1_555 1_555
C70 C69 1_555 1_555
H73 C70 1_555 1_555
C71 C70 1_555 1_555
C72 C67 1_555 1_555
H74 C72 1_555 1_555
C73 C71 1_555 1_555
H75 C73 1_555 1_555
H76 C73 1_555 1_555
H77 C73 1_555 1_555
C74 C69 1_555 1_555
H78 C74 1_555 1_555
H79 C74 1_555 1_555
H80 C74 1_555 1_555
C7 C8 1_555 1_555
C17 C18 1_555 1_555
C26 C27 1_555 1_555
C35 C36 1_555 1_555
C44 C45 1_555 1_555
C53 C54 1_555 1_555
C64 C65 1_555 1_555
C71 C72 1_555 1_555

#END
