
#######################################################################
#
#                 Cambridge Crystallographic Data Centre
#                                CCDC 
#
#######################################################################
#
# If this CIF has been generated from an entry in the Cambridge 
# Structural Database, then it will include bibliographic, chemical, 
# crystal, experimental, refinement or atomic coordinate data resulting 
# from the CCDC's data processing and validation procedures.
#
#######################################################################

data_TOTBIP
_chemical_formula_moiety         'C20 H9 Cl3 F5 N3 O3'
_chemical_name_systematic        
N-((3,5-dichloro-4-((3-chloro-5-(trifluoromethyl)pyridin-2-yl)oxy)phenyl)carbamoyl)-2,6-difluorobenzamide
_symmetry_cell_setting           triclinic
_symmetry_space_group_name_H-M   'P -1'
_symmetry_Int_Tables_number      2
_space_group_name_Hall           '-P 1'
loop_
_symmetry_equiv_pos_site_id
_symmetry_equiv_pos_as_xyz
1 x,y,z
2 -x,-y,-z
_cell_length_a                   8.5805(3)
_cell_length_b                   10.1281(4)
_cell_length_c                   12.5883(4)
_cell_angle_alpha                79.498(2)
_cell_angle_beta                 82.930(2)
_cell_angle_gamma                83.485(2)
_cell_volume                     1062.82
_exptl_crystal_colour            colorless
_exptl_crystal_description       plate
_cell_formula_units_Z            2
loop_
_atom_site_label
_atom_site_type_symbol
_atom_site_fract_x
_atom_site_fract_y
_atom_site_fract_z
Cl1 Cl 0.51049(7) 0.65788(5) 0.51055(4)
Cl2 Cl 0.82607(7) 1.05194(6) 0.59008(4)
Cl3 Cl 0.64381(7) 0.71391(8) 0.88086(5)
F1 F 1.05653(18) 1.14118(18) -0.13423(14)
F2 F 0.54499(16) 1.35343(16) -0.10772(12)
F3 F 1.33225(17) 0.60959(17) 0.78423(15)
F4 F 1.28741(18) 0.43892(17) 0.72279(14)
F5 F 1.2067(2) 0.4572(2) 0.88756(14)
O1 O 0.86100(19) 1.20897(17) 0.06450(12)
O2 O 0.51802(19) 0.94182(16) 0.13689(12)
O3 O 0.66744(16) 0.79859(14) 0.64590(11)
N1 N 0.6634(2) 1.09625(17) 0.02702(13)
H1 H 0.6120 1.0859 -0.0268
N2 N 0.6858(2) 1.04878(17) 0.21206(13)
H2 H 0.7469 1.1153 0.1963
N3 N 0.9237(2) 0.70890(17) 0.60728(14)
C1 C 0.9398(3) 1.2235(2) -0.1811(2)
C2 C 0.9644(3) 1.2813(3) -0.2889(2)
H3 H 1.0617 1.2633 -0.3309
C3 C 0.8436(3) 1.3662(3) -0.33402(18)
H4 H 0.8589 1.4080 -0.4080
C4 C 0.7021(3) 1.3915(2) -0.27473(18)
H5 H 0.6197 1.4502 -0.3066
C5 C 0.6822(3) 1.3296(2) -0.16762(18)
C6 C 0.7993(2) 1.2441(2) -0.11733(16)
C7 C 0.7787(2) 1.1828(2) 0.00044(16)
C8 C 0.6163(2) 1.0217(2) 0.12916(16)
C9 C 0.6721(2) 0.98326(19) 0.32049(15)
C10 C 0.5976(2) 0.86569(19) 0.35643(16)
H6 H 0.5464 0.8274 0.3081
C11 C 0.5998(2) 0.80569(19) 0.46473(16)
C12 C 0.6729(2) 0.85890(19) 0.53728(15)
C13 C 0.7419(2) 0.9786(2) 0.50062(16)
C14 C 0.7433(2) 1.0399(2) 0.39305(16)
H7 H 0.7929 1.1208 0.3685
C15 C 0.8040(2) 0.73051(19) 0.67978(16)
C16 C 0.8070(2) 0.6866(2) 0.79131(16)
C17 C 0.9430(2) 0.6189(2) 0.82825(17)
H8 H 0.9492 0.5881 0.9037
C18 C 1.0710(2) 0.5965(2) 0.75305(17)
C19 C 1.0565(3) 0.6423(2) 0.64440(17)
H9 H 1.1445 0.6262 0.5932
C20 C 1.2233(3) 0.5247(2) 0.78821(19)
loop_
_geom_bond_atom_site_label_1
_geom_bond_atom_site_label_2
_geom_bond_site_symmetry_1
_geom_bond_site_symmetry_2
Cl1 C11 1_555 1_555
Cl2 C13 1_555 1_555
Cl3 C16 1_555 1_555
F1 C1 1_555 1_555
F2 C5 1_555 1_555
F3 C20 1_555 1_555
F4 C20 1_555 1_555
F5 C20 1_555 1_555
O1 C7 1_555 1_555
O2 C8 1_555 1_555
O3 C12 1_555 1_555
N1 H1 1_555 1_555
N2 H2 1_555 1_555
N3 C15 1_555 1_555
C1 C2 1_555 1_555
C2 H3 1_555 1_555
C3 C2 1_555 1_555
H4 C3 1_555 1_555
C4 C3 1_555 1_555
H5 C4 1_555 1_555
C5 C4 1_555 1_555
C6 C1 1_555 1_555
C7 N1 1_555 1_555
C8 N1 1_555 1_555
C9 N2 1_555 1_555
C10 C9 1_555 1_555
H6 C10 1_555 1_555
C11 C10 1_555 1_555
C12 C11 1_555 1_555
C13 C12 1_555 1_555
C14 C9 1_555 1_555
H7 C14 1_555 1_555
C15 O3 1_555 1_555
C16 C15 1_555 1_555
C17 C16 1_555 1_555
H8 C17 1_555 1_555
C18 C17 1_555 1_555
C19 N3 1_555 1_555
H9 C19 1_555 1_555
C20 C18 1_555 1_555
N2 C8 1_555 1_555
C5 C6 1_555 1_555
C6 C7 1_555 1_555
C13 C14 1_555 1_555
C18 C19 1_555 1_555

#END
