
#######################################################################
#
#                 Cambridge Crystallographic Data Centre
#                                CCDC 
#
#######################################################################
#
# If this CIF has been generated from an entry in the Cambridge 
# Structural Database, then it will include bibliographic, chemical, 
# crystal, experimental, refinement or atomic coordinate data resulting 
# from the CCDC's data processing and validation procedures.
#
#######################################################################

data_TOTJIX
_chemical_name_common            
1,6-Dichloro-5,10-bis(8-oxyquinolinato)-5,10-dihydroboranthrene
_chemical_formula_moiety         'C30 H18 B2 Cl2 N2 O2'
_chemical_name_systematic        
1',6'-dichloro-2,10''-dihydrodispiro[1,3,2-oxazaborolo[5,4,3-ij]quinoline-2,5'-boranthrene-10',2''-[1,3,2]oxazaborolo[5,4,3-ij]quinoline]
_symmetry_cell_setting           monoclinic
_symmetry_space_group_name_H-M   'P 21/c'
_symmetry_Int_Tables_number      14
_space_group_name_Hall           '-P 2ybc'
loop_
_symmetry_equiv_pos_site_id
_symmetry_equiv_pos_as_xyz
1 x,y,z
2 -x,1/2+y,1/2-z
3 -x,-y,-z
4 x,1/2-y,1/2+z
_cell_length_a                   9.9401(3)
_cell_length_b                   12.5613(5)
_cell_length_c                   19.6590(8)
_cell_angle_alpha                90
_cell_angle_beta                 91.600(3)
_cell_angle_gamma                90
_cell_volume                     2453.68
_exptl_crystal_colour            yellow
_exptl_crystal_description       cubic
_chemical_melting_point          '392.6 K'
_cell_formula_units_Z            4
_exptl_crystal_recrystallization_method acetone
_exptl_crystal_preparation       Luminescent
loop_
_atom_site_label
_atom_site_type_symbol
_atom_site_fract_x
_atom_site_fract_y
_atom_site_fract_z
C1 C 0.14332(17) 0.13775(14) 0.33704(9)
C2 C 0.22619(18) 0.05679(15) 0.31043(9)
C3 C 0.1669(2) -0.00785(17) 0.25950(10)
C4 C 0.0390(2) 0.0099(2) 0.23094(10)
H1 H 0.0044 -0.0343 0.1954
C5 C -0.0363(2) 0.09315(19) 0.25545(11)
H2 H -0.1224 0.1083 0.2356
C6 C 0.01338(18) 0.15483(16) 0.30907(10)
H3 H -0.0413 0.2094 0.3272
C7 C 0.43808(17) 0.15404(15) 0.37424(9)
C8 C 0.35349(18) 0.22853(14) 0.40610(9)
C9 C 0.41773(19) 0.31130(15) 0.44149(10)
C10 C 0.5568(2) 0.32648(16) 0.44434(11)
H4 H 0.5953 0.3857 0.4677
C11 C 0.6373(2) 0.25327(17) 0.41232(11)
H5 H 0.7324 0.2612 0.4140
C12 C 0.57877(19) 0.16842(17) 0.37783(11)
H6 H 0.6349 0.1185 0.3560
C13 C 0.19164(18) 0.05385(14) 0.49940(9)
H7 H 0.2584 0.0118 0.4785
C14 C 0.13491(19) 0.02008(15) 0.56058(9)
H8 H 0.1633 -0.0453 0.5806
C15 C 0.0390(2) 0.08030(16) 0.59183(9)
H9 H 0.0017 0.0565 0.6331
C16 C -0.00405(19) 0.17787(15) 0.56239(9)
C17 C -0.0992(2) 0.25228(18) 0.58658(11)
H10 H -0.1452 0.2390 0.6274
C18 C -0.1236(2) 0.34390(18) 0.54996(12)
H11 H -0.1870 0.3929 0.5672
C19 C -0.06080(19) 0.37036(16) 0.48828(11)
H12 H -0.0813 0.4347 0.4648
C20 C 0.03126(18) 0.29873(14) 0.46372(10)
C21 C 0.05704(17) 0.20516(14) 0.50124(9)
C22 C 0.5094(2) 0.0609(2) 0.22048(11)
H13 H 0.4601 0.1215 0.2051
C23 C 0.6125(2) 0.0185(2) 0.18088(12)
H14 H 0.6306 0.0499 0.1381
C24 C 0.6863(2) -0.0665(2) 0.20272(12)
H15 H 0.7557 -0.0937 0.1754
C25 C 0.66008(19) -0.11458(18) 0.26630(11)
C26 C 0.7262(2) -0.20070(19) 0.29896(13)
H16 H 0.8003 -0.2344 0.2784
C27 C 0.6824(2) -0.23534(18) 0.36098(14)
H17 H 0.7288 -0.2930 0.3823
C28 C 0.5715(2) -0.19000(17) 0.39511(12)
H18 H 0.5434 -0.2174 0.4374
C29 C 0.5068(2) -0.10524(16) 0.36466(11)
C30 C 0.55308(19) -0.06926(16) 0.30132(10)
B1 B 0.1930(2) 0.20692(16) 0.40155(10)
B2 B 0.3789(2) 0.04723(18) 0.33831(11)
N1 N 0.15139(15) 0.14488(11) 0.47095(8)
N2 N 0.48164(16) 0.01547(14) 0.27940(8)
O1 O 0.10459(14) 0.30460(10) 0.40773(7)
O2 O 0.40195(14) -0.04776(11) 0.38552(7)
Cl1 Cl 0.25160(6) -0.12061(5) 0.22916(3)
Cl2 Cl 0.32508(5) 0.40478(4) 0.48783(3)
loop_
_geom_bond_atom_site_label_1
_geom_bond_atom_site_label_2
_geom_bond_site_symmetry_1
_geom_bond_site_symmetry_2
C1 C2 1_555 1_555
C2 C3 1_555 1_555
C3 C4 1_555 1_555
C4 H1 1_555 1_555
C5 C4 1_555 1_555
H2 C5 1_555 1_555
C6 C1 1_555 1_555
H3 C6 1_555 1_555
C7 C8 1_555 1_555
C8 C9 1_555 1_555
C9 C10 1_555 1_555
C10 H4 1_555 1_555
C11 C10 1_555 1_555
H5 C11 1_555 1_555
C12 C7 1_555 1_555
H6 C12 1_555 1_555
C13 H7 1_555 1_555
C14 C13 1_555 1_555
H8 C14 1_555 1_555
C15 C14 1_555 1_555
H9 C15 1_555 1_555
C16 C15 1_555 1_555
C17 C16 1_555 1_555
H10 C17 1_555 1_555
C18 C17 1_555 1_555
H11 C18 1_555 1_555
C19 C18 1_555 1_555
H12 C19 1_555 1_555
C20 C19 1_555 1_555
C21 C16 1_555 1_555
C22 H13 1_555 1_555
C23 C22 1_555 1_555
H14 C23 1_555 1_555
C24 C23 1_555 1_555
H15 C24 1_555 1_555
C25 C24 1_555 1_555
C26 C25 1_555 1_555
H16 C26 1_555 1_555
C27 C26 1_555 1_555
H17 C27 1_555 1_555
C28 C27 1_555 1_555
H18 C28 1_555 1_555
C29 C28 1_555 1_555
C30 C25 1_555 1_555
B1 C1 1_555 1_555
B2 C2 1_555 1_555
N1 C13 1_555 1_555
N2 C22 1_555 1_555
O1 C20 1_555 1_555
O2 C29 1_555 1_555
Cl1 C3 1_555 1_555
Cl2 C9 1_555 1_555
C5 C6 1_555 1_555
C7 B2 1_555 1_555
C8 B1 1_555 1_555
C11 C12 1_555 1_555
C20 C21 1_555 1_555
C21 N1 1_555 1_555
C29 C30 1_555 1_555
C30 N2 1_555 1_555
B1 N1 1_555 1_555
B1 O1 1_555 1_555
B2 N2 1_555 1_555
B2 O2 1_555 1_555

#END
