
#######################################################################
#
#                 Cambridge Crystallographic Data Centre
#                                CCDC 
#
#######################################################################
#
# If this CIF has been generated from an entry in the Cambridge 
# Structural Database, then it will include bibliographic, chemical, 
# crystal, experimental, refinement or atomic coordinate data resulting 
# from the CCDC's data processing and validation procedures.
#
#######################################################################

data_TOTSIG
_chemical_formula_moiety         'C28 H20 F2 O2'
_chemical_name_systematic        
2,3-bis(4-fluorophenyl)-1,4-diphenylbutane-1,4-dione
_symmetry_cell_setting           orthorhombic
_symmetry_space_group_name_H-M   'P b c n'
_symmetry_Int_Tables_number      60
_space_group_name_Hall           '-P 2n 2ab'
loop_
_symmetry_equiv_pos_site_id
_symmetry_equiv_pos_as_xyz
1 x,y,z
2 1/2-x,1/2-y,1/2+z
3 -x,y,1/2-z
4 1/2+x,1/2-y,-z
5 -x,-y,-z
6 1/2+x,1/2+y,1/2-z
7 x,-y,1/2+z
8 1/2-x,1/2+y,z
_cell_length_a                   21.531(5)
_cell_length_b                   10.435(3)
_cell_length_c                   10.161(2)
_cell_angle_alpha                90
_cell_angle_beta                 90
_cell_angle_gamma                90
_cell_volume                     2282.93
_cell_formula_units_Z            4
loop_
_atom_site_label
_atom_site_type_symbol
_atom_site_fract_x
_atom_site_fract_y
_atom_site_fract_z
O1 O 0.54411(8) -0.09759(15) 0.11866(17)
F1 F 0.64145(10) 0.52708(16) 0.06298(18)
C1 C 0.65762(11) -0.0151(3) 0.3657(3)
H1 H 0.6390 0.0569 0.4023
C2 C 0.71357(13) -0.0573(3) 0.4146(3)
H2 H 0.7326 -0.0144 0.4839
C3 C 0.74101(14) -0.1635(4) 0.3602(4)
H3 H 0.7785 -0.1932 0.3939
C4 C 0.71395(16) -0.2259(3) 0.2571(4)
H4 H 0.7335 -0.2963 0.2193
C5 C 0.65760(13) -0.1845(3) 0.2091(3)
H5 H 0.6388 -0.2284 0.1400
C6 C 0.62867(11) -0.0782(2) 0.2627(2)
C7 C 0.56724(11) -0.0391(2) 0.2098(2)
C8 C 0.53470(10) 0.07804(19) 0.2663(2)
H6 H 0.5394 0.0768 0.3622
C9 C 0.56548(10) 0.1980(2) 0.2136(2)
C10 C 0.57289(12) 0.2144(2) 0.0806(2)
H7 H 0.5604 0.1495 0.0237
C11 C 0.59829(14) 0.3243(3) 0.0295(3)
H8 H 0.6033 0.3341 -0.0609
C12 C 0.61578(14) 0.4175(3) 0.1132(3)
C13 C 0.60876(14) 0.4077(2) 0.2439(3)
H9 H 0.6206 0.4744 0.2992
C14 C 0.58345(12) 0.2962(2) 0.2950(2)
H10 H 0.5786 0.2878 0.3855
O1B O 0.45589(8) -0.09759(15) 0.38134(17)
F1B F 0.35855(10) 0.52708(16) 0.43702(18)
C1B C 0.34238(11) -0.0151(3) 0.1343(3)
H1B H 0.3610 0.0569 0.0977
C2B C 0.28643(13) -0.0573(3) 0.0854(3)
H2B H 0.2674 -0.0144 0.0161
C3B C 0.25899(14) -0.1635(4) 0.1398(4)
H3B H 0.2215 -0.1932 0.1061
C4B C 0.28605(16) -0.2259(3) 0.2429(4)
H4B H 0.2665 -0.2963 0.2807
C5B C 0.34240(13) -0.1845(3) 0.2909(3)
H5B H 0.3612 -0.2284 0.3600
C6B C 0.37133(11) -0.0782(2) 0.2373(2)
C7B C 0.43276(11) -0.0391(2) 0.2902(2)
C8B C 0.46530(10) 0.07804(19) 0.2337(2)
H6B H 0.4606 0.0768 0.1378
C9B C 0.43452(10) 0.1980(2) 0.2864(2)
C10B C 0.42711(12) 0.2144(2) 0.4194(2)
H7B H 0.4396 0.1495 0.4763
C11B C 0.40171(14) 0.3243(3) 0.4705(3)
H8B H 0.3967 0.3341 0.5609
C12B C 0.38422(14) 0.4175(3) 0.3868(3)
C13B C 0.39124(14) 0.4077(2) 0.2561(3)
H9B H 0.3794 0.4744 0.2008
C14B C 0.41655(12) 0.2962(2) 0.2050(2)
H10B H 0.4214 0.2878 0.1145
loop_
_geom_bond_atom_site_label_1
_geom_bond_atom_site_label_2
_geom_bond_site_symmetry_1
_geom_bond_site_symmetry_2
O1 C7 1_555 1_555
F1 C12 1_555 1_555
C1 H1 1_555 1_555
C2 C1 1_555 1_555
H2 C2 1_555 1_555
C3 C2 1_555 1_555
H3 C3 1_555 1_555
C4 C3 1_555 1_555
H4 C4 1_555 1_555
C5 C4 1_555 1_555
H5 C5 1_555 1_555
C6 C1 1_555 1_555
C7 C6 1_555 1_555
C8 C7 1_555 1_555
H6 C8 1_555 1_555
C9 C8 1_555 1_555
C10 C9 1_555 1_555
H7 C10 1_555 1_555
C11 C10 1_555 1_555
H8 C11 1_555 1_555
C12 C11 1_555 1_555
C13 C12 1_555 1_555
H9 C13 1_555 1_555
C14 C9 1_555 1_555
H10 C14 1_555 1_555
O1B C7B 1_555 1_555
F1B C12B 1_555 1_555
C1B H1B 1_555 1_555
C2B C1B 1_555 1_555
H2B C2B 1_555 1_555
C3B C2B 1_555 1_555
H3B C3B 1_555 1_555
C4B C3B 1_555 1_555
H4B C4B 1_555 1_555
C5B C4B 1_555 1_555
H5B C5B 1_555 1_555
C6B C1B 1_555 1_555
C7B C6B 1_555 1_555
C8B C8 1_555 1_555
H6B C8B 1_555 1_555
C9B C8B 1_555 1_555
C10B C9B 1_555 1_555
H7B C10B 1_555 1_555
C11B C10B 1_555 1_555
H8B C11B 1_555 1_555
C12B C11B 1_555 1_555
C13B C12B 1_555 1_555
H9B C13B 1_555 1_555
C14B C9B 1_555 1_555
H10B C14B 1_555 1_555
C5 C6 1_555 1_555
C13 C14 1_555 1_555
C5B C6B 1_555 1_555
C7B C8B 1_555 1_555
C13B C14B 1_555 1_555

#END
