
#######################################################################
#
#                 Cambridge Crystallographic Data Centre
#                                CCDC 
#
#######################################################################
#
# If this CIF has been generated from an entry in the Cambridge 
# Structural Database, then it will include bibliographic, chemical, 
# crystal, experimental, refinement or atomic coordinate data resulting 
# from the CCDC's data processing and validation procedures.
#
#######################################################################

data_TOTVAB
_chemical_formula_moiety         'C23 H26 F1 N4 O2 1+,C2 F3 O2 1-'
_chemical_name_systematic        
'N-(4-fluorobenzyl)-3-(5-(1H-indol-3-ylmethyl)-3,6-dioxopiperazin-2-yl)propan-1-aminium trifluoroacetate'
_symmetry_cell_setting           monoclinic
_symmetry_space_group_name_H-M   'P 21'
_symmetry_Int_Tables_number      4
_space_group_name_Hall           'P 2yb'
loop_
_symmetry_equiv_pos_site_id
_symmetry_equiv_pos_as_xyz
1 x,y,z
2 -x,1/2+y,-z
_cell_length_a                   6.1164(11)
_cell_length_b                   12.416(2)
_cell_length_c                   16.534(3)
_cell_angle_alpha                90
_cell_angle_beta                 92.449(4)
_cell_angle_gamma                90
_cell_volume                     1254.47
_exptl_crystal_colour            colorless
_exptl_crystal_description       prismatic
_cell_formula_units_Z            2
loop_
_atom_site_label
_atom_site_type_symbol
_atom_site_fract_x
_atom_site_fract_y
_atom_site_fract_z
F1 F 0.6504(11) -0.0072(5) -0.3587(3)
N1 N 1.3076(8) -0.1340(5) 0.4327(4)
N2 N 0.8687(6) 0.2153(4) 0.3960(2)
N3 N 1.2777(6) 0.2057(4) 0.3391(2)
N4 N 0.9365(7) 0.0216(4) 0.0110(2)
O1 O 1.4364(5) 0.2156(3) 0.46313(19)
O2 O 0.7098(5) 0.2130(3) 0.27228(19)
C1 C 1.1274(9) -0.1392(5) 0.3808(3)
C2 C 1.0785(12) -0.2089(5) 0.3180(4)
H1 H 1.1757 -0.2628 0.3042
C3 C 0.8831(13) -0.1964(6) 0.2766(4)
H2 H 0.8474 -0.2412 0.2329
C4 C 0.7355(11) -0.1171(6) 0.2990(4)
H3 H 0.6005 -0.1123 0.2711
C5 C 0.7833(9) -0.0467(5) 0.3603(3)
H4 H 0.6834 0.0063 0.3735
C6 C 0.9866(8) -0.0552(4) 0.4036(3)
C7 C 1.0944(8) 0.0024(5) 0.4682(3)
C8 C 1.2880(9) -0.0501(5) 0.4831(4)
H5 H 1.3924 -0.0304 0.5230
C9 C 1.0308(8) 0.1043(5) 0.5083(3)
H6 H 1.1223 0.1132 0.5572
H7 H 0.8807 0.0975 0.5243
C10 C 1.0496(7) 0.2065(4) 0.4562(3)
H8 H 1.0414 0.2688 0.4924
C11 C 1.2704(7) 0.2099(4) 0.4182(3)
C12 C 1.0958(6) 0.2007(4) 0.2786(2)
H9 H 1.1098 0.2634 0.2432
C13 C 0.8758(6) 0.2101(4) 0.3171(3)
C14 C 1.1176(7) 0.1006(4) 0.2255(3)
H10 H 1.2710 0.0898 0.2152
H11 H 1.0684 0.0383 0.2551
C15 C 0.9896(8) 0.1063(5) 0.1452(3)
H12 H 0.8353 0.1150 0.1549
H13 H 1.0370 0.1687 0.1152
C16 C 1.0215(8) 0.0067(4) 0.0959(3)
H14 H 1.1762 -0.0107 0.0961
H15 H 0.9461 -0.0531 0.1202
C17 C 0.9663(9) -0.0752(4) -0.0401(3)
H16 H 0.8920 -0.1359 -0.0166
H17 H 1.1209 -0.0925 -0.0409
C18 C 0.8776(8) -0.0580(4) -0.1255(3)
C19 C 0.6670(9) -0.0880(5) -0.1495(4)
H18 H 0.5767 -0.1202 -0.1126
C20 C 0.5900(10) -0.0700(6) -0.2288(4)
H19 H 0.4484 -0.0895 -0.2455
C21 C 0.7270(14) -0.0233(6) -0.2813(4)
C22 C 0.9346(12) 0.0053(5) -0.2606(4)
H20 H 1.0251 0.0353 -0.2983
C23 C 1.0074(9) -0.0110(5) -0.1825(3)
H21 H 1.1490 0.0100 -0.1669
H22 H 1.392(9) 0.212(4) 0.321(3)
H23 H 0.727(12) 0.219(6) 0.419(4)
H24 H 0.998(9) 0.087(5) -0.009(3)
H25 H 0.805(10) 0.038(5) 0.010(3)
H26 H 1.378(12) -0.182(6) 0.439(4)
F2 F 0.4370(13) 0.7078(7) 0.1572(4)
F3 F 0.5143(7) 0.8325(4) 0.0819(4)
F4 F 0.2485(7) 0.7318(5) 0.0555(6)
O3 O 0.5110(7) 0.5779(4) 0.0033(3)
O4 O 0.7924(6) 0.6788(3) 0.0456(3)
C24 C 0.5971(8) 0.6553(4) 0.0371(3)
C25 C 0.4487(9) 0.7343(5) 0.0790(5)
loop_
_geom_bond_atom_site_label_1
_geom_bond_atom_site_label_2
_geom_bond_site_symmetry_1
_geom_bond_site_symmetry_2
F1 C21 1_555 1_555
N1 C1 1_555 1_555
N2 C10 1_555 1_555
N3 C11 1_555 1_555
N4 C16 1_555 1_555
O1 C11 1_555 1_555
O2 C13 1_555 1_555
C1 C2 1_555 1_555
C2 H1 1_555 1_555
C3 C2 1_555 1_555
H2 C3 1_555 1_555
C4 C3 1_555 1_555
H3 C4 1_555 1_555
C5 C4 1_555 1_555
H4 C5 1_555 1_555
C6 C1 1_555 1_555
C7 C6 1_555 1_555
C8 N1 1_555 1_555
H5 C8 1_555 1_555
C9 C7 1_555 1_555
H6 C9 1_555 1_555
H7 C9 1_555 1_555
C10 C9 1_555 1_555
H8 C10 1_555 1_555
C11 C10 1_555 1_555
C12 N3 1_555 1_555
H9 C12 1_555 1_555
C13 N2 1_555 1_555
C14 C12 1_555 1_555
H10 C14 1_555 1_555
H11 C14 1_555 1_555
C15 C14 1_555 1_555
H12 C15 1_555 1_555
H13 C15 1_555 1_555
C16 C15 1_555 1_555
H14 C16 1_555 1_555
H15 C16 1_555 1_555
C17 N4 1_555 1_555
H16 C17 1_555 1_555
H17 C17 1_555 1_555
C18 C17 1_555 1_555
C19 C18 1_555 1_555
H18 C19 1_555 1_555
C20 C19 1_555 1_555
H19 C20 1_555 1_555
C21 C20 1_555 1_555
C22 C21 1_555 1_555
H20 C22 1_555 1_555
C23 C18 1_555 1_555
H21 C23 1_555 1_555
H22 N3 1_555 1_555
H23 N2 1_555 1_555
H24 N4 1_555 1_555
H25 N4 1_555 1_555
H26 N1 1_555 1_555
F2 C25 1_555 1_555
F3 C25 1_555 1_555
F4 C25 1_555 1_555
O3 C24 1_555 1_555
O4 C24 1_555 1_555
C24 C25 1_555 1_555
C5 C6 1_555 1_555
C7 C8 1_555 1_555
C12 C13 1_555 1_555
C22 C23 1_555 1_555

#END
