
#######################################################################
#
#                 Cambridge Crystallographic Data Centre
#                                CCDC 
#
#######################################################################
#
# If this CIF has been generated from an entry in the Cambridge 
# Structural Database, then it will include bibliographic, chemical, 
# crystal, experimental, refinement or atomic coordinate data resulting 
# from the CCDC's data processing and validation procedures.
#
#######################################################################

data_TOTYUY
_chemical_formula_moiety         'C73 H82 N6 O2,C1 H4 O1'
_chemical_name_systematic        
'5-Methyl-1-(4-(10,15,20-tris(3,5-di-t-butylphenyl)porphyrin-5-yl)phenyl)pyrimidine-2,4(1H,3H)-dione methanol solvate'
_symmetry_cell_setting           triclinic
_symmetry_space_group_name_H-M   'P -1'
_symmetry_Int_Tables_number      2
_space_group_name_Hall           '-P 1'
loop_
_symmetry_equiv_pos_site_id
_symmetry_equiv_pos_as_xyz
1 x,y,z
2 -x,-y,-z
_cell_length_a                   9.8270(6)
_cell_length_b                   16.9659(8)
_cell_length_c                   21.6298(13)
_cell_angle_alpha                69.273(5)
_cell_angle_beta                 81.505(5)
_cell_angle_gamma                87.976(5)
_cell_volume                     3335.24
_exptl_crystal_colour            violet
_exptl_crystal_description       block
_cell_formula_units_Z            2
loop_
_atom_site_label
_atom_site_type_symbol
_atom_site_fract_x
_atom_site_fract_y
_atom_site_fract_z
C1 C 0.5725(3) 0.73273(15) 0.47804(13)
C2 C 0.4643(3) 0.70351(16) 0.53329(13)
H1 H 0.4687 0.6569 0.5734
C3 C 0.3544(3) 0.75361(16) 0.51864(13)
H2 H 0.2671 0.7469 0.5457
C4 C 0.3933(3) 0.81885(16) 0.45477(13)
C5 C 0.3105(3) 0.88721(16) 0.42351(13)
C6 C 0.3573(3) 0.95712(16) 0.36592(13)
C7 C 0.2759(3) 1.03205(16) 0.34033(14)
H3 H 0.1829 1.0398 0.3563
C8 C 0.3588(3) 1.08856(16) 0.28932(14)
H4 H 0.3353 1.1441 0.2636
C9 C 0.4905(3) 1.04840(16) 0.28115(13)
C10 C 0.6016(3) 1.08383(16) 0.23074(13)
C11 C 0.7200(3) 1.04007(16) 0.21823(13)
C12 C 0.8216(3) 1.06727(18) 0.15962(14)
H5 H 0.8268 1.1210 0.1251
C13 C 0.9091(3) 1.00270(18) 0.16217(14)
H6 H 0.9842 1.0026 0.1291
C14 C 0.8677(3) 0.93481(16) 0.22381(13)
C15 C 0.9315(3) 0.85641(16) 0.24653(13)
C16 C 0.8943(3) 0.79219(16) 0.30875(13)
C17 C 0.9763(3) 0.71876(16) 0.33433(13)
H7 H 1.0572 0.7038 0.3113
C18 C 0.9167(3) 0.67526(16) 0.39725(13)
H8 H 0.9490 0.6247 0.4271
C19 C 0.7949(3) 0.71989(15) 0.41070(12)
C20 C 0.6990(3) 0.69371(15) 0.46964(12)
N1 N 0.5265(2) 0.80439(13) 0.43181(11)
H9 H 0.5746 0.8356 0.3938
N2 N 0.4855(2) 0.96855(13) 0.32917(11)
N3 N 0.7526(2) 0.95991(13) 0.25661(11)
H10 H 0.7075 0.9295 0.2957
N4 N 0.7835(2) 0.79077(13) 0.35551(10)
C21 C 0.5938(3) 1.17428(16) 0.18502(13)
C22 C 0.4888(3) 1.20017(17) 0.14512(14)
H11 H 0.4233 1.1599 0.1458
C23 C 0.4794(3) 1.28455(18) 0.10436(14)
C24 C 0.5796(3) 1.34124(17) 0.10388(14)
H12 H 0.5748 1.3986 0.0761
C25 C 0.6869(3) 1.31739(17) 0.14248(14)
C26 C 0.6915(3) 1.23260(16) 0.18311(13)
H13 H 0.7629 1.2145 0.2100
C27 C 0.3613(4) 1.3146(2) 0.06298(17)
C28 C 0.2834(5) 1.3867(3) 0.0838(3)
H14 H 0.3472 1.4341 0.0742
H15 H 0.2485 1.3647 0.1317
H16 H 0.2063 1.4059 0.0585
C29 C 0.4177(6) 1.3512(4) -0.0112(2)
H17 H 0.4621 1.3067 -0.0255
H18 H 0.4851 1.3961 -0.0189
H19 H 0.3420 1.3743 -0.0368
C30 C 0.2535(5) 1.2469(3) 0.0755(3)
H20 H 0.2152 1.2254 0.1230
H21 H 0.2959 1.2007 0.0627
H22 H 0.1797 1.2708 0.0488
C31 C 0.7909(3) 1.38398(18) 0.14079(15)
C32 C 0.7150(5) 1.4522(2) 0.1637(2)
H23 H 0.6718 1.4266 0.2103
H24 H 0.6441 1.4769 0.1354
H25 H 0.7808 1.4962 0.1600
C33 C 0.8665(4) 1.4266(2) 0.06984(16)
H26 H 0.7993 1.4503 0.0392
H27 H 0.9218 1.3849 0.0559
H28 H 0.9269 1.4718 0.0690
C34 C 0.8995(5) 1.3454(2) 0.18682(19)
H29 H 0.9501 1.3024 0.1726
H30 H 0.8539 1.3194 0.2329
H31 H 0.9638 1.3897 0.1843
C35 C 1.0503(3) 0.83927(16) 0.20093(13)
C36 C 1.1793(3) 0.87559(16) 0.19083(13)
H32 H 1.1933 0.9137 0.2127
C37 C 1.2901(3) 0.85782(17) 0.14918(13)
C38 C 1.2644(3) 0.80227(17) 0.11757(13)
H33 H 1.3380 0.7894 0.0890
C39 C 1.1353(3) 0.76451(17) 0.12594(13)
C40 C 1.0289(3) 0.78374(17) 0.16803(13)
H34 H 0.9403 0.7589 0.1746
C41 C 1.4312(3) 0.90042(19) 0.13867(16)
C42 C 1.4818(4) 0.8802(2) 0.20587(19)
H35 H 1.4915 0.8191 0.2265
H36 H 1.4153 0.9003 0.2352
H37 H 1.5712 0.9082 0.1991
C43 C 1.4163(4) 0.9965(2) 0.1067(2)
H38 H 1.3517 1.0166 0.1367
H39 H 1.3815 1.0097 0.0640
H40 H 1.5062 1.0242 0.0989
C44 C 1.5404(4) 0.8700(3) 0.0941(2)
H41 H 1.5151 0.8869 0.0491
H42 H 1.5458 0.8085 0.1130
H43 H 1.6300 0.8953 0.0918
C45 C 1.1144(4) 0.70547(19) 0.08777(15)
C46 C 1.1542(5) 0.7538(2) 0.01247(16)
H44 H 1.2506 0.7726 0.0034
H45 H 1.0952 0.8028 -0.0017
H46 H 1.1422 0.7166 -0.0123
C47 C 1.2095(4) 0.6287(2) 0.10992(19)
H47 H 1.1838 0.5972 0.1577
H48 H 1.3054 0.6484 0.1014
H49 H 1.1995 0.5919 0.0846
C48 C 0.9665(4) 0.6728(2) 0.10055(18)
H50 H 0.9050 0.7204 0.0856
H51 H 0.9401 0.6420 0.1484
H52 H 0.9594 0.6350 0.0758
C49 C 0.7362(3) 0.61997(16) 0.52786(12)
C50 C 0.8585(3) 0.62374(16) 0.55213(13)
H53 H 0.9169 0.6721 0.5309
C51 C 0.8979(3) 0.55792(16) 0.60730(13)
C52 C 0.8080(3) 0.48861(16) 0.63774(13)
H54 H 0.8323 0.4438 0.6753
C53 C 0.6832(3) 0.48221(15) 0.61528(13)
C54 C 0.6507(3) 0.54811(15) 0.55884(13)
H55 H 0.5693 0.5440 0.5412
C55 C 1.0362(3) 0.56436(16) 0.62986(14)
C56 C 1.0450(3) 0.64654(17) 0.64457(15)
H56 H 0.9735 0.6454 0.6816
H57 H 1.0314 0.6949 0.6047
H58 H 1.1357 0.6514 0.6567
C57 C 1.1524(3) 0.56522(18) 0.57338(15)
H59 H 1.1413 0.6133 0.5329
H60 H 1.1484 0.5128 0.5643
H61 H 1.2416 0.5701 0.5870
C58 C 1.0588(3) 0.49080(18) 0.69370(15)
H62 H 1.0565 0.4375 0.6857
H63 H 0.9860 0.4900 0.7301
H64 H 1.1485 0.4980 0.7059
C59 C 0.5884(3) 0.40384(16) 0.65061(14)
C60 C 0.4405(3) 0.4217(2) 0.63717(19)
H65 H 0.4375 0.4374 0.5892
H66 H 0.4058 0.4680 0.6518
H67 H 0.3832 0.3711 0.6618
C61 C 0.5896(4) 0.3727(2) 0.72604(15)
H68 H 0.5664 0.4192 0.7424
H69 H 0.6814 0.3523 0.7358
H70 H 0.5218 0.3267 0.7482
C62 C 0.6417(4) 0.33376(18) 0.62380(17)
H71 H 0.7363 0.3203 0.6327
H72 H 0.6397 0.3531 0.5755
H73 H 0.5829 0.2833 0.6461
C63 C 0.1635(3) 0.88537(16) 0.45513(13)
C64 C 0.0551(3) 0.88300(16) 0.42010(14)
H74 H 0.0756 0.8852 0.3752
C65 C -0.0809(3) 0.87750(17) 0.44947(14)
H75 H -0.1528 0.8777 0.4245
C66 C -0.1117(3) 0.87176(16) 0.51577(14)
C67 C -0.0062(3) 0.87642(16) 0.55078(14)
H76 H -0.0273 0.8747 0.5955
C68 C 0.1294(3) 0.88352(16) 0.52069(13)
H77 H 0.2004 0.8872 0.5450
N5 N -0.2508(2) 0.85657(13) 0.55029(11)
C69 C -0.3536(3) 0.91324(17) 0.52827(14)
N6 N -0.4798(2) 0.89363(14) 0.56711(11)
H78 H -0.5450 0.9305 0.5551
C70 C -0.5171(3) 0.82206(17) 0.62350(14)
C71 C -0.4047(3) 0.76472(17) 0.64314(14)
C72 C -0.2802(3) 0.78440(16) 0.60676(13)
H79 H -0.2074 0.7468 0.6203
O1 O -0.3318(2) 0.97666(11) 0.47771(10)
O2 O -0.6363(2) 0.81103(13) 0.65198(10)
C73 C -0.4346(4) 0.68436(19) 0.70293(15)
H80 H -0.4683 0.6983 0.7427
H81 H -0.3502 0.6519 0.7098
H82 H -0.5048 0.6508 0.6950
H83? H 0.5523 0.9319 0.3350
H84? H 0.7175 0.8280 0.3512
C74? C 0.3720(19) 1.2630(10) 0.0145(7)
H85? H 0.3435 1.2043 0.0401
H86? H 0.4673 1.2649 -0.0072
H87? H 0.3118 1.2878 -0.0196
C75? C 0.2247(14) 1.2976(14) 0.1135(11)
H88? H 0.2330 1.3215 0.1479
H89? H 0.2074 1.2367 0.1345
H90? H 0.1480 1.3238 0.0896
C76? C 0.375(2) 1.4107(8) 0.0240(9)
H91? H 0.4591 1.4229 -0.0086
H92? H 0.3794 1.4403 0.0553
H93? H 0.2950 1.4298 0.0006
loop_
_geom_bond_atom_site_label_1
_geom_bond_atom_site_label_2
_geom_bond_site_symmetry_1
_geom_bond_site_symmetry_2
C1 C2 1_555 1_555
C2 H1 1_555 1_555
C3 C2 1_555 1_555
H2 C3 1_555 1_555
C4 C3 1_555 1_555
C5 C4 1_555 1_555
C6 C5 1_555 1_555
C7 C6 1_555 1_555
H3 C7 1_555 1_555
C8 C7 1_555 1_555
H4 C8 1_555 1_555
C9 C8 1_555 1_555
C10 C9 1_555 1_555
C11 C10 1_555 1_555
C12 C11 1_555 1_555
H5 C12 1_555 1_555
C13 C12 1_555 1_555
H6 C13 1_555 1_555
C14 C13 1_555 1_555
C15 C14 1_555 1_555
C16 C15 1_555 1_555
C17 C16 1_555 1_555
H7 C17 1_555 1_555
C18 C17 1_555 1_555
H8 C18 1_555 1_555
C19 C18 1_555 1_555
C20 C1 1_555 1_555
N1 C1 1_555 1_555
H9 N1 1_555 1_555
N2 C6 1_555 1_555
N3 C11 1_555 1_555
H10 N3 1_555 1_555
N4 C16 1_555 1_555
C21 C10 1_555 1_555
C22 C21 1_555 1_555
H11 C22 1_555 1_555
C23 C22 1_555 1_555
C24 C23 1_555 1_555
H12 C24 1_555 1_555
C25 C24 1_555 1_555
C26 C21 1_555 1_555
H13 C26 1_555 1_555
C27 C23 1_555 1_555
C28 C27 1_555 1_555
H14 C28 1_555 1_555
H15 C28 1_555 1_555
H16 C28 1_555 1_555
C29 C27 1_555 1_555
H17 C29 1_555 1_555
H18 C29 1_555 1_555
H19 C29 1_555 1_555
C30 C27 1_555 1_555
H20 C30 1_555 1_555
H21 C30 1_555 1_555
H22 C30 1_555 1_555
C31 C25 1_555 1_555
C32 C31 1_555 1_555
H23 C32 1_555 1_555
H24 C32 1_555 1_555
H25 C32 1_555 1_555
C33 C31 1_555 1_555
H26 C33 1_555 1_555
H27 C33 1_555 1_555
H28 C33 1_555 1_555
C34 C31 1_555 1_555
H29 C34 1_555 1_555
H30 C34 1_555 1_555
H31 C34 1_555 1_555
C35 C15 1_555 1_555
C36 C35 1_555 1_555
H32 C36 1_555 1_555
C37 C36 1_555 1_555
C38 C37 1_555 1_555
H33 C38 1_555 1_555
C39 C38 1_555 1_555
C40 C35 1_555 1_555
H34 C40 1_555 1_555
C41 C37 1_555 1_555
C42 C41 1_555 1_555
H35 C42 1_555 1_555
H36 C42 1_555 1_555
H37 C42 1_555 1_555
C43 C41 1_555 1_555
H38 C43 1_555 1_555
H39 C43 1_555 1_555
H40 C43 1_555 1_555
C44 C41 1_555 1_555
H41 C44 1_555 1_555
H42 C44 1_555 1_555
H43 C44 1_555 1_555
C45 C39 1_555 1_555
C46 C45 1_555 1_555
H44 C46 1_555 1_555
H45 C46 1_555 1_555
H46 C46 1_555 1_555
C47 C45 1_555 1_555
H47 C47 1_555 1_555
H48 C47 1_555 1_555
H49 C47 1_555 1_555
C48 C45 1_555 1_555
H50 C48 1_555 1_555
H51 C48 1_555 1_555
H52 C48 1_555 1_555
C49 C20 1_555 1_555
C50 C49 1_555 1_555
H53 C50 1_555 1_555
C51 C50 1_555 1_555
C52 C51 1_555 1_555
H54 C52 1_555 1_555
C53 C52 1_555 1_555
C54 C49 1_555 1_555
H55 C54 1_555 1_555
C55 C51 1_555 1_555
C56 C55 1_555 1_555
H56 C56 1_555 1_555
H57 C56 1_555 1_555
H58 C56 1_555 1_555
C57 C55 1_555 1_555
H59 C57 1_555 1_555
H60 C57 1_555 1_555
H61 C57 1_555 1_555
C58 C55 1_555 1_555
H62 C58 1_555 1_555
H63 C58 1_555 1_555
H64 C58 1_555 1_555
C59 C53 1_555 1_555
C60 C59 1_555 1_555
H65 C60 1_555 1_555
H66 C60 1_555 1_555
H67 C60 1_555 1_555
C61 C59 1_555 1_555
H68 C61 1_555 1_555
H69 C61 1_555 1_555
H70 C61 1_555 1_555
C62 C59 1_555 1_555
H71 C62 1_555 1_555
H72 C62 1_555 1_555
H73 C62 1_555 1_555
C63 C5 1_555 1_555
C64 C63 1_555 1_555
H74 C64 1_555 1_555
C65 C64 1_555 1_555
H75 C65 1_555 1_555
C66 C65 1_555 1_555
C67 C66 1_555 1_555
H76 C67 1_555 1_555
C68 C63 1_555 1_555
H77 C68 1_555 1_555
N5 C66 1_555 1_555
C69 N5 1_555 1_555
N6 C69 1_555 1_555
H78 N6 1_555 1_555
C70 N6 1_555 1_555
C71 C70 1_555 1_555
C72 N5 1_555 1_555
H79 C72 1_555 1_555
O1 C69 1_555 1_555
O2 C70 1_555 1_555
C73 C71 1_555 1_555
H80 C73 1_555 1_555
H81 C73 1_555 1_555
H82 C73 1_555 1_555
C4 N1 1_555 1_555
C9 N2 1_555 1_555
C14 N3 1_555 1_555
C19 C20 1_555 1_555
C19 N4 1_555 1_555
C25 C26 1_555 1_555
C39 C40 1_555 1_555
C53 C54 1_555 1_555
C67 C68 1_555 1_555
C71 C72 1_555 1_555

#END
