
#######################################################################
#
#                 Cambridge Crystallographic Data Centre
#                                CCDC 
#
#######################################################################
#
# If this CIF has been generated from an entry in the Cambridge 
# Structural Database, then it will include bibliographic, chemical, 
# crystal, experimental, refinement or atomic coordinate data resulting 
# from the CCDC's data processing and validation procedures.
#
#######################################################################

data_TOVDUF
_chemical_formula_moiety         'C23 H30 N3 P1'
_chemical_name_systematic        
'N-(1,3-di-t-butyl-1,3-dihydro-2H-imidazol-2-ylidene)-P,P-diphenylphosphinous amide'
_symmetry_cell_setting           monoclinic
_symmetry_space_group_name_H-M   'P 21/c'
_symmetry_Int_Tables_number      14
_space_group_name_Hall           '-P 2ybc'
loop_
_symmetry_equiv_pos_site_id
_symmetry_equiv_pos_as_xyz
1 x,y,z
2 -x,1/2+y,1/2-z
3 -x,-y,-z
4 x,1/2-y,1/2+z
_cell_length_a                   10.9596(6)
_cell_length_b                   8.9559(7)
_cell_length_c                   22.2889(19)
_cell_angle_alpha                90
_cell_angle_beta                 94.846(6)
_cell_angle_gamma                90
_cell_volume                     2179.9
_exptl_crystal_colour            colorless
_exptl_crystal_description       needle
_cell_formula_units_Z            4
_chemical_properties_physical    Moisture-sensitive
loop_
_atom_site_label
_atom_site_type_symbol
_atom_site_fract_x
_atom_site_fract_y
_atom_site_fract_z
P1 P 0.29805(6) 0.25566(8) 0.85589(3)
N1 N 0.57685(17) 0.0612(2) 0.84644(9)
N2 N 0.48398(18) -0.1102(2) 0.89783(9)
N3 N 0.35711(18) 0.0871(3) 0.86228(9)
C1 C 0.4647(2) 0.0262(3) 0.86836(10)
C2 C 0.6038(2) -0.1562(3) 0.89294(13)
H1 H 0.6390 -0.2442 0.9084
C3 C 0.6592(2) -0.0528(3) 0.86236(13)
H2 H 0.7403 -0.0562 0.8531
C4 C 0.3914(2) -0.1937(3) 0.92981(11)
C5 C 0.2894(3) -0.2477(4) 0.88401(14)
H3 H 0.2503 -0.1633 0.8641
H4 H 0.2303 -0.3032 0.9043
H5 H 0.3236 -0.3106 0.8548
C6 C 0.3401(3) -0.0956(4) 0.97751(12)
H6 H 0.4059 -0.0611 1.0052
H7 H 0.2834 -0.1524 0.9989
H8 H 0.2986 -0.0115 0.9585
C7 C 0.4529(3) -0.3273(4) 0.96205(16)
H9 H 0.4803 -0.3957 0.9329
H10 H 0.3955 -0.3765 0.9856
H11 H 0.5218 -0.2937 0.9880
C8 C 0.6114(2) 0.2014(3) 0.81565(12)
C9 C 0.5233(3) 0.2305(4) 0.76034(13)
H12 H 0.5159 0.1419 0.7360
H13 H 0.5541 0.3107 0.7373
H14 H 0.4445 0.2572 0.7728
C10 C 0.6140(3) 0.3299(4) 0.86034(14)
H15 H 0.5354 0.3387 0.8761
H16 H 0.6327 0.4211 0.8404
H17 H 0.6754 0.3112 0.8927
C11 C 0.7392(3) 0.1828(4) 0.79388(15)
H18 H 0.7985 0.1746 0.8280
H19 H 0.7581 0.2680 0.7702
H20 H 0.7413 0.0942 0.7698
C12 C 0.1959(2) 0.2371(3) 0.78614(12)
C13 C 0.2077(3) 0.1255(4) 0.74467(13)
H21 H 0.2660 0.0512 0.7528
C14 C 0.1342(3) 0.1218(5) 0.69089(15)
H22 H 0.1432 0.0458 0.6632
C15 C 0.0478(3) 0.2317(6) 0.67886(17)
H23 H -0.0011 0.2306 0.6427
C16 C 0.0336(3) 0.3415(5) 0.71941(19)
H24 H -0.0262 0.4140 0.7113
C17 C 0.1077(3) 0.3463(4) 0.77290(15)
H25 H 0.0983 0.4233 0.8002
C18 C 0.1927(3) 0.3391(4) 0.95896(16)
H26 H 0.2593 0.4036 0.9635
C19 C 0.1782(2) 0.2473(3) 0.91019(12)
C20 C 0.0787(3) 0.1546(4) 0.90462(15)
H27 H 0.0676 0.0919 0.8713
C21 C -0.0048(3) 0.1520(6) 0.94701(17)
H28 H -0.0711 0.0870 0.9426
C22 C 0.0090(4) 0.2436(6) 0.99510(19)
H29 H -0.0490 0.2430 1.0232
C23 C 0.1065(5) 0.3364(6) 1.00279(19)
H30 H 0.1167 0.3977 1.0365
loop_
_geom_bond_atom_site_label_1
_geom_bond_atom_site_label_2
_geom_bond_site_symmetry_1
_geom_bond_site_symmetry_2
P1 N3 1_555 1_555
N1 C1 1_555 1_555
N2 C1 1_555 1_555
N3 C1 1_555 1_555
C2 N2 1_555 1_555
H1 C2 1_555 1_555
C3 N1 1_555 1_555
H2 C3 1_555 1_555
C4 N2 1_555 1_555
C5 C4 1_555 1_555
H3 C5 1_555 1_555
H4 C5 1_555 1_555
H5 C5 1_555 1_555
C6 C4 1_555 1_555
H6 C6 1_555 1_555
H7 C6 1_555 1_555
H8 C6 1_555 1_555
C7 C4 1_555 1_555
H9 C7 1_555 1_555
H10 C7 1_555 1_555
H11 C7 1_555 1_555
C8 N1 1_555 1_555
C9 C8 1_555 1_555
H12 C9 1_555 1_555
H13 C9 1_555 1_555
H14 C9 1_555 1_555
C10 C8 1_555 1_555
H15 C10 1_555 1_555
H16 C10 1_555 1_555
H17 C10 1_555 1_555
C11 C8 1_555 1_555
H18 C11 1_555 1_555
H19 C11 1_555 1_555
H20 C11 1_555 1_555
C12 P1 1_555 1_555
C13 C12 1_555 1_555
H21 C13 1_555 1_555
C14 C13 1_555 1_555
H22 C14 1_555 1_555
C15 C14 1_555 1_555
H23 C15 1_555 1_555
C16 C15 1_555 1_555
H24 C16 1_555 1_555
C17 C12 1_555 1_555
H25 C17 1_555 1_555
C18 H26 1_555 1_555
C19 P1 1_555 1_555
C20 C19 1_555 1_555
H27 C20 1_555 1_555
C21 C20 1_555 1_555
H28 C21 1_555 1_555
C22 C21 1_555 1_555
H29 C22 1_555 1_555
C23 C18 1_555 1_555
H30 C23 1_555 1_555
C2 C3 1_555 1_555
C16 C17 1_555 1_555
C18 C19 1_555 1_555
C22 C23 1_555 1_555

#END
