
#######################################################################
#
#                 Cambridge Crystallographic Data Centre
#                                CCDC 
#
#######################################################################
#
# If this CIF has been generated from an entry in the Cambridge 
# Structural Database, then it will include bibliographic, chemical, 
# crystal, experimental, refinement or atomic coordinate data resulting 
# from the CCDC's data processing and validation procedures.
#
#######################################################################

data_TOVFIV
_chemical_formula_moiety         'C42 H30'
_chemical_name_systematic        9,10-bis(2,2-diphenylvinyl)anthracene
_symmetry_cell_setting           triclinic
_symmetry_space_group_name_H-M   'P -1'
_symmetry_Int_Tables_number      2
_space_group_name_Hall           '-P 1'
loop_
_symmetry_equiv_pos_site_id
_symmetry_equiv_pos_as_xyz
1 x,y,z
2 -x,-y,-z
_cell_length_a                   10.381(2)
_cell_length_b                   11.290(2)
_cell_length_c                   14.078(3)
_cell_angle_alpha                68.76(3)
_cell_angle_beta                 80.19(3)
_cell_angle_gamma                71.01(3)
_cell_volume                     1451.6
_exptl_crystal_colour            yellow
_exptl_crystal_description       block
_cell_formula_units_Z            2
loop_
_atom_site_label
_atom_site_type_symbol
_atom_site_fract_x
_atom_site_fract_y
_atom_site_fract_z
C1 C 0.1430(3) 0.9712(3) 0.50245(19)
C2 C 0.0917(3) 0.9227(3) 0.44255(19)
C3 C 0.0508(3) 1.0491(3) 0.56003(19)
C4 C 0.1811(3) 0.8394(3) 0.3826(2)
H1 H 0.1768 0.7526 0.4033
C5 C 0.2855(3) 0.9414(3) 0.5122(2)
H2 H 0.3474 0.8892 0.4769
C6 C 0.2668(3) 0.8736(3) 0.3027(2)
C7 C 0.2872(3) 1.0078(3) 0.26015(19)
C8 C 0.1061(3) 1.0951(3) 0.6205(2)
H3 H 0.0472 1.1470 0.6574
C9 C 0.3331(3) 0.9876(3) 0.5717(2)
H4 H 0.4266 0.9669 0.5763
C10 C 0.2428(3) 1.0657(3) 0.6263(2)
H5 H 0.2764 1.0974 0.6664
C11 C 0.3430(3) 0.7809(3) 0.2454(2)
C12 C 0.4169(3) 1.0212(3) 0.2528(2)
H6 H 0.4896 0.9466 0.2778
C13 C 0.3717(3) 0.8308(4) 0.1412(2)
H7 H 0.3464 0.9221 0.1084
C14 C 0.2068(4) 1.2428(4) 0.1763(3)
H8 H 0.1354 1.3178 0.1495
C15 C 0.4395(4) 1.1443(4) 0.2086(3)
H9 H 0.5268 1.1519 0.2053
C16 C 0.3836(3) 0.6445(3) 0.2919(3)
H10 H 0.3671 0.6077 0.3619
C17 C 0.3359(4) 1.2540(4) 0.1701(3)
H11 H 0.3520 1.3364 0.1397
C18 C 0.4370(4) 0.7476(5) 0.0853(3)
H12 H 0.4554 0.7830 0.0155
C19 C 0.4486(4) 0.5631(4) 0.2343(4)
H13 H 0.4751 0.4716 0.2662
C20 C 0.4745(4) 0.6139(5) 0.1322(4)
H14 H 0.5176 0.5576 0.0945
C21 C 0.1825(3) 1.1206(3) 0.2222(2)
H15 H 0.0941 1.1145 0.2275
C1A C -0.1430(3) 1.0288(3) 0.49755(19)
C2A C -0.0917(3) 1.0773(3) 0.55745(19)
C3A C -0.0508(3) 0.9509(3) 0.43997(19)
C4A C -0.1811(3) 1.1606(3) 0.6174(2)
H1A H -0.1768 1.2474 0.5967
C5A C -0.2855(3) 1.0586(3) 0.4878(2)
H2A H -0.3474 1.1108 0.5231
C6A C -0.2668(3) 1.1264(3) 0.6973(2)
C7A C -0.2872(3) 0.9922(3) 0.73985(19)
C8A C -0.1061(3) 0.9049(3) 0.3795(2)
H3A H -0.0472 0.8530 0.3426
C9A C -0.3331(3) 1.0124(3) 0.4283(2)
H4A H -0.4266 1.0331 0.4237
C10A C -0.2428(3) 0.9343(3) 0.3737(2)
H5A H -0.2764 0.9026 0.3336
C11A C -0.3430(3) 1.2191(3) 0.7546(2)
C12A C -0.4169(3) 0.9788(3) 0.7472(2)
H6A H -0.4896 1.0534 0.7222
C13A C -0.3717(3) 1.1692(4) 0.8588(2)
H7A H -0.3464 1.0779 0.8916
C14A C -0.2068(4) 0.7572(4) 0.8237(3)
H8A H -0.1354 0.6822 0.8505
C15A C -0.4395(4) 0.8557(4) 0.7914(3)
H9A H -0.5268 0.8481 0.7947
C16A C -0.3836(3) 1.3555(3) 0.7081(3)
H10A H -0.3671 1.3923 0.6381
C17A C -0.3359(4) 0.7460(4) 0.8299(3)
H11A H -0.3520 0.6636 0.8603
C18A C -0.4370(4) 1.2524(5) 0.9147(3)
H12A H -0.4554 1.2170 0.9845
C19A C -0.4486(4) 1.4369(4) 0.7657(4)
H13A H -0.4751 1.5284 0.7338
C20A C -0.4745(4) 1.3861(5) 0.8678(4)
H14A H -0.5176 1.4424 0.9055
C21A C -0.1825(3) 0.8794(3) 0.7778(2)
H15A H -0.0941 0.8855 0.7725
C22 C 0.8830(3) 0.6293(3) 0.2104(2)
C23 C 0.8898(3) 0.4871(3) 0.2557(2)
C24 C 0.8498(3) 0.4250(3) 0.1926(2)
C25 C 0.9697(3) 0.4608(3) 0.4233(2)
C26 C 0.8574(3) 0.4768(3) 0.0872(2)
H16 H 0.8819 0.5549 0.0553
C27 C 0.7259(4) 0.5785(3) 0.4473(2)
H17 H 0.7032 0.5521 0.3985
C28 C 0.7642(3) 0.7240(3) 0.1705(2)
H18 H 0.6859 0.6985 0.1757
C29 C 0.8292(3) 0.4141(3) 0.0286(3)
H19 H 0.8368 0.4497 -0.0422
C30 C 0.9377(3) 0.4129(3) 0.3477(2)
H20 H 0.9524 0.3219 0.3661
C31 C 0.8647(3) 0.5394(3) 0.4705(2)
C32 C 0.9983(3) 0.6705(3) 0.2016(2)
H21 H 1.0792 0.6091 0.2280
C33 C 0.7907(4) 0.3014(4) 0.0727(3)
H22 H 0.7720 0.2596 0.0328
C34 C 0.8073(3) 0.3111(3) 0.2365(2)
H23 H 0.7975 0.2753 0.3072
C35 C 0.9931(5) 0.8028(4) 0.1536(3)
H24 H 1.0707 0.8294 0.1483
C36 C 0.6261(4) 0.6530(3) 0.4943(3)
H25 H 0.5361 0.6777 0.4773
C37 C 0.7607(4) 0.8552(4) 0.1233(3)
H26 H 0.6800 0.9176 0.0976
C38 C 0.7796(4) 0.2505(4) 0.1763(3)
H27 H 0.7529 0.1734 0.2071
C39 C 0.8760(5) 0.8945(4) 0.1139(3)
H28 H 0.8738 0.9829 0.0807
C40 C 0.8956(3) 0.5796(3) 0.5474(2)
C41 C 0.7864(4) 0.6572(3) 0.5950(2)
H29 H 0.8049 0.6835 0.6454
C42 C 0.6572(4) 0.6934(3) 0.5689(3)
H30 H 0.5879 0.7456 0.6003
C22A C 1.1170(3) 0.3707(3) 0.7896(2)
C23A C 1.1102(3) 0.5129(3) 0.7443(2)
C24A C 1.1502(3) 0.5750(3) 0.8074(2)
C25A C 1.0303(3) 0.5392(3) 0.5767(2)
C26A C 1.1426(3) 0.5232(3) 0.9128(2)
H16A H 1.1181 0.4451 0.9447
C27A C 1.2741(4) 0.4215(3) 0.5527(2)
H17A H 1.2968 0.4479 0.6015
C28A C 1.2358(3) 0.2760(3) 0.8295(2)
H18A H 1.3141 0.3015 0.8243
C29A C 1.1708(3) 0.5859(3) 0.9714(3)
H19A H 1.1632 0.5503 1.0422
C30A C 1.0623(3) 0.5871(3) 0.6523(2)
H20A H 1.0476 0.6781 0.6339
C31A C 1.1353(3) 0.4606(3) 0.5295(2)
C32A C 1.0017(3) 0.3295(3) 0.7984(2)
H21A H 0.9208 0.3909 0.7720
C33A C 1.2093(4) 0.6986(4) 0.9273(3)
H22A H 1.2280 0.7404 0.9672
C34A C 1.1927(3) 0.6889(3) 0.7635(2)
H23A H 1.2025 0.7247 0.6928
C35A C 1.0069(5) 0.1972(4) 0.8464(3)
H24A H 0.9293 0.1706 0.8517
C36A C 1.3739(4) 0.3470(3) 0.5057(3)
H25A H 1.4639 0.3223 0.5227
C37A C 1.2393(4) 0.1448(4) 0.8767(3)
H26A H 1.3200 0.0824 0.9024
C38A C 1.2204(4) 0.7495(4) 0.8237(3)
H27A H 1.2471 0.8266 0.7929
C39A C 1.1240(5) 0.1055(4) 0.8861(3)
H28A H 1.1262 0.0171 0.9193
C40A C 1.1044(3) 0.4204(3) 0.4526(2)
C41A C 1.2136(4) 0.3428(3) 0.4050(2)
H29A H 1.1951 0.3165 0.3546
C42A C 1.3428(4) 0.3066(3) 0.4311(3)
H30A H 1.4121 0.2544 0.3997
loop_
_geom_bond_atom_site_label_1
_geom_bond_atom_site_label_2
_geom_bond_site_symmetry_1
_geom_bond_site_symmetry_2
C1 C2 1_555 1_555
C2 C4 1_555 1_555
C3 C1 1_555 1_555
C4 H1 1_555 1_555
C5 C1 1_555 1_555
H2 C5 1_555 1_555
C6 C4 1_555 1_555
C7 C6 1_555 1_555
C8 C3 1_555 1_555
H3 C8 1_555 1_555
C9 C5 1_555 1_555
H4 C9 1_555 1_555
C10 C8 1_555 1_555
H5 C10 1_555 1_555
C11 C6 1_555 1_555
C12 C7 1_555 1_555
H6 C12 1_555 1_555
C13 C11 1_555 1_555
H7 C13 1_555 1_555
C14 H8 1_555 1_555
C15 C12 1_555 1_555
H9 C15 1_555 1_555
C16 C11 1_555 1_555
H10 C16 1_555 1_555
C17 C14 1_555 1_555
H11 C17 1_555 1_555
C18 C13 1_555 1_555
H12 C18 1_555 1_555
C19 C16 1_555 1_555
H13 C19 1_555 1_555
C20 C18 1_555 1_555
H14 C20 1_555 1_555
C21 C7 1_555 1_555
H15 C21 1_555 1_555
C22 C23 1_555 1_555
C23 C24 1_555 1_555
C24 C26 1_555 1_555
C25 C30 1_555 1_555
C26 H16 1_555 1_555
C27 H17 1_555 1_555
C28 C22 1_555 1_555
H18 C28 1_555 1_555
C29 C26 1_555 1_555
H19 C29 1_555 1_555
C30 C23 1_555 1_555
H20 C30 1_555 1_555
C31 C25 1_555 1_555
C32 C22 1_555 1_555
H21 C32 1_555 1_555
C33 C29 1_555 1_555
H22 C33 1_555 1_555
C34 C24 1_555 1_555
H23 C34 1_555 1_555
C35 C32 1_555 1_555
H24 C35 1_555 1_555
C36 C27 1_555 1_555
H25 C36 1_555 1_555
C37 C28 1_555 1_555
H26 C37 1_555 1_555
C38 C33 1_555 1_555
H27 C38 1_555 1_555
C39 C35 1_555 1_555
H28 C39 1_555 1_555
C40 C31 1_555 1_555
C41 C40 1_555 1_555
H29 C41 1_555 1_555
C42 C36 1_555 1_555
H30 C42 1_555 1_555
C1A C2A 1_555 1_555
C2A C3 1_555 1_555
C3A C2 1_555 1_555
C4A C2A 1_555 1_555
H1A C4A 1_555 1_555
C5A C1A 1_555 1_555
H2A C5A 1_555 1_555
C6A C4A 1_555 1_555
C7A C6A 1_555 1_555
C8A C3A 1_555 1_555
H3A C8A 1_555 1_555
C9A C5A 1_555 1_555
H4A C9A 1_555 1_555
C10A C8A 1_555 1_555
H5A C10A 1_555 1_555
C11A C6A 1_555 1_555
C12A C7A 1_555 1_555
H6A C12A 1_555 1_555
C13A C11A 1_555 1_555
H7A C13A 1_555 1_555
C14A H8A 1_555 1_555
C15A C12A 1_555 1_555
H9A C15A 1_555 1_555
C16A C11A 1_555 1_555
H10A C16A 1_555 1_555
C17A C14A 1_555 1_555
H11A C17A 1_555 1_555
C18A C13A 1_555 1_555
H12A C18A 1_555 1_555
C19A C16A 1_555 1_555
H13A C19A 1_555 1_555
C20A C18A 1_555 1_555
H14A C20A 1_555 1_555
C21A C7A 1_555 1_555
H15A C21A 1_555 1_555
C22A C23A 1_555 1_555
C23A C24A 1_555 1_555
C24A C26A 1_555 1_555
C25A C40 1_555 1_555
C26A H16A 1_555 1_555
C27A H17A 1_555 1_555
C28A C22A 1_555 1_555
H18A C28A 1_555 1_555
C29A C26A 1_555 1_555
H19A C29A 1_555 1_555
C30A C23A 1_555 1_555
H20A C30A 1_555 1_555
C31A C25A 1_555 1_555
C32A C22A 1_555 1_555
H21A C32A 1_555 1_555
C33A C29A 1_555 1_555
H22A C33A 1_555 1_555
C34A C24A 1_555 1_555
H23A C34A 1_555 1_555
C35A C32A 1_555 1_555
H24A C35A 1_555 1_555
C36A C27A 1_555 1_555
H25A C36A 1_555 1_555
C37A C28A 1_555 1_555
H26A C37A 1_555 1_555
C38A C33A 1_555 1_555
H27A C38A 1_555 1_555
C39A C35A 1_555 1_555
H28A C39A 1_555 1_555
C40A C25 1_555 1_555
C41A C40A 1_555 1_555
H29A C41A 1_555 1_555
C42A C36A 1_555 1_555
H30A C42A 1_555 1_555
C9 C10 1_555 1_555
C14 C21 1_555 1_555
C15 C17 1_555 1_555
C19 C20 1_555 1_555
C27 C31 1_555 1_555
C34 C38 1_555 1_555
C37 C39 1_555 1_555
C41 C42 1_555 1_555
C1A C3A 1_555 1_555
C9A C10A 1_555 1_555
C14A C21A 1_555 1_555
C15A C17A 1_555 1_555
C19A C20A 1_555 1_555
C25A C30A 1_555 1_555
C27A C31A 1_555 1_555
C31A C40A 1_555 1_555
C34A C38A 1_555 1_555
C37A C39A 1_555 1_555
C41A C42A 1_555 1_555

#END
