
#######################################################################
#
#                 Cambridge Crystallographic Data Centre
#                                CCDC 
#
#######################################################################
#
# If this CIF has been generated from an entry in the Cambridge 
# Structural Database, then it will include bibliographic, chemical, 
# crystal, experimental, refinement or atomic coordinate data resulting 
# from the CCDC's data processing and validation procedures.
#
#######################################################################

data_TOVLEX
_chemical_compound_source        
'Chaetomium globosum 1C51 residing in Epinephelus drummondhayi guts'
_chemical_name_common            'chaetogline D methanol solvate'
_chemical_formula_moiety         'C22 H22 N2 O6,C1 H4 O1'
_chemical_name_systematic        
'methyl 3-(1-methyl-1H-indol-3-yl)-2-(4,5,6-trihydroxy-7-methyl-1-oxo-1,3-dihydro-2H-isoindol-2-yl)propanoate methanol solvate'
_symmetry_cell_setting           orthorhombic
_symmetry_space_group_name_H-M   'P 21 21 21'
_symmetry_Int_Tables_number      19
_space_group_name_Hall           'P 2ac 2ab'
loop_
_symmetry_equiv_pos_site_id
_symmetry_equiv_pos_as_xyz
1 x,y,z
2 1/2-x,-y,1/2+z
3 -x,1/2+y,1/2-z
4 1/2+x,1/2-y,-z
_cell_length_a                   8.3110(2)
_cell_length_b                   15.6574(4)
_cell_length_c                   16.9836(5)
_cell_angle_alpha                90
_cell_angle_beta                 90
_cell_angle_gamma                90
_cell_volume                     2210.05
_cell_formula_units_Z            4
loop_
_atom_site_label
_atom_site_type_symbol
_atom_site_fract_x
_atom_site_fract_y
_atom_site_fract_z
C1 C 0.0904(2) 0.43349(13) 0.82261(12)
C2 C 0.0703(2) 0.41336(13) 0.90246(13)
C3 C 0.2029(3) 0.39478(14) 0.95056(13)
C4 C 0.3597(2) 0.39466(14) 0.92258(13)
C5 C 0.3761(2) 0.41439(13) 0.84272(13)
C6 C 0.2467(2) 0.43388(13) 0.79436(12)
C7 C 0.3036(2) 0.45895(15) 0.71382(13)
H1 H 0.2609 0.4228 0.6749
H2 H 0.2762 0.5178 0.7018
N1 N 0.47808(17) 0.44934(10) 0.72195(9)
C8 C 0.5933(2) 0.47329(13) 0.66177(12)
H3 H 0.6978 0.4517 0.6795
C9 C 0.6128(2) 0.56929(14) 0.65219(13)
C10 C 0.5808(5) 0.70488(18) 0.7094(2)
H4 H 0.5412 0.7261 0.6600
H5 H 0.6934 0.7177 0.7140
H6 H 0.5234 0.7316 0.7518
C11 C 0.5591(3) 0.42952(14) 0.58236(12)
H7 H 0.4519 0.4449 0.5649
H8 H 0.6351 0.4503 0.5435
C12 C 0.4511(3) 0.27750(15) 0.57494(14)
H9 H 0.3451 0.2917 0.5633
C13 C 0.4109(4) 0.11838(19) 0.5754(2)
H10 H 0.3963 0.0934 0.6266
H11 H 0.4641 0.0782 0.5416
H12 H 0.3080 0.1329 0.5536
C14 C 0.6686(3) 0.19935(15) 0.59888(15)
C15 C 0.7799(4) 0.13321(16) 0.60965(17)
H13 H 0.7485 0.0763 0.6069
C16 C 0.9363(4) 0.15526(19) 0.6243(2)
H14 H 1.0126 0.1124 0.6311
C17 C 0.9839(4) 0.2406(2) 0.62927(18)
H15 H 1.0909 0.2536 0.6400
C18 C 0.8749(3) 0.30570(17) 0.61848(16)
H16 H 0.9082 0.3623 0.6215
C19 C 0.7137(3) 0.28631(14) 0.60299(14)
C20 C 0.5002(3) 0.3778(2) 0.97639(16)
H17 H 0.5145 0.3173 0.9824
H18 H 0.4798 0.4030 1.0269
H19 H 0.5958 0.4023 0.9542
C21 C 0.5237(3) 0.42373(16) 0.79549(15)
C22 C 0.5714(3) 0.33468(17) 0.58712(15)
N2 N 0.5090(3) 0.19544(13) 0.58240(12)
O1 O -0.03319(17) 0.45426(12) 0.77492(9)
H20 H -0.1184 0.4417 0.7964
O2 O -0.08098(18) 0.41450(12) 0.93247(9)
H21 H -0.0586 0.4015 0.9845
O3 O 0.1635(2) 0.38139(13) 1.02842(9)
H22 H 0.2130 0.3398 1.0451
O4 O 0.66314(19) 0.41113(14) 0.81518(10)
O5 O 0.6776(2) 0.60117(11) 0.59587(11)
O6 O 0.5575(3) 0.61325(11) 0.71302(11)
C23 C 0.3875(7) 0.2818(3) 0.1766(3)
H23 H 0.4952 0.2609 0.1698
H24 H 0.3417 0.2573 0.2234
H25 H 0.3897 0.3429 0.1815
O7 O 0.2958(4) 0.25936(14) 0.11244(14)
H26 H 0.2843 0.2074 0.1115
loop_
_geom_bond_atom_site_label_1
_geom_bond_atom_site_label_2
_geom_bond_site_symmetry_1
_geom_bond_site_symmetry_2
C1 C2 1_555 1_555
C2 C3 1_555 1_555
C3 C4 1_555 1_555
C4 C5 1_555 1_555
C5 C6 1_555 1_555
C6 C1 1_555 1_555
C7 C6 1_555 1_555
H1 C7 1_555 1_555
H2 C7 1_555 1_555
N1 C7 1_555 1_555
C8 N1 1_555 1_555
H3 C8 1_555 1_555
C9 C8 1_555 1_555
C10 H4 1_555 1_555
H5 C10 1_555 1_555
H6 C10 1_555 1_555
C11 C8 1_555 1_555
H7 C11 1_555 1_555
H8 C11 1_555 1_555
C12 H9 1_555 1_555
C13 H10 1_555 1_555
H11 C13 1_555 1_555
H12 C13 1_555 1_555
C14 C15 1_555 1_555
C15 H13 1_555 1_555
C16 C15 1_555 1_555
H14 C16 1_555 1_555
C17 C16 1_555 1_555
H15 C17 1_555 1_555
C18 C17 1_555 1_555
H16 C18 1_555 1_555
C19 C14 1_555 1_555
C20 C4 1_555 1_555
H17 C20 1_555 1_555
H18 C20 1_555 1_555
H19 C20 1_555 1_555
C21 C5 1_555 1_555
C22 C11 1_555 1_555
N2 C12 1_555 1_555
O1 C1 1_555 1_555
H20 O1 1_555 1_555
O2 C2 1_555 1_555
H21 O2 1_555 1_555
O3 C3 1_555 1_555
H22 O3 1_555 1_555
O4 C21 1_555 1_555
O5 C9 1_555 1_555
O6 C9 1_555 1_555
C23 H23 1_555 1_555
H24 C23 1_555 1_555
H25 C23 1_555 1_555
O7 C23 1_555 1_555
H26 O7 1_555 1_555
N1 C21 1_555 1_555
C10 O6 1_555 1_555
C12 C22 1_555 1_555
C13 N2 1_555 1_555
C14 N2 1_555 1_555
C18 C19 1_555 1_555
C19 C22 1_555 1_555

#END
