
#######################################################################
#
#                 Cambridge Crystallographic Data Centre
#                                CCDC 
#
#######################################################################
#
# If this CIF has been generated from an entry in the Cambridge 
# Structural Database, then it will include bibliographic, chemical, 
# crystal, experimental, refinement or atomic coordinate data resulting 
# from the CCDC's data processing and validation procedures.
#
#######################################################################

data_TOVNID
_chemical_formula_moiety         'C20 H24 O5'
_chemical_name_systematic        
5,11-dihydroxy-7,11-dimethyl-4-(prop-1-en-2-yl)-14-oxatricyclo[11.2.1.0^5,9^]hexadeca-1(16),7,9-triene-6,15-dione
_symmetry_cell_setting           monoclinic
_symmetry_space_group_name_H-M   'P 21/c'
_symmetry_Int_Tables_number      14
_space_group_name_Hall           '-P 2ybc'
loop_
_symmetry_equiv_pos_site_id
_symmetry_equiv_pos_as_xyz
1 x,y,z
2 -x,1/2+y,1/2-z
3 -x,-y,-z
4 x,1/2-y,1/2+z
_cell_length_a                   6.1326(7)
_cell_length_b                   8.7197(9)
_cell_length_c                   32.283(3)
_cell_angle_alpha                90
_cell_angle_beta                 94.632(2)
_cell_angle_gamma                90
_cell_volume                     1720.68
_exptl_crystal_colour            colorless
_exptl_crystal_description       blade-like
_cell_formula_units_Z            4
loop_
_atom_site_label
_atom_site_type_symbol
_atom_site_fract_x
_atom_site_fract_y
_atom_site_fract_z
O1 O -0.1894(2) -0.2792(1) 0.29901(5)
O2 O -0.2806(2) -0.0506(1) 0.27187(4)
O3 O -0.0738(2) 0.4051(1) 0.31483(4)
O4 O 0.2178(2) 0.1056(1) 0.48521(4)
O5 O -0.2213(2) 0.0653(1) 0.44093(4)
C1 C -0.1392(3) -0.1466(2) 0.29308(6)
C2 C 0.0643(3) -0.0643(2) 0.30610(6)
C3 C 0.0412(3) 0.0776(2) 0.29118(6)
C4 C -0.1763(3) 0.0982(2) 0.26741(6)
C5 C -0.3280(3) 0.2271(2) 0.28028(6)
C6 C -0.2660(3) 0.3152(2) 0.32080(6)
C7 C -0.2156(3) 0.2067(2) 0.35681(6)
C8 C -0.0604(3) 0.2141(2) 0.38832(6)
C9 C 0.1093(3) 0.3289(2) 0.39782(6)
C10 C 0.2407(3) 0.2944(2) 0.43191(6)
C11 C 0.1581(3) 0.1545(2) 0.45071(6)
C12 C -0.0257(3) 0.0873(2) 0.42096(6)
C13 C 0.0426(3) -0.0642(2) 0.39941(6)
C14 C 0.2537(3) -0.0463(2) 0.37703(6)
C15 C 0.2417(3) -0.1322(2) 0.33535(6)
C16 C -0.4553(3) 0.4189(2) 0.32971(6)
C17 C 0.4356(3) 0.3772(2) 0.45104(6)
C18 C 0.0424(4) -0.2042(2) 0.42754(6)
C19 C 0.2135(4) -0.2375(2) 0.45629(7)
C20 C -0.1501(4) -0.3008(2) 0.42287(7)
H1 H -0.1035 0.5061 0.3107
H2 H -0.1661 0.0155 0.4664
H3 H 0.1489 0.1557 0.2951
H4 H -0.1525 0.1120 0.2389
H5 H -0.3380 0.3002 0.2584
H6 H -0.4677 0.1825 0.2828
H7 H -0.3088 0.1198 0.3571
H8 H 0.1253 0.4185 0.3816
H9 H -0.0697 -0.0827 0.3780
H10 H 0.2770 0.0596 0.3720
H11 H 0.3730 -0.0857 0.3944
H12 H 0.2105 -0.2373 0.3399
H13 H 0.3780 -0.1235 0.3235
H14 H -0.5828 0.3587 0.3321
H15 H -0.4814 0.4903 0.3076
H16 H -0.4203 0.4726 0.3550
H17 H 0.4457 0.4748 0.4383
H18 H 0.5637 0.3195 0.4471
H19 H 0.4219 0.3901 0.4799
H20 H 0.3383 -0.1727 0.4589
H21 H 0.2068 -0.3253 0.4736
H22 H -0.1297 -0.3874 0.4406
H23 H -0.1729 -0.3342 0.3948
H24 H -0.2739 -0.2443 0.4301
loop_
_geom_bond_atom_site_label_1
_geom_bond_atom_site_label_2
_geom_bond_site_symmetry_1
_geom_bond_site_symmetry_2
O1 C1 1_555 1_555
O2 C1 1_555 1_555
O3 C6 1_555 1_555
O4 C11 1_555 1_555
O5 C12 1_555 1_555
C1 C2 1_555 1_555
C2 C3 1_555 1_555
C3 C4 1_555 1_555
C4 O2 1_555 1_555
C5 C4 1_555 1_555
C6 C5 1_555 1_555
C7 C6 1_555 1_555
C8 C7 1_555 1_555
C9 C8 1_555 1_555
C10 C9 1_555 1_555
C11 C10 1_555 1_555
C12 C8 1_555 1_555
C13 C12 1_555 1_555
C14 C13 1_555 1_555
C15 C2 1_555 1_555
C16 C6 1_555 1_555
C17 C10 1_555 1_555
C18 C13 1_555 1_555
C19 C18 1_555 1_555
C20 C18 1_555 1_555
H1 O3 1_555 1_555
H2 O5 1_555 1_555
H3 C3 1_555 1_555
H4 C4 1_555 1_555
H5 C5 1_555 1_555
H6 C5 1_555 1_555
H7 C7 1_555 1_555
H8 C9 1_555 1_555
H9 C13 1_555 1_555
H10 C14 1_555 1_555
H11 C14 1_555 1_555
H12 C15 1_555 1_555
H13 C15 1_555 1_555
H14 C16 1_555 1_555
H15 C16 1_555 1_555
H16 C16 1_555 1_555
H17 C17 1_555 1_555
H18 C17 1_555 1_555
H19 C17 1_555 1_555
H20 C19 1_555 1_555
H21 C19 1_555 1_555
H22 C20 1_555 1_555
H23 C20 1_555 1_555
H24 C20 1_555 1_555
C11 C12 1_555 1_555
C14 C15 1_555 1_555

#END
