
#######################################################################
#
#                 Cambridge Crystallographic Data Centre
#                                CCDC 
#
#######################################################################
#
# If this CIF has been generated from an entry in the Cambridge 
# Structural Database, then it will include bibliographic, chemical, 
# crystal, experimental, refinement or atomic coordinate data resulting 
# from the CCDC's data processing and validation procedures.
#
#######################################################################

data_TOVPIF
_chemical_formula_moiety         'C24 H22 N2 O2'
_chemical_name_systematic        
(4-anilino-2,3,3a,9a-tetrahydrochromeno[2,3-b]pyrrol-1(4H)-yl)(phenyl)methanone
_symmetry_cell_setting           rhombohedral
_symmetry_space_group_name_H-M   'R -3'
_symmetry_Int_Tables_number      148
_space_group_name_Hall           '-R 3'
loop_
_symmetry_equiv_pos_site_id
_symmetry_equiv_pos_as_xyz
1 x,y,z
2 -y,x-y,z
3 -x+y,-x,z
4 2/3+x,1/3+y,1/3+z
5 2/3-y,1/3+x-y,1/3+z
6 2/3-x+y,1/3-x,1/3+z
7 1/3+x,2/3+y,2/3+z
8 1/3-y,2/3+x-y,2/3+z
9 1/3-x+y,2/3-x,2/3+z
10 -x,-y,-z
11 y,-x+y,-z
12 x-y,x,-z
13 1/3-x,2/3-y,2/3-z
14 1/3+y,2/3-x+y,2/3-z
15 1/3+x-y,2/3+x,2/3-z
16 2/3-x,1/3-y,1/3-z
17 2/3+y,1/3-x+y,1/3-z
18 2/3+x-y,1/3+x,1/3-z
_cell_length_a                   19.782(3)
_cell_length_b                   19.782(3)
_cell_length_c                   26.588(5)
_cell_angle_alpha                90
_cell_angle_beta                 90
_cell_angle_gamma                120
_cell_volume                     9010.66
_exptl_crystal_colour            colorless
_exptl_crystal_description       block
_cell_formula_units_Z            18
loop_
_atom_site_label
_atom_site_type_symbol
_atom_site_fract_x
_atom_site_fract_y
_atom_site_fract_z
O1 O 0.58963(8) 0.76297(9) 0.00765(5)
O2 O 0.7512(6) 0.6950(5) -0.0472(2)
N1 N 0.65234(10) 0.84656(9) 0.13904(5)
H1 H 0.6701 0.8821 0.1146
N2 N 0.67797(10) 0.71922(9) 0.00632(6)
C1 C 0.71230(12) 0.85799(12) 0.17176(6)
C2 C 0.70702(15) 0.79971(14) 0.20422(7)
H2 H 0.6619 0.7492 0.2040
C3 C 0.76892(17) 0.81679(17) 0.23693(8)
H3 H 0.7649 0.7775 0.2593
C4 C 0.83534(17) 0.88889(18) 0.23764(9)
H4 H 0.8773 0.8988 0.2595
C5 C 0.84035(15) 0.94631(16) 0.20637(9)
H5 H 0.8858 0.9966 0.2069
C6 C 0.77945(13) 0.93151(14) 0.17396(7)
H6 H 0.7835 0.9722 0.1529
C7 C 0.48110(12) 0.78639(12) 0.11149(7)
H7 H 0.4790 0.7859 0.1472
C8 C 0.42777(14) 0.79704(15) 0.08470(8)
H8 H 0.3894 0.8039 0.1018
C9 C 0.43022(13) 0.79775(15) 0.03263(8)
H9 H 0.3936 0.8052 0.0139
C10 C 0.48573(12) 0.78768(13) 0.00804(7)
H10 H 0.4877 0.7886 -0.0277
C11 C 0.53876(11) 0.77623(11) 0.03552(7)
C12 C 0.53818(11) 0.77628(11) 0.08769(7)
C13 C 0.59889(11) 0.76941(11) 0.11780(7)
H11 H 0.5722 0.7322 0.1462
C14 C 0.64087(11) 0.73757(11) 0.08545(7)
H12 H 0.6918 0.7522 0.1019
C15 C 0.65783(11) 0.77087(11) 0.03228(6)
H13 H 0.7018 0.8261 0.0317
C16 C 0.59839(14) 0.64971(12) 0.07517(8)
H14 H 0.5998 0.6205 0.1050
H15 H 0.5433 0.6303 0.0656
C17 C 0.64459(14) 0.64236(12) 0.03145(8)
H16 H 0.6862 0.6327 0.0438
H17 H 0.6100 0.5996 0.0084
C18 C 0.72656(13) 0.73839(13) -0.03281(7)
C19 C 0.75666(12) 0.81656(12) -0.05701(7)
C20 C 0.83591(16) 0.86953(16) -0.05586(12)
H18 H 0.8700 0.8581 -0.0373
C21 C 0.86534(18) 0.93907(17) -0.08180(15)
H19 H 0.9195 0.9761 -0.0799
C22 C 0.81785(19) 0.95520(16) -0.11001(11)
H20 H 0.8392 1.0022 -0.1289
C23 C 0.73970(19) 0.90392(16) -0.11114(10)
H21 H 0.7062 0.9154 -0.1303
C24 C 0.70925(15) 0.83490(15) -0.08420(9)
H22 H 0.6546 0.7997 -0.0846
O3? O 0.7206(19) 0.6813(7) -0.0575(9)
loop_
_geom_bond_atom_site_label_1
_geom_bond_atom_site_label_2
_geom_bond_site_symmetry_1
_geom_bond_site_symmetry_2
O1 C11 1_555 1_555
O2 C18 1_555 1_555
N1 H1 1_555 1_555
N2 C15 1_555 1_555
C1 N1 1_555 1_555
C2 C1 1_555 1_555
H2 C2 1_555 1_555
C3 C2 1_555 1_555
H3 C3 1_555 1_555
C4 C3 1_555 1_555
H4 C4 1_555 1_555
C5 C4 1_555 1_555
H5 C5 1_555 1_555
C6 C1 1_555 1_555
H6 C6 1_555 1_555
C7 H7 1_555 1_555
C8 C7 1_555 1_555
H8 C8 1_555 1_555
C9 C8 1_555 1_555
H9 C9 1_555 1_555
C10 C9 1_555 1_555
H10 C10 1_555 1_555
C11 C10 1_555 1_555
C12 C7 1_555 1_555
C13 N1 1_555 1_555
H11 C13 1_555 1_555
C14 C13 1_555 1_555
H12 C14 1_555 1_555
C15 O1 1_555 1_555
H13 C15 1_555 1_555
C16 C14 1_555 1_555
H14 C16 1_555 1_555
H15 C16 1_555 1_555
C17 N2 1_555 1_555
H16 C17 1_555 1_555
H17 C17 1_555 1_555
C18 N2 1_555 1_555
C19 C18 1_555 1_555
C20 C19 1_555 1_555
H18 C20 1_555 1_555
C21 C20 1_555 1_555
H19 C21 1_555 1_555
C22 C21 1_555 1_555
H20 C22 1_555 1_555
C23 C22 1_555 1_555
H21 C23 1_555 1_555
C24 C19 1_555 1_555
H22 C24 1_555 1_555
C5 C6 1_555 1_555
C11 C12 1_555 1_555
C12 C13 1_555 1_555
C14 C15 1_555 1_555
C16 C17 1_555 1_555
C23 C24 1_555 1_555

#END
