
#######################################################################
#
#                 Cambridge Crystallographic Data Centre
#                                CCDC 
#
#######################################################################
#
# If this CIF has been generated from an entry in the Cambridge 
# Structural Database, then it will include bibliographic, chemical, 
# crystal, experimental, refinement or atomic coordinate data resulting 
# from the CCDC's data processing and validation procedures.
#
#######################################################################

data_TOWJOG
_chemical_compound_source        'Fungus Penicillium commune DFFSCS026'
_chemical_name_common            'Cyclopiamide I'
_chemical_formula_moiety         'C21 H24 N2 O7'
_chemical_name_systematic        
1,10a,10b-trihydroxy-1-(1-hydroxyethyl)-3,3,8-trimethyl-1,3a,4,10a,10b,10c-hexahydro-2H,3H-10-oxa-2a,8-diazacyclopenta[3,4]pentaleno[1,6-cd]acenaphthylene-2,9(8H)-dione
_symmetry_cell_setting           monoclinic
_symmetry_space_group_name_H-M   'P 21'
_symmetry_Int_Tables_number      4
_space_group_name_Hall           'P 2yb'
loop_
_symmetry_equiv_pos_site_id
_symmetry_equiv_pos_as_xyz
1 x,y,z
2 -x,1/2+y,-z
_cell_length_a                   6.14846(11)
_cell_length_b                   14.3900(3)
_cell_length_c                   10.8162(2)
_cell_angle_alpha                90
_cell_angle_beta                 98.0521(17)
_cell_angle_gamma                90
_cell_volume                     947.543
_exptl_crystal_colour            yellow
_exptl_crystal_description       block
_cell_formula_units_Z            2
_exptl_crystal_recrystallization_method methanol
loop_
_atom_site_label
_atom_site_type_symbol
_atom_site_fract_x
_atom_site_fract_y
_atom_site_fract_z
N1 N 1.1802(2) 0.51896(11) 0.79198(13)
C1 C 1.2277(3) 0.53198(13) 0.67405(15)
C2 C 1.0414(3) 0.48642(12) 0.58230(14)
C3 C 1.1074(2) 0.41651(11) 0.48747(14)
H1 H 1.2539 0.3882 0.5173
C4 C 1.1147(2) 0.47563(11) 0.36980(14)
C5 C 1.0335(2) 0.57420(12) 0.39940(15)
C6 C 0.8590(3) 0.60010(12) 0.28852(16)
C7 C 0.7905(3) 0.50424(12) 0.23116(14)
N2 N 0.9413(2) 0.43897(10) 0.27759(12)
C8 C 0.9069(3) 0.33823(12) 0.30439(15)
C9 C 0.9292(3) 0.34004(11) 0.44974(15)
H2 H 0.9889 0.2788 0.4824
C10 C 0.7059(3) 0.35704(12) 0.49797(15)
H3 H 0.6271 0.4085 0.4502
H4 H 0.6141 0.3005 0.4845
C11 C 0.7406(3) 0.38101(12) 0.63455(15)
C12 C 0.6355(3) 0.34411(13) 0.73110(16)
H5 H 0.5163 0.3020 0.7128
C13 C 0.7089(3) 0.37029(14) 0.85412(17)
H6 H 0.6326 0.3470 0.9181
C14 C 0.8889(3) 0.42903(14) 0.88844(16)
H7 H 0.9401 0.4435 0.9732
C15 C 0.9878(3) 0.46470(12) 0.79126(15)
C16 C 0.9041(3) 0.44443(12) 0.66881(15)
C17 C 0.9516(3) 0.66625(13) 0.19710(16)
H8 H 0.9862 0.7272 0.2398
C18 C 0.7936(3) 0.68317(15) 0.07821(17)
H9 H 0.8513 0.7326 0.0297
H10 H 0.6502 0.7018 0.0997
H11 H 0.7773 0.6260 0.0286
C19 C 0.6892(3) 0.30122(14) 0.23876(16)
H12 H 0.5697 0.3420 0.2566
H13 H 0.6648 0.2384 0.2689
H14 H 0.6927 0.2994 0.1485
C20 C 1.0944(3) 0.28086(13) 0.26406(17)
H15 H 1.0993 0.2904 0.1748
H16 H 1.0700 0.2149 0.2798
H17 H 1.2341 0.3006 0.3118
C21 C 1.3195(3) 0.55148(16) 0.90414(17)
H18 H 1.4472 0.5841 0.8803
H19 H 1.3692 0.4982 0.9571
H20 H 1.2356 0.5939 0.9503
O1 O 1.38530(19) 0.57542(9) 0.64578(11)
O2 O 1.32285(17) 0.47345(8) 0.33199(11)
H21 H 1.304(4) 0.5013(16) 0.266(2)
O3 O 0.92539(17) 0.55957(8) 0.50667(10)
O4 O 1.19814(19) 0.64108(8) 0.42174(11)
H22 H 1.282(4) 0.6184(16) 0.493(2)
O5 O 0.6733(2) 0.64604(9) 0.32498(12)
H23 H 0.636(4) 0.6150(17) 0.379(2)
O6 O 1.1501(2) 0.62836(10) 0.16274(12)
H24 H 1.263(4) 0.6496(17) 0.212(2)
O7 O 0.62458(19) 0.49170(9) 0.15699(10)
loop_
_geom_bond_atom_site_label_1
_geom_bond_atom_site_label_2
_geom_bond_site_symmetry_1
_geom_bond_site_symmetry_2
N1 C1 1_555 1_555
C1 C2 1_555 1_555
C2 C3 1_555 1_555
C3 H1 1_555 1_555
C4 C3 1_555 1_555
C5 C4 1_555 1_555
C6 C5 1_555 1_555
C7 C6 1_555 1_555
N2 C4 1_555 1_555
C8 N2 1_555 1_555
C9 C3 1_555 1_555
H2 C9 1_555 1_555
C10 C9 1_555 1_555
H3 C10 1_555 1_555
H4 C10 1_555 1_555
C11 C10 1_555 1_555
C12 C11 1_555 1_555
H5 C12 1_555 1_555
C13 C12 1_555 1_555
H6 C13 1_555 1_555
C14 C13 1_555 1_555
H7 C14 1_555 1_555
C15 N1 1_555 1_555
C16 C2 1_555 1_555
C17 C6 1_555 1_555
H8 C17 1_555 1_555
C18 C17 1_555 1_555
H9 C18 1_555 1_555
H10 C18 1_555 1_555
H11 C18 1_555 1_555
C19 C8 1_555 1_555
H12 C19 1_555 1_555
H13 C19 1_555 1_555
H14 C19 1_555 1_555
C20 C8 1_555 1_555
H15 C20 1_555 1_555
H16 C20 1_555 1_555
H17 C20 1_555 1_555
C21 N1 1_555 1_555
H18 C21 1_555 1_555
H19 C21 1_555 1_555
H20 C21 1_555 1_555
O1 C1 1_555 1_555
O2 C4 1_555 1_555
H21 O2 1_555 1_555
O3 C2 1_555 1_555
O4 C5 1_555 1_555
H22 O4 1_555 1_555
O5 C6 1_555 1_555
H23 O5 1_555 1_555
O6 C17 1_555 1_555
H24 O6 1_555 1_555
O7 C7 1_555 1_555
C5 O3 1_555 1_555
C7 N2 1_555 1_555
C8 C9 1_555 1_555
C11 C16 1_555 1_555
C14 C15 1_555 1_555
C15 C16 1_555 1_555

#END
