
#######################################################################
#
#                 Cambridge Crystallographic Data Centre
#                                CCDC 
#
#######################################################################
#
# If this CIF has been generated from an entry in the Cambridge 
# Structural Database, then it will include bibliographic, chemical, 
# crystal, experimental, refinement or atomic coordinate data resulting 
# from the CCDC's data processing and validation procedures.
#
#######################################################################

data_TOWKOH
_chemical_formula_moiety         'C23 H26 Cl1 N3 O3'
_chemical_name_systematic        
'1-(5-(5-chloro-2-hydroxyphenyl)-3-(4-methoxyphenyl)-4,5-dihydro-1H-pyrazol-1-yl)-2-(piperidin-1-yl)ethanone unknown solvate'
_symmetry_cell_setting           monoclinic
_symmetry_space_group_name_H-M   'P 21/c'
_symmetry_Int_Tables_number      14
_space_group_name_Hall           '-P 2ybc'
loop_
_symmetry_equiv_pos_site_id
_symmetry_equiv_pos_as_xyz
1 x,y,z
2 -x,1/2+y,1/2-z
3 -x,-y,-z
4 x,1/2-y,1/2+z
_cell_length_a                   12.1986(4)
_cell_length_b                   15.4685(5)
_cell_length_c                   12.2638(5)
_cell_angle_alpha                90
_cell_angle_beta                 98.683(4)
_cell_angle_gamma                90
_cell_volume                     2287.58
_exptl_crystal_colour            colorless
_exptl_crystal_description       block
_chemical_melting_point          '441-442 K'
_cell_formula_units_Z            4
loop_
_atom_site_label
_atom_site_type_symbol
_atom_site_fract_x
_atom_site_fract_y
_atom_site_fract_z
Cl1 Cl 0.45544(5) 0.05665(5) 0.16797(6)
O1 O 0.01867(12) -0.10177(9) 0.03894(11)
H1 H 0.0130 -0.1235 -0.0227
O2 O 0.31445(15) -0.18330(11) 0.80689(13)
O3 O 0.00932(13) 0.17548(9) 0.16690(12)
N1 N 0.06129(13) 0.07541(10) 0.29780(13)
N2 N 0.10948(13) 0.05485(10) 0.40551(13)
N3 N 0.20989(14) 0.23618(10) 0.35088(13)
C1 C 0.24134(16) 0.02509(14) 0.18881(17)
H2 H 0.2542 0.0605 0.2508
C2 C 0.32546(17) 0.00979(14) 0.12715(18)
C3 C 0.30869(18) -0.04181(14) 0.03461(18)
H3 H 0.3659 -0.0517 -0.0061
C4 C 0.20519(17) -0.07889(13) 0.00304(16)
H4 H 0.1926 -0.1133 -0.0598
C5 C 0.12033(16) -0.06494(11) 0.06472(15)
C6 C 0.13760(15) -0.01240(12) 0.15818(15)
C7 C 0.04463(15) -0.00203(12) 0.22660(15)
H5 H -0.0277 -0.0002 0.1793
C8 C 0.04732(16) -0.07307(12) 0.31420(16)
H6 H -0.0269 -0.0907 0.3238
H7 H 0.0885 -0.1232 0.2956
C9 C 0.10611(15) -0.02787(12) 0.41585(15)
C10 C 0.15428(15) -0.07032(12) 0.51821(15)
C11 C 0.15339(18) -0.15980(13) 0.52933(17)
H8 H 0.1170 -0.1933 0.4720
C12 C 0.20593(19) -0.20032(14) 0.62451(18)
H9 H 0.2055 -0.2603 0.6300
C13 C 0.25842(17) -0.15116(14) 0.71041(16)
C14 C 0.25702(19) -0.06161(14) 0.70252(19)
H10 H 0.2903 -0.0283 0.7615
C15 C 0.20650(18) -0.02205(14) 0.60762(17)
H11 H 0.2071 0.0379 0.6028
C16 C 0.3301(3) -0.27343(18) 0.8168(2)
H12 H 0.3712 -0.2933 0.7608
H13 H 0.2593 -0.3017 0.8081
H14 H 0.3705 -0.2867 0.8882
C17 C 0.04892(15) 0.15788(12) 0.26329(16)
C18 C 0.09004(18) 0.22644(12) 0.34712(17)
H15 H 0.0532 0.2809 0.3267
H16 H 0.0736 0.2098 0.4192
C19 C 0.2644(2) 0.2610(2) 0.4593(2)
H17 H 0.2459 0.2200 0.5136
H18 H 0.2384 0.3176 0.4779
C20 C 0.3891(3) 0.2633(3) 0.4623(3)
H19 H 0.4241 0.2817 0.5349
H20 H 0.4155 0.2056 0.4494
C21 C 0.4214(2) 0.3236(2) 0.3773(3)
H21 H 0.5005 0.3195 0.3760
H22 H 0.4045 0.3827 0.3957
C22 C 0.3591(3) 0.3007(2) 0.2657(2)
H23 H 0.3841 0.2450 0.2429
H24 H 0.3743 0.3435 0.2121
C23 C 0.2350(2) 0.2973(2) 0.2688(2)
H25 H 0.2089 0.3542 0.2858
H26 H 0.1965 0.2805 0.1969
loop_
_geom_bond_atom_site_label_1
_geom_bond_atom_site_label_2
_geom_bond_site_symmetry_1
_geom_bond_site_symmetry_2
Cl1 C2 1_555 1_555
O1 H1 1_555 1_555
O2 C13 1_555 1_555
O3 C17 1_555 1_555
N1 N2 1_555 1_555
N2 C9 1_555 1_555
N3 C18 1_555 1_555
C1 H2 1_555 1_555
C2 C1 1_555 1_555
C3 C2 1_555 1_555
H3 C3 1_555 1_555
C4 C3 1_555 1_555
H4 C4 1_555 1_555
C5 O1 1_555 1_555
C6 C1 1_555 1_555
C7 N1 1_555 1_555
H5 C7 1_555 1_555
C8 C7 1_555 1_555
H6 C8 1_555 1_555
H7 C8 1_555 1_555
C9 C8 1_555 1_555
C10 C9 1_555 1_555
C11 C10 1_555 1_555
H8 C11 1_555 1_555
C12 C11 1_555 1_555
H9 C12 1_555 1_555
C13 C12 1_555 1_555
C14 C13 1_555 1_555
H10 C14 1_555 1_555
C15 C10 1_555 1_555
H11 C15 1_555 1_555
C16 O2 1_555 1_555
H12 C16 1_555 1_555
H13 C16 1_555 1_555
H14 C16 1_555 1_555
C17 N1 1_555 1_555
C18 C17 1_555 1_555
H15 C18 1_555 1_555
H16 C18 1_555 1_555
C19 N3 1_555 1_555
H17 C19 1_555 1_555
H18 C19 1_555 1_555
C20 C19 1_555 1_555
H19 C20 1_555 1_555
H20 C20 1_555 1_555
C21 C20 1_555 1_555
H21 C21 1_555 1_555
H22 C21 1_555 1_555
C22 C21 1_555 1_555
H23 C22 1_555 1_555
H24 C22 1_555 1_555
C23 N3 1_555 1_555
H25 C23 1_555 1_555
H26 C23 1_555 1_555
C4 C5 1_555 1_555
C5 C6 1_555 1_555
C6 C7 1_555 1_555
C14 C15 1_555 1_555
C22 C23 1_555 1_555

#END
