
#######################################################################
#
#                 Cambridge Crystallographic Data Centre
#                                CCDC 
#
#######################################################################
#
# If this CIF has been generated from an entry in the Cambridge 
# Structural Database, then it will include bibliographic, chemical, 
# crystal, experimental, refinement or atomic coordinate data resulting 
# from the CCDC's data processing and validation procedures.
#
#######################################################################

data_TOWPUS
_chemical_formula_moiety         'C16 H20 Br2 N4 O2,C2 H6 O1'
_chemical_name_systematic        
'1-(5-(3,5-Dibromo-2-hydroxyphenyl)-3-methyl-4,5-dihydro-1H-pyrazol-1-yl)-2-(piperazin-1-yl)ethanone ethanol solvate'
_symmetry_cell_setting           triclinic
_symmetry_space_group_name_H-M   'P -1'
_symmetry_Int_Tables_number      2
_space_group_name_Hall           '-P 1'
loop_
_symmetry_equiv_pos_site_id
_symmetry_equiv_pos_as_xyz
1 x,y,z
2 -x,-y,-z
_cell_length_a                   9.7322(9)
_cell_length_b                   13.7969(14)
_cell_length_c                   16.5522(15)
_cell_angle_alpha                76.557(8)
_cell_angle_beta                 83.763(8)
_cell_angle_gamma                85.608(8)
_cell_volume                     2145.82
_exptl_crystal_colour            colorless
_exptl_crystal_description       plate
_cell_formula_units_Z            4
loop_
_atom_site_label
_atom_site_type_symbol
_atom_site_fract_x
_atom_site_fract_y
_atom_site_fract_z
Br1 Br -0.20559(12) 1.09618(9) 0.08512(5)
Br2 Br 0.34716(10) 0.94480(7) 0.11188(5)
O1 O -0.2156(6) 1.0340(4) 0.2786(3)
H1 H -0.2390 1.0932 0.2625
O2 O 0.0905(6) 1.1269(4) 0.3757(3)
N1 N 0.1973(8) 0.8749(6) 0.4504(4)
N2 N 0.1175(7) 0.9623(5) 0.4195(3)
N3 N 0.3823(7) 1.1382(5) 0.3631(4)
N4 N 0.6217(7) 1.1959(5) 0.2488(4)
H2 H 0.667(8) 1.241(5) 0.207(4)
C1 C -0.0955(9) 1.0149(5) 0.2406(5)
C2 C -0.0635(9) 1.0368(5) 0.1530(5)
C3 C 0.0654(9) 1.0169(6) 0.1144(5)
H3 H 0.0815 1.0337 0.0565
C4 C 0.1687(9) 0.9725(6) 0.1620(5)
C5 C 0.1436(9) 0.9492(5) 0.2478(4)
H4 H 0.2146 0.9195 0.2800
C6 C 0.0151(9) 0.9692(5) 0.2869(4)
C7 C -0.0065(9) 0.9432(6) 0.3814(4)
H5 H -0.0890 0.9795 0.4013
C8 C -0.0130(10) 0.8313(6) 0.4184(5)
H6 H -0.0853 0.8179 0.4641
H7 H -0.0305 0.7963 0.3763
C9 C 0.1257(11) 0.8006(7) 0.4484(5)
C10 C 0.1806(11) 0.6956(6) 0.4749(6)
H8 H 0.1901 0.6647 0.4281
H9 H 0.1178 0.6595 0.5182
H10 H 0.2693 0.6947 0.4954
C11 C 0.1657(9) 1.0547(7) 0.4064(4)
C12 C 0.3093(9) 1.0642(6) 0.4297(4)
H11 H 0.3029 1.0853 0.4820
H12 H 0.3604 1.0001 0.4368
C13 C 0.5110(9) 1.1592(7) 0.3923(5)
H13 H 0.5681 1.0980 0.4062
H14 H 0.4901 1.1849 0.4423
C14 C 0.5892(9) 1.2345(6) 0.3259(5)
H15 H 0.5338 1.2967 0.3136
H16 H 0.6744 1.2475 0.3460
C15 C 0.4911(9) 1.1710(6) 0.2210(4)
H17 H 0.5123 1.1431 0.1721
H18 H 0.4327 1.2313 0.2056
C16 C 0.4149(9) 1.0972(6) 0.2891(4)
H19 H 0.3300 1.0820 0.2700
H20 H 0.4715 1.0357 0.3030
Br3 Br 0.18266(13) 0.40427(10) 0.41147(5)
Br4 Br 0.72206(11) 0.53850(7) 0.38604(5)
O3 O 0.2310(6) 0.4627(4) 0.2206(3)
H21 H 0.2367 0.4922 0.1714
O4 O 0.6032(6) 0.3658(4) 0.1256(3)
N5 N 0.6765(7) 0.6194(5) 0.0439(3)
N6 N 0.6075(7) 0.5302(5) 0.0785(3)
N7 N 0.8907(7) 0.3564(4) 0.1369(3)
N8 N 1.1023(8) 0.3007(5) 0.2515(4)
H22 H 1.130(9) 0.263(6) 0.281(5)
C17 C 0.3361(9) 0.4820(5) 0.2556(5)
C18 C 0.3392(10) 0.4611(6) 0.3425(5)
C19 C 0.4509(10) 0.4767(6) 0.3839(5)
H23 H 0.4485 0.4606 0.4418
C20 C 0.5656(9) 0.5175(6) 0.3335(4)
C21 C 0.5666(9) 0.5429(5) 0.2485(4)
H24 H 0.6431 0.5729 0.2167
C22 C 0.4570(8) 0.5251(5) 0.2091(4)
C23 C 0.4650(8) 0.5504(5) 0.1146(4)
H25 H 0.3990 0.5127 0.0952
C24 C 0.4431(9) 0.6625(6) 0.0773(4)
H26 H 0.3821 0.6750 0.0330
H27 H 0.4054 0.6980 0.1196
C25 C 0.5884(9) 0.6916(6) 0.0440(4)
C26 C 0.6282(10) 0.7965(6) 0.0141(5)
H28 H 0.6202 0.8284 0.0602
H29 H 0.5680 0.8314 -0.0267
H30 H 0.7221 0.7976 -0.0107
C27 C 0.6708(9) 0.4398(6) 0.0940(4)
C28 C 0.8267(9) 0.4301(6) 0.0716(4)
H31 H 0.8452 0.4099 0.0190
H32 H 0.8662 0.4942 0.0653
C29 C 0.8854(8) 0.3945(6) 0.2130(4)
H33 H 0.7897 0.4075 0.2326
H34 H 0.9317 0.4567 0.2008
C30 C 0.9548(8) 0.3193(6) 0.2801(4)
H35 H 0.9488 0.3444 0.3305
H36 H 0.9078 0.2573 0.2928
C31 C 1.1088(9) 0.2625(6) 0.1738(4)
H37 H 1.0643 0.1995 0.1855
H38 H 1.2046 0.2512 0.1534
C32 C 1.0361(9) 0.3384(6) 0.1078(4)
H39 H 1.0826 0.4006 0.0950
H40 H 1.0410 0.3140 0.0571
O5 O 0.6474(8) 0.8855(6) 0.3850(4)
H41 H 0.6826 0.9224 0.3429
C33 C 0.613(4) 0.8146(18) 0.2733(12)
H42 H 0.6002 0.8820 0.2421
H43 H 0.5516 0.7730 0.2570
H44 H 0.7072 0.7909 0.2623
C34 C 0.584(5) 0.811(3) 0.3630(14)
H45 H 0.4846 0.8188 0.3764
H46 H 0.6160 0.7469 0.3948
O6 O 0.0979(8) 0.6173(5) 0.1187(4)
H53 H 0.0973 0.5608 0.1485
C37 C -0.050(3) 0.7584(18) 0.1398(17)
H54 H -0.0455 0.7686 0.0802
H55 H -0.0453 0.8213 0.1545
H56 H -0.1364 0.7296 0.1641
C38 C 0.064(3) 0.691(2) 0.1711(19)
H57 H 0.0395 0.6571 0.2284
H58 H 0.1446 0.7294 0.1699
H47? H 0.6875 0.9353 0.3597
C35? C 0.501(3) 0.786(3) 0.332(3)
H48? H 0.5047 0.7371 0.2992
H49? H 0.4414 0.8422 0.3089
H50? H 0.4663 0.7577 0.3883
C36? C 0.642(4) 0.820(4) 0.331(4)
H51? H 0.7047 0.7625 0.3481
H52? H 0.6740 0.8539 0.2749
H59? H 0.0862 0.5647 0.1532
C39? C 0.020(5) 0.690(4) 0.144(2)
H60? H -0.0758 0.6800 0.1391
H61? H 0.0435 0.7528 0.1056
C40? C 0.034(5) 0.699(4) 0.2278(19)
H62? H 0.0916 0.7527 0.2262
H63? H 0.0744 0.6377 0.2585
H64? H -0.0562 0.7120 0.2545
loop_
_geom_bond_atom_site_label_1
_geom_bond_atom_site_label_2
_geom_bond_site_symmetry_1
_geom_bond_site_symmetry_2
Br1 C2 1_555 1_555
Br2 C4 1_555 1_555
O1 H1 1_555 1_555
O2 C11 1_555 1_555
N1 N2 1_555 1_555
N2 C7 1_555 1_555
N3 C12 1_555 1_555
N4 H2 1_555 1_555
C1 O1 1_555 1_555
C2 C1 1_555 1_555
C3 C2 1_555 1_555
H3 C3 1_555 1_555
C4 C3 1_555 1_555
C5 C4 1_555 1_555
H4 C5 1_555 1_555
C6 C1 1_555 1_555
C7 C6 1_555 1_555
H5 C7 1_555 1_555
C8 C7 1_555 1_555
H6 C8 1_555 1_555
H7 C8 1_555 1_555
C9 N1 1_555 1_555
C10 C9 1_555 1_555
H8 C10 1_555 1_555
H9 C10 1_555 1_555
H10 C10 1_555 1_555
C11 N2 1_555 1_555
C12 C11 1_555 1_555
H11 C12 1_555 1_555
H12 C12 1_555 1_555
C13 N3 1_555 1_555
H13 C13 1_555 1_555
H14 C13 1_555 1_555
C14 N4 1_555 1_555
H15 C14 1_555 1_555
H16 C14 1_555 1_555
C15 N4 1_555 1_555
H17 C15 1_555 1_555
H18 C15 1_555 1_555
C16 N3 1_555 1_555
H19 C16 1_555 1_555
H20 C16 1_555 1_555
Br3 C18 1_555 1_555
Br4 C20 1_555 1_555
O3 H21 1_555 1_555
O4 C27 1_555 1_555
N5 N6 1_555 1_555
N6 C23 1_555 1_555
N7 C28 1_555 1_555
N8 H22 1_555 1_555
C17 O3 1_555 1_555
C18 C17 1_555 1_555
C19 C18 1_555 1_555
H23 C19 1_555 1_555
C20 C19 1_555 1_555
C21 C20 1_555 1_555
H24 C21 1_555 1_555
C22 C17 1_555 1_555
C23 C22 1_555 1_555
H25 C23 1_555 1_555
C24 C23 1_555 1_555
H26 C24 1_555 1_555
H27 C24 1_555 1_555
C25 N5 1_555 1_555
C26 C25 1_555 1_555
H28 C26 1_555 1_555
H29 C26 1_555 1_555
H30 C26 1_555 1_555
C27 N6 1_555 1_555
C28 C27 1_555 1_555
H31 C28 1_555 1_555
H32 C28 1_555 1_555
C29 N7 1_555 1_555
H33 C29 1_555 1_555
H34 C29 1_555 1_555
C30 N8 1_555 1_555
H35 C30 1_555 1_555
H36 C30 1_555 1_555
C31 N8 1_555 1_555
H37 C31 1_555 1_555
H38 C31 1_555 1_555
C32 N7 1_555 1_555
H39 C32 1_555 1_555
H40 C32 1_555 1_555
O5 H41 1_555 1_555
C33 H42 1_555 1_555
H43 C33 1_555 1_555
H44 C33 1_555 1_555
C34 O5 1_555 1_555
H45 C34 1_555 1_555
H46 C34 1_555 1_555
O6 H53 1_555 1_555
C37 H54 1_555 1_555
H55 C37 1_555 1_555
H56 C37 1_555 1_555
C38 O6 1_555 1_555
H57 C38 1_555 1_555
H58 C38 1_555 1_555
C5 C6 1_555 1_555
C8 C9 1_555 1_555
C13 C14 1_555 1_555
C15 C16 1_555 1_555
C21 C22 1_555 1_555
C24 C25 1_555 1_555
C29 C30 1_555 1_555
C31 C32 1_555 1_555
C33 C34 1_555 1_555
C37 C38 1_555 1_555

#END
