
#######################################################################
#
#                 Cambridge Crystallographic Data Centre
#                                CCDC 
#
#######################################################################
#
# If this CIF has been generated from an entry in the Cambridge 
# Structural Database, then it will include bibliographic, chemical, 
# crystal, experimental, refinement or atomic coordinate data resulting 
# from the CCDC's data processing and validation procedures.
#
#######################################################################

data_TOWPOM
_chemical_formula_moiety         'C18 H23 Br2 N3 O3'
_chemical_name_systematic        
1-(5-(3,5-Dibromo-2-hydroxyphenyl)-3-methyl-4,5-dihydro-1H-pyrazol-1-yl)-2-(4-(hydroxymethyl)piperidin-1-yl)ethanone
_symmetry_cell_setting           triclinic
_symmetry_space_group_name_H-M   'P -1'
_symmetry_Int_Tables_number      2
_space_group_name_Hall           '-P 1'
loop_
_symmetry_equiv_pos_site_id
_symmetry_equiv_pos_as_xyz
1 x,y,z
2 -x,-y,-z
_cell_length_a                   7.5225(9)
_cell_length_b                   10.4570(20)
_cell_length_c                   12.8167(17)
_cell_angle_alpha                91.154(13)
_cell_angle_beta                 91.637(11)
_cell_angle_gamma                99.454(13)
_cell_volume                     993.783
_exptl_crystal_colour            colorless
_exptl_crystal_description       block
_cell_formula_units_Z            2
loop_
_atom_site_label
_atom_site_type_symbol
_atom_site_fract_x
_atom_site_fract_y
_atom_site_fract_z
Br1 Br 0.11349(8) 0.24923(6) 0.16152(5)
Br2 Br 0.38709(8) 0.71956(7) -0.02942(4)
O1 O -0.1319(5) 0.4274(4) 0.2661(3)
H1 H -0.1134 0.3531 0.2742
O2 O 0.1485(5) 0.8017(4) 0.3760(3)
O3 O 0.7777(5) 1.0057(5) 0.7674(3)
H2 H 0.8122 1.0383 0.7123
N1 N -0.2857(5) 0.6235(5) 0.4028(3)
N2 N -0.1259(5) 0.6824(5) 0.3576(3)
N3 N 0.1581(5) 0.7770(5) 0.5998(3)
C1 C -0.0137(6) 0.4874(5) 0.1976(3)
C2 C 0.1045(6) 0.4271(5) 0.1416(4)
C3 C 0.2232(6) 0.4926(6) 0.0728(4)
H3 H 0.3010 0.4499 0.0353
C4 C 0.2224(7) 0.6244(6) 0.0617(4)
C5 C 0.1056(7) 0.6892(6) 0.1165(3)
H4 H 0.1069 0.7774 0.1078
C6 C -0.0127(7) 0.6206(5) 0.1843(4)
C7 C -0.1424(7) 0.6911(6) 0.2420(4)
H5 H -0.1223 0.7825 0.2230
C8 C -0.3434(7) 0.6335(6) 0.2226(4)
H6 H -0.4097 0.6975 0.1938
H7 H -0.3574 0.5587 0.1753
C9 C -0.4065(7) 0.5953(6) 0.3293(4)
C10 C 0.0191(7) 0.7374(5) 0.4166(4)
C11 C 0.0151(7) 0.7065(6) 0.5325(4)
H8 H -0.0992 0.7225 0.5586
H9 H 0.0178 0.6145 0.5390
C12 C 0.1507(7) 0.9154(6) 0.6106(4)
H10 H 0.0284 0.9272 0.6249
H11 H 0.1843 0.9576 0.5457
C13 C 0.2774(7) 0.9772(6) 0.6986(4)
H12 H 0.2356 0.9410 0.7643
H13 H 0.2749 1.0696 0.7021
C14 C 0.4728(7) 0.9552(6) 0.6837(4)
H14 H 0.5183 1.0013 0.6216
C15 C 0.4735(7) 0.8124(5) 0.6651(4)
H15 H 0.4411 0.7668 0.7287
H16 H 0.5944 0.7996 0.6484
C16 C 0.3426(7) 0.7546(6) 0.5765(4)
H17 H 0.3796 0.7947 0.5113
H18 H 0.3439 0.6623 0.5691
C17 C 0.5915(7) 1.0100(6) 0.7769(4)
H19 H 0.5767 1.0995 0.7887
H20 H 0.5495 0.9624 0.8381
C18 C -0.5935(7) 0.5307(7) 0.3494(4)
H21 H -0.6018 0.5080 0.4215
H22 H -0.6228 0.4536 0.3062
H23 H -0.6764 0.5888 0.3336
loop_
_geom_bond_atom_site_label_1
_geom_bond_atom_site_label_2
_geom_bond_site_symmetry_1
_geom_bond_site_symmetry_2
Br1 C2 1_555 1_555
Br2 C4 1_555 1_555
O1 H1 1_555 1_555
O2 C10 1_555 1_555
O3 H2 1_555 1_555
N1 N2 1_555 1_555
N2 C7 1_555 1_555
N3 C11 1_555 1_555
C1 O1 1_555 1_555
C2 C1 1_555 1_555
C3 C2 1_555 1_555
H3 C3 1_555 1_555
C4 C3 1_555 1_555
C5 C4 1_555 1_555
H4 C5 1_555 1_555
C6 C1 1_555 1_555
C7 C6 1_555 1_555
H5 C7 1_555 1_555
C8 C7 1_555 1_555
H6 C8 1_555 1_555
H7 C8 1_555 1_555
C9 N1 1_555 1_555
C10 N2 1_555 1_555
C11 C10 1_555 1_555
H8 C11 1_555 1_555
H9 C11 1_555 1_555
C12 N3 1_555 1_555
H10 C12 1_555 1_555
H11 C12 1_555 1_555
C13 C12 1_555 1_555
H12 C13 1_555 1_555
H13 C13 1_555 1_555
C14 C13 1_555 1_555
H14 C14 1_555 1_555
C15 C14 1_555 1_555
H15 C15 1_555 1_555
H16 C15 1_555 1_555
C16 N3 1_555 1_555
H17 C16 1_555 1_555
H18 C16 1_555 1_555
C17 O3 1_555 1_555
H19 C17 1_555 1_555
H20 C17 1_555 1_555
C18 C9 1_555 1_555
H21 C18 1_555 1_555
H22 C18 1_555 1_555
H23 C18 1_555 1_555
C5 C6 1_555 1_555
C8 C9 1_555 1_555
C14 C17 1_555 1_555
C15 C16 1_555 1_555

#END
