
#######################################################################
#
#                 Cambridge Crystallographic Data Centre
#                                CCDC 
#
#######################################################################
#
# If this CIF has been generated from an entry in the Cambridge 
# Structural Database, then it will include bibliographic, chemical, 
# crystal, experimental, refinement or atomic coordinate data resulting 
# from the CCDC's data processing and validation procedures.
#
#######################################################################

data_TOWTEG
_chemical_name_common            
"5,7-dipropyl-5,7-dihydropyrido[3,2-b:5,6-b']diindole chloroform cyclohexane solvate"
_chemical_formula_moiety         'C23 H23 N3,0.46(C6 H12),0.04(C1 H1 Cl3)'
_chemical_name_systematic        
"5,7-dipropyl-5,7-dihydroindolo[2',3':5,6]pyrido[3,2-b]indole chloroform cyclohexane solvate"
_symmetry_cell_setting           triclinic
_symmetry_space_group_name_H-M   'P -1'
_symmetry_Int_Tables_number      2
_space_group_name_Hall           '-P 1'
loop_
_symmetry_equiv_pos_site_id
_symmetry_equiv_pos_as_xyz
1 x,y,z
2 -x,-y,-z
_cell_length_a                   9.7236(2)
_cell_length_b                   12.5815(2)
_cell_length_c                   17.7524(3)
_cell_angle_alpha                92.9990(10)
_cell_angle_beta                 99.5270(10)
_cell_angle_gamma                96.3470(10)
_cell_volume                     2123.17
_exptl_crystal_colour            yellow
_exptl_crystal_description       block
_cell_formula_units_Z            4
loop_
_atom_site_label
_atom_site_type_symbol
_atom_site_fract_x
_atom_site_fract_y
_atom_site_fract_z
C1 C -0.14701(17) 0.82888(13) 0.43345(9)
C2 C -0.23743(18) 0.75108(14) 0.46503(9)
C3 C -0.38204(19) 0.72045(15) 0.45152(11)
H1 H -0.4411 0.7485 0.4112
C4 C -0.4381(2) 0.64846(16) 0.49795(12)
H2 H -0.5366 0.6275 0.4898
C5 C -0.3512(2) 0.60630(16) 0.55670(12)
H3 H -0.3921 0.5573 0.5880
C6 C -0.2072(2) 0.63392(15) 0.57058(11)
H4 H -0.1486 0.6041 0.6102
C7 C -0.15132(18) 0.70727(14) 0.52422(10)
C8 C -0.00825(18) 0.82793(13) 0.47474(9)
C9 C 0.10329(18) 0.89691(14) 0.45938(10)
H5 H 0.1967 0.8982 0.4860
C10 C 0.06672(18) 0.96404(14) 0.40170(9)
C11 C 0.06401(19) 1.09021(15) 0.31636(10)
C12 C 0.1022(2) 1.17260(16) 0.27132(11)
H6 H 0.1971 1.2037 0.2759
C13 C -0.0036(2) 1.20699(17) 0.21996(11)
H7 H 0.0191 1.2633 0.1889
C14 C -0.1432(2) 1.16105(17) 0.21256(10)
H8 H -0.2136 1.1875 0.1772
C15 C -0.1806(2) 1.07763(15) 0.25593(10)
H9 H -0.2753 1.0456 0.2500
C16 C -0.07567(19) 1.04192(14) 0.30851(9)
C17 C -0.07461(18) 0.96049(14) 0.36294(9)
C18 C 0.10565(19) 0.72597(15) 0.58339(10)
H10 H 0.0769 0.7204 0.6341
H11 H 0.1833 0.7852 0.5884
C19 C 0.1594(2) 0.62241(17) 0.56112(12)
H12 H 0.1945 0.6293 0.5121
H13 H 0.0810 0.5634 0.5532
C20 C 0.2767(2) 0.5946(2) 0.62195(13)
H14 H 0.3548 0.6526 0.6296
H15 H 0.3094 0.5278 0.6053
H16 H 0.2415 0.5856 0.6702
C21 C 0.29823(18) 1.07345(14) 0.39807(10)
H17 H 0.3204 1.0667 0.4540
H18 H 0.3214 1.1498 0.3889
C22 C 0.3904(2) 1.00783(17) 0.35919(12)
H19 H 0.3693 1.0133 0.3031
H20 H 0.3715 0.9315 0.3695
C23 C 0.5434(2) 1.0485(2) 0.38892(15)
H21 H 0.5650 1.1205 0.3721
H22 H 0.6032 1.0000 0.3688
H23 H 0.5610 1.0512 0.4450
N1 N -0.18220(15) 0.89386(11) 0.37816(8)
N2 N -0.01271(15) 0.75256(12) 0.52884(8)
N3 N 0.14875(15) 1.04320(12) 0.37277(8)
C24 C 0.60010(19) -0.05140(14) 0.89039(10)
C25 C 0.6161(2) -0.16204(15) 0.87285(11)
C26 C 0.5680(2) -0.23357(15) 0.80862(11)
H24 H 0.5119 -0.2118 0.7644
C27 C 0.6040(2) -0.33677(17) 0.81089(13)
H25 H 0.5726 -0.3864 0.7677
C28 C 0.6860(2) -0.36876(17) 0.87587(13)
H26 H 0.7097 -0.4400 0.8758
C29 C 0.7338(2) -0.29969(16) 0.94055(12)
H27 H 0.7891 -0.3225 0.9847
C30 C 0.6980(2) -0.19568(15) 0.93851(11)
C31 C 0.67329(18) -0.02353(14) 0.96662(10)
C32 C 0.67814(19) 0.07839(14) 1.00121(10)
H28 H 0.7263 0.0991 1.0518
C33 C 0.60656(18) 0.14754(14) 0.95551(9)
C34 C 0.50609(19) 0.28838(14) 0.90736(10)
C35 C 0.4584(2) 0.38779(15) 0.89740(11)
H29 H 0.4806 0.4439 0.9369
C36 C 0.3772(2) 0.40172(17) 0.82740(12)
H30 H 0.3434 0.4689 0.8190
C37 C 0.3439(2) 0.31959(17) 0.76915(11)
H31 H 0.2882 0.3317 0.7219
C38 C 0.3908(2) 0.22111(15) 0.77925(10)
H32 H 0.3677 0.1653 0.7395
C39 C 0.47276(18) 0.20479(14) 0.84890(10)
C40 C 0.53591(18) 0.11397(14) 0.87944(9)
C41 C 0.8130(2) -0.11708(15) 1.07099(10)
H33 H 0.7966 -0.1908 1.0873
H34 H 0.7794 -0.0682 1.1076
C42 C 0.9688(2) -0.08718(19) 1.07500(12)
H35 H 1.0005 -0.1292 1.0338
H36 H 0.9869 -0.0103 1.0659
C43 C 1.0531(2) -0.1071(2) 1.15092(13)
H37 H 1.0216 -0.0663 1.1920
H38 H 1.1528 -0.0842 1.1511
H39 H 1.0398 -0.1837 1.1590
C44 C 0.6432(2) 0.31880(16) 1.04163(10)
H40 H 0.6718 0.2714 1.0827
H41 H 0.5684 0.3583 1.0568
C45 C 0.7698(3) 0.3994(3) 1.03420(18)
H42 H 0.7411 0.4473 0.9935
H43 H 0.7999 0.4442 1.0829
C46 C 0.8924(3) 0.3451(3) 1.01537(19)
H44 H 0.9187 0.2953 1.0544
H45 H 0.9725 0.3994 1.0144
H46 H 0.8656 0.3055 0.9651
N4 N 0.53139(16) 0.01564(12) 0.84625(8)
N5 N 0.73066(17) -0.11205(12) 0.99484(9)
N6 N 0.58721(16) 0.25343(12) 0.97119(8)
C47 C 0.1989(4) 0.6662(3) 0.34920(16)
H47 H 0.2121 0.7262 0.3891
H48 H 0.2550 0.6101 0.3702
C48 C 0.2557(3) 0.7058(3) 0.28168(17)
H49 H 0.2143 0.7719 0.2672
H50 H 0.3586 0.7251 0.2963
C49 C 0.2280(3) 0.6294(3) 0.21596(19)
H51 H 0.2880 0.5713 0.2262
H52 H 0.2548 0.6655 0.1714
C50 C 0.0688(3) 0.5779(3) 0.19466(15)
H53 H 0.0109 0.6316 0.1715
H54 H 0.0609 0.5164 0.1564
C51 C 0.0164(4) 0.5418(3) 0.2616(2)
H55 H 0.0574 0.4754 0.2755
H56 H -0.0865 0.5226 0.2475
C52 C 0.0453(4) 0.6205(3) 0.3337(2)
H57 H -0.0142 0.6793 0.3258
H58 H 0.0218 0.5826 0.3783
C53 C 0.1186(15) 0.6140(18) 0.2537(16)
H59 H 0.0919 0.6593 0.2102
Cl1 Cl 0.0380(11) 0.4860(8) 0.2283(5)
Cl2 Cl 0.0628(15) 0.6663(12) 0.3321(8)
Cl3 Cl 0.2983(11) 0.6240(9) 0.2739(6)
H60? H 0.6136 0.2811 1.0846
H61? H 0.6033 0.3872 1.0394
C54? C 0.8054(13) 0.3402(11) 1.0566(7)
H62? H 0.8397 0.3751 1.1086
H63? H 0.8461 0.2718 1.0527
C55? C 0.847(2) 0.4104(16) 0.9988(11)
H64? H 0.9485 0.4331 1.0109
H65? H 0.7966 0.4737 0.9986
H66? H 0.8241 0.3715 0.9481
loop_
_geom_bond_atom_site_label_1
_geom_bond_atom_site_label_2
_geom_bond_site_symmetry_1
_geom_bond_site_symmetry_2
C1 C2 1_555 1_555
C2 C3 1_555 1_555
C3 H1 1_555 1_555
C4 C3 1_555 1_555
H2 C4 1_555 1_555
C5 C4 1_555 1_555
H3 C5 1_555 1_555
C6 C5 1_555 1_555
H4 C6 1_555 1_555
C7 C2 1_555 1_555
C8 C1 1_555 1_555
C9 C8 1_555 1_555
H5 C9 1_555 1_555
C10 C9 1_555 1_555
C11 C12 1_555 1_555
C12 H6 1_555 1_555
C13 C12 1_555 1_555
H7 C13 1_555 1_555
C14 C13 1_555 1_555
H8 C14 1_555 1_555
C15 C14 1_555 1_555
H9 C15 1_555 1_555
C16 C11 1_555 1_555
C17 C10 1_555 1_555
C18 H10 1_555 1_555
H11 C18 1_555 1_555
C19 C18 1_555 1_555
H12 C19 1_555 1_555
H13 C19 1_555 1_555
C20 C19 1_555 1_555
H14 C20 1_555 1_555
H15 C20 1_555 1_555
H16 C20 1_555 1_555
C21 H17 1_555 1_555
H18 C21 1_555 1_555
C22 C21 1_555 1_555
H19 C22 1_555 1_555
H20 C22 1_555 1_555
C23 C22 1_555 1_555
H21 C23 1_555 1_555
H22 C23 1_555 1_555
H23 C23 1_555 1_555
N1 C1 1_555 1_555
N2 C7 1_555 1_555
N3 C10 1_555 1_555
C24 C25 1_555 1_555
C25 C26 1_555 1_555
C26 H24 1_555 1_555
C27 C26 1_555 1_555
H25 C27 1_555 1_555
C28 C27 1_555 1_555
H26 C28 1_555 1_555
C29 C28 1_555 1_555
H27 C29 1_555 1_555
C30 C25 1_555 1_555
C31 C24 1_555 1_555
C32 C31 1_555 1_555
H28 C32 1_555 1_555
C33 C32 1_555 1_555
C34 C35 1_555 1_555
C35 H29 1_555 1_555
C36 C35 1_555 1_555
H30 C36 1_555 1_555
C37 C36 1_555 1_555
H31 C37 1_555 1_555
C38 C37 1_555 1_555
H32 C38 1_555 1_555
C39 C34 1_555 1_555
C40 C33 1_555 1_555
C41 H33 1_555 1_555
H34 C41 1_555 1_555
C42 C41 1_555 1_555
H35 C42 1_555 1_555
H36 C42 1_555 1_555
C43 C42 1_555 1_555
H37 C43 1_555 1_555
H38 C43 1_555 1_555
H39 C43 1_555 1_555
C44 H40 1_555 1_555
H41 C44 1_555 1_555
C45 C44 1_555 1_555
H42 C45 1_555 1_555
H43 C45 1_555 1_555
C46 C45 1_555 1_555
H44 C46 1_555 1_555
H45 C46 1_555 1_555
H46 C46 1_555 1_555
N4 C24 1_555 1_555
N5 C30 1_555 1_555
N6 C33 1_555 1_555
C47 H47 1_555 1_555
H48 C47 1_555 1_555
C48 C47 1_555 1_555
H49 C48 1_555 1_555
H50 C48 1_555 1_555
C49 C48 1_555 1_555
H51 C49 1_555 1_555
H52 C49 1_555 1_555
C50 C49 1_555 1_555
H53 C50 1_555 1_555
H54 C50 1_555 1_555
C51 C50 1_555 1_555
H55 C51 1_555 1_555
H56 C51 1_555 1_555
C52 C47 1_555 1_555
H57 C52 1_555 1_555
H58 C52 1_555 1_555
C53 H59 1_555 1_555
Cl1 C53 1_555 1_555
Cl2 C53 1_555 1_555
Cl3 C53 1_555 1_555
C6 C7 1_555 1_555
C8 N2 1_555 1_555
C11 N3 1_555 1_555
C15 C16 1_555 1_555
C16 C17 1_555 1_555
C17 N1 1_555 1_555
C18 N2 1_555 1_555
C21 N3 1_555 1_555
C29 C30 1_555 1_555
C31 N5 1_555 1_555
C34 N6 1_555 1_555
C38 C39 1_555 1_555
C39 C40 1_555 1_555
C40 N4 1_555 1_555
C41 N5 1_555 1_555
C44 N6 1_555 1_555
C51 C52 1_555 1_555

#END
