
#######################################################################
#
#                 Cambridge Crystallographic Data Centre
#                                CCDC 
#
#######################################################################
#
# If this CIF has been generated from an entry in the Cambridge 
# Structural Database, then it will include bibliographic, chemical, 
# crystal, experimental, refinement or atomic coordinate data resulting 
# from the CCDC's data processing and validation procedures.
#
#######################################################################

data_TOXFUJ
_chemical_formula_moiety         'C23 H21 N1 O3'
_chemical_name_systematic        
'methyl 4-benzoyl-4-cyano-3-ethyl-5-phenylcyclopent-1-ene-1-carboxylate'
_symmetry_cell_setting           triclinic
_symmetry_space_group_name_H-M   'P -1'
_symmetry_Int_Tables_number      2
_space_group_name_Hall           '-P 1'
loop_
_symmetry_equiv_pos_site_id
_symmetry_equiv_pos_as_xyz
1 x,y,z
2 -x,-y,-z
_cell_length_a                   6.2496(12)
_cell_length_b                   9.3786(19)
_cell_length_c                   17.386(4)
_cell_angle_alpha                75.46(3)
_cell_angle_beta                 89.76(3)
_cell_angle_gamma                86.88(3)
_cell_volume                     984.89
_cell_formula_units_Z            2
loop_
_atom_site_label
_atom_site_type_symbol
_atom_site_fract_x
_atom_site_fract_y
_atom_site_fract_z
O1 O 0.90666(17) 0.75453(10) 0.41739(5)
O2 O 1.08024(16) 0.55594(12) 0.39156(6)
O3 O 0.27618(15) 0.51911(12) 0.17794(6)
N1 N 0.8130(2) 0.80479(14) 0.09025(7)
C1 C 0.7182(2) 0.72607(15) 0.13728(8)
C2 C 0.59749(19) 0.62815(14) 0.20044(7)
C3 C 0.76564(19) 0.54645(13) 0.26827(7)
H1 H 0.9083 0.5421 0.2451
C4 C 0.7603(2) 0.65400(13) 0.32038(7)
C5 C 0.5896(2) 0.74819(14) 0.30547(7)
H2 H 0.5612 0.8204 0.3329
C6 C 0.4476(2) 0.72720(14) 0.24062(7)
H3 H 0.3299 0.6679 0.2656
C7 C 0.3491(2) 0.86819(16) 0.18501(9)
H4 H 0.4629 0.9328 0.1639
H5 H 0.2804 0.8430 0.1406
C8 C 0.1860(3) 0.95083(17) 0.22495(10)
H6 H 0.0739 0.8872 0.2468
H7 H 0.1261 1.0356 0.1866
H8 H 0.2549 0.9820 0.2668
C9 C 0.9315(2) 0.64625(15) 0.37961(7)
C10 C 1.0779(3) 0.76239(19) 0.47221(9)
H9 H 1.0731 0.6808 0.5182
H10 H 1.0600 0.8533 0.4880
H11 H 1.2136 0.7583 0.4466
C11 C 0.7083(2) 0.39185(13) 0.31235(7)
C12 C 0.5307(2) 0.36838(15) 0.36083(8)
H12 H 0.4453 0.4486 0.3676
C13 C 0.4789(3) 0.22663(17) 0.39946(9)
H13 H 0.3583 0.2122 0.4314
C14 C 0.6048(3) 0.10763(16) 0.39065(9)
H14 H 0.5702 0.0125 0.4166
C15 C 0.7817(3) 0.12939(16) 0.34348(9)
H15 H 0.8674 0.0486 0.3376
C16 C 0.8340(2) 0.26971(15) 0.30460(8)
H16 H 0.9550 0.2828 0.2728
C17 C 0.4679(2) 0.52060(15) 0.16601(7)
C18 C 0.5752(2) 0.42021(14) 0.12180(7)
C19 C 0.4503(2) 0.31390(16) 0.10397(8)
H17 H 0.3087 0.3078 0.1206
C20 C 0.5345(3) 0.21756(16) 0.06183(9)
H18 H 0.4495 0.1472 0.0503
C21 C 0.7443(3) 0.22530(17) 0.03684(8)
H19 H 0.8006 0.1603 0.0084
C22 C 0.8692(3) 0.32891(17) 0.05396(8)
H20 H 1.0103 0.3346 0.0368
C23 C 0.7871(2) 0.42559(16) 0.09679(8)
H21 H 0.8742 0.4944 0.1089
loop_
_geom_bond_atom_site_label_1
_geom_bond_atom_site_label_2
_geom_bond_site_symmetry_1
_geom_bond_site_symmetry_2
O1 C9 1_555 1_555
O2 C9 1_555 1_555
O3 C17 1_555 1_555
N1 C1 1_555 1_555
C1 C2 1_555 1_555
C2 C3 1_555 1_555
C3 H1 1_555 1_555
C4 C3 1_555 1_555
C5 C4 1_555 1_555
H2 C5 1_555 1_555
C6 C2 1_555 1_555
H3 C6 1_555 1_555
C7 C6 1_555 1_555
H4 C7 1_555 1_555
H5 C7 1_555 1_555
C8 C7 1_555 1_555
H6 C8 1_555 1_555
H7 C8 1_555 1_555
H8 C8 1_555 1_555
C9 C4 1_555 1_555
C10 O1 1_555 1_555
H9 C10 1_555 1_555
H10 C10 1_555 1_555
H11 C10 1_555 1_555
C11 C3 1_555 1_555
C12 C11 1_555 1_555
H12 C12 1_555 1_555
C13 C12 1_555 1_555
H13 C13 1_555 1_555
C14 C13 1_555 1_555
H14 C14 1_555 1_555
C15 C14 1_555 1_555
H15 C15 1_555 1_555
C16 C11 1_555 1_555
H16 C16 1_555 1_555
C17 C2 1_555 1_555
C18 C17 1_555 1_555
C19 C18 1_555 1_555
H17 C19 1_555 1_555
C20 C19 1_555 1_555
H18 C20 1_555 1_555
C21 C20 1_555 1_555
H19 C21 1_555 1_555
C22 C21 1_555 1_555
H20 C22 1_555 1_555
C23 C18 1_555 1_555
H21 C23 1_555 1_555
C5 C6 1_555 1_555
C15 C16 1_555 1_555
C22 C23 1_555 1_555

#END
