
#######################################################################
#
#                 Cambridge Crystallographic Data Centre
#                                CCDC 
#
#######################################################################
#
# If this CIF has been generated from an entry in the Cambridge 
# Structural Database, then it will include bibliographic, chemical, 
# crystal, experimental, refinement or atomic coordinate data resulting 
# from the CCDC's data processing and validation procedures.
#
#######################################################################

data_TOXGAQ
_chemical_formula_moiety         'C29 H25 N1 O3'
_chemical_name_systematic        
'ethyl 3-(5-cyano-3,4,6-triphenyl-3,4-dihydro-2H-pyran-2-yl)acrylate'
_symmetry_cell_setting           triclinic
_symmetry_space_group_name_H-M   'P -1'
_symmetry_Int_Tables_number      2
_space_group_name_Hall           '-P 1'
loop_
_symmetry_equiv_pos_site_id
_symmetry_equiv_pos_as_xyz
1 x,y,z
2 -x,-y,-z
_cell_length_a                   9.4341(19)
_cell_length_b                   11.780(2)
_cell_length_c                   12.877(3)
_cell_angle_alpha                108.23(3)
_cell_angle_beta                 102.11(3)
_cell_angle_gamma                106.01(3)
_cell_volume                     1235.91
_cell_formula_units_Z            2
loop_
_atom_site_label
_atom_site_type_symbol
_atom_site_fract_x
_atom_site_fract_y
_atom_site_fract_z
O1 O 0.77654(15) 0.43849(11) 0.43109(11)
O2 O 0.8954(3) 0.06000(19) 0.24704(16)
O3 O 0.6709(3) -0.0068(2) 0.11092(17)
N1 N 0.6328(2) 0.73112(17) 0.70187(16)
C1 C 0.7373(2) 0.32865(16) 0.46387(16)
H1 H 0.6240 0.2912 0.4448
C2 C 0.8143(2) 0.37205(16) 0.59307(15)
H2 H 0.9269 0.4132 0.6105
C3 C 0.7574(2) 0.47323(16) 0.66152(16)
H3 H 0.6565 0.4270 0.6659
C4 C 0.7310(2) 0.55891(16) 0.59735(16)
C5 C 0.7457(2) 0.54133(16) 0.49215(17)
C6 C 0.7303(2) 0.62320(18) 0.42660(17)
C7 C 0.7828(2) 0.75656(18) 0.48098(19)
H4 H 0.8303 0.7970 0.5607
C8 C 0.7641(3) 0.8290(2) 0.4159(2)
H5 H 0.7988 0.9180 0.4523
C9 C 0.6948(3) 0.7700(3) 0.2980(2)
H6 H 0.6816 0.8190 0.2551
C10 C 0.6451(3) 0.6388(2) 0.2433(2)
H7 H 0.5995 0.5993 0.1633
C11 C 0.6629(2) 0.5650(2) 0.30727(19)
H8 H 0.6295 0.4761 0.2699
C12 C 0.6790(2) 0.65718(18) 0.65333(17)
C13 C 0.8678(3) 0.55104(18) 0.78433(17)
C14 C 1.0196(3) 0.6274(2) 0.8053(2)
H9 H 1.0534 0.6323 0.7435
C15 C 1.1228(4) 0.6972(3) 0.9177(3)
H10 H 1.2247 0.7484 0.9306
C16 C 1.0735(5) 0.6900(3) 1.0088(3)
H11 H 1.1422 0.7353 1.0840
C17 C 0.9251(5) 0.6171(4) 0.9895(3)
H12 H 0.8912 0.6143 1.0518
C18 C 0.8222(3) 0.5462(3) 0.8777(2)
H13 H 0.7209 0.4948 0.8660
C19 C 0.7877(2) 0.25843(16) 0.62835(15)
C20 C 0.6403(2) 0.18454(18) 0.61916(19)
H14 H 0.5556 0.2051 0.5915
C21 C 0.6166(3) 0.0807(2) 0.6504(2)
H15 H 0.5167 0.0333 0.6452
C22 C 0.7391(4) 0.0471(2) 0.6889(2)
H16 H 0.7225 -0.0237 0.7088
C23 C 0.8862(3) 0.1185(2) 0.69787(19)
H17 H 0.9699 0.0960 0.7237
C24 C 0.9103(2) 0.22389(19) 0.66862(17)
H18 H 1.0108 0.2725 0.6762
C25 C 0.7902(2) 0.23480(18) 0.39016(17)
H19 H 0.8904 0.2380 0.4206
C26 C 0.7084(3) 0.14924(19) 0.28741(19)
H20 H 0.6056 0.1408 0.2575
C27 C 0.7707(3) 0.0645(2) 0.2156(2)
C28 C 0.7080(12) -0.0820(7) 0.0136(8)
H21 H 0.8172 -0.0713 0.0363
H22 H 0.6856 -0.0560 -0.0504
C29 C 0.6049(9) -0.2199(5) -0.0194(5)
H23 H 0.6251 -0.2753 -0.0824
H24 H 0.4975 -0.2288 -0.0426
H25 H 0.6267 -0.2430 0.0457
C30? C 0.7295(17) -0.1055(10) 0.0447(12)
H26? H 0.6436 -0.1799 -0.0150
H27? H 0.7886 -0.1334 0.0962
C31? C 0.8356(14) -0.0311(8) -0.0090(9)
H28? H 0.8776 -0.0868 -0.0537
H29? H 0.9194 0.0420 0.0517
H30? H 0.7752 -0.0027 -0.0580
loop_
_geom_bond_atom_site_label_1
_geom_bond_atom_site_label_2
_geom_bond_site_symmetry_1
_geom_bond_site_symmetry_2
O1 C1 1_555 1_555
O2 C27 1_555 1_555
O3 C27 1_555 1_555
N1 C12 1_555 1_555
C1 H1 1_555 1_555
C2 C1 1_555 1_555
H2 C2 1_555 1_555
C3 C2 1_555 1_555
H3 C3 1_555 1_555
C4 C3 1_555 1_555
C5 O1 1_555 1_555
C6 C5 1_555 1_555
C7 C6 1_555 1_555
H4 C7 1_555 1_555
C8 C7 1_555 1_555
H5 C8 1_555 1_555
C9 C8 1_555 1_555
H6 C9 1_555 1_555
C10 C9 1_555 1_555
H7 C10 1_555 1_555
C11 C6 1_555 1_555
H8 C11 1_555 1_555
C12 C4 1_555 1_555
C13 C3 1_555 1_555
C14 C13 1_555 1_555
H9 C14 1_555 1_555
C15 C14 1_555 1_555
H10 C15 1_555 1_555
C16 C15 1_555 1_555
H11 C16 1_555 1_555
C17 C16 1_555 1_555
H12 C17 1_555 1_555
C18 C13 1_555 1_555
H13 C18 1_555 1_555
C19 C2 1_555 1_555
C20 C19 1_555 1_555
H14 C20 1_555 1_555
C21 C20 1_555 1_555
H15 C21 1_555 1_555
C22 C21 1_555 1_555
H16 C22 1_555 1_555
C23 C22 1_555 1_555
H17 C23 1_555 1_555
C24 C19 1_555 1_555
H18 C24 1_555 1_555
C25 C1 1_555 1_555
H19 C25 1_555 1_555
C26 C25 1_555 1_555
H20 C26 1_555 1_555
C27 C26 1_555 1_555
C28 O3 1_555 1_555
H21 C28 1_555 1_555
H22 C28 1_555 1_555
C29 C28 1_555 1_555
H23 C29 1_555 1_555
H24 C29 1_555 1_555
H25 C29 1_555 1_555
C4 C5 1_555 1_555
C10 C11 1_555 1_555
C17 C18 1_555 1_555
C23 C24 1_555 1_555

#END
