
#######################################################################
#
#                 Cambridge Crystallographic Data Centre
#                                CCDC 
#
#######################################################################
#
# If this CIF has been generated from an entry in the Cambridge 
# Structural Database, then it will include bibliographic, chemical, 
# crystal, experimental, refinement or atomic coordinate data resulting 
# from the CCDC's data processing and validation procedures.
#
#######################################################################

data_TOXYUC
_chemical_formula_moiety         'C20 H19 N1 O4'
_chemical_name_systematic        
2-(2-(2,3,4-trimethoxyphenyl)vinyl)quinolin-8-ol
_symmetry_cell_setting           monoclinic
_symmetry_space_group_name_H-M   'P 21/n'
_symmetry_Int_Tables_number      14
_space_group_name_Hall           '-P 2yn'
loop_
_symmetry_equiv_pos_site_id
_symmetry_equiv_pos_as_xyz
1 x,y,z
2 1/2-x,1/2+y,1/2-z
3 -x,-y,-z
4 1/2+x,1/2-y,1/2+z
_cell_length_a                   7.9893(2)
_cell_length_b                   12.4352(3)
_cell_length_c                   16.9068(4)
_cell_angle_alpha                90
_cell_angle_beta                 91.891(2)
_cell_angle_gamma                90
_cell_volume                     1678.75
_cell_formula_units_Z            4
loop_
_atom_site_label
_atom_site_type_symbol
_atom_site_fract_x
_atom_site_fract_y
_atom_site_fract_z
O1 O 0.86913(12) 0.81813(8) 0.00964(6)
H1 H 0.8133 0.7649 0.0243
O2 O -0.13608(12) 0.63284(8) 0.12263(6)
O3 O -0.23352(12) 0.47108(8) 0.22144(6)
O4 O -0.05843(13) 0.28888(8) 0.23510(6)
N1 N 0.54235(13) 0.76835(9) -0.00932(7)
C1 C 0.37967(17) 0.74539(11) -0.01514(8)
C2 C 0.26548(17) 0.81020(11) -0.06050(8)
H2 H 0.1504 0.7911 -0.0644
C3 C 0.32060(18) 0.89930(11) -0.09820(9)
H3 H 0.2443 0.9423 -0.1287
C4 C 0.49213(17) 0.92790(11) -0.09197(8)
C5 C 0.56115(19) 1.01997(11) -0.12734(9)
H4 H 0.4914 1.0679 -0.1572
C6 C 0.7292(2) 1.03963(12) -0.11819(9)
H5 H 0.7753 1.1010 -0.1428
C7 C 0.83534(19) 0.97130(12) -0.07328(9)
H6 H 0.9518 0.9863 -0.0682
C8 C 0.77007(17) 0.88307(11) -0.03689(8)
C9 C 0.59703(17) 0.85869(11) -0.04626(8)
C10 C 0.32583(18) 0.65070(11) 0.02866(8)
H7 H 0.4104 0.6035 0.0489
C11 C 0.16750(17) 0.62554(11) 0.04240(8)
H8 H 0.0831 0.6709 0.0197
C12 C 0.11201(17) 0.53402(11) 0.08948(8)
C13 C -0.03846(17) 0.54134(11) 0.12981(8)
C14 C -0.09144(17) 0.45852(11) 0.17785(8)
C15 C 0.00444(18) 0.36499(11) 0.18593(8)
C16 C 0.15143(18) 0.35516(11) 0.14504(9)
H9 H 0.2165 0.2914 0.1497
C17 C 0.20298(17) 0.43863(11) 0.09731(9)
H10 H 0.3031 0.4307 0.0691
C18 C -0.0998(2) 0.70928(12) 0.18461(10)
H11 H -0.1771 0.7703 0.1792
H12 H 0.0156 0.7349 0.1807
H13 H -0.1133 0.6748 0.2361
C19 C -0.38186(18) 0.43095(13) 0.18222(10)
H14 H -0.4780 0.4430 0.2156
H15 H -0.3694 0.3537 0.1724
H16 H -0.3999 0.4686 0.1317
C20 C 0.0414(2) 0.19644(12) 0.25234(11)
H17 H -0.0161 0.1503 0.2898
H18 H 0.1497 0.2189 0.2757
H19 H 0.0593 0.1564 0.2034
loop_
_geom_bond_atom_site_label_1
_geom_bond_atom_site_label_2
_geom_bond_site_symmetry_1
_geom_bond_site_symmetry_2
O1 H1 1_555 1_555
O2 C13 1_555 1_555
O3 C14 1_555 1_555
O4 C15 1_555 1_555
N1 C1 1_555 1_555
C1 C2 1_555 1_555
C2 H2 1_555 1_555
C3 C2 1_555 1_555
H3 C3 1_555 1_555
C4 C3 1_555 1_555
C5 C4 1_555 1_555
H4 C5 1_555 1_555
C6 C5 1_555 1_555
H5 C6 1_555 1_555
C7 C6 1_555 1_555
H6 C7 1_555 1_555
C8 O1 1_555 1_555
C9 N1 1_555 1_555
C10 C1 1_555 1_555
H7 C10 1_555 1_555
C11 C10 1_555 1_555
H8 C11 1_555 1_555
C12 C11 1_555 1_555
C13 C12 1_555 1_555
C14 C13 1_555 1_555
C15 C14 1_555 1_555
C16 C15 1_555 1_555
H9 C16 1_555 1_555
C17 C12 1_555 1_555
H10 C17 1_555 1_555
C18 O2 1_555 1_555
H11 C18 1_555 1_555
H12 C18 1_555 1_555
H13 C18 1_555 1_555
C19 O3 1_555 1_555
H14 C19 1_555 1_555
H15 C19 1_555 1_555
H16 C19 1_555 1_555
C20 O4 1_555 1_555
H17 C20 1_555 1_555
H18 C20 1_555 1_555
H19 C20 1_555 1_555
C4 C9 1_555 1_555
C7 C8 1_555 1_555
C8 C9 1_555 1_555
C16 C17 1_555 1_555

#END
