
#######################################################################
#
#                 Cambridge Crystallographic Data Centre
#                                CCDC 
#
#######################################################################
#
# If this CIF has been generated from an entry in the Cambridge 
# Structural Database, then it will include bibliographic, chemical, 
# crystal, experimental, refinement or atomic coordinate data resulting 
# from the CCDC's data processing and validation procedures.
#
#######################################################################

data_TOXZOX
_chemical_formula_moiety         'C25 H17 N1 O1'
_chemical_name_systematic        2-(2-(9-anthryl)vinyl)quinolin-8-ol
_symmetry_cell_setting           monoclinic
_symmetry_space_group_name_H-M   'P 21/n'
_symmetry_Int_Tables_number      14
_space_group_name_Hall           '-P 2yn'
loop_
_symmetry_equiv_pos_site_id
_symmetry_equiv_pos_as_xyz
1 x,y,z
2 1/2-x,1/2+y,1/2-z
3 -x,-y,-z
4 1/2+x,1/2-y,1/2+z
_cell_length_a                   13.7240(4)
_cell_length_b                   6.3041(2)
_cell_length_c                   20.3162(6)
_cell_angle_alpha                90
_cell_angle_beta                 92.356(2)
_cell_angle_gamma                90
_cell_volume                     1756.22
_cell_formula_units_Z            4
loop_
_atom_site_label
_atom_site_type_symbol
_atom_site_fract_x
_atom_site_fract_y
_atom_site_fract_z
C1 C 0.71670(9) 0.3186(2) 0.11286(7)
C2 C 0.63624(9) 0.3396(2) 0.06698(7)
C3 C 0.56980(9) 0.1792(2) 0.05918(7)
H1 H 0.5173 0.1930 0.0291
C4 C 0.58125(10) -0.0062(2) 0.09671(8)
H2 H 0.5358 -0.1147 0.0910
C5 C 0.65764(10) -0.0321(2) 0.14167(8)
H3 H 0.6634 -0.1565 0.1662
C6 C 0.72761(9) 0.1315(2) 0.15058(7)
C7 C 0.81083(10) 0.1212(2) 0.19404(7)
H4 H 0.8212 0.0028 0.2207
C8 C 0.87577(9) 0.2851(2) 0.19674(7)
H5 H 0.9310 0.2776 0.2248
C9 C 0.85906(9) 0.4670(2) 0.15674(7)
C10 C 0.92579(9) 0.6478(2) 0.15602(7)
H6 H 0.9116 0.7516 0.1245
C11 C 1.00450(9) 0.6813(2) 0.19520(7)
H7 H 1.0210 0.5807 0.2272
C12 C 1.06670(9) 0.8708(2) 0.18998(7)
C13 C 1.10023(9) 0.9370(2) 0.12820(7)
C14 C 1.09100(9) 0.8124(3) 0.06970(7)
H8 H 1.0599 0.6816 0.0712
C15 C 1.12631(10) 0.8794(3) 0.01183(8)
H9 H 1.1197 0.7934 -0.0253
C16 C 1.17314(11) 1.0790(3) 0.00736(8)
H10 H 1.1959 1.1244 -0.0328
C17 C 1.18476(10) 1.2029(3) 0.06114(8)
H11 H 1.2153 1.3339 0.0576
C18 C 1.15097(9) 1.1364(2) 0.12361(7)
C19 C 1.16922(9) 1.2566(2) 0.18032(7)
H12 H 1.1999 1.3874 0.1768
C20 C 1.14290(8) 1.1869(2) 0.24199(7)
C21 C 1.09065(8) 0.9901(2) 0.24746(7)
C22 C 1.06352(9) 0.9265(2) 0.31153(7)
H13 H 1.0269 0.8036 0.3161
C23 C 1.08990(10) 1.0416(2) 0.36622(7)
H14 H 1.0729 0.9942 0.4075
C24 C 1.14307(9) 1.2327(2) 0.36052(7)
H15 H 1.1615 1.3095 0.3981
C25 C 1.16704(9) 1.3037(2) 0.30053(7)
H16 H 1.2001 1.4319 0.2973
N1 N 0.78093(8) 0.48330(17) 0.11603(6)
O1 O 0.62680(8) 0.52221(17) 0.03175(5)
H17 H 0.6742(14) 0.594(3) 0.0437(10)
loop_
_geom_bond_atom_site_label_1
_geom_bond_atom_site_label_2
_geom_bond_site_symmetry_1
_geom_bond_site_symmetry_2
C1 C2 1_555 1_555
C2 C3 1_555 1_555
C3 H1 1_555 1_555
C4 C3 1_555 1_555
H2 C4 1_555 1_555
C5 C4 1_555 1_555
H3 C5 1_555 1_555
C6 C1 1_555 1_555
C7 C6 1_555 1_555
H4 C7 1_555 1_555
C8 C7 1_555 1_555
H5 C8 1_555 1_555
C9 C8 1_555 1_555
C10 C9 1_555 1_555
H6 C10 1_555 1_555
C11 C10 1_555 1_555
H7 C11 1_555 1_555
C12 C11 1_555 1_555
C13 C12 1_555 1_555
C14 C13 1_555 1_555
H8 C14 1_555 1_555
C15 C14 1_555 1_555
H9 C15 1_555 1_555
C16 C15 1_555 1_555
H10 C16 1_555 1_555
C17 C16 1_555 1_555
H11 C17 1_555 1_555
C18 C13 1_555 1_555
C19 C18 1_555 1_555
H12 C19 1_555 1_555
C20 C19 1_555 1_555
C21 C12 1_555 1_555
C22 C21 1_555 1_555
H13 C22 1_555 1_555
C23 C22 1_555 1_555
H14 C23 1_555 1_555
C24 C23 1_555 1_555
H15 C24 1_555 1_555
C25 C20 1_555 1_555
H16 C25 1_555 1_555
N1 C1 1_555 1_555
O1 C2 1_555 1_555
H17 O1 1_555 1_555
C5 C6 1_555 1_555
C9 N1 1_555 1_555
C17 C18 1_555 1_555
C20 C21 1_555 1_555
C24 C25 1_555 1_555

#END
