
#######################################################################
#
#                 Cambridge Crystallographic Data Centre
#                                CCDC 
#
#######################################################################
#
# If this CIF has been generated from an entry in the Cambridge 
# Structural Database, then it will include bibliographic, chemical, 
# crystal, experimental, refinement or atomic coordinate data resulting 
# from the CCDC's data processing and validation procedures.
#
#######################################################################

data_TOYBIS
_chemical_formula_moiety         'C4 H4 S1,2(C33 H36 O6)'
_chemical_name_systematic        'bis(Tri-o-thymotide) thiophene clathrate'
_symmetry_cell_setting           trigonal
_symmetry_space_group_name_H-M   'P 31 2 1'
_symmetry_Int_Tables_number      152
_space_group_name_Hall           'P 31 2"'
loop_
_symmetry_equiv_pos_site_id
_symmetry_equiv_pos_as_xyz
1 x,y,z
2 -y,x-y,1/3+z
3 y,x,-z
4 -x+y,-x,2/3+z
5 -x,-x+y,1/3-z
6 x-y,-y,2/3-z
_cell_length_a                   13.585(4)
_cell_length_b                   13.585(4)
_cell_length_c                   29.914(12)
_cell_angle_alpha                90
_cell_angle_beta                 90
_cell_angle_gamma                120
_cell_volume                     4781.06
_exptl_crystal_colour            'pale yellow'
_cell_formula_units_Z            3
loop_
_atom_site_label
_atom_site_type_symbol
_atom_site_fract_x
_atom_site_fract_y
_atom_site_fract_z
O1 O 0.3491(1) 0.0070(1) 0.0632(1)
O2 O 0.5828(2) 0.1091(1) 0.0737(1)
O3 O 0.5164(1) 0.1765(2) -0.0046(1)
O4 O 0.3141(2) 0.0956(2) 0.1190(1)
O5 O 0.6532(2) 0.2711(2) 0.1124(1)
O6 O 0.4734(3) 0.2833(3) 0.0402(2)
C1 C 0.3228(2) 0.1130(2) 0.0060(1)
C2 C 0.2759(2) 0.0183(2) 0.0332(1)
C3 C 0.1644(2) -0.0698(2) 0.0293(1)
C4 C 0.1033(3) -0.0566(3) -0.0050(1)
C5 C 0.1475(3) 0.0354(3) -0.0326(1)
C6 C 0.2583(3) 0.1239(3) -0.0277(1)
C7 C 0.3040(3) 0.2274(3) -0.0572(1)
C8 C 0.1134(3) -0.1691(3) 0.0605(1)
C9 C 0.0361(4) -0.1571(4) 0.0940(1)
C10 C 0.0505(3) -0.2814(3) 0.0357(2)
C11 C 0.3629(2) 0.0483(2) 0.1054(1)
C12 C 0.4381(2) 0.0192(2) 0.1307(1)
C13 C 0.5450(2) 0.0471(2) 0.1143(1)
C14 C 0.6149(2) 0.0132(2) 0.1343(1)
C15 C 0.5727(3) -0.0517(3) 0.1730(1)
C16 C 0.4690(3) -0.0781(3) 0.1904(1)
C17 C 0.3996(3) -0.0438(2) 0.1704(1)
C18 C 0.2855(3) -0.0772(3) 0.1903(1)
C19 C 0.7290(3) 0.0407(3) 0.1151(1)
C20 C 0.8251(3) 0.1090(5) 0.1470(2)
C21 C 0.7270(4) -0.0679(4) 0.1012(2)
C22 C 0.6415(2) 0.2245(2) 0.0775(1)
C23 C 0.6950(2) 0.2811(2) 0.0350(1)
C24 C 0.6330(2) 0.2607(2) -0.0042(1)
C25 C 0.6794(2) 0.3146(2) -0.0442(1)
C26 C 0.7949(3) 0.3926(3) -0.0435(1)
C27 C 0.8587(3) 0.4148(3) -0.0056(1)
C28 C 0.8123(2) 0.3612(2) 0.0343(1)
C29 C 0.8872(3) 0.3861(3) 0.0743(1)
C30 C 0.6102(3) 0.2908(3) -0.0867(1)
C31 C 0.6244(5) 0.3988(4) -0.1072(1)
C32 C 0.6408(4) 0.2264(4) -0.1207(1)
C33 C 0.4422(2) 0.2024(2) 0.0135(1)
H1 H 0.0283(3) -0.1134(3) -0.0094(1)
H2 H 0.1024(3) 0.0391(3) -0.0551(1)
H3 H 0.3453(16) 0.2946(3) -0.0393(2)
H4 H 0.2420(4) 0.2292(10) -0.0718(6)
H5 H 0.3538(15) 0.2245(10) -0.0792(5)
H6 H 0.1756(3) -0.1687(3) 0.0772(1)
H7 H 0.0136(19) -0.2145(15) 0.1166(5)
H8 H -0.0302(12) -0.1657(23) 0.0790(2)
H9 H 0.0760(8) -0.0833(10) 0.1077(7)
H10 H 0.0198(19) -0.3428(3) 0.0569(2)
H11 H 0.1022(6) -0.2891(10) 0.0161(7)
H12 H -0.0101(15) -0.2834(10) 0.0185(7)
H13 H 0.6160(3) -0.0777(3) 0.1875(1)
H14 H 0.4445(3) -0.1207(3) 0.2165(1)
H15 H 0.2340(6) -0.0839(18) 0.1669(1)
H16 H 0.2934(4) -0.0201(10) 0.2112(6)
H17 H 0.2564(9) -0.1487(10) 0.2054(6)
H18 H 0.7420(3) 0.0867(3) 0.0882(1)
H19 H 0.8963(3) 0.1365(21) 0.1318(3)
H20 H 0.8212(15) 0.0618(8) 0.1716(5)
H21 H 0.8191(15) 0.1722(15) 0.1580(8)
H22 H 0.6701(17) -0.1059(13) 0.0786(7)
H23 H 0.7097(25) -0.1168(11) 0.1267(3)
H24 H 0.8000(8) -0.0495(4) 0.0895(9)
H25 H 0.8301(3) 0.4311(3) -0.0697(1)
H26 H 0.9359(3) 0.4678(3) -0.0068(1)
H27 H 0.8707(15) 0.3160(3) 0.0884(5)
H28 H 0.8735(16) 0.4319(18) 0.0950(4)
H29 H 0.9653(3) 0.4262(19) 0.0651(2)
H30 H 0.5298(3) 0.2424(3) -0.0789(1)
H31 H 0.5735(18) 0.3802(4) -0.1321(6)
H32 H 0.7013(8) 0.4452(11) -0.1173(9)
H33 H 0.6074(24) 0.4396(13) -0.0852(3)
H34 H 0.5893(14) 0.2039(19) -0.1455(4)
H35 H 0.6352(21) 0.1601(12) -0.1068(3)
H36 H 0.7171(8) 0.2748(8) -0.1310(6)
O7? O 0.4677(5) 0.2996(5) 0.0205(3)
S1? S 0.5490(14) 0.5509(15) -0.0178(6)
C34? C 0.6704(27) 0.5691(32) 0.0097(10)
C35? C 0.7376(22) 0.6800(35) 0.0243(11)
C36? C 0.6884(32) 0.7481(21) 0.0128(11)
C37? C 0.5872(32) 0.6906(22) -0.0099(11)
S2? S 0.7237(7) 0.7564(6) -0.0081(5)
C38? C 0.5759(11) 0.6569(12) -0.0147(4)
C39? C 0.5441(9) 0.5441(9) 0.0000(1)
C40? C 0.6486(12) 0.5486(12) 0.0163(4)
C41? C 0.7439(13) 0.6539(12) 0.0132
S3? S 0.5413(15) 0.6030(20) -0.0047(8)
C42? C 0.6526(25) 0.5747(25) -0.0102(11)
C43? C 0.7566(23) 0.6677(36) 0.0005(13)
C44? C 0.7444(24) 0.7616(29) 0.0133(14)
C45? C 0.6340(26) 0.7382(20) 0.0119(12)
S4? S 0.7196(16) 0.6187(18) 0.0133(8)
C46? C 0.5774(17) 0.5774(17) 0.0000(1)
C47? C 0.5594(25) 0.6691(23) -0.0046(9)
C48? C 0.6640(27) 0.7698(21) 0.0030(12)
C49? C 0.7552(23) 0.7582(19) 0.0127(10)
H37? H 0.6878(27) 0.5117(32) 0.0139(10)
H38? H 0.8057(22) 0.7066(35) 0.0397(11)
H39? H 0.7220(32) 0.8248(21) 0.0200(11)
H40? H 0.5449(32) 0.7231(22) -0.0196(11)
H41? H 0.5244(11) 0.6762(12) 0.0265(4)
H42? H 0.4717(9) 0.4806(9) -0.0006(1)
H43? H 0.6498(12) 0.4856(12) 0.0277(4)
H44? H 0.8151(13) 0.6675(12) 0.0223(6)
H45? H 0.6431(25) 0.5051(25) -0.0194(11)
H46? H 0.8255(23) 0.6686(36) -0.0005(13)
H47? H 0.8050(24) 0.8317(29) 0.0218(14)
H48? H 0.6119(26) 0.7909(20) 0.0192(12)
H49? H 0.5204(17) 0.5021(17) -0.0035(1)
H50? H 0.4906(25) 0.6648(23) -0.0115(9)
H51? H 0.6699(27) 0.8410(21) 0.0014(12)
H52? H 0.8278(23) 0.8185(19) 0.0184(10)
loop_
_geom_bond_atom_site_label_1
_geom_bond_atom_site_label_2
_geom_bond_site_symmetry_1
_geom_bond_site_symmetry_2
O1 C2 1_555 1_555
O2 C13 1_555 1_555
O3 C24 1_555 1_555
O4 C11 1_555 1_555
O5 C22 1_555 1_555
O6 C33 1_555 1_555
C1 C2 1_555 1_555
C2 C3 1_555 1_555
C3 C4 1_555 1_555
C4 C5 1_555 1_555
C5 C6 1_555 1_555
C6 C1 1_555 1_555
C7 C6 1_555 1_555
C8 C3 1_555 1_555
C9 C8 1_555 1_555
C10 C8 1_555 1_555
C11 O1 1_555 1_555
C12 C11 1_555 1_555
C13 C12 1_555 1_555
C14 C13 1_555 1_555
C15 C14 1_555 1_555
C16 C15 1_555 1_555
C17 C12 1_555 1_555
C18 C17 1_555 1_555
C19 C14 1_555 1_555
C20 C19 1_555 1_555
C21 C19 1_555 1_555
C22 O2 1_555 1_555
C23 C22 1_555 1_555
C24 C23 1_555 1_555
C25 C24 1_555 1_555
C26 C25 1_555 1_555
C27 C26 1_555 1_555
C28 C23 1_555 1_555
C29 C28 1_555 1_555
C30 C25 1_555 1_555
C31 C30 1_555 1_555
C32 C30 1_555 1_555
C33 O3 1_555 1_555
H1 C4 1_555 1_555
H2 C5 1_555 1_555
H3 C7 1_555 1_555
H4 C7 1_555 1_555
H5 C7 1_555 1_555
H6 C8 1_555 1_555
H7 C9 1_555 1_555
H8 C9 1_555 1_555
H9 C9 1_555 1_555
H10 C10 1_555 1_555
H11 C10 1_555 1_555
H12 C10 1_555 1_555
H13 C15 1_555 1_555
H14 C16 1_555 1_555
H15 C18 1_555 1_555
H16 C18 1_555 1_555
H17 C18 1_555 1_555
H18 C19 1_555 1_555
H19 C20 1_555 1_555
H20 C20 1_555 1_555
H21 C20 1_555 1_555
H22 C21 1_555 1_555
H23 C21 1_555 1_555
H24 C21 1_555 1_555
H25 C26 1_555 1_555
H26 C27 1_555 1_555
H27 C29 1_555 1_555
H28 C29 1_555 1_555
H29 C29 1_555 1_555
H30 C30 1_555 1_555
H31 C31 1_555 1_555
H32 C31 1_555 1_555
H33 C31 1_555 1_555
H34 C32 1_555 1_555
H35 C32 1_555 1_555
H36 C32 1_555 1_555
C1 C33 1_555 1_555
C16 C17 1_555 1_555
C27 C28 1_555 1_555

#END
