
#######################################################################
#
#                 Cambridge Crystallographic Data Centre
#                                CCDC 
#
#######################################################################
#
# If this CIF has been generated from an entry in the Cambridge 
# Structural Database, then it will include bibliographic, chemical, 
# crystal, experimental, refinement or atomic coordinate data resulting 
# from the CCDC's data processing and validation procedures.
#
#######################################################################

data_TOYCIV
_chemical_formula_moiety         'C20 H14 N4 S1,C1 H1 Cl3'
_chemical_name_systematic        
'1-allyl-2-(2-thienyl)-1H-imidazo[4,5-f][1,10]phenanthroline chloroform solvate'
_symmetry_cell_setting           triclinic
_symmetry_space_group_name_H-M   'P -1'
_symmetry_Int_Tables_number      2
_space_group_name_Hall           '-P 1'
loop_
_symmetry_equiv_pos_site_id
_symmetry_equiv_pos_as_xyz
1 x,y,z
2 -x,-y,-z
_cell_length_a                   9.1564(5)
_cell_length_b                   10.8019(6)
_cell_length_c                   12.5480(6)
_cell_angle_alpha                72.7980(10)
_cell_angle_beta                 69.2840(10)
_cell_angle_gamma                67.7280(10)
_cell_volume                     1055.33
_exptl_crystal_colour            colorless
_exptl_crystal_description       block
_cell_formula_units_Z            2
loop_
_atom_site_label
_atom_site_type_symbol
_atom_site_fract_x
_atom_site_fract_y
_atom_site_fract_z
C1 C 0.7021(4) -0.0052(3) 0.6538(3)
H1 H 0.7902 -0.0580 0.6844
C2 C 0.7299(4) 0.0897(3) 0.5537(3)
H2 H 0.8328 0.1020 0.5200
C3 C 0.6032(3) 0.1656(3) 0.5048(3)
H3 H 0.6192 0.2301 0.4374
C4 C 0.4488(3) 0.1449(3) 0.5576(2)
C5 C 0.3052(3) 0.2127(3) 0.5155(2)
C6 C 0.1567(3) 0.1910(3) 0.5760(2)
C7 C 0.1345(3) 0.0985(3) 0.6841(2)
C8 C -0.0163(4) 0.0769(4) 0.7488(3)
H4 H -0.1103 0.1263 0.7240
C9 C -0.0229(5) -0.0174(4) 0.8484(3)
H5 H -0.1211 -0.0348 0.8927
C10 C 0.1207(5) -0.0876(4) 0.8828(3)
H6 H 0.1149 -0.1531 0.9505
C11 C 0.2726(3) 0.0252(3) 0.7267(2)
C12 C 0.4311(3) 0.0486(3) 0.6628(2)
C13 C 0.1176(3) 0.3330(3) 0.4216(2)
C14 C 0.0399(3) 0.4254(3) 0.3327(3)
C15 C 0.0579(4) 0.5472(3) 0.2658(3)
H7 H 0.1291 0.5872 0.2699
C16 C -0.0437(5) 0.6054(4) 0.1900(4)
H8 H -0.0467 0.6879 0.1385
C17 C -0.1344(5) 0.5293(5) 0.2004(4)
H9 H -0.2083 0.5530 0.1571
C18 C 0.4036(3) 0.3432(3) 0.3120(2)
H10 H 0.3624 0.3663 0.2450
H11 H 0.5013 0.2649 0.3018
C19 C 0.4507(4) 0.4593(3) 0.3145(3)
H12 H 0.5338 0.4826 0.2519
C20 C 0.3880(6) 0.5307(4) 0.3947(5)
H13 H 0.3045 0.5113 0.4591
H14 H 0.4260 0.6018 0.3883
N1 N 0.5583(3) -0.0260(2) 0.7091(2)
N2 N 0.2646(3) -0.0679(3) 0.8260(2)
N3 N 0.2803(3) 0.3043(2) 0.41489(18)
N4 N 0.0392(3) 0.2662(3) 0.5172(2)
S1 S -0.10155(13) 0.38332(14) 0.30165(9)
C21 C 0.5253(5) 0.7837(4) -0.0150(3)
H15 H 0.4815 0.8577 -0.0737
Cl1 Cl 0.4245(2) 0.66247(14) 0.02385(13)
Cl2 Cl 0.48982(17) 0.85043(12) 0.10630(9)
Cl3 Cl 0.73407(16) 0.71381(16) -0.07282(10)
loop_
_geom_bond_atom_site_label_1
_geom_bond_atom_site_label_2
_geom_bond_site_symmetry_1
_geom_bond_site_symmetry_2
C1 H1 1_555 1_555
C2 C1 1_555 1_555
H2 C2 1_555 1_555
C3 C2 1_555 1_555
H3 C3 1_555 1_555
C4 C3 1_555 1_555
C5 C4 1_555 1_555
C6 C5 1_555 1_555
C7 C6 1_555 1_555
C8 C7 1_555 1_555
H4 C8 1_555 1_555
C9 C8 1_555 1_555
H5 C9 1_555 1_555
C10 C9 1_555 1_555
H6 C10 1_555 1_555
C11 C7 1_555 1_555
C12 C4 1_555 1_555
C13 C14 1_555 1_555
C14 C15 1_555 1_555
C15 H7 1_555 1_555
C16 C15 1_555 1_555
H8 C16 1_555 1_555
C17 C16 1_555 1_555
H9 C17 1_555 1_555
C18 H10 1_555 1_555
H11 C18 1_555 1_555
C19 C18 1_555 1_555
H12 C19 1_555 1_555
C20 C19 1_555 1_555
H13 C20 1_555 1_555
H14 C20 1_555 1_555
N1 C1 1_555 1_555
N2 C10 1_555 1_555
N3 C5 1_555 1_555
N4 C6 1_555 1_555
S1 C14 1_555 1_555
C21 H15 1_555 1_555
Cl1 C21 1_555 1_555
Cl2 C21 1_555 1_555
Cl3 C21 1_555 1_555
C11 C12 1_555 1_555
C11 N2 1_555 1_555
C12 N1 1_555 1_555
C13 N3 1_555 1_555
C13 N4 1_555 1_555
C17 S1 1_555 1_555
C18 N3 1_555 1_555

#END
