
#######################################################################
#
#                 Cambridge Crystallographic Data Centre
#                                CCDC 
#
#######################################################################
#
# If this CIF has been generated from an entry in the Cambridge 
# Structural Database, then it will include bibliographic, chemical, 
# crystal, experimental, refinement or atomic coordinate data resulting 
# from the CCDC's data processing and validation procedures.
#
#######################################################################

data_TOYDES
_chemical_formula_moiety         'C30 H26 N4 O2 S1,C1 H1 Cl3,0.5(C2 H6 O1)'
_chemical_name_systematic        
'ethyl 4-(5-(1-butyl-1H-imidazo[4,5-f][1,10]phenanthrolin-2-yl)-2-thienyl)benzoate chloroform ethanol solvate'
_symmetry_cell_setting           triclinic
_symmetry_space_group_name_H-M   'P -1'
_symmetry_Int_Tables_number      2
_space_group_name_Hall           '-P 1'
loop_
_symmetry_equiv_pos_site_id
_symmetry_equiv_pos_as_xyz
1 x,y,z
2 -x,-y,-z
_cell_length_a                   13.859(7)
_cell_length_b                   14.839(7)
_cell_length_c                   15.848(8)
_cell_angle_alpha                74.914(10)
_cell_angle_beta                 84.666(9)
_cell_angle_gamma                87.572(10)
_cell_volume                     3132.69
_exptl_crystal_colour            yellow
_exptl_crystal_description       block
_cell_formula_units_Z            4
loop_
_atom_site_label
_atom_site_type_symbol
_atom_site_fract_x
_atom_site_fract_y
_atom_site_fract_z
C31 C -0.2600(4) 0.3545(4) 0.2816(4)
H27 H -0.3034 0.3525 0.2408
C32 C -0.1634(4) 0.3681(4) 0.2524(3)
H28 H -0.1424 0.3750 0.1936
C33 C -0.0993(4) 0.3713(3) 0.3122(3)
H29 H -0.0340 0.3808 0.2940
C34 C -0.1316(3) 0.3602(3) 0.4008(3)
C35 C -0.0738(3) 0.3626(3) 0.4708(3)
C36 C -0.1127(3) 0.3519(3) 0.5555(3)
C37 C -0.2134(3) 0.3355(3) 0.5799(3)
C38 C -0.2551(4) 0.3188(4) 0.6670(3)
H30 H -0.2172 0.3181 0.7126
C39 C -0.3522(4) 0.3036(5) 0.6829(4)
H31 H -0.3814 0.2907 0.7399
C40 C -0.4066(4) 0.3076(4) 0.6133(4)
H32 H -0.4732 0.3004 0.6250
C41 C -0.2736(3) 0.3350(3) 0.5153(3)
C42 C -0.2322(4) 0.3471(3) 0.4235(3)
C43 C 0.0377(3) 0.3733(3) 0.5572(3)
C44 C 0.1022(4) 0.3631(6) 0.4066(4)
H33 H 0.1580 0.3361 0.4376
H34 H 0.0810 0.3174 0.3786
C45 C 0.1328(5) 0.4390(6) 0.3422(4)
H35 H 0.1646 0.4811 0.3680
H36 H 0.0769 0.4718 0.3151
C46 C 0.2050(5) 0.4120(5) 0.2694(4)
H37 H 0.2552 0.3704 0.2974
H38 H 0.1702 0.3787 0.2370
C47 C 0.2506(6) 0.4948(6) 0.2076(5)
H39 H 0.2013 0.5351 0.1781
H40 H 0.2947 0.4751 0.1653
H41 H 0.2853 0.5279 0.2394
C48 C 0.1277(4) 0.3873(3) 0.5919(3)
C49 C 0.2176(4) 0.4138(3) 0.5537(3)
H42 H 0.2335 0.4271 0.4935
C50 C 0.2832(4) 0.4189(4) 0.6128(3)
H43 H 0.3472 0.4364 0.5962
C51 C 0.2443(3) 0.3958(3) 0.6986(3)
C52 C 0.2939(4) 0.3897(3) 0.7776(3)
C53 C 0.3909(4) 0.4116(4) 0.7716(3)
H44 H 0.4243 0.4316 0.7166
C54 C 0.4386(4) 0.4044(4) 0.8448(3)
H45 H 0.5037 0.4199 0.8386
C55 C 0.3922(5) 0.3745(4) 0.9277(3)
C56 C 0.2958(5) 0.3559(4) 0.9337(4)
H46 H 0.2624 0.3380 0.9889
C57 C 0.2468(4) 0.3627(4) 0.8613(4)
H47 H 0.1812 0.3491 0.8682
C58 C 0.4429(6) 0.3640(4) 1.0085(4)
C59 C 0.5903(5) 0.3717(5) 1.0674(4)
H48 H 0.5833 0.3089 1.1049
H49 H 0.5674 0.4156 1.1011
C60 C 0.6942(6) 0.3895(6) 1.0329(4)
H50 H 0.7146 0.3481 0.9968
H51 H 0.7340 0.3788 1.0811
H52 H 0.7005 0.4530 0.9986
N5 N -0.2946(3) 0.3439(3) 0.3651(3)
N6 N -0.3701(3) 0.3210(3) 0.5310(3)
N7 N 0.0237(3) 0.3760(3) 0.4727(2)
N8 N -0.0436(3) 0.3586(3) 0.6092(2)
O3 O 0.4019(4) 0.3401(4) 1.0818(3)
O4 O 0.5361(4) 0.3839(3) 0.9913(2)
S2 S 0.12482(9) 0.36701(10) 0.70425(8)
C61 C 0.1550(4) 0.8386(5) 0.0551(3)
H53 H 0.1523 0.8293 -0.0037
Cl1 Cl 0.08361(14) 0.75411(13) 0.12958(12)
Cl2 Cl 0.10704(16) 0.94830(14) 0.05516(11)
Cl3 Cl 0.27469(14) 0.82617(19) 0.08050(12)
C62 C 0.4781(4) 0.3248(5) 0.3938(4)
H54 H 0.5454 0.3148 0.4086
Cl4 Cl 0.46972(13) 0.31558(18) 0.28807(12)
Cl5 Cl 0.40346(17) 0.24401(18) 0.46919(14)
Cl6 Cl 0.43563(13) 0.43802(16) 0.40233(12)
C1 C -0.3067(4) 0.1264(4) 0.1750(4)
H1 H -0.3468 0.1288 0.1306
C2 C -0.3485(4) 0.1072(4) 0.2611(4)
H2 H -0.4145 0.0962 0.2737
C3 C -0.2901(4) 0.1050(4) 0.3261(3)
H3 H -0.3163 0.0928 0.3840
C4 C -0.1913(4) 0.1209(3) 0.3063(3)
C5 C -0.1208(4) 0.1230(3) 0.3671(3)
C6 C -0.0243(4) 0.1372(3) 0.3410(3)
C7 C 0.0143(4) 0.1526(3) 0.2506(3)
C8 C 0.1118(4) 0.1648(4) 0.2225(3)
H4 H 0.1575 0.1639 0.2622
C9 C 0.1390(4) 0.1780(4) 0.1351(4)
H5 H 0.2038 0.1870 0.1141
C10 C 0.0693(5) 0.1780(4) 0.0784(3)
H6 H 0.0895 0.1854 0.0195
C11 C -0.0528(4) 0.1537(3) 0.1889(3)
C12 C -0.1556(4) 0.1392(3) 0.2165(3)
C13 C -0.0364(4) 0.1198(3) 0.4796(3)
C14 C -0.2188(4) 0.1085(4) 0.5159(3)
H7 H -0.2698 0.1442 0.4833
H8 H -0.2071 0.1374 0.5623
C15 C -0.2516(4) 0.0110(4) 0.5557(4)
H9 H -0.1980 -0.0266 0.5822
H10 H -0.2709 -0.0152 0.5100
C16 C -0.3390(6) 0.0065(6) 0.6274(5)
H11 H -0.3488 -0.0583 0.6588
H12 H -0.3213 0.0391 0.6692
C17 C -0.4265(7) 0.0442(9) 0.5962(7)
H13 H -0.4192 0.1096 0.5685
H14 H -0.4757 0.0362 0.6442
H15 H -0.4450 0.0129 0.5544
C18 C -0.0071(3) 0.1130(3) 0.5660(3)
C19 C -0.0524(4) 0.0887(4) 0.6484(3)
H16 H -0.1174 0.0729 0.6596
C20 C 0.0063(4) 0.0895(4) 0.7141(3)
H17 H -0.0153 0.0748 0.7733
C21 C 0.0999(4) 0.1145(3) 0.6828(3)
C22 C 0.1812(4) 0.1217(3) 0.7327(3)
C23 C 0.2722(4) 0.1503(4) 0.6922(3)
H18 H 0.2818 0.1658 0.6314
C24 C 0.3482(4) 0.1561(4) 0.7403(3)
H19 H 0.4081 0.1761 0.7116
C25 C 0.3367(4) 0.1328(4) 0.8304(3)
C26 C 0.2471(4) 0.1033(4) 0.8702(3)
H20 H 0.2382 0.0869 0.9311
C27 C 0.1708(4) 0.0972(4) 0.8239(3)
H21 H 0.1114 0.0767 0.8533
C28 C 0.4200(4) 0.1404(4) 0.8797(4)
C29 C 0.4726(4) 0.1167(5) 1.0237(4)
H22 H 0.4985 0.1790 1.0109
H23 H 0.5251 0.0737 1.0153
C30 C 0.4278(5) 0.0890(6) 1.1147(4)
H24 H 0.3757 0.1318 1.1220
H25 H 0.4756 0.0902 1.1545
H26 H 0.4031 0.0271 1.1267
N1 N -0.2144(3) 0.1411(3) 0.1533(3)
N2 N -0.0246(4) 0.1681(3) 0.1024(2)
N3 N -0.1290(3) 0.1118(3) 0.4564(2)
N4 N 0.0288(3) 0.1342(3) 0.4105(2)
O1 O 0.4993(3) 0.1642(3) 0.8478(3)
O2 O 0.3974(2) 0.1146(3) 0.9666(3)
S1 S 0.11200(9) 0.13735(9) 0.57107(7)
C63? C -0.0190(8) 0.4061(7) 1.0077(9)
H55? H -0.0108 0.3396 1.0132
H56? H -0.0846 0.4153 1.0316
C64? C 0.0082(9) 0.4633(9) 0.9208(7)
H57? H -0.0397 0.5119 0.9048
H58? H 0.0123 0.4255 0.8798
H59? H 0.0700 0.4905 0.9201
O5? O 0.0553(6) 0.4308(9) 1.0704(6)
H60? H 0.0409 0.3977 1.1222
loop_
_geom_bond_atom_site_label_1
_geom_bond_atom_site_label_2
_geom_bond_site_symmetry_1
_geom_bond_site_symmetry_2
C1 H1 1_555 1_555
C2 C1 1_555 1_555
H2 C2 1_555 1_555
C3 C2 1_555 1_555
H3 C3 1_555 1_555
C4 C3 1_555 1_555
C5 C4 1_555 1_555
C6 C5 1_555 1_555
C7 C6 1_555 1_555
C8 C7 1_555 1_555
H4 C8 1_555 1_555
C9 C8 1_555 1_555
H5 C9 1_555 1_555
C10 C9 1_555 1_555
H6 C10 1_555 1_555
C11 C7 1_555 1_555
C12 C4 1_555 1_555
C13 C18 1_555 1_555
C14 H7 1_555 1_555
H8 C14 1_555 1_555
C15 C14 1_555 1_555
H9 C15 1_555 1_555
H10 C15 1_555 1_555
C16 C15 1_555 1_555
H11 C16 1_555 1_555
H12 C16 1_555 1_555
C17 C16 1_555 1_555
H13 C17 1_555 1_555
H14 C17 1_555 1_555
H15 C17 1_555 1_555
C18 C19 1_555 1_555
C19 H16 1_555 1_555
C20 C19 1_555 1_555
H17 C20 1_555 1_555
C21 C20 1_555 1_555
C22 C21 1_555 1_555
C23 C22 1_555 1_555
H18 C23 1_555 1_555
C24 C23 1_555 1_555
H19 C24 1_555 1_555
C25 C24 1_555 1_555
C26 C25 1_555 1_555
H20 C26 1_555 1_555
C27 C22 1_555 1_555
H21 C27 1_555 1_555
C28 C25 1_555 1_555
C29 H22 1_555 1_555
H23 C29 1_555 1_555
C30 C29 1_555 1_555
H24 C30 1_555 1_555
H25 C30 1_555 1_555
H26 C30 1_555 1_555
N1 C1 1_555 1_555
N2 C10 1_555 1_555
N3 C5 1_555 1_555
N4 C6 1_555 1_555
O1 C28 1_555 1_555
O2 C28 1_555 1_555
S1 C18 1_555 1_555
C31 H27 1_555 1_555
C32 C31 1_555 1_555
H28 C32 1_555 1_555
C33 C32 1_555 1_555
H29 C33 1_555 1_555
C34 C33 1_555 1_555
C35 C34 1_555 1_555
C36 C35 1_555 1_555
C37 C36 1_555 1_555
C38 C37 1_555 1_555
H30 C38 1_555 1_555
C39 C38 1_555 1_555
H31 C39 1_555 1_555
C40 C39 1_555 1_555
H32 C40 1_555 1_555
C41 C37 1_555 1_555
C42 C34 1_555 1_555
C43 C48 1_555 1_555
C44 H33 1_555 1_555
H34 C44 1_555 1_555
C45 C44 1_555 1_555
H35 C45 1_555 1_555
H36 C45 1_555 1_555
C46 C45 1_555 1_555
H37 C46 1_555 1_555
H38 C46 1_555 1_555
C47 C46 1_555 1_555
H39 C47 1_555 1_555
H40 C47 1_555 1_555
H41 C47 1_555 1_555
C48 C49 1_555 1_555
C49 H42 1_555 1_555
C50 C49 1_555 1_555
H43 C50 1_555 1_555
C51 C50 1_555 1_555
C52 C51 1_555 1_555
C53 C52 1_555 1_555
H44 C53 1_555 1_555
C54 C53 1_555 1_555
H45 C54 1_555 1_555
C55 C54 1_555 1_555
C56 C55 1_555 1_555
H46 C56 1_555 1_555
C57 C52 1_555 1_555
H47 C57 1_555 1_555
C58 C55 1_555 1_555
C59 H48 1_555 1_555
H49 C59 1_555 1_555
C60 C59 1_555 1_555
H50 C60 1_555 1_555
H51 C60 1_555 1_555
H52 C60 1_555 1_555
N5 C31 1_555 1_555
N6 C40 1_555 1_555
N7 C35 1_555 1_555
N8 C36 1_555 1_555
O3 C58 1_555 1_555
O4 C58 1_555 1_555
S2 C48 1_555 1_555
C61 H53 1_555 1_555
Cl1 C61 1_555 1_555
Cl2 C61 1_555 1_555
Cl3 C61 1_555 1_555
C62 H54 1_555 1_555
Cl4 C62 1_555 1_555
Cl5 C62 1_555 1_555
Cl6 C62 1_555 1_555
C11 C12 1_555 1_555
C11 N2 1_555 1_555
C12 N1 1_555 1_555
C13 N3 1_555 1_555
C13 N4 1_555 1_555
C14 N3 1_555 1_555
C21 S1 1_555 1_555
C26 C27 1_555 1_555
C29 O2 1_555 1_555
C41 C42 1_555 1_555
C41 N6 1_555 1_555
C42 N5 1_555 1_555
C43 N7 1_555 1_555
C43 N8 1_555 1_555
C44 N7 1_555 1_555
C51 S2 1_555 1_555
C56 C57 1_555 1_555
C59 O4 1_555 1_555

#END
