
#######################################################################
#
#                 Cambridge Crystallographic Data Centre
#                                CCDC 
#
#######################################################################
#
# If this CIF has been generated from an entry in the Cambridge 
# Structural Database, then it will include bibliographic, chemical, 
# crystal, experimental, refinement or atomic coordinate data resulting 
# from the CCDC's data processing and validation procedures.
#
#######################################################################

data_TOYDUI
_chemical_formula_moiety         'C25 H20 N4 S2'
_chemical_name_systematic        
2-(2,2'-bithiophen-5-yl)-1-butyl-1H-imidazo[4,5-f][1,10]phenanthroline
_symmetry_cell_setting           monoclinic
_symmetry_space_group_name_H-M   'P 21/c'
_symmetry_Int_Tables_number      14
_space_group_name_Hall           '-P 2ybc'
loop_
_symmetry_equiv_pos_site_id
_symmetry_equiv_pos_as_xyz
1 x,y,z
2 -x,1/2+y,1/2-z
3 -x,-y,-z
4 x,1/2-y,1/2+z
_cell_length_a                   13.596(4)
_cell_length_b                   8.610(3)
_cell_length_c                   19.250(6)
_cell_angle_alpha                90
_cell_angle_beta                 113.600(4)
_cell_angle_gamma                90
_cell_volume                     2064.96
_exptl_crystal_colour            yellow
_exptl_crystal_description       block
_cell_formula_units_Z            4
loop_
_atom_site_label
_atom_site_type_symbol
_atom_site_fract_x
_atom_site_fract_y
_atom_site_fract_z
C1 C 0.9988(3) 0.6514(5) 0.5634(2)
H1 H 1.0634 0.7041 0.5760
C2 C 0.9868(3) 0.5620(5) 0.6184(2)
H2 H 1.0420 0.5536 0.6663
C3 C 0.8929(3) 0.4863(5) 0.6017(2)
H3 H 0.8828 0.4264 0.6385
C4 C 0.8108(3) 0.4978(4) 0.52898(19)
C5 C 0.7055(3) 0.4268(4) 0.50311(19)
C6 C 0.6297(3) 0.4473(4) 0.43088(19)
C7 C 0.6510(3) 0.5369(4) 0.3763(2)
C8 C 0.5757(3) 0.5590(5) 0.3022(2)
H4 H 0.5086 0.5122 0.2858
C9 C 0.6022(3) 0.6507(5) 0.2541(2)
H5 H 0.5538 0.6677 0.2045
C10 C 0.7039(4) 0.7175(5) 0.2820(2)
H6 H 0.7213 0.7807 0.2494
C11 C 0.7520(3) 0.6099(4) 0.3990(2)
C12 C 0.8317(3) 0.5897(4) 0.4763(2)
C13 C 0.5539(3) 0.3112(4) 0.48697(19)
C14 C 0.4697(3) 0.2255(4) 0.4986(2)
C15 C 0.4599(3) 0.1542(5) 0.5596(2)
H7 H 0.5144 0.1506 0.6080
C16 C 0.3575(3) 0.0872(5) 0.5399(2)
H8 H 0.3378 0.0351 0.5747
C17 C 0.2905(3) 0.1052(4) 0.4664(2)
C18 C 0.1804(3) 0.0459(4) 0.4269(2)
C19 C 0.1150(3) 0.0663(4) 0.3477(2)
H9 H 0.1335 0.1225 0.3135
C20 C 0.0160(3) -0.0152(5) 0.3307(3)
H10 H -0.0390 -0.0166 0.2825
C21 C 0.0090(3) -0.0900(5) 0.3906(3)
H11 H -0.0502 -0.1480 0.3879
C22 C 0.7057(3) 0.2636(4) 0.61482(19)
H12 H 0.7810 0.2443 0.6268
H13 H 0.6715 0.1641 0.6133
C23 C 0.6965(3) 0.3603(5) 0.67671(19)
H14 H 0.6220 0.3885 0.6633
H15 H 0.7378 0.4550 0.6830
C24 C 0.7386(4) 0.2681(5) 0.7513(2)
H16 H 0.7008 0.1697 0.7429
H17 H 0.8141 0.2456 0.7653
C25 C 0.7263(4) 0.3500(6) 0.8160(2)
H18 H 0.7691 0.4427 0.8280
H19 H 0.7495 0.2829 0.8594
H20 H 0.6522 0.3770 0.8019
N1 N 0.9257(2) 0.6677(4) 0.49420(18)
N2 N 0.7772(3) 0.6979(4) 0.35100(19)
N3 N 0.6566(2) 0.3366(3) 0.53892(15)
N4 N 0.5361(2) 0.3768(3) 0.42101(16)
S1 S 0.35215(7) 0.20587(12) 0.41846(5)
S2 S 0.12054(9) -0.06505(14) 0.47050(7)
loop_
_geom_bond_atom_site_label_1
_geom_bond_atom_site_label_2
_geom_bond_site_symmetry_1
_geom_bond_site_symmetry_2
C1 H1 1_555 1_555
C2 C1 1_555 1_555
H2 C2 1_555 1_555
C3 C2 1_555 1_555
H3 C3 1_555 1_555
C4 C3 1_555 1_555
C5 C4 1_555 1_555
C6 C5 1_555 1_555
C7 C6 1_555 1_555
C8 C7 1_555 1_555
H4 C8 1_555 1_555
C9 C8 1_555 1_555
H5 C9 1_555 1_555
C10 C9 1_555 1_555
H6 C10 1_555 1_555
C11 C7 1_555 1_555
C12 C4 1_555 1_555
C13 C14 1_555 1_555
C14 C15 1_555 1_555
C15 H7 1_555 1_555
C16 C15 1_555 1_555
H8 C16 1_555 1_555
C17 C16 1_555 1_555
C18 C17 1_555 1_555
C19 C18 1_555 1_555
H9 C19 1_555 1_555
C20 C19 1_555 1_555
H10 C20 1_555 1_555
C21 C20 1_555 1_555
H11 C21 1_555 1_555
C22 H12 1_555 1_555
H13 C22 1_555 1_555
C23 C22 1_555 1_555
H14 C23 1_555 1_555
H15 C23 1_555 1_555
C24 C23 1_555 1_555
H16 C24 1_555 1_555
H17 C24 1_555 1_555
C25 C24 1_555 1_555
H18 C25 1_555 1_555
H19 C25 1_555 1_555
H20 C25 1_555 1_555
N1 C1 1_555 1_555
N2 C10 1_555 1_555
N3 C5 1_555 1_555
N4 C6 1_555 1_555
S1 C14 1_555 1_555
S2 C18 1_555 1_555
C11 C12 1_555 1_555
C11 N2 1_555 1_555
C12 N1 1_555 1_555
C13 N3 1_555 1_555
C13 N4 1_555 1_555
C17 S1 1_555 1_555
C21 S2 1_555 1_555
C22 N3 1_555 1_555

#END
