
#######################################################################
#
#                 Cambridge Crystallographic Data Centre
#                                CCDC 
#
#######################################################################
#
# If this CIF has been generated from an entry in the Cambridge 
# Structural Database, then it will include bibliographic, chemical, 
# crystal, experimental, refinement or atomic coordinate data resulting 
# from the CCDC's data processing and validation procedures.
#
#######################################################################

data_TOYFOE
_chemical_formula_moiety         'C33 H24 N4 S2,C1 H1 Cl3'
_chemical_name_systematic        
'1-butyl-2-(5-(dibenzo[b,d]thiophen-4-yl)-2-thienyl)-1H-imidazo[4,5-f][1,10]phenanthroline chloroform solvate'
_symmetry_cell_setting           monoclinic
_symmetry_space_group_name_H-M   'P 21/c'
_symmetry_Int_Tables_number      14
_space_group_name_Hall           '-P 2ybc'
loop_
_symmetry_equiv_pos_site_id
_symmetry_equiv_pos_as_xyz
1 x,y,z
2 -x,1/2+y,1/2-z
3 -x,-y,-z
4 x,1/2-y,1/2+z
_cell_length_a                   9.5995(16)
_cell_length_b                   10.9578(19)
_cell_length_c                   29.580(5)
_cell_angle_alpha                90
_cell_angle_beta                 93.350(2)
_cell_angle_gamma                90
_cell_volume                     3106.19
_exptl_crystal_colour            colorless
_exptl_crystal_description       needle
_cell_formula_units_Z            4
loop_
_atom_site_label
_atom_site_type_symbol
_atom_site_fract_x
_atom_site_fract_y
_atom_site_fract_z
C1 C 0.0974(3) 0.0645(3) -0.10936(10)
H1 H 0.0399 0.0213 -0.1301
C2 C 0.0397(3) 0.1616(3) -0.08730(9)
H2 H -0.0534 0.1828 -0.0934
C3 C 0.1216(3) 0.2261(3) -0.05638(9)
H3 H 0.0858 0.2922 -0.0411
C4 C 0.2611(2) 0.1900(2) -0.04824(8)
C5 C 0.3552(2) 0.2489(2) -0.01582(8)
C6 C 0.4926(2) 0.2138(2) -0.00948(8)
C7 C 0.5500(2) 0.1166(2) -0.03496(8)
C8 C 0.6901(3) 0.0770(3) -0.03238(10)
H4 H 0.7558 0.1161 -0.0131
C9 C 0.7286(3) -0.0182(3) -0.05813(10)
H5 H 0.8208 -0.0447 -0.0567
C10 C 0.6299(3) -0.0754(3) -0.08649(10)
H6 H 0.6579 -0.1416 -0.1034
C11 C 0.4571(3) 0.0542(2) -0.06589(8)
C12 C 0.3112(3) 0.0912(2) -0.07261(8)
C13 C 0.4428(3) 0.3667(2) 0.03511(8)
C14 C 0.4547(3) 0.4629(2) 0.06901(8)
C15 C 0.5632(3) 0.5325(2) 0.08571(9)
H7 H 0.6545 0.5220 0.0775
C16 C 0.5241(3) 0.6212(3) 0.11647(9)
H8 H 0.5873 0.6758 0.1304
C17 C 0.3858(3) 0.6210(2) 0.12434(8)
C18 C 0.3122(3) 0.7071(2) 0.15250(8)
C19 C 0.3745(3) 0.8179(3) 0.16373(10)
H9 H 0.4630 0.8339 0.1539
C20 C 0.3105(4) 0.9054(3) 0.18886(11)
H10 H 0.3563 0.9784 0.1958
C21 C 0.1797(3) 0.8853(3) 0.20365(11)
H11 H 0.1364 0.9449 0.2203
C22 C 0.1128(3) 0.7767(3) 0.19383(8)
C23 C -0.0243(3) 0.7382(3) 0.20592(9)
C24 C -0.1209(4) 0.8009(4) 0.23029(11)
H12 H -0.0997 0.8781 0.2418
C25 C -0.2468(4) 0.7490(4) 0.23722(13)
H13 H -0.3112 0.7912 0.2535
C26 C -0.2800(4) 0.6348(4) 0.22041(13)
H14 H -0.3665 0.6011 0.2256
C27 C -0.1874(3) 0.5701(3) 0.19617(11)
H15 H -0.2101 0.4932 0.1846
C28 C -0.0590(3) 0.6225(3) 0.18935(9)
C29 C 0.1791(3) 0.6871(2) 0.16852(8)
C30 C 0.6885(2) 0.2850(2) 0.04719(8)
H16 H 0.7178 0.2004 0.0493
H17 H 0.6827 0.3159 0.0778
C31 C 0.7977(3) 0.3574(3) 0.02366(9)
H18 H 0.8193 0.3155 -0.0040
H19 H 0.7596 0.4368 0.0153
C32 C 0.9310(3) 0.3748(3) 0.05291(12)
H20 H 0.9934 0.4267 0.0368
H21 H 0.9088 0.4172 0.0804
C33 C 1.0062(3) 0.2587(3) 0.06581(13)
H22 H 0.9512 0.2121 0.0857
H23 H 1.0947 0.2777 0.0809
H24 H 1.0206 0.2119 0.0390
N1 N 0.2289(2) 0.0284(2) -0.10308(7)
N2 N 0.4980(2) -0.0415(2) -0.09098(7)
N3 N 0.3251(2) 0.3435(2) 0.01169(7)
N4 N 0.5495(2) 0.29062(18) 0.02385(6)
S1 S 0.30210(7) 0.50806(7) 0.09209(2)
S2 S 0.07480(8) 0.55732(7) 0.16006(3)
C34 C 0.6758(3) 0.1644(3) 0.17793(10)
H25 H 0.6601 0.1130 0.1510
Cl1 Cl 0.55957(12) 0.28745(10) 0.17441(4)
Cl2 Cl 0.64631(13) 0.07844(12) 0.22597(4)
Cl3 Cl 0.84723(10) 0.21744(12) 0.18061(4)
loop_
_geom_bond_atom_site_label_1
_geom_bond_atom_site_label_2
_geom_bond_site_symmetry_1
_geom_bond_site_symmetry_2
C1 H1 1_555 1_555
C2 C1 1_555 1_555
H2 C2 1_555 1_555
C3 C2 1_555 1_555
H3 C3 1_555 1_555
C4 C3 1_555 1_555
C5 C4 1_555 1_555
C6 C5 1_555 1_555
C7 C6 1_555 1_555
C8 C7 1_555 1_555
H4 C8 1_555 1_555
C9 C8 1_555 1_555
H5 C9 1_555 1_555
C10 C9 1_555 1_555
H6 C10 1_555 1_555
C11 C7 1_555 1_555
C12 C4 1_555 1_555
C13 C14 1_555 1_555
C14 C15 1_555 1_555
C15 H7 1_555 1_555
C16 C15 1_555 1_555
H8 C16 1_555 1_555
C17 C16 1_555 1_555
C18 C17 1_555 1_555
C19 C18 1_555 1_555
H9 C19 1_555 1_555
C20 C19 1_555 1_555
H10 C20 1_555 1_555
C21 C20 1_555 1_555
H11 C21 1_555 1_555
C22 C21 1_555 1_555
C23 C22 1_555 1_555
C24 C23 1_555 1_555
H12 C24 1_555 1_555
C25 C24 1_555 1_555
H13 C25 1_555 1_555
C26 C25 1_555 1_555
H14 C26 1_555 1_555
C27 C26 1_555 1_555
H15 C27 1_555 1_555
C28 C23 1_555 1_555
C29 C18 1_555 1_555
C30 H16 1_555 1_555
H17 C30 1_555 1_555
C31 C30 1_555 1_555
H18 C31 1_555 1_555
H19 C31 1_555 1_555
C32 C31 1_555 1_555
H20 C32 1_555 1_555
H21 C32 1_555 1_555
C33 C32 1_555 1_555
H22 C33 1_555 1_555
H23 C33 1_555 1_555
H24 C33 1_555 1_555
N1 C1 1_555 1_555
N2 C10 1_555 1_555
N3 C5 1_555 1_555
N4 C6 1_555 1_555
S1 C14 1_555 1_555
S2 C28 1_555 1_555
C34 H25 1_555 1_555
Cl1 C34 1_555 1_555
Cl2 C34 1_555 1_555
Cl3 C34 1_555 1_555
C11 C12 1_555 1_555
C11 N2 1_555 1_555
C12 N1 1_555 1_555
C13 N3 1_555 1_555
C13 N4 1_555 1_555
C17 S1 1_555 1_555
C22 C29 1_555 1_555
C27 C28 1_555 1_555
C29 S2 1_555 1_555
C30 N4 1_555 1_555

#END
