
#######################################################################
#
#                 Cambridge Crystallographic Data Centre
#                                CCDC 
#
#######################################################################
#
# If this CIF has been generated from an entry in the Cambridge 
# Structural Database, then it will include bibliographic, chemical, 
# crystal, experimental, refinement or atomic coordinate data resulting 
# from the CCDC's data processing and validation procedures.
#
#######################################################################

data_TOYFAQ
_chemical_formula_moiety         'C25 H20 N4 S2,C1 H1 Cl3'
_chemical_name_systematic        
"2-(2,2'-bithiophen-5-yl)-1-butyl-1H-imidazo[4,5-f][1,10]phenanthroline chloroform solvate"
_symmetry_cell_setting           triclinic
_symmetry_space_group_name_H-M   'P -1'
_symmetry_Int_Tables_number      2
_space_group_name_Hall           '-P 1'
loop_
_symmetry_equiv_pos_site_id
_symmetry_equiv_pos_as_xyz
1 x,y,z
2 -x,-y,-z
_cell_length_a                   9.3385(13)
_cell_length_b                   12.1614(18)
_cell_length_c                   12.8481(19)
_cell_angle_alpha                71.990(3)
_cell_angle_beta                 85.936(3)
_cell_angle_gamma                71.519(3)
_cell_volume                     1315.5
_exptl_crystal_colour            yellow
_exptl_crystal_description       block
_cell_formula_units_Z            2
loop_
_atom_site_label
_atom_site_type_symbol
_atom_site_fract_x
_atom_site_fract_y
_atom_site_fract_z
C1 C 0.7151(5) 0.4353(4) 0.5859(4)
H1 H 0.6689 0.3746 0.6050
C2 C 0.6856(5) 0.5170(5) 0.4815(4)
H2 H 0.6225 0.5107 0.4322
C3 C 0.7529(5) 0.6084(4) 0.4526(4)
H3 H 0.7327 0.6661 0.3838
C4 C 0.8505(4) 0.6137(4) 0.5265(3)
C5 C 0.9341(5) 0.6993(3) 0.5083(3)
C6 C 1.0310(5) 0.6950(4) 0.5864(3)
C7 C 1.0525(5) 0.6072(4) 0.6922(3)
C8 C 1.1454(6) 0.6026(4) 0.7732(3)
H4 H 1.1986 0.6583 0.7600
C9 C 1.1598(6) 0.5155(5) 0.8737(4)
H5 H 1.2211 0.5112 0.9298
C10 C 1.0779(6) 0.4339(5) 0.8877(4)
H6 H 1.0890 0.3735 0.9547
C11 C 0.9733(5) 0.5227(3) 0.7157(3)
C12 C 0.8732(4) 0.5248(4) 0.6326(3)
C13 C 1.0443(5) 0.8416(4) 0.4468(3)
C14 C 1.0887(5) 0.9439(4) 0.3765(3)
C15 C 1.0321(6) 1.0298(4) 0.2796(4)
H7 H 0.9487 1.0331 0.2420
C16 C 1.1146(7) 1.1136(4) 0.2428(4)
H8 H 1.0903 1.1775 0.1779
C17 C 1.2312(6) 1.0931(4) 0.3094(4)
C18 C 1.3324(7) 1.1650(5) 0.2956(5)
C19 C 1.421(3) 1.1656(17) 0.3667(16)
H9 H 1.4357 1.1130 0.4380
C20 C 1.5184(6) 1.2455(5) 0.3354(5)
H10 H 1.5962 1.2551 0.3696
C21 C 1.4675(7) 1.3119(6) 0.2268(5)
H11 H 1.5046 1.3746 0.1871
C22 C 0.8798(5) 0.8239(4) 0.3032(4)
H12 H 0.9423 0.8613 0.2496
H13 H 0.8811 0.7494 0.2898
C23 C 0.7262(7) 0.9058(5) 0.2907(5)
H14 H 0.7236 0.9775 0.3099
H15 H 0.6620 0.8658 0.3402
C24 C 0.6635(9) 0.9454(9) 0.1696(7)
H16 H 0.5549 0.9785 0.1735
H17 H 0.6984 1.0137 0.1302
C25 C 0.6864(14) 0.8702(11) 0.0952(12)
H18 H 0.7895 0.8514 0.0729
H19 H 0.6204 0.9143 0.0318
H20 H 0.6643 0.7961 0.1325
N1 N 0.8039(4) 0.4372(3) 0.6602(3)
N2 N 0.9867(4) 0.4358(3) 0.8138(3)
N3 N 0.9446(4) 0.7939(3) 0.4177(3)
N4 N 1.0999(4) 0.7835(3) 0.5475(3)
S1 S 1.24277(14) 0.96830(11) 0.42105(9)
S2 S 1.3441(5) 1.2711(5) 0.1774(4)
C27 C 0.2429(6) 0.7238(5) 0.1019(4)
H22 H 0.1957 0.6718 0.1577
Cl1 Cl 0.2508(11) 0.8353(8) 0.1526(9)
Cl2 Cl 0.1720(16) 0.7695(9) -0.0263(4)
Cl3 Cl 0.4471(9) 0.6392(4) 0.1021(10)
C26? C 1.313(6) 1.282(4) 0.195(5)
H21? H 1.2420 1.3205 0.1370
S3? S 1.449(2) 1.1415(13) 0.4000(12)
Cl4? Cl 0.0843(7) 0.8329(8) 0.0164(8)
Cl5? Cl 0.3584(14) 0.6402(8) 0.0338(8)
Cl6? Cl 0.316(2) 0.8028(14) 0.1505(10)
loop_
_geom_bond_atom_site_label_1
_geom_bond_atom_site_label_2
_geom_bond_site_symmetry_1
_geom_bond_site_symmetry_2
C1 H1 1_555 1_555
C2 C1 1_555 1_555
H2 C2 1_555 1_555
C3 C2 1_555 1_555
H3 C3 1_555 1_555
C4 C3 1_555 1_555
C5 C4 1_555 1_555
C6 C5 1_555 1_555
C7 C6 1_555 1_555
C8 C7 1_555 1_555
H4 C8 1_555 1_555
C9 C8 1_555 1_555
H5 C9 1_555 1_555
C10 C9 1_555 1_555
H6 C10 1_555 1_555
C11 C7 1_555 1_555
C12 C4 1_555 1_555
C13 C14 1_555 1_555
C14 C15 1_555 1_555
C15 H7 1_555 1_555
C16 C15 1_555 1_555
H8 C16 1_555 1_555
C17 C16 1_555 1_555
C18 C17 1_555 1_555
C19 C18 1_555 1_555
H9 C19 1_555 1_555
C20 C19 1_555 1_555
H10 C20 1_555 1_555
C21 C20 1_555 1_555
H11 C21 1_555 1_555
C22 H12 1_555 1_555
H13 C22 1_555 1_555
C23 C22 1_555 1_555
H14 C23 1_555 1_555
H15 C23 1_555 1_555
C24 C23 1_555 1_555
H16 C24 1_555 1_555
H17 C24 1_555 1_555
C25 C24 1_555 1_555
H18 C25 1_555 1_555
H19 C25 1_555 1_555
H20 C25 1_555 1_555
N1 C1 1_555 1_555
N2 C10 1_555 1_555
N3 C5 1_555 1_555
N4 C6 1_555 1_555
S1 C14 1_555 1_555
S2 C18 1_555 1_555
C27 H22 1_555 1_555
Cl1 C27 1_555 1_555
Cl2 C27 1_555 1_555
Cl3 C27 1_555 1_555
C11 C12 1_555 1_555
C11 N2 1_555 1_555
C12 N1 1_555 1_555
C13 N3 1_555 1_555
C13 N4 1_555 1_555
C17 S1 1_555 1_555
C21 S2 1_555 1_555
C22 N3 1_555 1_555

#END
