
#######################################################################
#
#                 Cambridge Crystallographic Data Centre
#                                CCDC 
#
#######################################################################
#
# If this CIF has been generated from an entry in the Cambridge 
# Structural Database, then it will include bibliographic, chemical, 
# crystal, experimental, refinement or atomic coordinate data resulting 
# from the CCDC's data processing and validation procedures.
#
#######################################################################

data_TOYHIA
_chemical_formula_moiety         'C13 H17 N1 O4'
_chemical_name_systematic        
6-(methoxymethoxy)-4,5,5a,6,9,9b-hexahydro-2-oxa-1-azabenzo[cd]azulen-3(2aH)-one
_symmetry_cell_setting           monoclinic
_symmetry_space_group_name_H-M   'C c'
_symmetry_Int_Tables_number      9
_space_group_name_Hall           'C -2yc'
loop_
_symmetry_equiv_pos_site_id
_symmetry_equiv_pos_as_xyz
1 x,y,z
2 x,-y,1/2+z
3 1/2+x,1/2+y,z
4 1/2+x,1/2-y,1/2+z
_cell_length_a                   7.4735(6)
_cell_length_b                   23.4154(11)
_cell_length_c                   7.4325(7)
_cell_angle_alpha                90
_cell_angle_beta                 102.242(3)
_cell_angle_gamma                90
_cell_volume                     1271.07
_exptl_crystal_colour            yellow
_exptl_crystal_description       platelet
_cell_formula_units_Z            4
loop_
_atom_site_label
_atom_site_type_symbol
_atom_site_fract_x
_atom_site_fract_y
_atom_site_fract_z
C1 C 0.4657(7) 0.29586(19) 0.7727(8)
C2 C 0.2873(8) 0.3255(2) 0.7584(8)
H1 H 0.2751 0.3393 0.8782
H2 H 0.1869 0.2995 0.7121
C3 C 0.2854(7) 0.37560(19) 0.6246(6)
H3 H 0.1760 0.3983 0.6201
H4 H 0.3909 0.3998 0.6686
C4 C 0.2894(5) 0.35419(16) 0.4321(6)
H5 H 0.1754 0.3328 0.3902
C5 C 0.2865(5) 0.40304(18) 0.2923(5)
H6 H 0.3031 0.3868 0.1754
C6 C 0.4327(8) 0.4466(2) 0.3562(7)
H7 H 0.3981 0.4825 0.3908
C7 C 0.6100(10) 0.4366(4) 0.3659(10)
H8 H 0.6920 0.4664 0.4019
C8 C 0.6854(8) 0.3800(4) 0.3221(10)
H9 H 0.6396 0.3717 0.1927
H10 H 0.8176 0.3828 0.3428
C9 C 0.6376(6) 0.3320(3) 0.4322(7)
C10 C 0.4470(6) 0.3114(2) 0.4293(6)
H11 H 0.4098 0.2883 0.3176
C11 C 0.4914(8) 0.2696(2) 0.5911(9)
H12 H 0.4130 0.2358 0.5632
C12 C 0.0639(9) 0.46524(19) 0.1152(7)
H13 H 0.1571 0.4947 0.1280
H14 H -0.0519 0.4837 0.1166
C13 C -0.0977(9) 0.3996(3) -0.0990(9)
H15 H -0.0992 0.3822 -0.2163
H16 H -0.2098 0.4202 -0.1043
H17 H -0.0857 0.3705 -0.0062
N1 N 0.7622(7) 0.2998(4) 0.5214(8)
O1 O 0.5871(6) 0.29369(19) 0.9087(6)
O2 O 0.6761(7) 0.2537(3) 0.5998(8)
O3 O 0.1072(4) 0.42780(12) 0.2657(4)
O4 O 0.0512(6) 0.43754(15) -0.0554(5)
loop_
_geom_bond_atom_site_label_1
_geom_bond_atom_site_label_2
_geom_bond_site_symmetry_1
_geom_bond_site_symmetry_2
C1 C2 1_555 1_555
C2 H1 1_555 1_555
H2 C2 1_555 1_555
C3 C2 1_555 1_555
H3 C3 1_555 1_555
H4 C3 1_555 1_555
C4 C3 1_555 1_555
H5 C4 1_555 1_555
C5 C4 1_555 1_555
H6 C5 1_555 1_555
C6 C5 1_555 1_555
H7 C6 1_555 1_555
C7 C6 1_555 1_555
H8 C7 1_555 1_555
C8 C7 1_555 1_555
H9 C8 1_555 1_555
H10 C8 1_555 1_555
C9 C8 1_555 1_555
C10 C4 1_555 1_555
H11 C10 1_555 1_555
C11 C1 1_555 1_555
H12 C11 1_555 1_555
C12 H13 1_555 1_555
H14 C12 1_555 1_555
C13 H15 1_555 1_555
H16 C13 1_555 1_555
H17 C13 1_555 1_555
N1 C9 1_555 1_555
O1 C1 1_555 1_555
O2 C11 1_555 1_555
O3 C5 1_555 1_555
O4 C12 1_555 1_555
C9 C10 1_555 1_555
C10 C11 1_555 1_555
C12 O3 1_555 1_555
C13 O4 1_555 1_555
N1 O2 1_555 1_555

#END
