
#######################################################################
#
#                 Cambridge Crystallographic Data Centre
#                                CCDC 
#
#######################################################################
#
# If this CIF has been generated from an entry in the Cambridge 
# Structural Database, then it will include bibliographic, chemical, 
# crystal, experimental, refinement or atomic coordinate data resulting 
# from the CCDC's data processing and validation procedures.
#
#######################################################################

data_TOZKUO
_chemical_formula_moiety         'C10 H16 Br2 O1'
_chemical_name_systematic        (1S,2S,4S)-1,2-Dibromo-4,8-epoxy-p-menthane
_symmetry_cell_setting           monoclinic
_symmetry_space_group_name_H-M   'P 21'
_symmetry_Int_Tables_number      4
_space_group_name_Hall           'P 2yb'
loop_
_symmetry_equiv_pos_site_id
_symmetry_equiv_pos_as_xyz
1 x,y,z
2 -x,1/2+y,-z
_cell_length_a                   8.604(3)
_cell_length_b                   8.075(2)
_cell_length_c                   9.100(2)
_cell_angle_alpha                90
_cell_angle_beta                 113.53(3)
_cell_angle_gamma                90
_cell_volume                     579.673
_exptl_crystal_colour            colorless
_chemical_melting_point          83-84deg.C
_cell_formula_units_Z            2
loop_
_atom_site_label
_atom_site_type_symbol
_atom_site_fract_x
_atom_site_fract_y
_atom_site_fract_z
Br1 Br -0.7043(2) -0.1247(1) -0.3276(1)
Br2 Br -0.7542(1) -0.6953(1) -0.3884(1)
O1 O -0.8143(8) -0.6426(9) -0.0487(8)
C1 C -0.9089(12) -0.4404(14) -0.2757(12)
C2 C -0.9039(15) -0.5183(14) 0.0016(14)
C3 C -0.8029(14) -0.4561(14) -0.3731(12)
C4 C -0.8282(15) -0.4824(15) 0.1818(12)
C5 C -1.0947(13) -0.5350(17) -0.0660(16)
C6 C -0.6455(12) -0.3837(14) -0.0304(13)
C7 C -0.8150(12) -0.4707(13) -0.0970(12)
C8 C -0.6346(15) -0.3633(13) -0.3038(14)
C9 C -0.5371(12) -0.4018(14) -0.1288(13)
C10 C -0.5208(15) -0.3840(21) -0.3971(16)
H1 H -1.0041(12) -0.5198(14) -0.3182(12)
H2 H -0.9581(12) -0.3276(14) -0.2913(12)
H3 H -0.8701(14) -0.4132(14) -0.4835(12)
H4 H -0.8833(71) -0.3846(59) 0.2033(16)
H5 H -0.7063(25) -0.4618(94) 0.2180(21)
H6 H -0.8466(85) -0.5779(41) 0.2394(14)
H7 H -1.1453(14) -0.4282(39) -0.0586(84)
H8 H -1.1264(14) -0.6184(71) -0.0046(63)
H9 H -1.1361(16) -0.5693(95) -0.1785(33)
H10 H -0.5796(12) -0.4266(14) 0.0789(13)
H11 H -0.6655(12) -0.2643(14) -0.0204(13)
H12 H -0.4385(12) -0.3263(14) -0.0848(13)
H13 H -0.4935(12) -0.5166(14) -0.1181(13)
H14 H -0.5798(40) -0.3405(83) -0.5062(32)
H15 H -0.4957(74) -0.5016(23) -0.4026(73)
H16 H -0.4148(41) -0.3229(74) -0.3428(50)
loop_
_geom_bond_atom_site_label_1
_geom_bond_atom_site_label_2
_geom_bond_site_symmetry_1
_geom_bond_site_symmetry_2
Br1 C8 1_555 1_555
Br2 C3 1_555 1_555
O1 C2 1_555 1_555
C1 C3 1_555 1_555
C2 C4 1_555 1_555
C3 C8 1_555 1_555
C4 H4 1_555 1_555
C5 C2 1_555 1_555
C6 C7 1_555 1_555
C7 O1 1_555 1_555
C8 C9 1_555 1_555
C9 C6 1_555 1_555
C10 C8 1_555 1_555
H1 C1 1_555 1_555
H2 C1 1_555 1_555
H3 C3 1_555 1_555
H5 C4 1_555 1_555
H6 C4 1_555 1_555
H7 C5 1_555 1_555
H8 C5 1_555 1_555
H9 C5 1_555 1_555
H10 C6 1_555 1_555
H11 C6 1_555 1_555
H12 C9 1_555 1_555
H13 C9 1_555 1_555
H14 C10 1_555 1_555
H15 C10 1_555 1_555
H16 C10 1_555 1_555
C1 C7 1_555 1_555
C2 C7 1_555 1_555

#END
