
#######################################################################
#
#                 Cambridge Crystallographic Data Centre
#                                CCDC 
#
#######################################################################
#
# If this CIF has been generated from an entry in the Cambridge 
# Structural Database, then it will include bibliographic, chemical, 
# crystal, experimental, refinement or atomic coordinate data resulting 
# from the CCDC's data processing and validation procedures.
#
#######################################################################

data_TOZKAW
_chemical_formula_moiety         'C25 H25 N3 O2 S1'
_chemical_name_systematic        
7-benzyl-2-ethoxy-3-(3-methylphenyl)-5,6,7,8-tetrahydropyrido[4',3':4,5]thieno[2,3-d]pyrimidin-4(3H)-one
_symmetry_cell_setting           triclinic
_symmetry_space_group_name_H-M   'P -1'
_symmetry_Int_Tables_number      2
_space_group_name_Hall           '-P 1'
loop_
_symmetry_equiv_pos_site_id
_symmetry_equiv_pos_as_xyz
1 x,y,z
2 -x,-y,-z
_cell_length_a                   8.974(4)
_cell_length_b                   10.766(5)
_cell_length_c                   12.260(6)
_cell_angle_alpha                96.635(7)
_cell_angle_beta                 93.047(7)
_cell_angle_gamma                106.716(7)
_cell_volume                     1122.18
_exptl_crystal_colour            colorless
_exptl_crystal_description       block
_chemical_melting_point          '449 K'
_cell_formula_units_Z            2
loop_
_atom_site_label
_atom_site_type_symbol
_atom_site_fract_x
_atom_site_fract_y
_atom_site_fract_z
S1 S 0.42907(4) 0.65896(4) 0.13128(3)
N1 N 0.38800(14) 0.80272(12) -0.02985(10)
O1 O 0.36685(12) 0.92143(11) -0.17159(9)
O2 O 0.82228(13) 0.81821(13) -0.13018(10)
C1 C 0.64831(16) 0.94180(14) -0.23765(12)
N2 N 0.59226(13) 0.87060(12) -0.14642(10)
C2 C 0.63135(16) 0.74237(13) -0.00619(11)
C3 C 0.44592(16) 0.86212(14) -0.11153(12)
C4 C 0.69493(16) 0.80983(14) -0.09572(12)
C5 C 0.60502(17) 0.62020(15) 0.13918(12)
C6 C 0.48437(16) 0.74461(14) 0.02120(12)
C7 C 0.70038(16) 0.67031(14) 0.06267(12)
C8 C 0.61298(19) 0.87764(16) -0.34423(13)
H1 H 0.5501 0.7911 -0.3571
C9 C 0.64465(18) 0.54284(16) 0.22474(13)
H2 H 0.6092 0.5693 0.2946
H3 H 0.5922 0.4504 0.2026
C10 C 0.20824(17) 0.91428(16) -0.14391(13)
H4 H 0.2099 0.9533 -0.0683
H5 H 0.1436 0.8238 -0.1523
C11 C 0.81765(18) 0.51125(16) 0.42903(14)
C12 C 0.85992(18) 0.65060(17) 0.05818(14)
H6 H 0.9397 0.7324 0.0849
H7 H 0.8760 0.6240 -0.0175
C13 C 0.74193(19) 1.06986(15) -0.21530(14)
H8 H 0.7645 1.1126 -0.1433
C14 C 0.8745(2) 0.54563(17) 0.12900(14)
H9 H 0.8166 0.4598 0.0907
H10 H 0.9834 0.5485 0.1398
C15 C 0.7663(2) 1.06971(18) -0.40979(15)
H11 H 0.8074 1.1138 -0.4674
C16 C 0.6708(2) 0.94152(18) -0.43275(13)
C17 C 0.8638(2) 0.63868(18) 0.48199(17)
H12 H 0.9143 0.7064 0.4440
C18 C 0.1454(2) 0.9881(2) -0.22174(16)
H13 H 0.1426 0.9475 -0.2961
H14 H 0.2117 1.0769 -0.2136
H15 H 0.0418 0.9874 -0.2055
C19 C 0.8521(2) 0.47885(18) 0.31134(15)
H16 H 0.9621 0.4852 0.3104
H17 H 0.7925 0.3891 0.2840
C20 C 0.8016(2) 1.13329(17) -0.30286(16)
H18 H 0.8659 1.2193 -0.2895
C21 C 0.7441(2) 0.41338(19) 0.48915(17)
H19 H 0.7128 0.3267 0.4559
C22 C 0.7163(3) 0.4422(2) 0.59817(18)
H20 H 0.6667 0.3748 0.6369
C23 C 0.8355(2) 0.6670(2) 0.59147(18)
H21 H 0.8673 0.7532 0.6258
C24 C 0.7610(2) 0.5681(2) 0.64879(18)
H22 H 0.7414 0.5871 0.7216
C25 C 0.6320(3) 0.8714(2) -0.55002(16)
H23 H 0.7269 0.8698 -0.5821
H24 H 0.5774 0.9167 -0.5927
H25 H 0.5673 0.7833 -0.5494
N3 N 0.81425(15) 0.56553(13) 0.23719(11)
loop_
_geom_bond_atom_site_label_1
_geom_bond_atom_site_label_2
_geom_bond_site_symmetry_1
_geom_bond_site_symmetry_2
S1 C5 1_555 1_555
N1 C3 1_555 1_555
O1 C3 1_555 1_555
O2 C4 1_555 1_555
C1 N2 1_555 1_555
N2 C3 1_555 1_555
C2 C4 1_555 1_555
C4 N2 1_555 1_555
C5 C7 1_555 1_555
C6 S1 1_555 1_555
C7 C2 1_555 1_555
C8 C1 1_555 1_555
H1 C8 1_555 1_555
C9 C5 1_555 1_555
H2 C9 1_555 1_555
H3 C9 1_555 1_555
C10 O1 1_555 1_555
H4 C10 1_555 1_555
H5 C10 1_555 1_555
C11 C17 1_555 1_555
C12 C7 1_555 1_555
H6 C12 1_555 1_555
H7 C12 1_555 1_555
C13 C1 1_555 1_555
H8 C13 1_555 1_555
C14 C12 1_555 1_555
H9 C14 1_555 1_555
H10 C14 1_555 1_555
C15 H11 1_555 1_555
C16 C8 1_555 1_555
C17 H12 1_555 1_555
C18 C10 1_555 1_555
H13 C18 1_555 1_555
H14 C18 1_555 1_555
H15 C18 1_555 1_555
C19 C11 1_555 1_555
H16 C19 1_555 1_555
H17 C19 1_555 1_555
C20 C13 1_555 1_555
H18 C20 1_555 1_555
C21 C11 1_555 1_555
H19 C21 1_555 1_555
C22 C21 1_555 1_555
H20 C22 1_555 1_555
C23 C17 1_555 1_555
H21 C23 1_555 1_555
C24 C22 1_555 1_555
H22 C24 1_555 1_555
C25 C16 1_555 1_555
H23 C25 1_555 1_555
H24 C25 1_555 1_555
H25 C25 1_555 1_555
N3 C9 1_555 1_555
N1 C6 1_555 1_555
C2 C6 1_555 1_555
C14 N3 1_555 1_555
C15 C16 1_555 1_555
C15 C20 1_555 1_555
C19 N3 1_555 1_555
C23 C24 1_555 1_555

#END
