
#######################################################################
#
#                 Cambridge Crystallographic Data Centre
#                                CCDC 
#
#######################################################################
#
# If this CIF has been generated from an entry in the Cambridge 
# Structural Database, then it will include bibliographic, chemical, 
# crystal, experimental, refinement or atomic coordinate data resulting 
# from the CCDC's data processing and validation procedures.
#
#######################################################################

data_TOZQAC
_chemical_formula_moiety         'C20 H20 O6'
_chemical_name_systematic        
6a-Isopropyl-8b-methyl-4a,7a,7b,8b,9,10-hexahydrotrisoxireno[6,7:8a,9:4b,5]phenanthro[1,2-c]furan-1,6(3H,6aH)-dione
_chemical_properties_biological  'cytotoxic activity'
_symmetry_cell_setting           monoclinic
_symmetry_space_group_name_H-M   'P 21'
_symmetry_Int_Tables_number      4
_space_group_name_Hall           'P 2yb'
loop_
_symmetry_equiv_pos_site_id
_symmetry_equiv_pos_as_xyz
1 x,y,z
2 -x,1/2+y,-z
_cell_length_a                   11.0222(12)
_cell_length_b                   6.6644(8)
_cell_length_c                   12.3984(14)
_cell_angle_alpha                90
_cell_angle_beta                 105.912(2)
_cell_angle_gamma                90
_cell_volume                     875.845
_exptl_crystal_colour            colorless
_cell_formula_units_Z            2
loop_
_atom_site_label
_atom_site_type_symbol
_atom_site_fract_x
_atom_site_fract_y
_atom_site_fract_z
O1 O 0.4382(2) 0.6770(4) -0.03499(16)
O2 O 0.34824(14) 0.8719(3) 0.06536(12)
O3 O 0.8687(2) 1.2250(3) 0.71934(13)
O4 O 0.74678(18) 1.2592(3) 0.49818(13)
O5 O 0.93949(12) 0.8680(3) 0.50736(12)
O6 O 0.75065(13) 0.7409(3) 0.68591(12)
C1 C 0.7421(2) 0.6889(5) 0.30188(19)
C2 C 0.6748(3) 0.6763(6) 0.1758(2)
C3 C 0.5498(2) 0.7733(4) 0.15500(17)
C4 C 0.51446(18) 0.8927(4) 0.22620(16)
C5 C 0.59798(19) 0.9569(4) 0.33375(16)
C6 C 0.5552(2) 1.0664(4) 0.40587(18)
C7 C 0.6401(2) 1.1449(4) 0.51005(19)
C8 C 0.7691(2) 1.0643(3) 0.54691(17)
C9 C 0.80469(17) 0.9019(3) 0.47768(16)
C10 C 0.73532(18) 0.8988(4) 0.35149(16)
C11 C 0.85991(18) 0.7206(4) 0.53834(17)
C12 C 0.8666(2) 0.6990(4) 0.65871(18)
C13 C 0.85770(19) 0.8709(4) 0.72955(16)
C14 C 0.8379(2) 1.0698(4) 0.67134(18)
C15 C 0.9164(2) 0.8607(5) 0.85536(19)
C16 C 1.0507(3) 0.9390(7) 0.8872(3)
C17 C 0.8358(4) 0.9616(7) 0.9205(3)
C18 C 0.4455(2) 0.7627(5) 0.05105(19)
C19 C 0.3840(2) 0.9678(5) 0.1736(2)
C20 C 0.7986(3) 1.0544(6) 0.2919(2)
H1 H 0.703(3) 0.585(5) 0.343(2)
H2 H 0.834(3) 0.643(5) 0.316(2)
H3 H 0.673(2) 0.546(5) 0.145(2)
H4 H 0.722(3) 0.770(6) 0.131(2)
H5 H 0.474(2) 1.106(4) 0.3869(16)
H6 H 0.603(2) 1.203(5) 0.572(2)
H7 H 0.8507(19) 0.599(4) 0.4963(16)
H8 H 0.904(2) 0.593(4) 0.6939(16)
H9 H 0.922(2) 0.715(5) 0.875(2)
H10 H 1.100(3) 0.895(6) 0.843(3)
H11 H 1.087(3) 0.927(5) 0.957(2)
H12 H 1.056(4) 1.094(8) 0.871(3)
H13 H 0.873(3) 0.931(6) 0.993(3)
H14 H 0.831(3) 1.115(7) 0.909(3)
H15 H 0.750(4) 0.935(7) 0.897(3)
H16 H 0.321(2) 0.928(4) 0.2090(19)
H17 H 0.386(2) 1.104(5) 0.1595(19)
H18 H 0.748(3) 1.068(5) 0.223(3)
H19 H 0.883(3) 0.991(5) 0.288(2)
H20 H 0.818(3) 1.189(7) 0.327(3)
loop_
_geom_bond_atom_site_label_1
_geom_bond_atom_site_label_2
_geom_bond_site_symmetry_1
_geom_bond_site_symmetry_2
O1 C18 1_555 1_555
O2 C18 1_555 1_555
O3 C14 1_555 1_555
O4 C7 1_555 1_555
O5 C9 1_555 1_555
O6 C12 1_555 1_555
C1 C2 1_555 1_555
C2 C3 1_555 1_555
C3 C4 1_555 1_555
C4 C5 1_555 1_555
C5 C6 1_555 1_555
C6 C7 1_555 1_555
C7 C8 1_555 1_555
C8 O4 1_555 1_555
C9 C8 1_555 1_555
C10 C1 1_555 1_555
C11 O5 1_555 1_555
C12 C11 1_555 1_555
C13 O6 1_555 1_555
C14 C8 1_555 1_555
C15 C13 1_555 1_555
C16 C15 1_555 1_555
C17 C15 1_555 1_555
C18 C3 1_555 1_555
C19 O2 1_555 1_555
C20 C10 1_555 1_555
H1 C1 1_555 1_555
H2 C1 1_555 1_555
H3 C2 1_555 1_555
H4 C2 1_555 1_555
H5 C6 1_555 1_555
H6 C7 1_555 1_555
H7 C11 1_555 1_555
H8 C12 1_555 1_555
H9 C15 1_555 1_555
H10 C16 1_555 1_555
H11 C16 1_555 1_555
H12 C16 1_555 1_555
H13 C17 1_555 1_555
H14 C17 1_555 1_555
H15 C17 1_555 1_555
H16 C19 1_555 1_555
H17 C19 1_555 1_555
H18 C20 1_555 1_555
H19 C20 1_555 1_555
H20 C20 1_555 1_555
C4 C19 1_555 1_555
C5 C10 1_555 1_555
C9 C10 1_555 1_555
C9 C11 1_555 1_555
C12 C13 1_555 1_555
C13 C14 1_555 1_555

#END
