
#######################################################################
#
#                 Cambridge Crystallographic Data Centre
#                                CCDC 
#
#######################################################################
#
# If this CIF has been generated from an entry in the Cambridge 
# Structural Database, then it will include bibliographic, chemical, 
# crystal, experimental, refinement or atomic coordinate data resulting 
# from the CCDC's data processing and validation procedures.
#
#######################################################################

data_TOZTAF
_chemical_name_common            'Hexamethylenetetramine hydrogen DL-malate'
_chemical_formula_moiety         'C6 H13 N4 1+,C4 H5 O5 1-'
_chemical_name_systematic        
'3,5,7-Triaza-1-azoniatricyclo[3.3.1.1^3,7^]decane 3-carboxy-2-hydroxypropanoate'
_symmetry_cell_setting           monoclinic
_symmetry_space_group_name_H-M   'C c'
_symmetry_Int_Tables_number      9
_space_group_name_Hall           'C -2yc'
loop_
_symmetry_equiv_pos_site_id
_symmetry_equiv_pos_as_xyz
1 x,y,z
2 x,-y,1/2+z
3 1/2+x,1/2+y,z
4 1/2+x,1/2-y,1/2+z
_cell_length_a                   6.9833(3)
_cell_length_b                   9.7169(3)
_cell_length_c                   18.2093(8)
_cell_angle_alpha                90
_cell_angle_beta                 100.701(3)
_cell_angle_gamma                90
_cell_volume                     1214.12
_exptl_crystal_colour            colorless
_cell_formula_units_Z            4
_exptl_crystal_recrystallization_method ethanol
loop_
_atom_site_label
_atom_site_type_symbol
_atom_site_fract_x
_atom_site_fract_y
_atom_site_fract_z
H1 H 0.339(4) 0.348(3) 0.4241(15)
N1 N 0.4418(2) 0.34755(14) 0.46050(8)
C1 C 0.5589(3) 0.4780(2) 0.46221(11)
H2 H 0.6060 0.4880 0.4156
H3 H 0.4772 0.5566 0.4677
C2 C 0.3727(3) 0.3343(2) 0.53397(11)
H4 H 0.2897 0.4117 0.5404
H5 H 0.2971 0.2505 0.5341
C3 C 0.6493(3) 0.4568(2) 0.59379(11)
H6 H 0.7587 0.4558 0.6353
H7 H 0.5675 0.5348 0.6004
C4 C 0.8435(3) 0.3534(2) 0.51493(12)
H8 H 0.8926 0.3624 0.4687
H9 H 0.9545 0.3510 0.5558
N2 N 0.7218(2) 0.47335(16) 0.52390(9)
N3 N 0.7342(2) 0.22416(16) 0.51368(9)
N4 N 0.5380(2) 0.33071(18) 0.59451(9)
C5 C 0.6620(3) 0.2139(2) 0.58393(13)
H10 H 0.5883 0.1293 0.5841
H11 H 0.7718 0.2100 0.6253
C6 C 0.5699(3) 0.2258(2) 0.45208(12)
H12 H 0.4959 0.1413 0.4518
H13 H 0.6159 0.2322 0.4051
H14 H -0.284(6) 0.341(4) 0.234(2)
O1 O 0.2214(2) 0.20180(14) 0.33256(8)
H15 H 0.2524 0.1281 0.3162
O2 O 0.10460(19) 0.43667(13) 0.37444(7)
O3 O -0.1737(2) 0.43482(13) 0.29346(9)
O4 O -0.3444(3) 0.05297(15) 0.17648(10)
O5 O -0.3559(2) 0.27402(16) 0.19756(9)
C7 C -0.2789(3) 0.15228(18) 0.21261(10)
C8 C -0.1088(3) 0.13984(16) 0.27745(10)
H16 H -0.0463 0.0518 0.2731
H17 H -0.1610 0.1373 0.3232
C9 C -0.0082(2) 0.38493(15) 0.32177(9)
C10 C 0.0491(2) 0.25150(16) 0.28621(9)
H18 H 0.0780 0.2730 0.2368
loop_
_geom_bond_atom_site_label_1
_geom_bond_atom_site_label_2
_geom_bond_site_symmetry_1
_geom_bond_site_symmetry_2
H1 N1 1_555 1_555
N1 C1 1_555 1_555
C1 H2 1_555 1_555
H3 C1 1_555 1_555
C2 N1 1_555 1_555
H4 C2 1_555 1_555
H5 C2 1_555 1_555
C3 H6 1_555 1_555
H7 C3 1_555 1_555
C4 H8 1_555 1_555
H9 C4 1_555 1_555
N2 C1 1_555 1_555
N3 C4 1_555 1_555
N4 C2 1_555 1_555
C5 N3 1_555 1_555
H10 C5 1_555 1_555
H11 C5 1_555 1_555
C6 N1 1_555 1_555
H12 C6 1_555 1_555
H13 C6 1_555 1_555
H14 O5 1_555 1_555
O1 H15 1_555 1_555
O2 C9 1_555 1_555
O3 C9 1_555 1_555
O4 C7 1_555 1_555
O5 C7 1_555 1_555
C7 C8 1_555 1_555
C8 H16 1_555 1_555
H17 C8 1_555 1_555
C9 C10 1_555 1_555
C10 O1 1_555 1_555
H18 C10 1_555 1_555
C3 N2 1_555 1_555
C3 N4 1_555 1_555
C4 N2 1_555 1_555
N3 C6 1_555 1_555
N4 C5 1_555 1_555
C8 C10 1_555 1_555

#END
