
#######################################################################
#
#                 Cambridge Crystallographic Data Centre
#                                CCDC 
#
#######################################################################
#
# If this CIF has been generated from an entry in the Cambridge 
# Structural Database, then it will include bibliographic, chemical, 
# crystal, experimental, refinement or atomic coordinate data resulting 
# from the CCDC's data processing and validation procedures.
#
#######################################################################

data_TOZTEJ
_chemical_name_common            'Hexamethylenetetraminium hydrogen phthalate'
_chemical_formula_moiety         'C6 H13 N4 1+,C8 H5 O4 1-'
_chemical_name_systematic        
'3,5,7-Triaza-1-azoniatricyclo[3.3.1.1^3,7^]decane 2-carboxybenzoate'
_symmetry_cell_setting           orthorhombic
_symmetry_space_group_name_H-M   'I b a 2'
_symmetry_Int_Tables_number      45
_space_group_name_Hall           'I 2 -2c'
loop_
_symmetry_equiv_pos_site_id
_symmetry_equiv_pos_as_xyz
1 x,y,z
2 -x,-y,z
3 -x,y,1/2+z
4 x,-y,1/2+z
5 1/2+x,1/2+y,1/2+z
6 1/2-x,1/2-y,1/2+z
7 1/2-x,1/2+y,z
8 1/2+x,1/2-y,z
_cell_length_a                   10.1026(7)
_cell_length_b                   40.624(3)
_cell_length_c                   7.0111(4)
_cell_angle_alpha                90
_cell_angle_beta                 90
_cell_angle_gamma                90
_cell_volume                     2877.41
_exptl_crystal_colour            colorless
_exptl_crystal_description       plate
_cell_formula_units_Z            8
loop_
_atom_site_label
_atom_site_type_symbol
_atom_site_fract_x
_atom_site_fract_y
_atom_site_fract_z
C1 C 0.1993(4) 0.17613(9) 0.3592(5)
C2 C 0.3056(4) 0.18810(8) 0.2499(5)
C3 C 0.2941(5) 0.21774(10) 0.1511(6)
H1 H 0.3640 0.2252 0.0761
C4 C 0.1793(5) 0.23614(10) 0.1641(7)
H2 H 0.1723 0.2561 0.1002
C5 C 0.0755(5) 0.22462(11) 0.2726(8)
H3 H -0.0014 0.2371 0.2827
C6 C 0.0843(4) 0.19486(11) 0.3662(6)
H4 H 0.0120 0.1872 0.4354
C7 C 0.2035(4) 0.14501(8) 0.4721(6)
C8 C 0.4310(4) 0.16891(9) 0.2375(5)
O1 O 0.1441(3) 0.12063(7) 0.4188(5)
O2 O 0.2649(3) 0.14677(6) 0.6326(4)
O3 O 0.4362(3) 0.13975(7) 0.2774(5)
O4 O 0.5333(3) 0.18610(7) 0.1806(6)
H5 H 0.602(6) 0.1726(13) 0.161(9)
C9 C 0.1423(4) 0.09221(11) 0.9452(7)
H6 H 0.1493 0.1102 1.0355
H7 H 0.0632 0.0955 0.8693
C10 C 0.2481(4) 0.06401(10) 0.6809(6)
H8 H 0.1694 0.0670 0.6035
H9 H 0.3244 0.0637 0.5969
C11 C 0.3825(4) 0.08623(10) 0.9356(7)
H10 H 0.4592 0.0855 0.8525
H11 H 0.3941 0.1043 1.0243
C12 C 0.2533(4) 0.05698(11) 1.1600(6)
H12 H 0.2465 0.0369 1.2339
H13 H 0.2614 0.0752 1.2486
C13 C 0.3564(4) 0.02897(10) 0.9022(7)
H14 H 0.4341 0.0282 0.8210
H15 H 0.3505 0.0082 0.9696
C14 C 0.1239(5) 0.03444(12) 0.9097(8)
H16 H 0.0448 0.0373 0.8332
H17 H 0.1159 0.0137 0.9775
N1 N 0.2607(3) 0.09176(7) 0.8193(4)
H18 H 0.2586 0.1144 0.7314
N2 N 0.2394(4) 0.03301(8) 0.7838(5)
N3 N 0.3721(3) 0.05548(8) 1.0404(5)
N4 N 0.1330(4) 0.06115(10) 1.0473(6)
loop_
_geom_bond_atom_site_label_1
_geom_bond_atom_site_label_2
_geom_bond_site_symmetry_1
_geom_bond_site_symmetry_2
C1 C2 1_555 1_555
C2 C3 1_555 1_555
C3 H1 1_555 1_555
C4 C3 1_555 1_555
H2 C4 1_555 1_555
C5 C4 1_555 1_555
H3 C5 1_555 1_555
C6 C1 1_555 1_555
H4 C6 1_555 1_555
C7 C1 1_555 1_555
C8 C2 1_555 1_555
O1 C7 1_555 1_555
O2 C7 1_555 1_555
O3 C8 1_555 1_555
O4 C8 1_555 1_555
H5 O4 1_555 1_555
C9 H6 1_555 1_555
H7 C9 1_555 1_555
C10 H8 1_555 1_555
H9 C10 1_555 1_555
C11 H10 1_555 1_555
H11 C11 1_555 1_555
C12 H12 1_555 1_555
H13 C12 1_555 1_555
C13 H14 1_555 1_555
H15 C13 1_555 1_555
C14 H16 1_555 1_555
H17 C14 1_555 1_555
N1 C9 1_555 1_555
H18 N1 1_555 1_555
N2 C10 1_555 1_555
N3 C11 1_555 1_555
N4 C9 1_555 1_555
C5 C6 1_555 1_555
C10 N1 1_555 1_555
C11 N1 1_555 1_555
C12 N3 1_555 1_555
C12 N4 1_555 1_555
C13 N2 1_555 1_555
C13 N3 1_555 1_555
C14 N2 1_555 1_555
C14 N4 1_555 1_555

#END
