
#######################################################################
#
#                 Cambridge Crystallographic Data Centre
#                                CCDC 
#
#######################################################################
#
# If this CIF has been generated from an entry in the Cambridge 
# Structural Database, then it will include bibliographic, chemical, 
# crystal, experimental, refinement or atomic coordinate data resulting 
# from the CCDC's data processing and validation procedures.
#
#######################################################################

data_TOZZIR
_chemical_formula_moiety         'C14 H21 N5 O2,0.71(C2 H6 O1 S1)'
_chemical_name_systematic        
'4,7-Diamino-8-heptyl-2,5-dioxopyrido(4,3-d)pyrimidine dimethylsulfoxide solvate'
_symmetry_cell_setting           cubic
_symmetry_space_group_name_H-M   'I a 3 d'
_symmetry_Int_Tables_number      230
_space_group_name_Hall           '-I 4bd 2c 3'
loop_
_symmetry_equiv_pos_site_id
_symmetry_equiv_pos_as_xyz
1 x,y,z
2 1/4-y,3/4+x,1/4+z
3 1/2+x,1/2-y,-z
4 z,x,y
5 1/2-x,-y,1/2+z
6 3/4+y,1/4+x,1/4-z
7 1/4-x,3/4+z,1/4+y
8 1/4+y,1/4-x,3/4+z
9 -x,1/2+y,1/2-z
10 1/2-z,-x,1/2+y
11 3/4-y,3/4-x,3/4-z
12 1/4+x,1/4-z,3/4+y
13 1/2+z,1/2-x,-y
14 3/4-x,3/4-z,3/4-y
15 -z,1/2+x,1/2-y
16 3/4+x,1/4+z,1/4-y
17 y,z,x
18 3/4+z,3/4-y,1/4+x
19 1/4-z,3/4+y,1/4+x
20 3/4+z,1/4+y,1/4-x
21 1/2+y,1/2-z,-x
22 3/4-z,3/4-y,3/4-x
23 -y,1/2+z,1/2-x
24 1/2-y,-z,1/2+x
25 1/4+z,1/4-y,3/4+x
26 1/2+x,1/2+y,1/2+z
27 3/4-y,1/4+x,3/4+z
28 x,-y,1/2-z
29 1/2+z,1/2+x,1/2+y
30 -x,1/2-y,z
31 1/4+y,3/4+x,3/4-z
32 3/4-x,1/4+z,3/4+y
33 3/4+y,3/4-x,1/4+z
34 1/2-x,y,-z
35 -z,1/2-x,y
36 1/4-y,1/4-x,1/4-z
37 3/4+x,3/4-z,1/4+y
38 z,-x,1/2-y
39 1/4-x,1/4-z,1/4-y
40 1/2-z,x,-y
41 1/4+x,3/4+z,3/4-y
42 1/2+y,1/2+z,1/2+x
43 3/4-z,1/4+y,3/4+x
44 1/4+z,3/4+y,3/4-x
45 y,-z,1/2-x
46 1/4-z,1/4-y,1/4-x
47 1/2-y,z,-x
48 -y,1/2-z,x
49 -x,-y,-z
50 3/4+y,1/4-x,3/4-z
51 1/2-x,1/2+y,z
52 -z,-x,-y
53 1/2+x,y,1/2-z
54 1/4-y,3/4-x,3/4+z
55 3/4+x,1/4-z,3/4-y
56 3/4-y,3/4+x,1/4-z
57 x,1/2-y,1/2+z
58 1/2+z,x,1/2-y
59 1/4+y,1/4+x,1/4+z
60 3/4-x,3/4+z,1/4-y
61 1/2-z,1/2+x,y
62 1/4+x,1/4+z,1/4+y
63 z,1/2-x,1/2+y
64 1/4-x,3/4-z,3/4+y
65 -y,-z,-x
66 1/4-z,1/4+y,3/4-x
67 3/4+z,1/4-y,3/4-x
68 1/4-z,3/4-y,3/4+x
69 1/2-y,1/2+z,x
70 1/4+z,1/4+y,1/4+x
71 y,1/2-z,1/2+x
72 1/2+y,z,1/2-x
73 3/4-z,3/4+y,1/4-x
74 1/2-x,1/2-y,1/2-z
75 1/4+y,3/4-x,1/4-z
76 -x,y,1/2+z
77 1/2-z,1/2-x,1/2-y
78 x,1/2+y,-z
79 3/4-y,1/4-x,1/4+z
80 1/4+x,3/4-z,1/4-y
81 1/4-y,1/4+x,3/4-z
82 1/2+x,-y,z
83 z,1/2+x,-y
84 3/4+y,3/4+x,3/4+z
85 1/4-x,1/4+z,3/4-y
86 -z,x,1/2+y
87 3/4+x,3/4+z,3/4+y
88 1/2+z,-x,y
89 3/4-x,1/4-z,1/4+y
90 1/2-y,1/2-z,1/2-x
91 1/4+z,3/4-y,1/4-x
92 3/4-z,1/4-y,1/4+x
93 -y,z,1/2+x
94 3/4+z,3/4+y,3/4+x
95 1/2+y,-z,x
96 y,1/2+z,-x
_cell_length_a                   46.980(5)
_cell_length_b                   46.980(5)
_cell_length_c                   46.980(5)
_cell_angle_alpha                90
_cell_angle_beta                 90
_cell_angle_gamma                90
_cell_volume                     103691
_cell_formula_units_Z            96
loop_
_atom_site_label
_atom_site_type_symbol
_atom_site_fract_x
_atom_site_fract_y
_atom_site_fract_z
O2 O 0.6268(1) 0.1557(1) 0.0452(1)
O3 O 0.5135(1) 0.0895(1) 0.0672(1)
N1 N 0.5891(1) 0.1560(1) 0.0750(1)
N2 N 0.5922(1) 0.1230(1) 0.0369(1)
N3 N 0.5136(1) 0.1221(1) 0.1027(1)
N4 N 0.5089(1) 0.1526(1) 0.1400(1)
N5 N 0.5570(1) 0.0904(1) 0.0308(1)
C3 C 0.5502(1) 0.1571(1) 0.1091(1)
C4 C 0.5242(1) 0.1445(1) 0.1172(1)
C5 C 0.5260(1) 0.1098(1) 0.0791(1)
C6 C 0.5520(1) 0.1223(1) 0.0696(1)
C7 C 0.5635(1) 0.1455(1) 0.0852(1)
C8 C 0.6032(1) 0.1450(1) 0.0518(1)
C9 C 0.5670(1) 0.1117(1) 0.0455(1)
C10 C 0.5630(1) 0.1808(1) 0.1266(1)
C11 C 0.5829(2) 0.1701(2) 0.1503(1)
C12 C 0.5908(3) 0.1956(3) 0.1684(2)
C13 C 0.6039(5) 0.1889(5) 0.1969(3)
C14 C 0.6040(7) 0.2171(5) 0.2135(4)
H1 H 0.5966(1) 0.1703(1) 0.0837(1)
H2 H 0.4978(1) 0.1149(1) 0.1086(1)
H3 H 0.4936(1) 0.1436(1) 0.1444(1)
H4 H 0.5145(1) 0.1667(1) 0.1502(1)
H5 H 0.5662(1) 0.0841(1) 0.0163(1)
H6 H 0.5411(1) 0.0827(1) 0.0355(1)
H7 H 0.5477(1) 0.1917(1) 0.1352(1)
H8 H 0.5735(1) 0.1934(1) 0.1142(1)
H9 H 0.5734(2) 0.1558(2) 0.1618(1)
H10 H 0.5999(2) 0.1616(2) 0.1421(1)
H11 H 0.6040(3) 0.2073(3) 0.1578(2)
H12 H 0.5738(3) 0.2068(3) 0.1716(2)
H13 H 0.6231(5) 0.1818(5) 0.1945(3)
H14 H 0.5927(5) 0.1746(5) 0.2068(3)
S1 S 0.5051(3) 0.1846(3) 0.2137(2)
O1 O 0.5134(2) 0.1962(2) 0.1819(2)
C1 C 0.4744(6) 0.1705(6) 0.2115(5)
C2 C 0.5257(8) 0.1579(9) 0.2174(10)
S2? S 0.5010(2) 0.2353(2) 0.1754(3)
O4? O 0.4677(5) 0.2485(5) 0.1757(7)
C15? C 0.4938(6) 0.2111(5) 0.1998(5)
C16? C 0.4964(7) 0.2109(5) 0.1523(6)
loop_
_geom_bond_atom_site_label_1
_geom_bond_atom_site_label_2
_geom_bond_site_symmetry_1
_geom_bond_site_symmetry_2
S1 O1 1_555 1_555
C1 S1 1_555 1_555
C2 S1 1_555 1_555
O2 C8 1_555 1_555
O3 C5 1_555 1_555
N1 C7 1_555 1_555
N2 C8 1_555 1_555
N3 C4 1_555 1_555
N4 C4 1_555 1_555
N5 C9 1_555 1_555
C3 C4 1_555 1_555
C5 N3 1_555 1_555
C6 C5 1_555 1_555
C7 C3 1_555 1_555
C8 N1 1_555 1_555
C9 N2 1_555 1_555
C10 C3 1_555 1_555
C11 C10 1_555 1_555
C12 C11 1_555 1_555
C13 C12 1_555 1_555
C14 C13 1_555 1_555
H1 N1 1_555 1_555
H2 N3 1_555 1_555
H3 N4 1_555 1_555
H4 N4 1_555 1_555
H5 N5 1_555 1_555
H6 N5 1_555 1_555
H7 C10 1_555 1_555
H8 C10 1_555 1_555
H9 C11 1_555 1_555
H10 C11 1_555 1_555
H11 C12 1_555 1_555
H12 C12 1_555 1_555
H13 C13 1_555 1_555
H14 C13 1_555 1_555
C6 C7 1_555 1_555
C6 C9 1_555 1_555

#END
