
#######################################################################
#
#                 Cambridge Crystallographic Data Centre
#                                CCDC 
#
#######################################################################
#
# If this CIF has been generated from an entry in the Cambridge 
# Structural Database, then it will include bibliographic, chemical, 
# crystal, experimental, refinement or atomic coordinate data resulting 
# from the CCDC's data processing and validation procedures.
#
#######################################################################

data_TPENAC04
_chemical_formula_moiety         'C5 H4 O2 S1'
_chemical_name_systematic        'thiophene-2-carboxylic acid'
_symmetry_cell_setting           monoclinic
_symmetry_space_group_name_H-M   'P 21/n'
_symmetry_Int_Tables_number      14
_space_group_name_Hall           '-P 2yn'
loop_
_symmetry_equiv_pos_site_id
_symmetry_equiv_pos_as_xyz
1 x,y,z
2 1/2-x,1/2+y,1/2-z
3 -x,-y,-z
4 1/2+x,1/2-y,1/2+z
_cell_length_a                   5.7053(4)
_cell_length_b                   5.0470(3)
_cell_length_c                   19.6731(13)
_cell_angle_alpha                90
_cell_angle_beta                 98.186(2)
_cell_angle_gamma                90
_cell_volume                     560.708
_cell_formula_units_Z            4
loop_
_atom_site_label
_atom_site_type_symbol
_atom_site_fract_x
_atom_site_fract_y
_atom_site_fract_z
O1 O 1.1425(4) 0.1628(5) 0.07672(11)
H1 H 1.1585 0.0486 0.0481
O2 O 0.7947(4) 0.2185(5) 0.01027(11)
S1 S 1.07504(14) 0.5688(2) 0.18005(4)
C1 C 0.9366(5) 0.2762(7) 0.06129(16)
C2 C 0.8851(5) 0.4840(6) 0.10853(16)
C3 C 0.6834(5) 0.6310(7) 0.10260(17)
H2 H 0.5578 0.6106 0.0673
C4 C 0.6857(6) 0.8172(7) 0.15575(17)
H3 H 0.5635 0.9362 0.1591
C5 C 0.8852(6) 0.8036(7) 0.20128(16)
H4 H 0.9155 0.9108 0.2400
loop_
_geom_bond_atom_site_label_1
_geom_bond_atom_site_label_2
_geom_bond_site_symmetry_1
_geom_bond_site_symmetry_2
O1 H1 1_555 1_555
O2 C1 1_555 1_555
S1 C2 1_555 1_555
C1 O1 1_555 1_555
C2 C1 1_555 1_555
C3 C2 1_555 1_555
H2 C3 1_555 1_555
C4 C3 1_555 1_555
H3 C4 1_555 1_555
C5 S1 1_555 1_555
H4 C5 1_555 1_555
C4 C5 1_555 1_555

#END
