
#######################################################################
#
#                 Cambridge Crystallographic Data Centre
#                                CCDC 
#
#######################################################################
#
# If this CIF has been generated from an entry in the Cambridge 
# Structural Database, then it will include bibliographic, chemical, 
# crystal, experimental, refinement or atomic coordinate data resulting 
# from the CCDC's data processing and validation procedures.
#
#######################################################################

data_TPEPHO
_chemical_formula_moiety         'C18 H15 O1 P1'
_chemical_name_systematic        'Triphenylphosphine oxide'
_symmetry_cell_setting           orthorhombic
_symmetry_space_group_name_H-M   'P b c a'
_symmetry_Int_Tables_number      61
_space_group_name_Hall           '-P 2ac 2ab'
loop_
_symmetry_equiv_pos_site_id
_symmetry_equiv_pos_as_xyz
1 x,y,z
2 1/2-x,-y,1/2+z
3 1/2+x,1/2-y,-z
4 -x,1/2+y,1/2-z
5 -x,-y,-z
6 1/2+x,y,1/2-z
7 1/2-x,1/2+y,z
8 x,1/2-y,1/2+z
_cell_length_a                   29.120(2)
_cell_length_b                   9.143(1)
_cell_length_c                   11.252(1)
_cell_angle_alpha                90
_cell_angle_beta                 90
_cell_angle_gamma                90
_cell_volume                     2995.78
_cell_formula_units_Z            8
loop_
_atom_site_label
_atom_site_type_symbol
_atom_site_fract_x
_atom_site_fract_y
_atom_site_fract_z
C1 C 0.12590 -0.00770 0.11130
C2 C -0.01410 0.38860 0.11680
C3 C 0.01400 0.43020 0.20900
C4 C 0.05640 0.35870 0.23730
C5 C 0.16580 0.25500 0.19430
C6 C 0.16840 0.35830 0.10160
C7 C 0.20910 0.44420 0.08020
C8 C 0.24420 0.42730 0.15920
C9 C 0.24330 0.33190 0.25400
C10 C 0.20360 0.24730 0.27020
C11 C 0.14570 0.01020 -0.00210
C12 C 0.15160 -0.10620 -0.08400
C13 C 0.13710 -0.24580 -0.04320
C14 C 0.11770 -0.26470 0.06730
C15 C 0.11100 -0.14750 0.14780
C16 C 0.06890 0.23550 0.16900
C17 C 0.04100 0.19400 0.07720
C18 C -0.00140 0.26470 0.05250
H1 H 0.14330 0.12660 -0.05000
H2 H 0.08660 0.38660 0.30330
H3 H 0.14670 0.36330 0.01330
H4 H 0.20000 0.52000 0.01000
H5 H 0.27500 0.50330 0.15330
H6 H 0.27000 0.30330 0.33000
H7 H 0.20660 0.17000 0.36000
H8 H 0.17000 -0.10000 -0.18330
H9 H 0.14160 -0.37330 -0.07330
H10 H 0.11000 -0.39000 0.09330
H11 H 0.09160 -0.15000 0.23660
H12 H 0.05000 0.08660 0.03000
H13 H -0.03000 0.23000 -0.01660
H14 H -0.04500 0.41660 0.07660
H15 H 0.00830 0.53330 0.25330
O1 O 0.11710 0.08390 0.33530
P1 P 0.11850 0.13850 0.21320
loop_
_geom_bond_atom_site_label_1
_geom_bond_atom_site_label_2
_geom_bond_site_symmetry_1
_geom_bond_site_symmetry_2
C1 C11 1_555 1_555
C2 C3 1_555 1_555
C3 C4 1_555 1_555
C4 C16 1_555 1_555
C5 C6 1_555 1_555
C6 C7 1_555 1_555
C7 C8 1_555 1_555
C8 C9 1_555 1_555
C9 C10 1_555 1_555
C10 C5 1_555 1_555
C11 C12 1_555 1_555
C12 C13 1_555 1_555
C13 C14 1_555 1_555
C14 C15 1_555 1_555
C15 C1 1_555 1_555
C16 C17 1_555 1_555
C17 C18 1_555 1_555
C18 C2 1_555 1_555
H1 C11 1_555 1_555
H2 C4 1_555 1_555
H3 C6 1_555 1_555
H4 C7 1_555 1_555
H5 C8 1_555 1_555
H6 C9 1_555 1_555
H7 C10 1_555 1_555
H8 C12 1_555 1_555
H9 C13 1_555 1_555
H10 C14 1_555 1_555
H11 C15 1_555 1_555
H12 C17 1_555 1_555
H13 C18 1_555 1_555
H14 C2 1_555 1_555
H15 C3 1_555 1_555
O1 P1 1_555 1_555
P1 C1 1_555 1_555
C5 P1 1_555 1_555
C16 P1 1_555 1_555

#END
