
#######################################################################
#
#                 Cambridge Crystallographic Data Centre
#                                CCDC 
#
#######################################################################
#
# If this CIF has been generated from an entry in the Cambridge 
# Structural Database, then it will include bibliographic, chemical, 
# crystal, experimental, refinement or atomic coordinate data resulting 
# from the CCDC's data processing and validation procedures.
#
#######################################################################

data_TPETAN02
_chemical_formula_moiety         'C26 H22'
_chemical_name_systematic        
1,1',1'',1'''-(ethane-1,1,2,2-tetrayl)tetrabenzene
_symmetry_cell_setting           monoclinic
_symmetry_space_group_name_H-M   'C 2/c'
_symmetry_Int_Tables_number      15
_space_group_name_Hall           '-C 2yn'
loop_
_symmetry_equiv_pos_site_id
_symmetry_equiv_pos_as_xyz
1 x,y,z
2 -x,y,1/2-z
3 1/2+x,1/2+y,z
4 1/2-x,1/2+y,1/2-z
5 -x,-y,-z
6 x,-y,1/2+z
7 1/2-x,1/2-y,-z
8 1/2+x,1/2-y,1/2+z
_cell_length_a                   17.6477(19)
_cell_length_b                   5.8820(7)
_cell_length_c                   17.6454(16)
_cell_angle_alpha                90
_cell_angle_beta                 91.238(8)
_cell_angle_gamma                90
_cell_volume                     1831.23
_exptl_crystal_colour            colorless
_exptl_crystal_description       block
_cell_formula_units_Z            4
loop_
_atom_site_label
_atom_site_type_symbol
_atom_site_fract_x
_atom_site_fract_y
_atom_site_fract_z
C1 C 0.50749(10) 0.4225(4) 0.21518(10)
H1 H 0.5065 0.5772 0.2325
C2 C 0.48574(10) 0.2713(4) 0.28311(10)
H2 H 0.4954 0.1167 0.2688
C3 C 0.5892(2) 0.3699(6) 0.1915(3)
C4 C 0.6445(3) 0.5213(11) 0.2098(4)
H3 H 0.6341 0.6524 0.2391
C5 C 0.7174(5) 0.4785(15) 0.1841(6)
H4 H 0.7550 0.5928 0.1907
C6 C 0.7371(7) 0.2767(18) 0.1495(8)
H5 H 0.7880 0.2468 0.1361
C7 C 0.6807(4) 0.1209(14) 0.1350(5)
H6 H 0.6921 -0.0183 0.1105
C8 C 0.6070(3) 0.1666(8) 0.1563(3)
H7 H 0.5683 0.0574 0.1467
C9 C 0.4548(3) 0.4090(7) 0.1453(3)
C10 C 0.4530(2) 0.5948(7) 0.0965(3)
H8 H 0.4822 0.7265 0.1079
C11 C 0.4082(4) 0.5860(16) 0.0314(4)
H9 H 0.4062 0.7133 -0.0017
C12 C 0.3663(7) 0.3934(14) 0.0139(7)
H10 H 0.3369 0.3937 -0.0318
C13 C 0.3644(5) 0.2035(17) 0.0580(4)
H11 H 0.3356 0.0719 0.0454
C14 C 0.4097(6) 0.2234(13) 0.1243(6)
H12 H 0.4096 0.0979 0.1583
C1A C 0.49251(10) 0.4225(4) 0.28482(10)
H1A H 0.4935 0.5772 0.2675
C2A C 0.51426(10) 0.2713(4) 0.21689(10)
H2A H 0.5046 0.1167 0.2312
C3A C 0.4108(2) 0.3699(6) 0.3085(3)
C4A C 0.3555(3) 0.5213(11) 0.2902(4)
H3A H 0.3659 0.6524 0.2609
C5A C 0.2826(5) 0.4785(15) 0.3159(6)
H4A H 0.2450 0.5928 0.3093
C6A C 0.2629(7) 0.2767(18) 0.3505(8)
H5A H 0.2120 0.2468 0.3639
C7A C 0.3193(4) 0.1209(14) 0.3650(5)
H6A H 0.3079 -0.0183 0.3895
C8A C 0.3930(3) 0.1666(8) 0.3437(3)
H7A H 0.4317 0.0574 0.3533
C9A C 0.5452(3) 0.4090(7) 0.3547(3)
C10A C 0.5470(2) 0.5948(7) 0.4035(3)
H8A H 0.5178 0.7265 0.3921
C11A C 0.5918(4) 0.5860(16) 0.4686(4)
H9A H 0.5938 0.7133 0.5017
C12A C 0.6337(7) 0.3934(14) 0.4861(7)
H10A H 0.6631 0.3937 0.5318
C13A C 0.6356(5) 0.2035(17) 0.4420(4)
H11A H 0.6644 0.0719 0.4546
C14A C 0.5903(6) 0.2234(13) 0.3757(6)
H12A H 0.5904 0.0979 0.3417
C15? C 0.4029(2) 0.2834(6) 0.3058(3)
C16? C 0.3531(4) 0.4664(11) 0.2946(5)
H13? H 0.3722 0.5992 0.2711
C17? C 0.2775(5) 0.4670(18) 0.3157(6)
H14? H 0.2442 0.5883 0.3024
C18? C 0.2537(6) 0.2843(15) 0.3564(7)
H15? H 0.2035 0.2833 0.3748
C19? C 0.3003(4) 0.1006(14) 0.3716(5)
H16? H 0.2818 -0.0257 0.3992
C20? C 0.3734(3) 0.1009(8) 0.3469(3)
H17? H 0.4049 -0.0261 0.3580
C21? C 0.5369(3) 0.3280(7) 0.3523(3)
C22? C 0.5307(3) 0.5320(7) 0.3898(3)
H18? H 0.4945 0.6392 0.3713
C23? C 0.5745(4) 0.5898(16) 0.4534(4)
H19? H 0.5673 0.7323 0.4775
C24? C 0.6284(7) 0.4411(14) 0.4813(7)
H20? H 0.6600 0.4735 0.5242
C25? C 0.6322(7) 0.2411(17) 0.4413(6)
H21? H 0.6689 0.1347 0.4590
C26? C 0.5882(5) 0.1730(15) 0.3769(5)
H22? H 0.5944 0.0296 0.3529
loop_
_geom_bond_atom_site_label_1
_geom_bond_atom_site_label_2
_geom_bond_site_symmetry_1
_geom_bond_site_symmetry_2
C1 H1 1_555 1_555
H1 C1A 1_555 1_555
C2 H2 1_555 1_555
H2 C2A 1_555 1_555
C3 C1 1_555 1_555
C4 C3 1_555 1_555
H3 C4 1_555 1_555
C5 C4 1_555 1_555
H4 C5 1_555 1_555
C6 C5 1_555 1_555
H5 C6 1_555 1_555
C7 C6 1_555 1_555
H6 C7 1_555 1_555
C8 C3 1_555 1_555
H7 C8 1_555 1_555
C9 C1 1_555 1_555
C10 C9 1_555 1_555
H8 C10 1_555 1_555
C11 C10 1_555 1_555
H9 C11 1_555 1_555
C12 C11 1_555 1_555
H10 C12 1_555 1_555
C13 C12 1_555 1_555
H11 C13 1_555 1_555
C14 C9 1_555 1_555
H12 C14 1_555 1_555
C1A C1 1_555 1_555
H1A C1 1_555 1_555
C2A C2 1_555 1_555
H2A C2 1_555 1_555
C3A C2 1_555 1_555
C4A C3A 1_555 1_555
H3A C4A 1_555 1_555
C5A C4A 1_555 1_555
H4A C5A 1_555 1_555
C6A C5A 1_555 1_555
H5A C6A 1_555 1_555
C7A C6A 1_555 1_555
H6A C7A 1_555 1_555
C8A C3A 1_555 1_555
H7A C8A 1_555 1_555
C9A C1A 1_555 1_555
C10A C9A 1_555 1_555
H8A C10A 1_555 1_555
C11A C10A 1_555 1_555
H9A C11A 1_555 1_555
C12A C11A 1_555 1_555
H10A C12A 1_555 1_555
C13A C12A 1_555 1_555
H11A C13A 1_555 1_555
C14A C9A 1_555 1_555
H12A C14A 1_555 1_555
C3 C2A 1_555 1_555
C7 C8 1_555 1_555
C13 C14 1_555 1_555
C1A H1A 1_555 1_555
C1A C3A 1_555 1_555
C2A H2A 1_555 1_555
C7A C8A 1_555 1_555
C13A C14A 1_555 1_555

#END
