
#######################################################################
#
#                 Cambridge Crystallographic Data Centre
#                                CCDC 
#
#######################################################################
#
# If this CIF has been generated from an entry in the Cambridge 
# Structural Database, then it will include bibliographic, chemical, 
# crystal, experimental, refinement or atomic coordinate data resulting 
# from the CCDC's data processing and validation procedures.
#
#######################################################################

data_TPHBEN03
_chemical_formula_moiety         'C24 H18'
_chemical_name_systematic        '1,3,5-triphenyl benzene'
_symmetry_cell_setting           orthorhombic
_symmetry_space_group_name_H-M   'P n a 21'
_symmetry_Int_Tables_number      33
_space_group_name_Hall           'P 2c -2n'
loop_
_symmetry_equiv_pos_site_id
_symmetry_equiv_pos_as_xyz
1 x,y,z
2 1/2-x,1/2+y,1/2+z
3 1/2+x,1/2-y,z
4 -x,-y,1/2+z
_cell_length_a                   7.5958(2)
_cell_length_b                   19.7480(14)
_cell_length_c                   11.2510(3)
_cell_angle_alpha                90
_cell_angle_beta                 90
_cell_angle_gamma                90
_cell_volume                     1687.67
_exptl_crystal_colour            colorless
_exptl_crystal_description       block
_cell_formula_units_Z            4
loop_
_atom_site_label
_atom_site_type_symbol
_atom_site_fract_x
_atom_site_fract_y
_atom_site_fract_z
C1 C 0.2482(10) 0.2680(4) 0.6055(8)
C2 C 0.2184(10) 0.3295(4) 0.6617(8)
C3 C 0.2169(11) 0.3913(4) 0.6022(7)
C4 C 0.2489(11) 0.3896(4) 0.4808(8)
C5 C 0.2804(10) 0.3304(4) 0.4183(7)
C6 C 0.2788(12) 0.2698(4) 0.4824(7)
C7 C 0.2476(10) 0.2042(4) 0.6692(7)
C8 C 0.3142(13) 0.1994(4) 0.7849(9)
C9 C 0.3124(16) 0.1398(5) 0.8482(9)
C10 C 0.2419(14) 0.0818(5) 0.7938(11)
C11 C 0.1835(14) 0.0862(5) 0.6822(10)
C12 C 0.1825(12) 0.1449(4) 0.6216(8)
C13 C 0.1843(11) 0.4557(4) 0.6649(8)
C14 C 0.0922(13) 0.5074(5) 0.6129(10)
C15 C 0.0522(13) 0.5668(4) 0.6705(11)
C16 C 0.1091(15) 0.5746(6) 0.7879(13)
C17 C 0.2039(15) 0.5238(5) 0.8402(9)
C18 C 0.2397(12) 0.4648(4) 0.7811(9)
C19 C 0.3137(11) 0.3307(4) 0.2892(8)
C20 C 0.2516(13) 0.2813(4) 0.2147(8)
C21 C 0.2846(16) 0.2824(5) 0.0944(9)
C22 C 0.3880(13) 0.3325(5) 0.0460(9)
C23 C 0.4526(14) 0.3809(5) 0.1169(10)
C24 C 0.4195(13) 0.3811(4) 0.2384(9)
H1 H 0.19836 0.32935 0.74329
H2 H 0.24917 0.43028 0.43932
H3 H 0.29861 0.22934 0.44229
H4 H 0.36147 0.23788 0.82021
H5 H 0.35677 0.13797 0.92517
H6 H 0.23604 0.04094 0.83492
H7 H 0.14202 0.04732 0.64497
H8 H 0.13639 0.14551 0.54504
H9 H 0.05478 0.50205 0.5347
H10 H -0.01091 0.60088 0.63245
H11 H 0.08278 0.61389 0.82995
H12 H 0.24492 0.52948 0.91747
H13 H 0.30169 0.43048 0.81935
H14 H 0.18516 0.24611 0.24628
H15 H 0.23682 0.24904 0.04569
H16 H 0.41266 0.33273 -0.03498
H17 H 0.52126 0.4151 0.08411
H18 H 0.46763 0.41487 0.2861
loop_
_geom_bond_atom_site_label_1
_geom_bond_atom_site_label_2
_geom_bond_site_symmetry_1
_geom_bond_site_symmetry_2
C1 C2 1_555 1_555
C2 C3 1_555 1_555
C3 C4 1_555 1_555
C4 C5 1_555 1_555
C5 C6 1_555 1_555
C6 C1 1_555 1_555
C7 C1 1_555 1_555
C8 C7 1_555 1_555
C9 C8 1_555 1_555
C10 C9 1_555 1_555
C11 C10 1_555 1_555
C12 C7 1_555 1_555
C13 C3 1_555 1_555
C14 C13 1_555 1_555
C15 C14 1_555 1_555
C16 C15 1_555 1_555
C17 C16 1_555 1_555
C18 C13 1_555 1_555
C19 C5 1_555 1_555
C20 C19 1_555 1_555
C21 C20 1_555 1_555
C22 C21 1_555 1_555
C23 C22 1_555 1_555
C24 C19 1_555 1_555
H1 C2 1_555 1_555
H2 C4 1_555 1_555
H3 C6 1_555 1_555
H4 C8 1_555 1_555
H5 C9 1_555 1_555
H6 C10 1_555 1_555
H7 C11 1_555 1_555
H8 C12 1_555 1_555
H9 C14 1_555 1_555
H10 C15 1_555 1_555
H11 C16 1_555 1_555
H12 C17 1_555 1_555
H13 C18 1_555 1_555
H14 C20 1_555 1_555
H15 C21 1_555 1_555
H16 C22 1_555 1_555
H17 C23 1_555 1_555
H18 C24 1_555 1_555
C11 C12 1_555 1_555
C17 C18 1_555 1_555
C23 C24 1_555 1_555

#END
