
#######################################################################
#
#                 Cambridge Crystallographic Data Centre
#                                CCDC 
#
#######################################################################
#
# If this CIF has been generated from an entry in the Cambridge 
# Structural Database, then it will include bibliographic, chemical, 
# crystal, experimental, refinement or atomic coordinate data resulting 
# from the CCDC's data processing and validation procedures.
#
#######################################################################

data_TPHETY06
_chemical_formula_moiety         'C26 H20'
_chemical_name_systematic        
1,1',1'',1'''-Ethene-1,1,2,2-tetrayltetrabenzene
_symmetry_cell_setting           monoclinic
_symmetry_space_group_name_H-M   'P 21'
_symmetry_Int_Tables_number      4
_space_group_name_Hall           'P 2yb'
loop_
_symmetry_equiv_pos_site_id
_symmetry_equiv_pos_as_xyz
1 x,y,z
2 -x,1/2+y,-z
_cell_length_a                   9.8251(19)
_cell_length_b                   9.5020(18)
_cell_length_c                   10.709(2)
_cell_angle_alpha                90
_cell_angle_beta                 107.096(3)
_cell_angle_gamma                90
_cell_volume                     955.596
_cell_formula_units_Z            2
_exptl_crystal_recrystallization_method dichloromethane/methanol
_exptl_crystal_preparation       Luminescent
loop_
_atom_site_label
_atom_site_type_symbol
_atom_site_fract_x
_atom_site_fract_y
_atom_site_fract_z
C1 C 0.38719(13) 0.80074(15) 0.80018(12)
C2 C 0.24937(13) 0.76596(15) 0.74094(12)
C3 C 0.45162(16) 0.80730(18) 0.94461(13)
C4 C 0.58528(19) 0.7488(2) 1.00073(16)
H1 H 0.6324 0.7046 0.9479
C5 C 0.6493(3) 0.7554(4) 1.1344(2)
H2 H 0.7384 0.7149 1.1706
C6 C 0.5831(5) 0.8202(5) 1.2122(2)
H3 H 0.6268 0.8248 1.3018
C7 C 0.4515(5) 0.8795(4) 1.1594(3)
H4 H 0.4065 0.9236 1.2140
C8 C 0.3833(3) 0.8749(3) 1.0240(2)
H5 H 0.2945 0.9162 0.9887
C9 C 0.48793(13) 0.83288(16) 0.72353(12)
C10 C 0.56368(16) 0.95829(19) 0.74251(15)
H6 H 0.5531 1.0222 0.8048
C11 C 0.65531(18) 0.9887(2) 0.66883(17)
H7 H 0.7032 1.0744 0.6799
C12 C 0.67546(18) 0.8937(3) 0.58030(17)
H8 H 0.7377 0.9143 0.5320
C13 C 0.60354(18) 0.7668(2) 0.56234(16)
H9 H 0.6180 0.7018 0.5026
C14 C 0.50953(15) 0.73622(18) 0.63359(13)
H10 H 0.4610 0.6509 0.6211
C15 C 0.18336(13) 0.77951(16) 0.59715(13)
C16 C 0.20167(17) 0.8993(2) 0.52871(17)
H11 H 0.2554 0.9740 0.5735
C17 C 0.1408(2) 0.9084(3) 0.39475(19)
H12 H 0.1548 0.9887 0.3504
C18 C 0.0599(2) 0.7996(3) 0.32689(18)
H13 H 0.0204 0.8057 0.2368
C19 C 0.0375(2) 0.6819(3) 0.39255(18)
H14 H -0.0186 0.6089 0.3470
C20 C 0.09868(16) 0.67156(19) 0.52708(16)
H15 H 0.0828 0.5915 0.5708
C21 C 0.15475(14) 0.70927(16) 0.81536(13)
C22 C 0.01702(15) 0.76170(19) 0.79318(16)
H16 H -0.0152 0.8331 0.7323
C23 C -0.07237(17) 0.7089(2) 0.86065(17)
H17 H -0.1637 0.7451 0.8455
C24 C -0.0257(2) 0.6032(3) 0.94954(18)
H18 H -0.0850 0.5687 0.9961
C25 C 0.1089(2) 0.5475(2) 0.97053(19)
H19 H 0.1394 0.4745 1.0300
C26 C 0.19878(18) 0.59989(18) 0.90338(16)
H20 H 0.2891 0.5614 0.9175
loop_
_geom_bond_atom_site_label_1
_geom_bond_atom_site_label_2
_geom_bond_site_symmetry_1
_geom_bond_site_symmetry_2
C1 C2 1_555 1_555
C2 C15 1_555 1_555
C3 C1 1_555 1_555
C4 C3 1_555 1_555
H1 C4 1_555 1_555
C5 C4 1_555 1_555
H2 C5 1_555 1_555
C6 C5 1_555 1_555
H3 C6 1_555 1_555
C7 C6 1_555 1_555
H4 C7 1_555 1_555
C8 C3 1_555 1_555
H5 C8 1_555 1_555
C9 C1 1_555 1_555
C10 C9 1_555 1_555
H6 C10 1_555 1_555
C11 C10 1_555 1_555
H7 C11 1_555 1_555
C12 C11 1_555 1_555
H8 C12 1_555 1_555
C13 C12 1_555 1_555
H9 C13 1_555 1_555
C14 C9 1_555 1_555
H10 C14 1_555 1_555
C15 C16 1_555 1_555
C16 H11 1_555 1_555
C17 C16 1_555 1_555
H12 C17 1_555 1_555
C18 C17 1_555 1_555
H13 C18 1_555 1_555
C19 C18 1_555 1_555
H14 C19 1_555 1_555
C20 C15 1_555 1_555
H15 C20 1_555 1_555
C21 C2 1_555 1_555
C22 C21 1_555 1_555
H16 C22 1_555 1_555
C23 C22 1_555 1_555
H17 C23 1_555 1_555
C24 C23 1_555 1_555
H18 C24 1_555 1_555
C25 C24 1_555 1_555
H19 C25 1_555 1_555
C26 C21 1_555 1_555
H20 C26 1_555 1_555
C7 C8 1_555 1_555
C13 C14 1_555 1_555
C19 C20 1_555 1_555
C25 C26 1_555 1_555

#END
