
#######################################################################
#
#                 Cambridge Crystallographic Data Centre
#                                CCDC 
#
#######################################################################
#
# If this CIF has been generated from an entry in the Cambridge 
# Structural Database, then it will include bibliographic, chemical, 
# crystal, experimental, refinement or atomic coordinate data resulting 
# from the CCDC's data processing and validation procedures.
#
#######################################################################

data_TPHPOR15
_chemical_formula_moiety         'C44 H30 N4'
_chemical_name_systematic        5,10,15,20-tetraphenylporphyrin
_symmetry_cell_setting           triclinic
_symmetry_space_group_name_H-M   'P -1'
_symmetry_Int_Tables_number      2
_space_group_name_Hall           '-P 1'
loop_
_symmetry_equiv_pos_site_id
_symmetry_equiv_pos_as_xyz
1 x,y,z
2 -x,-y,-z
_cell_length_a                   6.4124(6)
_cell_length_b                   10.3303(9)
_cell_length_c                   12.2486(11)
_cell_angle_alpha                94.6981(11)
_cell_angle_beta                 99.5388(11)
_cell_angle_gamma                101.1193(11)
_cell_volume                     779.678
_exptl_crystal_colour            'dark red'
_exptl_crystal_description       prism
_cell_formula_units_Z            1
_chemical_properties_physical    Light-sensitive
_exptl_crystal_recrystallization_method chloroform
loop_
_atom_site_label
_atom_site_type_symbol
_atom_site_fract_x
_atom_site_fract_y
_atom_site_fract_z
N1 N 0.36594(15) 0.51426(9) 0.14597(8)
N2 N 0.76411(15) 0.63676(9) 0.07704(8)
C1 C 0.18198(18) 0.42965(11) 0.16165(10)
C2 C 0.17439(19) 0.44917(12) 0.27786(10)
C3 C 0.35194(19) 0.54211(12) 0.32902(10)
C4 C 0.47563(18) 0.58341(11) 0.24615(9)
C5 C 0.67837(18) 0.67072(11) 0.26538(9)
C6 C 0.81204(18) 0.69389(11) 0.18570(10)
C7 C 1.02184(19) 0.78543(12) 0.20840(10)
C8 C 1.09888(19) 0.78242(12) 0.11251(10)
C9 C 0.93597(18) 0.69077(11) 0.03047(10)
C10 C 0.04040(18) 0.33479(11) 0.08103(9)
C11 C -0.14275(18) 0.24842(11) 0.11884(9)
C12 C -0.29716(19) 0.30248(12) 0.16398(10)
C13 C -0.46409(19) 0.22113(13) 0.20124(11)
C14 C -0.4794(2) 0.08472(13) 0.19245(10)
C15 C -0.3279(2) 0.02920(12) 0.14652(11)
C16 C -0.15955(19) 0.11068(12) 0.11088(10)
C17 C 0.75605(19) 0.74199(11) 0.38045(10)
C18 C 0.6351(2) 0.82390(13) 0.42569(11)
C19 C 0.7059(3) 0.89052(14) 0.53277(11)
C20 C 0.9002(2) 0.87805(14) 0.59524(11)
C21 C 1.0226(2) 0.79745(14) 0.55149(11)
C22 C 0.9502(2) 0.72837(13) 0.44512(11)
H1 H 0.412(3) 0.5171(18) 0.0778(16)
H2 H 0.063(3) 0.3985(16) 0.3124(13)
H3 H 0.396(2) 0.5741(15) 0.4092(13)
H4 H 1.087(2) 0.8393(15) 0.2804(13)
H5 H 1.238(3) 0.8273(16) 0.0972(13)
H6 H -0.288(2) 0.3977(15) 0.1681(13)
H7 H -0.570(3) 0.2610(16) 0.2343(13)
H8 H -0.598(3) 0.0302(16) 0.2201(14)
H9 H -0.334(3) -0.0651(17) 0.1396(13)
H10 H -0.048(2) 0.0717(15) 0.0801(13)
H11 H 0.497(3) 0.8351(16) 0.3820(14)
H12 H 0.617(3) 0.9479(19) 0.5643(16)
H13 H 0.948(3) 0.9250(18) 0.6685(16)
H14 H 1.160(3) 0.7873(17) 0.5953(15)
H15 H 1.034(3) 0.6709(16) 0.4145(13)
N1A N 0.63406(15) 0.48574(9) -0.14597(8)
N2A N 0.23589(15) 0.36324(9) -0.07704(8)
C1A C 0.81802(18) 0.57035(11) -0.16165(10)
C2A C 0.82561(19) 0.55083(12) -0.27786(10)
C3A C 0.64806(19) 0.45789(12) -0.32902(10)
C4A C 0.52437(18) 0.41659(11) -0.24615(9)
C5A C 0.32163(18) 0.32928(11) -0.26538(9)
C6A C 0.18796(18) 0.30611(11) -0.18570(10)
C7A C -0.02184(19) 0.21457(12) -0.20840(10)
C8A C -0.09888(19) 0.21758(12) -0.11251(10)
C9A C 0.06403(18) 0.30923(11) -0.03047(10)
C10A C 0.95960(18) 0.66521(11) -0.08103(9)
C11A C 1.14275(18) 0.75158(11) -0.11884(9)
C12A C 1.29716(19) 0.69752(12) -0.16398(10)
C13A C 1.46409(19) 0.77887(13) -0.20124(11)
C14A C 1.4794(2) 0.91528(13) -0.19245(10)
C15A C 1.3279(2) 0.97080(12) -0.14652(11)
C16A C 1.15955(19) 0.88932(12) -0.11088(10)
C17A C 0.24395(19) 0.25801(11) -0.38045(10)
C18A C 0.3649(2) 0.17610(13) -0.42569(11)
C19A C 0.2941(3) 0.10948(14) -0.53277(11)
C20A C 0.0998(2) 0.12195(14) -0.59524(11)
C21A C -0.0226(2) 0.20255(14) -0.55149(11)
C22A C 0.0498(2) 0.27163(13) -0.44512(11)
H1A H 0.588(3) 0.4829(18) -0.0778(16)
H2A H 0.937(3) 0.6015(16) -0.3124(13)
H3A H 0.604(2) 0.4259(15) -0.4092(13)
H4A H -0.087(2) 0.1607(15) -0.2804(13)
H5A H -0.238(3) 0.1727(16) -0.0972(13)
H6A H 1.288(2) 0.6023(15) -0.1681(13)
H7A H 1.570(3) 0.7390(16) -0.2343(13)
H8A H 1.598(3) 0.9698(16) -0.2201(14)
H9A H 1.334(3) 1.0651(17) -0.1396(13)
H10A H 1.048(2) 0.9283(15) -0.0801(13)
H11A H 0.503(3) 0.1649(16) -0.3820(14)
H12A H 0.383(3) 0.0521(19) -0.5643(16)
H13A H 0.052(3) 0.0750(18) -0.6685(16)
H14A H -0.160(3) 0.2127(17) -0.5953(15)
H15A H -0.034(3) 0.3291(16) -0.4145(13)
loop_
_geom_bond_atom_site_label_1
_geom_bond_atom_site_label_2
_geom_bond_site_symmetry_1
_geom_bond_site_symmetry_2
N1 C1 1_555 1_555
N2 C6 1_555 1_555
C1 C2 1_555 1_555
C2 C3 1_555 1_555
C3 C4 1_555 1_555
C4 N1 1_555 1_555
C5 C4 1_555 1_555
C6 C5 1_555 1_555
C7 C6 1_555 1_555
C8 C7 1_555 1_555
C9 N2 1_555 1_555
C10 C1 1_555 1_555
C11 C10 1_555 1_555
C12 C11 1_555 1_555
C13 C12 1_555 1_555
C14 C13 1_555 1_555
C15 C14 1_555 1_555
C16 C11 1_555 1_555
C17 C5 1_555 1_555
C18 C17 1_555 1_555
C19 C18 1_555 1_555
C20 C19 1_555 1_555
C21 C20 1_555 1_555
C22 C17 1_555 1_555
H1 N1 1_555 1_555
H2 C2 1_555 1_555
H3 C3 1_555 1_555
H4 C7 1_555 1_555
H5 C8 1_555 1_555
H6 C12 1_555 1_555
H7 C13 1_555 1_555
H8 C14 1_555 1_555
H9 C15 1_555 1_555
H10 C16 1_555 1_555
H11 C18 1_555 1_555
H12 C19 1_555 1_555
H13 C20 1_555 1_555
H14 C21 1_555 1_555
H15 C22 1_555 1_555
N1A C1A 1_555 1_555
N2A C6A 1_555 1_555
C1A C2A 1_555 1_555
C2A C3A 1_555 1_555
C3A C4A 1_555 1_555
C4A N1A 1_555 1_555
C5A C4A 1_555 1_555
C6A C5A 1_555 1_555
C7A C6A 1_555 1_555
C8A C7A 1_555 1_555
C9A C10 1_555 1_555
C10A C9 1_555 1_555
C11A C10A 1_555 1_555
C12A C11A 1_555 1_555
C13A C12A 1_555 1_555
C14A C13A 1_555 1_555
C15A C14A 1_555 1_555
C16A C11A 1_555 1_555
C17A C5A 1_555 1_555
C18A C17A 1_555 1_555
C19A C18A 1_555 1_555
C20A C19A 1_555 1_555
C21A C20A 1_555 1_555
C22A C17A 1_555 1_555
H1A N1A 1_555 1_555
H2A C2A 1_555 1_555
H3A C3A 1_555 1_555
H4A C7A 1_555 1_555
H5A C8A 1_555 1_555
H6A C12A 1_555 1_555
H7A C13A 1_555 1_555
H8A C14A 1_555 1_555
H9A C15A 1_555 1_555
H10A C16A 1_555 1_555
H11A C18A 1_555 1_555
H12A C19A 1_555 1_555
H13A C20A 1_555 1_555
H14A C21A 1_555 1_555
H15A C22A 1_555 1_555
C8 C9 1_555 1_555
C15 C16 1_555 1_555
C21 C22 1_555 1_555
N2A C9A 1_555 1_555
C1A C10A 1_555 1_555
C8A C9A 1_555 1_555
C15A C16A 1_555 1_555
C21A C22A 1_555 1_555

#END
