
#######################################################################
#
#                 Cambridge Crystallographic Data Centre
#                                CCDC 
#
#######################################################################
#
# If this CIF has been generated from an entry in the Cambridge 
# Structural Database, then it will include bibliographic, chemical, 
# crystal, experimental, refinement or atomic coordinate data resulting 
# from the CCDC's data processing and validation procedures.
#
#######################################################################

data_TPHPOR12
_chemical_formula_moiety         'C44 H30 N4'
_chemical_name_systematic        5,10,15,20-Tetraphenylporphyrine
_symmetry_cell_setting           triclinic
_symmetry_space_group_name_H-M   'P -1'
_symmetry_Int_Tables_number      2
_space_group_name_Hall           '-P 1'
loop_
_symmetry_equiv_pos_site_id
_symmetry_equiv_pos_as_xyz
1 x,y,z
2 -x,-y,-z
_cell_length_a                   6.3538(16)
_cell_length_b                   10.375(3)
_cell_length_c                   12.253(3)
_cell_angle_alpha                94.819(4)
_cell_angle_beta                 99.495(4)
_cell_angle_gamma                101.047(4)
_cell_volume                     776.301
_exptl_crystal_colour            black
_exptl_crystal_description       rod
_cell_formula_units_Z            1
loop_
_atom_site_label
_atom_site_type_symbol
_atom_site_fract_x
_atom_site_fract_y
_atom_site_fract_z
N1 N 0.36663(17) 0.51137(10) 0.64437(9)
H1 H 0.4092 0.5193 0.5800
N2 N 0.23262(18) 0.36121(11) 0.42226(9)
C1 C 0.4730(2) 0.58040(13) 0.74460(11)
C2 C 0.3495(2) 0.54107(13) 0.82796(11)
H2 H 0.3847 0.5739 0.9049
C3 C 0.1693(2) 0.44632(14) 0.77586(12)
H3 H 0.0573 0.4018 0.8102
C4 C 0.1828(2) 0.42781(12) 0.66088(11)
C5 C 0.0396(2) 0.33219(12) 0.58112(11)
C6 C -0.1446(2) 0.24545(13) 0.61882(11)
C7 C -0.3010(2) 0.29813(14) 0.66422(12)
H4 H -0.2936 0.3908 0.6698
C8 C -0.4678(2) 0.21653(15) 0.70148(13)
H5 H -0.5729 0.2537 0.7330
C9 C -0.4813(2) 0.08173(14) 0.69294(12)
H6 H -0.5954 0.0262 0.7186
C10 C -0.3286(2) 0.02741(14) 0.64692(12)
H7 H -0.3391 -0.0656 0.6400
C11 C -0.1596(2) 0.10895(13) 0.61076(12)
H8 H -0.0537 0.0714 0.5804
C12 C 0.0625(2) 0.30709(12) 0.47040(11)
C13 C -0.0971(2) 0.21626(13) 0.38891(11)
H9 H -0.2317 0.1661 0.4001
C14 C -0.0164(2) 0.21603(13) 0.29072(11)
H10 H -0.0849 0.1653 0.2214
C15 C 0.1895(2) 0.30661(12) 0.31356(11)
C16 C 0.6757(2) 0.66867(12) 0.76523(11)
C17 C 0.7535(2) 0.74014(13) 0.88034(11)
C18 C 0.6319(3) 0.82179(15) 0.92497(12)
H11 H 0.4986 0.8321 0.8820
C19 C 0.7031(3) 0.88869(16) 1.03195(13)
H12 H 0.6165 0.9424 1.0623
C20 C 0.8974(3) 0.87733(17) 1.09356(13)
H13 H 0.9468 0.9243 1.1661
C21 C 1.0209(3) 0.79815(18) 1.05055(14)
H14 H 1.1563 0.7910 1.0933
C22 C 0.9491(3) 0.72824(17) 0.94483(13)
H15 H 1.0342 0.6720 0.9164
N1A N 0.63337(17) 0.48863(10) 0.35563(9)
H1A H 0.5908 0.4807 0.4200
N2A N 0.76738(18) 0.63879(11) 0.57774(9)
C1A C 0.5270(2) 0.41960(13) 0.25540(11)
C2A C 0.6505(2) 0.45893(13) 0.17204(11)
H2A H 0.6153 0.4261 0.0951
C3A C 0.8307(2) 0.55368(14) 0.22414(12)
H3A H 0.9427 0.5982 0.1898
C4A C 0.8172(2) 0.57219(12) 0.33912(11)
C5A C 0.9604(2) 0.66781(12) 0.41888(11)
C6A C 1.1446(2) 0.75455(13) 0.38118(11)
C7A C 1.3010(2) 0.70187(14) 0.33578(12)
H4A H 1.2936 0.6092 0.3302
C8A C 1.4678(2) 0.78347(15) 0.29852(13)
H5A H 1.5729 0.7463 0.2670
C9A C 1.4813(2) 0.91827(14) 0.30706(12)
H6A H 1.5954 0.9738 0.2814
C10A C 1.3286(2) 0.97259(14) 0.35308(12)
H7A H 1.3391 1.0656 0.3600
C11A C 1.1596(2) 0.89105(13) 0.38924(12)
H8A H 1.0537 0.9286 0.4196
C12A C 0.9375(2) 0.69291(12) 0.52960(11)
C13A C 1.0971(2) 0.78374(13) 0.61109(11)
H9A H 1.2317 0.8339 0.5999
C14A C 1.0164(2) 0.78397(13) 0.70928(11)
H10A H 1.0849 0.8347 0.7786
C15A C 0.8105(2) 0.69339(12) 0.68644(11)
C16A C 0.3243(2) 0.33133(12) 0.23477(11)
C17A C 0.2465(2) 0.25986(13) 0.11966(11)
C18A C 0.3681(3) 0.17821(15) 0.07503(12)
H11A H 0.5014 0.1679 0.1180
C19A C 0.2969(3) 0.11131(16) -0.03195(13)
H12A H 0.3835 0.0576 -0.0623
C20A C 0.1026(3) 0.12267(17) -0.09356(13)
H13A H 0.0532 0.0757 -0.1661
C21A C -0.0209(3) 0.20185(18) -0.05055(14)
H14A H -0.1563 0.2090 -0.0933
C22A C 0.0509(3) 0.27176(17) 0.05517(13)
H15A H -0.0342 0.3280 0.0836
H16? H 0.3490 0.4205 0.4553
C23? C 0.3495(2) 0.54107(13) 0.82796(11)
H17? H 0.4386 0.5041 0.8867
H18? H 0.3033 0.6180 0.8629
O1? O 0.1693(2) 0.44632(14) 0.77586(12)
O2? O 0.3495(2) 0.54107(13) 0.82796(11)
C24? C 0.1693(2) 0.44632(14) 0.77586(12)
H19? H 0.0336 0.4762 0.7849
H20? H 0.1688 0.3623 0.8087
C25? C -0.0971(2) 0.21626(13) 0.38891(11)
H21? H -0.1196 0.1265 0.4127
H22? H -0.2382 0.2449 0.3788
O3? O -0.0164(2) 0.21603(13) 0.29072(11)
O4? O -0.0971(2) 0.21626(13) 0.38891(11)
C26? C -0.0164(2) 0.21603(13) 0.29072(11)
H23? H -0.1178 0.2442 0.2315
H24? H 0.0016 0.1262 0.2656
loop_
_geom_bond_atom_site_label_1
_geom_bond_atom_site_label_2
_geom_bond_site_symmetry_1
_geom_bond_site_symmetry_2
N1 H1 1_555 1_555
N2 C12 1_555 1_555
C1 N1 1_555 1_555
C2 C1 1_555 1_555
H2 C2 1_555 1_555
C3 C2 1_555 1_555
H3 C3 1_555 1_555
C4 N1 1_555 1_555
C5 C4 1_555 1_555
C6 C5 1_555 1_555
C7 C6 1_555 1_555
H4 C7 1_555 1_555
C8 C7 1_555 1_555
H5 C8 1_555 1_555
C9 C8 1_555 1_555
H6 C9 1_555 1_555
C10 C9 1_555 1_555
H7 C10 1_555 1_555
C11 C6 1_555 1_555
H8 C11 1_555 1_555
C12 C5 1_555 1_555
C13 C12 1_555 1_555
H9 C13 1_555 1_555
C14 C13 1_555 1_555
H10 C14 1_555 1_555
C15 N2 1_555 1_555
C16 C1 1_555 1_555
C17 C16 1_555 1_555
C18 C17 1_555 1_555
H11 C18 1_555 1_555
C19 C18 1_555 1_555
H12 C19 1_555 1_555
C20 C19 1_555 1_555
H13 C20 1_555 1_555
C21 C20 1_555 1_555
H14 C21 1_555 1_555
C22 C17 1_555 1_555
H15 C22 1_555 1_555
N1A H1A 1_555 1_555
N2A C12A 1_555 1_555
C1A N1A 1_555 1_555
C2A C1A 1_555 1_555
H2A C2A 1_555 1_555
C3A C2A 1_555 1_555
H3A C3A 1_555 1_555
C4A N1A 1_555 1_555
C5A C4A 1_555 1_555
C6A C5A 1_555 1_555
C7A C6A 1_555 1_555
H4A C7A 1_555 1_555
C8A C7A 1_555 1_555
H5A C8A 1_555 1_555
C9A C8A 1_555 1_555
H6A C9A 1_555 1_555
C10A C9A 1_555 1_555
H7A C10A 1_555 1_555
C11A C6A 1_555 1_555
H8A C11A 1_555 1_555
C12A C5A 1_555 1_555
C13A C12A 1_555 1_555
H9A C13A 1_555 1_555
C14A C13A 1_555 1_555
H10A C14A 1_555 1_555
C15A C16 1_555 1_555
C16A C15 1_555 1_555
C17A C16A 1_555 1_555
C18A C17A 1_555 1_555
H11A C18A 1_555 1_555
C19A C18A 1_555 1_555
H12A C19A 1_555 1_555
C20A C19A 1_555 1_555
H13A C20A 1_555 1_555
C21A C20A 1_555 1_555
H14A C21A 1_555 1_555
C22A C17A 1_555 1_555
H15A C22A 1_555 1_555
C3 C4 1_555 1_555
C10 C11 1_555 1_555
C14 C15 1_555 1_555
C21 C22 1_555 1_555
N2A C15A 1_555 1_555
C1A C16A 1_555 1_555
C3A C4A 1_555 1_555
C10A C11A 1_555 1_555
C14A C15A 1_555 1_555
C21A C22A 1_555 1_555

#END
