
#######################################################################
#
#                 Cambridge Crystallographic Data Centre
#                                CCDC 
#
#######################################################################
#
# If this CIF has been generated from an entry in the Cambridge 
# Structural Database, then it will include bibliographic, chemical, 
# crystal, experimental, refinement or atomic coordinate data resulting 
# from the CCDC's data processing and validation procedures.
#
#######################################################################

data_TRMTRZ
_chemical_formula_moiety         'C4 H6 N4'
_chemical_name_systematic        Trimethylene-tetrazole
_symmetry_cell_setting           monoclinic
_symmetry_space_group_name_H-M   'P 21/n'
_symmetry_Int_Tables_number      14
_space_group_name_Hall           '-P 2yn'
loop_
_symmetry_equiv_pos_site_id
_symmetry_equiv_pos_as_xyz
1 x,y,z
2 1/2-x,1/2+y,1/2-z
3 -x,-y,-z
4 1/2+x,1/2-y,1/2+z
_cell_length_a                   7.758(5)
_cell_length_b                   10.367(6)
_cell_length_c                   6.694(2)
_cell_angle_alpha                90
_cell_angle_beta                 102.02(4)
_cell_angle_gamma                90
_cell_volume                     526.576
_chemical_melting_point          383K
_cell_formula_units_Z            4
loop_
_atom_site_label
_atom_site_type_symbol
_atom_site_fract_x
_atom_site_fract_y
_atom_site_fract_z
N1 N 0.23420 0.91780 -0.00150
N2 N 0.28970 1.01060 0.13340
N3 N 0.20390 0.99010 0.28340
N4 N 0.09870 0.88850 0.24590
C1 C 0.12050 0.84510 0.06510
C2 C 0.05040 0.73920 -0.07520
C3 C 0.15130 0.75980 -0.24380
C4 C 0.26430 0.87820 -0.20280
H1 H -0.08100 0.75100 -0.12100
H2 H 0.06600 0.65800 -0.01000
H3 H 0.11200 0.73600 -0.35900
H4 H 0.22400 0.68900 -0.23700
H5 H 0.38900 0.86400 -0.19200
H6 H 0.21300 0.94400 -0.30500
loop_
_geom_bond_atom_site_label_1
_geom_bond_atom_site_label_2
_geom_bond_site_symmetry_1
_geom_bond_site_symmetry_2
N1 N2 1_555 1_555
N2 N3 1_555 1_555
N3 N4 1_555 1_555
N4 C1 1_555 1_555
C1 N1 1_555 1_555
C2 C1 1_555 1_555
C3 C2 1_555 1_555
C4 N1 1_555 1_555
H1 C2 1_555 1_555
H2 C2 1_555 1_555
H3 C3 1_555 1_555
H4 C3 1_555 1_555
H5 C4 1_555 1_555
H6 C4 1_555 1_555
C3 C4 1_555 1_555

#END
