
#######################################################################
#
#                 Cambridge Crystallographic Data Centre
#                                CCDC 
#
#######################################################################
#
# If this CIF has been generated from an entry in the Cambridge 
# Structural Database, then it will include bibliographic, chemical, 
# crystal, experimental, refinement or atomic coordinate data resulting 
# from the CCDC's data processing and validation procedures.
#
#######################################################################

data_TSHOCZ01
_chemical_formula_moiety         'C20 H26 N2 O6 S2'
_chemical_name_systematic        
1,5-Ditosyl-3,7-dihydroxy-1,5-diazacyclo-octane
_symmetry_cell_setting           orthorhombic
_symmetry_space_group_name_H-M   'P b c a'
_symmetry_Int_Tables_number      61
_space_group_name_Hall           '-P 2ac 2ab'
loop_
_symmetry_equiv_pos_site_id
_symmetry_equiv_pos_as_xyz
1 x,y,z
2 1/2-x,-y,1/2+z
3 1/2+x,1/2-y,-z
4 -x,1/2+y,1/2-z
5 -x,-y,-z
6 1/2+x,y,1/2-z
7 1/2-x,1/2+y,z
8 x,1/2-y,1/2+z
_cell_length_a                   13.013
_cell_length_b                   21.282
_cell_length_c                   15.187
_cell_angle_alpha                90
_cell_angle_beta                 90
_cell_angle_gamma                90
_cell_volume                     4205.93
_chemical_melting_point          213-215deg.C
_cell_formula_units_Z            8
loop_
_atom_site_label
_atom_site_type_symbol
_atom_site_fract_x
_atom_site_fract_y
_atom_site_fract_z
S1 S 0.0730(2) 0.08314(8) 0.1475(1)
S2 S 0.0334(2) -0.07728(9) 0.3263(1)
O1 O 0.2926(4) 0.0701(3) 0.3943(4)
O2 O 0.2260(6) -0.1105(3) 0.0695(4)
O3 O 0.0413(5) 0.1170(2) 0.2243(3)
O4 O 0.0029(4) 0.0402(3) 0.1069(4)
O5 O -0.0143(5) -0.1134(3) 0.2581(4)
O6 O -0.0118(5) -0.0192(3) 0.3546(4)
N1 N 0.1736(5) 0.0435(3) 0.1746(4)
N2 N 0.1486(5) -0.0616(3) 0.2922(4)
C1 C 0.2165(7) -0.0031(4) 0.1153(5)
C2 C 0.1735(7) -0.0698(4) 0.1302(5)
C3 C 0.1938(6) -0.0969(4) 0.2200(5)
C4 C 0.2142(7) -0.0241(4) 0.3496(5)
C5 C 0.2179(8) 0.0436(4) 0.3338(6)
C6 C 0.2427(6) 0.0687(4) 0.2446(6)
C7 C 0.1087(6) 0.1381(3) 0.0660(5)
C8 C 0.1002(6) 0.1221(3) -0.0209(5)
C9 C 0.1307(7) 0.1663(4) -0.0840(5)
C10 C 0.1662(6) 0.2248(3) -0.0595(5)
C11 C 0.1718(6) 0.2397(3) 0.0288(5)
C12 C 0.1443(6) 0.1965(3) 0.0927(5)
C13 C 0.1940(8) 0.2741(4) -0.1282(6)
C14 C 0.0465(6) -0.1234(3) 0.4221(4)
C15 C 0.0625(6) -0.1882(3) 0.4128(5)
C16 C 0.0753(6) -0.2234(3) 0.4894(5)
C17 C 0.0728(6) -0.1958(3) 0.5715(5)
C18 C 0.0573(7) -0.1315(4) 0.5775(5)
C19 C 0.0444(6) -0.0960(3) 0.5033(5)
C20 C 0.0869(7) -0.2344(4) 0.6539(6)
loop_
_geom_bond_atom_site_label_1
_geom_bond_atom_site_label_2
_geom_bond_site_symmetry_1
_geom_bond_site_symmetry_2
S1 O3 1_555 1_555
S2 O5 1_555 1_555
O1 C5 1_555 1_555
O2 C2 1_555 1_555
O4 S1 1_555 1_555
O6 S2 1_555 1_555
N1 S1 1_555 1_555
N2 S2 1_555 1_555
C1 N1 1_555 1_555
C2 C1 1_555 1_555
C3 N2 1_555 1_555
C4 N2 1_555 1_555
C5 C4 1_555 1_555
C6 N1 1_555 1_555
C7 S1 1_555 1_555
C8 C7 1_555 1_555
C9 C8 1_555 1_555
C10 C9 1_555 1_555
C11 C10 1_555 1_555
C12 C7 1_555 1_555
C13 C10 1_555 1_555
C14 S2 1_555 1_555
C15 C14 1_555 1_555
C16 C15 1_555 1_555
C17 C16 1_555 1_555
C18 C17 1_555 1_555
C19 C14 1_555 1_555
C20 C17 1_555 1_555
C2 C3 1_555 1_555
C5 C6 1_555 1_555
C11 C12 1_555 1_555
C18 C19 1_555 1_555

#END
