
#######################################################################
#
#                 Cambridge Crystallographic Data Centre
#                                CCDC 
#
#######################################################################
#
# If this CIF has been generated from an entry in the Cambridge 
# Structural Database, then it will include bibliographic, chemical, 
# crystal, experimental, refinement or atomic coordinate data resulting 
# from the CCDC's data processing and validation procedures.
#
#######################################################################

data_TUBCOK
_chemical_formula_moiety         
'2(C9 H7 N2 O3 1+),C9 H6 N2 O3,2(H1 O4 S1 1-),2(H2 O1)'
_chemical_name_systematic        
'bis(2-(carboxycarbonyl)imidazo[1,2-a]pyridin-1-ium) imidazo[1,2-a]pyridin-1-ium-2-yl(oxo)acetate bis(hydrogen sulfate) dihydrate'
_symmetry_cell_setting           monoclinic
_symmetry_space_group_name_H-M   'P 21'
_symmetry_Int_Tables_number      4
_space_group_name_Hall           'P 2yb'
loop_
_symmetry_equiv_pos_site_id
_symmetry_equiv_pos_as_xyz
1 x,y,z
2 -x,1/2+y,-z
_cell_length_a                   10.092(2)
_cell_length_b                   15.641(3)
_cell_length_c                   10.551(2)
_cell_angle_alpha                90
_cell_angle_beta                 101.62(3)
_cell_angle_gamma                90
_cell_volume                     1631.33
_exptl_crystal_description       block
_cell_formula_units_Z            2
loop_
_atom_site_label
_atom_site_type_symbol
_atom_site_fract_x
_atom_site_fract_y
_atom_site_fract_z
S1 S 0.18171(7) 1.13089(5) 1.16659(6)
O1 O 0.0613(2) 1.18950(14) 1.16305(19)
O2 O 0.1336(3) 1.05347(14) 1.0973(2)
O3 O 0.2416(2) 1.11290(17) 1.29935(19)
O4 O 0.2712(3) 1.1774(2) 1.1014(3)
H1 H 0.220(5) 1.057(3) 1.092(4)
S2 S 0.80586(7) 0.12236(4) 0.30432(6)
O5 O 0.7610(3) 0.10110(17) 0.4219(2)
O6 O 0.8189(3) 0.04611(16) 0.2299(2)
O7 O 0.7064(3) 0.17830(19) 0.2288(3)
O8 O 0.9349(2) 0.16940(16) 0.3379(2)
H2 H 0.894(3) 0.0309(17) 0.292(2)
N1 N 0.8461(2) 0.05459(15) 0.8664(2)
N2 N 0.8305(2) 0.11500(15) 0.6777(2)
C1 C 0.8432(3) 0.1793(2) 0.7684(3)
C2 C 0.8206(3) -0.04480(19) 0.6881(3)
H3 H 0.8113 -0.0557 0.6001
O9 O 0.8568(3) 0.32782(14) 0.9341(2)
C3 C 0.8536(3) 0.14197(19) 0.8866(3)
H4 H 0.8639 0.1699 0.9658
C4 C 0.8388(4) -0.0923(2) 0.9089(3)
H5 H 0.8417 -0.1376 0.9664
C5 C 0.8449(3) 0.26793(19) 0.7230(3)
O10 O 0.8503(3) 0.41469(14) 0.7630(2)
C6 C 0.8484(3) -0.0116(2) 0.9539(3)
H6 H 0.8565 -0.0006 1.0417
C7 C 0.8316(3) 0.03866(18) 0.7368(2)
C8 C 0.8241(3) -0.1090(2) 0.7746(3)
H7 H 0.8168 -0.1652 0.7455
O11 O 0.8400(3) 0.28145(15) 0.6104(2)
C9 C 0.8525(3) 0.3414(2) 0.8223(3)
H8 H 0.812(3) 0.121(2) 0.600(3)
H9 H 0.872(8) 0.471(5) 0.815(7)
N3 N 0.8294(2) -0.45007(15) 0.2646(2)
N4 N 0.8314(3) -0.39075(16) 0.4517(2)
C10 C 0.8182(3) -0.23701(19) 0.4071(3)
C11 C 0.8352(3) -0.5965(2) 0.2202(3)
H10 H 0.8333 -0.6416 0.1624
C12 C 0.8457(3) -0.5502(2) 0.4396(3)
H11 H 0.8522 -0.5617 0.5271
C13 C 0.8249(3) -0.3251(2) 0.3635(3)
C14 C 0.8284(3) -0.5159(2) 0.1759(3)
H12 H 0.8232 -0.5044 0.0885
C15 C 0.8452(4) -0.6141(2) 0.3532(3)
H13 H 0.8516 -0.6705 0.3817
O12 O 0.8519(3) -0.17905(14) 0.2062(2)
O13 O 0.8022(3) -0.22278(14) 0.5154(2)
C16 C 0.8243(3) -0.36221(19) 0.2454(3)
H14 H 0.8210 -0.3339 0.1673
O14 O 0.8107(3) -0.09082(14) 0.3615(2)
C17 C 0.8288(3) -0.1639(2) 0.3117(3)
C18 C 0.8361(3) -0.46655(19) 0.3933(2)
H15 H 0.827(3) -0.384(2) 0.525(3)
N5 N 0.4896(3) 0.95693(15) 0.3704(2)
C19 C 0.4960(3) 0.9535(2) 0.7193(3)
C20 C 0.4892(4) 0.9844(2) 0.2461(3)
H16 H 0.4908 1.0424 0.2270
C21 C 0.4861(4) 0.8377(2) 0.1821(4)
H17 H 0.4852 0.7981 0.1162
O15 O 0.5061(3) 1.10516(17) 0.7126(2)
C22 C 0.4869(4) 0.8098(2) 0.3039(3)
H18 H 0.4861 0.7517 0.3228
O16 O 0.5043(3) 1.0417(2) 0.8990(2)
N6 N 0.4918(3) 0.86461(17) 0.5268(3)
C23 C 0.4931(3) 0.9455(2) 0.5794(3)
C24 C 0.4889(3) 0.87140(19) 0.3997(3)
C25 C 0.4929(3) 1.00371(19) 0.4836(3)
H19 H 0.4945 1.0629 0.4918
C26 C 0.4865(4) 0.9256(2) 0.1537(4)
H20 H 0.4849 0.9431 0.0691
C27 C 0.5031(3) 1.0435(2) 0.7771(3)
O17 O 0.4937(3) 0.89059(18) 0.7850(2)
H21 H 0.501(3) 1.107(3) 0.946(4)
H22 H 0.499(4) 0.813(3) 0.578(4)
O18 O 0.5075(3) 1.1770(2) 1.0223(2)
H23 H 0.576(4) 1.178(3) 1.098(4)
H24 H 0.431(7) 1.163(4) 1.067(6)
O19 O 0.5045(3) 0.70690(16) 0.6134(3)
H25 H 0.582(4) 0.689(3) 0.667(4)
H26 H 0.457(4) 0.682(3) 0.650(4)
loop_
_geom_bond_atom_site_label_1
_geom_bond_atom_site_label_2
_geom_bond_site_symmetry_1
_geom_bond_site_symmetry_2
S1 O1 1_555 1_555
O2 S1 1_555 1_555
O3 S1 1_555 1_555
O4 S1 1_555 1_555
H1 O2 1_555 1_555
S2 O5 1_555 1_555
O6 S2 1_555 1_555
O7 S2 1_555 1_555
O8 S2 1_555 1_555
H2 O6 1_555 1_555
N1 C3 1_555 1_555
N2 C1 1_555 1_555
C1 C3 1_555 1_555
C2 H3 1_555 1_555
O9 C9 1_555 1_555
C3 H4 1_555 1_555
C4 H5 1_555 1_555
C5 C1 1_555 1_555
O10 C9 1_555 1_555
C6 N1 1_555 1_555
H6 C6 1_555 1_555
C7 N1 1_555 1_555
C8 C2 1_555 1_555
H7 C8 1_555 1_555
O11 C5 1_555 1_555
C9 C5 1_555 1_555
H8 N2 1_555 1_555
H9 O10 1_555 1_555
N3 C14 1_555 1_555
N4 C13 1_555 1_555
C10 C13 1_555 1_555
C11 H10 1_555 1_555
C12 H11 1_555 1_555
C13 C16 1_555 1_555
C14 C11 1_555 1_555
H12 C14 1_555 1_555
C15 C11 1_555 1_555
H13 C15 1_555 1_555
O12 C17 1_555 1_555
O13 C10 1_555 1_555
C16 N3 1_555 1_555
H14 C16 1_555 1_555
O14 C17 1_555 1_555
C17 C10 1_555 1_555
C18 N3 1_555 1_555
H15 N4 1_555 1_555
N5 C20 1_555 1_555
C19 C23 1_555 1_555
C20 H16 1_555 1_555
C21 H17 1_555 1_555
O15 C27 1_555 1_555
C22 C21 1_555 1_555
H18 C22 1_555 1_555
O16 C27 1_555 1_555
N6 C23 1_555 1_555
C23 C25 1_555 1_555
C24 N5 1_555 1_555
C25 N5 1_555 1_555
H19 C25 1_555 1_555
C26 C20 1_555 1_555
H20 C26 1_555 1_555
C27 C19 1_555 1_555
O17 C19 1_555 1_555
H21 O16 1_555 1_555
H22 N6 1_555 1_555
O18 H23 1_555 1_555
H24 O18 1_555 1_555
O19 H25 1_555 1_555
H26 O19 1_555 1_555
N2 C7 1_555 1_555
C2 C7 1_555 1_555
C4 C6 1_555 1_555
C4 C8 1_555 1_555
N4 C18 1_555 1_555
C12 C15 1_555 1_555
C12 C18 1_555 1_555
C21 C26 1_555 1_555
C22 C24 1_555 1_555
N6 C24 1_555 1_555

#END
