
#######################################################################
#
#                 Cambridge Crystallographic Data Centre
#                                CCDC 
#
#######################################################################
#
# If this CIF has been generated from an entry in the Cambridge 
# Structural Database, then it will include bibliographic, chemical, 
# crystal, experimental, refinement or atomic coordinate data resulting 
# from the CCDC's data processing and validation procedures.
#
#######################################################################

data_TUBVIX
_chemical_formula_moiety         'C21 H14 F4 N2 O1'
_chemical_name_systematic        
1,3-bis(2,4-Difluorobenzyl)-1,3-dihydro-2H-benzimidazol-2-one
_symmetry_cell_setting           triclinic
_symmetry_space_group_name_H-M   'P -1'
_symmetry_Int_Tables_number      2
_space_group_name_Hall           '-P 1'
loop_
_symmetry_equiv_pos_site_id
_symmetry_equiv_pos_as_xyz
1 x,y,z
2 -x,-y,-z
_cell_length_a                   7.1751(15)
_cell_length_b                   9.945(2)
_cell_length_c                   12.951(3)
_cell_angle_alpha                76.280(3)
_cell_angle_beta                 81.943(3)
_cell_angle_gamma                76.603(3)
_cell_volume                     869.78
_exptl_crystal_colour            colorless
_exptl_crystal_description       block
_cell_formula_units_Z            2
loop_
_atom_site_label
_atom_site_type_symbol
_atom_site_fract_x
_atom_site_fract_y
_atom_site_fract_z
O1 O 0.3164(3) 0.6484(2) 0.90983(17)
F1 F 0.4023(3) 1.1482(2) 0.67110(16)
F2 F 0.9146(3) 0.8624(3) 0.5091(2)
F3 F 0.2459(4) 0.7152(3) 1.33141(17)
F4 F -0.2646(4) 0.4853(3) 1.3748(2)
N1 N 0.3218(3) 0.7733(3) 1.04021(18)
N2 N 0.2467(3) 0.8941(3) 0.87995(18)
C1 C 0.2970(4) 0.7593(3) 0.9399(2)
C2 C 0.2374(4) 0.9933(3) 0.9423(2)
C3 C 0.1954(4) 1.1386(3) 0.9199(2)
H1 H 0.1654 1.1900 0.8522
C4 C 0.1993(4) 1.2062(3) 1.0017(3)
H2 H 0.1707 1.3045 0.9891
C5 C 0.2456(4) 1.1283(4) 1.1024(3)
H3 H 0.2478 1.1760 1.1557
C6 C 0.2886(4) 0.9816(3) 1.1255(3)
H4 H 0.3188 0.9302 1.1932
C7 C 0.2847(4) 0.9151(3) 1.0439(2)
C8 C 0.2143(4) 0.9222(4) 0.7673(2)
H5 H 0.1397 1.0174 0.7467
H6 H 0.1401 0.8570 0.7571
C9 C 0.3994(4) 0.9068(3) 0.6965(2)
C10 C 0.4921(5) 0.7767(4) 0.6732(3)
H7 H 0.4366 0.6984 0.7006
C11 C 0.6654(6) 0.7614(4) 0.6100(3)
H8 H 0.7252 0.6744 0.5939
C12 C 0.7452(5) 0.8766(4) 0.5723(3)
C13 C 0.6608(5) 1.0081(4) 0.5907(3)
H9 H 0.7171 1.0860 0.5630
C14 C 0.4892(5) 1.0185(3) 0.6522(2)
C15 C 0.3832(4) 0.6526(3) 1.1269(2)
H10 H 0.4616 0.6796 1.1707
H11 H 0.4618 0.5755 1.0967
C16 C 0.2166(4) 0.6030(3) 1.1955(2)
C17 C 0.1510(5) 0.6374(3) 1.2937(3)
C18 C -0.0092(6) 0.6000(4) 1.3548(3)
H12 H -0.0502 0.6266 1.4198
C19 C -0.1050(6) 0.5224(4) 1.3161(4)
C20 C -0.0486(6) 0.4810(4) 1.2216(3)
H13 H -0.1167 0.4273 1.1975
C21 C 0.1130(5) 0.5211(3) 1.1628(3)
H14 H 0.1540 0.4922 1.0987
loop_
_geom_bond_atom_site_label_1
_geom_bond_atom_site_label_2
_geom_bond_site_symmetry_1
_geom_bond_site_symmetry_2
O1 C1 1_555 1_555
F1 C14 1_555 1_555
F2 C12 1_555 1_555
F3 C17 1_555 1_555
F4 C19 1_555 1_555
N1 C1 1_555 1_555
N2 C1 1_555 1_555
C2 N2 1_555 1_555
C3 C2 1_555 1_555
H1 C3 1_555 1_555
C4 C3 1_555 1_555
H2 C4 1_555 1_555
C5 C4 1_555 1_555
H3 C5 1_555 1_555
C6 C5 1_555 1_555
H4 C6 1_555 1_555
C7 N1 1_555 1_555
C8 N2 1_555 1_555
H5 C8 1_555 1_555
H6 C8 1_555 1_555
C9 C8 1_555 1_555
C10 C9 1_555 1_555
H7 C10 1_555 1_555
C11 C10 1_555 1_555
H8 C11 1_555 1_555
C12 C11 1_555 1_555
C13 C12 1_555 1_555
H9 C13 1_555 1_555
C14 C9 1_555 1_555
C15 N1 1_555 1_555
H10 C15 1_555 1_555
H11 C15 1_555 1_555
C16 C15 1_555 1_555
C17 C16 1_555 1_555
C18 C17 1_555 1_555
H12 C18 1_555 1_555
C19 C18 1_555 1_555
C20 C19 1_555 1_555
H13 C20 1_555 1_555
C21 C16 1_555 1_555
H14 C21 1_555 1_555
C2 C7 1_555 1_555
C6 C7 1_555 1_555
C13 C14 1_555 1_555
C20 C21 1_555 1_555

#END
