
#######################################################################
#
#                 Cambridge Crystallographic Data Centre
#                                CCDC 
#
#######################################################################
#
# If this CIF has been generated from an entry in the Cambridge 
# Structural Database, then it will include bibliographic, chemical, 
# crystal, experimental, refinement or atomic coordinate data resulting 
# from the CCDC's data processing and validation procedures.
#
#######################################################################

data_TUCCUR
_chemical_formula_moiety         'C27 H25 N3 O2'
_chemical_name_systematic        
'(3R*,5S*)-ethyl 4,4-dicyano-5-(1-methyl-1H-indol-2-yl)-3-(2-phenylethyl)cyclopent-1-ene-1-carboxylate'
_symmetry_cell_setting           triclinic
_symmetry_space_group_name_H-M   'P -1'
_symmetry_Int_Tables_number      2
_space_group_name_Hall           '-P 1'
loop_
_symmetry_equiv_pos_site_id
_symmetry_equiv_pos_as_xyz
1 x,y,z
2 -x,-y,-z
_cell_length_a                   10.986(5)
_cell_length_b                   11.217(5)
_cell_length_c                   11.736(5)
_cell_angle_alpha                105.794(5)
_cell_angle_beta                 105.620(5)
_cell_angle_gamma                112.083(5)
_cell_volume                     1172.23
_exptl_crystal_colour            colorless
_exptl_crystal_description       block
_cell_formula_units_Z            2
_exptl_crystal_recrystallization_method dichloromethane/hexane
loop_
_atom_site_label
_atom_site_type_symbol
_atom_site_fract_x
_atom_site_fract_y
_atom_site_fract_z
N1 N 0.16593(13) 0.03560(12) -0.33095(11)
C1 C 0.15567(15) 0.06145(15) -0.21293(13)
N2 N 0.59114(16) 0.47701(15) 0.11920(15)
C2 C 0.05465(15) -0.05933(15) -0.21844(14)
H1 H 0.0282 -0.0696 -0.1514
N3 N 0.48721(19) 0.06300(18) -0.12142(16)
C3 C -0.00302(16) -0.16708(16) -0.34595(15)
C4 C -0.10690(19) -0.31138(18) -0.40997(18)
H2 H -0.1551 -0.3562 -0.3672
C5 C -0.1355(2) -0.3846(2) -0.53684(19)
H3 H -0.2038 -0.4802 -0.5801
C6 C -0.0652(2) -0.3195(2) -0.60232(19)
H4 H -0.0883 -0.3724 -0.6887
C7 C 0.0374(2) -0.17943(19) -0.54312(16)
H5 H 0.0845 -0.1362 -0.5873
O1 O -0.00134(12) 0.26106(13) 0.04213(12)
C8 C 0.06818(16) -0.10448(16) -0.41359(14)
C9 C 0.26591(18) 0.13303(18) -0.36383(16)
H6 H 0.3229 0.2243 -0.2912
H7 H 0.3283 0.0978 -0.3840
H8 H 0.2127 0.1415 -0.4380
C10 C 0.24896(14) 0.20222(14) -0.09849(13)
H9 H 0.2751 0.2791 -0.1270
C11 C 0.17631(14) 0.22339(14) -0.00810(13)
C12 C 0.22493(15) 0.19978(15) 0.09465(14)
H10 H 0.1896 0.2062 0.1585
C13 C 0.34253(15) 0.16164(15) 0.09863(13)
H11 H 0.2988 0.0582 0.0627
C14 C 0.38927(14) 0.21211(14) -0.00236(13)
C15 C 0.06074(17) 0.26224(18) -0.04033(16)
C16 C -0.1120(2) 0.3044(3) 0.0233(2)
H12 H -0.1976 0.2333 -0.0554
H13 H -0.0767 0.3932 0.0143
C17 C -0.1475(3) 0.3215(3) 0.1360(2)
H14 H -0.2164 0.3553 0.1272
H15 H -0.0614 0.3885 0.2140
H16 H -0.1881 0.2319 0.1410
C18 C 0.44423(16) 0.12785(16) -0.06971(15)
O2 O 0.02814(18) 0.2926(2) -0.12942(16)
C19 C 0.50425(15) 0.36164(16) 0.06563(14)
C20 C 0.46160(16) 0.22336(16) 0.23479(14)
H17 H 0.5431 0.2125 0.2274
H18 H 0.4944 0.3238 0.2776
C21 C 0.40886(19) 0.15041(18) 0.31734(15)
H19 H 0.3988 0.0563 0.2867
H20 H 0.3144 0.1403 0.3069
C22 C 0.5134(15) 0.2340(15) 0.4633(9)
C23 C 0.4928(14) 0.3329(12) 0.5420(9)
H21 H 0.4155 0.3474 0.5074
C24 C 0.5858(13) 0.4111(11) 0.6721(9)
H22 H 0.5743 0.4816 0.7237
C25 C 0.6937(13) 0.3856(12) 0.7249(9)
H23 H 0.7524 0.4345 0.8137
C26 C 0.7167(12) 0.2889(13) 0.6486(8)
H24 H 0.7923 0.2731 0.6850
C27 C 0.6278(11) 0.2137(12) 0.5167(7)
H25 H 0.6454 0.1494 0.4642
H26? H 0.2530 0.0848 -0.4510
H27? H 0.2476 0.2112 -0.3582
H28? H 0.3632 0.1676 -0.3041
H29? H 0.3154 0.1428 0.3077
H30? H 0.3951 0.0550 0.2833
C28? C 0.502(3) 0.219(3) 0.4518(19)
C29? C 0.521(3) 0.343(3) 0.538(2)
H31? H 0.4740 0.3892 0.5070
C30? C 0.608(3) 0.401(3) 0.671(2)
H32? H 0.6070 0.4753 0.7284
C31? C 0.695(3) 0.349(3) 0.717(2)
H33? H 0.7629 0.3952 0.8028
C32? C 0.680(2) 0.230(3) 0.6340(18)
H34? H 0.7367 0.1918 0.6641
C33? C 0.583(2) 0.164(2) 0.5058(16)
H35? H 0.5720 0.0786 0.4531
loop_
_geom_bond_atom_site_label_1
_geom_bond_atom_site_label_2
_geom_bond_site_symmetry_1
_geom_bond_site_symmetry_2
N1 C1 1_555 1_555
C1 C2 1_555 1_555
N2 C19 1_555 1_555
C2 H1 1_555 1_555
N3 C18 1_555 1_555
C3 C2 1_555 1_555
C4 C3 1_555 1_555
H2 C4 1_555 1_555
C5 C4 1_555 1_555
H3 C5 1_555 1_555
C6 C5 1_555 1_555
H4 C6 1_555 1_555
C7 C6 1_555 1_555
H5 C7 1_555 1_555
O1 C15 1_555 1_555
C8 N1 1_555 1_555
C9 N1 1_555 1_555
H6 C9 1_555 1_555
H7 C9 1_555 1_555
H8 C9 1_555 1_555
C10 C1 1_555 1_555
H9 C10 1_555 1_555
C11 C10 1_555 1_555
C12 C11 1_555 1_555
H10 C12 1_555 1_555
C13 C12 1_555 1_555
H11 C13 1_555 1_555
C14 C10 1_555 1_555
C15 C11 1_555 1_555
C16 O1 1_555 1_555
H12 C16 1_555 1_555
H13 C16 1_555 1_555
C17 C16 1_555 1_555
H14 C17 1_555 1_555
H15 C17 1_555 1_555
H16 C17 1_555 1_555
C18 C14 1_555 1_555
O2 C15 1_555 1_555
C19 C14 1_555 1_555
C20 C13 1_555 1_555
H17 C20 1_555 1_555
H18 C20 1_555 1_555
C21 C20 1_555 1_555
H19 C21 1_555 1_555
H20 C21 1_555 1_555
C22 C21 1_555 1_555
C23 C22 1_555 1_555
H21 C23 1_555 1_555
C24 C23 1_555 1_555
H22 C24 1_555 1_555
C25 C24 1_555 1_555
H23 C25 1_555 1_555
C26 C25 1_555 1_555
H24 C26 1_555 1_555
C27 C22 1_555 1_555
H25 C27 1_555 1_555
C3 C8 1_555 1_555
C7 C8 1_555 1_555
C13 C14 1_555 1_555
C26 C27 1_555 1_555

#END
