
#######################################################################
#
#                 Cambridge Crystallographic Data Centre
#                                CCDC 
#
#######################################################################
#
# If this CIF has been generated from an entry in the Cambridge 
# Structural Database, then it will include bibliographic, chemical, 
# crystal, experimental, refinement or atomic coordinate data resulting 
# from the CCDC's data processing and validation procedures.
#
#######################################################################

data_TUCFAA
_chemical_formula_moiety         'C29 H24 N2 O2'
_chemical_name_systematic        
'benzyl 4,4-dicyano-5-phenyl-3-(2-phenylethyl)cyclopent-1-ene-1-carboxylate'
_symmetry_cell_setting           orthorhombic
_symmetry_space_group_name_H-M   'P 21 21 21'
_symmetry_Int_Tables_number      19
_space_group_name_Hall           'P 2ac 2ab'
loop_
_symmetry_equiv_pos_site_id
_symmetry_equiv_pos_as_xyz
1 x,y,z
2 1/2+x,1/2-y,-z
3 -x,1/2+y,1/2-z
4 1/2-x,-y,1/2+z
_cell_length_a                   6.23620(10)
_cell_length_b                   14.1329(3)
_cell_length_c                   26.7718(18)
_cell_angle_alpha                90
_cell_angle_beta                 90
_cell_angle_gamma                90
_cell_volume                     2359.55
_exptl_crystal_colour            colorless
_exptl_crystal_description       cobbled
_cell_formula_units_Z            4
_exptl_crystal_recrystallization_method 'dichloromethane/petroleum ether'
loop_
_atom_site_label
_atom_site_type_symbol
_atom_site_fract_x
_atom_site_fract_y
_atom_site_fract_z
C1 C 0.6346(5) 0.47505(17) 0.87702(9)
H1 H 0.7002 0.5118 0.9035
H2 H 0.4856 0.4939 0.8740
C2 C 0.7500(4) 0.49100(16) 0.82881(9)
C3 C 0.6645(5) 0.45900(18) 0.78444(10)
H3 H 0.5309 0.4297 0.7841
C4 C 0.7785(6) 0.4707(2) 0.74030(11)
H4 H 0.7212 0.4495 0.7102
C5 C 0.9774(6) 0.5139(2) 0.74119(12)
H5 H 1.0549 0.5210 0.7118
C6 C 1.0591(6) 0.5457(2) 0.78465(13)
H6 H 1.1918 0.5758 0.7849
C7 C 0.9482(5) 0.53429(19) 0.82850(10)
H7 H 1.0072 0.5559 0.8583
C8 C 0.5475(4) 0.34394(16) 0.92841(8)
C9 C 0.5499(3) 0.23920(15) 0.93063(7)
C10 C 0.5624(3) 0.17789(14) 0.88420(7)
H8 H 0.7133 0.1746 0.8741
C11 C 0.4343(4) 0.20836(15) 0.83908(7)
C12 C 0.2367(4) 0.25232(18) 0.84376(10)
H9 H 0.1790 0.2627 0.8753
C13 C 0.1248(5) 0.2808(2) 0.80187(12)
H10 H -0.0077 0.3103 0.8054
C14 C 0.2077(7) 0.2658(2) 0.75518(12)
H11 H 0.1323 0.2855 0.7271
C15 C 0.4014(6) 0.2220(2) 0.75002(10)
H12 H 0.4573 0.2114 0.7183
C16 C 0.5152(5) 0.19314(18) 0.79176(8)
H13 H 0.6470 0.1633 0.7879
C17 C 0.5617(4) 0.18844(16) 0.97208(8)
H14 H 0.5532 0.2141 1.0040
C18 C 0.5904(4) 0.08489(16) 0.96171(7)
H15 H 0.7451 0.0736 0.9595
C19 C 0.5003(3) 0.07897(16) 0.90725(7)
C20 C 0.5854(4) 0.00004(17) 0.87726(8)
C21 C 0.2643(4) 0.06847(17) 0.90883(9)
C22 C 0.5036(4) 0.01576(17) 1.00036(8)
H16 H 0.3485 0.0206 1.0013
H17 H 0.5580 0.0330 1.0331
C23 C 0.5668(6) -0.08672(18) 0.98894(9)
H18 H 0.4598 -0.1140 0.9669
H19 H 0.7024 -0.0866 0.9712
C24 C 0.5881(4) -0.14882(16) 1.03439(8)
C25 C 0.7799(5) -0.1516(2) 1.05964(11)
H20 H 0.8928 -0.1139 1.0487
C26 C 0.8089(7) -0.2083(3) 1.10031(12)
H21 H 0.9403 -0.2087 1.1167
C27 C 0.6492(10) -0.2634(3) 1.11668(13)
H22 H 0.6704 -0.3025 1.1442
C28 C 0.4539(8) -0.2624(2) 1.09292(14)
H23 H 0.3425 -0.3002 1.1045
C29 C 0.4233(5) -0.2043(2) 1.05136(10)
H24 H 0.2913 -0.2033 1.0352
N1 N 0.6469(4) -0.06020(16) 0.85315(8)
N2 N 0.0838(4) 0.0608(2) 0.91029(10)
O1 O 0.6499(3) 0.37451(11) 0.88801(6)
O2 O 0.4665(3) 0.39495(13) 0.95890(6)
loop_
_geom_bond_atom_site_label_1
_geom_bond_atom_site_label_2
_geom_bond_site_symmetry_1
_geom_bond_site_symmetry_2
C1 H1 1_555 1_555
H2 C1 1_555 1_555
C2 C1 1_555 1_555
C3 C2 1_555 1_555
H3 C3 1_555 1_555
C4 C3 1_555 1_555
H4 C4 1_555 1_555
C5 C4 1_555 1_555
H5 C5 1_555 1_555
C6 C5 1_555 1_555
H6 C6 1_555 1_555
C7 C2 1_555 1_555
H7 C7 1_555 1_555
C8 C9 1_555 1_555
C9 C10 1_555 1_555
C10 H8 1_555 1_555
C11 C10 1_555 1_555
C12 C11 1_555 1_555
H9 C12 1_555 1_555
C13 C12 1_555 1_555
H10 C13 1_555 1_555
C14 C13 1_555 1_555
H11 C14 1_555 1_555
C15 C14 1_555 1_555
H12 C15 1_555 1_555
C16 C11 1_555 1_555
H13 C16 1_555 1_555
C17 C9 1_555 1_555
H14 C17 1_555 1_555
C18 C17 1_555 1_555
H15 C18 1_555 1_555
C19 C10 1_555 1_555
C20 C19 1_555 1_555
C21 C19 1_555 1_555
C22 C18 1_555 1_555
H16 C22 1_555 1_555
H17 C22 1_555 1_555
C23 C22 1_555 1_555
H18 C23 1_555 1_555
H19 C23 1_555 1_555
C24 C23 1_555 1_555
C25 C24 1_555 1_555
H20 C25 1_555 1_555
C26 C25 1_555 1_555
H21 C26 1_555 1_555
C27 C26 1_555 1_555
H22 C27 1_555 1_555
C28 C27 1_555 1_555
H23 C28 1_555 1_555
C29 C24 1_555 1_555
H24 C29 1_555 1_555
N1 C20 1_555 1_555
N2 C21 1_555 1_555
O1 C1 1_555 1_555
O2 C8 1_555 1_555
C6 C7 1_555 1_555
C8 O1 1_555 1_555
C15 C16 1_555 1_555
C18 C19 1_555 1_555
C28 C29 1_555 1_555

#END
