
#######################################################################
#
#                 Cambridge Crystallographic Data Centre
#                                CCDC 
#
#######################################################################
#
# If this CIF has been generated from an entry in the Cambridge 
# Structural Database, then it will include bibliographic, chemical, 
# crystal, experimental, refinement or atomic coordinate data resulting 
# from the CCDC's data processing and validation procedures.
#
#######################################################################

data_TUCJUY
_chemical_formula_moiety         'C28 H32 N2 O12'
_chemical_name_systematic        
"tetramethyl 2,2',2'',2'''-(ethane-1,2-diylbis(oxy(4-formyl-2,1-phenylene)nitrilo))tetraacetate"
_symmetry_cell_setting           orthorhombic
_symmetry_space_group_name_H-M   'P b c n'
_symmetry_Int_Tables_number      60
_space_group_name_Hall           '-P 2n 2ab'
loop_
_symmetry_equiv_pos_site_id
_symmetry_equiv_pos_as_xyz
1 x,y,z
2 1/2-x,1/2-y,1/2+z
3 -x,y,1/2-z
4 1/2+x,1/2-y,-z
5 -x,-y,-z
6 1/2+x,1/2+y,1/2-z
7 x,-y,1/2+z
8 1/2-x,1/2+y,z
_cell_length_a                   17.233(5)
_cell_length_b                   6.8460(18)
_cell_length_c                   23.476(7)
_cell_angle_alpha                90
_cell_angle_beta                 90
_cell_angle_gamma                90
_cell_volume                     2769.63
_cell_formula_units_Z            4
loop_
_atom_site_label
_atom_site_type_symbol
_atom_site_fract_x
_atom_site_fract_y
_atom_site_fract_z
N1 N 0.10366(12) 0.8215(3) 0.14491(7)
O1 O 0.19983(19) 1.3581(4) -0.06950(10)
O2 O 0.04105(10) 0.6855(2) 0.04397(6)
O3 O -0.03340(12) 0.6265(3) 0.17833(9)
O4 O 0.02063(11) 0.3386(2) 0.15734(8)
O5 O 0.25041(10) 0.8302(2) 0.19958(7)
O6 O 0.19678(10) 0.9724(2) 0.27577(7)
C1 C 0.1652(2) 1.2081(4) -0.06412(12)
H1 H 0.1457 1.1493 -0.0968
C2 C 0.15124(16) 1.1104(4) -0.00970(10)
C3 C 0.18142(15) 1.1784(3) 0.04119(11)
H2 H 0.2118 1.2907 0.0415
C4 C 0.16685(14) 1.0812(3) 0.09134(10)
H3 H 0.1884 1.1285 0.1250
C5 C 0.12075(13) 0.9136(3) 0.09330(9)
C6 C 0.08945(14) 0.8447(3) 0.04133(9)
C7 C 0.10548(16) 0.9423(3) -0.00880(10)
H4 H 0.0853 0.8947 -0.0428
C8 C 0.02061(16) 0.5923(3) -0.00850(10)
H5 H 0.0666 0.5627 -0.0307
H6 H -0.0132 0.6754 -0.0309
C9 C 0.10048(14) 0.6101(3) 0.14972(10)
H7 H 0.1361 0.5687 0.1793
H8 H 0.1179 0.5530 0.1141
C10 C 0.02132(15) 0.5334(4) 0.16320(10)
C11 C -0.05059(17) 0.2395(4) 0.17068(13)
H9 H -0.0649 0.2667 0.2094
H10 H -0.0436 0.1013 0.1659
H11 H -0.0909 0.2842 0.1456
C12 C 0.11494(14) 0.9217(3) 0.19830(9)
H12 H 0.0778 0.8717 0.2257
H13 H 0.1039 1.0593 0.1928
C13 C 0.19518(14) 0.9015(3) 0.22285(9)
C14 C 0.27170(17) 0.9649(4) 0.30386(11)
H14 H 0.2909 0.8334 0.3032
H15 H 0.2663 1.0076 0.3426
H16 H 0.3075 1.0490 0.2843
N1D N -0.10366(12) 0.1785(3) -0.14491(7)
O1D O -0.19983(19) -0.3581(4) 0.06950(10)
O2D O -0.04105(10) 0.3145(2) -0.04397(6)
O3D O 0.03340(12) 0.3735(3) -0.17833(9)
O4D O -0.02063(11) 0.6614(2) -0.15734(8)
O5D O -0.25041(10) 0.1698(2) -0.19958(7)
O6D O -0.19678(10) 0.0276(2) -0.27577(7)
C1D C -0.1652(2) -0.2081(4) 0.06412(12)
H1D H -0.1457 -0.1493 0.0968
C2D C -0.15124(16) -0.1104(4) 0.00970(10)
C3D C -0.18142(15) -0.1784(3) -0.04119(11)
H2D H -0.2118 -0.2907 -0.0415
C4D C -0.16685(14) -0.0812(3) -0.09134(10)
H3D H -0.1884 -0.1285 -0.1250
C5D C -0.12075(13) 0.0864(3) -0.09330(9)
C6D C -0.08945(14) 0.1553(3) -0.04133(9)
C7D C -0.10548(16) 0.0577(3) 0.00880(10)
H4D H -0.0853 0.1053 0.0428
C8D C -0.02061(16) 0.4077(3) 0.00850(10)
H5D H -0.0666 0.4373 0.0307
H6D H 0.0132 0.3246 0.0309
C9D C -0.10048(14) 0.3899(3) -0.14972(10)
H7D H -0.1361 0.4313 -0.1793
H8D H -0.1179 0.4470 -0.1141
C10D C -0.02132(15) 0.4666(4) -0.16320(10)
C11D C 0.05059(17) 0.7605(4) -0.17068(13)
H9D H 0.0649 0.7333 -0.2094
H10D H 0.0436 0.8987 -0.1659
H11D H 0.0909 0.7158 -0.1456
C12D C -0.11494(14) 0.0783(3) -0.19830(9)
H12D H -0.0778 0.1283 -0.2257
H13D H -0.1039 -0.0593 -0.1928
C13D C -0.19518(14) 0.0985(3) -0.22285(9)
C14D C -0.27170(17) 0.0351(4) -0.30386(11)
H14D H -0.2909 0.1666 -0.3032
H15D H -0.2663 -0.0076 -0.3426
H16D H -0.3075 -0.0490 -0.2843
loop_
_geom_bond_atom_site_label_1
_geom_bond_atom_site_label_2
_geom_bond_site_symmetry_1
_geom_bond_site_symmetry_2
N1 C5 1_555 1_555
O1 C1 1_555 1_555
O2 C6 1_555 1_555
O3 C10 1_555 1_555
O4 C10 1_555 1_555
O5 C13 1_555 1_555
O6 C13 1_555 1_555
C1 H1 1_555 1_555
C2 C1 1_555 1_555
C3 C2 1_555 1_555
H2 C3 1_555 1_555
C4 C3 1_555 1_555
H3 C4 1_555 1_555
C5 C4 1_555 1_555
C6 C5 1_555 1_555
C7 C2 1_555 1_555
H4 C7 1_555 1_555
C8 O2 1_555 1_555
H5 C8 1_555 1_555
H6 C8 1_555 1_555
C9 N1 1_555 1_555
H7 C9 1_555 1_555
H8 C9 1_555 1_555
C10 C9 1_555 1_555
C11 O4 1_555 1_555
H9 C11 1_555 1_555
H10 C11 1_555 1_555
H11 C11 1_555 1_555
C12 N1 1_555 1_555
H12 C12 1_555 1_555
H13 C12 1_555 1_555
C13 C12 1_555 1_555
C14 O6 1_555 1_555
H14 C14 1_555 1_555
H15 C14 1_555 1_555
H16 C14 1_555 1_555
N1D C5D 1_555 1_555
O1D C1D 1_555 1_555
O2D C6D 1_555 1_555
O3D C10D 1_555 1_555
O4D C10D 1_555 1_555
O5D C13D 1_555 1_555
O6D C13D 1_555 1_555
C1D H1D 1_555 1_555
C2D C1D 1_555 1_555
C3D C2D 1_555 1_555
H2D C3D 1_555 1_555
C4D C3D 1_555 1_555
H3D C4D 1_555 1_555
C5D C4D 1_555 1_555
C6D C5D 1_555 1_555
C7D C2D 1_555 1_555
H4D C7D 1_555 1_555
C8D C8 1_555 1_555
H5D C8D 1_555 1_555
H6D C8D 1_555 1_555
C9D N1D 1_555 1_555
H7D C9D 1_555 1_555
H8D C9D 1_555 1_555
C10D C9D 1_555 1_555
C11D O4D 1_555 1_555
H9D C11D 1_555 1_555
H10D C11D 1_555 1_555
H11D C11D 1_555 1_555
C12D N1D 1_555 1_555
H12D C12D 1_555 1_555
H13D C12D 1_555 1_555
C13D C12D 1_555 1_555
C14D O6D 1_555 1_555
H14D C14D 1_555 1_555
H15D C14D 1_555 1_555
H16D C14D 1_555 1_555
C6 C7 1_555 1_555
O2D C8D 1_555 1_555
C6D C7D 1_555 1_555

#END
