
#######################################################################
#
#                 Cambridge Crystallographic Data Centre
#                                CCDC 
#
#######################################################################
#
# If this CIF has been generated from an entry in the Cambridge 
# Structural Database, then it will include bibliographic, chemical, 
# crystal, experimental, refinement or atomic coordinate data resulting 
# from the CCDC's data processing and validation procedures.
#
#######################################################################

data_TUCKAF
_chemical_formula_moiety         'C27 H32 N2 O11'
_chemical_name_systematic        
'methyl ((2-(2-(2-(bis(2-methoxy-2-oxoethyl)amino)-5-formylphenoxy)ethoxy)phenyl)(2-methoxy-2-oxoethyl)amino)acetate'
_symmetry_cell_setting           orthorhombic
_symmetry_space_group_name_H-M   'P n a 21'
_symmetry_Int_Tables_number      33
_space_group_name_Hall           'P 2c -2n'
loop_
_symmetry_equiv_pos_site_id
_symmetry_equiv_pos_as_xyz
1 x,y,z
2 -x,-y,1/2+z
3 1/2+x,1/2-y,z
4 1/2-x,1/2+y,1/2+z
_cell_length_a                   18.778(3)
_cell_length_b                   12.835(2)
_cell_length_c                   11.8053(19)
_cell_angle_alpha                90
_cell_angle_beta                 90
_cell_angle_gamma                90
_cell_volume                     2845.26
_cell_formula_units_Z            4
loop_
_atom_site_label
_atom_site_type_symbol
_atom_site_fract_x
_atom_site_fract_y
_atom_site_fract_z
N1 N 0.10647(18) 0.4050(3) 0.6068(3)
N2 N 0.03176(18) 0.8757(3) 0.7233(3)
O1 O 0.23366(16) 0.2059(2) 0.6903(3)
O2 O 0.1509(2) 0.2825(3) 0.7978(4)
O3 O 0.18701(19) 0.5777(3) 0.5258(4)
O4 O 0.18297(17) 0.6495(3) 0.6996(3)
O5 O 0.00920(15) 0.5381(2) 0.5269(3)
O6 O 0.02287(16) 0.7566(2) 0.5336(3)
O7 O 0.1984(2) 0.9308(4) 0.2477(4)
O8 O -0.04255(17) 0.6232(2) 0.7841(3)
O9 O -0.09738(19) 0.7771(3) 0.7766(4)
O10 O 0.1395(2) 0.9223(3) 0.8826(3)
O11 O 0.0711(2) 1.0469(3) 0.9574(3)
C1 C 0.2613(3) 0.1517(4) 0.7870(5)
H1 H 0.2677 0.1999 0.8484
H2 H 0.3063 0.1208 0.7680
H3 H 0.2285 0.0982 0.8093
C2 C 0.1803(3) 0.2712(4) 0.7074(5)
C3 C 0.1642(3) 0.3302(4) 0.6010(4)
H4 H 0.2070 0.3668 0.5780
H5 H 0.1531 0.2802 0.5419
C4 C 0.0150(3) 0.2682(4) 0.6144(5)
H6 H 0.0482 0.2206 0.6419
C5 C -0.0541(3) 0.2361(4) 0.5955(5)
H7 H -0.0667 0.1673 0.6100
C6 C -0.1041(3) 0.3037(5) 0.5558(5)
H8 H -0.1507 0.2817 0.5440
C7 C -0.0846(2) 0.4061(4) 0.5330(5)
H9 H -0.1183 0.4528 0.5056
C8 C -0.0159(2) 0.4386(3) 0.5506(4)
C9 C 0.0362(3) 0.3705(4) 0.5933(4)
C10 C 0.1210(2) 0.4955(3) 0.6784(4)
H10 H 0.1445 0.4723 0.7471
H11 H 0.0762 0.5273 0.7000
C11 C 0.1669(2) 0.5766(4) 0.6219(5)
C12 C 0.2274(2) 0.7350(4) 0.6632(6)
H12 H 0.2765 0.7179 0.6762
H13 H 0.2153 0.7965 0.7052
H14 H 0.2200 0.7474 0.5838
C13 C -0.0350(3) 0.6078(4) 0.4625(4)
H15 H -0.0756 0.6299 0.5072
H16 H -0.0522 0.5735 0.3946
C14 C 0.0102(3) 0.6990(3) 0.4322(5)
H17 H 0.0549 0.6758 0.3998
H18 H -0.0140 0.7423 0.3769
C15 C 0.0687(2) 0.8401(3) 0.5278(4)
C16 C 0.1074(3) 0.8645(4) 0.4334(5)
H19 H 0.1052 0.8221 0.3696
C17 C 0.1504(3) 0.9539(4) 0.4334(5)
C18 C 0.1514(3) 1.0164(4) 0.5276(5)
H20 H 0.1784 1.0771 0.5270
C19 C 0.1132(3) 0.9911(3) 0.6223(4)
H21 H 0.1149 1.0348 0.6851
C20 C 0.0721(2) 0.9017(3) 0.6265(4)
C21 C 0.1933(3) 0.9804(5) 0.3333(6)
H22 H 0.2191 1.0422 0.3368
C22 C 0.0294(2) 0.7685(3) 0.7655(4)
H23 H 0.0515 0.7659 0.8397
H24 H 0.0567 0.7241 0.7151
C23 C -0.0448(3) 0.7277(4) 0.7739(4)
C24 C -0.1095(3) 0.5707(4) 0.8014(6)
H25 H -0.1236 0.5775 0.8793
H26 H -0.1044 0.4983 0.7829
H27 H -0.1452 0.6014 0.7537
C25 C 0.0219(2) 0.9530(3) 0.8111(4)
H28 H -0.0177 0.9315 0.8585
H29 H 0.0088 1.0184 0.7757
C26 C 0.0854(3) 0.9714(4) 0.8855(4)
C27 C 0.1255(3) 1.0742(5) 1.0397(6)
H30 H 0.1525 1.0132 1.0590
H31 H 0.1032 1.1016 1.1066
H32 H 0.1566 1.1257 1.0079
loop_
_geom_bond_atom_site_label_1
_geom_bond_atom_site_label_2
_geom_bond_site_symmetry_1
_geom_bond_site_symmetry_2
N1 C3 1_555 1_555
N2 C20 1_555 1_555
O1 C1 1_555 1_555
O2 C2 1_555 1_555
O3 C11 1_555 1_555
O4 C11 1_555 1_555
O5 C8 1_555 1_555
O6 C14 1_555 1_555
O7 C21 1_555 1_555
O8 C23 1_555 1_555
O9 C23 1_555 1_555
O10 C26 1_555 1_555
O11 C26 1_555 1_555
C1 H1 1_555 1_555
H2 C1 1_555 1_555
H3 C1 1_555 1_555
C2 O1 1_555 1_555
C3 C2 1_555 1_555
H4 C3 1_555 1_555
H5 C3 1_555 1_555
C4 H6 1_555 1_555
C5 C4 1_555 1_555
H7 C5 1_555 1_555
C6 C5 1_555 1_555
H8 C6 1_555 1_555
C7 C6 1_555 1_555
H9 C7 1_555 1_555
C8 C7 1_555 1_555
C9 N1 1_555 1_555
C10 N1 1_555 1_555
H10 C10 1_555 1_555
H11 C10 1_555 1_555
C11 C10 1_555 1_555
C12 O4 1_555 1_555
H12 C12 1_555 1_555
H13 C12 1_555 1_555
H14 C12 1_555 1_555
C13 O5 1_555 1_555
H15 C13 1_555 1_555
H16 C13 1_555 1_555
C14 C13 1_555 1_555
H17 C14 1_555 1_555
H18 C14 1_555 1_555
C15 O6 1_555 1_555
C16 C15 1_555 1_555
H19 C16 1_555 1_555
C17 C16 1_555 1_555
C18 C17 1_555 1_555
H20 C18 1_555 1_555
C19 C18 1_555 1_555
H21 C19 1_555 1_555
C20 C15 1_555 1_555
C21 C17 1_555 1_555
H22 C21 1_555 1_555
C22 N2 1_555 1_555
H23 C22 1_555 1_555
H24 C22 1_555 1_555
C23 C22 1_555 1_555
C24 O8 1_555 1_555
H25 C24 1_555 1_555
H26 C24 1_555 1_555
H27 C24 1_555 1_555
C25 N2 1_555 1_555
H28 C25 1_555 1_555
H29 C25 1_555 1_555
C26 C25 1_555 1_555
C27 O11 1_555 1_555
H30 C27 1_555 1_555
H31 C27 1_555 1_555
H32 C27 1_555 1_555
C4 C9 1_555 1_555
C8 C9 1_555 1_555
C19 C20 1_555 1_555

#END
