
#######################################################################
#
#                 Cambridge Crystallographic Data Centre
#                                CCDC 
#
#######################################################################
#
# If this CIF has been generated from an entry in the Cambridge 
# Structural Database, then it will include bibliographic, chemical, 
# crystal, experimental, refinement or atomic coordinate data resulting 
# from the CCDC's data processing and validation procedures.
#
#######################################################################

data_TUCKUX
_chemical_name_common            
"5,5':17,17'-bis(butane-1,4-dioxy)-11,1':23,23'-bis(pentane-1,5-dioxy)-bis(2,8,14,20-tetrakis(phenylethyl)-6,10:12,16:18,22:24,4-O,O'-tetrakis(methylene)calix[4]resorcinarene) toluene nitrobenzene solvate"
_chemical_formula_moiety         'C146 H140 O24,C7 H8,2(C6 H5 N1 O2)'
_chemical_name_systematic        
"8,9,10,11,40,41,42,43-Octahydro-1,18,26,28,54,56,64,81-octaphenethyl-34,48-(epoxybutanoxy)-20,24:58,62-dimethano-2,53:17,29-dimetheno-3,52,16,30-(methynoxybutanoxymethyno)-1H,18H,26H,28H,39H,54H,56H-bis(1,3)benzodioxocino(9,8-d:9',8'-d')-bis(1,3)benzodioxocino(9',10':4,5;10'',9'':12,13)(1,3,6,11,14,16,19,25)octaoxacycloheptacosino(17,18-j:27,26-j')-bis(1,3)benzodioxocin toluene nitrobenzene solvate"
_symmetry_cell_setting           monoclinic
_symmetry_space_group_name_H-M   'P 21/c'
_symmetry_Int_Tables_number      14
_space_group_name_Hall           '-P 2ybc'
loop_
_symmetry_equiv_pos_site_id
_symmetry_equiv_pos_as_xyz
1 x,y,z
2 -x,1/2+y,1/2-z
3 -x,-y,-z
4 x,1/2-y,1/2+z
_cell_length_a                   16.774(7)
_cell_length_b                   20.491(4)
_cell_length_c                   20.355(7)
_cell_angle_alpha                90
_cell_angle_beta                 98.68(3)
_cell_angle_gamma                90
_cell_volume                     6916.21
_exptl_crystal_colour            colorless
_cell_formula_units_Z            2
loop_
_atom_site_label
_atom_site_type_symbol
_atom_site_fract_x
_atom_site_fract_y
_atom_site_fract_z
C88 C 0.1587(36) 0.0135(42) 0.1307(28)
C90 C 0.0734(33) 0.0037(32) 0.0576(27)
C93 C 0.0097(50) 0.0443(36) 0.0498(36)
C94 C 0.0632(39) -0.0439(31) 0.0029(35)
C94B C -0.0632(39) 0.0439(31) -0.0029(35)
C90B C -0.0734(33) -0.0037(32) -0.0576(27)
C88B C -0.1587(36) -0.0135(42) -0.1307(28)
C93B C -0.0097(50) -0.0443(36) -0.0498(36)
O1 O -0.0258(11) 0.1758(9) 0.1576(9)
C1 C -0.0288(27) 0.2424(15) 0.1728(42)
C2 C -0.1128(32) 0.2664(31) 0.1754(38)
C3 C -0.1694(34) 0.2434(26) 0.1156(29)
C4 C -0.1970(38) 0.1751(25) 0.1251(16)
C5 C -0.2521(30) 0.1525(48) 0.0638(21)
O2 O -0.2144(12) 0.1569(11) 0.0064(10)
O3 O -0.0356(10) -0.1264(9) 0.1919(9)
C10 C -0.0891(19) -0.1548(20) 0.2306(14)
C11 C -0.1671(17) -0.1720(27) 0.1874(25)
C12 C -0.1527(20) -0.2135(15) 0.1297(15)
C13 C -0.2187(43) -0.2087(17) 0.0713(27)
O4 O -0.2217(11) -0.1496(10) 0.0361(9)
O5 O 0.2081(11) 0.2289(9) 0.0715(9)
C18 C 0.1280(17) 0.2271(14) 0.0778(14)
H1 H 0.1061(17) 0.1848(14) 0.0634(14)
H2 H 0.0994(17) 0.2599(14) 0.0490(14)
O6 O 0.1142(11) 0.2388(9) 0.1456(10)
C19 C 0.1183(12) 0.1885(7) 0.1878(7)
C20 C 0.1910(9) 0.1667(8) 0.2229(9)
C21 C 0.1913(8) 0.1184(8) 0.2709(8)
H3 H 0.2399(10) 0.1039(12) 0.2944(11)
C22 C 0.1190(11) 0.0920(7) 0.2839(7)
C23 C 0.0463(8) 0.1138(8) 0.2489(9)
C24 C 0.0460(9) 0.1621(9) 0.2008(8)
C25 C 0.2670(15) 0.1933(13) 0.2057(12)
H4 H 0.2549(15) 0.2383(13) 0.1911(12)
C26 C 0.3318(18) 0.1983(15) 0.2676(15)
H5 H 0.3080(18) 0.2161(15) 0.3043(15)
H6 H 0.3523(18) 0.1551(15) 0.2802(15)
C27 C 0.3930(25) 0.2369(22) 0.2556(21)
H7 H 0.3719(25) 0.2744(22) 0.2295(21)
H8 H 0.4281(25) 0.2129(22) 0.2304(21)
C28 C 0.4445(15) 0.2613(14) 0.3264(10)
C29 C 0.5123(17) 0.2227(10) 0.3447(12)
H9 H 0.5216(26) 0.1867(13) 0.3191(17)
C30 C 0.5663(12) 0.2379(12) 0.4014(13)
H10 H 0.6117(15) 0.2120(16) 0.4137(20)
C31 C 0.5525(14) 0.2916(13) 0.4398(10)
H11 H 0.5886(20) 0.3018(20) 0.4777(12)
C32 C 0.4846(17) 0.3303(10) 0.4214(13)
H12 H 0.4754(25) 0.3662(13) 0.4471(18)
C33 C 0.4306(12) 0.3151(13) 0.3648(14)
H13 H 0.3853(15) 0.3410(18) 0.3525(21)
C34 C 0.1166(17) 0.0379(12) 0.3334(13)
H14 H 0.0652(17) 0.0417(12) 0.3503(13)
C35 C 0.1838(17) 0.0383(14) 0.3945(14)
H15 H 0.2363(17) 0.0372(14) 0.3800(14)
H16 H 0.1789(17) 0.0000(14) 0.4217(14)
C36 C 0.1761(16) 0.1016(14) 0.4363(14)
H17 H 0.2245(16) 0.1059(14) 0.4687(14)
H18 H 0.1738(16) 0.1389(14) 0.4068(14)
C37 C 0.1067(14) 0.1043(13) 0.4713(14)
C38 C 0.1135(13) 0.0769(12) 0.5344(14)
H19 H 0.1625(16) 0.0596(17) 0.5542(21)
C39 C 0.0472(19) 0.0755(11) 0.5678(9)
H20 H 0.0518(29) 0.0572(16) 0.6100(11)
C40 C -0.0261(15) 0.1014(13) 0.5381(14)
H21 H -0.0705(20) 0.1004(19) 0.5605(20)
C41 C -0.0330(13) 0.1288(11) 0.4751(14)
H22 H -0.0820(16) 0.1461(17) 0.4552(21)
C42 C 0.0334(19) 0.1302(11) 0.4416(9)
H23 H 0.0288(28) 0.1485(16) 0.3994(11)
O7 O -0.0282(11) 0.0917(10) 0.2603(9)
C43 C -0.0525(17) 0.0319(14) 0.2329(15)
H24 H -0.1108(17) 0.0325(14) 0.2214(15)
H25 H -0.0303(17) 0.0270(14) 0.1918(15)
O8 O -0.0314(11) -0.0224(9) 0.2716(9)
C44 C 0.0419(8) -0.0543(9) 0.2650(9)
C45 C 0.1151(11) -0.0293(6) 0.2959(8)
C46 C 0.1866(8) -0.0614(8) 0.2898(7)
H26 H 0.2355(10) -0.0446(12) 0.3105(10)
C47 C 0.1849(9) -0.1186(8) 0.2528(8)
C48 C 0.1117(12) -0.1436(7) 0.2220(8)
C49 C 0.0402(9) -0.1115(9) 0.2280(8)
O9 O 0.1030(11) -0.1994(10) 0.1875(10)
C50 C 0.1143(17) -0.2013(15) 0.1187(14)
H27 H 0.0827(17) -0.2366(15) 0.0961(14)
H28 H 0.0962(17) -0.1607(15) 0.0971(14)
O10 O 0.1943(12) -0.2108(9) 0.1151(9)
C51 C 0.2589(15) -0.1523(13) 0.2378(12)
H29 H 0.2455(15) -0.1987(13) 0.2313(12)
C52 C 0.3300(15) -0.1474(13) 0.2971(13)
H30 H 0.3497(15) -0.1029(13) 0.3012(13)
H31 H 0.3109(15) -0.1592(13) 0.3382(13)
C53 C 0.3973(17) -0.1925(15) 0.2854(15)
H32 H 0.3770(17) -0.2369(15) 0.2840(15)
H33 H 0.4116(17) -0.1828(15) 0.2420(15)
C54 C 0.4726(10) -0.1897(12) 0.3355(10)
C55 C 0.5263(16) -0.1398(10) 0.3271(10)
H34 H 0.5136(23) -0.1097(14) 0.2929(12)
C56 C 0.5989(13) -0.1348(10) 0.3698(13)
H35 H 0.6349(18) -0.1014(13) 0.3642(19)
C57 C 0.6179(11) -0.1798(13) 0.4210(11)
H36 H 0.6665(13) -0.1764(18) 0.4496(15)
C58 C 0.5642(15) -0.2296(10) 0.4294(9)
H37 H 0.5768(22) -0.2597(14) 0.4636(12)
C59 C 0.4915(13) -0.2346(9) 0.3866(12)
H38 H 0.4556(18) -0.2680(12) 0.3922(18)
C60 C 0.2456(9) -0.1571(7) 0.1155(11)
C61 C 0.2834(11) -0.1273(9) 0.1733(8)
C62 C 0.3360(9) -0.0755(8) 0.1694(7)
H39 H 0.3613(14) -0.0555(12) 0.2080(9)
C63 C 0.3508(9) -0.0535(7) 0.1078(10)
C64 C 0.3130(11) -0.0833(10) 0.0500(7)
C65 C -0.2604(11) 0.1351(9) -0.0539(8)
O11 O 0.3292(11) -0.0609(10) -0.0135(9)
C66 C 0.2925(17) -0.0036(14) -0.0372(14)
H40 H 0.2811(17) -0.0066(14) -0.0852(14)
H41 H 0.2411(17) -0.0005(14) -0.0210(14)
O12 O 0.3336(11) 0.0528(10) -0.0213(9)
C67 C 0.3203(11) 0.0861(9) 0.0339(8)
C68 C -0.2684(10) -0.1394(9) -0.0258(6)
C69 C 0.2533(9) 0.1747(7) 0.0809(10)
C70 C 0.2902(10) 0.1569(8) 0.1441(7)
C71 C 0.3421(9) 0.1036(9) 0.1522(7)
H42 H 0.3668(13) 0.0917(13) 0.1945(8)
C72 C 0.3572(9) 0.0683(7) 0.0971(10)
C73 C 0.4019(16) 0.0057(13) 0.1034(14)
H43 H 0.4236(16) 0.0010(13) 0.0616(14)
C74 C 0.4762(17) 0.0039(14) 0.1583(15)
H44 H 0.4590(17) 0.0144(14) 0.2005(15)
H45 H 0.4976(17) -0.0401(14) 0.1615(15)
C75 C 0.5438(18) 0.0510(15) 0.1469(15)
H46 H 0.5601(18) 0.0406(15) 0.1044(15)
H47 H 0.5219(18) 0.0949(15) 0.1437(15)
C76 C 0.6188(10) 0.0510(13) 0.1994(9)
C77 C 0.6596(14) -0.0068(10) 0.2176(11)
H48 H 0.6412(21) -0.0459(12) 0.1976(16)
C78 C 0.7280(13) -0.0062(10) 0.2656(11)
H49 H 0.7553(19) -0.0448(12) 0.2777(17)
C79 C 0.7556(10) 0.0523(13) 0.2954(9)
H50 H 0.8013(13) 0.0527(19) 0.3275(12)
C80 C 0.7147(14) 0.1101(9) 0.2772(11)
H51 H 0.7332(21) 0.1492(12) 0.2971(16)
C81 C 0.6464(13) 0.1094(10) 0.2292(11)
H52 H 0.6190(19) 0.1481(12) 0.2170(17)
C60B C -0.2456(9) 0.1571(7) -0.1155(11)
O10B O -0.1943(12) 0.2108(9) -0.1151(9)
C50B C -0.1143(17) 0.2013(15) -0.1187(14)
O9B O -0.1030(11) 0.1994(10) -0.1875(10)
C48B C -0.1117(12) 0.1436(7) -0.2220(8)
C47B C -0.1849(9) 0.1186(8) -0.2528(8)
C46B C -0.1866(8) 0.0614(8) -0.2898(7)
C45B C -0.1151(11) 0.0293(6) -0.2959(8)
C34B C -0.1166(17) -0.0379(12) -0.3334(13)
C22B C -0.1190(11) -0.0920(7) -0.2839(7)
C21B C -0.1913(8) -0.1184(8) -0.2709(8)
C20B C -0.1910(9) -0.1667(8) -0.2229(9)
C19B C -0.1183(12) -0.1885(7) -0.1878(7)
O6B O -0.1142(11) -0.2388(9) -0.1456(10)
C18B C -0.1280(17) -0.2271(14) -0.0778(14)
O5B O -0.2081(11) -0.2289(9) -0.0715(9)
C69B C -0.2533(9) -0.1747(7) -0.0809(10)
C68B C 0.2684(10) 0.1394(9) 0.0258(6)
O4B O 0.2217(11) 0.1496(10) -0.0361(9)
C13B C 0.2187(43) 0.2087(17) -0.0713(27)
C12B C 0.1527(20) 0.2135(15) -0.1297(15)
C11B C 0.1671(17) 0.1720(27) -0.1874(25)
C10B C 0.0891(19) 0.1548(20) -0.2306(14)
O3B O 0.0356(10) 0.1264(9) -0.1919(9)
C49B C -0.0402(9) 0.1115(9) -0.2280(8)
C44B C -0.0419(8) 0.0543(9) -0.2650(9)
O8B O 0.0314(11) 0.0224(9) -0.2716(9)
C43B C 0.0525(17) -0.0319(14) -0.2329(15)
O7B O 0.0282(11) -0.0917(10) -0.2603(9)
C23B C -0.0463(8) -0.1138(8) -0.2489(9)
C24B C -0.0460(9) -0.1621(9) -0.2008(8)
O1B O 0.0258(11) -0.1758(9) -0.1576(9)
C1B C 0.0288(27) -0.2424(15) -0.1728(42)
C2B C 0.1128(32) -0.2664(31) -0.1754(38)
C3B C 0.1694(34) -0.2434(26) -0.1156(29)
C4B C 0.1970(38) -0.1751(25) -0.1251(16)
C5B C 0.2521(30) -0.1525(48) -0.0638(21)
O2B O 0.2144(12) -0.1569(11) -0.0064(10)
C65B C 0.2604(11) -0.1351(9) 0.0539(8)
H24B H 0.1108(17) -0.0325(14) -0.2214(15)
H25B H 0.0303(17) -0.0270(14) -0.1918(15)
C67B C -0.3203(11) -0.0861(9) -0.0339(8)
O12B O -0.3336(11) -0.0528(10) 0.0213(9)
C66B C -0.2925(17) 0.0036(14) 0.0372(14)
O11B O -0.3292(11) 0.0609(10) 0.0135(9)
C64B C -0.3130(11) 0.0833(10) -0.0500(7)
C63B C -0.3508(9) 0.0535(7) -0.1078(10)
C62B C -0.3360(9) 0.0755(8) -0.1694(7)
C61B C -0.2834(11) 0.1273(9) -0.1733(8)
C51B C -0.2589(15) 0.1523(13) -0.2378(12)
H29B H -0.2455(15) 0.1987(13) -0.2313(12)
C52B C -0.3300(15) 0.1474(13) -0.2971(13)
H30B H -0.3497(15) 0.1029(13) -0.3012(13)
H31B H -0.3109(15) 0.1592(13) -0.3382(13)
C53B C -0.3973(17) 0.1925(15) -0.2854(15)
H32B H -0.3770(17) 0.2369(15) -0.2840(15)
H33B H -0.4116(17) 0.1828(15) -0.2420(15)
C54B C -0.4726(10) 0.1897(12) -0.3355(10)
C55B C -0.5263(16) 0.1398(10) -0.3271(10)
H34B H -0.5136(23) 0.1097(14) -0.2929(12)
C56B C -0.5989(13) 0.1348(10) -0.3698(13)
H35B H -0.6349(18) 0.1014(13) -0.3642(19)
C57B C -0.6179(11) 0.1798(13) -0.4210(11)
H36B H -0.6665(13) 0.1764(18) -0.4496(15)
C58B C -0.5642(15) 0.2296(10) -0.4294(9)
H37B H -0.5768(22) 0.2597(14) -0.4636(12)
C59B C -0.4915(13) 0.2346(9) -0.3866(12)
H38B H -0.4556(18) 0.2680(12) -0.3922(18)
H39B H -0.3613(14) 0.0555(12) -0.2080(9)
C73B C -0.4019(16) -0.0057(13) -0.1034(14)
C72B C -0.3572(9) -0.0683(7) -0.0971(10)
C71B C -0.3421(9) -0.1036(9) -0.1522(7)
C70B C -0.2902(10) -0.1569(8) -0.1441(7)
C25B C -0.2670(15) -0.1933(13) -0.2057(12)
H4B H -0.2549(15) -0.2383(13) -0.1911(12)
C26B C -0.3318(18) -0.1983(15) -0.2676(15)
H5B H -0.3080(18) -0.2161(15) -0.3043(15)
H6B H -0.3523(18) -0.1551(15) -0.2802(15)
C27B C -0.3930(25) -0.2369(22) -0.2556(21)
H7B H -0.3719(25) -0.2744(22) -0.2295(21)
H8B H -0.4281(25) -0.2129(22) -0.2304(21)
C28B C -0.4445(15) -0.2613(14) -0.3264(10)
C29B C -0.5123(17) -0.2227(10) -0.3447(12)
H9B H -0.5216(26) -0.1867(13) -0.3191(17)
C30B C -0.5663(12) -0.2379(12) -0.4014(13)
H10B H -0.6117(15) -0.2120(16) -0.4137(20)
C31B C -0.5525(14) -0.2916(13) -0.4398(10)
H11B H -0.5886(20) -0.3018(20) -0.4777(12)
C32B C -0.4846(17) -0.3303(10) -0.4214(13)
H12B H -0.4754(25) -0.3662(13) -0.4471(18)
C33B C -0.4306(12) -0.3151(13) -0.3648(14)
H13B H -0.3853(15) -0.3410(18) -0.3525(21)
H42B H -0.3668(13) -0.0917(13) -0.1945(8)
H43B H -0.4236(16) -0.0010(13) -0.0616(14)
C74B C -0.4762(17) -0.0039(14) -0.1583(15)
H44B H -0.4590(17) -0.0144(14) -0.2005(15)
H45B H -0.4976(17) 0.0401(14) -0.1615(15)
C75B C -0.5438(18) -0.0510(15) -0.1469(15)
H46B H -0.5601(18) -0.0406(15) -0.1044(15)
H47B H -0.5219(18) -0.0949(15) -0.1437(15)
C76B C -0.6188(10) -0.0510(13) -0.1994(9)
C77B C -0.6596(14) 0.0068(10) -0.2176(11)
H48B H -0.6412(21) 0.0459(12) -0.1976(16)
C78B C -0.7280(13) 0.0062(10) -0.2656(11)
H49B H -0.7553(19) 0.0448(12) -0.2777(17)
C79B C -0.7556(10) -0.0523(13) -0.2954(9)
H50B H -0.8013(13) -0.0527(19) -0.3275(12)
C80B C -0.7147(14) -0.1101(9) -0.2772(11)
H51B H -0.7332(21) -0.1492(12) -0.2971(16)
C81B C -0.6464(13) -0.1094(10) -0.2292(11)
H52B H -0.6190(19) -0.1481(12) -0.2170(17)
H40B H -0.2811(17) 0.0066(14) 0.0852(14)
H41B H -0.2411(17) 0.0005(14) 0.0210(14)
H1B H -0.1061(17) -0.1848(14) -0.0634(14)
H2B H -0.0994(17) -0.2599(14) -0.0490(14)
H3B H -0.2399(10) -0.1039(12) -0.2944(11)
H14B H -0.0652(17) -0.0417(12) -0.3503(13)
C35B C -0.1838(17) -0.0383(14) -0.3945(14)
H15B H -0.2363(17) -0.0372(14) -0.3800(14)
H16B H -0.1789(17) 0.0000(14) -0.4217(14)
C36B C -0.1761(16) -0.1016(14) -0.4363(14)
H17B H -0.2245(16) -0.1059(14) -0.4687(14)
H18B H -0.1738(16) -0.1389(14) -0.4068(14)
C37B C -0.1067(14) -0.1043(13) -0.4713(14)
C38B C -0.1135(13) -0.0769(12) -0.5344(14)
H19B H -0.1625(16) -0.0596(17) -0.5542(21)
C39B C -0.0472(19) -0.0755(11) -0.5678(9)
H20B H -0.0518(29) -0.0572(16) -0.6100(11)
C40B C 0.0261(15) -0.1014(13) -0.5381(14)
H21B H 0.0705(20) -0.1004(19) -0.5605(20)
C41B C 0.0330(13) -0.1288(11) -0.4751(14)
H22B H 0.0820(16) -0.1461(17) -0.4552(21)
C42B C -0.0334(19) -0.1302(11) -0.4416(9)
H23B H -0.0288(28) -0.1485(16) -0.3994(11)
H26B H -0.2355(10) 0.0446(12) -0.3105(10)
H27B H -0.0827(17) 0.2366(15) -0.0961(14)
H28B H -0.0962(17) 0.1607(15) -0.0971(14)
C82 C 0.5114(13) 0.0590(11) 0.4188(12)
C83 C 0.5844(19) 0.0401(10) 0.4002(10)
H53 H 0.5857(28) 0.0227(15) 0.3582(11)
C84 C 0.6555(13) 0.0473(12) 0.4445(15)
H54 H 0.7044(16) 0.0347(17) 0.4321(22)
C85 C 0.6536(13) 0.0733(12) 0.5073(13)
H55 H 0.7011(17) 0.0781(18) 0.5369(18)
C86 C 0.5805(18) 0.0922(10) 0.5258(9)
H56 H 0.5792(27) 0.1096(15) 0.5678(11)
C87 C 0.5094(13) 0.0850(11) 0.4816(13)
H57 H 0.4605(16) 0.0976(16) 0.4939(20)
N1 N 0.4259(27) 0.0482(22) 0.3721(24)
O13 O 0.3811(23) 0.0778(18) 0.3949(18)
O14 O 0.4465(22) 0.0279(18) 0.3225(22)
C6? C -0.0898(36) 0.2182(40) 0.1656(21)
C7? C -0.1298(23) 0.2428(21) 0.0988(24)
C8? C -0.2199(23) 0.2382(34) 0.0891(28)
C9? C -0.2511(28) 0.2162(18) 0.0197(24)
C14? C -0.0960(26) -0.1686(44) 0.2077(56)
C15? C -0.1771(19) -0.1522(26) 0.1687(24)
C16? C -0.2213(67) -0.2110(44) 0.1378(19)
C17? C -0.2330(50) -0.2116(18) 0.0634(18)
C89? C 0.1267(93) -0.0131(62) 0.1095(74)
C91? C -0.0014(49) -0.0327(36) 0.0556(36)
C92? C -0.0737(54) -0.0491(41) 0.0106(48)
C95? C 0.1232(73) 0.0344(49) 0.1089(58)
loop_
_geom_bond_atom_site_label_1
_geom_bond_atom_site_label_2
_geom_bond_site_symmetry_1
_geom_bond_site_symmetry_2
O1 C1 1_555 1_555
C1 C2 1_555 1_555
C2 C3 1_555 1_555
C3 C4 1_555 1_555
C4 C5 1_555 1_555
C5 O2 1_555 1_555
O2 C65 1_555 1_555
O3 C10 1_555 1_555
C10 C11 1_555 1_555
C11 C12 1_555 1_555
C12 C13 1_555 1_555
C13 O4 1_555 1_555
O4 C68 1_555 1_555
O5 C18 1_555 1_555
C18 H1 1_555 1_555
H2 C18 1_555 1_555
O6 C18 1_555 1_555
C19 O6 1_555 1_555
C20 C19 1_555 1_555
C21 C20 1_555 1_555
H3 C21 1_555 1_555
C22 C21 1_555 1_555
C23 C22 1_555 1_555
C24 O1 1_555 1_555
C25 C20 1_555 1_555
H4 C25 1_555 1_555
C26 C25 1_555 1_555
H5 C26 1_555 1_555
H6 C26 1_555 1_555
C27 C26 1_555 1_555
H7 C27 1_555 1_555
H8 C27 1_555 1_555
C28 C27 1_555 1_555
C29 C28 1_555 1_555
H9 C29 1_555 1_555
C30 C29 1_555 1_555
H10 C30 1_555 1_555
C31 C30 1_555 1_555
H11 C31 1_555 1_555
C32 C31 1_555 1_555
H12 C32 1_555 1_555
C33 C28 1_555 1_555
H13 C33 1_555 1_555
C34 C22 1_555 1_555
H14 C34 1_555 1_555
C35 C34 1_555 1_555
H15 C35 1_555 1_555
H16 C35 1_555 1_555
C36 C35 1_555 1_555
H17 C36 1_555 1_555
H18 C36 1_555 1_555
C37 C36 1_555 1_555
C38 C37 1_555 1_555
H19 C38 1_555 1_555
C39 C38 1_555 1_555
H20 C39 1_555 1_555
C40 C39 1_555 1_555
H21 C40 1_555 1_555
C41 C40 1_555 1_555
H22 C41 1_555 1_555
C42 C37 1_555 1_555
H23 C42 1_555 1_555
O7 C23 1_555 1_555
C43 O7 1_555 1_555
H24 C43 1_555 1_555
H25 C43 1_555 1_555
O8 C43 1_555 1_555
C44 O8 1_555 1_555
C45 C34 1_555 1_555
C46 C45 1_555 1_555
H26 C46 1_555 1_555
C47 C46 1_555 1_555
C48 C47 1_555 1_555
C49 O3 1_555 1_555
O9 C48 1_555 1_555
C50 O9 1_555 1_555
H27 C50 1_555 1_555
H28 C50 1_555 1_555
O10 C50 1_555 1_555
C51 C47 1_555 1_555
H29 C51 1_555 1_555
C52 C51 1_555 1_555
H30 C52 1_555 1_555
H31 C52 1_555 1_555
C53 C52 1_555 1_555
H32 C53 1_555 1_555
H33 C53 1_555 1_555
C54 C53 1_555 1_555
C55 C54 1_555 1_555
H34 C55 1_555 1_555
C56 C55 1_555 1_555
H35 C56 1_555 1_555
C57 C56 1_555 1_555
H36 C57 1_555 1_555
C58 C57 1_555 1_555
H37 C58 1_555 1_555
C59 C54 1_555 1_555
H38 C59 1_555 1_555
C60 O10 1_555 1_555
C61 C51 1_555 1_555
C62 C61 1_555 1_555
H39 C62 1_555 1_555
C63 C62 1_555 1_555
C64 C63 1_555 1_555
C65 C60B 1_555 1_555
O11 C64 1_555 1_555
C66 O11 1_555 1_555
H40 C66 1_555 1_555
H41 C66 1_555 1_555
O12 C66 1_555 1_555
C67 O12 1_555 1_555
C68 C69B 1_555 1_555
C69 O5 1_555 1_555
C70 C25 1_555 1_555
C71 C70 1_555 1_555
H42 C71 1_555 1_555
C72 C67 1_555 1_555
C73 C63 1_555 1_555
H43 C73 1_555 1_555
C74 C73 1_555 1_555
H44 C74 1_555 1_555
H45 C74 1_555 1_555
C75 C74 1_555 1_555
H46 C75 1_555 1_555
H47 C75 1_555 1_555
C76 C75 1_555 1_555
C77 C76 1_555 1_555
H48 C77 1_555 1_555
C78 C77 1_555 1_555
H49 C78 1_555 1_555
C79 C78 1_555 1_555
H50 C79 1_555 1_555
C80 C79 1_555 1_555
H51 C80 1_555 1_555
C81 C76 1_555 1_555
H52 C81 1_555 1_555
C82 C83 1_555 1_555
C83 H53 1_555 1_555
C84 C83 1_555 1_555
H54 C84 1_555 1_555
C85 C84 1_555 1_555
H55 C85 1_555 1_555
C86 C85 1_555 1_555
H56 C86 1_555 1_555
C87 C82 1_555 1_555
H57 C87 1_555 1_555
N1 C82 1_555 1_555
O13 N1 1_555 1_555
O14 N1 1_555 1_555
C88 C90 1_555 1_555
C90 C93 1_555 1_555
C93 C94B 1_555 1_555
C94 C90 1_555 1_555
C60B O10B 1_555 1_555
O10B C50B 1_555 1_555
C50B O9B 1_555 1_555
O9B C48B 1_555 1_555
C48B C47B 1_555 1_555
C47B C46B 1_555 1_555
C46B C45B 1_555 1_555
C45B C34B 1_555 1_555
C34B C22B 1_555 1_555
C22B C21B 1_555 1_555
C21B C20B 1_555 1_555
C20B C19B 1_555 1_555
C19B O6B 1_555 1_555
O6B C18B 1_555 1_555
C18B O5B 1_555 1_555
O5B C69B 1_555 1_555
C69B C70B 1_555 1_555
C68B C67 1_555 1_555
O4B C68B 1_555 1_555
C13B O4B 1_555 1_555
C12B C13B 1_555 1_555
C11B C12B 1_555 1_555
C10B C11B 1_555 1_555
O3B C10B 1_555 1_555
C49B C48B 1_555 1_555
C44B C45B 1_555 1_555
O8B C44B 1_555 1_555
C43B O8B 1_555 1_555
O7B C43B 1_555 1_555
C23B C22B 1_555 1_555
C24B C19B 1_555 1_555
O1B C24B 1_555 1_555
C1B O1B 1_555 1_555
C2B C1B 1_555 1_555
C3B C2B 1_555 1_555
C4B C3B 1_555 1_555
C5B C4B 1_555 1_555
O2B C5B 1_555 1_555
C65B C60 1_555 1_555
H24B C43B 1_555 1_555
H25B C43B 1_555 1_555
C67B C68 1_555 1_555
O12B C67B 1_555 1_555
C66B O12B 1_555 1_555
O11B C66B 1_555 1_555
C64B C65 1_555 1_555
C63B C64B 1_555 1_555
C62B C63B 1_555 1_555
C61B C60B 1_555 1_555
C51B C47B 1_555 1_555
H29B C51B 1_555 1_555
C52B C51B 1_555 1_555
H30B C52B 1_555 1_555
H31B C52B 1_555 1_555
C53B C52B 1_555 1_555
H32B C53B 1_555 1_555
H33B C53B 1_555 1_555
C54B C53B 1_555 1_555
C55B C54B 1_555 1_555
H34B C55B 1_555 1_555
C56B C55B 1_555 1_555
H35B C56B 1_555 1_555
C57B C56B 1_555 1_555
H36B C57B 1_555 1_555
C58B C57B 1_555 1_555
H37B C58B 1_555 1_555
C59B C54B 1_555 1_555
H38B C59B 1_555 1_555
H39B C62B 1_555 1_555
C73B C63B 1_555 1_555
C72B C67B 1_555 1_555
C71B C72B 1_555 1_555
C70B C71B 1_555 1_555
C25B C20B 1_555 1_555
H4B C25B 1_555 1_555
C26B C25B 1_555 1_555
H5B C26B 1_555 1_555
H6B C26B 1_555 1_555
C27B C26B 1_555 1_555
H7B C27B 1_555 1_555
H8B C27B 1_555 1_555
C28B C27B 1_555 1_555
C29B C28B 1_555 1_555
H9B C29B 1_555 1_555
C30B C29B 1_555 1_555
H10B C30B 1_555 1_555
C31B C30B 1_555 1_555
H11B C31B 1_555 1_555
C32B C31B 1_555 1_555
H12B C32B 1_555 1_555
C33B C28B 1_555 1_555
H13B C33B 1_555 1_555
H42B C71B 1_555 1_555
H43B C73B 1_555 1_555
C74B C73B 1_555 1_555
H44B C74B 1_555 1_555
H45B C74B 1_555 1_555
C75B C74B 1_555 1_555
H46B C75B 1_555 1_555
H47B C75B 1_555 1_555
C76B C75B 1_555 1_555
C77B C76B 1_555 1_555
H48B C77B 1_555 1_555
C78B C77B 1_555 1_555
H49B C78B 1_555 1_555
C79B C78B 1_555 1_555
H50B C79B 1_555 1_555
C80B C79B 1_555 1_555
H51B C80B 1_555 1_555
C81B C76B 1_555 1_555
H52B C81B 1_555 1_555
H40B C66B 1_555 1_555
H41B C66B 1_555 1_555
H1B C18B 1_555 1_555
H2B C18B 1_555 1_555
H3B C21B 1_555 1_555
H14B C34B 1_555 1_555
C35B C34B 1_555 1_555
H15B C35B 1_555 1_555
H16B C35B 1_555 1_555
C36B C35B 1_555 1_555
H17B C36B 1_555 1_555
H18B C36B 1_555 1_555
C37B C36B 1_555 1_555
C38B C37B 1_555 1_555
H19B C38B 1_555 1_555
C39B C38B 1_555 1_555
H20B C39B 1_555 1_555
C40B C39B 1_555 1_555
H21B C40B 1_555 1_555
C41B C40B 1_555 1_555
H22B C41B 1_555 1_555
C42B C37B 1_555 1_555
H23B C42B 1_555 1_555
H26B C46B 1_555 1_555
H27B C50B 1_555 1_555
H28B C50B 1_555 1_555
C94B C90B 1_555 1_555
C90B C88B 1_555 1_555
C93B C94 1_555 1_555
C19 C24 1_555 1_555
C23 C24 1_555 1_555
C32 C33 1_555 1_555
C41 C42 1_555 1_555
C44 C45 1_555 1_555
C44 C49 1_555 1_555
C48 C49 1_555 1_555
C58 C59 1_555 1_555
C60 C61 1_555 1_555
C64 C65B 1_555 1_555
C69 C70 1_555 1_555
C69 C68B 1_555 1_555
C71 C72 1_555 1_555
C72 C73 1_555 1_555
C80 C81 1_555 1_555
C86 C87 1_555 1_555
O3B C49B 1_555 1_555
C49B C44B 1_555 1_555
O7B C23B 1_555 1_555
C23B C24B 1_555 1_555
O2B C65B 1_555 1_555
O11B C64B 1_555 1_555
C62B C61B 1_555 1_555
C61B C51B 1_555 1_555
C58B C59B 1_555 1_555
C73B C72B 1_555 1_555
C70B C25B 1_555 1_555
C32B C33B 1_555 1_555
C80B C81B 1_555 1_555
C41B C42B 1_555 1_555
C90B C93B 1_555 1_555

#END
