
#######################################################################
#
#                 Cambridge Crystallographic Data Centre
#                                CCDC 
#
#######################################################################
#
# If this CIF has been generated from an entry in the Cambridge 
# Structural Database, then it will include bibliographic, chemical, 
# crystal, experimental, refinement or atomic coordinate data resulting 
# from the CCDC's data processing and validation procedures.
#
#######################################################################

data_TUCKEJ
_chemical_formula_moiety         'C33 H36 N4 O10'
_chemical_name_systematic        
'methyl ((2-(2-(5-(1H-benzimidazol-2-yl)-2-(bis(2-methoxy-2-oxoethyl)amino)phenoxy)ethoxy)phenyl)(2-methoxy-2-oxoethyl)amino)acetate unknown solvate'
_symmetry_cell_setting           monoclinic
_symmetry_space_group_name_H-M   'C 2/c'
_symmetry_Int_Tables_number      15
_space_group_name_Hall           '-C 2yn'
loop_
_symmetry_equiv_pos_site_id
_symmetry_equiv_pos_as_xyz
1 x,y,z
2 -x,y,1/2-z
3 1/2+x,1/2+y,z
4 1/2-x,1/2+y,1/2-z
5 -x,-y,-z
6 x,-y,1/2+z
7 1/2-x,1/2-y,-z
8 1/2+x,1/2-y,1/2+z
_cell_length_a                   35.648(3)
_cell_length_b                   14.3240(12)
_cell_length_c                   15.3693(13)
_cell_angle_alpha                90
_cell_angle_beta                 94.8190(10)
_cell_angle_gamma                90
_cell_volume                     7820.16
_cell_formula_units_Z            8
loop_
_atom_site_label
_atom_site_type_symbol
_atom_site_fract_x
_atom_site_fract_y
_atom_site_fract_z
C1 C 0.26087(5) 0.93427(11) 0.71288(12)
C2 C 0.23826(5) 0.94922(12) 0.63025(12)
C3 C 0.21927(5) 0.87614(12) 0.58584(12)
H1 H 0.2204 0.8166 0.6100
C4 C 0.23591(6) 1.03775(13) 0.59310(13)
H2 H 0.2486 1.0875 0.6211
C5 C 0.28977(5) 0.85999(12) 0.82475(12)
C6 C 0.19595(5) 0.98014(12) 0.46994(12)
C7 C 0.18926(5) 0.72642(12) 0.48422(14)
H3 H 0.1792 0.7137 0.5397
H4 H 0.2162 0.7156 0.4906
C8 C 0.21490(6) 1.05193(13) 0.51513(13)
H5 H 0.2134 1.1119 0.4919
C9 C 0.19898(5) 0.89050(12) 0.50727(12)
C10 C 0.30586(6) 0.79685(14) 0.88579(13)
H6 H 0.3024 0.7328 0.8794
C11 C 0.17098(5) 0.66461(13) 0.41471(14)
H7 H 0.1757 0.6879 0.3574
H8 H 0.1809 0.6017 0.4208
C12 C 0.07069(6) 0.61392(14) 0.38402(14)
C13 C 0.29540(5) 0.95580(12) 0.83270(12)
C14 C 0.10864(5) 0.61303(14) 0.36819(13)
C15 C 0.12081(6) 0.56168(15) 0.29990(15)
H9 H 0.1461 0.5623 0.2893
C16 C 0.31720(7) 0.99165(15) 0.90414(14)
H10 H 0.3213 1.0555 0.9104
C17 C 0.32700(7) 0.83398(16) 0.95571(15)
H11 H 0.3380 0.7941 0.9982
C18 C 0.04597(6) 0.56154(18) 0.33008(17)
H12 H 0.0205 0.5613 0.3393
C19 C 0.33244(7) 0.92978(16) 0.96503(15)
H13 H 0.3468 0.9523 1.0139
C20 C 0.05842(8) 0.50943(19) 0.26264(19)
H14 H 0.0414 0.4740 0.2274
C21 C 0.09553(8) 0.50948(17) 0.24735(17)
H15 H 0.1038 0.4745 0.2017
C22 C 0.16548(7) 1.15861(14) 0.34376(14)
C23 C 0.13978(5) 0.95383(14) 0.36581(13)
H16 H 0.1220 1.0039 0.3517
H17 H 0.1318 0.9211 0.4163
C24 C 0.18687(6) 1.06943(13) 0.33393(12)
H18 H 0.1834 1.0500 0.2733
H19 H 0.2135 1.0821 0.3471
C25 C 0.06735(6) 0.76088(15) 0.46639(14)
H20 H 0.0437 0.7949 0.4625
H21 H 0.0813 0.7812 0.4183
C26 C 0.13904(6) 0.88747(14) 0.29022(14)
C27 C 0.08929(7) 0.78620(19) 0.55049(17)
C28 C 0.02991(6) 0.62688(17) 0.50521(17)
H22 H 0.0353 0.6443 0.5660
H23 H 0.0307 0.5593 0.5021
C29 C -0.00939(7) 0.65820(18) 0.47619(19)
C30 C 0.09881(10) 0.7927(2) 0.1963(2)
H24 H 0.1059 0.8235 0.1446
H25 H 0.0728 0.7749 0.1883
H26 H 0.1141 0.7380 0.2070
C31 C 0.11603(11) 0.9127(3) 0.6318(2)
H27 H 0.0985 0.9167 0.6757
H28 H 0.1258 0.9737 0.6211
H29 H 0.1364 0.8719 0.6515
C32 C 0.15800(10) 1.31306(17) 0.2889(2)
H30 H 0.1314 1.3024 0.2896
H31 H 0.1628 1.3460 0.2366
H32 H 0.1668 1.3495 0.3389
C33 C -0.07271(9) 0.6403(4) 0.5086(4)
H33 H -0.0775 0.7043 0.5225
H34 H -0.0873 0.6003 0.5428
H35 H -0.0795 0.6295 0.4477
N1 N 0.26761(4) 0.84753(10) 0.74796(10)
N2 N 0.27680(4) 1.00115(10) 0.76197(10)
N3 N 0.17655(4) 0.99332(11) 0.38759(10)
N4 N 0.05940(5) 0.66369(12) 0.45624(12)
O1 O 0.18156(4) 0.82032(8) 0.45832(9)
O2 O 0.13199(4) 0.66507(10) 0.42509(10)
O3 O 0.17775(5) 1.22340(10) 0.29130(11)
O4 O 0.14080(5) 1.17087(10) 0.39030(12)
O5 O 0.10447(5) 0.85577(14) 0.27045(12)
O6 O 0.09712(6) 0.87619(13) 0.55180(12)
O7 O 0.16521(6) 0.86597(13) 0.25121(12)
O8 O 0.09849(7) 0.73386(17) 0.60878(14)
O9 O -0.01897(5) 0.70818(17) 0.41725(16)
O10 O -0.03285(5) 0.62012(17) 0.52830(17)
loop_
_geom_bond_atom_site_label_1
_geom_bond_atom_site_label_2
_geom_bond_site_symmetry_1
_geom_bond_site_symmetry_2
C1 C2 1_555 1_555
C2 C3 1_555 1_555
C3 H1 1_555 1_555
C4 C2 1_555 1_555
H2 C4 1_555 1_555
C5 C10 1_555 1_555
C6 C8 1_555 1_555
C7 H3 1_555 1_555
H4 C7 1_555 1_555
C8 C4 1_555 1_555
H5 C8 1_555 1_555
C9 C3 1_555 1_555
C10 H6 1_555 1_555
C11 C7 1_555 1_555
H7 C11 1_555 1_555
H8 C11 1_555 1_555
C12 C14 1_555 1_555
C13 C5 1_555 1_555
C14 C15 1_555 1_555
C15 H9 1_555 1_555
C16 C13 1_555 1_555
H10 C16 1_555 1_555
C17 C10 1_555 1_555
H11 C17 1_555 1_555
C18 C12 1_555 1_555
H12 C18 1_555 1_555
C19 C16 1_555 1_555
H13 C19 1_555 1_555
C20 C18 1_555 1_555
H14 C20 1_555 1_555
C21 C15 1_555 1_555
H15 C21 1_555 1_555
C22 C24 1_555 1_555
C23 H16 1_555 1_555
H17 C23 1_555 1_555
C24 H18 1_555 1_555
H19 C24 1_555 1_555
C25 H20 1_555 1_555
H21 C25 1_555 1_555
C26 C23 1_555 1_555
C27 C25 1_555 1_555
C28 H22 1_555 1_555
H23 C28 1_555 1_555
C29 C28 1_555 1_555
C30 H24 1_555 1_555
H25 C30 1_555 1_555
H26 C30 1_555 1_555
C31 H27 1_555 1_555
H28 C31 1_555 1_555
H29 C31 1_555 1_555
C32 H30 1_555 1_555
H31 C32 1_555 1_555
H32 C32 1_555 1_555
C33 H33 1_555 1_555
H34 C33 1_555 1_555
H35 C33 1_555 1_555
N1 C1 1_555 1_555
N2 C1 1_555 1_555
N3 C6 1_555 1_555
N4 C12 1_555 1_555
O1 C7 1_555 1_555
O2 C11 1_555 1_555
O3 C22 1_555 1_555
O4 C22 1_555 1_555
O5 C26 1_555 1_555
O6 C27 1_555 1_555
O7 C26 1_555 1_555
O8 C27 1_555 1_555
O9 C29 1_555 1_555
O10 C29 1_555 1_555
C5 N1 1_555 1_555
C6 C9 1_555 1_555
C9 O1 1_555 1_555
C13 N2 1_555 1_555
C14 O2 1_555 1_555
C17 C19 1_555 1_555
C20 C21 1_555 1_555
C23 N3 1_555 1_555
C24 N3 1_555 1_555
C25 N4 1_555 1_555
C28 N4 1_555 1_555
C30 O5 1_555 1_555
C31 O6 1_555 1_555
C32 O3 1_555 1_555
C33 O10 1_555 1_555

#END
