
#######################################################################
#
#                 Cambridge Crystallographic Data Centre
#                                CCDC 
#
#######################################################################
#
# If this CIF has been generated from an entry in the Cambridge 
# Structural Database, then it will include bibliographic, chemical, 
# crystal, experimental, refinement or atomic coordinate data resulting 
# from the CCDC's data processing and validation procedures.
#
#######################################################################

data_TUCQUE
_chemical_formula_moiety         'C15 H26 N2 O2'
_chemical_name_systematic        
(2R)-2-Hydroxy-7,7-dimethyl-N-((2S)-pyrrolidin-2-ylmethyl)bicyclo[2.2.1]heptane-1-carboxamide
_symmetry_cell_setting           monoclinic
_symmetry_space_group_name_H-M   'P 21'
_symmetry_Int_Tables_number      4
_space_group_name_Hall           'P 2yb'
loop_
_symmetry_equiv_pos_site_id
_symmetry_equiv_pos_as_xyz
1 x,y,z
2 -x,1/2+y,-z
_cell_length_a                   8.0727(3)
_cell_length_b                   9.2759(4)
_cell_length_c                   10.3149(4)
_cell_angle_alpha                90
_cell_angle_beta                 96.558(2)
_cell_angle_gamma                90
_cell_volume                     767.342
_exptl_crystal_colour            colorless
_exptl_crystal_description       rectangular
_chemical_melting_point          '140 deg.C'
_cell_formula_units_Z            2
loop_
_atom_site_label
_atom_site_type_symbol
_atom_site_fract_x
_atom_site_fract_y
_atom_site_fract_z
C1 C 1.1110(6) 0.8980(7) 0.1892(5)
H1 H 1.1540 0.8839 0.1051
C2 C 1.2242(7) 1.0058(9) 0.2731(7)
H2 H 1.2630 0.9647 0.3576
H3 H 1.3200 1.0326 0.2296
C3 C 1.1132(9) 1.1341(7) 0.2873(5)
H4 H 1.1532 1.1980 0.3599
C4 C 1.0887(11) 1.2103(8) 0.1531(7)
H5 H 1.0351 1.3033 0.1587
H6 H 1.1940 1.2230 0.1176
C5 C 0.9751(9) 1.1032(8) 0.0714(5)
H7 H 1.0296 1.0660 -0.0008
H8 H 0.8711 1.1488 0.0370
C6 C 0.9435(6) 0.9808(6) 0.1681(4)
C7 C 0.9400(7) 1.0670(6) 0.2994(5)
C8 C 0.9388(8) 0.9734(8) 0.4196(5)
H9 H 0.9369 1.0336 0.4952
H10 H 1.0372 0.9144 0.4298
H11 H 0.8417 0.9129 0.4102
C9 C 0.7995(12) 1.1756(10) 0.2994(11)
H12 H 0.7982 1.2370 0.2244
H13 H 0.8163 1.2329 0.3773
H14 H 0.6950 1.1255 0.2966
C10 C 0.7830(6) 0.9002(7) 0.1254(5)
C11 C 0.6300(7) 0.6753(9) 0.1313(7)
H15 H 0.6639 0.5767 0.1174
H16 H 0.5664 0.7088 0.0515
C12 C 0.5236(5) 0.6789(6) 0.2379(4)
H17 H 0.4942 0.7796 0.2526
C13 C 0.5995(14) 0.6174(16) 0.3651(10)
H18 H 0.7101 0.5808 0.3560
H19 H 0.6098 0.6923 0.4312
C14 C 0.4968(14) 0.5035(16) 0.4040(11)
H20 H 0.4490 0.5304 0.4826
H21 H 0.5627 0.4168 0.4219
C15 C 0.3650(8) 0.4776(9) 0.2979(7)
H22 H 0.3845 0.3874 0.2546
H23 H 0.2578 0.4721 0.3316
N1 N 0.7776(5) 0.7650(6) 0.1598(5)
H24 H 0.8654 0.7271 0.2013
N2 N 0.3664(4) 0.5961(5) 0.2073(4)
H25 H 0.2888 0.6156 0.1456
O1 O 1.1012(5) 0.7640(5) 0.2521(5)
H26 H 1.1933 0.7255 0.2603
O2 O 0.6628(5) 0.9587(8) 0.0646(5)
loop_
_geom_bond_atom_site_label_1
_geom_bond_atom_site_label_2
_geom_bond_site_symmetry_1
_geom_bond_site_symmetry_2
C1 H1 1_555 1_555
C2 C1 1_555 1_555
H2 C2 1_555 1_555
H3 C2 1_555 1_555
C3 C2 1_555 1_555
H4 C3 1_555 1_555
C4 C3 1_555 1_555
H5 C4 1_555 1_555
H6 C4 1_555 1_555
C5 C4 1_555 1_555
H7 C5 1_555 1_555
H8 C5 1_555 1_555
C6 C1 1_555 1_555
C7 C3 1_555 1_555
C8 C7 1_555 1_555
H9 C8 1_555 1_555
H10 C8 1_555 1_555
H11 C8 1_555 1_555
C9 C7 1_555 1_555
H12 C9 1_555 1_555
H13 C9 1_555 1_555
H14 C9 1_555 1_555
C10 C6 1_555 1_555
C11 H15 1_555 1_555
H16 C11 1_555 1_555
C12 C11 1_555 1_555
H17 C12 1_555 1_555
C13 C12 1_555 1_555
H18 C13 1_555 1_555
H19 C13 1_555 1_555
C14 C13 1_555 1_555
H20 C14 1_555 1_555
H21 C14 1_555 1_555
C15 C14 1_555 1_555
H22 C15 1_555 1_555
H23 C15 1_555 1_555
N1 C10 1_555 1_555
H24 N1 1_555 1_555
N2 C12 1_555 1_555
H25 N2 1_555 1_555
O1 C1 1_555 1_555
H26 O1 1_555 1_555
O2 C10 1_555 1_555
C5 C6 1_555 1_555
C6 C7 1_555 1_555
C11 N1 1_555 1_555
C15 N2 1_555 1_555

#END
