
#######################################################################
#
#                 Cambridge Crystallographic Data Centre
#                                CCDC 
#
#######################################################################
#
# If this CIF has been generated from an entry in the Cambridge 
# Structural Database, then it will include bibliographic, chemical, 
# crystal, experimental, refinement or atomic coordinate data resulting 
# from the CCDC's data processing and validation procedures.
#
#######################################################################

data_TUCRIT
_chemical_formula_moiety         'C27 H21 N1'
_chemical_name_systematic        
(4Z,6E)-4,6,8-triphenyl-1,8-dihydrocyclohepta[b]pyrrole
_symmetry_cell_setting           orthorhombic
_symmetry_space_group_name_H-M   'P b c a'
_symmetry_Int_Tables_number      61
_space_group_name_Hall           '-P 2ac 2ab'
loop_
_symmetry_equiv_pos_site_id
_symmetry_equiv_pos_as_xyz
1 x,y,z
2 1/2-x,-y,1/2+z
3 -x,1/2+y,1/2-z
4 1/2+x,1/2-y,-z
5 -x,-y,-z
6 1/2+x,y,1/2-z
7 x,1/2-y,1/2+z
8 1/2-x,1/2+y,z
_cell_length_a                   14.3127(9)
_cell_length_b                   14.0783(8)
_cell_length_c                   19.9293(13)
_cell_angle_alpha                90
_cell_angle_beta                 90
_cell_angle_gamma                90
_cell_volume                     4015.72
_exptl_crystal_colour            colorless
_exptl_crystal_description       prismatic
_cell_formula_units_Z            8
loop_
_atom_site_label
_atom_site_type_symbol
_atom_site_fract_x
_atom_site_fract_y
_atom_site_fract_z
N1 N 1.01142(12) 0.97143(11) 0.37059(8)
C1 C 1.10033(14) 0.95120(13) 0.35023(11)
H1 H 1.1397 0.9918 0.3266
C2 C 1.12123(13) 0.86218(13) 0.37028(10)
H2 H 1.1770 0.8302 0.3623
C3 C 1.04271(12) 0.82583(12) 0.40586(9)
C4 C 0.97581(12) 0.89586(11) 0.40460(9)
C5 C 0.87920(12) 0.88778(12) 0.43286(9)
H3 H 0.8514 0.8304 0.4135
C6 C 0.88789(12) 0.87069(12) 0.50703(9)
H4 H 0.8647 0.9164 0.5363
C7 C 0.92753(12) 0.79269(12) 0.53300(9)
C8 C 0.97604(12) 0.72122(12) 0.49280(9)
H5 H 0.9686 0.6586 0.5068
C9 C 1.03025(12) 0.73393(11) 0.43811(9)
C10 C 1.07833(12) 0.64973(12) 0.40801(10)
C11 C 1.11538(13) 0.57816(13) 0.44809(12)
H6 H 1.1140 0.5842 0.4945
C12 C 1.15429(15) 0.49811(14) 0.41923(15)
H7 H 1.1790 0.4508 0.4465
C13 C 1.15682(15) 0.48773(15) 0.35102(15)
H8 H 1.1822 0.4332 0.3320
C14 C 1.12169(15) 0.55825(16) 0.31103(13)
H9 H 1.1236 0.5518 0.2646
C15 C 1.08340(14) 0.63896(13) 0.33941(11)
H10 H 1.0607 0.6868 0.3117
C16 C 0.81550(13) 0.96974(12) 0.41467(9)
C17 C 0.74117(15) 0.95570(16) 0.37121(11)
H11 H 0.7315 0.8961 0.3523
C18 C 0.68146(18) 1.0295(2) 0.35580(14)
H12 H 0.6315 1.0191 0.3269
C19 C 0.6949(2) 1.1170(2) 0.38247(14)
H13 H 0.6542 1.1663 0.3719
C20 C 0.7682(2) 1.13276(16) 0.42483(14)
H14 H 0.7777 1.1930 0.4427
C21 C 0.82836(16) 1.05930(14) 0.44142(12)
H15 H 0.8777 1.0704 0.4707
C22 C 0.92218(13) 0.77253(12) 0.60638(9)
C23 C 0.84397(14) 0.79648(13) 0.64373(10)
H16 H 0.7946 0.8280 0.6231
C24 C 0.83831(16) 0.77431(14) 0.71099(11)
H17 H 0.7856 0.7915 0.7354
C25 C 0.90999(18) 0.72708(15) 0.74198(11)
H18 H 0.9057 0.7117 0.7872
C26 C 0.98779(18) 0.70268(16) 0.70624(12)
H19 H 1.0365 0.6706 0.7273
C27 C 0.99449(15) 0.72548(14) 0.63905(11)
H20 H 1.0481 0.7092 0.6153
H21 H 0.9843(13) 1.0234(14) 0.3644(10)
loop_
_geom_bond_atom_site_label_1
_geom_bond_atom_site_label_2
_geom_bond_site_symmetry_1
_geom_bond_site_symmetry_2
N1 C1 1_555 1_555
C1 H1 1_555 1_555
C2 C1 1_555 1_555
H2 C2 1_555 1_555
C3 C2 1_555 1_555
C4 N1 1_555 1_555
C5 C4 1_555 1_555
H3 C5 1_555 1_555
C6 C5 1_555 1_555
H4 C6 1_555 1_555
C7 C6 1_555 1_555
C8 C7 1_555 1_555
H5 C8 1_555 1_555
C9 C3 1_555 1_555
C10 C9 1_555 1_555
C11 C10 1_555 1_555
H6 C11 1_555 1_555
C12 C11 1_555 1_555
H7 C12 1_555 1_555
C13 C12 1_555 1_555
H8 C13 1_555 1_555
C14 C13 1_555 1_555
H9 C14 1_555 1_555
C15 C10 1_555 1_555
H10 C15 1_555 1_555
C16 C5 1_555 1_555
C17 C16 1_555 1_555
H11 C17 1_555 1_555
C18 C17 1_555 1_555
H12 C18 1_555 1_555
C19 C18 1_555 1_555
H13 C19 1_555 1_555
C20 C19 1_555 1_555
H14 C20 1_555 1_555
C21 C16 1_555 1_555
H15 C21 1_555 1_555
C22 C7 1_555 1_555
C23 C22 1_555 1_555
H16 C23 1_555 1_555
C24 C23 1_555 1_555
H17 C24 1_555 1_555
C25 C24 1_555 1_555
H18 C25 1_555 1_555
C26 C25 1_555 1_555
H19 C26 1_555 1_555
C27 C22 1_555 1_555
H20 C27 1_555 1_555
H21 N1 1_555 1_555
C3 C4 1_555 1_555
C8 C9 1_555 1_555
C14 C15 1_555 1_555
C20 C21 1_555 1_555
C26 C27 1_555 1_555

#END
