
#######################################################################
#
#                 Cambridge Crystallographic Data Centre
#                                CCDC 
#
#######################################################################
#
# If this CIF has been generated from an entry in the Cambridge 
# Structural Database, then it will include bibliographic, chemical, 
# crystal, experimental, refinement or atomic coordinate data resulting 
# from the CCDC's data processing and validation procedures.
#
#######################################################################

data_TUCTAN
_chemical_formula_moiety         'C26 H27 Br1 N2 O6 S1'
_chemical_name_systematic        
1-(4-Bromo-3-butylisoquinolinium-2-yl)-1,2-bis(methoxycarbonyl)-2-(((4-methylphenyl)sulfonyl)imino)ethanide
_symmetry_cell_setting           orthorhombic
_symmetry_space_group_name_H-M   'P b c a'
_symmetry_Int_Tables_number      61
_space_group_name_Hall           '-P 2ac 2ab'
loop_
_symmetry_equiv_pos_site_id
_symmetry_equiv_pos_as_xyz
1 x,y,z
2 1/2-x,-y,1/2+z
3 -x,1/2+y,1/2-z
4 1/2+x,1/2-y,-z
5 -x,-y,-z
6 1/2+x,y,1/2-z
7 x,1/2-y,1/2+z
8 1/2-x,1/2+y,z
_cell_length_a                   19.954(12)
_cell_length_b                   10.844(6)
_cell_length_c                   23.982(15)
_cell_angle_alpha                90
_cell_angle_beta                 90
_cell_angle_gamma                90
_cell_volume                     5189.25
_exptl_crystal_colour            yellow
_exptl_crystal_description       plate
_cell_formula_units_Z            8
loop_
_atom_site_label
_atom_site_type_symbol
_atom_site_fract_x
_atom_site_fract_y
_atom_site_fract_z
Br1 Br 0.19744(3) 0.20301(6) 0.08531(3)
S1 S 0.42071(7) 0.56354(14) 0.19325(6)
N1 N 0.36774(17) 0.3908(3) 0.03945(17)
N2 N 0.41016(18) 0.5178(3) 0.13020(16)
O1 O 0.53180(15) 0.3359(4) 0.15167(15)
O2 O 0.57193(16) 0.5093(3) 0.11185(14)
O3 O 0.45067(15) 0.2680(3) -0.02261(15)
O4 O 0.54292(15) 0.3161(3) 0.02588(14)
O5 O 0.48929(16) 0.5664(3) 0.21089(14)
O6 O 0.38222(18) 0.6742(3) 0.19948(15)
C1 C 0.2791(3) 0.1586(5) 0.3205(3)
H1 H 0.2318 0.1646 0.3137
H2 H 0.2877 0.1691 0.3596
H3 H 0.2949 0.0791 0.3088
C2 C 0.3149(3) 0.2569(5) 0.2884(2)
C3 C 0.2806(3) 0.3404(6) 0.2565(3)
H4 H 0.2342 0.3332 0.2539
C4 C 0.3118(3) 0.4349(5) 0.2279(2)
H5 H 0.2867 0.4898 0.2067
C5 C 0.3808(2) 0.4468(4) 0.2314(2)
C6 C 0.4163(3) 0.3632(5) 0.2621(2)
H6 H 0.4627 0.3691 0.2640
C7 C 0.3838(3) 0.2705(5) 0.2901(2)
H7 H 0.4090 0.2150 0.3110
C8 C 0.4551(2) 0.4536(5) 0.1025(2)
C9 C 0.5279(3) 0.4381(6) 0.1220(2)
C10 C 0.5968(3) 0.3088(5) 0.1747(2)
H8 H 0.5947 0.2334 0.1956
H9 H 0.6104 0.3748 0.1989
H10 H 0.6288 0.3002 0.1450
C11 C 0.4385(2) 0.3918(4) 0.0553(2)
C12 C 0.4830(3) 0.3238(5) 0.0195(2)
C13 C 0.4910(2) 0.2044(5) -0.0627(2)
H11 H 0.4627 0.1691 -0.0908
H12 H 0.5158 0.1401 -0.0444
H13 H 0.5217 0.2614 -0.0797
C14 C 0.3477(2) 0.4633(4) -0.0012(2)
H14 H 0.3784 0.5163 -0.0179
C15 C 0.2815(2) 0.4626(5) -0.0199(2)
C16 C 0.2611(3) 0.5433(5) -0.0626(2)
H15 H 0.2914 0.5996 -0.0775
C17 C 0.1969(3) 0.5388(6) -0.0821(2)
H16 H 0.1831 0.5923 -0.1102
C18 C 0.1523(3) 0.4536(6) -0.0598(3)
H17 H 0.1091 0.4495 -0.0742
C19 C 0.1698(2) 0.3761(5) -0.0178(2)
H18 H 0.1388 0.3205 -0.0036
C20 C 0.2362(2) 0.3807(5) 0.0044(2)
C21 C 0.2587(2) 0.3071(5) 0.0485(2)
C22 C 0.3245(2) 0.3090(4) 0.0671(2)
C23 C 0.3510(2) 0.2290(4) 0.1125(2)
H19 H 0.3161 0.2175 0.1402
H20 H 0.3879 0.2714 0.1306
C24 C 0.3750(3) 0.1041(5) 0.0934(3)
H21 H 0.4035 0.1144 0.0610
H22 H 0.3366 0.0550 0.0822
C25 C 0.4147(5) 0.0334(8) 0.1394(3)
H23 H 0.4360 -0.0388 0.1233
H24 H 0.4495 0.0862 0.1545
C26 C 0.3741(5) -0.0003(8) 0.1793(4)
H25 H 0.3990 -0.0429 0.2076
H26 H 0.3404 -0.0542 0.1644
H27 H 0.3532 0.0713 0.1951
loop_
_geom_bond_atom_site_label_1
_geom_bond_atom_site_label_2
_geom_bond_site_symmetry_1
_geom_bond_site_symmetry_2
Br1 C21 1_555 1_555
S1 N2 1_555 1_555
N1 C11 1_555 1_555
N2 C8 1_555 1_555
O1 C9 1_555 1_555
O2 C9 1_555 1_555
O3 C12 1_555 1_555
O4 C12 1_555 1_555
O5 S1 1_555 1_555
O6 S1 1_555 1_555
C1 H1 1_555 1_555
H2 C1 1_555 1_555
H3 C1 1_555 1_555
C2 C1 1_555 1_555
C3 C2 1_555 1_555
H4 C3 1_555 1_555
C4 C3 1_555 1_555
H5 C4 1_555 1_555
C5 S1 1_555 1_555
C6 C5 1_555 1_555
H6 C6 1_555 1_555
C7 C2 1_555 1_555
H7 C7 1_555 1_555
C8 C9 1_555 1_555
C10 O1 1_555 1_555
H8 C10 1_555 1_555
H9 C10 1_555 1_555
H10 C10 1_555 1_555
C11 C8 1_555 1_555
C12 C11 1_555 1_555
C13 O3 1_555 1_555
H11 C13 1_555 1_555
H12 C13 1_555 1_555
H13 C13 1_555 1_555
C14 N1 1_555 1_555
H14 C14 1_555 1_555
C15 C14 1_555 1_555
C16 C15 1_555 1_555
H15 C16 1_555 1_555
C17 C16 1_555 1_555
H16 C17 1_555 1_555
C18 C17 1_555 1_555
H17 C18 1_555 1_555
C19 C18 1_555 1_555
H18 C19 1_555 1_555
C20 C15 1_555 1_555
C21 C20 1_555 1_555
C22 N1 1_555 1_555
C23 C22 1_555 1_555
H19 C23 1_555 1_555
H20 C23 1_555 1_555
C24 C23 1_555 1_555
H21 C24 1_555 1_555
H22 C24 1_555 1_555
C25 C24 1_555 1_555
H23 C25 1_555 1_555
H24 C25 1_555 1_555
C26 C25 1_555 1_555
H25 C26 1_555 1_555
H26 C26 1_555 1_555
H27 C26 1_555 1_555
C4 C5 1_555 1_555
C6 C7 1_555 1_555
C19 C20 1_555 1_555
C21 C22 1_555 1_555

#END
