
#######################################################################
#
#                 Cambridge Crystallographic Data Centre
#                                CCDC 
#
#######################################################################
#
# If this CIF has been generated from an entry in the Cambridge 
# Structural Database, then it will include bibliographic, chemical, 
# crystal, experimental, refinement or atomic coordinate data resulting 
# from the CCDC's data processing and validation procedures.
#
#######################################################################

data_TUCTOC
_chemical_formula_moiety         'C13 H10 Br1 Cl1'
_chemical_name_systematic        
5-bromo-6-(chloromethyl)-1,2-dihydroacenaphthylene
_symmetry_cell_setting           orthorhombic
_symmetry_space_group_name_H-M   'P n a 21'
_symmetry_Int_Tables_number      33
_space_group_name_Hall           'P 2c -2n'
loop_
_symmetry_equiv_pos_site_id
_symmetry_equiv_pos_as_xyz
1 x,y,z
2 -x,-y,1/2+z
3 1/2-x,1/2+y,1/2+z
4 1/2+x,1/2-y,z
_cell_length_a                   16.0522(6)
_cell_length_b                   14.3181(6)
_cell_length_c                   4.6148(3)
_cell_angle_alpha                90
_cell_angle_beta                 90
_cell_angle_gamma                90
_cell_volume                     1060.65
_exptl_crystal_colour            colorless
_exptl_crystal_description       rod
_cell_formula_units_Z            4
loop_
_atom_site_label
_atom_site_type_symbol
_atom_site_fract_x
_atom_site_fract_y
_atom_site_fract_z
Br1 Br 0.50811(3) 0.88783(3) 0.5246(4)
Cl1 Cl 0.38898(7) 0.67767(9) 0.4997(6)
C1 C 0.4765(4) 0.6823(4) 0.2532(16)
H1 H 0.4662 0.6401 0.0871
H2 H 0.4827 0.7466 0.1773
C2 C 0.5555(4) 0.6535(4) 0.4053(14)
C3 C 0.5819(4) 0.5635(4) 0.3574(16)
H3 H 0.5508 0.5262 0.2260
C4 C 0.6529(4) 0.5227(4) 0.492(2)
H4 H 0.6682 0.4598 0.4539
C5 C 0.6980(4) 0.5760(4) 0.6764(16)
C6 C 0.7744(4) 0.5542(4) 0.8536(16)
H5 H 0.8211 0.5348 0.7271
H6 H 0.7628 0.5036 0.9942
C7 C 0.6032(3) 0.7113(4) 0.5966(14)
C8 C 0.6724(4) 0.6694(4) 0.7289(16)
C9 C 0.7264(4) 0.7128(4) 0.9266(15)
C10 C 0.7106(3) 0.8032(4) 1.005(2)
H7 H 0.7446 0.8341 1.1435
C11 C 0.6436(4) 0.8490(4) 0.8768(17)
H8 H 0.6333 0.9122 0.9283
C12 C 0.5919(4) 0.8072(4) 0.6801(16)
C13 C 0.7954(3) 0.6465(4) 1.013(3)
H9 H 0.7962 0.6370 1.2253
H10 H 0.8503 0.6707 0.9506
loop_
_geom_bond_atom_site_label_1
_geom_bond_atom_site_label_2
_geom_bond_site_symmetry_1
_geom_bond_site_symmetry_2
Br1 C12 1_555 1_555
Cl1 C1 1_555 1_555
C1 H1 1_555 1_555
H2 C1 1_555 1_555
C2 C1 1_555 1_555
C3 C2 1_555 1_555
H3 C3 1_555 1_555
C4 C3 1_555 1_555
H4 C4 1_555 1_555
C5 C4 1_555 1_555
C6 C5 1_555 1_555
H5 C6 1_555 1_555
H6 C6 1_555 1_555
C7 C2 1_555 1_555
C8 C5 1_555 1_555
C9 C8 1_555 1_555
C10 C9 1_555 1_555
H7 C10 1_555 1_555
C11 C10 1_555 1_555
H8 C11 1_555 1_555
C12 C7 1_555 1_555
C13 C6 1_555 1_555
H9 C13 1_555 1_555
H10 C13 1_555 1_555
C7 C8 1_555 1_555
C9 C13 1_555 1_555
C11 C12 1_555 1_555

#END
