
#######################################################################
#
#                 Cambridge Crystallographic Data Centre
#                                CCDC 
#
#######################################################################
#
# If this CIF has been generated from an entry in the Cambridge 
# Structural Database, then it will include bibliographic, chemical, 
# crystal, experimental, refinement or atomic coordinate data resulting 
# from the CCDC's data processing and validation procedures.
#
#######################################################################

data_TUCVET
_chemical_formula_moiety         'C30 H26 N2 O2 S1'
_chemical_name_systematic        
2-Benzylidene-3-((4-methylphenyl)sulfonyl)-1,4-diphenyl-1,2,3,4-tetrahydropyrimidine
_symmetry_cell_setting           orthorhombic
_symmetry_space_group_name_H-M   'P b c a'
_symmetry_Int_Tables_number      61
_space_group_name_Hall           '-P 2ac 2ab'
loop_
_symmetry_equiv_pos_site_id
_symmetry_equiv_pos_as_xyz
1 x,y,z
2 1/2-x,-y,1/2+z
3 -x,1/2+y,1/2-z
4 1/2+x,1/2-y,-z
5 -x,-y,-z
6 1/2+x,y,1/2-z
7 x,1/2-y,1/2+z
8 1/2-x,1/2+y,z
_cell_length_a                   14.5299(9)
_cell_length_b                   15.1576(10)
_cell_length_c                   22.8268(15)
_cell_angle_alpha                90
_cell_angle_beta                 90
_cell_angle_gamma                90
_cell_volume                     5027.34
_exptl_crystal_colour            colorless
_exptl_crystal_description       prismatic
_cell_formula_units_Z            8
loop_
_atom_site_label
_atom_site_type_symbol
_atom_site_fract_x
_atom_site_fract_y
_atom_site_fract_z
S1 S 0.21490(4) 0.03620(3) 0.46117(2)
N1 N 0.17490(9) 0.13220(9) 0.43824(6)
N2 N 0.13068(11) 0.22265(10) 0.51822(6)
O1 O 0.13736(11) -0.01479(9) 0.47740(7)
O2 O 0.27477(11) 0.00713(10) 0.41572(7)
C1 C 0.24318(12) 0.19733(11) 0.41590(7)
H1 H 0.3003 0.1649 0.4083
C2 C 0.26374(14) 0.26312(13) 0.46304(8)
H2 H 0.3146 0.2999 0.4590
C3 C 0.21200(13) 0.27037(12) 0.51002(9)
H3 H 0.2304 0.3092 0.5393
C4 C 0.10059(12) 0.17285(11) 0.46933(7)
C5 C 0.01434(12) 0.17298(12) 0.45087(8)
H4 H -0.0263 0.2034 0.4750
C6 C -0.02821(12) 0.13330(12) 0.39882(8)
C7 C -0.10421(15) 0.17685(16) 0.37617(10)
H5 H -0.1281 0.2253 0.3961
C8 C -0.14498(19) 0.14991(18) 0.32488(12)
H6 H -0.1946 0.1813 0.3098
C9 C -0.1133(2) 0.07793(18) 0.29613(10)
H7 H -0.1408 0.0600 0.2613
C10 C -0.04068(17) 0.03175(15) 0.31860(9)
H8 H -0.0197 -0.0185 0.2994
C11 C 0.00197(14) 0.05906(14) 0.36961(9)
H9 H 0.0514 0.0271 0.3844
C12 C 0.21073(12) 0.23393(12) 0.35767(8)
C13 C 0.21036(15) 0.32238(15) 0.34604(10)
H10 H 0.2276 0.3624 0.3749
C14 C 0.1843(2) 0.35250(19) 0.29105(13)
H11 H 0.1863 0.4127 0.2831
C15 C 0.15616(17) 0.2965(3) 0.24897(12)
H12 H 0.1376 0.3175 0.2126
C16 C 0.15544(16) 0.2088(2) 0.26061(10)
H13 H 0.1354 0.1696 0.2320
C17 C 0.18377(14) 0.17696(16) 0.31388(9)
H14 H 0.1848 0.1164 0.3205
C18 C 0.07009(13) 0.24313(12) 0.56486(8)
C19 C 0.01711(13) 0.17686(14) 0.58958(8)
H15 H 0.0209 0.1197 0.5750
C20 C -0.04085(14) 0.19491(18) 0.63538(9)
H16 H -0.0767 0.1501 0.6513
C21 C -0.04644(16) 0.2786(2) 0.65799(10)
H17 H -0.0848 0.2904 0.6897
C22 C 0.00457(17) 0.34397(19) 0.63365(11)
H18 H 0.0004 0.4008 0.6488
C23 C 0.06305(14) 0.32779(14) 0.58652(9)
H19 H 0.0969 0.3735 0.5699
C24 C 0.28236(13) 0.05212(12) 0.52401(9)
C25 C 0.37516(16) 0.07191(15) 0.51909(12)
H20 H 0.4028 0.0756 0.4824
C26 C 0.42577(18) 0.08595(17) 0.56904(16)
H21 H 0.4880 0.0994 0.5656
C27 C 0.3873(3) 0.08075(17) 0.62376(14)
C28 C 0.2963(2) 0.05968(19) 0.62754(12)
H22 H 0.2693 0.0549 0.6643
C29 C 0.24327(16) 0.04525(15) 0.57848(10)
H23 H 0.1813 0.0309 0.5823
C30 C 0.4447(3) 0.0989(2) 0.67800(16)
H24 H 0.4171 0.0705 0.7112
H25 H 0.4475 0.1614 0.6847
H26 H 0.5058 0.0764 0.6723
loop_
_geom_bond_atom_site_label_1
_geom_bond_atom_site_label_2
_geom_bond_site_symmetry_1
_geom_bond_site_symmetry_2
S1 N1 1_555 1_555
N1 C1 1_555 1_555
N2 C3 1_555 1_555
O1 S1 1_555 1_555
O2 S1 1_555 1_555
C1 H1 1_555 1_555
C2 C1 1_555 1_555
H2 C2 1_555 1_555
C3 C2 1_555 1_555
H3 C3 1_555 1_555
C4 N1 1_555 1_555
C5 C4 1_555 1_555
H4 C5 1_555 1_555
C6 C5 1_555 1_555
C7 C6 1_555 1_555
H5 C7 1_555 1_555
C8 C7 1_555 1_555
H6 C8 1_555 1_555
C9 C8 1_555 1_555
H7 C9 1_555 1_555
C10 C9 1_555 1_555
H8 C10 1_555 1_555
C11 C6 1_555 1_555
H9 C11 1_555 1_555
C12 C1 1_555 1_555
C13 C12 1_555 1_555
H10 C13 1_555 1_555
C14 C13 1_555 1_555
H11 C14 1_555 1_555
C15 C14 1_555 1_555
H12 C15 1_555 1_555
C16 C15 1_555 1_555
H13 C16 1_555 1_555
C17 C12 1_555 1_555
H14 C17 1_555 1_555
C18 N2 1_555 1_555
C19 C18 1_555 1_555
H15 C19 1_555 1_555
C20 C19 1_555 1_555
H16 C20 1_555 1_555
C21 C20 1_555 1_555
H17 C21 1_555 1_555
C22 C21 1_555 1_555
H18 C22 1_555 1_555
C23 C18 1_555 1_555
H19 C23 1_555 1_555
C24 S1 1_555 1_555
C25 C24 1_555 1_555
H20 C25 1_555 1_555
C26 C25 1_555 1_555
H21 C26 1_555 1_555
C27 C26 1_555 1_555
C28 C27 1_555 1_555
H22 C28 1_555 1_555
C29 C24 1_555 1_555
H23 C29 1_555 1_555
C30 C27 1_555 1_555
H24 C30 1_555 1_555
H25 C30 1_555 1_555
H26 C30 1_555 1_555
N2 C4 1_555 1_555
C10 C11 1_555 1_555
C16 C17 1_555 1_555
C22 C23 1_555 1_555
C28 C29 1_555 1_555

#END
