
#######################################################################
#
#                 Cambridge Crystallographic Data Centre
#                                CCDC 
#
#######################################################################
#
# If this CIF has been generated from an entry in the Cambridge 
# Structural Database, then it will include bibliographic, chemical, 
# crystal, experimental, refinement or atomic coordinate data resulting 
# from the CCDC's data processing and validation procedures.
#
#######################################################################

data_TUCVIX
_chemical_formula_moiety         'C30 H26 N2 O2 S1'
_chemical_name_systematic        
N-(1,3-Diphenyl-4-(2-phenylvinyl)azetidin-2-ylidene)-4-methylbenzenesulfonamide
_symmetry_cell_setting           monoclinic
_symmetry_space_group_name_H-M   'C 2/c'
_symmetry_Int_Tables_number      15
_space_group_name_Hall           '-C 2yn'
loop_
_symmetry_equiv_pos_site_id
_symmetry_equiv_pos_as_xyz
1 x,y,z
2 -x,y,1/2-z
3 1/2+x,1/2+y,z
4 1/2-x,1/2+y,1/2-z
5 -x,-y,-z
6 x,-y,1/2+z
7 1/2-x,1/2-y,-z
8 1/2+x,1/2-y,1/2+z
_cell_length_a                   14.6878(13)
_cell_length_b                   9.2518(8)
_cell_length_c                   37.780(3)
_cell_angle_alpha                90
_cell_angle_beta                 91.222(2)
_cell_angle_gamma                90
_cell_volume                     5132.7
_exptl_crystal_colour            colorless
_exptl_crystal_description       prismatic
_cell_formula_units_Z            8
loop_
_atom_site_label
_atom_site_type_symbol
_atom_site_fract_x
_atom_site_fract_y
_atom_site_fract_z
S1 S 0.25153(3) 1.01977(6) 0.075830(13)
N1 N 0.41821(11) 0.97882(18) 0.15426(4)
N2 N 0.33534(11) 1.05444(17) 0.10340(4)
O1 O 0.20096(10) 1.15120(16) 0.07300(4)
O2 O 0.20328(9) 0.89231(16) 0.08487(4)
C1 C 0.35664(13) 0.9626(2) 0.12762(5)
C2 C 0.33223(14) 0.8101(2) 0.13912(5)
H1 H 0.2685 0.8020 0.1461
C3 C 0.39789(15) 0.8397(2) 0.17143(5)
H2 H 0.4503 0.7742 0.1722
C4 C 0.35398(16) 0.8551(3) 0.20660(6)
H3 H 0.3133 0.9308 0.2096
C5 C 0.36924(16) 0.7690(3) 0.23325(6)
H4 H 0.4114 0.6956 0.2298
C6 C 0.32754(16) 0.7744(3) 0.26820(6)
C7 C 0.36151(18) 0.6883(3) 0.29500(6)
H5 H 0.4090 0.6251 0.2904
C8 C 0.3270(2) 0.6933(3) 0.32842(7)
H6 H 0.3514 0.6347 0.3463
C9 C 0.2573(2) 0.7838(3) 0.33527(7)
H7 H 0.2341 0.7877 0.3580
C10 C 0.2208(2) 0.8696(3) 0.30929(8)
H8 H 0.1726 0.9310 0.3143
C11 C 0.25507(18) 0.8654(3) 0.27565(7)
H9 H 0.2298 0.9235 0.2579
C12 C 0.35975(14) 0.6911(2) 0.11457(5)
C13 C 0.29856(15) 0.5847(2) 0.10461(6)
H10 H 0.2399 0.5860 0.1134
C14 C 0.3240(2) 0.4764(3) 0.08175(8)
H11 H 0.2822 0.4053 0.0751
C15 C 0.4098(2) 0.4730(3) 0.06877(8)
H12 H 0.4265 0.4000 0.0533
C16 C 0.47103(18) 0.5768(3) 0.07850(8)
H13 H 0.5297 0.5743 0.0697
C17 C 0.44645(16) 0.6853(2) 0.10124(6)
H14 H 0.4888 0.7558 0.1077
C18 C 0.47768(13) 1.0901(2) 0.16516(5)
C19 C 0.48545(15) 1.2154(3) 0.14577(6)
H15 H 0.4506 1.2287 0.1252
C20 C 0.54517(18) 1.3204(3) 0.15712(7)
H16 H 0.5506 1.4054 0.1442
C21 C 0.59686(18) 1.3010(3) 0.18734(8)
H17 H 0.6376 1.3724 0.1947
C22 C 0.5887(2) 1.1774(3) 0.20664(8)
H18 H 0.6231 1.1652 0.2274
C23 C 0.52989(17) 1.0715(3) 0.19555(7)
H19 H 0.5251 0.9866 0.2085
C24 C 0.30698(13) 0.9915(2) 0.03576(5)
C25 C 0.32987(15) 0.8536(2) 0.02564(6)
H20 H 0.3162 0.7749 0.0399
C26 C 0.37332(16) 0.8339(3) -0.00589(6)
H21 H 0.3885 0.7408 -0.0129
C27 C 0.39469(15) 0.9488(3) -0.02721(6)
C28 C 0.37221(16) 1.0853(3) -0.01618(6)
H22 H 0.3869 1.1641 -0.0302
C29 C 0.32872(15) 1.1085(2) 0.01499(6)
H23 H 0.3140 1.2018 0.0220
C30 C 0.44177(18) 0.9246(4) -0.06195(7)
H24 H 0.5065 0.9256 -0.0580
H25 H 0.4249 1.0000 -0.0783
H26 H 0.4237 0.8327 -0.0716
loop_
_geom_bond_atom_site_label_1
_geom_bond_atom_site_label_2
_geom_bond_site_symmetry_1
_geom_bond_site_symmetry_2
S1 N2 1_555 1_555
N1 C1 1_555 1_555
N2 C1 1_555 1_555
O1 S1 1_555 1_555
O2 S1 1_555 1_555
C1 C2 1_555 1_555
C2 H1 1_555 1_555
C3 N1 1_555 1_555
H2 C3 1_555 1_555
C4 C3 1_555 1_555
H3 C4 1_555 1_555
C5 C4 1_555 1_555
H4 C5 1_555 1_555
C6 C5 1_555 1_555
C7 C6 1_555 1_555
H5 C7 1_555 1_555
C8 C7 1_555 1_555
H6 C8 1_555 1_555
C9 C8 1_555 1_555
H7 C9 1_555 1_555
C10 C9 1_555 1_555
H8 C10 1_555 1_555
C11 C6 1_555 1_555
H9 C11 1_555 1_555
C12 C2 1_555 1_555
C13 C12 1_555 1_555
H10 C13 1_555 1_555
C14 C13 1_555 1_555
H11 C14 1_555 1_555
C15 C14 1_555 1_555
H12 C15 1_555 1_555
C16 C15 1_555 1_555
H13 C16 1_555 1_555
C17 C12 1_555 1_555
H14 C17 1_555 1_555
C18 N1 1_555 1_555
C19 C18 1_555 1_555
H15 C19 1_555 1_555
C20 C19 1_555 1_555
H16 C20 1_555 1_555
C21 C20 1_555 1_555
H17 C21 1_555 1_555
C22 C21 1_555 1_555
H18 C22 1_555 1_555
C23 C18 1_555 1_555
H19 C23 1_555 1_555
C24 S1 1_555 1_555
C25 C24 1_555 1_555
H20 C25 1_555 1_555
C26 C25 1_555 1_555
H21 C26 1_555 1_555
C27 C26 1_555 1_555
C28 C27 1_555 1_555
H22 C28 1_555 1_555
C29 C24 1_555 1_555
H23 C29 1_555 1_555
C30 C27 1_555 1_555
H24 C30 1_555 1_555
H25 C30 1_555 1_555
H26 C30 1_555 1_555
C2 C3 1_555 1_555
C10 C11 1_555 1_555
C16 C17 1_555 1_555
C22 C23 1_555 1_555
C28 C29 1_555 1_555

#END
