
#######################################################################
#
#                 Cambridge Crystallographic Data Centre
#                                CCDC 
#
#######################################################################
#
# If this CIF has been generated from an entry in the Cambridge 
# Structural Database, then it will include bibliographic, chemical, 
# crystal, experimental, refinement or atomic coordinate data resulting 
# from the CCDC's data processing and validation procedures.
#
#######################################################################

data_TUDHOR
_chemical_formula_moiety         'C29 H27 N1 O3 S1'
_chemical_name_systematic        
(E)-3-(4-(bis(4-Ethoxyphenyl)amino)phenyl)-1-(thiophen-2-yl)prop-2-en-1-one
_symmetry_cell_setting           monoclinic
_symmetry_space_group_name_H-M   'P 21/n'
_symmetry_Int_Tables_number      14
_space_group_name_Hall           '-P 2yn'
loop_
_symmetry_equiv_pos_site_id
_symmetry_equiv_pos_as_xyz
1 x,y,z
2 1/2-x,1/2+y,1/2-z
3 -x,-y,-z
4 1/2+x,1/2-y,1/2+z
_cell_length_a                   12.232(5)
_cell_length_b                   24.846(5)
_cell_length_c                   16.810(5)
_cell_angle_alpha                90
_cell_angle_beta                 100.355(5)
_cell_angle_gamma                90
_cell_volume                     5025.62
_exptl_crystal_colour            yellow
_exptl_crystal_description       block
_cell_formula_units_Z            8
loop_
_atom_site_label
_atom_site_type_symbol
_atom_site_fract_x
_atom_site_fract_y
_atom_site_fract_z
S1 S 0.68923(10) 0.56531(5) 0.87616(8)
N1 N 0.4650(3) 0.15386(12) 0.9217(2)
O1 O 0.7761(2) 0.45590(11) 0.89775(17)
O2 O 0.6972(3) -0.03228(11) 0.86809(17)
C1 C 0.5129(3) 0.20464(15) 0.9237(2)
C2 C 0.6186(3) 0.50835(15) 0.8937(2)
C3 C 0.5280(3) 0.10674(14) 0.9064(3)
C4 C 0.6780(4) 0.45733(15) 0.9026(2)
C5 C 0.6620(3) 0.36048(16) 0.9229(2)
H1 H 0.7386 0.3601 0.9253
C6 C 0.6404(4) 0.01409(15) 0.8765(3)
C7 C 0.3473(4) 0.14672(14) 0.9092(3)
C8 C 0.6094(3) 0.30797(15) 0.9285(2)
C9 C 0.4510(3) 0.25159(14) 0.9299(2)
H2 H 0.3760 0.2486 0.9327
C10 C 0.4982(3) 0.30139(15) 0.9319(2)
H3 H 0.4545 0.3316 0.9356
C11 C 0.6252(4) 0.21128(16) 0.9228(3)
H4 H 0.6696 0.1812 0.9205
C12 C 0.6717(4) 0.26155(16) 0.9253(3)
H5 H 0.7474 0.2647 0.9249
C13 C 0.6138(3) 0.40884(15) 0.9149(2)
H6 H 0.5386 0.4120 0.9171
C14 C 0.5298(4) 0.09075(16) 0.8289(3)
H7 H 0.4926 0.1112 0.7861
C15 C 0.3011(4) 0.11917(15) 0.9665(3)
H8 H 0.3465 0.1071 1.0135
C16 C 0.5858(4) 0.04478(16) 0.8131(2)
H9 H 0.5867 0.0346 0.7600
C17 C 0.6404(4) 0.03077(17) 0.9541(3)
H10 H 0.6792 0.0110 0.9972
C18 C 0.2767(4) 0.16431(17) 0.8399(3)
H11 H 0.3062 0.1825 0.8004
C19 C 0.5832(4) 0.07678(16) 0.9693(3)
H12 H 0.5824 0.0873 1.0223
C20 C 0.5115(4) 0.52115(17) 0.9004(3)
H13 H 0.4595 0.4958 0.9101
O3 O 0.0067(3) 0.12173(16) 0.8713(3)
C21 C 0.1198(4) 0.12746(18) 0.8865(3)
C22 C 0.6982(4) -0.05136(17) 0.7887(3)
H14 H 0.7284 -0.0241 0.7575
H15 H 0.6232 -0.0596 0.7617
C23 C 0.1885(4) 0.10939(17) 0.9547(3)
H16 H 0.1588 0.0903 0.9934
C24 C 0.1655(4) 0.15539(19) 0.8289(3)
H17 H 0.1197 0.1681 0.7825
C25 C 0.4883(5) 0.5763(2) 0.8913(4)
H18 H 0.4200 0.5917 0.8946
C26 C 0.5769(5) 0.6040(2) 0.8772(3)
H19 H 0.5762 0.6410 0.8689
C27 C 0.7683(5) -0.10066(19) 0.7951(3)
H20 H 0.8413 -0.0925 0.8244
H21 H 0.7737 -0.1131 0.7419
H22 H 0.7353 -0.1282 0.8232
C28 C -0.0480(7) 0.0788(3) 0.8910(6)
H23 H -0.1259 0.0850 0.8691
H24 H -0.0411 0.0794 0.9494
C29 C -0.0252(7) 0.0265(4) 0.8706(6)
H25 H -0.0296 0.0240 0.8131
H26 H -0.0785 0.0025 0.8871
H27 H 0.0481 0.0168 0.8974
S2 S 0.30616(11) -0.17330(5) 0.58890(9)
O4 O 0.3051(2) 0.42643(11) 0.64194(17)
N2 N 0.5499(3) 0.23763(13) 0.6330(2)
O5 O 1.0122(3) 0.24651(12) 0.70414(19)
C30 C 0.4967(4) 0.18839(15) 0.6223(2)
C31 C 0.3788(4) -0.11430(15) 0.5956(2)
C32 C 0.3682(3) 0.38038(15) 0.6455(3)
C33 C 0.3184(4) -0.06376(16) 0.5928(2)
O6 O 0.2172(3) -0.06353(11) 0.58992(18)
C34 C 0.8990(4) 0.24777(16) 0.6842(3)
C35 C 0.3376(4) 0.03440(16) 0.5975(2)
H28 H 0.2613 0.0348 0.5963
C36 C 0.3916(4) 0.08646(16) 0.6032(2)
C37 C 0.3831(4) -0.01365(16) 0.5939(2)
H29 H 0.4585 -0.0159 0.5920
C38 C 0.4880(3) 0.28647(15) 0.6377(3)
C39 C 0.8429(4) 0.22000(17) 0.7352(3)
H30 H 0.8823 0.2031 0.7809
C40 C 0.5035(4) 0.09246(15) 0.5979(2)
H31 H 0.5443 0.0624 0.5880
C41 C 0.5548(3) 0.14195(16) 0.6072(2)
H32 H 0.6295 0.1446 0.6033
C42 C 0.6688(4) 0.24130(15) 0.6506(3)
C43 C 0.7259(4) 0.26890(16) 0.6002(3)
H33 H 0.6866 0.2855 0.5542
C44 C 0.3345(4) 0.13341(17) 0.6157(3)
H34 H 0.2591 0.1310 0.6174
C45 C 0.4258(4) 0.35709(17) 0.7145(3)
H35 H 0.4250 0.3729 0.7646
C46 C 0.8404(4) 0.27254(16) 0.6165(3)
H36 H 0.8777 0.2916 0.5820
C47 C 0.4895(4) -0.12450(16) 0.6054(3)
H37 H 0.5433 -0.0977 0.6101
C48 C 0.7286(4) 0.21705(17) 0.7190(3)
H38 H 0.6913 0.1986 0.7542
C49 C 0.4846(4) 0.31036(17) 0.7096(3)
H39 H 0.5230 0.2948 0.7568
C50 C 0.3843(4) 0.18281(16) 0.6255(3)
H40 H 0.3429 0.2129 0.6343
C51 C 0.3707(4) 0.35629(18) 0.5719(3)
H41 H 0.3314 0.3715 0.5248
C52 C 0.4310(4) 0.30999(18) 0.5680(3)
H42 H 0.4334 0.2944 0.5180
C53 C 0.2949(4) 0.45257(19) 0.7158(3)
H43 H 0.3670 0.4652 0.7431
H44 H 0.2658 0.4277 0.7513
C54 C 0.4238(4) -0.21036(18) 0.6002(3)
H45 H 0.4251 -0.2478 0.6010
C55 C 0.5141(4) -0.17969(19) 0.6076(3)
H46 H 0.5859 -0.1934 0.6137
C56 C 0.2174(5) 0.4990(2) 0.6953(3)
H47 H 0.2434 0.5215 0.6562
H48 H 0.2146 0.5195 0.7433
H49 H 0.1445 0.4859 0.6733
C57 C 1.0808(6) 0.2768(3) 0.6580(4)
H50 H 1.1565 0.2636 0.6708
H51 H 1.0541 0.2708 0.6008
C58 C 1.0808(8) 0.3325(3) 0.6734(5)
H52 H 1.0095 0.3473 0.6506
H53 H 1.1373 0.3496 0.6494
H54 H 1.0955 0.3386 0.7308
loop_
_geom_bond_atom_site_label_1
_geom_bond_atom_site_label_2
_geom_bond_site_symmetry_1
_geom_bond_site_symmetry_2
S1 C2 1_555 1_555
N1 C1 1_555 1_555
O1 C4 1_555 1_555
O2 C6 1_555 1_555
C1 C9 1_555 1_555
C2 C4 1_555 1_555
C3 N1 1_555 1_555
C4 C13 1_555 1_555
C5 H1 1_555 1_555
C6 C16 1_555 1_555
C7 N1 1_555 1_555
C8 C5 1_555 1_555
C9 H2 1_555 1_555
C10 C8 1_555 1_555
H3 C10 1_555 1_555
C11 C1 1_555 1_555
H4 C11 1_555 1_555
C12 C8 1_555 1_555
H5 C12 1_555 1_555
C13 C5 1_555 1_555
H6 C13 1_555 1_555
C14 C3 1_555 1_555
H7 C14 1_555 1_555
C15 C7 1_555 1_555
H8 C15 1_555 1_555
C16 C14 1_555 1_555
H9 C16 1_555 1_555
C17 C6 1_555 1_555
H10 C17 1_555 1_555
C18 C7 1_555 1_555
H11 C18 1_555 1_555
C19 C3 1_555 1_555
H12 C19 1_555 1_555
C20 C2 1_555 1_555
H13 C20 1_555 1_555
O3 C21 1_555 1_555
C21 C23 1_555 1_555
C22 O2 1_555 1_555
H14 C22 1_555 1_555
H15 C22 1_555 1_555
C23 C15 1_555 1_555
H16 C23 1_555 1_555
C24 C18 1_555 1_555
H17 C24 1_555 1_555
C25 C20 1_555 1_555
H18 C25 1_555 1_555
C26 S1 1_555 1_555
H19 C26 1_555 1_555
C27 C22 1_555 1_555
H20 C27 1_555 1_555
H21 C27 1_555 1_555
H22 C27 1_555 1_555
C28 O3 1_555 1_555
H23 C28 1_555 1_555
H24 C28 1_555 1_555
C29 C28 1_555 1_555
H25 C29 1_555 1_555
H26 C29 1_555 1_555
H27 C29 1_555 1_555
S2 C31 1_555 1_555
O4 C32 1_555 1_555
N2 C30 1_555 1_555
O5 C34 1_555 1_555
C30 C41 1_555 1_555
C31 C33 1_555 1_555
C32 C45 1_555 1_555
C33 O6 1_555 1_555
C34 C39 1_555 1_555
C35 H28 1_555 1_555
C36 C35 1_555 1_555
C37 C33 1_555 1_555
H29 C37 1_555 1_555
C38 N2 1_555 1_555
C39 H30 1_555 1_555
C40 C36 1_555 1_555
H31 C40 1_555 1_555
C41 C40 1_555 1_555
H32 C41 1_555 1_555
C42 N2 1_555 1_555
C43 C42 1_555 1_555
H33 C43 1_555 1_555
C44 C36 1_555 1_555
H34 C44 1_555 1_555
C45 H35 1_555 1_555
C46 C34 1_555 1_555
H36 C46 1_555 1_555
C47 C31 1_555 1_555
H37 C47 1_555 1_555
C48 C39 1_555 1_555
H38 C48 1_555 1_555
C49 C38 1_555 1_555
H39 C49 1_555 1_555
C50 C30 1_555 1_555
H40 C50 1_555 1_555
C51 C32 1_555 1_555
H41 C51 1_555 1_555
C52 C38 1_555 1_555
H42 C52 1_555 1_555
C53 O4 1_555 1_555
H43 C53 1_555 1_555
H44 C53 1_555 1_555
C54 S2 1_555 1_555
H45 C54 1_555 1_555
C55 C47 1_555 1_555
H46 C55 1_555 1_555
C56 C53 1_555 1_555
H47 C56 1_555 1_555
H48 C56 1_555 1_555
H49 C56 1_555 1_555
C57 O5 1_555 1_555
H50 C57 1_555 1_555
H51 C57 1_555 1_555
C58 C57 1_555 1_555
H52 C58 1_555 1_555
H53 C58 1_555 1_555
H54 C58 1_555 1_555
C9 C10 1_555 1_555
C11 C12 1_555 1_555
C17 C19 1_555 1_555
C21 C24 1_555 1_555
C25 C26 1_555 1_555
C35 C37 1_555 1_555
C42 C48 1_555 1_555
C43 C46 1_555 1_555
C44 C50 1_555 1_555
C45 C49 1_555 1_555
C51 C52 1_555 1_555
C54 C55 1_555 1_555

#END
