
#######################################################################
#
#                 Cambridge Crystallographic Data Centre
#                                CCDC 
#
#######################################################################
#
# If this CIF has been generated from an entry in the Cambridge 
# Structural Database, then it will include bibliographic, chemical, 
# crystal, experimental, refinement or atomic coordinate data resulting 
# from the CCDC's data processing and validation procedures.
#
#######################################################################

data_TUDLIO
_chemical_name_common            
'5-(3-Thienyl)-fused-10,15,20,25,30-pentakis(pentafluorophenyl)[28]hexaphyrin bis(2-methoxyethyl) ether solvate'
_chemical_formula_moiety         'C64 H17 F25 N6 S1,2(C6 H14 O3)'
_chemical_name_systematic        
'13,18,23,28,33-pentakis(Pentafluorophenyl)-6-thia-8,37,38,39,40,41-hexaazanonacyclo[32.2.1.1^14,17^.1^19,22^.1^24,27^.1^29,32^.0^2,9^.0^3,7^.0^8,12^]hentetraconta-1,3(7),4,9,11,13,15,17,19(40),20,22,24,26,28,30,32(38),33,35-octadecaene bis(2-methoxyethyl) ether solvate'
_symmetry_cell_setting           triclinic
_symmetry_space_group_name_H-M   'P -1'
_symmetry_Int_Tables_number      2
_space_group_name_Hall           '-P 1'
loop_
_symmetry_equiv_pos_site_id
_symmetry_equiv_pos_as_xyz
1 x,y,z
2 -x,-y,-z
_cell_length_a                   12.377(5)
_cell_length_b                   16.277(5)
_cell_length_c                   21.105(9)
_cell_angle_alpha                108.549(11)
_cell_angle_beta                 91.396(13)
_cell_angle_gamma                102.304(10)
_cell_volume                     3918.82
_exptl_crystal_colour            blue
_exptl_crystal_description       prism
_cell_formula_units_Z            2
_exptl_crystal_recrystallization_method acetonitrile/water
loop_
_atom_site_label
_atom_site_type_symbol
_atom_site_fract_x
_atom_site_fract_y
_atom_site_fract_z
C1 C 0.4460(4) 1.1398(3) 0.1290(2)
C2 C 0.4977(4) 1.1961(3) 0.1906(2)
C3 C 0.5891(4) 1.2737(3) 0.2083(3)
H1 H 0.6276 1.2975 0.1773
C4 C 0.6116(4) 1.3072(3) 0.2761(3)
H2 H 0.6686 1.3576 0.3004
C5 C 0.5351(4) 1.2538(3) 0.3044(3)
C6 C 0.5154(4) 1.2622(3) 0.3704(2)
C7 C 0.4282(4) 1.2069(3) 0.3887(2)
C8 C 0.3849(4) 1.2275(3) 0.4547(2)
H3 H 0.4162 1.2763 0.4940
C9 C 0.2925(4) 1.1639(3) 0.4486(2)
H4 H 0.2442 1.1601 0.4824
C10 C 0.2801(4) 1.1011(3) 0.3798(2)
C11 C 0.1986(4) 1.0241(3) 0.3534(2)
C12 C 0.2062(4) 0.9506(3) 0.2964(2)
C13 C 0.1206(4) 0.8930(3) 0.2480(2)
H5 H 0.0453 0.8971 0.2462
C14 C 0.1646(4) 0.8293(3) 0.2035(2)
H6 H 0.1257 0.7830 0.1648
C15 C 0.2770(4) 0.8451(3) 0.2257(2)
C16 C 0.3514(4) 0.7864(3) 0.2062(2)
C17 C 0.3309(4) 0.7176(3) 0.1449(2)
C18 C 0.3671(4) 0.6339(3) 0.1300(3)
H7 H 0.4172 0.6198 0.1576
C19 C 0.3150(4) 0.5811(3) 0.0694(3)
H8 H 0.3189 0.5213 0.0468
C20 C 0.2512(4) 0.6328(3) 0.0450(2)
C21 C 0.1888(4) 0.6072(3) -0.0171(2)
C22 C 0.1498(4) 0.6691(3) -0.0408(2)
C23 C 0.0844(4) 0.6568(3) -0.1011(2)
H9 H 0.0481 0.6012 -0.1333
C24 C 0.0832(4) 0.7382(3) -0.1044(2)
H10 H 0.0465 0.7497 -0.1397
C25 C 0.1471(4) 0.8049(3) -0.0454(2)
C26 C 0.1849(4) 0.8973(3) -0.0296(2)
C27 C 0.2372(4) 0.9504(3) 0.0344(3)
C28 C 0.2176(4) 0.9414(3) 0.0977(2)
H11 H 0.1649 0.8943 0.1049
C29 C 0.2865(4) 1.0113(3) 0.1480(2)
H12 H 0.2883 1.0211 0.1949
C30 C 0.3529(4) 1.0648(3) 0.1164(3)
C31 C 0.3959(4) 1.0740(3) 0.0160(2)
C32 C 0.4695(4) 1.1426(3) 0.0621(3)
C33 C 0.5484(4) 1.1899(3) 0.0301(3)
H13 H 0.6065 1.2400 0.0537
C34 C 0.5308(4) 1.1554(3) -0.0370(3)
H14 H 0.5758 1.1785 -0.0661
C35 C 0.5867(4) 1.3390(3) 0.4254(3)
C36 C 0.5844(5) 1.4263(3) 0.4358(3)
C37 C 0.6412(6) 1.4953(3) 0.4902(4)
C38 C 0.7069(6) 1.4779(4) 0.5371(4)
C39 C 0.7115(6) 1.3940(4) 0.5279(4)
C40 C 0.6544(5) 1.3260(3) 0.4731(3)
C41 C 0.0914(4) 1.0126(3) 0.3834(2)
C42 C 0.0274(4) 1.0759(3) 0.3982(2)
C43 C -0.0731(4) 1.0631(3) 0.4233(3)
C44 C -0.1159(4) 0.9849(3) 0.4344(3)
C45 C -0.0572(4) 0.9203(3) 0.4212(2)
C46 C 0.0450(4) 0.9350(3) 0.3964(2)
C47 C 0.4375(4) 0.7872(3) 0.2561(2)
C48 C 0.5489(4) 0.7988(3) 0.2457(3)
C49 C 0.6285(4) 0.7944(4) 0.2902(3)
C50 C 0.5968(5) 0.7747(3) 0.3464(3)
C51 C 0.4887(5) 0.7652(4) 0.3591(3)
C52 C 0.4107(4) 0.7712(3) 0.3149(3)
C53 C 0.1659(4) 0.5131(3) -0.0619(2)
C54 C 0.1987(4) 0.4883(3) -0.1263(2)
C55 C 0.1771(5) 0.4007(3) -0.1675(2)
C56 C 0.1278(4) 0.3352(3) -0.1439(3)
C57 C 0.0946(4) 0.3565(3) -0.0799(3)
C58 C 0.1143(4) 0.4439(3) -0.0403(2)
C59 C 0.1699(4) 0.9362(3) -0.0829(2)
C60 C 0.1963(4) 0.9027(3) -0.1471(3)
C61 C 0.1770(5) 0.9359(3) -0.1975(3)
C62 C 0.1360(5) 1.0098(3) -0.1826(3)
C63 C 0.1096(4) 1.0474(3) -0.1203(3)
C64 C 0.1260(4) 1.0117(3) -0.0704(3)
S1 S 0.41805(10) 1.06437(8) -0.06569(7)
N1 N 0.3214(3) 1.0278(2) 0.0483(2)
N2 N 0.4680(3) 1.1879(2) 0.2510(2)
H15 H 0.4134 1.1460 0.2552
N3 N 0.3650(3) 1.1293(2) 0.3454(2)
N4 N 0.3017(3) 0.9214(2) 0.28128(19)
H16 H 0.3678 0.9472 0.3034
N5 N 0.2632(3) 0.7153(2) 0.09224(19)
N6 N 0.1817(3) 0.7588(2) -0.00658(19)
H17 H 0.2183 0.7833 0.0337
F1 F 0.5183(3) 1.44495(18) 0.39283(19)
F2 F 0.6355(4) 1.58018(19) 0.4981(2)
F3 F 0.7602(4) 1.5468(2) 0.5910(2)
F4 F 0.7736(4) 1.3766(3) 0.5741(2)
F5 F 0.6634(3) 1.24236(18) 0.46624(17)
F6 F 0.0644(2) 1.15325(16) 0.38661(15)
F7 F -0.1314(2) 1.12729(18) 0.43613(17)
F8 F -0.2151(2) 0.97167(19) 0.45905(16)
F9 F -0.0955(2) 0.84419(17) 0.43414(16)
F10 F 0.1023(2) 0.87046(15) 0.38819(15)
F11 F 0.5808(3) 0.8163(3) 0.1900(2)
F12 F 0.7353(3) 0.8076(3) 0.2787(2)
F13 F 0.6747(3) 0.7676(2) 0.38944(18)
F14 F 0.4591(3) 0.7472(4) 0.4150(2)
F15 F 0.3053(3) 0.7597(3) 0.32942(17)
F16 F 0.2518(3) 0.55064(16) -0.15123(15)
F17 F 0.2082(3) 0.37980(18) -0.23009(16)
F18 F 0.1067(3) 0.24928(15) -0.18302(15)
F19 F 0.0430(2) 0.29174(15) -0.05668(15)
F20 F 0.0820(2) 0.46235(15) 0.02225(13)
F21 F 0.2458(3) 0.83285(18) -0.16427(15)
F22 F 0.2022(4) 0.8978(2) -0.26070(18)
F23 F 0.1183(3) 1.0442(2) -0.23170(18)
F24 F 0.0662(3) 1.11965(18) -0.10556(18)
F25 F 0.1006(2) 1.05157(16) -0.00852(16)
C65 C 0.8977(6) 0.3915(4) 0.7932(4)
H18 H 0.9208 0.3363 0.7704
H19 H 0.8218 0.3866 0.7756
H20 H 0.9002 0.4013 0.8416
C66 C 0.9803(7) 0.4520(4) 0.7135(3)
H21 H 0.9054 0.4367 0.6893
H22 H 1.0163 0.4020 0.6939
C67 C 1.0477(7) 0.5351(4) 0.7053(4)
H23 H 1.1158 0.5580 0.7372
H24 H 1.0702 0.5222 0.6591
C68 C 1.0389(7) 0.6772(4) 0.7051(4)
H25 H 1.0636 0.6613 0.6594
H26 H 1.1051 0.7084 0.7379
C69 C 0.9599(8) 0.7359(5) 0.7111(4)
H27 H 0.9885 0.7820 0.6904
H28 H 0.8872 0.7001 0.6865
C70 C 0.8640(7) 0.8288(5) 0.7864(5)
H29 H 0.7922 0.7901 0.7640
H30 H 0.8864 0.8755 0.7661
H31 H 0.8572 0.8562 0.8342
O1 O 0.9709(3) 0.4644(2) 0.7817(2)
O2 O 0.9833(4) 0.5995(3) 0.7179(2)
O3 O 0.9459(4) 0.7772(3) 0.7787(2)
C71 C 0.4809(10) 0.4851(8) 0.7788(10)
H32 H 0.4405 0.5089 0.7509
H33 H 0.5078 0.5313 0.8223
H34 H 0.4310 0.4338 0.7856
C72 C 0.6539(15) 0.5324(11) 0.7396(6)
H35 H 0.6189 0.5783 0.7320
H36 H 0.6896 0.5069 0.6987
C73 C 0.7420(9) 0.5767(9) 0.7976(7)
H37 H 0.7726 0.5314 0.8095
H38 H 0.8034 0.6175 0.7858
C74 C 0.7752(6) 0.6785(6) 0.9082(6)
H39 H 0.8266 0.6429 0.9160
H40 H 0.8193 0.7304 0.8981
C75 C 0.7199(8) 0.7088(5) 0.9673(6)
H41 H 0.7713 0.7594 1.0015
H42 H 0.6549 0.7298 0.9560
C76 C 0.6227(9) 0.6633(7) 1.0498(5)
H43 H 0.5589 0.6841 1.0379
H44 H 0.6701 0.7106 1.0873
H45 H 0.5964 0.6106 1.0631
O4 O 0.5649(8) 0.4601(5) 0.7488(3)
O5 O 0.6927(4) 0.6237(4) 0.8510(3)
O6 O 0.6859(4) 0.6408(3) 0.9924(2)
loop_
_geom_bond_atom_site_label_1
_geom_bond_atom_site_label_2
_geom_bond_site_symmetry_1
_geom_bond_site_symmetry_2
C1 C2 1_555 1_555
C2 C3 1_555 1_555
C3 H1 1_555 1_555
C4 C3 1_555 1_555
H2 C4 1_555 1_555
C5 C4 1_555 1_555
C6 C5 1_555 1_555
C7 C6 1_555 1_555
C8 C7 1_555 1_555
H3 C8 1_555 1_555
C9 C8 1_555 1_555
H4 C9 1_555 1_555
C10 C9 1_555 1_555
C11 C10 1_555 1_555
C12 C11 1_555 1_555
C13 C12 1_555 1_555
H5 C13 1_555 1_555
C14 C13 1_555 1_555
H6 C14 1_555 1_555
C15 C14 1_555 1_555
C16 C15 1_555 1_555
C17 C16 1_555 1_555
C18 C17 1_555 1_555
H7 C18 1_555 1_555
C19 C18 1_555 1_555
H8 C19 1_555 1_555
C20 C19 1_555 1_555
C21 C20 1_555 1_555
C22 C21 1_555 1_555
C23 C22 1_555 1_555
H9 C23 1_555 1_555
C24 C23 1_555 1_555
H10 C24 1_555 1_555
C25 C24 1_555 1_555
C26 C25 1_555 1_555
C27 C26 1_555 1_555
C28 C27 1_555 1_555
H11 C28 1_555 1_555
C29 C28 1_555 1_555
H12 C29 1_555 1_555
C30 C1 1_555 1_555
C31 C32 1_555 1_555
C32 C1 1_555 1_555
C33 C32 1_555 1_555
H13 C33 1_555 1_555
C34 C33 1_555 1_555
H14 C34 1_555 1_555
C35 C6 1_555 1_555
C36 C35 1_555 1_555
C37 C36 1_555 1_555
C38 C37 1_555 1_555
C39 C38 1_555 1_555
C40 C35 1_555 1_555
C41 C11 1_555 1_555
C42 C41 1_555 1_555
C43 C42 1_555 1_555
C44 C43 1_555 1_555
C45 C44 1_555 1_555
C46 C41 1_555 1_555
C47 C16 1_555 1_555
C48 C47 1_555 1_555
C49 C48 1_555 1_555
C50 C49 1_555 1_555
C51 C50 1_555 1_555
C52 C47 1_555 1_555
C53 C21 1_555 1_555
C54 C53 1_555 1_555
C55 C54 1_555 1_555
C56 C55 1_555 1_555
C57 C56 1_555 1_555
C58 C53 1_555 1_555
C59 C26 1_555 1_555
C60 C59 1_555 1_555
C61 C60 1_555 1_555
C62 C61 1_555 1_555
C63 C62 1_555 1_555
C64 C59 1_555 1_555
S1 C31 1_555 1_555
N1 C27 1_555 1_555
N2 C2 1_555 1_555
H15 N2 1_555 1_555
N3 C7 1_555 1_555
N4 C12 1_555 1_555
H16 N4 1_555 1_555
N5 C17 1_555 1_555
N6 C22 1_555 1_555
H17 N6 1_555 1_555
F1 C36 1_555 1_555
F2 C37 1_555 1_555
F3 C38 1_555 1_555
F4 C39 1_555 1_555
F5 C40 1_555 1_555
F6 C42 1_555 1_555
F7 C43 1_555 1_555
F8 C44 1_555 1_555
F9 C45 1_555 1_555
F10 C46 1_555 1_555
F11 C48 1_555 1_555
F12 C49 1_555 1_555
F13 C50 1_555 1_555
F14 C51 1_555 1_555
F15 C52 1_555 1_555
F16 C54 1_555 1_555
F17 C55 1_555 1_555
F18 C56 1_555 1_555
F19 C57 1_555 1_555
F20 C58 1_555 1_555
F21 C60 1_555 1_555
F22 C61 1_555 1_555
F23 C62 1_555 1_555
F24 C63 1_555 1_555
F25 C64 1_555 1_555
C65 H18 1_555 1_555
H19 C65 1_555 1_555
H20 C65 1_555 1_555
C66 H21 1_555 1_555
H22 C66 1_555 1_555
C67 C66 1_555 1_555
H23 C67 1_555 1_555
H24 C67 1_555 1_555
C68 H25 1_555 1_555
H26 C68 1_555 1_555
C69 C68 1_555 1_555
H27 C69 1_555 1_555
H28 C69 1_555 1_555
C70 H29 1_555 1_555
H30 C70 1_555 1_555
H31 C70 1_555 1_555
C71 H32 1_555 1_555
H33 C71 1_555 1_555
H34 C71 1_555 1_555
C72 H35 1_555 1_555
H36 C72 1_555 1_555
C73 C72 1_555 1_555
H37 C73 1_555 1_555
H38 C73 1_555 1_555
C74 H39 1_555 1_555
H40 C74 1_555 1_555
C75 C74 1_555 1_555
H41 C75 1_555 1_555
H42 C75 1_555 1_555
C76 H43 1_555 1_555
H44 C76 1_555 1_555
H45 C76 1_555 1_555
O1 C65 1_555 1_555
O2 C67 1_555 1_555
O3 C69 1_555 1_555
O4 C71 1_555 1_555
O5 C73 1_555 1_555
O6 C75 1_555 1_555
C5 N2 1_555 1_555
C10 N3 1_555 1_555
C15 N4 1_555 1_555
C20 N5 1_555 1_555
C25 N6 1_555 1_555
C29 C30 1_555 1_555
C30 N1 1_555 1_555
C31 N1 1_555 1_555
C34 S1 1_555 1_555
C39 C40 1_555 1_555
C45 C46 1_555 1_555
C51 C52 1_555 1_555
C57 C58 1_555 1_555
C63 C64 1_555 1_555
C66 O1 1_555 1_555
C68 O2 1_555 1_555
C70 O3 1_555 1_555
C72 O4 1_555 1_555
C74 O5 1_555 1_555
C76 O6 1_555 1_555

#END
