
#######################################################################
#
#                 Cambridge Crystallographic Data Centre
#                                CCDC 
#
#######################################################################
#
# If this CIF has been generated from an entry in the Cambridge 
# Structural Database, then it will include bibliographic, chemical, 
# crystal, experimental, refinement or atomic coordinate data resulting 
# from the CCDC's data processing and validation procedures.
#
#######################################################################

data_TUDPAK
_chemical_formula_moiety         'C18 H15 Cl2 N1 O3'
_chemical_name_systematic        
(3S,4R,5S)-3-(2,6-Dichlorophenyl)-4-nitro-5-phenylcyclohexanone
_symmetry_cell_setting           orthorhombic
_symmetry_space_group_name_H-M   'P 21 21 21'
_symmetry_Int_Tables_number      19
_space_group_name_Hall           'P 2ac 2ab'
loop_
_symmetry_equiv_pos_site_id
_symmetry_equiv_pos_as_xyz
1 x,y,z
2 1/2-x,-y,1/2+z
3 -x,1/2+y,1/2-z
4 1/2+x,1/2-y,-z
_cell_length_a                   7.3416(5)
_cell_length_b                   7.9257(6)
_cell_length_c                   29.247(2)
_cell_angle_alpha                90
_cell_angle_beta                 90
_cell_angle_gamma                90
_cell_volume                     1701.8
_exptl_crystal_colour            colorless
_exptl_crystal_description       rod
_cell_formula_units_Z            4
_exptl_crystal_recrystallization_method 'acetone/diethyl ether/hexane'
loop_
_atom_site_label
_atom_site_type_symbol
_atom_site_fract_x
_atom_site_fract_y
_atom_site_fract_z
Cl1 Cl 0.77995(7) -0.23856(6) 0.835865(15)
Cl2 Cl 0.64861(7) 0.39826(6) 0.773996(17)
C1 C 0.7118(3) 0.1919(2) 0.93168(6)
C2 C 0.7855(2) 0.1418(2) 0.88556(5)
H1 H 0.8472 0.0341 0.8882
H2 H 0.8742 0.2249 0.8757
C3 C 0.63380(19) 0.12794(19) 0.84932(5)
H3 H 0.5850 0.2422 0.8455
C4 C 0.47151(19) 0.01716(19) 0.86480(5)
H4 H 0.4706 -0.0856 0.8462
C5 C 0.4789(2) -0.0348(2) 0.91568(5)
H5 H 0.5776 -0.1177 0.9180
C6 C 0.5354(3) 0.1125(3) 0.94636(5)
H6 H 0.4402 0.1973 0.9459
H7 H 0.5476 0.0723 0.9775
C7 C 0.70703(19) 0.07641(18) 0.80278(5)
C8 C 0.7715(2) -0.08591(19) 0.79316(5)
C9 C 0.8337(2) -0.1335(2) 0.75016(6)
H8 H 0.8732 -0.2432 0.7449
C10 C 0.8361(2) -0.0163(3) 0.71547(5)
H9 H 0.8774 -0.0469 0.6866
C11 C 0.7779(2) 0.1450(2) 0.72332(6)
H10 H 0.7807 0.2245 0.6999
C12 C 0.7148(2) 0.18937(19) 0.76630(5)
C13 C 0.3066(2) -0.1280(2) 0.92964(5)
C14 C 0.1716(2) -0.0546(2) 0.95595(5)
H11 H 0.1847 0.0561 0.9660
C15 C 0.0164(3) -0.1459(3) 0.96746(6)
H12 H -0.0726 -0.0961 0.9856
C16 C -0.0074(3) -0.3087(3) 0.95234(7)
H13 H -0.1124 -0.3682 0.9599
C17 C 0.1249(3) -0.3823(3) 0.92609(7)
H14 H 0.1097 -0.4923 0.9157
C18 C 0.2812(3) -0.2939(2) 0.91491(6)
H15 H 0.3707 -0.3457 0.8973
O1 O 0.7930(3) 0.2888(2) 0.95582(5)
O2 O 0.2783(2) 0.25110(17) 0.87299(5)
O3 O 0.17928(18) 0.0438(2) 0.83352(5)
N1 N 0.29561(18) 0.11205(18) 0.85616(4)
loop_
_geom_bond_atom_site_label_1
_geom_bond_atom_site_label_2
_geom_bond_site_symmetry_1
_geom_bond_site_symmetry_2
Cl1 C8 1_555 1_555
Cl2 C12 1_555 1_555
C1 C2 1_555 1_555
C2 H1 1_555 1_555
H2 C2 1_555 1_555
C3 C2 1_555 1_555
H3 C3 1_555 1_555
C4 C3 1_555 1_555
H4 C4 1_555 1_555
C5 C4 1_555 1_555
H5 C5 1_555 1_555
C6 C1 1_555 1_555
H6 C6 1_555 1_555
H7 C6 1_555 1_555
C7 C3 1_555 1_555
C8 C7 1_555 1_555
C9 C8 1_555 1_555
H8 C9 1_555 1_555
C10 C9 1_555 1_555
H9 C10 1_555 1_555
C11 C10 1_555 1_555
H10 C11 1_555 1_555
C12 C7 1_555 1_555
C13 C5 1_555 1_555
C14 C13 1_555 1_555
H11 C14 1_555 1_555
C15 C14 1_555 1_555
H12 C15 1_555 1_555
C16 C15 1_555 1_555
H13 C16 1_555 1_555
C17 C16 1_555 1_555
H14 C17 1_555 1_555
C18 C13 1_555 1_555
H15 C18 1_555 1_555
O1 C1 1_555 1_555
O2 N1 1_555 1_555
O3 N1 1_555 1_555
N1 C4 1_555 1_555
C5 C6 1_555 1_555
C11 C12 1_555 1_555
C17 C18 1_555 1_555

#END
