
#######################################################################
#
#                 Cambridge Crystallographic Data Centre
#                                CCDC 
#
#######################################################################
#
# If this CIF has been generated from an entry in the Cambridge 
# Structural Database, then it will include bibliographic, chemical, 
# crystal, experimental, refinement or atomic coordinate data resulting 
# from the CCDC's data processing and validation procedures.
#
#######################################################################

data_TUDPOY
_chemical_formula_moiety         'C26 H25 N1 O4'
_chemical_name_systematic        
"(1S*,2R*,5S*,6R*)-Ethyl 5-allyl-3-formyl-2'-oxo-2-phenylspiro[cyclohex-3-ene-1,3'-indoline]-6-carboxylate"
_symmetry_cell_setting           monoclinic
_symmetry_space_group_name_H-M   'P 21'
_symmetry_Int_Tables_number      4
_space_group_name_Hall           'P 2yb'
loop_
_symmetry_equiv_pos_site_id
_symmetry_equiv_pos_as_xyz
1 x,y,z
2 -x,1/2+y,-z
_cell_length_a                   9.1003(11)
_cell_length_b                   9.3928(12)
_cell_length_c                   13.8607(17)
_cell_angle_alpha                90
_cell_angle_beta                 106.044(1)
_cell_angle_gamma                90
_cell_volume                     1138.63
_exptl_crystal_colour            colorless
_exptl_crystal_description       plate
_cell_formula_units_Z            2
_exptl_crystal_recrystallization_method dichloromethane/hexane
loop_
_atom_site_label
_atom_site_type_symbol
_atom_site_fract_x
_atom_site_fract_y
_atom_site_fract_z
C1 C 0.5191(2) 0.4479(2) 0.35031(13)
C2 C 0.38345(18) 0.40091(18) 0.26037(11)
C3 C 0.25280(18) 0.48700(18) 0.27954(11)
C4 C 0.0976(2) 0.4830(2) 0.23506(13)
H1 H 0.0572 0.4235 0.1805
C5 C 0.0021(3) 0.5689(3) 0.27269(18)
H2 H -0.1031 0.5655 0.2443
C6 C 0.0629(3) 0.6590(4) 0.3519(2)
H3 H -0.0023 0.7181 0.3747
C7 C 0.2174(3) 0.6642(3) 0.39820(17)
H4 H 0.2578 0.7253 0.4518
C8 C 0.3100(2) 0.5746(2) 0.36146(13)
C9 C 0.42716(18) 0.44540(18) 0.16286(12)
H5 H 0.4750 0.5396 0.1749
C10 C 0.5445(2) 0.3434(2) 0.14460(15)
C11 C 0.5672(2) 0.2129(2) 0.18151(18)
H6 H 0.6390 0.1569 0.1627
C12 C 0.34984(19) 0.24056(18) 0.25713(12)
H7 H 0.2656 0.2217 0.1970
C13 C 0.29014(19) 0.45714(19) 0.07067(12)
C14 C 0.2158(3) 0.5870(2) 0.04876(16)
H8 H 0.2502 0.6657 0.0895
C15 C 0.0888(3) 0.5987(3) -0.0351(2)
H9 H 0.0383 0.6854 -0.0497
C16 C 0.0380(3) 0.4832(4) -0.09592(18)
H10 H -0.0458 0.4921 -0.1520
C17 C 0.1102(3) 0.3565(4) -0.07416(16)
H11 H 0.0745 0.2780 -0.1148
C18 C 0.2376(2) 0.3424(2) 0.00869(13)
H12 H 0.2874 0.2552 0.0222
C19 C 0.2968(2) 0.2001(2) 0.34702(14)
O1 O 0.15775(18) 0.1505(2) 0.32396(12)
C20 C 0.0936(4) 0.1171(5) 0.4073(2)
H13 H 0.1433 0.0331 0.4423
H14 H 0.1122 0.1957 0.4546
C21 C -0.0618(5) 0.0931(9) 0.3715(4)
H15 H -0.1030 0.1510 0.3132
H16 H -0.1106 0.1173 0.4225
H17 H -0.0797 -0.0055 0.3540
C22 C 0.6392(3) 0.3957(4) 0.0814(2)
H18 H 0.7071 0.3316 0.0659
O2 O 0.64909(15) 0.4044(2) 0.37080(12)
O3 O 0.3752(2) 0.2150(2) 0.43241(11)
N1 N 0.4662(2) 0.5525(2) 0.39911(11)
H19 H 0.5234 0.6002 0.4483
O4 O 0.6360(3) 0.5137(3) 0.04844(19)
C23 C 0.4866(2) 0.1487(2) 0.25076(18)
H20 H 0.5594 0.1553 0.3175
C24 C 0.4376(11) -0.0061(7) 0.2132(8)
H21 H 0.3772 -0.0454 0.2546
H22 H 0.3716 -0.0001 0.1451
C25 C 0.5626(6) -0.1075(6) 0.2138(7)
H23 H 0.5987 -0.1101 0.1573
C26 C 0.6258(10) -0.1933(11) 0.2876(10)
H24 H 0.5928 -0.1938 0.3453
H25 H 0.7040 -0.2541 0.2824
C27? C 0.4295(15) -0.0069(11) 0.2422(12)
C28? C 0.5570(11) -0.1104(8) 0.2751(9)
C29? C 0.6132(15) -0.1883(13) 0.2174(12)
H26? H 0.3594 -0.0191 0.2830
H27? H 0.3740 -0.0265 0.1730
H28? H 0.6004 -0.1199 0.3438
H29? H 0.5735 -0.1824 0.1481
H30? H 0.6934 -0.2503 0.2451
loop_
_geom_bond_atom_site_label_1
_geom_bond_atom_site_label_2
_geom_bond_site_symmetry_1
_geom_bond_site_symmetry_2
C1 C2 1_555 1_555
C2 C3 1_555 1_555
C3 C4 1_555 1_555
C4 H1 1_555 1_555
C5 C4 1_555 1_555
H2 C5 1_555 1_555
C6 C5 1_555 1_555
H3 C6 1_555 1_555
C7 C6 1_555 1_555
H4 C7 1_555 1_555
C8 C3 1_555 1_555
C9 C2 1_555 1_555
H5 C9 1_555 1_555
C10 C9 1_555 1_555
C11 C10 1_555 1_555
H6 C11 1_555 1_555
C12 C2 1_555 1_555
H7 C12 1_555 1_555
C13 C9 1_555 1_555
C14 C13 1_555 1_555
H8 C14 1_555 1_555
C15 C14 1_555 1_555
H9 C15 1_555 1_555
C16 C15 1_555 1_555
H10 C16 1_555 1_555
C17 C16 1_555 1_555
H11 C17 1_555 1_555
C18 C13 1_555 1_555
H12 C18 1_555 1_555
C19 C12 1_555 1_555
O1 C19 1_555 1_555
C20 O1 1_555 1_555
H13 C20 1_555 1_555
H14 C20 1_555 1_555
C21 C20 1_555 1_555
H15 C21 1_555 1_555
H16 C21 1_555 1_555
H17 C21 1_555 1_555
C22 C10 1_555 1_555
H18 C22 1_555 1_555
O2 C1 1_555 1_555
O3 C19 1_555 1_555
N1 C1 1_555 1_555
H19 N1 1_555 1_555
O4 C22 1_555 1_555
C23 C11 1_555 1_555
H20 C23 1_555 1_555
C24 C23 1_555 1_555
H21 C24 1_555 1_555
H22 C24 1_555 1_555
C25 C24 1_555 1_555
H23 C25 1_555 1_555
C26 C25 1_555 1_555
H24 C26 1_555 1_555
H25 C26 1_555 1_555
C7 C8 1_555 1_555
C8 N1 1_555 1_555
C12 C23 1_555 1_555
C17 C18 1_555 1_555

#END
