
#######################################################################
#
#                 Cambridge Crystallographic Data Centre
#                                CCDC 
#
#######################################################################
#
# If this CIF has been generated from an entry in the Cambridge 
# Structural Database, then it will include bibliographic, chemical, 
# crystal, experimental, refinement or atomic coordinate data resulting 
# from the CCDC's data processing and validation procedures.
#
#######################################################################

data_TUFBUR
_chemical_formula_moiety         'C46 H52 B1 N2 O1 P1'
_chemical_name_systematic        
1-(Benzoyl(phenyl)methyleneamino)-4,5,5-tributyl-2,2,3-triphenyl-2-phospha-1-azonia-5-boratacyclopenta-1,3-diene
_symmetry_cell_setting           monoclinic
_symmetry_space_group_name_H-M   'P 21/n'
_symmetry_Int_Tables_number      14
_space_group_name_Hall           '-P 2yn'
loop_
_symmetry_equiv_pos_site_id
_symmetry_equiv_pos_as_xyz
1 x,y,z
2 1/2-x,1/2+y,1/2-z
3 -x,-y,-z
4 1/2+x,1/2-y,1/2+z
_cell_length_a                   10.562(10)
_cell_length_b                   36.888(13)
_cell_length_c                   10.770(7)
_cell_angle_alpha                90
_cell_angle_beta                 106.04
_cell_angle_gamma                90
_cell_volume                     4032.75
_exptl_crystal_colour            colorless
_chemical_melting_point          418-421K
_cell_formula_units_Z            4
loop_
_atom_site_label
_atom_site_type_symbol
_atom_site_fract_x
_atom_site_fract_y
_atom_site_fract_z
P1 P 0.86131(7) 0.10843(2) 0.39298(6)
O1 O 0.38689(21) 0.17545(6) 0.44466(20)
N1 N 0.80836(21) 0.13416(6) 0.49341(19)
N2 N 0.67976(22) 0.14394(6) 0.43120(20)
B1 B 0.88903(33) 0.12672(9) 0.64568(27)
C1 C 1.00381(28) 0.09077(7) 0.50201(25)
C2 C 1.00179(27) 0.09966(7) 0.62360(25)
C3 C 0.89579(27) 0.13454(8) 0.26592(24)
C4 C 0.91197(35) 0.11813(9) 0.15590(28)
H1 H 0.89848(35) 0.09248(9) 0.14401(28)
C5 C 0.94464(40) 0.13822(11) 0.06286(30)
H2 H 0.95613(40) 0.12674(11) -0.01328(30)
C6 C 0.96285(35) 0.17521(10) 0.07799(30)
H3 H 0.98644(35) 0.18919(10) 0.01255(30)
C7 C 0.94885(33) 0.19171(9) 0.18696(31)
H4 H 0.96028(33) 0.21745(9) 0.19749(31)
C8 C 0.91587(30) 0.17152(8) 0.28163(28)
H5 H 0.90657(30) 0.18296(8) 0.35869(28)
C9 C 0.74626(28) 0.07386(7) 0.31509(24)
C10 C 0.64688(29) 0.08138(8) 0.20314(26)
H6 H 0.64317(29) 0.10497(8) 0.16467(26)
C11 C 0.55644(31) 0.05488(9) 0.14678(29)
H7 H 0.48654(31) 0.06048(9) 0.07094(29)
C12 C 0.56516(32) 0.02087(9) 0.20106(30)
H8 H 0.50348(32) 0.00238(9) 0.16082(30)
C13 C 0.66194(31) 0.01315(8) 0.31269(28)
H9 H 0.66593(31) -0.01038(8) 0.35167(28)
C14 C 0.75195(30) 0.03971(8) 0.37002(26)
H10 H 0.82098(30) 0.03426(8) 0.44672(26)
C15 C 1.11000(29) 0.07365(7) 0.45633(25)
C16 C 1.09608(33) 0.03978(8) 0.39705(30)
H11 H 1.01503(33) 0.02680(8) 0.38659(30)
C17 C 1.19470(36) 0.02527(9) 0.35191(34)
H12 H 1.18055(36) 0.00212(9) 0.30959(34)
C18 C 1.31009(36) 0.04384(10) 0.36609(33)
H13 H 1.37612(36) 0.03222(10) 0.33411(33)
C19 C 1.32549(34) 0.07724(10) 0.42353(33)
H14 H 1.40712(34) 0.09008(10) 0.43608(33)
C20 C 1.22652(32) 0.09205(9) 0.46799(29)
H15 H 1.23779(32) 0.11622(9) 0.50237(29)
C21 C 1.10882(30) 0.08636(8) 0.73813(25)
H16 H 1.12174(30) 0.10286(8) 0.80946(25)
H17 H 1.18906(30) 0.08478(8) 0.71301(25)
C22 C 1.08234(31) 0.04781(8) 0.77750(28)
H18 H 1.07750(31) 0.03069(8) 0.70920(28)
H19 H 0.99806(31) 0.04899(8) 0.79490(28)
C23 C 1.17787(38) 0.03585(9) 0.90403(29)
H20 H 1.17711(38) 0.05189(9) 0.97403(29)
H21 H 1.26291(38) 0.03717(9) 0.88834(29)
C24 C 1.15810(43) -0.00336(11) 0.93785(37)
H22 H 1.22396(43) -0.01106(11) 1.01398(37)
H23 H 1.07292(43) -0.00430(11) 0.95337(37)
H24 H 1.15921(43) -0.01910(11) 0.86718(37)
C25 C 0.79234(28) 0.10887(8) 0.72134(24)
H25 H 0.73896(28) 0.12811(8) 0.73961(24)
H26 H 0.84405(28) 0.09944(8) 0.80264(24)
C26 C 0.69773(30) 0.07953(8) 0.65235(27)
H27 H 0.75016(30) 0.06113(8) 0.62742(27)
H28 H 0.63997(30) 0.08943(8) 0.57479(27)
C27 C 0.61650(33) 0.06131(9) 0.73124(31)
H29 H 0.67452(33) 0.04994(9) 0.80560(31)
H30 H 0.56392(33) 0.04259(9) 0.67988(31)
C28 C 0.53004(37) 0.08691(11) 0.78003(36)
H31 H 0.48179(37) 0.07356(11) 0.82849(36)
H32 H 0.58149(37) 0.10539(11) 0.83381(36)
H33 H 0.46951(37) 0.09795(11) 0.70652(36)
C29 C 0.96345(29) 0.16258(7) 0.72084(25)
H34 H 1.00785(29) 0.15625(7) 0.80854(25)
H35 H 0.89571(29) 0.17972(7) 0.72309(25)
C30 C 1.05806(32) 0.18273(8) 0.66198(28)
H36 H 1.01383(32) 0.19069(8) 0.57608(28)
H37 H 1.12496(32) 0.16569(8) 0.65634(28)
C31 C 1.12824(33) 0.21431(9) 0.74235(34)
H38 H 1.16979(33) 0.20657(9) 0.82916(34)
H39 H 1.06196(33) 0.23186(9) 0.74510(34)
C32 C 1.22333(44) 0.23325(11) 0.68477(48)
H40 H 1.26296(44) 0.25362(11) 0.73652(48)
H41 H 1.29004(44) 0.21573(11) 0.68311(48)
H42 H 1.18133(44) 0.24123(11) 0.59835(48)
C33 C 0.61462(28) 0.16785(7) 0.47372(25)
C34 C 0.65764(28) 0.19475(7) 0.57991(25)
C35 C 0.61619(32) 0.19388(8) 0.69127(28)
H43 H 0.55986(32) 0.17461(8) 0.70374(28)
C36 C 0.65569(37) 0.22093(10) 0.78279(32)
H44 H 0.62852(37) 0.22059(10) 0.86080(32)
C37 C 0.73276(36) 0.24919(10) 0.76181(36)
H45 H 0.76311(36) 0.26732(10) 0.82722(36)
C38 C 0.77033(34) 0.25069(9) 0.65069(35)
H46 H 0.82254(34) 0.27075(9) 0.63652(35)
C39 C 0.73301(31) 0.22358(8) 0.55988(30)
H47 H 0.76001(31) 0.22432(8) 0.48181(30)
C40 C 0.47408(30) 0.16973(8) 0.39317(28)
C41 C 0.44338(31) 0.16362(8) 0.25070(28)
C42 C 0.32405(35) 0.14863(9) 0.18639(32)
H48 H 0.26625(35) 0.14259(9) 0.23818(32)
C43 C 0.29296(43) 0.14351(11) 0.05475(36)
H49 H 0.21066(43) 0.13277(11) 0.00848(36)
C44 C 0.37836(48) 0.15342(11) -0.01338(35)
H50 H 0.35643(48) 0.14932(11) -0.10489(35)
C45 C 0.49660(42) 0.16900(10) 0.04923(34)
H51 H 0.55317(42) 0.17629(10) -0.00237(34)
C46 C 0.52954(35) 0.17425(9) 0.18141(30)
H52 H 0.61214(35) 0.18461(9) 0.22878(30)
loop_
_geom_bond_atom_site_label_1
_geom_bond_atom_site_label_2
_geom_bond_site_symmetry_1
_geom_bond_site_symmetry_2
P1 N1 1_555 1_555
O1 C40 1_555 1_555
N1 N2 1_555 1_555
N2 C33 1_555 1_555
B1 N1 1_555 1_555
C1 P1 1_555 1_555
C2 B1 1_555 1_555
C3 P1 1_555 1_555
C4 C3 1_555 1_555
H1 C4 1_555 1_555
C5 C4 1_555 1_555
H2 C5 1_555 1_555
C6 C5 1_555 1_555
H3 C6 1_555 1_555
C7 C6 1_555 1_555
H4 C7 1_555 1_555
C8 C3 1_555 1_555
H5 C8 1_555 1_555
C9 P1 1_555 1_555
C10 C9 1_555 1_555
H6 C10 1_555 1_555
C11 C10 1_555 1_555
H7 C11 1_555 1_555
C12 C11 1_555 1_555
H8 C12 1_555 1_555
C13 C12 1_555 1_555
H9 C13 1_555 1_555
C14 C9 1_555 1_555
H10 C14 1_555 1_555
C15 C1 1_555 1_555
C16 C15 1_555 1_555
H11 C16 1_555 1_555
C17 C16 1_555 1_555
H12 C17 1_555 1_555
C18 C17 1_555 1_555
H13 C18 1_555 1_555
C19 C18 1_555 1_555
H14 C19 1_555 1_555
C20 C15 1_555 1_555
H15 C20 1_555 1_555
C21 C2 1_555 1_555
H16 C21 1_555 1_555
H17 C21 1_555 1_555
C22 C21 1_555 1_555
H18 C22 1_555 1_555
H19 C22 1_555 1_555
C23 C22 1_555 1_555
H20 C23 1_555 1_555
H21 C23 1_555 1_555
C24 C23 1_555 1_555
H22 C24 1_555 1_555
H23 C24 1_555 1_555
H24 C24 1_555 1_555
C25 B1 1_555 1_555
H25 C25 1_555 1_555
H26 C25 1_555 1_555
C26 C25 1_555 1_555
H27 C26 1_555 1_555
H28 C26 1_555 1_555
C27 C26 1_555 1_555
H29 C27 1_555 1_555
H30 C27 1_555 1_555
C28 C27 1_555 1_555
H31 C28 1_555 1_555
H32 C28 1_555 1_555
H33 C28 1_555 1_555
C29 B1 1_555 1_555
H34 C29 1_555 1_555
H35 C29 1_555 1_555
C30 C29 1_555 1_555
H36 C30 1_555 1_555
H37 C30 1_555 1_555
C31 C30 1_555 1_555
H38 C31 1_555 1_555
H39 C31 1_555 1_555
C32 C31 1_555 1_555
H40 C32 1_555 1_555
H41 C32 1_555 1_555
H42 C32 1_555 1_555
C33 C34 1_555 1_555
C34 C35 1_555 1_555
C35 H43 1_555 1_555
C36 C35 1_555 1_555
H44 C36 1_555 1_555
C37 C36 1_555 1_555
H45 C37 1_555 1_555
C38 C37 1_555 1_555
H46 C38 1_555 1_555
C39 C34 1_555 1_555
H47 C39 1_555 1_555
C40 C33 1_555 1_555
C41 C40 1_555 1_555
C42 C41 1_555 1_555
H48 C42 1_555 1_555
C43 C42 1_555 1_555
H49 C43 1_555 1_555
C44 C43 1_555 1_555
H50 C44 1_555 1_555
C45 C44 1_555 1_555
H51 C45 1_555 1_555
C46 C41 1_555 1_555
H52 C46 1_555 1_555
C1 C2 1_555 1_555
C7 C8 1_555 1_555
C13 C14 1_555 1_555
C19 C20 1_555 1_555
C38 C39 1_555 1_555
C45 C46 1_555 1_555

#END
