
#######################################################################
#
#                 Cambridge Crystallographic Data Centre
#                                CCDC 
#
#######################################################################
#
# If this CIF has been generated from an entry in the Cambridge 
# Structural Database, then it will include bibliographic, chemical, 
# crystal, experimental, refinement or atomic coordinate data resulting 
# from the CCDC's data processing and validation procedures.
#
#######################################################################

data_TUFCAA
_chemical_formula_moiety         'C32 H32 Cl1 N5 O2'
_chemical_name_systematic        
2-(6-chloropyridazin-3-yl)-3',6'-bis(diethylamino)spiro[isoindole-1,9'-xanthen]-3(2H)-one
_symmetry_cell_setting           monoclinic
_symmetry_space_group_name_H-M   'C 2/c'
_symmetry_Int_Tables_number      15
_space_group_name_Hall           '-C 2yn'
loop_
_symmetry_equiv_pos_site_id
_symmetry_equiv_pos_as_xyz
1 x,y,z
2 -x,y,1/2-z
3 1/2+x,1/2+y,z
4 1/2-x,1/2+y,1/2-z
5 -x,-y,-z
6 x,-y,1/2+z
7 1/2-x,1/2-y,-z
8 1/2+x,1/2-y,1/2+z
_cell_length_a                   21.235(4)
_cell_length_b                   10.624(2)
_cell_length_c                   25.986(6)
_cell_angle_alpha                90
_cell_angle_beta                 109.008(3)
_cell_angle_gamma                90
_cell_volume                     5542.8
_exptl_crystal_colour            white
_cell_formula_units_Z            8
loop_
_atom_site_label
_atom_site_type_symbol
_atom_site_fract_x
_atom_site_fract_y
_atom_site_fract_z
Cl1 Cl 0.40180(9) 0.12370(18) 0.23542(7)
N1 N 0.4524(2) 0.6062(4) 0.15617(16)
N2 N 0.4417(2) 0.3918(5) 0.15035(17)
N3 N 0.4304(2) 0.2786(5) 0.16866(19)
N4 N 0.7072(2) 0.3084(5) 0.1383(2)
N5 N 0.2477(2) 0.4202(5) -0.0632(2)
O1 O 0.42806(19) 0.7538(4) 0.21366(16)
O2 O 0.47577(17) 0.3762(4) 0.04559(14)
C1 C 0.4140(3) 0.2741(6) 0.2132(2)
C2 C 0.4064(3) 0.3771(7) 0.2425(3)
H1 H 0.3949 0.3684 0.2739
C3 C 0.4162(3) 0.4911(7) 0.2239(2)
H2 H 0.4102 0.5647 0.2411
C4 C 0.4359(2) 0.4938(6) 0.1772(2)
C5 C 0.4496(2) 0.7262(6) 0.1768(2)
C6 C 0.4759(3) 0.8134(5) 0.1451(2)
C7 C 0.4874(3) 0.9405(6) 0.1523(3)
H3 H 0.4780 0.9834 0.1801
C8 C 0.5134(3) 1.0028(6) 0.1172(3)
H4 H 0.5226 1.0885 0.1217
C9 C 0.5261(3) 0.9378(6) 0.0749(3)
H5 H 0.5437 0.9811 0.0516
C10 C 0.5130(3) 0.8113(6) 0.0669(2)
H6 H 0.5201 0.7691 0.0380
C11 C 0.4888(2) 0.7483(5) 0.1036(2)
C12 C 0.4739(2) 0.6094(6) 0.1054(2)
C13 C 0.5354(2) 0.5317(5) 0.1122(2)
C14 C 0.5973(2) 0.5658(5) 0.1486(2)
H7 H 0.6008 0.6409 0.1678
C15 C 0.6530(2) 0.4935(5) 0.1574(2)
H8 H 0.6933 0.5205 0.1820
C16 C 0.6505(3) 0.3799(6) 0.1300(2)
C17 C 0.5885(3) 0.3456(5) 0.0922(2)
H9 H 0.5850 0.2711 0.0727
C18 C 0.5334(3) 0.4195(5) 0.0837(2)
C19 C 0.4196(2) 0.4512(5) 0.03177(19)
C20 C 0.3650(3) 0.4023(5) -0.0082(2)
H10 H 0.3686 0.3254 -0.0242
C21 C 0.3040(3) 0.4672(5) -0.0252(2)
C22 C 0.3030(3) 0.5853(6) -0.0012(2)
H11 H 0.2643 0.6332 -0.0123
C23 C 0.3580(3) 0.6310(5) 0.0384(2)
H12 H 0.3553 0.7095 0.0534
C24 C 0.4175(2) 0.5647(5) 0.0570(2)
C25 C 0.7055(4) 0.1871(8) 0.1111(4)
H13 H 0.6719 0.1901 0.0754
H14 H 0.7482 0.1726 0.1061
C26 C 0.6909(6) 0.0833(10) 0.1417(5)
H15 H 0.7284 0.0687 0.1738
H16 H 0.6820 0.0088 0.1196
H17 H 0.6526 0.1035 0.1520
C27 C 0.7702(3) 0.3429(7) 0.1789(3)
H18 H 0.7773 0.4323 0.1758
H19 H 0.8058 0.2988 0.1707
C28 C 0.7752(4) 0.3141(8) 0.2372(3)
H20 H 0.7395 0.3554 0.2457
H21 H 0.8171 0.3439 0.2613
H22 H 0.7720 0.2249 0.2417
C29 C 0.2384(4) 0.2664(12) -0.0744(4)
H23 H 0.2682 0.2172 -0.0451
H24 H 0.1928 0.2391 -0.0814
C30 C 0.2556(4) 0.2650(12) -0.1180(5)
H25 H 0.2535 0.1803 -0.1313
H26 H 0.3002 0.2963 -0.1095
H27 H 0.2257 0.3173 -0.1453
C31 C 0.1844(3) 0.4845(6) -0.0754(2)
H28 H 0.1541 0.4507 -0.1091
H29 H 0.1911 0.5729 -0.0815
C32 C 0.1518(3) 0.4742(8) -0.0318(3)
H30 H 0.1334 0.3914 -0.0326
H31 H 0.1169 0.5356 -0.0383
H32 H 0.1844 0.4890 0.0032
loop_
_geom_bond_atom_site_label_1
_geom_bond_atom_site_label_2
_geom_bond_site_symmetry_1
_geom_bond_site_symmetry_2
Cl1 C1 1_555 1_555
N1 C4 1_555 1_555
N2 N3 1_555 1_555
N3 C1 1_555 1_555
N4 C16 1_555 1_555
N5 C21 1_555 1_555
O1 C5 1_555 1_555
O2 C18 1_555 1_555
C1 C2 1_555 1_555
C2 H1 1_555 1_555
C3 C2 1_555 1_555
H2 C3 1_555 1_555
C4 N2 1_555 1_555
C5 N1 1_555 1_555
C6 C5 1_555 1_555
C7 C6 1_555 1_555
H3 C7 1_555 1_555
C8 C7 1_555 1_555
H4 C8 1_555 1_555
C9 C8 1_555 1_555
H5 C9 1_555 1_555
C10 C9 1_555 1_555
H6 C10 1_555 1_555
C11 C6 1_555 1_555
C12 N1 1_555 1_555
C13 C12 1_555 1_555
C14 C13 1_555 1_555
H7 C14 1_555 1_555
C15 C14 1_555 1_555
H8 C15 1_555 1_555
C16 C15 1_555 1_555
C17 C16 1_555 1_555
H9 C17 1_555 1_555
C18 C13 1_555 1_555
C19 O2 1_555 1_555
C20 C19 1_555 1_555
H10 C20 1_555 1_555
C21 C20 1_555 1_555
C22 C21 1_555 1_555
H11 C22 1_555 1_555
C23 C22 1_555 1_555
H12 C23 1_555 1_555
C24 C12 1_555 1_555
C25 N4 1_555 1_555
H13 C25 1_555 1_555
H14 C25 1_555 1_555
C26 C25 1_555 1_555
H15 C26 1_555 1_555
H16 C26 1_555 1_555
H17 C26 1_555 1_555
C27 N4 1_555 1_555
H18 C27 1_555 1_555
H19 C27 1_555 1_555
C28 C27 1_555 1_555
H20 C28 1_555 1_555
H21 C28 1_555 1_555
H22 C28 1_555 1_555
C29 N5 1_555 1_555
H23 C29 1_555 1_555
H24 C29 1_555 1_555
C30 C29 1_555 1_555
H25 C30 1_555 1_555
H26 C30 1_555 1_555
H27 C30 1_555 1_555
C31 N5 1_555 1_555
H28 C31 1_555 1_555
H29 C31 1_555 1_555
C32 C31 1_555 1_555
H30 C32 1_555 1_555
H31 C32 1_555 1_555
H32 C32 1_555 1_555
C3 C4 1_555 1_555
C10 C11 1_555 1_555
C11 C12 1_555 1_555
C17 C18 1_555 1_555
C19 C24 1_555 1_555
C23 C24 1_555 1_555

#END
