
#######################################################################
#
#                 Cambridge Crystallographic Data Centre
#                                CCDC 
#
#######################################################################
#
# If this CIF has been generated from an entry in the Cambridge 
# Structural Database, then it will include bibliographic, chemical, 
# crystal, experimental, refinement or atomic coordinate data resulting 
# from the CCDC's data processing and validation procedures.
#
#######################################################################

data_TUFDAB
_chemical_formula_moiety         'C22 H20 N2 O4,C10 H8 N2'
_chemical_name_systematic        
"4,4'-(1,4-phenylenebis(nitrilomethylylidene))bis(2-methoxyphenol) 4,4'-bipyridine"
_symmetry_cell_setting           monoclinic
_symmetry_space_group_name_H-M   'P 2/c'
_symmetry_Int_Tables_number      13
_space_group_name_Hall           '-P 2yc'
loop_
_symmetry_equiv_pos_site_id
_symmetry_equiv_pos_as_xyz
1 x,y,z
2 -x,y,1/2-z
3 -x,-y,-z
4 x,-y,1/2+z
_cell_length_a                   12.8209(9)
_cell_length_b                   7.0395(4)
_cell_length_c                   14.7623(7)
_cell_angle_alpha                90
_cell_angle_beta                 96.820(3)
_cell_angle_gamma                90
_cell_volume                     1322.91
_cell_formula_units_Z            2
loop_
_atom_site_label
_atom_site_type_symbol
_atom_site_fract_x
_atom_site_fract_y
_atom_site_fract_z
O1 O 0.67498(18) 0.7898(3) 0.3732(2)
O2 O 0.72270(15) 0.4264(2) 0.41513(14)
N1 N 0.91058(17) 0.1931(4) 0.13974(15)
C1 C 0.7343(2) 0.6885(4) 0.3198(2)
C2 C 0.7706(3) 0.7748(4) 0.2456(2)
H1 H 0.759(2) 0.905(5) 0.232(2)
C3 C 0.8271(3) 0.6731(5) 0.1880(2)
H2 H 0.858(2) 0.737(4) 0.137(2)
C4 C 0.8486(2) 0.4810(4) 0.20368(19)
C5 C 0.8150(2) 0.3935(4) 0.28021(18)
H3 H 0.829(2) 0.253(4) 0.293(2)
C6 C 0.75894(19) 0.4955(4) 0.33724(19)
C7 C 0.9016(2) 0.3732(4) 0.1374(2)
H4 H 0.933(2) 0.451(4) 0.094(2)
C8 C 0.9366(2) 0.1563(4) -0.02293(18)
H5 H 0.887(3) 0.269(5) -0.040(2)
C9 C 0.9557(2) 0.1011(4) 0.06861(17)
C10 C 1.0191(2) -0.0570(4) 0.08960(19)
H6 H 1.032(2) -0.091(4) 0.152(2)
C11 C 0.7458(3) 0.2334(4) 0.4372(3)
H7 H 0.713(2) 0.149(5) 0.386(2)
H8 H 0.826(3) 0.220(5) 0.446(2)
H9 H 0.710(3) 0.208(6) 0.496(3)
H10 H 0.664(5) 0.724(9) 0.435(5)
O1B O 1.32502(18) -0.7898(3) -0.3732(2)
O2B O 1.27730(15) -0.4264(2) -0.41513(14)
N1B N 1.08942(17) -0.1931(4) -0.13974(15)
C1B C 1.2657(2) -0.6885(4) -0.3198(2)
C2B C 1.2294(3) -0.7748(4) -0.2456(2)
H1B H 1.241(2) -0.905(5) -0.232(2)
C3B C 1.1729(3) -0.6731(5) -0.1880(2)
H2B H 1.142(2) -0.737(4) -0.137(2)
C4B C 1.1514(2) -0.4810(4) -0.20368(19)
C5B C 1.1850(2) -0.3935(4) -0.28021(18)
H3B H 1.171(2) -0.253(4) -0.293(2)
C6B C 1.24106(19) -0.4955(4) -0.33724(19)
C7B C 1.0984(2) -0.3732(4) -0.1374(2)
H4B H 1.067(2) -0.451(4) -0.094(2)
C8B C 1.0634(2) -0.1563(4) 0.02293(18)
H5B H 1.113(3) -0.269(5) 0.040(2)
C9B C 1.0443(2) -0.1011(4) -0.06861(17)
C10B C 0.9809(2) 0.0570(4) -0.08960(19)
H6B H 0.968(2) 0.091(4) -0.152(2)
C11B C 1.2542(3) -0.2334(4) -0.4372(3)
H7B H 1.287(2) -0.149(5) -0.386(2)
H8B H 1.174(3) -0.220(5) -0.446(2)
H9B H 1.290(3) -0.208(6) -0.496(3)
H10B H 1.336(5) -0.724(9) -0.435(5)
N2 N 0.6182(2) 0.7156(4) 0.5432(2)
C12 C 0.5952(5) 0.8726(6) 0.5856(4)
H11 H 0.6120 0.9900 0.5591
C13 C 0.5493(5) 0.8802(6) 0.6648(4)
C14 C 0.52449(19) 0.7162(4) 0.7069(2)
C15 C 0.5482(3) 0.5519(5) 0.6653(3)
C16 C 0.5931(3) 0.5577(5) 0.5851(3)
H12 H 0.607(3) 0.436(7) 0.554(3)
H13 H 0.536(3) 0.978(7) 0.692(3)
H14 H 0.532(3) 0.429(7) 0.688(3)
N2A N 0.3818(2) 0.7156(4) 0.9568(2)
C12A C 0.4048(5) 0.8726(6) 0.9144(4)
H11A H 0.3880 0.9900 0.9409
C13A C 0.4507(5) 0.8802(6) 0.8352(4)
C14A C 0.47551(19) 0.7162(4) 0.7931(2)
C15A C 0.4518(3) 0.5519(5) 0.8347(3)
C16A C 0.4069(3) 0.5577(5) 0.9149(3)
H12A H 0.393(3) 0.436(7) 0.946(3)
H13A H 0.464(3) 0.978(7) 0.808(3)
H14A H 0.468(3) 0.429(7) 0.812(3)
loop_
_geom_bond_atom_site_label_1
_geom_bond_atom_site_label_2
_geom_bond_site_symmetry_1
_geom_bond_site_symmetry_2
O1 C1 1_555 1_555
O2 C6 1_555 1_555
N1 C7 1_555 1_555
C1 C2 1_555 1_555
C2 H1 1_555 1_555
C3 C2 1_555 1_555
H2 C3 1_555 1_555
C4 C3 1_555 1_555
C5 C4 1_555 1_555
H3 C5 1_555 1_555
C6 C1 1_555 1_555
C7 C4 1_555 1_555
H4 C7 1_555 1_555
C8 H5 1_555 1_555
C9 N1 1_555 1_555
C10 C9 1_555 1_555
H6 C10 1_555 1_555
C11 O2 1_555 1_555
H7 C11 1_555 1_555
H8 C11 1_555 1_555
H9 C11 1_555 1_555
H10 O1 1_555 1_555
N2 C12 1_555 1_555
C12 H11 1_555 1_555
C13 C12 1_555 1_555
C14 C13 1_555 1_555
C15 C14 1_555 1_555
C16 N2 1_555 1_555
H12 C16 1_555 1_555
H13 C13 1_555 1_555
H14 C15 1_555 1_555
O1B C1B 1_555 1_555
O2B C6B 1_555 1_555
N1B C7B 1_555 1_555
C1B C2B 1_555 1_555
C2B H1B 1_555 1_555
C3B C2B 1_555 1_555
H2B C3B 1_555 1_555
C4B C3B 1_555 1_555
C5B C4B 1_555 1_555
H3B C5B 1_555 1_555
C6B C1B 1_555 1_555
C7B C4B 1_555 1_555
H4B C7B 1_555 1_555
C8B C10 1_555 1_555
H5B C8B 1_555 1_555
C9B N1B 1_555 1_555
C10B C8 1_555 1_555
H6B C10B 1_555 1_555
C11B O2B 1_555 1_555
H7B C11B 1_555 1_555
H8B C11B 1_555 1_555
H9B C11B 1_555 1_555
H10B O1B 1_555 1_555
N2A C12A 1_555 1_555
C12A H11A 1_555 1_555
C13A C12A 1_555 1_555
C14A C14 1_555 1_555
C15A C14A 1_555 1_555
C16A N2A 1_555 1_555
H12A C16A 1_555 1_555
H13A C13A 1_555 1_555
H14A C15A 1_555 1_555
C5 C6 1_555 1_555
C8 C9 1_555 1_555
C15 C16 1_555 1_555
C5B C6B 1_555 1_555
C8B C9B 1_555 1_555
C9B C10B 1_555 1_555
C13A C14A 1_555 1_555
C15A C16A 1_555 1_555

#END
