
#######################################################################
#
#                 Cambridge Crystallographic Data Centre
#                                CCDC 
#
#######################################################################
#
# If this CIF has been generated from an entry in the Cambridge 
# Structural Database, then it will include bibliographic, chemical, 
# crystal, experimental, refinement or atomic coordinate data resulting 
# from the CCDC's data processing and validation procedures.
#
#######################################################################

data_TUFNUF
_chemical_name_common            'piroxicam 2,5-dihydroxybenzoic acid'
_chemical_formula_moiety         'C15 H13 N3 O4 S1,C7 H6 O4'
_chemical_name_systematic        
'2,5-dihydroxybenzoic acid 4-hydroxy-2-methyl-N-(pyridin-2-yl)-2H-1,2-benzothiazine-3-carboxamide 1,1-dioxide'
_symmetry_cell_setting           monoclinic
_symmetry_space_group_name_H-M   'P 21/c'
_symmetry_Int_Tables_number      14
_space_group_name_Hall           '-P 2ybc'
loop_
_symmetry_equiv_pos_site_id
_symmetry_equiv_pos_as_xyz
1 x,y,z
2 -x,1/2+y,1/2-z
3 -x,-y,-z
4 x,1/2-y,1/2+z
_cell_length_a                   14.2431(7)
_cell_length_b                   13.5610(7)
_cell_length_c                   11.7144(6)
_cell_angle_alpha                90
_cell_angle_beta                 112.525(3)
_cell_angle_gamma                90
_cell_volume                     2090.03
_exptl_crystal_colour            colorless
_exptl_crystal_description       prism
_cell_formula_units_Z            4
_exptl_crystal_recrystallization_method acetonitrile
loop_
_atom_site_label
_atom_site_type_symbol
_atom_site_fract_x
_atom_site_fract_y
_atom_site_fract_z
S1 S 0.77590(4) 0.60239(3) 0.66316(4)
O1 O 0.69555(11) 0.57465(10) 0.70170(13)
O2 O 0.87818(10) 0.58124(10) 0.74252(12)
O3 O 0.91289(11) 0.71477(10) 0.42811(13)
H1 H 0.9292(18) 0.6629(18) 0.395(2)
O4 O 0.92480(10) 0.53753(10) 0.36631(13)
N1 N 0.75417(12) 0.55093(11) 0.52873(15)
N2 N 0.83709(13) 0.41580(12) 0.42059(15)
H2 H 0.7998(18) 0.4008(17) 0.465(2)
N3 N 0.83770(13) 0.24675(12) 0.40218(16)
C1 C 0.82429(15) 0.58417(14) 0.47591(18)
C2 C 0.84968(15) 0.68108(14) 0.47895(17)
C3 C 0.80738(15) 0.75615(14) 0.53654(18)
C4 C 0.80457(16) 0.85601(15) 0.50555(19)
H3 H 0.8357 0.8778 0.4513
C5 C 0.75639(17) 0.92298(14) 0.55403(19)
H4 H 0.7546 0.9907 0.5326
C6 C 0.71078(16) 0.89265(15) 0.6333(2)
H5 H 0.6761 0.9393 0.6635
C7 C 0.71536(15) 0.79475(15) 0.66896(18)
H6 H 0.6854 0.7739 0.7248
C8 C 0.76465(15) 0.72787(14) 0.62132(18)
C9 C 0.64644(15) 0.54933(15) 0.44114(19)
H7 H 0.6396 0.5068 0.3707
H8 H 0.6247 0.6164 0.4117
H9 H 0.6038 0.5237 0.4832
C10 C 0.86640(15) 0.51100(14) 0.41707(18)
C11 C 0.86650(15) 0.33292(14) 0.36993(18)
C12 C 0.86578(16) 0.16340(15) 0.3609(2)
H10 H 0.8463 0.1020 0.3842
C13 C 0.92113(16) 0.16219(16) 0.2869(2)
H11 H 0.9408 0.1019 0.2613
C14 C 0.94690(16) 0.25212(16) 0.25143(19)
H12 H 0.9835 0.2542 0.1986
C15 C 0.91974(15) 0.33894(16) 0.29237(19)
H13 H 0.9369 0.4010 0.2682
O5 O 0.71289(11) 0.19020(10) 0.51016(13)
H14 H 0.7575(18) 0.2196(17) 0.474(2)
O6 O 0.70157(11) 0.34751(10) 0.55984(13)
O7 O 0.61142(11) 0.38841(10) 0.71335(14)
H15 H 0.646(2) 0.3980(18) 0.671(2)
O8 O 0.48135(11) 0.00062(10) 0.65188(14)
H16 H 0.4484(19) -0.0108(18) 0.695(2)
C16 C 0.67814(15) 0.25998(14) 0.56127(17)
C17 C 0.61042(14) 0.22641(14) 0.62225(18)
C18 C 0.58240(14) 0.29154(14) 0.69710(18)
C19 C 0.52323(15) 0.25791(14) 0.76006(18)
H17 H 0.5056 0.3015 0.8122
C20 C 0.49008(15) 0.16138(14) 0.74690(19)
H18 H 0.4504 0.1387 0.7909
C21 C 0.51428(14) 0.09705(14) 0.66964(17)
C22 C 0.57429(15) 0.12903(14) 0.60831(18)
H19 H 0.5913 0.0848 0.5563
loop_
_geom_bond_atom_site_label_1
_geom_bond_atom_site_label_2
_geom_bond_site_symmetry_1
_geom_bond_site_symmetry_2
S1 O1 1_555 1_555
O2 S1 1_555 1_555
O3 H1 1_555 1_555
O4 C10 1_555 1_555
N1 S1 1_555 1_555
N2 H2 1_555 1_555
N3 C11 1_555 1_555
C1 N1 1_555 1_555
C2 O3 1_555 1_555
C3 C2 1_555 1_555
C4 C3 1_555 1_555
H3 C4 1_555 1_555
C5 C4 1_555 1_555
H4 C5 1_555 1_555
C6 C5 1_555 1_555
H5 C6 1_555 1_555
C7 C6 1_555 1_555
H6 C7 1_555 1_555
C8 S1 1_555 1_555
C9 N1 1_555 1_555
H7 C9 1_555 1_555
H8 C9 1_555 1_555
H9 C9 1_555 1_555
C10 N2 1_555 1_555
C11 N2 1_555 1_555
C12 N3 1_555 1_555
H10 C12 1_555 1_555
C13 C12 1_555 1_555
H11 C13 1_555 1_555
C14 C13 1_555 1_555
H12 C14 1_555 1_555
C15 C11 1_555 1_555
H13 C15 1_555 1_555
O5 H14 1_555 1_555
O6 C16 1_555 1_555
O7 H15 1_555 1_555
O8 H16 1_555 1_555
C16 O5 1_555 1_555
C17 C16 1_555 1_555
C18 O7 1_555 1_555
C19 C18 1_555 1_555
H17 C19 1_555 1_555
C20 C19 1_555 1_555
H18 C20 1_555 1_555
C21 O8 1_555 1_555
C22 C17 1_555 1_555
H19 C22 1_555 1_555
C1 C2 1_555 1_555
C1 C10 1_555 1_555
C3 C8 1_555 1_555
C7 C8 1_555 1_555
C14 C15 1_555 1_555
C17 C18 1_555 1_555
C20 C21 1_555 1_555
C21 C22 1_555 1_555

#END
