
#######################################################################
#
#                 Cambridge Crystallographic Data Centre
#                                CCDC 
#
#######################################################################
#
# If this CIF has been generated from an entry in the Cambridge 
# Structural Database, then it will include bibliographic, chemical, 
# crystal, experimental, refinement or atomic coordinate data resulting 
# from the CCDC's data processing and validation procedures.
#
#######################################################################

data_TUFPAN
_chemical_name_common            'piroxicam gentisic acid acetone'
_chemical_formula_moiety         'C15 H13 N3 O4 S1,C7 H6 O4,C3 H6 O1'
_chemical_name_systematic        
'4-hydroxy-2-methyl-N-(pyridin-2-yl)-2H-1,2-benzothiazine-3-carboxamide 1,1-dioxide 2,5-dihydroxybenzoic acid acetone'
_symmetry_cell_setting           monoclinic
_symmetry_space_group_name_H-M   'P 21/c'
_symmetry_Int_Tables_number      14
_space_group_name_Hall           '-P 2ybc'
loop_
_symmetry_equiv_pos_site_id
_symmetry_equiv_pos_as_xyz
1 x,y,z
2 -x,1/2+y,1/2-z
3 -x,-y,-z
4 x,1/2-y,1/2+z
_cell_length_a                   6.8390(2)
_cell_length_b                   22.3969(7)
_cell_length_c                   16.7145(5)
_cell_angle_alpha                90
_cell_angle_beta                 105.145(2)
_cell_angle_gamma                90
_cell_volume                     2471.28
_exptl_crystal_colour            colorless
_exptl_crystal_description       prism
_cell_formula_units_Z            4
_exptl_crystal_recrystallization_method acetonitrile
loop_
_atom_site_label
_atom_site_type_symbol
_atom_site_fract_x
_atom_site_fract_y
_atom_site_fract_z
S1 S 0.28660(14) 0.69006(4) 0.09827(5)
O1 O 0.1114(4) 0.70940(12) 0.12083(17)
O2 O 0.3739(5) 0.63346(11) 0.12750(17)
O3 O 0.2724(4) 0.85257(13) -0.03591(17)
H1 H 0.320(8) 0.878(2) 0.000(3)
O4 O 0.4220(5) 0.90161(11) 0.10358(17)
N1 N 0.4611(4) 0.74093(12) 0.12699(17)
N2 N 0.5233(5) 0.84390(14) 0.22053(19)
H2 H 0.535(6) 0.807(2) 0.238(3)
N3 N 0.6355(5) 0.86740(14) 0.35775(19)
C1 C 0.2380(5) 0.69220(17) -0.0104(2)
C2 C 0.1840(6) 0.64129(19) -0.0575(3)
H3 H 0.1801 0.6042 -0.0317
C3 C 0.1354(7) 0.6453(2) -0.1434(3)
H4 H 0.0984 0.6109 -0.1761
C4 C 0.1416(7) 0.7001(2) -0.1805(3)
H5 H 0.1045 0.7030 -0.2387
C5 C 0.2014(6) 0.7507(2) -0.1335(2)
H6 H 0.2093 0.7873 -0.1598
C6 C 0.2506(6) 0.74779(17) -0.0470(2)
C7 C 0.3141(5) 0.80092(16) 0.0041(2)
C8 C 0.4058(5) 0.79762(15) 0.0869(2)
C9 C 0.4508(6) 0.85184(16) 0.1368(2)
C10 C 0.5677(6) 0.88859(16) 0.2809(2)
C11 C 0.5423(7) 0.94916(18) 0.2648(3)
H7 H 0.4958 0.9633 0.2102
C12 C 0.5865(8) 0.9880(2) 0.3306(3)
H8 H 0.5699 1.0293 0.3212
C13 C 0.6546(8) 0.9667(2) 0.4097(3)
H9 H 0.6853 0.9929 0.4552
C14 C 0.6768(7) 0.90646(19) 0.4206(3)
H10 H 0.7233 0.8917 0.4749
C15 C 0.6718(6) 0.72245(17) 0.1326(2)
H11 H 0.6874 0.7153 0.0773
H12 H 0.7022 0.6861 0.1650
H13 H 0.7641 0.7538 0.1590
O5 O 0.5989(5) 0.59912(14) 0.31081(17)
H14 H 0.588(9) 0.634(3) 0.296(4)
O6 O 0.9709(6) 0.61497(14) 0.64564(17)
H15 H 0.982(9) 0.584(3) 0.667(4)
O7 O 0.6196(5) 0.71668(12) 0.30937(15)
O8 O 0.7435(4) 0.76406(12) 0.42865(16)
H16 H 0.698(7) 0.798(2) 0.394(3)
C16 C 0.6905(6) 0.60436(17) 0.3935(2)
C17 C 0.7471(5) 0.65961(16) 0.4320(2)
C18 C 0.8431(5) 0.66127(17) 0.5170(2)
H17 H 0.8820 0.6982 0.5431
C19 C 0.8808(6) 0.60995(17) 0.5622(2)
C20 C 0.8247(7) 0.55531(19) 0.5240(3)
H18 H 0.8501 0.5200 0.5554
C21 C 0.7319(8) 0.55262(19) 0.4403(3)
H19 H 0.6965 0.5154 0.4147
C22 C 0.6991(6) 0.71537(17) 0.3849(2)
O9 O 0.007(4) 0.5117(8) 0.7407(14)
C23 C 0.016(8) 0.4616(10) 0.7661(12)
C24 C -0.058(4) 0.4064(9) 0.7232(14)
H20 H -0.1624 0.3897 0.7458
H21 H 0.0533 0.3782 0.7303
H22 H -0.1129 0.4145 0.6646
C25 C 0.150(4) 0.4480(10) 0.8565(10)
H23 H 0.2788 0.4311 0.8535
H24 H 0.0802 0.4198 0.8833
H25 H 0.1742 0.4848 0.8882
O10? O 0.068(3) 0.5152(7) 0.7435(13)
C26? C 0.028(9) 0.4661(11) 0.7624(13)
C27? C -0.097(4) 0.4213(10) 0.7106(13)
H26? H -0.2387 0.4312 0.7028
H27? H -0.0693 0.3825 0.7372
H28? H -0.0659 0.4201 0.6572
C28? C 0.082(4) 0.4485(11) 0.8570(11)
H29? H 0.1430 0.4091 0.8643
H30? H -0.0404 0.4482 0.8761
H31? H 0.1767 0.4773 0.8889
loop_
_geom_bond_atom_site_label_1
_geom_bond_atom_site_label_2
_geom_bond_site_symmetry_1
_geom_bond_site_symmetry_2
S1 O1 1_555 1_555
O2 S1 1_555 1_555
O3 H1 1_555 1_555
O4 C9 1_555 1_555
N1 S1 1_555 1_555
N2 H2 1_555 1_555
N3 C10 1_555 1_555
C1 S1 1_555 1_555
C2 C1 1_555 1_555
H3 C2 1_555 1_555
C3 C2 1_555 1_555
H4 C3 1_555 1_555
C4 C3 1_555 1_555
H5 C4 1_555 1_555
C5 C4 1_555 1_555
H6 C5 1_555 1_555
C6 C1 1_555 1_555
C7 O3 1_555 1_555
C8 N1 1_555 1_555
C9 N2 1_555 1_555
C10 N2 1_555 1_555
C11 C10 1_555 1_555
H7 C11 1_555 1_555
C12 C11 1_555 1_555
H8 C12 1_555 1_555
C13 C12 1_555 1_555
H9 C13 1_555 1_555
C14 N3 1_555 1_555
H10 C14 1_555 1_555
C15 N1 1_555 1_555
H11 C15 1_555 1_555
H12 C15 1_555 1_555
H13 C15 1_555 1_555
O5 H14 1_555 1_555
O6 H15 1_555 1_555
O7 C22 1_555 1_555
O8 H16 1_555 1_555
C16 O5 1_555 1_555
C17 C16 1_555 1_555
C18 C17 1_555 1_555
H17 C18 1_555 1_555
C19 O6 1_555 1_555
C20 C19 1_555 1_555
H18 C20 1_555 1_555
C21 C16 1_555 1_555
H19 C21 1_555 1_555
C22 O8 1_555 1_555
O9 C23 1_555 1_555
C23 C24 1_555 1_555
C24 H20 1_555 1_555
H21 C24 1_555 1_555
H22 C24 1_555 1_555
C25 C23 1_555 1_555
H23 C25 1_555 1_555
H24 C25 1_555 1_555
H25 C25 1_555 1_555
C5 C6 1_555 1_555
C6 C7 1_555 1_555
C7 C8 1_555 1_555
C8 C9 1_555 1_555
C13 C14 1_555 1_555
C17 C22 1_555 1_555
C18 C19 1_555 1_555
C20 C21 1_555 1_555

#END
