
#######################################################################
#
#                 Cambridge Crystallographic Data Centre
#                                CCDC 
#
#######################################################################
#
# If this CIF has been generated from an entry in the Cambridge 
# Structural Database, then it will include bibliographic, chemical, 
# crystal, experimental, refinement or atomic coordinate data resulting 
# from the CCDC's data processing and validation procedures.
#
#######################################################################

data_TUFROC
_chemical_compound_source        'Briareum excavatum'
_chemical_name_common            'Excavatoid A methanol solvate sesquihydrate'
_chemical_formula_moiety         'C21 H34 O9,C1 H4 O1,1.5(H2 O1)'
_chemical_name_systematic        
'7,8,9,11,13,13a-Hexahydroxy-1-methoxy-1,5,8a,12-tetramethyl-3a,6,7,8,8a,9,10,11,12,12a,13,13a-dodecahydrobenzo[4,5]cyclodeca-[1,2-b]furan-2(1H)-one methanol solvate sesquihydrate'
_symmetry_cell_setting           orthorhombic
_symmetry_space_group_name_H-M   'P 21 21 21'
_symmetry_Int_Tables_number      19
_space_group_name_Hall           'P 2ac 2ab'
loop_
_symmetry_equiv_pos_site_id
_symmetry_equiv_pos_as_xyz
1 x,y,z
2 1/2-x,-y,1/2+z
3 -x,1/2+y,1/2-z
4 1/2+x,1/2-y,-z
_cell_length_a                   8.358(3)
_cell_length_b                   10.0293(19)
_cell_length_c                   29.977(7)
_cell_angle_alpha                90
_cell_angle_beta                 90
_cell_angle_gamma                90
_cell_volume                     2512.82
_exptl_crystal_colour            colorless
_exptl_crystal_description       prism
_chemical_melting_point          209-210deg.C
_cell_formula_units_Z            4
_exptl_crystal_recrystallization_method methanol
loop_
_atom_site_label
_atom_site_type_symbol
_atom_site_fract_x
_atom_site_fract_y
_atom_site_fract_z
O1 O 0.3034(3) 0.4173(3) 0.91325(9)
O2 O 0.3970(4) 0.2545(3) 0.99621(10)
O3 O 0.7056(5) 0.0423(4) 0.80147(12)
O4 O 0.9009(4) 0.2549(4) 0.83609(10)
O5 O 0.4866(4) 0.3799(4) 0.84317(10)
O6 O 1.0876(4) 0.6224(3) 0.93029(11)
O7 O 0.6916(4) 0.4718(3) 0.99803(8)
O8 O 0.8070(8) 0.0598(6) 0.73280(14)
O9 O 0.5698(5) 0.2918(5) 0.76259(11)
C1 C 0.5829(4) 0.5120(4) 0.92182(12)
C2 C 0.4443(4) 0.4202(4) 0.94091(12)
H1 H 0.4096 0.4655 0.9682
C3 C 0.4880(5) 0.2783(4) 0.95621(12)
H2 H 0.6013 0.2790 0.9646
C4 C 0.4645(5) 0.1650(4) 0.92243(14)
H3 H 0.3748 0.1104 0.9318
H4 H 0.4383 0.2031 0.8936
C5 C 0.6090(5) 0.0785(4) 0.91765(14)
C6 C 0.6944(6) 0.0694(4) 0.88033(15)
H5 H 0.7877 0.0189 0.8813
C7 C 0.6525(6) 0.1333(5) 0.83737(14)
H6 H 0.5362 0.1448 0.8356
C8 C 0.7348(6) 0.2651(5) 0.82557(13)
C9 C 0.6558(5) 0.3950(5) 0.84444(13)
H7 H 0.6831 0.4676 0.8240
C10 C 0.7116(4) 0.4386(4) 0.89192(12)
H8 H 0.7397 0.3564 0.9078
C11 C 0.8723(5) 0.5196(4) 0.88660(14)
H9 H 0.9504 0.4570 0.8741
C12 C 0.9353(4) 0.5575(4) 0.93265(14)
H10 H 0.9477 0.4757 0.9502
C13 C 0.8191(5) 0.6471(4) 0.95648(14)
H11 H 0.7988 0.7260 0.9386
H12 H 0.8644 0.6754 0.9847
C14 C 0.6629(5) 0.5731(4) 0.96465(11)
H13 H 0.5870 0.6372 0.9774
C15 C 0.5047(5) 0.6328(4) 0.89874(15)
H14 H 0.4220 0.6683 0.9175
H15 H 0.4592 0.6053 0.8708
H16 H 0.5841 0.7002 0.8935
C16 C 0.6586(7) 0.0036(5) 0.95918(17)
H17 H 0.6672 0.0647 0.9837
H18 H 0.7603 -0.0385 0.9542
H19 H 0.5799 -0.0631 0.9660
C17 C 0.7316(7) 0.2614(7) 0.77399(16)
C18 C 0.8543(10) 0.3468(9) 0.75038(19)
H20 H 0.8525 0.3275 0.7190
H21 H 0.9587 0.3280 0.7621
H22 H 0.8295 0.4393 0.7550
C19 C 0.7547(9) 0.1138(8) 0.7657(2)
C20 C 0.8706(7) 0.6417(6) 0.85461(16)
H23 H 0.9745 0.6525 0.8415
H24 H 0.8432 0.7205 0.8711
H25 H 0.7929 0.6274 0.8315
C21 C 0.5180(10) 0.2604(9) 0.7182(2)
H26 H 0.5882 0.3020 0.6971
H27 H 0.4110 0.2925 0.7139
H28 H 0.5203 0.1655 0.7140
H34 H 0.3404 0.4140 0.8863
H35 H 0.3237 0.1795 0.9935
H36 H 0.9248 0.2536 0.8650
H37 H 0.4396 0.3665 0.8135
H38 H 1.1628 0.5550 0.9233
H39 H 0.6747 0.5241 1.0258
O10 O 0.0397(4) 0.2196(3) 0.91886(11)
H40 H 0.1171 0.2950 0.9190
H41 H -0.0144 0.2427 0.9471
O11 O 0.2229(13) 0.2818(11) 0.7979(3)
H29 H 0.2235 0.1964 0.7918
H30 H 0.1993 0.3389 0.8118
O12 O 0.1430(8) 0.8878(4) 0.92588(12)
C22 C 0.1773(9) 0.9206(6) 0.88170(17)
H31 H 0.1885 1.0155 0.8790
H32 H 0.0919 0.8906 0.8628
H33 H 0.2753 0.8782 0.8729
H42 H 0.1171 0.7884 0.9281
loop_
_geom_bond_atom_site_label_1
_geom_bond_atom_site_label_2
_geom_bond_site_symmetry_1
_geom_bond_site_symmetry_2
O1 C2 1_555 1_555
O2 C3 1_555 1_555
O3 C7 1_555 1_555
O4 C8 1_555 1_555
O5 C9 1_555 1_555
O6 C12 1_555 1_555
O7 C14 1_555 1_555
O8 C19 1_555 1_555
O9 C17 1_555 1_555
C1 C2 1_555 1_555
C2 H1 1_555 1_555
C3 C2 1_555 1_555
H2 C3 1_555 1_555
C4 C3 1_555 1_555
H3 C4 1_555 1_555
H4 C4 1_555 1_555
C5 C4 1_555 1_555
C6 C5 1_555 1_555
H5 C6 1_555 1_555
C7 C6 1_555 1_555
H6 C7 1_555 1_555
C8 C7 1_555 1_555
C9 C8 1_555 1_555
H7 C9 1_555 1_555
C10 C1 1_555 1_555
H8 C10 1_555 1_555
C11 C10 1_555 1_555
H9 C11 1_555 1_555
C12 C11 1_555 1_555
H10 C12 1_555 1_555
C13 C12 1_555 1_555
H11 C13 1_555 1_555
H12 C13 1_555 1_555
C14 C1 1_555 1_555
H13 C14 1_555 1_555
C15 C1 1_555 1_555
H14 C15 1_555 1_555
H15 C15 1_555 1_555
H16 C15 1_555 1_555
C16 C5 1_555 1_555
H17 C16 1_555 1_555
H18 C16 1_555 1_555
H19 C16 1_555 1_555
C17 C8 1_555 1_555
C18 C17 1_555 1_555
H20 C18 1_555 1_555
H21 C18 1_555 1_555
H22 C18 1_555 1_555
C19 O3 1_555 1_555
C20 C11 1_555 1_555
H23 C20 1_555 1_555
H24 C20 1_555 1_555
H25 C20 1_555 1_555
C21 O9 1_555 1_555
H26 C21 1_555 1_555
H27 C21 1_555 1_555
H28 C21 1_555 1_555
O10 H40 1_555 1_555
O11 H29 1_555 1_555
H30 O11 1_555 1_555
O12 C22 1_555 1_555
C22 H31 1_555 1_555
H32 C22 1_555 1_555
H33 C22 1_555 1_555
H34 O1 1_555 1_555
H35 O2 1_555 1_555
H36 O4 1_555 1_555
H37 O5 1_555 1_555
H38 O6 1_555 1_555
H39 O7 1_555 1_555
H41 O10 1_555 1_555
H42 O12 1_555 1_555
C9 C10 1_555 1_555
C13 C14 1_555 1_555
C17 C19 1_555 1_555

#END
