
#######################################################################
#
#                 Cambridge Crystallographic Data Centre
#                                CCDC 
#
#######################################################################
#
# If this CIF has been generated from an entry in the Cambridge 
# Structural Database, then it will include bibliographic, chemical, 
# crystal, experimental, refinement or atomic coordinate data resulting 
# from the CCDC's data processing and validation procedures.
#
#######################################################################

data_TUFSAP
_chemical_name_common            X-2
_chemical_formula_moiety         'C17 H12 Br2 N1 O1 1+,Br1 1-,H2 O1'
_chemical_name_systematic        
'4,6-Dibromo-8,13-dihydroquino[8,1-cd][2,5]benzoxazocin-14-ium bromide monohydrate'
_symmetry_cell_setting           monoclinic
_symmetry_space_group_name_H-M   'P 21/c'
_symmetry_Int_Tables_number      14
_space_group_name_Hall           '-P 2ybc'
loop_
_symmetry_equiv_pos_site_id
_symmetry_equiv_pos_as_xyz
1 x,y,z
2 -x,1/2+y,1/2-z
3 -x,-y,-z
4 x,1/2-y,1/2+z
_cell_length_a                   16.356(3)
_cell_length_b                   26.542(5)
_cell_length_c                   7.774(2)
_cell_angle_alpha                90
_cell_angle_beta                 93.12(3)
_cell_angle_gamma                90
_cell_volume                     3369.85
_exptl_crystal_colour            brown
_exptl_crystal_description       block
_chemical_melting_point          151-152deg.C
_cell_formula_units_Z            8
_exptl_crystal_recrystallization_method methanol/acetonitrile
loop_
_atom_site_label
_atom_site_type_symbol
_atom_site_fract_x
_atom_site_fract_y
_atom_site_fract_z
O1 O 0.4221(3) 0.90926(15) 0.1175(5)
C1 C 0.3799(4) 0.9380(2) 0.2413(8)
H1 H 0.3252 0.9243 0.2485
H2 H 0.3744 0.9724 0.2001
C2 C 0.4211(4) 0.9388(2) 0.4202(8)
C3 C 0.5050(4) 0.93316(19) 0.4455(8)
C4 C 0.5611(4) 0.9253(2) 0.3024(9)
H3 H 0.6141 0.9402 0.3332
H4 H 0.5388 0.9419 0.1989
N1 N 0.5711(3) 0.87017(19) 0.2684(7)
C5 C 0.6444(4) 0.8516(3) 0.3108(11)
H5 H 0.6866 0.8734 0.3450
C6 C 0.6599(5) 0.7998(3) 0.3056(11)
H6 H 0.7122 0.7875 0.3332
C7 C 0.5988(5) 0.7679(3) 0.2603(10)
H7 H 0.6083 0.7334 0.2603
C8 C 0.5203(4) 0.7867(2) 0.2129(8)
C9 C 0.4538(4) 0.7558(2) 0.1610(9)
Br1 Br 0.46669(6) 0.68468(2) 0.17081(12)
C10 C 0.3811(5) 0.7740(2) 0.1056(9)
H8 H 0.3382 0.7523 0.0748
C11 C 0.3704(4) 0.8263(2) 0.0944(8)
Br2 Br 0.27327(4) 0.85012(3) -0.01373(10)
C12 C 0.4309(4) 0.8590(2) 0.1479(8)
C13 C 0.5070(4) 0.8393(2) 0.2100(8)
C14 C 0.3740(4) 0.9471(2) 0.5570(9)
H9 H 0.3178 0.9515 0.5381
C15 C 0.4084(5) 0.9492(3) 0.7229(10)
H10 H 0.3756 0.9549 0.8150
C16 C 0.4915(5) 0.9426(3) 0.7513(9)
H11 H 0.5150 0.9434 0.8629
C17 C 0.5399(4) 0.9349(2) 0.6138(9)
H12 H 0.5961 0.9308 0.6331
O2 O 0.0773(3) 0.90438(16) 0.3375(6)
C18 C 0.1213(4) 0.9362(3) 0.2241(10)
H13 H 0.1767 0.9234 0.2190
H14 H 0.1249 0.9698 0.2734
C19 C 0.0840(4) 0.9401(2) 0.0441(9)
C20 C -0.0002(4) 0.9330(2) 0.0079(9)
C21 C -0.0580(4) 0.9185(2) 0.1397(9)
H15 H -0.1120 0.9317 0.1087
H16 H -0.0398 0.9323 0.2507
N2 N -0.0614(3) 0.86198(19) 0.1502(7)
C22 C -0.1291(4) 0.8414(3) 0.0800(10)
H17 H -0.1712 0.8621 0.0367
C23 C -0.1385(4) 0.7899(3) 0.0697(10)
H18 H -0.1865 0.7763 0.0201
C24 C -0.0774(4) 0.7589(2) 0.1320(9)
H19 H -0.0830 0.7241 0.1236
C25 C -0.0063(4) 0.7799(2) 0.2086(8)
C26 C 0.0596(4) 0.7501(2) 0.2758(9)
Br3 Br 0.04983(5) 0.67949(2) 0.27108(10)
C27 C 0.1286(4) 0.7709(3) 0.3485(9)
H20 H 0.1715 0.7504 0.3896
C28 C 0.1350(4) 0.8230(2) 0.3616(9)
Br4 Br 0.22825(5) 0.84903(3) 0.47755(10)
C29 C 0.0742(4) 0.8547(2) 0.3021(8)
C30 C 0.0024(4) 0.8326(2) 0.2207(8)
C31 C 0.1337(5) 0.9535(3) -0.0866(11)
H21 H 0.1894 0.9586 -0.0624
C32 C 0.1004(7) 0.9594(3) -0.2562(12)
H22 H 0.1336 0.9691 -0.3439
C33 C 0.0193(6) 0.9508(3) -0.2901(12)
H23 H -0.0028 0.9538 -0.4024
C34 C -0.0297(5) 0.9380(3) -0.1626(10)
H24 H -0.0851 0.9323 -0.1897
O3 O 0.7641(5) 0.5290(3) 0.0928(10)
O4 O 0.7039(5) 0.6704(3) 0.3019(10)
Br5 Br 0.83919(5) 0.64070(3) 0.01601(12)
Br6 Br 0.70990(5) 0.55899(3) 0.49286(12)
loop_
_geom_bond_atom_site_label_1
_geom_bond_atom_site_label_2
_geom_bond_site_symmetry_1
_geom_bond_site_symmetry_2
O1 C1 1_555 1_555
C1 H1 1_555 1_555
H2 C1 1_555 1_555
C2 C1 1_555 1_555
C3 C2 1_555 1_555
C4 C3 1_555 1_555
H3 C4 1_555 1_555
H4 C4 1_555 1_555
N1 C4 1_555 1_555
C5 N1 1_555 1_555
H5 C5 1_555 1_555
C6 C5 1_555 1_555
H6 C6 1_555 1_555
C7 C6 1_555 1_555
H7 C7 1_555 1_555
C8 C7 1_555 1_555
C9 C8 1_555 1_555
Br1 C9 1_555 1_555
C10 C9 1_555 1_555
H8 C10 1_555 1_555
C11 C10 1_555 1_555
Br2 C11 1_555 1_555
C12 O1 1_555 1_555
C13 N1 1_555 1_555
C14 C2 1_555 1_555
H9 C14 1_555 1_555
C15 C14 1_555 1_555
H10 C15 1_555 1_555
C16 C15 1_555 1_555
H11 C16 1_555 1_555
C17 C3 1_555 1_555
H12 C17 1_555 1_555
O2 C18 1_555 1_555
C18 H13 1_555 1_555
H14 C18 1_555 1_555
C19 C18 1_555 1_555
C20 C19 1_555 1_555
C21 C20 1_555 1_555
H15 C21 1_555 1_555
H16 C21 1_555 1_555
N2 C21 1_555 1_555
C22 N2 1_555 1_555
H17 C22 1_555 1_555
C23 C22 1_555 1_555
H18 C23 1_555 1_555
C24 C23 1_555 1_555
H19 C24 1_555 1_555
C25 C24 1_555 1_555
C26 C25 1_555 1_555
Br3 C26 1_555 1_555
C27 C26 1_555 1_555
H20 C27 1_555 1_555
C28 C27 1_555 1_555
Br4 C28 1_555 1_555
C29 O2 1_555 1_555
C30 N2 1_555 1_555
C31 C19 1_555 1_555
H21 C31 1_555 1_555
C32 C31 1_555 1_555
H22 C32 1_555 1_555
C33 C32 1_555 1_555
H23 C33 1_555 1_555
C34 C20 1_555 1_555
H24 C34 1_555 1_555
C8 C13 1_555 1_555
C11 C12 1_555 1_555
C12 C13 1_555 1_555
C16 C17 1_555 1_555
C25 C30 1_555 1_555
C28 C29 1_555 1_555
C29 C30 1_555 1_555
C33 C34 1_555 1_555

#END
