
#######################################################################
#
#                 Cambridge Crystallographic Data Centre
#                                CCDC 
#
#######################################################################
#
# If this CIF has been generated from an entry in the Cambridge 
# Structural Database, then it will include bibliographic, chemical, 
# crystal, experimental, refinement or atomic coordinate data resulting 
# from the CCDC's data processing and validation procedures.
#
#######################################################################

data_TUFWUO
_chemical_formula_moiety         'C26 H16'
_chemical_name_systematic        1-(2-naphthylethynyl)anthracene
_symmetry_cell_setting           monoclinic
_symmetry_space_group_name_H-M   'C c'
_symmetry_Int_Tables_number      9
_space_group_name_Hall           'C -2yc'
loop_
_symmetry_equiv_pos_site_id
_symmetry_equiv_pos_as_xyz
1 x,y,z
2 x,-y,1/2+z
3 1/2+x,1/2+y,z
4 1/2+x,1/2-y,1/2+z
_cell_length_a                   4.8880(10)
_cell_length_b                   23.378(5)
_cell_length_c                   15.437(3)
_cell_angle_alpha                90
_cell_angle_beta                 94.07(3)
_cell_angle_gamma                90
_cell_volume                     1759.56
_exptl_crystal_colour            yellow
_exptl_crystal_description       block
_cell_formula_units_Z            4
loop_
_atom_site_label
_atom_site_type_symbol
_atom_site_fract_x
_atom_site_fract_y
_atom_site_fract_z
C1 C -0.2040(8) 0.35643(17) 0.4801(3)
H1 H -0.2798 0.3333 0.4356
C2 C -0.2882(10) 0.3507(2) 0.5612(3)
H2 H -0.4204 0.3235 0.5719
C3 C -0.1776(11) 0.3855(2) 0.6297(3)
H3 H -0.2383 0.3812 0.6850
C4 C 0.0154(8) 0.4248(2) 0.6155(3)
H4 H 0.0865 0.4473 0.6614
C5 C 0.1123(7) 0.43276(16) 0.5318(2)
C6 C 0.3097(7) 0.47279(16) 0.5152(3)
H5 H 0.3799 0.4959 0.5605
C7 C 0.4073(6) 0.47989(15) 0.4336(2)
C8 C 0.6181(7) 0.52013(16) 0.4169(3)
H6 H 0.6937 0.5427 0.4621
C9 C 0.7089(9) 0.52596(18) 0.3370(3)
H7 H 0.8462 0.5523 0.3277
C10 C 0.5977(8) 0.49240(18) 0.2673(3)
H8 H 0.6623 0.4970 0.2125
C11 C 0.3949(7) 0.45297(16) 0.2791(2)
C12 C 0.2934(7) 0.44512(15) 0.3636(2)
C13 C 0.0929(7) 0.40529(15) 0.3798(2)
H9 H 0.0182 0.3830 0.3341
C14 C -0.0003(6) 0.39750(15) 0.4622(2)
C15 C 0.2833(8) 0.41926(17) 0.2078(2)
C16 C 0.1857(8) 0.39149(17) 0.1476(3)
C17 C 0.0795(8) 0.35709(15) 0.0765(2)
C18 C -0.1317(9) 0.31724(19) 0.0886(3)
H10 H -0.2084 0.3147 0.1419
C19 C -0.2219(12) 0.2828(2) 0.0220(4)
H11 H -0.3603 0.2566 0.0310
C20 C -0.1152(9) 0.28503(17) -0.0599(3)
C21 C -0.2007(12) 0.2482(2) -0.1301(4)
H12 H -0.3379 0.2214 -0.1227
C22 C -0.0870(14) 0.2513(3) -0.2069(4)
H13 H -0.1434 0.2262 -0.2514
C23 C 0.1143(14) 0.2917(2) -0.2200(3)
H14 H 0.1903 0.2938 -0.2734
C24 C 0.2009(13) 0.3283(2) -0.1554(3)
H15 H 0.3349 0.3553 -0.1650
C25 C 0.0886(8) 0.32550(16) -0.0733(3)
C26 C 0.1794(9) 0.36124(18) -0.0034(3)
H16 H 0.3125 0.3886 -0.0122
loop_
_geom_bond_atom_site_label_1
_geom_bond_atom_site_label_2
_geom_bond_site_symmetry_1
_geom_bond_site_symmetry_2
C1 H1 1_555 1_555
C2 C1 1_555 1_555
H2 C2 1_555 1_555
C3 C2 1_555 1_555
H3 C3 1_555 1_555
C4 C3 1_555 1_555
H4 C4 1_555 1_555
C5 C4 1_555 1_555
C6 C5 1_555 1_555
H5 C6 1_555 1_555
C7 C6 1_555 1_555
C8 C7 1_555 1_555
H6 C8 1_555 1_555
C9 C8 1_555 1_555
H7 C9 1_555 1_555
C10 C9 1_555 1_555
H8 C10 1_555 1_555
C11 C10 1_555 1_555
C12 C7 1_555 1_555
C13 C12 1_555 1_555
H9 C13 1_555 1_555
C14 C1 1_555 1_555
C15 C11 1_555 1_555
C16 C15 1_555 1_555
C17 C16 1_555 1_555
C18 C17 1_555 1_555
H10 C18 1_555 1_555
C19 C18 1_555 1_555
H11 C19 1_555 1_555
C20 C19 1_555 1_555
C21 C20 1_555 1_555
H12 C21 1_555 1_555
C22 C21 1_555 1_555
H13 C22 1_555 1_555
C23 C22 1_555 1_555
H14 C23 1_555 1_555
C24 C23 1_555 1_555
H15 C24 1_555 1_555
C25 C20 1_555 1_555
C26 C17 1_555 1_555
H16 C26 1_555 1_555
C5 C14 1_555 1_555
C11 C12 1_555 1_555
C13 C14 1_555 1_555
C24 C25 1_555 1_555
C25 C26 1_555 1_555

#END
