
#######################################################################
#
#                 Cambridge Crystallographic Data Centre
#                                CCDC 
#
#######################################################################
#
# If this CIF has been generated from an entry in the Cambridge 
# Structural Database, then it will include bibliographic, chemical, 
# crystal, experimental, refinement or atomic coordinate data resulting 
# from the CCDC's data processing and validation procedures.
#
#######################################################################

data_TUFZAX
_chemical_formula_moiety         'C49 H66 O2'
_chemical_name_systematic        
2,4-di-t-butyl-6-(2,4,5,7-tetra-t-butyl-9-phenyl-9H-xanthen-9-yl)phenol
_symmetry_cell_setting           orthorhombic
_symmetry_space_group_name_H-M   'P b c a'
_symmetry_Int_Tables_number      61
_space_group_name_Hall           '-P 2ac 2ab'
loop_
_symmetry_equiv_pos_site_id
_symmetry_equiv_pos_as_xyz
1 x,y,z
2 1/2-x,-y,1/2+z
3 -x,1/2+y,1/2-z
4 1/2+x,1/2-y,-z
5 -x,-y,-z
6 1/2+x,y,1/2-z
7 x,1/2-y,1/2+z
8 1/2-x,1/2+y,z
_cell_length_a                   10.7295(6)
_cell_length_b                   25.4389(15)
_cell_length_c                   32.8409(18)
_cell_angle_alpha                90
_cell_angle_beta                 90
_cell_angle_gamma                90
_cell_volume                     8963.81
_exptl_crystal_colour            colorless
_exptl_crystal_description       block
_cell_formula_units_Z            8
loop_
_atom_site_label
_atom_site_type_symbol
_atom_site_fract_x
_atom_site_fract_y
_atom_site_fract_z
O1 O 0.74433(18) 0.59547(7) 0.15197(5)
H1 H 0.6944 0.5719 0.1569
O2 O 0.39704(16) 0.50132(6) 0.16756(5)
C1 C 0.7262(2) 0.61317(9) 0.11296(7)
C2 C 0.8156(3) 0.64812(10) 0.09773(8)
C3 C 0.7941(3) 0.66813(11) 0.05917(8)
H2 H 0.8521 0.6915 0.0484
C4 C 0.6911(3) 0.65539(11) 0.03573(8)
C5 C 0.6072(3) 0.61987(10) 0.05182(8)
H3 H 0.5382 0.6103 0.0364
C6 C 0.6224(2) 0.59788(9) 0.09035(7)
C7 C 0.9304(3) 0.66389(12) 0.12289(9)
C8 C 0.8908(4) 0.69224(15) 0.16226(10)
H4 H 0.8438 0.7231 0.1555
H5 H 0.9636 0.7021 0.1774
H6 H 0.8403 0.6691 0.1784
C9 C 1.0075(3) 0.61470(15) 0.13337(11)
H7 H 1.0320 0.5973 0.1087
H8 H 0.9581 0.5912 0.1496
H9 H 1.0804 0.6249 0.1483
C10 C 1.0158(3) 0.70152(16) 0.09951(11)
H10 H 0.9706 0.7329 0.0928
H11 H 1.0439 0.6848 0.0750
H12 H 1.0863 0.7104 0.1161
C11 C 0.6726(4) 0.68217(15) -0.00553(10)
C12 C 0.5573(5) 0.66309(19) -0.02743(12)
H13 H 0.4848 0.6716 -0.0116
H14 H 0.5621 0.6257 -0.0310
H15 H 0.5518 0.6799 -0.0536
C13 C 0.6706(7) 0.74108(17) 0.00025(17)
H16 H 0.6000 0.7507 0.0166
H17 H 0.6648 0.7580 -0.0258
H18 H 0.7458 0.7520 0.0137
C14 C 0.7836(5) 0.6681(3) -0.03361(12)
H19 H 0.7719 0.6842 -0.0598
H20 H 0.7881 0.6306 -0.0368
H21 H 0.8596 0.6807 -0.0217
C15 C 0.5234(2) 0.56143(9) 0.10893(7)
C16 C 0.4606(2) 0.58753(9) 0.14533(7)
C17 C 0.3913(2) 0.55616(9) 0.17146(7)
C18 C 0.3132(2) 0.57830(9) 0.20127(7)
C19 C 0.3201(2) 0.63290(10) 0.20546(8)
H22 H 0.2709 0.6486 0.2253
C20 C 0.3958(2) 0.66528(9) 0.18185(8)
C21 C 0.4627(2) 0.64123(9) 0.15112(7)
H23 H 0.5107 0.6619 0.1338
C22 C 0.2243(2) 0.54753(10) 0.22888(8)
C23 C 0.1490(3) 0.50747(12) 0.20415(10)
H24 H 0.1027 0.5254 0.1834
H25 H 0.0924 0.4892 0.2219
H26 H 0.2047 0.4827 0.1917
C24 C 0.3010(3) 0.52122(13) 0.26291(9)
H27 H 0.3622 0.4984 0.2510
H28 H 0.2465 0.5011 0.2801
H29 H 0.3420 0.5478 0.2788
C25 C 0.1290(3) 0.58332(12) 0.24996(9)
H30 H 0.0790 0.6006 0.2298
H31 H 0.1721 0.6091 0.2660
H32 H 0.0764 0.5626 0.2673
C26 C 0.4069(3) 0.72450(10) 0.18872(9)
C27 C 0.3126(4) 0.74480(12) 0.21973(12)
H33 H 0.2297 0.7384 0.2099
H34 H 0.3244 0.7819 0.2236
H35 H 0.3243 0.7269 0.2452
C28 C 0.3850(4) 0.75380(12) 0.14925(11)
H36 H 0.4445 0.7425 0.1293
H37 H 0.3942 0.7909 0.1538
H38 H 0.3022 0.7467 0.1396
C29 C 0.5368(4) 0.73614(14) 0.20430(17)
H39 H 0.5971 0.7241 0.1848
H40 H 0.5495 0.7184 0.2298
H41 H 0.5461 0.7733 0.2082
C30 C 0.5774(2) 0.50952(9) 0.12424(7)
C31 C 0.5044(2) 0.47972(9) 0.15046(7)
C32 C 0.5347(3) 0.42684(10) 0.15862(8)
C33 C 0.6494(3) 0.41017(11) 0.14432(9)
H42 H 0.6731 0.3759 0.1504
C34 C 0.7319(3) 0.44039(10) 0.12163(9)
C35 C 0.6900(3) 0.48965(10) 0.11053(8)
H43 H 0.7389 0.5101 0.0933
C36 C 0.4479(3) 0.38763(10) 0.17974(11)
C37 C 0.4309(6) 0.39954(16) 0.22377(13)
H44 H 0.4012 0.4349 0.2268
H45 H 0.5092 0.3958 0.2376
H46 H 0.3713 0.3756 0.2352
C38 C 0.3212(4) 0.38884(15) 0.15811(19)
H47 H 0.2868 0.4236 0.1598
H48 H 0.2657 0.3644 0.1710
H49 H 0.3320 0.3793 0.1300
C39 C 0.4926(4) 0.33083(12) 0.17513(14)
H50 H 0.5717 0.3268 0.1884
H51 H 0.5012 0.3226 0.1467
H52 H 0.4330 0.3075 0.1873
C40 C 0.8592(3) 0.41839(12) 0.10983(11)
C41 C 0.8434(5) 0.3726(2) 0.0813(2)
H53 H 0.8025 0.3842 0.0569
H54 H 0.7940 0.3460 0.0943
H55 H 0.9237 0.3584 0.0746
C42 C 0.9273(4) 0.4003(2) 0.14854(16)
H56 H 0.9391 0.4298 0.1664
H57 H 1.0069 0.3858 0.1413
H58 H 0.8784 0.3740 0.1621
C43 C 0.9436(4) 0.45953(17) 0.09088(15)
H59 H 0.9066 0.4723 0.0662
H60 H 1.0232 0.4441 0.0849
H61 H 0.9543 0.4882 0.1096
C44 C 0.4191(3) 0.54779(11) 0.07761(7)
C45 C 0.4283(3) 0.50460(13) 0.05295(10)
H62 H 0.4983 0.4831 0.0547
C46 C 0.3344(5) 0.49242(17) 0.02535(12)
H63 H 0.3424 0.4629 0.0089
C47 C 0.2325(5) 0.5227(2) 0.02215(13)
H64 H 0.1687 0.5138 0.0042
C48 C 0.2242(4) 0.5664(2) 0.04550(12)
H65 H 0.1554 0.5884 0.0428
C49 C 0.3163(3) 0.57869(17) 0.07316(10)
H66 H 0.3081 0.6087 0.0891
loop_
_geom_bond_atom_site_label_1
_geom_bond_atom_site_label_2
_geom_bond_site_symmetry_1
_geom_bond_site_symmetry_2
O1 H1 1_555 1_555
O2 C17 1_555 1_555
C1 O1 1_555 1_555
C2 C1 1_555 1_555
C3 C2 1_555 1_555
H2 C3 1_555 1_555
C4 C3 1_555 1_555
C5 C4 1_555 1_555
H3 C5 1_555 1_555
C6 C1 1_555 1_555
C7 C2 1_555 1_555
C8 C7 1_555 1_555
H4 C8 1_555 1_555
H5 C8 1_555 1_555
H6 C8 1_555 1_555
C9 C7 1_555 1_555
H7 C9 1_555 1_555
H8 C9 1_555 1_555
H9 C9 1_555 1_555
C10 C7 1_555 1_555
H10 C10 1_555 1_555
H11 C10 1_555 1_555
H12 C10 1_555 1_555
C11 C4 1_555 1_555
C12 C11 1_555 1_555
H13 C12 1_555 1_555
H14 C12 1_555 1_555
H15 C12 1_555 1_555
C13 C11 1_555 1_555
H16 C13 1_555 1_555
H17 C13 1_555 1_555
H18 C13 1_555 1_555
C14 C11 1_555 1_555
H19 C14 1_555 1_555
H20 C14 1_555 1_555
H21 C14 1_555 1_555
C15 C6 1_555 1_555
C16 C15 1_555 1_555
C17 C16 1_555 1_555
C18 C17 1_555 1_555
C19 C18 1_555 1_555
H22 C19 1_555 1_555
C20 C19 1_555 1_555
C21 C16 1_555 1_555
H23 C21 1_555 1_555
C22 C18 1_555 1_555
C23 C22 1_555 1_555
H24 C23 1_555 1_555
H25 C23 1_555 1_555
H26 C23 1_555 1_555
C24 C22 1_555 1_555
H27 C24 1_555 1_555
H28 C24 1_555 1_555
H29 C24 1_555 1_555
C25 C22 1_555 1_555
H30 C25 1_555 1_555
H31 C25 1_555 1_555
H32 C25 1_555 1_555
C26 C20 1_555 1_555
C27 C26 1_555 1_555
H33 C27 1_555 1_555
H34 C27 1_555 1_555
H35 C27 1_555 1_555
C28 C26 1_555 1_555
H36 C28 1_555 1_555
H37 C28 1_555 1_555
H38 C28 1_555 1_555
C29 C26 1_555 1_555
H39 C29 1_555 1_555
H40 C29 1_555 1_555
H41 C29 1_555 1_555
C30 C15 1_555 1_555
C31 O2 1_555 1_555
C32 C31 1_555 1_555
C33 C32 1_555 1_555
H42 C33 1_555 1_555
C34 C33 1_555 1_555
C35 C30 1_555 1_555
H43 C35 1_555 1_555
C36 C32 1_555 1_555
C37 C36 1_555 1_555
H44 C37 1_555 1_555
H45 C37 1_555 1_555
H46 C37 1_555 1_555
C38 C36 1_555 1_555
H47 C38 1_555 1_555
H48 C38 1_555 1_555
H49 C38 1_555 1_555
C39 C36 1_555 1_555
H50 C39 1_555 1_555
H51 C39 1_555 1_555
H52 C39 1_555 1_555
C40 C34 1_555 1_555
C41 C40 1_555 1_555
H53 C41 1_555 1_555
H54 C41 1_555 1_555
H55 C41 1_555 1_555
C42 C40 1_555 1_555
H56 C42 1_555 1_555
H57 C42 1_555 1_555
H58 C42 1_555 1_555
C43 C40 1_555 1_555
H59 C43 1_555 1_555
H60 C43 1_555 1_555
H61 C43 1_555 1_555
C44 C15 1_555 1_555
C45 C44 1_555 1_555
H62 C45 1_555 1_555
C46 C45 1_555 1_555
H63 C46 1_555 1_555
C47 C46 1_555 1_555
H64 C47 1_555 1_555
C48 C47 1_555 1_555
H65 C48 1_555 1_555
C49 C44 1_555 1_555
H66 C49 1_555 1_555
C5 C6 1_555 1_555
C20 C21 1_555 1_555
C30 C31 1_555 1_555
C34 C35 1_555 1_555
C48 C49 1_555 1_555

#END
