
#######################################################################
#
#                 Cambridge Crystallographic Data Centre
#                                CCDC 
#
#######################################################################
#
# If this CIF has been generated from an entry in the Cambridge 
# Structural Database, then it will include bibliographic, chemical, 
# crystal, experimental, refinement or atomic coordinate data resulting 
# from the CCDC's data processing and validation procedures.
#
#######################################################################

data_TUGHUA
_chemical_formula_moiety         'C12 H28 N1 1+,C2 Cl3 O2 1-'
_chemical_name_systematic        'tri-n-butylammonium trichloroacetate'
_symmetry_cell_setting           triclinic
_symmetry_space_group_name_H-M   'P -1'
_symmetry_Int_Tables_number      2
_space_group_name_Hall           '-P 1'
loop_
_symmetry_equiv_pos_site_id
_symmetry_equiv_pos_as_xyz
1 x,y,z
2 -x,-y,-z
_cell_length_a                   9.6337(3)
_cell_length_b                   10.7137(5)
_cell_length_c                   18.8281(9)
_cell_angle_alpha                98.742(4)
_cell_angle_beta                 100.488(3)
_cell_angle_gamma                100.213(3)
_cell_volume                     1846.15
_exptl_crystal_colour            colorless
_exptl_crystal_description       rod
_chemical_melting_point          '355 K'
_cell_formula_units_Z            4
loop_
_atom_site_label
_atom_site_type_symbol
_atom_site_fract_x
_atom_site_fract_y
_atom_site_fract_z
Cl1 Cl 0.53631(6) 0.38339(6) 0.62531(4)
Cl2 Cl 0.29904(8) 0.42762(6) 0.52400(4)
Cl3 Cl 0.26368(8) 0.37877(7) 0.66717(4)
O1 O 0.38280(17) 0.12109(15) 0.57060(10)
O2 O 0.16499(19) 0.15606(18) 0.52780(13)
C1 C 0.3462(3) 0.3375(2) 0.59235(13)
C2 C 0.2922(2) 0.1885(2) 0.56014(13)
Cl4 Cl 0.09827(7) 0.81934(7) 0.86048(4)
Cl5 Cl 0.38823(8) 0.86275(7) 0.94636(4)
Cl6 Cl 0.31148(8) 0.71130(8) 0.79872(4)
O3 O 0.11578(19) 0.62080(18) 0.94910(11)
O4 O 0.3005(2) 0.55367(18) 0.91086(12)
C3 C 0.2154(2) 0.6272(2) 0.91706(13)
C4 C 0.2499(2) 0.7486(2) 0.88049(13)
N1 N 0.2507(2) 0.86728(18) 0.53294(10)
H1 H 0.2900 0.9553 0.5411
C5 C 0.4612(2) 0.8378(2) 0.62557(13)
H2 H 0.3976 0.8119 0.6589
H3 H 0.4963 0.9327 0.6387
C6 C 0.2524(3) 0.8864(3) 0.40162(13)
H4 H 0.3425 0.8535 0.4037
H5 H 0.2793 0.9816 0.4170
C7 C 0.1691(2) 0.8299(2) 0.45455(13)
H6 H 0.0768 0.8597 0.4505
H7 H 0.1457 0.7346 0.4401
C8 C 0.6713(3) 0.8014(3) 0.71559(14)
H8 H 0.7075 0.8949 0.7313
H9 H 0.7527 0.7577 0.7203
H10 H 0.6062 0.7708 0.7466
C9 C -0.0169(3) 0.7013(2) 0.63804(14)
H11 H 0.0299 0.7553 0.6869
H12 H -0.1005 0.7367 0.6175
C10 C 0.3756(2) 0.8012(2) 0.54657(13)
H13 H 0.4409 0.8239 0.5134
H14 H 0.3386 0.7066 0.5343
C11 C 0.1497(2) 0.8491(2) 0.58509(13)
H15 H 0.0676 0.8905 0.5704
H16 H 0.2017 0.8943 0.6353
C12 C 0.0905(3) 0.7091(2) 0.58749(14)
H17 H 0.1709 0.6681 0.6058
H18 H 0.0418 0.6616 0.5373
C13 C 0.5898(3) 0.7719(2) 0.63582(14)
H19 H 0.5551 0.6773 0.6197
H20 H 0.6562 0.8018 0.6045
C14 C 0.1635(3) 0.8513(3) 0.32277(14)
H21 H 0.2274 0.8748 0.2891
H22 H 0.1267 0.7566 0.3101
C15 C 0.0364(3) 0.9177(3) 0.31024(15)
H23 H -0.0328 0.8879 0.3395
H24 H -0.0110 0.8965 0.2580
H25 H 0.0711 1.0114 0.3252
C16 C -0.0706(3) 0.5633(3) 0.64717(16)
H26 H -0.1120 0.5083 0.5987
H27 H -0.1446 0.5619 0.6767
H28 H 0.0103 0.5308 0.6720
N2 N 0.21662(19) 0.34125(18) 0.96401(11)
H29 H 0.2464 0.4198 0.9503
C17 C -0.1604(2) 0.1147(2) 0.89533(13)
H30 H -0.1697 0.1154 0.8422
H31 H -0.2136 0.1778 0.9155
C18 C 0.3547(3) 0.5020(3) 1.16897(14)
H32 H 0.3483 0.4205 1.1881
H33 H 0.4478 0.5600 1.1950
C19 C -0.0015(2) 0.1551(2) 0.93379(13)
H34 H 0.0080 0.1567 0.9872
H35 H 0.0517 0.0913 0.9144
C20 C 0.3220(2) 0.2600(2) 0.94643(13)
H36 H 0.2982 0.1775 0.9636
H37 H 0.4201 0.3053 0.9740
C21 C -0.2276(3) -0.0201(3) 0.90539(15)
H38 H -0.1776 -0.0833 0.8837
H39 H -0.3300 -0.0421 0.8810
H40 H -0.2181 -0.0212 0.9580
C22 C 0.0640(2) 0.2883(2) 0.92160(13)
H41 H 0.0620 0.2836 0.8685
H42 H 0.0032 0.3492 0.9358
C23 C 0.4471(3) 0.1637(2) 0.85319(13)
H43 H 0.5400 0.2239 0.8771
H44 H 0.4405 0.0876 0.8773
C24 C 0.2225(2) 0.3715(2) 1.04548(13)
H45 H 0.1345 0.4022 1.0535
H46 H 0.2231 0.2914 1.0656
C25 C 0.2318(3) 0.5651(3) 1.18641(14)
H47 H 0.2363 0.6453 1.1670
H48 H 0.2410 0.5847 1.2398
H49 H 0.1391 0.5060 1.1636
C26 C 0.3235(3) 0.2304(2) 0.86500(13)
H50 H 0.3351 0.3117 0.8457
H51 H 0.2305 0.1738 0.8377
C27 C 0.3534(3) 0.4723(3) 1.08636(14)
H52 H 0.3537 0.5524 1.0661
H53 H 0.4417 0.4414 1.0793
C28 C 0.4464(3) 0.1202(3) 0.77276(16)
H54 H 0.3555 0.0593 0.7488
H55 H 0.5275 0.0778 0.7686
H56 H 0.4558 0.1953 0.7488
loop_
_geom_bond_atom_site_label_1
_geom_bond_atom_site_label_2
_geom_bond_site_symmetry_1
_geom_bond_site_symmetry_2
Cl1 C1 1_555 1_555
Cl2 C1 1_555 1_555
Cl3 C1 1_555 1_555
O1 C2 1_555 1_555
O2 C2 1_555 1_555
C1 C2 1_555 1_555
Cl4 C4 1_555 1_555
Cl5 C4 1_555 1_555
Cl6 C4 1_555 1_555
O3 C3 1_555 1_555
O4 C3 1_555 1_555
C3 C4 1_555 1_555
N1 H1 1_555 1_555
C5 H2 1_555 1_555
H3 C5 1_555 1_555
C6 H4 1_555 1_555
H5 C6 1_555 1_555
C7 N1 1_555 1_555
H6 C7 1_555 1_555
H7 C7 1_555 1_555
C8 H8 1_555 1_555
H9 C8 1_555 1_555
H10 C8 1_555 1_555
C9 H11 1_555 1_555
H12 C9 1_555 1_555
C10 N1 1_555 1_555
H13 C10 1_555 1_555
H14 C10 1_555 1_555
C11 N1 1_555 1_555
H15 C11 1_555 1_555
H16 C11 1_555 1_555
C12 C9 1_555 1_555
H17 C12 1_555 1_555
H18 C12 1_555 1_555
C13 C5 1_555 1_555
H19 C13 1_555 1_555
H20 C13 1_555 1_555
C14 C6 1_555 1_555
H21 C14 1_555 1_555
H22 C14 1_555 1_555
C15 C14 1_555 1_555
H23 C15 1_555 1_555
H24 C15 1_555 1_555
H25 C15 1_555 1_555
C16 C9 1_555 1_555
H26 C16 1_555 1_555
H27 C16 1_555 1_555
H28 C16 1_555 1_555
N2 H29 1_555 1_555
C17 H30 1_555 1_555
H31 C17 1_555 1_555
C18 H32 1_555 1_555
H33 C18 1_555 1_555
C19 C17 1_555 1_555
H34 C19 1_555 1_555
H35 C19 1_555 1_555
C20 N2 1_555 1_555
H36 C20 1_555 1_555
H37 C20 1_555 1_555
C21 C17 1_555 1_555
H38 C21 1_555 1_555
H39 C21 1_555 1_555
H40 C21 1_555 1_555
C22 N2 1_555 1_555
H41 C22 1_555 1_555
H42 C22 1_555 1_555
C23 H43 1_555 1_555
H44 C23 1_555 1_555
C24 N2 1_555 1_555
H45 C24 1_555 1_555
H46 C24 1_555 1_555
C25 C18 1_555 1_555
H47 C25 1_555 1_555
H48 C25 1_555 1_555
H49 C25 1_555 1_555
C26 C20 1_555 1_555
H50 C26 1_555 1_555
H51 C26 1_555 1_555
C27 C18 1_555 1_555
H52 C27 1_555 1_555
H53 C27 1_555 1_555
C28 C23 1_555 1_555
H54 C28 1_555 1_555
H55 C28 1_555 1_555
H56 C28 1_555 1_555
C5 C10 1_555 1_555
C6 C7 1_555 1_555
C8 C13 1_555 1_555
C11 C12 1_555 1_555
C19 C22 1_555 1_555
C23 C26 1_555 1_555
C24 C27 1_555 1_555

#END
