
#######################################################################
#
#                 Cambridge Crystallographic Data Centre
#                                CCDC 
#
#######################################################################
#
# If this CIF has been generated from an entry in the Cambridge 
# Structural Database, then it will include bibliographic, chemical, 
# crystal, experimental, refinement or atomic coordinate data resulting 
# from the CCDC's data processing and validation procedures.
#
#######################################################################

data_TUGJOV
_chemical_formula_moiety         'C16 H22 O4'
_chemical_name_systematic        2,3-Dibutyl-5,6-dihydroxyterephthalaldehyde
_symmetry_cell_setting           monoclinic
_symmetry_space_group_name_H-M   'P 21/a'
_symmetry_Int_Tables_number      14
_space_group_name_Hall           '-P 2yab'
loop_
_symmetry_equiv_pos_site_id
_symmetry_equiv_pos_as_xyz
1 x,y,z
2 1/2-x,1/2+y,-z
3 -x,-y,-z
4 1/2+x,1/2-y,z
_cell_length_a                   18.1497(16)
_cell_length_b                   7.2908(7)
_cell_length_c                   24.030(2)
_cell_angle_alpha                90
_cell_angle_beta                 109.146(5)
_cell_angle_gamma                90
_cell_volume                     3003.9
_exptl_crystal_colour            orange
_exptl_crystal_description       plate
_cell_formula_units_Z            8
loop_
_atom_site_label
_atom_site_type_symbol
_atom_site_fract_x
_atom_site_fract_y
_atom_site_fract_z
O1 O 0.72054(11) 0.7504(2) 0.85284(8)
O2 O 0.57000(11) 0.7878(3) 0.81536(9)
O4 O 0.85181(10) 0.7290(3) 0.82560(9)
C1 C 0.78093(15) 0.7306(4) 0.72408(12)
C5 C 0.71298(13) 0.7481(3) 0.79538(11)
C6 C 0.78263(13) 0.7355(3) 0.78221(11)
C7 C 0.64202(14) 0.7582(4) 0.74947(11)
C10 C 0.63989(15) 0.7496(4) 0.69009(12)
C16 C 0.57131(15) 0.7826(4) 0.76507(13)
C21 C 0.85935(16) 0.7200(4) 0.71716(14)
C22 C 0.7086(2) 0.7201(6) 0.61500(15)
C24 C 0.70933(16) 0.7363(4) 0.67716(12)
C25 C 0.56172(18) 0.7630(6) 0.64122(14)
H16 H 0.5220 0.7045 0.6540
H17 H 0.5646 0.6977 0.6068
C27 C 0.5382(2) 0.9627(8) 0.62436(15)
H21 H 0.5323 1.0257 0.6582
H22 H 0.5796 1.0230 0.6141
C28 C 0.4631(2) 0.9794(11) 0.57334(17)
H23 H 0.4211 0.9240 0.5842
H24 H 0.4680 0.9121 0.5399
C29 C 0.4421(4) 1.1777(12) 0.5553(2)
H25 H 0.3941 1.1813 0.5228
H26 H 0.4829 1.2325 0.5437
H27 H 0.4359 1.2443 0.5879
O8 O 0.87513(13) 0.7201(4) 0.67282(11)
C30 C 0.7022(4) 0.5021(10) 0.6004(3)
H28 H 0.7452 0.4396 0.6291
H29 H 0.6542 0.4557 0.6046
C31 C 0.7033(6) 0.4562(14) 0.5403(3)
H30 H 0.7484 0.5134 0.5344
H31 H 0.6570 0.5067 0.5114
C32 C 0.7061(9) 0.2494(16) 0.5301(7)
H32 H 0.7085 0.2277 0.4913
H33 H 0.6601 0.1928 0.5336
H34 H 0.7514 0.1981 0.5589
H37 H 0.904(2) 0.717(5) 0.7579(16)
H38 H 0.522(2) 0.787(5) 0.7319(15)
H39 H 0.680(2) 0.751(5) 0.8576(16)
H40 H 0.848(2) 0.727(5) 0.8596(16)
H42 H 0.662(2) 0.782(5) 0.5893(16)
H43 H 0.752(2) 0.761(5) 0.6086(16)
O3 O 0.00301(11) 0.2112(3) 0.08810(8)
O5 O 0.11808(10) 0.3132(3) 0.05247(8)
O6 O -0.13849(10) 0.0934(3) 0.06222(8)
O7 O 0.16319(10) 0.4225(3) -0.03249(9)
C2 C -0.08503(13) 0.1808(3) -0.01182(11)
C3 C -0.01266(13) 0.2238(3) 0.02985(11)
C4 C 0.03426(13) 0.3143(3) -0.04922(11)
C8 C 0.04802(13) 0.2848(3) 0.01038(11)
C9 C -0.31050(14) 0.2617(4) -0.17984(12)
H1 H -0.3312 0.1465 -0.1712
H2 H -0.3485 0.3566 -0.1811
C11 C -0.09808(13) 0.2026(3) -0.07285(11)
C12 C -0.03955(13) 0.2769(3) -0.09153(11)
C13 C -0.14640(15) 0.1142(4) 0.01031(12)
C14 C -0.02536(15) 0.1560(4) -0.18673(11)
H3 H 0.0284 0.1273 -0.1645
H4 H -0.0564 0.0479 -0.1866
C15 C -0.23585(13) 0.3046(4) -0.13030(11)
H5 H -0.2485 0.3308 -0.0949
H6 H -0.2127 0.4142 -0.1404
C17 C 0.09832(15) 0.3883(4) -0.06691(12)
C18 C -0.30093(17) 0.2480(4) -0.23989(13)
H7 H -0.3505 0.2215 -0.2689
H8 H -0.2647 0.1517 -0.2396
H9 H -0.2815 0.3623 -0.2493
C19 C -0.05279(14) 0.3125(3) -0.15593(11)
H10 H -0.0255 0.4238 -0.1596
H11 H -0.1080 0.3328 -0.1758
C20 C -0.17576(13) 0.1497(3) -0.11717(11)
H12 H -0.1963 0.0446 -0.1023
H13 H -0.1678 0.1131 -0.1536
C23 C -0.03111(19) 0.1994(5) -0.24948(13)
H14 H -0.0025 0.3114 -0.2499
H15 H -0.0066 0.1014 -0.2644
C26 C -0.1131(2) 0.2219(6) -0.28956(16)
H18 H -0.1130 0.2499 -0.3286
H19 H -0.1375 0.3201 -0.2755
H20 H -0.1414 0.1102 -0.2904
H35 H -0.1931(17) 0.084(4) -0.0175(13)
H36 H 0.0885(16) 0.414(4) -0.1084(13)
H41 H 0.148(2) 0.361(5) 0.0307(16)
H44 H -0.040(3) 0.172(6) 0.0910(19)
C33? C 0.7308(6) 0.5543(11) 0.5907(5)
C34? C 0.6667(6) 0.4087(12) 0.5846(5)
C35? C 0.6945(10) 0.2202(14) 0.5708(9)
H45? H 0.7806 0.5096 0.6165
H46? H 0.7357 0.5800 0.5524
H47? H 0.6546 0.4019 0.6210
H48? H 0.6196 0.4437 0.5533
H49? H 0.6549 0.1303 0.5682
H50? H 0.7415 0.1867 0.6016
H51? H 0.7044 0.2261 0.5340
loop_
_geom_bond_atom_site_label_1
_geom_bond_atom_site_label_2
_geom_bond_site_symmetry_1
_geom_bond_site_symmetry_2
O1 C5 1_555 1_555
O2 C16 1_555 1_555
O3 C3 1_555 1_555
O4 C6 1_555 1_555
O5 C8 1_555 1_555
O6 C13 1_555 1_555
O7 C17 1_555 1_555
C1 C6 1_555 1_555
C2 C3 1_555 1_555
C3 C8 1_555 1_555
C4 C8 1_555 1_555
C5 C6 1_555 1_555
C7 C5 1_555 1_555
C9 H1 1_555 1_555
H2 C9 1_555 1_555
C10 C7 1_555 1_555
C11 C2 1_555 1_555
C12 C4 1_555 1_555
C13 C2 1_555 1_555
C14 H3 1_555 1_555
H4 C14 1_555 1_555
C15 C9 1_555 1_555
H5 C15 1_555 1_555
H6 C15 1_555 1_555
C16 C7 1_555 1_555
C17 C4 1_555 1_555
C18 C9 1_555 1_555
H7 C18 1_555 1_555
H8 C18 1_555 1_555
H9 C18 1_555 1_555
C19 C12 1_555 1_555
H10 C19 1_555 1_555
H11 C19 1_555 1_555
C20 C11 1_555 1_555
H12 C20 1_555 1_555
H13 C20 1_555 1_555
C21 C1 1_555 1_555
C22 C24 1_555 1_555
C23 C14 1_555 1_555
H14 C23 1_555 1_555
H15 C23 1_555 1_555
C24 C1 1_555 1_555
C25 C10 1_555 1_555
H16 C25 1_555 1_555
H17 C25 1_555 1_555
C26 C23 1_555 1_555
H18 C26 1_555 1_555
H19 C26 1_555 1_555
H20 C26 1_555 1_555
C27 C25 1_555 1_555
H21 C27 1_555 1_555
H22 C27 1_555 1_555
C28 C27 1_555 1_555
H23 C28 1_555 1_555
H24 C28 1_555 1_555
C29 C28 1_555 1_555
H25 C29 1_555 1_555
H26 C29 1_555 1_555
H27 C29 1_555 1_555
O8 C21 1_555 1_555
C30 C22 1_555 1_555
H28 C30 1_555 1_555
H29 C30 1_555 1_555
C31 C30 1_555 1_555
H30 C31 1_555 1_555
H31 C31 1_555 1_555
C32 C31 1_555 1_555
H32 C32 1_555 1_555
H33 C32 1_555 1_555
H34 C32 1_555 1_555
H35 C13 1_555 1_555
H36 C17 1_555 1_555
H37 C21 1_555 1_555
H38 C16 1_555 1_555
H39 O1 1_555 1_555
H40 O4 1_555 1_555
H41 O5 1_555 1_555
H42 C22 1_555 1_555
H43 C22 1_555 1_555
H44 O3 1_555 1_555
C10 C24 1_555 1_555
C11 C12 1_555 1_555
C14 C19 1_555 1_555
C15 C20 1_555 1_555

#END
