
#######################################################################
#
#                 Cambridge Crystallographic Data Centre
#                                CCDC 
#
#######################################################################
#
# If this CIF has been generated from an entry in the Cambridge 
# Structural Database, then it will include bibliographic, chemical, 
# crystal, experimental, refinement or atomic coordinate data resulting 
# from the CCDC's data processing and validation procedures.
#
#######################################################################

data_TUGJIP
_chemical_formula_moiety         'C66 H78 N6 O6,C2 H3 N1,H2 O1'
_chemical_name_systematic        
'43,44,45,46,47,48-hexabutyl-3,10,17,24,31,38-hexaazaheptacyclo[38.2.2.2^12,15^.2^26,29^.0^4,9^.0^18,23^.0^32,37^]octatetraconta-1(42),2,4,6,8,10,12,14,16,18,20,22,24,26,28,30,32,34,36,38,40,43,45,47-tetracosaene-13,14,27,28,41,42-hexol acetonitrile solvate monohydrate'
_symmetry_cell_setting           triclinic
_symmetry_space_group_name_H-M   'P -1'
_symmetry_Int_Tables_number      2
_space_group_name_Hall           '-P 1'
loop_
_symmetry_equiv_pos_site_id
_symmetry_equiv_pos_as_xyz
1 x,y,z
2 -x,-y,-z
_cell_length_a                   13.2837(6)
_cell_length_b                   16.4922(7)
_cell_length_c                   16.7747(7)
_cell_angle_alpha                61.505(2)
_cell_angle_beta                 68.968(2)
_cell_angle_gamma                80.205(3)
_cell_volume                     3014.6
_exptl_crystal_colour            red
_exptl_crystal_description       blade
_cell_formula_units_Z            2
loop_
_atom_site_label
_atom_site_type_symbol
_atom_site_fract_x
_atom_site_fract_y
_atom_site_fract_z
C1 C 0.2680(3) 0.3098(3) 0.5859(3)
C2 C 0.1865(4) 0.3743(4) 0.5939(4)
H1 H 0.2017 0.4370 0.5564
C3 C 0.0848(4) 0.3461(4) 0.6564(4)
H2 H 0.0312 0.3896 0.6606
C4 C 0.0619(4) 0.2543(4) 0.7127(4)
H3 H -0.0071 0.2355 0.7556
C5 C 0.1402(4) 0.1897(4) 0.7062(4)
H4 H 0.1238 0.1273 0.7450
C6 C 0.2435(4) 0.2163(3) 0.6423(3)
C7 C 0.3066(4) 0.0727(4) 0.6474(4)
H5 H 0.2356 0.0597 0.6599
C8 C 0.3877(4) 0.0024(3) 0.6432(3)
C9 C 0.4954(4) 0.0236(3) 0.6163(3)
C10 C 0.3584(4) -0.0841(3) 0.6602(3)
C11 C 0.5760(4) -0.0404(3) 0.6026(3)
C12 C 0.4369(4) -0.1453(3) 0.6421(3)
C13 C 0.5479(3) -0.1226(3) 0.6123(3)
C14 C 0.6324(4) -0.1857(3) 0.5942(3)
H6 H 0.6140 -0.2375 0.5941
C15 C 0.8104(4) -0.2411(3) 0.5698(3)
C16 C 0.7848(4) -0.3348(3) 0.6198(3)
H7 H 0.7141 -0.3534 0.6578
C17 C 0.8626(4) -0.4002(3) 0.6138(3)
H8 H 0.8441 -0.4624 0.6463
C18 C 0.9675(4) -0.3732(3) 0.5596(3)
H9 H 1.0202 -0.4174 0.5555
C19 C 0.9952(4) -0.2815(3) 0.5113(3)
H10 H 1.0670 -0.2643 0.4763
C20 C 0.9171(3) -0.2139(3) 0.5143(3)
C21 C 1.0279(4) -0.0866(3) 0.3945(3)
H11 H 1.0721 -0.1269 0.3726
C22 C 1.0589(3) 0.0100(3) 0.3457(3)
C23 C 0.9912(3) 0.0711(3) 0.3767(3)
C24 C 1.1549(3) 0.0428(3) 0.2664(3)
C25 C 1.0161(3) 0.1646(3) 0.3282(3)
C26 C 1.1795(3) 0.1362(3) 0.2186(3)
C27 C 1.1100(3) 0.1981(3) 0.2505(3)
C28 C 1.1352(4) 0.2955(3) 0.2033(3)
H12 H 1.1977 0.3170 0.1510
C29 C 1.1070(3) 0.4476(3) 0.1835(3)
C30 C 1.2129(4) 0.4769(3) 0.1352(3)
H13 H 1.2671 0.4338 0.1316
C31 C 1.2399(4) 0.5685(3) 0.0924(3)
H14 H 1.3116 0.5870 0.0595
C32 C 1.1601(4) 0.6328(3) 0.0985(3)
H15 H 1.1781 0.6948 0.0695
C33 C 1.0540(4) 0.6057(3) 0.1472(3)
H16 H 1.0006 0.6495 0.1508
C34 C 1.0263(3) 0.5134(3) 0.1909(3)
C35 C 0.8377(4) 0.5333(3) 0.2344(3)
H17 H 0.8487 0.5916 0.1824
C36 C 0.7277(3) 0.5037(3) 0.2979(3)
C37 C 0.7113(3) 0.4188(3) 0.3801(3)
C38 C 0.6378(4) 0.5610(3) 0.2796(3)
C39 C 0.6079(4) 0.3881(3) 0.4415(3)
C40 C 0.5354(4) 0.5320(3) 0.3448(4)
C41 C 0.5199(4) 0.4442(3) 0.4246(3)
C42 C 0.4113(4) 0.4104(4) 0.4935(5)
H18 H 0.3684 0.4493 0.5181
C43 C 0.2382(4) -0.1075(4) 0.7030(4)
H19 H 0.2277 -0.1625 0.6997
H20 H 0.1996 -0.0573 0.6650
C44 C 0.1908(4) -0.1238(4) 0.8071(4)
H21 H 0.2197 -0.1808 0.8470
H22 H 0.2131 -0.0740 0.8123
C45 C 0.0685(4) -0.1294(5) 0.8441(4)
H23 H 0.0400 -0.0724 0.8039
H24 H 0.0465 -0.1791 0.8385
C46 C 0.0197(5) -0.1453(6) 0.9459(5)
H25 H -0.0574 -0.1488 0.9646
H26 H 0.0385 -0.0953 0.9519
H27 H 0.0465 -0.2021 0.9866
C47 C 0.4073(5) -0.2372(4) 0.6557(5)
H28 H 0.3425 -0.2283 0.6384
H29 H 0.4646 -0.2542 0.6108
C48 C 0.3893(7) -0.3123(5) 0.7480(6)
H30 H 0.3724 -0.2841 0.7905
H31 H 0.3226 -0.3399 0.7615
C49 C 0.4554(11) -0.3870(9) 0.7832(6)
H32 H 0.5225 -0.3590 0.7685
H33 H 0.4714 -0.4153 0.7410
C50 C 0.4400(6) -0.4638(5) 0.8771(5)
H34 H 0.5041 -0.5008 0.8773
H35 H 0.3804 -0.5006 0.8932
H36 H 0.4252 -0.4412 0.9234
C51 C 1.2267(4) -0.0233(3) 0.2322(4)
H37 H 1.2251 -0.0829 0.2869
H38 H 1.3004 -0.0006 0.2023
C52 C 1.1918(6) -0.0351(4) 0.1599(4)
H39 H 1.1209 -0.0633 0.1924
H40 H 1.1855 0.0255 0.1093
C53 C 1.2656(8) -0.0915(6) 0.1158(6)
H41 H 1.2744 -0.1519 0.1656
H42 H 1.3359 -0.0622 0.0798
C54 C 1.2204(11) -0.1023(8) 0.0485(8)
H43 H 1.2692 -0.1388 0.0204
H44 H 1.2125 -0.0425 -0.0012
H45 H 1.1514 -0.1323 0.0844
C55 C 1.2821(3) 0.1731(3) 0.1346(3)
H46 H 1.3011 0.1345 0.1023
H47 H 1.2687 0.2348 0.0895
C56 C 1.3768(4) 0.1763(4) 0.1638(4)
H48 H 1.3927 0.1145 0.2071
H49 H 1.3584 0.2141 0.1970
C57 C 1.4806(4) 0.2183(9) 0.0710(7)
H50 H 1.4912 0.1877 0.0314
H51 H 1.4698 0.2836 0.0334
C58 C 1.5770(7) 0.2050(14) 0.1009(11)
H52 H 1.6397 0.2279 0.0451
H53 H 1.5860 0.1405 0.1397
H54 H 1.5676 0.2381 0.1372
C59 C 0.6539(4) 0.6538(3) 0.1914(3)
H55 H 0.5891 0.6695 0.1731
H56 H 0.7126 0.6489 0.1390
C60 C 0.6792(5) 0.7314(3) 0.2067(4)
H57 H 0.6263 0.7297 0.2650
H58 H 0.7493 0.7197 0.2158
C61 C 0.6798(6) 0.8270(5) 0.1258(5)
H59 H 0.7186 0.8684 0.1306
H60 H 0.7180 0.8253 0.0653
C62 C 0.5686(8) 0.8641(7) 0.1264(8)
H61 H 0.5734 0.9247 0.0737
H62 H 0.5309 0.8674 0.1855
H63 H 0.5302 0.8241 0.1204
C63 C 0.4386(4) 0.5955(4) 0.3320(4)
H64 H 0.3912 0.5885 0.3943
H65 H 0.4636 0.6589 0.2942
C64 C 0.3752(4) 0.5765(5) 0.2835(5)
H66 H 0.3425 0.5159 0.3249
H67 H 0.4239 0.5765 0.2245
C65 C 0.2870(5) 0.6486(5) 0.2612(5)
H68 H 0.3208 0.7085 0.2166
H69 H 0.2493 0.6339 0.2298
C66 C 0.2071(5) 0.6550(5) 0.3465(5)
H70 H 0.1553 0.7021 0.3269
H71 H 0.2435 0.6702 0.3779
H72 H 0.1708 0.5969 0.3900
N1 N 0.3733(3) 0.3356(3) 0.5208(3)
N2 N 0.3279(3) 0.1525(3) 0.6346(3)
N3 N 0.7327(3) -0.1725(2) 0.5782(3)
N4 N 0.9424(3) -0.1186(2) 0.4666(3)
N5 N 1.0749(3) 0.3539(2) 0.2304(2)
N6 N 0.9192(3) 0.4813(2) 0.2484(3)
O1 O 0.5294(3) 0.1039(3) 0.6014(3)
O2 O 0.6783(3) -0.0157(2) 0.5785(3)
O3 O 0.8999(2) 0.0444(2) 0.4522(2)
O4 O 0.9438(2) 0.2205(2) 0.3597(2)
O5 O 0.7940(3) 0.3632(2) 0.4036(2)
O6 O 0.5942(3) 0.3044(2) 0.5196(3)
H76 H 0.895(4) -0.016(4) 0.477(4)
H77 H 0.975(6) 0.282(5) 0.320(5)
H78 H 0.856(6) 0.394(5) 0.351(5)
H79 H 0.721(5) -0.063(5) 0.579(5)
H80 H 0.453(7) 0.138(6) 0.615(6)
H83 H 0.542(11) 0.292(10) 0.530(11)
C67 C 1.0137(9) 0.3790(5) 0.0428(6)
C68 C 0.8945(5) 0.3823(5) 0.1009(5)
H73 H 0.8870 0.3550 0.1677
H74 H 0.8514 0.3486 0.0914
H75 H 0.8707 0.4452 0.0799
N7 N 1.1093(7) 0.3860(8) -0.0052(5)
O7 O 0.7508(3) 0.1695(3) 0.5366(3)
H81 H 0.790(5) 0.176(4) 0.490(4)
H82 H 0.716(7) 0.118(7) 0.550(6)
loop_
_geom_bond_atom_site_label_1
_geom_bond_atom_site_label_2
_geom_bond_site_symmetry_1
_geom_bond_site_symmetry_2
C1 C2 1_555 1_555
C2 H1 1_555 1_555
C3 C2 1_555 1_555
H2 C3 1_555 1_555
C4 C3 1_555 1_555
H3 C4 1_555 1_555
C5 C4 1_555 1_555
H4 C5 1_555 1_555
C6 C1 1_555 1_555
C7 H5 1_555 1_555
C8 C7 1_555 1_555
C9 C8 1_555 1_555
C10 C8 1_555 1_555
C11 C9 1_555 1_555
C12 C10 1_555 1_555
C13 C11 1_555 1_555
C14 C13 1_555 1_555
H6 C14 1_555 1_555
C15 C16 1_555 1_555
C16 H7 1_555 1_555
C17 C16 1_555 1_555
H8 C17 1_555 1_555
C18 C17 1_555 1_555
H9 C18 1_555 1_555
C19 C18 1_555 1_555
H10 C19 1_555 1_555
C20 C15 1_555 1_555
C21 H11 1_555 1_555
C22 C21 1_555 1_555
C23 C22 1_555 1_555
C24 C22 1_555 1_555
C25 C23 1_555 1_555
C26 C24 1_555 1_555
C27 C25 1_555 1_555
C28 C27 1_555 1_555
H12 C28 1_555 1_555
C29 C30 1_555 1_555
C30 H13 1_555 1_555
C31 C30 1_555 1_555
H14 C31 1_555 1_555
C32 C31 1_555 1_555
H15 C32 1_555 1_555
C33 C32 1_555 1_555
H16 C33 1_555 1_555
C34 C29 1_555 1_555
C35 H17 1_555 1_555
C36 C35 1_555 1_555
C37 C36 1_555 1_555
C38 C36 1_555 1_555
C39 C37 1_555 1_555
C40 C38 1_555 1_555
C41 C39 1_555 1_555
C42 C41 1_555 1_555
H18 C42 1_555 1_555
C43 C10 1_555 1_555
H19 C43 1_555 1_555
H20 C43 1_555 1_555
C44 C43 1_555 1_555
H21 C44 1_555 1_555
H22 C44 1_555 1_555
C45 C44 1_555 1_555
H23 C45 1_555 1_555
H24 C45 1_555 1_555
C46 C45 1_555 1_555
H25 C46 1_555 1_555
H26 C46 1_555 1_555
H27 C46 1_555 1_555
C47 C12 1_555 1_555
H28 C47 1_555 1_555
H29 C47 1_555 1_555
C48 C47 1_555 1_555
H30 C48 1_555 1_555
H31 C48 1_555 1_555
C49 C48 1_555 1_555
H32 C49 1_555 1_555
H33 C49 1_555 1_555
C50 C49 1_555 1_555
H34 C50 1_555 1_555
H35 C50 1_555 1_555
H36 C50 1_555 1_555
C51 C24 1_555 1_555
H37 C51 1_555 1_555
H38 C51 1_555 1_555
C52 C51 1_555 1_555
H39 C52 1_555 1_555
H40 C52 1_555 1_555
C53 C52 1_555 1_555
H41 C53 1_555 1_555
H42 C53 1_555 1_555
C54 C53 1_555 1_555
H43 C54 1_555 1_555
H44 C54 1_555 1_555
H45 C54 1_555 1_555
C55 C26 1_555 1_555
H46 C55 1_555 1_555
H47 C55 1_555 1_555
C56 C55 1_555 1_555
H48 C56 1_555 1_555
H49 C56 1_555 1_555
C57 C56 1_555 1_555
H50 C57 1_555 1_555
H51 C57 1_555 1_555
C58 C57 1_555 1_555
H52 C58 1_555 1_555
H53 C58 1_555 1_555
H54 C58 1_555 1_555
C59 C38 1_555 1_555
H55 C59 1_555 1_555
H56 C59 1_555 1_555
C60 C59 1_555 1_555
H57 C60 1_555 1_555
H58 C60 1_555 1_555
C61 C60 1_555 1_555
H59 C61 1_555 1_555
H60 C61 1_555 1_555
C62 C61 1_555 1_555
H61 C62 1_555 1_555
H62 C62 1_555 1_555
H63 C62 1_555 1_555
C63 C40 1_555 1_555
H64 C63 1_555 1_555
H65 C63 1_555 1_555
C64 C63 1_555 1_555
H66 C64 1_555 1_555
H67 C64 1_555 1_555
C65 C64 1_555 1_555
H68 C65 1_555 1_555
H69 C65 1_555 1_555
C66 C65 1_555 1_555
H70 C66 1_555 1_555
H71 C66 1_555 1_555
H72 C66 1_555 1_555
C67 C68 1_555 1_555
C68 H73 1_555 1_555
H74 C68 1_555 1_555
H75 C68 1_555 1_555
N1 C1 1_555 1_555
N2 C6 1_555 1_555
N3 C14 1_555 1_555
N4 C20 1_555 1_555
N5 C28 1_555 1_555
N6 C34 1_555 1_555
N7 C67 1_555 1_555
O1 C9 1_555 1_555
O2 C11 1_555 1_555
O3 C23 1_555 1_555
O4 C25 1_555 1_555
O5 C37 1_555 1_555
O6 C39 1_555 1_555
O7 H81 1_555 1_555
H76 O3 1_555 1_555
H77 O4 1_555 1_555
H78 O5 1_555 1_555
H79 O2 1_555 1_555
H80 O1 1_555 1_555
H82 O7 1_555 1_555
H83 O6 1_555 1_555
C5 C6 1_555 1_555
C7 N2 1_555 1_555
C12 C13 1_555 1_555
C15 N3 1_555 1_555
C19 C20 1_555 1_555
C21 N4 1_555 1_555
C26 C27 1_555 1_555
C29 N5 1_555 1_555
C33 C34 1_555 1_555
C35 N6 1_555 1_555
C40 C41 1_555 1_555
C42 N1 1_555 1_555

#END
