
#######################################################################
#
#                 Cambridge Crystallographic Data Centre
#                                CCDC 
#
#######################################################################
#
# If this CIF has been generated from an entry in the Cambridge 
# Structural Database, then it will include bibliographic, chemical, 
# crystal, experimental, refinement or atomic coordinate data resulting 
# from the CCDC's data processing and validation procedures.
#
#######################################################################

data_TUGQIX
_chemical_name_common            
'25,26,27,28-tetrakis((diethoxyphosphoryl)oxy)-2,8,14,20-tetrathiacalix(4)arene chloroform solvate'
_chemical_formula_moiety         'C40 H52 O16 P4 S4,C1 H1 Cl3'
_chemical_name_systematic        
'octaethyl 2,8,14,20-tetrathiapentacyclo[19.3.1.1^3,7^.1^9,13^.1^15,19^]octacosa-1(25),3(28),4,6,9(27),10,12,15(26),16,18,21,23-dodecaene-25,26,27,28-tetrayl tetrakis(phosphate) chloroform solvate'
_symmetry_cell_setting           monoclinic
_symmetry_space_group_name_H-M   'P 21/c'
_symmetry_Int_Tables_number      14
_space_group_name_Hall           '-P 2ybc'
loop_
_symmetry_equiv_pos_site_id
_symmetry_equiv_pos_as_xyz
1 x,y,z
2 -x,1/2+y,1/2-z
3 -x,-y,-z
4 x,1/2-y,1/2+z
_cell_length_a                   18.964(4)
_cell_length_b                   11.944(2)
_cell_length_c                   24.254(5)
_cell_angle_alpha                90
_cell_angle_beta                 109.415(2)
_cell_angle_gamma                90
_cell_volume                     5181.28
_exptl_crystal_colour            colorless
_exptl_crystal_description       prism
_cell_formula_units_Z            4
loop_
_atom_site_label
_atom_site_type_symbol
_atom_site_fract_x
_atom_site_fract_y
_atom_site_fract_z
S1 S 0.22700(3) 0.16893(5) 0.40077(2)
S2 S 0.21611(3) 0.46697(5) 0.22670(3)
S3 S 0.11821(3) 0.81458(5) 0.33273(2)
S4 S 0.14293(4) 0.52035(5) 0.51328(3)
O1 O 0.27543(9) 0.37277(13) 0.34937(7)
C1 C 0.23306(13) 0.29736(18) 0.30760(10)
C2 C 0.21417(13) 0.19365(19) 0.32550(10)
C3 C 0.18073(13) 0.11296(19) 0.28336(10)
H1 H 0.1698 0.0409 0.2951
C4 C 0.16325(13) 0.1375(2) 0.22423(11)
H2 H 0.1441 0.0806 0.1958
C5 C 0.17379(13) 0.24520(19) 0.20686(10)
H3 H 0.1579 0.2636 0.1665
C6 C 0.20773(13) 0.32665(18) 0.24861(10)
P1 P 0.36429(3) 0.37249(5) 0.36049(3)
O2 O 0.38226(10) 0.34863(16) 0.30761(8)
O3 O 0.40056(10) 0.28587(15) 0.41022(8)
C7 C 0.40330(14) 0.3044(2) 0.47033(11)
H4 H 0.3538 0.3291 0.4710
H5 H 0.4404 0.3632 0.4888
C8 C 0.42499(17) 0.1963(3) 0.50285(13)
H6 H 0.3863 0.1400 0.4858
H7 H 0.4302 0.2078 0.5440
H8 H 0.4727 0.1705 0.5000
O4 O 0.38873(10) 0.48775(15) 0.39140(8)
C9 C 0.36426(15) 0.5901(2) 0.35735(12)
H9 H 0.3201 0.6218 0.3650
H10 H 0.3502 0.5736 0.3151
C10 C 0.4275(2) 0.6716(3) 0.37520(19)
H11 H 0.4710 0.6392 0.3679
H12 H 0.4403 0.6885 0.4169
H13 H 0.4126 0.7407 0.3525
O5 O 0.21769(9) 0.69726(13) 0.27505(7)
C11 C 0.15307(12) 0.63734(18) 0.27177(9)
C12 C 0.14386(13) 0.52878(18) 0.24898(9)
C13 C 0.07789(13) 0.47179(19) 0.24393(10)
H14 H 0.0709 0.3978 0.2288
C14 C 0.02234(13) 0.5222(2) 0.26085(10)
H15 H -0.0235 0.4842 0.2552
C15 C 0.03366(13) 0.62755(19) 0.28589(10)
H16 H -0.0042 0.6610 0.2981
C16 C 0.10008(13) 0.68495(18) 0.29334(10)
P2 P 0.21088(3) 0.78863(5) 0.22561(3)
O6 O 0.14969(10) 0.86874(13) 0.21690(7)
O7 O 0.29255(10) 0.83363(15) 0.25095(8)
C17 C 0.3170(2) 0.9266(4) 0.2219(2)
H17 H 0.2939 0.9977 0.2281
H18 H 0.3024 0.9125 0.1793
C18 C 0.4021(3) 0.9326(5) 0.2492(3)
H19 H 0.4154 0.9578 0.2899
H20 H 0.4219 0.9855 0.2272
H21 H 0.4235 0.8583 0.2482
O8 O 0.20743(10) 0.72067(15) 0.16955(8)
C19 C 0.14623(15) 0.7328(2) 0.11370(11)
H22 H 0.1661 0.7247 0.0810
H23 H 0.1239 0.8083 0.1113
C20 C 0.08717(15) 0.6456(2) 0.10839(12)
H24 H 0.1096 0.5709 0.1119
H25 H 0.0478 0.6526 0.0703
H26 H 0.0656 0.6563 0.1395
O9 O 0.19872(9) 0.65566(14) 0.42998(7)
C21 C 0.12962(12) 0.69007(19) 0.43215(10)
C22 C 0.08906(13) 0.77009(19) 0.39218(10)
C23 C 0.02177(13) 0.8093(2) 0.39660(10)
H27 H -0.0051 0.8665 0.3710
C24 C -0.00606(14) 0.7654(2) 0.43804(11)
H28 H -0.0505 0.7950 0.4421
C25 C 0.03112(13) 0.6779(2) 0.47356(10)
H29 H 0.0100 0.6445 0.5000
C26 C 0.09920(13) 0.63864(19) 0.47086(10)
P3 P 0.27380(3) 0.70223(5) 0.47720(3)
O10 O 0.26269(10) 0.76039(15) 0.52692(8)
O11 O 0.32105(9) 0.59262(14) 0.48865(8)
C27 C 0.39773(14) 0.5962(2) 0.52990(12)
H30 H 0.4139 0.6749 0.5386
H31 H 0.4320 0.5592 0.5125
C28 C 0.40059(18) 0.5378(3) 0.58470(14)
H32 H 0.3667 0.5749 0.6018
H33 H 0.4517 0.5403 0.6125
H34 H 0.3853 0.4596 0.5759
O12 O 0.31336(10) 0.77467(14) 0.44217(8)
C29 C 0.30199(14) 0.8957(2) 0.43529(12)
H35 H 0.3171 0.9325 0.4740
H36 H 0.2486 0.9125 0.4145
C30 C 0.34890(19) 0.9371(2) 0.40072(15)
H37 H 0.4016 0.9203 0.4218
H38 H 0.3424 1.0182 0.3952
H39 H 0.3334 0.8999 0.3625
O13 O 0.23949(9) 0.32999(13) 0.50008(7)
C31 C 0.17126(12) 0.33738(19) 0.45377(10)
C32 C 0.11958(13) 0.41943(19) 0.45538(10)
C33 C 0.05032(13) 0.42123(19) 0.41106(10)
H40 H 0.0141 0.4756 0.4119
C34 C 0.03376(13) 0.3443(2) 0.36564(10)
H41 H -0.0141 0.3449 0.3362
C35 C 0.08673(13) 0.2668(2) 0.36310(10)
H42 H 0.0754 0.2152 0.3315
C36 C 0.15678(13) 0.26375(18) 0.40661(10)
P4 P 0.23924(3) 0.25185(5) 0.55330(3)
O14 O 0.17701(10) 0.26904(15) 0.57509(7)
O15 O 0.31887(10) 0.28109(16) 0.59612(7)
C37 C 0.33756(15) 0.2385(3) 0.65637(11)
H43 H 0.3201 0.1603 0.6558
H44 H 0.3127 0.2847 0.6784
C38 C 0.42015(16) 0.2438(3) 0.68491(13)
H45 H 0.4443 0.1969 0.6632
H46 H 0.4335 0.2166 0.7252
H47 H 0.4370 0.3214 0.6851
O16 O 0.24389(10) 0.13049(14) 0.52997(8)
C39 C 0.20011(17) 0.0373(2) 0.54108(12)
H48 H 0.1895 0.0511 0.5778
H49 H 0.2292 -0.0329 0.5457
C40 C 0.12816(18) 0.0252(3) 0.49150(13)
H50 H 0.0982 0.0933 0.4883
H51 H 0.1004 -0.0391 0.4987
H52 H 0.1388 0.0136 0.4550
C44 C 0.60274(16) 1.1263(2) 0.36292(14)
H61 H 0.6471 1.1721 0.3855
Cl1 Cl 0.58945(5) 1.01680(7) 0.40788(4)
Cl2 Cl 0.61860(6) 1.06771(8) 0.30115(5)
Cl3 Cl 0.52313(4) 1.21156(7) 0.34098(3)
C41? C 0.4291(5) 0.6540(10) 0.3516(6)
H53? H 0.4667 0.6641 0.3903
H54? H 0.4120 0.7273 0.3341
H55? H 0.4511 0.6123 0.3265
C42? C 0.3217(4) 0.8993(5) 0.2119(2)
H56? H 0.2821 0.9479 0.1861
H57? H 0.3404 0.8493 0.1873
C43? C 0.3854(4) 0.9699(6) 0.2522(4)
H58? H 0.4226 0.9206 0.2789
H59? H 0.3654 1.0212 0.2749
H60? H 0.4089 1.0130 0.2287
loop_
_geom_bond_atom_site_label_1
_geom_bond_atom_site_label_2
_geom_bond_site_symmetry_1
_geom_bond_site_symmetry_2
S1 C2 1_555 1_555
S2 C6 1_555 1_555
S3 C16 1_555 1_555
S4 C26 1_555 1_555
O1 C1 1_555 1_555
C1 C2 1_555 1_555
C2 C3 1_555 1_555
C3 H1 1_555 1_555
C4 C3 1_555 1_555
H2 C4 1_555 1_555
C5 C4 1_555 1_555
H3 C5 1_555 1_555
C6 C1 1_555 1_555
P1 O1 1_555 1_555
O2 P1 1_555 1_555
O3 P1 1_555 1_555
C7 O3 1_555 1_555
H4 C7 1_555 1_555
H5 C7 1_555 1_555
C8 C7 1_555 1_555
H6 C8 1_555 1_555
H7 C8 1_555 1_555
H8 C8 1_555 1_555
O4 P1 1_555 1_555
C9 O4 1_555 1_555
H9 C9 1_555 1_555
H10 C9 1_555 1_555
C10 C9 1_555 1_555
H11 C10 1_555 1_555
H12 C10 1_555 1_555
H13 C10 1_555 1_555
O5 C11 1_555 1_555
C11 C12 1_555 1_555
C12 S2 1_555 1_555
C13 C12 1_555 1_555
H14 C13 1_555 1_555
C14 C13 1_555 1_555
H15 C14 1_555 1_555
C15 C14 1_555 1_555
H16 C15 1_555 1_555
C16 C11 1_555 1_555
P2 O5 1_555 1_555
O6 P2 1_555 1_555
O7 P2 1_555 1_555
C17 O7 1_555 1_555
H17 C17 1_555 1_555
H18 C17 1_555 1_555
C18 C17 1_555 1_555
H19 C18 1_555 1_555
H20 C18 1_555 1_555
H21 C18 1_555 1_555
O8 P2 1_555 1_555
C19 O8 1_555 1_555
H22 C19 1_555 1_555
H23 C19 1_555 1_555
C20 C19 1_555 1_555
H24 C20 1_555 1_555
H25 C20 1_555 1_555
H26 C20 1_555 1_555
O9 C21 1_555 1_555
C21 C22 1_555 1_555
C22 S3 1_555 1_555
C23 C22 1_555 1_555
H27 C23 1_555 1_555
C24 C23 1_555 1_555
H28 C24 1_555 1_555
C25 C24 1_555 1_555
H29 C25 1_555 1_555
C26 C21 1_555 1_555
P3 O9 1_555 1_555
O10 P3 1_555 1_555
O11 P3 1_555 1_555
C27 O11 1_555 1_555
H30 C27 1_555 1_555
H31 C27 1_555 1_555
C28 C27 1_555 1_555
H32 C28 1_555 1_555
H33 C28 1_555 1_555
H34 C28 1_555 1_555
O12 P3 1_555 1_555
C29 O12 1_555 1_555
H35 C29 1_555 1_555
H36 C29 1_555 1_555
C30 C29 1_555 1_555
H37 C30 1_555 1_555
H38 C30 1_555 1_555
H39 C30 1_555 1_555
O13 C31 1_555 1_555
C31 C32 1_555 1_555
C32 S4 1_555 1_555
C33 C32 1_555 1_555
H40 C33 1_555 1_555
C34 C33 1_555 1_555
H41 C34 1_555 1_555
C35 C34 1_555 1_555
H42 C35 1_555 1_555
C36 S1 1_555 1_555
P4 O13 1_555 1_555
O14 P4 1_555 1_555
O15 P4 1_555 1_555
C37 O15 1_555 1_555
H43 C37 1_555 1_555
H44 C37 1_555 1_555
C38 C37 1_555 1_555
H45 C38 1_555 1_555
H46 C38 1_555 1_555
H47 C38 1_555 1_555
O16 P4 1_555 1_555
C39 O16 1_555 1_555
H48 C39 1_555 1_555
H49 C39 1_555 1_555
C40 C39 1_555 1_555
H50 C40 1_555 1_555
H51 C40 1_555 1_555
H52 C40 1_555 1_555
C44 H61 1_555 1_555
Cl1 C44 1_555 1_555
Cl2 C44 1_555 1_555
Cl3 C44 1_555 1_555
C5 C6 1_555 1_555
C15 C16 1_555 1_555
C25 C26 1_555 1_555
C31 C36 1_555 1_555
C35 C36 1_555 1_555

#END
