
#######################################################################
#
#                 Cambridge Crystallographic Data Centre
#                                CCDC 
#
#######################################################################
#
# If this CIF has been generated from an entry in the Cambridge 
# Structural Database, then it will include bibliographic, chemical, 
# crystal, experimental, refinement or atomic coordinate data resulting 
# from the CCDC's data processing and validation procedures.
#
#######################################################################

data_TUGWIC
_chemical_formula_moiety         'C64 H40 N6'
_chemical_name_systematic        
2,3-bis(4-(3,5-dihydro-4H-dinaphtho[2,1-c:1',2'-e]azepin-4-yl)phenyl)buta-1,3-diene-1,1,4,4-tetracarbonitrile
_symmetry_cell_setting           orthorhombic
_symmetry_space_group_name_H-M   'P 21 21 2'
_symmetry_Int_Tables_number      18
_space_group_name_Hall           'P 2 2ab'
loop_
_symmetry_equiv_pos_site_id
_symmetry_equiv_pos_as_xyz
1 x,y,z
2 -x,-y,z
3 1/2-x,1/2+y,-z
4 1/2+x,1/2-y,-z
_cell_length_a                   26.1580(12)
_cell_length_b                   9.6810(13)
_cell_length_c                   9.828(3)
_cell_angle_alpha                90
_cell_angle_beta                 90
_cell_angle_gamma                90
_cell_volume                     2488.8
_exptl_crystal_colour            orange
_cell_formula_units_Z            2
loop_
_atom_site_label
_atom_site_type_symbol
_atom_site_fract_x
_atom_site_fract_y
_atom_site_fract_z
C1 C 0.22463(11) 0.8711(3) -0.1772(3)
C2 C 0.25829(11) 0.8507(3) -0.0564(3)
C3 C 0.23708(11) 0.8735(3) 0.0711(3)
C4 C 0.26756(13) 0.8572(3) 0.1898(3)
H1 H 0.2529 0.8744 0.2766
C5 C 0.31668(13) 0.8178(4) 0.1814(3)
H2 H 0.3365 0.8111 0.2621
C6 C 0.33937(12) 0.7863(3) 0.0547(4)
C7 C 0.30973(11) 0.8028(3) -0.0667(3)
C8 C 0.33254(12) 0.7647(3) -0.1926(3)
H3 H 0.3132 0.7713 -0.2741
C9 C 0.38227(13) 0.7182(3) -0.1981(4)
H4 H 0.3969 0.6935 -0.2832
C10 C 0.41149(14) 0.7072(4) -0.0788(4)
H5 H 0.4460 0.6772 -0.0837
C11 C 0.39062(13) 0.7391(4) 0.0435(5)
H6 H 0.4107 0.7297 0.1235
C12 C 0.18152(11) 0.9106(3) 0.0853(3)
H7 H 0.1749 0.9452 0.1784
H8 H 0.1729 0.9851 0.0202
N1 N 0.14906(9) 0.7882(3) 0.0583(3)
C13 C 0.16356(12) 0.7072(3) -0.0628(3)
H9 H 0.1346 0.6480 -0.0910
H10 H 0.1929 0.6467 -0.0406
C14 C 0.17782(11) 0.8026(3) -0.1774(3)
C15 C 0.14269(12) 0.8229(4) -0.2840(3)
H11 H 0.1108 0.7758 -0.2826
C16 C 0.15391(11) 0.9094(3) -0.3892(3)
H12 H 0.1297 0.9224 -0.4602
C17 C 0.20139(11) 0.9803(3) -0.3937(3)
C18 C 0.23678(10) 0.9634(3) -0.2864(3)
C19 C 0.28311(12) 1.0400(3) -0.2935(3)
H13 H 0.3066 1.0348 -0.2200
C20 C 0.29466(13) 1.1200(3) -0.4019(3)
H14 H 0.3265 1.1671 -0.4050
C21 C 0.25977(14) 1.1340(4) -0.5106(4)
H15 H 0.2682 1.1899 -0.5869
C22 C 0.21391(13) 1.0669(4) -0.5056(3)
H16 H 0.1901 1.0782 -0.5777
C23 C 0.11301(10) 0.7415(3) 0.1469(3)
C24 C 0.09504(10) 0.6035(3) 0.1387(3)
H17 H 0.1074 0.5444 0.0689
C25 C 0.06019(10) 0.5549(3) 0.2298(3)
H18 H 0.0498 0.4611 0.2234
C26 C 0.03887(10) 0.6377(3) 0.3334(3)
C27 C 0.00204(10) 0.5776(3) 0.4253(3)
C28 C -0.03119(11) 0.6437(3) 0.5111(3)
C29 C -0.06208(12) 0.5656(3) 0.6040(4)
N2 N -0.08649(14) 0.5038(4) 0.6794(4)
C30 C -0.03988(11) 0.7899(3) 0.5145(4)
N3 N -0.04982(11) 0.9056(3) 0.5149(4)
C31 C 0.05599(10) 0.7760(3) 0.3396(3)
H19 H 0.0424 0.8359 0.4071
C32 C 0.09174(10) 0.8253(3) 0.2501(3)
H20 H 0.1026 0.9186 0.2576
C1A C -0.22463(11) 0.1289(3) -0.1772(3)
C2A C -0.25829(11) 0.1493(3) -0.0564(3)
C3A C -0.23708(11) 0.1265(3) 0.0711(3)
C4A C -0.26756(13) 0.1428(3) 0.1898(3)
H1A H -0.2529 0.1256 0.2766
C5A C -0.31668(13) 0.1822(4) 0.1814(3)
H2A H -0.3365 0.1889 0.2621
C6A C -0.33937(12) 0.2137(3) 0.0547(4)
C7A C -0.30973(11) 0.1972(3) -0.0667(3)
C8A C -0.33254(12) 0.2353(3) -0.1926(3)
H3A H -0.3132 0.2287 -0.2741
C9A C -0.38227(13) 0.2818(3) -0.1981(4)
H4A H -0.3969 0.3065 -0.2832
C10A C -0.41149(14) 0.2928(4) -0.0788(4)
H5A H -0.4460 0.3228 -0.0837
C11A C -0.39062(13) 0.2609(4) 0.0435(5)
H6A H -0.4107 0.2703 0.1235
C12A C -0.18152(11) 0.0894(3) 0.0853(3)
H7A H -0.1749 0.0548 0.1784
H8A H -0.1729 0.0149 0.0202
N1A N -0.14906(9) 0.2118(3) 0.0583(3)
C13A C -0.16356(12) 0.2928(3) -0.0628(3)
H9A H -0.1346 0.3520 -0.0910
H10A H -0.1929 0.3533 -0.0406
C14A C -0.17782(11) 0.1974(3) -0.1774(3)
C15A C -0.14269(12) 0.1771(4) -0.2840(3)
H11A H -0.1108 0.2242 -0.2826
C16A C -0.15391(11) 0.0906(3) -0.3892(3)
H12A H -0.1297 0.0776 -0.4602
C17A C -0.20139(11) 0.0197(3) -0.3937(3)
C18A C -0.23678(10) 0.0366(3) -0.2864(3)
C19A C -0.28311(12) -0.0400(3) -0.2935(3)
H13A H -0.3066 -0.0348 -0.2200
C20A C -0.29466(13) -0.1200(3) -0.4019(3)
H14A H -0.3265 -0.1671 -0.4050
C21A C -0.25977(14) -0.1340(4) -0.5106(4)
H15A H -0.2682 -0.1899 -0.5869
C22A C -0.21391(13) -0.0669(4) -0.5056(3)
H16A H -0.1901 -0.0782 -0.5777
C23A C -0.11301(10) 0.2585(3) 0.1469(3)
C24A C -0.09504(10) 0.3965(3) 0.1387(3)
H17A H -0.1074 0.4556 0.0689
C25A C -0.06019(10) 0.4451(3) 0.2298(3)
H18A H -0.0498 0.5389 0.2234
C26A C -0.03887(10) 0.3623(3) 0.3334(3)
C27A C -0.00204(10) 0.4224(3) 0.4253(3)
C28A C 0.03119(11) 0.3563(3) 0.5111(3)
C29A C 0.06208(12) 0.4344(3) 0.6040(4)
N2A N 0.08649(14) 0.4962(4) 0.6794(4)
C30A C 0.03988(11) 0.2101(3) 0.5145(4)
N3A N 0.04982(11) 0.0944(3) 0.5149(4)
C31A C -0.05599(10) 0.2240(3) 0.3396(3)
H19A H -0.0424 0.1641 0.4071
C32A C -0.09174(10) 0.1747(3) 0.2501(3)
H20A H -0.1026 0.0814 0.2576
loop_
_geom_bond_atom_site_label_1
_geom_bond_atom_site_label_2
_geom_bond_site_symmetry_1
_geom_bond_site_symmetry_2
C1 C2 1_555 1_555
C2 C3 1_555 1_555
C3 C4 1_555 1_555
C4 H1 1_555 1_555
C5 C4 1_555 1_555
H2 C5 1_555 1_555
C6 C5 1_555 1_555
C7 C2 1_555 1_555
C8 C7 1_555 1_555
H3 C8 1_555 1_555
C9 C8 1_555 1_555
H4 C9 1_555 1_555
C10 C9 1_555 1_555
H5 C10 1_555 1_555
C11 C6 1_555 1_555
H6 C11 1_555 1_555
C12 C3 1_555 1_555
H7 C12 1_555 1_555
H8 C12 1_555 1_555
N1 C12 1_555 1_555
C13 N1 1_555 1_555
H9 C13 1_555 1_555
H10 C13 1_555 1_555
C14 C1 1_555 1_555
C15 C14 1_555 1_555
H11 C15 1_555 1_555
C16 C15 1_555 1_555
H12 C16 1_555 1_555
C17 C16 1_555 1_555
C18 C1 1_555 1_555
C19 C18 1_555 1_555
H13 C19 1_555 1_555
C20 C19 1_555 1_555
H14 C20 1_555 1_555
C21 C20 1_555 1_555
H15 C21 1_555 1_555
C22 C17 1_555 1_555
H16 C22 1_555 1_555
C23 N1 1_555 1_555
C24 C23 1_555 1_555
H17 C24 1_555 1_555
C25 C24 1_555 1_555
H18 C25 1_555 1_555
C26 C25 1_555 1_555
C27 C26 1_555 1_555
C28 C27 1_555 1_555
C29 C28 1_555 1_555
N2 C29 1_555 1_555
C30 C28 1_555 1_555
N3 C30 1_555 1_555
C31 C26 1_555 1_555
H19 C31 1_555 1_555
C32 C23 1_555 1_555
H20 C32 1_555 1_555
C1A C2A 1_555 1_555
C2A C3A 1_555 1_555
C3A C4A 1_555 1_555
C4A H1A 1_555 1_555
C5A C4A 1_555 1_555
H2A C5A 1_555 1_555
C6A C5A 1_555 1_555
C7A C2A 1_555 1_555
C8A C7A 1_555 1_555
H3A C8A 1_555 1_555
C9A C8A 1_555 1_555
H4A C9A 1_555 1_555
C10A C9A 1_555 1_555
H5A C10A 1_555 1_555
C11A C6A 1_555 1_555
H6A C11A 1_555 1_555
C12A C3A 1_555 1_555
H7A C12A 1_555 1_555
H8A C12A 1_555 1_555
N1A C12A 1_555 1_555
C13A N1A 1_555 1_555
H9A C13A 1_555 1_555
H10A C13A 1_555 1_555
C14A C1A 1_555 1_555
C15A C14A 1_555 1_555
H11A C15A 1_555 1_555
C16A C15A 1_555 1_555
H12A C16A 1_555 1_555
C17A C16A 1_555 1_555
C18A C1A 1_555 1_555
C19A C18A 1_555 1_555
H13A C19A 1_555 1_555
C20A C19A 1_555 1_555
H14A C20A 1_555 1_555
C21A C20A 1_555 1_555
H15A C21A 1_555 1_555
C22A C17A 1_555 1_555
H16A C22A 1_555 1_555
C23A N1A 1_555 1_555
C24A C23A 1_555 1_555
H17A C24A 1_555 1_555
C25A C24A 1_555 1_555
H18A C25A 1_555 1_555
C26A C25A 1_555 1_555
C27A C27 1_555 1_555
C28A C27A 1_555 1_555
C29A C28A 1_555 1_555
N2A C29A 1_555 1_555
C30A C28A 1_555 1_555
N3A C30A 1_555 1_555
C31A C26A 1_555 1_555
H19A C31A 1_555 1_555
C32A C23A 1_555 1_555
H20A C32A 1_555 1_555
C6 C7 1_555 1_555
C10 C11 1_555 1_555
C13 C14 1_555 1_555
C17 C18 1_555 1_555
C21 C22 1_555 1_555
C31 C32 1_555 1_555
C6A C7A 1_555 1_555
C10A C11A 1_555 1_555
C13A C14A 1_555 1_555
C17A C18A 1_555 1_555
C21A C22A 1_555 1_555
C26A C27A 1_555 1_555
C31A C32A 1_555 1_555

#END
