
#######################################################################
#
#                 Cambridge Crystallographic Data Centre
#                                CCDC 
#
#######################################################################
#
# If this CIF has been generated from an entry in the Cambridge 
# Structural Database, then it will include bibliographic, chemical, 
# crystal, experimental, refinement or atomic coordinate data resulting 
# from the CCDC's data processing and validation procedures.
#
#######################################################################

data_TUGXEZ
_chemical_formula_moiety         'C34 H31 N1 O2'
_chemical_name_systematic        
6-Methyl-1,2-bis(4-methylphenyl)-4,8-diphenyl-1,2,4,5-tetrahydrofuro[3,4-d][1,2]oxazepine
_symmetry_cell_setting           triclinic
_symmetry_space_group_name_H-M   'P -1'
_symmetry_Int_Tables_number      2
_space_group_name_Hall           '-P 1'
loop_
_symmetry_equiv_pos_site_id
_symmetry_equiv_pos_as_xyz
1 x,y,z
2 -x,-y,-z
_cell_length_a                   10.481(2)
_cell_length_b                   10.617(2)
_cell_length_c                   12.383(3)
_cell_angle_alpha                92.80(3)
_cell_angle_beta                 100.69(3)
_cell_angle_gamma                101.12(3)
_cell_volume                     1323.48
_cell_formula_units_Z            2
loop_
_atom_site_label
_atom_site_type_symbol
_atom_site_fract_x
_atom_site_fract_y
_atom_site_fract_z
O1 O 0.12173(9) 0.16950(9) 0.57440(7)
O2 O 0.60481(9) 0.36249(9) 0.63489(7)
N1 N 0.52251(11) 0.44361(10) 0.67006(9)
C1 C 0.17750(14) 0.32239(14) 0.85510(11)
H1 H 0.2674 0.3244 0.8792
C2 C 0.10360(15) 0.35711(16) 0.92885(12)
H2 H 0.1447 0.3851 1.0015
C3 C -0.03081(15) 0.35052(15) 0.89534(12)
H3 H -0.0802 0.3731 0.9455
C4 C -0.09177(14) 0.31042(14) 0.78726(11)
H4 H -0.1826 0.3045 0.7649
C5 C -0.01811(13) 0.27910(13) 0.71226(11)
H5 H -0.0595 0.2542 0.6391
C6 C 0.11857(13) 0.28445(13) 0.74508(11)
C7 C 0.19474(13) 0.24890(13) 0.66509(10)
C8 C 0.20834(13) 0.14457(13) 0.50969(11)
C9 C 0.33397(13) 0.20469(13) 0.55718(10)
C10 C 0.45423(13) 0.19143(13) 0.51239(11)
H6 H 0.4264 0.1571 0.4357
H7 H 0.4968 0.1296 0.5526
C11 C 0.55488(13) 0.31638(13) 0.51946(10)
H8 H 0.5109 0.3805 0.4823
C12 C 0.43437(13) 0.36766(13) 0.73586(10)
H9 H 0.3915 0.4290 0.7699
C13 C 0.32485(13) 0.27468(13) 0.65770(10)
C14 C 0.14825(14) 0.06046(14) 0.40675(11)
H10 H 0.2172 0.0411 0.3714
H11 H 0.0921 0.1039 0.3581
H12 H 0.0965 -0.0181 0.4240
C15 C 0.50963(13) 0.30765(13) 0.83017(10)
C16 C 0.50881(15) 0.17698(14) 0.82703(12)
H13 H 0.4607 0.1231 0.7655
C17 C 0.57840(17) 0.12539(16) 0.91395(12)
H14 H 0.5761 0.0373 0.9098
C18 C 0.65158(15) 0.20201(16) 1.00714(12)
C19 C 0.65179(14) 0.33250(15) 1.01055(11)
H15 H 0.7001 0.3863 1.0720
C20 C 0.58169(14) 0.38430(14) 0.92452(11)
H16 H 0.5825 0.4722 0.9296
C21 C 0.72899(18) 0.14584(18) 1.10135(13)
H17 H 0.8217 0.1665 1.0991
H18 H 0.6991 0.0539 1.0948
H19 H 0.7154 0.1814 1.1701
C22 C 0.60646(13) 0.56024(13) 0.72578(10)
C23 C 0.54779(15) 0.65327(14) 0.76877(11)
H20 H 0.4560 0.6385 0.7610
C24 C 0.62469(15) 0.76713(15) 0.82280(12)
H21 H 0.5836 0.8271 0.8522
C25 C 0.76237(15) 0.79469(14) 0.83448(11)
C26 C 0.81796(14) 0.70231(14) 0.78845(11)
H22 H 0.9094 0.7184 0.7938
C27 C 0.74288(13) 0.58680(14) 0.73479(11)
H23 H 0.7840 0.5272 0.7049
C28 C 0.84740(17) 0.91755(16) 0.89568(14)
H24 H 0.8591 0.9099 0.9737
H25 H 0.8048 0.9883 0.8777
H26 H 0.9324 0.9327 0.8746
C29 C 0.67510(13) 0.30649(13) 0.47134(10)
C30 C 0.70995(13) 0.19042(14) 0.44523(10)
H27 H 0.6571 0.1133 0.4570
C31 C 0.82185(14) 0.18806(15) 0.40215(11)
H28 H 0.8440 0.1097 0.3852
C32 C 0.90094(15) 0.30191(15) 0.38422(11)
H29 H 0.9771 0.3003 0.3562
C33 C 0.86708(15) 0.41794(15) 0.40775(11)
H30 H 0.9193 0.4945 0.3942
C34 C 0.75533(14) 0.42022(14) 0.45147(11)
H31 H 0.7334 0.4988 0.4679
loop_
_geom_bond_atom_site_label_1
_geom_bond_atom_site_label_2
_geom_bond_site_symmetry_1
_geom_bond_site_symmetry_2
O1 C7 1_555 1_555
O2 N1 1_555 1_555
N1 C12 1_555 1_555
C1 H1 1_555 1_555
C2 C1 1_555 1_555
H2 C2 1_555 1_555
C3 C2 1_555 1_555
H3 C3 1_555 1_555
C4 C3 1_555 1_555
H4 C4 1_555 1_555
C5 C4 1_555 1_555
H5 C5 1_555 1_555
C6 C1 1_555 1_555
C7 C6 1_555 1_555
C8 O1 1_555 1_555
C9 C8 1_555 1_555
C10 C9 1_555 1_555
H6 C10 1_555 1_555
H7 C10 1_555 1_555
C11 O2 1_555 1_555
H8 C11 1_555 1_555
C12 H9 1_555 1_555
C13 C7 1_555 1_555
C14 C8 1_555 1_555
H10 C14 1_555 1_555
H11 C14 1_555 1_555
H12 C14 1_555 1_555
C15 C12 1_555 1_555
C16 C15 1_555 1_555
H13 C16 1_555 1_555
C17 C16 1_555 1_555
H14 C17 1_555 1_555
C18 C17 1_555 1_555
C19 C18 1_555 1_555
H15 C19 1_555 1_555
C20 C15 1_555 1_555
H16 C20 1_555 1_555
C21 C18 1_555 1_555
H17 C21 1_555 1_555
H18 C21 1_555 1_555
H19 C21 1_555 1_555
C22 N1 1_555 1_555
C23 C22 1_555 1_555
H20 C23 1_555 1_555
C24 C23 1_555 1_555
H21 C24 1_555 1_555
C25 C24 1_555 1_555
C26 C25 1_555 1_555
H22 C26 1_555 1_555
C27 C22 1_555 1_555
H23 C27 1_555 1_555
C28 C25 1_555 1_555
H24 C28 1_555 1_555
H25 C28 1_555 1_555
H26 C28 1_555 1_555
C29 C11 1_555 1_555
C30 C29 1_555 1_555
H27 C30 1_555 1_555
C31 C30 1_555 1_555
H28 C31 1_555 1_555
C32 C31 1_555 1_555
H29 C32 1_555 1_555
C33 C32 1_555 1_555
H30 C33 1_555 1_555
C34 C29 1_555 1_555
H31 C34 1_555 1_555
C5 C6 1_555 1_555
C9 C13 1_555 1_555
C10 C11 1_555 1_555
C12 C13 1_555 1_555
C19 C20 1_555 1_555
C26 C27 1_555 1_555
C33 C34 1_555 1_555

#END
