
#######################################################################
#
#                 Cambridge Crystallographic Data Centre
#                                CCDC 
#
#######################################################################
#
# If this CIF has been generated from an entry in the Cambridge 
# Structural Database, then it will include bibliographic, chemical, 
# crystal, experimental, refinement or atomic coordinate data resulting 
# from the CCDC's data processing and validation procedures.
#
#######################################################################

data_TUHBIH
_chemical_formula_moiety         'C17 H12 O3'
_chemical_name_systematic        
2-Oxo-3-phenyl-8-hydroxy-8,8a-dihydro-2H-indeno(2,1-b)furan
_symmetry_cell_setting           monoclinic
_symmetry_space_group_name_H-M   'P 21/a'
_symmetry_Int_Tables_number      14
_space_group_name_Hall           '-P 2yab'
loop_
_symmetry_equiv_pos_site_id
_symmetry_equiv_pos_as_xyz
1 x,y,z
2 1/2-x,1/2+y,-z
3 -x,-y,-z
4 1/2+x,1/2-y,z
_cell_length_a                   10.411(2)
_cell_length_b                   31.907(7)
_cell_length_c                   7.632(2)
_cell_angle_alpha                90
_cell_angle_beta                 93.84(2)
_cell_angle_gamma                90
_cell_volume                     2529.53
_exptl_crystal_colour            colorless
_cell_formula_units_Z            8
loop_
_atom_site_label
_atom_site_type_symbol
_atom_site_fract_x
_atom_site_fract_y
_atom_site_fract_z
O1 O 0.9643(6) 0.0740(2) 0.8871(8)
O2 O 0.8395(6) 0.1312(2) 0.8971(10)
O3 O 1.1818(7) -0.0040(2) 0.9620(10)
C1 C 0.9443(10) 0.1174(3) 0.885(1)
C2 C 1.0720(7) 0.1385(3) 0.877(1)
C3 C 1.1606(8) 0.1078(3) 0.878(1)
C4 C 1.2973(8) 0.1006(3) 0.931(1)
C5 C 1.4064(8) 0.1255(2) 0.926(1)
C6 C 1.5231(8) 0.1093(3) 0.993(1)
C7 C 1.5312(8) 0.0700(3) 1.066(1)
C8 C 1.4230(10) 0.0452(3) 1.077(1)
C9 C 1.3053(9) 0.0606(3) 1.007(1)
C10 C 1.1744(9) 0.0392(3) 1.006(1)
C11 C 1.0985(9) 0.0657(3) 0.867(1)
C12 C 1.0901(8) 0.1837(3) 0.886(1)
C13 C 1.1904(8) 0.2019(3) 0.800(1)
C14 C 1.2192(8) 0.2436(3) 0.821(1)
C15 C 1.1475(10) 0.2680(3) 0.926(1)
C16 C 1.0443(10) 0.2512(3) 1.005(1)
C17 C 1.0152(8) 0.2094(3) 0.986(1)
H1 H 1.4014 0.1539 0.8735
H2 H 1.6033 0.1263 0.9899
H3 H 1.6165 0.0582 1.1133
H4 H 1.4283 0.0163 1.1331
H5 H 1.1373 0.0423 1.1238
H6 H 1.1442 -0.0256 1.0846
H7 H 1.1095 0.0528 0.7487
H8 H 1.2401 0.1841 0.7193
H9 H 1.2928 0.2560 0.7614
H10 H 1.1708 0.2983 0.9444
H11 H 0.9907 0.2696 1.0775
H12 H 0.9393 0.1971 1.0438
O4 O 0.5042(5) 0.0431(2) 0.5894(8)
O5 O 0.3133(5) 0.0733(2) 0.5204(8)
O6 O 0.8016(5) 0.0013(2) 0.5803(8)
C18 C 0.4294(9) 0.0771(3) 0.540(1)
C19 C 0.5108(7) 0.1143(2) 0.512(1)
C20 C 0.6334(7) 0.1010(2) 0.538(1)
C21 C 0.7631(7) 0.1102(2) 0.486(1)
C22 C 0.8265(8) 0.1476(2) 0.456(1)
C23 C 0.9513(9) 0.1457(3) 0.408(1)
C24 C 1.0116(8) 0.1078(3) 0.387(1)
C25 C 0.9487(8) 0.0699(3) 0.412(1)
C26 C 0.8232(7) 0.0715(2) 0.462(1)
C27 C 0.7341(7) 0.0349(2) 0.494(1)
C28 C 0.6360(7) 0.0567(2) 0.603(1)
C29 C 0.4570(7) 0.1552(2) 0.458(1)
C30 C 0.5139(7) 0.1914(3) 0.526(1)
C31 C 0.4615(9) 0.2298(3) 0.484(1)
C32 C 0.3533(9) 0.2330(3) 0.373(1)
C33 C 0.2954(8) 0.1975(3) 0.304(1)
C34 C 0.3465(7) 0.1586(3) 0.345(1)
H13 H 0.7830 0.1750 0.4705
H14 H 0.9994 0.1718 0.3873
H15 H 1.1030 0.1066 0.3513
H16 H 0.9920 0.0421 0.3959
H17 H 0.6912 0.0248 0.3799
H18 H 0.7530 -0.0261 0.5427
H19 H 0.6690 0.0563 0.7299
H20 H 0.5934 0.1892 0.6067
H21 H 0.5031 0.2559 0.5342
H22 H 0.3149 0.2609 0.3416
H23 H 0.2159 0.1993 0.2230
H24 H 0.3046 0.1324 0.2947
loop_
_geom_bond_atom_site_label_1
_geom_bond_atom_site_label_2
_geom_bond_site_symmetry_1
_geom_bond_site_symmetry_2
O1 C1 1_555 1_555
O2 C1 1_555 1_555
O3 C10 1_555 1_555
C1 C2 1_555 1_555
C2 C3 1_555 1_555
C3 C4 1_555 1_555
C4 C5 1_555 1_555
C5 C6 1_555 1_555
C6 C7 1_555 1_555
C7 C8 1_555 1_555
C8 C9 1_555 1_555
C9 C4 1_555 1_555
C10 C9 1_555 1_555
C11 O1 1_555 1_555
C12 C2 1_555 1_555
C13 C12 1_555 1_555
C14 C13 1_555 1_555
C15 C14 1_555 1_555
C16 C15 1_555 1_555
C17 C12 1_555 1_555
H1 C5 1_555 1_555
H2 C6 1_555 1_555
H3 C7 1_555 1_555
H4 C8 1_555 1_555
H5 C10 1_555 1_555
H6 O3 1_555 1_555
H7 C11 1_555 1_555
H8 C13 1_555 1_555
H9 C14 1_555 1_555
H10 C15 1_555 1_555
H11 C16 1_555 1_555
H12 C17 1_555 1_555
O4 C18 1_555 1_555
O5 C18 1_555 1_555
O6 C27 1_555 1_555
C18 C19 1_555 1_555
C19 C20 1_555 1_555
C20 C21 1_555 1_555
C21 C22 1_555 1_555
C22 C23 1_555 1_555
C23 C24 1_555 1_555
C24 C25 1_555 1_555
C25 C26 1_555 1_555
C26 C21 1_555 1_555
C27 C26 1_555 1_555
C28 O4 1_555 1_555
C29 C19 1_555 1_555
C30 C29 1_555 1_555
C31 C30 1_555 1_555
C32 C31 1_555 1_555
C33 C32 1_555 1_555
C34 C29 1_555 1_555
H13 C22 1_555 1_555
H14 C23 1_555 1_555
H15 C24 1_555 1_555
H16 C25 1_555 1_555
H17 C27 1_555 1_555
H18 O6 1_555 1_555
H19 C28 1_555 1_555
H20 C30 1_555 1_555
H21 C31 1_555 1_555
H22 C32 1_555 1_555
H23 C33 1_555 1_555
H24 C34 1_555 1_555
C3 C11 1_555 1_555
C10 C11 1_555 1_555
C16 C17 1_555 1_555
C20 C28 1_555 1_555
C27 C28 1_555 1_555
C33 C34 1_555 1_555

#END
