
#######################################################################
#
#                 Cambridge Crystallographic Data Centre
#                                CCDC 
#
#######################################################################
#
# If this CIF has been generated from an entry in the Cambridge 
# Structural Database, then it will include bibliographic, chemical, 
# crystal, experimental, refinement or atomic coordinate data resulting 
# from the CCDC's data processing and validation procedures.
#
#######################################################################

data_TUHBEE
_chemical_formula_moiety         'C19 H18 N2 O3'
_chemical_name_systematic        
3-((3R*,4S*)-2,2-Dimethyl-3-nitro-3,4-dihydro-2H-chromen-4-yl)-1H-indole
_symmetry_cell_setting           monoclinic
_symmetry_space_group_name_H-M   'P 21'
_symmetry_Int_Tables_number      4
_space_group_name_Hall           'P 2yb'
loop_
_symmetry_equiv_pos_site_id
_symmetry_equiv_pos_as_xyz
1 x,y,z
2 -x,1/2+y,-z
_cell_length_a                   15.517(4)
_cell_length_b                   12.726(4)
_cell_length_c                   16.627(4)
_cell_angle_alpha                90
_cell_angle_beta                 97.309(16)
_cell_angle_gamma                90
_cell_volume                     3256.64
_exptl_crystal_colour            colorless
_exptl_crystal_description       prism
_chemical_melting_point          '212-214 deg.C'
_cell_formula_units_Z            8
loop_
_atom_site_label
_atom_site_type_symbol
_atom_site_fract_x
_atom_site_fract_y
_atom_site_fract_z
C1 C 0.4730(14) 1.011(2) 0.4708(13)
H1 H 0.4476 1.0830 0.4615
C2 C 0.5640(14) 1.0077(19) 0.4388(13)
C3 C 0.5351(13) 1.005(2) 0.3426(12)
H2 H 0.4987 0.9426 0.3288
H3 H 0.5869 1.0010 0.3145
H4 H 0.5021 1.0682 0.3258
C4 C 0.6153(15) 1.093(2) 0.4690(14)
H5 H 0.6282 1.0873 0.5280
H6 H 0.5838 1.1588 0.4551
H7 H 0.6697 1.0932 0.4448
C5 C 0.6035(13) 0.8560(17) 0.5254(12)
C6 C 0.6596(16) 0.781(2) 0.5495(15)
H8 H 0.6999 0.7621 0.5136
C7 C 0.6650(14) 0.7290(19) 0.6208(12)
H9 H 0.7065 0.6746 0.6330
C8 C 0.6125(15) 0.755(2) 0.6721(14)
H10 H 0.6141 0.7164 0.7213
C9 C 0.5515(15) 0.840(2) 0.6561(13)
H11 H 0.5144 0.8617 0.6943
C10 C 0.5507(11) 0.8898(14) 0.5803(10)
C11 C 0.4790(15) 0.984(2) 0.5616(13)
H12 H 0.5067 1.0473 0.5902
C12 C 0.3986(14) 0.9712(18) 0.5940(13)
C13 C 0.3437(14) 0.890(2) 0.5923(12)
H13 H 0.3520 0.8228 0.5694
C14 C 0.2708(14) 1.023(2) 0.6466(13)
C15 C 0.2160(17) 1.081(2) 0.6877(15)
H14 H 0.1653 1.0521 0.7057
C16 C 0.2398(17) 1.182(2) 0.7006(15)
H15 H 0.1973 1.2263 0.7191
C17 C 0.3183(14) 1.230(2) 0.6903(13)
H16 H 0.3316 1.2995 0.7088
C18 C 0.3822(14) 1.1649(18) 0.6477(12)
H17 H 0.4350 1.1913 0.6323
C19 C 0.3544(14) 1.0675(17) 0.6350(13)
N1 N 0.4095(13) 0.9303(14) 0.4292(10)
N2 N 0.2767(10) 0.9183(16) 0.6277(11)
H18 H 0.2372 0.8727 0.6388
O1 O 0.3416(9) 0.9728(13) 0.3997(9)
O2 O 0.4354(12) 0.8404(16) 0.4244(11)
O3 O 0.6078(8) 0.9035(10) 0.4516(7)
C20 C 0.0295(15) 0.678(2) 0.5383(15)
H19 H 0.0539 0.6060 0.5492
C21 C -0.0539(11) 0.6872(14) 0.5769(10)
C22 C -0.0529(12) 0.6746(16) 0.6657(10)
H20 H -0.1119 0.6838 0.6798
H21 H -0.0145 0.7275 0.6941
H22 H -0.0318 0.6042 0.6820
C23 C -0.1155(13) 0.5849(17) 0.5369(12)
H23 H -0.1213 0.5885 0.4776
H24 H -0.1732 0.5888 0.5549
H25 H -0.0876 0.5186 0.5553
C24 C -0.1006(12) 0.8230(16) 0.4804(11)
C25 C -0.1577(14) 0.9047(19) 0.4505(14)
H26 H -0.1947 0.9295 0.4878
C26 C -0.1670(17) 0.948(2) 0.3863(15)
H27 H -0.2124 0.9966 0.3712
C27 C -0.1000(14) 0.918(2) 0.3296(14)
H28 H -0.0982 0.9522 0.2790
C28 C -0.0428(14) 0.8394(19) 0.3560(13)
H29 H 0.0004 0.8195 0.3233
C29 C -0.0464(13) 0.7883(17) 0.4289(12)
C30 C 0.0147(14) 0.694(2) 0.4514(13)
H30 H -0.0137 0.6293 0.4260
C31 C 0.1122(13) 0.7044(19) 0.4221(13)
C32 C 0.1663(14) 0.7868(17) 0.4181(11)
H31 H 0.1530 0.8550 0.4362
C33 C 0.2295(14) 0.670(2) 0.3609(14)
C34 C 0.2839(16) 0.605(2) 0.3165(13)
H32 H 0.3354 0.6305 0.2983
C35 C 0.2553(15) 0.498(2) 0.3018(13)
H33 H 0.2932 0.4517 0.2790
C36 C 0.1836(17) 0.463(3) 0.3170(15)
H34 H 0.1683 0.3934 0.2997
C37 C 0.1250(15) 0.519(2) 0.3578(13)
H35 H 0.0730 0.4871 0.3703
C38 C 0.1440(14) 0.6226(18) 0.3799(13)
N3 N 0.0899(16) 0.7577(19) 0.5873(13)
N4 N 0.2306(10) 0.7686(19) 0.3909(11)
H36 H 0.2739 0.8131 0.3901
O4 O 0.1549(13) 0.7278(15) 0.6274(10)
O5 O 0.0675(9) 0.8540(12) 0.5827(7)
O6 O -0.1083(10) 0.7755(11) 0.5545(8)
C39 C 0.9749(10) 0.9476(14) -0.0458(10)
H37 H 0.9479 1.0186 -0.0553
C40 C 1.0654(13) 0.9501(17) -0.0764(12)
C41 C 1.1124(17) 1.033(2) -0.0361(16)
H38 H 1.1713 1.0349 -0.0515
H39 H 1.1155 1.0235 0.0227
H40 H 1.0831 1.1001 -0.0514
C42 C 1.0565(19) 0.940(3) -0.1678(16)
H41 H 1.0232 0.8761 -0.1844
H42 H 1.1143 0.9348 -0.1853
H43 H 1.0261 1.0013 -0.1927
C43 C 1.1060(14) 0.8091(18) 0.0258(13)
C44 C 1.1629(11) 0.7282(14) 0.0385(10)
H44 H 1.2021 0.7087 0.0016
C45 C 1.1570(13) 0.6709(18) 0.1200(12)
H45 H 1.1939 0.6125 0.1342
C46 C 1.1064(14) 0.6985(18) 0.1663(14)
H46 H 1.1087 0.6651 0.2176
C47 C 1.0418(16) 0.782(2) 0.1453(15)
H47 H 1.0013 0.7990 0.1817
C48 C 1.0397(14) 0.8375(19) 0.0708(13)
C49 C 0.9789(12) 0.9220(17) 0.0475(11)
H48 H 1.0079 0.9851 0.0746
C50 C 0.9010(12) 0.9175(16) 0.0779(11)
C51 C 0.8465(12) 0.8274(16) 0.0687(11)
H49 H 0.8560 0.7639 0.0411
C52 C 0.7786(14) 0.9591(18) 0.1401(12)
C53 C 0.7207(15) 1.012(2) 0.1798(12)
H50 H 0.6671 0.9805 0.1887
C54 C 0.7412(14) 1.108(2) 0.2058(13)
H51 H 0.7046 1.1445 0.2379
C55 C 0.8213(14) 1.158(2) 0.1847(12)
H52 H 0.8361 1.2274 0.2012
C56 C 0.8747(14) 1.0995(19) 0.1401(12)
H53 H 0.9269 1.1295 0.1263
C57 C 0.8517(13) 0.9981(17) 0.1159(12)
N5 N 0.9117(10) 0.8663(17) -0.0882(10)
N6 N 0.7680(12) 0.8559(15) 0.1138(10)
H54 H 0.7246 0.8141 0.1214
O7 O 0.8395(10) 0.9031(15) -0.1190(10)
O8 O 0.9281(13) 0.7784(15) -0.0934(11)
O9 O 1.1056(9) 0.8481(13) -0.0532(8)
C58 C 0.5279(12) 0.6174(17) 0.0312(10)
H55 H 0.5510 0.5442 0.0392
C59 C 0.4420(13) 0.6209(17) 0.0676(12)
C60 C 0.3805(14) 0.533(2) 0.0272(13)
H56 H 0.3256 0.5339 0.0506
H57 H 0.4084 0.4642 0.0370
H58 H 0.3689 0.5455 -0.0313
C61 C 0.4428(14) 0.6095(18) 0.1557(11)
H59 H 0.3830 0.6081 0.1687
H60 H 0.4738 0.6690 0.1834
H61 H 0.4722 0.5439 0.1737
C62 C 0.3988(15) 0.7535(19) -0.0279(15)
C63 C 0.3375(12) 0.8457(15) -0.0485(11)
H62 H 0.3009 0.8706 -0.0109
C64 C 0.3369(15) 0.891(2) -0.1223(14)
H63 H 0.2991 0.9490 -0.1358
C65 C 0.3888(14) 0.857(2) -0.1787(14)
H64 H 0.3846 0.8885 -0.2309
C66 C 0.4452(13) 0.7789(18) -0.1581(12)
H65 H 0.4792 0.7562 -0.1985
C67 C 0.4596(14) 0.7256(18) -0.0808(13)
C68 C 0.5115(11) 0.6371(16) -0.0623(10)
H66 H 0.4784 0.5752 -0.0870
C69 C 0.5989(12) 0.6366(16) -0.0935(12)
C70 C 0.6492(15) 0.732(2) -0.0973(13)
H67 H 0.6316 0.8014 -0.0855
C71 C 0.7162(12) 0.6011(16) -0.1541(11)
C72 C 0.7808(15) 0.539(2) -0.1879(13)
H68 H 0.8358 0.5667 -0.1966
C73 C 0.7560(15) 0.438(2) -0.2063(14)
H69 H 0.7896 0.3968 -0.2382
C74 C 0.6867(15) 0.398(2) -0.1809(13)
H70 H 0.6783 0.3239 -0.1848
C75 C 0.6289(16) 0.454(2) -0.1507(14)
H71 H 0.5756 0.4225 -0.1419
C76 C 0.6428(12) 0.5651(15) -0.1299(11)
N7 N 0.5917(14) 0.686(2) 0.0733(13)
N8 N 0.7331(11) 0.7008(16) -0.1228(10)
H72 H 0.7819 0.7367 -0.1190
O10 O 0.6640(14) 0.6584(16) 0.1055(12)
O11 O 0.5777(8) 0.7864(12) 0.0704(8)
O12 O 0.4031(9) 0.7160(13) 0.0457(9)
loop_
_geom_bond_atom_site_label_1
_geom_bond_atom_site_label_2
_geom_bond_site_symmetry_1
_geom_bond_site_symmetry_2
C1 H1 1_555 1_555
C2 C1 1_555 1_555
C3 C2 1_555 1_555
H2 C3 1_555 1_555
H3 C3 1_555 1_555
H4 C3 1_555 1_555
C4 C2 1_555 1_555
H5 C4 1_555 1_555
H6 C4 1_555 1_555
H7 C4 1_555 1_555
C5 C6 1_555 1_555
C6 H8 1_555 1_555
C7 C6 1_555 1_555
H9 C7 1_555 1_555
C8 C7 1_555 1_555
H10 C8 1_555 1_555
C9 C8 1_555 1_555
H11 C9 1_555 1_555
C10 C5 1_555 1_555
C11 C1 1_555 1_555
H12 C11 1_555 1_555
C12 C11 1_555 1_555
C13 C12 1_555 1_555
H13 C13 1_555 1_555
C14 C15 1_555 1_555
C15 H14 1_555 1_555
C16 C15 1_555 1_555
H15 C16 1_555 1_555
C17 C16 1_555 1_555
H16 C17 1_555 1_555
C18 C17 1_555 1_555
H17 C18 1_555 1_555
C19 C12 1_555 1_555
N1 C1 1_555 1_555
N2 C13 1_555 1_555
H18 N2 1_555 1_555
O1 N1 1_555 1_555
O2 N1 1_555 1_555
O3 C2 1_555 1_555
C20 H19 1_555 1_555
C21 C20 1_555 1_555
C22 C21 1_555 1_555
H20 C22 1_555 1_555
H21 C22 1_555 1_555
H22 C22 1_555 1_555
C23 C21 1_555 1_555
H23 C23 1_555 1_555
H24 C23 1_555 1_555
H25 C23 1_555 1_555
C24 C25 1_555 1_555
C25 H26 1_555 1_555
C26 C25 1_555 1_555
H27 C26 1_555 1_555
C27 C26 1_555 1_555
H28 C27 1_555 1_555
C28 C27 1_555 1_555
H29 C28 1_555 1_555
C29 C24 1_555 1_555
C30 C20 1_555 1_555
H30 C30 1_555 1_555
C31 C30 1_555 1_555
C32 C31 1_555 1_555
H31 C32 1_555 1_555
C33 C34 1_555 1_555
C34 H32 1_555 1_555
C35 C34 1_555 1_555
H33 C35 1_555 1_555
C36 C35 1_555 1_555
H34 C36 1_555 1_555
C37 C36 1_555 1_555
H35 C37 1_555 1_555
C38 C31 1_555 1_555
N3 C20 1_555 1_555
N4 C32 1_555 1_555
H36 N4 1_555 1_555
O4 N3 1_555 1_555
O5 N3 1_555 1_555
O6 C21 1_555 1_555
C39 H37 1_555 1_555
C40 C39 1_555 1_555
C41 C40 1_555 1_555
H38 C41 1_555 1_555
H39 C41 1_555 1_555
H40 C41 1_555 1_555
C42 C40 1_555 1_555
H41 C42 1_555 1_555
H42 C42 1_555 1_555
H43 C42 1_555 1_555
C43 C44 1_555 1_555
C44 H44 1_555 1_555
C45 C44 1_555 1_555
H45 C45 1_555 1_555
C46 C45 1_555 1_555
H46 C46 1_555 1_555
C47 C46 1_555 1_555
H47 C47 1_555 1_555
C48 C43 1_555 1_555
C49 C39 1_555 1_555
H48 C49 1_555 1_555
C50 C49 1_555 1_555
C51 C50 1_555 1_555
H49 C51 1_555 1_555
C52 C53 1_555 1_555
C53 H50 1_555 1_555
C54 C53 1_555 1_555
H51 C54 1_555 1_555
C55 C54 1_555 1_555
H52 C55 1_555 1_555
C56 C55 1_555 1_555
H53 C56 1_555 1_555
C57 C50 1_555 1_555
N5 C39 1_555 1_555
N6 C51 1_555 1_555
H54 N6 1_555 1_555
O7 N5 1_555 1_555
O8 N5 1_555 1_555
O9 C40 1_555 1_555
C58 H55 1_555 1_555
C59 C58 1_555 1_555
C60 C59 1_555 1_555
H56 C60 1_555 1_555
H57 C60 1_555 1_555
H58 C60 1_555 1_555
C61 C59 1_555 1_555
H59 C61 1_555 1_555
H60 C61 1_555 1_555
H61 C61 1_555 1_555
C62 C63 1_555 1_555
C63 H62 1_555 1_555
C64 C63 1_555 1_555
H63 C64 1_555 1_555
C65 C64 1_555 1_555
H64 C65 1_555 1_555
C66 C65 1_555 1_555
H65 C66 1_555 1_555
C67 C62 1_555 1_555
C68 C58 1_555 1_555
H66 C68 1_555 1_555
C69 C68 1_555 1_555
C70 C69 1_555 1_555
H67 C70 1_555 1_555
C71 C72 1_555 1_555
C72 H68 1_555 1_555
C73 C72 1_555 1_555
H69 C73 1_555 1_555
C74 C73 1_555 1_555
H70 C74 1_555 1_555
C75 C74 1_555 1_555
H71 C75 1_555 1_555
C76 C69 1_555 1_555
N7 C58 1_555 1_555
N8 C70 1_555 1_555
H72 N8 1_555 1_555
O10 N7 1_555 1_555
O11 N7 1_555 1_555
O12 C59 1_555 1_555
C5 O3 1_555 1_555
C9 C10 1_555 1_555
C10 C11 1_555 1_555
C14 C19 1_555 1_555
C14 N2 1_555 1_555
C18 C19 1_555 1_555
C24 O6 1_555 1_555
C28 C29 1_555 1_555
C29 C30 1_555 1_555
C33 C38 1_555 1_555
C33 N4 1_555 1_555
C37 C38 1_555 1_555
C43 O9 1_555 1_555
C47 C48 1_555 1_555
C48 C49 1_555 1_555
C52 C57 1_555 1_555
C52 N6 1_555 1_555
C56 C57 1_555 1_555
C62 O12 1_555 1_555
C66 C67 1_555 1_555
C67 C68 1_555 1_555
C71 C76 1_555 1_555
C71 N8 1_555 1_555
C75 C76 1_555 1_555

#END
