
#######################################################################
#
#                 Cambridge Crystallographic Data Centre
#                                CCDC 
#
#######################################################################
#
# If this CIF has been generated from an entry in the Cambridge 
# Structural Database, then it will include bibliographic, chemical, 
# crystal, experimental, refinement or atomic coordinate data resulting 
# from the CCDC's data processing and validation procedures.
#
#######################################################################

data_TUHCOP
_chemical_compound_source        'Dysoxylum hainanense'
_chemical_name_common            'Dysoxyhainic acid A'
_chemical_formula_moiety         'C29 H44 O4'
_chemical_name_systematic        
'2-(8-Hydroxy-3a,6,6,8a,10a-pentamethyl-7-oxo-1,2,3,3a,5,5a,6,7,8,8a,8b,9,10,10a-tetradecahydrodicyclopenta[a,f]naphthalen-1-yl)-6-methylhept-5-enoic acid'
_symmetry_cell_setting           orthorhombic
_symmetry_space_group_name_H-M   'P 21 21 21'
_symmetry_Int_Tables_number      19
_space_group_name_Hall           'P 2ac 2ab'
loop_
_symmetry_equiv_pos_site_id
_symmetry_equiv_pos_as_xyz
1 x,y,z
2 1/2-x,-y,1/2+z
3 -x,1/2+y,1/2-z
4 1/2+x,1/2-y,-z
_cell_length_a                   6.8037(10)
_cell_length_b                   17.200(3)
_cell_length_c                   22.813(3)
_cell_angle_alpha                90
_cell_angle_beta                 90
_cell_angle_gamma                90
_cell_volume                     2669.66
_exptl_crystal_colour            colorless
_exptl_crystal_description       prismatic
_chemical_melting_point          '145 deg.C'
_cell_formula_units_Z            4
loop_
_atom_site_label
_atom_site_type_symbol
_atom_site_fract_x
_atom_site_fract_y
_atom_site_fract_z
O1 O 0.6442(4) 0.43905(15) 0.71992(15)
H1 H 0.5595 0.4725 0.7241
O2 O 0.6865(6) 0.44278(18) 0.60006(15)
O3 O 0.2889(3) 0.23406(12) 1.00315(10)
O4 O 0.5234(3) 0.16031(13) 0.96566(10)
H2 H 0.5937 0.1948 0.9789
C1 C 0.5689(6) 0.37774(19) 0.68528(16)
C2 C 0.5792(7) 0.3938(2) 0.62099(19)
C3 C 0.4312(6) 0.3425(2) 0.58790(15)
C4 C 0.3262(5) 0.3023(2) 0.63993(14)
C5 C 0.1149(5) 0.2758(2) 0.63326(15)
H3 H 0.0334 0.3192 0.6211
H4 H 0.1065 0.2357 0.6035
C6 C 0.0425(5) 0.24434(19) 0.69113(14)
H5 H -0.0727 0.2153 0.6907
C7 C 0.1299(4) 0.25475(16) 0.74260(13)
C8 C 0.3222(4) 0.29959(16) 0.74797(13)
C9 C 0.3545(5) 0.35341(17) 0.69531(14)
C10 C 0.3424(5) 0.33907(16) 0.80815(13)
H6 H 0.4709 0.3632 0.8106
H7 H 0.2446 0.3799 0.8111
C11 C 0.3174(4) 0.28332(16) 0.86032(13)
H8 H 0.2478 0.3102 0.8914
H9 H 0.4464 0.2695 0.8751
C12 C 0.2051(3) 0.20832(15) 0.84509(12)
C13 C 0.0410(4) 0.22613(17) 0.79987(12)
C14 C -0.0714(5) 0.1494(2) 0.79779(13)
H10 H -0.0080 0.1129 0.7714
H11 H -0.2057 0.1575 0.7849
C15 C -0.0658(5) 0.11931(19) 0.86164(13)
H12 H -0.0246 0.0653 0.8625
H13 H -0.1950 0.1232 0.8793
C16 C 0.0830(4) 0.17068(16) 0.89529(12)
C17 C 0.3464(4) 0.14619(16) 0.82066(13)
H14 H 0.3802 0.1589 0.7809
H15 H 0.2836 0.0962 0.8217
H16 H 0.4635 0.1448 0.8441
C18 C 0.2198(6) 0.4246(2) 0.69627(18)
H17 H 0.0856 0.4080 0.6998
H18 H 0.2358 0.4534 0.6606
H19 H 0.2534 0.4570 0.7290
C19 C 0.1942(4) 0.12558(17) 0.94325(13)
C20 C 0.3374(4) 0.17879(18) 0.97393(13)
C21 C 0.0539(5) 0.09037(18) 0.98835(13)
H20 H -0.0163 0.1321 1.0078
H21 H -0.0422 0.0586 0.9680
C22 C 0.1547(5) 0.0413(2) 1.03410(17)
H22 H 0.2327 0.0018 1.0146
H23 H 0.2437 0.0739 1.0565
C23 C 0.0152(6) 0.0026(2) 1.07523(17)
H24 H -0.1173 0.0056 1.0654
C24 C 0.0570(7) -0.03503(19) 1.12363(17)
C25 C 0.2599(10) -0.0393(4) 1.1465(2)
H25 H 0.3076 -0.0916 1.1431
H26 H 0.2610 -0.0240 1.1870
H27 H 0.3430 -0.0051 1.1244
C26 C -0.0971(8) -0.0716(3) 1.1619(2)
H28 H -0.2203 -0.0725 1.1414
H29 H -0.1108 -0.0418 1.1973
H30 H -0.0586 -0.1237 1.1715
C27 C 0.3001(8) 0.3905(3) 0.5477(2)
H31 H 0.3796 0.4164 0.5189
H32 H 0.2301 0.4284 0.5704
H33 H 0.2079 0.3569 0.5283
C28 C 0.5473(7) 0.2859(3) 0.55013(18)
H34 H 0.6260 0.3144 0.5226
H35 H 0.4581 0.2526 0.5293
H36 H 0.6312 0.2550 0.5747
C29 C -0.1034(5) 0.2896(2) 0.82222(15)
H37 H -0.0317 0.3363 0.8309
H38 H -0.1680 0.2716 0.8571
H39 H -0.1998 0.3002 0.7925
H40 H 0.651(4) 0.3330(13) 0.6910(13)
H41 H 0.404(4) 0.2570(12) 0.6508(12)
H42 H 0.431(3) 0.2626(12) 0.7475(12)
H43 H 0.005(3) 0.2106(13) 0.9149(11)
H44 H 0.270(4) 0.0864(16) 0.9242(12)
loop_
_geom_bond_atom_site_label_1
_geom_bond_atom_site_label_2
_geom_bond_site_symmetry_1
_geom_bond_site_symmetry_2
O1 H1 1_555 1_555
O2 C2 1_555 1_555
O3 C20 1_555 1_555
O4 H2 1_555 1_555
C1 O1 1_555 1_555
C2 C1 1_555 1_555
C3 C2 1_555 1_555
C4 C3 1_555 1_555
C5 C4 1_555 1_555
H3 C5 1_555 1_555
H4 C5 1_555 1_555
C6 C5 1_555 1_555
H5 C6 1_555 1_555
C7 C6 1_555 1_555
C8 C7 1_555 1_555
C9 C1 1_555 1_555
C10 C8 1_555 1_555
H6 C10 1_555 1_555
H7 C10 1_555 1_555
C11 C10 1_555 1_555
H8 C11 1_555 1_555
H9 C11 1_555 1_555
C12 C11 1_555 1_555
C13 C7 1_555 1_555
C14 C13 1_555 1_555
H10 C14 1_555 1_555
H11 C14 1_555 1_555
C15 C14 1_555 1_555
H12 C15 1_555 1_555
H13 C15 1_555 1_555
C16 C12 1_555 1_555
C17 C12 1_555 1_555
H14 C17 1_555 1_555
H15 C17 1_555 1_555
H16 C17 1_555 1_555
C18 C9 1_555 1_555
H17 C18 1_555 1_555
H18 C18 1_555 1_555
H19 C18 1_555 1_555
C19 C16 1_555 1_555
C20 O4 1_555 1_555
C21 C19 1_555 1_555
H20 C21 1_555 1_555
H21 C21 1_555 1_555
C22 C21 1_555 1_555
H22 C22 1_555 1_555
H23 C22 1_555 1_555
C23 C22 1_555 1_555
H24 C23 1_555 1_555
C24 C23 1_555 1_555
C25 C24 1_555 1_555
H25 C25 1_555 1_555
H26 C25 1_555 1_555
H27 C25 1_555 1_555
C26 C24 1_555 1_555
H28 C26 1_555 1_555
H29 C26 1_555 1_555
H30 C26 1_555 1_555
C27 C3 1_555 1_555
H31 C27 1_555 1_555
H32 C27 1_555 1_555
H33 C27 1_555 1_555
C28 C3 1_555 1_555
H34 C28 1_555 1_555
H35 C28 1_555 1_555
H36 C28 1_555 1_555
C29 C13 1_555 1_555
H37 C29 1_555 1_555
H38 C29 1_555 1_555
H39 C29 1_555 1_555
H40 C1 1_555 1_555
H41 C4 1_555 1_555
H42 C8 1_555 1_555
H43 C16 1_555 1_555
H44 C19 1_555 1_555
C4 C9 1_555 1_555
C8 C9 1_555 1_555
C12 C13 1_555 1_555
C15 C16 1_555 1_555
C19 C20 1_555 1_555

#END
