
#######################################################################
#
#                 Cambridge Crystallographic Data Centre
#                                CCDC 
#
#######################################################################
#
# If this CIF has been generated from an entry in the Cambridge 
# Structural Database, then it will include bibliographic, chemical, 
# crystal, experimental, refinement or atomic coordinate data resulting 
# from the CCDC's data processing and validation procedures.
#
#######################################################################

data_TUHMUG
_chemical_formula_moiety         'C25 H21 Br2 N3 O6'
_chemical_name_systematic        
'3-ethyl 1-vinyl 2-amino-4,6-bis(4-bromophenyl)-3-cyano-5-nitrocyclohex-1-ene-1,3-dicarboxylate'
_symmetry_cell_setting           monoclinic
_symmetry_space_group_name_H-M   'P 21/n'
_symmetry_Int_Tables_number      14
_space_group_name_Hall           '-P 2yn'
loop_
_symmetry_equiv_pos_site_id
_symmetry_equiv_pos_as_xyz
1 x,y,z
2 1/2-x,1/2+y,1/2-z
3 -x,-y,-z
4 1/2+x,1/2-y,1/2+z
_cell_length_a                   10.0785(12)
_cell_length_b                   13.5288(17)
_cell_length_c                   19.573(3)
_cell_angle_alpha                90
_cell_angle_beta                 95.016(4)
_cell_angle_gamma                90
_cell_volume                     2658.56
_cell_formula_units_Z            4
loop_
_atom_site_label
_atom_site_type_symbol
_atom_site_fract_x
_atom_site_fract_y
_atom_site_fract_z
Br1 Br 0.60862(8) 0.51153(5) 0.61191(4)
Br2 Br 0.62346(8) 0.13637(5) 0.01553(3)
C1 C 0.6209(6) 0.3944(4) 0.5603(3)
C2 C 0.5347(6) 0.3183(4) 0.5685(3)
H1 H 0.4722 0.3231 0.6006
C3 C 0.5410(5) 0.2351(4) 0.5294(3)
H2 H 0.4819 0.1835 0.5349
C4 C 0.6338(5) 0.2260(3) 0.4815(2)
C5 C 0.7210(5) 0.3030(4) 0.4744(2)
H3 H 0.7853 0.2980 0.4433
C6 C 0.7133(6) 0.3874(4) 0.5134(3)
H4 H 0.7712 0.4398 0.5078
C7 C 0.5887(5) 0.0705(3) 0.2467(2)
C8 C 0.4842(6) 0.1111(4) 0.2059(3)
H5 H 0.4053 0.1260 0.2250
C9 C 0.4943(7) 0.1299(5) 0.1378(3)
H6 H 0.4231 0.1579 0.1111
C10 C 0.6103(7) 0.1073(4) 0.1092(3)
C11 C 0.7146(6) 0.0640(4) 0.1476(3)
H7 H 0.7916 0.0460 0.1278
C12 C 0.7030(5) 0.0476(4) 0.2166(3)
H8 H 0.7746 0.0202 0.2433
C13 C 0.5762(5) 0.0575(3) 0.3229(2)
H9 H 0.4813 0.0512 0.3295
C14 C 0.6282(5) 0.1501(3) 0.3608(2)
H10 H 0.7189 0.1639 0.3490
C15 C 0.6303(5) 0.1336(3) 0.4382(2)
H11 H 0.5473 0.0993 0.4459
C16 C 0.7456(4) 0.0591(3) 0.4576(2)
C17 C 0.7277(5) -0.0334(3) 0.4131(2)
C18 C 0.6469(5) -0.0333(3) 0.3539(2)
C19 C 0.6197(6) -0.1279(4) 0.3191(3)
C20 C 0.8775(6) 0.1010(4) 0.4476(2)
C21 C 0.7349(6) 0.0335(4) 0.5337(3)
C22 C 0.8238(8) 0.0506(8) 0.6472(3)
H12 H 0.7470 0.0848 0.6623
H13 H 0.8124 -0.0196 0.6550
C23 C 0.4865(10) -0.2098(6) 0.2327(5)
H14 H 0.5209 -0.2723 0.2434
C24 C 0.4129(17) -0.1896(10) 0.1795(7)
H15 H 0.3820 -0.1254 0.1721
H16 H 0.3892 -0.2387 0.1476
C25 C 0.9356(12) 0.0827(12) 0.6838(5)
H17 H 1.0122 0.0633 0.6611
H18 H 0.9408 0.0541 0.7289
H19 H 0.9331 0.1534 0.6874
N1 N 0.7973(5) -0.1120(3) 0.4386(2)
H20 H 0.7924 -0.1673 0.4169
H21 H 0.8467 -0.1068 0.4765
N2 N 0.9798(5) 0.1298(3) 0.4373(2)
N3 N 0.5403(7) 0.2365(4) 0.3405(2)
O1 O 0.6829(5) -0.2036(3) 0.3290(2)
O2 O 0.4242(6) 0.2304(4) 0.3506(3)
O3 O 0.5923(6) 0.3075(3) 0.3156(2)
O4 O 0.5108(4) -0.1231(3) 0.2751(2)
O5 O 0.8328(4) 0.0690(3) 0.57317(17)
O6 O 0.6441(4) -0.0118(4) 0.5523(2)
loop_
_geom_bond_atom_site_label_1
_geom_bond_atom_site_label_2
_geom_bond_site_symmetry_1
_geom_bond_site_symmetry_2
Br1 C1 1_555 1_555
Br2 C10 1_555 1_555
C1 C2 1_555 1_555
C2 H1 1_555 1_555
C3 C2 1_555 1_555
H2 C3 1_555 1_555
C4 C3 1_555 1_555
C5 C4 1_555 1_555
H3 C5 1_555 1_555
C6 C1 1_555 1_555
H4 C6 1_555 1_555
C7 C8 1_555 1_555
C8 H5 1_555 1_555
C9 C8 1_555 1_555
H6 C9 1_555 1_555
C10 C9 1_555 1_555
C11 C10 1_555 1_555
H7 C11 1_555 1_555
C12 C7 1_555 1_555
H8 C12 1_555 1_555
C13 C7 1_555 1_555
H9 C13 1_555 1_555
C14 C13 1_555 1_555
H10 C14 1_555 1_555
C15 C4 1_555 1_555
H11 C15 1_555 1_555
C16 C15 1_555 1_555
C17 C16 1_555 1_555
C18 C13 1_555 1_555
C19 C18 1_555 1_555
C20 C16 1_555 1_555
C21 C16 1_555 1_555
C22 H12 1_555 1_555
H13 C22 1_555 1_555
C23 H14 1_555 1_555
C24 C23 1_555 1_555
H15 C24 1_555 1_555
H16 C24 1_555 1_555
C25 C22 1_555 1_555
H17 C25 1_555 1_555
H18 C25 1_555 1_555
H19 C25 1_555 1_555
N1 C17 1_555 1_555
H20 N1 1_555 1_555
H21 N1 1_555 1_555
N2 C20 1_555 1_555
N3 C14 1_555 1_555
O1 C19 1_555 1_555
O2 N3 1_555 1_555
O3 N3 1_555 1_555
O4 C19 1_555 1_555
O5 C21 1_555 1_555
O6 C21 1_555 1_555
C5 C6 1_555 1_555
C11 C12 1_555 1_555
C14 C15 1_555 1_555
C17 C18 1_555 1_555
C22 O5 1_555 1_555
C23 O4 1_555 1_555

#END
