
#######################################################################
#
#                 Cambridge Crystallographic Data Centre
#                                CCDC 
#
#######################################################################
#
# If this CIF has been generated from an entry in the Cambridge 
# Structural Database, then it will include bibliographic, chemical, 
# crystal, experimental, refinement or atomic coordinate data resulting 
# from the CCDC's data processing and validation procedures.
#
#######################################################################

data_TUHNAN
_chemical_formula_moiety         'C27 H29 N3 O6'
_chemical_name_systematic        
'diethyl 2-amino-3-cyano-4,6-bis(4-methylphenyl)-5-nitrocyclohex-1-ene-1,3-dicarboxylate'
_symmetry_cell_setting           monoclinic
_symmetry_space_group_name_H-M   'P 21/c'
_symmetry_Int_Tables_number      14
_space_group_name_Hall           '-P 2ybc'
loop_
_symmetry_equiv_pos_site_id
_symmetry_equiv_pos_as_xyz
1 x,y,z
2 -x,1/2+y,1/2-z
3 -x,-y,-z
4 x,1/2-y,1/2+z
_cell_length_a                   8.8799(17)
_cell_length_b                   15.072(3)
_cell_length_c                   19.778(4)
_cell_angle_alpha                90
_cell_angle_beta                 91.950(6)
_cell_angle_gamma                90
_cell_volume                     2645.51
_cell_formula_units_Z            4
loop_
_atom_site_label
_atom_site_type_symbol
_atom_site_fract_x
_atom_site_fract_y
_atom_site_fract_z
C1 C 0.1137(4) -0.2400(2) 0.73927(19)
H1 H 0.1077 -0.2911 0.7681
H2 H 0.1705 -0.2546 0.7004
H3 H 0.0139 -0.2220 0.7249
C2 C 0.1897(3) -0.1659(2) 0.77730(17)
C3 C 0.2288(4) -0.1724(2) 0.84451(19)
H4 H 0.2130 -0.2259 0.8666
C4 C 0.2908(3) -0.10283(19) 0.88057(15)
H5 H 0.3153 -0.1099 0.9263
C5 C 0.3171(2) -0.02250(16) 0.84955(12)
C6 C 0.2787(3) -0.01598(19) 0.78112(13)
H6 H 0.2948 0.0372 0.7586
C7 C 0.2174(3) -0.0866(2) 0.74603(15)
H7 H 0.1943 -0.0806 0.7001
C8 C 0.2612(3) 0.29696(16) 0.91608(12)
C9 C 0.1322(3) 0.32724(19) 0.94526(14)
H8 H 0.0877 0.2935 0.9785
C10 C 0.0684(3) 0.4071(2) 0.92564(18)
H9 H -0.0198 0.4259 0.9452
C11 C 0.1329(4) 0.4590(2) 0.8779(2)
C12 C 0.0681(5) 0.5497(2) 0.8584(2)
H10 H -0.0398 0.5476 0.8593
H11 H 0.0980 0.5649 0.8136
H12 H 0.1055 0.5936 0.8899
C13 C 0.2590(4) 0.4282(2) 0.84808(16)
H13 H 0.3027 0.4622 0.8147
C14 C 0.3231(3) 0.34803(18) 0.86615(14)
H14 H 0.4084 0.3282 0.8447
C15 C 0.3320(2) 0.20835(15) 0.93693(11)
H15 H 0.2902 0.1909 0.9802
C16 C 0.2865(2) 0.13815(14) 0.88482(11)
H16 H 0.2968 0.1630 0.8394
C17 C 0.3784(2) 0.05369(14) 0.89059(11)
H17 H 0.3792 0.0354 0.9382
C18 C 0.5431(2) 0.07906(16) 0.87406(10)
C19 C 0.5991(3) 0.15723(18) 0.91741(11)
C20 C 0.5020(2) 0.21331(16) 0.94674(11)
C21 C 0.5553(3) 0.10610(17) 0.80278(14)
C22 C 0.5628(3) 0.28118(18) 0.99279(13)
C23 C 0.5050(4) 0.3916(2) 1.07331(15)
H18 H 0.5731 0.4308 1.0503
H19 H 0.5577 0.3679 1.1131
C24 C 0.3718(4) 0.4404(3) 1.09299(18)
H20 H 0.3220 0.4650 1.0534
H21 H 0.4013 0.4874 1.1234
H22 H 0.3044 0.4009 1.1151
C25 C 0.6415(3) -0.00267(18) 0.89053(13)
C26 C 0.8327(4) -0.0977(3) 0.8538(2)
H23 H 0.9180 -0.0926 0.8247
H24 H 0.8705 -0.0962 0.9003
C27 C 0.7560(6) -0.1820(3) 0.8406(2)
H25 H 0.6856 -0.1930 0.8755
H26 H 0.8288 -0.2290 0.8403
H27 H 0.7031 -0.1794 0.7976
N1 N 0.7508(2) 0.16340(17) 0.92362(11)
H28 H 0.7916 0.2052 0.9475
H29 H 0.8065 0.1256 0.9037
N2 N 0.1221(2) 0.11344(14) 0.89414(13)
N3 N 0.5616(3) 0.13109(17) 0.74875(13)
O1 O 0.0390(2) 0.11715(14) 0.84493(11)
O2 O 0.0842(2) 0.08939(15) 0.94865(12)
O3 O 0.6337(2) -0.04161(15) 0.94253(10)
O4 O 0.7306(2) -0.02265(13) 0.84149(9)
O5 O 0.6959(2) 0.30164(14) 0.99956(10)
O6 O 0.45771(19) 0.31980(12) 1.02874(8)
loop_
_geom_bond_atom_site_label_1
_geom_bond_atom_site_label_2
_geom_bond_site_symmetry_1
_geom_bond_site_symmetry_2
C1 H1 1_555 1_555
H2 C1 1_555 1_555
H3 C1 1_555 1_555
C2 C1 1_555 1_555
C3 C2 1_555 1_555
H4 C3 1_555 1_555
C4 C3 1_555 1_555
H5 C4 1_555 1_555
C5 C4 1_555 1_555
C6 C5 1_555 1_555
H6 C6 1_555 1_555
C7 C2 1_555 1_555
H7 C7 1_555 1_555
C8 C9 1_555 1_555
C9 H8 1_555 1_555
C10 C9 1_555 1_555
H9 C10 1_555 1_555
C11 C10 1_555 1_555
C12 C11 1_555 1_555
H10 C12 1_555 1_555
H11 C12 1_555 1_555
H12 C12 1_555 1_555
C13 C11 1_555 1_555
H13 C13 1_555 1_555
C14 C8 1_555 1_555
H14 C14 1_555 1_555
C15 C8 1_555 1_555
H15 C15 1_555 1_555
C16 C15 1_555 1_555
H16 C16 1_555 1_555
C17 C5 1_555 1_555
H17 C17 1_555 1_555
C18 C17 1_555 1_555
C19 C18 1_555 1_555
C20 C15 1_555 1_555
C21 C18 1_555 1_555
C22 C20 1_555 1_555
C23 H18 1_555 1_555
H19 C23 1_555 1_555
C24 C23 1_555 1_555
H20 C24 1_555 1_555
H21 C24 1_555 1_555
H22 C24 1_555 1_555
C25 C18 1_555 1_555
C26 H23 1_555 1_555
H24 C26 1_555 1_555
C27 C26 1_555 1_555
H25 C27 1_555 1_555
H26 C27 1_555 1_555
H27 C27 1_555 1_555
N1 C19 1_555 1_555
H28 N1 1_555 1_555
H29 N1 1_555 1_555
N2 C16 1_555 1_555
N3 C21 1_555 1_555
O1 N2 1_555 1_555
O2 N2 1_555 1_555
O3 C25 1_555 1_555
O4 C25 1_555 1_555
O5 C22 1_555 1_555
O6 C22 1_555 1_555
C6 C7 1_555 1_555
C13 C14 1_555 1_555
C16 C17 1_555 1_555
C19 C20 1_555 1_555
C23 O6 1_555 1_555
C26 O4 1_555 1_555

#END
