
#######################################################################
#
#                 Cambridge Crystallographic Data Centre
#                                CCDC 
#
#######################################################################
#
# If this CIF has been generated from an entry in the Cambridge 
# Structural Database, then it will include bibliographic, chemical, 
# crystal, experimental, refinement or atomic coordinate data resulting 
# from the CCDC's data processing and validation procedures.
#
#######################################################################

data_TUHNUH
_chemical_formula_moiety         'C14 H19 N1 O3'
_chemical_name_systematic        
(8aS)-4-(4-methoxyphenyl)hexahydro-1H-pyrrolo[2,1-c][1,4]oxazin-3-ol
_symmetry_cell_setting           monoclinic
_symmetry_space_group_name_H-M   'P 21'
_symmetry_Int_Tables_number      4
_space_group_name_Hall           'P 2yb'
loop_
_symmetry_equiv_pos_site_id
_symmetry_equiv_pos_as_xyz
1 x,y,z
2 -x,1/2+y,-z
_cell_length_a                   7.727(2)
_cell_length_b                   5.2762(13)
_cell_length_c                   15.509(4)
_cell_angle_alpha                90
_cell_angle_beta                 97.931(5)
_cell_angle_gamma                90
_cell_volume                     626.242
_exptl_crystal_colour            colorless
_exptl_crystal_description       prismatic
_chemical_melting_point          '413 K'
_cell_formula_units_Z            2
_exptl_crystal_recrystallization_method Methanol/water
loop_
_atom_site_label
_atom_site_type_symbol
_atom_site_fract_x
_atom_site_fract_y
_atom_site_fract_z
N1 N 0.6559(6) 0.4595(9) 0.8029(3)
O1 O 0.9123(6) -0.1360(10) 0.7984(3)
H1 H 0.8256 -0.2267 0.7891
O2 O 0.8345(7) 0.0823(10) 0.9135(3)
O3 O 0.7639(5) 0.2308(10) 0.4090(2)
C1 C 0.4770(8) 0.5270(13) 0.7656(4)
H2 H 0.4531 0.4712 0.7056
H3 H 0.4605 0.7091 0.7674
C2 C 0.3535(9) 0.3904(18) 0.8221(4)
H4 H 0.2594 0.5020 0.8333
H5 H 0.3035 0.2395 0.7928
C3 C 0.4663(9) 0.3220(16) 0.9054(4)
H6 H 0.4787 0.1396 0.9112
H7 H 0.4173 0.3874 0.9553
C4 C 0.6463(9) 0.4494(13) 0.8979(3)
H8 H 0.6417 0.6241 0.9189
C5 C 0.8046(11) 0.3247(15) 0.9475(4)
H9 H 0.9062 0.4308 0.9448
H10 H 0.7883 0.3082 1.0082
C6 C 0.8650(7) 0.0986(13) 0.8257(4)
H11 H 0.9622 0.2160 0.8226
C7 C 0.7020(7) 0.2040(11) 0.7689(3)
H12 H 0.6047 0.0887 0.7744
C8 C 0.7229(6) 0.2187(10) 0.6735(3)
C9 C 0.8216(8) 0.4063(13) 0.6413(4)
H13 H 0.8788 0.5253 0.6793
C10 C 0.8368(7) 0.4195(12) 0.5527(4)
H14 H 0.9010 0.5491 0.5316
C11 C 0.7552(6) 0.2376(12) 0.4962(3)
C12 C 0.6587(7) 0.0494(12) 0.5285(3)
H15 H 0.6047 -0.0735 0.4910
C13 C 0.6411(7) 0.0407(12) 0.6162(3)
H16 H 0.5736 -0.0858 0.6368
C14 C 0.8487(9) 0.4365(19) 0.3713(4)
H17 H 0.7876 0.5915 0.3790
H18 H 0.8483 0.4055 0.3103
H19 H 0.9671 0.4504 0.3993
loop_
_geom_bond_atom_site_label_1
_geom_bond_atom_site_label_2
_geom_bond_site_symmetry_1
_geom_bond_site_symmetry_2
N1 C1 1_555 1_555
O1 H1 1_555 1_555
O2 C5 1_555 1_555
O3 C11 1_555 1_555
C1 H2 1_555 1_555
H3 C1 1_555 1_555
C2 C1 1_555 1_555
H4 C2 1_555 1_555
H5 C2 1_555 1_555
C3 C2 1_555 1_555
H6 C3 1_555 1_555
H7 C3 1_555 1_555
C4 N1 1_555 1_555
H8 C4 1_555 1_555
C5 C4 1_555 1_555
H9 C5 1_555 1_555
H10 C5 1_555 1_555
C6 O1 1_555 1_555
H11 C6 1_555 1_555
C7 N1 1_555 1_555
H12 C7 1_555 1_555
C8 C7 1_555 1_555
C9 C8 1_555 1_555
H13 C9 1_555 1_555
C10 C9 1_555 1_555
H14 C10 1_555 1_555
C11 C10 1_555 1_555
C12 C11 1_555 1_555
H15 C12 1_555 1_555
C13 C8 1_555 1_555
H16 C13 1_555 1_555
C14 O3 1_555 1_555
H17 C14 1_555 1_555
H18 C14 1_555 1_555
H19 C14 1_555 1_555
O2 C6 1_555 1_555
C3 C4 1_555 1_555
C6 C7 1_555 1_555
C12 C13 1_555 1_555

#END
