
#######################################################################
#
#                 Cambridge Crystallographic Data Centre
#                                CCDC 
#
#######################################################################
#
# If this CIF has been generated from an entry in the Cambridge 
# Structural Database, then it will include bibliographic, chemical, 
# crystal, experimental, refinement or atomic coordinate data resulting 
# from the CCDC's data processing and validation procedures.
#
#######################################################################

data_TUHPOD
_chemical_formula_moiety         'C33 H33 N3 O6'
_chemical_name_systematic        
"dimethyl 10'-benzyl-1-butyl-5-methyl-2-oxo-1,2,10',10a'-tetrahydrospiro[indole-3,2'-[1,3]oxazino[3,2-a]benzimidazole]-3',4'-dicarboxylate unknown solvate"
_symmetry_cell_setting           monoclinic
_symmetry_space_group_name_H-M   'P 21/c'
_symmetry_Int_Tables_number      14
_space_group_name_Hall           '-P 2ybc'
loop_
_symmetry_equiv_pos_site_id
_symmetry_equiv_pos_as_xyz
1 x,y,z
2 -x,1/2+y,1/2-z
3 -x,-y,-z
4 x,1/2-y,1/2+z
_cell_length_a                   12.945(2)
_cell_length_b                   8.9003(14)
_cell_length_c                   28.818(5)
_cell_angle_alpha                90
_cell_angle_beta                 91.321(2)
_cell_angle_gamma                90
_cell_volume                     3319.37
_cell_formula_units_Z            4
loop_
_atom_site_label
_atom_site_type_symbol
_atom_site_fract_x
_atom_site_fract_y
_atom_site_fract_z
C1 C -0.2980(4) 0.4266(7) 0.2829(2)
H1 H -0.2541 0.4695 0.3067
H2 H -0.3592 0.3869 0.2966
H3 H -0.3170 0.5028 0.2607
C2 C -0.2414(3) 0.3023(5) 0.25887(15)
H4 H -0.2194 0.2285 0.2819
H5 H -0.2887 0.2528 0.2372
C3 C -0.1486(3) 0.3541(4) 0.23309(13)
H6 H -0.1030 0.4093 0.2542
H7 H -0.1707 0.4221 0.2085
C4 C -0.0896(3) 0.2246(4) 0.21227(12)
H8 H -0.0694 0.1552 0.2368
H9 H -0.1347 0.1713 0.1905
C5 C -0.0004(2) 0.3161(3) 0.14277(11)
C6 C 0.1125(2) 0.3626(3) 0.12991(8)
C7 C 0.1674(2) 0.3584(3) 0.17688(9)
C8 C 0.2661(2) 0.3955(3) 0.18963(10)
H10 H 0.3107 0.4341 0.1678
C9 C 0.3010(3) 0.3753(4) 0.23610(11)
C10 C 0.4117(3) 0.4115(6) 0.24977(14)
H11 H 0.4379 0.3359 0.2707
H12 H 0.4146 0.5078 0.2647
H13 H 0.4530 0.4136 0.2225
C11 C 0.2306(3) 0.3200(4) 0.26744(11)
H14 H 0.2525 0.3062 0.2981
C12 C 0.1294(3) 0.2844(4) 0.25526(11)
H15 H 0.0837 0.2490 0.2772
C13 C 0.0992(2) 0.3033(3) 0.20965(9)
C14 C 0.11501(19) 0.5094(3) 0.10374(8)
C15 C 0.0706(2) 0.6383(3) 0.12827(9)
C16 C 0.0432(3) 0.9009(3) 0.12752(12)
H16 H -0.0284 0.9007 0.1180
H17 H 0.0758 0.9901 0.1162
H18 H 0.0487 0.8989 0.1608
C17 C 0.15055(18) 0.5163(3) 0.05984(8)
C18 C 0.1454(2) 0.6535(3) 0.02926(9)
C19 C 0.0390(3) 0.8206(3) -0.01063(12)
H19 H 0.0756 0.9001 0.0051
H20 H -0.0330 0.8459 -0.0134
H21 H 0.0665 0.8071 -0.0410
C20 C 0.2318(2) 0.2790(3) 0.07446(9)
H22 H 0.2897 0.3097 0.0948
C21 C 0.20955(19) 0.3428(3) -0.00440(9)
C22 C 0.1846(2) 0.4071(3) -0.04615(9)
H23 H 0.1589 0.5045 -0.0480
C23 C 0.1993(2) 0.3212(4) -0.08593(10)
H24 H 0.1832 0.3619 -0.1149
C24 C 0.2371(3) 0.1780(4) -0.08291(12)
H25 H 0.2469 0.1236 -0.1100
C25 C 0.2615(2) 0.1110(4) -0.03996(11)
H26 H 0.2863 0.0131 -0.0380
C26 C 0.2471(2) 0.1963(3) -0.00100(9)
C27 C 0.3345(2) 0.0454(3) 0.06358(11)
H27 H 0.3429 -0.0325 0.0404
H28 H 0.3068 -0.0014 0.0910
C28 C 0.4385(2) 0.1105(3) 0.07575(10)
C29 C 0.4958(3) 0.1860(4) 0.04342(13)
H29 H 0.4697 0.1969 0.0133
C30 C 0.5913(3) 0.2457(5) 0.05529(19)
H30 H 0.6289 0.2959 0.0330
C31 C 0.6309(3) 0.2318(5) 0.0993(2)
H31 H 0.6955 0.2710 0.1071
C32 C 0.5772(5) 0.1633(7) 0.12971(19)
H32 H 0.6041 0.1555 0.1598
C33 C 0.4821(3) 0.1012(5) 0.11988(11)
H33 H 0.4467 0.0524 0.1432
N1 N 0.00255(18) 0.2737(3) 0.18826(8)
N2 N 0.25984(18) 0.1558(2) 0.04570(8)
N3 N 0.20392(16) 0.3974(2) 0.04191(7)
O1 O -0.07405(17) 0.3108(3) 0.11607(8)
O2 O 0.14361(14) 0.23904(18) 0.10091(6)
O3 O 0.02104(16) 0.6253(2) 0.16252(7)
O4 O 0.09347(17) 0.77032(19) 0.10885(7)
O5 O 0.22109(14) 0.7231(2) 0.01922(7)
O6 O 0.05074(14) 0.68395(19) 0.01535(6)
loop_
_geom_bond_atom_site_label_1
_geom_bond_atom_site_label_2
_geom_bond_site_symmetry_1
_geom_bond_site_symmetry_2
C1 H1 1_555 1_555
H2 C1 1_555 1_555
H3 C1 1_555 1_555
C2 C1 1_555 1_555
H4 C2 1_555 1_555
H5 C2 1_555 1_555
C3 C2 1_555 1_555
H6 C3 1_555 1_555
H7 C3 1_555 1_555
C4 C3 1_555 1_555
H8 C4 1_555 1_555
H9 C4 1_555 1_555
C5 C6 1_555 1_555
C6 C7 1_555 1_555
C7 C8 1_555 1_555
C8 H10 1_555 1_555
C9 C8 1_555 1_555
C10 C9 1_555 1_555
H11 C10 1_555 1_555
H12 C10 1_555 1_555
H13 C10 1_555 1_555
C11 C9 1_555 1_555
H14 C11 1_555 1_555
C12 C11 1_555 1_555
H15 C12 1_555 1_555
C13 C7 1_555 1_555
C14 C6 1_555 1_555
C15 C14 1_555 1_555
C16 H16 1_555 1_555
H17 C16 1_555 1_555
H18 C16 1_555 1_555
C17 C14 1_555 1_555
C18 C17 1_555 1_555
C19 H19 1_555 1_555
H20 C19 1_555 1_555
H21 C19 1_555 1_555
C20 H22 1_555 1_555
C21 C22 1_555 1_555
C22 H23 1_555 1_555
C23 C22 1_555 1_555
H24 C23 1_555 1_555
C24 C23 1_555 1_555
H25 C24 1_555 1_555
C25 C24 1_555 1_555
H26 C25 1_555 1_555
C26 C21 1_555 1_555
C27 H27 1_555 1_555
H28 C27 1_555 1_555
C28 C27 1_555 1_555
C29 C28 1_555 1_555
H29 C29 1_555 1_555
C30 C29 1_555 1_555
H30 C30 1_555 1_555
C31 C30 1_555 1_555
H31 C31 1_555 1_555
C32 C31 1_555 1_555
H32 C32 1_555 1_555
C33 C28 1_555 1_555
H33 C33 1_555 1_555
N1 C4 1_555 1_555
N2 C20 1_555 1_555
N3 C17 1_555 1_555
O1 C5 1_555 1_555
O2 C6 1_555 1_555
O3 C15 1_555 1_555
O4 C15 1_555 1_555
O5 C18 1_555 1_555
O6 C18 1_555 1_555
C5 N1 1_555 1_555
C12 C13 1_555 1_555
C13 N1 1_555 1_555
C16 O4 1_555 1_555
C19 O6 1_555 1_555
C20 N3 1_555 1_555
C20 O2 1_555 1_555
C21 N3 1_555 1_555
C25 C26 1_555 1_555
C26 N2 1_555 1_555
C27 N2 1_555 1_555
C32 C33 1_555 1_555

#END
