
#######################################################################
#
#                 Cambridge Crystallographic Data Centre
#                                CCDC 
#
#######################################################################
#
# If this CIF has been generated from an entry in the Cambridge 
# Structural Database, then it will include bibliographic, chemical, 
# crystal, experimental, refinement or atomic coordinate data resulting 
# from the CCDC's data processing and validation procedures.
#
#######################################################################

data_TUHRIZ
_chemical_formula_moiety         'C36 H46 Mg1 N2 O1 P2 Se2,C4 H8 O1'
_chemical_name_systematic        
'bis(t-butyl(diphenylphosphoroselenoyl)amino)-(tetrahydrofuran)-magnesium tetrahydrofuran solvate'
_symmetry_cell_setting           monoclinic
_symmetry_space_group_name_H-M   'P 21/c'
_symmetry_Int_Tables_number      14
_space_group_name_Hall           '-P 2ybc'
loop_
_symmetry_equiv_pos_site_id
_symmetry_equiv_pos_as_xyz
1 x,y,z
2 -x,1/2+y,1/2-z
3 -x,-y,-z
4 x,1/2-y,1/2+z
_cell_length_a                   10.5224(4)
_cell_length_b                   10.0241(3)
_cell_length_c                   39.048(2)
_cell_angle_alpha                90
_cell_angle_beta                 93.679(4)
_cell_angle_gamma                90
_cell_volume                     4110.2
_exptl_crystal_colour            colorless
_exptl_crystal_description       block
_cell_formula_units_Z            4
loop_
_atom_site_label
_atom_site_type_symbol
_atom_site_fract_x
_atom_site_fract_y
_atom_site_fract_z
Se1 Se 0.08309(4) 0.29473(4) 0.340492(9)
Se2 Se -0.24148(3) -0.02889(4) 0.383377(9)
P1 P -0.26053(8) -0.05545(9) 0.32848(2)
P2 P 0.11182(8) 0.29628(9) 0.39571(2)
Mg1 Mg -0.02093(10) 0.06354(11) 0.36097(3)
O1 O 0.1060(2) -0.0938(2) 0.36121(6)
C1 C 0.0757(4) 0.5038(4) 0.44398(9)
H1 H 0.1542 0.4803 0.4546
C2 C 0.1481(4) -0.3073(4) 0.34127(11)
H2 H 0.1034 -0.3057 0.3188
H3 H 0.1630 -0.3991 0.3482
C3 C -0.4105(3) 0.0182(4) 0.31148(9)
C4 C -0.4070(4) -0.4331(5) 0.33048(11)
H4 H -0.4818 -0.4730 0.3367
C5 C -0.2834(3) -0.2344(4) 0.32170(9)
C6 C 0.2818(3) 0.3226(4) 0.40564(9)
C7 C -0.3947(4) -0.2953(4) 0.33167(11)
H5 H -0.4608 -0.2433 0.3391
C8 C -0.1978(4) -0.4521(4) 0.31055(9)
H6 H -0.1313 -0.5048 0.3037
C9 C -0.1574(4) 0.5776(4) 0.41230(10)
H7 H -0.2349 0.6033 0.4015
C10 C -0.0863(3) 0.4781(4) 0.39825(9)
H8 H -0.1171 0.4360 0.3782
C11 C -0.3086(4) -0.5111(4) 0.32010(10)
H9 H -0.3169 -0.6034 0.3195
C12 C -0.1855(3) -0.3136(4) 0.31114(9)
H10 H -0.1110 -0.2743 0.3044
N1 N 0.0586(3) 0.1546(3) 0.40723(7)
C13 C 0.0405(3) 0.1145(4) 0.44353(8)
N2 N -0.1325(3) 0.0060(3) 0.31469(7)
C14 C -0.0878(4) 0.1663(4) 0.45478(9)
H11 H -0.0854 0.2618 0.4563
H12 H -0.1037 0.1296 0.4768
H13 H -0.1546 0.1397 0.4383
C15 C 0.0317(3) 0.4401(3) 0.41379(9)
C16 C -0.4847(4) -0.0390(4) 0.28436(10)
H14 H -0.4611 -0.1201 0.2751
C17 C -0.1621(4) 0.1799(4) 0.27002(10)
H15 H -0.2528 0.1817 0.2715
H16 H -0.1416 0.2046 0.2473
H17 H -0.1231 0.2417 0.2863
C18 C 0.0317(4) 0.0331(5) 0.27424(10)
H18 H 0.0741 0.0934 0.2903
H19 H 0.0495 0.0583 0.2513
H20 H 0.0617 -0.0560 0.2787
C19 C -0.1754(4) -0.0590(4) 0.25186(9)
H21 H -0.1429 -0.1472 0.2564
H22 H -0.1566 -0.0325 0.2291
H23 H -0.2659 -0.0585 0.2537
C20 C -0.4489(4) 0.1384(4) 0.32541(11)
H24 H -0.4005 0.1768 0.3436
C21 C -0.6302(4) 0.1456(5) 0.28488(13)
H25 H -0.7027 0.1889 0.2757
C22 C -0.5595(4) 0.2016(4) 0.31220(13)
H26 H -0.5856 0.2812 0.3218
C23 C -0.5943(4) 0.0265(5) 0.27123(11)
H27 H -0.6434 -0.0110 0.2531
C24 C 0.5457(4) 0.3501(5) 0.41403(11)
H28 H 0.6337 0.3592 0.4169
C25 C 0.2714(4) -0.2300(4) 0.34143(13)
H29 H 0.3032 -0.2279 0.3187
H30 H 0.3356 -0.2699 0.3572
C26 C 0.1477(4) 0.1632(4) 0.46936(9)
H31 H 0.2278 0.1281 0.4631
H32 H 0.1312 0.1328 0.4920
H33 H 0.1507 0.2589 0.4691
C27 C 0.0751(4) -0.2328(4) 0.36725(9)
H34 H -0.0157 -0.2483 0.3635
H35 H 0.1024 -0.2593 0.3905
C28 C 0.0426(4) -0.0378(4) 0.44439(9)
H36 H -0.0236 -0.0719 0.4287
H37 H 0.0291 -0.0681 0.4672
H38 H 0.1237 -0.0692 0.4378
C29 C 0.4915(4) 0.2245(5) 0.41263(11)
H39 H 0.5428 0.1490 0.4145
C30 C -0.1133(4) 0.6389(4) 0.44259(11)
H40 H -0.1618 0.7048 0.4523
C31 C 0.2380(4) -0.0903(4) 0.35309(14)
H41 H 0.2917 -0.0651 0.3731
H42 H 0.2500 -0.0262 0.3350
C32 C -0.1123(3) 0.0390(4) 0.27807(8)
C33 C 0.3376(4) 0.4491(4) 0.40692(10)
H43 H 0.2865 0.5247 0.4049
C34 C 0.0028(4) 0.6022(4) 0.45831(10)
H44 H 0.0323 0.6436 0.4786
C35 C 0.4694(4) 0.4622(5) 0.41122(12)
H45 H 0.5062 0.5466 0.4122
C36 C 0.3599(4) 0.2114(4) 0.40841(9)
H46 H 0.3238 0.1267 0.4074
O2 O -0.6306(5) -0.2364(6) 0.44176(18)
C37 C -0.4792(10) -0.2688(13) 0.4879(2)
H47 H -0.4660 -0.2418 0.5117
H48 H -0.4322 -0.3503 0.4843
C38 C -0.5370(9) -0.1483(9) 0.4398(3)
H49 H -0.5718 -0.0590 0.4413
H50 H -0.5010 -0.1570 0.4176
C39 C -0.4429(8) -0.1642(11) 0.4649(2)
H51 H -0.4297 -0.0814 0.4775
H52 H -0.3640 -0.1878 0.4549
C40 C -0.6203(9) -0.2859(12) 0.4775(2)
H53 H -0.6456 -0.3788 0.4786
H54 H -0.6724 -0.2334 0.4921
loop_
_geom_bond_atom_site_label_1
_geom_bond_atom_site_label_2
_geom_bond_site_symmetry_1
_geom_bond_site_symmetry_2
Se1 P2 1_555 1_555
Se2 P1 1_555 1_555
P1 C3 1_555 1_555
P2 C6 1_555 1_555
Mg1 Se1 1_555 1_555
O1 Mg1 1_555 1_555
C1 H1 1_555 1_555
C2 H2 1_555 1_555
H3 C2 1_555 1_555
C3 C16 1_555 1_555
C4 H4 1_555 1_555
C5 P1 1_555 1_555
C6 C33 1_555 1_555
C7 C4 1_555 1_555
H5 C7 1_555 1_555
C8 H6 1_555 1_555
C9 H7 1_555 1_555
C10 C9 1_555 1_555
H8 C10 1_555 1_555
C11 C4 1_555 1_555
H9 C11 1_555 1_555
C12 C5 1_555 1_555
H10 C12 1_555 1_555
N1 P2 1_555 1_555
C13 N1 1_555 1_555
N2 P1 1_555 1_555
C14 C13 1_555 1_555
H11 C14 1_555 1_555
H12 C14 1_555 1_555
H13 C14 1_555 1_555
C15 P2 1_555 1_555
C16 H14 1_555 1_555
C17 H15 1_555 1_555
H16 C17 1_555 1_555
H17 C17 1_555 1_555
C18 H18 1_555 1_555
H19 C18 1_555 1_555
H20 C18 1_555 1_555
C19 H21 1_555 1_555
H22 C19 1_555 1_555
H23 C19 1_555 1_555
C20 C3 1_555 1_555
H24 C20 1_555 1_555
C21 H25 1_555 1_555
C22 C20 1_555 1_555
H26 C22 1_555 1_555
C23 C16 1_555 1_555
H27 C23 1_555 1_555
C24 H28 1_555 1_555
C25 C2 1_555 1_555
H29 C25 1_555 1_555
H30 C25 1_555 1_555
C26 C13 1_555 1_555
H31 C26 1_555 1_555
H32 C26 1_555 1_555
H33 C26 1_555 1_555
C27 O1 1_555 1_555
H34 C27 1_555 1_555
H35 C27 1_555 1_555
C28 C13 1_555 1_555
H36 C28 1_555 1_555
H37 C28 1_555 1_555
H38 C28 1_555 1_555
C29 C24 1_555 1_555
H39 C29 1_555 1_555
C30 C9 1_555 1_555
H40 C30 1_555 1_555
C31 O1 1_555 1_555
H41 C31 1_555 1_555
H42 C31 1_555 1_555
C32 N2 1_555 1_555
C33 H43 1_555 1_555
C34 C1 1_555 1_555
H44 C34 1_555 1_555
C35 C24 1_555 1_555
H45 C35 1_555 1_555
C36 C6 1_555 1_555
H46 C36 1_555 1_555
O2 C38 1_555 1_555
C37 H47 1_555 1_555
H48 C37 1_555 1_555
C38 H49 1_555 1_555
H50 C38 1_555 1_555
C39 C37 1_555 1_555
H51 C39 1_555 1_555
H52 C39 1_555 1_555
C40 O2 1_555 1_555
H53 C40 1_555 1_555
H54 C40 1_555 1_555
Se2 Mg1 1_555 1_555
Mg1 N1 1_555 1_555
Mg1 N2 1_555 1_555
C1 C15 1_555 1_555
C2 C27 1_555 1_555
C5 C7 1_555 1_555
C8 C11 1_555 1_555
C8 C12 1_555 1_555
C10 C15 1_555 1_555
C17 C32 1_555 1_555
C18 C32 1_555 1_555
C19 C32 1_555 1_555
C21 C22 1_555 1_555
C21 C23 1_555 1_555
C25 C31 1_555 1_555
C29 C36 1_555 1_555
C30 C34 1_555 1_555
C33 C35 1_555 1_555
C37 C40 1_555 1_555
C38 C39 1_555 1_555

#END
