
#######################################################################
#
#                 Cambridge Crystallographic Data Centre
#                                CCDC 
#
#######################################################################
#
# If this CIF has been generated from an entry in the Cambridge 
# Structural Database, then it will include bibliographic, chemical, 
# crystal, experimental, refinement or atomic coordinate data resulting 
# from the CCDC's data processing and validation procedures.
#
#######################################################################

data_TUHXEB
_chemical_formula_moiety         'C17 H17 N1 O2'
_chemical_name_systematic        
'Methyl 4-phenyl-5,6,7,8-tetrahydroquinoline-2-carboxylate'
_symmetry_cell_setting           monoclinic
_symmetry_space_group_name_H-M   'C 2/c'
_symmetry_Int_Tables_number      15
_space_group_name_Hall           '-C 2yn'
loop_
_symmetry_equiv_pos_site_id
_symmetry_equiv_pos_as_xyz
1 x,y,z
2 -x,y,1/2-z
3 1/2+x,1/2+y,z
4 1/2-x,1/2+y,1/2-z
5 -x,-y,-z
6 x,-y,1/2+z
7 1/2-x,1/2-y,-z
8 1/2+x,1/2-y,1/2+z
_cell_length_a                   12.175(2)
_cell_length_b                   10.945(2)
_cell_length_c                   20.162(4)
_cell_angle_alpha                90
_cell_angle_beta                 91.26(3)
_cell_angle_gamma                90
_cell_volume                     2686.05
_exptl_crystal_colour            colorless
_exptl_crystal_description       Prism
_cell_formula_units_Z            8
loop_
_atom_site_label
_atom_site_type_symbol
_atom_site_fract_x
_atom_site_fract_y
_atom_site_fract_z
O1 O -0.12807(7) 0.71885(8) 0.47462(5)
O2 O 0.01739(8) 0.64519(8) 0.42079(5)
N1 N -0.09117(8) 0.94536(10) 0.43373(5)
C1 C 0.25793(10) 1.10761(12) 0.31827(7)
H1 H 0.2540 1.1552 0.3563
C2 C 0.34551(11) 1.12152(12) 0.27625(7)
H2 H 0.4007 1.1774 0.2868
C3 C 0.35173(11) 1.05286(13) 0.21863(7)
H3 H 0.4104 1.0630 0.1904
C4 C 0.26977(11) 0.96919(13) 0.20362(7)
H4 H 0.2731 0.9231 0.1650
C5 C 0.18254(11) 0.95377(12) 0.24599(6)
H5 H 0.1281 0.8968 0.2356
C6 C 0.17548(10) 1.02253(12) 0.30380(6)
C7 C 0.08272(10) 1.00029(12) 0.34962(6)
C8 C 0.06418(10) 0.88101(12) 0.37122(6)
H6 H 0.1092 0.8176 0.3576
C9 C -0.02224(10) 0.85827(11) 0.41320(6)
C10 C 0.01148(10) 1.09268(12) 0.37049(6)
C11 C -0.07486(10) 1.05983(12) 0.41253(6)
C12 C -0.15991(10) 1.15079(12) 0.43485(7)
H7 H -0.1651 1.1458 0.4827
H8 H -0.2308 1.1276 0.4158
C13 C -0.13640(11) 1.28275(12) 0.41591(6)
H9 H -0.2039 1.3297 0.4169
H10 H -0.0849 1.3181 0.4479
C14 C -0.08867(11) 1.28978(13) 0.34687(7)
H11 H -0.0784 1.3746 0.3344
H12 H -0.1390 1.2525 0.3149
C15 C 0.02137(11) 1.22306(12) 0.34665(7)
H13 H 0.0494 1.2232 0.3020
H14 H 0.0736 1.2663 0.3751
C16 C -0.04069(10) 0.72973(12) 0.43617(6)
C17 C -0.15246(12) 0.59552(13) 0.49651(7)
H15 H -0.1570 0.5421 0.4588
H16 H -0.2213 0.5951 0.5188
H17 H -0.0952 0.5678 0.5264
loop_
_geom_bond_atom_site_label_1
_geom_bond_atom_site_label_2
_geom_bond_site_symmetry_1
_geom_bond_site_symmetry_2
O1 C16 1_555 1_555
O2 C16 1_555 1_555
N1 C9 1_555 1_555
C1 H1 1_555 1_555
C2 C1 1_555 1_555
H2 C2 1_555 1_555
C3 C2 1_555 1_555
H3 C3 1_555 1_555
C4 C3 1_555 1_555
H4 C4 1_555 1_555
C5 C4 1_555 1_555
H5 C5 1_555 1_555
C6 C1 1_555 1_555
C7 C6 1_555 1_555
C8 C7 1_555 1_555
H6 C8 1_555 1_555
C9 C8 1_555 1_555
C10 C7 1_555 1_555
C11 N1 1_555 1_555
C12 C11 1_555 1_555
H7 C12 1_555 1_555
H8 C12 1_555 1_555
C13 C12 1_555 1_555
H9 C13 1_555 1_555
H10 C13 1_555 1_555
C14 C13 1_555 1_555
H11 C14 1_555 1_555
H12 C14 1_555 1_555
C15 C10 1_555 1_555
H13 C15 1_555 1_555
H14 C15 1_555 1_555
C16 C9 1_555 1_555
C17 O1 1_555 1_555
H15 C17 1_555 1_555
H16 C17 1_555 1_555
H17 C17 1_555 1_555
C5 C6 1_555 1_555
C10 C11 1_555 1_555
C14 C15 1_555 1_555

#END
