
#######################################################################
#
#                 Cambridge Crystallographic Data Centre
#                                CCDC 
#
#######################################################################
#
# If this CIF has been generated from an entry in the Cambridge 
# Structural Database, then it will include bibliographic, chemical, 
# crystal, experimental, refinement or atomic coordinate data resulting 
# from the CCDC's data processing and validation procedures.
#
#######################################################################

data_TUHYAY
_chemical_formula_moiety         'C20 H27 N1 O2 S1'
_chemical_name_systematic        
N-((2-Cyclohexylidene-3-isopropylidenecyclopropyl)methyl)-4-methylbenzenesulfonamide
_symmetry_cell_setting           triclinic
_symmetry_space_group_name_H-M   'P -1'
_symmetry_Int_Tables_number      2
_space_group_name_Hall           '-P 1'
loop_
_symmetry_equiv_pos_site_id
_symmetry_equiv_pos_as_xyz
1 x,y,z
2 -x,-y,-z
_cell_length_a                   8.6248(11)
_cell_length_b                   9.8158(12)
_cell_length_c                   11.6537(14)
_cell_angle_alpha                99.050(2)
_cell_angle_beta                 101.411(2)
_cell_angle_gamma                96.596(2)
_cell_volume                     944.13
_exptl_crystal_colour            colorless
_exptl_crystal_description       block
_cell_formula_units_Z            2
loop_
_atom_site_label
_atom_site_type_symbol
_atom_site_fract_x
_atom_site_fract_y
_atom_site_fract_z
N1 N 0.34077(14) 0.41913(12) 0.82923(10)
O1 O 0.07624(12) 0.41528(10) 0.88390(9)
O2 O 0.32721(13) 0.46924(10) 1.03908(8)
S1 S 0.23963(4) 0.48163(3) 0.92302(3)
C1 C 0.31595(17) 0.29886(15) 0.49842(12)
C2 C 0.29826(16) 0.28973(14) 0.62265(12)
H1 H 0.2351 0.2019 0.6324
C3 C 0.44959(17) 0.27392(14) 0.58005(12)
C4 C 0.23862(18) 0.32320(15) 0.39472(13)
C5 C 0.3150(2) 0.3229(2) 0.28937(15)
H2 H 0.4251 0.3040 0.3111
H3 H 0.3157 0.4141 0.2651
H4 H 0.2539 0.2503 0.2232
C6 C 0.0688(2) 0.35041(19) 0.37787(15)
H5 H -0.0016 0.2715 0.3230
H6 H 0.0592 0.4357 0.3448
H7 H 0.0376 0.3619 0.4549
C7 C 0.28179(17) 0.42191(15) 0.70199(12)
H8 H 0.3427 0.5025 0.6808
H9 H 0.1678 0.4347 0.6880
C8 C 0.60049(17) 0.25044(15) 0.61024(14)
C9 C 0.6721(2) 0.22412(18) 0.73208(15)
H10 H 0.5890 0.2206 0.7797
H11 H 0.7586 0.3016 0.7735
C10 C 0.7400(2) 0.0853(2) 0.72202(18)
H12 H 0.7958 0.0739 0.8020
H13 H 0.6511 0.0067 0.6911
C11 C 0.8560(2) 0.0816(2) 0.6396(2)
H14 H 0.8960 -0.0093 0.6331
H15 H 0.9488 0.1560 0.6736
C12 C 0.7762(2) 0.10230(19) 0.51605(19)
H16 H 0.6887 0.0239 0.4793
H17 H 0.8554 0.1023 0.4650
C13 C 0.7081(2) 0.24057(18) 0.52279(17)
H18 H 0.7972 0.3196 0.5477
H19 H 0.6468 0.2470 0.4430
C14 C 0.24092(15) 0.66043(13) 0.91590(11)
C15 C 0.10648(17) 0.72128(14) 0.92949(13)
H20 H 0.0156 0.6683 0.9443
C16 C 0.10720(19) 0.86114(15) 0.92107(14)
H21 H 0.0157 0.9034 0.9304
C17 C 0.23912(19) 0.94056(14) 0.89919(13)
C18 C 0.37270(19) 0.87717(15) 0.88615(15)
H22 H 0.4635 0.9301 0.8712
C19 C 0.37502(17) 0.73758(14) 0.89468(14)
H23 H 0.4669 0.6954 0.8861
C20 C 0.2381(2) 1.09181(17) 0.88931(19)
H24 H 0.2609 1.1492 0.9692
H25 H 0.1327 1.1035 0.8453
H26 H 0.3199 1.1211 0.8470
loop_
_geom_bond_atom_site_label_1
_geom_bond_atom_site_label_2
_geom_bond_site_symmetry_1
_geom_bond_site_symmetry_2
N1 S1 1_555 1_555
O1 S1 1_555 1_555
O2 S1 1_555 1_555
S1 C14 1_555 1_555
C1 C2 1_555 1_555
C2 H1 1_555 1_555
C3 C1 1_555 1_555
C4 C1 1_555 1_555
C5 C4 1_555 1_555
H2 C5 1_555 1_555
H3 C5 1_555 1_555
H4 C5 1_555 1_555
C6 C4 1_555 1_555
H5 C6 1_555 1_555
H6 C6 1_555 1_555
H7 C6 1_555 1_555
C7 N1 1_555 1_555
H8 C7 1_555 1_555
H9 C7 1_555 1_555
C8 C3 1_555 1_555
C9 C8 1_555 1_555
H10 C9 1_555 1_555
H11 C9 1_555 1_555
C10 C9 1_555 1_555
H12 C10 1_555 1_555
H13 C10 1_555 1_555
C11 C10 1_555 1_555
H14 C11 1_555 1_555
H15 C11 1_555 1_555
C12 C11 1_555 1_555
H16 C12 1_555 1_555
H17 C12 1_555 1_555
C13 C8 1_555 1_555
H18 C13 1_555 1_555
H19 C13 1_555 1_555
C14 C15 1_555 1_555
C15 H20 1_555 1_555
C16 C15 1_555 1_555
H21 C16 1_555 1_555
C17 C16 1_555 1_555
C18 C17 1_555 1_555
H22 C18 1_555 1_555
C19 C14 1_555 1_555
H23 C19 1_555 1_555
C20 C17 1_555 1_555
H24 C20 1_555 1_555
H25 C20 1_555 1_555
H26 C20 1_555 1_555
C2 C3 1_555 1_555
C2 C7 1_555 1_555
C12 C13 1_555 1_555
C18 C19 1_555 1_555

#END
