
#######################################################################
#
#                 Cambridge Crystallographic Data Centre
#                                CCDC 
#
#######################################################################
#
# If this CIF has been generated from an entry in the Cambridge 
# Structural Database, then it will include bibliographic, chemical, 
# crystal, experimental, refinement or atomic coordinate data resulting 
# from the CCDC's data processing and validation procedures.
#
#######################################################################

data_TUJBRP10
_chemical_formula_moiety         'C18 H17 Br1 O3'
_chemical_name_systematic        'Thujic acid p-bromophenacyl ester'
_symmetry_cell_setting           orthorhombic
_symmetry_space_group_name_H-M   'P b c a'
_symmetry_Int_Tables_number      61
_space_group_name_Hall           '-P 2ac 2ab'
loop_
_symmetry_equiv_pos_site_id
_symmetry_equiv_pos_as_xyz
1 x,y,z
2 1/2-x,1/2+y,z
3 x,1/2-y,1/2+z
4 1/2-x,-y,1/2+z
5 -x,-y,-z
6 1/2+x,1/2-y,-z
7 -x,1/2+y,1/2-z
8 1/2+x,y,1/2-z
_cell_length_a                   6.290
_cell_length_b                   30.500
_cell_length_c                   17.100
_cell_angle_alpha                90
_cell_angle_beta                 90
_cell_angle_gamma                90
_cell_volume                     3280.55
_cell_formula_units_Z            8
loop_
_atom_site_label
_atom_site_type_symbol
_atom_site_fract_x
_atom_site_fract_y
_atom_site_fract_z
Br1 Br 0.07870 0.04140 0.12160
C1 C -0.46770 0.20590 0.16590
C2 C -1.06790 0.46370 0.14980
C3 C -0.08850 0.09170 0.13630
C4 C -0.88810 0.39200 0.18360
C5 C -0.36710 0.25040 0.15150
C6 C -0.83490 0.42680 0.04970
C7 C -0.29480 0.08850 0.16370
C8 C -0.80410 0.35190 0.17670
C9 C -0.66360 0.28750 0.10220
C10 C -0.41060 0.12570 0.17350
C11 C -0.82260 0.32270 0.11130
C12 C -0.33140 0.16670 0.15340
C13 C -0.98400 0.32260 0.06030
C14 C -0.12680 0.17050 0.12450
C15 C -1.17020 0.35090 0.06350
C16 C -0.00150 0.13250 0.11460
C17 C -1.18030 0.39140 0.09130
C18 C -0.98810 0.41760 0.11710
H1 H -0.86700 0.41700 0.20000
H2 H -0.30000 0.24600 0.21700
H3 H -0.76000 0.40700 0.04200
H4 H -0.66700 0.43800 0.07500
H5 H -0.96000 0.44200 0.00800
H6 H -0.33700 0.06300 0.15000
H7 H -0.26700 0.25000 0.09200
H8 H -0.74000 0.32900 0.22200
H9 H -0.58300 0.12500 0.20000
H10 H -0.03300 0.19600 0.10000
H11 H -1.35000 0.33800 0.04200
H12 H 0.16700 0.12500 0.07500
H13 H -1.33300 0.41100 0.07000
O1 O -0.64950 0.20190 0.18490
O2 O -0.52560 0.28440 0.16040
O3 O -0.64680 0.26490 0.04290
loop_
_geom_bond_atom_site_label_1
_geom_bond_atom_site_label_2
_geom_bond_site_symmetry_1
_geom_bond_site_symmetry_2
Br1 C3 1_555 1_555
C1 C5 1_555 1_555
C2 C18 1_555 1_555
C3 C7 1_555 1_555
C4 C8 1_555 1_555
C5 H2 1_555 1_555
C6 C18 1_555 1_555
C7 C10 1_555 1_555
C8 C11 1_555 1_555
C9 C11 1_555 1_555
C10 C12 1_555 1_555
C11 C13 1_555 1_555
C12 C1 1_555 1_555
C13 C15 1_555 1_555
C14 C12 1_555 1_555
C15 C17 1_555 1_555
C16 C3 1_555 1_555
C17 C18 1_555 1_555
C18 C4 1_555 1_555
H1 C4 1_555 1_555
H3 C6 1_555 1_555
H4 C6 1_555 1_555
H5 C6 1_555 1_555
H6 C7 1_555 1_555
H7 C5 1_555 1_555
H8 C8 1_555 1_555
H9 C10 1_555 1_555
H10 C14 1_555 1_555
H11 C15 1_555 1_555
H12 C16 1_555 1_555
H13 C17 1_555 1_555
O1 C1 1_555 1_555
O2 C5 1_555 1_555
O3 C9 1_555 1_555
C9 O2 1_555 1_555
C14 C16 1_555 1_555

#END
