
#######################################################################
#
#                 Cambridge Crystallographic Data Centre
#                                CCDC 
#
#######################################################################
#
# If this CIF has been generated from an entry in the Cambridge 
# Structural Database, then it will include bibliographic, chemical, 
# crystal, experimental, refinement or atomic coordinate data resulting 
# from the CCDC's data processing and validation procedures.
#
#######################################################################

data_TUJDOT
_chemical_formula_moiety         'C24 H19 N3 O1'
_chemical_name_systematic        
N,4-diphenyl-4,5-dihydropyrrolo[1,2-a]quinoxaline-4-carboxamide
_symmetry_cell_setting           monoclinic
_symmetry_space_group_name_H-M   'P 21/c'
_symmetry_Int_Tables_number      14
_space_group_name_Hall           '-P 2ybc'
loop_
_symmetry_equiv_pos_site_id
_symmetry_equiv_pos_as_xyz
1 x,y,z
2 -x,1/2+y,1/2-z
3 -x,-y,-z
4 x,1/2-y,1/2+z
_cell_length_a                   8.90293(19)
_cell_length_b                   16.1909(4)
_cell_length_c                   13.4029(3)
_cell_angle_alpha                90
_cell_angle_beta                 106.340(3)
_cell_angle_gamma                90
_cell_volume                     1853.95
_exptl_crystal_colour            colorless
_exptl_crystal_description       needle
_cell_formula_units_Z            4
loop_
_atom_site_label
_atom_site_type_symbol
_atom_site_fract_x
_atom_site_fract_y
_atom_site_fract_z
O1 O 0.90499(11) 0.11009(6) 0.00853(7)
N1 N 1.03661(12) -0.00824(6) 0.15985(9)
N2 N 0.98257(12) 0.06136(7) 0.33201(8)
N3 N 0.91410(12) 0.20399(6) 0.13644(8)
H1 H 0.9568 0.2125 0.2033
C1 C 0.91080(14) -0.03699(7) 0.19277(10)
C2 C 0.81834(15) -0.10282(8) 0.14360(11)
H2 H 0.8354 -0.1263 0.0827
C3 C 0.70158(16) -0.13443(8) 0.18289(11)
H3 H 0.6395 -0.1794 0.1489
C4 C 0.67496(17) -0.10074(8) 0.27144(11)
H4 H 0.5953 -0.1228 0.2982
C5 C 0.76502(16) -0.03473(8) 0.32085(11)
H5 H 0.7465 -0.0111 0.3812
C6 C 0.88218(15) -0.00326(8) 0.28201(10)
C7 C 1.00229(18) 0.09352(9) 0.43009(11)
H6 H 0.9437 0.0790 0.4768
C8 C 1.12028(19) 0.14972(9) 0.44826(11)
H7 H 1.1586 0.1814 0.5099
C9 C 1.17610(16) 0.15283(8) 0.35917(10)
H8 H 1.2582 0.1869 0.3501
C10 C 1.09008(15) 0.09790(8) 0.28891(10)
C11 C 1.08073(14) 0.07845(7) 0.17759(10)
C12 C 1.23709(14) 0.09457(8) 0.15394(9)
C13 C 1.33130(15) 0.02992(8) 0.13943(10)
H9 H 1.3011 -0.0255 0.1468
C14 C 1.46930(16) 0.04587(9) 0.11420(11)
H10 H 1.5325 0.0012 0.1040
C15 C 1.51557(16) 0.12578(9) 0.10381(12)
H11 H 1.6099 0.1362 0.0861
C16 C 1.42395(16) 0.19094(9) 0.11938(12)
H12 H 1.4559 0.2462 0.1130
C17 C 1.28584(15) 0.17547(8) 0.14422(10)
H13 H 1.2234 0.2204 0.1548
C18 C 0.95556(14) 0.13290(7) 0.09857(10)
C19 C 0.81117(14) 0.26694(8) 0.08345(10)
C20 C 0.79400(16) 0.33569(8) 0.14181(11)
H14 H 0.8520 0.3394 0.2130
C21 C 0.69243(17) 0.39876(9) 0.09616(13)
H15 H 0.6815 0.4458 0.1360
C22 C 0.60680(17) 0.39341(9) -0.00743(13)
H16 H 0.5356 0.4360 -0.0384
C23 C 0.62568(17) 0.32563(9) -0.06537(12)
H17 H 0.5680 0.3224 -0.1366
C24 C 0.72780(15) 0.26206(9) -0.02108(11)
H18 H 0.7404 0.2159 -0.0617
H19 H 1.0361(19) -0.0265(10) 0.0961(14)
loop_
_geom_bond_atom_site_label_1
_geom_bond_atom_site_label_2
_geom_bond_site_symmetry_1
_geom_bond_site_symmetry_2
O1 C18 1_555 1_555
N1 C1 1_555 1_555
N2 C6 1_555 1_555
N3 H1 1_555 1_555
C1 C2 1_555 1_555
C2 H2 1_555 1_555
C3 C2 1_555 1_555
H3 C3 1_555 1_555
C4 C3 1_555 1_555
H4 C4 1_555 1_555
C5 C4 1_555 1_555
H5 C5 1_555 1_555
C6 C1 1_555 1_555
C7 N2 1_555 1_555
H6 C7 1_555 1_555
C8 C7 1_555 1_555
H7 C8 1_555 1_555
C9 C8 1_555 1_555
H8 C9 1_555 1_555
C10 N2 1_555 1_555
C11 N1 1_555 1_555
C12 C11 1_555 1_555
C13 C12 1_555 1_555
H9 C13 1_555 1_555
C14 C13 1_555 1_555
H10 C14 1_555 1_555
C15 C14 1_555 1_555
H11 C15 1_555 1_555
C16 C15 1_555 1_555
H12 C16 1_555 1_555
C17 C12 1_555 1_555
H13 C17 1_555 1_555
C18 N3 1_555 1_555
C19 N3 1_555 1_555
C20 C19 1_555 1_555
H14 C20 1_555 1_555
C21 C20 1_555 1_555
H15 C21 1_555 1_555
C22 C21 1_555 1_555
H16 C22 1_555 1_555
C23 C22 1_555 1_555
H17 C23 1_555 1_555
C24 C19 1_555 1_555
H18 C24 1_555 1_555
H19 N1 1_555 1_555
C5 C6 1_555 1_555
C9 C10 1_555 1_555
C10 C11 1_555 1_555
C11 C18 1_555 1_555
C16 C17 1_555 1_555
C23 C24 1_555 1_555

#END
