
#######################################################################
#
#                 Cambridge Crystallographic Data Centre
#                                CCDC 
#
#######################################################################
#
# If this CIF has been generated from an entry in the Cambridge 
# Structural Database, then it will include bibliographic, chemical, 
# crystal, experimental, refinement or atomic coordinate data resulting 
# from the CCDC's data processing and validation procedures.
#
#######################################################################

data_TUJRIB
_chemical_formula_moiety         'C12 H9 N1 O6'
_chemical_name_systematic        
1-((1,3-Benzodioxol-5-ylcarbonyl)oxy)pyrrolidine-2,5-dione
_symmetry_cell_setting           monoclinic
_symmetry_space_group_name_H-M   'P 21/n'
_symmetry_Int_Tables_number      14
_space_group_name_Hall           '-P 2yn'
loop_
_symmetry_equiv_pos_site_id
_symmetry_equiv_pos_as_xyz
1 x,y,z
2 1/2-x,1/2+y,1/2-z
3 -x,-y,-z
4 1/2+x,1/2-y,1/2+z
_cell_length_a                   8.7694(11)
_cell_length_b                   6.2631(8)
_cell_length_c                   22.168(3)
_cell_angle_alpha                90
_cell_angle_beta                 94.814(2)
_cell_angle_gamma                90
_cell_volume                     1213.25
_cell_formula_units_Z            4
loop_
_atom_site_label
_atom_site_type_symbol
_atom_site_fract_x
_atom_site_fract_y
_atom_site_fract_z
O1 O 0.33331(12) 0.20308(18) 0.14195(4)
O2 O 0.14221(16) -0.2091(2) -0.10530(6)
O3 O 0.09160(19) -0.3222(2) -0.00960(6)
N1 N 0.39936(13) 0.3101(2) 0.19229(5)
C1 C 0.39556(17) 0.2653(2) 0.08896(6)
C2 C 0.32792(16) 0.1398(2) 0.03737(6)
C3 C 0.52062(16) 0.2227(3) 0.22754(7)
C4 C 0.23769(19) -0.0407(3) 0.04584(7)
H1 H 0.2167 -0.0869 0.0841
C5 C 0.34574(18) 0.5043(3) 0.21056(7)
C6 C 0.21348(18) -0.0778(3) -0.06268(7)
C7 C 0.36006(18) 0.2047(3) -0.01974(7)
H2 H 0.4214 0.3241 -0.0238
C8 C 0.18268(19) -0.1442(3) -0.00544(8)
C9 C 0.55634(17) 0.3782(3) 0.27800(8)
H3 H 0.6610 0.4284 0.2781
H4 H 0.5431 0.3120 0.3168
C10 C 0.3026(2) 0.0952(3) -0.07143(7)
H5 H 0.3240 0.1382 -0.1100
C11 C 0.4449(2) 0.5619(3) 0.26643(8)
H6 H 0.3834 0.5802 0.3005
H7 H 0.4995 0.6938 0.2604
C12 C 0.0714(3) -0.3720(3) -0.07263(9)
H8 H 0.1176 -0.5092 -0.0801
H9 H -0.0368 -0.3800 -0.0857
O4 O 0.57906(15) 0.0544(2) 0.21694(6)
O5 O 0.48958(15) 0.4024(2) 0.08941(5)
O6 O 0.23903(16) 0.5975(2) 0.18470(6)
loop_
_geom_bond_atom_site_label_1
_geom_bond_atom_site_label_2
_geom_bond_site_symmetry_1
_geom_bond_site_symmetry_2
O1 N1 1_555 1_555
O2 C6 1_555 1_555
O3 C8 1_555 1_555
N1 C3 1_555 1_555
C1 O1 1_555 1_555
C2 C1 1_555 1_555
C3 C9 1_555 1_555
C4 C2 1_555 1_555
H1 C4 1_555 1_555
C5 N1 1_555 1_555
C6 C8 1_555 1_555
C7 C2 1_555 1_555
H2 C7 1_555 1_555
C8 C4 1_555 1_555
C9 H3 1_555 1_555
H4 C9 1_555 1_555
C10 C6 1_555 1_555
H5 C10 1_555 1_555
C11 C5 1_555 1_555
H6 C11 1_555 1_555
H7 C11 1_555 1_555
C12 O2 1_555 1_555
H8 C12 1_555 1_555
H9 C12 1_555 1_555
O4 C3 1_555 1_555
O5 C1 1_555 1_555
O6 C5 1_555 1_555
O3 C12 1_555 1_555
C7 C10 1_555 1_555
C9 C11 1_555 1_555

#END
