
#######################################################################
#
#                 Cambridge Crystallographic Data Centre
#                                CCDC 
#
#######################################################################
#
# If this CIF has been generated from an entry in the Cambridge 
# Structural Database, then it will include bibliographic, chemical, 
# crystal, experimental, refinement or atomic coordinate data resulting 
# from the CCDC's data processing and validation procedures.
#
#######################################################################

data_TUJSUO
_chemical_formula_moiety         'C12 H13 N1 O4'
_chemical_name_systematic        1,3-Benzodioxol-5-yl(morpholin-4-yl)methanone
_symmetry_cell_setting           orthorhombic
_symmetry_space_group_name_H-M   'P b c a'
_symmetry_Int_Tables_number      61
_space_group_name_Hall           '-P 2ac 2ab'
loop_
_symmetry_equiv_pos_site_id
_symmetry_equiv_pos_as_xyz
1 x,y,z
2 1/2+x,1/2-y,-z
3 -x,1/2+y,1/2-z
4 1/2-x,-y,1/2+z
5 -x,-y,-z
6 1/2-x,1/2+y,z
7 x,1/2-y,1/2+z
8 1/2+x,y,1/2-z
_cell_length_a                   14.595(3)
_cell_length_b                   7.7849(14)
_cell_length_c                   20.112(4)
_cell_angle_alpha                90
_cell_angle_beta                 90
_cell_angle_gamma                90
_cell_volume                     2285.14
_exptl_crystal_colour            colorless
_exptl_crystal_description       block
_cell_formula_units_Z            8
loop_
_atom_site_label
_atom_site_type_symbol
_atom_site_fract_x
_atom_site_fract_y
_atom_site_fract_z
O1 O 0.16325(10) 0.9367(3) 0.38603(9)
O2 O 0.17270(12) 0.8339(3) 0.49324(9)
O3 O 0.52934(12) 1.1200(2) 0.36218(9)
O4 O 0.66655(12) 0.5831(2) 0.29916(10)
N1 N 0.54297(13) 0.8504(2) 0.32411(11)
C1 C 0.11114(17) 0.8838(3) 0.44220(12)
H1 H 0.0728 0.9777 0.4575
H2 H 0.0718 0.7882 0.4303
C2 C 0.25909(16) 0.8582(3) 0.46794(10)
C3 C 0.34125(18) 0.8300(4) 0.49808(12)
H3 H 0.3450 0.7901 0.5416
C4 C 0.41943(16) 0.8640(3) 0.46053(12)
H4 H 0.4767 0.8447 0.4794
C5 C 0.41437(14) 0.9254(3) 0.39622(10)
C6 C 0.32917(14) 0.9554(3) 0.36639(10)
H5 H 0.3243 0.9977 0.3233
C7 C 0.25353(14) 0.9195(3) 0.40386(10)
C8 C 0.50040(14) 0.9729(3) 0.35994(11)
C9 C 0.51053(17) 0.6749(3) 0.31479(13)
H6 H 0.4943 0.6570 0.2685
H7 H 0.4563 0.6558 0.3417
C10 C 0.58328(19) 0.5523(3) 0.33438(16)
H8 H 0.5945 0.5625 0.3818
H9 H 0.5626 0.4361 0.3256
C11 C 0.69814(17) 0.7528(3) 0.31074(17)
H10 H 0.7546 0.7711 0.2863
H11 H 0.7114 0.7668 0.3577
C12 C 0.62985(17) 0.8826(3) 0.29014(15)
H12 H 0.6519 0.9967 0.3012
H13 H 0.6209 0.8771 0.2424
loop_
_geom_bond_atom_site_label_1
_geom_bond_atom_site_label_2
_geom_bond_site_symmetry_1
_geom_bond_site_symmetry_2
O1 C1 1_555 1_555
O2 C1 1_555 1_555
O3 C8 1_555 1_555
O4 C10 1_555 1_555
N1 C8 1_555 1_555
C1 H1 1_555 1_555
H2 C1 1_555 1_555
C2 O2 1_555 1_555
C3 C2 1_555 1_555
H3 C3 1_555 1_555
C4 C3 1_555 1_555
H4 C4 1_555 1_555
C5 C4 1_555 1_555
C6 C5 1_555 1_555
H5 C6 1_555 1_555
C7 O1 1_555 1_555
C8 C5 1_555 1_555
C9 N1 1_555 1_555
H6 C9 1_555 1_555
H7 C9 1_555 1_555
C10 C9 1_555 1_555
H8 C10 1_555 1_555
H9 C10 1_555 1_555
C11 O4 1_555 1_555
H10 C11 1_555 1_555
H11 C11 1_555 1_555
C12 N1 1_555 1_555
H12 C12 1_555 1_555
H13 C12 1_555 1_555
C2 C7 1_555 1_555
C6 C7 1_555 1_555
C11 C12 1_555 1_555

#END
