
#######################################################################
#
#                 Cambridge Crystallographic Data Centre
#                                CCDC 
#
#######################################################################
#
# If this CIF has been generated from an entry in the Cambridge 
# Structural Database, then it will include bibliographic, chemical, 
# crystal, experimental, refinement or atomic coordinate data resulting 
# from the CCDC's data processing and validation procedures.
#
#######################################################################

data_TUJZOP
_chemical_formula_moiety         
'2(C12 H18 N4 O2),O4 S1 2-,0.5(H2 O1),2(C16 H36 N1 1+)'
_chemical_name_systematic        
"bis(tetra-n-butylammonium) bis(1,1'-(1,2-phenylene)bis(3-ethylurea)) sulfate hemihydrate"
_symmetry_cell_setting           triclinic
_symmetry_space_group_name_H-M   'P -1'
_symmetry_Int_Tables_number      2
_space_group_name_Hall           '-P 1'
loop_
_symmetry_equiv_pos_site_id
_symmetry_equiv_pos_as_xyz
1 x,y,z
2 -x,-y,-z
_cell_length_a                   22.1618(9)
_cell_length_b                   23.5118(9)
_cell_length_c                   26.7043(11)
_cell_angle_alpha                95.763(2)
_cell_angle_beta                 102.319(2)
_cell_angle_gamma                108.227(2)
_cell_volume                     12701
_exptl_crystal_colour            colorless
_exptl_crystal_description       irregular
_cell_formula_units_Z            8
loop_
_atom_site_label
_atom_site_type_symbol
_atom_site_fract_x
_atom_site_fract_y
_atom_site_fract_z
S1 S 0.74309(9) 0.25192(10) 0.50220(8)
O1 O 0.7678(2) 0.2242(2) 0.46275(19)
O2 O 0.6708(4) 0.2337(5) 0.4832(4)
O3 O 0.7730(2) 0.3193(2) 0.50789(18)
O4 O 0.7636(4) 0.2348(2) 0.5521(2)
S3 S 0.78128(10) 0.27203(7) -0.01959(7)
O9 O 0.7549(3) 0.3059(2) 0.0116(3)
O10 O 0.7873(4) 0.2927(3) -0.0690(2)
O11 O 0.8520(3) 0.2846(2) 0.0103(2)
O12 O 0.7493(3) 0.2069(2) -0.0272(2)
S4 S 0.2526(5) 0.2466(4) 0.2514(3)
O13 O 0.2671(3) 0.2984(3) 0.2948(2)
O14 O 0.3159(2) 0.2499(2) 0.23944(18)
O15 O 0.2073(3) 0.2547(2) 0.20652(18)
O16 O 0.2241(3) 0.1891(3) 0.2696(2)
O25 O 0.8650(3) 0.6223(2) 0.18182(18)
O26 O 0.5777(2) 0.52145(18) 0.23703(19)
C1 C 0.9461(5) 0.7706(4) 0.1736(4)
H1 H 0.9705 0.7838 0.1478
H2 H 0.9683 0.7489 0.1962
H3 H 0.9442 0.8063 0.1947
C2 C 0.8827(5) 0.7322(3) 0.1483(4)
H4 H 0.8853 0.6970 0.1263
H5 H 0.8612 0.7543 0.1249
N1 N 0.8425(3) 0.7101(2) 0.1827(2)
H6 H 0.8212 0.7321 0.1945
C3 C 0.8373(3) 0.6555(2) 0.1970(2)
N2 N 0.7960(2) 0.6409(2) 0.22938(18)
H7 H 0.7777 0.6677 0.2374
C4 C 0.7800(3) 0.5868(2) 0.2512(2)
C5 C 0.8220(4) 0.5557(3) 0.2616(2)
H8 H 0.8636 0.5701 0.2541
C6 C 0.8057(4) 0.5034(3) 0.2828(2)
H9 H 0.8341 0.4803 0.2874
C7 C 0.7456(4) 0.4850(3) 0.2974(3)
H10 H 0.7344 0.4503 0.3136
C8 C 0.7041(4) 0.5165(3) 0.2884(2)
H11 H 0.6643 0.5038 0.2989
C9 C 0.7180(3) 0.5676(3) 0.2640(2)
N3 N 0.6762(2) 0.6000(2) 0.25401(18)
H12 H 0.6943 0.6399 0.2584
C10 C 0.6092(3) 0.5762(3) 0.2379(2)
N4 N 0.5801(3) 0.6162(2) 0.2214(2)
H13 H 0.6040 0.6551 0.2271
C11 C 0.5111(3) 0.5969(3) 0.1946(5)
H14 H 0.4850 0.5741 0.2165
H15 H 0.5029 0.5688 0.1617
C12 C 0.4882(4) 0.6474(3) 0.1824(3)
H16 H 0.4414 0.6311 0.1639
H17 H 0.5133 0.6700 0.1603
H18 H 0.4945 0.6746 0.2148
S7 S 0.72822(7) 0.76977(6) 0.24537(5)
O27 O 0.7683(2) 0.78724(19) 0.20837(16)
O28 O 0.7478(2) 0.72573(19) 0.27401(18)
O29 O 0.7405(2) 0.82571(18) 0.28250(16)
O30 O 0.6578(2) 0.74356(19) 0.21813(17)
N5 N 0.8153(2) 0.6998(2) 0.40957(15)
C13 C 0.8300(3) 0.7628(2) 0.4399(2)
H19 H 0.8063 0.7588 0.4676
H20 H 0.8777 0.7803 0.4571
C14 C 0.8112(3) 0.8068(3) 0.4076(2)
H21 H 0.7634 0.7902 0.3907
H22 H 0.8348 0.8115 0.3798
C15 C 0.8281(4) 0.8683(3) 0.4411(3)
H23 H 0.8045 0.8629 0.4688
H24 H 0.8758 0.8839 0.4583
C16 C 0.8116(4) 0.9151(3) 0.4123(3)
H25 H 0.8240 0.9533 0.4367
H26 H 0.7643 0.9007 0.3959
H27 H 0.8358 0.9218 0.3854
C17 C 0.8380(3) 0.6632(2) 0.4491(2)
H28 H 0.8861 0.6825 0.4639
H29 H 0.8169 0.6655 0.4780
C18 C 0.8229(3) 0.5969(3) 0.4274(2)
H30 H 0.7748 0.5753 0.4175
H31 H 0.8390 0.5936 0.3957
C19 C 0.8557(3) 0.5679(3) 0.4675(3)
H32 H 0.9036 0.5908 0.4781
H33 H 0.8386 0.5707 0.4987
C20 C 0.8444(4) 0.5026(3) 0.4481(3)
H34 H 0.8666 0.4860 0.4757
H35 H 0.8622 0.4996 0.4178
H36 H 0.7971 0.4795 0.4382
C21 C 0.7424(3) 0.6703(2) 0.3824(2)
H37 H 0.7348 0.6288 0.3643
H38 H 0.7310 0.6938 0.3554
C22 C 0.6956(3) 0.6653(3) 0.4173(2)
H39 H 0.7073 0.6436 0.4457
H40 H 0.6989 0.7065 0.4331
C23 C 0.6260(3) 0.6307(3) 0.3846(3)
H41 H 0.6232 0.5894 0.3698
H42 H 0.6158 0.6517 0.3553
C24 C 0.5747(4) 0.6253(4) 0.4156(3)
H43 H 0.5309 0.6027 0.3926
H44 H 0.5766 0.6660 0.4298
H45 H 0.5838 0.6036 0.4441
C25 C 0.8507(3) 0.7032(3) 0.36654(19)
H46 H 0.8274 0.6865 0.3312
C26 C 0.9245(3) 0.7341(3) 0.3823(2)
H47 H 0.9445 0.7149 0.4095
H48 H 0.9358 0.7776 0.3969
C27 C 0.9512(3) 0.7283(4) 0.3350(2)
H49 H 0.9308 0.7476 0.3082
H50 H 0.9386 0.6846 0.3203
C28 C 1.0260(3) 0.7578(4) 0.3474(3)
H51 H 1.0404 0.7529 0.3155
H52 H 1.0467 0.7381 0.3732
H53 H 1.0388 0.8012 0.3615
N6 N 0.6694(2) 0.8267(2) 0.07964(17)
C29 C 0.6529(3) 0.7626(2) 0.05089(19)
H54 H 0.6773 0.7646 0.0237
H55 H 0.6054 0.7463 0.0331
C30 C 0.6689(3) 0.7178(3) 0.0852(2)
H56 H 0.7132 0.7374 0.1094
H57 H 0.6366 0.7066 0.1062
C31 C 0.6667(3) 0.6613(3) 0.0516(2)
H58 H 0.6241 0.6448 0.0249
H59 H 0.7019 0.6725 0.0332
C32 C 0.6750(5) 0.6130(4) 0.0813(4)
H60 H 0.6732 0.5777 0.0573
H61 H 0.6397 0.6008 0.0989
H62 H 0.7176 0.6286 0.1073
C33 C 0.7421(3) 0.8551(3) 0.1066(2)
H63 H 0.7519 0.8336 0.1357
H64 H 0.7510 0.8979 0.1221
C34 C 0.7901(3) 0.8547(3) 0.0733(2)
H65 H 0.7852 0.8123 0.0599
H66 H 0.7804 0.8747 0.0431
C35 C 0.8593(3) 0.8883(3) 0.1060(3)
H67 H 0.8664 0.8715 0.1384
H68 H 0.8651 0.9318 0.1158
C36 C 0.9103(4) 0.8832(4) 0.0775(3)
H69 H 0.9544 0.9056 0.1000
H70 H 0.9039 0.9004 0.0456
H71 H 0.9053 0.8403 0.0684
C37 C 0.6483(3) 0.8617(3) 0.0391(2)
H72 H 0.6000 0.8433 0.0249
H73 H 0.6685 0.8563 0.0101
C38 C 0.6655(7) 0.9296(4) 0.0574(4)
H74 H 0.7128 0.9477 0.0757
H75 H 0.6400 0.9357 0.0825
C39 C 0.6487(8) 0.9667(8) 0.0060(10)
H76 H 0.6737 1.0110 0.0136
H77 H 0.6520 0.9474 -0.0275
C40 C 0.5980(14) 0.9551(6) 0.0099(5)
H78 H 0.5724 0.9703 -0.0168
H79 H 0.5986 0.9739 0.0446
H80 H 0.5778 0.9108 0.0054
C41 C 0.6339(3) 0.8258(3) 0.12274(19)
H81 H 0.6470 0.8681 0.1414
H82 H 0.6498 0.8023 0.1480
C42 C 0.5587(3) 0.7992(3) 0.1061(2)
H83 H 0.5416 0.8188 0.0778
H84 H 0.5441 0.7550 0.0927
C43 C 0.5322(3) 0.8104(3) 0.1526(2)
H85 H 0.5508 0.7918 0.1810
H86 H 0.5468 0.8548 0.1654
C44 C 0.4577(3) 0.7843(4) 0.1400(3)
H87 H 0.4433 0.7921 0.1714
H88 H 0.4429 0.7403 0.1274
H89 H 0.4389 0.8037 0.1129
N7 N 0.2904(3) -0.0948(2) 0.1679(2)
C45 C 0.2769(3) -0.1631(3) 0.1577(3)
H90 H 0.2289 -0.1847 0.1499
H91 H 0.2913 -0.1733 0.1264
C46 C 0.3110(3) -0.1862(3) 0.2025(2)
H92 H 0.2947 -0.1788 0.2334
H93 H 0.3589 -0.1635 0.2117
C47 C 0.2985(4) -0.2541(3) 0.1881(3)
H94 H 0.3145 -0.2614 0.1570
H95 H 0.2506 -0.2767 0.1791
C48 C 0.3331(4) -0.2778(4) 0.2328(3)
H96 H 0.3239 -0.3215 0.2224
H97 H 0.3169 -0.2711 0.2635
H98 H 0.3806 -0.2561 0.2413
C49 C 0.3632(3) -0.0593(3) 0.1793(3)
H99 H 0.3696 -0.0154 0.1876
H100 H 0.3859 -0.0703 0.2109
C50 C 0.3958(3) -0.0681(3) 0.1371(3)
H101 H 0.3806 -0.0490 0.1078
H102 H 0.3835 -0.1121 0.1239
C51 C 0.4707(3) -0.0396(3) 0.1577(3)
H103 H 0.4823 0.0032 0.1746
H104 H 0.4861 -0.0618 0.1844
C52 C 0.5050(4) -0.0413(4) 0.1158(3)
H105 H 0.5526 -0.0227 0.1308
H106 H 0.4907 -0.0186 0.0896
H107 H 0.4944 -0.0836 0.0994
C53 C 0.2683(3) -0.0758(3) 0.2146(3)
H108 H 0.2946 -0.0845 0.2458
H109 H 0.2783 -0.0312 0.2195
C54 C 0.1966(3) -0.1059(3) 0.2118(4)
H110 H 0.1863 -0.1502 0.2106
H111 H 0.1691 -0.0996 0.1798
C55 C 0.1817(4) -0.0774(4) 0.2607(5)
H112 H 0.2085 -0.0850 0.2923
H113 H 0.1944 -0.0328 0.2625
C56 C 0.1086(5) -0.1039(5) 0.2596(7)
H114 H 0.1013 -0.0855 0.2913
H115 H 0.0958 -0.1481 0.2576
H116 H 0.0821 -0.0950 0.2291
C57 C 0.2540(4) -0.0800(3) 0.1175(3)
H117 H 0.2697 -0.0940 0.0881
H118 H 0.2064 -0.1034 0.1102
C58 C 0.2631(4) -0.0130(3) 0.1193(4)
H119 H 0.3099 0.0109 0.1235
H120 H 0.2491 0.0023 0.1491
C59 C 0.2205(5) -0.0063(3) 0.0674(5)
H121 H 0.2333 -0.0237 0.0377
H122 H 0.1736 -0.0296 0.0640
C60 C 0.2290(5) 0.0609(4) 0.0653(6)
H123 H 0.2025 0.0638 0.0318
H124 H 0.2754 0.0841 0.0690
H125 H 0.2143 0.0777 0.0937
N8 N 0.8334(3) 0.4822(2) 0.0812(2)
C61 C 0.8521(3) 0.4435(3) 0.0422(3)
H126 H 0.8576 0.4080 0.0571
H127 H 0.8153 0.4278 0.0103
C62 C 0.9144(4) 0.4765(3) 0.0271(3)
H128 H 0.9494 0.5003 0.0587
H129 H 0.9060 0.5049 0.0038
C63 C 0.9369(4) 0.4290(4) -0.0012(3)
H130 H 0.8975 0.3957 -0.0232
H131 H 0.9631 0.4487 -0.0244
C64 C 0.9752(5) 0.4036(5) 0.0335(4)
H132 H 0.9880 0.3742 0.0134
H133 H 0.9492 0.3830 0.0561
H134 H 1.0147 0.4362 0.0550
C65 C 0.7650(3) 0.4462(3) 0.0829(2)
H135 H 0.7650 0.4067 0.0926
H136 H 0.7357 0.4376 0.0473
C66 C 0.7362(3) 0.4761(3) 0.1200(2)
H137 H 0.7552 0.4729 0.1563
H138 H 0.7468 0.5198 0.1179
C67 C 0.6625(3) 0.4445(3) 0.1054(2)
H139 H 0.6527 0.4006 0.1066
H140 H 0.6442 0.4481 0.0692
C68 C 0.6290(4) 0.4702(4) 0.1409(3)
H141 H 0.5814 0.4481 0.1296
H142 H 0.6376 0.5134 0.1393
H143 H 0.6460 0.4658 0.1767
C69 C 0.8373(3) 0.5437(3) 0.0648(3)
H144 H 0.8285 0.5690 0.0924
H145 H 0.8829 0.5647 0.0629
C70 C 0.7912(4) 0.5412(4) 0.0136(3)
H146 H 0.7452 0.5245 0.0159
H147 H 0.7971 0.5140 -0.0142
C71 C 0.8054(5) 0.6064(5) 0.0002(4)
H148 H 0.7697 0.6055 -0.0296
H149 H 0.8053 0.6344 0.0304
C72 C 0.8703(5) 0.6306(6) -0.0132(5)
H150 H 0.8771 0.6719 -0.0204
H151 H 0.8701 0.6041 -0.0441
H152 H 0.9059 0.6315 0.0162
C73 C 0.8800(3) 0.4974(3) 0.1342(2)
H153 H 0.8694 0.5273 0.1565
H154 H 0.9252 0.5175 0.1310
C74 C 0.8795(4) 0.4435(4) 0.1618(3)
H155 H 0.8385 0.4296 0.1732
H156 H 0.8797 0.4095 0.1368
C75 C 0.9379(5) 0.4589(5) 0.2086(4)
H157 H 0.9304 0.4256 0.2290
H158 H 0.9412 0.4964 0.2313
C76 C 1.0028(6) 0.4686(6) 0.1938(4)
H159 H 1.0388 0.4794 0.2255
H160 H 1.0105 0.5016 0.1737
H161 H 1.0006 0.4311 0.1728
N9 N 0.4894(2) 0.35208(18) 0.24932(17)
C77 C 0.5593(2) 0.3681(2) 0.2420(2)
H162 H 0.5730 0.4097 0.2338
H163 H 0.5896 0.3690 0.2755
C78 C 0.5673(3) 0.3246(3) 0.1993(2)
H164 H 0.5447 0.2819 0.2022
H165 H 0.5470 0.3312 0.1646
C79 C 0.6402(3) 0.3355(3) 0.2048(3)
H166 H 0.6601 0.3280 0.2392
H167 H 0.6629 0.3784 0.2028
C80 C 0.6494(4) 0.2933(4) 0.1616(3)
H168 H 0.6965 0.3010 0.1657
H169 H 0.6302 0.3011 0.1275
H170 H 0.6275 0.2508 0.1640
C81 C 0.4684(3) 0.2929(2) 0.2685(2)
H171 H 0.4227 0.2843 0.2713
H172 H 0.4678 0.2603 0.2418
C82 C 0.5093(3) 0.2890(2) 0.3198(2)
H173 H 0.5062 0.3176 0.3481
H174 H 0.5560 0.3002 0.3190
C83 C 0.4841(3) 0.2236(3) 0.3297(3)
H175 H 0.4372 0.2128 0.3299
H176 H 0.4868 0.1954 0.3007
C84 C 0.5228(4) 0.2150(3) 0.3809(3)
H177 H 0.5049 0.1726 0.3853
H178 H 0.5193 0.2420 0.4098
H179 H 0.5690 0.2249 0.3807
C85 C 0.4912(3) 0.4051(2) 0.2879(2)
H180 H 0.5271 0.4116 0.3196
H181 H 0.5022 0.4424 0.2724
C86 C 0.4277(3) 0.3972(2) 0.3041(2)
H182 H 0.4221 0.3673 0.3278
H183 H 0.3899 0.3815 0.2729
C87 C 0.4296(3) 0.4582(3) 0.3316(3)
H184 H 0.4712 0.4768 0.3593
H185 H 0.4287 0.4861 0.3063
C88 C 0.3722(4) 0.4503(4) 0.3552(3)
H186 H 0.3746 0.4900 0.3724
H187 H 0.3736 0.4233 0.3808
H188 H 0.3310 0.4324 0.3277
C89 C 0.4398(2) 0.3447(2) 0.1977(2)
H189 H 0.4426 0.3123 0.1725
H190 H 0.3951 0.3308 0.2031
C90 C 0.4485(3) 0.4011(2) 0.1737(2)
H191 H 0.4955 0.4210 0.1750
H192 H 0.4344 0.4302 0.1936
C91 C 0.4073(3) 0.3839(3) 0.1170(2)
H193 H 0.3611 0.3608 0.1160
H194 H 0.4237 0.3569 0.0970
C92 C 0.4093(4) 0.4400(3) 0.0906(2)
H195 H 0.3824 0.4264 0.0545
H196 H 0.4548 0.4627 0.0909
H197 H 0.3920 0.4664 0.1096
N10 N 0.6595(2) 0.0535(2) 0.39583(18)
C93 C 0.6401(3) 0.0865(3) 0.4387(2)
H198 H 0.6635 0.0811 0.4729
H199 H 0.6555 0.1306 0.4377
C94 C 0.5675(3) 0.0656(3) 0.4352(3)
H200 H 0.5516 0.0212 0.4351
H201 H 0.5440 0.0725 0.4017
C95 C 0.5504(3) 0.0979(4) 0.4795(3)
H202 H 0.5729 0.0902 0.5130
H203 H 0.5669 0.1423 0.4801
C96 C 0.4794(4) 0.0779(4) 0.4749(4)
H204 H 0.4711 0.0996 0.5046
H205 H 0.4627 0.0340 0.4747
H206 H 0.4569 0.0867 0.4425
C97 C 0.7333(3) 0.0802(3) 0.4061(2)
H207 H 0.7532 0.0750 0.4414
H208 H 0.7456 0.1244 0.4060
C98 C 0.7632(3) 0.0535(3) 0.3680(2)
H209 H 0.7472 0.0616 0.3328
H210 H 0.7498 0.0088 0.3661
C99 C 0.8378(3) 0.0819(3) 0.3859(2)
H211 H 0.8529 0.0763 0.4221
H212 H 0.8507 0.1262 0.3860
C100 C 0.8725(4) 0.0545(3) 0.3513(3)
H213 H 0.9202 0.0745 0.3646
H214 H 0.8586 0.0608 0.3155
H215 H 0.8609 0.0108 0.3518
C101 C 0.6371(3) -0.0140(3) 0.3950(2)
H216 H 0.6507 -0.0335 0.3668
H217 H 0.5885 -0.0300 0.3864
C102 C 0.6641(3) -0.0323(3) 0.4462(3)
H218 H 0.7127 -0.0148 0.4562
H219 H 0.6480 -0.0157 0.4741
C103 C 0.6428(4) -0.1002(3) 0.4407(3)
H220 H 0.6584 -0.1162 0.4122
H221 H 0.5941 -0.1170 0.4304
C104 C 0.6676(5) -0.1228(5) 0.4898(4)
H222 H 0.6516 -0.1674 0.4830
H223 H 0.6514 -0.1082 0.5181
H224 H 0.7158 -0.1074 0.4997
C105 C 0.6248(3) 0.0604(3) 0.3412(2)
H225 H 0.6347 0.0346 0.3146
H226 H 0.5767 0.0447 0.3369
C106 C 0.6441(3) 0.1251(3) 0.3303(2)
H227 H 0.6892 0.1381 0.3255
H228 H 0.6432 0.1533 0.3601
C107 C 0.5949(3) 0.1268(3) 0.2804(3)
H229 H 0.5918 0.0946 0.2521
H230 H 0.5508 0.1181 0.2869
C108 C 0.6154(4) 0.1879(3) 0.2634(3)
H231 H 0.5833 0.1872 0.2316
H232 H 0.6588 0.1964 0.2566
H233 H 0.6175 0.2197 0.2911
N11 N 0.1982(3) 0.5718(2) 0.35442(19)
C109 C 0.2332(3) 0.5605(3) 0.4050(2)
H234 H 0.2139 0.5726 0.4328
H235 H 0.2799 0.5870 0.4138
C110 C 0.2301(3) 0.4944(3) 0.4052(2)
H236 H 0.1843 0.4679 0.4019
H237 H 0.2445 0.4798 0.3753
C111 C 0.2746(3) 0.4912(3) 0.4559(2)
H238 H 0.2599 0.5059 0.4855
H239 H 0.3201 0.5184 0.4591
C112 C 0.2746(4) 0.4267(3) 0.4588(3)
H240 H 0.3036 0.4267 0.4921
H241 H 0.2902 0.4123 0.4300
H242 H 0.2298 0.3997 0.4561
C113 C 0.1261(3) 0.5335(3) 0.3396(3)
H243 H 0.1216 0.4905 0.3286
H244 H 0.1034 0.5466 0.3092
C114 C 0.0912(3) 0.5366(3) 0.3831(3)
H245 H 0.1103 0.5779 0.4046
H246 H 0.0978 0.5071 0.4058
C115 C 0.0171(4) 0.5217(4) 0.3592(3)
H247 H 0.0017 0.4885 0.3286
H248 H -0.0073 0.5073 0.3851
C116 C 0.0021(4) 0.5768(4) 0.3424(4)
H249 H -0.0454 0.5655 0.3274
H250 H 0.0256 0.5909 0.3163
H251 H 0.0163 0.6095 0.3728
C117 C 0.2257(4) 0.5543(3) 0.3102(2)
H252 H 0.2193 0.5104 0.3067
H253 H 0.2000 0.5606 0.2774
C118 C 0.2972(4) 0.5890(3) 0.3164(3)
H254 H 0.3231 0.5879 0.3513
H255 H 0.3033 0.6320 0.3139
C119 C 0.3222(5) 0.5612(4) 0.2744(4)
H256 H 0.2967 0.5628 0.2396
H257 H 0.3152 0.5179 0.2766
C120 C 0.3953(5) 0.5952(5) 0.2806(5)
H258 H 0.4098 0.5765 0.2531
H259 H 0.4207 0.5929 0.3147
H260 H 0.4022 0.6379 0.2779
C121 C 0.2079(3) 0.6397(3) 0.3621(2)
H261 H 0.1868 0.6491 0.3894
H262 H 0.2556 0.6631 0.3748
C122 C 0.1804(4) 0.6614(3) 0.3132(3)
H263 H 0.2042 0.6561 0.2866
H264 H 0.1333 0.6364 0.2985
C123 C 0.1873(4) 0.7276(3) 0.3258(3)
H265 H 0.2341 0.7523 0.3421
H266 H 0.1616 0.7325 0.3509
C124 C 0.1629(5) 0.7506(4) 0.2762(3)
H267 H 0.1675 0.7935 0.2853
H268 H 0.1166 0.7264 0.2602
H269 H 0.1891 0.7466 0.2517
N12 N 0.0231(2) 0.14915(18) 0.23707(18)
C125 C 0.0166(3) 0.0926(2) 0.2000(2)
H270 H 0.0003 0.0565 0.2160
H271 H -0.0170 0.0884 0.1674
C126 C 0.0794(4) 0.0924(3) 0.1861(3)
H272 H 0.1155 0.1031 0.2183
H273 H 0.0917 0.1234 0.1641
C127 C 0.0697(5) 0.0299(5) 0.1569(4)
H274 H 0.0313 0.0020 0.1658
H275 H 0.0542 0.0320 0.1197
C128 C 0.1023(14) 0.0056(12) 0.1573(11)
H276 H 0.0782 -0.0360 0.1381
H277 H 0.1224 0.0042 0.1934
H278 H 0.1368 0.0258 0.1409
C129 C -0.0465(3) 0.1398(3) 0.2418(3)
H279 H -0.0745 0.1385 0.2071
H280 H -0.0642 0.0998 0.2521
C130 C -0.0513(4) 0.1886(3) 0.2807(4)
H281 H -0.0281 0.2296 0.2745
H282 H -0.0314 0.1852 0.3167
C131 C -0.1244(4) 0.1778(4) 0.2727(4)
H283 H -0.1432 0.1822 0.2367
H284 H -0.1472 0.1357 0.2769
C132 C -0.1360(5) 0.2217(5) 0.3106(7)
H285 H -0.1833 0.2143 0.3040
H286 H -0.1133 0.2634 0.3066
H287 H -0.1190 0.2163 0.3461
C133 C 0.0700(3) 0.1547(2) 0.2898(2)
H288 H 0.1150 0.1646 0.2851
H289 H 0.0696 0.1894 0.3138
C134 C 0.0553(3) 0.0993(2) 0.3152(2)
H290 H 0.0647 0.0665 0.2956
H291 H 0.0082 0.0843 0.3149
C135 C 0.0979(3) 0.1157(3) 0.3718(2)
H292 H 0.1445 0.1354 0.3719
H293 H 0.0850 0.1457 0.3918
C136 C 0.0918(4) 0.0605(3) 0.3991(3)
H294 H 0.1199 0.0739 0.4348
H295 H 0.1055 0.0310 0.3800
H296 H 0.0459 0.0414 0.4000
C137 C 0.0519(3) 0.2062(2) 0.2162(2)
H297 H 0.0548 0.2417 0.2413
H298 H 0.0973 0.2099 0.2151
C138 C 0.0152(3) 0.2103(3) 0.1631(3)
H299 H -0.0316 0.2027 0.1620
H300 H 0.0173 0.1790 0.1364
C139 C 0.0466(4) 0.2744(3) 0.1514(3)
H301 H 0.0445 0.3051 0.1786
H302 H 0.0935 0.2816 0.1532
C140 C 0.0131(4) 0.2830(4) 0.0982(3)
H303 H 0.0350 0.3243 0.0930
H304 H -0.0332 0.2769 0.0964
H305 H 0.0158 0.2534 0.0710
O31 O 0.7945(3) 0.0457(2) 0.5653(3)
O32 O 0.99976(19) 0.30709(18) 0.51160(18)
C141 C 0.6685(5) 0.1102(5) 0.6311(5)
H306 H 0.6332 0.0820 0.6424
H307 H 0.6513 0.1377 0.6121
H308 H 0.7042 0.1340 0.6617
C142 C 0.6941(4) 0.0751(4) 0.5964(3)
H309 H 0.7111 0.0470 0.6156
H310 H 0.6577 0.0503 0.5659
N13 N 0.7463(3) 0.1156(3) 0.5785(2)
H311 H 0.7477 0.1532 0.5770
C143 C 0.7920(3) 0.0969(3) 0.5641(2)
N14 N 0.8372(2) 0.1409(2) 0.54621(18)
H312 H 0.8318 0.1765 0.5466
C144 C 0.8893(3) 0.1349(2) 0.5279(2)
C145 C 0.9119(3) 0.0857(3) 0.5317(2)
H313 H 0.8914 0.0537 0.5482
C146 C 0.9635(3) 0.0831(3) 0.5117(3)
H314 H 0.9781 0.0494 0.5147
C147 C 0.9944(3) 0.1281(3) 0.4876(3)
H315 H 1.0297 0.1252 0.4738
C148 C 0.9739(3) 0.1778(3) 0.4835(2)
H316 H 0.9953 0.2091 0.4669
C149 C 0.9221(3) 0.1820(3) 0.5034(2)
N15 N 0.8994(2) 0.2319(2) 0.49893(19)
H317 H 0.8568 0.2243 0.4934
C150 C 0.9392(3) 0.2917(3) 0.5025(2)
N16 N 0.9075(3) 0.3319(2) 0.4973(2)
H318 H 0.8642 0.3191 0.4898
C151 C 0.9438(3) 0.3960(3) 0.5040(3)
H319 H 0.9829 0.4070 0.5340
H320 H 0.9159 0.4193 0.5125
C152 C 0.9664(4) 0.4152(3) 0.4566(3)
H321 H 0.9913 0.4590 0.4641
H322 H 0.9280 0.4061 0.4270
H323 H 0.9945 0.3928 0.4480
O33 O 0.5759(3) 0.3479(3) 0.5721(2)
O34 O 0.6775(2) 0.3590(2) 0.34641(16)
C153 C 0.5494(5) 0.1971(4) 0.6037(4)
H324 H 0.5428 0.1866 0.6372
H325 H 0.5573 0.1639 0.5839
H326 H 0.5100 0.2033 0.5838
C154 C 0.6052(4) 0.2522(4) 0.6126(4)
H327 H 0.5976 0.2849 0.6340
H328 H 0.6447 0.2456 0.6327
N17 N 0.6175(4) 0.2716(4) 0.5655(3)
H329 H 0.6386 0.2538 0.5486
C155 C 0.5984(4) 0.3157(4) 0.5455(3)
N18 N 0.6099(3) 0.3241(3) 0.5003(2)
H330 H 0.6237 0.2973 0.4853
C156 C 0.6030(3) 0.3701(3) 0.4728(3)
C157 C 0.5548(3) 0.3980(3) 0.4808(3)
H331 H 0.5268 0.3847 0.5029
C158 C 0.5524(4) 0.4457(4) 0.4536(3)
H332 H 0.5228 0.4661 0.4589
C159 C 0.5896(4) 0.4643(3) 0.4206(3)
H333 H 0.5849 0.4961 0.4025
C160 C 0.6345(3) 0.4369(3) 0.4130(3)
H334 H 0.6612 0.4506 0.3901
C161 C 0.6410(3) 0.3889(3) 0.4390(2)
N19 N 0.6874(3) 0.3619(2) 0.4335(2)
H335 H 0.7067 0.3507 0.4612
C162 C 0.7053(3) 0.3512(3) 0.3883(2)
N20 N 0.7585(3) 0.3331(3) 0.3960(3)
H336 H 0.7816 0.3359 0.4279
C163 C 0.7778(5) 0.3089(4) 0.3516(3)
H337 H 0.7377 0.2808 0.3258
H338 H 0.8059 0.2850 0.3638
C164 C 0.8142(5) 0.3568(4) 0.3251(3)
H339 H 0.8243 0.3372 0.2954
H340 H 0.8552 0.3835 0.3498
H341 H 0.7869 0.3808 0.3129
O35 O 0.9063(2) 0.99614(18) 0.24788(19)
O36 O 0.5832(2) 0.91941(19) 0.26879(16)
C165 C 0.9637(6) 0.9047(6) 0.3369(4)
H342 H 1.0098 0.9103 0.3528
H343 H 0.9355 0.8654 0.3419
H344 H 0.9522 0.9375 0.3534
C166 C 0.9544(4) 0.9057(3) 0.2812(3)
H345 H 0.9841 0.9448 0.2762
H346 H 0.9663 0.8725 0.2647
N21 N 0.8868(3) 0.8984(3) 0.2557(2)
H347 H 0.8576 0.8613 0.2465
C167 C 0.8667(3) 0.9455(3) 0.2453(2)
N22 N 0.7990(2) 0.9310(2) 0.23282(19)
H348 H 0.7755 0.8934 0.2336
C168 C 0.7642(3) 0.9699(3) 0.2191(2)
C169 C 0.7853(3) 1.0157(3) 0.1909(2)
H349 H 0.8253 1.0212 0.1812
C170 C 0.7501(4) 1.0535(3) 0.1766(3)
H350 H 0.7660 1.0845 0.1576
C171 C 0.6922(4) 1.0458(3) 0.1901(3)
H351 H 0.6673 1.0712 0.1805
C172 C 0.6701(4) 0.9996(3) 0.2183(2)
H352 H 0.6303 0.9948 0.2281
C173 C 0.7039(3) 0.9611(3) 0.2323(2)
N23 N 0.6836(3) 0.9147(2) 0.26002(19)
H353 H 0.7119 0.8965 0.2705
C174 C 0.6245(3) 0.8937(3) 0.2729(2)
N24 N 0.6178(3) 0.8424(3) 0.2937(2)
H354 H 0.6517 0.8300 0.3012
C175 C 0.5556(4) 0.8072(3) 0.3038(3)
H355 H 0.5206 0.7917 0.2708
H356 H 0.5422 0.8335 0.3273
C176 C 0.5647(4) 0.7539(3) 0.3290(3)
H357 H 0.5233 0.7301 0.3359
H358 H 0.5990 0.7695 0.3619
H359 H 0.5777 0.7279 0.3055
O37 O 0.8510(2) 0.1544(2) 0.1313(2)
O38 O 0.9340(3) 0.1751(2) -0.1005(2)
C177 C 0.8528(17) 0.2858(7) 0.1702(10)
H360 H 0.8512 0.3048 0.2041
H361 H 0.8598 0.3163 0.1476
H362 H 0.8890 0.2697 0.1751
C178 C 0.7860(12) 0.2324(11) 0.1444(7)
H363 H 0.7781 0.2021 0.1676
H364 H 0.7493 0.2486 0.1392
N25 N 0.7885(8) 0.2034(8) 0.0941(4)
H365 H 0.7647 0.2080 0.0650
C179 C 0.8269(4) 0.1699(5) 0.0922(4)
N26 N 0.8321(3) 0.1536(3) 0.0440(2)
H366 H 0.8057 0.1604 0.0175
C180 C 0.8774(3) 0.1263(3) 0.0335(3)
C181 C 0.8839(4) 0.0771(3) 0.0574(3)
H367 H 0.8584 0.0628 0.0809
C182 C 0.9282(4) 0.0492(3) 0.0463(4)
H368 H 0.9340 0.0166 0.0629
C183 C 0.9628(4) 0.0697(3) 0.0112(3)
H369 H 0.9923 0.0506 0.0031
C184 C 0.9563(3) 0.1166(3) -0.0123(3)
H370 H 0.9820 0.1299 -0.0360
C185 C 0.9125(3) 0.1461(3) -0.0027(3)
N27 N 0.9049(2) 0.1946(2) -0.0256(2)
H371 H 0.8906 0.2196 -0.0086
C186 C 0.9173(3) 0.2081(3) -0.0726(2)
N28 N 0.9073(3) 0.2591(3) -0.0845(2)
H372 H 0.8952 0.2804 -0.0620
C187 C 0.9149(4) 0.2804(4) -0.1311(3)
H373 H 0.8747 0.2888 -0.1473
H374 H 0.9184 0.2477 -0.1554
C188 C 0.9737(5) 0.3371(4) -0.1247(4)
H375 H 0.9754 0.3483 -0.1589
H376 H 1.0139 0.3293 -0.1092
H377 H 0.9698 0.3704 -0.1019
O39 O 0.3757(3) 0.0680(2) 0.25613(18)
O40 O 0.2906(2) 0.20842(18) 0.05155(14)
C189 C 0.2471(4) 0.0809(4) 0.3478(3)
H378 H 0.2467 0.0604 0.3780
H379 H 0.2063 0.0599 0.3205
H380 H 0.2506 0.1232 0.3582
C190 C 0.3039(4) 0.0797(3) 0.3277(2)
H381 H 0.3451 0.1005 0.3554
H382 H 0.3007 0.0370 0.3176
N29 N 0.3056(3) 0.1099(2) 0.28261(19)
H383 H 0.2811 0.1327 0.2755
C191 C 0.3453(3) 0.1029(3) 0.2516(2)
N30 N 0.3453(2) 0.1396(2) 0.21410(18)
H384 H 0.3184 0.1605 0.2126
C192 C 0.3846(3) 0.1469(2) 0.1776(2)
C193 C 0.4340(3) 0.1217(3) 0.1792(3)
H385 H 0.4426 0.0983 0.2051
C194 C 0.4709(3) 0.1310(3) 0.1422(3)
H386 H 0.5033 0.1124 0.1422
C195 C 0.4606(3) 0.1675(3) 0.1055(2)
H387 H 0.4865 0.1744 0.0811
C196 C 0.4125(3) 0.1934(3) 0.1048(2)
H388 H 0.4058 0.2186 0.0800
C197 C 0.3734(3) 0.1830(2) 0.14013(19)
N31 N 0.3241(2) 0.20927(19) 0.13922(16)
H389 H 0.3166 0.2192 0.1694
C198 C 0.2869(3) 0.2208(2) 0.0964(2)
N32 N 0.2454(3) 0.2488(2) 0.10820(18)
H390 H 0.2503 0.2638 0.1409
C199 C 0.1939(4) 0.2546(4) 0.0688(3)
H391 H 0.2077 0.2578 0.0360
H392 H 0.1853 0.2921 0.0797
C200 C 0.1341(5) 0.2020(5) 0.0601(4)
H393 H 0.0995 0.2063 0.0326
H394 H 0.1199 0.1996 0.0923
H395 H 0.1428 0.1649 0.0494
O41 O 0.6811(3) 0.4476(3) -0.0995(3)
O42 O 0.5311(3) 0.1997(2) 0.00876(19)
C201 C 0.8341(6) 0.4181(6) -0.1451(6)
H396 H 0.8554 0.4489 -0.1639
H397 H 0.8109 0.3792 -0.1691
H398 H 0.8673 0.4133 -0.1167
C202 C 0.7902(5) 0.4362(5) -0.1249(4)
H399 H 0.7583 0.4424 -0.1541
H400 H 0.8145 0.4764 -0.1021
N33 N 0.7530(3) 0.3968(2) -0.0952(2)
H401 H 0.7650 0.3670 -0.0842
C203 C 0.7001(3) 0.4066(3) -0.0847(3)
N34 N 0.6685(3) 0.3665(2) -0.0549(2)
H402 H 0.6836 0.3369 -0.0482
C204 C 0.6161(3) 0.3686(3) -0.0351(2)
C205 C 0.5871(4) 0.4135(3) -0.0413(3)
H403 H 0.6025 0.4441 -0.0607
C206 C 0.5358(4) 0.4133(4) -0.0190(3)
H404 H 0.5170 0.4443 -0.0230
C207 C 0.5117(4) 0.3690(4) 0.0088(3)
H405 H 0.4766 0.3696 0.0237
C208 C 0.5386(3) 0.3242(3) 0.0148(2)
H406 H 0.5216 0.2937 0.0339
C209 C 0.5898(3) 0.3227(3) -0.0064(2)
N35 N 0.6189(3) 0.2770(2) -0.00020(19)
H407 H 0.6606 0.2871 -0.0003
C210 C 0.5877(3) 0.2174(3) 0.0060(2)
N36 N 0.6262(4) 0.1826(3) 0.0083(2)
H408 H 0.6662 0.1977 0.0044
C211 C 0.6022(6) 0.1211(3) 0.0172(3)
H409 H 0.6249 0.0968 0.0014
H410 H 0.5546 0.1027 0.0001
C212 C 0.6140(7) 0.1195(5) 0.0753(4)
H411 H 0.5971 0.0772 0.0804
H412 H 0.5911 0.1432 0.0909
H413 H 0.6613 0.1369 0.0921
O43 O 0.2178(3) 0.2763(2) 0.45456(15)
O44 O 0.1376(3) 0.4233(2) 0.2510(2)
C213 C 0.3909(5) 0.2597(8) 0.4326(4)
H414 H 0.4212 0.2551 0.4632
H415 H 0.4089 0.3003 0.4244
H416 H 0.3850 0.2287 0.4029
C214 C 0.3301(5) 0.2526(5) 0.4433(3)
H417 H 0.3373 0.2826 0.4747
H418 H 0.3127 0.2115 0.4517
N37 N 0.2807(3) 0.2599(3) 0.40191(19)
H419 H 0.2843 0.2550 0.3697
C215 C 0.2294(3) 0.2740(3) 0.4114(2)
N38 N 0.1922(2) 0.2853(2) 0.36793(16)
H420 H 0.2025 0.2779 0.3385
C216 C 0.1396(3) 0.3074(2) 0.3647(2)
C217 C 0.1006(3) 0.2968(3) 0.4003(2)
H421 H 0.1099 0.2744 0.4269
C218 C 0.0488(3) 0.3185(3) 0.3971(3)
H422 H 0.0239 0.3128 0.4222
C219 C 0.0337(4) 0.3486(3) 0.3569(3)
H423 H -0.0026 0.3625 0.3538
C220 C 0.0716(4) 0.3587(3) 0.3205(3)
H424 H 0.0605 0.3790 0.2927
C221 C 0.1258(3) 0.3390(2) 0.3250(2)
N39 N 0.1648(2) 0.3484(2) 0.28890(18)
H425 H 0.1906 0.3265 0.2890
C222 C 0.1673(3) 0.3873(3) 0.2539(2)
N40 N 0.2059(3) 0.3816(2) 0.22198(19)
H426 H 0.2284 0.3568 0.2270
C223 C 0.2108(4) 0.4158(3) 0.1794(3)
H427 H 0.2083 0.4564 0.1900
H428 H 0.1738 0.3940 0.1485
C224 C 0.2749(5) 0.4229(4) 0.1660(4)
H429 H 0.2781 0.4459 0.1375
H430 H 0.2770 0.3827 0.1552
H431 H 0.3114 0.4449 0.1966
O45 O 0.5351(3) 0.0923(3) -0.2927(3)
O46 O 0.5591(3) -0.0166(3) -0.3255(2)
S2? S 0.7326(6) 0.2339(6) 0.5161(5)
O5? O 0.7200(16) 0.2150(14) 0.5645(9)
O6? O 0.6637(15) 0.224(3) 0.4817(19)
O7? O 0.7647(16) 0.3020(10) 0.5221(14)
O8? O 0.7611(15) 0.2008(14) 0.4868(12)
S5? S 0.2635(9) 0.2437(8) 0.2542(7)
O17? O 0.2004(5) 0.2417(5) 0.2657(4)
O18? O 0.2843(5) 0.2940(4) 0.2241(4)
O19? O 0.2473(5) 0.1840(4) 0.2167(4)
O20? O 0.3137(5) 0.2470(5) 0.2989(4)
S6? S 0.7584(8) 0.7389(7) 0.2474(7)
O21? O 0.737(3) 0.787(2) 0.2166(19)
O22? O 0.829(2) 0.7637(18) 0.2743(15)
O23? O 0.736(2) 0.684(2) 0.2098(18)
O24? O 0.719(3) 0.716(2) 0.285(2)
loop_
_geom_bond_atom_site_label_1
_geom_bond_atom_site_label_2
_geom_bond_site_symmetry_1
_geom_bond_site_symmetry_2
S1 O1 1_555 1_555
O2 S1 1_555 1_555
O3 S1 1_555 1_555
O4 S1 1_555 1_555
S3 O9 1_555 1_555
O10 S3 1_555 1_555
O11 S3 1_555 1_555
O12 S3 1_555 1_555
S4 O13 1_555 1_555
O14 S4 1_555 1_555
O15 S4 1_555 1_555
O16 S4 1_555 1_555
O25 C3 1_555 1_555
O26 C10 1_555 1_555
C1 H1 1_555 1_555
H2 C1 1_555 1_555
H3 C1 1_555 1_555
C2 C1 1_555 1_555
H4 C2 1_555 1_555
H5 C2 1_555 1_555
N1 C2 1_555 1_555
H6 N1 1_555 1_555
C3 N1 1_555 1_555
N2 C3 1_555 1_555
H7 N2 1_555 1_555
C4 N2 1_555 1_555
C5 C4 1_555 1_555
H8 C5 1_555 1_555
C6 C5 1_555 1_555
H9 C6 1_555 1_555
C7 C6 1_555 1_555
H10 C7 1_555 1_555
C8 C7 1_555 1_555
H11 C8 1_555 1_555
C9 C4 1_555 1_555
N3 C9 1_555 1_555
H12 N3 1_555 1_555
C10 N3 1_555 1_555
N4 C10 1_555 1_555
H13 N4 1_555 1_555
C11 N4 1_555 1_555
H14 C11 1_555 1_555
H15 C11 1_555 1_555
C12 C11 1_555 1_555
H16 C12 1_555 1_555
H17 C12 1_555 1_555
H18 C12 1_555 1_555
S7 O27 1_555 1_555
O28 S7 1_555 1_555
O29 S7 1_555 1_555
O30 S7 1_555 1_555
N5 C13 1_555 1_555
C13 H19 1_555 1_555
H20 C13 1_555 1_555
C14 C13 1_555 1_555
H21 C14 1_555 1_555
H22 C14 1_555 1_555
C15 C14 1_555 1_555
H23 C15 1_555 1_555
H24 C15 1_555 1_555
C16 C15 1_555 1_555
H25 C16 1_555 1_555
H26 C16 1_555 1_555
H27 C16 1_555 1_555
C17 N5 1_555 1_555
H28 C17 1_555 1_555
H29 C17 1_555 1_555
C18 C17 1_555 1_555
H30 C18 1_555 1_555
H31 C18 1_555 1_555
C19 C18 1_555 1_555
H32 C19 1_555 1_555
H33 C19 1_555 1_555
C20 C19 1_555 1_555
H34 C20 1_555 1_555
H35 C20 1_555 1_555
H36 C20 1_555 1_555
C21 N5 1_555 1_555
H37 C21 1_555 1_555
H38 C21 1_555 1_555
C22 C21 1_555 1_555
H39 C22 1_555 1_555
H40 C22 1_555 1_555
C23 C22 1_555 1_555
H41 C23 1_555 1_555
H42 C23 1_555 1_555
C24 C23 1_555 1_555
H43 C24 1_555 1_555
H44 C24 1_555 1_555
H45 C24 1_555 1_555
C25 N5 1_555 1_555
H46 C25 1_555 1_555
C26 C25 1_555 1_555
H47 C26 1_555 1_555
H48 C26 1_555 1_555
C27 C26 1_555 1_555
H49 C27 1_555 1_555
H50 C27 1_555 1_555
C28 C27 1_555 1_555
H51 C28 1_555 1_555
H52 C28 1_555 1_555
H53 C28 1_555 1_555
N6 C29 1_555 1_555
C29 H54 1_555 1_555
H55 C29 1_555 1_555
C30 C29 1_555 1_555
H56 C30 1_555 1_555
H57 C30 1_555 1_555
C31 C30 1_555 1_555
H58 C31 1_555 1_555
H59 C31 1_555 1_555
C32 C31 1_555 1_555
H60 C32 1_555 1_555
H61 C32 1_555 1_555
H62 C32 1_555 1_555
C33 N6 1_555 1_555
H63 C33 1_555 1_555
H64 C33 1_555 1_555
C34 C33 1_555 1_555
H65 C34 1_555 1_555
H66 C34 1_555 1_555
C35 C34 1_555 1_555
H67 C35 1_555 1_555
H68 C35 1_555 1_555
C36 C35 1_555 1_555
H69 C36 1_555 1_555
H70 C36 1_555 1_555
H71 C36 1_555 1_555
C37 N6 1_555 1_555
H72 C37 1_555 1_555
H73 C37 1_555 1_555
C38 C37 1_555 1_555
H74 C38 1_555 1_555
H75 C38 1_555 1_555
C39 C38 1_555 1_555
H76 C39 1_555 1_555
H77 C39 1_555 1_555
C40 C39 1_555 1_555
H78 C40 1_555 1_555
H79 C40 1_555 1_555
H80 C40 1_555 1_555
C41 N6 1_555 1_555
H81 C41 1_555 1_555
H82 C41 1_555 1_555
C42 C41 1_555 1_555
H83 C42 1_555 1_555
H84 C42 1_555 1_555
C43 C42 1_555 1_555
H85 C43 1_555 1_555
H86 C43 1_555 1_555
C44 C43 1_555 1_555
H87 C44 1_555 1_555
H88 C44 1_555 1_555
H89 C44 1_555 1_555
N7 C45 1_555 1_555
C45 H90 1_555 1_555
H91 C45 1_555 1_555
C46 C45 1_555 1_555
H92 C46 1_555 1_555
H93 C46 1_555 1_555
C47 C46 1_555 1_555
H94 C47 1_555 1_555
H95 C47 1_555 1_555
C48 C47 1_555 1_555
H96 C48 1_555 1_555
H97 C48 1_555 1_555
H98 C48 1_555 1_555
C49 N7 1_555 1_555
H99 C49 1_555 1_555
H100 C49 1_555 1_555
C50 C49 1_555 1_555
H101 C50 1_555 1_555
H102 C50 1_555 1_555
C51 C50 1_555 1_555
H103 C51 1_555 1_555
H104 C51 1_555 1_555
C52 C51 1_555 1_555
H105 C52 1_555 1_555
H106 C52 1_555 1_555
H107 C52 1_555 1_555
C53 N7 1_555 1_555
H108 C53 1_555 1_555
H109 C53 1_555 1_555
C54 C53 1_555 1_555
H110 C54 1_555 1_555
H111 C54 1_555 1_555
C55 C54 1_555 1_555
H112 C55 1_555 1_555
H113 C55 1_555 1_555
C56 C55 1_555 1_555
H114 C56 1_555 1_555
H115 C56 1_555 1_555
H116 C56 1_555 1_555
C57 N7 1_555 1_555
H117 C57 1_555 1_555
H118 C57 1_555 1_555
C58 C57 1_555 1_555
H119 C58 1_555 1_555
H120 C58 1_555 1_555
C59 C58 1_555 1_555
H121 C59 1_555 1_555
H122 C59 1_555 1_555
C60 C59 1_555 1_555
H123 C60 1_555 1_555
H124 C60 1_555 1_555
H125 C60 1_555 1_555
N8 C61 1_555 1_555
C61 H126 1_555 1_555
H127 C61 1_555 1_555
C62 C61 1_555 1_555
H128 C62 1_555 1_555
H129 C62 1_555 1_555
C63 C62 1_555 1_555
H130 C63 1_555 1_555
H131 C63 1_555 1_555
C64 C63 1_555 1_555
H132 C64 1_555 1_555
H133 C64 1_555 1_555
H134 C64 1_555 1_555
C65 N8 1_555 1_555
H135 C65 1_555 1_555
H136 C65 1_555 1_555
C66 C65 1_555 1_555
H137 C66 1_555 1_555
H138 C66 1_555 1_555
C67 C66 1_555 1_555
H139 C67 1_555 1_555
H140 C67 1_555 1_555
C68 C67 1_555 1_555
H141 C68 1_555 1_555
H142 C68 1_555 1_555
H143 C68 1_555 1_555
C69 N8 1_555 1_555
H144 C69 1_555 1_555
H145 C69 1_555 1_555
C70 C69 1_555 1_555
H146 C70 1_555 1_555
H147 C70 1_555 1_555
C71 C70 1_555 1_555
H148 C71 1_555 1_555
H149 C71 1_555 1_555
C72 C71 1_555 1_555
H150 C72 1_555 1_555
H151 C72 1_555 1_555
H152 C72 1_555 1_555
C73 N8 1_555 1_555
H153 C73 1_555 1_555
H154 C73 1_555 1_555
C74 C73 1_555 1_555
H155 C74 1_555 1_555
H156 C74 1_555 1_555
C75 C74 1_555 1_555
H157 C75 1_555 1_555
H158 C75 1_555 1_555
C76 C75 1_555 1_555
H159 C76 1_555 1_555
H160 C76 1_555 1_555
H161 C76 1_555 1_555
N9 C77 1_555 1_555
C77 H162 1_555 1_555
H163 C77 1_555 1_555
C78 C77 1_555 1_555
H164 C78 1_555 1_555
H165 C78 1_555 1_555
C79 C78 1_555 1_555
H166 C79 1_555 1_555
H167 C79 1_555 1_555
C80 C79 1_555 1_555
H168 C80 1_555 1_555
H169 C80 1_555 1_555
H170 C80 1_555 1_555
C81 N9 1_555 1_555
H171 C81 1_555 1_555
H172 C81 1_555 1_555
C82 C81 1_555 1_555
H173 C82 1_555 1_555
H174 C82 1_555 1_555
C83 C82 1_555 1_555
H175 C83 1_555 1_555
H176 C83 1_555 1_555
C84 C83 1_555 1_555
H177 C84 1_555 1_555
H178 C84 1_555 1_555
H179 C84 1_555 1_555
C85 N9 1_555 1_555
H180 C85 1_555 1_555
H181 C85 1_555 1_555
C86 C85 1_555 1_555
H182 C86 1_555 1_555
H183 C86 1_555 1_555
C87 C86 1_555 1_555
H184 C87 1_555 1_555
H185 C87 1_555 1_555
C88 C87 1_555 1_555
H186 C88 1_555 1_555
H187 C88 1_555 1_555
H188 C88 1_555 1_555
C89 N9 1_555 1_555
H189 C89 1_555 1_555
H190 C89 1_555 1_555
C90 C89 1_555 1_555
H191 C90 1_555 1_555
H192 C90 1_555 1_555
C91 C90 1_555 1_555
H193 C91 1_555 1_555
H194 C91 1_555 1_555
C92 C91 1_555 1_555
H195 C92 1_555 1_555
H196 C92 1_555 1_555
H197 C92 1_555 1_555
N10 C93 1_555 1_555
C93 H198 1_555 1_555
H199 C93 1_555 1_555
C94 C93 1_555 1_555
H200 C94 1_555 1_555
H201 C94 1_555 1_555
C95 C94 1_555 1_555
H202 C95 1_555 1_555
H203 C95 1_555 1_555
C96 C95 1_555 1_555
H204 C96 1_555 1_555
H205 C96 1_555 1_555
H206 C96 1_555 1_555
C97 N10 1_555 1_555
H207 C97 1_555 1_555
H208 C97 1_555 1_555
C98 C97 1_555 1_555
H209 C98 1_555 1_555
H210 C98 1_555 1_555
C99 C98 1_555 1_555
H211 C99 1_555 1_555
H212 C99 1_555 1_555
C100 C99 1_555 1_555
H213 C100 1_555 1_555
H214 C100 1_555 1_555
H215 C100 1_555 1_555
C101 N10 1_555 1_555
H216 C101 1_555 1_555
H217 C101 1_555 1_555
C102 C101 1_555 1_555
H218 C102 1_555 1_555
H219 C102 1_555 1_555
C103 C102 1_555 1_555
H220 C103 1_555 1_555
H221 C103 1_555 1_555
C104 C103 1_555 1_555
H222 C104 1_555 1_555
H223 C104 1_555 1_555
H224 C104 1_555 1_555
C105 N10 1_555 1_555
H225 C105 1_555 1_555
H226 C105 1_555 1_555
C106 C105 1_555 1_555
H227 C106 1_555 1_555
H228 C106 1_555 1_555
C107 C106 1_555 1_555
H229 C107 1_555 1_555
H230 C107 1_555 1_555
C108 C107 1_555 1_555
H231 C108 1_555 1_555
H232 C108 1_555 1_555
H233 C108 1_555 1_555
N11 C109 1_555 1_555
C109 H234 1_555 1_555
H235 C109 1_555 1_555
C110 C109 1_555 1_555
H236 C110 1_555 1_555
H237 C110 1_555 1_555
C111 C110 1_555 1_555
H238 C111 1_555 1_555
H239 C111 1_555 1_555
C112 C111 1_555 1_555
H240 C112 1_555 1_555
H241 C112 1_555 1_555
H242 C112 1_555 1_555
C113 N11 1_555 1_555
H243 C113 1_555 1_555
H244 C113 1_555 1_555
C114 C113 1_555 1_555
H245 C114 1_555 1_555
H246 C114 1_555 1_555
C115 C114 1_555 1_555
H247 C115 1_555 1_555
H248 C115 1_555 1_555
C116 C115 1_555 1_555
H249 C116 1_555 1_555
H250 C116 1_555 1_555
H251 C116 1_555 1_555
C117 N11 1_555 1_555
H252 C117 1_555 1_555
H253 C117 1_555 1_555
C118 C117 1_555 1_555
H254 C118 1_555 1_555
H255 C118 1_555 1_555
C119 C118 1_555 1_555
H256 C119 1_555 1_555
H257 C119 1_555 1_555
C120 C119 1_555 1_555
H258 C120 1_555 1_555
H259 C120 1_555 1_555
H260 C120 1_555 1_555
C121 N11 1_555 1_555
H261 C121 1_555 1_555
H262 C121 1_555 1_555
C122 C121 1_555 1_555
H263 C122 1_555 1_555
H264 C122 1_555 1_555
C123 C122 1_555 1_555
H265 C123 1_555 1_555
H266 C123 1_555 1_555
C124 C123 1_555 1_555
H267 C124 1_555 1_555
H268 C124 1_555 1_555
H269 C124 1_555 1_555
N12 C125 1_555 1_555
C125 H270 1_555 1_555
H271 C125 1_555 1_555
C126 C125 1_555 1_555
H272 C126 1_555 1_555
H273 C126 1_555 1_555
C127 C126 1_555 1_555
H274 C127 1_555 1_555
H275 C127 1_555 1_555
C128 C127 1_555 1_555
H276 C128 1_555 1_555
H277 C128 1_555 1_555
H278 C128 1_555 1_555
C129 N12 1_555 1_555
H279 C129 1_555 1_555
H280 C129 1_555 1_555
C130 C129 1_555 1_555
H281 C130 1_555 1_555
H282 C130 1_555 1_555
C131 C130 1_555 1_555
H283 C131 1_555 1_555
H284 C131 1_555 1_555
C132 C131 1_555 1_555
H285 C132 1_555 1_555
H286 C132 1_555 1_555
H287 C132 1_555 1_555
C133 N12 1_555 1_555
H288 C133 1_555 1_555
H289 C133 1_555 1_555
C134 C133 1_555 1_555
H290 C134 1_555 1_555
H291 C134 1_555 1_555
C135 C134 1_555 1_555
H292 C135 1_555 1_555
H293 C135 1_555 1_555
C136 C135 1_555 1_555
H294 C136 1_555 1_555
H295 C136 1_555 1_555
H296 C136 1_555 1_555
C137 N12 1_555 1_555
H297 C137 1_555 1_555
H298 C137 1_555 1_555
C138 C137 1_555 1_555
H299 C138 1_555 1_555
H300 C138 1_555 1_555
C139 C138 1_555 1_555
H301 C139 1_555 1_555
H302 C139 1_555 1_555
C140 C139 1_555 1_555
H303 C140 1_555 1_555
H304 C140 1_555 1_555
H305 C140 1_555 1_555
O31 C143 1_555 1_555
O32 C150 1_555 1_555
C141 H306 1_555 1_555
H307 C141 1_555 1_555
H308 C141 1_555 1_555
C142 C141 1_555 1_555
H309 C142 1_555 1_555
H310 C142 1_555 1_555
N13 C142 1_555 1_555
H311 N13 1_555 1_555
C143 N13 1_555 1_555
N14 C143 1_555 1_555
H312 N14 1_555 1_555
C144 N14 1_555 1_555
C145 C144 1_555 1_555
H313 C145 1_555 1_555
C146 C145 1_555 1_555
H314 C146 1_555 1_555
C147 C146 1_555 1_555
H315 C147 1_555 1_555
C148 C147 1_555 1_555
H316 C148 1_555 1_555
C149 C144 1_555 1_555
N15 C149 1_555 1_555
H317 N15 1_555 1_555
C150 N15 1_555 1_555
N16 C150 1_555 1_555
H318 N16 1_555 1_555
C151 N16 1_555 1_555
H319 C151 1_555 1_555
H320 C151 1_555 1_555
C152 C151 1_555 1_555
H321 C152 1_555 1_555
H322 C152 1_555 1_555
H323 C152 1_555 1_555
O33 C155 1_555 1_555
O34 C162 1_555 1_555
C153 H324 1_555 1_555
H325 C153 1_555 1_555
H326 C153 1_555 1_555
C154 C153 1_555 1_555
H327 C154 1_555 1_555
H328 C154 1_555 1_555
N17 C154 1_555 1_555
H329 N17 1_555 1_555
C155 N17 1_555 1_555
N18 C155 1_555 1_555
H330 N18 1_555 1_555
C156 N18 1_555 1_555
C157 C156 1_555 1_555
H331 C157 1_555 1_555
C158 C157 1_555 1_555
H332 C158 1_555 1_555
C159 C158 1_555 1_555
H333 C159 1_555 1_555
C160 C159 1_555 1_555
H334 C160 1_555 1_555
C161 C156 1_555 1_555
N19 C161 1_555 1_555
H335 N19 1_555 1_555
C162 N19 1_555 1_555
N20 C162 1_555 1_555
H336 N20 1_555 1_555
C163 N20 1_555 1_555
H337 C163 1_555 1_555
H338 C163 1_555 1_555
C164 C163 1_555 1_555
H339 C164 1_555 1_555
H340 C164 1_555 1_555
H341 C164 1_555 1_555
O35 C167 1_555 1_555
O36 C174 1_555 1_555
C165 H342 1_555 1_555
H343 C165 1_555 1_555
H344 C165 1_555 1_555
C166 C165 1_555 1_555
H345 C166 1_555 1_555
H346 C166 1_555 1_555
N21 C166 1_555 1_555
H347 N21 1_555 1_555
C167 N21 1_555 1_555
N22 C167 1_555 1_555
H348 N22 1_555 1_555
C168 N22 1_555 1_555
C169 C168 1_555 1_555
H349 C169 1_555 1_555
C170 C169 1_555 1_555
H350 C170 1_555 1_555
C171 C170 1_555 1_555
H351 C171 1_555 1_555
C172 C171 1_555 1_555
H352 C172 1_555 1_555
C173 C168 1_555 1_555
N23 C173 1_555 1_555
H353 N23 1_555 1_555
C174 N23 1_555 1_555
N24 C174 1_555 1_555
H354 N24 1_555 1_555
C175 N24 1_555 1_555
H355 C175 1_555 1_555
H356 C175 1_555 1_555
C176 C175 1_555 1_555
H357 C176 1_555 1_555
H358 C176 1_555 1_555
H359 C176 1_555 1_555
O37 C179 1_555 1_555
O38 C186 1_555 1_555
C177 H360 1_555 1_555
H361 C177 1_555 1_555
H362 C177 1_555 1_555
C178 C177 1_555 1_555
H363 C178 1_555 1_555
H364 C178 1_555 1_555
N25 C178 1_555 1_555
H365 N25 1_555 1_555
C179 N25 1_555 1_555
N26 C179 1_555 1_555
H366 N26 1_555 1_555
C180 N26 1_555 1_555
C181 C180 1_555 1_555
H367 C181 1_555 1_555
C182 C181 1_555 1_555
H368 C182 1_555 1_555
C183 C182 1_555 1_555
H369 C183 1_555 1_555
C184 C183 1_555 1_555
H370 C184 1_555 1_555
C185 C180 1_555 1_555
N27 C185 1_555 1_555
H371 N27 1_555 1_555
C186 N27 1_555 1_555
N28 C186 1_555 1_555
H372 N28 1_555 1_555
C187 N28 1_555 1_555
H373 C187 1_555 1_555
H374 C187 1_555 1_555
C188 C187 1_555 1_555
H375 C188 1_555 1_555
H376 C188 1_555 1_555
H377 C188 1_555 1_555
O39 C191 1_555 1_555
O40 C198 1_555 1_555
C189 H378 1_555 1_555
H379 C189 1_555 1_555
H380 C189 1_555 1_555
C190 C189 1_555 1_555
H381 C190 1_555 1_555
H382 C190 1_555 1_555
N29 C190 1_555 1_555
H383 N29 1_555 1_555
C191 N29 1_555 1_555
N30 C191 1_555 1_555
H384 N30 1_555 1_555
C192 N30 1_555 1_555
C193 C192 1_555 1_555
H385 C193 1_555 1_555
C194 C193 1_555 1_555
H386 C194 1_555 1_555
C195 C194 1_555 1_555
H387 C195 1_555 1_555
C196 C195 1_555 1_555
H388 C196 1_555 1_555
C197 C192 1_555 1_555
N31 C197 1_555 1_555
H389 N31 1_555 1_555
C198 N31 1_555 1_555
N32 C198 1_555 1_555
H390 N32 1_555 1_555
C199 N32 1_555 1_555
H391 C199 1_555 1_555
H392 C199 1_555 1_555
C200 C199 1_555 1_555
H393 C200 1_555 1_555
H394 C200 1_555 1_555
H395 C200 1_555 1_555
O41 C203 1_555 1_555
O42 C210 1_555 1_555
C201 H396 1_555 1_555
H397 C201 1_555 1_555
H398 C201 1_555 1_555
C202 C201 1_555 1_555
H399 C202 1_555 1_555
H400 C202 1_555 1_555
N33 C202 1_555 1_555
H401 N33 1_555 1_555
C203 N33 1_555 1_555
N34 C203 1_555 1_555
H402 N34 1_555 1_555
C204 N34 1_555 1_555
C205 C204 1_555 1_555
H403 C205 1_555 1_555
C206 C205 1_555 1_555
H404 C206 1_555 1_555
C207 C206 1_555 1_555
H405 C207 1_555 1_555
C208 C207 1_555 1_555
H406 C208 1_555 1_555
C209 C204 1_555 1_555
N35 C209 1_555 1_555
H407 N35 1_555 1_555
C210 N35 1_555 1_555
N36 C210 1_555 1_555
H408 N36 1_555 1_555
C211 N36 1_555 1_555
H409 C211 1_555 1_555
H410 C211 1_555 1_555
C212 C211 1_555 1_555
H411 C212 1_555 1_555
H412 C212 1_555 1_555
H413 C212 1_555 1_555
O43 C215 1_555 1_555
O44 C222 1_555 1_555
C213 H414 1_555 1_555
H415 C213 1_555 1_555
H416 C213 1_555 1_555
C214 C213 1_555 1_555
H417 C214 1_555 1_555
H418 C214 1_555 1_555
N37 C214 1_555 1_555
H419 N37 1_555 1_555
C215 N37 1_555 1_555
N38 C215 1_555 1_555
H420 N38 1_555 1_555
C216 N38 1_555 1_555
C217 C216 1_555 1_555
H421 C217 1_555 1_555
C218 C217 1_555 1_555
H422 C218 1_555 1_555
C219 C218 1_555 1_555
H423 C219 1_555 1_555
C220 C219 1_555 1_555
H424 C220 1_555 1_555
C221 C216 1_555 1_555
N39 C221 1_555 1_555
H425 N39 1_555 1_555
C222 N39 1_555 1_555
N40 C222 1_555 1_555
H426 N40 1_555 1_555
C223 N40 1_555 1_555
H427 C223 1_555 1_555
H428 C223 1_555 1_555
C224 C223 1_555 1_555
H429 C224 1_555 1_555
H430 C224 1_555 1_555
H431 C224 1_555 1_555
C8 C9 1_555 1_555
C148 C149 1_555 1_555
C160 C161 1_555 1_555
C172 C173 1_555 1_555
C184 C185 1_555 1_555
C196 C197 1_555 1_555
C208 C209 1_555 1_555
C220 C221 1_555 1_555

#END
