
#######################################################################
#
#                 Cambridge Crystallographic Data Centre
#                                CCDC 
#
#######################################################################
#
# If this CIF has been generated from an entry in the Cambridge 
# Structural Database, then it will include bibliographic, chemical, 
# crystal, experimental, refinement or atomic coordinate data resulting 
# from the CCDC's data processing and validation procedures.
#
#######################################################################

data_TUJZUV
_chemical_formula_moiety         'C25 H37 N9 O4,O4 S1 2-,2(C16 H36 N1 1+)'
_chemical_name_systematic        
"bis(tetra-n-butylammonium) 3,3'-((methylimino)diethane-2,1-diyl)bis(1-(2-((ethylcarbamoyl)amino)phenyl)urea) sulfate"
_symmetry_cell_setting           triclinic
_symmetry_space_group_name_H-M   'C 1'
_symmetry_Int_Tables_number      1
_space_group_name_Hall           'C 1'
loop_
_symmetry_equiv_pos_site_id
_symmetry_equiv_pos_as_xyz
1 x,y,z
2 1/2+x,1/2+y,z
_cell_length_a                   59.086(2)
_cell_length_b                   9.0002(4)
_cell_length_c                   18.4644(6)
_cell_angle_alpha                90.050(2)
_cell_angle_beta                 105.800(2)
_cell_angle_gamma                89.986(2)
_cell_volume                     9448.12
_exptl_crystal_colour            colorless
_exptl_crystal_description       needle
_cell_formula_units_Z            6
loop_
_atom_site_label
_atom_site_type_symbol
_atom_site_fract_x
_atom_site_fract_y
_atom_site_fract_z
S1 S 0.32511(3) 0.28770(19) 0.35339(8)
O1 O 0.30951(10) 0.3828(7) 0.3837(4)
O2 O 0.33974(10) 0.2029(7) 0.4164(3)
O3 O 0.34046(9) 0.3743(7) 0.3185(3)
O4 O 0.31090(9) 0.1826(7) 0.2979(3)
S2 S 0.50002(4) 0.46098(11) 1.00039(14)
O5 O 0.51556(12) 0.3778(9) 1.0616(4)
O6 O 0.48375(12) 0.5514(8) 1.0287(4)
O7 O 0.51388(10) 0.5642(7) 0.9654(3)
O8 O 0.48610(15) 0.3678(10) 0.9415(4)
S3 S 0.67503(3) 0.28340(18) 0.64600(9)
O9 O 0.69105(10) 0.3772(7) 0.6184(3)
O10 O 0.65953(9) 0.1977(6) 0.5829(3)
O11 O 0.66035(9) 0.3705(7) 0.6830(3)
O12 O 0.68932(10) 0.1750(7) 0.7000(3)
O13 O 0.22725(9) 0.1496(8) 0.2163(4)
O14 O 0.31350(10) 0.2291(8) 0.0377(3)
O15 O 0.42469(10) 0.3216(9) 0.4785(3)
O16 O 0.34533(11) 0.3040(10) 0.6739(3)
C1 C 0.25128(15) 0.4654(12) 0.3833(5)
H1 H 0.2406 0.5050 0.4108
H2 H 0.2534 0.5392 0.3467
H3 H 0.2665 0.4431 0.4188
C2 C 0.24140(17) 0.3301(13) 0.3440(6)
H4 H 0.2255 0.3507 0.3110
H5 H 0.2400 0.2537 0.3811
N1 N 0.25681(13) 0.2732(11) 0.2979(4)
H6 H 0.2719 0.2954 0.3116
C3 C 0.24857(16) 0.1910(11) 0.2372(5)
N2 N 0.26504(10) 0.1548(8) 0.2023(3)
H7 H 0.2792 0.1894 0.2233
C4 C 0.26257(13) 0.0669(8) 0.1354(4)
C5 C 0.24248(14) -0.0099(10) 0.1016(5)
H8 H 0.2293 -0.0046 0.1215
C6 C 0.24141(16) -0.0978(11) 0.0366(5)
H9 H 0.2280 -0.1579 0.0151
C7 C 0.26037(15) -0.0942(11) 0.0051(5)
H10 H 0.2594 -0.1430 -0.0412
C8 C 0.27994(14) -0.0205(10) 0.0413(4)
H11 H 0.2934 -0.0305 0.0232
C9 C 0.28161(12) 0.0687(9) 0.1032(4)
N3 N 0.30345(11) 0.1459(9) 0.1432(4)
H12 H 0.3076 0.1471 0.1927
C10 C 0.31765(12) 0.2172(10) 0.1049(4)
N4 N 0.33579(11) 0.2894(9) 0.1540(3)
H13 H 0.3387 0.2740 0.2027
C11 C 0.35010(15) 0.3914(10) 0.1251(5)
H14 H 0.3407 0.4809 0.1055
H15 H 0.3546 0.3438 0.0826
C12 C 0.37198(14) 0.4377(12) 0.1836(5)
H16 H 0.3810 0.5063 0.1601
H17 H 0.3674 0.4931 0.2237
N5 N 0.38738(13) 0.3132(9) 0.2181(4)
C13 C 0.40922(19) 0.3562(14) 0.2694(6)
H18 H 0.4184 0.4150 0.2420
H19 H 0.4184 0.2660 0.2892
C14 C 0.40577(14) 0.4496(12) 0.3364(5)
H20 H 0.4214 0.4767 0.3697
H21 H 0.3974 0.5428 0.3167
N6 N 0.39277(12) 0.3728(10) 0.3792(4)
H22 H 0.3775 0.3610 0.3606
C15 C 0.40377(14) 0.3163(12) 0.4499(5)
N7 N 0.38812(11) 0.2462(9) 0.4849(4)
H23 H 0.3731 0.2454 0.4599
C16 C 0.39423(13) 0.1781(11) 0.5553(5)
C17 C 0.41600(16) 0.0966(15) 0.5842(5)
H24 H 0.4272 0.0964 0.5559
C18 C 0.4207(2) 0.024(2) 0.6471(6)
H25 H 0.4352 -0.0279 0.6632
C19 C 0.4045(2) 0.021(2) 0.6937(7)
H26 H 0.4082 -0.0282 0.7410
C20 C 0.38325(17) 0.0928(15) 0.6648(5)
H27 H 0.3721 0.0907 0.6932
C21 C 0.37750(13) 0.1669(12) 0.5976(4)
N8 N 0.35625(12) 0.2394(10) 0.5693(4)
H28 H 0.3516 0.2474 0.5199
C22 C 0.34170(14) 0.2992(14) 0.6055(4)
N9 N 0.32243(12) 0.3739(8) 0.5596(4)
H29 H 0.3220 0.3924 0.5125
C23 C 0.30363(16) 0.4202(14) 0.5871(5)
H30 H 0.2941 0.4936 0.5517
H31 H 0.3101 0.4708 0.6360
C24 C 0.2881(2) 0.297(2) 0.5974(5)
H32 H 0.2753 0.3378 0.6162
H33 H 0.2972 0.2259 0.6338
H34 H 0.2814 0.2477 0.5491
C25 C 0.39213(10) 0.2113(9) 0.1596(4)
H35 H 0.4029 0.1323 0.1842
H36 H 0.3993 0.2679 0.1262
H37 H 0.3773 0.1673 0.1301
O17 O 0.48408(17) 0.4708(12) 1.2880(4)
O18 O 0.40102(13) 0.5414(17) 0.9599(4)
O19 O 0.51340(14) 0.4963(12) 0.7069(4)
O20 O 0.59892(11) 0.5336(12) 1.0399(5)
C26 C 0.5414(3) 0.400(2) 1.3107(7)
H38 H 0.5510 0.3298 1.3466
H39 H 0.5352 0.4765 1.3380
H40 H 0.5511 0.4472 1.2816
C27 C 0.5227(2) 0.3244(15) 1.2619(7)
H41 H 0.5143 0.2685 1.2928
H42 H 0.5294 0.2505 1.2337
N10 N 0.50574(15) 0.4111(11) 1.2084(4)
H43 H 0.5069 0.4182 1.1620
C28 C 0.48700(14) 0.4863(14) 1.2280(5)
N11 N 0.47210(13) 0.5537(10) 1.1658(4)
H44 H 0.4760 0.5471 1.1232
C29 C 0.45143(13) 0.6316(11) 1.1642(5)
C30 C 0.44776(15) 0.6876(13) 1.2293(6)
H45 H 0.4594 0.6722 1.2755
C31 C 0.42794(15) 0.7646(14) 1.2300(6)
H46 H 0.4258 0.8034 1.2755
C32 C 0.41056(17) 0.7849(15) 1.1601(7)
H47 H 0.3967 0.8395 1.1592
C33 C 0.41326(15) 0.7276(15) 1.0941(7)
H48 H 0.4014 0.7389 1.0480
C34 C 0.43440(16) 0.6513(12) 1.0972(5)
N12 N 0.43825(12) 0.5917(10) 1.0290(5)
H49 H 0.4530 0.5888 1.0270
C35 C 0.42271(14) 0.5420(13) 0.9705(6)
N13 N 0.43242(13) 0.4752(15) 0.9168(5)
H50 H 0.4475 0.4868 0.9206
C36 C 0.41846(19) 0.3902(16) 0.8571(7)
H51 H 0.4043 0.4489 0.8320
H52 H 0.4130 0.3004 0.8784
C37 C 0.4298(2) 0.3446(16) 0.8015(7)
H53 H 0.4181 0.2930 0.7605
H54 H 0.4423 0.2720 0.8246
N14 N 0.44079(10) 0.4710(14) 0.7676(3)
C38 C 0.4515(3) 0.450(2) 0.7039(9)
H55 H 0.4555 0.5474 0.6864
H56 H 0.4399 0.4009 0.6614
C39 C 0.4750(2) 0.3476(19) 0.7303(7)
H57 H 0.4710 0.2512 0.7494
H58 H 0.4812 0.3275 0.6865
N15 N 0.49322(14) 0.4225(12) 0.7896(5)
H59 H 0.4919 0.4233 0.8360
C40 C 0.51064(19) 0.4857(13) 0.7756(5)
N16 N 0.52648(11) 0.5551(10) 0.8329(4)
H60 H 0.5230 0.5548 0.8762
C41 C 0.54767(14) 0.6274(10) 0.8335(5)
C42 C 0.55153(17) 0.6949(13) 0.7704(5)
H61 H 0.5399 0.6897 0.7233
C43 C 0.57314(19) 0.7723(17) 0.7770(7)
H62 H 0.5755 0.8195 0.7336
C44 C 0.58969(18) 0.7809(16) 0.8398(7)
H63 H 0.6043 0.8271 0.8413
C45 C 0.58567(17) 0.7213(13) 0.9045(6)
H64 H 0.5973 0.7361 0.9510
C46 C 0.56561(12) 0.6412(10) 0.9050(5)
N17 N 0.56122(12) 0.5823(12) 0.9689(3)
H65 H 0.5464 0.5780 0.9694
C47 C 0.57791(19) 0.5282(17) 1.0334(5)
N18 N 0.56791(17) 0.4821(14) 1.0857(6)
H66 H 0.5527 0.4950 1.0782
C48 C 0.5809(2) 0.413(3) 1.1533(6)
H67 H 0.5698 0.3534 1.1730
H68 H 0.5921 0.3424 1.1404
C49 C 0.59225(17) 0.494(2) 1.2053(8)
H69 H 0.6005 0.4316 1.2480
H70 H 0.5815 0.5611 1.2210
H71 H 0.6038 0.5516 1.1877
C50 C 0.4201(2) 0.587(2) 0.7384(10)
H72 H 0.4129 0.6101 0.7790
H73 H 0.4083 0.5447 0.6956
H74 H 0.4265 0.6784 0.7225
O21 O 0.77242(10) 0.1468(8) 0.7833(3)
O22 O 0.68689(9) 0.2277(8) 0.9629(3)
O23 O 0.57488(11) 0.3207(10) 0.5234(4)
O24 O 0.65335(11) 0.3079(9) 0.3237(3)
C51 C 0.74821(17) 0.4681(14) 0.6132(6)
H75 H 0.7585 0.5025 0.5831
H76 H 0.7462 0.5478 0.6471
H77 H 0.7329 0.4406 0.5797
C52 C 0.75935(16) 0.3317(11) 0.6599(6)
H78 H 0.7627 0.2541 0.6262
H79 H 0.7744 0.3605 0.6960
N19 N 0.74369(11) 0.2740(9) 0.7000(4)
H80 H 0.7286 0.2958 0.6853
C53 C 0.75228(11) 0.1846(9) 0.7615(4)
N20 N 0.73487(12) 0.1473(8) 0.7963(4)
H81 H 0.7206 0.1779 0.7733
C54 C 0.73703(12) 0.0695(11) 0.8615(4)
C55 C 0.75698(14) -0.0173(11) 0.8975(4)
H82 H 0.7696 -0.0225 0.8750
C56 C 0.75889(15) -0.0934(11) 0.9623(5)
H83 H 0.7732 -0.1424 0.9863
C57 C 0.74025(15) -0.1003(11) 0.9937(5)
H84 H 0.7412 -0.1612 1.0363
C58 C 0.71955(15) -0.0150(11) 0.9614(5)
H85 H 0.7072 -0.0105 0.9852
C59 C 0.71778(12) 0.0623(9) 0.8936(4)
N21 N 0.69753(10) 0.1384(8) 0.8595(3)
H86 H 0.6929 0.1331 0.8100
C60 C 0.68376(13) 0.2212(10) 0.8924(4)
N22 N 0.66435(11) 0.2837(8) 0.8444(4)
H87 H 0.6603 0.2599 0.7964
C61 C 0.65078(15) 0.3879(13) 0.8730(5)
H88 H 0.6603 0.4788 0.8889
H89 H 0.6473 0.3451 0.9181
C62 C 0.62825(19) 0.4293(12) 0.8174(6)
H90 H 0.6194 0.4965 0.8424
H91 H 0.6320 0.4858 0.7760
N23 N 0.61309(11) 0.3052(9) 0.7849(4)
C63 C 0.59201(16) 0.3605(13) 0.7314(5)
H92 H 0.5839 0.4267 0.7590
H93 H 0.5815 0.2746 0.7134
C64 C 0.59450(16) 0.4421(12) 0.6644(5)
H94 H 0.5786 0.4648 0.6317
H95 H 0.6024 0.5379 0.6812
N24 N 0.60774(12) 0.3632(10) 0.6191(4)
H96 H 0.6231 0.3524 0.6363
C65 C 0.59628(14) 0.3078(11) 0.5518(5)
N25 N 0.61130(12) 0.2425(11) 0.5161(4)
H97 H 0.6264 0.2445 0.5400
C66 C 0.60506(14) 0.1728(11) 0.4453(4)
C67 C 0.58372(17) 0.1081(15) 0.4192(6)
H98 H 0.5730 0.1047 0.4495
C68 C 0.57739(19) 0.044(2) 0.3437(7)
H99 H 0.5621 0.0045 0.3225
C69 C 0.5934(2) 0.040(2) 0.3051(7)
H100 H 0.5897 -0.0126 0.2588
C70 C 0.6151(2) 0.1101(18) 0.3286(6)
H101 H 0.6257 0.1112 0.2980
C71 C 0.62083(14) 0.1801(12) 0.4006(4)
N26 N 0.64398(12) 0.2400(9) 0.4329(4)
H102 H 0.6497 0.2330 0.4821
C72 C 0.65812(14) 0.3076(9) 0.3939(5)
N27 N 0.67747(14) 0.3627(13) 0.4411(4)
H103 H 0.6789 0.3648 0.4898
C73 C 0.69698(16) 0.4217(11) 0.4107(5)
H104 H 0.7060 0.4987 0.4449
H105 H 0.6903 0.4670 0.3606
C74 C 0.71295(19) 0.2930(14) 0.4046(8)
H106 H 0.7256 0.3287 0.3841
H107 H 0.7038 0.2168 0.3713
H108 H 0.7198 0.2504 0.4547
C75 C 0.6072(6) 0.217(2) 0.8364(15)
H109 H 0.6215 0.1786 0.8719
H110 H 0.5976 0.1333 0.8107
H111 H 0.5981 0.2744 0.8639
N28 N 0.16557(11) -0.0493(8) 0.1356(4)
C76 C 0.15381(11) 0.0398(10) 0.1865(4)
H112 H 0.1507 -0.0280 0.2249
H113 H 0.1384 0.0769 0.1556
C77 C 0.16838(16) 0.1730(13) 0.2270(5)
H114 H 0.1845 0.1398 0.2534
H115 H 0.1696 0.2494 0.1896
C78 C 0.15664(16) 0.2384(13) 0.2830(4)
H116 H 0.1563 0.1630 0.3217
H117 H 0.1402 0.2648 0.2567
C79 C 0.16988(18) 0.3807(16) 0.3225(6)
H118 H 0.1617 0.4204 0.3580
H119 H 0.1701 0.4560 0.2844
H120 H 0.1861 0.3544 0.3497
C80 C 0.18629(13) -0.1335(10) 0.1879(4)
H121 H 0.1990 -0.0622 0.2103
H122 H 0.1811 -0.1790 0.2294
C81 C 0.19590(13) -0.2545(11) 0.1467(4)
H123 H 0.1834 -0.3281 0.1253
H124 H 0.2010 -0.2102 0.1047
C82 C 0.21657(16) -0.3311(11) 0.2009(4)
H125 H 0.2118 -0.3664 0.2454
H126 H 0.2296 -0.2595 0.2183
C83 C 0.2248(2) -0.4627(13) 0.1623(6)
H127 H 0.2380 -0.5123 0.1982
H128 H 0.2300 -0.4271 0.1193
H129 H 0.2118 -0.5332 0.1448
C84 C 0.14805(13) -0.1563(10) 0.0872(4)
H130 H 0.1557 -0.2058 0.0522
H131 H 0.1347 -0.0978 0.0564
C85 C 0.13827(12) -0.2759(10) 0.1285(4)
H132 H 0.1292 -0.2292 0.1604
H133 H 0.1514 -0.3332 0.1616
C86 C 0.12211(18) -0.3814(13) 0.0708(6)
H134 H 0.1086 -0.3242 0.0398
H135 H 0.1310 -0.4217 0.0367
C87 C 0.11288(19) -0.5109(14) 0.1089(6)
H136 H 0.1027 -0.5744 0.0703
H137 H 0.1039 -0.4716 0.1420
H138 H 0.1262 -0.5694 0.1386
C88 C 0.17570(13) 0.0474(10) 0.0854(4)
H139 H 0.1826 -0.0181 0.0538
H140 H 0.1887 0.1068 0.1176
C89 C 0.15828(14) 0.1547(10) 0.0330(5)
H141 H 0.1467 0.0970 -0.0057
H142 H 0.1496 0.2116 0.0627
C90 C 0.17123(16) 0.2605(10) -0.0047(5)
H143 H 0.1806 0.3302 0.0333
H144 H 0.1822 0.2036 -0.0261
C91 C 0.15490(16) 0.3465(13) -0.0657(5)
H145 H 0.1639 0.4169 -0.0873
H146 H 0.1437 0.4009 -0.0451
H147 H 0.1463 0.2782 -0.1050
N29 N 0.33310(19) -0.2099(9) 0.3774(5)
C92 C 0.3484(2) -0.1040(13) 0.3538(6)
H148 H 0.3584 -0.0556 0.3996
H149 H 0.3384 -0.0257 0.3236
C93 C 0.3645(2) -0.1618(12) 0.3085(5)
H150 H 0.3550 -0.1863 0.2568
H151 H 0.3723 -0.2538 0.3320
C94 C 0.3838(2) -0.0421(16) 0.3046(7)
H152 H 0.3907 -0.0672 0.2630
H153 H 0.3764 0.0571 0.2943
C95 C 0.4035(3) -0.0379(17) 0.3801(7)
H154 H 0.4151 0.0385 0.3774
H155 H 0.4113 -0.1349 0.3891
H156 H 0.3966 -0.0146 0.4214
C96 C 0.3196(2) -0.3023(13) 0.3125(7)
H157 H 0.3100 -0.3757 0.3311
H158 H 0.3308 -0.3579 0.2916
C97 C 0.3028(3) -0.2079(13) 0.2476(6)
H159 H 0.3122 -0.1550 0.2186
H160 H 0.2942 -0.1332 0.2693
C98 C 0.2847(4) -0.317(3) 0.1940(12)
H161 H 0.2742 -0.3565 0.2228
H162 H 0.2749 -0.2571 0.1521
C99 C 0.2937(2) -0.4395(12) 0.1620(7)
H163 H 0.2806 -0.4963 0.1299
H164 H 0.3029 -0.5036 0.2023
H165 H 0.3039 -0.4032 0.1317
C100 C 0.3460(2) -0.3209(11) 0.4353(6)
H166 H 0.3584 -0.3689 0.4166
H167 H 0.3348 -0.3992 0.4407
C101 C 0.35747(17) -0.2527(12) 0.5137(6)
H168 H 0.3645 -0.1554 0.5076
H169 H 0.3453 -0.2359 0.5405
C102 C 0.37620(13) -0.3546(11) 0.5597(5)
H170 H 0.3702 -0.4578 0.5543
H171 H 0.3795 -0.3267 0.6134
C103 C 0.39922(14) -0.3490(11) 0.5362(5)
H172 H 0.4109 -0.4146 0.5688
H173 H 0.4052 -0.2469 0.5409
H174 H 0.3962 -0.3818 0.4838
C104 C 0.3168(2) -0.1230(12) 0.4133(5)
H175 H 0.3264 -0.0752 0.4600
H176 H 0.3090 -0.0433 0.3784
C105 C 0.2982(2) -0.2180(18) 0.4322(10)
H177 H 0.3056 -0.3008 0.4656
H178 H 0.2876 -0.2603 0.3857
C106 C 0.2835(3) -0.112(3) 0.4743(8)
H179 H 0.2730 -0.1723 0.4962
H180 H 0.2944 -0.0554 0.5153
C107 C 0.2706(2) -0.017(3) 0.4212(9)
H181 H 0.2621 0.0525 0.4449
H182 H 0.2594 -0.0743 0.3823
H183 H 0.2812 0.0382 0.3982
N30 N 0.49973(15) 0.3561(6) 0.5013(5)
C108 C 0.49176(16) 0.2650(15) 0.4317(5)
H184 H 0.5056 0.2106 0.4250
H185 H 0.4866 0.3341 0.3887
C109 C 0.47249(19) 0.1545(13) 0.4260(7)
H186 H 0.4586 0.2020 0.4361
H187 H 0.4778 0.0720 0.4620
C110 C 0.4660(2) 0.0907(16) 0.3338(14)
H188 H 0.4502 0.0445 0.3177
H189 H 0.4671 0.1711 0.2983
C111 C 0.48460(16) -0.0185(13) 0.3407(7)
H190 H 0.4826 -0.0692 0.2923
H191 H 0.4838 -0.0914 0.3793
H192 H 0.4999 0.0315 0.3550
C112 C 0.52023(15) 0.4484(13) 0.4920(5)
H193 H 0.5152 0.5002 0.4430
H194 H 0.5332 0.3800 0.4899
C113 C 0.52996(16) 0.5639(16) 0.5531(5)
H195 H 0.5370 0.5122 0.6013
H196 H 0.5168 0.6259 0.5597
C114 C 0.54866(17) 0.6655(15) 0.5348(7)
H197 H 0.5570 0.7206 0.5807
H198 H 0.5603 0.6037 0.5190
C115 C 0.5380(3) 0.7732(19) 0.4741(10)
H199 H 0.5503 0.8387 0.4656
H200 H 0.5261 0.8329 0.4891
H201 H 0.5306 0.7191 0.4276
C116 C 0.48008(14) 0.4557(14) 0.5129(5)
H202 H 0.4669 0.3920 0.5174
H203 H 0.4860 0.5097 0.5611
C117 C 0.47086(15) 0.5672(14) 0.4515(6)
H204 H 0.4630 0.5154 0.4040
H205 H 0.4840 0.6265 0.4430
C118 C 0.45354(19) 0.6682(18) 0.4747(8)
H206 H 0.4447 0.7243 0.4298
H207 H 0.4421 0.6052 0.4909
C119 C 0.46311(18) 0.7718(12) 0.5330(6)
H208 H 0.4503 0.8287 0.5443
H209 H 0.4737 0.8397 0.5168
H210 H 0.4719 0.7184 0.5782
C120 C 0.50734(16) 0.2612(13) 0.5719(5)
H211 H 0.5116 0.3275 0.6164
H212 H 0.4939 0.1995 0.5758
C121 C 0.52725(17) 0.1641(17) 0.5738(6)
H213 H 0.5412 0.2240 0.5731
H214 H 0.5235 0.0976 0.5294
C122 C 0.53226(16) 0.0713(15) 0.6472(4)
H215 H 0.5439 -0.0064 0.6443
H216 H 0.5399 0.1375 0.6897
C123 C 0.5131(4) 0.001(4) 0.6649(9)
H217 H 0.5186 -0.0514 0.7130
H218 H 0.5058 -0.0702 0.6252
H219 H 0.5014 0.0759 0.6689
N31 N 0.66665(17) -0.2200(10) 0.6212(6)
C124 C 0.65111(18) -0.1046(10) 0.6467(6)
H220 H 0.6409 -0.0573 0.6010
H221 H 0.6616 -0.0262 0.6752
C125 C 0.6349(2) -0.1572(15) 0.6960(8)
H222 H 0.6274 -0.2532 0.6771
H223 H 0.6442 -0.1706 0.7489
C126 C 0.6170(3) -0.0423(18) 0.6912(9)
H224 H 0.6105 -0.0555 0.7349
H225 H 0.6251 0.0550 0.6976
C127 C 0.5978(2) -0.0326(16) 0.6265(10)
H226 H 0.5874 0.0488 0.6326
H227 H 0.5890 -0.1263 0.6196
H228 H 0.6036 -0.0137 0.5824
C128 C 0.6812(3) -0.3079(11) 0.6896(8)
H229 H 0.6703 -0.3660 0.7105
H230 H 0.6912 -0.3797 0.6717
C129 C 0.6963(2) -0.2213(13) 0.7504(9)
H231 H 0.6867 -0.1780 0.7814
H232 H 0.7033 -0.1383 0.7287
C130 C 0.71585(14) -0.3143(10) 0.8000(5)
H233 H 0.7237 -0.3766 0.7698
H234 H 0.7277 -0.2515 0.8349
C131 C 0.7037(3) -0.398(3) 0.8375(8)
H235 H 0.7145 -0.4658 0.8718
H236 H 0.6917 -0.4557 0.8014
H237 H 0.6961 -0.3331 0.8665
C132 C 0.6505(2) -0.3275(13) 0.5667(8)
H238 H 0.6605 -0.4059 0.5539
H239 H 0.6403 -0.3763 0.5941
C133 C 0.6347(4) -0.2683(14) 0.4933(7)
H240 H 0.6445 -0.2432 0.4592
H241 H 0.6271 -0.1755 0.5037
C134 C 0.6156(5) -0.3779(15) 0.4535(9)
H242 H 0.6235 -0.4642 0.4375
H243 H 0.6077 -0.4145 0.4910
C135 C 0.5974(3) -0.326(2) 0.3882(12)
H244 H 0.5904 -0.4115 0.3571
H245 H 0.6044 -0.2585 0.3586
H246 H 0.5852 -0.2737 0.4050
C136 C 0.6831(2) -0.1294(12) 0.5887(9)
H247 H 0.6922 -0.0622 0.6287
H248 H 0.6734 -0.0660 0.5482
C137 C 0.7007(4) -0.214(2) 0.5566(11)
H249 H 0.7108 -0.2756 0.5973
H250 H 0.6918 -0.2826 0.5171
C138 C 0.7156(2) -0.1263(16) 0.5253(8)
H251 H 0.7058 -0.0818 0.4781
H252 H 0.7270 -0.1937 0.5113
C139 C 0.7297(3) 0.000(2) 0.5739(9)
H253 H 0.7393 0.0503 0.5460
H254 H 0.7398 -0.0417 0.6205
H255 H 0.7187 0.0713 0.5862
N32 N 0.83423(11) -0.0513(8) 0.8630(3)
C140 C 0.84593(15) 0.0454(11) 0.8155(4)
H256 H 0.8608 0.0851 0.8486
H257 H 0.8501 -0.0188 0.7775
C141 C 0.83176(14) 0.1727(11) 0.7756(4)
H258 H 0.8303 0.2489 0.8128
H259 H 0.8157 0.1377 0.7492
C142 C 0.84321(15) 0.2426(11) 0.7180(5)
H260 H 0.8594 0.2747 0.7442
H261 H 0.8442 0.1671 0.6800
C143 C 0.8295(2) 0.3722(14) 0.6797(7)
H262 H 0.8372 0.4138 0.6434
H263 H 0.8288 0.4481 0.7171
H264 H 0.8135 0.3404 0.6532
C144 C 0.81400(12) -0.1378(10) 0.8129(4)
H265 H 0.8195 -0.1842 0.7721
H266 H 0.8013 -0.0669 0.7892
C145 C 0.80352(14) -0.2594(11) 0.8518(4)
H267 H 0.7982 -0.2149 0.8933
H268 H 0.8158 -0.3338 0.8738
C146 C 0.78271(14) -0.3369(12) 0.7966(5)
H269 H 0.7701 -0.2635 0.7763
H270 H 0.7879 -0.3776 0.7539
C147 C 0.77323(16) -0.4603(14) 0.8344(6)
H271 H 0.7597 -0.5061 0.7983
H272 H 0.7683 -0.4202 0.8770
H273 H 0.7855 -0.5351 0.8526
C148 C 0.85272(14) -0.1509(11) 0.9117(4)
H274 H 0.8462 -0.1970 0.9504
H275 H 0.8663 -0.0891 0.9383
C149 C 0.86154(15) -0.2748(11) 0.8690(5)
H276 H 0.8481 -0.3332 0.8387
H277 H 0.8699 -0.2311 0.8345
C150 C 0.8779(2) -0.3741(14) 0.9255(5)
H278 H 0.8692 -0.4173 0.9594
H279 H 0.8909 -0.3135 0.9566
C151 C 0.8881(2) -0.4988(14) 0.8889(7)
H280 H 0.8983 -0.5608 0.9280
H281 H 0.8972 -0.4568 0.8569
H282 H 0.8752 -0.5596 0.8582
C152 C 0.82485(13) 0.0526(11) 0.9140(4)
H283 H 0.8124 0.1158 0.8817
H284 H 0.8174 -0.0090 0.9455
C153 C 0.84242(12) 0.1509(9) 0.9646(4)
H285 H 0.8515 0.2054 0.9353
H286 H 0.8535 0.0910 1.0035
C154 C 0.82918(13) 0.2616(13) 1.0021(5)
H287 H 0.8174 0.2062 1.0204
H288 H 0.8206 0.3329 0.9635
C155 C 0.8452(2) 0.3506(12) 1.0692(6)
H289 H 0.8354 0.4114 1.0928
H290 H 0.8558 0.4152 1.0507
H291 H 0.8546 0.2812 1.1064
N33 N 1.00699(12) 0.4634(8) 1.0253(4)
C156 C 0.99237(12) 0.5619(8) 1.0621(4)
H292 H 1.0031 0.6114 1.1061
H293 H 0.9850 0.6404 1.0259
C157 C 0.97348(17) 0.4845(11) 1.0877(7)
H294 H 0.9805 0.4120 1.1278
H295 H 0.9629 0.4304 1.0452
C158 C 0.9579(3) 0.618(3) 1.1218(11)
H296 H 0.9487 0.5722 1.1537
H297 H 0.9686 0.6939 1.1517
C159 C 0.9446(3) 0.673(3) 1.0645(10)
H298 H 0.9346 0.7480 1.0789
H299 H 0.9348 0.5954 1.0346
H300 H 0.9541 0.7205 1.0347
C160 C 1.02440(13) 0.5617(8) 1.0015(4)
H301 H 1.0156 0.6390 0.9670
H302 H 1.0343 0.6128 1.0466
C161 C 1.0402(2) 0.4824(12) 0.9633(6)
H303 H 1.0305 0.4322 0.9176
H304 H 1.0492 0.4050 0.9974
C162 C 1.0580(3) 0.5914(18) 0.9405(8)
H305 H 1.0698 0.6248 0.9867
H306 H 1.0664 0.5365 0.9093
C163 C 1.0477(5) 0.7106(17) 0.9024(19)
H307 H 1.0597 0.7763 0.8924
H308 H 1.0389 0.7641 0.9322
H309 H 1.0369 0.6790 0.8545
C164 C 1.01983(19) 0.3414(8) 1.0803(5)
H310 H 1.0078 0.2839 1.0966
H311 H 1.0273 0.2726 1.0520
C165 C 1.0383(2) 0.3897(13) 1.1497(7)
H312 H 1.0529 0.4134 1.1358
H313 H 1.0329 0.4818 1.1693
C166 C 1.04348(15) 0.2778(10) 1.2094(5)
H314 H 1.0592 0.2966 1.2442
H315 H 1.0435 0.1776 1.1873
C167 C 1.02521(18) 0.2855(16) 1.2514(7)
H316 H 1.0284 0.2091 1.2906
H317 H 1.0097 0.2687 1.2165
H318 H 1.0256 0.3838 1.2746
C168 C 0.99116(19) 0.3853(12) 0.9577(5)
H319 H 1.0012 0.3290 0.9322
H320 H 0.9814 0.3123 0.9759
C169 C 0.97519(17) 0.4837(11) 0.9012(5)
H321 H 0.9648 0.5388 0.9257
H322 H 0.9847 0.5571 0.8825
C170 C 0.9605(2) 0.3975(15) 0.8363(7)
H323 H 0.9474 0.4599 0.8066
H324 H 0.9537 0.3092 0.8545
C171 C 0.9774(4) 0.346(2) 0.7846(11)
H325 H 0.9684 0.2861 0.7424
H326 H 0.9906 0.2879 0.8151
H327 H 0.9835 0.4348 0.7652
H328? H 1.0480 0.3985 0.9941
H329? H 1.0302 0.4390 0.9143
C172? C 1.0382(4) 0.597(3) 0.8730(13)
H330? H 1.0470 0.5503 0.8404
H331? H 1.0217 0.6149 0.8437
H332? H 1.0604 0.7373 0.8803
H333? H 1.0541 0.6944 0.9566
H334? H 1.0361 0.7914 0.8939
loop_
_geom_bond_atom_site_label_1
_geom_bond_atom_site_label_2
_geom_bond_site_symmetry_1
_geom_bond_site_symmetry_2
S1 O1 1_555 1_555
O2 S1 1_555 1_555
O3 S1 1_555 1_555
O4 S1 1_555 1_555
S2 O5 1_555 1_555
O6 S2 1_555 1_555
O7 S2 1_555 1_555
O8 S2 1_555 1_555
S3 O9 1_555 1_555
O10 S3 1_555 1_555
O11 S3 1_555 1_555
O12 S3 1_555 1_555
O13 C3 1_555 1_555
O14 C10 1_555 1_555
O15 C15 1_555 1_555
O16 C22 1_555 1_555
C1 H1 1_555 1_555
H2 C1 1_555 1_555
H3 C1 1_555 1_555
C2 C1 1_555 1_555
H4 C2 1_555 1_555
H5 C2 1_555 1_555
N1 C2 1_555 1_555
H6 N1 1_555 1_555
C3 N1 1_555 1_555
N2 C3 1_555 1_555
H7 N2 1_555 1_555
C4 N2 1_555 1_555
C5 C4 1_555 1_555
H8 C5 1_555 1_555
C6 C5 1_555 1_555
H9 C6 1_555 1_555
C7 C6 1_555 1_555
H10 C7 1_555 1_555
C8 C7 1_555 1_555
H11 C8 1_555 1_555
C9 C4 1_555 1_555
N3 C9 1_555 1_555
H12 N3 1_555 1_555
C10 N3 1_555 1_555
N4 C10 1_555 1_555
H13 N4 1_555 1_555
C11 N4 1_555 1_555
H14 C11 1_555 1_555
H15 C11 1_555 1_555
C12 C11 1_555 1_555
H16 C12 1_555 1_555
H17 C12 1_555 1_555
N5 C12 1_555 1_555
C13 N5 1_555 1_555
H18 C13 1_555 1_555
H19 C13 1_555 1_555
C14 C13 1_555 1_555
H20 C14 1_555 1_555
H21 C14 1_555 1_555
N6 C14 1_555 1_555
H22 N6 1_555 1_555
C15 N6 1_555 1_555
N7 C15 1_555 1_555
H23 N7 1_555 1_555
C16 N7 1_555 1_555
C17 C16 1_555 1_555
H24 C17 1_555 1_555
C18 C17 1_555 1_555
H25 C18 1_555 1_555
C19 C18 1_555 1_555
H26 C19 1_555 1_555
C20 C19 1_555 1_555
H27 C20 1_555 1_555
C21 C16 1_555 1_555
N8 C21 1_555 1_555
H28 N8 1_555 1_555
C22 N8 1_555 1_555
N9 C22 1_555 1_555
H29 N9 1_555 1_555
C23 N9 1_555 1_555
H30 C23 1_555 1_555
H31 C23 1_555 1_555
C24 C23 1_555 1_555
H32 C24 1_555 1_555
H33 C24 1_555 1_555
H34 C24 1_555 1_555
C25 N5 1_555 1_555
H35 C25 1_555 1_555
H36 C25 1_555 1_555
H37 C25 1_555 1_555
O17 C28 1_555 1_555
O18 C35 1_555 1_555
O19 C40 1_555 1_555
O20 C47 1_555 1_555
C26 H38 1_555 1_555
H39 C26 1_555 1_555
H40 C26 1_555 1_555
C27 C26 1_555 1_555
H41 C27 1_555 1_555
H42 C27 1_555 1_555
N10 C27 1_555 1_555
H43 N10 1_555 1_555
C28 N10 1_555 1_555
N11 C28 1_555 1_555
H44 N11 1_555 1_555
C29 N11 1_555 1_555
C30 C29 1_555 1_555
H45 C30 1_555 1_555
C31 C30 1_555 1_555
H46 C31 1_555 1_555
C32 C31 1_555 1_555
H47 C32 1_555 1_555
C33 C32 1_555 1_555
H48 C33 1_555 1_555
C34 C29 1_555 1_555
N12 C34 1_555 1_555
H49 N12 1_555 1_555
C35 N12 1_555 1_555
N13 C35 1_555 1_555
H50 N13 1_555 1_555
C36 N13 1_555 1_555
H51 C36 1_555 1_555
H52 C36 1_555 1_555
C37 C36 1_555 1_555
H53 C37 1_555 1_555
H54 C37 1_555 1_555
N14 C37 1_555 1_555
C38 N14 1_555 1_555
H55 C38 1_555 1_555
H56 C38 1_555 1_555
C39 C38 1_555 1_555
H57 C39 1_555 1_555
H58 C39 1_555 1_555
N15 C39 1_555 1_555
H59 N15 1_555 1_555
C40 N15 1_555 1_555
N16 C40 1_555 1_555
H60 N16 1_555 1_555
C41 N16 1_555 1_555
C42 C41 1_555 1_555
H61 C42 1_555 1_555
C43 C42 1_555 1_555
H62 C43 1_555 1_555
C44 C43 1_555 1_555
H63 C44 1_555 1_555
C45 C44 1_555 1_555
H64 C45 1_555 1_555
C46 C41 1_555 1_555
N17 C46 1_555 1_555
H65 N17 1_555 1_555
C47 N17 1_555 1_555
N18 C47 1_555 1_555
H66 N18 1_555 1_555
C48 N18 1_555 1_555
H67 C48 1_555 1_555
H68 C48 1_555 1_555
C49 C48 1_555 1_555
H69 C49 1_555 1_555
H70 C49 1_555 1_555
H71 C49 1_555 1_555
C50 N14 1_555 1_555
H72 C50 1_555 1_555
H73 C50 1_555 1_555
H74 C50 1_555 1_555
O21 C53 1_555 1_555
O22 C60 1_555 1_555
O23 C65 1_555 1_555
O24 C72 1_555 1_555
C51 H75 1_555 1_555
H76 C51 1_555 1_555
H77 C51 1_555 1_555
C52 C51 1_555 1_555
H78 C52 1_555 1_555
H79 C52 1_555 1_555
N19 C52 1_555 1_555
H80 N19 1_555 1_555
C53 N19 1_555 1_555
N20 C53 1_555 1_555
H81 N20 1_555 1_555
C54 N20 1_555 1_555
C55 C54 1_555 1_555
H82 C55 1_555 1_555
C56 C55 1_555 1_555
H83 C56 1_555 1_555
C57 C56 1_555 1_555
H84 C57 1_555 1_555
C58 C57 1_555 1_555
H85 C58 1_555 1_555
C59 C54 1_555 1_555
N21 C59 1_555 1_555
H86 N21 1_555 1_555
C60 N21 1_555 1_555
N22 C60 1_555 1_555
H87 N22 1_555 1_555
C61 N22 1_555 1_555
H88 C61 1_555 1_555
H89 C61 1_555 1_555
C62 C61 1_555 1_555
H90 C62 1_555 1_555
H91 C62 1_555 1_555
N23 C62 1_555 1_555
C63 N23 1_555 1_555
H92 C63 1_555 1_555
H93 C63 1_555 1_555
C64 C63 1_555 1_555
H94 C64 1_555 1_555
H95 C64 1_555 1_555
N24 C64 1_555 1_555
H96 N24 1_555 1_555
C65 N24 1_555 1_555
N25 C65 1_555 1_555
H97 N25 1_555 1_555
C66 N25 1_555 1_555
C67 C66 1_555 1_555
H98 C67 1_555 1_555
C68 C67 1_555 1_555
H99 C68 1_555 1_555
C69 C68 1_555 1_555
H100 C69 1_555 1_555
C70 C69 1_555 1_555
H101 C70 1_555 1_555
C71 C66 1_555 1_555
N26 C71 1_555 1_555
H102 N26 1_555 1_555
C72 N26 1_555 1_555
N27 C72 1_555 1_555
H103 N27 1_555 1_555
C73 N27 1_555 1_555
H104 C73 1_555 1_555
H105 C73 1_555 1_555
C74 C73 1_555 1_555
H106 C74 1_555 1_555
H107 C74 1_555 1_555
H108 C74 1_555 1_555
C75 N23 1_555 1_555
H109 C75 1_555 1_555
H110 C75 1_555 1_555
H111 C75 1_555 1_555
N28 C76 1_555 1_555
C76 H112 1_555 1_555
H113 C76 1_555 1_555
C77 C76 1_555 1_555
H114 C77 1_555 1_555
H115 C77 1_555 1_555
C78 C77 1_555 1_555
H116 C78 1_555 1_555
H117 C78 1_555 1_555
C79 C78 1_555 1_555
H118 C79 1_555 1_555
H119 C79 1_555 1_555
H120 C79 1_555 1_555
C80 N28 1_555 1_555
H121 C80 1_555 1_555
H122 C80 1_555 1_555
C81 C80 1_555 1_555
H123 C81 1_555 1_555
H124 C81 1_555 1_555
C82 C81 1_555 1_555
H125 C82 1_555 1_555
H126 C82 1_555 1_555
C83 C82 1_555 1_555
H127 C83 1_555 1_555
H128 C83 1_555 1_555
H129 C83 1_555 1_555
C84 N28 1_555 1_555
H130 C84 1_555 1_555
H131 C84 1_555 1_555
C85 C84 1_555 1_555
H132 C85 1_555 1_555
H133 C85 1_555 1_555
C86 C85 1_555 1_555
H134 C86 1_555 1_555
H135 C86 1_555 1_555
C87 C86 1_555 1_555
H136 C87 1_555 1_555
H137 C87 1_555 1_555
H138 C87 1_555 1_555
C88 N28 1_555 1_555
H139 C88 1_555 1_555
H140 C88 1_555 1_555
C89 C88 1_555 1_555
H141 C89 1_555 1_555
H142 C89 1_555 1_555
C90 C89 1_555 1_555
H143 C90 1_555 1_555
H144 C90 1_555 1_555
C91 C90 1_555 1_555
H145 C91 1_555 1_555
H146 C91 1_555 1_555
H147 C91 1_555 1_555
N29 C92 1_555 1_555
C92 H148 1_555 1_555
H149 C92 1_555 1_555
C93 C92 1_555 1_555
H150 C93 1_555 1_555
H151 C93 1_555 1_555
C94 C93 1_555 1_555
H152 C94 1_555 1_555
H153 C94 1_555 1_555
C95 C94 1_555 1_555
H154 C95 1_555 1_555
H155 C95 1_555 1_555
H156 C95 1_555 1_555
C96 N29 1_555 1_555
H157 C96 1_555 1_555
H158 C96 1_555 1_555
C97 C96 1_555 1_555
H159 C97 1_555 1_555
H160 C97 1_555 1_555
C98 C97 1_555 1_555
H161 C98 1_555 1_555
H162 C98 1_555 1_555
C99 C98 1_555 1_555
H163 C99 1_555 1_555
H164 C99 1_555 1_555
H165 C99 1_555 1_555
C100 N29 1_555 1_555
H166 C100 1_555 1_555
H167 C100 1_555 1_555
C101 C100 1_555 1_555
H168 C101 1_555 1_555
H169 C101 1_555 1_555
C102 C101 1_555 1_555
H170 C102 1_555 1_555
H171 C102 1_555 1_555
C103 C102 1_555 1_555
H172 C103 1_555 1_555
H173 C103 1_555 1_555
H174 C103 1_555 1_555
C104 N29 1_555 1_555
H175 C104 1_555 1_555
H176 C104 1_555 1_555
C105 C104 1_555 1_555
H177 C105 1_555 1_555
H178 C105 1_555 1_555
C106 C105 1_555 1_555
H179 C106 1_555 1_555
H180 C106 1_555 1_555
C107 C106 1_555 1_555
H181 C107 1_555 1_555
H182 C107 1_555 1_555
H183 C107 1_555 1_555
N30 C108 1_555 1_555
C108 H184 1_555 1_555
H185 C108 1_555 1_555
C109 C108 1_555 1_555
H186 C109 1_555 1_555
H187 C109 1_555 1_555
C110 C109 1_555 1_555
H188 C110 1_555 1_555
H189 C110 1_555 1_555
C111 C110 1_555 1_555
H190 C111 1_555 1_555
H191 C111 1_555 1_555
H192 C111 1_555 1_555
C112 N30 1_555 1_555
H193 C112 1_555 1_555
H194 C112 1_555 1_555
C113 C112 1_555 1_555
H195 C113 1_555 1_555
H196 C113 1_555 1_555
C114 C113 1_555 1_555
H197 C114 1_555 1_555
H198 C114 1_555 1_555
C115 C114 1_555 1_555
H199 C115 1_555 1_555
H200 C115 1_555 1_555
H201 C115 1_555 1_555
C116 N30 1_555 1_555
H202 C116 1_555 1_555
H203 C116 1_555 1_555
C117 C116 1_555 1_555
H204 C117 1_555 1_555
H205 C117 1_555 1_555
C118 C117 1_555 1_555
H206 C118 1_555 1_555
H207 C118 1_555 1_555
C119 C118 1_555 1_555
H208 C119 1_555 1_555
H209 C119 1_555 1_555
H210 C119 1_555 1_555
C120 N30 1_555 1_555
H211 C120 1_555 1_555
H212 C120 1_555 1_555
C121 C120 1_555 1_555
H213 C121 1_555 1_555
H214 C121 1_555 1_555
C122 C121 1_555 1_555
H215 C122 1_555 1_555
H216 C122 1_555 1_555
C123 C122 1_555 1_555
H217 C123 1_555 1_555
H218 C123 1_555 1_555
H219 C123 1_555 1_555
N31 C124 1_555 1_555
C124 H220 1_555 1_555
H221 C124 1_555 1_555
C125 C124 1_555 1_555
H222 C125 1_555 1_555
H223 C125 1_555 1_555
C126 C125 1_555 1_555
H224 C126 1_555 1_555
H225 C126 1_555 1_555
C127 C126 1_555 1_555
H226 C127 1_555 1_555
H227 C127 1_555 1_555
H228 C127 1_555 1_555
C128 N31 1_555 1_555
H229 C128 1_555 1_555
H230 C128 1_555 1_555
C129 C128 1_555 1_555
H231 C129 1_555 1_555
H232 C129 1_555 1_555
C130 C129 1_555 1_555
H233 C130 1_555 1_555
H234 C130 1_555 1_555
C131 C130 1_555 1_555
H235 C131 1_555 1_555
H236 C131 1_555 1_555
H237 C131 1_555 1_555
C132 N31 1_555 1_555
H238 C132 1_555 1_555
H239 C132 1_555 1_555
C133 C132 1_555 1_555
H240 C133 1_555 1_555
H241 C133 1_555 1_555
C134 C133 1_555 1_555
H242 C134 1_555 1_555
H243 C134 1_555 1_555
C135 C134 1_555 1_555
H244 C135 1_555 1_555
H245 C135 1_555 1_555
H246 C135 1_555 1_555
C136 N31 1_555 1_555
H247 C136 1_555 1_555
H248 C136 1_555 1_555
C137 C136 1_555 1_555
H249 C137 1_555 1_555
H250 C137 1_555 1_555
C138 C137 1_555 1_555
H251 C138 1_555 1_555
H252 C138 1_555 1_555
C139 C138 1_555 1_555
H253 C139 1_555 1_555
H254 C139 1_555 1_555
H255 C139 1_555 1_555
N32 C140 1_555 1_555
C140 H256 1_555 1_555
H257 C140 1_555 1_555
C141 C140 1_555 1_555
H258 C141 1_555 1_555
H259 C141 1_555 1_555
C142 C141 1_555 1_555
H260 C142 1_555 1_555
H261 C142 1_555 1_555
C143 C142 1_555 1_555
H262 C143 1_555 1_555
H263 C143 1_555 1_555
H264 C143 1_555 1_555
C144 N32 1_555 1_555
H265 C144 1_555 1_555
H266 C144 1_555 1_555
C145 C144 1_555 1_555
H267 C145 1_555 1_555
H268 C145 1_555 1_555
C146 C145 1_555 1_555
H269 C146 1_555 1_555
H270 C146 1_555 1_555
C147 C146 1_555 1_555
H271 C147 1_555 1_555
H272 C147 1_555 1_555
H273 C147 1_555 1_555
C148 N32 1_555 1_555
H274 C148 1_555 1_555
H275 C148 1_555 1_555
C149 C148 1_555 1_555
H276 C149 1_555 1_555
H277 C149 1_555 1_555
C150 C149 1_555 1_555
H278 C150 1_555 1_555
H279 C150 1_555 1_555
C151 C150 1_555 1_555
H280 C151 1_555 1_555
H281 C151 1_555 1_555
H282 C151 1_555 1_555
C152 N32 1_555 1_555
H283 C152 1_555 1_555
H284 C152 1_555 1_555
C153 C152 1_555 1_555
H285 C153 1_555 1_555
H286 C153 1_555 1_555
C154 C153 1_555 1_555
H287 C154 1_555 1_555
H288 C154 1_555 1_555
C155 C154 1_555 1_555
H289 C155 1_555 1_555
H290 C155 1_555 1_555
H291 C155 1_555 1_555
N33 C156 1_555 1_555
C156 H292 1_555 1_555
H293 C156 1_555 1_555
C157 C156 1_555 1_555
H294 C157 1_555 1_555
H295 C157 1_555 1_555
C158 C157 1_555 1_555
H296 C158 1_555 1_555
H297 C158 1_555 1_555
C159 C158 1_555 1_555
H298 C159 1_555 1_555
H299 C159 1_555 1_555
H300 C159 1_555 1_555
C160 N33 1_555 1_555
H301 C160 1_555 1_555
H302 C160 1_555 1_555
C161 C160 1_555 1_555
H303 C161 1_555 1_555
H304 C161 1_555 1_555
C162 C161 1_555 1_555
H305 C162 1_555 1_555
H306 C162 1_555 1_555
C163 C162 1_555 1_555
H307 C163 1_555 1_555
H308 C163 1_555 1_555
H309 C163 1_555 1_555
C164 N33 1_555 1_555
H310 C164 1_555 1_555
H311 C164 1_555 1_555
C165 C164 1_555 1_555
H312 C165 1_555 1_555
H313 C165 1_555 1_555
C166 C165 1_555 1_555
H314 C166 1_555 1_555
H315 C166 1_555 1_555
C167 C166 1_555 1_555
H316 C167 1_555 1_555
H317 C167 1_555 1_555
H318 C167 1_555 1_555
C168 N33 1_555 1_555
H319 C168 1_555 1_555
H320 C168 1_555 1_555
C169 C168 1_555 1_555
H321 C169 1_555 1_555
H322 C169 1_555 1_555
C170 C169 1_555 1_555
H323 C170 1_555 1_555
H324 C170 1_555 1_555
C171 C170 1_555 1_555
H325 C171 1_555 1_555
H326 C171 1_555 1_555
H327 C171 1_555 1_555
C8 C9 1_555 1_555
C20 C21 1_555 1_555
C33 C34 1_555 1_555
C45 C46 1_555 1_555
C58 C59 1_555 1_555
C70 C71 1_555 1_555

#END
