
#######################################################################
#
#                 Cambridge Crystallographic Data Centre
#                                CCDC 
#
#######################################################################
#
# If this CIF has been generated from an entry in the Cambridge 
# Structural Database, then it will include bibliographic, chemical, 
# crystal, experimental, refinement or atomic coordinate data resulting 
# from the CCDC's data processing and validation procedures.
#
#######################################################################

data_TUKGIP
_chemical_formula_moiety         'C21 H24'
_chemical_name_systematic        4-t-Butyl-1,5,8-trimethylphenanthrene
_symmetry_cell_setting           triclinic
_symmetry_space_group_name_H-M   'P -1'
_symmetry_Int_Tables_number      2
_space_group_name_Hall           '-P 1'
loop_
_symmetry_equiv_pos_site_id
_symmetry_equiv_pos_as_xyz
1 x,y,z
2 -x,-y,-z
_cell_length_a                   11.245(2)
_cell_length_b                   11.422(3)
_cell_length_c                   13.873(3)
_cell_angle_alpha                69.36(2)
_cell_angle_beta                 83.28(2)
_cell_angle_gamma                77.67(2)
_cell_volume                     1627.32
_exptl_crystal_colour            colorless
_chemical_melting_point          83deg.C
_cell_formula_units_Z            4
loop_
_atom_site_label
_atom_site_type_symbol
_atom_site_fract_x
_atom_site_fract_y
_atom_site_fract_z
C1 C 0.3562(2) 0.5247(2) 0.0520(2)
C2 C 0.3927(2) 0.5375(2) 0.1377(2)
C3 C 0.3947(2) 0.4393(2) 0.2320(2)
C4 C 0.3727(2) 0.3203(2) 0.2434(2)
C5 C 0.3651(2) 0.2959(2) 0.1499(2)
C6 C 0.3810(2) 0.1700(2) 0.1393(2)
C7 C 0.4657(2) 0.0625(2) 0.1949(2)
C8 C 0.4643(2) -0.0532(2) 0.1848(2)
C9 C 0.3877(2) -0.0668(2) 0.1203(2)
C10 C 0.3172(2) 0.0367(2) 0.0552(2)
C11 C 0.3192(2) 0.1583(2) 0.0599(2)
C12 C 0.2708(2) 0.2718(2) -0.0204(2)
C13 C 0.2904(2) 0.3860(2) -0.0256(2)
C14 C 0.3396(2) 0.4031(2) 0.0582(2)
C15 C 0.3344(2) 0.6392(2) -0.0452(2)
C16 C 0.3337(2) 0.2411(2) 0.3548(2)
C17 C 0.2900(3) 0.1189(2) 0.3669(2)
C18 C 0.4323(3) 0.2127(3) 0.4324(2)
C19 C 0.2206(2) 0.3251(2) 0.3872(2)
C20 C 0.5665(2) 0.0716(2) 0.2528(2)
C21 C 0.2436(2) 0.0213(2) -0.0224(2)
H1 H 0.4165(2) 0.6126(2) 0.1329(2)
H2 H 0.4115(2) 0.4543(2) 0.2902(2)
H3 H 0.5172(2) -0.1249(2) 0.2230(2)
H4 H 0.3842(2) -0.1478(2) 0.1212(2)
H5 H 0.2251(2) 0.2666(2) -0.0699(2)
H6 H 0.2716(2) 0.4556(2) -0.0851(2)
H7 H 0.2488(3) 0.6627(10) -0.0575(7)
H8 H 0.3783(12) 0.6186(5) -0.1025(3)
H9 H 0.3621(14) 0.7091(5) -0.0373(5)
H10 H 0.2516(15) 0.0877(9) 0.4342(5)
H11 H 0.3583(3) 0.0560(6) 0.3586(13)
H12 H 0.2325(12) 0.1360(4) 0.3154(9)
H13 H 0.4534(12) 0.2911(3) 0.4293(10)
H14 H 0.5032(6) 0.1587(14) 0.4154(8)
H15 H 0.4016(6) 0.1708(15) 0.5007(2)
H16 H 0.2412(5) 0.4041(7) 0.3833(12)
H17 H 0.1942(9) 0.2816(7) 0.4566(5)
H18 H 0.1561(5) 0.3419(13) 0.3418(8)
H19 H 0.5560(8) 0.0242(12) 0.3247(2)
H20 H 0.5642(9) 0.1592(2) 0.2442(10)
H21 H 0.6436(2) 0.0373(13) 0.2263(8)
H22 H 0.2757(9) 0.0609(14) -0.0908(2)
H23 H 0.1602(4) 0.0609(14) -0.0156(9)
H24 H 0.2481(12) -0.0676(2) -0.0101(8)
C22 C 0.9224(2) 0.2026(2) 0.2251(2)
C23 C 0.8503(2) 0.1345(2) 0.3007(2)
C24 C 0.8090(2) 0.1698(2) 0.3865(2)
C25 C 0.8273(2) 0.2809(2) 0.3965(2)
C26 C 0.8746(2) 0.3690(2) 0.3066(2)
C27 C 0.8672(2) 0.5045(2) 0.2885(2)
C28 C 0.7654(2) 0.5820(2) 0.3201(2)
C29 C 0.7750(2) 0.7042(2) 0.3101(2)
C30 C 0.8784(2) 0.7545(2) 0.2664(2)
C31 C 0.9710(2) 0.6896(2) 0.2201(2)
C32 C 0.9620(2) 0.5654(2) 0.2256(2)
C33 C 1.0388(2) 0.5030(2) 0.1620(2)
C34 C 1.0184(2) 0.3935(2) 0.1569(2)
C35 C 0.9360(2) 0.3218(2) 0.2278(2)
C36 C 0.9852(3) 0.1502(2) 0.1427(2)
C37 C 0.8251(2) 0.2792(2) 0.5095(2)
C38 C 0.8669(3) 0.3912(2) 0.5232(2)
C39 C 0.9201(3) 0.1604(2) 0.5645(2)
C40 C 0.7009(3) 0.2622(3) 0.5670(2)
C41 C 0.6435(2) 0.5424(2) 0.3527(2)
C42 C 1.0763(3) 0.7509(2) 0.1640(2)
H25 H 0.8285(2) 0.0634(2) 0.2947(2)
H26 H 0.7671(2) 0.1162(2) 0.4398(2)
H27 H 0.7101(2) 0.7545(2) 0.3333(2)
H28 H 0.8854(2) 0.8333(2) 0.2685(2)
H29 H 1.1038(2) 0.5385(2) 0.1236(2)
H30 H 1.0592(2) 0.3636(2) 0.1054(2)
H31 H 1.0698(4) 0.1180(6) 0.1570(8)
H32 H 0.9782(14) 0.2166(5) 0.0767(3)
H33 H 0.9477(11) 0.0825(12) 0.1420(10)
H34 H 0.8805(15) 0.3720(7) 0.5946(3)
H35 H 0.8053(7) 0.4662(4) 0.5005(12)
H36 H 0.9413(8) 0.4055(10) 0.4830(10)
H37 H 0.8954(8) 0.0852(3) 0.5641(11)
H38 H 0.9254(11) 0.1556(9) 0.6344(4)
H39 H 0.9982(4) 0.1670(8) 0.5289(8)
H40 H 0.6748(8) 0.1921(12) 0.5579(12)
H41 H 0.6420(5) 0.3385(7) 0.5397(10)
H42 H 0.7083(5) 0.2452(18) 0.6391(3)
H43 H 0.6489(4) 0.4574(6) 0.3525(12)
H44 H 0.5837(4) 0.5996(9) 0.3055(7)
H45 H 0.6201(7) 0.5448(14) 0.4208(5)
H46 H 1.0727(9) 0.7684(15) 0.0914(2)
H47 H 1.1514(3) 0.6945(7) 0.1882(9)
H48 H 1.0722(9) 0.8291(8) 0.1768(11)
loop_
_geom_bond_atom_site_label_1
_geom_bond_atom_site_label_2
_geom_bond_site_symmetry_1
_geom_bond_site_symmetry_2
C1 C2 1_555 1_555
C2 C3 1_555 1_555
C3 C4 1_555 1_555
C4 C5 1_555 1_555
C5 C6 1_555 1_555
C6 C7 1_555 1_555
C7 C8 1_555 1_555
C8 C9 1_555 1_555
C9 C10 1_555 1_555
C10 C11 1_555 1_555
C11 C6 1_555 1_555
C12 C11 1_555 1_555
C13 C12 1_555 1_555
C14 C1 1_555 1_555
C15 C1 1_555 1_555
C16 C4 1_555 1_555
C17 C16 1_555 1_555
C18 C16 1_555 1_555
C19 C16 1_555 1_555
C20 C7 1_555 1_555
C21 C10 1_555 1_555
C22 C23 1_555 1_555
C23 C24 1_555 1_555
C24 C25 1_555 1_555
C25 C26 1_555 1_555
C26 C27 1_555 1_555
C27 C28 1_555 1_555
C28 C29 1_555 1_555
C29 C30 1_555 1_555
C30 C31 1_555 1_555
C31 C32 1_555 1_555
C32 C27 1_555 1_555
C33 C32 1_555 1_555
C34 C33 1_555 1_555
C35 C22 1_555 1_555
C36 C22 1_555 1_555
C37 C25 1_555 1_555
C38 C37 1_555 1_555
C39 C37 1_555 1_555
C40 C37 1_555 1_555
C41 C28 1_555 1_555
C42 C31 1_555 1_555
H1 C2 1_555 1_555
H2 C3 1_555 1_555
H3 C8 1_555 1_555
H4 C9 1_555 1_555
H5 C12 1_555 1_555
H6 C13 1_555 1_555
H7 C15 1_555 1_555
H8 C15 1_555 1_555
H9 C15 1_555 1_555
H10 C17 1_555 1_555
H11 C17 1_555 1_555
H12 C17 1_555 1_555
H13 C18 1_555 1_555
H14 C18 1_555 1_555
H15 C18 1_555 1_555
H16 C19 1_555 1_555
H17 C19 1_555 1_555
H18 C19 1_555 1_555
H19 C20 1_555 1_555
H20 C20 1_555 1_555
H21 C20 1_555 1_555
H22 C21 1_555 1_555
H23 C21 1_555 1_555
H24 C21 1_555 1_555
H25 C23 1_555 1_555
H26 C24 1_555 1_555
H27 C29 1_555 1_555
H28 C30 1_555 1_555
H29 C33 1_555 1_555
H30 C34 1_555 1_555
H31 C36 1_555 1_555
H32 C36 1_555 1_555
H33 C36 1_555 1_555
H34 C38 1_555 1_555
H35 C38 1_555 1_555
H36 C38 1_555 1_555
H37 C39 1_555 1_555
H38 C39 1_555 1_555
H39 C39 1_555 1_555
H40 C40 1_555 1_555
H41 C40 1_555 1_555
H42 C40 1_555 1_555
H43 C41 1_555 1_555
H44 C41 1_555 1_555
H45 C41 1_555 1_555
H46 C42 1_555 1_555
H47 C42 1_555 1_555
H48 C42 1_555 1_555
C5 C14 1_555 1_555
C13 C14 1_555 1_555
C26 C35 1_555 1_555
C34 C35 1_555 1_555

#END
