
#######################################################################
#
#                 Cambridge Crystallographic Data Centre
#                                CCDC 
#
#######################################################################
#
# If this CIF has been generated from an entry in the Cambridge 
# Structural Database, then it will include bibliographic, chemical, 
# crystal, experimental, refinement or atomic coordinate data resulting 
# from the CCDC's data processing and validation procedures.
#
#######################################################################

data_TUKSID
_chemical_formula_moiety         'C31 H24 Cl1 N1 O4 S1'
_chemical_name_systematic        
4-(2-(2-chlorophenyl)-2-oxoethyl)-1-((4-methylphenyl)sulfonyl)-2-phenyl-1,4-dihydroquinoline-3-carbaldehyde
_symmetry_cell_setting           orthorhombic
_symmetry_space_group_name_H-M   'P b c a'
_symmetry_Int_Tables_number      61
_space_group_name_Hall           '-P 2ac 2ab'
loop_
_symmetry_equiv_pos_site_id
_symmetry_equiv_pos_as_xyz
1 x,y,z
2 1/2+x,1/2-y,-z
3 -x,1/2+y,1/2-z
4 1/2-x,-y,1/2+z
5 -x,-y,-z
6 1/2-x,1/2+y,z
7 x,1/2-y,1/2+z
8 1/2+x,y,1/2-z
_cell_length_a                   11.3899(4)
_cell_length_b                   17.7234(6)
_cell_length_c                   25.1051(11)
_cell_angle_alpha                90
_cell_angle_beta                 90
_cell_angle_gamma                90
_cell_volume                     5067.91
_exptl_crystal_colour            colorless
_exptl_crystal_description       Block
_cell_formula_units_Z            8
loop_
_atom_site_label
_atom_site_type_symbol
_atom_site_fract_x
_atom_site_fract_y
_atom_site_fract_z
N1 N 0.36784(16) 0.91072(10) 0.58225(7)
C1 C 0.29695(19) 0.97803(13) 0.57906(8)
C2 C 0.1805(2) 0.97370(14) 0.56196(9)
H1 H 0.1466 0.9261 0.5539
C3 C 0.1144(2) 1.03890(15) 0.55678(10)
H2 H 0.0347 1.0358 0.5458
C4 C 0.1639(2) 1.10835(15) 0.56752(10)
H3 H 0.1180 1.1529 0.5645
C5 C 0.2809(2) 1.11297(14) 0.58283(9)
H4 H 0.3149 1.1610 0.5894
C6 C 0.34904(19) 1.04827(13) 0.58862(8)
C7 C 0.47964(19) 1.05362(13) 0.60033(8)
H5 H 0.5097 1.0997 0.5818
C8 C 0.54198(19) 0.98647(13) 0.57640(8)
C9 C 0.49042(19) 0.91825(12) 0.57131(8)
S1 S 0.32450(5) 0.84196(3) 0.62514(2)
O1 O 0.19959(16) 0.83918(11) 0.62160(7)
O2 O 0.39272(17) 0.77631(10) 0.61359(7)
C10 C 0.36124(19) 0.87208(12) 0.68976(9)
C11 C 0.2841(2) 0.91856(15) 0.71737(10)
H6 H 0.2166 0.9385 0.7002
C12 C 0.3067(2) 0.93553(16) 0.77013(10)
H7 H 0.2549 0.9681 0.7889
C13 C 0.4043(2) 0.90567(15) 0.79625(10)
C14 C 0.4812(2) 0.86015(15) 0.76760(10)
H8 H 0.5490 0.8405 0.7847
C15 C 0.4609(2) 0.84307(14) 0.71467(10)
H9 H 0.5142 0.8120 0.6955
C16 C 0.4257(3) 0.9209(2) 0.85439(11)
H10 H 0.4273 0.8730 0.8739
H11 H 0.3625 0.9527 0.8684
H12 H 0.5011 0.9468 0.8587
C17 C 0.5094(2) 1.06220(13) 0.65996(9)
H13 H 0.4625 1.0258 0.6810
H14 H 0.5935 1.0507 0.6657
C18 C 0.48325(19) 1.14237(13) 0.67906(9)
O3 O 0.50340(17) 1.19588(10) 0.65096(7)
C19 C 0.4241(2) 1.15327(12) 0.73186(9)
C20 C 0.3243(2) 1.19945(15) 0.73242(11)
H15 H 0.2997 1.2236 0.7005
C21 C 0.2610(2) 1.21030(17) 0.77880(12)
H16 H 0.1931 1.2415 0.7786
C22 C 0.2966(3) 1.17585(18) 0.82533(12)
H17 H 0.2515 1.1821 0.8569
C23 C 0.3974(3) 1.13224(17) 0.82641(10)
H18 H 0.4236 1.1104 0.8589
C24 C 0.4595(2) 1.12087(14) 0.77983(9)
Cl1 Cl 0.58855(6) 1.06855(4) 0.78281(3)
C25 C 0.6607(2) 1.00123(15) 0.55543(9)
H19 H 0.6979 0.9634 0.5346
O4 O 0.71280(17) 1.05975(12) 0.56372(9)
C26 C 0.55212(19) 0.85071(13) 0.55072(9)
C27 C 0.5038(2) 0.80883(13) 0.50889(9)
H20 H 0.4299 0.8227 0.4943
C28 C 0.5638(2) 0.74721(15) 0.48870(10)
H21 H 0.5313 0.7192 0.4600
C29 C 0.6711(2) 0.72625(15) 0.51004(11)
H22 H 0.7115 0.6837 0.4962
C30 C 0.7195(2) 0.76711(16) 0.55151(10)
H23 H 0.7935 0.7530 0.5658
C31 C 0.6598(2) 0.82877(15) 0.57229(9)
H24 H 0.6924 0.8561 0.6013
loop_
_geom_bond_atom_site_label_1
_geom_bond_atom_site_label_2
_geom_bond_site_symmetry_1
_geom_bond_site_symmetry_2
N1 C1 1_555 1_555
C1 C2 1_555 1_555
C2 H1 1_555 1_555
C3 C2 1_555 1_555
H2 C3 1_555 1_555
C4 C3 1_555 1_555
H3 C4 1_555 1_555
C5 C4 1_555 1_555
H4 C5 1_555 1_555
C6 C1 1_555 1_555
C7 C6 1_555 1_555
H5 C7 1_555 1_555
C8 C7 1_555 1_555
C9 N1 1_555 1_555
S1 N1 1_555 1_555
O1 S1 1_555 1_555
O2 S1 1_555 1_555
C10 S1 1_555 1_555
C11 C10 1_555 1_555
H6 C11 1_555 1_555
C12 C11 1_555 1_555
H7 C12 1_555 1_555
C13 C12 1_555 1_555
C14 C13 1_555 1_555
H8 C14 1_555 1_555
C15 C10 1_555 1_555
H9 C15 1_555 1_555
C16 C13 1_555 1_555
H10 C16 1_555 1_555
H11 C16 1_555 1_555
H12 C16 1_555 1_555
C17 C7 1_555 1_555
H13 C17 1_555 1_555
H14 C17 1_555 1_555
C18 C17 1_555 1_555
O3 C18 1_555 1_555
C19 C18 1_555 1_555
C20 C19 1_555 1_555
H15 C20 1_555 1_555
C21 C20 1_555 1_555
H16 C21 1_555 1_555
C22 C21 1_555 1_555
H17 C22 1_555 1_555
C23 C22 1_555 1_555
H18 C23 1_555 1_555
C24 C19 1_555 1_555
Cl1 C24 1_555 1_555
C25 C8 1_555 1_555
H19 C25 1_555 1_555
O4 C25 1_555 1_555
C26 C9 1_555 1_555
C27 C26 1_555 1_555
H20 C27 1_555 1_555
C28 C27 1_555 1_555
H21 C28 1_555 1_555
C29 C28 1_555 1_555
H22 C29 1_555 1_555
C30 C29 1_555 1_555
H23 C30 1_555 1_555
C31 C26 1_555 1_555
H24 C31 1_555 1_555
C5 C6 1_555 1_555
C8 C9 1_555 1_555
C14 C15 1_555 1_555
C23 C24 1_555 1_555
C30 C31 1_555 1_555

#END
