
#######################################################################
#
#                 Cambridge Crystallographic Data Centre
#                                CCDC 
#
#######################################################################
#
# If this CIF has been generated from an entry in the Cambridge 
# Structural Database, then it will include bibliographic, chemical, 
# crystal, experimental, refinement or atomic coordinate data resulting 
# from the CCDC's data processing and validation procedures.
#
#######################################################################

data_TUKTOJ
_chemical_formula_moiety         'Br1 1-,C20 H44 N1 1+,38.2(H2 O1)'
_chemical_name_systematic        
'Tetra-iso-amylammonium bromide semi-clathrate hydrate'
_symmetry_cell_setting           orthorhombic
_symmetry_space_group_name_H-M   'P m m a'
_symmetry_Int_Tables_number      51
_space_group_name_Hall           '-P 2a 2a'
loop_
_symmetry_equiv_pos_site_id
_symmetry_equiv_pos_as_xyz
1 x,y,z
2 1/2-x,-y,z
3 -x,y,-z
4 1/2+x,-y,-z
5 -x,-y,-z
6 1/2+x,y,-z
7 x,-y,z
8 1/2-x,y,z
_cell_length_a                   21.370(4)
_cell_length_b                   12.766(3)
_cell_length_c                   11.866(2)
_cell_angle_alpha                90
_cell_angle_beta                 90
_cell_angle_gamma                90
_cell_volume                     3237.16
_exptl_crystal_colour            colorless
_exptl_crystal_description       prism
_chemical_melting_point          '303.3 K'
_cell_formula_units_Z            2
loop_
_atom_site_label
_atom_site_type_symbol
_atom_site_fract_x
_atom_site_fract_y
_atom_site_fract_z
N1 N 0.2500 0.0000 -0.0050(12)
C1 C 0.1959(2) -0.0382(4) -0.0781(4)
C2 C 0.1706(2) 0.0384(4) -0.1637(4)
C3 C 0.10499(19) 0.0000 -0.2056(3)
C4 C 0.1070(4) -0.1000(6) -0.2677(7)
C5 C 0.0788(3) 0.0876(5) -0.2836(6)
C6 C 0.2274(2) 0.0902(4) 0.0662(4)
C7 C 0.2726(2) 0.1289(4) 0.1550(4)
C8 C 0.2500 0.2334(3) 0.2061(3)
C9 C 0.1869(2) 0.2236(5) 0.2640(5)
C10 C 0.2991(3) 0.2714(6) 0.2904(5)
C1F C 0.1959(2) 0.0382(4) -0.0781(4)
C1A C 0.3041(2) 0.0382(4) -0.0781(4)
C1G C 0.3041(2) -0.0382(4) -0.0781(4)
C2G C 0.3294(2) 0.0384(4) -0.1637(4)
C2A C 0.3294(2) -0.0384(4) -0.1637(4)
C2F C 0.1706(2) -0.0384(4) -0.1637(4)
C3A C 0.39501(19) 0.0000 -0.2056(3)
C4G C 0.3930(4) -0.1000(6) -0.2677(7)
C4A C 0.3930(4) 0.1000(6) -0.2677(7)
C4F C 0.1070(4) 0.1000(6) -0.2677(7)
C5A C 0.4212(3) -0.0876(5) -0.2836(6)
C5G C 0.4212(3) 0.0876(5) -0.2836(6)
C5F C 0.0788(3) -0.0876(5) -0.2836(6)
C6G C 0.2726(2) 0.0902(4) 0.0662(4)
C6A C 0.2726(2) -0.0902(4) 0.0662(4)
C6F C 0.2274(2) -0.0902(4) 0.0662(4)
C7F C 0.2726(2) -0.1289(4) 0.1550(4)
C7A C 0.2274(2) -0.1289(4) 0.1550(4)
C7G C 0.2274(2) 0.1289(4) 0.1550(4)
C8A C 0.2500 -0.2334(3) 0.2061(3)
C9F C 0.1869(2) -0.2236(5) 0.2640(5)
C9A C 0.3131(2) -0.2236(5) 0.2640(5)
C9G C 0.3131(2) 0.2236(5) 0.2640(5)
C10A C 0.2009(3) -0.2714(6) 0.2904(5)
C10F C 0.2991(3) -0.2714(6) 0.2904(5)
C10G C 0.2009(3) 0.2714(6) 0.2904(5)
O1 O 0.08384(7) 0.39290(13) 0.75245(14)
H45 H 0.1023(10) 0.3717(18) 0.8117(11)
H46 H 0.1037(10) 0.3716(18) 0.6948(11)
O2 O 0.03649(7) 0.32166(13) 0.25209(14)
H49 H 0.0576(9) 0.3781(10) 0.253(2)
H52 H -0.0023(2) 0.3361(17) 0.250(2)
O3 O 0.14094(7) 0.32315(13) 0.55949(14)
H54 H 0.1163(10) 0.2843(16) 0.522(2)
H55 H 0.1495(11) 0.3777(14) 0.522(2)
O4 O 0.05601(7) 0.19857(13) 0.44111(14)
H59 H 0.0236(8) 0.1938(19) 0.4824(19)
H60 H 0.0848(9) 0.2301(18) 0.477(2)
O5 O 0.14048(7) 0.32684(14) 0.94785(14)
H61 H 0.1738(6) 0.2976(16) 0.925(2)
H62 H 0.1187(11) 0.2828(15) 0.984(2)
O6 O 0.05497(8) 0.19953(13) 0.06177(14)
H65 H 0.0660(11) 0.1380(8) 0.081(2)
H66 H 0.0846(8) 0.2289(19) 0.026(2)
O7 O 0.18389(11) 0.5000 0.4501(2)
H71 H 0.1669(15) 0.5000 0.3853(13)
O8 O 0.11137(11) 0.5000 0.2574(2)
H73 H 0.1323(13) 0.5000 0.3182(14)
H74 H 0.1362(12) 0.5000 0.2015(17)
O9 O 0.18391(11) 0.5000 0.0656(2)
H75 H 0.1723(8) 0.44564(4) 0.0299(9)
H75F H 0.1723(8) 0.55436(4) 0.0299(9)
O10 O 0.10284(11) 0.0000 0.3829(3)
H78 H 0.1417(5) 0.0000 0.398(4)
O11 O 0.07957(15) 0.0000 0.1469(3)
H81 H 0.086(2) 0.0000 0.2177(7)
O12 O 0.2500 0.22397(19) 0.6181(3)
H83 H 0.2171(6) 0.2579(11) 0.601(6)
H83G H 0.2829(6) 0.2579(11) 0.601(6)
O13 O 0.2500 0.2789(3) 0.8422(3)
H85 H 0.21558(9) 0.288(6) 0.877(2)
H85G H 0.28442(9) 0.288(6) 0.877(2)
O18 O 0.2500 0.5000 0.710(4)
Br1 Br 0.2500 0.0000 0.48654(5)
H1? H 0.2099 -0.1018 -0.1187
H2? H 0.1612 -0.0592 -0.0278
H3? H 0.1997 0.0436 -0.2283
H4? H 0.1666 0.1086 -0.1291
H5? H 0.0766 -0.0079 -0.1391
H6? H 0.1226 -0.1554 -0.2180
H7? H 0.1348 -0.0930 -0.3329
H8? H 0.0648 -0.1180 -0.2935
H9? H 0.0783 0.1543 -0.2428
H10? H 0.0361 0.0696 -0.3068
H11? H 0.1054 0.0941 -0.3505
H12? H 0.1882 0.0687 0.1042
H13? H 0.2171 0.1494 0.0156
H14? H 0.3144 0.1388 0.1207
H15? H 0.2765 0.0758 0.2154
H16? H 0.2464 0.2863 0.1442
H17? H 0.1557 0.1987 0.2098
H18? H 0.1742 0.2922 0.2933
H19? H 0.1902 0.1737 0.3265
H20? H 0.3397 0.2773 0.2526
H21? H 0.3023 0.2212 0.3526
H22? H 0.2868 0.3400 0.3200
Br2? Br 0.2500 0.0000 0.0092(10)
N2? N 0.2500 0.0000 0.508(2)
C11? C 0.2709(15) -0.089(3) 0.434(3)
H23? H 0.2806 -0.1494 0.4835
H24? H 0.3106 -0.0679 0.3975
C12? C 0.2277(14) -0.128(3) 0.343(3)
H25? H 0.2264 -0.0760 0.2804
H26? H 0.1848 -0.1349 0.3731
C13? C 0.2500 -0.235(2) 0.297(3)
H27? H 0.2605 -0.2768 0.3650
C14? C 0.1989(15) -0.295(3) 0.239(4)
H28? H 0.1615 -0.2955 0.2867
H29? H 0.2128 -0.3675 0.2264
H30? H 0.1891 -0.2624 0.1665
C15? C 0.3084(15) -0.235(4) 0.227(4)
H31? H 0.3429 -0.2052 0.2708
H32? H 0.3018 -0.1938 0.1587
H33? H 0.3188 -0.3076 0.2063
C16? C 0.3042(14) 0.039(2) 0.579(3)
H34? H 0.3393 0.0562 0.5272
H35? H 0.2912 0.1056 0.6151
C17? C 0.3282(13) -0.033(2) 0.668(3)
H36? H 0.3310 -0.1048 0.6372
H37? H 0.2981 -0.0342 0.7316
C18? C 0.3931(12) 0.0000 0.713(2)
H38? H 0.4208 0.0015 0.6451
C19? C 0.4204(19) -0.084(2) 0.788(3)
H39? H 0.4161 -0.1525 0.7518
H40? H 0.3979 -0.0848 0.8604
H41? H 0.4647 -0.0693 0.8020
C20? C 0.4005(16) 0.1051(15) 0.766(3)
H42? H 0.3834 0.1589 0.7159
H43? H 0.4450 0.1189 0.7795
H44? H 0.3779 0.1065 0.8381
H47? H 0.0826(12) 0.45944(17) 0.752(2)
H48? H 0.0468(5) 0.369(2) 0.751(2)
H50? H 0.0446(11) 0.2860(17) 0.3108(13)
H51? H 0.0461(12) 0.2864(17) 0.1939(14)
H53? H 0.1745(6) 0.2898(16) 0.574(2)
H56? H 0.1235(11) 0.341(2) 0.6210(11)
H57? H 0.0684(11) 0.1375(8) 0.423(2)
H58? H 0.0472(12) 0.2328(18) 0.3818(12)
H63? H 0.1498(11) 0.3780(17) 0.990(2)
H64? H 0.1196(11) 0.349(2) 0.8917(14)
H67? H 0.0227(9) 0.1963(19) 0.020(2)
H68? H 0.0466(15) 0.2349(18) 0.1206(13)
H69? H 0.1726(8) 0.44564(4) 0.4861(9)
H70? H 0.2235(2) 0.5000 0.443(3)
H72? H 0.08844(12) 0.44564(4) 0.2549(15)
H76? H 0.22353(19) 0.5000 0.072(3)
H77? H 0.1675(15) 0.5000 0.1308(12)
H79? H 0.0847(12) 0.0552(9) 0.406(5)
H80? H 0.068(2) 0.0570(4) 0.117(2)
H82? H 0.2500 0.1631(14) 0.589(3)
H84? H 0.2500 0.253(4) 0.7762(17)
O14? O 0.1058(11) 0.0000 0.115(2)
O15? O 0.0795(12) 0.0000 0.345(2)
O16? O 0.2500 0.2329(19) 0.879(2)
O17? O 0.2500 0.2667(19) 0.656(2)
loop_
_geom_bond_atom_site_label_1
_geom_bond_atom_site_label_2
_geom_bond_site_symmetry_1
_geom_bond_site_symmetry_2
N1 C1 1_555 1_555
C1 C2 1_555 1_555
C2 C3 1_555 1_555
C3 C4 1_555 1_555
C4 C5F 1_555 1_555
C5 C3 1_555 1_555
C6 N1 1_555 1_555
C7 C6 1_555 1_555
C8 C7 1_555 1_555
C9 C8 1_555 1_555
C10 C8 1_555 1_555
O1 H45 1_555 1_555
H46 O1 1_555 1_555
O2 H49 1_555 1_555
H52 O2 1_555 1_555
O3 H54 1_555 1_555
H55 O3 1_555 1_555
O4 H59 1_555 1_555
H60 O4 1_555 1_555
O5 H61 1_555 1_555
H62 O5 1_555 1_555
O6 H65 1_555 1_555
H66 O6 1_555 1_555
O7 H71 1_555 1_555
O8 H73 1_555 1_555
H74 O8 1_555 1_555
O9 H75 1_555 1_555
O10 H78 1_555 1_555
O11 H81 1_555 1_555
O12 H83 1_555 1_555
O13 H85 1_555 1_555
C1F N1 1_555 1_555
C1A N1 1_555 1_555
C1G N1 1_555 1_555
C2G C1A 1_555 1_555
C2A C1A 1_555 1_555
C2F C1 1_555 1_555
C3A C2G 1_555 1_555
C4G C3A 1_555 1_555
C4A C3A 1_555 1_555
C4F C3 1_555 1_555
C5A C3A 1_555 1_555
C5G C3A 1_555 1_555
C5F C3 1_555 1_555
C6G N1 1_555 1_555
C6A N1 1_555 1_555
C6F N1 1_555 1_555
C7F C6A 1_555 1_555
C7A C6A 1_555 1_555
C7G C6 1_555 1_555
C8A C7F 1_555 1_555
C9F C8A 1_555 1_555
C9A C8A 1_555 1_555
C9G C8 1_555 1_555
C10A C8A 1_555 1_555
C10F C8A 1_555 1_555
C10G C8 1_555 1_555
H75F O9 1_555 1_555
H83G O12 1_555 1_555
H85G O13 1_555 1_555
C1 C1F 1_555 1_555
C2 C1F 1_555 1_555
C2 C2F 1_555 1_555
C3 C2F 1_555 1_555
C5 C4F 1_555 1_555
C6 C6G 1_555 1_555
C7 C6G 1_555 1_555
C7 C7G 1_555 1_555
C8 C7G 1_555 1_555
C9 C10G 1_555 1_555
C10 C9G 1_555 1_555
C1F C2F 1_555 1_555
C1A C1G 1_555 1_555
C1G C2G 1_555 1_555
C1G C2A 1_555 1_555
C2G C2A 1_555 1_555
C2A C3A 1_555 1_555
C4G C5A 1_555 1_555
C4A C5G 1_555 1_555
C6G C7G 1_555 1_555
C6A C6F 1_555 1_555
C6F C7F 1_555 1_555
C6F C7A 1_555 1_555
C7F C7A 1_555 1_555
C7A C8A 1_555 1_555
C9F C10A 1_555 1_555
C9A C10F 1_555 1_555

#END
