
#######################################################################
#
#                 Cambridge Crystallographic Data Centre
#                                CCDC 
#
#######################################################################
#
# If this CIF has been generated from an entry in the Cambridge 
# Structural Database, then it will include bibliographic, chemical, 
# crystal, experimental, refinement or atomic coordinate data resulting 
# from the CCDC's data processing and validation procedures.
#
#######################################################################

data_TUKVOK01
_chemical_formula_moiety         'C28 H22 N1 O3 P1,C2 H6 O1'
_chemical_name_systematic        
"(S,R)-2,2'-Dioxy-1,1'-binaphthyl-(R)-\a-methylbenzylphosphoramidate ethanol clathrate"
_symmetry_cell_setting           monoclinic
_symmetry_space_group_name_H-M   'P 21'
_symmetry_Int_Tables_number      4
_space_group_name_Hall           'P 2yb'
loop_
_symmetry_equiv_pos_site_id
_symmetry_equiv_pos_as_xyz
1 x,y,z
2 -x,1/2+y,-z
_cell_length_a                   9.365(1)
_cell_length_b                   12.825(7)
_cell_length_c                   11.640(3)
_cell_angle_alpha                90
_cell_angle_beta                 111.71
_cell_angle_gamma                90
_cell_volume                     1298.87
_chemical_melting_point          267.5-269deg.C
_cell_formula_units_Z            2
loop_
_atom_site_label
_atom_site_type_symbol
_atom_site_fract_x
_atom_site_fract_y
_atom_site_fract_z
C1 C 0.9497(4) 0.8701(4) 0.2392(4)
C2 C 0.8206(5) 0.8791(4) 0.1339(4)
C3 C 0.8364(5) 0.9384(4) 0.0335(4)
C4 C 0.9834(5) 0.9773(4) 0.0441(4)
C5 C 1.1100(5) 0.9590(4) 0.1541(5)
C6 C 1.0949(5) 0.9075(4) 0.2507(4)
C7 C 0.7077(6) 0.9644(5) -0.0750(5)
C8 C 0.7270(5) 1.0214(4) -0.1679(5)
C9 C 0.8722(6) 1.0577(5) -0.1587(4)
C10 C 0.9958(6) 1.0357(5) -0.0545(5)
C11 C 0.6192(5) 0.8646(5) 0.2233(4)
C12 C 0.6705(5) 0.8385(4) 0.1301(4)
C13 C 0.5759(5) 0.7717(4) 0.0336(4)
C14 C 0.4262(5) 0.7452(4) 0.0305(4)
C15 C 0.3792(5) 0.7778(5) 0.1279(5)
C16 C 0.4767(5) 0.8352(4) 0.2232(5)
C17 C 0.6242(6) 0.7296(5) -0.0593(5)
C18 C 0.5235(7) 0.6658(5) -0.1514(5)
C19 C 0.3760(6) 0.6453(4) -0.1563(4)
C20 C 0.3289(6) 0.6839(5) -0.0682(5)
C21 C 0.6061(5) 0.7474(4) 0.5672(4)
C22 C 0.5611(6) 0.6453(4) 0.5315(4)
C23 C 0.4082(7) 0.6151(5) 0.5050(5)
C24 C 0.3015(6) 0.6841(6) 0.5143(5)
C25 C 0.3450(6) 0.7855(6) 0.5497(5)
C26 C 0.4940(7) 0.8174(5) 0.5761(5)
C27 C 0.7692(6) 0.7819(5) 0.5971(5)
C28 C 0.8838(6) 0.7223(7) 0.7042(5)
N1 N 0.8150(5) 0.7721(4) 0.4878(4)
O1 O 0.9406(4) 0.8155(3) 0.3424(3)
O2 O 0.7114(4) 0.9251(3) 0.3221(3)
O3 O 0.9428(4) 0.9537(3) 0.5088(3)
P1 P 0.8596(1) 0.8715(2) 0.4244(1)
C29 C 0.7308(6) 0.4602(5) 0.2005(5)
C30 C 0.7444(6) 0.5614(5) 0.2552(5)
O4 O 0.7915(4) 0.5623(3) 0.3864(3)
loop_
_geom_bond_atom_site_label_1
_geom_bond_atom_site_label_2
_geom_bond_site_symmetry_1
_geom_bond_site_symmetry_2
C1 C2 1_555 1_555
C2 C3 1_555 1_555
C3 C4 1_555 1_555
C4 C5 1_555 1_555
C5 C6 1_555 1_555
C6 C1 1_555 1_555
C7 C3 1_555 1_555
C8 C7 1_555 1_555
C9 C8 1_555 1_555
C10 C4 1_555 1_555
C11 C12 1_555 1_555
C12 C2 1_555 1_555
C13 C12 1_555 1_555
C14 C13 1_555 1_555
C15 C14 1_555 1_555
C16 C11 1_555 1_555
C17 C13 1_555 1_555
C18 C17 1_555 1_555
C19 C18 1_555 1_555
C20 C14 1_555 1_555
C21 C22 1_555 1_555
C22 C23 1_555 1_555
C23 C24 1_555 1_555
C24 C25 1_555 1_555
C25 C26 1_555 1_555
C26 C21 1_555 1_555
C27 C21 1_555 1_555
C28 C27 1_555 1_555
C29 C30 1_555 1_555
C30 O4 1_555 1_555
N1 C27 1_555 1_555
O1 C1 1_555 1_555
O2 C11 1_555 1_555
O3 P1 1_555 1_555
P1 N1 1_555 1_555
C9 C10 1_555 1_555
C15 C16 1_555 1_555
C19 C20 1_555 1_555
O1 P1 1_555 1_555
O2 P1 1_555 1_555

#END
