
#######################################################################
#
#                 Cambridge Crystallographic Data Centre
#                                CCDC 
#
#######################################################################
#
# If this CIF has been generated from an entry in the Cambridge 
# Structural Database, then it will include bibliographic, chemical, 
# crystal, experimental, refinement or atomic coordinate data resulting 
# from the CCDC's data processing and validation procedures.
#
#######################################################################

data_TUKVAX
_chemical_formula_moiety         'C20 H44 N1 1+,Br1 1-,0.9(Kr1),38.5(H2 O1)'
_chemical_name_systematic        
'Tetra-iso-amylammonium bromide semi-clathrate krypton hydrate'
_symmetry_cell_setting           orthorhombic
_symmetry_space_group_name_H-M   'P m m a'
_symmetry_Int_Tables_number      51
_space_group_name_Hall           '-P 2a 2a'
loop_
_symmetry_equiv_pos_site_id
_symmetry_equiv_pos_as_xyz
1 x,y,z
2 1/2-x,-y,z
3 -x,y,-z
4 1/2+x,-y,-z
5 -x,-y,-z
6 1/2+x,y,-z
7 x,-y,z
8 1/2-x,y,z
_cell_length_a                   21.397(9)
_cell_length_b                   12.828(6)
_cell_length_c                   11.934(5)
_cell_angle_alpha                90
_cell_angle_beta                 90
_cell_angle_gamma                90
_cell_volume                     3275.65
_exptl_crystal_colour            colorless
_exptl_crystal_description       prism
_chemical_melting_point          '303.3 K'
_cell_formula_units_Z            2
loop_
_atom_site_label
_atom_site_type_symbol
_atom_site_fract_x
_atom_site_fract_y
_atom_site_fract_z
N1 N 0.2500 0.0000 -0.0052(13)
C1 C 0.1954(3) -0.0384(4) -0.0778(5)
C2 C 0.1702(3) 0.0384(4) -0.1643(5)
C3 C 0.1049(2) 0.0000 -0.2058(4)
C4 C 0.1063(4) -0.1004(6) -0.2682(7)
C5 C 0.0776(4) 0.0866(6) -0.2823(7)
C6 C 0.2274(2) 0.0905(4) 0.0661(4)
C7 C 0.2725(2) 0.1294(4) 0.1545(5)
C8 C 0.2500 0.2335(3) 0.2057(4)
C9 C 0.1874(3) 0.2254(7) 0.2653(6)
C10 C 0.2989(3) 0.2734(6) 0.2888(6)
C1F C 0.1954(3) 0.0384(4) -0.0778(5)
C1A C 0.3046(3) 0.0384(4) -0.0778(5)
C1G C 0.3046(3) -0.0384(4) -0.0778(5)
C2G C 0.3298(3) 0.0384(4) -0.1643(5)
C2A C 0.3298(3) -0.0384(4) -0.1643(5)
C2F C 0.1702(3) -0.0384(4) -0.1643(5)
C3A C 0.3951(2) 0.0000 -0.2058(4)
C4G C 0.3937(4) -0.1004(6) -0.2682(7)
C4A C 0.3937(4) 0.1004(6) -0.2682(7)
C4F C 0.1063(4) 0.1004(6) -0.2682(7)
C5A C 0.4224(4) -0.0866(6) -0.2823(7)
C5G C 0.4224(4) 0.0866(6) -0.2823(7)
C5F C 0.0776(4) -0.0866(6) -0.2823(7)
C6G C 0.2726(2) 0.0905(4) 0.0661(4)
C6A C 0.2726(2) -0.0905(4) 0.0661(4)
C6F C 0.2274(2) -0.0905(4) 0.0661(4)
C7F C 0.2725(2) -0.1294(4) 0.1545(5)
C7A C 0.2275(2) -0.1294(4) 0.1545(5)
C7G C 0.2275(2) 0.1294(4) 0.1545(5)
C8A C 0.2500 -0.2335(3) 0.2057(4)
C9F C 0.1874(3) -0.2254(7) 0.2653(6)
C9A C 0.3126(3) -0.2254(7) 0.2653(6)
C9G C 0.3126(3) 0.2254(7) 0.2653(6)
C10A C 0.2011(3) -0.2734(6) 0.2888(6)
C10F C 0.2989(3) -0.2734(6) 0.2888(6)
C10G C 0.2011(3) 0.2734(6) 0.2888(6)
O1 O 0.08416(8) 0.39267(15) 0.75203(15)
H46 H 0.1041(10) 0.3689(18) 0.6960(12)
H47 H 0.0855(13) 0.45889(18) 0.751(2)
O2 O 0.03627(8) 0.32200(15) 0.25163(15)
H49 H 0.0614(8) 0.3733(11) 0.253(2)
H50 H 0.0419(12) 0.2840(17) 0.3091(14)
O3 O 0.14112(8) 0.32306(15) 0.55905(16)
H53 H 0.1715(7) 0.2831(14) 0.575(2)
H55 H 0.1541(11) 0.3729(17) 0.518(2)
O4 O 0.05582(8) 0.19854(14) 0.44049(16)
H59 H 0.0233(8) 0.196(2) 0.4812(19)
H60 H 0.0848(9) 0.2294(18) 0.476(2)
O5 O 0.14063(8) 0.32658(15) 0.94764(16)
H61 H 0.1714(7) 0.2925(15) 0.921(2)
H63 H 0.1540(11) 0.3726(19) 0.993(2)
O6 O 0.05476(9) 0.19953(14) 0.06201(16)
H66 H 0.0848(8) 0.225(2) 0.025(2)
H68 H 0.0493(16) 0.2350(18) 0.1214(13)
O7 O 0.18375(13) 0.5000 0.4498(2)
H71 H 0.1597(13) 0.5000 0.3931(17)
O8 O 0.11145(12) 0.5000 0.2569(2)
H72 H 0.08857(14) 0.44590(4) 0.2539(15)
H72F H 0.08857(14) 0.55410(4) 0.2539(15)
O9 O 0.18386(13) 0.5000 0.0647(2)
H76 H 0.2222(5) 0.5000 0.084(3)
O10 O 0.10286(12) 0.0000 0.3828(3)
H79 H 0.0861(16) 0.0533(12) 0.413(5)
H79F H 0.0861(16) -0.0533(12) 0.413(5)
O11 O 0.07918(17) 0.0000 0.1466(3)
H81 H 0.082(2) 0.0000 0.2176(5)
O12 O 0.2500 0.2236(2) 0.6171(3)
H83 H 0.2175(7) 0.2561(17) 0.596(6)
H83G H 0.2825(7) 0.2561(17) 0.596(6)
O13 O 0.2500 0.2781(3) 0.8412(3)
H85 H 0.21567(15) 0.286(6) 0.8759(13)
H85G H 0.28433(15) 0.286(6) 0.8759(13)
Kr1 Kr 0.0000 0.5000 0.5000
Kr2 Kr 0.0000 0.5000 1.0000
O18 O 0.2500 0.5000 0.7252(9)
Br1 Br 0.2500 0.0000 0.48583(6)
H1? H 0.2090 -0.1022 -0.1177
H2? H 0.1606 -0.0585 -0.0275
H3? H 0.1994 0.0433 -0.2284
H4? H 0.1662 0.1085 -0.1302
H5? H 0.0769 -0.0083 -0.1393
H6? H 0.1219 -0.1557 -0.2189
H7? H 0.1340 -0.0937 -0.3333
H8? H 0.0640 -0.1179 -0.2935
H9? H 0.0771 0.1530 -0.2415
H10? H 0.0348 0.0681 -0.3040
H11? H 0.1035 0.0935 -0.3495
H12? H 0.2171 0.1493 0.0157
H13? H 0.1882 0.0692 0.1039
H14? H 0.3143 0.1394 0.1204
H15? H 0.2764 0.0765 0.2145
H16? H 0.2459 0.2857 0.1439
H17? H 0.1556 0.2006 0.2125
H18? H 0.1754 0.2941 0.2940
H19? H 0.1909 0.1762 0.3278
H20? H 0.3395 0.2793 0.2511
H21? H 0.3024 0.2245 0.3516
H22? H 0.2863 0.3420 0.3170
Br2? Br 0.2500 0.0000 0.0057(16)
N2? N 0.2500 0.0000 0.508(3)
C11? C 0.2757(17) -0.088(4) 0.434(5)
H23? H 0.3120 -0.0611 0.3914
H24? H 0.2909 -0.1452 0.4826
C12? C 0.2284(18) -0.132(4) 0.351(5)
H25? H 0.2211 -0.0808 0.2910
H26? H 0.1882 -0.1436 0.3906
C13? C 0.2500 -0.237(3) 0.298(3)
H27? H 0.2543 -0.2890 0.3599
C14? C 0.202(2) -0.278(5) 0.215(6)
H28? H 0.1616 -0.2841 0.2524
H29? H 0.2157 -0.3464 0.1882
H30? H 0.1989 -0.2295 0.1521
C15? C 0.312(2) -0.229(6) 0.238(7)
H31? H 0.3433 -0.1978 0.2884
H32? H 0.3076 -0.1858 0.1713
H33? H 0.3261 -0.2991 0.2165
C16? C 0.305(2) 0.041(3) 0.577(4)
H34? H 0.3403 0.0558 0.5258
H35? H 0.2927 0.1080 0.6121
C17? C 0.329(2) -0.031(3) 0.670(4)
H36? H 0.3297 -0.1036 0.6415
H37? H 0.2998 -0.0283 0.7341
C18? C 0.3954(17) 0.0000 0.709(3)
H38? H 0.4223 0.0065 0.6413
C19? C 0.424(3) -0.084(4) 0.784(7)
H39? H 0.4197 -0.1517 0.7473
H40? H 0.4024 -0.0848 0.8561
H41? H 0.4684 -0.0683 0.7955
C20? C 0.399(3) 0.103(3) 0.772(6)
H42? H 0.3819 0.1583 0.7243
H43? H 0.4424 0.1180 0.7904
H44? H 0.3741 0.0978 0.8408
H45? H 0.1007(10) 0.3703(18) 0.8122(10)
H48? H 0.0463(4) 0.373(2) 0.749(2)
H51? H 0.0428(12) 0.2863(18) 0.1928(14)
H52? H -0.0011(4) 0.3445(17) 0.251(2)
H54? H 0.1135(9) 0.2888(17) 0.524(2)
H56? H 0.1253(12) 0.347(2) 0.6189(12)
H57? H 0.0675(11) 0.1371(7) 0.424(2)
H58? H 0.0477(12) 0.2320(18) 0.3808(12)
H62? H 0.1162(10) 0.2853(15) 0.982(2)
H64? H 0.1210(12) 0.356(2) 0.8943(15)
H65? H 0.0634(11) 0.1369(7) 0.079(2)
H67? H 0.0216(8) 0.201(2) 0.023(2)
H69? H 0.1769(9) 0.44590(4) 0.4890(5)
H70? H 0.2216(5) 0.5000 0.428(3)
H73? H 0.1319(13) 0.5000 0.3180(14)
H74? H 0.1367(12) 0.5000 0.2020(17)
H75? H 0.1760(9) 0.44590(4) 0.0261(6)
H77? H 0.1612(13) 0.5000 0.1232(17)
H78? H 0.1411(6) 0.0000 0.402(4)
H80? H 0.071(3) 0.0570(3) 0.1133(15)
H82? H 0.2500 0.1625(14) 0.590(3)
H84? H 0.2500 0.274(5) 0.7701(4)
O14? O 0.1064(14) 0.0000 0.115(3)
O15? O 0.0778(14) 0.0000 0.347(3)
O16? O 0.2500 0.235(3) 0.879(3)
O17? O 0.2500 0.264(3) 0.657(3)
loop_
_geom_bond_atom_site_label_1
_geom_bond_atom_site_label_2
_geom_bond_site_symmetry_1
_geom_bond_site_symmetry_2
N1 C1 1_555 1_555
C1 C2 1_555 1_555
C2 C3 1_555 1_555
C3 C4 1_555 1_555
C4 C5F 1_555 1_555
C5 C3 1_555 1_555
C6 N1 1_555 1_555
C7 C6 1_555 1_555
C8 C7 1_555 1_555
C9 C8 1_555 1_555
C10 C8 1_555 1_555
O1 H46 1_555 1_555
H47 O1 1_555 1_555
O2 H49 1_555 1_555
H50 O2 1_555 1_555
O3 H53 1_555 1_555
H55 O3 1_555 1_555
O4 H59 1_555 1_555
H60 O4 1_555 1_555
O5 H61 1_555 1_555
H63 O5 1_555 1_555
O6 H66 1_555 1_555
H68 O6 1_555 1_555
O7 H71 1_555 1_555
O8 H72 1_555 1_555
O9 H76 1_555 1_555
O10 H79 1_555 1_555
O11 H81 1_555 1_555
O12 H83 1_555 1_555
O13 H85 1_555 1_555
C1F N1 1_555 1_555
C1A N1 1_555 1_555
C1G N1 1_555 1_555
C2G C1A 1_555 1_555
C2A C1A 1_555 1_555
C2F C1 1_555 1_555
C3A C2G 1_555 1_555
C4G C3A 1_555 1_555
C4A C3A 1_555 1_555
C4F C3 1_555 1_555
C5A C3A 1_555 1_555
C5G C3A 1_555 1_555
C5F C3 1_555 1_555
C6G N1 1_555 1_555
C6A N1 1_555 1_555
C6F N1 1_555 1_555
C7F C6A 1_555 1_555
C7A C6A 1_555 1_555
C7G C6 1_555 1_555
C8A C7F 1_555 1_555
C9F C8A 1_555 1_555
C9A C8A 1_555 1_555
C9G C8 1_555 1_555
C10A C8A 1_555 1_555
C10F C8A 1_555 1_555
C10G C8 1_555 1_555
H72F O8 1_555 1_555
H79F O10 1_555 1_555
H83G O12 1_555 1_555
H85G O13 1_555 1_555
C1 C1F 1_555 1_555
C2 C1F 1_555 1_555
C2 C2F 1_555 1_555
C3 C2F 1_555 1_555
C5 C4F 1_555 1_555
C6 C6G 1_555 1_555
C7 C6G 1_555 1_555
C7 C7G 1_555 1_555
C8 C7G 1_555 1_555
C9 C10G 1_555 1_555
C10 C9G 1_555 1_555
C1F C2F 1_555 1_555
C1A C1G 1_555 1_555
C1G C2G 1_555 1_555
C1G C2A 1_555 1_555
C2G C2A 1_555 1_555
C2A C3A 1_555 1_555
C4G C5A 1_555 1_555
C4A C5G 1_555 1_555
C6G C7G 1_555 1_555
C6A C6F 1_555 1_555
C6F C7F 1_555 1_555
C6F C7A 1_555 1_555
C7F C7A 1_555 1_555
C7A C8A 1_555 1_555
C9F C10A 1_555 1_555
C9A C10F 1_555 1_555

#END
