
#######################################################################
#
#                 Cambridge Crystallographic Data Centre
#                                CCDC 
#
#######################################################################
#
# If this CIF has been generated from an entry in the Cambridge 
# Structural Database, then it will include bibliographic, chemical, 
# crystal, experimental, refinement or atomic coordinate data resulting 
# from the CCDC's data processing and validation procedures.
#
#######################################################################

data_TUKYUV
_chemical_formula_moiety         'C28 H23 N1 O3'
_chemical_name_systematic        
"Methyl 1'-methyl-2'-oxo-4,6-diphenyl-1',2'-dihydrospiro[cyclohexa-2,5-diene-1,3'-indole]-3-carboxylate"
_symmetry_cell_setting           monoclinic
_symmetry_space_group_name_H-M   'P 21/c'
_symmetry_Int_Tables_number      14
_space_group_name_Hall           '-P 2ybc'
loop_
_symmetry_equiv_pos_site_id
_symmetry_equiv_pos_as_xyz
1 x,y,z
2 -x,1/2+y,1/2-z
3 -x,-y,-z
4 x,1/2-y,1/2+z
_cell_length_a                   16.5899(4)
_cell_length_b                   11.5014(3)
_cell_length_c                   11.8439(3)
_cell_angle_alpha                90
_cell_angle_beta                 107.7840(10)
_cell_angle_gamma                90
_cell_volume                     2151.91
_exptl_crystal_colour            colorless
_exptl_crystal_description       block
_cell_formula_units_Z            4
loop_
_atom_site_label
_atom_site_type_symbol
_atom_site_fract_x
_atom_site_fract_y
_atom_site_fract_z
N1 N 0.15948(7) 1.07936(10) 0.03664(9)
C1 C 0.15085(11) 1.13583(15) -0.07577(13)
H1 H 0.1598 1.2197 -0.0632
H2 H 0.0939 1.1217 -0.1300
H3 H 0.1930 1.1043 -0.1102
C2 C 0.22291(8) 1.00240(11) 0.08914(11)
C3 C 0.20210(7) 0.94801(10) 0.19743(10)
C4 C 0.12741(7) 1.02107(10) 0.20244(10)
C5 C 0.08336(8) 1.02253(12) 0.28353(12)
H4 H 0.0985 0.9723 0.3504
C6 C 0.01550(9) 1.10016(14) 0.26490(14)
H5 H -0.0155 1.1034 0.3203
C7 C -0.00697(9) 1.17228(13) 0.16657(15)
H6 H -0.0535 1.2238 0.1553
C8 C 0.03692(8) 1.17084(12) 0.08463(13)
H7 H 0.0215 1.2204 0.0173
C9 C 0.10417(7) 1.09459(10) 0.10417(11)
C10 C 0.27513(7) 0.94469(10) 0.31202(10)
C11 C 0.30890(8) 0.84398(11) 0.35825(11)
H8 H 0.3530 0.8480 0.4315
C12 C 0.28497(8) 0.72420(10) 0.30748(11)
H9 H 0.2696 0.6764 0.3684
C13 C 0.20868(7) 0.72928(10) 0.19810(10)
C14 C 0.17217(7) 0.82826(11) 0.15263(11)
H10 H 0.1228 0.8232 0.0860
C15 C 0.30596(7) 1.05720(10) 0.37305(11)
C16 C 0.30667(8) 1.15939(11) 0.31013(12)
H11 H 0.2849 1.1587 0.2260
C17 C 0.33853(9) 1.26195(12) 0.36807(13)
H12 H 0.3384 1.3306 0.3235
C18 C 0.37049(9) 1.26494(12) 0.49032(13)
H13 H 0.3924 1.3352 0.5300
C19 C 0.37018(11) 1.16524(14) 0.55379(14)
H14 H 0.3926 1.1665 0.6378
C20 C 0.33737(10) 1.06232(12) 0.49632(12)
H15 H 0.3364 0.9946 0.5417
C21 C 0.36143(7) 0.66781(10) 0.28391(11)
C22 C 0.39620(8) 0.71517(13) 0.20158(12)
H16 H 0.3717 0.7825 0.1581
C23 C 0.46673(9) 0.66428(15) 0.18273(14)
H17 H 0.4905 0.6969 0.1263
C24 C 0.50288(9) 0.56576(14) 0.24594(15)
H18 H 0.5508 0.5305 0.2322
C25 C 0.46899(9) 0.51938(13) 0.32860(15)
H19 H 0.4940 0.4524 0.3723
C26 C 0.39878(8) 0.56980(11) 0.34838(13)
H20 H 0.3760 0.5377 0.4059
C27 C 0.16894(8) 0.62159(11) 0.13443(11)
C28 C 0.16267(11) 0.41854(12) 0.13359(14)
H21 H 0.1013 0.4202 0.1196
H22 H 0.1871 0.3515 0.1834
H23 H 0.1744 0.4122 0.0576
O1 O 0.28130(6) 0.97573(9) 0.05268(9)
O2 O 0.11353(6) 0.62158(9) 0.04092(9)
O3 O 0.19987(6) 0.52435(8) 0.19286(8)
loop_
_geom_bond_atom_site_label_1
_geom_bond_atom_site_label_2
_geom_bond_site_symmetry_1
_geom_bond_site_symmetry_2
N1 C1 1_555 1_555
C1 H1 1_555 1_555
H2 C1 1_555 1_555
H3 C1 1_555 1_555
C2 N1 1_555 1_555
C3 C2 1_555 1_555
C4 C3 1_555 1_555
C5 C4 1_555 1_555
H4 C5 1_555 1_555
C6 C5 1_555 1_555
H5 C6 1_555 1_555
C7 C6 1_555 1_555
H6 C7 1_555 1_555
C8 C7 1_555 1_555
H7 C8 1_555 1_555
C9 N1 1_555 1_555
C10 C3 1_555 1_555
C11 C10 1_555 1_555
H8 C11 1_555 1_555
C12 C11 1_555 1_555
H9 C12 1_555 1_555
C13 C12 1_555 1_555
C14 C3 1_555 1_555
H10 C14 1_555 1_555
C15 C10 1_555 1_555
C16 C15 1_555 1_555
H11 C16 1_555 1_555
C17 C16 1_555 1_555
H12 C17 1_555 1_555
C18 C17 1_555 1_555
H13 C18 1_555 1_555
C19 C18 1_555 1_555
H14 C19 1_555 1_555
C20 C15 1_555 1_555
H15 C20 1_555 1_555
C21 C12 1_555 1_555
C22 C21 1_555 1_555
H16 C22 1_555 1_555
C23 C22 1_555 1_555
H17 C23 1_555 1_555
C24 C23 1_555 1_555
H18 C24 1_555 1_555
C25 C24 1_555 1_555
H19 C25 1_555 1_555
C26 C21 1_555 1_555
H20 C26 1_555 1_555
C27 C13 1_555 1_555
C28 H21 1_555 1_555
H22 C28 1_555 1_555
H23 C28 1_555 1_555
O1 C2 1_555 1_555
O2 C27 1_555 1_555
O3 C27 1_555 1_555
C4 C9 1_555 1_555
C8 C9 1_555 1_555
C13 C14 1_555 1_555
C19 C20 1_555 1_555
C25 C26 1_555 1_555
C28 O3 1_555 1_555

#END
