
#######################################################################
#
#                 Cambridge Crystallographic Data Centre
#                                CCDC 
#
#######################################################################
#
# If this CIF has been generated from an entry in the Cambridge 
# Structural Database, then it will include bibliographic, chemical, 
# crystal, experimental, refinement or atomic coordinate data resulting 
# from the CCDC's data processing and validation procedures.
#
#######################################################################

data_TUKYOP
_chemical_formula_moiety         'C22 H19 N1 O3'
_chemical_name_systematic        
"Methyl 1'-methyl-2'-oxo-6-phenyl-1',2'-dihydrospiro[cyclohexa-2,4-diene-1,3'-indole]-3-carboxylate"
_symmetry_cell_setting           triclinic
_symmetry_space_group_name_H-M   'P -1'
_symmetry_Int_Tables_number      2
_space_group_name_Hall           '-P 1'
loop_
_symmetry_equiv_pos_site_id
_symmetry_equiv_pos_as_xyz
1 x,y,z
2 -x,-y,-z
_cell_length_a                   8.6012(2)
_cell_length_b                   9.0857(3)
_cell_length_c                   12.2932(3)
_cell_angle_alpha                72.7560(10)
_cell_angle_beta                 76.5750(10)
_cell_angle_gamma                79.2400(10)
_cell_volume                     885.222
_exptl_crystal_colour            colorless
_exptl_crystal_description       block
_cell_formula_units_Z            2
loop_
_atom_site_label
_atom_site_type_symbol
_atom_site_fract_x
_atom_site_fract_y
_atom_site_fract_z
N1 N 0.31660(13) 0.79953(13) 0.05179(9)
O1 O 0.04758(12) 0.79430(12) 0.06059(8)
C1 C 0.3791(2) 0.74726(19) -0.05230(12)
H1 H 0.4396 0.6434 -0.0324
H2 H 0.4504 0.8196 -0.1073
H3 H 0.2894 0.7434 -0.0877
C2 C 0.15633(16) 0.81491(15) 0.10007(10)
C3 C 0.13923(14) 0.85597(14) 0.21589(10)
C4 C 0.31283(14) 0.86391(14) 0.21888(10)
C5 C 0.38008(16) 0.89577(15) 0.29942(12)
H4 H 0.3139 0.9215 0.3664
C6 C 0.54743(17) 0.88958(17) 0.28086(14)
H5 H 0.5959 0.9099 0.3360
C7 C 0.64278(17) 0.85399(17) 0.18233(14)
H6 H 0.7563 0.8514 0.1705
C8 C 0.57689(16) 0.82221(16) 0.10082(13)
H7 H 0.6429 0.7978 0.0334
C9 C 0.41084(15) 0.82728(14) 0.12094(11)
C10 C 0.05986(14) 0.72133(15) 0.31271(10)
H8 H -0.0312 0.7014 0.2834
C11 C -0.01433(15) 0.77004(16) 0.42203(10)
H9 H -0.0194 0.6940 0.4946
C12 C -0.07262(15) 0.91585(16) 0.41991(11)
H10 H -0.1255 0.9413 0.4902
C13 C -0.05715(14) 1.03883(15) 0.31119(11)
C14 C 0.03808(14) 1.01142(14) 0.21447(11)
H11 H 0.0421 1.0910 0.1438
C15 C 0.17370(14) 0.57099(14) 0.33100(10)
C16 C 0.17976(16) 0.46642(16) 0.26694(11)
H12 H 0.1129 0.4905 0.2108
C17 C 0.28197(17) 0.32752(17) 0.28367(13)
H13 H 0.2833 0.2565 0.2401
C18 C 0.38156(17) 0.29227(17) 0.36342(14)
H14 H 0.4523 0.1976 0.3744
C19 C 0.37795(17) 0.39524(17) 0.42730(13)
H15 H 0.4468 0.3713 0.4821
C20 C 0.27436(16) 0.53363(15) 0.41205(12)
H16 H 0.2720 0.6032 0.4570
C21 C -0.15062(15) 1.19254(16) 0.31547(12)
C22 C -0.2134(2) 1.45405(18) 0.21507(17)
H17 H -0.3277 1.4470 0.2219
H18 H -0.1759 1.5293 0.1421
H19 H -0.1990 1.4879 0.2804
O2 O -0.24449(13) 1.21549(14) 0.40000(9)
O3 O -0.12081(12) 1.30313(11) 0.21632(9)
loop_
_geom_bond_atom_site_label_1
_geom_bond_atom_site_label_2
_geom_bond_site_symmetry_1
_geom_bond_site_symmetry_2
N1 C1 1_555 1_555
O1 C2 1_555 1_555
C1 H1 1_555 1_555
H2 C1 1_555 1_555
H3 C1 1_555 1_555
C2 N1 1_555 1_555
C3 C2 1_555 1_555
C4 C3 1_555 1_555
C5 C4 1_555 1_555
H4 C5 1_555 1_555
C6 C5 1_555 1_555
H5 C6 1_555 1_555
C7 C6 1_555 1_555
H6 C7 1_555 1_555
C8 C7 1_555 1_555
H7 C8 1_555 1_555
C9 N1 1_555 1_555
C10 C3 1_555 1_555
H8 C10 1_555 1_555
C11 C10 1_555 1_555
H9 C11 1_555 1_555
C12 C11 1_555 1_555
H10 C12 1_555 1_555
C13 C12 1_555 1_555
C14 C3 1_555 1_555
H11 C14 1_555 1_555
C15 C10 1_555 1_555
C16 C15 1_555 1_555
H12 C16 1_555 1_555
C17 C16 1_555 1_555
H13 C17 1_555 1_555
C18 C17 1_555 1_555
H14 C18 1_555 1_555
C19 C18 1_555 1_555
H15 C19 1_555 1_555
C20 C15 1_555 1_555
H16 C20 1_555 1_555
C21 C13 1_555 1_555
C22 H17 1_555 1_555
H18 C22 1_555 1_555
H19 C22 1_555 1_555
O2 C21 1_555 1_555
O3 C21 1_555 1_555
C4 C9 1_555 1_555
C8 C9 1_555 1_555
C13 C14 1_555 1_555
C19 C20 1_555 1_555
C22 O3 1_555 1_555

#END
