
#######################################################################
#
#                 Cambridge Crystallographic Data Centre
#                                CCDC 
#
#######################################################################
#
# If this CIF has been generated from an entry in the Cambridge 
# Structural Database, then it will include bibliographic, chemical, 
# crystal, experimental, refinement or atomic coordinate data resulting 
# from the CCDC's data processing and validation procedures.
#
#######################################################################

data_TULDEL
_chemical_formula_moiety         'C16 H17 N1 O4'
_chemical_name_systematic        
2-((3,4-dimethoxyphenyl)carbonoimidoyl)-4-methoxyphenol
_symmetry_cell_setting           orthorhombic
_symmetry_space_group_name_H-M   'P n a 21'
_symmetry_Int_Tables_number      33
_space_group_name_Hall           'P 2c -2n'
loop_
_symmetry_equiv_pos_site_id
_symmetry_equiv_pos_as_xyz
1 x,y,z
2 -x,-y,1/2+z
3 1/2+x,1/2-y,z
4 1/2-x,1/2+y,1/2+z
_cell_length_a                   9.7203(7)
_cell_length_b                   30.576(2)
_cell_length_c                   4.8328(3)
_cell_angle_alpha                90
_cell_angle_beta                 90
_cell_angle_gamma                90
_cell_volume                     1436.35
_exptl_crystal_colour            pink
_exptl_crystal_description       BLOCK
_cell_formula_units_Z            4
loop_
_atom_site_label
_atom_site_type_symbol
_atom_site_fract_x
_atom_site_fract_y
_atom_site_fract_z
O1 O 1.40329(13) 0.38277(4) -0.4372(4)
H1 H 1.343(3) 0.3699(8) -0.310(8)
O2 O 0.75042(12) 0.32178(4) 0.2735(4)
O3 O 1.17164(14) 0.54030(5) -0.7452(4)
O4 O 0.87932(13) 0.26662(4) 0.5840(3)
N1 N 1.18731(14) 0.37273(5) -0.1162(3)
C1 C 1.21914(16) 0.43550(5) -0.4047(4)
C2 C 1.10735(16) 0.34702(5) 0.0659(4)
C3 C 1.34398(16) 0.42084(5) -0.5188(4)
C4 C 0.96387(16) 0.34903(5) 0.0773(4)
H2 H 0.9172 0.3688 -0.0349
C5 C 1.40709(17) 0.44578(6) -0.7202(4)
H3 H 1.4876 0.4357 -0.8022
C6 C 0.89061(16) 0.32223(5) 0.2521(4)
C7 C 1.35283(17) 0.48559(6) -0.8024(4)
H4 H 1.3975 0.5022 -0.9363
C8 C 0.96050(18) 0.29237(5) 0.4215(4)
C9 C 1.23240(17) 0.50057(6) -0.6851(4)
C10 C 1.10157(17) 0.29011(6) 0.4086(4)
H5 H 1.1485 0.2702 0.5196
C11 C 1.16604(17) 0.47542(6) -0.4901(4)
H6 H 1.0839 0.4854 -0.4141
C12 C 1.17423(18) 0.31715(6) 0.2320(4)
H7 H 1.2696 0.3152 0.2252
C13 C 1.2318(2) 0.56602(6) -0.9576(5)
H8 H 1.1804 0.5926 -0.9792
H9 H 1.2306 0.5500 -1.1283
H10 H 1.3251 0.5729 -0.9090
C14 C 1.14439(17) 0.40978(5) -0.2019(4)
H11 H 1.0622 0.4207 -0.1318
C15 C 0.67349(18) 0.34424(7) 0.0708(6)
H12 H 0.5772 0.3413 0.1104
H13 H 0.6928 0.3321 -0.1081
H14 H 0.6982 0.3746 0.0724
C16 C 0.9470(2) 0.23368(7) 0.7397(5)
H15 H 0.8805 0.2176 0.8458
H16 H 1.0124 0.2470 0.8624
H17 H 0.9940 0.2141 0.6164
loop_
_geom_bond_atom_site_label_1
_geom_bond_atom_site_label_2
_geom_bond_site_symmetry_1
_geom_bond_site_symmetry_2
O1 H1 1_555 1_555
O2 C6 1_555 1_555
O3 C9 1_555 1_555
O4 C8 1_555 1_555
N1 C2 1_555 1_555
C1 C3 1_555 1_555
C2 C4 1_555 1_555
C3 O1 1_555 1_555
C4 H2 1_555 1_555
C5 C3 1_555 1_555
H3 C5 1_555 1_555
C6 C4 1_555 1_555
C7 C5 1_555 1_555
H4 C7 1_555 1_555
C8 C6 1_555 1_555
C9 C7 1_555 1_555
C10 C8 1_555 1_555
H5 C10 1_555 1_555
C11 C1 1_555 1_555
H6 C11 1_555 1_555
C12 C2 1_555 1_555
H7 C12 1_555 1_555
C13 O3 1_555 1_555
H8 C13 1_555 1_555
H9 C13 1_555 1_555
H10 C13 1_555 1_555
C14 N1 1_555 1_555
H11 C14 1_555 1_555
C15 O2 1_555 1_555
H12 C15 1_555 1_555
H13 C15 1_555 1_555
H14 C15 1_555 1_555
C16 O4 1_555 1_555
H15 C16 1_555 1_555
H16 C16 1_555 1_555
H17 C16 1_555 1_555
C1 C14 1_555 1_555
C9 C11 1_555 1_555
C10 C12 1_555 1_555

#END
