
#######################################################################
#
#                 Cambridge Crystallographic Data Centre
#                                CCDC 
#
#######################################################################
#
# If this CIF has been generated from an entry in the Cambridge 
# Structural Database, then it will include bibliographic, chemical, 
# crystal, experimental, refinement or atomic coordinate data resulting 
# from the CCDC's data processing and validation procedures.
#
#######################################################################

data_TULRNB01
_chemical_compound_source        
'sage-brush Artemisia arbuscula Nutt. ssp. Arbuscula'
_chemical_name_common            'Tulirinol acetate'
_chemical_formula_moiety         'C19 H24 O6'
_chemical_name_systematic        'Tatridin A diacetate'
_symmetry_cell_setting           monoclinic
_symmetry_space_group_name_H-M   'P 21'
_symmetry_Int_Tables_number      4
_space_group_name_Hall           'P 2yb'
loop_
_symmetry_equiv_pos_site_id
_symmetry_equiv_pos_as_xyz
1 x,y,z
2 -x,1/2+y,-z
_cell_length_a                   6.798(1)
_cell_length_b                   7.967(1)
_cell_length_c                   17.530(3)
_cell_angle_alpha                90
_cell_angle_beta                 93.59(2)
_cell_angle_gamma                90
_cell_volume                     947.556
_cell_formula_units_Z            2
loop_
_atom_site_label
_atom_site_type_symbol
_atom_site_fract_x
_atom_site_fract_y
_atom_site_fract_z
C1 C 0.7167(14) 0.5217(17) 0.6607(5)
C2 C 0.5492(16) 0.6091(19) 0.6958(7)
C3 C 0.4710(16) 0.5131(18) 0.7643(8)
C4 C 0.6311(14) 0.4357(18) 0.8143(5)
C5 C 0.6479(14) 0.2691(19) 0.8142(5)
C6 C 0.8256(14) 0.1733(16) 0.8437(5)
C7 C 0.9098(13) 0.0790(16) 0.7760(5)
C8 C 0.9338(12) 0.2026(16) 0.7077(4)
C9 C 0.7673(13) 0.2142(16) 0.6502(4)
C10 C 0.6690(12) 0.3553(18) 0.6282(5)
C11 C 1.1115(14) 0.0111(17) 0.7894(5)
C12 C 1.2143(15) 0.0352 0.7181(5)
C13 C 1.2041(18) -0.0568(20) 0.8470(8)
C14 C 0.5012(14) 0.3435(21) 0.5681(6)
C15 C 0.7658(19) 0.5540(19) 0.8577(8)
C16 C 0.7626(17) 0.0770(21) 0.9673(6)
C17 C 0.6960(20) -0.0684(23) 1.0156(6)
C18 C 0.9468(18) 0.6849(20) 0.5988(6)
C19 C 0.9951(18) 0.7915(20) 0.5357(6)
O1 O 1.1031(9) 0.1309(14) 0.6686(3)
O2 O 1.3709(11) -0.0195(14) 0.7008(4)
O3 O 0.7714(10) 0.0395(14) 0.8953(3)
O4 O 0.8028(18) 0.2129(19) 0.9921(5)
O5 O 0.7771(10) 0.6247(16) 0.5963(4)
O6 O 1.0508(19) 0.6518(36) 0.6485(9)
H1 H 1.3381 -0.0939 0.8453
H2 H 1.1352 -0.0719 0.8926
H3 H 0.8158 -0.0100 0.7676
H4 H 0.9155 0.2513 0.8690
H5 H 0.6929 -0.0327 1.0678
H6 H 0.7860 -0.1607 1.0125
H7 H 0.5666 -0.1033 0.9971
H8 H 0.5367 0.2065 0.7932
H9 H 0.7246 0.6682 0.8494
H10 H 0.8964 0.5396 0.8409
H11 H 0.7653 0.5281 0.9112
H12 H 0.3889 0.4237 0.7438
H13 H 0.3943 0.5868 0.7940
H14 H 0.5966 0.7161 0.7142
H15 H 0.4435 0.6256 0.6577
H16 H 0.8135 0.5030 0.7021
H17 H 0.8998 0.7757 0.4936
H18 H 1.1238 0.7632 0.5201
H19 H 0.9938 0.9066 0.5518
H20 H 0.4457 0.4527 0.5583
H21 H 0.4020 0.2703 0.5862
H22 H 0.5484 0.2988 0.5218
H23 H 0.7244 0.1115 0.6259
H24 H 0.9476 0.3143 0.7278
loop_
_geom_bond_atom_site_label_1
_geom_bond_atom_site_label_2
_geom_bond_site_symmetry_1
_geom_bond_site_symmetry_2
C1 C2 1_555 1_555
C2 C3 1_555 1_555
C3 C4 1_555 1_555
C4 C5 1_555 1_555
C5 C6 1_555 1_555
C6 C7 1_555 1_555
C7 C8 1_555 1_555
C8 C9 1_555 1_555
C9 C10 1_555 1_555
C10 C1 1_555 1_555
C11 C7 1_555 1_555
C12 C11 1_555 1_555
C13 C11 1_555 1_555
C14 C10 1_555 1_555
C15 C4 1_555 1_555
C16 C17 1_555 1_555
C17 H5 1_555 1_555
C18 C19 1_555 1_555
C19 H17 1_555 1_555
O1 C8 1_555 1_555
O2 C12 1_555 1_555
O3 C6 1_555 1_555
O4 C16 1_555 1_555
O5 C1 1_555 1_555
O6 C18 1_555 1_555
H1 C13 1_555 1_555
H2 C13 1_555 1_555
H3 C7 1_555 1_555
H4 C6 1_555 1_555
H6 C17 1_555 1_555
H7 C17 1_555 1_555
H8 C5 1_555 1_555
H9 C15 1_555 1_555
H10 C15 1_555 1_555
H11 C15 1_555 1_555
H12 C3 1_555 1_555
H13 C3 1_555 1_555
H14 C2 1_555 1_555
H15 C2 1_555 1_555
H16 C1 1_555 1_555
H18 C19 1_555 1_555
H19 C19 1_555 1_555
H20 C14 1_555 1_555
H21 C14 1_555 1_555
H22 C14 1_555 1_555
H23 C9 1_555 1_555
H24 C8 1_555 1_555
C12 O1 1_555 1_555
C16 O3 1_555 1_555
C18 O5 1_555 1_555

#END
