
#######################################################################
#
#                 Cambridge Crystallographic Data Centre
#                                CCDC 
#
#######################################################################
#
# If this CIF has been generated from an entry in the Cambridge 
# Structural Database, then it will include bibliographic, chemical, 
# crystal, experimental, refinement or atomic coordinate data resulting 
# from the CCDC's data processing and validation procedures.
#
#######################################################################

data_TULVUT
_chemical_formula_moiety         'C26 H12 N4 S2'
_chemical_name_systematic        
2,2'-((1,5-bis(2-Thienyl)naphthalene-2,6-diyl)dimethylylidene)dimalononitrile
_symmetry_cell_setting           orthorhombic
_symmetry_space_group_name_H-M   'P b c a'
_symmetry_Int_Tables_number      61
_space_group_name_Hall           '-P 2ac 2ab'
loop_
_symmetry_equiv_pos_site_id
_symmetry_equiv_pos_as_xyz
1 x,y,z
2 1/2-x,-y,1/2+z
3 -x,1/2+y,1/2-z
4 1/2+x,1/2-y,-z
5 -x,-y,-z
6 1/2+x,y,1/2-z
7 x,1/2-y,1/2+z
8 1/2-x,1/2+y,z
_cell_length_a                   11.934(4)
_cell_length_b                   11.853(5)
_cell_length_c                   15.054(6)
_cell_angle_alpha                90
_cell_angle_beta                 90
_cell_angle_gamma                90
_cell_volume                     2129.44
_exptl_crystal_colour            yellow
_exptl_crystal_description       block
_cell_formula_units_Z            4
_exptl_crystal_preparation       Luminescent
loop_
_atom_site_label
_atom_site_type_symbol
_atom_site_fract_x
_atom_site_fract_y
_atom_site_fract_z
S1 S -0.01244(7) 0.16217(7) 0.55108(7)
C1 C -0.1104(3) 0.0661(3) 0.5771(2)
H1 H -0.0944 -0.0041 0.6017
C2 C -0.2134(3) 0.1013(3) 0.5587(2)
H2 H -0.2766 0.0578 0.5701
C3 C -0.2199(2) 0.2112(2) 0.52002(18)
H3 H -0.2854 0.2471 0.5023
C4 C -0.1104(2) 0.2568(2) 0.51296(17)
C5 C -0.0781(2) 0.3659(2) 0.47271(17)
C6 C -0.01466(19) 0.4487(2) 0.52083(17)
C7 C 0.0166(2) 0.4312(2) 0.61020(17)
H4 H -0.0066 0.3662 0.6396
C8 C 0.0803(2) 0.5086(2) 0.65347(18)
H5 H 0.1030 0.4939 0.7114
C9 C 0.1125(2) 0.6098(2) 0.61307(18)
C10 C 0.1787(2) 0.6918(2) 0.66431(17)
H6 H 0.1570 0.7672 0.6634
C11 C 0.2691(2) 0.6630(2) 0.71235(19)
C12 C 0.3163(3) 0.5517(3) 0.7104(2)
N1 N 0.3548(3) 0.4659(3) 0.7075(3)
C13 C 0.3317(3) 0.7426(3) 0.7648(2)
N2 N 0.3828(3) 0.8026(3) 0.8068(2)
S1D S 0.01244(7) 0.83783(7) 0.44892(7)
C1D C 0.1104(3) 0.9339(3) 0.4229(2)
H1D H 0.0944 1.0041 0.3983
C2D C 0.2134(3) 0.8987(3) 0.4413(2)
H2D H 0.2766 0.9422 0.4299
C3D C 0.2199(2) 0.7888(2) 0.47998(18)
H3D H 0.2854 0.7529 0.4977
C4D C 0.1104(2) 0.7432(2) 0.48704(17)
C5D C 0.0781(2) 0.6341(2) 0.52729(17)
C6D C 0.01466(19) 0.5513(2) 0.47917(17)
C7D C -0.0166(2) 0.5688(2) 0.38980(17)
H4D H 0.0066 0.6338 0.3604
C8D C -0.0803(2) 0.4914(2) 0.34653(18)
H5D H -0.1030 0.5061 0.2886
C9D C -0.1125(2) 0.3902(2) 0.38693(18)
C10D C -0.1787(2) 0.3082(2) 0.33569(17)
H6D H -0.1570 0.2328 0.3366
C11D C -0.2691(2) 0.3370(2) 0.28765(19)
C12D C -0.3163(3) 0.4483(3) 0.2896(2)
N1D N -0.3548(3) 0.5341(3) 0.2925(3)
C13D C -0.3317(3) 0.2574(3) 0.2352(2)
N2D N -0.3828(3) 0.1974(3) 0.1932(2)
loop_
_geom_bond_atom_site_label_1
_geom_bond_atom_site_label_2
_geom_bond_site_symmetry_1
_geom_bond_site_symmetry_2
S1 C1 1_555 1_555
C1 H1 1_555 1_555
C2 C1 1_555 1_555
H2 C2 1_555 1_555
C3 C2 1_555 1_555
H3 C3 1_555 1_555
C4 S1 1_555 1_555
C5 C4 1_555 1_555
C6 C5 1_555 1_555
C7 C6 1_555 1_555
H4 C7 1_555 1_555
C8 C7 1_555 1_555
H5 C8 1_555 1_555
C9 C8 1_555 1_555
C10 C9 1_555 1_555
H6 C10 1_555 1_555
C11 C10 1_555 1_555
C12 C11 1_555 1_555
N1 C12 1_555 1_555
C13 C11 1_555 1_555
N2 C13 1_555 1_555
S1D C1D 1_555 1_555
C1D H1D 1_555 1_555
C2D C1D 1_555 1_555
H2D C2D 1_555 1_555
C3D C2D 1_555 1_555
H3D C3D 1_555 1_555
C4D S1D 1_555 1_555
C5D C9 1_555 1_555
C6D C6 1_555 1_555
C7D C6D 1_555 1_555
H4D C7D 1_555 1_555
C8D C7D 1_555 1_555
H5D C8D 1_555 1_555
C9D C5 1_555 1_555
C10D C9D 1_555 1_555
H6D C10D 1_555 1_555
C11D C10D 1_555 1_555
C12D C11D 1_555 1_555
N1D C12D 1_555 1_555
C13D C11D 1_555 1_555
N2D C13D 1_555 1_555
C3 C4 1_555 1_555
C3D C4D 1_555 1_555
C4D C5D 1_555 1_555
C5D C6D 1_555 1_555
C8D C9D 1_555 1_555

#END
