
#######################################################################
#
#                 Cambridge Crystallographic Data Centre
#                                CCDC 
#
#######################################################################
#
# If this CIF has been generated from an entry in the Cambridge 
# Structural Database, then it will include bibliographic, chemical, 
# crystal, experimental, refinement or atomic coordinate data resulting 
# from the CCDC's data processing and validation procedures.
#
#######################################################################

data_TUMWIH
_chemical_formula_moiety         'C20 H22 N2 O4 S1'
_chemical_name_systematic        
'(dl)-2-Benzyl-4-ethoxycarbonyl-5-(p-methylphenyl)-3H,5H,6H-1,2,6-thiadiazine 1,1-dioxide'
_symmetry_cell_setting           monoclinic
_symmetry_space_group_name_H-M   'P 21'
_symmetry_Int_Tables_number      4
_space_group_name_Hall           'P 2yb'
loop_
_symmetry_equiv_pos_site_id
_symmetry_equiv_pos_as_xyz
1 x,y,z
2 -x,1/2+y,-z
_cell_length_a                   8.756(8)
_cell_length_b                   25.757(2)
_cell_length_c                   8.628(1)
_cell_angle_alpha                90
_cell_angle_beta                 99.15(4)
_cell_angle_gamma                90
_cell_volume                     1921.1
_cell_formula_units_Z            4
loop_
_atom_site_label
_atom_site_type_symbol
_atom_site_fract_x
_atom_site_fract_y
_atom_site_fract_z
S1 S 0.6368 0.2034 0.9354
N1 N 0.7675(7) 0.1602(2) 1.0097(7)
C1 C 0.8686(9) 0.1422(3) 0.9228(8)
C2 C 0.8709(8) 0.1552(3) 0.7745(9)
C3 C 0.7649(8) 0.1940(3) 0.6776(8)
N2 N 0.7112(7) 0.2296(3) 0.7941(7)
O1 O 0.4942(6) 0.1764(2) 0.8727(7)
O2 O 0.6271(7) 0.2427(2) 1.0525(6)
C4 C 0.7689(9) 0.1418(3) 1.1688(8)
C5 C 0.7414(11) 0.0839(3) 1.1749(10)
C6 C 0.6268(10) 0.0607(4) 1.0723(11)
C7 C 0.5917(11) 0.0112(6) 1.1036(15)
C8 C 0.6725(14) -0.0219(4) 1.2005(16)
C9 C 0.7967(15) 0.0006(4) 1.3109(14)
C10 C 0.8385(10) 0.0543(5) 1.2901(12)
C11 C 0.9927(8) 0.1327(3) 0.6831(10)
O3 O 1.0007(7) 0.1432(3) 0.5472(6)
O4 O 1.0896(6) 0.1018(3) 0.7697(7)
C12 C 1.2204(10) 0.0815(4) 0.7095(13)
C13 C 1.2151(16) 0.0271(5) 0.6837(21)
C14 C 0.6310(10) 0.1712(3) 0.5612(11)
C15 C 0.6096(8) 0.1213(4) 0.5511(8)
C16 C 0.4803(8) 0.0998(4) 0.4394(10)
C17 C 0.3877(9) 0.1297(4) 0.3453(10)
C18 C 0.4193(10) 0.1803(3) 0.3553(9)
C19 C 0.5511(9) 0.2034(4) 0.4626(9)
C20 C 0.2591(11) 0.1103(5) 0.2250(15)
S2 S 0.1337 0.2656 0.9378
N3 N 0.2735(7) 0.3070(3) 1.0120(8)
C21 C 0.3744(8) 0.3274(3) 0.9135(9)
C22 C 0.3768(8) 0.3167(3) 0.7615(8)
C23 C 0.2647(9) 0.2769(3) 0.6793(9)
N4 N 0.2029(7) 0.2408(2) 0.7932(8)
O5 O 0.0023(5) 0.2942(3) 0.8749(6)
O6 O 0.1243(7) 0.2286(2) 1.0561(7)
C24 C 0.2820(9) 0.3278(4) 1.1770(10)
C25 C 0.2488(9) 0.3857(4) 1.1827(10)
C26 C 0.1270(11) 0.4079(5) 1.0860(11)
C27 C 0.1011(14) 0.4634(4) 1.0908(14)
C28 C 0.1913(14) 0.4896(5) 1.2165(13)
C29 C 0.3068(12) 0.4654(5) 1.3002(13)
C30 C 0.3307(11) 0.4155(4) 1.2945(10)
C31 C 0.4956(9) 0.3372(4) 0.6853(12)
O7 O 0.5046(7) 0.3272(2) 0.5501(8)
O8 O 0.5899(7) 0.3708(3) 0.7750(8)
C32 C 0.7111(14) 0.3938(6) 0.6886(15)
C33 C 0.7738(14) 0.4344(6) 0.7805(17)
C34 C 0.1329(7) 0.3001(3) 0.5660(7)
C35 C 0.0349(9) 0.2668(3) 0.4604(9)
C36 C -0.0750(9) 0.2829(4) 0.3496(11)
C37 C -0.1049(10) 0.3371(4) 0.3379(9)
C38 C -0.0107(11) 0.3723(4) 0.4462(11)
C39 C 0.0954(9) 0.3552(3) 0.5575(10)
C40 C -0.2329(12) 0.3609(5) 0.2223(12)
loop_
_geom_bond_atom_site_label_1
_geom_bond_atom_site_label_2
_geom_bond_site_symmetry_1
_geom_bond_site_symmetry_2
S1 N1 1_555 1_555
N1 C1 1_555 1_555
C1 C2 1_555 1_555
C2 C3 1_555 1_555
C3 N2 1_555 1_555
N2 S1 1_555 1_555
O1 S1 1_555 1_555
O2 S1 1_555 1_555
C4 N1 1_555 1_555
C5 C4 1_555 1_555
C6 C5 1_555 1_555
C7 C6 1_555 1_555
C8 C7 1_555 1_555
C9 C8 1_555 1_555
C10 C5 1_555 1_555
C11 C2 1_555 1_555
O3 C11 1_555 1_555
O4 C11 1_555 1_555
C12 O4 1_555 1_555
C13 C12 1_555 1_555
C14 C3 1_555 1_555
C15 C14 1_555 1_555
C16 C15 1_555 1_555
C17 C16 1_555 1_555
C18 C17 1_555 1_555
C19 C14 1_555 1_555
C20 C17 1_555 1_555
S2 N3 1_555 1_555
N3 C21 1_555 1_555
C21 C22 1_555 1_555
C22 C23 1_555 1_555
C23 N4 1_555 1_555
N4 S2 1_555 1_555
O5 S2 1_555 1_555
O6 S2 1_555 1_555
C24 N3 1_555 1_555
C25 C24 1_555 1_555
C26 C25 1_555 1_555
C27 C26 1_555 1_555
C28 C27 1_555 1_555
C29 C28 1_555 1_555
C30 C25 1_555 1_555
C31 C22 1_555 1_555
O7 C31 1_555 1_555
O8 C31 1_555 1_555
C32 O8 1_555 1_555
C33 C32 1_555 1_555
C34 C23 1_555 1_555
C35 C34 1_555 1_555
C36 C35 1_555 1_555
C37 C36 1_555 1_555
C38 C37 1_555 1_555
C39 C34 1_555 1_555
C40 C37 1_555 1_555
C9 C10 1_555 1_555
C18 C19 1_555 1_555
C29 C30 1_555 1_555
C38 C39 1_555 1_555

#END
