
#######################################################################
#
#                 Cambridge Crystallographic Data Centre
#                                CCDC 
#
#######################################################################
#
# If this CIF has been generated from an entry in the Cambridge 
# Structural Database, then it will include bibliographic, chemical, 
# crystal, experimental, refinement or atomic coordinate data resulting 
# from the CCDC's data processing and validation procedures.
#
#######################################################################

data_TUNPIC
_chemical_formula_moiety         'C11 H16 N4 O2'
_chemical_name_systematic        5-(4-Methylpiperazin-1-yl)-2-nitroaniline
_symmetry_cell_setting           monoclinic
_symmetry_space_group_name_H-M   'P 21/c'
_symmetry_Int_Tables_number      14
_space_group_name_Hall           '-P 2ybc'
loop_
_symmetry_equiv_pos_site_id
_symmetry_equiv_pos_as_xyz
1 x,y,z
2 -x,1/2+y,1/2-z
3 -x,-y,-z
4 x,1/2-y,1/2+z
_cell_length_a                   11.027(2)
_cell_length_b                   6.1210(10)
_cell_length_c                   17.524(4)
_cell_angle_alpha                90
_cell_angle_beta                 103.79(3)
_cell_angle_gamma                90
_cell_volume                     1148.71
_exptl_crystal_colour            yellow
_exptl_crystal_description       block
_chemical_melting_point          '428 K'
_cell_formula_units_Z            4
_exptl_crystal_recrystallization_method methanol
loop_
_atom_site_label
_atom_site_type_symbol
_atom_site_fract_x
_atom_site_fract_y
_atom_site_fract_z
N1 N 0.6711(2) 0.0465(4) 0.16875(13)
O1 O 1.3775(2) -0.0656(4) 0.56703(14)
C1 C 0.5525(3) 0.1090(6) 0.11543(19)
H1 H 0.5683 0.2064 0.0760
H2 H 0.5007 0.1809 0.1447
H3 H 0.5107 -0.0193 0.0907
N2 N 0.8586(2) 0.0019(4) 0.31264(13)
O2 O 1.2787(2) -0.3532(4) 0.58981(13)
C2 C 0.7330(3) 0.2397(5) 0.20898(17)
H4 H 0.6826 0.3007 0.2422
H5 H 0.7409 0.3493 0.1705
C3 C 0.8606(3) 0.1827(5) 0.25841(16)
H6 H 0.9143 0.1440 0.2240
H7 H 0.8960 0.3103 0.2883
N3 N 1.2683(2) 0.2156(4) 0.45524(16)
H8 H 1.2595 0.3315 0.4267
H9 H 1.3359 0.1954 0.4909
C4 C 0.7741(3) -0.1801(5) 0.28094(18)
H10 H 0.7577 -0.2645 0.3242
H11 H 0.8149 -0.2755 0.2506
N4 N 1.2841(2) -0.1869(5) 0.55073(15)
C5 C 0.6513(3) -0.1026(5) 0.22932(17)
H12 H 0.6035 -0.2276 0.2048
H13 H 0.6033 -0.0292 0.2615
C6 C 0.9667(2) -0.0433(4) 0.36840(15)
C7 C 1.0669(2) 0.1023(5) 0.38534(15)
H14 H 1.0610 0.2307 0.3563
C8 C 1.1758(2) 0.0647(5) 0.44396(16)
C9 C 1.1820(2) -0.1317(5) 0.48727(15)
C10 C 1.0839(3) -0.2817(5) 0.46870(17)
H15 H 1.0901 -0.4120 0.4966
C11 C 0.9799(3) -0.2428(5) 0.41112(17)
H16 H 0.9169 -0.3471 0.3995
loop_
_geom_bond_atom_site_label_1
_geom_bond_atom_site_label_2
_geom_bond_site_symmetry_1
_geom_bond_site_symmetry_2
N1 C1 1_555 1_555
O1 N4 1_555 1_555
C1 H1 1_555 1_555
H2 C1 1_555 1_555
H3 C1 1_555 1_555
N2 C3 1_555 1_555
O2 N4 1_555 1_555
C2 N1 1_555 1_555
H4 C2 1_555 1_555
H5 C2 1_555 1_555
C3 C2 1_555 1_555
H6 C3 1_555 1_555
H7 C3 1_555 1_555
N3 H8 1_555 1_555
H9 N3 1_555 1_555
C4 N2 1_555 1_555
H10 C4 1_555 1_555
H11 C4 1_555 1_555
N4 C9 1_555 1_555
C5 N1 1_555 1_555
H12 C5 1_555 1_555
H13 C5 1_555 1_555
C6 N2 1_555 1_555
C7 C6 1_555 1_555
H14 C7 1_555 1_555
C8 N3 1_555 1_555
C9 C8 1_555 1_555
C10 C9 1_555 1_555
H15 C10 1_555 1_555
C11 C6 1_555 1_555
H16 C11 1_555 1_555
C4 C5 1_555 1_555
C7 C8 1_555 1_555
C10 C11 1_555 1_555

#END
