
#######################################################################
#
#                 Cambridge Crystallographic Data Centre
#                                CCDC 
#
#######################################################################
#
# If this CIF has been generated from an entry in the Cambridge 
# Structural Database, then it will include bibliographic, chemical, 
# crystal, experimental, refinement or atomic coordinate data resulting 
# from the CCDC's data processing and validation procedures.
#
#######################################################################

data_TUNSIG
_chemical_formula_moiety         'C14 H13 Br1 O5'
_chemical_name_systematic        
1-(5-bromo-1,3-benzodioxol-4-yl)-4-(oxiran-2-ylmethoxy)but-2-yn-1-ol
_symmetry_cell_setting           monoclinic
_symmetry_space_group_name_H-M   'P 21/c'
_symmetry_Int_Tables_number      14
_space_group_name_Hall           '-P 2ybc'
loop_
_symmetry_equiv_pos_site_id
_symmetry_equiv_pos_as_xyz
1 x,y,z
2 -x,1/2+y,1/2-z
3 -x,-y,-z
4 x,1/2-y,1/2+z
_cell_length_a                   8.15581(18)
_cell_length_b                   20.5484(3)
_cell_length_c                   8.7485(2)
_cell_angle_alpha                90
_cell_angle_beta                 115.872(3)
_cell_angle_gamma                90
_cell_volume                     1319.2
_cell_formula_units_Z            4
loop_
_atom_site_label
_atom_site_type_symbol
_atom_site_fract_x
_atom_site_fract_y
_atom_site_fract_z
Br1 Br 0.10778(5) 0.457461(18) 0.23560(5)
O1 O 0.8692(3) 0.67585(13) 0.2423(3)
O2 O 0.1476(3) 0.62751(13) 0.0483(3)
H1 H 0.1822 0.6648 0.0791
C1 C 0.3817(5) 0.56500(19) 0.6751(5)
H2 H 0.4050 0.5613 0.7886
O3 O 0.4912(4) 0.67924(13) 0.4259(3)
O4 O 1.1787(4) 0.73534(14) 0.5686(3)
O5 O 0.5470(4) 0.66835(13) 0.7093(3)
C2 C 0.4126(5) 0.62206(17) 0.4496(5)
C3 C 0.6032(5) 0.60770(17) 0.1281(5)
C4 C 0.4624(5) 0.59770(17) 0.1351(5)
C5 C 0.2892(5) 0.58289(17) 0.1440(5)
H3 H 0.2497 0.5401 0.0912
C6 C 0.4446(5) 0.61632(18) 0.6177(5)
C7 C 0.3169(5) 0.57644(17) 0.3268(5)
C8 C 0.2495(5) 0.52434(17) 0.3870(5)
C9 C 0.5645(6) 0.7111(2) 0.5877(6)
H4 H 0.4989 0.7513 0.5801
H5 H 0.6918 0.7217 0.6227
C10 C 0.7813(5) 0.62284(19) 0.1315(5)
H6 H 0.8589 0.5847 0.1686
H7 H 0.7643 0.6336 0.0175
C11 C 0.2804(5) 0.51817(18) 0.5550(5)
H8 H 0.2333 0.4826 0.5883
C12 C 1.1311(6) 0.7100(2) 0.6991(5)
H9 H 1.1731 0.6667 0.7426
H10 H 1.1264 0.7405 0.7818
C13 C 0.9940(6) 0.7158(2) 0.5257(6)
H11 H 0.9060 0.7512 0.5033
C14 C 0.9255(6) 0.6574(2) 0.4164(5)
H12 H 1.0209 0.6248 0.4492
H13 H 0.8233 0.6389 0.4300
loop_
_geom_bond_atom_site_label_1
_geom_bond_atom_site_label_2
_geom_bond_site_symmetry_1
_geom_bond_site_symmetry_2
Br1 C8 1_555 1_555
O1 C10 1_555 1_555
O2 H1 1_555 1_555
C1 H2 1_555 1_555
O3 C2 1_555 1_555
O4 C12 1_555 1_555
O5 C6 1_555 1_555
C2 C6 1_555 1_555
C3 C4 1_555 1_555
C4 C5 1_555 1_555
C5 O2 1_555 1_555
H3 C5 1_555 1_555
C6 C1 1_555 1_555
C7 C2 1_555 1_555
C8 C7 1_555 1_555
C9 O3 1_555 1_555
H4 C9 1_555 1_555
H5 C9 1_555 1_555
C10 C3 1_555 1_555
H6 C10 1_555 1_555
H7 C10 1_555 1_555
C11 C1 1_555 1_555
H8 C11 1_555 1_555
C12 H9 1_555 1_555
H10 C12 1_555 1_555
C13 O4 1_555 1_555
H11 C13 1_555 1_555
C14 O1 1_555 1_555
H12 C14 1_555 1_555
H13 C14 1_555 1_555
O5 C9 1_555 1_555
C5 C7 1_555 1_555
C8 C11 1_555 1_555
C12 C13 1_555 1_555
C13 C14 1_555 1_555

#END
