
#######################################################################
#
#                 Cambridge Crystallographic Data Centre
#                                CCDC 
#
#######################################################################
#
# If this CIF has been generated from an entry in the Cambridge 
# Structural Database, then it will include bibliographic, chemical, 
# crystal, experimental, refinement or atomic coordinate data resulting 
# from the CCDC's data processing and validation procedures.
#
#######################################################################

data_TUNVOO
_chemical_name_common            
'2-((Carboxymethyl)sulfanyl)nicotinic acid monohydrate'
_chemical_formula_moiety         'C8 H7 N1 O4 S1,H2 O1'
_chemical_name_systematic        
'2-(Carboxymethylsulfanyl)pyridine-3-carboxylic acid monohydrate'
_symmetry_cell_setting           triclinic
_symmetry_space_group_name_H-M   'P -1'
_symmetry_Int_Tables_number      2
_space_group_name_Hall           '-P 1'
loop_
_symmetry_equiv_pos_site_id
_symmetry_equiv_pos_as_xyz
1 x,y,z
2 -x,-y,-z
_cell_length_a                   7.2824(2)
_cell_length_b                   7.3132(2)
_cell_length_c                   10.9090(4)
_cell_angle_alpha                77.901(2)
_cell_angle_beta                 71.787(2)
_cell_angle_gamma                62.590(2)
_cell_volume                     488.434
_exptl_crystal_colour            colorless
_exptl_crystal_description       sheet
_cell_formula_units_Z            2
loop_
_atom_site_label
_atom_site_type_symbol
_atom_site_fract_x
_atom_site_fract_y
_atom_site_fract_z
S1 S -0.82738(6) 0.36814(5) 1.36087(3)
N1 N -0.5286(2) 0.09443(18) 1.19465(11)
O1 O -0.92675(19) 0.12020(17) 1.57117(11)
O2 O -0.6871(2) 0.41454(18) 1.04260(11)
C1 C -0.6485(2) 0.1157(2) 1.31717(13)
O3 O -0.7165(2) -0.20956(19) 1.61482(11)
C2 C -0.6261(2) -0.0580(2) 1.40665(13)
O4 O -0.8462(2) 0.74565(18) 1.07003(11)
C3 C -0.7717(2) -0.0376(2) 1.53873(14)
C4 C -0.3782(3) -0.0926(2) 1.15876(15)
H1 H -0.2974 -0.1047 1.0734
C5 C -0.7529(2) 0.5679(2) 1.11102(15)
C6 C -0.7046(3) 0.5195(2) 1.24178(14)
H2 H -0.7496 0.6490 1.2771
H3 H -0.5511 0.4459 1.2295
C7 C -0.4654(2) -0.2483(2) 1.36726(15)
H4 H -0.4430 -0.3646 1.4256
C8 C -0.3389(3) -0.2664(2) 1.24242(16)
H5 H -0.2298 -0.3931 1.2158
H8 H -0.626(3) 0.302(3) 1.087(2)
H9 H -0.809(3) -0.177(3) 1.6845(18)
O5 O -0.0210(2) 0.1439(2) 1.15804(12)
H6 H 0.034(3) 0.020(2) 1.145(2)
H7 H -0.081(3) 0.200(3) 1.0980(19)
loop_
_geom_bond_atom_site_label_1
_geom_bond_atom_site_label_2
_geom_bond_site_symmetry_1
_geom_bond_site_symmetry_2
S1 C1 1_555 1_555
N1 C1 1_555 1_555
O1 C3 1_555 1_555
O2 C5 1_555 1_555
C1 C2 1_555 1_555
O3 C3 1_555 1_555
C2 C3 1_555 1_555
O4 C5 1_555 1_555
C4 N1 1_555 1_555
H1 C4 1_555 1_555
C5 C6 1_555 1_555
C6 S1 1_555 1_555
H2 C6 1_555 1_555
H3 C6 1_555 1_555
C7 C2 1_555 1_555
H4 C7 1_555 1_555
C8 C4 1_555 1_555
H5 C8 1_555 1_555
O5 H6 1_555 1_555
H7 O5 1_555 1_555
H8 O2 1_555 1_555
H9 O3 1_555 1_555
C7 C8 1_555 1_555

#END
