
#######################################################################
#
#                 Cambridge Crystallographic Data Centre
#                                CCDC 
#
#######################################################################
#
# If this CIF has been generated from an entry in the Cambridge 
# Structural Database, then it will include bibliographic, chemical, 
# crystal, experimental, refinement or atomic coordinate data resulting 
# from the CCDC's data processing and validation procedures.
#
#######################################################################

data_TUNXEG
_chemical_formula_moiety         'C10 H10 N2 O3'
_chemical_name_systematic        1-(4-Methoxyphenyl)imidazolidine-2,4-dione
_symmetry_cell_setting           monoclinic
_symmetry_space_group_name_H-M   'P 21/c'
_symmetry_Int_Tables_number      14
_space_group_name_Hall           '-P 2ybc'
loop_
_symmetry_equiv_pos_site_id
_symmetry_equiv_pos_as_xyz
1 x,y,z
2 -x,1/2+y,1/2-z
3 -x,-y,-z
4 x,1/2-y,1/2+z
_cell_length_a                   4.9993(10)
_cell_length_b                   6.1566(12)
_cell_length_c                   30.052(6)
_cell_angle_alpha                90
_cell_angle_beta                 93.91(3)
_cell_angle_gamma                90
_cell_volume                     922.808
_exptl_crystal_colour            colorless
_exptl_crystal_description       prism
_cell_formula_units_Z            4
_exptl_crystal_recrystallization_method methanol/water
loop_
_atom_site_label
_atom_site_type_symbol
_atom_site_fract_x
_atom_site_fract_y
_atom_site_fract_z
O1 O 0.1590(2) 0.2744(2) 0.50596(4)
O2 O 0.4023(2) -0.2177(2) 0.40235(4)
O3 O 1.2460(3) 0.2947(2) 0.28363(4)
N1 N 0.2393(3) -0.0069(2) 0.45821(5)
N2 N 0.5536(3) 0.1341(2) 0.41800(5)
C1 C 0.2749(3) 0.1953(3) 0.47530(6)
C2 C 0.4866(3) 0.3027(3) 0.44955(5)
H1 H 0.4155 0.4340 0.4338
H2 H 0.6448 0.3433 0.4694
C3 C 0.4027(3) -0.0471(3) 0.42284(6)
C4 C 0.7341(3) 0.1737(3) 0.38439(5)
C5 C 0.7790(3) 0.0195(3) 0.35134(6)
H3 H 0.6900 -0.1168 0.3514
C6 C 0.9526(3) 0.0659(3) 0.31876(6)
H4 H 0.9814 -0.0391 0.2964
C7 C 1.0854(3) 0.2637(3) 0.31826(6)
C8 C 1.0464(3) 0.4155(3) 0.35116(6)
H5 H 1.1385 0.5505 0.3513
C9 C 0.8710(3) 0.3692(3) 0.38415(6)
H6 H 0.8452 0.4735 0.4068
C10 C 1.3963(4) 0.4914(3) 0.28380(7)
H7 H 1.2732 0.6153 0.2811
H8 H 1.5108 0.4915 0.2586
H9 H 1.5082 0.5027 0.3118
H10 H 0.113(3) -0.100(3) 0.4673(7)
loop_
_geom_bond_atom_site_label_1
_geom_bond_atom_site_label_2
_geom_bond_site_symmetry_1
_geom_bond_site_symmetry_2
O1 C1 1_555 1_555
O2 C3 1_555 1_555
O3 C7 1_555 1_555
N1 C1 1_555 1_555
N2 C2 1_555 1_555
C1 C2 1_555 1_555
C2 H1 1_555 1_555
H2 C2 1_555 1_555
C3 N1 1_555 1_555
C4 N2 1_555 1_555
C5 C4 1_555 1_555
H3 C5 1_555 1_555
C6 C5 1_555 1_555
H4 C6 1_555 1_555
C7 C6 1_555 1_555
C8 C7 1_555 1_555
H5 C8 1_555 1_555
C9 C4 1_555 1_555
H6 C9 1_555 1_555
C10 O3 1_555 1_555
H7 C10 1_555 1_555
H8 C10 1_555 1_555
H9 C10 1_555 1_555
H10 N1 1_555 1_555
N2 C3 1_555 1_555
C8 C9 1_555 1_555

#END
