
#######################################################################
#
#                 Cambridge Crystallographic Data Centre
#                                CCDC 
#
#######################################################################
#
# If this CIF has been generated from an entry in the Cambridge 
# Structural Database, then it will include bibliographic, chemical, 
# crystal, experimental, refinement or atomic coordinate data resulting 
# from the CCDC's data processing and validation procedures.
#
#######################################################################

data_TUNYUX
_chemical_name_common            
'15-Carboxy-13-isopropylatis-13-ene-17,18-dioic acid N,N-dimethylformamide solvate'
_chemical_formula_moiety         'C24 H34 O6,2(C3 H7 N1 O1)'
_chemical_name_systematic        
'16-Isopropyl-5,9-dimethyltetracyclo[10.2.2.0^1,10^.0^4,9^]hexadec-15-ene-5,13,14-tricarboxylic acid dimethylformamide disolvate'
_symmetry_cell_setting           orthorhombic
_symmetry_space_group_name_H-M   'P 21 21 21'
_symmetry_Int_Tables_number      19
_space_group_name_Hall           'P 2ac 2ab'
loop_
_symmetry_equiv_pos_site_id
_symmetry_equiv_pos_as_xyz
1 x,y,z
2 1/2-x,-y,1/2+z
3 -x,1/2+y,1/2-z
4 1/2+x,1/2-y,-z
_cell_length_a                   7.1260(14)
_cell_length_b                   11.342(2)
_cell_length_c                   39.610(8)
_cell_angle_alpha                90
_cell_angle_beta                 90
_cell_angle_gamma                90
_cell_volume                     3201.4
_exptl_crystal_colour            colorless
_exptl_crystal_description       block
_cell_formula_units_Z            4
_exptl_crystal_recrystallization_method dimethylformamide
loop_
_atom_site_label
_atom_site_type_symbol
_atom_site_fract_x
_atom_site_fract_y
_atom_site_fract_z
O1 O 1.0202(7) -0.3704(5) 0.10397(15)
O2 O 0.7495(8) -0.3154(4) 0.08207(11)
H1 H 0.8053 -0.3257 0.0642
O3 O 0.8126(5) 0.3478(3) 0.11878(9)
O4 O 0.7388(7) 0.2389(3) 0.07384(9)
H2 H 0.8281 0.2735 0.0653
O5 O 0.1597(5) 0.3461(4) 0.15090(11)
H3 H 0.0552 0.3488 0.1423
O6 O 0.2060(6) 0.2170(4) 0.10993(11)
C1 C 0.6924(6) 0.0877(4) 0.14378(11)
C2 C 0.8335(7) 0.0249(4) 0.12060(12)
H4 H 0.7764 0.0130 0.0986
H5 H 0.9425 0.0750 0.1176
C3 C 0.8951(7) -0.0909(4) 0.13419(13)
H6 H 0.9605 -0.0792 0.1554
H7 H 0.9814 -0.1277 0.1185
C4 C 0.7256(7) -0.1714(4) 0.13976(12)
H8 H 0.6524 -0.1637 0.1189
C5 C 0.7738(7) -0.3056(4) 0.14164(13)
C6 C 0.5870(8) -0.3741(5) 0.14560(15)
H9 H 0.5148 -0.3663 0.1249
H10 H 0.6147 -0.4571 0.1488
C7 C 0.4702(8) -0.3317(4) 0.17471(16)
H11 H 0.5385 -0.3438 0.1956
H12 H 0.3552 -0.3773 0.1758
C8 C 0.4223(7) -0.2011(4) 0.17099(14)
H13 H 0.3506 -0.1762 0.1905
H14 H 0.3434 -0.1910 0.1512
C9 C 0.5950(7) -0.1214(4) 0.16751(12)
C10 C 0.5277(6) 0.0027(4) 0.15488(11)
H15 H 0.4542 -0.0122 0.1344
C11 C 0.3962(7) 0.0695(4) 0.17891(13)
H16 H 0.3951 0.0309 0.2008
H17 H 0.2694 0.0683 0.1700
C12 C 0.4619(7) 0.1977(4) 0.18299(13)
H18 H 0.3805 0.2399 0.1989
C13 C 0.4592(7) 0.2585(4) 0.14818(12)
H19 H 0.5121 0.3377 0.1509
C14 C 0.5889(7) 0.1887(4) 0.12420(12)
H20 H 0.5091 0.1514 0.1071
C15 C 0.7754(7) 0.1409(4) 0.17497(12)
H21 H 0.9027 0.1341 0.1797
C16 C 0.6604(7) 0.1978(4) 0.19544(12)
C17 C 0.7100(11) 0.2617(6) 0.22769(16)
H22 H 0.6214 0.2370 0.2452
C18 C 0.6869(14) 0.3950(5) 0.22221(16)
H23 H 0.5622 0.4111 0.2143
H24 H 0.7764 0.4215 0.2058
H25 H 0.7075 0.4356 0.2431
C19 C 0.9084(10) 0.2325(6) 0.23979(15)
H26 H 0.9205 0.1488 0.2427
H27 H 0.9315 0.2712 0.2609
H28 H 0.9979 0.2593 0.2234
C20 C 0.9122(8) -0.3388(5) 0.16926(16)
H29 H 1.0260 -0.2946 0.1664
H30 H 0.9396 -0.4216 0.1679
H31 H 0.8586 -0.3214 0.1909
C21 C 0.8668(10) -0.3355(5) 0.10798(18)
C22 C 0.6957(8) -0.1143(4) 0.20269(12)
H32 H 0.7342 -0.1918 0.2095
H33 H 0.6107 -0.0824 0.2191
H34 H 0.8039 -0.0642 0.2009
C23 C 0.7250(7) 0.2684(5) 0.10591(12)
C24 C 0.2656(7) 0.2712(4) 0.13405(13)
N1 N 0.3130(14) 0.9174(8) 0.03150(17)
O7 O 0.3811(15) 0.8410(9) -0.01985(18)
C25 C 0.310(2) 0.8890(15) 0.0001(3)
H35 H 0.2045 0.9239 -0.0094
C26 C 0.244(2) 0.8464(12) 0.0571(4)
H36 H 0.2250 0.7680 0.0486
H37 H 0.1266 0.8776 0.0650
H38 H 0.3322 0.8444 0.0754
C27 C 0.343(3) 1.0316(11) 0.0438(3)
H39 H 0.3759 1.0827 0.0254
H40 H 0.4431 1.0304 0.0600
H41 H 0.2305 1.0598 0.0543
O8 O 0.0025(8) 0.3316(5) 0.03938(11)
N2 N 0.2801(9) 0.4273(5) 0.04118(14)
C28 C 0.1104(10) 0.4000(5) 0.05282(15)
H42 H 0.0714 0.4360 0.0727
C29 C 0.3562(15) 0.3693(11) 0.0120(3)
H43 H 0.2611 0.3211 0.0018
H44 H 0.4600 0.3206 0.0187
H45 H 0.3983 0.4273 -0.0039
C30 C 0.3990(13) 0.5018(7) 0.0597(2)
H46 H 0.3318 0.5335 0.0787
H47 H 0.4412 0.5651 0.0456
H48 H 0.5052 0.4577 0.0676
loop_
_geom_bond_atom_site_label_1
_geom_bond_atom_site_label_2
_geom_bond_site_symmetry_1
_geom_bond_site_symmetry_2
O1 C21 1_555 1_555
O2 H1 1_555 1_555
O3 C23 1_555 1_555
O4 H2 1_555 1_555
O5 H3 1_555 1_555
O6 C24 1_555 1_555
C1 C2 1_555 1_555
C2 H4 1_555 1_555
H5 C2 1_555 1_555
C3 C2 1_555 1_555
H6 C3 1_555 1_555
H7 C3 1_555 1_555
C4 C3 1_555 1_555
H8 C4 1_555 1_555
C5 C4 1_555 1_555
C6 C5 1_555 1_555
H9 C6 1_555 1_555
H10 C6 1_555 1_555
C7 C6 1_555 1_555
H11 C7 1_555 1_555
H12 C7 1_555 1_555
C8 C7 1_555 1_555
H13 C8 1_555 1_555
H14 C8 1_555 1_555
C9 C4 1_555 1_555
C10 C1 1_555 1_555
H15 C10 1_555 1_555
C11 C10 1_555 1_555
H16 C11 1_555 1_555
H17 C11 1_555 1_555
C12 C11 1_555 1_555
H18 C12 1_555 1_555
C13 C12 1_555 1_555
H19 C13 1_555 1_555
C14 C1 1_555 1_555
H20 C14 1_555 1_555
C15 C1 1_555 1_555
H21 C15 1_555 1_555
C16 C12 1_555 1_555
C17 C16 1_555 1_555
H22 C17 1_555 1_555
C18 C17 1_555 1_555
H23 C18 1_555 1_555
H24 C18 1_555 1_555
H25 C18 1_555 1_555
C19 C17 1_555 1_555
H26 C19 1_555 1_555
H27 C19 1_555 1_555
H28 C19 1_555 1_555
C20 C5 1_555 1_555
H29 C20 1_555 1_555
H30 C20 1_555 1_555
H31 C20 1_555 1_555
C21 O2 1_555 1_555
C22 C9 1_555 1_555
H32 C22 1_555 1_555
H33 C22 1_555 1_555
H34 C22 1_555 1_555
C23 O4 1_555 1_555
C24 O5 1_555 1_555
N1 C25 1_555 1_555
O7 C25 1_555 1_555
C25 H35 1_555 1_555
C26 N1 1_555 1_555
H36 C26 1_555 1_555
H37 C26 1_555 1_555
H38 C26 1_555 1_555
C27 N1 1_555 1_555
H39 C27 1_555 1_555
H40 C27 1_555 1_555
H41 C27 1_555 1_555
O8 C28 1_555 1_555
N2 C28 1_555 1_555
C28 H42 1_555 1_555
C29 N2 1_555 1_555
H43 C29 1_555 1_555
H44 C29 1_555 1_555
H45 C29 1_555 1_555
C30 N2 1_555 1_555
H46 C30 1_555 1_555
H47 C30 1_555 1_555
H48 C30 1_555 1_555
C5 C21 1_555 1_555
C8 C9 1_555 1_555
C9 C10 1_555 1_555
C13 C14 1_555 1_555
C13 C24 1_555 1_555
C14 C23 1_555 1_555
C15 C16 1_555 1_555

#END
