
#######################################################################
#
#                 Cambridge Crystallographic Data Centre
#                                CCDC 
#
#######################################################################
#
# If this CIF has been generated from an entry in the Cambridge 
# Structural Database, then it will include bibliographic, chemical, 
# crystal, experimental, refinement or atomic coordinate data resulting 
# from the CCDC's data processing and validation procedures.
#
#######################################################################

data_TUPCEM
_chemical_name_common            
'bis(2.2.2-Crypt-potassium) bis((mu!2$-sulfido)-thio-arsenic) acetonitrile solvate'
_chemical_formula_moiety         '2(C18 H36 K1 N2 O6 1+),As2 S4 2-,2(C2 H3 N1)'
_chemical_name_systematic        
'bis((4,7,13,16,21,24-Hexaoxa-1,10-diazabicyclo(8.8.8)hexacosane)-potassium) bis((\m~2~-sulfido)-thio-arsenic) acetonitrile solvate'
_symmetry_cell_setting           triclinic
_symmetry_space_group_name_H-M   'P -1'
_symmetry_Int_Tables_number      2
_space_group_name_Hall           '-P 1'
loop_
_symmetry_equiv_pos_site_id
_symmetry_equiv_pos_as_xyz
1 x,y,z
2 -x,-y,-z
_cell_length_a                   11.154(1)
_cell_length_b                   12.066(1)
_cell_length_c                   20.922(4)
_cell_angle_alpha                92.38(1)
_cell_angle_beta                 92.02(1)
_cell_angle_gamma                96.45(1)
_cell_volume                     2793.27
_exptl_crystal_colour            yellow-orange
_cell_formula_units_Z            2
loop_
_atom_site_label
_atom_site_type_symbol
_atom_site_fract_x
_atom_site_fract_y
_atom_site_fract_z
As1 As 0.1091(3) 0.2131(2) 0.84215(13)
As2 As -0.1575(3) 0.1083(2) 0.78506(13)
S1 S 0.2703(6) 0.2120(5) 0.7901(3)
S2 S 0.0055(6) 0.0357(5) 0.8314(3)
S3 S -0.0352(6) 0.2727(5) 0.7726(3)
S4 S -0.1904(6) 0.0250(5) 0.6938(3)
K1 K 0.6197(4) 0.2660(3) 1.0623(2)
N1 N 0.851(2) 0.2808(13) 0.9998(8)
N2 N 0.383(2) 0.2492(1) 1.1240(8)
O1 O 0.7219(12) 0.0635(11) 1.0272(6)
O2 O 0.5296(12) 0.0647(11) 1.1106(6)
O3 O 0.5909(12) 0.4122(11) 1.1675(6)
O4 O 0.8213(12) 0.3893(11) 1.1271(6)
O5 O 0.6440(12) 0.3712(11) 0.9404(6)
O6 O 0.4145(11) 0.3031(10) 0.9916(6)
C1 C 0.872(2) 0.168(2) 0.9719(10)
C2 C 0.847(2) 0.075(2) 1.0147(10)
C3 C 0.694(2) -0.020(2) 1.0737(10)
C4 C 0.571(2) -0.037(2) 1.0861(10)
C5 C 0.412(2) 0.049(2) 1.1329(10)
C6 C 0.379(2) 0.151(2) 1.1644(10)
C7 C 0.380(2) 0.355(2) 1.1637(10)
C8 C 0.489(2) 0.387(2) 1.2044(10)
C9 C 0.695(2) 0.455(2) 1.2050(11)
C10 C 0.796(2) 0.484(2) 1.1647(11)
C11 C 0.919(2) 0.412(2) 1.0889(12)
C12 C 0.945(2) 0.319(2) 1.0455(12)
C13 C 0.850(2) 0.360(2) 0.9482(11)
C14 C 0.743(2) 0.347(2) 0.9059(10)
C15 C 0.530(2) 0.353(2) 0.9024(10)
C16 C 0.433(2) 0.375(2) 0.9384(11)
C17 C 0.305(2) 0.316(2) 1.0214(11)
C18 C 0.284(2) 0.233(2) 1.0746(10)
H1 H 0.822(2) 0.152(2) 0.9322(10)
H2 H 0.958(2) 0.171(2) 0.9601(10)
H3 H 0.869(2) 0.005(2) 0.9943(10)
H4 H 0.895(2) 0.091(2) 1.0554(10)
H5 H 0.720(2) -0.092(2) 1.0578(10)
H6 H 0.741(2) 0.003(2) 1.1142(10)
H7 H 0.556(2) -0.095(2) 1.1177(10)
H8 H 0.524(2) -0.063(2) 1.0462(10)
H9 H 0.407(2) -0.012(2) 1.1635(10)
H10 H 0.355(2) 0.025(2) 1.0965(10)
H11 H 0.296(2) 0.135(2) 1.1799(10)
H12 H 0.434(2) 0.170(2) 1.2023(10)
H13 H 0.368(2) 0.416(2) 1.1348(10)
H14 H 0.309(2) 0.346(2) 1.1912(10)
H15 H 0.478(2) 0.453(2) 1.2323(10)
H16 H 0.503(2) 0.325(2) 1.2323(10)
H17 H 0.716(2) 0.398(2) 1.2349(11)
H18 H 0.677(2) 0.521(2) 1.2307(11)
H19 H 0.776(2) 0.544(2) 1.1362(11)
H20 H 0.868(2) 0.513(2) 1.1919(11)
H21 H 0.991(2) 0.436(2) 1.1169(12)
H22 H 0.904(2) 0.476(2) 1.0626(12)
H23 H 0.963(2) 0.255(2) 1.0717(12)
H24 H 1.019(2) 0.343(2) 1.0224(12)
H25 H 0.860(2) 0.437(2) 0.9678(11)
H26 H 0.922(2) 0.352(2) 0.9220(11)
H27 H 0.754(2) 0.399(2) 0.8703(10)
H28 H 0.729(2) 0.270(2) 0.8874(10)
H29 H 0.534(2) 0.401(2) 0.8654(10)
H30 H 0.516(2) 0.274(2) 0.8857(10)
H31 H 0.359(2) 0.367(2) 0.9104(10)
H32 H 0.447(2) 0.454(2) 0.9551(11)
H33 H 0.237(2) 0.304(2) 0.9892(11)
H34 H 0.308(2) 0.393(2) 1.0400(11)
H35 H 0.206(2) 0.242(2) 1.0947(10)
H36 H 0.278(2) 0.156(2) 1.0557(10)
K2 K 0.2134(5) -0.2924(4) 0.6118(2)
N3 N -0.042(2) -0.352(2) 0.6541(10)
N4 N 0.467(2) -0.231(2) 0.5696(9)
O7 O 0.137(2) -0.5129(13) 0.6384(7)
O8 O 0.361(2) -0.4638(14) 0.5793(8)
O9 O 0.252(2) -0.1713(14) 0.5007(8)
O10 O 0.014(2) -0.2537(14) 0.5325(8)
O11 O 0.1412(12) -0.1996(11) 0.7248(6)
O12 O 0.3904(12) -0.1616(11) 0.6964(6)
C19 C -0.054(2) -0.470(2) 0.6744(11)
C20 C 0.016(2) -0.544(2) 0.6346(13)
C21 C 0.203(3) -0.594(2) 0.6097(14)
C22 C 0.327(2) -0.567(2) 0.6132(12)
C23 C 0.486(2) -0.429(2) 0.5846(13)
C24 C 0.516(3) -0.332(2) 0.5433(13)
C25 C 0.468(2) -0.150(2) 0.5198(12)
C26 C 0.357(2) -0.178(2) 0.4705(13)
C27 C 0.145(3) -0.184(3) 0.455(2)
C28 C 0.037(3) -0.162(3) 0.486(2)
C29 C -0.093(3) -0.239(2) 0.5620(13)
C30 C -0.130(3) -0.344(2) 0.6006(13)
C31 C -0.065(2) -0.274(2) 0.7063(11)
C32 C 0.034(2) -0.251(2) 0.7537(11)
C33 C 0.235(2) -0.149(2) 0.7707(12)
C34 C 0.331(2) -0.086(2) 0.7362(11)
C35 C 0.484(2) -0.100(2) 0.6632(11)
C36 C 0.545(2) -0.186(2) 0.6246(11)
H37 H -0.140(2) -0.500(2) 0.6716(11)
H38 H -0.025(2) -0.470(2) 0.7197(11)
H39 H 0.000(2) -0.621(2) 0.6486(13)
H40 H -0.012(2) -0.543(2) 0.5893(13)
H41 H 0.183(3) -0.666(2) 0.6307(14)
H42 H 0.176(3) -0.606(2) 0.5641(14)
H43 H 0.367(2) -0.629(2) 0.5938(12)
H44 H 0.356(2) -0.556(2) 0.6587(12)
H45 H 0.531(2) -0.492(2) 0.5712(13)
H46 H 0.510(2) -0.407(2) 0.6298(13)
H47 H 0.605(3) -0.317(2) 0.5411(13)
H48 H 0.482(3) -0.351(2) 0.4994(13)
H49 H 0.544(2) -0.149(2) 0.4968(12)
H50 H 0.465(2) -0.075(2) 0.5398(12)
H51 H 0.364(2) -0.125(2) 0.4356(13)
H52 H 0.358(2) -0.255(2) 0.4514(13)
H53 H 0.134(3) -0.261(3) 0.436(2)
H54 H 0.160(3) -0.131(3) 0.421(2)
H55 H 0.049(3) -0.088(3) 0.509(2)
H56 H -0.031(3) -0.163(3) 0.454(2)
H57 H -0.157(3) -0.229(2) 0.5295(13)
H58 H -0.082(3) -0.171(2) 0.5911(13)
H59 H -0.211(3) -0.339(2) 0.6175(13)
H60 H -0.134(3) -0.412(2) 0.5719(13)
H61 H -0.082(2) -0.203(2) 0.6880(11)
H62 H -0.138(2) -0.305(2) 0.7280(11)
H63 H 0.011(2) -0.200(2) 0.7884(11)
H64 H 0.052(2) -0.321(2) 0.7728(11)
H65 H 0.268(2) -0.208(2) 0.7949(12)
H66 H 0.200(2) -0.099(2) 0.8015(12)
H67 H 0.296(2) -0.032(2) 0.7093(11)
H68 H 0.390(2) -0.045(2) 0.7673(11)
H69 H 0.543(2) -0.057(2) 0.6939(11)
H70 H 0.450(2) -0.048(2) 0.6344(11)
H71 H 0.623(2) -0.151(2) 0.6095(11)
H72 H 0.562(2) -0.248(2) 0.6521(11)
N5 N 0.286(3) 0.104(2) 0.5803(14)
C37 C 0.105(2) 0.087(2) 0.6597(12)
C38 C 0.214(3) 0.094(4) 0.619(2)
H73 H 0.119(2) 0.046(2) 0.6978(12)
H74 H 0.035(2) 0.050(2) 0.6347(12)
H75 H 0.089(2) 0.163(2) 0.6728(12)
N6 N 0.637(2) 0.405(2) 0.6986(12)
C39 C 0.545(2) 0.200(2) 0.7041(12)
C40 C 0.596(3) 0.313(2) 0.6982(13)
loop_
_geom_bond_atom_site_label_1
_geom_bond_atom_site_label_2
_geom_bond_site_symmetry_1
_geom_bond_site_symmetry_2
As1 S1 1_555 1_555
As2 S2 1_555 1_555
S2 As1 1_555 1_555
S3 As1 1_555 1_555
S4 As2 1_555 1_555
K1 N1 1_555 1_555
K2 N3 1_555 1_555
N1 C1 1_555 1_555
N2 K1 1_555 1_555
N3 C19 1_555 1_555
N4 K2 1_555 1_555
N5 C38 1_555 1_555
N6 C40 1_555 1_555
O1 K1 1_555 1_555
O2 K1 1_555 1_555
O3 K1 1_555 1_555
O4 K1 1_555 1_555
O5 K1 1_555 1_555
O6 K1 1_555 1_555
O7 K2 1_555 1_555
O8 K2 1_555 1_555
O9 K2 1_555 1_555
O10 K2 1_555 1_555
O11 K2 1_555 1_555
O12 K2 1_555 1_555
C1 C2 1_555 1_555
C2 O1 1_555 1_555
C3 O1 1_555 1_555
C4 O2 1_555 1_555
C5 O2 1_555 1_555
C6 N2 1_555 1_555
C7 N2 1_555 1_555
C8 O3 1_555 1_555
C9 O3 1_555 1_555
C10 O4 1_555 1_555
C11 O4 1_555 1_555
C12 N1 1_555 1_555
C13 N1 1_555 1_555
C14 O5 1_555 1_555
C15 O5 1_555 1_555
C16 O6 1_555 1_555
C17 O6 1_555 1_555
C18 N2 1_555 1_555
C19 C20 1_555 1_555
C20 O7 1_555 1_555
C21 O7 1_555 1_555
C22 O8 1_555 1_555
C23 O8 1_555 1_555
C24 N4 1_555 1_555
C25 N4 1_555 1_555
C26 O9 1_555 1_555
C27 O9 1_555 1_555
C28 O10 1_555 1_555
C29 O10 1_555 1_555
C30 N3 1_555 1_555
C31 N3 1_555 1_555
C32 O11 1_555 1_555
C33 O11 1_555 1_555
C34 O12 1_555 1_555
C35 O12 1_555 1_555
C36 N4 1_555 1_555
C37 C38 1_555 1_555
C39 C40 1_555 1_555
H1 C1 1_555 1_555
H2 C1 1_555 1_555
H3 C2 1_555 1_555
H4 C2 1_555 1_555
H5 C3 1_555 1_555
H6 C3 1_555 1_555
H7 C4 1_555 1_555
H8 C4 1_555 1_555
H9 C5 1_555 1_555
H10 C5 1_555 1_555
H11 C6 1_555 1_555
H12 C6 1_555 1_555
H13 C7 1_555 1_555
H14 C7 1_555 1_555
H15 C8 1_555 1_555
H16 C8 1_555 1_555
H17 C9 1_555 1_555
H18 C9 1_555 1_555
H19 C10 1_555 1_555
H20 C10 1_555 1_555
H21 C11 1_555 1_555
H22 C11 1_555 1_555
H23 C12 1_555 1_555
H24 C12 1_555 1_555
H25 C13 1_555 1_555
H26 C13 1_555 1_555
H27 C14 1_555 1_555
H28 C14 1_555 1_555
H29 C15 1_555 1_555
H30 C15 1_555 1_555
H31 C16 1_555 1_555
H32 C16 1_555 1_555
H33 C17 1_555 1_555
H34 C17 1_555 1_555
H35 C18 1_555 1_555
H36 C18 1_555 1_555
H37 C19 1_555 1_555
H38 C19 1_555 1_555
H39 C20 1_555 1_555
H40 C20 1_555 1_555
H41 C21 1_555 1_555
H42 C21 1_555 1_555
H43 C22 1_555 1_555
H44 C22 1_555 1_555
H45 C23 1_555 1_555
H46 C23 1_555 1_555
H47 C24 1_555 1_555
H48 C24 1_555 1_555
H49 C25 1_555 1_555
H50 C25 1_555 1_555
H51 C26 1_555 1_555
H52 C26 1_555 1_555
H53 C27 1_555 1_555
H54 C27 1_555 1_555
H55 C28 1_555 1_555
H56 C28 1_555 1_555
H57 C29 1_555 1_555
H58 C29 1_555 1_555
H59 C30 1_555 1_555
H60 C30 1_555 1_555
H61 C31 1_555 1_555
H62 C31 1_555 1_555
H63 C32 1_555 1_555
H64 C32 1_555 1_555
H65 C33 1_555 1_555
H66 C33 1_555 1_555
H67 C34 1_555 1_555
H68 C34 1_555 1_555
H69 C35 1_555 1_555
H70 C35 1_555 1_555
H71 C36 1_555 1_555
H72 C36 1_555 1_555
H73 C37 1_555 1_555
H74 C37 1_555 1_555
H75 C37 1_555 1_555
As2 S3 1_555 1_555
C3 C4 1_555 1_555
C5 C6 1_555 1_555
C7 C8 1_555 1_555
C9 C10 1_555 1_555
C11 C12 1_555 1_555
C13 C14 1_555 1_555
C15 C16 1_555 1_555
C17 C18 1_555 1_555
C21 C22 1_555 1_555
C23 C24 1_555 1_555
C25 C26 1_555 1_555
C27 C28 1_555 1_555
C29 C30 1_555 1_555
C31 C32 1_555 1_555
C33 C34 1_555 1_555
C35 C36 1_555 1_555

#END
