
#######################################################################
#
#                 Cambridge Crystallographic Data Centre
#                                CCDC 
#
#######################################################################
#
# If this CIF has been generated from an entry in the Cambridge 
# Structural Database, then it will include bibliographic, chemical, 
# crystal, experimental, refinement or atomic coordinate data resulting 
# from the CCDC's data processing and validation procedures.
#
#######################################################################

data_TUPGIV
_chemical_formula_moiety         'C22 H17 N1 O1'
_chemical_name_systematic        2-(9-Anthrylmethylideneamino)-4-methylphenol
_symmetry_cell_setting           triclinic
_symmetry_space_group_name_H-M   'P -1'
_symmetry_Int_Tables_number      2
_space_group_name_Hall           '-P 1'
loop_
_symmetry_equiv_pos_site_id
_symmetry_equiv_pos_as_xyz
1 x,y,z
2 -x,-y,-z
_cell_length_a                   8.6037(15)
_cell_length_b                   12.839(3)
_cell_length_c                   15.015(3)
_cell_angle_alpha                94.508(9)
_cell_angle_beta                 97.164(11)
_cell_angle_gamma                106.490(11)
_cell_volume                     1566.6
_exptl_crystal_colour            yellow
_exptl_crystal_description       lath
_chemical_melting_point          '170-174 deg.C'
_cell_formula_units_Z            4
loop_
_atom_site_label
_atom_site_type_symbol
_atom_site_fract_x
_atom_site_fract_y
_atom_site_fract_z
O1 O 0.30490(15) 0.14730(11) 0.20434(9)
H1 H 0.261(2) 0.1946(17) 0.2172(14)
N1 N 0.13998(16) 0.26290(12) 0.10202(10)
C1 C 0.0939(2) 0.44058(15) 0.09855(11)
C2 C -0.0671(2) 0.42007(15) 0.11964(11)
C3 C -0.1820(2) 0.31351(16) 0.10892(12)
H2 H -0.1516 0.2527 0.0851
C4 C -0.3344(2) 0.29700(16) 0.13208(13)
H3 H -0.4084 0.2251 0.1244
C5 C -0.3837(2) 0.38605(17) 0.16758(13)
H4 H -0.4894 0.3733 0.1850
C6 C -0.2806(2) 0.48933(16) 0.17677(12)
H5 H -0.3157 0.5486 0.1994
C7 C -0.1195(2) 0.51040(15) 0.15290(11)
C8 C -0.0120(2) 0.61631(15) 0.16377(12)
H6 H -0.0473 0.6754 0.1867
C9 C 0.1462(2) 0.63784(15) 0.14184(12)
C10 C 0.2576(2) 0.74645(16) 0.15396(13)
H7 H 0.2225 0.8059 0.1763
C11 C 0.4120(2) 0.76605(17) 0.13417(14)
H8 H 0.4841 0.8386 0.1425
C12 C 0.4657(2) 0.67730(16) 0.10083(13)
H9 H 0.5740 0.6911 0.0870
C13 C 0.3642(2) 0.57331(16) 0.08864(13)
H10 H 0.4031 0.5156 0.0665
C14 C 0.2004(2) 0.54824(15) 0.10823(12)
C15 C 0.1512(2) 0.34955(15) 0.06342(12)
H11 H 0.1987 0.3556 0.0095
C16 C 0.1843(2) 0.17612(14) 0.05799(12)
C17 C 0.2645(2) 0.11812(15) 0.11268(12)
C18 C 0.3106(2) 0.03190(15) 0.07482(12)
H12 H 0.3682 -0.0058 0.1120
C19 C 0.2723(2) 0.00072(15) -0.01782(13)
H13 H 0.3061 -0.0577 -0.0435
C20 C 0.1853(2) 0.05329(15) -0.07398(12)
C21 C 0.1432(2) 0.14129(16) -0.03464(12)
H14 H 0.0850 0.1787 -0.0718
C22 C 0.1364(2) 0.01475(18) -0.17348(13)
H15 H 0.0264 -0.0380 -0.1843
H16 H 0.2149 -0.0203 -0.1943
H17 H 0.1359 0.0774 -0.2067
O2 O 0.53743(15) 0.04269(11) 0.27603(8)
H18 H 0.488(2) 0.0923(17) 0.2760(13)
N2 N 0.52578(16) 0.20557(12) 0.39729(10)
C23 C 0.48926(19) 0.38573(14) 0.40197(11)
C24 C 0.3154(2) 0.35684(14) 0.38026(11)
C25 C 0.2085(2) 0.25083(15) 0.38727(11)
H19 H 0.2540 0.1949 0.4049
C26 C 0.0420(2) 0.22873(15) 0.36905(12)
H20 H -0.0263 0.1578 0.3746
C27 C -0.0304(2) 0.30931(16) 0.34210(12)
H21 H -0.1463 0.2922 0.3290
C28 C 0.0661(2) 0.41141(16) 0.33494(12)
H22 H 0.0167 0.4656 0.3175
C29 C 0.2409(2) 0.43844(15) 0.35330(11)
C30 C 0.3395(2) 0.54295(15) 0.34506(11)
H23 H 0.2891 0.5956 0.3249
C31 C 0.5098(2) 0.57245(14) 0.36561(11)
C32 C 0.6089(2) 0.67977(15) 0.35648(13)
H24 H 0.5579 0.7320 0.3359
C33 C 0.7750(2) 0.70842(15) 0.37681(13)
H25 H 0.8392 0.7804 0.3709
C34 C 0.8524(2) 0.63117(15) 0.40679(12)
H26 H 0.9686 0.6519 0.4210
C35 C 0.7631(2) 0.52775(15) 0.41557(12)
H27 H 0.8181 0.4771 0.4350
C36 C 0.5874(2) 0.49345(14) 0.39604(11)
C37 C 0.5733(2) 0.30621(15) 0.43076(12)
H28 H 0.6671 0.3307 0.4763
C38 C 0.61304(19) 0.13383(14) 0.42820(12)
C39 C 0.61383(19) 0.05028(15) 0.36290(12)
C40 C 0.69549(19) -0.02469(14) 0.38538(12)
H29 H 0.6983 -0.0807 0.3409
C41 C 0.77342(19) -0.01782(15) 0.47339(12)
H30 H 0.8307 -0.0690 0.4881
C42 C 0.76957(19) 0.06220(15) 0.54060(12)
C43 C 0.68877(19) 0.13757(14) 0.51648(12)
H31 H 0.6850 0.1930 0.5612
C44 C 0.8441(2) 0.06293(16) 0.63718(12)
H32 H 0.8793 0.1379 0.6678
H33 H 0.9391 0.0350 0.6380
H34 H 0.7624 0.0163 0.6685
loop_
_geom_bond_atom_site_label_1
_geom_bond_atom_site_label_2
_geom_bond_site_symmetry_1
_geom_bond_site_symmetry_2
O1 H1 1_555 1_555
N1 C15 1_555 1_555
C1 C2 1_555 1_555
C2 C3 1_555 1_555
C3 H2 1_555 1_555
C4 C3 1_555 1_555
H3 C4 1_555 1_555
C5 C4 1_555 1_555
H4 C5 1_555 1_555
C6 C5 1_555 1_555
H5 C6 1_555 1_555
C7 C2 1_555 1_555
C8 C7 1_555 1_555
H6 C8 1_555 1_555
C9 C8 1_555 1_555
C10 C9 1_555 1_555
H7 C10 1_555 1_555
C11 C10 1_555 1_555
H8 C11 1_555 1_555
C12 C11 1_555 1_555
H9 C12 1_555 1_555
C13 C12 1_555 1_555
H10 C13 1_555 1_555
C14 C1 1_555 1_555
C15 C1 1_555 1_555
H11 C15 1_555 1_555
C16 N1 1_555 1_555
C17 O1 1_555 1_555
C18 C17 1_555 1_555
H12 C18 1_555 1_555
C19 C18 1_555 1_555
H13 C19 1_555 1_555
C20 C19 1_555 1_555
C21 C16 1_555 1_555
H14 C21 1_555 1_555
C22 C20 1_555 1_555
H15 C22 1_555 1_555
H16 C22 1_555 1_555
H17 C22 1_555 1_555
O2 H18 1_555 1_555
N2 C37 1_555 1_555
C23 C24 1_555 1_555
C24 C25 1_555 1_555
C25 H19 1_555 1_555
C26 C25 1_555 1_555
H20 C26 1_555 1_555
C27 C26 1_555 1_555
H21 C27 1_555 1_555
C28 C27 1_555 1_555
H22 C28 1_555 1_555
C29 C24 1_555 1_555
C30 C29 1_555 1_555
H23 C30 1_555 1_555
C31 C30 1_555 1_555
C32 C31 1_555 1_555
H24 C32 1_555 1_555
C33 C32 1_555 1_555
H25 C33 1_555 1_555
C34 C33 1_555 1_555
H26 C34 1_555 1_555
C35 C34 1_555 1_555
H27 C35 1_555 1_555
C36 C23 1_555 1_555
C37 C23 1_555 1_555
H28 C37 1_555 1_555
C38 N2 1_555 1_555
C39 O2 1_555 1_555
C40 C39 1_555 1_555
H29 C40 1_555 1_555
C41 C40 1_555 1_555
H30 C41 1_555 1_555
C42 C41 1_555 1_555
C43 C38 1_555 1_555
H31 C43 1_555 1_555
C44 C42 1_555 1_555
H32 C44 1_555 1_555
H33 C44 1_555 1_555
H34 C44 1_555 1_555
C6 C7 1_555 1_555
C9 C14 1_555 1_555
C13 C14 1_555 1_555
C16 C17 1_555 1_555
C20 C21 1_555 1_555
C28 C29 1_555 1_555
C31 C36 1_555 1_555
C35 C36 1_555 1_555
C38 C39 1_555 1_555
C42 C43 1_555 1_555

#END
