
#######################################################################
#
#                 Cambridge Crystallographic Data Centre
#                                CCDC 
#
#######################################################################
#
# If this CIF has been generated from an entry in the Cambridge 
# Structural Database, then it will include bibliographic, chemical, 
# crystal, experimental, refinement or atomic coordinate data resulting 
# from the CCDC's data processing and validation procedures.
#
#######################################################################

data_TUPGER
_chemical_name_common            
'Methyl N-(1-(3-methyl-5-oxo-1-phenyl-1,5-dihydro-4H-pyrazol-4-ylidene)ethyl)phenylalaninate'
_chemical_formula_moiety         'C22 H23 N3 O3'
_chemical_name_systematic        
'Methyl 2-(1-[(Z)-3-methyl-5-oxo-1-phenyl-4,5-dihydro-1H-pyrazol-4-ylidene]ethylamino)-3-phenylpropanoate'
_symmetry_cell_setting           monoclinic
_symmetry_space_group_name_H-M   'P 21'
_symmetry_Int_Tables_number      4
_space_group_name_Hall           'P 2yb'
loop_
_symmetry_equiv_pos_site_id
_symmetry_equiv_pos_as_xyz
1 x,y,z
2 -x,1/2+y,-z
_cell_length_a                   10.9400(10)
_cell_length_b                   7.2105(7)
_cell_length_c                   12.8670(10)
_cell_angle_alpha                90
_cell_angle_beta                 92.718(2)
_cell_angle_gamma                90
_cell_volume                     1013.84
_exptl_crystal_colour            colorless
_exptl_crystal_description       block
_cell_formula_units_Z            2
_exptl_crystal_recrystallization_method ethanol
loop_
_atom_site_label
_atom_site_type_symbol
_atom_site_fract_x
_atom_site_fract_y
_atom_site_fract_z
O1 O 0.69537(16) 0.7004(4) 0.63222(13)
O2 O 0.9385(2) 0.5317(4) 0.4573(2)
O3 O 0.9296(2) 0.4530(3) 0.28897(18)
N1 N 0.49129(18) 0.7209(4) 0.67625(16)
N2 N 0.37536(19) 0.7237(4) 0.62394(18)
N3 N 0.7085(2) 0.6887(4) 0.42371(17)
H1 H 0.7408 0.6814 0.4858
C1 C 0.3903(3) 0.7353(6) 0.8383(2)
H2 H 0.3156 0.7472 0.8012
C2 C 0.3948(4) 0.7310(7) 0.9457(3)
H3 H 0.3226 0.7392 0.9809
C3 C 0.5037(5) 0.7148(8) 1.0007(3)
H4 H 0.5060 0.7114 1.0730
C4 C 0.6103(3) 0.7035(8) 0.9487(2)
H5 H 0.6849 0.6941 0.9860
C5 C 0.6072(3) 0.7060(6) 0.8416(2)
H6 H 0.6794 0.6971 0.8066
C6 C 0.4968(3) 0.7219(5) 0.7866(2)
C7 C 0.5836(2) 0.7091(5) 0.6073(2)
C8 C 0.5237(2) 0.7100(5) 0.5063(2)
C9 C 0.3959(2) 0.7185(5) 0.5250(2)
C10 C 0.2866(2) 0.7155(6) 0.4494(2)
H7 H 0.2130 0.7153 0.4871
H8 H 0.2892 0.6059 0.4072
H9 H 0.2880 0.8233 0.4056
C11 C 0.5879(2) 0.7059(5) 0.4158(2)
C12 C 0.5269(2) 0.7185(6) 0.3096(2)
H10 H 0.5209 0.5969 0.2794
H11 H 0.5741 0.7971 0.2666
H12 H 0.4463 0.7697 0.3146
C13 C 0.7929(2) 0.6804(5) 0.3398(2)
H13 H 0.7495 0.6375 0.2759
C14 C 0.8937(3) 0.5450(5) 0.3710(3)
C15 C 1.0389(3) 0.3383(6) 0.3056(3)
H14 H 1.0281 0.2559 0.3631
H15 H 1.1086 0.4164 0.3206
H16 H 1.0518 0.2670 0.2441
C16 C 0.8488(3) 0.8723(5) 0.3216(3)
H17 H 0.7833 0.9626 0.3131
H18 H 0.8991 0.9071 0.3826
C17 C 0.9252(3) 0.8793(4) 0.2280(3)
C18 C 1.0502(3) 0.8632(5) 0.2357(3)
H19 H 1.0890 0.8466 0.3009
C19 C 1.1202(4) 0.8709(6) 0.1491(5)
H20 H 1.2049 0.8596 0.1561
C20 C 1.0639(5) 0.8953(7) 0.0535(4)
H21 H 1.1104 0.9008 -0.0051
C21 C 0.9411(5) 0.9114(7) 0.0431(3)
H22 H 0.9030 0.9288 -0.0223
C22 C 0.8718(3) 0.9019(5) 0.1308(3)
H23 H 0.7871 0.9111 0.1231
loop_
_geom_bond_atom_site_label_1
_geom_bond_atom_site_label_2
_geom_bond_site_symmetry_1
_geom_bond_site_symmetry_2
O1 C7 1_555 1_555
O2 C14 1_555 1_555
O3 C14 1_555 1_555
N1 N2 1_555 1_555
N2 C9 1_555 1_555
N3 H1 1_555 1_555
C1 H2 1_555 1_555
C2 C1 1_555 1_555
H3 C2 1_555 1_555
C3 C2 1_555 1_555
H4 C3 1_555 1_555
C4 C3 1_555 1_555
H5 C4 1_555 1_555
C5 C4 1_555 1_555
H6 C5 1_555 1_555
C6 N1 1_555 1_555
C7 N1 1_555 1_555
C8 C7 1_555 1_555
C9 C8 1_555 1_555
C10 C9 1_555 1_555
H7 C10 1_555 1_555
H8 C10 1_555 1_555
H9 C10 1_555 1_555
C11 N3 1_555 1_555
C12 C11 1_555 1_555
H10 C12 1_555 1_555
H11 C12 1_555 1_555
H12 C12 1_555 1_555
C13 N3 1_555 1_555
H13 C13 1_555 1_555
C14 C13 1_555 1_555
C15 O3 1_555 1_555
H14 C15 1_555 1_555
H15 C15 1_555 1_555
H16 C15 1_555 1_555
C16 C13 1_555 1_555
H17 C16 1_555 1_555
H18 C16 1_555 1_555
C17 C16 1_555 1_555
C18 C17 1_555 1_555
H19 C18 1_555 1_555
C19 C18 1_555 1_555
H20 C19 1_555 1_555
C20 C19 1_555 1_555
H21 C20 1_555 1_555
C21 C20 1_555 1_555
H22 C21 1_555 1_555
C22 C17 1_555 1_555
H23 C22 1_555 1_555
C1 C6 1_555 1_555
C5 C6 1_555 1_555
C8 C11 1_555 1_555
C21 C22 1_555 1_555

#END
