
#######################################################################
#
#                 Cambridge Crystallographic Data Centre
#                                CCDC 
#
#######################################################################
#
# If this CIF has been generated from an entry in the Cambridge 
# Structural Database, then it will include bibliographic, chemical, 
# crystal, experimental, refinement or atomic coordinate data resulting 
# from the CCDC's data processing and validation procedures.
#
#######################################################################

data_TUPJAP
_chemical_compound_source        'Whole plant of Ajugata parviflora'
_chemical_formula_moiety         'C24 H34 O7'
_chemical_name_systematic        Ajugarin-I
_symmetry_cell_setting           orthorhombic
_symmetry_space_group_name_H-M   'P 21 21 21'
_symmetry_Int_Tables_number      19
_space_group_name_Hall           'P 2ac 2ab'
loop_
_symmetry_equiv_pos_site_id
_symmetry_equiv_pos_as_xyz
1 x,y,z
2 1/2-x,-y,1/2+z
3 1/2+x,1/2-y,-z
4 -x,1/2+y,1/2-z
_cell_length_a                   10.201(2)
_cell_length_b                   10.982(2)
_cell_length_c                   20.307(4)
_cell_angle_alpha                90
_cell_angle_beta                 90
_cell_angle_gamma                90
_cell_volume                     2274.94
_exptl_crystal_colour            colorless
_chemical_melting_point          159-163deg.C
_cell_formula_units_Z            4
loop_
_atom_site_label
_atom_site_type_symbol
_atom_site_fract_x
_atom_site_fract_y
_atom_site_fract_z
C1 C 0.7581(3) 0.5218(3) 0.3459(2)
C2 C 0.6349(3) 0.5357(3) 0.3883(2)
C3 C 0.5585(3) 0.4159(3) 0.3925(2)
C4 C 0.6520(3) 0.3183(3) 0.4151(2)
C5 C 0.7652(3) 0.2918(3) 0.3666(2)
C6 C 0.8556(3) 0.1900(3) 0.3901(2)
C7 C 0.9852(3) 0.1847(3) 0.3539(2)
C8 C 1.0604(3) 0.3042(3) 0.3582(2)
C9 C 0.9807(3) 0.4113(3) 0.3296(2)
C10 C 0.8454(3) 0.4146(3) 0.3658(2)
C11 C 1.0542(3) 0.5331(3) 0.3420(2)
C12 C 1.0725(3) 0.5735(3) 0.4136(2)
C13 C 1.1627(3) 0.6800(3) 0.4183(2)
C14 C 1.1399(4) 0.7933(3) 0.4374(2)
C15 C 1.2623(5) 0.8623(4) 0.4355(2)
C16 C 1.3043(3) 0.6696(3) 0.4012(2)
C17 C 1.1977(3) 0.2864(4) 0.3291(2)
C18 C 0.6693(4) 0.3060(3) 0.4859(2)
C19 C 0.7081(3) 0.2581(3) 0.2987(2)
C20 C 0.9679(3) 0.4007(3) 0.2539(2)
C21 C 0.5735(3) 0.0807(3) 0.2854(2)
C22 C 0.4575(3) 0.0208(3) 0.3150(2)
C23 C 0.8064(4) -0.0153(3) 0.4210(2)
C24 C 0.7289(4) -0.1262(3) 0.4029(2)
O1 O 1.3593(3) 0.7886(2) 0.4133(1)
O2 O 1.2860(4) 0.9664(3) 0.4496(2)
O3 O 0.5960(3) 0.2161(2) 0.4496(1)
O4 O 0.5857(2) 0.1946(2) 0.3080(1)
O5 O 0.6480(2) 0.0346(2) 0.2464(1)
O6 O 0.7878(2) 0.0745(2) 0.3786(1)
O7 O 0.8789(3) -0.0084(2) 0.4681(1)
H1 H 0.7310(3) 0.5105(3) 0.3011(2)
H2 H 0.8085(3) 0.5954(3) 0.3481(2)
H3 H 0.6615(3) 0.5591(3) 0.4318(2)
H4 H 0.5796(3) 0.5988(3) 0.3710(2)
H5 H 0.4879(3) 0.4231(3) 0.4235(2)
H6 H 0.5227(3) 0.3957(3) 0.3502(2)
H7 H 0.8717(3) 0.1999(3) 0.4363(2)
H8 H 0.9686(3) 0.1668(3) 0.3084(2)
H9 H 1.0375(3) 0.1200(3) 0.3718(2)
H10 H 1.0723(3) 0.3206(3) 0.4042(2)
H11 H 0.8662(3) 0.4298(3) 0.4112(2)
H12 H 1.1388(3) 0.5290(3) 0.3215(2)
H13 H 1.0050(3) 0.5955(3) 0.3200(2)
H14 H 1.1079(3) 0.5064(3) 0.4381(2)
H15 H 0.9893(3) 0.5948(3) 0.4324(2)
H16 H 1.0559(4) 0.8253(3) 0.4499(2)
H17 H 1.3161(3) 0.6462(3) 0.3560(2)
H18 H 1.3459(3) 0.6103(3) 0.4289(2)
H19 H 1.2404(3) 0.2184(4) 0.3498(2)
H20 H 1.2488(3) 0.3587(4) 0.3360(2)
H21 H 1.1895(3) 0.2712(4) 0.2828(2)
H22 H 0.6206(4) 0.3602(3) 0.5137(2)
H23 H 0.7544(4) 0.2837(3) 0.5020(2)
H24 H 0.7679(3) 0.2054(3) 0.2759(2)
H25 H 0.6962(3) 0.3305(3) 0.2729(2)
H26 H 0.9246(3) 0.3257(3) 0.2431(2)
H27 H 1.0535(3) 0.4016(3) 0.2343(2)
H28 H 0.9176(3) 0.4679(3) 0.2374(2)
H29 H 0.4519(3) -0.0606(3) 0.2979(2)
H30 H 0.3792(3) 0.0647(3) 0.3039(2)
H31 H 0.4668(3) 0.0177(3) 0.3620(2)
H32 H 0.7470(4) -0.1888(3) 0.4347(2)
H33 H 0.7541(4) -0.1538(3) 0.3599(2)
H34 H 0.6369(4) -0.1079(3) 0.4032(2)
loop_
_geom_bond_atom_site_label_1
_geom_bond_atom_site_label_2
_geom_bond_site_symmetry_1
_geom_bond_site_symmetry_2
C1 C2 1_555 1_555
C2 C3 1_555 1_555
C3 C4 1_555 1_555
C4 C5 1_555 1_555
C5 C6 1_555 1_555
C6 C7 1_555 1_555
C7 C8 1_555 1_555
C8 C9 1_555 1_555
C9 C10 1_555 1_555
C10 C1 1_555 1_555
C11 C9 1_555 1_555
C12 C11 1_555 1_555
C13 C12 1_555 1_555
C14 C13 1_555 1_555
C15 C14 1_555 1_555
C16 C13 1_555 1_555
C17 C8 1_555 1_555
C18 C4 1_555 1_555
C19 C5 1_555 1_555
C20 C9 1_555 1_555
C21 C22 1_555 1_555
C22 H29 1_555 1_555
C23 C24 1_555 1_555
C24 H32 1_555 1_555
O1 C15 1_555 1_555
O2 C15 1_555 1_555
O3 C4 1_555 1_555
O4 C19 1_555 1_555
O5 C21 1_555 1_555
O6 C6 1_555 1_555
O7 C23 1_555 1_555
H1 C1 1_555 1_555
H2 C1 1_555 1_555
H3 C2 1_555 1_555
H4 C2 1_555 1_555
H5 C3 1_555 1_555
H6 C3 1_555 1_555
H7 C6 1_555 1_555
H8 C7 1_555 1_555
H9 C7 1_555 1_555
H10 C8 1_555 1_555
H11 C10 1_555 1_555
H12 C11 1_555 1_555
H13 C11 1_555 1_555
H14 C12 1_555 1_555
H15 C12 1_555 1_555
H16 C14 1_555 1_555
H17 C16 1_555 1_555
H18 C16 1_555 1_555
H19 C17 1_555 1_555
H20 C17 1_555 1_555
H21 C17 1_555 1_555
H22 C18 1_555 1_555
H23 C18 1_555 1_555
H24 C19 1_555 1_555
H25 C19 1_555 1_555
H26 C20 1_555 1_555
H27 C20 1_555 1_555
H28 C20 1_555 1_555
H30 C22 1_555 1_555
H31 C22 1_555 1_555
H33 C24 1_555 1_555
H34 C24 1_555 1_555
C5 C10 1_555 1_555
C16 O1 1_555 1_555
C18 O3 1_555 1_555
C21 O4 1_555 1_555
C23 O6 1_555 1_555

#END
