
#######################################################################
#
#                 Cambridge Crystallographic Data Centre
#                                CCDC 
#
#######################################################################
#
# If this CIF has been generated from an entry in the Cambridge 
# Structural Database, then it will include bibliographic, chemical, 
# crystal, experimental, refinement or atomic coordinate data resulting 
# from the CCDC's data processing and validation procedures.
#
#######################################################################

data_TUPKUL
_chemical_formula_moiety         'C5 H12 N1 O1 1+,Br1 1-'
_chemical_name_systematic        '4-Methylmorpholinium bromide'
_symmetry_cell_setting           monoclinic
_symmetry_space_group_name_H-M   'P 21/m'
_symmetry_Int_Tables_number      11
_space_group_name_Hall           '-P 2yb'
loop_
_symmetry_equiv_pos_site_id
_symmetry_equiv_pos_as_xyz
1 x,y,z
2 -x,1/2+y,-z
3 -x,-y,-z
4 x,1/2-y,z
_cell_length_a                   7.3282(15)
_cell_length_b                   7.4170(15)
_cell_length_c                   7.3928(15)
_cell_angle_alpha                90
_cell_angle_beta                 92.72(3)
_cell_angle_gamma                90
_cell_volume                     401.37
_exptl_crystal_colour            colorless
_exptl_crystal_description       prism
_cell_formula_units_Z            2
loop_
_atom_site_label
_atom_site_type_symbol
_atom_site_fract_x
_atom_site_fract_y
_atom_site_fract_z
O1 O 0.5268(5) 0.7500 0.3399(6)
N1 N 0.1476(4) 0.7500 0.2465(5)
H1 H 0.1507 0.7500 0.1250
C1 C 0.4418(5) 0.5939(7) 0.2671(6)
H2 H 0.4478 0.5968 0.1377
H3 H 0.5054 0.4884 0.3106
C2 C 0.2434(4) 0.5854(5) 0.3149(5)
H4 H 0.1864 0.4810 0.2604
H5 H 0.2359 0.5765 0.4438
C3 C -0.0464(6) 0.7500 0.2948(7)
H6 H -0.1058 0.6449 0.2455
H7 H -0.0534 0.7500 0.4234
C1C C 0.4418(5) 0.9061(7) 0.2671(6)
H2C H 0.4478 0.9032 0.1377
H3C H 0.5054 1.0116 0.3106
C2C C 0.2434(4) 0.9146(5) 0.3149(5)
H4C H 0.1864 1.0190 0.2604
H5C H 0.2359 0.9235 0.4438
H6C H -0.1058 0.8551 0.2455
Br1 Br 0.15472(6) 0.7500 -0.18624(5)
loop_
_geom_bond_atom_site_label_1
_geom_bond_atom_site_label_2
_geom_bond_site_symmetry_1
_geom_bond_site_symmetry_2
O1 C1 1_555 1_555
N1 H1 1_555 1_555
C1 H2 1_555 1_555
H3 C1 1_555 1_555
C2 N1 1_555 1_555
H4 C2 1_555 1_555
H5 C2 1_555 1_555
C3 N1 1_555 1_555
H6 C3 1_555 1_555
H7 C3 1_555 1_555
C1C O1 1_555 1_555
H2C C1C 1_555 1_555
H3C C1C 1_555 1_555
C2C N1 1_555 1_555
H4C C2C 1_555 1_555
H5C C2C 1_555 1_555
H6C C3 1_555 1_555
C1 C2 1_555 1_555
C1C C2C 1_555 1_555

#END
