
#######################################################################
#
#                 Cambridge Crystallographic Data Centre
#                                CCDC 
#
#######################################################################
#
# If this CIF has been generated from an entry in the Cambridge 
# Structural Database, then it will include bibliographic, chemical, 
# crystal, experimental, refinement or atomic coordinate data resulting 
# from the CCDC's data processing and validation procedures.
#
#######################################################################

data_TUPKAS
_chemical_formula_moiety         'C25 H28 N2 O2'
_chemical_name_systematic        
2-butyl-3-(2-((4-methylphenyl)amino)-6-oxocyclohex-1-en-1-yl)isoindolin-1-one
_symmetry_cell_setting           triclinic
_symmetry_space_group_name_H-M   'P -1'
_symmetry_Int_Tables_number      2
_space_group_name_Hall           '-P 1'
loop_
_symmetry_equiv_pos_site_id
_symmetry_equiv_pos_as_xyz
1 x,y,z
2 -x,-y,-z
_cell_length_a                   8.5334(5)
_cell_length_b                   10.8799(7)
_cell_length_c                   12.6877(8)
_cell_angle_alpha                69.923(2)
_cell_angle_beta                 79.961(2)
_cell_angle_gamma                84.106(2)
_cell_volume                     1088.27
_exptl_crystal_description       needle
_cell_formula_units_Z            2
loop_
_atom_site_label
_atom_site_type_symbol
_atom_site_fract_x
_atom_site_fract_y
_atom_site_fract_z
O1 O 0.6200(2) 0.43349(17) 1.12673(15)
O2 O 0.8789(2) -0.08038(16) 1.10191(19)
N1 N 0.8037(2) 0.13348(18) 1.08578(17)
N2 N 0.9613(2) 0.32536(17) 0.83428(16)
H1 H 0.9564 0.2447 0.8772
C1 C 0.7544(4) 0.1010(4) 1.2916(3)
H2 H 0.7238 0.0117 1.3105
H3 H 0.6588 0.1579 1.2821
C2 C 0.8678(4) 0.1377(3) 1.1822(2)
H4 H 0.9713 0.1613 1.1771
C3 C 0.6997(3) 0.2401(2) 1.02299(19)
H5 H 0.6026 0.2455 1.0756
C4 C 0.7669(2) 0.37548(19) 0.97439(19)
C5 C 0.8780(2) 0.41366(19) 0.87858(19)
C6 C 1.0560(3) 0.3492(2) 0.7256(2)
C7 C 1.1914(3) 0.4196(3) 0.6933(2)
H6 H 1.2225 0.4572 0.7416
C8 C 1.2805(4) 0.4338(4) 0.5885(3)
H7 H 1.3713 0.4823 0.5672
C9 C 1.2411(4) 0.3794(4) 0.5143(3)
C10 C 1.3433(5) 0.3919(6) 0.4011(3)
H8 H 1.3060 0.3355 0.3678
H9 H 1.4520 0.3671 0.4124
H10 H 1.3367 0.4809 0.3514
C11 C 1.0143(4) 0.2948(3) 0.6528(3)
H11 H 0.9224 0.2477 0.6732
C12 C 1.1070(4) 0.3090(4) 0.5493(3)
H12 H 1.0773 0.2695 0.5018
C13 C 0.7051(3) 0.4671(2) 1.0338(2)
C14 C 0.7493(3) 0.6083(2) 0.9780(2)
H13 H 0.6630 0.6648 0.9989
H14 H 0.8433 0.6218 1.0054
C15 C 0.7820(3) 0.6452(2) 0.8505(2)
H15 H 0.8137 0.7352 0.8171
H16 H 0.6861 0.6382 0.8221
C16 C 0.9131(3) 0.5553(2) 0.8173(2)
H17 H 0.9250 0.5727 0.7361
H18 H 1.0129 0.5730 0.8348
C17 C 0.6557(3) 0.1849(2) 0.9383(2)
C18 C 0.5670(3) 0.2415(3) 0.8513(2)
H19 H 0.5256 0.3272 0.8358
C19 C 0.5415(4) 0.1654(3) 0.7872(3)
H20 H 0.4822 0.2011 0.7279
C20 C 0.6030(4) 0.0380(3) 0.8108(3)
H21 H 0.5843 -0.0109 0.7673
C21 C 0.6918(4) -0.0179(3) 0.8978(3)
H22 H 0.7326 -0.1038 0.9136
C22 C 0.7186(3) 0.0574(2) 0.9611(2)
C23 C 0.8089(3) 0.0237(2) 1.0560(2)
H23 H 0.953(4) 0.071(3) 1.192(2)
C24 C 0.8279(6) 0.1125(6) 1.3886(3)
H24 H 0.8603 0.2016 1.3680
H25 H 0.9232 0.0553 1.3973
C25 C 0.7242(8) 0.0799(8) 1.4975(4)
H26 H 0.6401 0.1462 1.4945
H27 H 0.7849 0.0753 1.5559
H28 H 0.6794 -0.0033 1.5141
loop_
_geom_bond_atom_site_label_1
_geom_bond_atom_site_label_2
_geom_bond_site_symmetry_1
_geom_bond_site_symmetry_2
O1 C13 1_555 1_555
O2 C23 1_555 1_555
N1 C2 1_555 1_555
N2 H1 1_555 1_555
C1 H2 1_555 1_555
H3 C1 1_555 1_555
C2 C1 1_555 1_555
H4 C2 1_555 1_555
C3 N1 1_555 1_555
H5 C3 1_555 1_555
C4 C3 1_555 1_555
C5 N2 1_555 1_555
C6 N2 1_555 1_555
C7 C6 1_555 1_555
H6 C7 1_555 1_555
C8 C7 1_555 1_555
H7 C8 1_555 1_555
C9 C8 1_555 1_555
C10 C9 1_555 1_555
H8 C10 1_555 1_555
H9 C10 1_555 1_555
H10 C10 1_555 1_555
C11 C6 1_555 1_555
H11 C11 1_555 1_555
C12 C9 1_555 1_555
H12 C12 1_555 1_555
C13 C4 1_555 1_555
C14 C13 1_555 1_555
H13 C14 1_555 1_555
H14 C14 1_555 1_555
C15 C14 1_555 1_555
H15 C15 1_555 1_555
H16 C15 1_555 1_555
C16 C5 1_555 1_555
H17 C16 1_555 1_555
H18 C16 1_555 1_555
C17 C3 1_555 1_555
C18 C17 1_555 1_555
H19 C18 1_555 1_555
C19 C18 1_555 1_555
H20 C19 1_555 1_555
C20 C19 1_555 1_555
H21 C20 1_555 1_555
C21 C20 1_555 1_555
H22 C21 1_555 1_555
C22 C17 1_555 1_555
C23 N1 1_555 1_555
H23 C2 1_555 1_555
C24 C1 1_555 1_555
H24 C24 1_555 1_555
H25 C24 1_555 1_555
C25 C24 1_555 1_555
H26 C25 1_555 1_555
H27 C25 1_555 1_555
H28 C25 1_555 1_555
C4 C5 1_555 1_555
C11 C12 1_555 1_555
C15 C16 1_555 1_555
C21 C22 1_555 1_555
C22 C23 1_555 1_555

#END
