
#######################################################################
#
#                 Cambridge Crystallographic Data Centre
#                                CCDC 
#
#######################################################################
#
# If this CIF has been generated from an entry in the Cambridge 
# Structural Database, then it will include bibliographic, chemical, 
# crystal, experimental, refinement or atomic coordinate data resulting 
# from the CCDC's data processing and validation procedures.
#
#######################################################################

data_TUPLUM
_chemical_formula_moiety         'C14 H9 Br1 N2'
_chemical_name_systematic        2-(4-Bromophenyl)quinoxaline
_symmetry_cell_setting           monoclinic
_symmetry_space_group_name_H-M   'P 21/c'
_symmetry_Int_Tables_number      14
_space_group_name_Hall           '-P 2ybc'
loop_
_symmetry_equiv_pos_site_id
_symmetry_equiv_pos_as_xyz
1 x,y,z
2 -x,1/2+y,1/2-z
3 -x,-y,-z
4 x,1/2-y,1/2+z
_cell_length_a                   13.959(3)
_cell_length_b                   5.9031(12)
_cell_length_c                   14.497(3)
_cell_angle_alpha                90
_cell_angle_beta                 109.53(3)
_cell_angle_gamma                90
_cell_volume                     1125.84
_exptl_crystal_colour            colorless
_exptl_crystal_description       prism
_chemical_melting_point          '418 K'
_cell_formula_units_Z            4
_exptl_crystal_recrystallization_method chloroform/ethanol
loop_
_atom_site_label
_atom_site_type_symbol
_atom_site_fract_x
_atom_site_fract_y
_atom_site_fract_z
Br1 Br 0.460263(18) 1.10538(4) 0.33474(2)
N1 N -0.12149(15) 0.6560(3) 0.02060(15)
N2 N -0.05847(15) 1.0700(3) 0.12055(14)
C1 C 0.00712(17) 0.9095(4) 0.11986(16)
C2 C -0.02653(17) 0.7012(4) 0.07034(17)
H1 H 0.0229 0.5882 0.0736
C3 C -0.19054(16) 0.8203(4) 0.02054(16)
C4 C -0.29514(17) 0.7808(4) -0.02863(17)
H2 H -0.3168 0.6436 -0.0636
C5 C -0.36496(18) 0.9398(4) -0.02576(17)
H3 H -0.4352 0.9126 -0.0588
C6 C -0.33379(19) 1.1438(4) 0.02573(18)
H4 H -0.3833 1.2523 0.0279
C7 C -0.23291(17) 1.1877(4) 0.07274(17)
H5 H -0.2126 1.3275 0.1060
C8 C -0.15888(16) 1.0252(4) 0.07190(15)
C9 C 0.11683(17) 0.9532(4) 0.17107(16)
C10 C 0.19145(17) 0.7987(4) 0.16884(17)
H6 H 0.1721 0.6609 0.1337
C11 C 0.29343(17) 0.8427(4) 0.21702(18)
H7 H 0.3437 0.7360 0.2152
C12 C 0.32117(17) 1.0434(4) 0.26773(17)
C13 C 0.24914(17) 1.2017(4) 0.27042(17)
H8 H 0.2692 1.3406 0.3045
C14 C 0.14782(18) 1.1554(4) 0.22297(16)
H9 H 0.0980 1.2627 0.2255
loop_
_geom_bond_atom_site_label_1
_geom_bond_atom_site_label_2
_geom_bond_site_symmetry_1
_geom_bond_site_symmetry_2
Br1 C12 1_555 1_555
N1 C2 1_555 1_555
N2 C1 1_555 1_555
C1 C2 1_555 1_555
C2 H1 1_555 1_555
C3 N1 1_555 1_555
C4 C3 1_555 1_555
H2 C4 1_555 1_555
C5 C4 1_555 1_555
H3 C5 1_555 1_555
C6 C5 1_555 1_555
H4 C6 1_555 1_555
C7 C6 1_555 1_555
H5 C7 1_555 1_555
C8 N2 1_555 1_555
C9 C1 1_555 1_555
C10 C9 1_555 1_555
H6 C10 1_555 1_555
C11 C10 1_555 1_555
H7 C11 1_555 1_555
C12 C11 1_555 1_555
C13 C12 1_555 1_555
H8 C13 1_555 1_555
C14 C9 1_555 1_555
H9 C14 1_555 1_555
C3 C8 1_555 1_555
C7 C8 1_555 1_555
C13 C14 1_555 1_555

#END
