
#######################################################################
#
#                 Cambridge Crystallographic Data Centre
#                                CCDC 
#
#######################################################################
#
# If this CIF has been generated from an entry in the Cambridge 
# Structural Database, then it will include bibliographic, chemical, 
# crystal, experimental, refinement or atomic coordinate data resulting 
# from the CCDC's data processing and validation procedures.
#
#######################################################################

data_TUPMOI
_chemical_formula_moiety         'C16 H18 N4 O3 2+,2(Cl1 O4 1-)'
_chemical_name_systematic        
'1-(ethoxycarbonyl)-4-[(naphthalen-1-yloxy)methyl]-4,5-dihydro-1H-1,2,3-triazol-3-ium diperchlorate'
_symmetry_cell_setting           monoclinic
_symmetry_space_group_name_H-M   'P 21/c'
_symmetry_Int_Tables_number      14
_space_group_name_Hall           '-P 2ybc'
loop_
_symmetry_equiv_pos_site_id
_symmetry_equiv_pos_as_xyz
1 x,y,z
2 -x,1/2+y,1/2-z
3 -x,-y,-z
4 x,1/2-y,1/2+z
_cell_length_a                   16.8233(4)
_cell_length_b                   6.6778(2)
_cell_length_c                   18.9912(4)
_cell_angle_alpha                90
_cell_angle_beta                 101.312(2)
_cell_angle_gamma                90
_cell_volume                     2092.07
_exptl_crystal_description       block
_cell_formula_units_Z            4
loop_
_atom_site_label
_atom_site_type_symbol
_atom_site_fract_x
_atom_site_fract_y
_atom_site_fract_z
Cl1 Cl 0.60580(4) 0.57827(10) 0.61523(3)
O1 O 0.63538(14) 0.5721(4) 0.69135(11)
O2 O 0.53753(15) 0.4488(5) 0.59577(16)
O3 O 0.66984(13) 0.5110(3) 0.57969(12)
O4 O 0.58472(16) 0.7789(4) 0.59383(14)
Cl2 Cl 0.89937(3) 0.23748(10) 0.38693(3)
O5 O 0.81462(12) 0.2015(4) 0.38025(13)
O6 O 0.93901(14) 0.0681(4) 0.36363(13)
O7 O 0.93611(14) 0.2842(4) 0.45911(12)
O8 O 0.90932(14) 0.4063(4) 0.34154(16)
O9 O 0.69407(13) 0.9593(3) 0.78054(11)
O10 O 0.82483(10) 0.2115(3) 0.57719(9)
C1 C 0.88861(15) 0.4122(4) 0.67074(13)
C2 C 0.75191(16) 0.9056(4) 0.74613(14)
N1 N 0.67421(13) 0.1404(4) 0.50951(12)
H1 H 0.6879 0.2473 0.5362
N2 N 0.84520(13) 0.6274(3) 0.73912(11)
C3 C 0.57450(18) -0.0461(5) 0.43222(17)
H2 H 0.5203 -0.0590 0.4066
C4 C 0.84898(18) -0.2855(4) 0.49757(15)
H3 H 0.8894 -0.3838 0.4959
C5 C 0.6445(2) 1.1283(6) 0.7504(2)
H4 H 0.6773 1.2523 0.7574
H5 H 0.6256 1.1079 0.6982
O11 O 0.76708(14) 0.9835(3) 0.69335(12)
N3 N 0.91840(13) 0.6906(4) 0.73518(12)
C6 C 0.87044(16) -0.1084(4) 0.53767(14)
H6 H 0.9250 -0.0878 0.5615
C7 C 0.73239(15) 0.0003(4) 0.50539(13)
C8 C 0.82398(15) 0.4589(4) 0.70130(14)
H7 H 0.7744 0.3875 0.6968
C9 C 0.90105(15) 0.2394(4) 0.62440(15)
H8 H 0.9439 0.2696 0.5970
H9 H 0.9167 0.1179 0.6538
N4 N 0.94331(13) 0.5581(3) 0.69300(12)
H10 H 0.9910 0.5641 0.6805
C10 C 0.77205(17) -0.3185(4) 0.46140(15)
H11 H 0.7591 -0.4381 0.4345
C11 C 0.71113(16) -0.1735(4) 0.46413(14)
C12 C 0.79782(16) 0.7310(4) 0.78467(14)
H12 H 0.8346 0.7797 0.8286
H13 H 0.7590 0.6359 0.7995
C13 C 0.59774(17) 0.1219(5) 0.47486(16)
H14 H 0.5592 0.2228 0.4792
C14 C 0.81317(16) 0.0323(4) 0.54215(13)
C15 C 0.62985(18) -0.1917(5) 0.42741(16)
H15 H 0.6136 -0.3071 0.3990
C16 C 0.5767(3) 1.1489(8) 0.7840(3)
H16 H 0.5477 1.0210 0.7819
H17 H 0.5402 1.2520 0.7591
H18 H 0.5953 1.1879 0.8343
loop_
_geom_bond_atom_site_label_1
_geom_bond_atom_site_label_2
_geom_bond_site_symmetry_1
_geom_bond_site_symmetry_2
Cl1 O1 1_555 1_555
O2 Cl1 1_555 1_555
O3 Cl1 1_555 1_555
O4 Cl1 1_555 1_555
Cl2 O5 1_555 1_555
O6 Cl2 1_555 1_555
O7 Cl2 1_555 1_555
O8 Cl2 1_555 1_555
O9 C2 1_555 1_555
O10 C9 1_555 1_555
C1 C8 1_555 1_555
C2 O11 1_555 1_555
N1 H1 1_555 1_555
N2 N3 1_555 1_555
C3 H2 1_555 1_555
C4 H3 1_555 1_555
C5 O9 1_555 1_555
H4 C5 1_555 1_555
H5 C5 1_555 1_555
N3 N4 1_555 1_555
C6 C4 1_555 1_555
H6 C6 1_555 1_555
C7 N1 1_555 1_555
C8 N2 1_555 1_555
H7 C8 1_555 1_555
C9 C1 1_555 1_555
H8 C9 1_555 1_555
H9 C9 1_555 1_555
N4 C1 1_555 1_555
H10 N4 1_555 1_555
C10 C4 1_555 1_555
H11 C10 1_555 1_555
C11 C7 1_555 1_555
C12 C2 1_555 1_555
H12 C12 1_555 1_555
H13 C12 1_555 1_555
C13 N1 1_555 1_555
H14 C13 1_555 1_555
C14 O10 1_555 1_555
C15 C3 1_555 1_555
H15 C15 1_555 1_555
C16 C5 1_555 1_555
H16 C16 1_555 1_555
H17 C16 1_555 1_555
H18 C16 1_555 1_555
N2 C12 1_555 1_555
C3 C13 1_555 1_555
C6 C14 1_555 1_555
C7 C14 1_555 1_555
C10 C11 1_555 1_555
C11 C15 1_555 1_555

#END
