
#######################################################################
#
#                 Cambridge Crystallographic Data Centre
#                                CCDC 
#
#######################################################################
#
# If this CIF has been generated from an entry in the Cambridge 
# Structural Database, then it will include bibliographic, chemical, 
# crystal, experimental, refinement or atomic coordinate data resulting 
# from the CCDC's data processing and validation procedures.
#
#######################################################################

data_TUPNOI01
_chemical_formula_moiety         'C17 H10 F6 O4'
_chemical_name_systematic        
"4,4'-(1,1,1,3,3,3-Hexafluoropropane-2,2-diyl)dibenzoic acid"
_symmetry_cell_setting           monoclinic
_symmetry_space_group_name_H-M   'P 2/c'
_symmetry_Int_Tables_number      13
_space_group_name_Hall           '-P 2yc'
loop_
_symmetry_equiv_pos_site_id
_symmetry_equiv_pos_as_xyz
1 x,y,z
2 -x,y,1/2-z
3 -x,-y,-z
4 x,-y,1/2+z
_cell_length_a                   30.257(3)
_cell_length_b                   7.5419(6)
_cell_length_c                   15.2513(13)
_cell_angle_alpha                90
_cell_angle_beta                 104.405(2)
_cell_angle_gamma                90
_cell_volume                     3370.86
_exptl_crystal_colour            colorless
_exptl_crystal_description       prism
_cell_formula_units_Z            8
loop_
_atom_site_label
_atom_site_type_symbol
_atom_site_fract_x
_atom_site_fract_y
_atom_site_fract_z
C1 C 0.28713(10) 0.5719(4) -0.28143(17)
C2 C 0.32166(9) 0.6041(3) -0.19586(16)
C3 C 0.36352(9) 0.6789(3) -0.19373(16)
H1 H 0.3711 0.7044 -0.2478
C4 C 0.39432(8) 0.7167(3) -0.11243(17)
H2 H 0.4222 0.7684 -0.1123
C5 C 0.38364(8) 0.6773(3) -0.03052(15)
C6 C 0.34231(8) 0.5954(3) -0.03394(16)
H3 H 0.3352 0.5630 0.0198
C7 C 0.31160(9) 0.5610(3) -0.11494(16)
H4 H 0.2838 0.5082 -0.1153
C8 C 0.41615(8) 0.7135(4) 0.06368(16)
C9 C 0.38888(8) 0.7791(4) 0.13080(16)
C10 C 0.39879(8) 0.7301(3) 0.22136(16)
H5 H 0.4240 0.6592 0.2454
C11 C 0.37104(9) 0.7869(4) 0.27656(16)
H6 H 0.3779 0.7530 0.3371
C12 C 0.33363(9) 0.8925(3) 0.24228(16)
C13 C 0.32533(9) 0.9498(3) 0.15362(17)
H7 H 0.3010 1.0257 0.1305
C14 C 0.35295(9) 0.8947(4) 0.09937(16)
H8 H 0.3473 0.9364 0.0402
C15 C 0.30091(10) 0.9426(4) 0.29616(18)
C16 C 0.45132(11) 0.8588(6) 0.0605(2)
C17 C 0.44043(11) 0.5357(5) 0.0932(2)
F1 F 0.47470(6) 0.9057(3) 0.14343(12)
F2 F 0.48318(5) 0.8045(3) 0.01784(11)
F3 F 0.47692(6) 0.5514(3) 0.16385(11)
F4 F 0.45620(6) 0.4634(2) 0.02642(11)
F5 F 0.41306(6) 0.4171(2) 0.11607(11)
F6 F 0.43211(6) 1.0021(3) 0.01870(13)
O1 O 0.31136(6) 0.8893(3) 0.37968(12)
H9 H 0.2903 0.9119 0.4029
O2 O 0.26645(6) 1.0282(3) 0.26187(12)
O3 O 0.24754(7) 0.5405(3) -0.28239(11)
O4 O 0.30175(6) 0.5841(3) -0.35479(11)
H10 H 0.2803 0.5719 -0.3993
C18 C 0.21328(10) 0.0550(4) 0.43046(18)
C19 C 0.17941(9) 0.0968(3) 0.48293(16)
C20 C 0.18782(9) 0.0450(3) 0.57224(16)
H11 H 0.2146 -0.0154 0.5987
C21 C 0.15709(8) 0.0815(4) 0.62261(16)
H12 H 0.1632 0.0443 0.6826
C22 C 0.11693(8) 0.1731(3) 0.58543(15)
C23 C 0.10811(9) 0.2219(3) 0.49487(16)
H13 H 0.0811 0.2807 0.4679
C24 C 0.13921(9) 0.1837(3) 0.44443(16)
H14 H 0.1329 0.2172 0.3839
C25 C 0.11026(8) 0.2713(3) 0.74157(15)
C26 C 0.14770(8) 0.3807(3) 0.74813(16)
H15 H 0.1548 0.4198 0.6954
C27 C 0.17459(9) 0.4329(3) 0.83030(16)
H16 H 0.2001 0.5033 0.8327
C28 C 0.16392(9) 0.3814(3) 0.90971(16)
C29 C 0.12499(9) 0.2833(3) 0.90436(16)
H17 H 0.1165 0.2539 0.9571
C30 C 0.09804(8) 0.2275(3) 0.82102(17)
H18 H 0.0719 0.1608 0.8185
C31 C 0.08372(8) 0.2083(4) 0.64671(16)
C32 C 0.04865(10) 0.3538(5) 0.6083(2)
C33 C 0.05896(11) 0.0303(5) 0.6504(2)
C34 C 0.19636(10) 0.4253(4) 0.99682(17)
F7 F 0.06865(6) 0.4998(2) 0.58867(11)
F8 F 0.02446(6) 0.3991(3) 0.66745(11)
F9 F 0.01781(5) 0.3040(3) 0.53259(11)
F10 F 0.04454(6) -0.0418(2) 0.56786(11)
F11 F 0.08561(6) -0.0884(2) 0.70182(11)
F12 F 0.02148(6) 0.0466(3) 0.68193(12)
O5 O 0.23487(7) 0.4777(3) 0.99919(11)
O6 O 0.18128(6) 0.3998(3) 1.06872(11)
H19 H 0.2024 0.4108 1.1141
O7 O 0.24765(7) -0.0323(3) 0.46491(12)
O8 O 0.20396(6) 0.1143(3) 0.34840(12)
H20 H 0.2250 0.0907 0.3254
loop_
_geom_bond_atom_site_label_1
_geom_bond_atom_site_label_2
_geom_bond_site_symmetry_1
_geom_bond_site_symmetry_2
C1 C2 1_555 1_555
C2 C3 1_555 1_555
C3 H1 1_555 1_555
C4 C3 1_555 1_555
H2 C4 1_555 1_555
C5 C4 1_555 1_555
C6 C5 1_555 1_555
H3 C6 1_555 1_555
C7 C2 1_555 1_555
H4 C7 1_555 1_555
C8 C5 1_555 1_555
C9 C8 1_555 1_555
C10 C9 1_555 1_555
H5 C10 1_555 1_555
C11 C10 1_555 1_555
H6 C11 1_555 1_555
C12 C11 1_555 1_555
C13 C12 1_555 1_555
H7 C13 1_555 1_555
C14 C9 1_555 1_555
H8 C14 1_555 1_555
C15 C12 1_555 1_555
C16 C8 1_555 1_555
C17 C8 1_555 1_555
F1 C16 1_555 1_555
F2 C16 1_555 1_555
F3 C17 1_555 1_555
F4 C17 1_555 1_555
F5 C17 1_555 1_555
F6 C16 1_555 1_555
O1 C15 1_555 1_555
H9 O1 1_555 1_555
O2 C15 1_555 1_555
O3 C1 1_555 1_555
O4 C1 1_555 1_555
H10 O4 1_555 1_555
C18 C19 1_555 1_555
C19 C20 1_555 1_555
C20 H11 1_555 1_555
C21 C20 1_555 1_555
H12 C21 1_555 1_555
C22 C21 1_555 1_555
C23 C22 1_555 1_555
H13 C23 1_555 1_555
C24 C19 1_555 1_555
H14 C24 1_555 1_555
C25 C26 1_555 1_555
C26 H15 1_555 1_555
C27 C26 1_555 1_555
H16 C27 1_555 1_555
C28 C27 1_555 1_555
C29 C28 1_555 1_555
H17 C29 1_555 1_555
C30 C25 1_555 1_555
H18 C30 1_555 1_555
C31 C22 1_555 1_555
C32 C31 1_555 1_555
C33 C31 1_555 1_555
C34 C28 1_555 1_555
F7 C32 1_555 1_555
F8 C32 1_555 1_555
F9 C32 1_555 1_555
F10 C33 1_555 1_555
F11 C33 1_555 1_555
F12 C33 1_555 1_555
O5 C34 1_555 1_555
O6 C34 1_555 1_555
H19 O6 1_555 1_555
O7 C18 1_555 1_555
O8 C18 1_555 1_555
H20 O8 1_555 1_555
C6 C7 1_555 1_555
C13 C14 1_555 1_555
C23 C24 1_555 1_555
C25 C31 1_555 1_555
C29 C30 1_555 1_555

#END
