
#######################################################################
#
#                 Cambridge Crystallographic Data Centre
#                                CCDC 
#
#######################################################################
#
# If this CIF has been generated from an entry in the Cambridge 
# Structural Database, then it will include bibliographic, chemical, 
# crystal, experimental, refinement or atomic coordinate data resulting 
# from the CCDC's data processing and validation procedures.
#
#######################################################################

data_TUPNUN
_chemical_name_common            (alpha-Hydroxyphenylpropargyl)phosphonate
_chemical_formula_moiety         'C14 H19 O4 P1'
_chemical_name_systematic        
'Diethyl (1-hydroxy-1-methyl-3-phenyl-2-propynyl)phosphonate'
_symmetry_cell_setting           monoclinic
_symmetry_space_group_name_H-M   'C c'
_symmetry_Int_Tables_number      9
_space_group_name_Hall           'C -2yc'
loop_
_symmetry_equiv_pos_site_id
_symmetry_equiv_pos_as_xyz
1 x,y,z
2 x,-y,1/2+z
3 1/2+x,1/2+y,z
4 1/2+x,1/2-y,1/2+z
_cell_length_a                   22.258(3)
_cell_length_b                   9.501(1)
_cell_length_c                   7.734(2)
_cell_angle_alpha                90
_cell_angle_beta                 109.68(1)
_cell_angle_gamma                90
_cell_volume                     1540
_exptl_crystal_colour            colorless
_cell_formula_units_Z            4
loop_
_atom_site_label
_atom_site_type_symbol
_atom_site_fract_x
_atom_site_fract_y
_atom_site_fract_z
P1 P 0.4468 0.8242(2) 0.0062
O1 O 0.4775(2) 0.8003(5) -0.2961(6)
H1 H 0.4577(2) 0.8695(5) -0.3597(6)
O2 O 0.4308(2) 0.9740(4) -0.0111(7)
O3 O 0.4080(2) 0.7342(5) 0.0987(7)
O4 O 0.5183(2) 0.7885(5) 0.1193(6)
C1 C 0.4371(3) 0.7368(7) -0.2115(8)
C2 C 0.3696(3) 0.7533(7) -0.3238(9)
C3 C 0.3156(3) 0.7737(7) -0.4140(9)
C4 C 0.2497(3) 0.8053(7) -0.5234(9)
C5 C 0.2370(3) 0.9197(8) -0.6404(9)
H2 H 0.2714(3) 0.9771(8) -0.6489(9)
C6 C 0.1747(4) 0.9517(9) -0.7433(10)
H3 H 0.1655(4) 1.0307(9) -0.8256(10)
C7 C 0.1245(4) 0.8711(10) -0.7266(11)
H4 H 0.0811(4) 0.8948(10) -0.7960(11)
C8 C 0.1381(4) 0.7580(9) -0.6090(12)
H5 H 0.1035(4) 0.7014(9) -0.5998(12)
C9 C 0.1998(3) 0.7238(8) -0.5111(11)
H6 H 0.2085(3) 0.6439(8) -0.4304(11)
C10 C 0.4562(4) 0.5802(6) -0.1812(10)
H7 H 0.4507(4) 0.5362(6) -0.2973(10)
H8 H 0.4999(4) 0.5718(6) -0.1033(10)
H9 H 0.4292(4) 0.5348(6) -0.1240(10)
C11 C 0.3532(4) 0.7809(9) 0.1420(12)
H10 H 0.3387(4) 0.8697(9) 0.0838(12)
H11 H 0.3641(4) 0.7926(9) 0.2723(12)
C12 C 0.3018(4) 0.6809(11) 0.0776(15)
H12 H 0.2646(4) 0.7100(11) 0.1046(15)
H13 H 0.2912(4) 0.6703(11) -0.0527(15)
H14 H 0.3168(4) 0.5926(11) 0.1369(15)
C13 C 0.5453(4) 0.8282(13) 0.3102(11)
H15 H 0.5381(4) 0.7510(13) 0.3808(11)
H16 H 0.5248(4) 0.9103(13) 0.3367(11)
C14 C 0.6110(5) 0.8496(12) 0.3640(12)
H17 H 0.6290(5) 0.8713(12) 0.4924(12)
H18 H 0.6312(5) 0.7670(12) 0.3377(12)
H19 H 0.6178(5) 0.9273(12) 0.2933(12)
loop_
_geom_bond_atom_site_label_1
_geom_bond_atom_site_label_2
_geom_bond_site_symmetry_1
_geom_bond_site_symmetry_2
P1 O2 1_555 1_555
O1 H1 1_555 1_555
O3 P1 1_555 1_555
O4 P1 1_555 1_555
C1 P1 1_555 1_555
C2 C1 1_555 1_555
C3 C2 1_555 1_555
C4 C3 1_555 1_555
C5 C4 1_555 1_555
H2 C5 1_555 1_555
C6 C5 1_555 1_555
H3 C6 1_555 1_555
C7 C6 1_555 1_555
H4 C7 1_555 1_555
C8 C7 1_555 1_555
H5 C8 1_555 1_555
C9 C4 1_555 1_555
H6 C9 1_555 1_555
C10 C1 1_555 1_555
H7 C10 1_555 1_555
H8 C10 1_555 1_555
H9 C10 1_555 1_555
C11 O3 1_555 1_555
H10 C11 1_555 1_555
H11 C11 1_555 1_555
C12 C11 1_555 1_555
H12 C12 1_555 1_555
H13 C12 1_555 1_555
H14 C12 1_555 1_555
C13 O4 1_555 1_555
H15 C13 1_555 1_555
H16 C13 1_555 1_555
C14 C13 1_555 1_555
H17 C14 1_555 1_555
H18 C14 1_555 1_555
H19 C14 1_555 1_555
O1 C1 1_555 1_555
C8 C9 1_555 1_555

#END
