
#######################################################################
#
#                 Cambridge Crystallographic Data Centre
#                                CCDC 
#
#######################################################################
#
# If this CIF has been generated from an entry in the Cambridge 
# Structural Database, then it will include bibliographic, chemical, 
# crystal, experimental, refinement or atomic coordinate data resulting 
# from the CCDC's data processing and validation procedures.
#
#######################################################################

data_TUPRUT
_chemical_formula_moiety         'C24 H12 N2 S2'
_chemical_name_systematic        
(3,4-diphenyl-7H-thieno[3',4':3,4]cyclopenta[1,2-c]thiophen-7-ylidene)malononitrile
_symmetry_cell_setting           triclinic
_symmetry_space_group_name_H-M   'P -1'
_symmetry_Int_Tables_number      2
_space_group_name_Hall           '-P 1'
loop_
_symmetry_equiv_pos_site_id
_symmetry_equiv_pos_as_xyz
1 x,y,z
2 -x,-y,-z
_cell_length_a                   8.5690(19)
_cell_length_b                   9.647(2)
_cell_length_c                   13.030(3)
_cell_angle_alpha                69.226(5)
_cell_angle_beta                 72.615(4)
_cell_angle_gamma                79.106(4)
_cell_volume                     956.925
_exptl_crystal_colour            red
_exptl_crystal_description       sheet
_cell_formula_units_Z            2
loop_
_atom_site_label
_atom_site_type_symbol
_atom_site_fract_x
_atom_site_fract_y
_atom_site_fract_z
S1 S 0.17446(19) 0.17768(19) 0.03211(12)
S2 S 0.92755(18) 0.3698(2) -0.22241(13)
C1 C 0.6409(6) 0.2858(5) -0.1232(4)
C2 C 0.4693(6) 0.2442(6) -0.0666(4)
C3 C 0.6902(6) 0.3331(6) -0.0468(4)
C4 C 0.4270(6) 0.2668(6) 0.0431(4)
C5 C 0.5730(7) 0.3453(6) 0.1533(5)
C6 C 0.5653(6) 0.3191(5) 0.0587(4)
C7 C 0.3202(7) 0.1747(6) -0.1862(4)
C8 C 0.7560(6) 0.2969(6) -0.2230(5)
C9 C 0.7672(7) 0.2554(6) -0.3235(5)
C10 C 0.4401(8) 0.3270(7) 0.2518(5)
C11 C 0.3655(7) 0.2799(7) -0.2930(5)
H1 H 0.4158 0.3620 -0.3014
C12 C 0.3436(7) 0.1966(6) -0.0855(4)
N1 N 0.8391(8) 0.4196(8) 0.1660(5)
C13 C 0.8447(7) 0.3830(7) -0.0903(5)
H2 H 0.8961 0.4189 -0.0525
C14 C 0.7219(8) 0.3883(7) 0.1596(5)
C15 C 0.2720(7) 0.2340(7) 0.1056(5)
H3 H 0.2257 0.2412 0.1781
N2 N 0.3342(8) 0.3105(8) 0.3317(5)
C16 C 0.3362(9) 0.2632(8) -0.3863(5)
H4 H 0.3690 0.3326 -0.4576
C17 C 0.7259(9) 0.1172(7) -0.3117(6)
H5 H 0.6874 0.0510 -0.2398
C18 C 0.2108(11) 0.0387(8) -0.2687(7)
H6 H 0.1587 -0.0421 -0.2607
C19 C 0.2415(9) 0.0554(7) -0.1759(5)
H7 H 0.2088 -0.0148 -0.1049
C20 C 0.2585(11) 0.1439(9) -0.3736(7)
H8 H 0.2378 0.1337 -0.4366
C21 C 0.8246(9) 0.3525(8) -0.4321(5)
H9 H 0.8522 0.4455 -0.4411
C22 C 0.7421(13) 0.0785(9) -0.4059(7)
H10 H 0.7132 -0.0139 -0.3972
C23 C 0.8000(14) 0.1734(10) -0.5132(7)
H11 H 0.8119 0.1451 -0.5765
C24 C 0.8406(12) 0.3122(10) -0.5257(6)
H12 H 0.8787 0.3779 -0.5978
loop_
_geom_bond_atom_site_label_1
_geom_bond_atom_site_label_2
_geom_bond_site_symmetry_1
_geom_bond_site_symmetry_2
S1 C12 1_555 1_555
S2 C8 1_555 1_555
C1 C2 1_555 1_555
C2 C4 1_555 1_555
C3 C1 1_555 1_555
C4 C6 1_555 1_555
C5 C6 1_555 1_555
C6 C3 1_555 1_555
C7 C11 1_555 1_555
C8 C1 1_555 1_555
C9 C8 1_555 1_555
C10 C5 1_555 1_555
C11 H1 1_555 1_555
C12 C2 1_555 1_555
N1 C14 1_555 1_555
C13 S2 1_555 1_555
H2 C13 1_555 1_555
C14 C5 1_555 1_555
C15 S1 1_555 1_555
H3 C15 1_555 1_555
N2 C10 1_555 1_555
C16 C11 1_555 1_555
H4 C16 1_555 1_555
C17 C9 1_555 1_555
H5 C17 1_555 1_555
C18 H6 1_555 1_555
C19 C7 1_555 1_555
H7 C19 1_555 1_555
C20 C16 1_555 1_555
H8 C20 1_555 1_555
C21 C9 1_555 1_555
H9 C21 1_555 1_555
C22 C17 1_555 1_555
H10 C22 1_555 1_555
C23 C22 1_555 1_555
H11 C23 1_555 1_555
C24 C21 1_555 1_555
H12 C24 1_555 1_555
C3 C13 1_555 1_555
C4 C15 1_555 1_555
C7 C12 1_555 1_555
C18 C19 1_555 1_555
C18 C20 1_555 1_555
C23 C24 1_555 1_555

#END
