
#######################################################################
#
#                 Cambridge Crystallographic Data Centre
#                                CCDC 
#
#######################################################################
#
# If this CIF has been generated from an entry in the Cambridge 
# Structural Database, then it will include bibliographic, chemical, 
# crystal, experimental, refinement or atomic coordinate data resulting 
# from the CCDC's data processing and validation procedures.
#
#######################################################################

data_TUPTEE
_chemical_formula_moiety         'C15 H10 F1 N1 O3'
_chemical_name_systematic        
(E)-3-(4-Fluorophenyl)-1-(2-nitrophenyl)prop-2-en-1-one
_symmetry_cell_setting           monoclinic
_symmetry_space_group_name_H-M   'P 21/n'
_symmetry_Int_Tables_number      14
_space_group_name_Hall           '-P 2yn'
loop_
_symmetry_equiv_pos_site_id
_symmetry_equiv_pos_as_xyz
1 x,y,z
2 1/2-x,1/2+y,1/2-z
3 -x,-y,-z
4 1/2+x,1/2-y,1/2+z
_cell_length_a                   7.7698(16)
_cell_length_b                   17.072(3)
_cell_length_c                   9.759(2)
_cell_angle_alpha                90
_cell_angle_beta                 96.72(3)
_cell_angle_gamma                90
_cell_volume                     1285.6
_exptl_crystal_colour            colorless
_exptl_crystal_description       bar
_cell_formula_units_Z            4
_exptl_crystal_recrystallization_method 'ethyl acetate'
loop_
_atom_site_label
_atom_site_type_symbol
_atom_site_fract_x
_atom_site_fract_y
_atom_site_fract_z
O1 O 0.08601(15) 0.10025(8) 0.43283(13)
C1 C 0.22626(19) 0.11601(9) 0.49650(15)
C2 C 0.18075(19) 0.04525(9) 0.70546(15)
H1 H 0.0871 0.0226 0.6517
C3 C 0.36095(18) 0.15551(8) 0.42269(14)
C4 C 0.27359(19) 0.09685(9) 0.64309(15)
H2 H 0.3689 0.1209 0.6924
C5 C 0.1386(2) -0.05036(9) 0.88492(16)
H3 H 0.0725 -0.0794 0.8173
F1 F 0.27941(18) -0.06060(9) 1.24775(11)
N1 N 0.13799(19) 0.23833(8) 0.29207(17)
C6 C 0.21056(19) 0.02052(9) 0.84967(15)
C7 C 0.3057(2) 0.06445(10) 0.95326(16)
H4 H 0.3536 0.1122 0.9317
C8 C 0.31757(19) 0.20928(9) 0.31805(16)
C9 C 0.5339(2) 0.13342(10) 0.44662(16)
H5 H 0.5685 0.0977 0.5165
C10 C 0.1637(2) -0.07817(11) 1.01808(18)
H6 H 0.1179 -0.1261 1.0408
C11 C 0.3287(2) 0.03713(12) 1.08766(17)
H7 H 0.3911 0.0661 1.1574
C12 C 0.2572(2) -0.03371(12) 1.11546(16)
C13 C 0.6559(2) 0.16380(12) 0.36778(19)
H8 H 0.7714 0.1487 0.3857
O2 O 0.07277(18) 0.26603(9) 0.38907(18)
C14 C 0.4367(2) 0.23925(11) 0.2374(2)
H9 H 0.4026 0.2745 0.1667
C15 C 0.6067(3) 0.21593(13) 0.2637(2)
H10 H 0.6888 0.2356 0.2106
O3 O 0.0655(2) 0.23414(11) 0.17437(17)
loop_
_geom_bond_atom_site_label_1
_geom_bond_atom_site_label_2
_geom_bond_site_symmetry_1
_geom_bond_site_symmetry_2
O1 C1 1_555 1_555
C1 C3 1_555 1_555
C2 H1 1_555 1_555
C3 C8 1_555 1_555
C4 C1 1_555 1_555
H2 C4 1_555 1_555
C5 H3 1_555 1_555
F1 C12 1_555 1_555
N1 C8 1_555 1_555
C6 C2 1_555 1_555
C7 C6 1_555 1_555
H4 C7 1_555 1_555
C8 C14 1_555 1_555
C9 C3 1_555 1_555
H5 C9 1_555 1_555
C10 C5 1_555 1_555
H6 C10 1_555 1_555
C11 C7 1_555 1_555
H7 C11 1_555 1_555
C12 C10 1_555 1_555
C13 C9 1_555 1_555
H8 C13 1_555 1_555
O2 N1 1_555 1_555
C14 H9 1_555 1_555
C15 C13 1_555 1_555
H10 C15 1_555 1_555
O3 N1 1_555 1_555
C2 C4 1_555 1_555
C5 C6 1_555 1_555
C11 C12 1_555 1_555
C14 C15 1_555 1_555

#END
