
#######################################################################
#
#                 Cambridge Crystallographic Data Centre
#                                CCDC 
#
#######################################################################
#
# If this CIF has been generated from an entry in the Cambridge 
# Structural Database, then it will include bibliographic, chemical, 
# crystal, experimental, refinement or atomic coordinate data resulting 
# from the CCDC's data processing and validation procedures.
#
#######################################################################

data_TUPTAZ01
_chemical_formula_moiety         'C40 H48 N2 O4'
_chemical_name_systematic        "Dimenthyl 4,4'-biquinoline-3,3'-dicarboxylate"
_symmetry_cell_setting           monoclinic
_symmetry_space_group_name_H-M   'P 21'
_symmetry_Int_Tables_number      4
_space_group_name_Hall           'P 2yb'
loop_
_symmetry_equiv_pos_site_id
_symmetry_equiv_pos_as_xyz
1 x,y,z
2 -x,1/2+y,-z
_cell_length_a                   14.750(4)
_cell_length_b                   8.243(2)
_cell_length_c                   14.786(4)
_cell_angle_alpha                90.00
_cell_angle_beta                 98.522(6)
_cell_angle_gamma                90.00
_cell_volume                     1777.9
_exptl_crystal_colour            colorless
_exptl_crystal_description       block
_cell_formula_units_Z            2
loop_
_atom_site_label
_atom_site_type_symbol
_atom_site_fract_x
_atom_site_fract_y
_atom_site_fract_z
C1 C 0.30950(18) 0.8701(3) 0.80750(17)
C2 C 0.37068(16) 0.5963(3) 0.75904(15)
O1 O 0.25254(12) 0.7891(2) 0.85219(12)
C3 C 0.36304(16) 0.7644(3) 0.75343(15)
C4 C 0.31887(17) 0.4965(3) 0.81953(15)
C5 C 0.23545(18) 0.4223(3) 0.78876(17)
C6 C 0.41201(18) 0.8446(4) 0.69088(18)
H1 H 0.4055 0.9566 0.6867
C7 C 0.47609(17) 0.6120(4) 0.64511(16)
C8 C 0.43056(16) 0.5171(3) 0.70547(15)
C9 C 0.20736(18) 0.8714(3) 0.92208(18)
H2 H 0.1945 0.9846 0.9042
C10 C 0.5442(2) 0.3712(5) 0.5927(2)
H3 H 0.5813 0.3214 0.5553
C11 C 0.5327(2) 0.5350(4) 0.58865(19)
H4 H 0.5620 0.5963 0.5488
O2 O 0.23052(12) 0.5075(2) 0.63599(11)
C12 C 0.44552(19) 0.3476(3) 0.70742(18)
H5 H 0.4172 0.2831 0.7467
C13 C 0.18551(19) 0.4291(3) 0.69319(17)
C14 C 0.5014(2) 0.2770(4) 0.6520(2)
H6 H 0.5107 0.1654 0.6542
C15 C 0.35636(19) 0.4761(3) 0.91382(17)
N1 N 0.46561(16) 0.7770(3) 0.63824(15)
C16 C 0.1897(2) 0.3371(3) 0.85261(19)
H7 H 0.1332 0.2907 0.8308
C17 C 0.2492(2) 0.4106(4) 0.48597(18)
H8 H 0.2444 0.2995 0.5064
H9 H 0.3131 0.4425 0.4988
C18 C 0.3044(2) 0.3886(3) 0.97085(18)
C19 C 0.19241(18) 0.5203(4) 0.53866(16)
H10 H 0.1283 0.4847 0.5291
N2 N 0.2208(2) 0.3189(3) 0.93930(17)
O3 O 0.31934(14) 1.0150(2) 0.81177(15)
C20 C 0.4417(2) 0.5441(4) 0.95276(18)
H11 H 0.4770 0.5996 0.9157
C21 C 0.2269(2) 0.9185(4) 1.09384(19)
H12 H 0.2079 1.0320 1.0845
C22 C 0.2171(2) 0.4196(5) 0.38325(19)
H13 H 0.1530 0.3842 0.3721
O4 O 0.11176(17) 0.3670(3) 0.67098(15)
C23 C 0.2720(2) 0.8654(4) 1.01135(19)
H14 H 0.3241 0.9352 1.0069
H15 H 0.2948 0.7555 1.0215
C24 C 0.4725(2) 0.5287(5) 1.0447(2)
H16 H 0.5282 0.5742 1.0700
C25 C 0.2948(3) 0.9087(6) 1.1819(2)
H17 H 0.2653 0.9427 1.2324
H18 H 0.3461 0.9782 1.1773
H19 H 0.3157 0.7989 1.1915
C26 C 0.3379(3) 0.3736(5) 1.0652(2)
H20 H 0.3044 0.3160 1.1031
C27 C 0.1661(3) 0.7068(4) 0.4062(2)
H21 H 0.1015 0.6798 0.3933
H22 H 0.1735 0.8173 0.3861
C28 C 0.1982(2) 0.6961(4) 0.51089(18)
H23 H 0.2632 0.7262 0.5216
C29 C 0.4190(3) 0.4431(5) 1.1004(2)
H24 H 0.4397 0.4341 1.1627
C30 C 0.2199(3) 0.5928(6) 0.3526(2)
H25 H 0.1949 0.5993 0.2882
H26 H 0.2832 0.6285 0.3594
C31 C 0.11757(18) 0.7803(3) 0.92333(18)
H27 H 0.1335 0.6653 0.9318
C32 C 0.0527(2) 0.7933(4) 0.8317(2)
H28 H 0.0900 0.7700 0.7836
C33 C 0.0740(2) 0.8324(4) 1.0078(2)
H29 H 0.0540 0.9443 1.0005
H30 H 0.0205 0.7658 1.0117
C34 C 0.1480(3) 0.8123(4) 0.5676(2)
H31 H 0.1713 0.7889 0.6318
C35 C 0.0130(3) 0.9632(5) 0.8120(3)
H32 H 0.0620 1.0409 0.8171
H33 H -0.0273 0.9890 0.8554
H34 H -0.0207 0.9664 0.7513
C36 C 0.1407(2) 0.8158(4) 1.0957(2)
H35 H 0.1581 0.7029 1.1048
H36 H 0.1108 0.8495 1.1468
C37 C 0.2720(3) 0.3064(7) 0.3292(3)
H37 H 0.2496 0.3159 0.2651
H38 H 0.2652 0.1965 0.3485
H39 H 0.3356 0.3362 0.3404
C38 C -0.0227(3) 0.6674(5) 0.8222(3)
H40 H 0.0038 0.5616 0.8338
H41 H -0.0560 0.6709 0.7613
H42 H -0.0636 0.6897 0.8654
C39 C 0.0439(3) 0.7865(7) 0.5563(3)
H43 H 0.0173 0.8634 0.5935
H44 H 0.0311 0.6784 0.5750
H45 H 0.0181 0.8016 0.4933
C40 C 0.1741(4) 0.9889(5) 0.5512(4)
H46 H 0.2396 0.9990 0.5595
H47 H 0.1497 1.0581 0.5939
H48 H 0.1492 1.0201 0.4900
loop_
_geom_bond_atom_site_label_1
_geom_bond_atom_site_label_2
_geom_bond_site_symmetry_1
_geom_bond_site_symmetry_2
C1 O1 1_555 1_555
C2 C3 1_555 1_555
O1 C9 1_555 1_555
C3 C1 1_555 1_555
C4 C2 1_555 1_555
C5 C4 1_555 1_555
C6 C3 1_555 1_555
H1 C6 1_555 1_555
C7 C8 1_555 1_555
C8 C2 1_555 1_555
C9 H2 1_555 1_555
C10 H3 1_555 1_555
C11 C7 1_555 1_555
H4 C11 1_555 1_555
O2 C13 1_555 1_555
C12 C8 1_555 1_555
H5 C12 1_555 1_555
C13 C5 1_555 1_555
C14 C10 1_555 1_555
H6 C14 1_555 1_555
C15 C4 1_555 1_555
N1 C6 1_555 1_555
C16 C5 1_555 1_555
H7 C16 1_555 1_555
C17 H8 1_555 1_555
H9 C17 1_555 1_555
C18 C15 1_555 1_555
C19 O2 1_555 1_555
H10 C19 1_555 1_555
N2 C16 1_555 1_555
O3 C1 1_555 1_555
C20 C15 1_555 1_555
H11 C20 1_555 1_555
C21 H12 1_555 1_555
C22 C17 1_555 1_555
H13 C22 1_555 1_555
O4 C13 1_555 1_555
C23 C9 1_555 1_555
H14 C23 1_555 1_555
H15 C23 1_555 1_555
C24 C20 1_555 1_555
H16 C24 1_555 1_555
C25 C21 1_555 1_555
H17 C25 1_555 1_555
H18 C25 1_555 1_555
H19 C25 1_555 1_555
C26 C18 1_555 1_555
H20 C26 1_555 1_555
C27 H21 1_555 1_555
H22 C27 1_555 1_555
C28 C19 1_555 1_555
H23 C28 1_555 1_555
C29 C24 1_555 1_555
H24 C29 1_555 1_555
C30 C22 1_555 1_555
H25 C30 1_555 1_555
H26 C30 1_555 1_555
C31 C9 1_555 1_555
H27 C31 1_555 1_555
C32 C31 1_555 1_555
H28 C32 1_555 1_555
C33 C31 1_555 1_555
H29 C33 1_555 1_555
H30 C33 1_555 1_555
C34 C28 1_555 1_555
H31 C34 1_555 1_555
C35 C32 1_555 1_555
H32 C35 1_555 1_555
H33 C35 1_555 1_555
H34 C35 1_555 1_555
C36 C21 1_555 1_555
H35 C36 1_555 1_555
H36 C36 1_555 1_555
C37 C22 1_555 1_555
H37 C37 1_555 1_555
H38 C37 1_555 1_555
H39 C37 1_555 1_555
C38 C32 1_555 1_555
H40 C38 1_555 1_555
H41 C38 1_555 1_555
H42 C38 1_555 1_555
C39 C34 1_555 1_555
H43 C39 1_555 1_555
H44 C39 1_555 1_555
H45 C39 1_555 1_555
C40 C34 1_555 1_555
H46 C40 1_555 1_555
H47 C40 1_555 1_555
H48 C40 1_555 1_555
C7 N1 1_555 1_555
C10 C11 1_555 1_555
C12 C14 1_555 1_555
C17 C19 1_555 1_555
C18 N2 1_555 1_555
C21 C23 1_555 1_555
C26 C29 1_555 1_555
C27 C28 1_555 1_555
C27 C30 1_555 1_555
C33 C36 1_555 1_555

#END
