
#######################################################################
#
#                 Cambridge Crystallographic Data Centre
#                                CCDC 
#
#######################################################################
#
# If this CIF has been generated from an entry in the Cambridge 
# Structural Database, then it will include bibliographic, chemical, 
# crystal, experimental, refinement or atomic coordinate data resulting 
# from the CCDC's data processing and validation procedures.
#
#######################################################################

data_TUPVOQ
_chemical_formula_moiety         'C20 H22 N2 O4'
_chemical_name_systematic        
'Diethyl 4-(4-cyanophenyl)-2,6-dimethyl-1,4-dihydropyridine-3,5-dicarboxylate'
_symmetry_cell_setting           monoclinic
_symmetry_space_group_name_H-M   'P 21/n'
_symmetry_Int_Tables_number      14
_space_group_name_Hall           '-P 2yn'
loop_
_symmetry_equiv_pos_site_id
_symmetry_equiv_pos_as_xyz
1 x,y,z
2 1/2-x,1/2+y,1/2-z
3 -x,-y,-z
4 1/2+x,1/2-y,1/2+z
_cell_length_a                   10.4596(13)
_cell_length_b                   9.5117(12)
_cell_length_c                   19.160(2)
_cell_angle_alpha                90
_cell_angle_beta                 91.4930(10)
_cell_angle_gamma                90
_cell_volume                     1905.55
_exptl_crystal_colour            colorless
_exptl_crystal_description       block
_cell_formula_units_Z            4
loop_
_atom_site_label
_atom_site_type_symbol
_atom_site_fract_x
_atom_site_fract_y
_atom_site_fract_z
C1 C 0.5366(2) 0.1062(3) 0.32734(12)
C2 C 0.4507(2) 0.0690(2) 0.27004(10)
C3 C 0.3890(2) -0.0596(3) 0.26959(12)
H1 H 0.4024 -0.1222 0.3063
C4 C 0.3078(2) -0.0948(2) 0.21466(12)
H2 H 0.2670 -0.1817 0.2145
C5 C 0.28599(19) -0.0030(2) 0.15987(10)
C6 C 0.3497(2) 0.1239(2) 0.16056(12)
H3 H 0.3378 0.1854 0.1233
C7 C 0.4306(2) 0.1614(2) 0.21529(12)
H4 H 0.4713 0.2483 0.2154
C8 C 0.19219(19) -0.0393(2) 0.09975(11)
H5 H 0.1533 -0.1305 0.1098
C9 C 0.2616(2) -0.0512(2) 0.03111(12)
C10 C 0.2559(2) 0.0529(3) -0.01647(11)
C11 C 0.08375(19) 0.1693(2) 0.04492(10)
C12 C 0.08624(18) 0.0706(2) 0.09551(10)
C13 C -0.0033(2) 0.0607(2) 0.15302(12)
C14 C -0.1644(3) 0.1750(3) 0.21848(15)
H6 H -0.1152 0.1750 0.2621
H7 H -0.2190 0.0925 0.2175
C15 C -0.2415(3) 0.3012(3) 0.2130(2)
H8 H -0.1871 0.3823 0.2168
H9 H -0.3019 0.3025 0.2498
H10 H -0.2864 0.3024 0.1687
C16 C -0.0089(2) 0.2888(3) 0.03443(13)
H11 H -0.0883 0.2659 0.0557
H12 H -0.0235 0.3045 -0.0146
H13 H 0.0261 0.3724 0.0555
C17 C 0.3287(3) 0.0650(4) -0.08253(13)
H14 H 0.4001 0.1272 -0.0752
H15 H 0.2735 0.1017 -0.1190
H16 H 0.3592 -0.0261 -0.0958
C18 C 0.3377(2) -0.1776(3) 0.01887(15)
C19 C 0.3950(6) -0.3990(5) 0.0605(3)
H17 H 0.3515 -0.4556 0.0251
H18 H 0.4793 -0.3765 0.0437
C20 C 0.4079(13) -0.4759(9) 0.1207(5)
H19 H 0.4549 -0.5603 0.1116
H20 H 0.3248 -0.4999 0.1371
H21 H 0.4530 -0.4213 0.1556
N1 N 0.6066(2) 0.1329(3) 0.37179(12)
N2 N 0.17490(18) 0.1647(2) -0.00618(9)
H22 H 0.1813 0.2363 -0.0333
O1 O 0.4059(2) -0.2026(3) -0.02939(13)
O2 O 0.3246(2) -0.2705(2) 0.06982(13)
O3 O -0.07949(16) 0.17231(17) 0.16008(9)
O4 O -0.00600(19) -0.0369(2) 0.19268(11)
C21? C 0.3114(12) -0.5133(12) 0.0522(12)
H23? H 0.4473 -0.3909 0.0196
H24? H 0.4514 -0.4147 0.1007
H25? H 0.3600 -0.5980 0.0467
H26? H 0.2573 -0.4988 0.0116
H27? H 0.2598 -0.5213 0.0927
loop_
_geom_bond_atom_site_label_1
_geom_bond_atom_site_label_2
_geom_bond_site_symmetry_1
_geom_bond_site_symmetry_2
C1 C2 1_555 1_555
C2 C3 1_555 1_555
C3 H1 1_555 1_555
C4 C3 1_555 1_555
H2 C4 1_555 1_555
C5 C4 1_555 1_555
C6 C5 1_555 1_555
H3 C6 1_555 1_555
C7 C2 1_555 1_555
H4 C7 1_555 1_555
C8 C5 1_555 1_555
H5 C8 1_555 1_555
C9 C8 1_555 1_555
C10 C9 1_555 1_555
C11 C12 1_555 1_555
C12 C8 1_555 1_555
C13 C12 1_555 1_555
C14 H6 1_555 1_555
H7 C14 1_555 1_555
C15 C14 1_555 1_555
H8 C15 1_555 1_555
H9 C15 1_555 1_555
H10 C15 1_555 1_555
C16 C11 1_555 1_555
H11 C16 1_555 1_555
H12 C16 1_555 1_555
H13 C16 1_555 1_555
C17 C10 1_555 1_555
H14 C17 1_555 1_555
H15 C17 1_555 1_555
H16 C17 1_555 1_555
C18 C9 1_555 1_555
C19 H17 1_555 1_555
H18 C19 1_555 1_555
C20 C19 1_555 1_555
H19 C20 1_555 1_555
H20 C20 1_555 1_555
H21 C20 1_555 1_555
N1 C1 1_555 1_555
N2 C10 1_555 1_555
H22 N2 1_555 1_555
O1 C18 1_555 1_555
O2 C18 1_555 1_555
O3 C13 1_555 1_555
O4 C13 1_555 1_555
C6 C7 1_555 1_555
C11 N2 1_555 1_555
C14 O3 1_555 1_555
C19 O2 1_555 1_555

#END
