
#######################################################################
#
#                 Cambridge Crystallographic Data Centre
#                                CCDC 
#
#######################################################################
#
# If this CIF has been generated from an entry in the Cambridge 
# Structural Database, then it will include bibliographic, chemical, 
# crystal, experimental, refinement or atomic coordinate data resulting 
# from the CCDC's data processing and validation procedures.
#
#######################################################################

data_TUQCOY
_chemical_name_common            
'Methyl 5-chloro-2-(4-methylbenzenesulfonamido)benzoate'
_chemical_formula_moiety         'C15 H14 Cl1 N1 O4 S1'
_chemical_name_systematic        
'Methyl 5-chloro-2-(((4-methylphenyl)sulfonyl)amino)benzoate'
_symmetry_cell_setting           monoclinic
_symmetry_space_group_name_H-M   'P 21/c'
_symmetry_Int_Tables_number      14
_space_group_name_Hall           '-P 2ybc'
loop_
_symmetry_equiv_pos_site_id
_symmetry_equiv_pos_as_xyz
1 x,y,z
2 -x,1/2+y,1/2-z
3 -x,-y,-z
4 x,1/2-y,1/2+z
_cell_length_a                   18.549(4)
_cell_length_b                   9.935(2)
_cell_length_c                   8.5190(17)
_cell_angle_alpha                90
_cell_angle_beta                 97.34(3)
_cell_angle_gamma                90
_cell_volume                     1557.05
_exptl_crystal_colour            colorless
_exptl_crystal_description       needle
_chemical_melting_point          '388 K'
_cell_formula_units_Z            4
loop_
_atom_site_label
_atom_site_type_symbol
_atom_site_fract_x
_atom_site_fract_y
_atom_site_fract_z
S1 S 0.29259(8) 0.49679(16) 1.24335(16)
Cl1 Cl -0.02197(9) 0.34294(17) 0.71715(19)
O1 O 0.3413(2) 0.4520(4) 1.3779(4)
O2 O 0.2559(2) 0.6236(4) 1.2478(5)
O3 O 0.2340(2) 0.1125(4) 1.2061(5)
O4 O 0.1500(2) 0.0066(4) 1.0409(4)
N1 N 0.2329(2) 0.3752(4) 1.2181(5)
H1 H 0.2374 0.3100 1.2850
C1 C 0.4669(4) 0.4931(9) 0.6934(7)
H2 H 0.4700 0.4028 0.6543
H3 H 0.5149 0.5252 0.7309
H4 H 0.4452 0.5503 0.6096
C2 C 0.4210(3) 0.4943(9) 0.8276(7)
C3 C 0.3884(4) 0.6094(7) 0.8730(8)
H5 H 0.3945 0.6885 0.8178
C4 C 0.3475(3) 0.6136(6) 0.9950(7)
H6 H 0.3264 0.6938 1.0224
C5 C 0.3382(3) 0.4966(6) 1.0771(6)
C6 C 0.3695(3) 0.3769(6) 1.0334(7)
H7 H 0.3630 0.2972 1.0871
C7 C 0.4102(3) 0.3791(7) 0.9098(8)
H8 H 0.4312 0.2994 0.8807
C8 C 0.1733(3) 0.3692(5) 1.0920(6)
C9 C 0.1384(3) 0.4848(5) 1.0265(7)
H9 H 0.1556 0.5690 1.0613
C10 C 0.0799(3) 0.4767(5) 0.9126(7)
H10 H 0.0573 0.5548 0.8710
C11 C 0.0539(3) 0.3519(6) 0.8589(6)
C12 C 0.0869(3) 0.2351(6) 0.9199(6)
H11 H 0.0690 0.1518 0.8832
C13 C 0.1475(3) 0.2419(5) 1.0376(6)
C14 C 0.1818(3) 0.1175(5) 1.1044(7)
C15 C 0.1805(4) -0.1223(5) 1.0982(8)
H12 H 0.1529 -0.1942 1.0445
H13 H 0.1786 -0.1294 1.2100
H14 H 0.2301 -0.1283 1.0778
loop_
_geom_bond_atom_site_label_1
_geom_bond_atom_site_label_2
_geom_bond_site_symmetry_1
_geom_bond_site_symmetry_2
S1 O1 1_555 1_555
Cl1 C11 1_555 1_555
O2 S1 1_555 1_555
O3 C14 1_555 1_555
O4 C14 1_555 1_555
N1 S1 1_555 1_555
H1 N1 1_555 1_555
C1 H2 1_555 1_555
H3 C1 1_555 1_555
H4 C1 1_555 1_555
C2 C1 1_555 1_555
C3 C2 1_555 1_555
H5 C3 1_555 1_555
C4 C3 1_555 1_555
H6 C4 1_555 1_555
C5 S1 1_555 1_555
C6 C5 1_555 1_555
H7 C6 1_555 1_555
C7 C2 1_555 1_555
H8 C7 1_555 1_555
C8 N1 1_555 1_555
C9 C8 1_555 1_555
H9 C9 1_555 1_555
C10 C9 1_555 1_555
H10 C10 1_555 1_555
C11 C10 1_555 1_555
C12 C11 1_555 1_555
H11 C12 1_555 1_555
C13 C8 1_555 1_555
C14 C13 1_555 1_555
C15 O4 1_555 1_555
H12 C15 1_555 1_555
H13 C15 1_555 1_555
H14 C15 1_555 1_555
C4 C5 1_555 1_555
C6 C7 1_555 1_555
C12 C13 1_555 1_555

#END
