
#######################################################################
#
#                 Cambridge Crystallographic Data Centre
#                                CCDC 
#
#######################################################################
#
# If this CIF has been generated from an entry in the Cambridge 
# Structural Database, then it will include bibliographic, chemical, 
# crystal, experimental, refinement or atomic coordinate data resulting 
# from the CCDC's data processing and validation procedures.
#
#######################################################################

data_TUQDUG
_chemical_formula_moiety         'C15 H17 F3 O3'
_chemical_name_systematic        
(1aR,7aS,10aS,10bS,E)-1a-Methyl-8-methylene-5-(trifluoromethyl)-2,3,6,7,7a,8,10a,10b-octahydrooxireno[9,10]cyclodeca[1,2-b]furan-9(1aH)-one
_chemical_properties_biological  'anticancer inhibitory activity'
_symmetry_cell_setting           orthorhombic
_symmetry_space_group_name_H-M   'P 21 21 21'
_symmetry_Int_Tables_number      19
_space_group_name_Hall           'P 2ac 2ab'
loop_
_symmetry_equiv_pos_site_id
_symmetry_equiv_pos_as_xyz
1 x,y,z
2 1/2+x,1/2-y,-z
3 -x,1/2+y,1/2-z
4 1/2-x,-y,1/2+z
_cell_length_a                   8.511(4)
_cell_length_b                   11.945(6)
_cell_length_c                   14.173(7)
_cell_angle_alpha                90
_cell_angle_beta                 90
_cell_angle_gamma                90
_cell_volume                     1440.88
_exptl_crystal_colour            colorless
_exptl_crystal_description       plate
_cell_formula_units_Z            4
loop_
_atom_site_label
_atom_site_type_symbol
_atom_site_fract_x
_atom_site_fract_y
_atom_site_fract_z
F1 F 0.73303(17) 0.30646(9) 0.34369(9)
F2 F 0.84848(14) 0.44270(11) 0.27199(9)
F3 F 0.66192(18) 0.35166(10) 0.20460(8)
O1 O 0.46468(14) 0.36831(11) 0.66377(8)
O2 O 0.61058(19) 0.25890(13) 0.75736(10)
O3 O 0.19546(14) 0.45886(13) 0.55417(10)
C1 C 0.48967(18) 0.44614(14) 0.58570(11)
H1 H 0.5011 0.5243 0.6101
C2 C 0.64402(19) 0.40737(13) 0.53878(11)
H2 H 0.6166 0.3486 0.4913
C3 C 0.7255(2) 0.35007(14) 0.61991(11)
C4 C 0.6016(2) 0.31826(15) 0.68894(12)
C5 C 0.35225(18) 0.43869(15) 0.51960(11)
H3 H 0.3596 0.3760 0.4730
C6 C 0.2620(2) 0.53595(16) 0.48567(13)
C7 C 0.1977(2) 0.52927(18) 0.38612(14)
H4 H 0.1037 0.5777 0.3807
H5 H 0.1655 0.4513 0.3723
C8 C 0.3225(2) 0.56702(16) 0.31377(13)
H6 H 0.2685 0.5864 0.2541
H7 H 0.3733 0.6360 0.3377
C9 C 0.4486(2) 0.48245(14) 0.29245(12)
H8 H 0.4220 0.4258 0.2482
C10 C 0.5932(2) 0.47771(13) 0.32836(11)
C11 C 0.6588(2) 0.55394(14) 0.40403(11)
H9 H 0.5715 0.6001 0.4289
H10 H 0.7349 0.6055 0.3740
C12 C 0.7411(2) 0.49699(16) 0.48828(12)
H11 H 0.8396 0.4623 0.4655
H12 H 0.7701 0.5554 0.5347
C13 C 0.8764(2) 0.33072(15) 0.63630(14)
H13 H 0.9080 0.2956 0.6934
H14 H 0.9530 0.3519 0.5910
C14 C 0.2822(3) 0.65254(18) 0.52504(16)
H15 H 0.3263 0.6480 0.5888
H16 H 0.1799 0.6901 0.5274
H17 H 0.3537 0.6952 0.4844
C15 C 0.7073(2) 0.39473(15) 0.28779(13)
loop_
_geom_bond_atom_site_label_1
_geom_bond_atom_site_label_2
_geom_bond_site_symmetry_1
_geom_bond_site_symmetry_2
F1 C15 1_555 1_555
F2 C15 1_555 1_555
F3 C15 1_555 1_555
O1 C1 1_555 1_555
O2 C4 1_555 1_555
O3 C5 1_555 1_555
C1 H1 1_555 1_555
C2 C1 1_555 1_555
H2 C2 1_555 1_555
C3 C2 1_555 1_555
C4 O1 1_555 1_555
C5 C1 1_555 1_555
H3 C5 1_555 1_555
C6 O3 1_555 1_555
C7 C6 1_555 1_555
H4 C7 1_555 1_555
H5 C7 1_555 1_555
C8 C7 1_555 1_555
H6 C8 1_555 1_555
H7 C8 1_555 1_555
C9 C8 1_555 1_555
H8 C9 1_555 1_555
C10 C9 1_555 1_555
C11 C10 1_555 1_555
H9 C11 1_555 1_555
H10 C11 1_555 1_555
C12 C2 1_555 1_555
H11 C12 1_555 1_555
H12 C12 1_555 1_555
C13 C3 1_555 1_555
H13 C13 1_555 1_555
H14 C13 1_555 1_555
C14 C6 1_555 1_555
H15 C14 1_555 1_555
H16 C14 1_555 1_555
H17 C14 1_555 1_555
C15 C10 1_555 1_555
C3 C4 1_555 1_555
C5 C6 1_555 1_555
C11 C12 1_555 1_555

#END
