
#######################################################################
#
#                 Cambridge Crystallographic Data Centre
#                                CCDC 
#
#######################################################################
#
# If this CIF has been generated from an entry in the Cambridge 
# Structural Database, then it will include bibliographic, chemical, 
# crystal, experimental, refinement or atomic coordinate data resulting 
# from the CCDC's data processing and validation procedures.
#
#######################################################################

data_TUQFUI
_chemical_formula_moiety         'C20 H24 N2 O1'
_chemical_name_systematic        
5,7-di-t-butyl-2-(pyridin-3-yl)-1,3-benzoxazole
_symmetry_cell_setting           orthorhombic
_symmetry_space_group_name_H-M   'P n m a'
_symmetry_Int_Tables_number      62
_space_group_name_Hall           '-P 2ac 2n'
loop_
_symmetry_equiv_pos_site_id
_symmetry_equiv_pos_as_xyz
1 x,y,z
2 1/2-x,-y,1/2+z
3 1/2+x,1/2-y,1/2-z
4 -x,1/2+y,-z
5 -x,-y,-z
6 1/2+x,y,1/2-z
7 1/2-x,1/2+y,1/2+z
8 x,1/2-y,z
_cell_length_a                   13.2500(9)
_cell_length_b                   7.2364(10)
_cell_length_c                   18.4216(12)
_cell_angle_alpha                90
_cell_angle_beta                 90
_cell_angle_gamma                90
_cell_volume                     1766.31
_exptl_crystal_colour            colorless
_exptl_crystal_description       platelet
_cell_formula_units_Z            4
loop_
_atom_site_label
_atom_site_type_symbol
_atom_site_fract_x
_atom_site_fract_y
_atom_site_fract_z
O1 O 0.1312(3) 0.7500 -0.0340(2)
N1 N 0.0479(4) 0.7500 0.0721(3)
N2 N -0.2296(6) 0.7500 -0.0518(8)
C1 C -0.1433(6) 0.7500 -0.0107(5)
H1 H -0.1486 0.7500 0.0396
C2 C -0.2169(11) 0.7500 -0.1255(8)
H2 H -0.2745 0.7500 -0.1544
C3 C -0.1262(9) 0.7500 -0.1592(6)
H3 H -0.1203 0.7500 -0.2095
C4 C -0.0464(7) 0.7500 -0.1161(5)
H4 H 0.0168 0.7500 -0.1381
C5 C -0.0489(5) 0.7500 -0.0421(4)
C6 C 0.0419(5) 0.7500 0.0030(4)
C7 C 0.2040(5) 0.7500 0.0213(3)
C8 C 0.3077(4) 0.7500 0.0134(3)
C9 C 0.3573(5) 0.7500 0.0800(3)
H5 H 0.4275 0.7500 0.0791
C10 C 0.3102(5) 0.7500 0.1488(3)
C11 C 0.2061(5) 0.7500 0.1500(3)
H6 H 0.1720 0.7500 0.1942
C12 C 0.1528(5) 0.7500 0.0863(3)
C13 C 0.3596(5) 0.7500 -0.0602(3)
C14 C 0.4747(5) 0.7500 -0.0548(4)
C15 C 0.3282(4) 0.5782(10) -0.1027(3)
H7 H 0.3476 0.4696 -0.0762
H8 H 0.3608 0.5783 -0.1492
H9 H 0.2563 0.5786 -0.1093
C16 C 0.3733(5) 0.7500 0.2177(3)
C17 C 0.4383(7) 0.9076(17) 0.2209(5)
H10 H 0.4512 0.9517 0.1727
H11 H 0.5009 0.8734 0.2435
H12 H 0.4066 1.0033 0.2488
C18 C 0.3140(9) 0.7500 0.2828(5)
C15G C 0.3282(4) 0.9218(10) -0.1027(3)
H7G H 0.3476 1.0304 -0.0762
H8G H 0.3608 0.9217 -0.1492
H9G H 0.2563 0.9214 -0.1093
C17G C 0.4383(7) 0.5924(17) 0.2209(5)
H10G H 0.4512 0.5483 0.1727
H11G H 0.5009 0.6266 0.2435
H12G H 0.4066 0.4967 0.2488
H13? H 0.4970 0.6350 -0.0343
H14? H 0.4961 0.8501 -0.0242
H15? H 0.5033 0.7649 -0.1023
H16? H 0.3473 0.6773 0.3192
H17? H 0.2487 0.6982 0.2728
H18? H 0.3063 0.8745 0.2999
loop_
_geom_bond_atom_site_label_1
_geom_bond_atom_site_label_2
_geom_bond_site_symmetry_1
_geom_bond_site_symmetry_2
O1 C6 1_555 1_555
N1 C6 1_555 1_555
N2 C1 1_555 1_555
C1 H1 1_555 1_555
C2 N2 1_555 1_555
H2 C2 1_555 1_555
C3 C2 1_555 1_555
H3 C3 1_555 1_555
C4 C3 1_555 1_555
H4 C4 1_555 1_555
C5 C1 1_555 1_555
C6 C5 1_555 1_555
C7 O1 1_555 1_555
C8 C7 1_555 1_555
C9 C8 1_555 1_555
H5 C9 1_555 1_555
C10 C9 1_555 1_555
C11 C10 1_555 1_555
H6 C11 1_555 1_555
C12 N1 1_555 1_555
C13 C8 1_555 1_555
C14 C13 1_555 1_555
C15 C13 1_555 1_555
H7 C15 1_555 1_555
H8 C15 1_555 1_555
H9 C15 1_555 1_555
C16 C10 1_555 1_555
C17 C16 1_555 1_555
H10 C17 1_555 1_555
H11 C17 1_555 1_555
H12 C17 1_555 1_555
C18 C16 1_555 1_555
C15G C13 1_555 1_555
H7G C15G 1_555 1_555
H8G C15G 1_555 1_555
H9G C15G 1_555 1_555
C17G C16 1_555 1_555
H10G C17G 1_555 1_555
H11G C17G 1_555 1_555
H12G C17G 1_555 1_555
C4 C5 1_555 1_555
C7 C12 1_555 1_555
C11 C12 1_555 1_555

#END
