
#######################################################################
#
#                 Cambridge Crystallographic Data Centre
#                                CCDC 
#
#######################################################################
#
# If this CIF has been generated from an entry in the Cambridge 
# Structural Database, then it will include bibliographic, chemical, 
# crystal, experimental, refinement or atomic coordinate data resulting 
# from the CCDC's data processing and validation procedures.
#
#######################################################################

data_TUQFIW
_chemical_formula_moiety         'C16 H15 N1 O2'
_chemical_name_systematic        
'ethyl 9-methylpyrido[2,1-a]isoindole-6-carboxylate'
_symmetry_cell_setting           triclinic
_symmetry_space_group_name_H-M   'P -1'
_symmetry_Int_Tables_number      2
_space_group_name_Hall           '-P 1'
loop_
_symmetry_equiv_pos_site_id
_symmetry_equiv_pos_as_xyz
1 x,y,z
2 -x,-y,-z
_cell_length_a                   9.2965(2)
_cell_length_b                   10.0338(2)
_cell_length_c                   14.6358(3)
_cell_angle_alpha                91.2363(11)
_cell_angle_beta                 97.6220(11)
_cell_angle_gamma                101.4119(11)
_cell_volume                     1324.79
_exptl_crystal_colour            'light yellow'
_exptl_crystal_description       block
_cell_formula_units_Z            4
loop_
_atom_site_label
_atom_site_type_symbol
_atom_site_fract_x
_atom_site_fract_y
_atom_site_fract_z
C1 C 0.0912(2) 0.4568(2) 0.39286(14)
H1 H 0.0831 0.5064 0.3401
C2 C -0.0124(2) 0.3423(2) 0.40225(17)
H2 H -0.0916 0.3148 0.3555
C3 C -0.0020(3) 0.2659(2) 0.48016(18)
H3 H -0.0736 0.1884 0.4855
C4 C 0.1143(2) 0.30586(19) 0.54863(16)
H4 H 0.1228 0.2547 0.6006
C5 C 0.2206(2) 0.42297(17) 0.54129(13)
C6 C 0.34673(19) 0.49121(17) 0.60028(12)
C7 C 0.4099(2) 0.45999(19) 0.68752(13)
H5 H 0.3673 0.3819 0.715
C8 C 0.5340(2) 0.5444(2) 0.73218(13)
C9 C 0.5961(2) 0.6614(2) 0.68770(13)
H6 H 0.6802 0.7192 0.7182
C10 C 0.5388(2) 0.69378(18) 0.60222(13)
H7 H 0.584 0.7712 0.5751
C11 C 0.41027(18) 0.60822(16) 0.55576(12)
C12 C 0.32290(18) 0.61151(17) 0.46938(12)
C13 C 0.6067(3) 0.5139(2) 0.82548(15)
H8 H 0.5383 0.4483 0.8536
H9 H 0.6352 0.5961 0.864
H10 H 0.693 0.4778 0.8184
C14 C 0.3395(2) 0.70417(17) 0.39676(13)
C15 C 0.4971(2) 0.9028(2) 0.35307(14)
H11 H 0.4185 0.9536 0.3412
H12 H 0.508 0.8587 0.2955
C16 C 0.6385(2) 0.9958(2) 0.39185(16)
H13 H 0.6271 1.037 0.4496
H14 H 0.6637 1.0654 0.3494
H15 H 0.716 0.9449 0.4016
N1 N 0.20750(15) 0.49764(14) 0.46248(10)
O1 O 0.25885(16) 0.70037(14) 0.32391(10)
O2 O 0.46232(14) 0.80322(12) 0.42004(8)
C17 C 0.3485(2) -0.0533(2) -0.12623(15)
H16 H 0.3505 -0.0044 -0.1795
C18 C 0.4073(3) -0.1663(2) -0.11992(19)
H17 H 0.4491 -0.1947 -0.1693
C19 C 0.4063(3) -0.2409(2) -0.0408(2)
H18 H 0.4482 -0.3178 -0.0371
C20 C 0.3438(2) -0.2004(2) 0.03070(17)
H19 H 0.3423 -0.25 0.0836
C21 C 0.28165(19) -0.08470(18) 0.02528(13)
C22 C 0.20970(18) -0.01889(17) 0.08687(12)
C23 C 0.1761(2) -0.05095(18) 0.17505(12)
H20 H 0.2041 -0.1262 0.2028
C24 C 0.1022(2) 0.02857(19) 0.22028(12)
C25 C 0.0595(2) 0.14100(19) 0.17474(13)
H21 H 0.0071 0.194 0.2049
C26 C 0.09153(19) 0.17529(17) 0.08904(12)
H22 H 0.0621 0.2503 0.0619
C27 C 0.16981(18) 0.09536(16) 0.04243(12)
C28 C 0.21882(19) 0.10020(17) -0.04505(12)
C29 C 0.0666(3) -0.0005(2) 0.31596(14)
H23 H 0.0966 -0.0832 0.3346
H24 H -0.0381 -0.0102 0.3164
H25 H 0.1187 0.0734 0.358
C30 C 0.2088(2) 0.19352(19) -0.11683(14)
C31 C 0.1129(4) 0.3886(3) -0.16168(17)
H26 H 0.206 0.4341 -0.1801
H27 H 0.0509 0.3409 -0.2158
C32 C 0.0414(4) 0.4856(3) -0.12485(19)
H28 H -0.0526 0.4404 -0.1094
H29 H 0.0264 0.5515 -0.1699
H30 H 0.102 0.5306 -0.0704
N2 N 0.28569(16) -0.01083(15) -0.05378(10)
O3 O 0.25359(19) 0.18973(15) -0.19086(11)
O4 O 0.14003(17) 0.29273(13) -0.09243(9)
loop_
_geom_bond_atom_site_label_1
_geom_bond_atom_site_label_2
_geom_bond_site_symmetry_1
_geom_bond_site_symmetry_2
C1 H1 1_555 1_555
C2 C1 1_555 1_555
H2 C2 1_555 1_555
C3 C2 1_555 1_555
H3 C3 1_555 1_555
C4 C3 1_555 1_555
H4 C4 1_555 1_555
C5 C4 1_555 1_555
C6 C5 1_555 1_555
C7 C6 1_555 1_555
H5 C7 1_555 1_555
C8 C7 1_555 1_555
C9 C8 1_555 1_555
H6 C9 1_555 1_555
C10 C9 1_555 1_555
H7 C10 1_555 1_555
C11 C6 1_555 1_555
C12 C11 1_555 1_555
C13 C8 1_555 1_555
H8 C13 1_555 1_555
H9 C13 1_555 1_555
H10 C13 1_555 1_555
C14 C12 1_555 1_555
C15 H11 1_555 1_555
H12 C15 1_555 1_555
C16 C15 1_555 1_555
H13 C16 1_555 1_555
H14 C16 1_555 1_555
H15 C16 1_555 1_555
N1 C1 1_555 1_555
O1 C14 1_555 1_555
O2 C14 1_555 1_555
C17 H16 1_555 1_555
C18 C17 1_555 1_555
H17 C18 1_555 1_555
C19 C18 1_555 1_555
H18 C19 1_555 1_555
C20 C19 1_555 1_555
H19 C20 1_555 1_555
C21 C20 1_555 1_555
C22 C21 1_555 1_555
C23 C22 1_555 1_555
H20 C23 1_555 1_555
C24 C23 1_555 1_555
C25 C24 1_555 1_555
H21 C25 1_555 1_555
C26 C25 1_555 1_555
H22 C26 1_555 1_555
C27 C22 1_555 1_555
C28 C27 1_555 1_555
C29 C24 1_555 1_555
H23 C29 1_555 1_555
H24 C29 1_555 1_555
H25 C29 1_555 1_555
C30 C28 1_555 1_555
C31 H26 1_555 1_555
H27 C31 1_555 1_555
C32 C31 1_555 1_555
H28 C32 1_555 1_555
H29 C32 1_555 1_555
H30 C32 1_555 1_555
N2 C17 1_555 1_555
O3 C30 1_555 1_555
O4 C30 1_555 1_555
C5 N1 1_555 1_555
C10 C11 1_555 1_555
C12 N1 1_555 1_555
C15 O2 1_555 1_555
C21 N2 1_555 1_555
C26 C27 1_555 1_555
C28 N2 1_555 1_555
C31 O4 1_555 1_555

#END
