
#######################################################################
#
#                 Cambridge Crystallographic Data Centre
#                                CCDC 
#
#######################################################################
#
# If this CIF has been generated from an entry in the Cambridge 
# Structural Database, then it will include bibliographic, chemical, 
# crystal, experimental, refinement or atomic coordinate data resulting 
# from the CCDC's data processing and validation procedures.
#
#######################################################################

data_TUQGIW01
_chemical_formula_moiety         'C12 H24 O6,C7 H10 N1 1+,B1 F4 1-'
_chemical_name_systematic        
'4-Methylanilinium 18-crown-6 tetrafluoroborate'
_symmetry_cell_setting           orthorhombic
_symmetry_space_group_name_H-M   'P b c m'
_symmetry_Int_Tables_number      57
_space_group_name_Hall           '-P 2c 2b'
loop_
_symmetry_equiv_pos_site_id
_symmetry_equiv_pos_as_xyz
1 x,y,z
2 -x,-y,1/2+z
3 -x,1/2+y,1/2-z
4 x,1/2-y,-z
5 -x,-y,-z
6 x,y,1/2-z
7 x,1/2-y,1/2+z
8 -x,1/2+y,z
_cell_length_a                   8.7203(17)
_cell_length_b                   15.861(3)
_cell_length_c                   17.378(4)
_cell_angle_alpha                90
_cell_angle_beta                 90
_cell_angle_gamma                90
_cell_volume                     2403.6
_cell_formula_units_Z            4
loop_
_atom_site_label
_atom_site_type_symbol
_atom_site_fract_x
_atom_site_fract_y
_atom_site_fract_z
B1 B 0.427(7) 0.2500 0.5000
F1 F 0.463(2) 0.1752(13) 0.4844(19)
F2 F 0.580(3) 0.2333(10) 0.5497(14)
F1C F 0.463(2) 0.3248(13) 0.5156(19)
F2C F 0.580(3) 0.2667(10) 0.4503(14)
C6 C 0.792(3) 0.072(2) 0.4433(9)
H3 H 0.7272 0.0892 0.4828
O1 O 0.760(3) 0.0181(9) 0.3823(14)
O2 O 1.064(3) 0.1449(14) 0.3792(13)
O3 O 1.194(2) 0.142(2) 0.2500
C7 C 0.949(4) 0.097(2) 0.4311(13)
H4 H 0.9986 0.0421 0.4334
H5 H 0.9719 0.1223 0.4806
C8 C 1.188(3) 0.174(2) 0.322(2)
H6 H 1.1784 0.2347 0.3167
H7 H 1.2866 0.1632 0.3454
H8 H 0.5362 0.0115 0.3930
H9 H 0.6210 -0.0756 0.4064
H10 H 0.6044 -0.1000 0.2898
C9 C 0.617(3) -0.0420(16) 0.2850(17)
C10 C 0.621(3) -0.0238(19) 0.377(2)
C6E C 0.792(3) 0.072(2) 0.0567(9)
H3E H 0.7272 0.0892 0.0172
O1E O 0.760(3) 0.0181(9) 0.1177(14)
O2E O 1.064(3) 0.1449(14) 0.1208(13)
C7E C 0.949(4) 0.097(2) 0.0689(13)
H4E H 0.9986 0.0421 0.0666
H5E H 0.9719 0.1223 0.0194
C8E C 1.188(3) 0.174(2) 0.178(2)
H6E H 1.1784 0.2347 0.1833
H7E H 1.2866 0.1632 0.1546
H8E H 0.5362 0.0115 0.1070
H9E H 0.6210 -0.0756 0.0936
H10E H 0.6044 -0.1000 0.2102
C9E C 0.617(3) -0.0420(16) 0.2150(17)
C10E C 0.621(3) -0.0238(19) 0.123(2)
N1 N -0.0507(10) 1.0134(6) 0.2500
C1 C 0.2327(12) 0.7987(7) 0.2500
C2 C 0.0922(9) 0.9064(7) 0.3173(5)
H1 H 0.0630 0.9299 0.3641
C3 C 0.0405(13) 0.9419(8) 0.2500
C4 C 0.346(2) 0.7203(8) 0.2500
C5 C 0.1900(11) 0.8344(6) 0.3166(6)
H2 H 0.2246 0.8119 0.3628
C2E C 0.0922(9) 0.9064(7) 0.1827(5)
H1E H 0.0630 0.9299 0.1359
C5E C 0.1900(11) 0.8344(6) 0.1834(6)
H2E H 0.2246 0.8119 0.1372
H11? H 0.2922 0.6709 0.2670
H12? H 0.4303 0.7314 0.2841
H13? H 0.3844 0.7113 0.1989
H14? H -0.1358 1.0034 0.2232
H15? H 0.0004 1.0559 0.2286
H16? H -0.0752 1.0268 0.2982
loop_
_geom_bond_atom_site_label_1
_geom_bond_atom_site_label_2
_geom_bond_site_symmetry_1
_geom_bond_site_symmetry_2
N1 C3 1_555 1_555
C1 C4 1_555 1_555
C2 H1 1_555 1_555
C3 C2 1_555 1_555
C5 C1 1_555 1_555
H2 C5 1_555 1_555
B1 F1 1_555 1_555
F2 B1 1_555 1_555
C6 H3 1_555 1_555
O1 C6 1_555 1_555
O2 C7 1_555 1_555
O3 C8 1_555 1_555
C7 C6 1_555 1_555
H4 C7 1_555 1_555
H5 C7 1_555 1_555
C8 O2 1_555 1_555
H6 C8 1_555 1_555
H7 C8 1_555 1_555
H8 C10 1_555 1_555
H9 C10 1_555 1_555
H10 C9 1_555 1_555
C9 C10 1_555 1_555
C10 O1 1_555 1_555
C2E C3 1_555 1_555
H1E C2E 1_555 1_555
C5E C1 1_555 1_555
H2E C5E 1_555 1_555
F1C B1 1_555 1_555
F2C B1 1_555 1_555
C6E H3E 1_555 1_555
O1E C6E 1_555 1_555
O2E C7E 1_555 1_555
C7E C6E 1_555 1_555
H4E C7E 1_555 1_555
H5E C7E 1_555 1_555
C8E O3 1_555 1_555
H6E C8E 1_555 1_555
H7E C8E 1_555 1_555
H8E C10E 1_555 1_555
H9E C10E 1_555 1_555
H10E C9E 1_555 1_555
C9E C9 1_555 1_555
C10E O1E 1_555 1_555
C2 C5 1_555 1_555
C2E C5E 1_555 1_555
O2E C8E 1_555 1_555
C9E C10E 1_555 1_555

#END
