
#######################################################################
#
#                 Cambridge Crystallographic Data Centre
#                                CCDC 
#
#######################################################################
#
# If this CIF has been generated from an entry in the Cambridge 
# Structural Database, then it will include bibliographic, chemical, 
# crystal, experimental, refinement or atomic coordinate data resulting 
# from the CCDC's data processing and validation procedures.
#
#######################################################################

data_TUQHUJ
_chemical_formula_moiety         'C5 H14 N1 O1 1+,C2 F3 O2 1-'
_chemical_name_systematic        
'1-Methoxy-2-methylpropan-2-aminium 2,2,2-trifluoroacetate'
_symmetry_cell_setting           orthorhombic
_symmetry_space_group_name_H-M   'P 21 21 21'
_symmetry_Int_Tables_number      19
_space_group_name_Hall           'P 2ac 2ab'
loop_
_symmetry_equiv_pos_site_id
_symmetry_equiv_pos_as_xyz
1 x,y,z
2 1/2-x,-y,1/2+z
3 1/2+x,1/2-y,-z
4 -x,1/2+y,1/2-z
_cell_length_a                   6.6680(13)
_cell_length_b                   8.9900(18)
_cell_length_c                   17.862(4)
_cell_angle_alpha                90
_cell_angle_beta                 90
_cell_angle_gamma                90
_cell_volume                     1070.74
_exptl_crystal_colour            colorless
_exptl_crystal_description       block
_cell_formula_units_Z            4
loop_
_atom_site_label
_atom_site_type_symbol
_atom_site_fract_x
_atom_site_fract_y
_atom_site_fract_z
N1 N 0.4436(6) 0.2188(5) 0.4225(2)
H1 H 0.4554 0.1919 0.4702
H2 H 0.3281 0.2667 0.4159
H3 H 0.5450 0.2784 0.4102
O1 O 0.2833(6) -0.0471(5) 0.4723(2)
C1 C 0.1216(11) -0.1286(9) 0.5000(4)
H4 H 0.1419 -0.1486 0.5522
H5 H 0.1112 -0.2209 0.4732
H6 H 0.0003 -0.0725 0.4935
C2 C 0.2708(9) -0.0130(8) 0.3959(3)
H7 H 0.1465 0.0392 0.3857
H8 H 0.2719 -0.1040 0.3667
C3 C 0.4477(8) 0.0837(6) 0.3739(3)
C4 C 0.4273(10) 0.1332(8) 0.2930(3)
H9 H 0.2998 0.1808 0.2861
H10 H 0.4365 0.0482 0.2607
H11 H 0.5328 0.2020 0.2812
C5 C 0.6472(9) 0.0065(9) 0.3891(4)
H12 H 0.6533 -0.0230 0.4407
H13 H 0.7554 0.0737 0.3784
H14 H 0.6586 -0.0799 0.3578
F1 F 0.5540(9) 0.0216(7) 0.7374(2)
F2 F 0.7402(6) -0.0271(7) 0.6453(4)
F3 F 0.4744(7) -0.1451(5) 0.6637(3)
O2 O 0.5367(5) 0.1809(4) 0.5773(2)
O3 O 0.2549(5) 0.1057(5) 0.6350(2)
C6 C 0.5543(12) -0.0119(9) 0.6655(4)
C7 C 0.4376(8) 0.1040(6) 0.6208(3)
loop_
_geom_bond_atom_site_label_1
_geom_bond_atom_site_label_2
_geom_bond_site_symmetry_1
_geom_bond_site_symmetry_2
N1 H1 1_555 1_555
H2 N1 1_555 1_555
H3 N1 1_555 1_555
O1 C1 1_555 1_555
C1 H4 1_555 1_555
H5 C1 1_555 1_555
H6 C1 1_555 1_555
C2 O1 1_555 1_555
H7 C2 1_555 1_555
H8 C2 1_555 1_555
C3 N1 1_555 1_555
C4 C3 1_555 1_555
H9 C4 1_555 1_555
H10 C4 1_555 1_555
H11 C4 1_555 1_555
C5 C3 1_555 1_555
H12 C5 1_555 1_555
H13 C5 1_555 1_555
H14 C5 1_555 1_555
F1 C6 1_555 1_555
F2 C6 1_555 1_555
F3 C6 1_555 1_555
O2 C7 1_555 1_555
O3 C7 1_555 1_555
C6 C7 1_555 1_555
C2 C3 1_555 1_555

#END
