
#######################################################################
#
#                 Cambridge Crystallographic Data Centre
#                                CCDC 
#
#######################################################################
#
# If this CIF has been generated from an entry in the Cambridge 
# Structural Database, then it will include bibliographic, chemical, 
# crystal, experimental, refinement or atomic coordinate data resulting 
# from the CCDC's data processing and validation procedures.
#
#######################################################################

data_TUQLIB
_chemical_name_common            
2-[(2,4-Dihydroxybenzylidene)amino]-3',6'-bis(ethylamino)spiro[isoindoline-1,9'-xanthen]-3-one
_chemical_formula_moiety         'C35 H36 N4 O4'
_chemical_name_systematic        
3',6'-bis(diethylamino)-2-((2,4-dihydroxybenzylidene)amino)spiro[isoindole-1,9'-xanthen]-3(2H)-one
_symmetry_cell_setting           monoclinic
_symmetry_space_group_name_H-M   'P 21/c'
_symmetry_Int_Tables_number      14
_space_group_name_Hall           '-P 2ybc'
loop_
_symmetry_equiv_pos_site_id
_symmetry_equiv_pos_as_xyz
1 x,y,z
2 -x,1/2+y,1/2-z
3 -x,-y,-z
4 x,1/2-y,1/2+z
_cell_length_a                   9.4461(4)
_cell_length_b                   26.6905(12)
_cell_length_c                   12.2453(5)
_cell_angle_alpha                90
_cell_angle_beta                 104.423(2)
_cell_angle_gamma                90
_cell_volume                     2990
_exptl_crystal_colour            colorless
_exptl_crystal_description       block
_cell_formula_units_Z            4
loop_
_atom_site_label
_atom_site_type_symbol
_atom_site_fract_x
_atom_site_fract_y
_atom_site_fract_z
C1 C 0.3223(7) 0.6153(3) 0.9041(5)
H1 H 0.3370 0.6138 0.8294
H2 H 0.3921 0.5940 0.9532
H3 H 0.3348 0.6491 0.9313
C2 C 0.1753(7) 0.5984(2) 0.9018(4)
H4 H 0.1604 0.5990 0.9774
H5 H 0.1613 0.5644 0.8736
C3 C 0.0711(7) 0.6969(3) 0.9716(6)
H6 H 0.0060 0.7223 0.9861
H7 H 0.1598 0.7123 0.9635
H8 H 0.0932 0.6737 1.0335
C4 C 0.0080(7) 0.6728(3) 0.8778(5)
H9 H -0.0179 0.6983 0.8199
H10 H -0.0835 0.6601 0.8892
C5 C 0.0391(5) 0.62734(19) 0.7115(4)
C6 C -0.0518(5) 0.66052(17) 0.6381(4)
H11 H -0.0908 0.6879 0.6675
C7 C -0.0847(4) 0.65369(17) 0.5250(4)
H12 H -0.1472 0.6764 0.4792
C8 C -0.0288(4) 0.61409(15) 0.4742(3)
C9 C 0.0635(4) 0.58217(15) 0.5468(3)
C10 C 0.0969(5) 0.58814(18) 0.6619(4)
H13 H 0.1595 0.5654 0.7076
C11 C 0.1123(4) 0.53531(15) 0.3966(3)
C12 C 0.1954(5) 0.49728(16) 0.3683(4)
H14 H 0.2569 0.4789 0.4253
C13 C 0.1896(4) 0.48581(17) 0.2564(4)
C14 C 0.3593(6) 0.41531(19) 0.3137(4)
H15 H 0.3737 0.3835 0.2797
H16 H 0.3058 0.4088 0.3703
C15 C 0.5050(6) 0.4366(2) 0.3703(5)
H17 H 0.5603 0.4420 0.3154
H18 H 0.5563 0.4135 0.4265
H19 H 0.4920 0.4678 0.4053
C16 C 0.3493(8) 0.4691(3) 0.0552(6)
H20 H 0.3051 0.5018 0.0458
H21 H 0.3526 0.4560 -0.0172
H22 H 0.4468 0.4716 0.1023
C17 C 0.2632(7) 0.4358(2) 0.1076(5)
H23 H 0.2971 0.4017 0.1033
H24 H 0.1619 0.4373 0.0650
C18 C 0.0957(5) 0.51575(18) 0.1741(4)
H25 H 0.0884 0.5099 0.0980
C19 C 0.0150(5) 0.55344(17) 0.2056(4)
H26 H -0.0455 0.5726 0.1496
C20 C 0.0197(4) 0.56410(15) 0.3172(3)
C21 C -0.0665(4) 0.60681(15) 0.3484(3)
C22 C -0.2316(4) 0.60356(16) 0.2994(3)
C23 C -0.3254(5) 0.56787(17) 0.3198(3)
H27 H -0.2916 0.5398 0.3635
C24 C -0.4729(5) 0.57535(19) 0.2726(4)
H28 H -0.5396 0.5519 0.2859
C25 C -0.5239(5) 0.6164(2) 0.2065(4)
H29 H -0.6240 0.6206 0.1777
C26 C -0.4286(5) 0.65122(17) 0.1826(4)
H30 H -0.4621 0.6785 0.1359
C27 C -0.2806(4) 0.64420(15) 0.2306(3)
C28 C -0.1560(4) 0.67624(17) 0.2241(4)
C29 C 0.1563(5) 0.70297(18) 0.2756(4)
H31 H 0.0997 0.7142 0.2066
C30 C 0.3057(5) 0.72331(17) 0.3196(4)
C31 C 0.3612(6) 0.75637(19) 0.2560(4)
H32 H 0.3067 0.7650 0.1842
C32 C 0.4987(6) 0.7771(2) 0.2981(5)
H33 H 0.5375 0.7990 0.2541
C33 C 0.5776(5) 0.7650(2) 0.4060(5)
C34 C 0.5267(5) 0.73148(19) 0.4713(4)
H34 H 0.5822 0.7228 0.5427
C35 C 0.3870(5) 0.71047(17) 0.4268(4)
N1 N 0.0690(5) 0.63236(18) 0.8272(4)
N2 N 0.2709(4) 0.44784(15) 0.2266(3)
N3 N -0.0361(3) 0.65359(12) 0.2909(3)
N4 N 0.1058(4) 0.67119(13) 0.3293(3)
O1 O -0.1568(3) 0.71531(11) 0.1705(3)
O2 O 0.7101(4) 0.78780(16) 0.4427(3)
H35 H 0.7411 0.7832 0.5106
O3 O 0.3414(4) 0.67909(15) 0.4958(3)
H36 H 0.2595 0.6687 0.4647
O4 O 0.1295(3) 0.54163(11) 0.5103(2)
loop_
_geom_bond_atom_site_label_1
_geom_bond_atom_site_label_2
_geom_bond_site_symmetry_1
_geom_bond_site_symmetry_2
C1 H1 1_555 1_555
H2 C1 1_555 1_555
H3 C1 1_555 1_555
C2 C1 1_555 1_555
H4 C2 1_555 1_555
H5 C2 1_555 1_555
C3 H6 1_555 1_555
H7 C3 1_555 1_555
H8 C3 1_555 1_555
C4 C3 1_555 1_555
H9 C4 1_555 1_555
H10 C4 1_555 1_555
C5 C6 1_555 1_555
C6 H11 1_555 1_555
C7 C6 1_555 1_555
H12 C7 1_555 1_555
C8 C7 1_555 1_555
C9 C8 1_555 1_555
C10 C5 1_555 1_555
H13 C10 1_555 1_555
C11 C12 1_555 1_555
C12 H14 1_555 1_555
C13 C12 1_555 1_555
C14 H15 1_555 1_555
H16 C14 1_555 1_555
C15 C14 1_555 1_555
H17 C15 1_555 1_555
H18 C15 1_555 1_555
H19 C15 1_555 1_555
C16 H20 1_555 1_555
H21 C16 1_555 1_555
H22 C16 1_555 1_555
C17 C16 1_555 1_555
H23 C17 1_555 1_555
H24 C17 1_555 1_555
C18 C13 1_555 1_555
H25 C18 1_555 1_555
C19 C18 1_555 1_555
H26 C19 1_555 1_555
C20 C11 1_555 1_555
C21 C8 1_555 1_555
C22 C21 1_555 1_555
C23 C22 1_555 1_555
H27 C23 1_555 1_555
C24 C23 1_555 1_555
H28 C24 1_555 1_555
C25 C24 1_555 1_555
H29 C25 1_555 1_555
C26 C25 1_555 1_555
H30 C26 1_555 1_555
C27 C22 1_555 1_555
C28 C27 1_555 1_555
C29 H31 1_555 1_555
C30 C29 1_555 1_555
C31 C30 1_555 1_555
H32 C31 1_555 1_555
C32 C31 1_555 1_555
H33 C32 1_555 1_555
C33 C32 1_555 1_555
C34 C33 1_555 1_555
H34 C34 1_555 1_555
C35 C30 1_555 1_555
N1 C2 1_555 1_555
N2 C13 1_555 1_555
N3 C21 1_555 1_555
N4 C29 1_555 1_555
O1 C28 1_555 1_555
O2 C33 1_555 1_555
H35 O2 1_555 1_555
O3 C35 1_555 1_555
H36 O3 1_555 1_555
O4 C9 1_555 1_555
C4 N1 1_555 1_555
C5 N1 1_555 1_555
C9 C10 1_555 1_555
C11 O4 1_555 1_555
C14 N2 1_555 1_555
C17 N2 1_555 1_555
C19 C20 1_555 1_555
C20 C21 1_555 1_555
C26 C27 1_555 1_555
C28 N3 1_555 1_555
C34 C35 1_555 1_555
N3 N4 1_555 1_555

#END
