
#######################################################################
#
#                 Cambridge Crystallographic Data Centre
#                                CCDC 
#
#######################################################################
#
# If this CIF has been generated from an entry in the Cambridge 
# Structural Database, then it will include bibliographic, chemical, 
# crystal, experimental, refinement or atomic coordinate data resulting 
# from the CCDC's data processing and validation procedures.
#
#######################################################################

data_TUQLEY
_chemical_formula_moiety         'C24 H16'
_chemical_name_systematic        2-(2-Naphthyl)anthracene
_symmetry_cell_setting           monoclinic
_symmetry_space_group_name_H-M   'P 21'
_symmetry_Int_Tables_number      4
_space_group_name_Hall           'P 2yb'
loop_
_symmetry_equiv_pos_site_id
_symmetry_equiv_pos_as_xyz
1 x,y,z
2 -x,1/2+y,-z
_cell_length_a                   8.2025(16)
_cell_length_b                   6.0189(12)
_cell_length_c                   15.347(3)
_cell_angle_alpha                90
_cell_angle_beta                 90.94(3)
_cell_angle_gamma                90
_cell_volume                     757.58
_exptl_crystal_colour            colorless
_exptl_crystal_description       rod
_cell_formula_units_Z            2
_exptl_crystal_recrystallization_method toluene
_exptl_crystal_preparation       Luminescent
loop_
_atom_site_label
_atom_site_type_symbol
_atom_site_fract_x
_atom_site_fract_y
_atom_site_fract_z
C1 C 0.8164(6) 0.0750(10) 0.0095(3)
H1 H 0.8701 -0.0296 -0.0241
C2 C 0.7774(6) 0.0178(11) 0.0911(3)
H2 H 0.8047 -0.1243 0.1101
C3 C 0.6995(5) 0.1561(8) 0.1485(2)
C4 C 0.6578(4) 0.1081(8) 0.2332(2)
H3 H 0.6905 -0.0279 0.2563
C5 C 0.5708(5) 0.2492(7) 0.2856(3)
C6 C 0.5265(4) 0.2015(8) 0.3719(2)
H4 H 0.5596 0.0677 0.3968
C7 C 0.4371(5) 0.3447(7) 0.4199(2)
H5 H 0.4082 0.3063 0.4762
C8 C 0.3877(5) 0.5514(9) 0.3851(2)
H6 H 0.3269 0.6478 0.4190
C9 C 0.4275(4) 0.6126(8) 0.3022(2)
H7 H 0.3950 0.7497 0.2800
C10 C 0.5213(4) 0.4601(6) 0.2495(2)
C11 C 0.5624(5) 0.5130(8) 0.1627(2)
H8 H 0.5303 0.6488 0.1392
C12 C 0.6502(5) 0.3643(8) 0.1122(2)
C13 C 0.6971(5) 0.4206(8) 0.0237(3)
H9 H 0.6681 0.5589 0.0012
C14 C 0.7824(5) 0.2767(8) -0.0275(2)
C15 C 0.8306(5) 0.3294(7) -0.1165(2)
C16 C 0.7876(5) 0.5398(7) -0.1547(2)
H10 H 0.7264 0.6392 -0.1223
C17 C 0.8332(4) 0.5999(7) -0.2371(2)
H11 H 0.8026 0.7370 -0.2601
C18 C 0.9280(4) 0.4494(7) -0.2871(2)
C19 C 0.9782(4) 0.5066(7) -0.3728(2)
H12 H 0.9485 0.6428 -0.3970
C20 C 1.0707(5) 0.3594(8) -0.4196(2)
H13 H 1.1027 0.3960 -0.4757
C21 C 1.1171(4) 0.1538(8) -0.3832(2)
H14 H 1.1806 0.0557 -0.4150
C22 C 1.0691(4) 0.0988(7) -0.3016(2)
H15 H 1.1012 -0.0372 -0.2783
C23 C 0.9726(5) 0.2409(8) -0.2515(2)
C24 C 0.9222(4) 0.1877(7) -0.1667(2)
H16 H 0.9520 0.0506 -0.1435
H17? H 0.7584 0.0549 0.1158
H18? H 0.8110 0.1388 -0.0046
C25? C 0.7132(14) 0.672(2) -0.0958(7)
H19? H 0.6874 0.8154 -0.1141
C26? C 0.6709(16) 0.617(2) -0.0105(8)
H20? H 0.6219 0.7253 0.0235
loop_
_geom_bond_atom_site_label_1
_geom_bond_atom_site_label_2
_geom_bond_site_symmetry_1
_geom_bond_site_symmetry_2
C1 H1 1_555 1_555
C2 C1 1_555 1_555
H2 C2 1_555 1_555
C3 C2 1_555 1_555
C4 C3 1_555 1_555
H3 C4 1_555 1_555
C5 C4 1_555 1_555
C6 C5 1_555 1_555
H4 C6 1_555 1_555
C7 C6 1_555 1_555
H5 C7 1_555 1_555
C8 C7 1_555 1_555
H6 C8 1_555 1_555
C9 C8 1_555 1_555
H7 C9 1_555 1_555
C10 C5 1_555 1_555
C11 C10 1_555 1_555
H8 C11 1_555 1_555
C12 C3 1_555 1_555
C13 C12 1_555 1_555
H9 C13 1_555 1_555
C14 C1 1_555 1_555
C15 C14 1_555 1_555
C16 C15 1_555 1_555
H10 C16 1_555 1_555
C17 C16 1_555 1_555
H11 C17 1_555 1_555
C18 C17 1_555 1_555
C19 C18 1_555 1_555
H12 C19 1_555 1_555
C20 C19 1_555 1_555
H13 C20 1_555 1_555
C21 C20 1_555 1_555
H14 C21 1_555 1_555
C22 C21 1_555 1_555
H15 C22 1_555 1_555
C23 C18 1_555 1_555
C24 C15 1_555 1_555
H16 C24 1_555 1_555
C9 C10 1_555 1_555
C11 C12 1_555 1_555
C13 C14 1_555 1_555
C22 C23 1_555 1_555
C23 C24 1_555 1_555

#END
