
#######################################################################
#
#                 Cambridge Crystallographic Data Centre
#                                CCDC 
#
#######################################################################
#
# If this CIF has been generated from an entry in the Cambridge 
# Structural Database, then it will include bibliographic, chemical, 
# crystal, experimental, refinement or atomic coordinate data resulting 
# from the CCDC's data processing and validation procedures.
#
#######################################################################

data_TUQMOI
_chemical_compound_source        'fruits of Evodia Rutaecarpa'
_chemical_name_common            
2-(2-(Methylamino)benzoyl)-2,3,4,9-tetrahydro-1H-beta-carbolin-1-one
_chemical_formula_moiety         'C19 H17 N3 O2'
_chemical_name_systematic        
2-[2-(Methylamino)benzoyl]-2,3,4,9-tetrahydro-1H-pyrido[3,4-b]indol-1-one
_symmetry_cell_setting           triclinic
_symmetry_space_group_name_H-M   'P -1'
_symmetry_Int_Tables_number      2
_space_group_name_Hall           '-P 1'
loop_
_symmetry_equiv_pos_site_id
_symmetry_equiv_pos_as_xyz
1 x,y,z
2 -x,-y,-z
_cell_length_a                   6.9255(14)
_cell_length_b                   8.8596(18)
_cell_length_c                   14.158(3)
_cell_angle_alpha                105.86(3)
_cell_angle_beta                 99.19(3)
_cell_angle_gamma                96.78(3)
_cell_volume                     812.851
_exptl_crystal_colour            colorless
_exptl_crystal_description       block
_chemical_melting_point          '476-478 K'
_cell_formula_units_Z            2
_exptl_crystal_recrystallization_method chloroform
loop_
_atom_site_label
_atom_site_type_symbol
_atom_site_fract_x
_atom_site_fract_y
_atom_site_fract_z
C1 C 0.2343(4) 0.4889(3) 0.70272(18)
C2 C 0.2159(5) 0.4684(4) 0.5997(2)
H1 H 0.1200 0.5114 0.5666
C3 C 0.3387(6) 0.3854(4) 0.5487(2)
H2 H 0.3264 0.3721 0.4804
C4 C 0.4830(5) 0.3197(4) 0.5969(2)
H3 H 0.5649 0.2635 0.5598
C5 C 0.5079(5) 0.3355(4) 0.6977(2)
H4 H 0.6045 0.2912 0.7294
C6 C 0.3818(4) 0.4208(3) 0.74992(18)
C7 C 0.2266(4) 0.5475(3) 0.86524(17)
C8 C 0.1368(4) 0.5674(3) 0.77794(17)
C9 C 0.1926(4) 0.6229(3) 0.96382(18)
C10 C -0.1135(4) 0.6735(3) 0.86977(18)
H5 H -0.2008 0.7521 0.8766
H6 H -0.1924 0.5710 0.8615
C11 C -0.0254(4) 0.6657(3) 0.77798(19)
H7 H -0.1274 0.6183 0.7180
H8 H 0.0279 0.7722 0.7785
C12 C 0.0042(4) 0.8140(3) 1.05117(19)
C13 C 0.1735(4) 0.9081(3) 1.13003(18)
C14 C 0.3506(4) 0.9590(3) 1.1046(2)
H9 H 0.3618 0.9271 1.0377
C15 C 0.5093(5) 1.0544(4) 1.1747(3)
H10 H 0.6256 1.0878 1.1556
C16 C 0.4929(5) 1.0999(4) 1.2738(3)
H11 H 0.5995 1.1644 1.3221
C17 C 0.3211(5) 1.0511(3) 1.3023(2)
H12 H 0.3145 1.0812 1.3699
C18 C 0.1559(4) 0.9570(3) 1.2313(2)
N1 N -0.0158(4) 0.9133(3) 1.26093(17)
H13 H -0.1170 0.8599 1.2155
C19 C -0.0355(6) 0.9518(5) 1.3638(2)
H14 H 0.0567 0.9042 1.3997
H15 H -0.1683 0.9118 1.3673
H16 H -0.0081 1.0653 1.3932
N2 N 0.3747(3) 0.4570(2) 0.84953(14)
H17 H 0.4487 0.4286 0.8942
N3 N 0.0427(3) 0.7161(2) 0.96226(14)
O1 O 0.2882(3) 0.6119(2) 1.04134(12)
O2 O -0.1687(3) 0.8243(3) 1.05672(15)
loop_
_geom_bond_atom_site_label_1
_geom_bond_atom_site_label_2
_geom_bond_site_symmetry_1
_geom_bond_site_symmetry_2
C1 C2 1_555 1_555
C2 H1 1_555 1_555
C3 C2 1_555 1_555
H2 C3 1_555 1_555
C4 C3 1_555 1_555
H3 C4 1_555 1_555
C5 C4 1_555 1_555
H4 C5 1_555 1_555
C6 C1 1_555 1_555
C7 C8 1_555 1_555
C8 C1 1_555 1_555
C9 C7 1_555 1_555
C10 H5 1_555 1_555
H6 C10 1_555 1_555
C11 C8 1_555 1_555
H7 C11 1_555 1_555
H8 C11 1_555 1_555
C12 C13 1_555 1_555
C13 C14 1_555 1_555
C14 H9 1_555 1_555
C15 C14 1_555 1_555
H10 C15 1_555 1_555
C16 C15 1_555 1_555
H11 C16 1_555 1_555
C17 C16 1_555 1_555
H12 C17 1_555 1_555
C18 C13 1_555 1_555
N1 C18 1_555 1_555
H13 N1 1_555 1_555
C19 N1 1_555 1_555
H14 C19 1_555 1_555
H15 C19 1_555 1_555
H16 C19 1_555 1_555
N2 C6 1_555 1_555
H17 N2 1_555 1_555
N3 C9 1_555 1_555
O1 C9 1_555 1_555
O2 C12 1_555 1_555
C5 C6 1_555 1_555
C7 N2 1_555 1_555
C10 C11 1_555 1_555
C10 N3 1_555 1_555
C12 N3 1_555 1_555
C17 C18 1_555 1_555

#END
