
#######################################################################
#
#                 Cambridge Crystallographic Data Centre
#                                CCDC 
#
#######################################################################
#
# If this CIF has been generated from an entry in the Cambridge 
# Structural Database, then it will include bibliographic, chemical, 
# crystal, experimental, refinement or atomic coordinate data resulting 
# from the CCDC's data processing and validation procedures.
#
#######################################################################

data_TUQMUN
_chemical_formula_moiety         '2(C1 H6 N3 1+),C4 H8 O6 S2 2-,2(C2 H3 N1)'
_chemical_name_systematic        
'bis(Guanidinium) 1,4-butanedisulfonate bis(acetonitrile) clathrate'
_symmetry_cell_setting           monoclinic
_symmetry_space_group_name_H-M   'C 2/c'
_symmetry_Int_Tables_number      15
_space_group_name_Hall           '-C 2yn'
loop_
_symmetry_equiv_pos_site_id
_symmetry_equiv_pos_as_xyz
1 x,y,z
2 -x,y,1/2-z
3 1/2+x,1/2+y,z
4 1/2-x,1/2+y,1/2-z
5 -x,-y,-z
6 x,-y,1/2+z
7 1/2-x,1/2-y,-z
8 1/2+x,1/2-y,1/2+z
_cell_length_a                   22.860(2)
_cell_length_b                   7.260(2)
_cell_length_c                   12.876(2)
_cell_angle_alpha                90
_cell_angle_beta                 106.629(9)
_cell_angle_gamma                90
_cell_volume                     2047.58
_exptl_crystal_colour            colorless
_chemical_melting_point          475-477K
_cell_formula_units_Z            4
loop_
_atom_site_label
_atom_site_type_symbol
_atom_site_fract_x
_atom_site_fract_y
_atom_site_fract_z
S1 S 0.35220(4) 0.2451(2) 0.14888(6)
O1 O 0.3276(1) 0.0814(4) 0.0846(2)
O2 O 0.3387(1) 0.2472(4) 0.2530(2)
O3 O 0.3341(1) 0.4161(4) 0.0880(2)
C1 C 0.4325(2) 0.2300(7) 0.1788(3)
C2 C 0.4657(2) 0.3907(6) 0.2441(4)
H1 H 0.448(2) 0.116(6) 0.223(3)
H2 H 0.443(2) 0.217(5) 0.115(3)
H3 H 0.457(2) 0.387(6) 0.325(3)
H4 H 0.447(2) 0.514(6) 0.210(3)
C2A C 0.5343(2) 0.3907(6) 0.2559(4)
C1A C 0.5675(2) 0.2300(7) 0.3212(3)
S1A S 0.64780(4) 0.2451(2) 0.35112(6)
O1A O 0.6724(1) 0.0814(4) 0.4154(2)
O2A O 0.6613(1) 0.2472(4) 0.2470(2)
O3A O 0.6659(1) 0.4161(4) 0.4120(2)
H1A H 0.552(2) 0.116(6) 0.277(3)
H2A H 0.557(2) 0.217(5) 0.385(3)
H3A H 0.543(2) 0.387(6) 0.175(3)
H4A H 0.553(2) 0.514(6) 0.290(3)
N1 N 0.5368(2) -0.1778(8) 0.1169(5)
C3 C 0.4874(2) -0.2019(7) 0.0728(4)
C4 C 0.4244(2) -0.2297(8) 0.0165(4)
H5 H 0.4145 -0.3560 0.0203
H6 H 0.4000 -0.1570 0.0493
H7 H 0.4171 -0.1943 -0.0570
N2 N 0.3083(2) -0.2541(6) 0.1958(2)
N3 N 0.3068(2) -0.0947(5) 0.3490(3)
N4 N 0.3113(2) -0.4107(5) 0.3511(3)
C5 C 0.3094(2) -0.2522(7) 0.2987(3)
H8 H 0.310(2) -0.162(6) 0.167(3)
H9 H 0.312(2) 0.001(6) 0.320(3)
H10 H 0.308(2) -0.086(6) 0.417(3)
H11 H 0.314(2) -0.414(6) 0.415(3)
H12 H 0.312(2) -0.503(6) 0.319(4)
H13 H 0.312(2) -0.356(6) 0.162(3)
loop_
_geom_bond_atom_site_label_1
_geom_bond_atom_site_label_2
_geom_bond_site_symmetry_1
_geom_bond_site_symmetry_2
S1 O1 1_555 1_555
O2 S1 1_555 1_555
O3 S1 1_555 1_555
C1 S1 1_555 1_555
C2 C1 1_555 1_555
H1 C1 1_555 1_555
H2 C1 1_555 1_555
H3 C2 1_555 1_555
H4 C2 1_555 1_555
N1 C3 1_555 1_555
C3 C4 1_555 1_555
C4 H5 1_555 1_555
H6 C4 1_555 1_555
H7 C4 1_555 1_555
N2 C5 1_555 1_555
N3 C5 1_555 1_555
N4 C5 1_555 1_555
H8 N2 1_555 1_555
H9 N3 1_555 1_555
H10 N3 1_555 1_555
H11 N4 1_555 1_555
H12 N4 1_555 1_555
H13 N2 1_555 1_555
C2A C2 1_555 1_555
C1A C2A 1_555 1_555
S1A C1A 1_555 1_555
O1A S1A 1_555 1_555
O2A S1A 1_555 1_555
O3A S1A 1_555 1_555
H1A C1A 1_555 1_555
H2A C1A 1_555 1_555
H3A C2A 1_555 1_555
H4A C2A 1_555 1_555

#END
