
#######################################################################
#
#                 Cambridge Crystallographic Data Centre
#                                CCDC 
#
#######################################################################
#
# If this CIF has been generated from an entry in the Cambridge 
# Structural Database, then it will include bibliographic, chemical, 
# crystal, experimental, refinement or atomic coordinate data resulting 
# from the CCDC's data processing and validation procedures.
#
#######################################################################

data_TUQNEY
_chemical_formula_moiety         '2(C1 H6 N3 1+),O6 S2 2-'
_chemical_name_systematic        'bis(Guanidinium) dithionate'
_symmetry_cell_setting           hexagonal
_symmetry_space_group_name_H-M   'P 63 m c'
_symmetry_Int_Tables_number      186
_space_group_name_Hall           "P 6c -2'c"
loop_
_symmetry_equiv_pos_site_id
_symmetry_equiv_pos_as_xyz
1 x,y,z
2 x-y,x,1/2+z
3 y,x,1/2+z
4 -y,x-y,z
5 -x+y,y,z
6 -x,-y,1/2+z
7 -x,-x+y,1/2+z
8 -x+y,-x,z
9 -y,-x,z
10 y,-x+y,1/2+z
11 x-y,-y,1/2+z
12 x,x-y,z
_cell_length_a                   7.504(4)
_cell_length_b                   7.504(4)
_cell_length_c                   12.129(6)
_cell_angle_alpha                90
_cell_angle_beta                 90
_cell_angle_gamma                120
_cell_volume                     591.482
_exptl_crystal_colour            colorless
_chemical_melting_point          537-547deg.C(dec.)
_cell_formula_units_Z            2
loop_
_atom_site_label
_atom_site_type_symbol
_atom_site_fract_x
_atom_site_fract_y
_atom_site_fract_z
S1 S 0.6667 0.3333 0.1630
S2 S 0.6667 0.3333 0.3380(4)
O1 O 0.452(1) 0.2258 0.1332(7)
O2 O 0.8811(7) 0.4406 0.3668(6)
O2C O 0.5594 0.4405(7) 0.3668(6)
O2G O 0.5595(7) 0.1189(7) 0.3668(6)
O1C O 0.7742 0.2262(10) 0.1332(7)
O1G O 0.7738(10) 0.548(1) 0.1332(7)
N1 N 0.2314(7) 0.4627 0.137(1)
C1 C 0.3333 0.6667 0.136(1)
H1 H 0.3044 0.3894 0.1373
N1G N 0.2313(7) 0.7686(7) 0.137(1)
H1G H 0.0850 0.6956 0.1373
H1K H 0.3044 0.9150 0.1373
N1C N 0.5373 0.7687(7) 0.137(1)
H1C H 0.6106 0.9150 0.1373
H1H H 0.6106 0.6956 0.1373
H1D H 0.0850 0.3894 0.1373
N2 N 1.1021(5) 0.2042 0.3897(7)
C2 C 1.0000 0.0000 0.391(1)
H2 H 1.0290 0.2773 0.3880
N2G N 1.1021(5) -0.1021(5) 0.3897(7)
H2G H 1.2483 -0.0290 0.3880
H2K H 1.0290 -0.2483 0.3880
N2C N 0.7958 -0.1021(5) 0.3897(7)
H2C H 0.7227 -0.2483 0.3880
H2H H 0.7227 -0.0290 0.3880
H2D H 1.2483 0.2773 0.3880
loop_
_geom_bond_atom_site_label_1
_geom_bond_atom_site_label_2
_geom_bond_site_symmetry_1
_geom_bond_site_symmetry_2
S1 S2 1_555 1_555
S2 O2 1_555 1_555
O1 S1 1_555 1_555
N1 C1 1_555 1_555
C1 N1G 1_555 1_555
H1 N1 1_555 1_555
N2 C2 1_555 1_555
C2 N2G 1_555 1_555
H2 N2 1_555 1_555
O2C S2 1_555 1_555
O2G S2 1_555 1_555
O1C S1 1_555 1_555
O1G S1 1_555 1_555
N1G H1G 1_555 1_555
H1K N1G 1_555 1_555
N1C C1 1_555 1_555
H1C N1C 1_555 1_555
H1H N1C 1_555 1_555
H1D N1 1_555 1_555
N2G H2G 1_555 1_555
H2K N2G 1_555 1_555
N2C C2 1_555 1_555
H2C N2C 1_555 1_555
H2H N2C 1_555 1_555
H2D N2 1_555 1_555

#END
