
#######################################################################
#
#                 Cambridge Crystallographic Data Centre
#                                CCDC 
#
#######################################################################
#
# If this CIF has been generated from an entry in the Cambridge 
# Structural Database, then it will include bibliographic, chemical, 
# crystal, experimental, refinement or atomic coordinate data resulting 
# from the CCDC's data processing and validation procedures.
#
#######################################################################

data_TUQNID
_chemical_formula_moiety         'C12 H12 N6'
_chemical_name_systematic        
N-(2-Pyridylmethanimidamido)pyridine-2-carboximidamide
_symmetry_cell_setting           orthorhombic
_symmetry_space_group_name_H-M   'P b c a'
_symmetry_Int_Tables_number      61
_space_group_name_Hall           '-P 2ac 2ab'
loop_
_symmetry_equiv_pos_site_id
_symmetry_equiv_pos_as_xyz
1 x,y,z
2 1/2-x,-y,1/2+z
3 -x,1/2+y,1/2-z
4 1/2+x,1/2-y,-z
5 -x,-y,-z
6 1/2+x,y,1/2-z
7 x,1/2-y,1/2+z
8 1/2-x,1/2+y,z
_cell_length_a                   13.218(3)
_cell_length_b                   9.4979(19)
_cell_length_c                   19.811(4)
_cell_angle_alpha                90
_cell_angle_beta                 90
_cell_angle_gamma                90
_cell_volume                     2487.14
_exptl_crystal_colour            colorless
_exptl_crystal_description       prism
_cell_formula_units_Z            8
_exptl_crystal_recrystallization_method dichloromethane/methanol
loop_
_atom_site_label
_atom_site_type_symbol
_atom_site_fract_x
_atom_site_fract_y
_atom_site_fract_z
N1 N 0.15435(14) 0.0172(2) 0.56008(10)
H1 H 0.1516 -0.0618 0.5390
N2 N 0.09172(14) 0.0508(2) 0.61420(10)
H2 H 0.0979 0.1263 0.6379
C1 C 0.02347(17) -0.0432(2) 0.62501(12)
C2 C 0.21721(16) 0.1167(2) 0.54472(12)
C3 C 0.28736(18) 0.0908(2) 0.48714(12)
C4 C -0.04819(17) -0.0210(3) 0.68259(13)
C5 C -0.0456(2) 0.0985(3) 0.72202(14)
H3 H 0.0019 0.1687 0.7138
N3 N 0.22387(18) 0.2410(2) 0.57686(13)
H4 H 0.2221 0.2290 0.6143
N4 N 0.36735(17) 0.1762(2) 0.48319(13)
N5 N -0.11358(18) -0.1259(3) 0.69313(13)
N6 N 0.0109(2) -0.1617(3) 0.58838(14)
C6 C 0.2684(2) -0.0139(3) 0.44062(14)
H5 H 0.2111 -0.0701 0.4442
C7 C -0.1144(2) 0.1123(4) 0.77361(15)
H6 H -0.1142 0.1921 0.8008
C8 C 0.4310(3) 0.1556(4) 0.4320(2)
H7 H 0.4872 0.2141 0.4284
C9 C 0.3363(3) -0.0335(4) 0.38862(17)
H8 H 0.3263 -0.1046 0.3570
C10 C -0.1828(2) 0.0077(4) 0.78440(17)
H9 H -0.2307 0.0154 0.8186
C11 C 0.4181(3) 0.0526(4) 0.38424(19)
H10 H 0.4647 0.0419 0.3494
C12 C -0.1799(2) -0.1083(4) 0.7442(2)
H11 H -0.2264 -0.1797 0.7524
H12 H -0.035(3) -0.213(4) 0.596(2)
loop_
_geom_bond_atom_site_label_1
_geom_bond_atom_site_label_2
_geom_bond_site_symmetry_1
_geom_bond_site_symmetry_2
N1 H1 1_555 1_555
N2 N1 1_555 1_555
H2 N2 1_555 1_555
C1 N2 1_555 1_555
C2 N1 1_555 1_555
C3 C2 1_555 1_555
C4 C1 1_555 1_555
C5 C4 1_555 1_555
H3 C5 1_555 1_555
N3 C2 1_555 1_555
H4 N3 1_555 1_555
N4 C3 1_555 1_555
N5 C4 1_555 1_555
N6 C1 1_555 1_555
C6 C3 1_555 1_555
H5 C6 1_555 1_555
C7 C5 1_555 1_555
H6 C7 1_555 1_555
C8 N4 1_555 1_555
H7 C8 1_555 1_555
C9 C6 1_555 1_555
H8 C9 1_555 1_555
C10 C7 1_555 1_555
H9 C10 1_555 1_555
C11 C8 1_555 1_555
H10 C11 1_555 1_555
C12 N5 1_555 1_555
H11 C12 1_555 1_555
H12 N6 1_555 1_555
C9 C11 1_555 1_555
C10 C12 1_555 1_555

#END
