
#######################################################################
#
#                 Cambridge Crystallographic Data Centre
#                                CCDC 
#
#######################################################################
#
# If this CIF has been generated from an entry in the Cambridge 
# Structural Database, then it will include bibliographic, chemical, 
# crystal, experimental, refinement or atomic coordinate data resulting 
# from the CCDC's data processing and validation procedures.
#
#######################################################################

data_TUQNUO
_chemical_formula_moiety         '2(C1 H6 N3 1+),C10 H6 O6 S2 2-,C8 H15 N1'
_chemical_name_systematic        
'bis(Guanidinium) 1,5-naphthalenedisulfonate octanenitrile clathrate'
_symmetry_cell_setting           orthorhombic
_symmetry_space_group_name_H-M   'P n n m'
_symmetry_Int_Tables_number      58
_space_group_name_Hall           '-P 2 2n'
loop_
_symmetry_equiv_pos_site_id
_symmetry_equiv_pos_as_xyz
1 x,y,z
2 -x,-y,z
3 1/2+x,1/2-y,1/2-z
4 1/2-x,1/2+y,1/2-z
5 -x,-y,-z
6 x,y,-z
7 1/2-x,1/2+y,1/2+z
8 1/2+x,1/2-y,1/2+z
_cell_length_a                   8.9347(7)
_cell_length_b                   19.8373(14)
_cell_length_c                   7.6321(6)
_cell_angle_alpha                90
_cell_angle_beta                 90
_cell_angle_gamma                90
_cell_volume                     1352.72
_exptl_crystal_colour            colorless
_chemical_melting_point          589-591K
_cell_formula_units_Z            2
loop_
_atom_site_label
_atom_site_type_symbol
_atom_site_fract_x
_atom_site_fract_y
_atom_site_fract_z
N1 N -0.1850(4) 0.2003(2) 0.0000
H4 H -0.2213(4) 0.1846(2) 0.1021
N2 N -0.0356(3) 0.27418(14) 0.1505(3)
H5 H -0.0695(3) 0.25825(14) 0.2505(3)
H6 H 0.0312(3) 0.30678(14) 0.1501(3)
C6 C -0.0853(5) 0.2490(2) 0.0000
H4E H -0.2213(4) 0.1846(2) -0.1021
N2E N -0.0356(3) 0.27418(14) -0.1505(3)
H5E H -0.0695(3) 0.25825(14) -0.2505(3)
H6E H 0.0312(3) 0.30678(14) -0.1501(3)
N3 N 0.5448(12) 0.1121(8) 0.0000
C7 C 0.4182(12) 0.1177(6) 0.0000
C9 C 0.2037(6) 0.0360(2) 0.0000
C10 C 0.0331(6) 0.0354(2) 0.0000
H9 H -0.0022(6) 0.0591(2) -0.1016
C11 C 0.2772(13) 0.1052(4) 0.0000
H10 H 0.2453(13) 0.1301(4) 0.1012
C10A C -0.0331(6) -0.0354(2) 0.0000
C9A C -0.2037(6) -0.0360(2) 0.0000
C11A C -0.2772(13) -0.1052(4) 0.0000
C7A C -0.4182(12) -0.1177(6) 0.0000
N3A N -0.5448(12) -0.1121(8) 0.0000
H10A H -0.2453(13) -0.1301(4) 0.1012
H10D H -0.2453(13) -0.1301(4) -0.1012
H9A H 0.0022(6) -0.0591(2) -0.1016
H9D H 0.0022(6) -0.0591(2) 0.1016
H9E H -0.0022(6) 0.0591(2) 0.1016
H10E H 0.2453(13) 0.1301(4) -0.1012
S1 S 0.32698(14) 0.34570(6) 0.0000
O1 O 0.4001(4) 0.27997(15) 0.0000
O2 O 0.2392(3) 0.35728(11) 0.1587(3)
C1 C 0.4396(5) 0.4770(2) 0.0000
C2 C 0.4736(5) 0.4065(2) 0.0000
C3 C 0.6170(5) 0.3837(2) 0.0000
H1 H 0.6367(5) 0.3366(2) 0.0000
C4 C 0.7361(5) 0.4301(2) 0.0000
H2 H 0.8364(5) 0.4141(2) 0.0000
C5 C 0.2909(5) 0.5025(2) 0.0000
H3 H 0.2090(5) 0.4719(2) 0.0000
O2E O 0.2392(3) 0.35728(11) -0.1587(3)
C1A C 0.5604(5) 0.5230(2) 0.0000
C2A C 0.5264(5) 0.5935(2) 0.0000
S1A S 0.67302(14) 0.65430(6) 0.0000
O1A O 0.5999(4) 0.72003(15) 0.0000
O2A O 0.7608(3) 0.64272(11) 0.1587(3)
O2D O 0.7608(3) 0.64272(11) -0.1587(3)
C3A C 0.3830(5) 0.6163(2) 0.0000
H1A H 0.3633(5) 0.6634(2) 0.0000
C4A C 0.2639(5) 0.5699(2) 0.0000
H2A H 0.1636(5) 0.5859(2) 0.0000
C5A C 0.7091(5) 0.4975(2) 0.0000
H3A H 0.7910(5) 0.5281(2) 0.0000
C8? C 0.2481(12) 0.1105(3) 0.0000
H7? H 0.2080(12) 0.1318(3) -0.1027
H8? H 0.2437(6) 0.0147(2) 0.1027
C12? C -0.4477(13) -0.0994(7) 0.0000
H11? H -0.4849(13) -0.1448(7) 0.0000
H12? H -0.4828(13) -0.0763(7) 0.1027
loop_
_geom_bond_atom_site_label_1
_geom_bond_atom_site_label_2
_geom_bond_site_symmetry_1
_geom_bond_site_symmetry_2
S1 O1 1_555 1_555
O2 S1 1_555 1_555
C1 C2 1_555 1_555
C2 S1 1_555 1_555
C3 C2 1_555 1_555
H1 C3 1_555 1_555
C4 C3 1_555 1_555
H2 C4 1_555 1_555
C5 C1 1_555 1_555
H3 C5 1_555 1_555
N1 H4 1_555 1_555
N2 H5 1_555 1_555
H6 N2 1_555 1_555
C6 N1 1_555 1_555
N3 C7 1_555 1_555
C7 C11 1_555 1_555
C9 C10 1_555 1_555
C10 H9 1_555 1_555
C11 C9 1_555 1_555
H10 C11 1_555 1_555
O2E S1 1_555 1_555
C1A C1 1_555 1_555
C2A C1A 1_555 1_555
S1A C2A 1_555 1_555
O1A S1A 1_555 1_555
O2A S1A 1_555 1_555
O2D S1A 1_555 1_555
C3A C2A 1_555 1_555
H1A C3A 1_555 1_555
C4A C5 1_555 1_555
H2A C4A 1_555 1_555
C5A C4 1_555 1_555
H3A C5A 1_555 1_555
H4E N1 1_555 1_555
N2E C6 1_555 1_555
H5E N2E 1_555 1_555
H6E N2E 1_555 1_555
C10A C10 1_555 1_555
C9A C10A 1_555 1_555
C11A C9A 1_555 1_555
C7A C11A 1_555 1_555
N3A C7A 1_555 1_555
H10A C11A 1_555 1_555
H10D C11A 1_555 1_555
H9A C10A 1_555 1_555
H9D C10A 1_555 1_555
H9E C10 1_555 1_555
H10E C11 1_555 1_555
N2 C6 1_555 1_555
C1A C5A 1_555 1_555
C3A C4A 1_555 1_555

#END
