
#######################################################################
#
#                 Cambridge Crystallographic Data Centre
#                                CCDC 
#
#######################################################################
#
# If this CIF has been generated from an entry in the Cambridge 
# Structural Database, then it will include bibliographic, chemical, 
# crystal, experimental, refinement or atomic coordinate data resulting 
# from the CCDC's data processing and validation procedures.
#
#######################################################################

data_TUQPIE
_chemical_formula_moiety         '2(C1 H6 N3 1+),C10 H6 O6 S2 2-,C8 H18 O4'
_chemical_name_systematic        
'bis(Guanidinium) 1,5-naphthalenedisulfonate triglyme clathrate'
_symmetry_cell_setting           orthorhombic
_symmetry_space_group_name_H-M   'P b a m'
_symmetry_Int_Tables_number      55
_space_group_name_Hall           '-P 2 2ab'
loop_
_symmetry_equiv_pos_site_id
_symmetry_equiv_pos_as_xyz
1 x,y,z
2 -x,-y,z
3 1/2+x,1/2-y,-z
4 1/2-x,1/2+y,-z
5 -x,-y,-z
6 x,y,-z
7 1/2-x,1/2+y,z
8 1/2+x,1/2-y,z
_cell_length_a                   7.8476(1)
_cell_length_b                   19.0352(1)
_cell_length_c                   7.4494(1)
_cell_angle_alpha                90
_cell_angle_beta                 90
_cell_angle_gamma                90
_cell_volume                     1112.8
_exptl_crystal_colour            colorless
_chemical_melting_point          579-583K
_cell_formula_units_Z            2
loop_
_atom_site_label
_atom_site_type_symbol
_atom_site_fract_x
_atom_site_fract_y
_atom_site_fract_z
C6 C 0.6647(7) 0.2615(3) 0.0000
N1 N 0.6397(6) 0.2939(2) 0.1543(5)
H4 H 0.6615(6) 0.2721(2) 0.2559(5)
H5 H 0.6012(6) 0.3373(2) 0.1556(5)
N2 N 0.7212(8) 0.1978(3) 0.0000
H6 H 0.7367(8) 0.1750(3) 0.1046
N1E N 0.6397(6) 0.2939(2) -0.1543(5)
H4E H 0.6615(6) 0.2721(2) -0.2559(5)
H5E H 0.6012(6) 0.3373(2) -0.1556(5)
H6E H 0.7367(8) 0.1750(3) -0.1046
C7 C 0.1404(34) 0.0585(10) 0.0000
C10 C 0.3097(44) 0.0315(18) 0.0000
C12 C 0.0000 0.0000 0.0000
C7A C -0.1404(34) -0.0585(10) 0.0000
C10A C -0.3097(44) -0.0315(18) 0.0000
S1 S 0.7386(2) 0.15123(6) 0.5000
O1 O 0.6721(5) 0.2230(2) 0.5000
O2 O 0.8328(3) 0.13473(12) 0.3369(3)
C1 C 0.5757(6) 0.0211(2) 0.5000
C2 C 0.5569(6) 0.0953(2) 0.5000
C3 C 0.3986(6) 0.1263(2) 0.5000
H1 H 0.3891(6) 0.1760(2) 0.5000
C4 C 0.2503(7) 0.0845(3) 0.5000
H2 H 0.1413(7) 0.1062(3) 0.5000
C5 C 0.7371(6) -0.0128(2) 0.5000
H3 H 0.8388(6) 0.0153(2) 0.5000
O2E O 0.8328(3) 0.13473(12) 0.6631(3)
C1A C 0.4243(6) -0.0211(2) 0.5000
C2A C 0.4431(6) -0.0953(2) 0.5000
S1A S 0.2614(2) -0.15123(6) 0.5000
O1A O 0.3279(5) -0.2230(2) 0.5000
O2A O 0.1672(3) -0.13473(12) 0.3369(3)
O2D O 0.1672(3) -0.13473(12) 0.6631(3)
C3A C 0.6014(6) -0.1263(2) 0.5000
H1A H 0.6109(6) -0.1760(2) 0.5000
C4A C 0.7497(7) -0.0845(3) 0.5000
H2A H 0.8587(7) -0.1062(3) 0.5000
C5A C 0.2629(6) 0.0128(2) 0.5000
H3A H 0.1612(6) -0.0153(2) 0.5000
C8? C 0.1504(17) -0.0111(7) 0.0000
C9? C 0.2405(38) 0.0576(12) 0.0000
C11? C 0.0275(30) 0.0554(10) 0.0000
C13? C 0.4138(29) -0.0161(13) 0.0000
C14? C 0.3833(46) 0.0539(18) 0.0000
loop_
_geom_bond_atom_site_label_1
_geom_bond_atom_site_label_2
_geom_bond_site_symmetry_1
_geom_bond_site_symmetry_2
S1 O1 1_555 1_555
O2 S1 1_555 1_555
C1 C2 1_555 1_555
C2 S1 1_555 1_555
C3 C2 1_555 1_555
H1 C3 1_555 1_555
C4 C3 1_555 1_555
H2 C4 1_555 1_555
C5 C1 1_555 1_555
H3 C5 1_555 1_555
C6 N1 1_555 1_555
N1 H4 1_555 1_555
H5 N1 1_555 1_555
N2 C6 1_555 1_555
H6 N2 1_555 1_555
C7 C10 1_555 1_555
C12 C7 1_555 1_555
O2E S1 1_555 1_555
C1A C1 1_555 1_555
C2A C1A 1_555 1_555
S1A C2A 1_555 1_555
O1A S1A 1_555 1_555
O2A S1A 1_555 1_555
O2D S1A 1_555 1_555
C3A C2A 1_555 1_555
H1A C3A 1_555 1_555
C4A C5 1_555 1_555
H2A C4A 1_555 1_555
C5A C4 1_555 1_555
H3A C5A 1_555 1_555
N1E C6 1_555 1_555
H4E N1E 1_555 1_555
H5E N1E 1_555 1_555
H6E N2 1_555 1_555
C7A C12 1_555 1_555
C10A C7A 1_555 1_555
C1A C5A 1_555 1_555
C3A C4A 1_555 1_555

#END
