
#######################################################################
#
#                 Cambridge Crystallographic Data Centre
#                                CCDC 
#
#######################################################################
#
# If this CIF has been generated from an entry in the Cambridge 
# Structural Database, then it will include bibliographic, chemical, 
# crystal, experimental, refinement or atomic coordinate data resulting 
# from the CCDC's data processing and validation procedures.
#
#######################################################################

data_TUQPAX
_chemical_formula_moiety         'C15 H16 S2'
_chemical_name_systematic        bis(Benzylsulfanyl)methane
_symmetry_cell_setting           monoclinic
_symmetry_space_group_name_H-M   'P 21/c'
_symmetry_Int_Tables_number      14
_space_group_name_Hall           '-P 2ybc'
loop_
_symmetry_equiv_pos_site_id
_symmetry_equiv_pos_as_xyz
1 x,y,z
2 -x,1/2+y,1/2-z
3 -x,-y,-z
4 x,1/2-y,1/2+z
_cell_length_a                   5.51460(10)
_cell_length_b                   12.2628(3)
_cell_length_c                   20.0128(5)
_cell_angle_alpha                90
_cell_angle_beta                 101.1560(10)
_cell_angle_gamma                90
_cell_volume                     1327.78
_exptl_crystal_colour            colorless
_exptl_crystal_description       block
_cell_formula_units_Z            4
_exptl_crystal_recrystallization_method 'petroleum ether'
loop_
_atom_site_label
_atom_site_type_symbol
_atom_site_fract_x
_atom_site_fract_y
_atom_site_fract_z
S1 S 0.63212(6) 0.46872(3) 0.430321(16)
S2 S 0.80471(6) 0.43167(3) 0.294901(16)
C1 C 0.7958(2) 0.73297(11) 0.47700(6)
H1 H 0.6990 0.7130 0.5095
C2 C 0.9857(3) 0.80750(11) 0.49456(7)
H2 H 1.0197 0.8377 0.5391
C3 C 1.1262(3) 0.83815(11) 0.44745(8)
H3 H 1.2579 0.8887 0.4597
C4 C 1.0740(3) 0.79496(11) 0.38253(7)
H4 H 1.1678 0.8170 0.3498
C5 C 0.8848(2) 0.71936(11) 0.36495(6)
H5 H 0.8508 0.6897 0.3203
C6 C 0.7447(2) 0.68671(10) 0.41215(6)
C7 C 0.5451(2) 0.60237(11) 0.39470(7)
H6 H 0.4995 0.5959 0.3445
H7 H 0.3970 0.6276 0.4114
C8 C 0.8761(2) 0.43180(11) 0.38662(7)
H8 H 0.9344 0.3579 0.4019
H9 H 1.0158 0.4826 0.4014
C9 C 0.5351(2) 0.34398(11) 0.27868(6)
H10 H 0.3992 0.3808 0.2956
H11 H 0.4822 0.3351 0.2288
C10 C 0.5717(2) 0.23235(10) 0.31064(6)
C11 C 0.7532(2) 0.16136(11) 0.29690(6)
H12 H 0.8598 0.1839 0.2675
C12 C 0.7799(2) 0.05829(11) 0.32574(7)
H13 H 0.9041 0.0106 0.3158
C13 C 0.6268(2) 0.02439(11) 0.36880(7)
H14 H 0.6452 -0.0463 0.3885
C14 C 0.4464(3) 0.09429(11) 0.38292(7)
H15 H 0.3406 0.0716 0.4125
C15 C 0.4196(2) 0.19762(11) 0.35389(7)
H16 H 0.2951 0.2451 0.3639
loop_
_geom_bond_atom_site_label_1
_geom_bond_atom_site_label_2
_geom_bond_site_symmetry_1
_geom_bond_site_symmetry_2
S1 C7 1_555 1_555
S2 C8 1_555 1_555
C1 H1 1_555 1_555
C2 C1 1_555 1_555
H2 C2 1_555 1_555
C3 C2 1_555 1_555
H3 C3 1_555 1_555
C4 C3 1_555 1_555
H4 C4 1_555 1_555
C5 C4 1_555 1_555
H5 C5 1_555 1_555
C6 C1 1_555 1_555
C7 C6 1_555 1_555
H6 C7 1_555 1_555
H7 C7 1_555 1_555
C8 S1 1_555 1_555
H8 C8 1_555 1_555
H9 C8 1_555 1_555
C9 S2 1_555 1_555
H10 C9 1_555 1_555
H11 C9 1_555 1_555
C10 C9 1_555 1_555
C11 C10 1_555 1_555
H12 C11 1_555 1_555
C12 C11 1_555 1_555
H13 C12 1_555 1_555
C13 C12 1_555 1_555
H14 C13 1_555 1_555
C14 C13 1_555 1_555
H15 C14 1_555 1_555
C15 C10 1_555 1_555
H16 C15 1_555 1_555
C5 C6 1_555 1_555
C14 C15 1_555 1_555

#END
