
#######################################################################
#
#                 Cambridge Crystallographic Data Centre
#                                CCDC 
#
#######################################################################
#
# If this CIF has been generated from an entry in the Cambridge 
# Structural Database, then it will include bibliographic, chemical, 
# crystal, experimental, refinement or atomic coordinate data resulting 
# from the CCDC's data processing and validation procedures.
#
#######################################################################

data_TUQPEA
_chemical_formula_moiety         '2(C1 H6 N3 1+),C10 H6 O6 S2 2-,2(C3 H5 N1)'
_chemical_name_systematic        
'bis(Guanidinium) 1,5-naphthalenedisulfonate bis(propionitrile) clathrate'
_symmetry_cell_setting           orthorhombic
_symmetry_space_group_name_H-M   'P b a m'
_symmetry_Int_Tables_number      55
_space_group_name_Hall           '-P 2 2ab'
loop_
_symmetry_equiv_pos_site_id
_symmetry_equiv_pos_as_xyz
1 x,y,z
2 -x,-y,z
3 1/2+x,1/2-y,-z
4 1/2-x,1/2+y,-z
5 -x,-y,-z
6 x,y,-z
7 1/2-x,1/2+y,z
8 1/2+x,1/2-y,z
_cell_length_a                   7.8836(3)
_cell_length_b                   19.2212(7)
_cell_length_c                   7.4235(2)
_cell_angle_alpha                90
_cell_angle_beta                 90
_cell_angle_gamma                90
_cell_volume                     1124.9
_exptl_crystal_colour            colorless
_chemical_melting_point          583-587K
_cell_formula_units_Z            2
loop_
_atom_site_label
_atom_site_type_symbol
_atom_site_fract_x
_atom_site_fract_y
_atom_site_fract_z
S1 S 0.74693(13) 0.14599(5) 0.0000
O1 O 0.8058(4) 0.21854(14) 0.0000
O2 O 0.6536(2) 0.12822(11) 0.1644(3)
C2 C 0.9346(5) 0.0936(2) 0.0000
C3 C 1.0880(5) 0.1273(2) 0.0000
H4 H 1.1075(66) 0.1820(26) 0.0000
C4 C 1.2394(5) 0.0881(2) 0.0000
H5 H 1.3511(67) 0.1088(25) 0.0000
C5 C 0.9225(4) 0.0194(2) 0.0000
C6 C 1.2357(5) 0.0169(2) 0.0000
H6 H 1.3382(47) -0.0105(19) 0.0000
O2E O 0.6536(2) 0.12822(11) -0.1644(3)
C5A C 1.0775(4) -0.0194(2) 0.0000
C2A C 1.0654(5) -0.0936(2) 0.0000
S1A S 1.25307(13) -0.14599(5) 0.0000
O1A O 1.1942(4) -0.21854(14) 0.0000
O2A O 1.3464(2) -0.12822(11) 0.1644(3)
O2D O 1.3464(2) -0.12822(11) -0.1644(3)
C3A C 0.9120(5) -0.1273(2) 0.0000
H4A H 0.8925(66) -0.1820(26) 0.0000
C4A C 0.7606(5) -0.0881(2) 0.0000
H5A H 0.6489(67) -0.1088(25) 0.0000
C6A C 0.7643(5) -0.0169(2) 0.0000
H6A H 0.6618(47) 0.0105(19) 0.0000
C7 C 0.1685(54) 0.0264(14) 0.5000
C8 C 0.3397(39) 0.0579(12) 0.5000
C9 C 0.4617(25) 0.0485(14) 0.5000
N1 N 0.2710(7) 0.3082(3) 0.5000
H1 H 0.2386(54) 0.3314(22) 0.6008(60)
N2 N 0.3571(5) 0.2122(2) 0.3446(4)
H2 H 0.3359(5) 0.2336(2) 0.2423(4)
H3 H 0.3965(5) 0.1693(2) 0.3438(4)
C1 C 0.3297(7) 0.2444(3) 0.5000
H1E H 0.2386(54) 0.3314(22) 0.3992(60)
N2E N 0.3571(5) 0.2122(2) 0.6554(4)
H2E H 0.3359(5) 0.2336(2) 0.7577(4)
H3E H 0.3965(5) 0.1693(2) 0.6562(4)
loop_
_geom_bond_atom_site_label_1
_geom_bond_atom_site_label_2
_geom_bond_site_symmetry_1
_geom_bond_site_symmetry_2
N1 H1 1_555 1_555
N2 H2 1_555 1_555
H3 N2 1_555 1_555
C1 N1 1_555 1_555
S1 O1 1_555 1_555
O2 S1 1_555 1_555
C2 S1 1_555 1_555
C3 C2 1_555 1_555
H4 C3 1_555 1_555
C4 C3 1_555 1_555
H5 C4 1_555 1_555
C5 C2 1_555 1_555
C6 C4 1_555 1_555
H6 C6 1_555 1_555
C7 C8 1_555 1_555
C8 C9 1_555 1_555
H1E N1 1_555 1_555
N2E C1 1_555 1_555
H2E N2E 1_555 1_555
H3E N2E 1_555 1_555
O2E S1 1_555 1_555
C5A C5 1_555 1_555
C2A C5A 1_555 1_555
S1A C2A 1_555 1_555
O1A S1A 1_555 1_555
O2A S1A 1_555 1_555
O2D S1A 1_555 1_555
C3A C2A 1_555 1_555
H4A C3A 1_555 1_555
C4A C3A 1_555 1_555
H5A C4A 1_555 1_555
C6A C5 1_555 1_555
H6A C6A 1_555 1_555
N2 C1 1_555 1_555
C6 C5A 1_555 1_555
C4A C6A 1_555 1_555

#END
