
#######################################################################
#
#                 Cambridge Crystallographic Data Centre
#                                CCDC 
#
#######################################################################
#
# If this CIF has been generated from an entry in the Cambridge 
# Structural Database, then it will include bibliographic, chemical, 
# crystal, experimental, refinement or atomic coordinate data resulting 
# from the CCDC's data processing and validation procedures.
#
#######################################################################

data_TUQQEB
_chemical_formula_moiety         '2(C1 H6 N3 1+),C12 H8 O6 S2 2-,C7 H8'
_chemical_name_systematic        
"bis(Guanidinium) 4,4'-biphenyldisulfonate toluene clathrate"
_symmetry_cell_setting           triclinic
_symmetry_space_group_name_H-M   'P -1'
_symmetry_Int_Tables_number      2
_space_group_name_Hall           '-P 1'
loop_
_symmetry_equiv_pos_site_id
_symmetry_equiv_pos_as_xyz
1 x,y,z
2 -x,-y,-z
_cell_length_a                   6.1656(1)
_cell_length_b                   7.3074(1)
_cell_length_c                   14.0760(4)
_cell_angle_alpha                96.898(2)
_cell_angle_beta                 93.068(1)
_cell_angle_gamma                92.397(2)
_cell_volume                     627.949
_exptl_crystal_colour            colorless
_chemical_melting_point          597-598K
_cell_formula_units_Z            1
loop_
_atom_site_label
_atom_site_type_symbol
_atom_site_fract_x
_atom_site_fract_y
_atom_site_fract_z
C7 C -0.0407(3) 0.7462(3) 0.40084(13)
N1 N -0.1363(3) 0.5801(2) 0.40229(12)
H5 H -0.0573(3) 0.4824(2) 0.40128(12)
H6 H -0.2785(3) 0.5678(2) 0.40427(12)
N2 N 0.1740(3) 0.7633(2) 0.39786(14)
H7 H 0.2520(3) 0.6650(2) 0.39686(14)
H8 H 0.2382(3) 0.8728(2) 0.39688(14)
N3 N -0.1579(3) 0.8958(2) 0.39986(12)
H9 H -0.0927(3) 1.0043(2) 0.39726(12)
H10 H -0.3002(3) 0.8857(2) 0.40181(12)
C8 C 0.0704(12) 0.4600(8) -0.0369(5)
C9 C 0.1878(25) 0.4570(28) 0.0520(11)
H11 H 0.3237(25) 0.4004(28) 0.0540(11)
C10 C -0.1061(11) 0.4645(8) -0.1354(5)
H12 H -0.1900(11) 0.4647(8) -0.1940(5)
C11 C 0.0842(30) 0.3888(29) -0.1372(12)
H13 H 0.1352(30) 0.3336(29) -0.1959(12)
C12 C 0.2111(11) 0.3911(8) -0.0503(6)
H14 H 0.3500(11) 0.3394(8) -0.0508(6)
C13 C -0.1361(25) 0.5337(29) -0.0333(9)
H15 H 0.2248(25) 0.4693(29) 0.0909(9)
C14 C 0.1577(28) 0.3833(36) -0.1286(16)
H16 H 0.3130(28) 0.4209(36) -0.1283(16)
H17 H 0.0793(28) 0.4259(36) -0.1840(16)
H18 H 0.1411(28) 0.2479(36) -0.1331(16)
C8A C -0.0704(12) 0.5400(8) 0.0369(5)
C9A C -0.1878(25) 0.5430(28) -0.0520(11)
C10A C 0.1061(11) 0.5355(8) 0.1354(5)
C13A C 0.1361(25) 0.4663(29) 0.0333(9)
C11A C -0.0842(30) 0.6112(29) 0.1372(12)
H12A H 0.1900(11) 0.5353(8) 0.1940(5)
H11A H -0.3237(25) 0.5996(28) -0.0540(11)
C12A C -0.2111(11) 0.6089(8) 0.0503(6)
H13A H -0.1352(30) 0.6664(29) 0.1959(12)
C14A C -0.1577(28) 0.6167(36) 0.1286(16)
H15A H -0.2248(25) 0.5307(29) -0.0909(9)
H17A H -0.0793(28) 0.5741(36) 0.1840(16)
H14A H -0.3500(11) 0.6606(8) 0.0508(6)
H16A H -0.3130(28) 0.5791(36) 0.1283(16)
H18A H -0.1411(28) 0.7521(36) 0.1331(16)
S1 S 0.33088(7) 0.24389(6) 0.36041(3)
O1 O 0.0933(2) 0.2313(2) 0.36447(9)
O2 O 0.4188(2) 0.4351(2) 0.37679(10)
O3 O 0.4388(2) 0.1239(2) 0.42212(10)
C1 C 0.3869(3) 0.1594(2) 0.24062(13)
C2 C 0.2340(3) 0.0505(3) 0.18179(15)
H1 H 0.0972(3) 0.0194(3) 0.20509(15)
C3 C 0.2803(4) -0.0138(3) 0.0884(2)
H2 H 0.1746(4) -0.0905(3) 0.0490(2)
C4 C 0.4773(3) 0.0312(3) 0.05105(13)
C5 C 0.6303(4) 0.1386(4) 0.1126(2)
H3 H 0.7679(4) 0.1691(4) 0.0898(2)
C6 C 0.5868(4) 0.2022(4) 0.2064(2)
H4 H 0.6941(4) 0.2748(4) 0.2470(2)
C4A C 0.5227(3) -0.0312(3) -0.05105(13)
C3A C 0.7197(4) 0.0138(3) -0.0884(2)
C2A C 0.7660(3) -0.0505(3) -0.18179(15)
C1A C 0.6131(3) -0.1594(2) -0.24062(13)
S1A S 0.66912(7) -0.24389(6) -0.36041(3)
O1A O 0.9067(2) -0.2313(2) -0.36447(9)
O2A O 0.5812(2) -0.4351(2) -0.37679(10)
O3A O 0.5612(2) -0.1239(2) -0.42212(10)
C6A C 0.4132(4) -0.2022(4) -0.2064(2)
C5A C 0.3697(4) -0.1386(4) -0.1126(2)
H3A H 0.2321(4) -0.1691(4) -0.0898(2)
H4A H 0.3059(4) -0.2748(4) -0.2470(2)
H1A H 0.9028(3) -0.0194(3) -0.20509(15)
H2A H 0.8254(4) 0.0905(3) -0.0490(2)
loop_
_geom_bond_atom_site_label_1
_geom_bond_atom_site_label_2
_geom_bond_site_symmetry_1
_geom_bond_site_symmetry_2
S1 O1 1_555 1_555
O2 S1 1_555 1_555
O3 S1 1_555 1_555
C1 S1 1_555 1_555
C2 C1 1_555 1_555
H1 C2 1_555 1_555
C3 C2 1_555 1_555
H2 C3 1_555 1_555
C4 C3 1_555 1_555
C5 C4 1_555 1_555
H3 C5 1_555 1_555
C6 C1 1_555 1_555
H4 C6 1_555 1_555
C7 N1 1_555 1_555
N1 H5 1_555 1_555
H6 N1 1_555 1_555
N2 C7 1_555 1_555
H7 N2 1_555 1_555
H8 N2 1_555 1_555
N3 C7 1_555 1_555
H9 N3 1_555 1_555
H10 N3 1_555 1_555
C8 C9 1_555 1_555
C9 H11 1_555 1_555
H11 C13A 1_555 1_555
C10 C8 1_555 1_555
H12 C10 1_555 1_555
C11 C8 1_555 1_555
H13 C11 1_555 1_555
C12 C8 1_555 1_555
H14 C12 1_555 1_555
C13 C8 1_555 1_555
H15 C9 1_555 1_555
C14 C8 1_555 1_555
H16 C14 1_555 1_555
H17 C11 1_555 1_555
H18 C11 1_555 1_555
C4A C4 1_555 1_555
C3A C4A 1_555 1_555
C2A C3A 1_555 1_555
C1A C2A 1_555 1_555
S1A C1A 1_555 1_555
O1A S1A 1_555 1_555
O2A S1A 1_555 1_555
O3A S1A 1_555 1_555
C6A C1A 1_555 1_555
C5A C4A 1_555 1_555
H3A C5A 1_555 1_555
H4A C6A 1_555 1_555
H1A C2A 1_555 1_555
H2A C3A 1_555 1_555
C8A C8 1_555 1_555
C9A C8 1_555 1_555
C10A C9 1_555 1_555
C13A C8 1_555 1_555
C11A C8A 1_555 1_555
H12A C10A 1_555 1_555
H11A C13 1_555 1_555
C12A C13 1_555 1_555
H13A C11A 1_555 1_555
C14A C8A 1_555 1_555
H15A C10 1_555 1_555
H17A C11A 1_555 1_555
H14A C12A 1_555 1_555
H16A C14A 1_555 1_555
H18A C11A 1_555 1_555
C5 C6 1_555 1_555
C9 C12 1_555 1_555
C9 C8A 1_555 1_555
C9 C13A 1_555 1_555
C10 C9A 1_555 1_555
C10 C11 1_555 1_555
C10 C13 1_555 1_555
C10 C14 1_555 1_555
C11 C14 1_555 1_555
C11 C12 1_555 1_555
H13 C14 1_555 1_555
H13 H17 1_555 1_555
C12 C14 1_555 1_555
C12 C13A 1_555 1_555
C13 C8A 1_555 1_555
C13 C9A 1_555 1_555
C13 H15A 1_555 1_555
H15 C10A 1_555 1_555
H15 C13A 1_555 1_555
C14 H18 1_555 1_555
C14 H17 1_555 1_555
C6A C5A 1_555 1_555
C8A C9A 1_555 1_555
C8A C10A 1_555 1_555
C8A C12A 1_555 1_555
C8A C13A 1_555 1_555
C9A H11A 1_555 1_555
C9A C12A 1_555 1_555
C9A H15A 1_555 1_555
C10A C11A 1_555 1_555
C10A C13A 1_555 1_555
C10A C14A 1_555 1_555
C11A C12A 1_555 1_555
C11A C14A 1_555 1_555
C12A C14A 1_555 1_555
H13A C14A 1_555 1_555
H13A H17A 1_555 1_555
C14A H18A 1_555 1_555
C14A H17A 1_555 1_555

#END
