
#######################################################################
#
#                 Cambridge Crystallographic Data Centre
#                                CCDC 
#
#######################################################################
#
# If this CIF has been generated from an entry in the Cambridge 
# Structural Database, then it will include bibliographic, chemical, 
# crystal, experimental, refinement or atomic coordinate data resulting 
# from the CCDC's data processing and validation procedures.
#
#######################################################################

data_TUQQIF
_chemical_formula_moiety         '2(C1 H6 N3 1+),C12 H8 O6 S2 2-,C8 H10'
_chemical_name_systematic        
"bis(Guanidinium) 4,4'-biphenyldisulfonate m-xylene clathrate"
_symmetry_cell_setting           triclinic
_symmetry_space_group_name_H-M   'P -1'
_symmetry_Int_Tables_number      2
_space_group_name_Hall           '-P 1'
loop_
_symmetry_equiv_pos_site_id
_symmetry_equiv_pos_as_xyz
1 x,y,z
2 -x,-y,-z
_cell_length_a                   7.2509(2)
_cell_length_b                   12.3281(4)
_cell_length_c                   29.3761(9)
_cell_angle_alpha                78.7810(10)
_cell_angle_beta                 84.872(2)
_cell_angle_gamma                86.372(2)
_cell_volume                     2562.6
_chemical_melting_point          574-577K
_cell_formula_units_Z            4
loop_
_atom_site_label
_atom_site_type_symbol
_atom_site_fract_x
_atom_site_fract_y
_atom_site_fract_z
S1 S 0.20120(14) 0.13690(8) 0.06842(3)
O1 O 0.3480(4) 0.2051(2) 0.04292(9)
O2 O 0.0165(4) 0.1857(2) 0.05931(9)
O3 O 0.2210(4) 0.0220(2) 0.06192(9)
C1 C 0.2233(5) 0.1313(3) 0.12870(13)
C2 C 0.1851(6) 0.2261(3) 0.14753(14)
H1 H 0.1504(6) 0.2942(3) 0.12819(14)
C3 C 0.1979(6) 0.2208(3) 0.19437(13)
H2 H 0.1721(6) 0.2858(3) 0.20712(13)
C4 C 0.2482(5) 0.1216(3) 0.22360(13)
C5 C 0.2888(6) 0.0288(3) 0.20354(13)
H3 H 0.3264(6) -0.0390(3) 0.22258(13)
C6 C 0.2759(6) 0.0326(3) 0.15682(14)
H4 H 0.3029(6) -0.0321(3) 0.14394(14)
S2 S 0.29786(14) 0.10962(8) 0.42927(3)
O4 O 0.1501(4) 0.0440(2) 0.45500(9)
O5 O 0.4825(4) 0.0625(2) 0.43941(9)
O6 O 0.2753(4) 0.2258(2) 0.43396(9)
C7 C 0.2808(5) 0.1099(3) 0.36953(13)
C8 C 0.3838(6) 0.0340(3) 0.34731(14)
H5 H 0.4627(6) -0.0204(3) 0.36445(14)
C9 C 0.3724(6) 0.0371(3) 0.30014(14)
H6 H 0.4445(6) -0.0148(3) 0.28520(14)
C10 C 0.2566(5) 0.1154(3) 0.27458(14)
C11 C 0.1508(6) 0.1900(4) 0.29743(14)
H7 H 0.0700(6) 0.2435(4) 0.28049(14)
C12 C 0.1619(6) 0.1871(4) 0.34450(14)
H8 H 0.0881(6) 0.2380(4) 0.35965(14)
S3 S 0.20317(14) 0.63217(8) 0.07338(3)
O7 O 0.3505(4) 0.6987(2) 0.04741(9)
O8 O 0.0183(4) 0.6806(2) 0.06430(9)
O9 O 0.2230(4) 0.5167(2) 0.06766(9)
C13 C 0.2251(5) 0.6294(3) 0.13369(13)
C14 C 0.1507(5) 0.7175(3) 0.15325(13)
H9 H 0.0924(5) 0.7796(3) 0.13458(13)
C15 C 0.1620(5) 0.7143(3) 0.20024(13)
H10 H 0.1100(5) 0.7745(3) 0.21369(13)
C16 C 0.2487(5) 0.6240(3) 0.22845(13)
C17 C 0.3280(6) 0.5383(3) 0.20726(13)
H11 H 0.3915(6) 0.4775(3) 0.22539(13)
C18 C 0.3160(6) 0.5404(3) 0.16041(14)
H12 H 0.3697(6) 0.4811(3) 0.14659(14)
S4 S 0.29667(14) 0.60923(8) 0.43403(3)
O10 O 0.1522(4) 0.5406(2) 0.45965(9)
O11 O 0.4827(4) 0.5619(2) 0.44254(9)
O12 O 0.2760(4) 0.7240(2) 0.44086(9)
C19 C 0.2743(5) 0.6141(3) 0.37433(13)
C20 C 0.2705(6) 0.5159(3) 0.35777(13)
H13 H 0.2741(6) 0.4468(3) 0.37878(13)
C21 C 0.2616(6) 0.5191(3) 0.31076(14)
H14 H 0.2597(6) 0.4517(3) 0.29971(14)
C22 C 0.2552(5) 0.6200(3) 0.27902(13)
C23 C 0.2553(6) 0.7171(3) 0.29677(13)
H15 H 0.2485(6) 0.7866(3) 0.27607(13)
C24 C 0.2651(6) 0.7148(3) 0.34360(13)
H16 H 0.2656(6) 0.7820(3) 0.35482(13)
C25 C 0.7242(6) 0.4607(3) 0.04691(13)
N1 N 0.7009(5) 0.5648(3) 0.05171(12)
H17 H 0.7975(5) 0.6028(3) 0.05372(12)
H18 H 0.5887(5) 0.5963(3) 0.05291(12)
N2 N 0.5767(5) 0.4035(3) 0.04443(11)
H19 H 0.4648(5) 0.4352(3) 0.04600(11)
H20 H 0.5913(5) 0.3339(3) 0.04123(11)
N3 N 0.8931(5) 0.4134(3) 0.04511(11)
H21 H 0.9896(5) 0.4516(3) 0.04713(11)
H22 H 0.9088(5) 0.3439(3) 0.04191(11)
C26 C 0.7753(5) 0.2887(3) 0.44961(13)
N4 N 0.7985(5) 0.1814(3) 0.44940(12)
H23 H 0.7018(5) 0.1419(3) 0.44921(12)
H24 H 0.9106(5) 0.1496(3) 0.44946(12)
N5 N 0.6071(5) 0.3359(3) 0.44952(11)
H25 H 0.5107(5) 0.2962(3) 0.44933(11)
H26 H 0.5911(5) 0.4072(3) 0.44966(11)
N6 N 0.9232(5) 0.3474(3) 0.44946(11)
H27 H 0.9096(5) 0.4189(3) 0.44931(11)
H28 H 1.0346(5) 0.3147(3) 0.44952(11)
C27 C -0.2782(6) 0.9585(3) 0.04847(13)
N7 N -0.4260(5) 0.9020(3) 0.04686(11)
H29 H -0.4133(5) 0.8311(3) 0.04580(11)
H30 H -0.5369(5) 0.9354(3) 0.04686(11)
N8 N -0.1097(5) 0.9111(3) 0.04853(11)
H31 H -0.0139(5) 0.9497(3) 0.05055(11)
H32 H -0.0934(5) 0.8407(3) 0.04654(11)
N9 N -0.3008(5) 1.0642(3) 0.05147(12)
H33 H -0.2040(5) 1.1022(3) 0.05348(12)
H34 H -0.4125(5) 1.0966(3) 0.05146(12)
C28 C 0.2241(5) 0.2133(3) 0.54478(13)
N10 N 0.2027(5) 0.3212(3) 0.54274(11)
H35 H 0.3001(5) 0.3608(3) 0.54206(11)
H36 H 0.0911(5) 0.3536(3) 0.54206(11)
N11 N 0.0752(5) 0.1544(3) 0.54656(11)
H37 H -0.0360(5) 0.1875(3) 0.54638(11)
H38 H 0.0879(5) 0.0824(3) 0.54793(11)
N12 N 0.3921(5) 0.1652(3) 0.54579(11)
H39 H 0.4891(5) 0.2051(3) 0.54511(11)
H40 H 0.4070(5) 0.0933(3) 0.54715(11)
C29 C 0.7051(6) 0.7605(5) 0.2499(2)
H41 H 0.6586(6) 0.6886(5) 0.2539(2)
C30 C 0.7098(7) 0.8265(4) 0.2054(2)
C31 C 0.7736(8) 0.9284(5) 0.1987(3)
H42 H 0.7796(8) 0.9739(5) 0.1686(3)
C32 C 0.8327(10) 0.9678(6) 0.2374(4)
H43 H 0.8726(10) 1.0413(6) 0.2331(4)
C33 C 0.8328(10) 0.9012(7) 0.2810(4)
H44 H 0.8789(10) 0.9273(7) 0.3059(4)
C34 C 0.7635(7) 0.7931(6) 0.2883(2)
C35 C 0.7582(9) 0.7172(8) 0.3344(2)
H45 H 0.6817(9) 0.6549(8) 0.3339(2)
H46 H 0.7053(9) 0.7574(8) 0.3585(2)
H47 H 0.8843(9) 0.6893(8) 0.3412(2)
C36 C 0.6477(8) 0.7804(6) 0.1645(2)
H48 H 0.7513(8) 0.7782(6) 0.1409(2)
H49 H 0.5454(8) 0.8275(6) 0.1506(2)
H50 H 0.6060(8) 0.7054(6) 0.1762(2)
C37 C 0.6770(6) 0.2810(4) 0.24182(14)
H51 H 0.6205(6) 0.2121(4) 0.25227(14)
C38 C 0.7131(6) 0.3429(4) 0.27452(15)
C39 C 0.7971(6) 0.4441(4) 0.2583(2)
H52 H 0.8244(6) 0.4883(4) 0.2798(2)
C40 C 0.8401(6) 0.4795(4) 0.2113(2)
H53 H 0.8980(6) 0.5479(4) 0.2007(2)
C41 C 0.8010(6) 0.4183(4) 0.1797(2)
H54 H 0.8286(6) 0.4452(4) 0.1474(2)
C42 C 0.7201(6) 0.3158(4) 0.19464(15)
C43 C 0.6798(6) 0.2468(4) 0.1597(2)
H55 H 0.6076(6) 0.2923(4) 0.1357(2)
H56 H 0.6090(6) 0.1833(4) 0.1754(2)
H57 H 0.7967(6) 0.2205(4) 0.1452(2)
C44 C 0.6665(7) 0.3026(4) 0.32568(15)
H58 H 0.6935(7) 0.2226(4) 0.33342(15)
H59 H 0.5348(7) 0.3189(4) 0.33335(15)
H60 H 0.7411(7) 0.3401(4) 0.34357(15)
loop_
_geom_bond_atom_site_label_1
_geom_bond_atom_site_label_2
_geom_bond_site_symmetry_1
_geom_bond_site_symmetry_2
S1 O1 1_555 1_555
O2 S1 1_555 1_555
O3 S1 1_555 1_555
C1 S1 1_555 1_555
C2 C1 1_555 1_555
H1 C2 1_555 1_555
C3 C2 1_555 1_555
H2 C3 1_555 1_555
C4 C3 1_555 1_555
C5 C4 1_555 1_555
H3 C5 1_555 1_555
C6 C1 1_555 1_555
H4 C6 1_555 1_555
S2 O4 1_555 1_555
O5 S2 1_555 1_555
O6 S2 1_555 1_555
C7 S2 1_555 1_555
C8 C7 1_555 1_555
H5 C8 1_555 1_555
C9 C8 1_555 1_555
H6 C9 1_555 1_555
C10 C4 1_555 1_555
C11 C10 1_555 1_555
H7 C11 1_555 1_555
C12 C7 1_555 1_555
H8 C12 1_555 1_555
S3 O7 1_555 1_555
O8 S3 1_555 1_555
O9 S3 1_555 1_555
C13 S3 1_555 1_555
C14 C13 1_555 1_555
H9 C14 1_555 1_555
C15 C14 1_555 1_555
H10 C15 1_555 1_555
C16 C15 1_555 1_555
C17 C16 1_555 1_555
H11 C17 1_555 1_555
C18 C13 1_555 1_555
H12 C18 1_555 1_555
S4 O10 1_555 1_555
O11 S4 1_555 1_555
O12 S4 1_555 1_555
C19 S4 1_555 1_555
C20 C19 1_555 1_555
H13 C20 1_555 1_555
C21 C20 1_555 1_555
H14 C21 1_555 1_555
C22 C16 1_555 1_555
C23 C22 1_555 1_555
H15 C23 1_555 1_555
C24 C19 1_555 1_555
H16 C24 1_555 1_555
C25 N1 1_555 1_555
N1 H17 1_555 1_555
H18 N1 1_555 1_555
N2 C25 1_555 1_555
H19 N2 1_555 1_555
H20 N2 1_555 1_555
N3 C25 1_555 1_555
H21 N3 1_555 1_555
H22 N3 1_555 1_555
C26 N4 1_555 1_555
N4 H23 1_555 1_555
H24 N4 1_555 1_555
N5 C26 1_555 1_555
H25 N5 1_555 1_555
H26 N5 1_555 1_555
N6 C26 1_555 1_555
H27 N6 1_555 1_555
H28 N6 1_555 1_555
C27 N7 1_555 1_555
N7 H29 1_555 1_555
H30 N7 1_555 1_555
N8 C27 1_555 1_555
H31 N8 1_555 1_555
H32 N8 1_555 1_555
N9 C27 1_555 1_555
H33 N9 1_555 1_555
H34 N9 1_555 1_555
C28 N10 1_555 1_555
N10 H35 1_555 1_555
H36 N10 1_555 1_555
N11 C28 1_555 1_555
H37 N11 1_555 1_555
H38 N11 1_555 1_555
N12 C28 1_555 1_555
H39 N12 1_555 1_555
H40 N12 1_555 1_555
C29 H41 1_555 1_555
C30 C29 1_555 1_555
C31 C30 1_555 1_555
H42 C31 1_555 1_555
C32 C31 1_555 1_555
H43 C32 1_555 1_555
C33 C32 1_555 1_555
H44 C33 1_555 1_555
C34 C29 1_555 1_555
C35 C34 1_555 1_555
H45 C35 1_555 1_555
H46 C35 1_555 1_555
H47 C35 1_555 1_555
C36 C30 1_555 1_555
H48 C36 1_555 1_555
H49 C36 1_555 1_555
H50 C36 1_555 1_555
C37 H51 1_555 1_555
C38 C37 1_555 1_555
C39 C38 1_555 1_555
H52 C39 1_555 1_555
C40 C39 1_555 1_555
H53 C40 1_555 1_555
C41 C40 1_555 1_555
H54 C41 1_555 1_555
C42 C37 1_555 1_555
C43 C42 1_555 1_555
H55 C43 1_555 1_555
H56 C43 1_555 1_555
H57 C43 1_555 1_555
C44 C38 1_555 1_555
H58 C44 1_555 1_555
H59 C44 1_555 1_555
H60 C44 1_555 1_555
C5 C6 1_555 1_555
C9 C10 1_555 1_555
C11 C12 1_555 1_555
C17 C18 1_555 1_555
C21 C22 1_555 1_555
C23 C24 1_555 1_555
C33 C34 1_555 1_555
C41 C42 1_555 1_555

#END
