
#######################################################################
#
#                 Cambridge Crystallographic Data Centre
#                                CCDC 
#
#######################################################################
#
# If this CIF has been generated from an entry in the Cambridge 
# Structural Database, then it will include bibliographic, chemical, 
# crystal, experimental, refinement or atomic coordinate data resulting 
# from the CCDC's data processing and validation procedures.
#
#######################################################################

data_TUQROO01
_chemical_formula_moiety         'C40 H34 P2'
_chemical_name_systematic        
(5,6,7,8-tetrahydrodibenzo[a,c][8]annulene-1,12-diyl)bis(diphenylphosphine)
_symmetry_cell_setting           orthorhombic
_symmetry_space_group_name_H-M   'P 21 21 21'
_symmetry_Int_Tables_number      19
_space_group_name_Hall           'P 2ac 2ab'
loop_
_symmetry_equiv_pos_site_id
_symmetry_equiv_pos_as_xyz
1 x,y,z
2 1/2-x,-y,1/2+z
3 -x,1/2+y,1/2-z
4 1/2+x,1/2-y,-z
_cell_length_a                   10.07990(10)
_cell_length_b                   15.64660(10)
_cell_length_c                   19.5369(2)
_cell_angle_alpha                90
_cell_angle_beta                 90
_cell_angle_gamma                90
_cell_volume                     3081.28
_exptl_crystal_colour            colorless
_exptl_crystal_description       needle
_cell_formula_units_Z            4
loop_
_atom_site_label
_atom_site_type_symbol
_atom_site_fract_x
_atom_site_fract_y
_atom_site_fract_z
P1 P 0.66310(5) 0.47951(3) 0.61945(3)
P2 P 0.41726(5) 0.55761(3) 0.50429(3)
C1 C 0.4448(2) 0.62950(13) 0.43153(10)
C2 C 0.4581(2) 0.35540(14) 0.64144(11)
H1 H 0.5196 0.3134 0.6302
C3 C 0.71541(19) 0.50188(13) 0.70773(11)
C4 C 0.2404(2) 0.39475(15) 0.68063(12)
H2 H 0.1564 0.3785 0.6955
C5 C 0.4707(2) 0.71744(13) 0.56859(12)
H3 H 0.4759 0.7403 0.5247
C6 C 0.75034(19) 0.38054(13) 0.59815(11)
C7 C 0.44106(19) 0.63100(13) 0.57719(11)
C8 C 0.2725(2) 0.48145(15) 0.67778(11)
C9 C 0.7143(2) 0.34023(15) 0.53676(12)
H4 H 0.6438 0.3616 0.5113
C10 C 0.3447(2) 0.65885(13) 0.38850(11)
H5 H 0.2570 0.6442 0.3974
C11 C 0.49351(19) 0.44126(13) 0.63779(10)
C12 C 0.3309(2) 0.33242(14) 0.66186(11)
H6 H 0.3066 0.2751 0.6629
C13 C 0.4512(2) 0.65025(14) 0.70091(11)
C14 C 0.6056(2) 0.70400(15) 0.36117(12)
H7 H 0.6931 0.7193 0.3525
C15 C 0.5759(2) 0.65243(14) 0.41668(12)
H8 H 0.6441 0.6327 0.4445
C16 C 0.4925(2) 0.76977(13) 0.62497(12)
H9 H 0.5133 0.8272 0.6188
C17 C 0.23622(19) 0.54478(12) 0.50448(11)
C18 C 0.4833(2) 0.73620(15) 0.69036(12)
H10 H 0.4987 0.7714 0.7279
C19 C 0.43227(19) 0.59730(13) 0.64424(11)
C20 C 0.7866(2) 0.57673(14) 0.71946(12)
H11 H 0.8125 0.6105 0.6826
C21 C 0.3744(2) 0.71004(14) 0.33212(12)
H12 H 0.3067 0.7290 0.3036
C22 C 0.5049(2) 0.73285(14) 0.31849(12)
H13 H 0.5247 0.7672 0.2810
C23 C 0.39860(19) 0.50461(13) 0.65345(10)
C24 C 0.6787(2) 0.45183(14) 0.76392(11)
H14 H 0.6319 0.4014 0.7569
C25 C 0.1481(2) 0.60538(14) 0.53084(11)
H15 H 0.1805 0.6564 0.5486
C26 C 0.1899(2) 0.56588(18) 0.78103(13)
H16 H 0.1043 0.5833 0.7989
H17 H 0.2145 0.5133 0.8041
C27 C 0.4330(2) 0.61922(15) 0.77360(11)
H18 H 0.4950 0.6489 0.8032
H19 H 0.4532 0.5587 0.7757
C28 C 0.8194(2) 0.60140(16) 0.78566(13)
H20 H 0.8671 0.6515 0.7929
C29 C 0.7812(2) 0.55165(17) 0.84100(13)
H21 H 0.8024 0.5685 0.8853
C30 C 0.1854(2) 0.46926(15) 0.47773(13)
H22 H 0.2430 0.4280 0.4607
C31 C -0.0367(2) 0.51477(16) 0.50302(13)
H23 H -0.1277 0.5048 0.5025
C32 C 0.0122(2) 0.58988(16) 0.53075(12)
H24 H -0.0457 0.6299 0.5493
C33 C 0.7823(2) 0.26899(16) 0.51347(13)
H25 H 0.7554 0.2417 0.4735
C34 C 0.1734(2) 0.54611(16) 0.70385(12)
H26 H 0.0845 0.5247 0.6959
H27 H 0.1834 0.5987 0.6781
C35 C 0.8591(2) 0.34904(14) 0.63399(12)
H28 H 0.8852 0.3751 0.6746
C36 C 0.9290(2) 0.27883(15) 0.60950(14)
H29 H 1.0024 0.2588 0.6335
C37 C 0.7113(2) 0.47669(15) 0.82992(12)
H30 H 0.6862 0.4429 0.8669
C38 C 0.8902(2) 0.23840(15) 0.54963(14)
H31 H 0.9366 0.1909 0.5339
C39 C 0.0488(3) 0.45488(17) 0.47628(15)
H32 H 0.0156 0.4048 0.4572
C40 C 0.2910(2) 0.63407(17) 0.79979(12)
H33 H 0.2940 0.6387 0.8493
H34 H 0.2600 0.6884 0.7821
loop_
_geom_bond_atom_site_label_1
_geom_bond_atom_site_label_2
_geom_bond_site_symmetry_1
_geom_bond_site_symmetry_2
P1 C3 1_555 1_555
P2 C1 1_555 1_555
C1 C10 1_555 1_555
C2 H1 1_555 1_555
C3 C20 1_555 1_555
C4 H2 1_555 1_555
C5 H3 1_555 1_555
C6 P1 1_555 1_555
C7 P2 1_555 1_555
C8 C4 1_555 1_555
C9 C6 1_555 1_555
H4 C9 1_555 1_555
C10 H5 1_555 1_555
C11 P1 1_555 1_555
C12 C2 1_555 1_555
H6 C12 1_555 1_555
C13 C18 1_555 1_555
C14 H7 1_555 1_555
C15 C1 1_555 1_555
H8 C15 1_555 1_555
C16 C5 1_555 1_555
H9 C16 1_555 1_555
C17 P2 1_555 1_555
C18 C16 1_555 1_555
H10 C18 1_555 1_555
C19 C7 1_555 1_555
C20 H11 1_555 1_555
C21 C10 1_555 1_555
H12 C21 1_555 1_555
C22 C14 1_555 1_555
H13 C22 1_555 1_555
C23 C8 1_555 1_555
C24 C3 1_555 1_555
H14 C24 1_555 1_555
C25 C17 1_555 1_555
H15 C25 1_555 1_555
C26 H16 1_555 1_555
H17 C26 1_555 1_555
C27 C13 1_555 1_555
H18 C27 1_555 1_555
H19 C27 1_555 1_555
C28 C20 1_555 1_555
H20 C28 1_555 1_555
C29 C28 1_555 1_555
H21 C29 1_555 1_555
C30 C17 1_555 1_555
H22 C30 1_555 1_555
C31 H23 1_555 1_555
C32 C25 1_555 1_555
H24 C32 1_555 1_555
C33 C9 1_555 1_555
H25 C33 1_555 1_555
C34 C8 1_555 1_555
H26 C34 1_555 1_555
H27 C34 1_555 1_555
C35 C6 1_555 1_555
H28 C35 1_555 1_555
C36 C35 1_555 1_555
H29 C36 1_555 1_555
C37 C24 1_555 1_555
H30 C37 1_555 1_555
C38 C33 1_555 1_555
H31 C38 1_555 1_555
C39 C30 1_555 1_555
H32 C39 1_555 1_555
C40 C26 1_555 1_555
H33 C40 1_555 1_555
H34 C40 1_555 1_555
C2 C11 1_555 1_555
C4 C12 1_555 1_555
C5 C7 1_555 1_555
C11 C23 1_555 1_555
C13 C19 1_555 1_555
C14 C15 1_555 1_555
C19 C23 1_555 1_555
C21 C22 1_555 1_555
C26 C34 1_555 1_555
C27 C40 1_555 1_555
C29 C37 1_555 1_555
C31 C32 1_555 1_555
C31 C39 1_555 1_555
C36 C38 1_555 1_555

#END
