
#######################################################################
#
#                 Cambridge Crystallographic Data Centre
#                                CCDC 
#
#######################################################################
#
# If this CIF has been generated from an entry in the Cambridge 
# Structural Database, then it will include bibliographic, chemical, 
# crystal, experimental, refinement or atomic coordinate data resulting 
# from the CCDC's data processing and validation procedures.
#
#######################################################################

data_TUQXOU
_chemical_formula_moiety         'C20 H17 N1 O5'
_chemical_name_systematic        'ethyl 7-nitro-3-(phenoxymethyl)-2-naphthoate'
_symmetry_cell_setting           monoclinic
_symmetry_space_group_name_H-M   'P 21/c'
_symmetry_Int_Tables_number      14
_space_group_name_Hall           '-P 2ybc'
loop_
_symmetry_equiv_pos_site_id
_symmetry_equiv_pos_as_xyz
1 x,y,z
2 -x,1/2+y,1/2-z
3 -x,-y,-z
4 x,1/2-y,1/2+z
_cell_length_a                   12.0823(4)
_cell_length_b                   5.4689(2)
_cell_length_c                   24.7977(9)
_cell_angle_alpha                90
_cell_angle_beta                 100.248(2)
_cell_angle_gamma                90
_cell_volume                     1612.41
_exptl_crystal_colour            colorless
_exptl_crystal_description       needle
_cell_formula_units_Z            4
loop_
_atom_site_label
_atom_site_type_symbol
_atom_site_fract_x
_atom_site_fract_y
_atom_site_fract_z
O1 O 0.06524(8) -0.17676(17) 0.39186(4)
O2 O 0.00022(8) -0.07160(18) 0.30793(4)
O3 O 0.57355(7) 0.96496(15) 0.34036(3)
O4 O 0.64632(7) 0.19990(16) 0.49845(4)
O5 O 0.71005(7) 0.55579(15) 0.47177(3)
N1 N 0.06792(9) -0.05138(19) 0.35087(4)
C1 C 0.52816(10) 0.4294(2) 0.42880(5)
C2 C 0.44262(10) 0.2639(2) 0.42914(5)
H1 H 0.4525 0.1357 0.4554
C3 C 0.34026(10) 0.2797(2) 0.39140(5)
C4 C 0.25311(10) 0.1061(2) 0.39094(5)
H2 H 0.2610 -0.0247 0.4166
C5 C 0.15754(10) 0.1316(2) 0.35273(5)
C6 C 0.14074(10) 0.3225(2) 0.31384(5)
H3 H 0.0728 0.3333 0.2879
C7 C 0.22400(10) 0.4913(2) 0.31418(5)
H4 H 0.2137 0.6216 0.2884
C8 C 0.32578(10) 0.4739(2) 0.35263(5)
C9 C 0.41481(10) 0.6436(2) 0.35338(5)
H5 H 0.4049 0.7751 0.3280
C10 C 0.51458(10) 0.6251(2) 0.38941(5)
C11 C 0.60824(10) 0.8034(2) 0.38558(5)
H6 H 0.6264 0.8987 0.4200
H7 H 0.6766 0.7133 0.3803
C12 C 0.65078(10) 1.1382(2) 0.33163(5)
C13 C 0.75895(11) 1.1581(2) 0.36181(5)
H8 H 0.7845 1.0474 0.3909
C14 C 0.82954(11) 1.3430(2) 0.34885(5)
H9 H 0.9034 1.3578 0.3695
C15 C 0.79388(11) 1.5049(2) 0.30645(5)
H10 H 0.8428 1.6293 0.2978
C16 C 0.68568(11) 1.4829(2) 0.27671(5)
H11 H 0.6604 1.5936 0.2476
C17 C 0.61398(11) 1.3013(2) 0.28891(5)
H12 H 0.5401 1.2879 0.2683
C18 C 0.63235(10) 0.3808(2) 0.46993(5)
C19 C 0.81644(10) 0.5111(2) 0.50791(5)
H13 H 0.8508 0.3577 0.4976
H14 H 0.8051 0.4969 0.5464
C20 C 0.89129(11) 0.7267(2) 0.50164(6)
H15 H 0.9074 0.7296 0.4643
H16 H 0.9619 0.7118 0.5279
H17 H 0.8531 0.8784 0.5087
loop_
_geom_bond_atom_site_label_1
_geom_bond_atom_site_label_2
_geom_bond_site_symmetry_1
_geom_bond_site_symmetry_2
O1 N1 1_555 1_555
O2 N1 1_555 1_555
O3 C11 1_555 1_555
O4 C18 1_555 1_555
O5 C18 1_555 1_555
N1 C5 1_555 1_555
C1 C2 1_555 1_555
C2 H1 1_555 1_555
C3 C2 1_555 1_555
C4 C3 1_555 1_555
H2 C4 1_555 1_555
C5 C4 1_555 1_555
C6 C5 1_555 1_555
H3 C6 1_555 1_555
C7 C6 1_555 1_555
H4 C7 1_555 1_555
C8 C3 1_555 1_555
C9 C8 1_555 1_555
H5 C9 1_555 1_555
C10 C1 1_555 1_555
C11 C10 1_555 1_555
H6 C11 1_555 1_555
H7 C11 1_555 1_555
C12 O3 1_555 1_555
C13 C12 1_555 1_555
H8 C13 1_555 1_555
C14 C13 1_555 1_555
H9 C14 1_555 1_555
C15 C14 1_555 1_555
H10 C15 1_555 1_555
C16 C15 1_555 1_555
H11 C16 1_555 1_555
C17 C12 1_555 1_555
H12 C17 1_555 1_555
C18 C1 1_555 1_555
C19 O5 1_555 1_555
H13 C19 1_555 1_555
H14 C19 1_555 1_555
C20 C19 1_555 1_555
H15 C20 1_555 1_555
H16 C20 1_555 1_555
H17 C20 1_555 1_555
C7 C8 1_555 1_555
C9 C10 1_555 1_555
C16 C17 1_555 1_555

#END
