
#######################################################################
#
#                 Cambridge Crystallographic Data Centre
#                                CCDC 
#
#######################################################################
#
# If this CIF has been generated from an entry in the Cambridge 
# Structural Database, then it will include bibliographic, chemical, 
# crystal, experimental, refinement or atomic coordinate data resulting 
# from the CCDC's data processing and validation procedures.
#
#######################################################################

data_TUQYUB
_chemical_formula_moiety         'C30 H36 N2 O7'
_chemical_name_systematic        
'1,8-di-t-butyl 2-methyl 3a-(4-acetylphenyl)-2,3,3a,8a-tetrahydropyrrolo[2,3-b]indole-1,2,8-tricarboxylate'
_symmetry_cell_setting           monoclinic
_symmetry_space_group_name_H-M   'P 21'
_symmetry_Int_Tables_number      4
_space_group_name_Hall           'P 2yb'
loop_
_symmetry_equiv_pos_site_id
_symmetry_equiv_pos_as_xyz
1 x,y,z
2 -x,1/2+y,-z
_cell_length_a                   10.563(12)
_cell_length_b                   13.746(15)
_cell_length_c                   10.995(12)
_cell_angle_alpha                90
_cell_angle_beta                 113.422(13)
_cell_angle_gamma                90
_cell_volume                     1464.92
_exptl_crystal_colour            colorless
_exptl_crystal_description       Block
_cell_formula_units_Z            2
loop_
_atom_site_label
_atom_site_type_symbol
_atom_site_fract_x
_atom_site_fract_y
_atom_site_fract_z
C1 C 0.0968(2) 0.87600(15) 0.58909(18)
C2 C -0.0353(2) 0.90147(17) 0.5718(2)
H1 H -0.1027 0.9136 0.4878
C3 C -0.0646(2) 0.90843(18) 0.6842(2)
H2 H -0.1532 0.9251 0.6752
C4 C 0.0358(2) 0.89103(18) 0.8087(2)
H3 H 0.0137 0.8960 0.8824
C5 C 0.1690(2) 0.86627(17) 0.8260(2)
H4 H 0.2365 0.8556 0.9104
C6 C 0.1998(2) 0.85774(15) 0.71458(19)
C7 C 0.3362(2) 0.83241(15) 0.70346(18)
C8 C 0.4588(2) 0.89264(16) 0.79669(19)
H5 H 0.5453 0.8661 0.8003
H6 H 0.4607 0.8937 0.8856
C9 C 0.4348(2) 0.99524(16) 0.73638(18)
H7 H 0.3811 1.0348 0.7730
C10 C 0.30625(19) 0.87552(15) 0.56456(18)
H8 H 0.3549 0.8401 0.5187
C11 C 0.3661(2) 0.72368(16) 0.71607(19)
C12 C 0.3462(2) 0.66386(16) 0.6080(2)
H9 H 0.3054 0.6896 0.5230
C13 C 0.3854(2) 0.56722(17) 0.6237(2)
H10 H 0.3710 0.5293 0.5493
C14 C 0.4462(2) 0.52576(16) 0.74920(19)
C15 C 0.4613(2) 0.58433(17) 0.8577(2)
H11 H 0.4987 0.5579 0.9425
C16 C 0.4220(2) 0.68038(17) 0.8418(2)
H12 H 0.4327 0.7175 0.9160
C17 C 0.5005(2) 0.42341(17) 0.7714(2)
C18 C 0.4901(3) 0.36283(19) 0.6551(3)
H13 H 0.5168 0.2972 0.6835
H14 H 0.5501 0.3888 0.6166
H15 H 0.3967 0.3635 0.5903
C19 C 0.5713(2) 1.04384(17) 0.75905(19)
C20 C 0.7409(3) 1.1501(3) 0.8998(3)
H16 H 0.7375 1.1938 0.8305
H17 H 0.8109 1.1019 0.9128
H18 H 0.7623 1.1860 0.9805
C21 C 0.3174(2) 1.05491(17) 0.5130(2)
C22 C 0.1715(3) 1.09953(19) 0.2851(2)
C23 C 0.2553(3) 1.1870(2) 0.2779(3)
H19 H 0.3353 1.1656 0.2645
H20 H 0.2838 1.2229 0.3593
H21 H 0.2001 1.2279 0.2055
C24 C 0.1271(3) 1.0398(2) 0.1585(2)
H22 H 0.0746 0.9846 0.1654
H23 H 0.2072 1.0179 0.1458
H24 H 0.0712 1.0792 0.0845
C25 C 0.0500(3) 1.1271(3) 0.3177(3)
H25 H 0.0821 1.1626 0.3997
H26 H 0.0031 1.0693 0.3261
H27 H -0.0125 1.1671 0.2481
C26 C 0.1013(2) 0.82758(16) 0.36880(19)
C27 C -0.1144(2) 0.75694(19) 0.2119(2)
C28 C -0.0611(4) 0.6534(2) 0.2406(3)
H28 H -0.0640 0.6321 0.3227
H29 H 0.0323 0.6510 0.2473
H30 H -0.1178 0.6115 0.1701
C29 C -0.2590(3) 0.7651(3) 0.2056(3)
H31 H -0.2876 0.8319 0.1931
H32 H -0.2614 0.7415 0.2869
H33 H -0.3203 0.7270 0.1328
C30 C -0.1050(3) 0.7981(3) 0.0876(2)
H34 H -0.0121 0.7918 0.0938
H35 H -0.1307 0.8655 0.0787
H36 H -0.1662 0.7629 0.0115
N1 N 0.15654(15) 0.86970(13) 0.49322(14)
N2 N 0.35599(18) 0.97637(13) 0.59529(15)
O1 O 0.55569(19) 0.39204(13) 0.88425(17)
O2 O 0.63927(18) 1.02864(16) 0.69626(17)
O3 O 0.60870(16) 1.10289(13) 0.86329(15)
O4 O 0.3416(2) 1.13715(13) 0.55512(15)
O5 O 0.25718(15) 1.02795(11) 0.38546(13)
O6 O 0.17013(15) 0.80313(12) 0.30920(14)
O7 O -0.03529(14) 0.81873(12) 0.32796(13)
loop_
_geom_bond_atom_site_label_1
_geom_bond_atom_site_label_2
_geom_bond_site_symmetry_1
_geom_bond_site_symmetry_2
C1 C2 1_555 1_555
C2 H1 1_555 1_555
C3 C2 1_555 1_555
H2 C3 1_555 1_555
C4 C3 1_555 1_555
H3 C4 1_555 1_555
C5 C4 1_555 1_555
H4 C5 1_555 1_555
C6 C1 1_555 1_555
C7 C6 1_555 1_555
C8 C7 1_555 1_555
H5 C8 1_555 1_555
H6 C8 1_555 1_555
C9 C8 1_555 1_555
H7 C9 1_555 1_555
C10 C7 1_555 1_555
H8 C10 1_555 1_555
C11 C7 1_555 1_555
C12 C11 1_555 1_555
H9 C12 1_555 1_555
C13 C12 1_555 1_555
H10 C13 1_555 1_555
C14 C13 1_555 1_555
C15 C14 1_555 1_555
H11 C15 1_555 1_555
C16 C11 1_555 1_555
H12 C16 1_555 1_555
C17 C14 1_555 1_555
C18 C17 1_555 1_555
H13 C18 1_555 1_555
H14 C18 1_555 1_555
H15 C18 1_555 1_555
C19 C9 1_555 1_555
C20 H16 1_555 1_555
H17 C20 1_555 1_555
H18 C20 1_555 1_555
C21 N2 1_555 1_555
C22 C23 1_555 1_555
C23 H19 1_555 1_555
H20 C23 1_555 1_555
H21 C23 1_555 1_555
C24 C22 1_555 1_555
H22 C24 1_555 1_555
H23 C24 1_555 1_555
H24 C24 1_555 1_555
C25 C22 1_555 1_555
H25 C25 1_555 1_555
H26 C25 1_555 1_555
H27 C25 1_555 1_555
C26 N1 1_555 1_555
C27 C28 1_555 1_555
C28 H28 1_555 1_555
H29 C28 1_555 1_555
H30 C28 1_555 1_555
C29 C27 1_555 1_555
H31 C29 1_555 1_555
H32 C29 1_555 1_555
H33 C29 1_555 1_555
C30 C27 1_555 1_555
H34 C30 1_555 1_555
H35 C30 1_555 1_555
H36 C30 1_555 1_555
N1 C1 1_555 1_555
N2 C9 1_555 1_555
O1 C17 1_555 1_555
O2 C19 1_555 1_555
O3 C19 1_555 1_555
O4 C21 1_555 1_555
O5 C21 1_555 1_555
O6 C26 1_555 1_555
O7 C26 1_555 1_555
C5 C6 1_555 1_555
C10 N1 1_555 1_555
C10 N2 1_555 1_555
C15 C16 1_555 1_555
C20 O3 1_555 1_555
C22 O5 1_555 1_555
C27 O7 1_555 1_555

#END
