
#######################################################################
#
#                 Cambridge Crystallographic Data Centre
#                                CCDC 
#
#######################################################################
#
# If this CIF has been generated from an entry in the Cambridge 
# Structural Database, then it will include bibliographic, chemical, 
# crystal, experimental, refinement or atomic coordinate data resulting 
# from the CCDC's data processing and validation procedures.
#
#######################################################################

data_TURANS
_chemical_name_common            Turanose
_chemical_formula_moiety         'C12 H22 O11'
_chemical_name_systematic        
O-\a-D-Glucopyranosyl-(1-3)-\b-D-fructopyranose
_symmetry_cell_setting           orthorhombic
_symmetry_space_group_name_H-M   'P 21 21 21'
_symmetry_Int_Tables_number      19
_space_group_name_Hall           'P 2ac 2ab'
loop_
_symmetry_equiv_pos_site_id
_symmetry_equiv_pos_as_xyz
1 x,y,z
2 1/2+x,1/2-y,-z
3 -x,1/2+y,1/2-z
4 1/2-x,-y,1/2+z
_cell_length_a                   8.124(1)
_cell_length_b                   9.212(2)
_cell_length_c                   19.254(3)
_cell_angle_alpha                90
_cell_angle_beta                 90
_cell_angle_gamma                90
_cell_volume                     1440.94
_cell_formula_units_Z            4
loop_
_atom_site_label
_atom_site_type_symbol
_atom_site_fract_x
_atom_site_fract_y
_atom_site_fract_z
C1 C 0.08261 0.05041 -0.26343
C2 C 0.03445 -0.02347 -0.33171
C3 C 0.16958 -0.12181 -0.35737
C4 C 0.32973 -0.03555 -0.36290
C5 C 0.37009 0.03079 -0.29265
C6 C 0.52124 0.12803 -0.29259
O1 O 0.08821 -0.05700 -0.21111
O2 O -0.11637 -0.10017 -0.31895
O3 O 0.11867 -0.17659 -0.42355
O4 O 0.46189 -0.12718 -0.38361
O5 O 0.23540 0.12096 -0.27037
O6 O 0.51020 0.24192 -0.34224
C7 C 0.29595 0.05638 -0.09271
C8 C 0.15222 -0.04898 -0.08778
C9 C 0.02468 -0.01624 -0.14452
C10 C -0.13226 -0.10268 -0.13247
C11 C -0.19924 -0.08052 -0.05944
C12 C -0.06261 -0.11289 -0.00852
O7 O 0.42031 0.02601 -0.04320
O8 O 0.20044 -0.19539 -0.09103
O9 O -0.25524 -0.06394 -0.18233
O10 O -0.25535 0.06572 -0.04939
O11 O 0.07842 -0.02266 -0.02220
H1 H 0.00600 0.13000 -0.25100
H2 H 0.02000 0.05300 -0.36600
H3 H 0.18600 -0.19700 -0.32100
H4 H 0.31800 0.04200 -0.39900
H5 H 0.38800 -0.04700 -0.25800
H6 H 0.54000 0.16200 -0.24300
H7 H 0.62000 0.07000 -0.30600
H8 H -0.15600 -0.10600 -0.35800
H9 H 0.17400 -0.25600 -0.43100
H10 H 0.46300 -0.12700 -0.43000
H11 H 0.43300 0.29600 -0.33300
H12 H 0.25100 0.16300 -0.08700
H13 H 0.34500 0.04800 -0.13900
H14 H -0.00300 0.08900 -0.14500
H15 H -0.09200 -0.20900 -0.13700
H16 H -0.29300 -0.14700 -0.04900
H17 H -0.09200 -0.08700 0.04000
H18 H -0.02000 -0.21400 -0.01100
H19 H 0.39600 0.06000 0.00100
H20 H 0.28500 -0.19700 -0.11800
H21 H -0.22800 -0.08300 -0.22700
H22 H -0.35800 0.09100 -0.05300
loop_
_geom_bond_atom_site_label_1
_geom_bond_atom_site_label_2
_geom_bond_site_symmetry_1
_geom_bond_site_symmetry_2
C1 C2 1_555 1_555
C2 C3 1_555 1_555
C3 C4 1_555 1_555
C4 C5 1_555 1_555
C5 C6 1_555 1_555
C6 O6 1_555 1_555
O1 C1 1_555 1_555
O2 C2 1_555 1_555
O3 C3 1_555 1_555
O4 C4 1_555 1_555
O5 C1 1_555 1_555
O6 H11 1_555 1_555
C7 C8 1_555 1_555
C8 C9 1_555 1_555
C9 O1 1_555 1_555
C10 C9 1_555 1_555
C11 C10 1_555 1_555
C12 C11 1_555 1_555
O7 C7 1_555 1_555
O8 C8 1_555 1_555
O9 C10 1_555 1_555
O10 C11 1_555 1_555
O11 C8 1_555 1_555
H1 C1 1_555 1_555
H2 C2 1_555 1_555
H3 C3 1_555 1_555
H4 C4 1_555 1_555
H5 C5 1_555 1_555
H6 C6 1_555 1_555
H7 C6 1_555 1_555
H8 O2 1_555 1_555
H9 O3 1_555 1_555
H10 O4 1_555 1_555
H12 C7 1_555 1_555
H13 C7 1_555 1_555
H14 C9 1_555 1_555
H15 C10 1_555 1_555
H16 C11 1_555 1_555
H17 C12 1_555 1_555
H18 C12 1_555 1_555
H19 O7 1_555 1_555
H20 O8 1_555 1_555
H21 O9 1_555 1_555
H22 O10 1_555 1_555
C5 O5 1_555 1_555
C12 O11 1_555 1_555

#END
