
#######################################################################
#
#                 Cambridge Crystallographic Data Centre
#                                CCDC 
#
#######################################################################
#
# If this CIF has been generated from an entry in the Cambridge 
# Structural Database, then it will include bibliographic, chemical, 
# crystal, experimental, refinement or atomic coordinate data resulting 
# from the CCDC's data processing and validation procedures.
#
#######################################################################

data_TURKIC
_chemical_formula_moiety         'C13 H14 O2'
_chemical_name_systematic        
7-Methyl-2,3,3a,9b-tetrahydrocyclopenta[c]isochromen-5(1H)-one
_symmetry_cell_setting           monoclinic
_symmetry_space_group_name_H-M   'P 21/n'
_symmetry_Int_Tables_number      14
_space_group_name_Hall           '-P 2yn'
loop_
_symmetry_equiv_pos_site_id
_symmetry_equiv_pos_as_xyz
1 x,y,z
2 1/2-x,1/2+y,1/2-z
3 -x,-y,-z
4 1/2+x,1/2-y,1/2+z
_cell_length_a                   6.0063(4)
_cell_length_b                   12.1809(10)
_cell_length_c                   14.0370(10)
_cell_angle_alpha                90
_cell_angle_beta                 95.397(2)
_cell_angle_gamma                90
_cell_volume                     1022.42
_exptl_crystal_colour            colorless
_exptl_crystal_description       Block
_cell_formula_units_Z            4
loop_
_atom_site_label
_atom_site_type_symbol
_atom_site_fract_x
_atom_site_fract_y
_atom_site_fract_z
O1 O 0.56693(17) 0.49890(9) 0.23394(8)
O2 O 0.80327(18) 0.63249(9) 0.21174(8)
C1 C 0.2859(3) 0.35492(13) 0.26103(13)
H1 H 0.3686 0.2845 0.2661
H2 H 0.2339 0.3688 0.1931
C2 C 0.0877(3) 0.35406(13) 0.32395(12)
H3 H 0.0886 0.2857 0.3621
H4 H -0.0562 0.3588 0.2835
C3 C 0.1191(3) 0.45558(12) 0.39064(11)
H5 H -0.0261 0.4906 0.3998
H6 H 0.1951 0.4354 0.4539
C4 C 0.3937(2) 0.62361(12) 0.38508(11)
C5 C 0.5918(2) 0.65380(12) 0.34610(10)
C6 C 0.6639(2) 0.59619(13) 0.26016(11)
C7 C 0.3278(3) 0.68344(12) 0.46206(11)
H7 H 0.1945 0.6639 0.4893
C8 C 0.4543(3) 0.77126(12) 0.49942(11)
H8 H 0.4072 0.8104 0.5525
C9 C 0.6498(3) 0.80316(13) 0.46038(11)
C10 C 0.7167(3) 0.74316(13) 0.38343(11)
H9 H 0.8493 0.7634 0.3560
C11 C 0.7839(3) 0.90083(14) 0.49881(13)
H10 H 0.7748 0.9593 0.4507
H11 H 0.9405 0.8792 0.5137
H12 H 0.7237 0.9275 0.5571
C12 C 0.4296(3) 0.44874(13) 0.30289(12)
H13 H 0.5285 0.4217 0.3593
C13 C 0.2650(3) 0.53068(14) 0.33598(12)
H14 H 0.1727 0.5603 0.2787
H15? H 0.1227 0.4348 0.4590
H16? H 0.0011 0.5113 0.3754
C14? C 0.332(4) 0.5029(19) 0.2605(17)
H17? H 0.2192 0.5535 0.2268
C15? C 0.362(5) 0.498(2) 0.3633(18)
H18? H 0.4901 0.4510 0.3893
loop_
_geom_bond_atom_site_label_1
_geom_bond_atom_site_label_2
_geom_bond_site_symmetry_1
_geom_bond_site_symmetry_2
O1 C6 1_555 1_555
O2 C6 1_555 1_555
C1 H1 1_555 1_555
H2 C1 1_555 1_555
C2 C1 1_555 1_555
H3 C2 1_555 1_555
H4 C2 1_555 1_555
C3 C2 1_555 1_555
H5 C3 1_555 1_555
H6 C3 1_555 1_555
C4 C5 1_555 1_555
C5 C6 1_555 1_555
C7 C4 1_555 1_555
H7 C7 1_555 1_555
C8 C7 1_555 1_555
H8 C8 1_555 1_555
C9 C8 1_555 1_555
C10 C5 1_555 1_555
H9 C10 1_555 1_555
C11 C9 1_555 1_555
H10 C11 1_555 1_555
H11 C11 1_555 1_555
H12 C11 1_555 1_555
C12 O1 1_555 1_555
H13 C12 1_555 1_555
C13 C3 1_555 1_555
H14 C13 1_555 1_555
C1 C12 1_555 1_555
C4 C13 1_555 1_555
C9 C10 1_555 1_555
C12 C13 1_555 1_555

#END
