
#######################################################################
#
#                 Cambridge Crystallographic Data Centre
#                                CCDC 
#
#######################################################################
#
# If this CIF has been generated from an entry in the Cambridge 
# Structural Database, then it will include bibliographic, chemical, 
# crystal, experimental, refinement or atomic coordinate data resulting 
# from the CCDC's data processing and validation procedures.
#
#######################################################################

data_TURPED
_chemical_formula_moiety         'C14 H12 N4 O1'
_chemical_name_systematic        
5-(1H-imidazol-2-ylmethylene)-3-methyl-2-phenyl-3,5-dihydro-4H-imidazol-4-one
_symmetry_cell_setting           triclinic
_symmetry_space_group_name_H-M   'P -1'
_symmetry_Int_Tables_number      2
_space_group_name_Hall           '-P 1'
loop_
_symmetry_equiv_pos_site_id
_symmetry_equiv_pos_as_xyz
1 x,y,z
2 -x,-y,-z
_cell_length_a                   7.5326(11)
_cell_length_b                   9.6002(13)
_cell_length_c                   10.1649(14)
_cell_angle_alpha                99.619(2)
_cell_angle_beta                 109.189(2)
_cell_angle_gamma                109.599(2)
_cell_volume                     621.42
_cell_formula_units_Z            2
loop_
_atom_site_label
_atom_site_type_symbol
_atom_site_fract_x
_atom_site_fract_y
_atom_site_fract_z
N1 N 0.3326(2) 0.63668(19) 0.66199(18)
H1 H 0.2871 0.6630 0.5828
N2 N 0.5359(3) 0.5829(2) 0.83969(18)
N3 N 0.7464(2) 0.80719(19) 0.37741(17)
N4 N 0.4905(2) 0.73305(19) 0.45507(17)
O1 O 0.9969(2) 0.75651(18) 0.54071(17)
C1 C 0.2325(3) 0.5991(3) 0.7484(2)
H2 H 0.1004 0.5961 0.7358
C2 C 0.3590(3) 0.5666(3) 0.8567(2)
H3 H 0.3282 0.5365 0.9338
C3 C 0.5156(3) 0.6264(2) 0.7197(2)
C4 C 0.6712(3) 0.6641(2) 0.6638(2)
H4 H 0.7938 0.6527 0.7142
C5 C 0.6600(3) 0.7139(2) 0.5466(2)
C6 C 0.8270(3) 0.7587(2) 0.4951(2)
C7 C 0.5459(3) 0.7863(2) 0.3589(2)
C8 C 0.8462(3) 0.8426(3) 0.2787(2)
H5 H 0.8920 0.9536 0.2884
H6 H 0.7476 0.7810 0.1774
H7 H 0.9661 0.8169 0.3039
C9 C 0.4102(3) 0.8205(2) 0.2395(2)
C10 C 0.4805(3) 0.9578(3) 0.2063(2)
H8 H 0.6205 1.0317 0.2595
C11 C 0.3458(4) 0.9865(3) 0.0957(3)
H9 H 0.3929 1.0810 0.0738
C12 C 0.1438(4) 0.8785(3) 0.0170(2)
H10 H 0.0529 0.8982 -0.0602
C13 C 0.0725(3) 0.7423(3) 0.0494(2)
H11 H -0.0673 0.6684 -0.0048
C14 C 0.2055(3) 0.7140(3) 0.1611(2)
H12 H 0.1563 0.6207 0.1845
loop_
_geom_bond_atom_site_label_1
_geom_bond_atom_site_label_2
_geom_bond_site_symmetry_1
_geom_bond_site_symmetry_2
N1 H1 1_555 1_555
N2 C2 1_555 1_555
N3 C6 1_555 1_555
N4 C5 1_555 1_555
O1 C6 1_555 1_555
C1 N1 1_555 1_555
H2 C1 1_555 1_555
C2 C1 1_555 1_555
H3 C2 1_555 1_555
C3 N1 1_555 1_555
C4 C3 1_555 1_555
H4 C4 1_555 1_555
C5 C4 1_555 1_555
C6 C5 1_555 1_555
C7 N3 1_555 1_555
C8 N3 1_555 1_555
H5 C8 1_555 1_555
H6 C8 1_555 1_555
H7 C8 1_555 1_555
C9 C7 1_555 1_555
C10 C9 1_555 1_555
H8 C10 1_555 1_555
C11 C10 1_555 1_555
H9 C11 1_555 1_555
C12 C11 1_555 1_555
H10 C12 1_555 1_555
C13 C12 1_555 1_555
H11 C13 1_555 1_555
C14 C9 1_555 1_555
H12 C14 1_555 1_555
N2 C3 1_555 1_555
N4 C7 1_555 1_555
C13 C14 1_555 1_555

#END
