
#######################################################################
#
#                 Cambridge Crystallographic Data Centre
#                                CCDC 
#
#######################################################################
#
# If this CIF has been generated from an entry in the Cambridge 
# Structural Database, then it will include bibliographic, chemical, 
# crystal, experimental, refinement or atomic coordinate data resulting 
# from the CCDC's data processing and validation procedures.
#
#######################################################################

data_TURSUW
_chemical_formula_moiety         'C15 H20 O1 S2 Si2'
_chemical_name_systematic        
2,5-bis(trimethylsilyl)-7H-thieno[3',2':3,4]cyclopenta[1,2-b]thiophen-7-one
_symmetry_cell_setting           orthorhombic
_symmetry_space_group_name_H-M   'P b c a'
_symmetry_Int_Tables_number      61
_space_group_name_Hall           '-P 2ac 2ab'
loop_
_symmetry_equiv_pos_site_id
_symmetry_equiv_pos_as_xyz
1 x,y,z
2 1/2-x,-y,1/2+z
3 -x,1/2+y,1/2-z
4 1/2+x,1/2-y,-z
5 -x,-y,-z
6 1/2+x,y,1/2-z
7 x,1/2-y,1/2+z
8 1/2-x,1/2+y,z
_cell_length_a                   6.9752(12)
_cell_length_b                   21.458(3)
_cell_length_c                   24.800(4)
_cell_angle_alpha                90
_cell_angle_beta                 90
_cell_angle_gamma                90
_cell_volume                     3711.91
_exptl_crystal_colour            red
_exptl_crystal_description       block
_cell_formula_units_Z            8
loop_
_atom_site_label
_atom_site_type_symbol
_atom_site_fract_x
_atom_site_fract_y
_atom_site_fract_z
C1 C 0.2918(5) 0.33441(17) 0.17498(16)
C2 C 0.2835(5) 0.31817(17) 0.22850(16)
H1 H 0.3156 0.3451 0.2564
C3 C 0.2213(5) 0.25653(16) 0.23660(15)
C4 C 0.1816(5) 0.22613(17) 0.18978(15)
C5 C 0.1289(5) 0.15960(19) 0.20012(16)
C6 C 0.1372(5) 0.15648(16) 0.26043(14)
C7 C 0.1874(5) 0.21312(16) 0.28197(15)
C8 C 0.1940(5) 0.21230(17) 0.33786(16)
H2 H 0.2257 0.2469 0.3586
C9 C 0.1485(5) 0.15480(17) 0.35981(14)
C10 C 0.5701(8) 0.3906(2) 0.0964(2)
H3 H 0.6029 0.4273 0.0762
H4 H 0.5265 0.3588 0.0721
H5 H 0.6809 0.3761 0.1156
C11 C 0.1735(8) 0.4479(3) 0.1110(2)
H6 H 0.0742 0.4563 0.1368
H7 H 0.1245 0.4211 0.0833
H8 H 0.2159 0.4864 0.0953
C12 C 0.4679(9) 0.4586(2) 0.20045(19)
H9 H 0.5015 0.4989 0.1866
H10 H 0.5791 0.4394 0.2161
H11 H 0.3703 0.4630 0.2275
C13 C 0.2621(8) 0.1985(2) 0.46945(17)
H12 H 0.2678 0.1888 0.5072
H13 H 0.1898 0.2361 0.4643
H14 H 0.3897 0.2042 0.4558
C14 C -0.1051(6) 0.1250(2) 0.45585(18)
H15 H -0.1766 0.1016 0.4296
H16 H -0.1618 0.1654 0.4602
H17 H -0.1070 0.1033 0.4897
C15 C 0.2766(7) 0.0598(2) 0.44124(17)
H18 H 0.2720 0.0472 0.4784
H19 H 0.4077 0.0657 0.4306
H20 H 0.2191 0.0282 0.4192
O1 O 0.0928(4) 0.11875(12) 0.16779(11)
S1 S 0.22094(15) 0.27236(5) 0.13513(4)
S2 S 0.09823(14) 0.10233(4) 0.30906(4)
Si1 Si 0.37709(19) 0.40945(6) 0.14505(5)
Si2 Si 0.14433(18) 0.13358(6) 0.43279(5)
loop_
_geom_bond_atom_site_label_1
_geom_bond_atom_site_label_2
_geom_bond_site_symmetry_1
_geom_bond_site_symmetry_2
C1 C2 1_555 1_555
C2 H1 1_555 1_555
C3 C2 1_555 1_555
C4 C3 1_555 1_555
C5 C4 1_555 1_555
C6 C5 1_555 1_555
C7 C3 1_555 1_555
C8 C7 1_555 1_555
H2 C8 1_555 1_555
C9 C8 1_555 1_555
C10 H3 1_555 1_555
H4 C10 1_555 1_555
H5 C10 1_555 1_555
C11 H6 1_555 1_555
H7 C11 1_555 1_555
H8 C11 1_555 1_555
C12 H9 1_555 1_555
H10 C12 1_555 1_555
H11 C12 1_555 1_555
C13 H12 1_555 1_555
H13 C13 1_555 1_555
H14 C13 1_555 1_555
C14 H15 1_555 1_555
H16 C14 1_555 1_555
H17 C14 1_555 1_555
C15 H18 1_555 1_555
H19 C15 1_555 1_555
H20 C15 1_555 1_555
O1 C5 1_555 1_555
S1 C1 1_555 1_555
S2 C6 1_555 1_555
Si1 C1 1_555 1_555
Si2 C9 1_555 1_555
C4 S1 1_555 1_555
C6 C7 1_555 1_555
C9 S2 1_555 1_555
C10 Si1 1_555 1_555
C11 Si1 1_555 1_555
C12 Si1 1_555 1_555
C13 Si2 1_555 1_555
C14 Si2 1_555 1_555
C15 Si2 1_555 1_555

#END
