
#######################################################################
#
#                 Cambridge Crystallographic Data Centre
#                                CCDC 
#
#######################################################################
#
# If this CIF has been generated from an entry in the Cambridge 
# Structural Database, then it will include bibliographic, chemical, 
# crystal, experimental, refinement or atomic coordinate data resulting 
# from the CCDC's data processing and validation procedures.
#
#######################################################################

data_TURXUB
_chemical_name_common            
'5,12,19,26-Tetra-azaheptacyclo[24.2.2.2$2,5!.2$7,10!.2$12,15!.2$16,19!.2$21,24!]tetraconta-1,3,7,9,13,15,17,21,23,27,29,31,33,35,37,39-hexadecaene acetonitrile solvate'
_chemical_formula_moiety         'C36 H32 N4,2.33(C2 H3 N1)'
_chemical_name_systematic        
'Cyclobis(paraquat-p-phenylene) acetonitrile solvate'
_symmetry_cell_setting           rhombohedral
_symmetry_space_group_name_H-M   'R -3'
_symmetry_Int_Tables_number      148
_space_group_name_Hall           '-R 3'
loop_
_symmetry_equiv_pos_site_id
_symmetry_equiv_pos_as_xyz
1 x,y,z
2 -y,x-y,z
3 -x+y,-x,z
4 2/3+x,1/3+y,1/3+z
5 2/3-y,1/3+x-y,1/3+z
6 2/3-x+y,1/3-x,1/3+z
7 1/3+x,2/3+y,2/3+z
8 1/3-y,2/3+x-y,2/3+z
9 1/3-x+y,2/3-x,2/3+z
10 -x,-y,-z
11 y,-x+y,-z
12 x-y,x,-z
13 1/3-x,2/3-y,2/3-z
14 1/3+y,2/3-x+y,2/3-z
15 1/3+x-y,2/3+x,2/3-z
16 2/3-x,1/3-y,1/3-z
17 2/3+y,1/3-x+y,1/3-z
18 2/3+x-y,1/3+x,1/3-z
_cell_length_a                   22.3679(12)
_cell_length_b                   22.3679(12)
_cell_length_c                   17.9046(10)
_cell_angle_alpha                90
_cell_angle_beta                 90
_cell_angle_gamma                120
_cell_volume                     7757.93
_exptl_crystal_colour            red
_exptl_crystal_description       block
_cell_formula_units_Z            9
_chemical_properties_physical    
'Air-sensitive, Oxygen-sensitive, Light-sensitive'
_exptl_crystal_recrystallization_method 'Acetonitrile / hexane'
loop_
_atom_site_label
_atom_site_type_symbol
_atom_site_fract_x
_atom_site_fract_y
_atom_site_fract_z
N1 N 0.80524(5) 0.85253(5) 0.08307(5)
N2 N 0.54701(5) 0.59980(5) 0.32090(5)
C1 C 0.85563(6) 0.92480(5) 0.06557(6)
H1 H 0.8446(6) 0.9348(6) 0.0146(7)
H2 H 0.9024(7) 0.9284(7) 0.0648(7)
C2 C 0.82143(6) 0.82079(5) 0.14042(6)
H3 H 0.8710(7) 0.8378(7) 0.1454(7)
C3 C 0.77331(6) 0.77145(6) 0.18400(6)
H4 H 0.7888(7) 0.7506(7) 0.2216(7)
C4 C 0.69986(5) 0.74754(5) 0.17648(6)
C5 C 0.68518(6) 0.78115(6) 0.11510(6)
H5 H 0.6372(7) 0.7678(7) 0.1035(8)
C6 C 0.73525(6) 0.83126(6) 0.07411(6)
H6 H 0.7252(7) 0.8553(7) 0.0348(7)
C7 C 0.65021(6) 0.69976(5) 0.22345(6)
C8 C 0.66602(6) 0.67351(6) 0.29063(6)
H7 H 0.7152(7) 0.6905(7) 0.3049(7)
C9 C 0.61653(6) 0.62767(6) 0.33623(6)
H8 H 0.6272(7) 0.6121(7) 0.3826(8)
C10 C 0.52901(6) 0.62473(6) 0.25900(6)
H9 H 0.4796(8) 0.6056(7) 0.2505(8)
C11 C 0.57639(6) 0.67147(6) 0.21234(6)
H10 H 0.5590(7) 0.6853(7) 0.1690(8)
C12 C 0.49568(6) 0.56109(6) 0.37868(7)
H11 H 0.4515(7) 0.5332(7) 0.3530(7)
H12 H 0.5094(7) 0.5294(7) 0.4043(8)
C13 C 0.48954(6) 0.60688(5) 0.43676(6)
C14 C 0.52366(6) 0.61887(6) 0.50477(6)
H13 H 0.5509(7) 0.5969(8) 0.5147(8)
C15 C 0.51839(6) 0.66096(6) 0.55825(6)
H14 H 0.5429(7) 0.6686(7) 0.6040(8)
C16 C 0.47911(5) 0.69226(5) 0.54468(6)
C17 C 0.44518(6) 0.68063(6) 0.47622(6)
H15 H 0.4160(7) 0.7020(7) 0.4656(7)
C18 C 0.45018(6) 0.63825(6) 0.42290(6)
H16 H 0.4248(7) 0.6294(7) 0.3763(8)
N1L N 0.52809(5) 0.81414(5) 0.58360(5)
N2L N 0.78632(5) 1.06687(5) 0.34577(5)
C1L C 0.47770(6) 0.74187(5) 0.60110(6)
H1L H 0.4887(6) 0.7319(6) 0.6521(7)
H2L H 0.4309(7) 0.7383(7) 0.6019(7)
C2L C 0.51190(6) 0.84588(5) 0.52625(6)
H3L H 0.4623(7) 0.8289(7) 0.5213(7)
C3L C 0.56002(6) 0.89522(6) 0.48267(6)
H4L H 0.5445(7) 0.9161(7) 0.4451(7)
C4L C 0.63347(5) 0.91913(5) 0.49019(6)
C5L C 0.64815(6) 0.88552(6) 0.55157(6)
H5L H 0.6961(7) 0.8989(7) 0.5632(8)
C6L C 0.59808(6) 0.83541(6) 0.59256(6)
H6L H 0.6081(7) 0.8114(7) 0.6319(7)
C7L C 0.68312(6) 0.96691(5) 0.44322(6)
C8L C 0.66731(6) 0.99316(6) 0.37604(6)
H7L H 0.6181(7) 0.9762(7) 0.3618(7)
C9L C 0.71680(6) 1.03900(6) 0.33044(6)
H8L H 0.7061(7) 1.0546(7) 0.2841(8)
C10L C 0.80432(6) 1.04194(6) 0.40767(6)
H9L H 0.8537(8) 1.0611(7) 0.4162(8)
C11L C 0.75694(6) 0.99520(6) 0.45433(6)
H10L H 0.7743(7) 0.9814(7) 0.4977(8)
C12L C 0.83765(6) 1.10558(6) 0.28799(7)
H11L H 0.8818(7) 1.1335(7) 0.3137(7)
H12L H 0.8239(7) 1.1373(7) 0.2624(8)
C13L C 0.84379(6) 1.05979(5) 0.22991(6)
C14L C 0.80967(6) 1.04780(6) 0.16190(6)
H13L H 0.7824(7) 1.0698(8) 0.1520(8)
C15L C 0.81494(6) 1.00571(6) 0.10842(6)
H14L H 0.7904(7) 0.9981(7) 0.0627(8)
C16L C 0.85422(5) 0.97441(5) 0.12199(6)
C17L C 0.88815(6) 0.98604(6) 0.19045(6)
H15L H 0.9173(7) 0.9647(7) 0.2011(7)
C18L C 0.88315(6) 1.02842(6) 0.24377(6)
H16L H 0.9085(7) 1.0373(7) 0.2904(8)
N3 N 0.47290(9) 0.81396(10) 0.28189(8)
C19 C 0.51918(8) 0.81020(8) 0.30098(8)
C20 C 0.57920(9) 0.80674(9) 0.32507(11)
H17 H 0.6041 0.8042 0.2812
H18 H 0.5645 0.7656 0.3561
H19 H 0.6097 0.8481 0.3542
N4? N 0.3333 0.6667 0.3362(3)
C21? C 0.3333 0.6667 0.2719(3)
C22? C 0.3333 0.6667 0.1898(3)
H20? H 0.3462 0.6333 0.1715
loop_
_geom_bond_atom_site_label_1
_geom_bond_atom_site_label_2
_geom_bond_site_symmetry_1
_geom_bond_site_symmetry_2
N1 C1 1_555 1_555
N2 C9 1_555 1_555
C1 H1 1_555 1_555
H2 C1 1_555 1_555
C2 N1 1_555 1_555
H3 C2 1_555 1_555
C3 C2 1_555 1_555
H4 C3 1_555 1_555
C4 C3 1_555 1_555
C5 C4 1_555 1_555
H5 C5 1_555 1_555
C6 N1 1_555 1_555
H6 C6 1_555 1_555
C7 C4 1_555 1_555
C8 C7 1_555 1_555
H7 C8 1_555 1_555
C9 C8 1_555 1_555
H8 C9 1_555 1_555
C10 N2 1_555 1_555
H9 C10 1_555 1_555
C11 C7 1_555 1_555
H10 C11 1_555 1_555
C12 N2 1_555 1_555
H11 C12 1_555 1_555
H12 C12 1_555 1_555
C13 C12 1_555 1_555
C14 C13 1_555 1_555
H13 C14 1_555 1_555
C15 C14 1_555 1_555
H14 C15 1_555 1_555
C16 C15 1_555 1_555
C17 C16 1_555 1_555
H15 C17 1_555 1_555
C18 C13 1_555 1_555
H16 C18 1_555 1_555
N3 C19 1_555 1_555
C19 C20 1_555 1_555
C20 H17 1_555 1_555
H18 C20 1_555 1_555
H19 C20 1_555 1_555
N1L C1L 1_555 1_555
N2L C9L 1_555 1_555
C1L C16 1_555 1_555
H1L C1L 1_555 1_555
H2L C1L 1_555 1_555
C2L N1L 1_555 1_555
H3L C2L 1_555 1_555
C3L C2L 1_555 1_555
H4L C3L 1_555 1_555
C4L C3L 1_555 1_555
C5L C4L 1_555 1_555
H5L C5L 1_555 1_555
C6L N1L 1_555 1_555
H6L C6L 1_555 1_555
C7L C4L 1_555 1_555
C8L C7L 1_555 1_555
H7L C8L 1_555 1_555
C9L C8L 1_555 1_555
H8L C9L 1_555 1_555
C10L N2L 1_555 1_555
H9L C10L 1_555 1_555
C11L C7L 1_555 1_555
H10L C11L 1_555 1_555
C12L N2L 1_555 1_555
H11L C12L 1_555 1_555
H12L C12L 1_555 1_555
C13L C12L 1_555 1_555
C14L C13L 1_555 1_555
H13L C14L 1_555 1_555
C15L C14L 1_555 1_555
H14L C15L 1_555 1_555
C16L C1 1_555 1_555
C17L C16L 1_555 1_555
H15L C17L 1_555 1_555
C18L C13L 1_555 1_555
H16L C18L 1_555 1_555
C5 C6 1_555 1_555
C10 C11 1_555 1_555
C17 C18 1_555 1_555
C5L C6L 1_555 1_555
C10L C11L 1_555 1_555
C15L C16L 1_555 1_555
C17L C18L 1_555 1_555

#END
