
#######################################################################
#
#                 Cambridge Crystallographic Data Centre
#                                CCDC 
#
#######################################################################
#
# If this CIF has been generated from an entry in the Cambridge 
# Structural Database, then it will include bibliographic, chemical, 
# crystal, experimental, refinement or atomic coordinate data resulting 
# from the CCDC's data processing and validation procedures.
#
#######################################################################

data_TURYEM
_chemical_formula_moiety         'C36 H32 N4 2+,2(F6 P1 1-),C36 H32 N4'
_chemical_name_systematic        
'12\l^5^,26\l^5^-Diaza-5,19-diazoniaheptacyclo[24.2.2.2^2,5^.2^7,10^.2^12,15^.2^16,19^.2^21,24^]tetraconta-1(28),2,4,7,9,12,14,16,18,21,23,26,29,31,33,35,37,39-octadecaene diradical 5,12,19,26-tetraazaheptacyclo[24.2.2.2^2,5^.2^7,10^.2^12,15^.2^16,19^.2^21,24^]tetraconta-1,3,7,9,13,15,17,21,23,27,29,31,33,35,37,39-hexadecaene bis(hexafluorophosphate)'
_symmetry_cell_setting           monoclinic
_symmetry_space_group_name_H-M   'P 21/m'
_symmetry_Int_Tables_number      11
_space_group_name_Hall           '-P 2yb'
loop_
_symmetry_equiv_pos_site_id
_symmetry_equiv_pos_as_xyz
1 x,y,z
2 -x,1/2+y,-z
3 -x,-y,-z
4 x,1/2-y,z
_cell_length_a                   9.9084(4)
_cell_length_b                   26.6982(9)
_cell_length_c                   15.8321(6)
_cell_angle_alpha                90
_cell_angle_beta                 99.632(2)
_cell_angle_gamma                90
_cell_volume                     4129.13
_exptl_crystal_colour            red
_exptl_crystal_description       block
_cell_formula_units_Z            2
_chemical_properties_physical    
'Air-sensitive, Oxygen-sensitive, Light-sensitive'
_exptl_crystal_recrystallization_method 'Acetonitrile / di-isopropyl ehter'
loop_
_atom_site_label
_atom_site_type_symbol
_atom_site_fract_x
_atom_site_fract_y
_atom_site_fract_z
N1 N 0.5445(4) 0.38325(14) 0.7242(2)
C1 C 0.4266(5) 0.35688(18) 0.7305(3)
H1 H 0.3475 0.3748 0.7398
C2 C 0.4204(5) 0.30664(17) 0.7239(3)
H2 H 0.3354 0.2905 0.7255
C3 C 0.5381(4) 0.27602(15) 0.7144(2)
C4 C 0.6579(5) 0.30592(18) 0.7082(3)
H3 H 0.7388 0.2893 0.6987
C5 C 0.6600(5) 0.35548(18) 0.7151(3)
H4 H 0.7436 0.3726 0.7138
C6 C 0.5595(6) 0.43477(18) 0.7576(3)
H5 H 0.4688 0.4513 0.7503
H6 H 0.6190 0.4543 0.7254
C7 C 0.624(2) 0.4334(7) 0.8547(11)
C8 C 0.5283(19) 0.4408(7) 0.9107(11)
H7 H 0.4340 0.4465 0.8898
C9 C 0.581(2) 0.4391(6) 1.0004(10)
H8 H 0.5191 0.4431 1.0396
C10 C 0.717(2) 0.4321(6) 1.0325(9)
C11 C 0.8050(18) 0.4264(8) 0.9754(8)
H9 H 0.8999 0.4218 0.9960
C12 C 0.7580(18) 0.4270(7) 0.8874(7)
H10 H 0.8218 0.4229 0.8493
C13 C 0.762(2) 0.4281(6) 1.1294(7)
H11 H 0.8530 0.4436 1.1456
H12 H 0.6964 0.4469 1.1583
N2 N 0.7675(16) 0.3766(6) 1.1588(7)
C14 C 0.8751(15) 0.3476(8) 1.1466(6)
H13 H 0.9559 0.3642 1.1367
C15 C 0.8765(13) 0.2959(7) 1.1475(8)
H14 H 0.9582 0.2782 1.1432
C16 C 0.7522(14) 0.2688(6) 1.1551(12)
C17 C 0.6395(18) 0.3004(6) 1.1660(14)
H15 H 0.5562 0.2850 1.1742
C18 C 0.6462(14) 0.3520(6) 1.1651(8)
H16 H 0.5664 0.3710 1.1688
N1C N 0.5445(4) 0.11675(14) 0.7242(2)
C1C C 0.4266(5) 0.14312(18) 0.7305(3)
H1C H 0.3475 0.1252 0.7398
C2C C 0.4204(5) 0.19336(17) 0.7239(3)
H2C H 0.3354 0.2095 0.7255
C3C C 0.5381(4) 0.22398(15) 0.7144(2)
C4C C 0.6579(5) 0.19408(18) 0.7082(3)
H3C H 0.7388 0.2107 0.6987
C5C C 0.6600(5) 0.14452(18) 0.7151(3)
H4C H 0.7436 0.1274 0.7138
C6C C 0.5595(6) 0.06523(18) 0.7576(3)
H5C H 0.4688 0.0487 0.7503
H6C H 0.6190 0.0457 0.7254
C7C C 0.624(2) 0.0666(7) 0.8547(11)
C8C C 0.5283(19) 0.0592(7) 0.9107(11)
H7C H 0.4340 0.0535 0.8898
C9C C 0.581(2) 0.0609(6) 1.0004(10)
H8C H 0.5191 0.0569 1.0396
C10C C 0.717(2) 0.0679(6) 1.0325(9)
C11C C 0.8050(18) 0.0736(8) 0.9754(8)
H9C H 0.8999 0.0782 0.9960
C12C C 0.7580(18) 0.0730(7) 0.8874(7)
H10C H 0.8218 0.0771 0.8493
C13C C 0.762(2) 0.0719(6) 1.1294(7)
H11C H 0.8530 0.0564 1.1456
H12C H 0.6964 0.0531 1.1583
N2C N 0.7675(16) 0.1234(6) 1.1588(7)
C14C C 0.8751(15) 0.1524(8) 1.1466(6)
H13C H 0.9559 0.1358 1.1367
C15C C 0.8765(13) 0.2041(7) 1.1475(8)
H14C H 0.9582 0.2218 1.1432
C16C C 0.7522(14) 0.2312(6) 1.1551(12)
C17C C 0.6395(18) 0.1996(6) 1.1660(14)
H15C H 0.5562 0.2150 1.1742
C18C C 0.6462(14) 0.1480(6) 1.1651(8)
H16C H 0.5664 0.1290 1.1688
N4 N 0.1817(3) 0.38184(12) 0.4345(2)
N5 N 0.8478(3) 0.38206(12) 0.4533(2)
C31 C 0.1540(4) 0.35637(15) 0.3590(2)
H29 H 0.1408 0.3743 0.3065
C32 C 0.1451(4) 0.30602(15) 0.3580(2)
H30 H 0.1254 0.2894 0.3043
C33 C 0.1644(4) 0.27661(14) 0.4348(2)
C34 C 0.1899(4) 0.30520(15) 0.5122(2)
H31 H 0.2018 0.2885 0.5659
C35 C 0.1975(4) 0.35600(15) 0.5100(2)
H32 H 0.2142 0.3741 0.5624
C36 C 0.8615(4) 0.27707(14) 0.4536(2)
C37 C 0.8885(4) 0.30559(14) 0.5303(2)
H33 H 0.9135 0.2890 0.5837
C38 C 0.8790(4) 0.35629(15) 0.5279(2)
H34 H 0.8947 0.3744 0.5803
C39 C 0.8252(4) 0.35587(16) 0.3784(2)
H35 H 0.8046 0.3738 0.3260
C40 C 0.8312(4) 0.30495(15) 0.3760(2)
H36 H 0.8152 0.2880 0.3225
C41 C 0.8120(4) 0.43537(15) 0.4528(3)
H37 H 0.8409 0.4521 0.4029
H38 H 0.8599 0.4516 0.5056
C42 C 0.6578(4) 0.44039(14) 0.4478(3)
C43 C 0.5721(4) 0.44432(15) 0.3698(3)
H39 H 0.6106 0.4474 0.3190
C44 C 0.4300(4) 0.44380(15) 0.3642(3)
H40 H 0.3716 0.4462 0.3103
C45 C 0.3756(4) 0.43967(14) 0.4403(3)
C46 C 0.4592(4) 0.43647(14) 0.5177(3)
H41 H 0.4212 0.4340 0.5688
C47 C 0.6016(4) 0.43693(14) 0.5216(3)
H42 H 0.6600 0.4348 0.5756
C48 C 0.2200(4) 0.43513(15) 0.4343(3)
H43 H 0.1907 0.4524 0.4835
H44 H 0.1735 0.4512 0.3810
N4C N 0.1817(3) 0.11816(12) 0.4345(2)
N5C N 0.8478(3) 0.11794(12) 0.4533(2)
C31C C 0.1540(4) 0.14363(15) 0.3590(2)
H29C H 0.1408 0.1257 0.3065
C32C C 0.1451(4) 0.19398(15) 0.3580(2)
H30C H 0.1254 0.2106 0.3043
C33C C 0.1644(4) 0.22339(14) 0.4348(2)
C34C C 0.1899(4) 0.19480(15) 0.5122(2)
H31C H 0.2018 0.2115 0.5659
C35C C 0.1975(4) 0.14400(15) 0.5100(2)
H32C H 0.2142 0.1259 0.5624
C36C C 0.8615(4) 0.22293(14) 0.4536(2)
C37C C 0.8885(4) 0.19441(14) 0.5303(2)
H33C H 0.9135 0.2110 0.5837
C38C C 0.8790(4) 0.14371(15) 0.5279(2)
H34C H 0.8947 0.1256 0.5803
C39C C 0.8252(4) 0.14413(16) 0.3784(2)
H35C H 0.8046 0.1262 0.3260
C40C C 0.8312(4) 0.19505(15) 0.3760(2)
H36C H 0.8152 0.2120 0.3225
C41C C 0.8120(4) 0.06463(15) 0.4528(3)
H37C H 0.8409 0.0479 0.4029
H38C H 0.8599 0.0484 0.5056
C42C C 0.6578(4) 0.05961(14) 0.4478(3)
C43C C 0.5721(4) 0.05568(15) 0.3698(3)
H39C H 0.6106 0.0526 0.3190
C44C C 0.4300(4) 0.05620(15) 0.3642(3)
H40C H 0.3716 0.0538 0.3103
C45C C 0.3756(4) 0.06033(14) 0.4403(3)
C46C C 0.4592(4) 0.06353(14) 0.5177(3)
H41C H 0.4212 0.0660 0.5688
C47C C 0.6016(4) 0.06307(14) 0.5216(3)
H42C H 0.6600 0.0652 0.5756
C48C C 0.2200(4) 0.06487(15) 0.4343(3)
H43C H 0.1907 0.0476 0.4835
H44C H 0.1735 0.0488 0.3810
P1 P 1.05798(13) 0.45944(4) 0.71483(7)
F1 F 1.0447(3) 0.51829(10) 0.71048(17)
F2 F 1.2192(3) 0.46604(12) 0.7397(3)
F3 F 1.0725(4) 0.40014(12) 0.7165(3)
F4 F 0.8973(3) 0.45254(12) 0.68822(19)
F5 F 1.0447(4) 0.46036(13) 0.81312(19)
F6 F 1.0722(4) 0.45849(12) 0.6162(2)
N3? N 0.7204(17) 0.3928(6) 1.1602(11)
C19? C 0.7499(19) 0.2868(8) 1.1566(16)
C20? C 0.627(2) 0.3124(9) 1.165(2)
H17? H 0.5513 0.2921 1.1731
C21? C 0.605(2) 0.3637(8) 1.1619(18)
H18? H 0.5173 0.3779 1.1611
C22? C 0.8420(17) 0.3708(8) 1.1514(9)
H19? H 0.9171 0.3921 1.1466
C23? C 0.8629(16) 0.3193(8) 1.1492(9)
H20? H 0.9496 0.3060 1.1430
C24? C 0.6936(19) 0.4427(6) 1.1221(10)
H21? H 0.6182 0.4584 1.1466
H22? H 0.7762 0.4637 1.1386
C25? C 0.657(2) 0.4427(7) 1.0287(11)
C26? C 0.523(2) 0.4366(7) 0.9911(11)
H23? H 0.4552 0.4338 1.0270
C27? C 0.481(2) 0.4343(10) 0.9018(14)
H24? H 0.3876 0.4283 0.8783
C28? C 0.579(3) 0.4410(10) 0.8475(18)
C29? C 0.720(2) 0.4483(8) 0.8896(12)
H25? H 0.7902 0.4526 0.8560
C30? C 0.752(2) 0.4491(10) 0.9756(13)
H26? H 0.8454 0.4543 1.0008
H27? H 0.6381 0.4503 0.7364
H28? H 0.4766 0.4538 0.7326
loop_
_geom_bond_atom_site_label_1
_geom_bond_atom_site_label_2
_geom_bond_site_symmetry_1
_geom_bond_site_symmetry_2
N1 C1 1_555 1_555
C1 H1 1_555 1_555
C2 C1 1_555 1_555
H2 C2 1_555 1_555
C3 C2 1_555 1_555
C4 C3 1_555 1_555
H3 C4 1_555 1_555
C5 N1 1_555 1_555
H4 C5 1_555 1_555
C6 N1 1_555 1_555
H5 C6 1_555 1_555
H6 C6 1_555 1_555
C7 C6 1_555 1_555
C8 C7 1_555 1_555
H7 C8 1_555 1_555
C9 C8 1_555 1_555
H8 C9 1_555 1_555
C10 C9 1_555 1_555
C11 C10 1_555 1_555
H9 C11 1_555 1_555
C12 C7 1_555 1_555
H10 C12 1_555 1_555
C13 C10 1_555 1_555
H11 C13 1_555 1_555
H12 C13 1_555 1_555
N2 C13 1_555 1_555
C14 N2 1_555 1_555
H13 C14 1_555 1_555
C15 C14 1_555 1_555
H14 C15 1_555 1_555
C16 C15 1_555 1_555
C17 C16 1_555 1_555
H15 C17 1_555 1_555
C18 N2 1_555 1_555
H16 C18 1_555 1_555
N4 C31 1_555 1_555
N5 C38 1_555 1_555
C31 H29 1_555 1_555
C32 C31 1_555 1_555
H30 C32 1_555 1_555
C33 C32 1_555 1_555
C34 C33 1_555 1_555
H31 C34 1_555 1_555
C35 N4 1_555 1_555
H32 C35 1_555 1_555
C36 C37 1_555 1_555
C37 H33 1_555 1_555
C38 C37 1_555 1_555
H34 C38 1_555 1_555
C39 N5 1_555 1_555
H35 C39 1_555 1_555
C40 C36 1_555 1_555
H36 C40 1_555 1_555
C41 N5 1_555 1_555
H37 C41 1_555 1_555
H38 C41 1_555 1_555
C42 C41 1_555 1_555
C43 C42 1_555 1_555
H39 C43 1_555 1_555
C44 C43 1_555 1_555
H40 C44 1_555 1_555
C45 C44 1_555 1_555
C46 C45 1_555 1_555
H41 C46 1_555 1_555
C47 C42 1_555 1_555
H42 C47 1_555 1_555
C48 N4 1_555 1_555
H43 C48 1_555 1_555
H44 C48 1_555 1_555
P1 F1 1_555 1_555
F2 P1 1_555 1_555
F3 P1 1_555 1_555
F4 P1 1_555 1_555
F5 P1 1_555 1_555
F6 P1 1_555 1_555
N1C C1C 1_555 1_555
C1C H1C 1_555 1_555
C2C C1C 1_555 1_555
H2C C2C 1_555 1_555
C3C C3 1_555 1_555
C4C C3C 1_555 1_555
H3C C4C 1_555 1_555
C5C N1C 1_555 1_555
H4C C5C 1_555 1_555
C6C N1C 1_555 1_555
H5C C6C 1_555 1_555
H6C C6C 1_555 1_555
C7C C6C 1_555 1_555
C8C C7C 1_555 1_555
H7C C8C 1_555 1_555
C9C C8C 1_555 1_555
H8C C9C 1_555 1_555
C10C C9C 1_555 1_555
C11C C10C 1_555 1_555
H9C C11C 1_555 1_555
C12C C7C 1_555 1_555
H10C C12C 1_555 1_555
C13C C10C 1_555 1_555
H11C C13C 1_555 1_555
H12C C13C 1_555 1_555
N2C C13C 1_555 1_555
C14C N2C 1_555 1_555
H13C C14C 1_555 1_555
C15C C14C 1_555 1_555
H14C C15C 1_555 1_555
C16C C16 1_555 1_555
C17C C16C 1_555 1_555
H15C C17C 1_555 1_555
C18C N2C 1_555 1_555
H16C C18C 1_555 1_555
N4C C31C 1_555 1_555
N5C C38C 1_555 1_555
C31C H29C 1_555 1_555
C32C C31C 1_555 1_555
H30C C32C 1_555 1_555
C33C C33 1_555 1_555
C34C C33C 1_555 1_555
H31C C34C 1_555 1_555
C35C N4C 1_555 1_555
H32C C35C 1_555 1_555
C36C C36 1_555 1_555
C37C C36C 1_555 1_555
H33C C37C 1_555 1_555
C38C C37C 1_555 1_555
H34C C38C 1_555 1_555
C39C N5C 1_555 1_555
H35C C39C 1_555 1_555
C40C C36C 1_555 1_555
H36C C40C 1_555 1_555
C41C N5C 1_555 1_555
H37C C41C 1_555 1_555
H38C C41C 1_555 1_555
C42C C41C 1_555 1_555
C43C C42C 1_555 1_555
H39C C43C 1_555 1_555
C44C C43C 1_555 1_555
H40C C44C 1_555 1_555
C45C C44C 1_555 1_555
C46C C45C 1_555 1_555
H41C C46C 1_555 1_555
C47C C42C 1_555 1_555
H42C C47C 1_555 1_555
C48C N4C 1_555 1_555
H43C C48C 1_555 1_555
H44C C48C 1_555 1_555
C4 C5 1_555 1_555
C11 C12 1_555 1_555
C17 C18 1_555 1_555
C34 C35 1_555 1_555
C39 C40 1_555 1_555
C45 C48 1_555 1_555
C46 C47 1_555 1_555
C2C C3C 1_555 1_555
C4C C5C 1_555 1_555
C11C C12C 1_555 1_555
C15C C16C 1_555 1_555
C17C C18C 1_555 1_555
C32C C33C 1_555 1_555
C34C C35C 1_555 1_555
C39C C40C 1_555 1_555
C45C C48C 1_555 1_555
C46C C47C 1_555 1_555

#END
