
#######################################################################
#
#                 Cambridge Crystallographic Data Centre
#                                CCDC 
#
#######################################################################
#
# If this CIF has been generated from an entry in the Cambridge 
# Structural Database, then it will include bibliographic, chemical, 
# crystal, experimental, refinement or atomic coordinate data resulting 
# from the CCDC's data processing and validation procedures.
#
#######################################################################

data_TURYAI
_chemical_formula_moiety         'C48 H40 N4'
_chemical_name_systematic        
'5,16,23,34-Tetra-azanonacyclo[32.2.2.2^2,5^.2^7,10^.2^11,14^.2^16,19^.2^20,23^.2^25,28^.2^29,32^]dopentaconta-1,3,7,9,11,13,17,19,21,25,27,29,31,35,37,39,41,43,45,47,49,51-docosaene unknown solvate'
_symmetry_cell_setting           monoclinic
_symmetry_space_group_name_H-M   'P 21/n'
_symmetry_Int_Tables_number      14
_space_group_name_Hall           '-P 2yn'
loop_
_symmetry_equiv_pos_site_id
_symmetry_equiv_pos_as_xyz
1 x,y,z
2 1/2-x,1/2+y,1/2-z
3 -x,-y,-z
4 1/2+x,1/2-y,1/2+z
_cell_length_a                   5.7756(3)
_cell_length_b                   23.3531(17)
_cell_length_c                   14.5753(12)
_cell_angle_alpha                90
_cell_angle_beta                 95.626(6)
_cell_angle_gamma                90
_cell_volume                     1956.42
_exptl_crystal_colour            orange
_exptl_crystal_description       needle
_cell_formula_units_Z            2
_chemical_properties_physical    
'Air-sensitive, Oxygen-sensitive, Light-sensitive'
_exptl_crystal_recrystallization_method 'Acetonitrile / di-isopropyl ether'
loop_
_atom_site_label
_atom_site_type_symbol
_atom_site_fract_x
_atom_site_fract_y
_atom_site_fract_z
N1 N 0.6825(8) 0.65265(19) 0.2693(4)
N2 N 0.6342(8) 0.70652(17) -0.2113(4)
C1 C 0.4735(9) 0.7298(2) -0.1559(6)
H1 H 0.3403 0.7483 -0.1858
C2 C 0.4940(9) 0.7279(2) -0.0655(5)
H2 H 0.3790 0.7462 -0.0334
C3 C 0.6888(9) 0.6984(2) -0.0116(5)
C4 C 0.8636(9) 0.6788(2) -0.0720(6)
H3 H 1.0052 0.6629 -0.0446
C5 C 0.8307(9) 0.6824(2) -0.1625(6)
H4 H 0.9487 0.6676 -0.1969
C6 C 0.6939(8) 0.6868(2) 0.0813(5)
C7 C 0.5126(9) 0.7029(2) 0.1374(5)
H5 H 0.3910 0.7269 0.1110
C8 C 0.5063(9) 0.6858(2) 0.2246(5)
H6 H 0.3780 0.6965 0.2569
C9 C 0.8655(10) 0.6382(2) 0.2206(5)
H7 H 0.9879 0.6156 0.2499
C10 C 0.8781(9) 0.6544(2) 0.1352(5)
H8 H 1.0137 0.6446 0.1066
C11 C 0.6421(10) 0.6261(3) 0.3557(5)
H9 H 0.5849 0.6555 0.3969
H10 H 0.7919 0.6114 0.3855
C12 C 0.4679(9) 0.5769(2) 0.3462(4)
C13 C 0.3921(9) 0.5527(2) 0.2613(4)
H11 H 0.4535 0.5661 0.2071
C14 C 0.2269(8) 0.5090(2) 0.2550(4)
H12 H 0.1711 0.4941 0.1962
C15 C 0.1432(8) 0.4868(2) 0.3341(4)
C16 C 0.2243(11) 0.5113(3) 0.4159(4)
H13 H 0.1704 0.4976 0.4713
C17 C 0.3846(11) 0.5561(3) 0.4199(5)
H14 H 0.4355 0.5722 0.4783
C18 C -0.0346(9) 0.4414(2) 0.3267(4)
C19 C -0.2051(9) 0.4398(2) 0.2529(4)
H15 H -0.2063 0.4683 0.2064
C20 C -0.3756(9) 0.3971(2) 0.2456(5)
H16 H -0.4907 0.3968 0.1944
C21 C -0.3774(9) 0.3549(2) 0.3132(4)
C22 C -0.2048(11) 0.3557(2) 0.3831(4)
H17 H -0.1973 0.3260 0.4278
C23 C -0.0386(10) 0.3988(2) 0.3911(4)
H18 H 0.0755 0.3987 0.4427
C24 C -0.5573(10) 0.3088(2) 0.3064(5)
H19 H -0.4926 0.2744 0.3393
H20 H -0.6932 0.3217 0.3373
N1B N -0.6825(8) 0.34735(19) -0.2693(4)
N2B N -0.6342(8) 0.29348(17) 0.2113(4)
C1B C -0.4735(9) 0.2702(2) 0.1559(6)
H1B H -0.3403 0.2517 0.1858
C2B C -0.4940(9) 0.2721(2) 0.0655(5)
H2B H -0.3790 0.2538 0.0334
C3B C -0.6888(9) 0.3016(2) 0.0116(5)
C4B C -0.8636(9) 0.3212(2) 0.0720(6)
H3B H -1.0052 0.3371 0.0446
C5B C -0.8307(9) 0.3176(2) 0.1625(6)
H4B H -0.9487 0.3324 0.1969
C6B C -0.6939(8) 0.3132(2) -0.0813(5)
C7B C -0.5126(9) 0.2971(2) -0.1374(5)
H5B H -0.3910 0.2731 -0.1110
C8B C -0.5063(9) 0.3142(2) -0.2246(5)
H6B H -0.3780 0.3035 -0.2569
C9B C -0.8655(10) 0.3618(2) -0.2206(5)
H7B H -0.9879 0.3844 -0.2499
C10B C -0.8781(9) 0.3456(2) -0.1352(5)
H8B H -1.0137 0.3554 -0.1066
C11B C -0.6421(10) 0.3739(3) -0.3557(5)
H9B H -0.5849 0.3445 -0.3969
H10B H -0.7919 0.3886 -0.3855
C12B C -0.4679(9) 0.4231(2) -0.3462(4)
C13B C -0.3921(9) 0.4473(2) -0.2613(4)
H11B H -0.4535 0.4339 -0.2071
C14B C -0.2269(8) 0.4910(2) -0.2550(4)
H12B H -0.1711 0.5059 -0.1962
C15B C -0.1432(8) 0.5132(2) -0.3341(4)
C16B C -0.2243(11) 0.4887(3) -0.4159(4)
H13B H -0.1704 0.5024 -0.4713
C17B C -0.3846(11) 0.4439(3) -0.4199(5)
H14B H -0.4355 0.4278 -0.4783
C18B C 0.0346(9) 0.5586(2) -0.3267(4)
C19B C 0.2051(9) 0.5602(2) -0.2529(4)
H15B H 0.2063 0.5317 -0.2064
C20B C 0.3756(9) 0.6029(2) -0.2456(5)
H16B H 0.4907 0.6032 -0.1944
C21B C 0.3774(9) 0.6451(2) -0.3132(4)
C22B C 0.2048(11) 0.6443(2) -0.3831(4)
H17B H 0.1973 0.6740 -0.4278
C23B C 0.0386(10) 0.6012(2) -0.3911(4)
H18B H -0.0755 0.6013 -0.4427
C24B C 0.5573(10) 0.6912(2) -0.3064(5)
H19B H 0.4926 0.7256 -0.3393
H20B H 0.6932 0.6783 -0.3373
loop_
_geom_bond_atom_site_label_1
_geom_bond_atom_site_label_2
_geom_bond_site_symmetry_1
_geom_bond_site_symmetry_2
N1 C8 1_555 1_555
N2 C1 1_555 1_555
C1 H1 1_555 1_555
C2 C1 1_555 1_555
H2 C2 1_555 1_555
C3 C2 1_555 1_555
C4 C3 1_555 1_555
H3 C4 1_555 1_555
C5 N2 1_555 1_555
H4 C5 1_555 1_555
C6 C3 1_555 1_555
C7 C6 1_555 1_555
H5 C7 1_555 1_555
C8 C7 1_555 1_555
H6 C8 1_555 1_555
C9 N1 1_555 1_555
H7 C9 1_555 1_555
C10 C6 1_555 1_555
H8 C10 1_555 1_555
C11 N1 1_555 1_555
H9 C11 1_555 1_555
H10 C11 1_555 1_555
C12 C11 1_555 1_555
C13 C12 1_555 1_555
H11 C13 1_555 1_555
C14 C13 1_555 1_555
H12 C14 1_555 1_555
C15 C14 1_555 1_555
C16 C15 1_555 1_555
H13 C16 1_555 1_555
C17 C12 1_555 1_555
H14 C17 1_555 1_555
C18 C15 1_555 1_555
C19 C18 1_555 1_555
H15 C19 1_555 1_555
C20 C19 1_555 1_555
H16 C20 1_555 1_555
C21 C20 1_555 1_555
C22 C21 1_555 1_555
H17 C22 1_555 1_555
C23 C18 1_555 1_555
H18 C23 1_555 1_555
C24 C21 1_555 1_555
H19 C24 1_555 1_555
H20 C24 1_555 1_555
N1B C8B 1_555 1_555
N2B C24 1_555 1_555
C1B N2B 1_555 1_555
H1B C1B 1_555 1_555
C2B C1B 1_555 1_555
H2B C2B 1_555 1_555
C3B C2B 1_555 1_555
C4B C3B 1_555 1_555
H3B C4B 1_555 1_555
C5B N2B 1_555 1_555
H4B C5B 1_555 1_555
C6B C3B 1_555 1_555
C7B C6B 1_555 1_555
H5B C7B 1_555 1_555
C8B C7B 1_555 1_555
H6B C8B 1_555 1_555
C9B N1B 1_555 1_555
H7B C9B 1_555 1_555
C10B C6B 1_555 1_555
H8B C10B 1_555 1_555
C11B N1B 1_555 1_555
H9B C11B 1_555 1_555
H10B C11B 1_555 1_555
C12B C11B 1_555 1_555
C13B C12B 1_555 1_555
H11B C13B 1_555 1_555
C14B C13B 1_555 1_555
H12B C14B 1_555 1_555
C15B C14B 1_555 1_555
C16B C15B 1_555 1_555
H13B C16B 1_555 1_555
C17B C12B 1_555 1_555
H14B C17B 1_555 1_555
C18B C15B 1_555 1_555
C19B C18B 1_555 1_555
H15B C19B 1_555 1_555
C20B C19B 1_555 1_555
H16B C20B 1_555 1_555
C21B C20B 1_555 1_555
C22B C21B 1_555 1_555
H17B C22B 1_555 1_555
C23B C18B 1_555 1_555
H18B C23B 1_555 1_555
C24B N2 1_555 1_555
H19B C24B 1_555 1_555
H20B C24B 1_555 1_555
C4 C5 1_555 1_555
C9 C10 1_555 1_555
C16 C17 1_555 1_555
C22 C23 1_555 1_555
C4B C5B 1_555 1_555
C9B C10B 1_555 1_555
C16B C17B 1_555 1_555
C21B C24B 1_555 1_555
C22B C23B 1_555 1_555

#END
