
#######################################################################
#
#                 Cambridge Crystallographic Data Centre
#                                CCDC 
#
#######################################################################
#
# If this CIF has been generated from an entry in the Cambridge 
# Structural Database, then it will include bibliographic, chemical, 
# crystal, experimental, refinement or atomic coordinate data resulting 
# from the CCDC's data processing and validation procedures.
#
#######################################################################

data_TUSGIZ
_chemical_formula_moiety         'C23 H26 N2 O3 S2'
_chemical_name_systematic        
6-(4-(diethylamino)phenyl)-3-((4-methylphenyl)sulfonyl)-4-(methylsulfanyl)pyridin-2(1H)-one
_symmetry_cell_setting           monoclinic
_symmetry_space_group_name_H-M   'C 2/c'
_symmetry_Int_Tables_number      15
_space_group_name_Hall           '-C 2yn'
loop_
_symmetry_equiv_pos_site_id
_symmetry_equiv_pos_as_xyz
1 x,y,z
2 -x,y,1/2-z
3 1/2+x,1/2+y,z
4 1/2-x,1/2+y,1/2-z
5 -x,-y,-z
6 x,-y,1/2+z
7 1/2-x,1/2-y,-z
8 1/2+x,1/2-y,1/2+z
_cell_length_a                   30.403(8)
_cell_length_b                   10.053(3)
_cell_length_c                   16.144(4)
_cell_angle_alpha                90
_cell_angle_beta                 113.102(4)
_cell_angle_gamma                90
_cell_volume                     4538.58
_exptl_crystal_colour            yellow
_exptl_crystal_description       platelet
_cell_formula_units_Z            8
loop_
_atom_site_label
_atom_site_type_symbol
_atom_site_fract_x
_atom_site_fract_y
_atom_site_fract_z
S1 S 0.056525(15) 0.45609(5) 0.23915(3)
S2 S 0.099636(14) 0.37400(4) 0.45499(3)
O1 O 0.19754(4) 0.26404(13) 0.50849(8)
O2 O 0.12973(4) 0.40955(14) 0.54583(8)
O3 O 0.05847(4) 0.45640(13) 0.40858(8)
N1 N 0.20880(5) 0.31441(15) 0.38157(9)
N2 N 0.32402(5) 0.34894(15) 0.12101(10)
C1 C 0.18066(6) 0.31242(17) 0.43148(11)
C2 C 0.13343(6) 0.36662(16) 0.38824(11)
C3 C 0.11617(6) 0.40556(17) 0.29740(11)
C4 C 0.14756(6) 0.40092(17) 0.25253(11)
C5 C 0.19425(6) 0.35674(16) 0.29524(11)
C6 C 0.22812(6) 0.35250(17) 0.25152(11)
C7 C 0.22059(6) 0.43114(17) 0.17554(11)
C8 C 0.25202(6) 0.43120(18) 0.13334(11)
C9 C 0.29331(6) 0.35020(17) 0.16405(11)
C10 C 0.30058(6) 0.26988(18) 0.24003(11)
C11 C 0.26908(6) 0.27208(17) 0.28254(11)
C12 C 0.05298(7) 0.4909(3) 0.12768(12)
C13 C 0.07883(6) 0.21064(18) 0.45679(11)
C14 C 0.03829(7) 0.1674(2) 0.38432(13)
C15 C 0.02181(8) 0.0394(3) 0.38461(15)
C16 C 0.04454(8) -0.0462(2) 0.45553(16)
C17 C 0.08434(8) -0.0007(3) 0.52816(15)
C18 C 0.10206(7) 0.1275(2) 0.52919(13)
C19 C 0.02649(10) -0.1868(3) 0.4541(2)
C20 C 0.32098(7) 0.44914(19) 0.05349(12)
C21 C 0.29123(8) 0.4051(3) -0.04202(13)
C22 C 0.36562(7) 0.2615(2) 0.14889(14)
C23 C 0.40941(7) 0.3213(3) 0.22343(15)
H1 H 0.2368(8) 0.289(3) 0.4111(15)
H2 H 0.1365 0.4288 0.1915
H3 H 0.1930 0.4860 0.1525
H4 H 0.2459 0.4869 0.0824
H5 H 0.3277 0.2132 0.2624
H6 H 0.2753 0.2178 0.3341
H7 H 0.0596 0.4095 0.1012
H8 H 0.0766 0.5591 0.1306
H9 H 0.0208 0.5231 0.0904
H10 H 0.0222 0.2254 0.3353
H11 H -0.0057 0.0097 0.3351
H12 H 0.0997 -0.0580 0.5780
H13 H 0.1296 0.1572 0.5787
H14 H 0.0489 -0.2361 0.5059
H15 H 0.0239 -0.2309 0.3983
H16 H -0.0050 -0.1844 0.4573
H17 H 0.3537 0.4706 0.0583
H18 H 0.3069 0.5314 0.0665
H19 H 0.3048 0.3234 -0.0553
H20 H 0.2913 0.4751 -0.0842
H21 H 0.2583 0.3883 -0.0483
H22 H 0.3735 0.2421 0.0961
H23 H 0.3575 0.1762 0.1702
H24 H 0.4366 0.2606 0.2374
H25 H 0.4027 0.3348 0.2774
H26 H 0.4171 0.4069 0.2034
loop_
_geom_bond_atom_site_label_1
_geom_bond_atom_site_label_2
_geom_bond_site_symmetry_1
_geom_bond_site_symmetry_2
S1 C3 1_555 1_555
S2 O2 1_555 1_555
O1 C1 1_555 1_555
O3 S2 1_555 1_555
N1 C1 1_555 1_555
N2 C9 1_555 1_555
C1 C2 1_555 1_555
C2 S2 1_555 1_555
C3 C2 1_555 1_555
C4 C3 1_555 1_555
C5 N1 1_555 1_555
C6 C5 1_555 1_555
C7 C6 1_555 1_555
C8 C7 1_555 1_555
C9 C8 1_555 1_555
C10 C9 1_555 1_555
C11 C6 1_555 1_555
C12 S1 1_555 1_555
C13 S2 1_555 1_555
C14 C13 1_555 1_555
C15 C14 1_555 1_555
C16 C15 1_555 1_555
C17 C16 1_555 1_555
C18 C13 1_555 1_555
C19 C16 1_555 1_555
C20 N2 1_555 1_555
C21 C20 1_555 1_555
C22 N2 1_555 1_555
C23 C22 1_555 1_555
H1 N1 1_555 1_555
H2 C4 1_555 1_555
H3 C7 1_555 1_555
H4 C8 1_555 1_555
H5 C10 1_555 1_555
H6 C11 1_555 1_555
H7 C12 1_555 1_555
H8 C12 1_555 1_555
H9 C12 1_555 1_555
H10 C14 1_555 1_555
H11 C15 1_555 1_555
H12 C17 1_555 1_555
H13 C18 1_555 1_555
H14 C19 1_555 1_555
H15 C19 1_555 1_555
H16 C19 1_555 1_555
H17 C20 1_555 1_555
H18 C20 1_555 1_555
H19 C21 1_555 1_555
H20 C21 1_555 1_555
H21 C21 1_555 1_555
H22 C22 1_555 1_555
H23 C22 1_555 1_555
H24 C23 1_555 1_555
H25 C23 1_555 1_555
H26 C23 1_555 1_555
C4 C5 1_555 1_555
C10 C11 1_555 1_555
C17 C18 1_555 1_555

#END
