
#######################################################################
#
#                 Cambridge Crystallographic Data Centre
#                                CCDC 
#
#######################################################################
#
# If this CIF has been generated from an entry in the Cambridge 
# Structural Database, then it will include bibliographic, chemical, 
# crystal, experimental, refinement or atomic coordinate data resulting 
# from the CCDC's data processing and validation procedures.
#
#######################################################################

data_TUSHUL
_chemical_name_common            
'beta-cyclodextrin monohydrate clathrate hydrate'
_chemical_formula_moiety         'C42 H70 O35,7.5(H2 O1)'
_chemical_name_systematic        
'5,10,15,20,25,30,35-heptakis(hydroxymethyl)-2,4,7,9,12,14,17,19,22,24,27,29,32,34-tetradecaoxaoctacyclo[31.2.2.2^3,6^.2^8,11^.2^13,16^.2^18,21^.2^23,26^.2^28,31^]nonatetracontane-36,37,38,39,40,41,42,43,44,45,46,47,48,49-tetradecol monohydrate clathrate hydrate'
_symmetry_cell_setting           monoclinic
_symmetry_space_group_name_H-M   'P 21'
_symmetry_Int_Tables_number      4
_space_group_name_Hall           'P 2yb'
loop_
_symmetry_equiv_pos_site_id
_symmetry_equiv_pos_as_xyz
1 x,y,z
2 -x,1/2+y,-z
_cell_length_a                   15.1667(5)
_cell_length_b                   10.1850(3)
_cell_length_c                   20.9694(7)
_cell_angle_alpha                90
_cell_angle_beta                 110.993(2)
_cell_angle_gamma                90
_cell_volume                     3024.2
_exptl_crystal_colour            colorless
_exptl_crystal_description       block
_cell_formula_units_Z            2
loop_
_atom_site_label
_atom_site_type_symbol
_atom_site_fract_x
_atom_site_fract_y
_atom_site_fract_z
C1 C 0.4602(7) 0.3230(8) -0.2861(5)
H1 H 0.4767 0.3056 -0.2377
H2 H 0.5180 0.3163 -0.2957
C2 C 0.5885(5) -0.1583(8) -0.0146(4)
H3 H 0.5333 -0.1116 -0.0442
H4 H 0.5753 -0.1886 0.0249
C3 C 0.9252(5) -0.5482(7) -0.1440(3)
H5 H 0.9592 -0.6007 -0.1035
C4 C 0.8891(6) -0.2359(8) -0.0192(3)
H6 H 0.9295 -0.1616 -0.0183
H7 H 0.8273 -0.2024 -0.0238
C5 C 0.5478(4) -0.4956(6) -0.1045(3)
H8 H 0.5634 -0.4790 -0.1452
C6 C 0.5338(4) 0.2295(7) -0.5214(3)
H9 H 0.5226 0.1419 -0.5065
C7 C 0.3972(5) 0.2166(7) -0.3236(3)
H10 H 0.4319 0.1337 -0.3108
C8 C 0.8311(4) -0.4504(6) -0.0820(3)
H11 H 0.8652 -0.5009 -0.0407
C9 C 0.7748(4) 0.2278(6) -0.4803(3)
H12 H 0.7575 0.3059 -0.5095
C10 C 0.6238(4) 0.2851(7) -0.4699(3)
H13 H 0.6398 0.3667 -0.4880
C11 C 0.3595(4) -0.0628(6) -0.1712(3)
H14 H 0.4256 -0.0661 -0.1679
C12 C 0.9769(4) -0.4202(7) -0.1368(3)
H15 H 1.0427 -0.4383 -0.1313
C13 C 0.2215(5) 0.0854(8) -0.3961(3)
H16 H 0.1750 0.1560 -0.4130
C14 C 0.8255(4) -0.5294(6) -0.1449(3)
H17 H 0.7895 -0.4786 -0.1856
C15 C 0.7126(4) -0.4581(7) -0.0281(3)
H18 H 0.7673 -0.4967 0.0077
C16 C 0.8269(4) -0.0050(6) -0.4759(3)
H19 H 0.7739 -0.0354 -0.4635
C17 C 0.6065(4) -0.2755(6) -0.0524(3)
H20 H 0.6251 -0.2451 -0.0901
C18 C 0.9767(5) 0.2023(7) -0.3211(3)
H21 H 0.9606 0.2780 -0.2995
H22 H 1.0032 0.1356 -0.2865
C19 C 0.6142(4) 0.3133(7) -0.4020(3)
H23 H 0.6036 0.2308 -0.3818
C20 C 0.4502(4) 0.3173(7) -0.5275(3)
H24 H 0.4586 0.4010 -0.5477
C21 C 1.0535(5) -0.1018(7) -0.1559(3)
H25 H 1.0574 -0.0068 -0.1571
H26 H 1.0170 -0.1240 -0.1277
C22 C 0.3397(5) 0.0686(8) -0.1474(3)
H27 H 0.3787 0.0812 -0.0997
H28 H 0.3544 0.1375 -0.1739
C23 C 0.2651(5) 0.0972(8) -0.3186(3)
H29 H 0.2138 0.1009 -0.3006
C24 C 0.3599(4) -0.2895(7) -0.1410(3)
H30 H 0.3498 -0.3470 -0.1068
C25 C 0.5215(4) -0.3674(7) -0.0802(3)
H31 H 0.4939 -0.3835 -0.0452
C26 C 0.2945(4) -0.0954(7) -0.2454(3)
H32 H 0.2286 -0.0791 -0.2507
C27 C 0.8804(5) -0.3229(7) -0.0805(3)
H33 H 0.8458 -0.2742 -0.1223
C28 C 0.2938(4) -0.3275(7) -0.2098(3)
H34 H 0.2289 -0.3195 -0.2107
C29 C 0.7950(4) 0.1146(6) -0.5209(3)
H35 H 0.8464 0.1413 -0.5360
C30 C 0.4477(5) 0.3448(7) -0.4556(3)
H36 H 0.3970 0.4076 -0.4595
C31 C 1.0135(4) -0.1359(6) -0.3375(3)
H37 H 1.0536 -0.1022 -0.3615
C32 C 0.8892(4) 0.1498(6) -0.3757(3)
H38 H 0.8421 0.1286 -0.3552
C33 C 1.0011(4) -0.1501(6) -0.2273(3)
H39 H 0.9382 -0.1100 -0.2448
C34 C 0.3547(4) 0.2226(7) -0.4013(3)
H40 H 0.3153 0.3013 -0.4157
C35 C 0.2966(4) 0.1028(7) -0.4285(3)
H41 H 0.3387 0.0265 -0.4159
C36 C 0.9914(4) -0.3004(6) -0.2329(3)
H42 H 1.0541 -0.3408 -0.2135
C37 C 0.6319(4) -0.5578(6) -0.0507(3)
H43 H 0.6146 -0.5803 -0.0113
C38 C 1.0025(5) -0.2849(7) -0.3478(3)
H44 H 1.0655 -0.3247 -0.3306
C39 C 0.9070(4) 0.0295(5) -0.4115(3)
H45 H 0.9640 0.0438 -0.4223
C40 C 0.9458(5) -0.3394(6) -0.3071(3)
H46 H 0.8818 -0.3028 -0.3252
C41 C 0.3056(4) -0.2369(7) -0.2638(3)
H47 H 0.3688 -0.2490 -0.2656
O1 O 0.9754(3) -0.3502(5) -0.0797(2)
O2 O 0.3196(3) 0.2129(5) -0.2986(2)
O3 O 0.5342(3) 0.3979(5) -0.4138(2)
O4 O 0.6843(3) -0.3444(4) -0.00323(18)
O5 O 0.8549(3) 0.2560(4) -0.4228(2)
O6 O 0.3450(3) -0.1562(5) -0.12587(18)
O7 O 1.0551(3) -0.1068(4) -0.26778(18)
O8 O 0.4292(7) 0.4556(9) -0.2977(4)
H48 H 0.3898 0.4627 -0.3363
O9 O 0.6656(5) -0.0721(7) 0.0069(4)
H49 H 0.6534 -0.0101 0.0274
O10 O 0.3630(3) 0.2608(6) -0.5699(2)
H50 H 0.3390 0.2213 -0.5462
O11 O 0.9261(4) -0.6203(5) -0.2018(2)
H51 H 0.9304 -0.5694 -0.2308
O12 O 0.2412(4) 0.0747(6) -0.1556(3)
H52 H 0.2245 0.0035 -0.1455
O13 O 1.1439(4) -0.1514(6) -0.1252(2)
H53 H 1.1823 -0.0980 -0.1288
O14 O 0.9402(4) -0.4791(4) -0.3144(2)
H54 H 0.9362 -0.5121 -0.2798
O15 O 0.9606(4) -0.3122(5) -0.41902(19)
H55 H 0.9327 -0.2468 -0.4391
O16 O 0.2530(3) 0.1045(7) -0.5011(2)
H56 H 0.2855 0.1475 -0.5173
O17 O 0.9273(4) -0.3066(6) 0.0428(2)
H57 H 0.9316 -0.2579 0.0750
O18 O 0.1737(3) -0.0362(6) -0.4152(2)
H58 H 0.1994 -0.0917 -0.3862
O19 O 0.4691(3) -0.5847(5) -0.1223(2)
H59 H 0.4230 -0.5507 -0.1513
O20 O 0.5436(3) 0.2194(6) -0.5868(2)
H60 H 0.5927 0.1804 -0.5826
O21 O 1.0443(3) 0.2388(5) -0.3501(2)
H61 H 1.0915 0.2678 -0.3201
O22 O 0.7820(3) -0.6508(5) -0.1484(2)
H62 H 0.7476 -0.6487 -0.1259
O23 O 0.3100(3) -0.4619(5) -0.2242(2)
H63 H 0.3447 -0.4637 -0.2465
O24 O 0.6588(3) -0.6748(4) -0.0761(2)
H64 H 0.6946 -0.6564 -0.0962
O25 O 0.7147(3) 0.0863(5) -0.5795(2)
H65 H 0.7185 0.1260 -0.6125
O26 O 0.2370(3) -0.2613(5) -0.32943(19)
H66 H 0.2601 -0.3076 -0.3514
O27 O 0.6975(3) 0.1906(4) -0.4614(2)
O28 O 0.3191(3) -0.0164(4) -0.29260(19)
O29 O 0.8526(3) -0.1081(4) -0.5113(2)
H67 H 0.8828 -0.1637 -0.4838
O30 O 0.7366(3) -0.4280(4) -0.08589(18)
O31 O 0.4279(3) 0.2245(4) -0.4300(2)
O32 O 0.4533(3) -0.3055(5) -0.13896(17)
O33 O 0.9220(2) -0.0805(4) -0.36674(17)
O34 O 0.9343(3) -0.3458(4) -0.19772(19)
O35 O 0.7071(10) 0.443(2) -0.3263(15)
C42 C 0.6978(7) 0.3794(11) -0.3539(6)
H68 H 0.7329 0.3082 -0.3252
H69 H 0.7337 0.4033 -0.3822
O36 O 0.5836(7) 0.6255(10) 0.7087(4)
O37 O 0.1723(5) 0.3142(8) -0.1170(3)
O38 O 0.8534(5) -0.0890(8) 0.2470(4)
O39 O -0.1120(6) 0.1272(9) -0.0733(3)
O40 O -0.2157(5) 0.1701(7) 0.0226(3)
O41 O -0.0181(3) 0.4431(4) 0.5385(2)
O42 O 0.611(2) -0.945(2) -0.1289(14)
O43 O -0.1757(14) 0.1157(16) -0.2257(7)
O44 O 0.2848(12) 0.414(2) -0.6926(9)
O45 O 0.599(3) -1.140(3) -0.241(2)
loop_
_geom_bond_atom_site_label_1
_geom_bond_atom_site_label_2
_geom_bond_site_symmetry_1
_geom_bond_site_symmetry_2
C1 H1 1_555 1_555
H2 C1 1_555 1_555
C2 H3 1_555 1_555
H4 C2 1_555 1_555
C3 H5 1_555 1_555
C4 H6 1_555 1_555
H7 C4 1_555 1_555
C5 H8 1_555 1_555
C6 H9 1_555 1_555
C7 C1 1_555 1_555
H10 C7 1_555 1_555
C8 H11 1_555 1_555
C9 H12 1_555 1_555
C10 C6 1_555 1_555
H13 C10 1_555 1_555
C11 H14 1_555 1_555
C12 C3 1_555 1_555
H15 C12 1_555 1_555
C13 H16 1_555 1_555
C14 C3 1_555 1_555
H17 C14 1_555 1_555
C15 H18 1_555 1_555
C16 H19 1_555 1_555
C17 C2 1_555 1_555
H20 C17 1_555 1_555
C18 H21 1_555 1_555
H22 C18 1_555 1_555
C19 C10 1_555 1_555
H23 C19 1_555 1_555
C20 C6 1_555 1_555
H24 C20 1_555 1_555
C21 H25 1_555 1_555
H26 C21 1_555 1_555
C22 C11 1_555 1_555
H27 C22 1_555 1_555
H28 C22 1_555 1_555
C23 C13 1_555 1_555
H29 C23 1_555 1_555
C24 H30 1_555 1_555
C25 C5 1_555 1_555
H31 C25 1_555 1_555
C26 C11 1_555 1_555
H32 C26 1_555 1_555
C27 C4 1_555 1_555
H33 C27 1_555 1_555
C28 C24 1_555 1_555
H34 C28 1_555 1_555
C29 C9 1_555 1_555
H35 C29 1_555 1_555
C30 C20 1_555 1_555
H36 C30 1_555 1_555
C31 H37 1_555 1_555
C32 C18 1_555 1_555
H38 C32 1_555 1_555
C33 C21 1_555 1_555
H39 C33 1_555 1_555
C34 C7 1_555 1_555
H40 C34 1_555 1_555
C35 C13 1_555 1_555
H41 C35 1_555 1_555
C36 C33 1_555 1_555
H42 C36 1_555 1_555
C37 C5 1_555 1_555
H43 C37 1_555 1_555
C38 C31 1_555 1_555
H44 C38 1_555 1_555
C39 C16 1_555 1_555
H45 C39 1_555 1_555
C40 C36 1_555 1_555
H46 C40 1_555 1_555
C41 C26 1_555 1_555
H47 C41 1_555 1_555
O1 C12 1_555 1_555
O2 C7 1_555 1_555
O3 C19 1_555 1_555
O4 C15 1_555 1_555
O5 C9 1_555 1_555
O6 C11 1_555 1_555
O7 C31 1_555 1_555
O8 C1 1_555 1_555
H48 O8 1_555 1_555
O9 C2 1_555 1_555
H49 O9 1_555 1_555
O10 C20 1_555 1_555
H50 O10 1_555 1_555
O11 C3 1_555 1_555
H51 O11 1_555 1_555
O12 C22 1_555 1_555
H52 O12 1_555 1_555
O13 C21 1_555 1_555
H53 O13 1_555 1_555
O14 C40 1_555 1_555
H54 O14 1_555 1_555
O15 C38 1_555 1_555
H55 O15 1_555 1_555
O16 C35 1_555 1_555
H56 O16 1_555 1_555
O17 C4 1_555 1_555
H57 O17 1_555 1_555
O18 C13 1_555 1_555
H58 O18 1_555 1_555
O19 C5 1_555 1_555
H59 O19 1_555 1_555
O20 C6 1_555 1_555
H60 O20 1_555 1_555
O21 C18 1_555 1_555
H61 O21 1_555 1_555
O22 C14 1_555 1_555
H62 O22 1_555 1_555
O23 C28 1_555 1_555
H63 O23 1_555 1_555
O24 C37 1_555 1_555
H64 O24 1_555 1_555
O25 C29 1_555 1_555
H65 O25 1_555 1_555
O26 C41 1_555 1_555
H66 O26 1_555 1_555
O27 C9 1_555 1_555
O28 C23 1_555 1_555
O29 C16 1_555 1_555
H67 O29 1_555 1_555
O30 C8 1_555 1_555
O31 C30 1_555 1_555
O32 C24 1_555 1_555
O33 C31 1_555 1_555
O34 C12 1_555 1_555
O35 C42 1_555 1_555
C42 C19 1_555 1_555
H68 C42 1_555 1_555
H69 C42 1_555 1_555
C8 C14 1_555 1_555
C8 C27 1_555 1_555
C10 O27 1_555 1_555
C15 C37 1_555 1_555
C15 O30 1_555 1_555
C16 C29 1_555 1_555
C17 C25 1_555 1_555
C17 O4 1_555 1_555
C23 O2 1_555 1_555
C24 O6 1_555 1_555
C25 O32 1_555 1_555
C26 O28 1_555 1_555
C27 O1 1_555 1_555
C28 C41 1_555 1_555
C30 O3 1_555 1_555
C32 C39 1_555 1_555
C32 O5 1_555 1_555
C33 O7 1_555 1_555
C34 C35 1_555 1_555
C34 O31 1_555 1_555
C36 O34 1_555 1_555
C38 C40 1_555 1_555
C39 O33 1_555 1_555

#END
