
#######################################################################
#
#                 Cambridge Crystallographic Data Centre
#                                CCDC 
#
#######################################################################
#
# If this CIF has been generated from an entry in the Cambridge 
# Structural Database, then it will include bibliographic, chemical, 
# crystal, experimental, refinement or atomic coordinate data resulting 
# from the CCDC's data processing and validation procedures.
#
#######################################################################

data_TUSMOK
_chemical_formula_moiety         'C23 H29 N1 O6'
_chemical_name_systematic        
(4S,5S)-5-((1S,3S)-3-(Benzyloxy)-1,4-dihydroxybutyl)-4-hydroxy-1-(4-methoxybenzyl)pyrrolidin-2-one
_symmetry_cell_setting           monoclinic
_symmetry_space_group_name_H-M   'C 2'
_symmetry_Int_Tables_number      5
_space_group_name_Hall           'C 2y'
loop_
_symmetry_equiv_pos_site_id
_symmetry_equiv_pos_as_xyz
1 x,y,z
2 -x,y,-z
3 1/2+x,1/2+y,z
4 1/2-x,1/2+y,-z
_cell_length_a                   20.6237(11)
_cell_length_b                   5.2216(3)
_cell_length_c                   21.2576(10)
_cell_angle_alpha                90
_cell_angle_beta                 109.713(6)
_cell_angle_gamma                90
_cell_volume                     2155.04
_exptl_crystal_colour            colorless
_exptl_crystal_description       rod
_chemical_melting_point          '169-170 deg.C'
_cell_formula_units_Z            4
loop_
_atom_site_label
_atom_site_type_symbol
_atom_site_fract_x
_atom_site_fract_y
_atom_site_fract_z
O1 O -0.43858(5) -0.1480(2) -0.19248(5)
N1 N -0.18447(6) -0.2379(3) -0.17280(6)
C1 C -0.22679(7) -0.1041(3) -0.13975(7)
H1 H -0.2408 0.0612 -0.1620
O2 O -0.27660(6) -0.5124(2) -0.12249(6)
H2 H -0.2424 -0.5172 -0.0887
C2 C -0.33230(7) -0.1203(3) -0.10554(7)
H3 H -0.3091 -0.1426 -0.0579
H4 H -0.3345 0.0617 -0.1152
C3 C -0.29147(7) -0.2535(3) -0.14343(7)
H5 H -0.3208 -0.2577 -0.1905
O3 O -0.17433(6) -0.2676(3) -0.02790(5)
H6 H -0.2036 -0.3716 -0.0485
O4 O -0.07113(6) -0.2758(3) -0.16374(6)
O5 O -0.44456(6) 0.1366(3) -0.07453(6)
H7 H -0.4815 0.1900 -0.0999
C4 C -0.40457(7) -0.2272(3) -0.12482(7)
H8 H -0.4022 -0.4146 -0.1232
C5 C -0.17500(7) -0.0543(3) -0.06980(7)
H9 H -0.1859 0.1045 -0.0509
C6 C -0.44264(8) -0.1345(4) -0.07942(8)
H10 H -0.4895 -0.1990 -0.0961
H11 H -0.4206 -0.2052 -0.0351
C7 C -0.24506(8) -0.1679(3) -0.29279(7)
O6 O -0.33675(7) 0.3604(3) -0.44295(6)
C8 C -0.21331(8) -0.3607(4) -0.23806(7)
H12 H -0.2481 -0.4833 -0.2367
H13 H -0.1772 -0.4535 -0.2480
C9 C -0.20405(8) -0.0060(4) -0.31441(8)
H14 H -0.1564 -0.0177 -0.2950
C10 C -0.10687(8) -0.0318(4) -0.08275(8)
H15 H -0.0978 0.1446 -0.0915
H16 H -0.0690 -0.0941 -0.0448
C11 C -0.11658(8) -0.1963(3) -0.14329(7)
C12 C -0.23207(9) 0.1747(4) -0.36449(8)
H17 H -0.2036 0.2815 -0.3786
C13 C -0.31597(9) -0.1457(4) -0.32205(8)
H18 H -0.3444 -0.2535 -0.3082
C14 C -0.34518(9) 0.0334(4) -0.37139(9)
H19 H -0.3928 0.0469 -0.3900
C15 C -0.30318(9) 0.1929(4) -0.39306(8)
C16 C -0.51786(9) -0.2291(5) -0.30008(8)
C17 C -0.29586(12) 0.5300(4) -0.46563(10)
H20 H -0.3252 0.6371 -0.5003
H21 H -0.2659 0.4332 -0.4828
H22 H -0.2687 0.6348 -0.4291
C18 C -0.49729(10) -0.2977(5) -0.22740(9)
H23 H -0.5347 -0.2616 -0.2108
H24 H -0.4863 -0.4786 -0.2211
C19 C -0.55897(11) -0.0173(6) -0.32391(12)
H25 H -0.5745 0.0791 -0.2951
C20 C -0.49454(13) -0.3694(6) -0.34284(11)
H26 H -0.4665 -0.5116 -0.3276
C21 C -0.57711(14) 0.0522(7) -0.39033(15)
H27 H -0.6051 0.1941 -0.4062
C22 C -0.55365(18) -0.0893(8) -0.43296(12)
H28 H -0.5655 -0.0424 -0.4776
C23 C -0.51401(19) -0.2935(8) -0.41006(13)
H29 H -0.4988 -0.3884 -0.4394
loop_
_geom_bond_atom_site_label_1
_geom_bond_atom_site_label_2
_geom_bond_site_symmetry_1
_geom_bond_site_symmetry_2
O1 C4 1_555 1_555
N1 C1 1_555 1_555
C1 H1 1_555 1_555
O2 H2 1_555 1_555
C2 H3 1_555 1_555
H4 C2 1_555 1_555
C3 C1 1_555 1_555
H5 C3 1_555 1_555
O3 H6 1_555 1_555
O4 C11 1_555 1_555
O5 H7 1_555 1_555
C4 C2 1_555 1_555
H8 C4 1_555 1_555
C5 C1 1_555 1_555
H9 C5 1_555 1_555
C6 O5 1_555 1_555
H10 C6 1_555 1_555
H11 C6 1_555 1_555
C7 C8 1_555 1_555
O6 C15 1_555 1_555
C8 N1 1_555 1_555
H12 C8 1_555 1_555
H13 C8 1_555 1_555
C9 C7 1_555 1_555
H14 C9 1_555 1_555
C10 C5 1_555 1_555
H15 C10 1_555 1_555
H16 C10 1_555 1_555
C11 N1 1_555 1_555
C12 C9 1_555 1_555
H17 C12 1_555 1_555
C13 C7 1_555 1_555
H18 C13 1_555 1_555
C14 C13 1_555 1_555
H19 C14 1_555 1_555
C15 C12 1_555 1_555
C16 C18 1_555 1_555
C17 O6 1_555 1_555
H20 C17 1_555 1_555
H21 C17 1_555 1_555
H22 C17 1_555 1_555
C18 O1 1_555 1_555
H23 C18 1_555 1_555
H24 C18 1_555 1_555
C19 C16 1_555 1_555
H25 C19 1_555 1_555
C20 C16 1_555 1_555
H26 C20 1_555 1_555
C21 C19 1_555 1_555
H27 C21 1_555 1_555
C22 C21 1_555 1_555
H28 C22 1_555 1_555
C23 C20 1_555 1_555
H29 C23 1_555 1_555
O2 C3 1_555 1_555
C2 C3 1_555 1_555
O3 C5 1_555 1_555
C4 C6 1_555 1_555
C10 C11 1_555 1_555
C14 C15 1_555 1_555
C22 C23 1_555 1_555

#END
