
#######################################################################
#
#                 Cambridge Crystallographic Data Centre
#                                CCDC 
#
#######################################################################
#
# If this CIF has been generated from an entry in the Cambridge 
# Structural Database, then it will include bibliographic, chemical, 
# crystal, experimental, refinement or atomic coordinate data resulting 
# from the CCDC's data processing and validation procedures.
#
#######################################################################

data_TUSXOW
_chemical_formula_moiety         'C17 H20 F1 N1 O2'
_chemical_name_systematic        
4-((4-(2-Fluoroethoxy)phenoxy)methyl)-N,N-dimethylaniline
_symmetry_cell_setting           triclinic
_symmetry_space_group_name_H-M   'P -1'
_symmetry_Int_Tables_number      2
_space_group_name_Hall           '-P 1'
loop_
_symmetry_equiv_pos_site_id
_symmetry_equiv_pos_as_xyz
1 x,y,z
2 -x,-y,-z
_cell_length_a                   9.393(6)
_cell_length_b                   10.349(6)
_cell_length_c                   16.118(10)
_cell_angle_alpha                103.583(11)
_cell_angle_beta                 96.463(11)
_cell_angle_gamma                103.055(10)
_cell_volume                     1460.75
_exptl_crystal_colour            white
_exptl_crystal_description       block
_chemical_melting_point          '418.1-418.3 K'
_cell_formula_units_Z            4
_exptl_crystal_recrystallization_method 'Ethyl acetate'
loop_
_atom_site_label
_atom_site_type_symbol
_atom_site_fract_x
_atom_site_fract_y
_atom_site_fract_z
C1 C 0.0098(3) -0.1911(2) 0.03448(15)
H1 H -0.0468 -0.2877 0.0259
H2 H -0.0454 -0.1502 -0.0038
C2 C 0.0243(2) -0.1129(2) 0.12628(15)
H3 H -0.0705 -0.1387 0.1471
H4 H 0.1025 -0.1347 0.1631
C3 C 0.0991(2) 0.1213(2) 0.21308(14)
C4 C 0.1417(2) 0.2607(2) 0.21644(14)
H5 H 0.1425 0.2878 0.1641
C5 C 0.1830(2) 0.3606(2) 0.29571(14)
H6 H 0.2122 0.4553 0.2974
C6 C 0.1814(2) 0.3211(2) 0.37265(14)
C7 C 0.1383(2) 0.1818(2) 0.36926(15)
H7 H 0.1374 0.1547 0.4216
C8 C 0.0967(2) 0.0819(2) 0.28998(14)
H8 H 0.0667 -0.0129 0.2883
C9 C 0.2668(2) 0.5548(2) 0.45916(14)
H9 H 0.1859 0.5821 0.4285
H10 H 0.3548 0.5737 0.4310
C10 C 0.3038(2) 0.6353(2) 0.55231(14)
C11 C 0.4495(2) 0.7070(2) 0.59135(14)
H11 H 0.5270 0.6994 0.5588
C12 C 0.4848(2) 0.7889(2) 0.67620(14)
H12 H 0.5851 0.8370 0.7004
C13 C 0.3737(2) 0.8015(2) 0.72674(14)
C14 C 0.2255(2) 0.7283(2) 0.68782(14)
H13 H 0.1477 0.7346 0.7202
C15 C 0.1930(2) 0.6473(2) 0.60271(14)
H14 H 0.0930 0.5988 0.5780
C16 C 0.5553(2) 0.9751(2) 0.84419(15)
H15 H 0.6296 0.9220 0.8414
H16 H 0.5614 1.0268 0.9044
H17 H 0.5741 1.0393 0.8082
C17 C 0.2872(2) 0.9124(2) 0.85693(15)
H18 H 0.2339 0.9636 0.8263
H19 H 0.3286 0.9682 0.9165
H20 H 0.2185 0.8263 0.8579
F1 F 0.15135(16) -0.18808(14) 0.01238(9)
N1 N 0.40738(19) 0.88141(18) 0.81230(12)
O1 O 0.06263(16) 0.03120(14) 0.13141(10)
O2 O 0.22091(16) 0.41031(14) 0.45427(9)
C18 C 0.5161(3) 0.6917(3) 0.96635(16)
H21 H 0.4995 0.7846 0.9745
H22 H 0.4542 0.6429 1.0011
C19 C 0.4719(3) 0.6147(2) 0.87345(15)
H23 H 0.3775 0.6300 0.8489
H24 H 0.5492 0.6471 0.8406
C20 C 0.4093(2) 0.3823(2) 0.78521(14)
C21 C 0.3699(2) 0.2433(2) 0.78194(14)
H25 H 0.3730 0.2161 0.8343
C22 C 0.3256(2) 0.1432(2) 0.70259(14)
H26 H 0.2995 0.0483 0.7009
C23 C 0.3199(2) 0.1832(2) 0.62573(14)
C24 C 0.3573(2) 0.3224(2) 0.62935(14)
H27 H 0.3522 0.3498 0.5771
C25 C 0.4022(2) 0.4220(2) 0.70843(14)
H28 H 0.4280 0.5169 0.7101
C26 C 0.2353(2) -0.0511(2) 0.53905(14)
H29 H 0.1487 -0.0716 0.5681
H30 H 0.3183 -0.0770 0.5689
C27 C 0.1967(2) -0.1321(2) 0.44587(14)
C28 C 0.0504(2) -0.2041(2) 0.40743(14)
H31 H -0.0265 -0.1960 0.4403
C29 C 0.0143(2) -0.2865(2) 0.32319(14)
H32 H -0.0863 -0.3342 0.2995
C30 C 0.1246(2) -0.3007(2) 0.27216(14)
C31 C 0.2730(2) -0.2272(2) 0.31016(14)
H33 H 0.3503 -0.2342 0.2774
C32 C 0.3062(2) -0.1451(2) 0.39474(14)
H34 H 0.4064 -0.0961 0.4187
C33 C 0.2082(2) -0.4097(2) 0.14006(15)
H35 H 0.2748 -0.3223 0.1394
H36 H 0.1653 -0.4642 0.0804
H37 H 0.2643 -0.4610 0.1688
C34 C -0.0583(2) -0.4770(2) 0.15628(15)
H38 H -0.0773 -0.5380 0.1943
H39 H -0.0639 -0.5323 0.0970
H40 H -0.1328 -0.4243 0.1569
F2 F 0.66613(16) 0.70323(16) 0.99487(9)
N2 N 0.08957(19) -0.38244(18) 0.18707(12)
O3 O 0.45395(16) 0.47214(14) 0.86706(10)
O4 O 0.27790(16) 0.09392(14) 0.54407(9)
loop_
_geom_bond_atom_site_label_1
_geom_bond_atom_site_label_2
_geom_bond_site_symmetry_1
_geom_bond_site_symmetry_2
C1 H1 1_555 1_555
H2 C1 1_555 1_555
C2 C1 1_555 1_555
H3 C2 1_555 1_555
H4 C2 1_555 1_555
C3 C4 1_555 1_555
C4 H5 1_555 1_555
C5 C4 1_555 1_555
H6 C5 1_555 1_555
C6 C5 1_555 1_555
C7 C6 1_555 1_555
H7 C7 1_555 1_555
C8 C3 1_555 1_555
H8 C8 1_555 1_555
C9 H9 1_555 1_555
H10 C9 1_555 1_555
C10 C9 1_555 1_555
C11 C10 1_555 1_555
H11 C11 1_555 1_555
C12 C11 1_555 1_555
H12 C12 1_555 1_555
C13 C12 1_555 1_555
C14 C13 1_555 1_555
H13 C14 1_555 1_555
C15 C10 1_555 1_555
H14 C15 1_555 1_555
C16 H15 1_555 1_555
H16 C16 1_555 1_555
H17 C16 1_555 1_555
C17 H18 1_555 1_555
H19 C17 1_555 1_555
H20 C17 1_555 1_555
F1 C1 1_555 1_555
N1 C13 1_555 1_555
O1 C2 1_555 1_555
O2 C6 1_555 1_555
C18 H21 1_555 1_555
H22 C18 1_555 1_555
C19 C18 1_555 1_555
H23 C19 1_555 1_555
H24 C19 1_555 1_555
C20 C21 1_555 1_555
C21 H25 1_555 1_555
C22 C21 1_555 1_555
H26 C22 1_555 1_555
C23 C22 1_555 1_555
C24 C23 1_555 1_555
H27 C24 1_555 1_555
C25 C20 1_555 1_555
H28 C25 1_555 1_555
C26 H29 1_555 1_555
H30 C26 1_555 1_555
C27 C26 1_555 1_555
C28 C27 1_555 1_555
H31 C28 1_555 1_555
C29 C28 1_555 1_555
H32 C29 1_555 1_555
C30 C29 1_555 1_555
C31 C30 1_555 1_555
H33 C31 1_555 1_555
C32 C27 1_555 1_555
H34 C32 1_555 1_555
C33 H35 1_555 1_555
H36 C33 1_555 1_555
H37 C33 1_555 1_555
C34 H38 1_555 1_555
H39 C34 1_555 1_555
H40 C34 1_555 1_555
F2 C18 1_555 1_555
N2 C30 1_555 1_555
O3 C19 1_555 1_555
O4 C23 1_555 1_555
C3 O1 1_555 1_555
C7 C8 1_555 1_555
C9 O2 1_555 1_555
C14 C15 1_555 1_555
C16 N1 1_555 1_555
C17 N1 1_555 1_555
C20 O3 1_555 1_555
C24 C25 1_555 1_555
C26 O4 1_555 1_555
C31 C32 1_555 1_555
C33 N2 1_555 1_555
C34 N2 1_555 1_555

#END
