
#######################################################################
#
#                 Cambridge Crystallographic Data Centre
#                                CCDC 
#
#######################################################################
#
# If this CIF has been generated from an entry in the Cambridge 
# Structural Database, then it will include bibliographic, chemical, 
# crystal, experimental, refinement or atomic coordinate data resulting 
# from the CCDC's data processing and validation procedures.
#
#######################################################################

data_TUSXUC
_chemical_formula_moiety         'C17 H20 F1 N1 O2'
_chemical_name_systematic        
4-((4-(2-Fluoroethoxy)benzyl)oxy)-N,N-dimethylaniline
_symmetry_cell_setting           orthorhombic
_symmetry_space_group_name_H-M   'P b c a'
_symmetry_Int_Tables_number      61
_space_group_name_Hall           '-P 2ac 2ab'
loop_
_symmetry_equiv_pos_site_id
_symmetry_equiv_pos_as_xyz
1 x,y,z
2 1/2-x,-y,1/2+z
3 -x,1/2+y,1/2-z
4 1/2+x,1/2-y,-z
5 -x,-y,-z
6 1/2+x,y,1/2-z
7 x,1/2-y,1/2+z
8 1/2-x,1/2+y,z
_cell_length_a                   10.584(4)
_cell_length_b                   7.664(3)
_cell_length_c                   36.070(14)
_cell_angle_alpha                90
_cell_angle_beta                 90
_cell_angle_gamma                90
_cell_volume                     2925.85
_exptl_crystal_colour            white
_exptl_crystal_description       block
_chemical_melting_point          '405.9-406.3 K'
_cell_formula_units_Z            8
_exptl_crystal_recrystallization_method 'Ethyl acetate'
loop_
_atom_site_label
_atom_site_type_symbol
_atom_site_fract_x
_atom_site_fract_y
_atom_site_fract_z
C1 C 0.15134(17) 0.1261(2) 0.31461(5)
H1 H 0.1083 0.1942 0.2950
H2 H 0.2413 0.1617 0.3151
C2 C 0.09267(16) 0.1660(2) 0.35101(4)
H3 H 0.0875 0.2939 0.3546
H4 H 0.0060 0.1176 0.3520
C3 C 0.13412(13) 0.12908(19) 0.41528(4)
C4 C 0.21065(13) 0.05765(19) 0.44294(4)
H5 H 0.2815 -0.0121 0.4365
C5 C 0.18280(13) 0.08903(18) 0.47971(4)
H6 H 0.2345 0.0394 0.4985
C6 C 0.07942(13) 0.19301(18) 0.48979(4)
C7 C 0.00457(13) 0.26233(18) 0.46189(4)
H7 H -0.0658 0.3330 0.4683
C8 C 0.03024(13) 0.23075(19) 0.42467(4)
H8 H -0.0226 0.2781 0.4059
C9 C 0.04666(13) 0.22241(19) 0.52960(4)
H9 H -0.0346 0.2856 0.5315
H10 H 0.0378 0.1091 0.5425
C10 C 0.12955(13) 0.36550(18) 0.58316(4)
C11 C 0.22240(13) 0.47066(19) 0.59872(4)
H11 H 0.2924 0.5059 0.5840
C12 C 0.21476(14) 0.52469(19) 0.63503(4)
H12 H 0.2794 0.5970 0.6449
C13 C 0.11313(14) 0.47483(19) 0.65774(4)
C14 C 0.02190(14) 0.36459(19) 0.64201(4)
H13 H -0.0464 0.3250 0.6569
C15 C 0.02884(13) 0.31161(19) 0.60509(4)
H14 H -0.0351 0.2389 0.5949
C16 C 0.2100(2) 0.6170(3) 0.71132(5)
H15 H 0.2779 0.5303 0.7126
H16 H 0.1884 0.6561 0.7364
H17 H 0.2382 0.7171 0.6966
C17 C 0.01443(17) 0.4504(2) 0.71871(5)
H18 H -0.0716 0.4578 0.7088
H19 H 0.0172 0.5051 0.7433
H20 H 0.0394 0.3277 0.7208
F1 F 0.14318(13) -0.05091(14) 0.30631(3)
N1 N 0.10014(14) 0.53983(18) 0.69415(4)
O1 O 0.16832(10) 0.08995(14) 0.37945(3)
O2 O 0.14581(9) 0.32336(14) 0.54649(3)
loop_
_geom_bond_atom_site_label_1
_geom_bond_atom_site_label_2
_geom_bond_site_symmetry_1
_geom_bond_site_symmetry_2
C1 H1 1_555 1_555
H2 C1 1_555 1_555
C2 C1 1_555 1_555
H3 C2 1_555 1_555
H4 C2 1_555 1_555
C3 C4 1_555 1_555
C4 H5 1_555 1_555
C5 C4 1_555 1_555
H6 C5 1_555 1_555
C6 C5 1_555 1_555
C7 C6 1_555 1_555
H7 C7 1_555 1_555
C8 C3 1_555 1_555
H8 C8 1_555 1_555
C9 C6 1_555 1_555
H9 C9 1_555 1_555
H10 C9 1_555 1_555
C10 C11 1_555 1_555
C11 H11 1_555 1_555
C12 C11 1_555 1_555
H12 C12 1_555 1_555
C13 C12 1_555 1_555
C14 C13 1_555 1_555
H13 C14 1_555 1_555
C15 C10 1_555 1_555
H14 C15 1_555 1_555
C16 H15 1_555 1_555
H16 C16 1_555 1_555
H17 C16 1_555 1_555
C17 H18 1_555 1_555
H19 C17 1_555 1_555
H20 C17 1_555 1_555
F1 C1 1_555 1_555
N1 C13 1_555 1_555
O1 C2 1_555 1_555
O2 C9 1_555 1_555
C3 O1 1_555 1_555
C7 C8 1_555 1_555
C10 O2 1_555 1_555
C14 C15 1_555 1_555
C16 N1 1_555 1_555
C17 N1 1_555 1_555

#END
