
#######################################################################
#
#                 Cambridge Crystallographic Data Centre
#                                CCDC 
#
#######################################################################
#
# If this CIF has been generated from an entry in the Cambridge 
# Structural Database, then it will include bibliographic, chemical, 
# crystal, experimental, refinement or atomic coordinate data resulting 
# from the CCDC's data processing and validation procedures.
#
#######################################################################

data_TUTBUF01
_chemical_formula_moiety         'C15 H18 N2 O2 S1'
_chemical_name_systematic        
N-(6-methylpyridinium-2-yl)mesitylenesulfonamidate
_symmetry_cell_setting           triclinic
_symmetry_space_group_name_H-M   'P -1'
_symmetry_Int_Tables_number      2
_space_group_name_Hall           '-P 1'
loop_
_symmetry_equiv_pos_site_id
_symmetry_equiv_pos_as_xyz
1 x,y,z
2 -x,-y,-z
_cell_length_a                   7.9753(11)
_cell_length_b                   8.1446(11)
_cell_length_c                   11.7776(16)
_cell_angle_alpha                86.829(3)
_cell_angle_beta                 81.600(3)
_cell_angle_gamma                67.124(3)
_cell_volume                     697.289
_exptl_crystal_colour            colorless
_exptl_crystal_description       brick
_cell_formula_units_Z            2
loop_
_atom_site_label
_atom_site_type_symbol
_atom_site_fract_x
_atom_site_fract_y
_atom_site_fract_z
S1 S 0.82705(7) 0.55137(6) 0.30180(4)
O1 O 0.92771(19) 0.36086(18) 0.31141(12)
O2 O 0.63729(18) 0.60458(19) 0.28521(12)
N1 N 0.8318(2) 0.8557(2) 0.53085(14)
H1 H 0.902(3) 0.772(3) 0.570(2)
N2 N 0.8525(2) 0.6346(2) 0.41429(14)
C1 C 0.7867(3) 0.8102(3) 0.43271(16)
C2 C 0.7785(3) 1.0257(3) 0.56965(17)
C3 C 0.6797(3) 1.1637(3) 0.50479(17)
H2 H 0.6436 1.2834 0.5287
C4 C 0.6325(3) 1.1258(3) 0.40230(18)
H3 H 0.5645 1.2213 0.3564
C5 C 0.6820(3) 0.9540(3) 0.36666(17)
H4 H 0.6462 0.9314 0.2976
C6 C 0.8320(3) 1.0474(3) 0.68275(18)
H5 H 0.7837 1.1742 0.7024
H6 H 0.9662 0.9980 0.6778
H7 H 0.7811 0.9840 0.7422
C7 C 0.9465(3) 0.6237(3) 0.18139(16)
C8 C 1.1358(3) 0.5800(3) 0.18110(17)
C9 C 1.2314(3) 0.6356(3) 0.08962(17)
H8 H 1.3583 0.6089 0.0904
C10 C 1.1491(3) 0.7289(3) -0.00333(17)
C11 C 0.9640(3) 0.7663(3) -0.00193(17)
H9 H 0.9062 0.8285 -0.0652
C12 C 0.8585(3) 0.7172(3) 0.08756(17)
C13 C 1.2450(3) 0.4724(3) 0.27382(18)
H10 H 1.3601 0.4910 0.2691
H11 H 1.2725 0.3456 0.2630
H12 H 1.1731 0.5110 0.3493
C14 C 1.2579(3) 0.7826(3) -0.10316(18)
H13 H 1.1801 0.8970 -0.1336
H14 H 1.3002 0.6915 -0.1633
H15 H 1.3643 0.7943 -0.0775
C15 C 0.6587(3) 0.7662(3) 0.07493(18)
H16 H 0.6326 0.8291 0.0022
H17 H 0.5807 0.8435 0.1388
H18 H 0.6334 0.6576 0.0756
loop_
_geom_bond_atom_site_label_1
_geom_bond_atom_site_label_2
_geom_bond_site_symmetry_1
_geom_bond_site_symmetry_2
S1 O1 1_555 1_555
O2 S1 1_555 1_555
N1 H1 1_555 1_555
N2 S1 1_555 1_555
C1 N1 1_555 1_555
C2 N1 1_555 1_555
C3 C2 1_555 1_555
H2 C3 1_555 1_555
C4 C3 1_555 1_555
H3 C4 1_555 1_555
C5 C1 1_555 1_555
H4 C5 1_555 1_555
C6 C2 1_555 1_555
H5 C6 1_555 1_555
H6 C6 1_555 1_555
H7 C6 1_555 1_555
C7 S1 1_555 1_555
C8 C7 1_555 1_555
C9 C8 1_555 1_555
H8 C9 1_555 1_555
C10 C9 1_555 1_555
C11 C10 1_555 1_555
H9 C11 1_555 1_555
C12 C7 1_555 1_555
C13 C8 1_555 1_555
H10 C13 1_555 1_555
H11 C13 1_555 1_555
H12 C13 1_555 1_555
C14 C10 1_555 1_555
H13 C14 1_555 1_555
H14 C14 1_555 1_555
H15 C14 1_555 1_555
C15 C12 1_555 1_555
H16 C15 1_555 1_555
H17 C15 1_555 1_555
H18 C15 1_555 1_555
N2 C1 1_555 1_555
C4 C5 1_555 1_555
C11 C12 1_555 1_555

#END
