
#######################################################################
#
#                 Cambridge Crystallographic Data Centre
#                                CCDC 
#
#######################################################################
#
# If this CIF has been generated from an entry in the Cambridge 
# Structural Database, then it will include bibliographic, chemical, 
# crystal, experimental, refinement or atomic coordinate data resulting 
# from the CCDC's data processing and validation procedures.
#
#######################################################################

data_TUTCOB
_chemical_formula_moiety         'C40 H39 N1 O2'
_chemical_name_systematic        
2-(Biphenyl-4-yl)-6-t-butyl-8-(4-methoxybenzylidene)-4-(4-methoxyphenyl)-5,6,7,8-tetrahydroquinoline
_symmetry_cell_setting           triclinic
_symmetry_space_group_name_H-M   'P -1'
_symmetry_Int_Tables_number      2
_space_group_name_Hall           '-P 1'
loop_
_symmetry_equiv_pos_site_id
_symmetry_equiv_pos_as_xyz
1 x,y,z
2 -x,-y,-z
_cell_length_a                   6.528(15)
_cell_length_b                   12.95(3)
_cell_length_c                   19.78(5)
_cell_angle_alpha                80.33(3)
_cell_angle_beta                 84.39(6)
_cell_angle_gamma                78.50(4)
_cell_volume                     1611.72
_chemical_melting_point          '201 deg.C'
_cell_formula_units_Z            2
loop_
_atom_site_label
_atom_site_type_symbol
_atom_site_fract_x
_atom_site_fract_y
_atom_site_fract_z
C1 C 1.0300(6) 0.4685(3) 0.20257(19)
C2 C 1.0177(6) 0.3627(3) 0.19905(18)
H1 H 1.1212 0.3220 0.1720
C3 C 0.8556(6) 0.3164(3) 0.23470(18)
C4 C 0.7037(6) 0.3780(3) 0.27488(18)
C5 C 0.7232(6) 0.4852(3) 0.27492(18)
C6 C 0.5638(6) 0.5586(3) 0.31381(18)
C7 C 0.3903(6) 0.5098(3) 0.35727(19)
H2 H 0.2678 0.5194 0.3295
H3 H 0.3458 0.5478 0.3972
C8 C 0.4621(6) 0.3899(3) 0.38316(18)
H4 H 0.5924 0.3830 0.4076
C9 C 0.5264(5) 0.3332(3) 0.31934(19)
H5 H 0.5727 0.2559 0.3344
H6 H 0.4036 0.3428 0.2917
C10 C 0.5777(3) 0.66228(18) 0.30742(11)
H7 H 0.6956 0.6804 0.2792
C11 C 0.4444(3) 0.75299(18) 0.33604(11)
C12 C 0.5336(3) 0.84259(18) 0.33838(11)
H8 H 0.6762 0.8409 0.3226
C13 C 0.4219(6) 0.9332(3) 0.3625(2)
H9 H 0.4885 0.9920 0.3630
C14 C 0.2139(6) 0.9387(3) 0.3860(2)
C15 C 0.1161(6) 0.8529(3) 0.3834(2)
H10 H -0.0273 0.8563 0.3987
C16 C 0.2294(6) 0.7626(3) 0.3584(2)
H11 H 0.1602 0.7054 0.3563
C17 C -0.1103(6) 1.0537(3) 0.4169(2)
H12 H -0.1542 1.0023 0.4551
H13 H -0.1695 1.0461 0.3748
H14 H -0.1604 1.1262 0.4274
C18 C 0.8535(6) 0.2031(3) 0.22693(17)
C19 C 1.0345(6) 0.1240(3) 0.23674(18)
H15 H 1.1547 0.1415 0.2522
C20 C 1.0416(6) 0.0202(3) 0.22427(19)
H16 H 1.1660 -0.0317 0.2309
C21 C 0.8676(7) -0.0068(3) 0.20228(19)
C22 C 0.6822(6) 0.0692(3) 0.1930(2)
H17 H 0.5618 0.0510 0.1781
C23 C 0.6795(6) 0.1725(3) 0.2063(2)
H18 H 0.5536 0.2238 0.2009
C24 C 0.7357(8) -0.1370(4) 0.1537(3)
H19 H 0.7746 -0.2119 0.1471
H20 H 0.7257 -0.0914 0.1088
H21 H 0.6000 -0.1257 0.1800
C25 C 0.3008(5) 0.3402(3) 0.43628(19)
C26 C 0.3885(7) 0.2204(3) 0.4608(2)
H22 H 0.5273 0.2129 0.4780
H23 H 0.3998 0.1806 0.4221
H24 H 0.2937 0.1921 0.4976
C27 C 0.2725(7) 0.3952(3) 0.5015(2)
H25 H 0.1981 0.4689 0.4905
H26 H 0.4103 0.3950 0.5173
H27 H 0.1913 0.3564 0.5378
C28 C 0.0887(6) 0.3498(4) 0.4068(2)
H28 H 0.1077 0.3130 0.3665
H29 H 0.0286 0.4253 0.3932
H30 H -0.0060 0.3173 0.4417
C29 C 1.2006(6) 0.5235(3) 0.16477(18)
C30 C 1.3620(6) 0.4722(3) 0.1230(2)
H31 H 1.3735 0.3982 0.1216
C31 C 1.5052(6) 0.5273(3) 0.0836(2)
H32 H 1.6126 0.4902 0.0559
C32 C 1.4952(6) 0.6359(3) 0.08384(19)
C33 C 1.3376(6) 0.6857(3) 0.1281(2)
H33 H 1.3277 0.7593 0.1303
C34 C 1.1970(6) 0.6306(3) 0.1686(2)
H34 H 1.0970 0.6661 0.1993
C35 C 1.6407(6) 0.6972(3) 0.03763(19)
C36 C 1.8536(7) 0.6527(4) 0.0263(2)
H35 H 1.9065 0.5823 0.0478
C37 C 1.9876(7) 0.7105(4) -0.0160(2)
H36 H 2.1313 0.6796 -0.0227
C38 C 1.9137(9) 0.8123(5) -0.0483(2)
H37 H 2.0061 0.8515 -0.0770
C39 C 1.7040(9) 0.8570(4) -0.0386(2)
H38 H 1.6531 0.9272 -0.0608
C40 C 1.5658(7) 0.8000(4) 0.0037(2)
H39 H 1.4216 0.8310 0.0092
N1 N 0.8823(5) 0.5287(2) 0.23966(15)
O1 O 0.1159(4) 1.0339(2) 0.40746(15)
O2 O 0.8902(5) -0.1109(2) 0.19011(15)
loop_
_geom_bond_atom_site_label_1
_geom_bond_atom_site_label_2
_geom_bond_site_symmetry_1
_geom_bond_site_symmetry_2
C1 C2 1_555 1_555
C2 H1 1_555 1_555
C3 C2 1_555 1_555
C4 C3 1_555 1_555
C5 C4 1_555 1_555
C6 C5 1_555 1_555
C7 C6 1_555 1_555
H2 C7 1_555 1_555
H3 C7 1_555 1_555
C8 C7 1_555 1_555
H4 C8 1_555 1_555
C9 C4 1_555 1_555
H5 C9 1_555 1_555
H6 C9 1_555 1_555
C10 C6 1_555 1_555
H7 C10 1_555 1_555
C11 C10 1_555 1_555
C12 C11 1_555 1_555
H8 C12 1_555 1_555
C13 C12 1_555 1_555
H9 C13 1_555 1_555
C14 C13 1_555 1_555
C15 C14 1_555 1_555
H10 C15 1_555 1_555
C16 C11 1_555 1_555
H11 C16 1_555 1_555
C17 H12 1_555 1_555
H13 C17 1_555 1_555
H14 C17 1_555 1_555
C18 C3 1_555 1_555
C19 C18 1_555 1_555
H15 C19 1_555 1_555
C20 C19 1_555 1_555
H16 C20 1_555 1_555
C21 C20 1_555 1_555
C22 C21 1_555 1_555
H17 C22 1_555 1_555
C23 C18 1_555 1_555
H18 C23 1_555 1_555
C24 H19 1_555 1_555
H20 C24 1_555 1_555
H21 C24 1_555 1_555
C25 C8 1_555 1_555
C26 C25 1_555 1_555
H22 C26 1_555 1_555
H23 C26 1_555 1_555
H24 C26 1_555 1_555
C27 C25 1_555 1_555
H25 C27 1_555 1_555
H26 C27 1_555 1_555
H27 C27 1_555 1_555
C28 C25 1_555 1_555
H28 C28 1_555 1_555
H29 C28 1_555 1_555
H30 C28 1_555 1_555
C29 C1 1_555 1_555
C30 C29 1_555 1_555
H31 C30 1_555 1_555
C31 C30 1_555 1_555
H32 C31 1_555 1_555
C32 C31 1_555 1_555
C33 C32 1_555 1_555
H33 C33 1_555 1_555
C34 C29 1_555 1_555
H34 C34 1_555 1_555
C35 C32 1_555 1_555
C36 C35 1_555 1_555
H35 C36 1_555 1_555
C37 C36 1_555 1_555
H36 C37 1_555 1_555
C38 C37 1_555 1_555
H37 C38 1_555 1_555
C39 C38 1_555 1_555
H38 C39 1_555 1_555
C40 C35 1_555 1_555
H39 C40 1_555 1_555
N1 C1 1_555 1_555
O1 C14 1_555 1_555
O2 C21 1_555 1_555
C5 N1 1_555 1_555
C8 C9 1_555 1_555
C15 C16 1_555 1_555
C17 O1 1_555 1_555
C22 C23 1_555 1_555
C24 O2 1_555 1_555
C33 C34 1_555 1_555
C39 C40 1_555 1_555

#END
