
#######################################################################
#
#                 Cambridge Crystallographic Data Centre
#                                CCDC 
#
#######################################################################
#
# If this CIF has been generated from an entry in the Cambridge 
# Structural Database, then it will include bibliographic, chemical, 
# crystal, experimental, refinement or atomic coordinate data resulting 
# from the CCDC's data processing and validation procedures.
#
#######################################################################

data_TUTFOE
_chemical_name_common            
'tris(Guanidinium) 1,3,5-trimethylcyclohexane-1,3,5-tricarboxylate'
_chemical_formula_moiety         'C12 H15 O6 3-,3(C1 H6 N3 1+)'
_chemical_name_systematic        
'tris(Diaminomethaniminium) 1,3,5-trimethylcyclohexane-1,3,5-tricarboxylate'
_symmetry_cell_setting           rhombohedral
_symmetry_space_group_name_H-M   'R 3 c'
_symmetry_Int_Tables_number      161
_space_group_name_Hall           'R 3 -2"c'
loop_
_symmetry_equiv_pos_site_id
_symmetry_equiv_pos_as_xyz
1 x,y,z
2 -y,x-y,z
3 -x+y,-x,z
4 -y,-x,1/2+z
5 -x+y,y,1/2+z
6 x,x-y,1/2+z
7 2/3+x,1/3+y,1/3+z
8 2/3-y,1/3+x-y,1/3+z
9 2/3-x+y,1/3-x,1/3+z
10 2/3-y,1/3-x,5/6+z
11 2/3-x+y,1/3+y,5/6+z
12 2/3+x,1/3+x-y,5/6+z
13 1/3+x,2/3+y,2/3+z
14 1/3-y,2/3+x-y,2/3+z
15 1/3-x+y,2/3-x,2/3+z
16 1/3-y,2/3-x,1/6+z
17 1/3-x+y,2/3+y,1/6+z
18 1/3+x,2/3+x-y,1/6+z
_cell_length_a                   18.1560(16)
_cell_length_b                   18.1560(16)
_cell_length_c                   11.980(2)
_cell_angle_alpha                90
_cell_angle_beta                 90
_cell_angle_gamma                120
_cell_volume                     3420.01
_exptl_crystal_colour            colorless
_exptl_crystal_description       block
_cell_formula_units_Z            6
loop_
_atom_site_label
_atom_site_type_symbol
_atom_site_fract_x
_atom_site_fract_y
_atom_site_fract_z
O1 O 0.15737(7) -0.05573(7) 0.58518(13)
O2 O 0.22470(7) 0.08310(7) 0.60514(13)
C1 C 0.16075(8) 0.01137(9) 0.61914(13)
C2 C 0.08588(8) 0.00549(9) 0.68614(12)
C3 C 0.07725(8) 0.08267(8) 0.65474(12)
H5 H 0.1239 0.1325 0.6893
H6 H 0.0845 0.0904 0.5746
C5 C 0.11227(12) 0.00700(13) 0.80936(14)
H9 H 0.0684 0.0035 0.8576
H10 H 0.1643 0.0589 0.8238
H11 H 0.1204 -0.0405 0.8231
O1A O 0.05573(7) 0.21310(10) 0.58518(13)
O1B O -0.21310(10) -0.15737(7) 0.58518(13)
O2A O -0.08310(7) 0.14160(10) 0.60514(13)
O2B O -0.14160(10) -0.22470(7) 0.60514(13)
C1A C -0.01137(9) 0.14938(12) 0.61914(13)
C1B C -0.14938(12) -0.16075(8) 0.61914(13)
C2A C -0.00549(9) 0.08039(12) 0.68614(12)
C2B C -0.08039(12) -0.08588(8) 0.68614(12)
C3A C -0.08267(8) -0.00542(11) 0.65474(12)
C3B C 0.00542(11) -0.07725(8) 0.65474(12)
H5A H -0.1325 -0.0086 0.6893
H5B H 0.0086 -0.1239 0.6893
H6A H -0.0904 -0.0059 0.5746
H6B H 0.0059 -0.0845 0.5746
C5A C -0.00700(13) 0.10527(18) 0.80936(14)
C5B C -0.10527(18) -0.11227(12) 0.80936(14)
H9A H -0.0035 0.0649 0.8576
H9B H -0.0649 -0.0684 0.8576
H10A H -0.0589 0.1054 0.8238
H10B H -0.1054 -0.1643 0.8238
H11A H 0.0405 0.1609 0.8231
H11B H -0.1609 -0.1204 0.8231
N1 N 0.35897(10) 0.06626(9) 0.73229(14)
H1 H 0.3984 0.1089 0.7679
H2 H 0.3202 0.0713 0.6979
N2 N 0.41739(10) -0.01385(10) 0.78307(16)
H3 H 0.4172 -0.0613 0.7817
H4 H 0.4565 0.0288 0.8189
C4 C 0.35797(10) -0.00662(10) 0.73040(15)
N3 N 0.29836(11) -0.07197(10) 0.67573(16)
H7 H 0.2983 -0.1193 0.6745
H8 H 0.2593 -0.0674 0.6411
loop_
_geom_bond_atom_site_label_1
_geom_bond_atom_site_label_2
_geom_bond_site_symmetry_1
_geom_bond_site_symmetry_2
O1 C1 1_555 1_555
O2 C1 1_555 1_555
N1 H1 1_555 1_555
H2 N1 1_555 1_555
C1 C2 1_555 1_555
N2 H3 1_555 1_555
H4 N2 1_555 1_555
C2 C3 1_555 1_555
C3 H5 1_555 1_555
H6 C3 1_555 1_555
C4 N1 1_555 1_555
N3 C4 1_555 1_555
H7 N3 1_555 1_555
H8 N3 1_555 1_555
C5 C2 1_555 1_555
H9 C5 1_555 1_555
H10 C5 1_555 1_555
H11 C5 1_555 1_555
O1A C1A 1_555 1_555
O1B C1B 1_555 1_555
O2A C1A 1_555 1_555
O2B C1B 1_555 1_555
C1A C2A 1_555 1_555
C1B C2B 1_555 1_555
C2A C3 1_555 1_555
C2B C3A 1_555 1_555
C3A C2A 1_555 1_555
C3B C2 1_555 1_555
H5A C3A 1_555 1_555
H5B C3B 1_555 1_555
H6A C3A 1_555 1_555
H6B C3B 1_555 1_555
C5A C2A 1_555 1_555
C5B C2B 1_555 1_555
H9A C5A 1_555 1_555
H9B C5B 1_555 1_555
H10A C5A 1_555 1_555
H10B C5B 1_555 1_555
H11A C5A 1_555 1_555
H11B C5B 1_555 1_555
N2 C4 1_555 1_555
C2B C3B 1_555 1_555

#END
