
#######################################################################
#
#                 Cambridge Crystallographic Data Centre
#                                CCDC 
#
#######################################################################
#
# If this CIF has been generated from an entry in the Cambridge 
# Structural Database, then it will include bibliographic, chemical, 
# crystal, experimental, refinement or atomic coordinate data resulting 
# from the CCDC's data processing and validation procedures.
#
#######################################################################

data_TUTJID
_chemical_formula_moiety         'C23 H13 N1 O1 S1'
_chemical_name_systematic        2-(1,3-Benzothiazol-2-yl)pyren-1-ol
_symmetry_cell_setting           orthorhombic
_symmetry_space_group_name_H-M   'P n m a'
_symmetry_Int_Tables_number      62
_space_group_name_Hall           '-P 2ac 2n'
loop_
_symmetry_equiv_pos_site_id
_symmetry_equiv_pos_as_xyz
1 x,y,z
2 1/2-x,-y,1/2+z
3 1/2+x,1/2-y,1/2-z
4 -x,1/2+y,-z
5 -x,-y,-z
6 1/2+x,y,1/2-z
7 1/2-x,1/2+y,1/2+z
8 x,1/2-y,z
_cell_length_a                   25.4402(10)
_cell_length_b                   13.6097(5)
_cell_length_c                   4.6740(2)
_cell_angle_alpha                90
_cell_angle_beta                 90
_cell_angle_gamma                90
_cell_volume                     1618.3
_exptl_crystal_colour            'light yellow'
_exptl_crystal_description       needle
_cell_formula_units_Z            4
_exptl_crystal_recrystallization_method dichloromethane
_exptl_crystal_preparation       Luminescent
loop_
_atom_site_label
_atom_site_type_symbol
_atom_site_fract_x
_atom_site_fract_y
_atom_site_fract_z
C1 C 0.5161(3) 0.7500 -0.925(2)
H1 H 0.5433 0.7500 -1.0577
C2 C 0.4966(2) 0.6618(5) -0.8291(12)
H2 H 0.5105 0.6031 -0.8975
C3 C 0.45584(18) 0.6605(4) -0.6295(11)
C4 C 0.4351(2) 0.7500 -0.5289(14)
C5 C 0.3933(2) 0.7500 -0.3264(14)
C6 C 0.4334(2) 0.5715(4) -0.5230(14)
H3 H 0.4463 0.5118 -0.5899
C7 C 0.3947(2) 0.5709(4) -0.3312(13)
H4 H 0.3820 0.5111 -0.2643
C8 C 0.37199(18) 0.6603(3) -0.2254(11)
C9 C 0.33136(18) 0.6612(4) -0.0303(11)
C10 C 0.3104(3) 0.7500 0.0703(16)
C11 C 0.2014(2) 0.7005(5) 0.5882(13)
C12 C 0.1666(2) 0.6486(5) 0.7542(15)
H5 H 0.1666 0.5802 0.7535
C13 C 0.13216(19) 0.6997(4) 0.9197(12)
H6 H 0.1083 0.6660 1.0341
O1 O 0.3076(3) 0.5881(4) 0.0672(16)
H7 H 0.2924 0.6034 0.2153
C14 C 0.2671(3) 0.7500 0.2751(19)
S1 S 0.24377(9) 0.61345(18) 0.3918(6)
N1 N 0.2448(3) 0.8038(7) 0.3833(19)
C2G C 0.4966(2) 0.8382(5) -0.8291(12)
H2G H 0.5105 0.8969 -0.8975
C3G C 0.45584(18) 0.8395(4) -0.6295(11)
C6G C 0.4334(2) 0.9285(4) -0.5230(14)
H3G H 0.4463 0.9882 -0.5899
C7G C 0.3947(2) 0.9291(4) -0.3312(13)
H4G H 0.3820 0.9889 -0.2643
C8G C 0.37199(18) 0.8397(3) -0.2254(11)
C9G C 0.33136(18) 0.8388(4) -0.0303(11)
C11G C 0.2014(2) 0.7995(5) 0.5882(13)
C12G C 0.1666(2) 0.8514(5) 0.7542(15)
H5G H 0.1666 0.9198 0.7535
C13G C 0.13216(19) 0.8003(4) 0.9197(12)
H6G H 0.1083 0.8340 1.0341
O1G O 0.3076(3) 0.9119(4) 0.0672(16)
H7G H 0.2924 0.8966 0.2153
S1G S 0.24377(9) 0.88655(18) 0.3918(6)
N1G N 0.2448(3) 0.6962(7) 0.3833(19)
loop_
_geom_bond_atom_site_label_1
_geom_bond_atom_site_label_2
_geom_bond_site_symmetry_1
_geom_bond_site_symmetry_2
C1 H1 1_555 1_555
C2 C1 1_555 1_555
H2 C2 1_555 1_555
C3 C2 1_555 1_555
C4 C3 1_555 1_555
C5 C4 1_555 1_555
C6 C3 1_555 1_555
H3 C6 1_555 1_555
C7 C6 1_555 1_555
H4 C7 1_555 1_555
C8 C5 1_555 1_555
C9 C8 1_555 1_555
C10 C9 1_555 1_555
C11 C12 1_555 1_555
C12 H5 1_555 1_555
C13 C12 1_555 1_555
H6 C13 1_555 1_555
O1 C9 1_555 1_555
H7 O1 1_555 1_555
C14 C10 1_555 1_555
S1 C11 1_555 1_555
N1 C14 1_555 1_555
C2G C1 1_555 1_555
H2G C2G 1_555 1_555
C3G C4 1_555 1_555
C6G C3G 1_555 1_555
H3G C6G 1_555 1_555
C7G C6G 1_555 1_555
H4G C7G 1_555 1_555
C8G C5 1_555 1_555
C9G C10 1_555 1_555
C11G C11 1_555 1_555
C12G C11G 1_555 1_555
H5G C12G 1_555 1_555
C13G C13 1_555 1_555
H6G C13G 1_555 1_555
O1G C9G 1_555 1_555
H7G O1G 1_555 1_555
S1G C14 1_555 1_555
N1G C11 1_555 1_555
C7 C8 1_555 1_555
C14 S1 1_555 1_555
C14 N1G 1_555 1_555
N1 C11G 1_555 1_555
C2G C3G 1_555 1_555
C7G C8G 1_555 1_555
C8G C9G 1_555 1_555
C11G S1G 1_555 1_555
C12G C13G 1_555 1_555

#END
