
#######################################################################
#
#                 Cambridge Crystallographic Data Centre
#                                CCDC 
#
#######################################################################
#
# If this CIF has been generated from an entry in the Cambridge 
# Structural Database, then it will include bibliographic, chemical, 
# crystal, experimental, refinement or atomic coordinate data resulting 
# from the CCDC's data processing and validation procedures.
#
#######################################################################

data_TUTJUP
_chemical_formula_moiety         'C30 H38 O5'
_chemical_name_systematic        
5-hydroxy-2',5,11'-trimethyl-7',8-bis(methylene)-3a,4,4a,5,6,7,7a,8,9,9a-decahydro-6'H-spiro[azuleno[6,5-b]furan-3,14'-[5]oxatetracyclo[10.2.1.0^1,10^.0^4,8^]pentadec[10]ene]-2,6'-dione
_symmetry_cell_setting           orthorhombic
_symmetry_space_group_name_H-M   'P 21 21 21'
_symmetry_Int_Tables_number      19
_space_group_name_Hall           'P 2ac 2ab'
loop_
_symmetry_equiv_pos_site_id
_symmetry_equiv_pos_as_xyz
1 x,y,z
2 1/2+x,1/2-y,-z
3 -x,1/2+y,1/2-z
4 1/2-x,-y,1/2+z
_cell_length_a                   8.8566(3)
_cell_length_b                   10.0915(3)
_cell_length_c                   28.1487(7)
_cell_angle_alpha                90
_cell_angle_beta                 90
_cell_angle_gamma                90
_cell_volume                     2515.83
_exptl_crystal_colour            colorless
_cell_formula_units_Z            4
loop_
_atom_site_label
_atom_site_type_symbol
_atom_site_fract_x
_atom_site_fract_y
_atom_site_fract_z
O1 O 1.0262(3) 0.1028(3) 0.20177(8)
H1 H 0.9513 0.0849 0.2189
O2 O 0.5787(3) 0.2520(3) 0.01493(8)
O3 O 0.5202(3) 0.0792(3) -0.02984(7)
O4 O 0.2723(3) -0.3215(3) 0.16764(8)
O5 O 0.2687(3) -0.4173(3) 0.23944(8)
C1 C 0.8273(4) 0.3814(3) 0.14210(11)
H2 H 0.8852 0.4062 0.1129
C2 C 0.9042(5) 0.4504(4) 0.18533(13)
H3 H 0.9786 0.5168 0.1743
H4 H 0.8277 0.4958 0.2052
C3 C 0.9826(5) 0.3421(4) 0.21381(11)
H5 H 0.9198 0.3145 0.2412
H6 H 1.0816 0.3732 0.2258
C4 C 1.0029(4) 0.2277(4) 0.17889(11)
C5 C 0.8526(4) 0.2315(3) 0.15122(10)
H7 H 0.7718 0.2021 0.1737
C6 C 0.8436(4) 0.1415(3) 0.10802(10)
H8 H 0.8618 0.0488 0.1180
H9 H 0.9239 0.1664 0.0852
C7 C 0.6891(3) 0.1503(3) 0.08311(10)
H10 H 0.6093 0.1500 0.1083
C8 C 0.6753(4) 0.2811(4) 0.05548(11)
H11 H 0.7775 0.3072 0.0436
C9 C 0.6079(5) 0.3964(4) 0.08249(13)
H12 H 0.6314 0.4792 0.0651
H13 H 0.4967 0.3862 0.0828
C10 C 0.6621(4) 0.4105(4) 0.13287(13)
C11 C 0.6482(3) 0.0423(3) 0.04665(10)
C12 C 0.5736(4) 0.1205(4) 0.00635(10)
C13 C 0.7786(3) -0.0393(4) 0.02315(10)
H14 H 0.7839 -0.0220 -0.0114
H15 H 0.8772 -0.0173 0.0377
C14 C 0.5650(6) 0.4407(4) 0.16654(15)
H16 H 0.4615 0.4534 0.1589
H17 H 0.5984 0.4498 0.1984
C15 C 1.1402(4) 0.2476(5) 0.14722(12)
H18 H 1.2315 0.2507 0.1669
H19 H 1.1299 0.3310 0.1297
H20 H 1.1478 0.1738 0.1247
C16 C 0.5441(3) -0.0731(3) 0.06828(9)
C17 C 0.5612(3) -0.1794(4) 0.02929(10)
H21 H 0.5258 -0.1487 -0.0022
H22 H 0.5124 -0.2644 0.0377
C18 C 0.7352(3) -0.1846(4) 0.03313(11)
H23 H 0.7861 -0.2524 0.0128
C19 C 0.7538(3) -0.2028(3) 0.08611(11)
C20 C 0.6442(3) -0.1351(3) 0.10739(10)
C21 C 0.6236(4) -0.1138(4) 0.15994(10)
H24 H 0.6351 -0.0184 0.1672
H25 H 0.7036 -0.1624 0.1773
C22 C 0.4664(4) -0.1616(3) 0.17779(10)
H26 H 0.4051 -0.0820 0.1864
C23 C 0.3804(4) -0.2404(3) 0.14047(10)
H27 H 0.4521 -0.2999 0.1232
C24 C 0.2951(3) -0.1559(4) 0.10479(11)
H28 H 0.2016 -0.1230 0.1201
H29 H 0.2648 -0.2128 0.0778
C25 C 0.3834(3) -0.0363(3) 0.08519(11)
H30 H 0.3954 0.0277 0.1120
C26 C 0.4627(4) -0.2570(4) 0.21878(11)
C27 C 0.3274(4) -0.3415(4) 0.21192(11)
C28 C 0.5567(5) -0.2730(5) 0.25433(12)
H31 H 0.5395 -0.3411 0.2770
H32 H 0.6421 -0.2167 0.2574
C29 C 0.2835(3) 0.0311(4) 0.04818(11)
H33 H 0.2907 -0.0168 0.0180
H34 H 0.3171 0.1228 0.0436
H35 H 0.1785 0.0307 0.0592
C30 C 0.8901(4) -0.2692(4) 0.10621(14)
H36 H 0.8868 -0.2647 0.1410
H37 H 0.9812 -0.2245 0.0947
H38 H 0.8917 -0.3622 0.0962
loop_
_geom_bond_atom_site_label_1
_geom_bond_atom_site_label_2
_geom_bond_site_symmetry_1
_geom_bond_site_symmetry_2
O1 H1 1_555 1_555
O2 C8 1_555 1_555
O3 C12 1_555 1_555
O4 C23 1_555 1_555
O5 C27 1_555 1_555
C1 H2 1_555 1_555
C2 C1 1_555 1_555
H3 C2 1_555 1_555
H4 C2 1_555 1_555
C3 C2 1_555 1_555
H5 C3 1_555 1_555
H6 C3 1_555 1_555
C4 O1 1_555 1_555
C5 C1 1_555 1_555
H7 C5 1_555 1_555
C6 C5 1_555 1_555
H8 C6 1_555 1_555
H9 C6 1_555 1_555
C7 C6 1_555 1_555
H10 C7 1_555 1_555
C8 C7 1_555 1_555
H11 C8 1_555 1_555
C9 C8 1_555 1_555
H12 C9 1_555 1_555
H13 C9 1_555 1_555
C10 C1 1_555 1_555
C11 C7 1_555 1_555
C12 O2 1_555 1_555
C13 C11 1_555 1_555
H14 C13 1_555 1_555
H15 C13 1_555 1_555
C14 C10 1_555 1_555
H16 C14 1_555 1_555
H17 C14 1_555 1_555
C15 C4 1_555 1_555
H18 C15 1_555 1_555
H19 C15 1_555 1_555
H20 C15 1_555 1_555
C16 C11 1_555 1_555
C17 C16 1_555 1_555
H21 C17 1_555 1_555
H22 C17 1_555 1_555
C18 C13 1_555 1_555
H23 C18 1_555 1_555
C19 C18 1_555 1_555
C20 C16 1_555 1_555
C21 C20 1_555 1_555
H24 C21 1_555 1_555
H25 C21 1_555 1_555
C22 C21 1_555 1_555
H26 C22 1_555 1_555
C23 C22 1_555 1_555
H27 C23 1_555 1_555
C24 C23 1_555 1_555
H28 C24 1_555 1_555
H29 C24 1_555 1_555
C25 C16 1_555 1_555
H30 C25 1_555 1_555
C26 C22 1_555 1_555
C27 O4 1_555 1_555
C28 C26 1_555 1_555
H31 C28 1_555 1_555
H32 C28 1_555 1_555
C29 C25 1_555 1_555
H33 C29 1_555 1_555
H34 C29 1_555 1_555
H35 C29 1_555 1_555
C30 C19 1_555 1_555
H36 C30 1_555 1_555
H37 C30 1_555 1_555
H38 C30 1_555 1_555
C3 C4 1_555 1_555
C4 C5 1_555 1_555
C9 C10 1_555 1_555
C11 C12 1_555 1_555
C17 C18 1_555 1_555
C19 C20 1_555 1_555
C24 C25 1_555 1_555
C26 C27 1_555 1_555

#END
