
#######################################################################
#
#                 Cambridge Crystallographic Data Centre
#                                CCDC 
#
#######################################################################
#
# If this CIF has been generated from an entry in the Cambridge 
# Structural Database, then it will include bibliographic, chemical, 
# crystal, experimental, refinement or atomic coordinate data resulting 
# from the CCDC's data processing and validation procedures.
#
#######################################################################

data_TUTMEC
_chemical_formula_moiety         'C21 H16 S1'
_chemical_name_systematic        
2-(3,4-diphenylcyclopenta-1,3-dien-1-yl)thiophene
_symmetry_cell_setting           orthorhombic
_symmetry_space_group_name_H-M   'P n a 21'
_symmetry_Int_Tables_number      33
_space_group_name_Hall           'P 2c -2n'
loop_
_symmetry_equiv_pos_site_id
_symmetry_equiv_pos_as_xyz
1 x,y,z
2 -x,-y,1/2+z
3 1/2-x,1/2+y,1/2+z
4 1/2+x,1/2-y,z
_cell_length_a                   15.470(2)
_cell_length_b                   35.240(5)
_cell_length_c                   5.9824(8)
_cell_angle_alpha                90
_cell_angle_beta                 90
_cell_angle_gamma                90
_cell_volume                     3261.38
_exptl_crystal_colour            colorless
_exptl_crystal_description       block
_cell_formula_units_Z            8
loop_
_atom_site_label
_atom_site_type_symbol
_atom_site_fract_x
_atom_site_fract_y
_atom_site_fract_z
C1 C 0.3174(4) 0.58853(19) 0.9760(13)
C2 C 0.3900(4) 0.60393(19) 0.8770(12)
C3 C 0.4009(5) 0.6429(2) 0.9577(15)
H1 H 0.4442 0.6596 0.9132
C4 C 0.3355(4) 0.6508(2) 1.1129(13)
C5 C 0.2817(4) 0.6179(2) 1.1342(14)
H2 H 0.2224 0.6239 1.0954
H3 H 0.2829 0.6084 1.2866
C6 C 0.2764(4) 0.5528(2) 0.9299(13)
C7 C 0.2226(5) 0.5357(2) 1.0890(15)
H4 H 0.2150 0.5476 1.2263
C8 C 0.1809(6) 0.5020(2) 1.0499(19)
H5 H 0.1464 0.4912 1.1603
C9 C 0.1900(5) 0.4845(2) 0.8481(18)
H6 H 0.1624 0.4615 0.8206
C10 C 0.2422(5) 0.5016(2) 0.6798(16)
H7 H 0.2479 0.4902 0.5405
C11 C 0.2832(4) 0.5344(2) 0.7242(14)
H8 H 0.3174 0.5452 0.6134
C12 C 0.4516(4) 0.58607(17) 0.7256(13)
C13 C 0.4926(4) 0.5519(2) 0.7820(15)
H9 H 0.4807 0.5404 0.9186
C14 C 0.5502(5) 0.5352(3) 0.6380(18)
H10 H 0.5777 0.5128 0.6791
C15 C 0.5681(5) 0.5516(3) 0.4290(19)
H11 H 0.6067 0.5401 0.3309
C16 C 0.5275(5) 0.5853(3) 0.3710(16)
H12 H 0.5382 0.5965 0.2330
C17 C 0.4711(4) 0.6021(2) 0.5201(13)
H13 H 0.4452 0.6250 0.4813
C18 C 0.3235(4) 0.68564(19) 1.2351(14)
C19 C 0.3516(3) 0.72604(13) 1.1404(9)
H14 H 0.3777 0.7320 1.0049
C20 C 0.3246(10) 0.7524(4) 1.329(3)
H15 H 0.3353 0.7783 1.3253
C21 C 0.2859(7) 0.7363(5) 1.493(3)
H16 H 0.2645 0.7499 1.6139
S1 S 0.2772(2) 0.69183(10) 1.4752(7)
C22 C 1.0101(4) 0.6621(2) 0.1291(13)
C23 C 0.9431(4) 0.6645(2) -0.0108(13)
C24 C 0.9560(4) 0.69883(19) -0.1554(14)
H17 H 0.9204 0.7064 -0.2725
C25 C 1.0291(4) 0.7169(2) -0.0845(15)
C26 C 1.0676(5) 0.6957(2) 0.0914(17)
H18 H 1.0715 0.7110 0.2260
H19 H 1.1253 0.6876 0.0497
C27 C 1.0307(4) 0.6321(2) 0.2943(13)
C28 C 1.0077(5) 0.5939(2) 0.2512(17)
H20 H 0.9802 0.5872 0.1186
C29 C 1.0269(5) 0.5666(2) 0.411(2)
H21 H 1.0096 0.5416 0.3891
C30 C 1.0709(6) 0.5760(4) 0.6009(17)
H22 H 1.0844 0.5573 0.7048
C31 C 1.0944(6) 0.6113(3) 0.6384(17)
H23 H 1.1246 0.6172 0.7682
C32 C 1.0751(4) 0.6391(3) 0.4889(16)
H24 H 1.0926 0.6638 0.5195
C33 C 0.8670(4) 0.63994(18) -0.0351(13)
C34 C 0.8100(5) 0.6365(2) 0.1481(14)
H25 H 0.8228 0.6490 0.2812
C35 C 0.7369(5) 0.6155(3) 0.1340(16)
H26 H 0.6991 0.6141 0.2544
C36 C 0.7192(5) 0.5960(2) -0.0631(19)
H27 H 0.6700 0.5809 -0.0746
C37 C 0.7744(5) 0.5992(2) -0.2380(17)
H28 H 0.7627 0.5860 -0.3694
C38 C 0.8464(5) 0.6211(2) -0.2263(16)
H29 H 0.8822 0.6232 -0.3506
C39 C 1.0641(5) 0.7526(2) -0.1794(17)
C40 C 1.1329(3) 0.77892(13) -0.0667(9)
H30 H 1.1589 0.7760 0.0724
C41 C 1.0992(7) 0.8063(3) -0.398(3)
H31 H 1.1023 0.8244 -0.5109
S2 S 1.0339(2) 0.77120(10) -0.4107(8)
C42 C 1.1465(8) 0.8082(3) -0.225(2)
H32 H 1.1870 0.8273 -0.2032
loop_
_geom_bond_atom_site_label_1
_geom_bond_atom_site_label_2
_geom_bond_site_symmetry_1
_geom_bond_site_symmetry_2
C1 C2 1_555 1_555
C2 C3 1_555 1_555
C3 H1 1_555 1_555
C4 C3 1_555 1_555
C5 C1 1_555 1_555
H2 C5 1_555 1_555
H3 C5 1_555 1_555
C6 C1 1_555 1_555
C7 C6 1_555 1_555
H4 C7 1_555 1_555
C8 C7 1_555 1_555
H5 C8 1_555 1_555
C9 C8 1_555 1_555
H6 C9 1_555 1_555
C10 C9 1_555 1_555
H7 C10 1_555 1_555
C11 C6 1_555 1_555
H8 C11 1_555 1_555
C12 C2 1_555 1_555
C13 C12 1_555 1_555
H9 C13 1_555 1_555
C14 C13 1_555 1_555
H10 C14 1_555 1_555
C15 C14 1_555 1_555
H11 C15 1_555 1_555
C16 C15 1_555 1_555
H12 C16 1_555 1_555
C17 C12 1_555 1_555
H13 C17 1_555 1_555
C18 C4 1_555 1_555
C19 C18 1_555 1_555
H14 C19 1_555 1_555
C20 C19 1_555 1_555
H15 C20 1_555 1_555
C21 C20 1_555 1_555
H16 C21 1_555 1_555
S1 C18 1_555 1_555
C22 C23 1_555 1_555
C23 C24 1_555 1_555
C24 H17 1_555 1_555
C25 C24 1_555 1_555
C26 C22 1_555 1_555
H18 C26 1_555 1_555
H19 C26 1_555 1_555
C27 C22 1_555 1_555
C28 C27 1_555 1_555
H20 C28 1_555 1_555
C29 C28 1_555 1_555
H21 C29 1_555 1_555
C30 C29 1_555 1_555
H22 C30 1_555 1_555
C31 C30 1_555 1_555
H23 C31 1_555 1_555
C32 C27 1_555 1_555
H24 C32 1_555 1_555
C33 C23 1_555 1_555
C34 C33 1_555 1_555
H25 C34 1_555 1_555
C35 C34 1_555 1_555
H26 C35 1_555 1_555
C36 C35 1_555 1_555
H27 C36 1_555 1_555
C37 C36 1_555 1_555
H28 C37 1_555 1_555
C38 C33 1_555 1_555
H29 C38 1_555 1_555
C39 C25 1_555 1_555
C40 C39 1_555 1_555
H30 C40 1_555 1_555
C41 H31 1_555 1_555
S2 C39 1_555 1_555
C42 C40 1_555 1_555
H32 C42 1_555 1_555
C4 C5 1_555 1_555
C10 C11 1_555 1_555
C16 C17 1_555 1_555
C21 S1 1_555 1_555
C25 C26 1_555 1_555
C31 C32 1_555 1_555
C37 C38 1_555 1_555
C41 S2 1_555 1_555
C41 C42 1_555 1_555

#END
