
#######################################################################
#
#                 Cambridge Crystallographic Data Centre
#                                CCDC 
#
#######################################################################
#
# If this CIF has been generated from an entry in the Cambridge 
# Structural Database, then it will include bibliographic, chemical, 
# crystal, experimental, refinement or atomic coordinate data resulting 
# from the CCDC's data processing and validation procedures.
#
#######################################################################

data_TUTPOP
_chemical_formula_moiety         
'3(H3 O1 1+),C36 H36 N24 O12,1.5(C10 H6 O6 S2 2-),14(H2 O1)'
_chemical_name_systematic        
'tris(Oxonium) cucucurbit[6]uril sesquikis(1,5-naphthalenedisulfonate) tetradecahydrate'
_symmetry_cell_setting           triclinic
_symmetry_space_group_name_H-M   'P -1'
_symmetry_Int_Tables_number      2
_space_group_name_Hall           '-P 1'
loop_
_symmetry_equiv_pos_site_id
_symmetry_equiv_pos_as_xyz
1 x,y,z
2 -x,-y,-z
_cell_length_a                   12.0813(5)
_cell_length_b                   16.7886(8)
_cell_length_c                   19.2895(9)
_cell_angle_alpha                110.847(1)
_cell_angle_beta                 92.188(1)
_cell_angle_gamma                98.644(1)
_cell_volume                     3596.95
_exptl_crystal_colour            colorless
_exptl_crystal_description       block
_cell_formula_units_Z            2
loop_
_atom_site_label
_atom_site_type_symbol
_atom_site_fract_x
_atom_site_fract_y
_atom_site_fract_z
S1 S 0.02496(9) 0.93006(7) 0.31076(6)
O1 O 0.1288(3) 0.9176(2) 0.27602(17)
O2 O -0.0285(3) 0.9941(2) 0.29555(18)
O3 O -0.0503(3) 0.8482(2) 0.29537(17)
C1 C 0.0652(3) 0.9703(3) 0.4087(2)
C2 C -0.0175(3) 0.9880(3) 0.4615(2)
C3 C -0.1333(4) 0.9811(3) 0.4395(2)
H1 H -0.1576 0.9654 0.3882
C4 C 0.1763(4) 0.9787(3) 0.4335(3)
H2 H 0.2308 0.9675 0.3987
C5 C 0.2098(4) 1.0037(3) 0.5099(2)
H3 H 0.2869 1.0099 0.5262
S1A S -0.02496(9) 1.06994(7) 0.68924(6)
O1A O -0.1288(3) 1.0824(2) 0.72398(17)
O2A O 0.0285(3) 1.0059(2) 0.70445(18)
O3A O 0.0503(3) 1.1518(2) 0.70463(17)
C1A C -0.0652(3) 1.0297(3) 0.5913(2)
C2A C 0.0175(3) 1.0120(3) 0.5385(2)
C3A C 0.1333(4) 1.0189(3) 0.5605(2)
H1A H 0.1576 1.0346 0.6118
C4A C -0.1763(4) 1.0213(3) 0.5665(3)
H2A H -0.2308 1.0325 0.6013
C5A C -0.2098(4) 0.9963(3) 0.4901(2)
H3A H -0.2869 0.9901 0.4738
S2 S 0.25133(10) 0.54656(8) 0.10906(6)
O4 O 0.2272(3) 0.6251(2) 0.16420(18)
O5 O 0.2296(3) 0.4739(2) 0.13333(19)
O6 O 0.3627(3) 0.5584(3) 0.0844(2)
C6 C 0.1553(4) 0.5236(3) 0.0289(2)
C7 C 0.0363(4) 0.5073(3) 0.0329(2)
C8 C -0.0126(4) 0.5040(3) 0.0974(2)
H4 H 0.0350 0.5122 0.1406
C9 C -0.1265(4) 0.4893(3) 0.0991(2)
H5 H -0.1572 0.4883 0.1435
C10 C 0.1988(4) 0.5244(3) -0.0354(2)
H6 H 0.2780 0.5343 -0.0370
S2A S -0.25133(10) 0.45344(8) -0.10906(6)
O4A O -0.2272(3) 0.3749(2) -0.16420(18)
O5A O -0.2296(3) 0.5261(2) -0.13333(19)
O6A O -0.3627(3) 0.4416(3) -0.0844(2)
C6A C -0.1553(4) 0.4764(3) -0.0289(2)
C7A C -0.0363(4) 0.4927(3) -0.0329(2)
C8A C 0.0126(4) 0.4960(3) -0.0974(2)
H4A H -0.0350 0.4878 -0.1406
C9A C 0.1265(4) 0.5107(3) -0.0991(2)
H5A H 0.1572 0.5117 -0.1435
C10A C -0.1988(4) 0.4756(3) 0.0354(2)
H6A H -0.2780 0.4657 0.0370
S3 S 0.46765(10) 0.80333(8) 0.35425(6)
O7 O 0.4689(3) 0.7197(2) 0.36068(18)
O8 O 0.3620(3) 0.8104(2) 0.32134(18)
O9 O 0.5642(3) 0.8291(2) 0.31848(18)
C11 C 0.4858(3) 0.8808(3) 0.4478(2)
C12 C 0.4931(4) 0.8510(3) 0.5047(2)
H7 H 0.4881 0.7908 0.4941
C13 C 0.5080(4) 0.9091(3) 0.5790(3)
H8 H 0.5121 0.8877 0.6183
C14 C 0.4921(3) 0.9705(3) 0.4618(2)
C15 C 0.4834(4) 1.0044(3) 0.4048(2)
H9 H 0.4714 0.9660 0.3542
S3A S 0.53235(10) 1.19667(8) 0.64575(6)
O7A O 0.5311(3) 1.2803(2) 0.63932(18)
O8A O 0.6380(3) 1.1896(2) 0.67866(18)
O9A O 0.4358(3) 1.1709(2) 0.68152(18)
C11A C 0.5142(3) 1.1192(3) 0.5522(2)
C12A C 0.5069(4) 1.1490(3) 0.4953(2)
H7A H 0.5119 1.2092 0.5059
C13A C 0.4920(4) 1.0909(3) 0.4210(3)
H8A H 0.4879 1.1123 0.3817
C14A C 0.5079(3) 1.0295(3) 0.5382(2)
C15A C 0.5166(4) 0.9956(3) 0.5952(2)
H9A H 0.5286 1.0340 0.6458
O10 O 0.1368(3) 0.8039(2) 0.59703(18)
O11 O 0.3153(3) 0.6800(2) 0.51181(18)
O12 O 0.3714(3) 0.4845(2) 0.54042(18)
O13 O 0.2261(3) 0.4153(2) 0.65638(17)
O14 O -0.0338(3) 0.4631(2) 0.25614(18)
O15 O 0.0098(3) 0.2763(2) 0.28849(18)
N1 N -0.0471(3) 0.7920(2) 0.55276(19)
N2 N 0.0832(3) 0.7798(3) 0.47413(19)
N3 N 0.2123(3) 0.6865(2) 0.41102(19)
N4 N 0.2992(3) 0.5747(2) 0.3930(2)
N5 N 0.0746(3) 0.6002(2) 0.3054(2)
N6 N 0.1567(3) 0.4862(2) 0.2904(2)
N7 N 0.3285(3) 0.4436(2) 0.4132(2)
N8 N 0.2990(3) 0.3442(2) 0.4642(2)
N9 N 0.1890(3) 0.3560(3) 0.3088(2)
N10 N 0.1519(3) 0.2606(2) 0.3636(2)
N11 N 0.1927(3) 0.2927(2) 0.54854(19)
N12 N 0.0601(3) 0.3167(2) 0.6263(2)
C16 C -0.0936(4) 0.8138(3) 0.6240(2)
H10 H -0.0319 0.8440 0.6643
H11 H -0.1465 0.8542 0.6266
C17 C 0.0653(4) 0.7919(3) 0.5466(2)
C18 C -0.0185(4) 0.7701(3) 0.4275(2)
H12 H -0.0119 0.8140 0.4032
C19 C 0.1929(4) 0.7742(3) 0.4477(3)
H13 H 0.2508 0.8046 0.4905
H14 H 0.2023 0.8048 0.4123
C20 C 0.2791(4) 0.6495(3) 0.4446(3)
C21 C 0.1911(4) 0.6394(3) 0.3312(2)
H15 H 0.2228 0.6752 0.3025
C22 C 0.2498(4) 0.5600(3) 0.3186(2)
H16 H 0.3078 0.5565 0.2826
C23 C 0.0561(4) 0.5111(3) 0.2816(2)
C24 C 0.3795(4) 0.5250(3) 0.4071(3)
H17 H 0.4273 0.5607 0.4540
H18 H 0.4291 0.5123 0.3663
C25 C 0.1735(4) 0.3984(3) 0.2560(2)
H19 H 0.2404 0.3976 0.2279
H20 H 0.1076 0.3649 0.2198
C26 C 0.3358(4) 0.4302(3) 0.4794(3)
C27 C 0.2958(4) 0.3639(3) 0.3497(2)
H21 H 0.3571 0.3524 0.3160
C28 C 0.2712(4) 0.2942(3) 0.3855(2)
H22 H 0.3179 0.2479 0.3669
C29 C 0.1065(4) 0.2962(3) 0.3176(2)
C30 C 0.3010(4) 0.3065(3) 0.5209(2)
H23 H 0.3560 0.3451 0.5632
H24 H 0.3272 0.2504 0.5001
C31 C 0.1647(4) 0.3484(3) 0.6147(2)
C32 C 0.1089(4) 0.2152(3) 0.5158(2)
H25 H 0.1406 0.1618 0.5102
C33 C -0.0140(4) 0.6479(3) 0.3032(2)
H26 H -0.0754 0.6092 0.2655
H27 H 0.0154 0.6960 0.2869
O10A O -0.1368(3) 0.1961(2) 0.40297(18)
O11A O -0.3153(3) 0.3200(2) 0.48819(18)
O12A O -0.3714(3) 0.5155(2) 0.45958(18)
O13A O -0.2261(3) 0.5847(2) 0.34362(17)
O14A O 0.0338(3) 0.5369(2) 0.74386(18)
O15A O -0.0098(3) 0.7237(2) 0.71151(18)
N1A N 0.0471(3) 0.2080(2) 0.44724(19)
N2A N -0.0832(3) 0.2202(3) 0.52587(19)
N3A N -0.2123(3) 0.3135(2) 0.58898(19)
N4A N -0.2992(3) 0.4253(2) 0.6070(2)
N5A N -0.0746(3) 0.3998(2) 0.6946(2)
N6A N -0.1567(3) 0.5138(2) 0.7096(2)
N7A N -0.3285(3) 0.5564(2) 0.5868(2)
N8A N -0.2990(3) 0.6558(2) 0.5358(2)
N9A N -0.1890(3) 0.6440(3) 0.6912(2)
N10A N -0.1519(3) 0.7394(2) 0.6364(2)
N11A N -0.1927(3) 0.7073(2) 0.45146(19)
N12A N -0.0601(3) 0.6833(2) 0.3737(2)
C16A C 0.0936(4) 0.1862(3) 0.3760(2)
H10A H 0.0319 0.1560 0.3357
H11A H 0.1465 0.1458 0.3734
C17A C -0.0653(4) 0.2081(3) 0.4534(2)
C18A C 0.0185(4) 0.2299(3) 0.5725(2)
H12A H 0.0119 0.1860 0.5968
C19A C -0.1929(4) 0.2258(3) 0.5523(3)
H13A H -0.2508 0.1954 0.5095
H14A H -0.2023 0.1952 0.5877
C20A C -0.2791(4) 0.3505(3) 0.5554(3)
C21A C -0.1911(4) 0.3606(3) 0.6688(2)
H15A H -0.2228 0.3248 0.6975
C22A C -0.2498(4) 0.4400(3) 0.6814(2)
H16A H -0.3078 0.4435 0.7174
C23A C -0.0561(4) 0.4889(3) 0.7184(2)
C24A C -0.3795(4) 0.4750(3) 0.5929(3)
H17A H -0.4273 0.4393 0.5460
H18A H -0.4291 0.4877 0.6337
C25A C -0.1735(4) 0.6016(3) 0.7440(2)
H19A H -0.2404 0.6024 0.7721
H20A H -0.1076 0.6351 0.7802
C26A C -0.3358(4) 0.5698(3) 0.5206(3)
C27A C -0.2958(4) 0.6361(3) 0.6503(2)
H21A H -0.3571 0.6476 0.6840
C28A C -0.2712(4) 0.7058(3) 0.6145(2)
H22A H -0.3179 0.7521 0.6331
C29A C -0.1065(4) 0.7038(3) 0.6824(2)
C30A C -0.3010(4) 0.6935(3) 0.4791(2)
H23A H -0.3560 0.6549 0.4368
H24A H -0.3272 0.7496 0.4999
C31A C -0.1647(4) 0.6516(3) 0.3853(2)
C32A C -0.1089(4) 0.7848(3) 0.4842(2)
H25A H -0.1406 0.8382 0.4898
C33A C 0.0140(4) 0.3521(3) 0.6968(2)
H26A H 0.0754 0.3908 0.7345
H27A H -0.0154 0.3040 0.7131
O16 O 0.3360(3) 0.8010(2) 0.76234(19)
O17 O 0.4276(3) 0.7074(2) 0.88020(17)
O18 O 0.1320(3) 1.0459(2) 1.01849(16)
O19 O 0.2161(3) 0.9495(2) 1.12862(17)
O20 O 0.4807(3) 1.0275(2) 1.23931(17)
O21 O 0.3078(3) 1.2159(2) 1.01097(17)
N13 N 0.2723(3) 1.1273(2) 0.8868(2)
N14 N 0.1406(3) 1.0047(2) 0.89134(19)
N15 N 0.1093(3) 0.9025(2) 0.93921(19)
N16 N 0.2269(3) 0.9073(3) 0.7897(2)
N17 N 0.1912(3) 0.8042(3) 0.8367(2)
N18 N 0.2532(3) 0.7350(2) 0.9188(2)
N19 N 0.3820(3) 0.7265(2) 0.9992(2)
N20 N 0.1661(3) 0.8309(2) 1.02013(19)
N21 N 0.3034(3) 0.8300(2) 1.09930(19)
N22 N 0.5629(3) 0.7854(2) 1.0745(2)
N23 N 0.4800(3) 0.8819(2) 1.1773(2)
N24 N 0.6439(3) 0.9706(2) 1.2153(2)
C34 C 0.3358(4) 1.1879(3) 0.9469(2)
C35 C 0.1556(4) 1.0904(3) 0.8889(3)
H28 H 0.1261 1.1292 0.9333
H29 H 0.1103 1.0884 0.8443
C36 C 0.2597(4) 0.8349(3) 0.7932(2)
C37 C 0.1261(4) 0.9258(3) 0.8264(2)
H30 H 0.0623 0.9224 0.7903
C38 C 0.1016(4) 0.8538(3) 0.8603(2)
H31 H 0.0256 0.8172 0.8412
C39 C 0.1286(3) 0.9903(3) 0.9566(2)
C40 C 0.1973(4) 0.7233(3) 0.8470(2)
H32 H 0.1200 0.6909 0.8419
H33 H 0.2380 0.6879 0.8071
C41 C 0.0766(4) 0.8631(3) 0.9922(2)
H34 H 0.0133 0.8145 0.9684
H35 H 0.0491 0.9063 1.0349
C42 C 0.3621(4) 0.7219(3) 0.9282(2)
C43 C 0.1957(4) 0.7460(3) 0.9851(2)
H36 H 0.1294 0.6988 0.9762
C44 C 0.2875(4) 0.7440(3) 1.0425(2)
H37 H 0.2633 0.6982 1.0633
C45 C 0.2274(4) 0.8782(3) 1.0872(2)
C46 C 0.4854(4) 0.7087(3) 1.0270(2)
H38 H 0.4661 0.6705 1.0553
H39 H 0.5240 0.6769 0.9840
C47 C 0.3606(4) 0.8511(3) 1.1732(2)
H40 H 0.3266 0.8961 1.2101
H41 H 0.3492 0.7988 1.1865
C48 C 0.5593(4) 0.8242(3) 1.1547(2)
H42 H 0.5498 0.7796 1.1782
C49 C 0.5293(4) 0.9664(3) 1.2130(2)
C50 C 0.7229(4) 1.0494(3) 1.2571(2)
H43 H 0.6833 1.0894 1.2945
H44 H 0.7833 1.0349 1.2842
C51 C 0.3254(4) 1.1136(3) 0.8180(2)
H45 H 0.2802 1.1284 0.7813
O16A O 0.6640(3) 1.1990(2) 1.23766(19)
O17A O 0.5724(3) 1.2926(2) 1.11980(17)
O18A O 0.8680(3) 0.9541(2) 0.98151(16)
O19A O 0.7839(3) 1.0505(2) 0.87138(17)
O20A O 0.5193(3) 0.9725(2) 0.76069(17)
O21A O 0.6922(3) 0.7841(2) 0.98903(17)
N13A N 0.7277(3) 0.8727(2) 1.1132(2)
N14A N 0.8594(3) 0.9953(2) 1.10866(19)
N15A N 0.8907(3) 1.0975(2) 1.06079(19)
N16A N 0.7731(3) 1.0927(3) 1.2103(2)
N17A N 0.8088(3) 1.1958(3) 1.1633(2)
N18A N 0.7468(3) 1.2650(2) 1.0812(2)
N19A N 0.6180(3) 1.2735(2) 1.0008(2)
N20A N 0.8339(3) 1.1691(2) 0.97987(19)
N21A N 0.6966(3) 1.1700(2) 0.90070(19)
N22A N 0.4371(3) 1.2146(2) 0.9255(2)
N23A N 0.5200(3) 1.1181(2) 0.8227(2)
N24A N 0.3561(3) 1.0294(2) 0.7847(2)
C34A C 0.6642(4) 0.8121(3) 1.0531(2)
C35A C 0.8444(4) 0.9096(3) 1.1111(3)
H28A H 0.8739 0.8708 1.0667
H29A H 0.8897 0.9116 1.1557
C36A C 0.7403(4) 1.1651(3) 1.2068(2)
C37A C 0.8739(4) 1.0742(3) 1.1736(2)
H30A H 0.9377 1.0776 1.2097
C38A C 0.8984(4) 1.1462(3) 1.1397(2)
H31A H 0.9744 1.1828 1.1588
C39A C 0.8714(3) 1.0097(3) 1.0434(2)
C40A C 0.8027(4) 1.2767(3) 1.1530(2)
H32A H 0.8800 1.3091 1.1581
H33A H 0.7620 1.3121 1.1929
C41A C 0.9234(4) 1.1369(3) 1.0078(2)
H34A H 0.9867 1.1855 1.0316
H35A H 0.9509 1.0937 0.9651
C42A C 0.6379(4) 1.2781(3) 1.0718(2)
C43A C 0.8043(4) 1.2540(3) 1.0149(2)
H36A H 0.8706 1.3012 1.0238
C44A C 0.7125(4) 1.2560(3) 0.9575(2)
H37A H 0.7367 1.3018 0.9367
C45A C 0.7726(4) 1.1218(3) 0.9128(2)
C46A C 0.5146(4) 1.2913(3) 0.9730(2)
H38A H 0.5339 1.3295 0.9447
H39A H 0.4760 1.3231 1.0160
C47A C 0.6394(4) 1.1489(3) 0.8268(2)
H40A H 0.6734 1.1039 0.7899
H41A H 0.6508 1.2012 0.8135
C48A C 0.4407(4) 1.1758(3) 0.8453(2)
H42A H 0.4502 1.2204 0.8218
C49A C 0.4707(4) 1.0336(3) 0.7870(2)
C50A C 0.2771(4) 0.9506(3) 0.7429(2)
H43A H 0.3167 0.9106 0.7055
H44A H 0.2167 0.9651 0.7158
C51A C 0.6746(4) 0.8864(3) 1.1820(2)
H45A H 0.7198 0.8716 1.2187
O22 O 0.5746(3) 0.5362(3) 0.1252(2)
H46 H 0.5670 0.5521 0.1700
H47 H 0.5146 0.5375 0.1037
O23 O 0.7188(3) 0.6783(3) 1.1511(2)
H48 H 0.7364 0.6940 1.1958
H49 H 0.7759 0.6805 1.1298
O24 O 0.1303(3) 0.3096(2) 0.0432(2)
H50 H 0.1517 0.3614 0.0687
H51 H 0.1823 0.2841 0.0457
O25 O 0.2637(3) 1.0783(2) 1.27801(19)
H52 H 0.2222 1.0339 1.2761
H53 H 0.3220 1.0655 1.2606
O26 O 0.4395(3) 0.4217(2) 0.72251(19)
H54 H 0.3743 0.4118 0.7032
H55 H 0.4692 0.3802 0.6995
O27 O 0.7479(3) 0.7523(2) 0.2969(2)
H56 H 0.6973 0.7797 0.3129
H57 H 0.8057 0.7878 0.3019
O28 O 0.0936(3) 0.7446(2) 0.1620(2)
H58 H 0.1311 0.7090 0.1650
H59 H 0.1100 0.7888 0.1989
O29 O 0.5441(4) 0.7843(3) 0.7419(3)
O30 O 0.4663(4) 0.6623(3) 0.6092(3)
O31 O 0.3231(4) 1.2363(3) 1.1612(3)
O32 O 0.4671(4) 0.5949(3) 0.7424(2)
O33 O -0.1619(4) 0.3389(3) 0.3698(3)
H60 H -0.1673 0.3725 0.3473
H61 H -0.1067 0.3163 0.3561
O34 O 0.2613(4) 0.5839(3) 0.6886(2)
H62 H 0.3188 0.5940 0.6687
H63 H 0.2399 0.5311 0.6721
O35 O 0.1704(3) 1.1232(3) 1.1702(2)
H64 H 0.1760 1.0971 1.1982
H65 H 0.1645 1.0896 1.1269
O36 O 0.8922(3) 0.7068(3) 1.0972(2)
H66 H 0.8939 0.6932 1.0521
H67 H 0.9551 0.7068 1.1151
O37 O 0.0414(5) 0.4363(3) 0.5200(3)
O38 O 0.413(2) 1.0371(16) 1.0225(14)
O39? O 0.497(2) 0.9411(16) 0.9352(14)
O40? O 0.4058(16) 0.9722(13) 0.9580(11)
loop_
_geom_bond_atom_site_label_1
_geom_bond_atom_site_label_2
_geom_bond_site_symmetry_1
_geom_bond_site_symmetry_2
S1 O1 1_555 1_555
O2 S1 1_555 1_555
O3 S1 1_555 1_555
C1 S1 1_555 1_555
C2 C1 1_555 1_555
C3 C2 1_555 1_555
H1 C3 1_555 1_555
C4 C1 1_555 1_555
H2 C4 1_555 1_555
C5 C4 1_555 1_555
H3 C5 1_555 1_555
S2 O4 1_555 1_555
O5 S2 1_555 1_555
O6 S2 1_555 1_555
C6 S2 1_555 1_555
C7 C6 1_555 1_555
C8 C7 1_555 1_555
H4 C8 1_555 1_555
C9 C8 1_555 1_555
H5 C9 1_555 1_555
C10 C6 1_555 1_555
H6 C10 1_555 1_555
S3 O7 1_555 1_555
O8 S3 1_555 1_555
O9 S3 1_555 1_555
C11 S3 1_555 1_555
C12 C11 1_555 1_555
H7 C12 1_555 1_555
C13 C12 1_555 1_555
H8 C13 1_555 1_555
C14 C11 1_555 1_555
C15 C14 1_555 1_555
H9 C15 1_555 1_555
O10 C17 1_555 1_555
O11 C20 1_555 1_555
O12 C26 1_555 1_555
O13 C31 1_555 1_555
O14 C23 1_555 1_555
O15 C29 1_555 1_555
N1 C16 1_555 1_555
N2 C17 1_555 1_555
N3 C19 1_555 1_555
N4 C20 1_555 1_555
N5 C21 1_555 1_555
N6 C22 1_555 1_555
N7 C24 1_555 1_555
N8 C26 1_555 1_555
N9 C25 1_555 1_555
N10 C28 1_555 1_555
N11 C30 1_555 1_555
N12 C31 1_555 1_555
C16 H10 1_555 1_555
H11 C16 1_555 1_555
C17 N1 1_555 1_555
C18 N2 1_555 1_555
H12 C18 1_555 1_555
C19 N2 1_555 1_555
H13 C19 1_555 1_555
H14 C19 1_555 1_555
C20 N3 1_555 1_555
C21 N3 1_555 1_555
H15 C21 1_555 1_555
C22 N4 1_555 1_555
H16 C22 1_555 1_555
C23 N5 1_555 1_555
C24 N4 1_555 1_555
H17 C24 1_555 1_555
H18 C24 1_555 1_555
C25 N6 1_555 1_555
H19 C25 1_555 1_555
H20 C25 1_555 1_555
C26 N7 1_555 1_555
C27 N7 1_555 1_555
H21 C27 1_555 1_555
C28 N8 1_555 1_555
H22 C28 1_555 1_555
C29 N9 1_555 1_555
C30 N8 1_555 1_555
H23 C30 1_555 1_555
H24 C30 1_555 1_555
C31 N11 1_555 1_555
C32 N11 1_555 1_555
H25 C32 1_555 1_555
C33 N5 1_555 1_555
H26 C33 1_555 1_555
H27 C33 1_555 1_555
O16 C36 1_555 1_555
O17 C42 1_555 1_555
O18 C39 1_555 1_555
O19 C45 1_555 1_555
O20 C49 1_555 1_555
O21 C34 1_555 1_555
N13 C34 1_555 1_555
N14 C35 1_555 1_555
N15 C38 1_555 1_555
N16 C36 1_555 1_555
N17 C36 1_555 1_555
N18 C40 1_555 1_555
N19 C42 1_555 1_555
N20 C41 1_555 1_555
N21 C44 1_555 1_555
N22 C46 1_555 1_555
N23 C47 1_555 1_555
N24 C49 1_555 1_555
C34 N22A 1_555 1_555
C35 N13 1_555 1_555
H28 C35 1_555 1_555
H29 C35 1_555 1_555
C37 N14 1_555 1_555
H30 C37 1_555 1_555
C38 N17 1_555 1_555
H31 C38 1_555 1_555
C39 N14 1_555 1_555
C40 N17 1_555 1_555
H32 C40 1_555 1_555
H33 C40 1_555 1_555
C41 N15 1_555 1_555
H34 C41 1_555 1_555
H35 C41 1_555 1_555
C42 N18 1_555 1_555
C43 N18 1_555 1_555
H36 C43 1_555 1_555
C44 N19 1_555 1_555
H37 C44 1_555 1_555
C45 N20 1_555 1_555
C46 N19 1_555 1_555
H38 C46 1_555 1_555
H39 C46 1_555 1_555
C47 N21 1_555 1_555
H40 C47 1_555 1_555
H41 C47 1_555 1_555
C48 N22 1_555 1_555
H42 C48 1_555 1_555
C49 N23 1_555 1_555
C50 N24 1_555 1_555
H43 C50 1_555 1_555
H44 C50 1_555 1_555
C51 N13 1_555 1_555
H45 C51 1_555 1_555
O22 H46 1_555 1_555
H47 O22 1_555 1_555
O23 H48 1_555 1_555
H49 O23 1_555 1_555
O24 H50 1_555 1_555
H51 O24 1_555 1_555
O25 H52 1_555 1_555
H53 O25 1_555 1_555
O26 H54 1_555 1_555
H55 O26 1_555 1_555
O27 H56 1_555 1_555
H57 O27 1_555 1_555
O28 H58 1_555 1_555
H59 O28 1_555 1_555
O33 H60 1_555 1_555
H61 O33 1_555 1_555
O34 H62 1_555 1_555
H63 O34 1_555 1_555
O35 H64 1_555 1_555
H65 O35 1_555 1_555
O36 H66 1_555 1_555
H67 O36 1_555 1_555
S1A O1A 1_555 1_555
O2A S1A 1_555 1_555
O3A S1A 1_555 1_555
C1A S1A 1_555 1_555
C2A C2 1_555 1_555
C3A C5 1_555 1_555
H1A C3A 1_555 1_555
C4A C1A 1_555 1_555
H2A C4A 1_555 1_555
C5A C3 1_555 1_555
H3A C5A 1_555 1_555
S2A O4A 1_555 1_555
O5A S2A 1_555 1_555
O6A S2A 1_555 1_555
C6A S2A 1_555 1_555
C7A C7 1_555 1_555
C8A C7A 1_555 1_555
H4A C8A 1_555 1_555
C9A C10 1_555 1_555
H5A C9A 1_555 1_555
C10A C9 1_555 1_555
H6A C10A 1_555 1_555
S3A O7A 1_555 1_555
O8A S3A 1_555 1_555
O9A S3A 1_555 1_555
C11A S3A 1_555 1_555
C12A C11A 1_555 1_555
H7A C12A 1_555 1_555
C13A C15 1_555 1_555
H8A C13A 1_555 1_555
C14A C14 1_555 1_555
C15A C13 1_555 1_555
H9A C15A 1_555 1_555
O10A C17A 1_555 1_555
O11A C20A 1_555 1_555
O12A C26A 1_555 1_555
O13A C31A 1_555 1_555
O14A C23A 1_555 1_555
O15A C29A 1_555 1_555
N1A C32 1_555 1_555
N2A C17A 1_555 1_555
N3A C19A 1_555 1_555
N4A C20A 1_555 1_555
N5A C21A 1_555 1_555
N6A C22A 1_555 1_555
N7A C24A 1_555 1_555
N8A C26A 1_555 1_555
N9A C25A 1_555 1_555
N10A C16 1_555 1_555
N11A C30A 1_555 1_555
N12A C18 1_555 1_555
C16A N10 1_555 1_555
H10A C16A 1_555 1_555
H11A C16A 1_555 1_555
C17A N1A 1_555 1_555
C18A N12 1_555 1_555
H12A C18A 1_555 1_555
C19A N2A 1_555 1_555
H13A C19A 1_555 1_555
H14A C19A 1_555 1_555
C20A N3A 1_555 1_555
C21A N3A 1_555 1_555
H15A C21A 1_555 1_555
C22A N4A 1_555 1_555
H16A C22A 1_555 1_555
C23A N5A 1_555 1_555
C24A N4A 1_555 1_555
H17A C24A 1_555 1_555
H18A C24A 1_555 1_555
C25A N6A 1_555 1_555
H19A C25A 1_555 1_555
H20A C25A 1_555 1_555
C26A N7A 1_555 1_555
C27A N7A 1_555 1_555
H21A C27A 1_555 1_555
C28A N8A 1_555 1_555
H22A C28A 1_555 1_555
C29A N9A 1_555 1_555
C30A N8A 1_555 1_555
H23A C30A 1_555 1_555
H24A C30A 1_555 1_555
C31A N11A 1_555 1_555
C32A N1 1_555 1_555
H25A C32A 1_555 1_555
C33A N12 1_555 1_555
H26A C33A 1_555 1_555
H27A C33A 1_555 1_555
O16A C36A 1_555 1_555
O17A C42A 1_555 1_555
O18A C39A 1_555 1_555
O19A C45A 1_555 1_555
O20A C49A 1_555 1_555
O21A C34A 1_555 1_555
N13A C34A 1_555 1_555
N14A C35A 1_555 1_555
N15A C38A 1_555 1_555
N16A C50 1_555 1_555
N17A C36A 1_555 1_555
N18A C40A 1_555 1_555
N19A C42A 1_555 1_555
N20A C41A 1_555 1_555
N21A C44A 1_555 1_555
N22A C46A 1_555 1_555
N23A C47A 1_555 1_555
N24A C51 1_555 1_555
C34A N22 1_555 1_555
C35A N13A 1_555 1_555
H28A C35A 1_555 1_555
H29A C35A 1_555 1_555
C36A N16A 1_555 1_555
C37A N14A 1_555 1_555
H30A C37A 1_555 1_555
C38A N17A 1_555 1_555
H31A C38A 1_555 1_555
C39A N14A 1_555 1_555
C40A N17A 1_555 1_555
H32A C40A 1_555 1_555
H33A C40A 1_555 1_555
C41A N15A 1_555 1_555
H34A C41A 1_555 1_555
H35A C41A 1_555 1_555
C42A N18A 1_555 1_555
C43A N18A 1_555 1_555
H36A C43A 1_555 1_555
C44A N19A 1_555 1_555
H37A C44A 1_555 1_555
C45A N20A 1_555 1_555
C46A N19A 1_555 1_555
H38A C46A 1_555 1_555
H39A C46A 1_555 1_555
C47A N21A 1_555 1_555
H40A C47A 1_555 1_555
H41A C47A 1_555 1_555
C48A C51 1_555 1_555
H42A C48A 1_555 1_555
C49A N23A 1_555 1_555
C50A N16 1_555 1_555
H43A C50A 1_555 1_555
H44A C50A 1_555 1_555
C51A N24 1_555 1_555
H45A C51A 1_555 1_555
N6 C23 1_555 1_555
N9 C27 1_555 1_555
N10 C29 1_555 1_555
C18 C32A 1_555 1_555
C21 C22 1_555 1_555
C27 C28 1_555 1_555
C32 C18A 1_555 1_555
C33 N12A 1_555 1_555
N15 C39 1_555 1_555
N16 C37 1_555 1_555
N20 C43 1_555 1_555
N21 C45 1_555 1_555
N23 C48 1_555 1_555
C37 C38 1_555 1_555
C43 C44 1_555 1_555
C48 C51A 1_555 1_555
C1A C2A 1_555 1_555
C2A C3A 1_555 1_555
C4A C5A 1_555 1_555
C6A C7A 1_555 1_555
C6A C10A 1_555 1_555
C8A C9A 1_555 1_555
C11A C14A 1_555 1_555
C12A C13A 1_555 1_555
C14A C15A 1_555 1_555
N1A C16A 1_555 1_555
N2A C18A 1_555 1_555
N5A C33A 1_555 1_555
N6A C23A 1_555 1_555
N9A C27A 1_555 1_555
N10A C28A 1_555 1_555
N10A C29A 1_555 1_555
N11A C32A 1_555 1_555
N12A C31A 1_555 1_555
C21A C22A 1_555 1_555
C27A C28A 1_555 1_555
N13A C51A 1_555 1_555
N15A C39A 1_555 1_555
N16A C37A 1_555 1_555
N20A C43A 1_555 1_555
N21A C45A 1_555 1_555
N22A C48A 1_555 1_555
N23A C48A 1_555 1_555
N24A C49A 1_555 1_555
N24A C50A 1_555 1_555
C37A C38A 1_555 1_555
C43A C44A 1_555 1_555

#END
