
#######################################################################
#
#                 Cambridge Crystallographic Data Centre
#                                CCDC 
#
#######################################################################
#
# If this CIF has been generated from an entry in the Cambridge 
# Structural Database, then it will include bibliographic, chemical, 
# crystal, experimental, refinement or atomic coordinate data resulting 
# from the CCDC's data processing and validation procedures.
#
#######################################################################

data_TUTRIK
_chemical_formula_moiety         'C12 H5 Br2 F3 O1'
_chemical_name_systematic        1,2-Dibromo-3,4,6-trifluoro-5-phenoxybenzene
_symmetry_cell_setting           monoclinic
_symmetry_space_group_name_H-M   'P 21/c'
_symmetry_Int_Tables_number      14
_space_group_name_Hall           '-P 2ybc'
loop_
_symmetry_equiv_pos_site_id
_symmetry_equiv_pos_as_xyz
1 x,y,z
2 -x,1/2+y,1/2-z
3 -x,-y,-z
4 x,1/2-y,1/2+z
_cell_length_a                   10.3435(2)
_cell_length_b                   5.80410(10)
_cell_length_c                   19.3488(4)
_cell_angle_alpha                90
_cell_angle_beta                 93.271(10)
_cell_angle_gamma                90
_cell_volume                     1159.71
_exptl_crystal_colour            colorless
_exptl_crystal_description       plate
_chemical_melting_point          '69-70 deg.C'
_cell_formula_units_Z            4
loop_
_atom_site_label
_atom_site_type_symbol
_atom_site_fract_x
_atom_site_fract_y
_atom_site_fract_z
Br1 Br -0.00777(2) 0.80513(4) 0.068416(13)
Br2 Br 0.25434(2) 0.71847(4) -0.026451(12)
F1 F 0.40037(13) 0.3017(2) 0.02702(7)
F2 F 0.13974(14) 0.0873(3) 0.20671(7)
F3 F -0.01781(13) 0.4453(2) 0.17853(7)
O1 O 0.34375(16) -0.0062(3) 0.12929(8)
C1 C 0.1095(2) 0.5646(4) 0.08722(11)
C2 C 0.2172(2) 0.5288(4) 0.04867(11)
C3 C 0.2972(2) 0.3441(4) 0.06420(11)
C4 C 0.2734(2) 0.1905(4) 0.11766(12)
C5 C 0.1668(2) 0.2298(4) 0.15538(11)
C6 C 0.0859(2) 0.4138(4) 0.14026(11)
C7 C 0.4758(2) 0.0126(4) 0.14959(11)
C8 C 0.5520(2) -0.1699(4) 0.13299(12)
H1 H 0.5160 -0.2963 0.1073
C9 C 0.6822(2) -0.1677(4) 0.15411(13)
H2 H 0.7359 -0.2940 0.1433
C10 C 0.7344(2) 0.0190(4) 0.19105(12)
H3 H 0.8240 0.0215 0.2049
C11 C 0.6561(2) 0.1997(4) 0.20749(12)
H4 H 0.6919 0.3265 0.2331
C12 C 0.5243(2) 0.1992(4) 0.18697(11)
H5 H 0.4697 0.3236 0.1984
loop_
_geom_bond_atom_site_label_1
_geom_bond_atom_site_label_2
_geom_bond_site_symmetry_1
_geom_bond_site_symmetry_2
Br1 C1 1_555 1_555
Br2 C2 1_555 1_555
F1 C3 1_555 1_555
F2 C5 1_555 1_555
F3 C6 1_555 1_555
O1 C4 1_555 1_555
C1 C2 1_555 1_555
C2 C3 1_555 1_555
C3 C4 1_555 1_555
C4 C5 1_555 1_555
C5 C6 1_555 1_555
C6 C1 1_555 1_555
C7 O1 1_555 1_555
C8 C7 1_555 1_555
H1 C8 1_555 1_555
C9 C8 1_555 1_555
H2 C9 1_555 1_555
C10 C9 1_555 1_555
H3 C10 1_555 1_555
C11 C10 1_555 1_555
H4 C11 1_555 1_555
C12 C7 1_555 1_555
H5 C12 1_555 1_555
C11 C12 1_555 1_555

#END
