
#######################################################################
#
#                 Cambridge Crystallographic Data Centre
#                                CCDC 
#
#######################################################################
#
# If this CIF has been generated from an entry in the Cambridge 
# Structural Database, then it will include bibliographic, chemical, 
# crystal, experimental, refinement or atomic coordinate data resulting 
# from the CCDC's data processing and validation procedures.
#
#######################################################################

data_TUVFOF
_chemical_formula_moiety         'C9 H17 O2 P1 S1'
_chemical_name_systematic        
'1-t-Butyl-1-thioxophospholane-2-carboxylic acid'
_symmetry_cell_setting           orthorhombic
_symmetry_space_group_name_H-M   'P 21 21 21'
_symmetry_Int_Tables_number      19
_space_group_name_Hall           'P 2ac 2ab'
loop_
_symmetry_equiv_pos_site_id
_symmetry_equiv_pos_as_xyz
1 x,y,z
2 1/2-x,-y,1/2+z
3 -x,1/2+y,1/2-z
4 1/2+x,1/2-y,-z
_cell_length_a                   7.6951(11)
_cell_length_b                   8.0298(11)
_cell_length_c                   17.424(2)
_cell_angle_alpha                90
_cell_angle_beta                 90
_cell_angle_gamma                90
_cell_volume                     1076.63
_exptl_crystal_description       needle
_cell_formula_units_Z            4
_exptl_crystal_recrystallization_method ethanol
loop_
_atom_site_label
_atom_site_type_symbol
_atom_site_fract_x
_atom_site_fract_y
_atom_site_fract_z
P1 P 0.65618(4) 0.44924(4) 0.134495(15)
S1 S 0.70440(4) 0.21031(3) 0.147697(16)
C1 C 0.42704(15) 0.50785(14) 0.13999(7)
H1 H 0.3522 0.4075 0.1394
H2 H 0.4037 0.5711 0.1877
C2 C 0.69045(15) 0.52947(14) 0.03533(6)
H3 H 0.7473 0.6413 0.0381
C3 C 0.72771(18) 0.76457(15) 0.19271(7)
H4 H 0.8025 0.8343 0.2249
H5 H 0.6069 0.7750 0.2099
H6 H 0.7369 0.8008 0.1392
C4 C 0.80200(16) 0.41451(14) -0.01215(6)
C5 C 0.78540(15) 0.58194(14) 0.19924(6)
C6 C 0.50500(15) 0.54995(16) 0.00373(7)
H7 H 0.5047 0.6290 -0.0399
H8 H 0.4599 0.4414 -0.0145
C7 C 0.97739(15) 0.56400(18) 0.17662(7)
H9 H 0.9963 0.6150 0.1262
H10 H 1.0081 0.4457 0.1743
H11 H 1.0503 0.6199 0.2149
C8 C 0.75827(18) 0.52084(17) 0.28205(7)
H12 H 0.8281 0.5888 0.3172
H13 H 0.7942 0.4041 0.2860
H14 H 0.6352 0.5307 0.2957
C9 C 0.39159(16) 0.61653(17) 0.06912(7)
H15 H 0.2673 0.6104 0.0548
H16 H 0.4211 0.7342 0.0801
O1 O 0.96732(12) 0.46510(12) -0.01434(6)
H17 H 1.0255 0.3995 -0.0417
O2 O 0.74814(12) 0.29196(12) -0.04393(5)
loop_
_geom_bond_atom_site_label_1
_geom_bond_atom_site_label_2
_geom_bond_site_symmetry_1
_geom_bond_site_symmetry_2
P1 S1 1_555 1_555
C1 P1 1_555 1_555
H1 C1 1_555 1_555
H2 C1 1_555 1_555
C2 P1 1_555 1_555
H3 C2 1_555 1_555
C3 H4 1_555 1_555
H5 C3 1_555 1_555
H6 C3 1_555 1_555
C4 C2 1_555 1_555
C5 P1 1_555 1_555
C6 C2 1_555 1_555
H7 C6 1_555 1_555
H8 C6 1_555 1_555
C7 C5 1_555 1_555
H9 C7 1_555 1_555
H10 C7 1_555 1_555
H11 C7 1_555 1_555
C8 C5 1_555 1_555
H12 C8 1_555 1_555
H13 C8 1_555 1_555
H14 C8 1_555 1_555
C9 C1 1_555 1_555
H15 C9 1_555 1_555
H16 C9 1_555 1_555
O1 C4 1_555 1_555
H17 O1 1_555 1_555
O2 C4 1_555 1_555
C3 C5 1_555 1_555
C6 C9 1_555 1_555

#END
