
#######################################################################
#
#                 Cambridge Crystallographic Data Centre
#                                CCDC 
#
#######################################################################
#
# If this CIF has been generated from an entry in the Cambridge 
# Structural Database, then it will include bibliographic, chemical, 
# crystal, experimental, refinement or atomic coordinate data resulting 
# from the CCDC's data processing and validation procedures.
#
#######################################################################

data_TUVHEZ
_chemical_formula_moiety         'C32 H22 F3 N1 O3'
_chemical_name_systematic        
11-(2-methyl-5-(trifluoromethyl)phenyl)-1,8-diphenyl-14-oxa-11-azatetracyclo[6.5.1.0^2,7^.0^9,13^]tetradeca-2,4,6-triene-10,12-dione
_symmetry_cell_setting           triclinic
_symmetry_space_group_name_H-M   'P -1'
_symmetry_Int_Tables_number      2
_space_group_name_Hall           '-P 1'
loop_
_symmetry_equiv_pos_site_id
_symmetry_equiv_pos_as_xyz
1 x,y,z
2 -x,-y,-z
_cell_length_a                   12.381(2)
_cell_length_b                   13.598(2)
_cell_length_c                   16.349(3)
_cell_angle_alpha                100.944(4)
_cell_angle_beta                 109.738(4)
_cell_angle_gamma                97.658(4)
_cell_volume                     2484.94
_exptl_crystal_colour            colorless
_exptl_crystal_description       block
_cell_formula_units_Z            4
loop_
_atom_site_label
_atom_site_type_symbol
_atom_site_fract_x
_atom_site_fract_y
_atom_site_fract_z
O1 O 0.02737(8) 0.06785(8) 0.14603(7)
O2 O 0.31335(9) 0.15398(9) 0.04295(7)
O3 O 0.32461(9) -0.09991(8) 0.18989(7)
N1 N 0.34344(10) 0.02708(10) 0.11780(8)
C1 C 0.10584(12) 0.13736(12) 0.12348(10)
C2 C 0.15123(12) 0.05633(12) 0.06773(10)
H1 H 0.0949 0.0311 0.0040
C3 C 0.27539(13) 0.08850(12) 0.07252(10)
C4 C 0.28135(13) -0.04201(12) 0.14751(10)
C5 C 0.15542(12) -0.02994(12) 0.11694(10)
H2 H 0.1010 -0.0952 0.0760
C6 C 0.11150(12) 0.01390(12) 0.19399(10)
C7 C 0.20916(12) 0.10346(12) 0.25907(10)
C8 C 0.20526(12) 0.18118(12) 0.21473(10)
C9 C 0.28562(13) 0.27375(12) 0.25157(10)
H3 H 0.2817 0.3267 0.2209
C10 C 0.37301(13) 0.28620(13) 0.33592(11)
H4 H 0.4298 0.3488 0.3633
C11 C 0.37807(13) 0.20866(12) 0.38019(11)
H5 H 0.4383 0.2190 0.4375
C12 C 0.29620(13) 0.11538(12) 0.34215(10)
H6 H 0.3002 0.0620 0.3723
C13 C 0.04310(13) 0.21084(12) 0.07821(10)
C14 C 0.07859(14) 0.25192(13) 0.01743(11)
H7 H 0.1426 0.2327 0.0035
C15 C 0.02055(15) 0.32108(14) -0.02288(13)
H8 H 0.0455 0.3494 -0.0640
C16 C -0.07306(15) 0.34892(14) -0.00358(12)
H9 H -0.1128 0.3959 -0.0316
C17 C -0.10859(15) 0.30817(14) 0.05660(12)
H10 H -0.1731 0.3272 0.0699
C18 C -0.05093(14) 0.23969(13) 0.09779(11)
H11 H -0.0756 0.2124 0.1395
C19 C 0.05300(13) -0.06440(12) 0.22784(10)
C20 C -0.06501(14) -0.07613(14) 0.21387(12)
H12 H -0.1094 -0.0332 0.1833
C21 C -0.11942(15) -0.14948(15) 0.24376(13)
H13 H -0.2003 -0.1557 0.2346
C22 C -0.05720(15) -0.21318(14) 0.28652(12)
H14 H -0.0949 -0.2643 0.3061
C23 C 0.06136(16) -0.20252(14) 0.30108(12)
H15 H 0.1050 -0.2463 0.3309
C24 C 0.11618(15) -0.12812(13) 0.27217(12)
H16 H 0.1975 -0.1207 0.2828
C25 C 0.46839(12) 0.04387(12) 0.14045(10)
C26 C 0.53476(13) 0.13789(12) 0.19659(10)
H17 H 0.4978 0.1885 0.2177
C27 C 0.65565(13) 0.15729(12) 0.22159(11)
C28 C 0.70923(14) 0.08234(13) 0.19212(11)
H18 H 0.7923 0.0948 0.2108
C29 C 0.64102(14) -0.01105(13) 0.13520(11)
H19 H 0.6784 -0.0619 0.1151
C30 C 0.51863(13) -0.03207(12) 0.10680(10)
C31 C 0.44629(14) -0.13229(12) 0.04207(11)
H20 H 0.4164 -0.1761 0.0742
H21 H 0.4952 -0.1667 0.0150
H22 H 0.3802 -0.1193 -0.0051
C32 C 0.72595(14) 0.26040(14) 0.27955(13)
F1 F 0.68659(10) 0.29535(9) 0.34438(8)
F2 F 0.72047(10) 0.33194(8) 0.23290(8)
F3 F 0.83906(9) 0.26242(8) 0.31980(9)
O4 O 0.72543(9) 0.46502(8) 0.80354(7)
O5 O 0.41827(9) 0.23574(8) 0.78856(7)
O6 O 0.57580(10) 0.17986(9) 0.57270(7)
N2 N 0.47202(11) 0.19751(10) 0.66591(8)
C33 C 0.61918(13) 0.43042(12) 0.81886(10)
C34 C 0.61358(13) 0.31175(12) 0.79700(10)
H23 H 0.6617 0.2911 0.8512
C35 C 0.49051(13) 0.24566(12) 0.75475(10)
C36 C 0.57077(13) 0.21798(12) 0.64413(11)
C37 C 0.66556(13) 0.29566(12) 0.72387(10)
H24 H 0.7397 0.2698 0.7443
C38 C 0.69054(13) 0.40739(12) 0.71137(10)
C39 C 0.57068(13) 0.43205(12) 0.66886(10)
C40 C 0.52672(13) 0.44951(12) 0.73734(10)
C41 C 0.41609(13) 0.47005(12) 0.72111(11)
H25 H 0.3865 0.4823 0.7679
C42 C 0.34910(14) 0.47229(12) 0.63380(11)
H26 H 0.2735 0.4879 0.6212
C43 C 0.39120(14) 0.45203(12) 0.56534(11)
H27 H 0.3432 0.4523 0.5062
C44 C 0.50284(14) 0.43121(12) 0.58174(11)
H28 H 0.5314 0.4169 0.5346
C45 C 0.63102(12) 0.48325(12) 0.91176(10)
C46 C 0.63396(14) 0.43036(13) 0.97670(11)
H29 H 0.6224 0.3577 0.9614
C47 C 0.65358(15) 0.48206(14) 1.06376(11)
H30 H 0.6563 0.4447 1.1077
C48 C 0.66924(14) 0.58711(13) 1.08704(11)
H31 H 0.6843 0.6225 1.1471
C49 C 0.66287(15) 0.64079(13) 1.02225(11)
H32 H 0.6713 0.7131 1.0374
C50 C 0.64424(14) 0.58942(13) 0.93555(11)
H33 H 0.6404 0.6270 0.8916
C51 C 0.78448(13) 0.43308(12) 0.67516(11)
C52 C 0.88349(16) 0.50912(16) 0.72727(13)
H34 H 0.8913 0.5455 0.7854
C53 C 0.97101(19) 0.53211(19) 0.69473(15)
H35 H 1.0387 0.5843 0.7309
C54 C 0.96117(17) 0.48038(17) 0.61073(14)
H36 H 1.0217 0.4967 0.5890
C55 C 0.86269(15) 0.40460(15) 0.55834(12)
H37 H 0.8554 0.3684 0.5004
C56 C 0.77434(14) 0.38128(13) 0.59021(11)
H38 H 0.7064 0.3295 0.5537
C57 C 0.35937(13) 0.13797(12) 0.60204(10)
C58 C 0.27420(13) 0.19078(13) 0.56631(11)
H39 H 0.2902 0.2635 0.5843
C59 C 0.16486(14) 0.13641(13) 0.50385(11)
C60 C 0.14194(14) 0.03027(13) 0.47868(11)
H40 H 0.0671 -0.0072 0.4366
C61 C 0.22860(14) -0.02076(13) 0.51520(11)
H41 H 0.2121 -0.0935 0.4975
C62 C 0.33944(14) 0.03151(13) 0.57722(10)
C63 C 0.43345(15) -0.02502(13) 0.61444(11)
H42 H 0.4732 0.0043 0.6793
H43 H 0.4906 -0.0187 0.5854
H44 H 0.3979 -0.0976 0.6029
C64 C 0.07445(15) 0.19305(14) 0.46128(12)
F4 F 0.0940(3) 0.2918(2) 0.5133(2)
F5 F 0.0710(4) 0.2035(4) 0.3833(2)
F6 F -0.0327(2) 0.1524(3) 0.4524(4)
C65? C 0.07445(15) 0.19305(14) 0.46128(12)
F7? F 0.1178(4) 0.2888(4) 0.4669(5)
F8? F 0.0173(5) 0.1463(5) 0.3708(3)
F9? F -0.0090(6) 0.1910(6) 0.4945(4)
C66? C 0.07445(15) 0.19305(14) 0.46128(12)
F10? F 0.1134(5) 0.2577(6) 0.4224(6)
F11? F -0.0212(6) 0.1229(4) 0.3894(5)
F12? F 0.0280(8) 0.2348(8) 0.5143(4)
loop_
_geom_bond_atom_site_label_1
_geom_bond_atom_site_label_2
_geom_bond_site_symmetry_1
_geom_bond_site_symmetry_2
O1 C1 1_555 1_555
O2 C3 1_555 1_555
O3 C4 1_555 1_555
N1 C3 1_555 1_555
C1 C2 1_555 1_555
C2 H1 1_555 1_555
C3 C2 1_555 1_555
C4 N1 1_555 1_555
C5 C2 1_555 1_555
H2 C5 1_555 1_555
C6 O1 1_555 1_555
C7 C6 1_555 1_555
C8 C1 1_555 1_555
C9 C8 1_555 1_555
H3 C9 1_555 1_555
C10 C9 1_555 1_555
H4 C10 1_555 1_555
C11 C10 1_555 1_555
H5 C11 1_555 1_555
C12 C7 1_555 1_555
H6 C12 1_555 1_555
C13 C1 1_555 1_555
C14 C13 1_555 1_555
H7 C14 1_555 1_555
C15 C14 1_555 1_555
H8 C15 1_555 1_555
C16 C15 1_555 1_555
H9 C16 1_555 1_555
C17 C16 1_555 1_555
H10 C17 1_555 1_555
C18 C13 1_555 1_555
H11 C18 1_555 1_555
C19 C6 1_555 1_555
C20 C19 1_555 1_555
H12 C20 1_555 1_555
C21 C20 1_555 1_555
H13 C21 1_555 1_555
C22 C21 1_555 1_555
H14 C22 1_555 1_555
C23 C22 1_555 1_555
H15 C23 1_555 1_555
C24 C19 1_555 1_555
H16 C24 1_555 1_555
C25 N1 1_555 1_555
C26 C25 1_555 1_555
H17 C26 1_555 1_555
C27 C26 1_555 1_555
C28 C27 1_555 1_555
H18 C28 1_555 1_555
C29 C28 1_555 1_555
H19 C29 1_555 1_555
C30 C25 1_555 1_555
C31 C30 1_555 1_555
H20 C31 1_555 1_555
H21 C31 1_555 1_555
H22 C31 1_555 1_555
C32 C27 1_555 1_555
F1 C32 1_555 1_555
F2 C32 1_555 1_555
F3 C32 1_555 1_555
O4 C33 1_555 1_555
O5 C35 1_555 1_555
O6 C36 1_555 1_555
N2 C35 1_555 1_555
C33 C34 1_555 1_555
C34 H23 1_555 1_555
C35 C34 1_555 1_555
C36 N2 1_555 1_555
C37 C34 1_555 1_555
H24 C37 1_555 1_555
C38 O4 1_555 1_555
C39 C38 1_555 1_555
C40 C33 1_555 1_555
C41 C40 1_555 1_555
H25 C41 1_555 1_555
C42 C41 1_555 1_555
H26 C42 1_555 1_555
C43 C42 1_555 1_555
H27 C43 1_555 1_555
C44 C39 1_555 1_555
H28 C44 1_555 1_555
C45 C33 1_555 1_555
C46 C45 1_555 1_555
H29 C46 1_555 1_555
C47 C46 1_555 1_555
H30 C47 1_555 1_555
C48 C47 1_555 1_555
H31 C48 1_555 1_555
C49 C48 1_555 1_555
H32 C49 1_555 1_555
C50 C45 1_555 1_555
H33 C50 1_555 1_555
C51 C38 1_555 1_555
C52 C51 1_555 1_555
H34 C52 1_555 1_555
C53 C52 1_555 1_555
H35 C53 1_555 1_555
C54 C53 1_555 1_555
H36 C54 1_555 1_555
C55 C54 1_555 1_555
H37 C55 1_555 1_555
C56 C51 1_555 1_555
H38 C56 1_555 1_555
C57 N2 1_555 1_555
C58 C57 1_555 1_555
H39 C58 1_555 1_555
C59 C58 1_555 1_555
C60 C59 1_555 1_555
H40 C60 1_555 1_555
C61 C60 1_555 1_555
H41 C61 1_555 1_555
C62 C57 1_555 1_555
C63 C62 1_555 1_555
H42 C63 1_555 1_555
H43 C63 1_555 1_555
H44 C63 1_555 1_555
C64 C59 1_555 1_555
F4 C64 1_555 1_555
F5 C64 1_555 1_555
F6 C64 1_555 1_555
C4 C5 1_555 1_555
C5 C6 1_555 1_555
C7 C8 1_555 1_555
C11 C12 1_555 1_555
C17 C18 1_555 1_555
C23 C24 1_555 1_555
C29 C30 1_555 1_555
C36 C37 1_555 1_555
C37 C38 1_555 1_555
C39 C40 1_555 1_555
C43 C44 1_555 1_555
C49 C50 1_555 1_555
C55 C56 1_555 1_555
C61 C62 1_555 1_555

#END
