
#######################################################################
#
#                 Cambridge Crystallographic Data Centre
#                                CCDC 
#
#######################################################################
#
# If this CIF has been generated from an entry in the Cambridge 
# Structural Database, then it will include bibliographic, chemical, 
# crystal, experimental, refinement or atomic coordinate data resulting 
# from the CCDC's data processing and validation procedures.
#
#######################################################################

data_TUVJUR
_chemical_formula_moiety         'C31 H23 N1 O5,C2 H3 N1'
_chemical_name_systematic        
'4-(1,16-dimethyl-18,20,22-trioxo-19-azahexacyclo[14.5.1.0^2,15^.0^3,8^.0^9,14^.0^17,21^]docosa-2(15),3,5,7,9,11,13-heptaen-19-yl)-3-methylbenzoic acid acetonitrile solvate'
_symmetry_cell_setting           triclinic
_symmetry_space_group_name_H-M   'P -1'
_symmetry_Int_Tables_number      2
_space_group_name_Hall           '-P 1'
loop_
_symmetry_equiv_pos_site_id
_symmetry_equiv_pos_as_xyz
1 x,y,z
2 -x,-y,-z
_cell_length_a                   9.6779(8)
_cell_length_b                   9.7233(8)
_cell_length_c                   15.3703(12)
_cell_angle_alpha                87.907(2)
_cell_angle_beta                 86.025(2)
_cell_angle_gamma                63.842(2)
_cell_volume                     1295.08
_exptl_crystal_colour            colorless
_exptl_crystal_description       plate
_cell_formula_units_Z            2
loop_
_atom_site_label
_atom_site_type_symbol
_atom_site_fract_x
_atom_site_fract_y
_atom_site_fract_z
O1 O 0.08323(14) 0.09142(14) 0.32560(9)
O2 O 0.16282(14) 0.53416(14) 0.12309(8)
O3 O 0.57570(14) 0.23599(13) 0.28077(8)
O4 O 0.57903(18) 0.95157(16) 0.11658(9)
O5 O 0.73136(17) 0.77520(16) 0.02086(9)
H1 H 0.761(3) 0.852(3) 0.0075(15)
N1 N 0.38597(16) 0.40395(15) 0.19519(9)
C1 C 0.1310(2) 0.1866(2) 0.31521(12)
C2 C 0.06814(19) 0.33630(19) 0.26254(12)
C3 C 0.21442(19) 0.29233(19) 0.19831(11)
H2 H 0.2095 0.2326 0.1480
C4 C 0.2436(2) 0.4260(2) 0.16636(11)
C5 C 0.4547(2) 0.27352(19) 0.24762(11)
C6 C 0.35221(19) 0.19328(19) 0.25312(11)
H3 H 0.4086 0.0880 0.2282
C7 C 0.27855(19) 0.18653(19) 0.34627(11)
C8 C 0.20331(19) 0.35044(19) 0.38148(11)
C9 C 0.08044(19) 0.43752(19) 0.33263(11)
C10 C -0.00894(19) 0.59951(19) 0.34680(12)
C11 C -0.1320(2) 0.6938(2) 0.29539(12)
H4 H -0.1600 0.6495 0.2498
C12 C -0.2113(2) 0.8479(2) 0.31027(13)
H5 H -0.2947 0.9094 0.2757
C13 C -0.1699(2) 0.9144(2) 0.37594(13)
H6 H -0.2242 1.0216 0.3855
C14 C -0.0519(2) 0.8267(2) 0.42685(13)
H7 H -0.0259 0.8741 0.4717
C15 C 0.0325(2) 0.6670(2) 0.41441(12)
C16 C 0.1613(2) 0.57424(19) 0.46726(12)
C17 C 0.2060(2) 0.6371(2) 0.53512(12)
H8 H 0.1483 0.7429 0.5480
C18 C 0.3297(2) 0.5504(2) 0.58291(12)
H9 H 0.3571 0.5963 0.6280
C19 C 0.4155(2) 0.3950(2) 0.56554(12)
H10 H 0.5013 0.3347 0.5988
C20 C 0.3760(2) 0.3292(2) 0.50047(12)
H11 H 0.4356 0.2231 0.4889
C21 C 0.2489(2) 0.41495(19) 0.45010(11)
C22 C -0.0784(2) 0.3731(2) 0.21722(13)
H12 H -0.0736 0.2790 0.1932
H13 H -0.0891 0.4467 0.1698
H14 H -0.1673 0.4174 0.2593
C23 C 0.3751(2) 0.04779(19) 0.40017(12)
H15 H 0.3290 0.0594 0.4599
H16 H 0.4799 0.0388 0.4011
H17 H 0.3789 -0.0446 0.3744
C24 C 0.4539(2) 0.50600(19) 0.17053(11)
C25 C 0.5759(2) 0.45913(19) 0.10767(11)
C26 C 0.6311(2) 0.5650(2) 0.08094(12)
H18 H 0.7134 0.5371 0.0375
C27 C 0.5680(2) 0.7109(2) 0.11661(12)
C28 C 0.4493(2) 0.7519(2) 0.18062(12)
H19 H 0.4074 0.8509 0.2058
C29 C 0.3915(2) 0.6498(2) 0.20814(12)
H20 H 0.3102 0.6776 0.2522
C30 C 0.6510(3) 0.3015(2) 0.07165(16)
H21 H 0.7230 0.2321 0.1130
H22 H 0.7072 0.3014 0.0161
H23 H 0.5721 0.2671 0.0621
C31 C 0.6242(2) 0.8261(2) 0.08578(12)
N2 N 0.8539(2) 0.9629(2) -0.05532(12)
C33 C 0.9211(2) 1.0153(2) -0.09683(14)
C34 C 1.0062(2) 1.0816(2) -0.15047(14)
H28 H 1.0052 1.0587 -0.2119
H29 H 1.1130 1.0379 -0.1333
H30 H 0.9580 1.1929 -0.1424
H24? H 0.6198 0.3589 0.0839
C32? C 0.2789(8) 0.6909(8) 0.2833(4)
H25? H 0.1827 0.6926 0.2658
H26? H 0.2585 0.7924 0.3043
H27? H 0.3204 0.6151 0.3301
loop_
_geom_bond_atom_site_label_1
_geom_bond_atom_site_label_2
_geom_bond_site_symmetry_1
_geom_bond_site_symmetry_2
O1 C1 1_555 1_555
O2 C4 1_555 1_555
O3 C5 1_555 1_555
O4 C31 1_555 1_555
O5 H1 1_555 1_555
N1 C4 1_555 1_555
C1 C2 1_555 1_555
C2 C3 1_555 1_555
C3 H2 1_555 1_555
C4 C3 1_555 1_555
C5 N1 1_555 1_555
C6 C3 1_555 1_555
H3 C6 1_555 1_555
C7 C1 1_555 1_555
C8 C7 1_555 1_555
C9 C2 1_555 1_555
C10 C9 1_555 1_555
C11 C10 1_555 1_555
H4 C11 1_555 1_555
C12 C11 1_555 1_555
H5 C12 1_555 1_555
C13 C12 1_555 1_555
H6 C13 1_555 1_555
C14 C13 1_555 1_555
H7 C14 1_555 1_555
C15 C10 1_555 1_555
C16 C15 1_555 1_555
C17 C16 1_555 1_555
H8 C17 1_555 1_555
C18 C17 1_555 1_555
H9 C18 1_555 1_555
C19 C18 1_555 1_555
H10 C19 1_555 1_555
C20 C19 1_555 1_555
H11 C20 1_555 1_555
C21 C8 1_555 1_555
C22 C2 1_555 1_555
H12 C22 1_555 1_555
H13 C22 1_555 1_555
H14 C22 1_555 1_555
C23 C7 1_555 1_555
H15 C23 1_555 1_555
H16 C23 1_555 1_555
H17 C23 1_555 1_555
C24 N1 1_555 1_555
C25 C24 1_555 1_555
C26 C25 1_555 1_555
H18 C26 1_555 1_555
C27 C26 1_555 1_555
C28 C27 1_555 1_555
H19 C28 1_555 1_555
C29 C24 1_555 1_555
H20 C29 1_555 1_555
C30 C25 1_555 1_555
H21 C30 1_555 1_555
H22 C30 1_555 1_555
H23 C30 1_555 1_555
C31 O5 1_555 1_555
N2 C33 1_555 1_555
C33 C34 1_555 1_555
C34 H28 1_555 1_555
H29 C34 1_555 1_555
H30 C34 1_555 1_555
C5 C6 1_555 1_555
C6 C7 1_555 1_555
C8 C9 1_555 1_555
C14 C15 1_555 1_555
C16 C21 1_555 1_555
C20 C21 1_555 1_555
C27 C31 1_555 1_555
C28 C29 1_555 1_555

#END
