
#######################################################################
#
#                 Cambridge Crystallographic Data Centre
#                                CCDC 
#
#######################################################################
#
# If this CIF has been generated from an entry in the Cambridge 
# Structural Database, then it will include bibliographic, chemical, 
# crystal, experimental, refinement or atomic coordinate data resulting 
# from the CCDC's data processing and validation procedures.
#
#######################################################################

data_TUVJOL
_chemical_formula_moiety         'C28 H21 N3 O3,C1 H2 Cl2'
_chemical_name_systematic        
'1,16-dimethyl-19-(2-methylphenyl)-7,10,19-triazahexacyclo[14.5.1.0^2,15^.0^3,8^.0^9,14^.0^17,21^]docosa-2(15),3,5,7,9,11,13-heptaene-18,20,22-trione dichloromethane solvate'
_symmetry_cell_setting           triclinic
_symmetry_space_group_name_H-M   'P -1'
_symmetry_Int_Tables_number      2
_space_group_name_Hall           '-P 1'
loop_
_symmetry_equiv_pos_site_id
_symmetry_equiv_pos_as_xyz
1 x,y,z
2 -x,-y,-z
_cell_length_a                   9.2013(13)
_cell_length_b                   11.9564(17)
_cell_length_c                   12.7583(18)
_cell_angle_alpha                67.182(3)
_cell_angle_beta                 80.328(3)
_cell_angle_gamma                74.476(3)
_cell_volume                     1243.29
_exptl_crystal_colour            colorless
_exptl_crystal_description       block
_cell_formula_units_Z            2
_exptl_crystal_recrystallization_method dichloromethane
loop_
_atom_site_label
_atom_site_type_symbol
_atom_site_fract_x
_atom_site_fract_y
_atom_site_fract_z
O1 O -0.05740(13) 0.10107(10) 0.55082(10)
O2 O 0.23883(14) 0.27488(12) 0.12400(10)
O3 O 0.52737(12) 0.16834(11) 0.42080(10)
N1 N 0.41218(15) 0.22647(13) 0.25464(11)
N2 N 0.02259(16) 0.68616(13) 0.25518(12)
N3 N 0.20192(15) 0.61768(13) 0.42796(12)
C1 C 0.03534(17) 0.15321(14) 0.48742(13)
C2 C 0.03742(17) 0.22650(14) 0.35712(13)
C3 C 0.19133(17) 0.14827(14) 0.32378(13)
H1 H 0.1760 0.0733 0.3139
C4 C 0.27692(18) 0.22343(15) 0.21997(14)
C5 C 0.42531(17) 0.16832(14) 0.37213(13)
C6 C 0.29067(17) 0.11002(14) 0.42390(13)
H2 H 0.3232 0.0174 0.4594
C7 C 0.18844(17) 0.16616(14) 0.51110(13)
C8 C 0.15899(17) 0.30752(14) 0.45208(13)
C9 C 0.07177(17) 0.34263(14) 0.36181(13)
C10 C 0.02582(17) 0.47037(15) 0.28966(13)
C11 C -0.05744(19) 0.51163(16) 0.19302(14)
H3 H -0.0834 0.4530 0.1704
C12 C -0.1008(2) 0.63670(16) 0.13181(15)
H4 H -0.1573 0.6659 0.0668
C13 C -0.0595(2) 0.71991(16) 0.16766(14)
H5 H -0.0927 0.8064 0.1264
C14 C 0.06649(17) 0.56269(14) 0.31579(13)
C15 C 0.16094(17) 0.52540(14) 0.41027(13)
C16 C 0.29027(19) 0.58522(16) 0.51152(14)
H6 H 0.3189 0.6494 0.5242
C17 C 0.34405(18) 0.46219(16) 0.58232(14)
H7 H 0.4069 0.4439 0.6414
C18 C 0.30442(17) 0.36826(15) 0.56488(14)
H8 H 0.3408 0.2839 0.6113
C19 C 0.20918(16) 0.39780(14) 0.47741(13)
C20 C -0.09683(19) 0.23066(16) 0.30026(15)
H9 H -0.1202 0.1481 0.3302
H10 H -0.0726 0.2555 0.2177
H11 H -0.1846 0.2911 0.3161
C21 C 0.23037(19) 0.09980(15) 0.63361(13)
H12 H 0.1650 0.1436 0.6812
H13 H 0.3361 0.0988 0.6378
H14 H 0.2171 0.0142 0.6611
C22 C 0.5118(4) 0.3078(4) 0.1829(3)
C23 C 0.6119(4) 0.2633(4) 0.1051(3)
C24 C 0.7106(4) 0.3374(4) 0.0326(3)
H15 H 0.7813 0.3100 -0.0207
C25 C 0.7024(5) 0.4503(3) 0.0407(3)
H16 H 0.7675 0.5012 -0.0094
C26 C 0.6026(4) 0.4939(3) 0.1194(3)
H17 H 0.6005 0.5721 0.1233
C27 C 0.5071(4) 0.4196(3) 0.1913(3)
H18 H 0.4386 0.4460 0.2461
C28 C 0.6156(4) 0.1413(3) 0.0945(3)
H19 H 0.6041 0.0786 0.1707
H20 H 0.7124 0.1141 0.0562
H21 H 0.5327 0.1521 0.0498
C36 C 0.2410(3) 0.8627(3) 0.2123(3)
H29 H 0.2598 0.7947 0.1824
H30 H 0.1888 0.8350 0.2893
Cl1 Cl 0.12454(14) 0.99485(7) 0.12322(7)
Cl2 Cl 0.41598(8) 0.89198(8) 0.22220(8)
C29? C 0.5316(4) 0.2737(4) 0.1717(3)
C30? C 0.5451(4) 0.3921(3) 0.1572(3)
C31? C 0.6526(5) 0.4465(4) 0.0765(4)
H22? H 0.6623 0.5279 0.0640
C32? C 0.7448(5) 0.3773(4) 0.0152(4)
H23? H 0.8185 0.4132 -0.0402
C33? C 0.7343(5) 0.2561(4) 0.0311(3)
H24? H 0.8012 0.2102 -0.0108
C34? C 0.6242(4) 0.2063(4) 0.1091(3)
H25? H 0.6118 0.1261 0.1200
C35? C 0.4454(4) 0.4644(4) 0.2251(3)
H26? H 0.3393 0.4699 0.2174
H27? H 0.4645 0.5483 0.1970
H28? H 0.4670 0.4223 0.3055
C37? C 0.272(2) 0.8549(18) 0.2100(17)
H31? H 0.2427 0.8546 0.2884
H32? H 0.2392 0.7850 0.2044
Cl3? Cl 0.1742(10) 1.0000(8) 0.1097(8)
Cl4? Cl 0.4558(5) 0.8332(5) 0.1870(4)
loop_
_geom_bond_atom_site_label_1
_geom_bond_atom_site_label_2
_geom_bond_site_symmetry_1
_geom_bond_site_symmetry_2
O1 C1 1_555 1_555
O2 C4 1_555 1_555
O3 C5 1_555 1_555
N1 C4 1_555 1_555
N2 C13 1_555 1_555
N3 C15 1_555 1_555
C1 C2 1_555 1_555
C2 C3 1_555 1_555
C3 H1 1_555 1_555
C4 C3 1_555 1_555
C5 N1 1_555 1_555
C6 C3 1_555 1_555
H2 C6 1_555 1_555
C7 C1 1_555 1_555
C8 C7 1_555 1_555
C9 C2 1_555 1_555
C10 C9 1_555 1_555
C11 C10 1_555 1_555
H3 C11 1_555 1_555
C12 C11 1_555 1_555
H4 C12 1_555 1_555
C13 C12 1_555 1_555
H5 C13 1_555 1_555
C14 N2 1_555 1_555
C15 C14 1_555 1_555
C16 N3 1_555 1_555
H6 C16 1_555 1_555
C17 C16 1_555 1_555
H7 C17 1_555 1_555
C18 C17 1_555 1_555
H8 C18 1_555 1_555
C19 C8 1_555 1_555
C20 C2 1_555 1_555
H9 C20 1_555 1_555
H10 C20 1_555 1_555
H11 C20 1_555 1_555
C21 C7 1_555 1_555
H12 C21 1_555 1_555
H13 C21 1_555 1_555
H14 C21 1_555 1_555
C22 N1 1_555 1_555
C23 C22 1_555 1_555
C24 C23 1_555 1_555
H15 C24 1_555 1_555
C25 C24 1_555 1_555
H16 C25 1_555 1_555
C26 C25 1_555 1_555
H17 C26 1_555 1_555
C27 C22 1_555 1_555
H18 C27 1_555 1_555
C28 C23 1_555 1_555
H19 C28 1_555 1_555
H20 C28 1_555 1_555
H21 C28 1_555 1_555
C36 H29 1_555 1_555
H30 C36 1_555 1_555
Cl1 C36 1_555 1_555
Cl2 C36 1_555 1_555
C5 C6 1_555 1_555
C6 C7 1_555 1_555
C8 C9 1_555 1_555
C10 C14 1_555 1_555
C15 C19 1_555 1_555
C18 C19 1_555 1_555
C26 C27 1_555 1_555

#END
