
#######################################################################
#
#                 Cambridge Crystallographic Data Centre
#                                CCDC 
#
#######################################################################
#
# If this CIF has been generated from an entry in the Cambridge 
# Structural Database, then it will include bibliographic, chemical, 
# crystal, experimental, refinement or atomic coordinate data resulting 
# from the CCDC's data processing and validation procedures.
#
#######################################################################

data_TUVJIF
_chemical_formula_moiety         'C31 H22 Br1 N1 O3,0.5(C1 D1 Cl3)'
_chemical_name_systematic        
'11-(4-bromo-2-methylphenyl)-1,8-diphenyl-14-oxa-11-azatetracyclo[6.5.1.0^2,7^.0^9,13^]tetradeca-2,4,6-triene-10,12-dione deuterochloroform solvate'
_symmetry_cell_setting           triclinic
_symmetry_space_group_name_H-M   'P -1'
_symmetry_Int_Tables_number      2
_space_group_name_Hall           '-P 1'
loop_
_symmetry_equiv_pos_site_id
_symmetry_equiv_pos_as_xyz
1 x,y,z
2 -x,-y,-z
_cell_length_a                   11.0251(16)
_cell_length_b                   11.9790(18)
_cell_length_c                   12.0044(18)
_cell_angle_alpha                81.529(3)
_cell_angle_beta                 63.707(3)
_cell_angle_gamma                71.683(3)
_cell_volume                     1349.31
_exptl_crystal_colour            colorless
_exptl_crystal_description       block
_cell_formula_units_Z            2
loop_
_atom_site_label
_atom_site_type_symbol
_atom_site_fract_x
_atom_site_fract_y
_atom_site_fract_z
Br1 Br 1.03639(4) -0.27764(3) 0.22366(4)
O1 O 0.3286(2) 0.49356(18) 0.21182(18)
O2 O 0.7809(2) 0.29284(19) 0.1188(2)
O3 O 0.4677(2) 0.10148(19) 0.1522(2)
N1 N 0.6448(3) 0.1747(2) 0.1357(2)
C1 C 0.4665(3) 0.4713(3) 0.2095(3)
C2 C 0.5557(3) 0.3764(3) 0.1030(3)
H1 H 0.5889 0.4146 0.0191
C3 C 0.6755(3) 0.2820(3) 0.1193(3)
C4 C 0.5141(3) 0.1833(3) 0.1376(3)
C5 C 0.4477(3) 0.3116(3) 0.1195(3)
H2 H 0.4261 0.3234 0.0453
C6 C 0.3157(3) 0.3736(3) 0.2367(3)
C7 C 0.3540(3) 0.3409(3) 0.3468(3)
C8 C 0.4472(3) 0.4032(3) 0.3311(3)
C9 C 0.5065(3) 0.3930(3) 0.4128(3)
H3 H 0.5707 0.4358 0.4009
C10 C 0.4682(3) 0.3167(3) 0.5141(3)
H4 H 0.5061 0.3083 0.5731
C11 C 0.3761(4) 0.2532(3) 0.5303(3)
H5 H 0.3523 0.2015 0.5998
C12 C 0.3175(3) 0.2640(3) 0.4455(3)
H6 H 0.2550 0.2201 0.4555
C13 C 0.5091(3) 0.5822(3) 0.1920(3)
C14 C 0.6496(3) 0.5769(3) 0.1560(3)
H7 H 0.7194 0.5031 0.1391
C15 C 0.6878(4) 0.6795(3) 0.1446(3)
H8 H 0.7833 0.6753 0.1218
C16 C 0.5875(4) 0.7877(3) 0.1665(3)
H9 H 0.6142 0.8578 0.1574
C17 C 0.4483(4) 0.7931(3) 0.2016(3)
H10 H 0.3794 0.8674 0.2161
C18 C 0.4081(3) 0.6911(3) 0.2160(3)
H11 H 0.3117 0.6956 0.2422
C19 C 0.1721(3) 0.3712(3) 0.2569(3)
C20 C 0.0563(4) 0.4415(3) 0.3461(3)
H12 H 0.0687 0.4899 0.3939
C21 C -0.0788(4) 0.4436(4) 0.3683(4)
H13 H -0.1581 0.4933 0.4306
C22 C -0.0976(4) 0.3741(3) 0.3005(4)
H14 H -0.1899 0.3737 0.3166
C23 C 0.0165(4) 0.3055(4) 0.2098(4)
H15 H 0.0031 0.2588 0.1610
C24 C 0.1520(4) 0.3025(4) 0.1872(4)
H16 H 0.2308 0.2533 0.1241
C25 C 0.7369(3) 0.0667(3) 0.1554(3)
C26 C 0.7460(4) 0.0483(3) 0.2683(3)
H17 H 0.6906 0.1060 0.3314
C27 C 0.8351(4) -0.0536(3) 0.2893(3)
H18 H 0.8420 -0.0670 0.3665
C28 C 0.9139(3) -0.1354(3) 0.1966(3)
C29 C 0.9065(3) -0.1178(3) 0.0832(3)
H19 H 0.9631 -0.1756 0.0204
C30 C 0.8165(3) -0.0157(3) 0.0607(3)
C31 C 0.8046(4) 0.0031(3) -0.0607(3)
H20 H 0.8896 -0.0459 -0.1244
H21 H 0.7944 0.0861 -0.0854
H22 H 0.7219 -0.0184 -0.0516
Cl1 Cl 0.0581(10) -0.1257(7) 0.5101(9)
Cl2 Cl -0.1302(7) 0.1026(6) 0.5278(6)
Cl3 Cl 0.1636(6) 0.0670(4) 0.3709(4)
C32 C 0.0233(14) 0.0056(12) 0.4244(16)
D1 D 0.0085 -0.0116 0.3531
Cl1A Cl -0.0581(10) 0.1257(7) 0.4899(9)
Cl2A Cl 0.1302(7) -0.1026(6) 0.4722(6)
Cl3A Cl -0.1636(6) -0.0670(4) 0.6291(4)
C32A C -0.0233(14) -0.0056(12) 0.5756(16)
D1A D -0.0085 0.0116 0.6469
Cl4? Cl -0.0914(15) -0.0743(10) 0.5973(11)
Cl5? Cl 0.1062(16) 0.0268(14) 0.4113(15)
Cl6? Cl -0.1835(10) 0.1435(8) 0.4903(8)
Cl7? Cl -0.0769(13) 0.1528(11) 0.5440(14)
Cl8? Cl -0.0048(18) -0.0958(12) 0.5349(15)
Cl9? Cl 0.1923(15) 0.0256(12) 0.3859(13)
C33? C -0.0591(18) 0.0619(16) 0.546(2)
H23? H -0.0572 0.1042 0.6107
C34? C 0.013(2) 0.0338(15) 0.440(2)
H24? H -0.0185 0.0410 0.3720
loop_
_geom_bond_atom_site_label_1
_geom_bond_atom_site_label_2
_geom_bond_site_symmetry_1
_geom_bond_site_symmetry_2
Br1 C28 1_555 1_555
O1 C1 1_555 1_555
O2 C3 1_555 1_555
O3 C4 1_555 1_555
N1 C3 1_555 1_555
C1 C2 1_555 1_555
C2 H1 1_555 1_555
C3 C2 1_555 1_555
C4 N1 1_555 1_555
C5 C2 1_555 1_555
H2 C5 1_555 1_555
C6 O1 1_555 1_555
C7 C6 1_555 1_555
C8 C1 1_555 1_555
C9 C8 1_555 1_555
H3 C9 1_555 1_555
C10 C9 1_555 1_555
H4 C10 1_555 1_555
C11 C10 1_555 1_555
H5 C11 1_555 1_555
C12 C7 1_555 1_555
H6 C12 1_555 1_555
C13 C1 1_555 1_555
C14 C13 1_555 1_555
H7 C14 1_555 1_555
C15 C14 1_555 1_555
H8 C15 1_555 1_555
C16 C15 1_555 1_555
H9 C16 1_555 1_555
C17 C16 1_555 1_555
H10 C17 1_555 1_555
C18 C13 1_555 1_555
H11 C18 1_555 1_555
C19 C6 1_555 1_555
C20 C19 1_555 1_555
H12 C20 1_555 1_555
C21 C20 1_555 1_555
H13 C21 1_555 1_555
C22 C21 1_555 1_555
H14 C22 1_555 1_555
C23 C22 1_555 1_555
H15 C23 1_555 1_555
C24 C19 1_555 1_555
H16 C24 1_555 1_555
C25 N1 1_555 1_555
C26 C25 1_555 1_555
H17 C26 1_555 1_555
C27 C26 1_555 1_555
H18 C27 1_555 1_555
C28 C27 1_555 1_555
C29 C28 1_555 1_555
H19 C29 1_555 1_555
C30 C25 1_555 1_555
C31 C30 1_555 1_555
H20 C31 1_555 1_555
H21 C31 1_555 1_555
H22 C31 1_555 1_555
Cl1 C32 1_555 1_555
Cl2 C32 1_555 1_555
Cl3 C32 1_555 1_555
C32 D1 1_555 1_555
Cl1A C32A 1_555 1_555
Cl2A C32A 1_555 1_555
Cl3A C32A 1_555 1_555
C32A D1A 1_555 1_555
C4 C5 1_555 1_555
C5 C6 1_555 1_555
C7 C8 1_555 1_555
C11 C12 1_555 1_555
C17 C18 1_555 1_555
C23 C24 1_555 1_555
C29 C30 1_555 1_555

#END
