
#######################################################################
#
#                 Cambridge Crystallographic Data Centre
#                                CCDC 
#
#######################################################################
#
# If this CIF has been generated from an entry in the Cambridge 
# Structural Database, then it will include bibliographic, chemical, 
# crystal, experimental, refinement or atomic coordinate data resulting 
# from the CCDC's data processing and validation procedures.
#
#######################################################################

data_TUVKOM
_chemical_formula_moiety         'C40 H26 F1 N1 O3'
_chemical_name_systematic        
19-(5-fluoro-2-methylphenyl)-1,16-diphenyl-19-azahexacyclo[14.5.1.0^2,15^.0^3,8^.0^9,14^.0^17,21^]docosa-2(15),3,5,7,9,11,13-heptaene-18,20,22-trione
_symmetry_cell_setting           orthorhombic
_symmetry_space_group_name_H-M   'P 21 21 21'
_symmetry_Int_Tables_number      19
_space_group_name_Hall           'P 2ac 2ab'
loop_
_symmetry_equiv_pos_site_id
_symmetry_equiv_pos_as_xyz
1 x,y,z
2 1/2-x,-y,1/2+z
3 -x,1/2+y,1/2-z
4 1/2+x,1/2-y,-z
_cell_length_a                   11.924(2)
_cell_length_b                   14.177(3)
_cell_length_c                   16.742(3)
_cell_angle_alpha                90
_cell_angle_beta                 90
_cell_angle_gamma                90
_cell_volume                     2830.18
_exptl_crystal_colour            colorless
_exptl_crystal_description       needle
_cell_formula_units_Z            4
loop_
_atom_site_label
_atom_site_type_symbol
_atom_site_fract_x
_atom_site_fract_y
_atom_site_fract_z
F1 F 0.80714(12) 0.32386(11) 0.57268(10)
O1 O 0.32663(13) 0.88148(11) 0.44677(10)
O2 O 0.51242(14) 0.60120(12) 0.64419(10)
O3 O 0.49028(13) 0.52289(12) 0.38060(10)
N1 N 0.51453(16) 0.54367(13) 0.51564(11)
C1 C 0.34817(18) 0.80153(16) 0.46338(14)
C2 C 0.36233(19) 0.75270(16) 0.54631(13)
C3 C 0.4796(2) 0.70635(16) 0.53014(13)
H1 H 0.5408 0.7528 0.5410
C4 C 0.50318(19) 0.61436(17) 0.57347(15)
C5 C 0.49401(18) 0.57407(16) 0.43766(14)
C6 C 0.47765(19) 0.68025(16) 0.44029(14)
H2 H 0.5400 0.7128 0.4114
C7 C 0.36193(19) 0.71430(16) 0.40806(14)
C8 C 0.27251(19) 0.65460(16) 0.45085(14)
C9 C 0.27252(18) 0.67745(16) 0.53081(14)
C10 C 0.1972(2) 0.63246(17) 0.58639(14)
C11 C 0.2009(2) 0.64831(17) 0.66989(14)
H3 H 0.2552 0.6903 0.6913
C12 C 0.1271(2) 0.60393(18) 0.72026(15)
H4 H 0.1304 0.6155 0.7761
C13 C 0.0475(2) 0.54209(18) 0.68965(16)
H5 H -0.0038 0.5118 0.7247
C14 C 0.0425(2) 0.52446(18) 0.60939(16)
H6 H -0.0122 0.4817 0.5897
C15 C 0.11687(19) 0.56823(16) 0.55501(15)
C16 C 0.11551(19) 0.54580(16) 0.46947(14)
C17 C 0.0371(2) 0.48249(16) 0.43642(16)
H7 H -0.0210 0.4578 0.4692
C18 C 0.0432(2) 0.45587(18) 0.35797(17)
H8 H -0.0112 0.4138 0.3368
C19 C 0.1283(2) 0.48975(18) 0.30888(16)
H9 H 0.1340 0.4682 0.2553
C20 C 0.2037(2) 0.55413(17) 0.33761(15)
H10 H 0.2605 0.5782 0.3034
C21 C 0.1977(2) 0.58517(16) 0.41822(14)
C22 C 0.35132(19) 0.81789(16) 0.61697(14)
C23 C 0.4270(2) 0.81793(18) 0.68031(14)
H11 H 0.4891 0.7760 0.6798
C24 C 0.4119(2) 0.87903(17) 0.74433(15)
H12 H 0.4637 0.8783 0.7875
C25 C 0.3222(2) 0.94083(18) 0.74570(16)
H13 H 0.3124 0.9824 0.7896
C26 C 0.2473(2) 0.94192(18) 0.68314(15)
H14 H 0.1854 0.9842 0.6838
C27 C 0.2624(2) 0.88088(17) 0.61886(15)
H15 H 0.2109 0.8824 0.5756
C28 C 0.3539(2) 0.73517(16) 0.32004(13)
C29 C 0.2601(2) 0.78347(18) 0.29164(14)
H16 H 0.2015 0.7999 0.3275
C30 C 0.2516(2) 0.8076(2) 0.21188(16)
H17 H 0.1873 0.8406 0.1932
C31 C 0.3363(3) 0.78393(19) 0.15937(16)
H18 H 0.3308 0.8012 0.1047
C32 C 0.4284(2) 0.73534(19) 0.18631(15)
H19 H 0.4862 0.7185 0.1500
C33 C 0.4375(2) 0.71056(17) 0.26629(15)
H20 H 0.5014 0.6766 0.2843
C34 C 0.5483(2) 0.44771(16) 0.53376(14)
C35 C 0.4691(2) 0.37658(18) 0.53807(16)
C36 C 0.5090(2) 0.28531(17) 0.55435(15)
H21 H 0.4571 0.2346 0.5574
C37 C 0.6213(2) 0.26717(18) 0.56605(15)
H22 H 0.6467 0.2050 0.5771
C38 C 0.6954(2) 0.34065(18) 0.56135(15)
C39 C 0.6634(2) 0.43139(17) 0.54420(15)
H23 H 0.7167 0.4809 0.5396
C40 C 0.3470(2) 0.3966(2) 0.52694(19)
H24 H 0.3249 0.4492 0.5614
H25 H 0.3033 0.3405 0.5411
H26 H 0.3328 0.4132 0.4710
loop_
_geom_bond_atom_site_label_1
_geom_bond_atom_site_label_2
_geom_bond_site_symmetry_1
_geom_bond_site_symmetry_2
F1 C38 1_555 1_555
O1 C1 1_555 1_555
O2 C4 1_555 1_555
O3 C5 1_555 1_555
N1 C4 1_555 1_555
C1 C2 1_555 1_555
C2 C3 1_555 1_555
C3 H1 1_555 1_555
C4 C3 1_555 1_555
C5 N1 1_555 1_555
C6 C3 1_555 1_555
H2 C6 1_555 1_555
C7 C1 1_555 1_555
C8 C7 1_555 1_555
C9 C2 1_555 1_555
C10 C9 1_555 1_555
C11 C10 1_555 1_555
H3 C11 1_555 1_555
C12 C11 1_555 1_555
H4 C12 1_555 1_555
C13 C12 1_555 1_555
H5 C13 1_555 1_555
C14 C13 1_555 1_555
H6 C14 1_555 1_555
C15 C10 1_555 1_555
C16 C15 1_555 1_555
C17 C16 1_555 1_555
H7 C17 1_555 1_555
C18 C17 1_555 1_555
H8 C18 1_555 1_555
C19 C18 1_555 1_555
H9 C19 1_555 1_555
C20 C19 1_555 1_555
H10 C20 1_555 1_555
C21 C8 1_555 1_555
C22 C2 1_555 1_555
C23 C22 1_555 1_555
H11 C23 1_555 1_555
C24 C23 1_555 1_555
H12 C24 1_555 1_555
C25 C24 1_555 1_555
H13 C25 1_555 1_555
C26 C25 1_555 1_555
H14 C26 1_555 1_555
C27 C22 1_555 1_555
H15 C27 1_555 1_555
C28 C7 1_555 1_555
C29 C28 1_555 1_555
H16 C29 1_555 1_555
C30 C29 1_555 1_555
H17 C30 1_555 1_555
C31 C30 1_555 1_555
H18 C31 1_555 1_555
C32 C31 1_555 1_555
H19 C32 1_555 1_555
C33 C28 1_555 1_555
H20 C33 1_555 1_555
C34 N1 1_555 1_555
C35 C34 1_555 1_555
C36 C35 1_555 1_555
H21 C36 1_555 1_555
C37 C36 1_555 1_555
H22 C37 1_555 1_555
C38 C37 1_555 1_555
C39 C34 1_555 1_555
H23 C39 1_555 1_555
C40 C35 1_555 1_555
H24 C40 1_555 1_555
H25 C40 1_555 1_555
H26 C40 1_555 1_555
C5 C6 1_555 1_555
C6 C7 1_555 1_555
C8 C9 1_555 1_555
C14 C15 1_555 1_555
C16 C21 1_555 1_555
C20 C21 1_555 1_555
C26 C27 1_555 1_555
C32 C33 1_555 1_555
C38 C39 1_555 1_555

#END
