
#######################################################################
#
#                 Cambridge Crystallographic Data Centre
#                                CCDC 
#
#######################################################################
#
# If this CIF has been generated from an entry in the Cambridge 
# Structural Database, then it will include bibliographic, chemical, 
# crystal, experimental, refinement or atomic coordinate data resulting 
# from the CCDC's data processing and validation procedures.
#
#######################################################################

data_TUVKIG
_chemical_formula_moiety         'C17 H15 N1 O4'
_chemical_name_systematic        
'4-(3,5-dioxo-4-azatricyclo[5.2.1.0^2,6^]dec-8-en-4-yl)-3-methylbenzoic acid'
_symmetry_cell_setting           monoclinic
_symmetry_space_group_name_H-M   'P 21/n'
_symmetry_Int_Tables_number      14
_space_group_name_Hall           '-P 2yn'
loop_
_symmetry_equiv_pos_site_id
_symmetry_equiv_pos_as_xyz
1 x,y,z
2 1/2-x,1/2+y,1/2-z
3 -x,-y,-z
4 1/2+x,1/2-y,1/2+z
_cell_length_a                   10.5608(8)
_cell_length_b                   6.4181(5)
_cell_length_c                   19.8406(14)
_cell_angle_alpha                90
_cell_angle_beta                 90.419(2)
_cell_angle_gamma                90
_cell_volume                     1344.77
_exptl_crystal_colour            colorless
_exptl_crystal_description       plate
_cell_formula_units_Z            4
loop_
_atom_site_label
_atom_site_type_symbol
_atom_site_fract_x
_atom_site_fract_y
_atom_site_fract_z
O1 O 0.65602(10) 0.68950(16) 0.71249(5)
O2 O 0.24662(9) 0.55514(17) 0.77010(5)
O3 O 0.36058(11) 0.11921(18) 0.44909(5)
O4 O 0.30745(10) 0.44338(17) 0.41822(5)
N1 N 0.44280(11) 0.62114(18) 0.72552(6)
C1 C 0.53837(14) 0.7071(2) 0.93327(7)
H1 H 0.5286 0.8585 0.9412
H2 H 0.5666 0.6365 0.9751
C2 C 0.62318(14) 0.6577(2) 0.87270(7)
H3 H 0.7149 0.6939 0.8778
C3 C 0.54747(14) 0.7801(2) 0.81694(7)
H4 H 0.5681 0.9321 0.8184
C4 C 0.56014(14) 0.6952(2) 0.74629(7)
C5 C 0.35065(13) 0.6305(2) 0.77617(7)
C6 C 0.40770(14) 0.7414(2) 0.83620(7)
H5 H 0.3628 0.8755 0.8453
C7 C 0.41894(14) 0.6064(2) 0.90167(7)
H6 H 0.3422 0.6007 0.9308
C8 C 0.47319(14) 0.3980(2) 0.87956(7)
H7 H 0.4295 0.2687 0.8785
C9 C 0.59281(14) 0.4298(2) 0.86207(7)
H8 H 0.6495 0.3270 0.8457
C10 C 0.41717(13) 0.5365(2) 0.65939(7)
C11 C 0.45644(13) 0.3356(2) 0.64320(7)
C12 C 0.42771(13) 0.2640(2) 0.57859(7)
H9 H 0.4520 0.1270 0.5660
C13 C 0.36420(13) 0.3890(2) 0.53223(7)
C14 C 0.32752(13) 0.5899(2) 0.54936(7)
H10 H 0.2853 0.6758 0.5173
C15 C 0.35324(13) 0.6636(2) 0.61373(7)
H11 H 0.3274 0.7997 0.6265
C16 C 0.52951(14) 0.2036(2) 0.69219(7)
H12 H 0.6075 0.2759 0.7054
H13 H 0.5508 0.0703 0.6710
H14 H 0.4780 0.1781 0.7322
C17 C 0.34399(13) 0.3000(2) 0.46309(7)
H15 H 0.310(2) 0.390(4) 0.3772(13)
loop_
_geom_bond_atom_site_label_1
_geom_bond_atom_site_label_2
_geom_bond_site_symmetry_1
_geom_bond_site_symmetry_2
O1 C4 1_555 1_555
O2 C5 1_555 1_555
O3 C17 1_555 1_555
O4 C17 1_555 1_555
N1 C4 1_555 1_555
C1 H1 1_555 1_555
H2 C1 1_555 1_555
C2 C1 1_555 1_555
H3 C2 1_555 1_555
C3 C2 1_555 1_555
H4 C3 1_555 1_555
C4 C3 1_555 1_555
C5 N1 1_555 1_555
C6 C3 1_555 1_555
H5 C6 1_555 1_555
C7 C1 1_555 1_555
H6 C7 1_555 1_555
C8 C7 1_555 1_555
H7 C8 1_555 1_555
C9 C2 1_555 1_555
H8 C9 1_555 1_555
C10 N1 1_555 1_555
C11 C10 1_555 1_555
C12 C11 1_555 1_555
H9 C12 1_555 1_555
C13 C12 1_555 1_555
C14 C13 1_555 1_555
H10 C14 1_555 1_555
C15 C10 1_555 1_555
H11 C15 1_555 1_555
C16 C11 1_555 1_555
H12 C16 1_555 1_555
H13 C16 1_555 1_555
H14 C16 1_555 1_555
C17 C13 1_555 1_555
H15 O4 1_555 1_555
C5 C6 1_555 1_555
C6 C7 1_555 1_555
C8 C9 1_555 1_555
C14 C15 1_555 1_555

#END
