
#######################################################################
#
#                 Cambridge Crystallographic Data Centre
#                                CCDC 
#
#######################################################################
#
# If this CIF has been generated from an entry in the Cambridge 
# Structural Database, then it will include bibliographic, chemical, 
# crystal, experimental, refinement or atomic coordinate data resulting 
# from the CCDC's data processing and validation procedures.
#
#######################################################################

data_TUVMAY
_chemical_formula_moiety         'C27 H22 F7 N1 O2'
_chemical_name_systematic        
(3R*)-4-Benzyl-3-((1R*)-1-(3,5-bis(trifluoromethyl)phenyl)ethyl)-3-(4-fluorophenyl)morpholin-2-one
_symmetry_cell_setting           triclinic
_symmetry_space_group_name_H-M   'P -1'
_symmetry_Int_Tables_number      2
_space_group_name_Hall           '-P 1'
loop_
_symmetry_equiv_pos_site_id
_symmetry_equiv_pos_as_xyz
1 x,y,z
2 -x,-y,-z
_cell_length_a                   9.098(4)
_cell_length_b                   9.876(4)
_cell_length_c                   14.495(6)
_cell_angle_alpha                102.806(6)
_cell_angle_beta                 98.216(6)
_cell_angle_gamma                103.386(6)
_cell_volume                     1209.33
_exptl_crystal_colour            colorless
_exptl_crystal_description       plates
_cell_formula_units_Z            2
loop_
_atom_site_label
_atom_site_type_symbol
_atom_site_fract_x
_atom_site_fract_y
_atom_site_fract_z
C1 C 0.31148(16) 0.96872(15) 0.20537(9)
C2 C 0.26914(17) 0.87825(17) 0.09870(10)
C3 C 0.1475(2) 0.66400(17) 0.14383(12)
H1 H 0.2248 0.6190 0.1662
H2 H 0.0527 0.5885 0.1136
C4 C 0.12023(19) 0.76621(17) 0.22796(11)
H3 H 0.0408 0.8097 0.2067
H4 H 0.0865 0.7154 0.2746
C5 C 0.2624(2) 0.95888(17) 0.36954(10)
H5 H 0.1795 1.0052 0.3654
H6 H 0.3588 1.0341 0.3948
C6 C 0.24039(18) 0.86592(17) 0.43933(10)
C7 C 0.3059(3) 0.7530(2) 0.44060(13)
H7 H 0.3665 0.7308 0.3960
C8 C 0.2834(3) 0.6730(2) 0.50629(14)
H8 H 0.3304 0.5988 0.5063
C9 C 0.1925(3) 0.7014(2) 0.57182(13)
H9 H 0.1732 0.6443 0.6142
C10 C 0.1312(3) 0.8144(3) 0.57371(15)
H10 H 0.0733 0.8380 0.6197
C11 C 0.1541(2) 0.8946(2) 0.50788(13)
H11 H 0.1096 0.9707 0.5099
C12 C 0.22958(16) 1.08993(15) 0.21137(9)
C13 C 0.28789(19) 1.22202(16) 0.28032(11)
H12 H 0.3823 1.2406 0.3219
C14 C 0.2082(2) 1.32664(18) 0.28835(13)
H13 H 0.2489 1.4152 0.3341
C15 C 0.0685(2) 1.29674(19) 0.22747(13)
C16 C 0.00490(19) 1.16920(19) 0.15924(12)
H14 H -0.0905 1.1516 0.1189
C17 C 0.08644(17) 1.06599(17) 0.15155(10)
H15 H 0.0444 0.9782 0.1051
C18 C 0.49385(16) 1.02644(15) 0.23091(10)
H16 H 0.5219 1.0719 0.3006
C19 C 0.56483(18) 1.14237(17) 0.18275(11)
H17 H 0.6742 1.1764 0.2074
H18 H 0.5196 1.2214 0.1966
H19 H 0.5450 1.1018 0.1141
C20 C 0.56519(16) 0.89973(16) 0.21432(10)
C21 C 0.59833(17) 0.83685(17) 0.28879(11)
H20 H 0.5796 0.8750 0.3492
C22 C 0.65830(18) 0.71934(18) 0.27547(11)
C23 C 0.68834(18) 0.66143(17) 0.18629(12)
H21 H 0.7276 0.5816 0.1767
C24 C 0.65908(17) 0.72401(17) 0.11194(11)
C25 C 0.59921(16) 0.84281(16) 0.12546(10)
H22 H 0.5817 0.8846 0.0748
C26 C 0.6896(3) 0.6508(2) 0.35577(15)
C27 C 0.6971(2) 0.6668(2) 0.01613(14)
F1 F 0.7084(8) 0.7390(5) 0.4444(4)
F2 F 0.8163(7) 0.6067(7) 0.3565(4)
F3 F 0.5758(5) 0.5419(7) 0.3523(4)
F7 F 0.739(2) 0.5500(14) 0.0102(8)
F8 F 0.8049(18) 0.7608(15) -0.0058(8)
F9 F 0.5859(8) 0.6352(14) -0.0536(6)
F13 F -0.00910(13) 1.40076(12) 0.23576(9)
N1 N 0.26488(13) 0.87706(12) 0.27172(8)
O1 O 0.19902(14) 0.73752(12) 0.07343(7)
O2 O 0.30078(12) 0.93429(12) 0.03568(7)
F4? F 0.641(4) 0.698(3) 0.4284(14)
F5? F 0.8245(13) 0.663(3) 0.3834(15)
F6? F 0.626(3) 0.5075(15) 0.3303(15)
F10? F 0.6825(14) 0.5265(6) -0.0046(8)
F11? F 0.8389(10) 0.7208(16) 0.0142(8)
F12? F 0.6061(14) 0.6822(15) -0.0582(6)
loop_
_geom_bond_atom_site_label_1
_geom_bond_atom_site_label_2
_geom_bond_site_symmetry_1
_geom_bond_site_symmetry_2
C1 C2 1_555 1_555
C2 O1 1_555 1_555
C3 H1 1_555 1_555
H2 C3 1_555 1_555
C4 C3 1_555 1_555
H3 C4 1_555 1_555
H4 C4 1_555 1_555
C5 H5 1_555 1_555
H6 C5 1_555 1_555
C6 C5 1_555 1_555
C7 C6 1_555 1_555
H7 C7 1_555 1_555
C8 C7 1_555 1_555
H8 C8 1_555 1_555
C9 C8 1_555 1_555
H9 C9 1_555 1_555
C10 C9 1_555 1_555
H10 C10 1_555 1_555
C11 C6 1_555 1_555
H11 C11 1_555 1_555
C12 C1 1_555 1_555
C13 C12 1_555 1_555
H12 C13 1_555 1_555
C14 C13 1_555 1_555
H13 C14 1_555 1_555
C15 C14 1_555 1_555
C16 C15 1_555 1_555
H14 C16 1_555 1_555
C17 C12 1_555 1_555
H15 C17 1_555 1_555
C18 C1 1_555 1_555
H16 C18 1_555 1_555
C19 C18 1_555 1_555
H17 C19 1_555 1_555
H18 C19 1_555 1_555
H19 C19 1_555 1_555
C20 C18 1_555 1_555
C21 C20 1_555 1_555
H20 C21 1_555 1_555
C22 C21 1_555 1_555
C23 C22 1_555 1_555
H21 C23 1_555 1_555
C24 C23 1_555 1_555
C25 C20 1_555 1_555
H22 C25 1_555 1_555
C26 C22 1_555 1_555
C27 C24 1_555 1_555
F1 C26 1_555 1_555
F2 C26 1_555 1_555
F3 C26 1_555 1_555
F7 C27 1_555 1_555
F8 C27 1_555 1_555
F9 C27 1_555 1_555
F13 C15 1_555 1_555
N1 C1 1_555 1_555
O1 C3 1_555 1_555
O2 C2 1_555 1_555
C4 N1 1_555 1_555
C5 N1 1_555 1_555
C10 C11 1_555 1_555
C16 C17 1_555 1_555
C24 C25 1_555 1_555

#END
