
#######################################################################
#
#                 Cambridge Crystallographic Data Centre
#                                CCDC 
#
#######################################################################
#
# If this CIF has been generated from an entry in the Cambridge 
# Structural Database, then it will include bibliographic, chemical, 
# crystal, experimental, refinement or atomic coordinate data resulting 
# from the CCDC's data processing and validation procedures.
#
#######################################################################

data_TUVPEH
_chemical_formula_moiety         'C24 H18 N2 O2'
_chemical_name_systematic        
17-(3-methylpyridin-4-yl)-17-azapentacyclo[6.6.5.0^2,7^.0^9,14^.0^15,19^]nonadeca-2,4,6,9,11,13-hexaene-16,18-dione
_symmetry_cell_setting           monoclinic
_symmetry_space_group_name_H-M   'P 21/c'
_symmetry_Int_Tables_number      14
_space_group_name_Hall           '-P 2ybc'
loop_
_symmetry_equiv_pos_site_id
_symmetry_equiv_pos_as_xyz
1 x,y,z
2 -x,1/2+y,1/2-z
3 -x,-y,-z
4 x,1/2-y,1/2+z
_cell_length_a                   17.7048(17)
_cell_length_b                   15.0244(15)
_cell_length_c                   14.9507(14)
_cell_angle_alpha                90
_cell_angle_beta                 113.124(3)
_cell_angle_gamma                90
_cell_volume                     3657.43
_exptl_crystal_colour            colorless
_exptl_crystal_description       wedge
_cell_formula_units_Z            8
loop_
_atom_site_label
_atom_site_type_symbol
_atom_site_fract_x
_atom_site_fract_y
_atom_site_fract_z
O1 O 0.00320(6) 0.82339(6) 0.24341(7)
O2 O 0.15060(6) 0.71039(7) 0.07868(7)
N1 N 0.08410(7) 0.75239(7) 0.17678(8)
N2 N 0.16434(8) 0.54424(8) 0.38137(9)
C1 C -0.09496(8) 0.85356(9) 0.02385(9)
H1 H -0.1295 0.8772 0.0577
C2 C -0.00119(8) 0.86817(9) 0.08447(9)
H2 H 0.0110 0.9329 0.0984
C3 C 0.02656(8) 0.81563(9) 0.17803(9)
C4 C 0.10181(8) 0.75768(9) 0.09360(9)
C5 C 0.04882(8) 0.83016(9) 0.02884(9)
H3 H 0.0838 0.8776 0.0177
C6 C -0.01065(8) 0.78970(9) -0.07015(9)
H4 H 0.0195 0.7646 -0.1087
C7 C -0.06121(8) 0.71993(9) -0.04550(9)
C8 C -0.10707(8) 0.75473(9) 0.00431(9)
C9 C -0.15666(8) 0.69917(9) 0.03183(10)
H5 H -0.1876 0.7222 0.0662
C10 C -0.16054(9) 0.60931(10) 0.00847(10)
H6 H -0.1955 0.5711 0.0256
C11 C -0.11431(9) 0.57472(9) -0.03935(10)
H7 H -0.1172 0.5130 -0.0540
C12 C -0.06354(9) 0.62983(9) -0.06622(9)
H8 H -0.0311 0.6061 -0.0982
C13 C -0.06793(8) 0.86446(9) -0.12317(9)
C14 C -0.11299(8) 0.89914(9) -0.07254(9)
C15 C -0.16849(8) 0.96759(9) -0.11215(9)
H9 H -0.1997 0.9907 -0.0782
C16 C -0.17794(8) 1.00199(9) -0.20236(10)
H10 H -0.2152 1.0496 -0.2297
C17 C -0.13362(8) 0.96752(9) -0.25251(10)
H11 H -0.1406 0.9917 -0.3140
C18 C -0.07885(8) 0.89778(9) -0.21370(9)
H12 H -0.0493 0.8733 -0.2489
C19 C 0.11409(8) 0.68202(9) 0.24734(9)
C20 C 0.16487(8) 0.70091(9) 0.34278(10)
C21 C 0.18780(9) 0.62778(10) 0.40596(10)
H13 H 0.2230 0.6389 0.4718
C22 C 0.11601(9) 0.52884(10) 0.28772(11)
H14 H 0.0991 0.4695 0.2682
C23 C 0.08985(9) 0.59532(9) 0.21869(10)
H15 H 0.0560 0.5820 0.1530
C24 C 0.19447(9) 0.79206(10) 0.37887(10)
H16 H 0.1922 0.8296 0.3242
H17 H 0.2512 0.7888 0.4269
H18 H 0.1595 0.8178 0.4093
O3 O 0.46372(6) 0.15422(6) 0.25716(7)
O4 O 0.59869(6) 0.28750(7) 0.55167(7)
N3 N 0.53662(7) 0.23672(7) 0.39426(8)
N4 N 0.64601(8) 0.40592(9) 0.25565(9)
C25 C 0.37216(8) 0.10087(9) 0.38664(9)
H19 H 0.3449 0.0662 0.3252
C26 C 0.46650(8) 0.11013(9) 0.41565(9)
H20 H 0.4919 0.0499 0.4213
C27 C 0.48614(8) 0.16585(9) 0.34361(10)
C28 C 0.55303(8) 0.23588(9) 0.49381(10)
C29 C 0.50562(8) 0.16014(9) 0.51337(9)
H21 H 0.5444 0.1196 0.5636
C30 C 0.43707(8) 0.19220(9) 0.54731(10)
H22 H 0.4597 0.2275 0.6089
C31 C 0.37472(8) 0.24417(9) 0.46435(10)
C32 C 0.33946(8) 0.19523(9) 0.37840(10)
C33 C 0.28210(9) 0.23433(10) 0.29559(11)
H23 H 0.2585 0.2015 0.2368
C34 C 0.25967(9) 0.32241(10) 0.29997(12)
H24 H 0.2205 0.3498 0.2436
C35 C 0.29367(9) 0.37058(10) 0.38528(12)
H25 H 0.2774 0.4306 0.3872
C36 C 0.35169(9) 0.33168(9) 0.46847(11)
H26 H 0.3751 0.3647 0.5272
C37 C 0.39515(8) 0.10740(9) 0.55844(10)
C38 C 0.36239(8) 0.05724(9) 0.47288(9)
C39 C 0.32527(8) -0.02372(9) 0.47295(10)
H27 H 0.3044 -0.0588 0.4155
C40 C 0.31866(8) -0.05347(9) 0.55784(10)
H28 H 0.2933 -0.1091 0.5583
C41 C 0.34898(9) -0.00230(10) 0.64155(10)
H29 H 0.3432 -0.0224 0.6988
C42 C 0.38776(9) 0.07816(10) 0.64249(10)
H30 H 0.4090 0.1128 0.7002
C43 C 0.57427(8) 0.29662(9) 0.34971(9)
C44 C 0.56600(9) 0.38842(9) 0.35398(10)
C45 C 0.60356(9) 0.43887(10) 0.30464(10)
H31 H 0.5985 0.5018 0.3060
C46 C 0.65356(9) 0.31734(10) 0.25509(10)
H32 H 0.6846 0.2924 0.2219
C47 C 0.61859(9) 0.26060(10) 0.30011(10)
H33 H 0.6247 0.1980 0.2972
C48 C 0.51731(10) 0.43371(10) 0.40327(11)
H34 H 0.4673 0.3994 0.3922
H35 H 0.5023 0.4938 0.3766
H36 H 0.5504 0.4376 0.4733
loop_
_geom_bond_atom_site_label_1
_geom_bond_atom_site_label_2
_geom_bond_site_symmetry_1
_geom_bond_site_symmetry_2
O1 C3 1_555 1_555
O2 C4 1_555 1_555
N1 C3 1_555 1_555
N2 C21 1_555 1_555
C1 H1 1_555 1_555
C2 C1 1_555 1_555
H2 C2 1_555 1_555
C3 C2 1_555 1_555
C4 N1 1_555 1_555
C5 C2 1_555 1_555
H3 C5 1_555 1_555
C6 C5 1_555 1_555
H4 C6 1_555 1_555
C7 C6 1_555 1_555
C8 C1 1_555 1_555
C9 C8 1_555 1_555
H5 C9 1_555 1_555
C10 C9 1_555 1_555
H6 C10 1_555 1_555
C11 C10 1_555 1_555
H7 C11 1_555 1_555
C12 C7 1_555 1_555
H8 C12 1_555 1_555
C13 C6 1_555 1_555
C14 C1 1_555 1_555
C15 C14 1_555 1_555
H9 C15 1_555 1_555
C16 C15 1_555 1_555
H10 C16 1_555 1_555
C17 C16 1_555 1_555
H11 C17 1_555 1_555
C18 C13 1_555 1_555
H12 C18 1_555 1_555
C19 N1 1_555 1_555
C20 C19 1_555 1_555
C21 C20 1_555 1_555
H13 C21 1_555 1_555
C22 N2 1_555 1_555
H14 C22 1_555 1_555
C23 C19 1_555 1_555
H15 C23 1_555 1_555
C24 C20 1_555 1_555
H16 C24 1_555 1_555
H17 C24 1_555 1_555
H18 C24 1_555 1_555
O3 C27 1_555 1_555
O4 C28 1_555 1_555
N3 C27 1_555 1_555
N4 C45 1_555 1_555
C25 H19 1_555 1_555
C26 C25 1_555 1_555
H20 C26 1_555 1_555
C27 C26 1_555 1_555
C28 N3 1_555 1_555
C29 C26 1_555 1_555
H21 C29 1_555 1_555
C30 C29 1_555 1_555
H22 C30 1_555 1_555
C31 C30 1_555 1_555
C32 C25 1_555 1_555
C33 C32 1_555 1_555
H23 C33 1_555 1_555
C34 C33 1_555 1_555
H24 C34 1_555 1_555
C35 C34 1_555 1_555
H25 C35 1_555 1_555
C36 C31 1_555 1_555
H26 C36 1_555 1_555
C37 C30 1_555 1_555
C38 C25 1_555 1_555
C39 C38 1_555 1_555
H27 C39 1_555 1_555
C40 C39 1_555 1_555
H28 C40 1_555 1_555
C41 C40 1_555 1_555
H29 C41 1_555 1_555
C42 C37 1_555 1_555
H30 C42 1_555 1_555
C43 N3 1_555 1_555
C44 C43 1_555 1_555
C45 C44 1_555 1_555
H31 C45 1_555 1_555
C46 N4 1_555 1_555
H32 C46 1_555 1_555
C47 C43 1_555 1_555
H33 C47 1_555 1_555
C48 C44 1_555 1_555
H34 C48 1_555 1_555
H35 C48 1_555 1_555
H36 C48 1_555 1_555
C4 C5 1_555 1_555
C7 C8 1_555 1_555
C11 C12 1_555 1_555
C13 C14 1_555 1_555
C17 C18 1_555 1_555
C22 C23 1_555 1_555
C28 C29 1_555 1_555
C31 C32 1_555 1_555
C35 C36 1_555 1_555
C37 C38 1_555 1_555
C41 C42 1_555 1_555
C46 C47 1_555 1_555

#END
