
#######################################################################
#
#                 Cambridge Crystallographic Data Centre
#                                CCDC 
#
#######################################################################
#
# If this CIF has been generated from an entry in the Cambridge 
# Structural Database, then it will include bibliographic, chemical, 
# crystal, experimental, refinement or atomic coordinate data resulting 
# from the CCDC's data processing and validation procedures.
#
#######################################################################

data_TUVPUX
_chemical_formula_moiety         'C34 H23 N1 O4,3(C1 D1 Cl3)'
_chemical_name_systematic        
'4-(24,26-dioxo-25-azaheptacyclo[10.10.5.0^2,11^.0^4,9^.0^13,22^.0^15,20^.0^23,27^]heptacosa-2,4,6,8,10,13,15,17,19,21-decaen-25-yl)-3-methylbenzoic acid deuterochloroform solvate'
_symmetry_cell_setting           triclinic
_symmetry_space_group_name_H-M   'P -1'
_symmetry_Int_Tables_number      2
_space_group_name_Hall           '-P 1'
loop_
_symmetry_equiv_pos_site_id
_symmetry_equiv_pos_as_xyz
1 x,y,z
2 -x,-y,-z
_cell_length_a                   9.8055(10)
_cell_length_b                   13.4551(13)
_cell_length_c                   15.5005(15)
_cell_angle_alpha                67.404(2)
_cell_angle_beta                 88.581(2)
_cell_angle_gamma                83.350(2)
_cell_volume                     1874.92
_exptl_crystal_colour            colorless
_exptl_crystal_description       bar
_cell_formula_units_Z            2
loop_
_atom_site_label
_atom_site_type_symbol
_atom_site_fract_x
_atom_site_fract_y
_atom_site_fract_z
O1 O 0.4033(2) 0.44865(17) 0.60335(15)
O2 O -0.0491(2) 0.58163(16) 0.54704(15)
O3 O -0.0338(2) 0.13491(17) 0.96377(15)
O4 O 0.0878(3) 0.03578(18) 0.89468(16)
H1 H 0.070(5) -0.018(3) 0.941(2)
N1 N 0.1699(2) 0.49966(19) 0.59515(17)
C1 C 0.3603(3) 0.7915(2) 0.3884(2)
C2 C 0.4593(3) 0.8350(2) 0.3264(2)
H2 H 0.5530 0.8068 0.3412
C3 C 0.4234(3) 0.9221(2) 0.2398(2)
C4 C 0.5230(4) 0.9688(3) 0.1732(2)
H3 H 0.6175 0.9433 0.1872
C5 C 0.4848(4) 1.0501(3) 0.0890(2)
H4 H 0.5529 1.0796 0.0448
C6 C 0.3471(4) 1.0902(3) 0.0674(2)
H5 H 0.3221 1.1469 0.0087
C7 C 0.2469(4) 1.0482(3) 0.1306(2)
H6 H 0.1534 1.0765 0.1154
C8 C 0.2824(3) 0.9632(2) 0.2182(2)
C9 C 0.1818(3) 0.9161(2) 0.2842(2)
H7 H 0.0875 0.9429 0.2707
C10 C 0.2197(3) 0.8327(2) 0.3669(2)
C11 C 0.1243(3) 0.7731(2) 0.4432(2)
H8 H 0.0261 0.8046 0.4284
C12 C 0.1738(3) 0.7744(2) 0.5342(2)
C13 C 0.0960(3) 0.8069(2) 0.5950(2)
H9 H 0.0029 0.8361 0.5793
C14 C 0.1531(3) 0.7974(3) 0.6812(2)
C15 C 0.0757(4) 0.8290(3) 0.7469(3)
H10 H -0.0175 0.8590 0.7330
C16 C 0.1340(5) 0.8166(4) 0.8298(3)
H11 H 0.0807 0.8383 0.8729
C17 C 0.2705(5) 0.7727(4) 0.8525(3)
H12 H 0.3094 0.7645 0.9107
C18 C 0.3486(4) 0.7412(3) 0.7909(3)
H13 H 0.4416 0.7114 0.8068
C19 C 0.2927(3) 0.7525(3) 0.7039(2)
C20 C 0.3711(3) 0.7198(2) 0.6393(2)
H14 H 0.4642 0.6898 0.6540
C21 C 0.3139(3) 0.7311(2) 0.5563(2)
C22 C 0.3828(3) 0.6968(2) 0.4819(2)
H15 H 0.4823 0.6705 0.4967
C23 C 0.3010(3) 0.6081(2) 0.4736(2)
H16 H 0.3391 0.5862 0.4222
C24 C 0.1479(3) 0.6525(2) 0.4526(2)
H17 H 0.1180 0.6473 0.3934
C25 C 0.0730(3) 0.5782(2) 0.5345(2)
C26 C 0.3046(3) 0.5100(2) 0.5634(2)
C27 C 0.1348(3) 0.4072(2) 0.6734(2)
C28 C 0.0701(3) 0.4199(2) 0.7503(2)
C29 C 0.0353(3) 0.3264(2) 0.8217(2)
H18 H -0.0123 0.3320 0.8740
C30 C 0.0686(3) 0.2248(2) 0.8180(2)
C31 C 0.1344(3) 0.2147(2) 0.7406(2)
H19 H 0.1573 0.1454 0.7381
C32 C 0.1657(3) 0.3067(2) 0.6678(2)
H20 H 0.2085 0.3013 0.6139
C33 C 0.0416(4) 0.5291(3) 0.7575(2)
H21 H 0.1240 0.5668 0.7410
H22 H 0.0165 0.5191 0.8216
H23 H -0.0342 0.5723 0.7145
C34 C 0.0364(3) 0.1270(2) 0.8980(2)
Cl1 Cl 0.67023(10) 0.47162(8) 0.73169(7)
Cl2 Cl 0.66698(12) 0.25736(8) 0.87241(7)
Cl3 Cl 0.42757(12) 0.41755(13) 0.84110(9)
C35 C 0.5665(4) 0.3680(3) 0.7891(2)
D1 D 0.5295 0.3436 0.7419
Cl4 Cl 0.73417(8) 0.75226(6) 0.55025(6)
Cl5 Cl 0.66007(13) 0.93914(9) 0.59677(9)
Cl6 Cl 0.71393(12) 0.96619(9) 0.40589(8)
C36 C 0.6462(4) 0.8842(3) 0.5121(2)
D2 D 0.5470 0.8804 0.5018
Cl7 Cl 0.26230(11) 0.29832(10) 0.19695(8)
Cl8 Cl 0.2961(2) 0.49548(14) 0.03801(11)
Cl9 Cl 0.1055(2) 0.35613(14) 0.02956(13)
C37 C 0.2616(6) 0.3613(4) 0.0755(3)
D3 D 0.3346 0.3208 0.0515
loop_
_geom_bond_atom_site_label_1
_geom_bond_atom_site_label_2
_geom_bond_site_symmetry_1
_geom_bond_site_symmetry_2
O1 C26 1_555 1_555
O2 C25 1_555 1_555
O3 C34 1_555 1_555
O4 H1 1_555 1_555
N1 C25 1_555 1_555
C1 C2 1_555 1_555
C2 H2 1_555 1_555
C3 C2 1_555 1_555
C4 C3 1_555 1_555
H3 C4 1_555 1_555
C5 C4 1_555 1_555
H4 C5 1_555 1_555
C6 C5 1_555 1_555
H5 C6 1_555 1_555
C7 C6 1_555 1_555
H6 C7 1_555 1_555
C8 C3 1_555 1_555
C9 C8 1_555 1_555
H7 C9 1_555 1_555
C10 C1 1_555 1_555
C11 C10 1_555 1_555
H8 C11 1_555 1_555
C12 C11 1_555 1_555
C13 C12 1_555 1_555
H9 C13 1_555 1_555
C14 C13 1_555 1_555
C15 C14 1_555 1_555
H10 C15 1_555 1_555
C16 C15 1_555 1_555
H11 C16 1_555 1_555
C17 C16 1_555 1_555
H12 C17 1_555 1_555
C18 C17 1_555 1_555
H13 C18 1_555 1_555
C19 C14 1_555 1_555
C20 C19 1_555 1_555
H14 C20 1_555 1_555
C21 C12 1_555 1_555
C22 C1 1_555 1_555
H15 C22 1_555 1_555
C23 C22 1_555 1_555
H16 C23 1_555 1_555
C24 C11 1_555 1_555
H17 C24 1_555 1_555
C25 C24 1_555 1_555
C26 N1 1_555 1_555
C27 N1 1_555 1_555
C28 C27 1_555 1_555
C29 C28 1_555 1_555
H18 C29 1_555 1_555
C30 C29 1_555 1_555
C31 C30 1_555 1_555
H19 C31 1_555 1_555
C32 C27 1_555 1_555
H20 C32 1_555 1_555
C33 C28 1_555 1_555
H21 C33 1_555 1_555
H22 C33 1_555 1_555
H23 C33 1_555 1_555
C34 O4 1_555 1_555
Cl1 C35 1_555 1_555
Cl2 C35 1_555 1_555
Cl3 C35 1_555 1_555
C35 D1 1_555 1_555
Cl4 C36 1_555 1_555
Cl5 C36 1_555 1_555
Cl6 C36 1_555 1_555
C36 D2 1_555 1_555
Cl7 C37 1_555 1_555
Cl8 C37 1_555 1_555
Cl9 C37 1_555 1_555
C37 D3 1_555 1_555
C7 C8 1_555 1_555
C9 C10 1_555 1_555
C18 C19 1_555 1_555
C20 C21 1_555 1_555
C21 C22 1_555 1_555
C23 C24 1_555 1_555
C23 C26 1_555 1_555
C30 C34 1_555 1_555
C31 C32 1_555 1_555

#END
