
#######################################################################
#
#                 Cambridge Crystallographic Data Centre
#                                CCDC 
#
#######################################################################
#
# If this CIF has been generated from an entry in the Cambridge 
# Structural Database, then it will include bibliographic, chemical, 
# crystal, experimental, refinement or atomic coordinate data resulting 
# from the CCDC's data processing and validation procedures.
#
#######################################################################

data_TUVQEI
_chemical_formula_moiety         'C39 H26 N2 O3'
_chemical_name_systematic        
19-(3-methylpyridin-2-yl)-1,16-diphenyl-19-azahexacyclo[14.5.1.0^2,15^.0^3,8^.0^9,14^.0^17,21^]docosa-2(15),3,5,7,9,11,13-heptaene-18,20,22-trione
_symmetry_cell_setting           triclinic
_symmetry_space_group_name_H-M   'P -1'
_symmetry_Int_Tables_number      2
_space_group_name_Hall           '-P 1'
loop_
_symmetry_equiv_pos_site_id
_symmetry_equiv_pos_as_xyz
1 x,y,z
2 -x,-y,-z
_cell_length_a                   9.1631(4)
_cell_length_b                   11.6035(5)
_cell_length_c                   14.0377(7)
_cell_angle_alpha                97.493(2)
_cell_angle_beta                 90.267(2)
_cell_angle_gamma                112.0570(10)
_cell_volume                     1369.16
_exptl_crystal_colour            colorless
_exptl_crystal_description       block
_cell_formula_units_Z            2
loop_
_atom_site_label
_atom_site_type_symbol
_atom_site_fract_x
_atom_site_fract_y
_atom_site_fract_z
O1 O 0.15449(10) 0.39844(7) 0.03900(6)
O2 O 0.21527(10) 0.66641(8) 0.40703(6)
O3 O 0.24809(10) 0.90061(7) 0.16449(6)
N1 N 0.24456(11) 0.80755(8) 0.29995(6)
N2 N 0.18850(12) 0.92649(9) 0.43054(7)
C1 C 0.20226(12) 0.49099(10) 0.09682(8)
C2 C 0.23133(12) 0.50823(10) 0.20853(7)
C3 C 0.13401(12) 0.59188(10) 0.23626(8)
H1 H 0.0207 0.5386 0.2423
C4 C 0.20031(12) 0.68697(10) 0.32646(8)
C5 C 0.22053(12) 0.80695(10) 0.20143(8)
C6 C 0.15171(12) 0.67131(10) 0.15319(7)
H2 H 0.0466 0.6521 0.1201
C7 C 0.26186(12) 0.63179(10) 0.08237(7)
C8 C 0.42223(12) 0.66885(10) 0.13640(7)
C9 C 0.40426(12) 0.59783(9) 0.20989(7)
C10 C 0.53405(12) 0.61388(10) 0.27511(7)
C11 C 0.51723(13) 0.54735(11) 0.35467(8)
H3 H 0.4152 0.4930 0.3689
C12 C 0.64677(14) 0.56033(12) 0.41190(8)
H4 H 0.6342 0.5134 0.4640
C13 C 0.79686(14) 0.64291(12) 0.39288(8)
H5 H 0.8864 0.6512 0.4317
C14 C 0.81523(13) 0.71192(11) 0.31844(8)
H6 H 0.9175 0.7694 0.3079
C15 C 0.68592(13) 0.69978(10) 0.25683(8)
C16 C 0.70516(13) 0.77410(10) 0.17839(8)
C17 C 0.85329(13) 0.86493(11) 0.16217(9)
H7 H 0.9435 0.8744 0.2009
C18 C 0.86975(14) 0.93984(12) 0.09160(9)
H8 H 0.9707 1.0000 0.0820
C19 C 0.73879(14) 0.92812(11) 0.03389(9)
H9 H 0.7508 0.9803 -0.0147
C20 C 0.59252(14) 0.84092(10) 0.04762(8)
H10 H 0.5037 0.8340 0.0087
C21 C 0.57249(13) 0.76136(10) 0.11882(8)
C22 C 0.18761(13) 0.38736(10) 0.24996(8)
C23 C 0.09017(14) 0.36096(11) 0.32683(8)
H11 H 0.0535 0.4224 0.3570
C24 C 0.04625(16) 0.24490(12) 0.35956(9)
H12 H -0.0214 0.2270 0.4113
C25 C 0.10113(18) 0.15586(12) 0.31673(9)
H13 H 0.0704 0.0766 0.3388
C26 C 0.20112(17) 0.18209(12) 0.24146(9)
H14 H 0.2405 0.1215 0.2131
C27 C 0.24347(14) 0.29695(11) 0.20771(9)
H15 H 0.3107 0.3142 0.1557
C28 C 0.25606(12) 0.65423(10) -0.02021(8)
C29 C 0.32360(13) 0.59394(11) -0.08886(8)
H16 H 0.3673 0.5371 -0.0706
C30 C 0.32697(14) 0.61697(11) -0.18346(8)
H17 H 0.3735 0.5761 -0.2297
C31 C 0.26280(14) 0.69947(11) -0.21107(8)
H18 H 0.2664 0.7156 -0.2758
C32 C 0.19356(14) 0.75822(11) -0.14381(8)
H19 H 0.1484 0.8139 -0.1626
C33 C 0.19017(13) 0.73560(10) -0.04869(8)
H20 H 0.1425 0.7760 -0.0028
C34 C 0.29616(13) 0.92091(10) 0.36878(8)
C35 C 0.44701(13) 1.01252(10) 0.36628(8)
C36 C 0.48398(15) 1.11924(11) 0.43506(8)
H21 H 0.5844 1.1856 0.4371
C37 C 0.37484(15) 1.12857(11) 0.50020(8)
H22 H 0.3990 1.2010 0.5470
C38 C 0.22960(15) 1.03010(12) 0.49588(8)
H23 H 0.1556 1.0363 0.5414
C39 C 0.56401(14) 0.99732(11) 0.29633(9)
H24 H 0.5587 0.9107 0.2895
H25 H 0.6705 1.0551 0.3202
H26 H 0.5392 1.0162 0.2336
loop_
_geom_bond_atom_site_label_1
_geom_bond_atom_site_label_2
_geom_bond_site_symmetry_1
_geom_bond_site_symmetry_2
O1 C1 1_555 1_555
O2 C4 1_555 1_555
O3 C5 1_555 1_555
N1 C4 1_555 1_555
N2 C34 1_555 1_555
C1 C2 1_555 1_555
C2 C3 1_555 1_555
C3 H1 1_555 1_555
C4 C3 1_555 1_555
C5 N1 1_555 1_555
C6 C3 1_555 1_555
H2 C6 1_555 1_555
C7 C1 1_555 1_555
C8 C7 1_555 1_555
C9 C2 1_555 1_555
C10 C9 1_555 1_555
C11 C10 1_555 1_555
H3 C11 1_555 1_555
C12 C11 1_555 1_555
H4 C12 1_555 1_555
C13 C12 1_555 1_555
H5 C13 1_555 1_555
C14 C13 1_555 1_555
H6 C14 1_555 1_555
C15 C10 1_555 1_555
C16 C15 1_555 1_555
C17 C16 1_555 1_555
H7 C17 1_555 1_555
C18 C17 1_555 1_555
H8 C18 1_555 1_555
C19 C18 1_555 1_555
H9 C19 1_555 1_555
C20 C19 1_555 1_555
H10 C20 1_555 1_555
C21 C8 1_555 1_555
C22 C2 1_555 1_555
C23 C22 1_555 1_555
H11 C23 1_555 1_555
C24 C23 1_555 1_555
H12 C24 1_555 1_555
C25 C24 1_555 1_555
H13 C25 1_555 1_555
C26 C25 1_555 1_555
H14 C26 1_555 1_555
C27 C22 1_555 1_555
H15 C27 1_555 1_555
C28 C7 1_555 1_555
C29 C28 1_555 1_555
H16 C29 1_555 1_555
C30 C29 1_555 1_555
H17 C30 1_555 1_555
C31 C30 1_555 1_555
H18 C31 1_555 1_555
C32 C31 1_555 1_555
H19 C32 1_555 1_555
C33 C28 1_555 1_555
H20 C33 1_555 1_555
C34 N1 1_555 1_555
C35 C34 1_555 1_555
C36 C35 1_555 1_555
H21 C36 1_555 1_555
C37 C36 1_555 1_555
H22 C37 1_555 1_555
C38 N2 1_555 1_555
H23 C38 1_555 1_555
C39 C35 1_555 1_555
H24 C39 1_555 1_555
H25 C39 1_555 1_555
H26 C39 1_555 1_555
C5 C6 1_555 1_555
C6 C7 1_555 1_555
C8 C9 1_555 1_555
C14 C15 1_555 1_555
C16 C21 1_555 1_555
C20 C21 1_555 1_555
C26 C27 1_555 1_555
C32 C33 1_555 1_555
C37 C38 1_555 1_555

#END
