
#######################################################################
#
#                 Cambridge Crystallographic Data Centre
#                                CCDC 
#
#######################################################################
#
# If this CIF has been generated from an entry in the Cambridge 
# Structural Database, then it will include bibliographic, chemical, 
# crystal, experimental, refinement or atomic coordinate data resulting 
# from the CCDC's data processing and validation procedures.
#
#######################################################################

data_TUVQAE
_chemical_formula_moiety         'C33 H23 N1 O2'
_chemical_name_systematic        
25-(2-methylphenyl)-25-azaheptacyclo[10.10.5.0^2,11^.0^4,9^.0^13,22^.0^15,20^.0^23,27^]heptacosa-2,4,6,8,10,13,15,17,19,21-decaene-24,26-dione
_symmetry_cell_setting           rhombohedral
_symmetry_space_group_name_H-M   'R -3'
_symmetry_Int_Tables_number      148
_space_group_name_Hall           '-R 3'
loop_
_symmetry_equiv_pos_site_id
_symmetry_equiv_pos_as_xyz
1 x,y,z
2 -y,x-y,z
3 -x+y,-x,z
4 2/3+x,1/3+y,1/3+z
5 2/3-y,1/3+x-y,1/3+z
6 2/3-x+y,1/3-x,1/3+z
7 1/3+x,2/3+y,2/3+z
8 1/3-y,2/3+x-y,2/3+z
9 1/3-x+y,2/3-x,2/3+z
10 -x,-y,-z
11 y,-x+y,-z
12 x-y,x,-z
13 1/3-x,2/3-y,2/3-z
14 1/3+y,2/3-x+y,2/3-z
15 1/3+x-y,2/3+x,2/3-z
16 2/3-x,1/3-y,1/3-z
17 2/3+y,1/3-x+y,1/3-z
18 2/3+x-y,1/3+x,1/3-z
_cell_length_a                   36.166(2)
_cell_length_b                   36.166(2)
_cell_length_c                   9.4155(11)
_cell_angle_alpha                90
_cell_angle_beta                 90
_cell_angle_gamma                120
_cell_volume                     10665.3
_exptl_crystal_colour            colorless
_exptl_crystal_description       needle
_cell_formula_units_Z            18
loop_
_atom_site_label
_atom_site_type_symbol
_atom_site_fract_x
_atom_site_fract_y
_atom_site_fract_z
O1 O 0.33946(5) 0.50694(5) 0.92522(16)
O2 O 0.40612(5) 0.61317(5) 0.59803(15)
N1 N 0.37770(5) 0.56647(6) 0.78604(18)
C1 C 0.34311(7) 0.45194(7) 0.4991(2)
C2 C 0.32001(7) 0.41016(7) 0.4610(3)
H1 H 0.3078 0.3887 0.5320
C3 C 0.31401(7) 0.39853(8) 0.3152(3)
C4 C 0.29289(8) 0.35585(8) 0.2722(3)
H2 H 0.2803 0.3339 0.3415
C5 C 0.29005(8) 0.34533(9) 0.1306(3)
H3 H 0.2769 0.3162 0.1031
C6 C 0.30631(9) 0.37721(10) 0.0276(3)
H4 H 0.3035 0.3696 -0.0700
C7 C 0.32620(8) 0.41916(8) 0.0653(3)
H5 H 0.3367 0.4406 -0.0060
C8 C 0.33124(7) 0.43095(8) 0.2108(3)
C9 C 0.35474(7) 0.47434(7) 0.2537(2)
H6 H 0.3661 0.4964 0.1843
C10 C 0.36105(7) 0.48442(7) 0.3942(2)
C11 C 0.38835(6) 0.52861(6) 0.4563(2)
H7 H 0.4017 0.5509 0.3808
C12 C 0.42134(7) 0.52586(7) 0.5468(2)
C13 C 0.46467(7) 0.54901(7) 0.5301(2)
H8 H 0.4767 0.5709 0.4603
C14 C 0.49162(7) 0.54049(7) 0.6167(2)
C15 C 0.53612(7) 0.56146(7) 0.5967(2)
H9 H 0.5488 0.5825 0.5246
C16 C 0.56137(8) 0.55216(8) 0.6785(3)
H10 H 0.5914 0.5666 0.6634
C17 C 0.54305(8) 0.52115(9) 0.7854(3)
H11 H 0.5609 0.5151 0.8435
C18 C 0.50031(8) 0.49968(8) 0.8070(2)
H12 H 0.4884 0.4783 0.8784
C19 C 0.47336(7) 0.50890(7) 0.7240(2)
C20 C 0.42849(7) 0.48619(7) 0.7412(2)
H13 H 0.4160 0.4655 0.8145
C21 C 0.40300(7) 0.49376(7) 0.6530(2)
C22 C 0.35480(7) 0.46931(7) 0.6483(2)
H14 H 0.3425 0.4460 0.7209
C23 C 0.33791(7) 0.50077(7) 0.6667(2)
H15 H 0.3062 0.4854 0.6553
C24 C 0.35922(6) 0.53699(6) 0.5562(2)
H16 H 0.3368 0.5387 0.4992
C25 C 0.38394(7) 0.57720(7) 0.6419(2)
C26 C 0.35043(7) 0.52328(7) 0.8083(2)
C27 C 0.3939(5) 0.5966(4) 0.9017(14)
C28 C 0.4246(4) 0.5982(3) 0.9939(11)
C29 C 0.43847(16) 0.62794(13) 1.1035(5)
H17 H 0.4579 0.6282 1.1720
C30 C 0.42469(16) 0.65688(16) 1.1145(5)
H18 H 0.4352 0.6773 1.1890
C31 C 0.3954(2) 0.6567(3) 1.0175(7)
H19 H 0.3867 0.6774 1.0230
C32 C 0.3792(2) 0.6254(3) 0.9128(8)
H20 H 0.3582 0.6238 0.8487
C33 C 0.44353(9) 0.56873(9) 0.9760(3)
H21 H 0.4533 0.5704 0.8779
H22 H 0.4216 0.5393 0.9976
H23 H 0.4677 0.5777 1.0410
C34? C 0.399(2) 0.5994(14) 0.891(5)
C35? C 0.3886(10) 0.6314(10) 0.908(3)
C36? C 0.4065(9) 0.6558(9) 1.029(3)
H24? H 0.3999 0.6774 1.0534
C37? C 0.4333(7) 0.6493(6) 1.114(2)
H25? H 0.4470 0.6688 1.1899
C38? C 0.4422(7) 0.6162(6) 1.099(2)
H26? H 0.4599 0.6118 1.1632
C39? C 0.4233(14) 0.5902(11) 0.981(4)
H27? H 0.4271 0.5665 0.9634
C40? C 0.3572(3) 0.6376(3) 0.8140(10)
H28? H 0.3339 0.6096 0.7835
H29? H 0.3722 0.6546 0.7304
H30? H 0.3454 0.6524 0.8686
loop_
_geom_bond_atom_site_label_1
_geom_bond_atom_site_label_2
_geom_bond_site_symmetry_1
_geom_bond_site_symmetry_2
O1 C26 1_555 1_555
O2 C25 1_555 1_555
N1 C25 1_555 1_555
C1 C2 1_555 1_555
C2 H1 1_555 1_555
C3 C2 1_555 1_555
C4 C3 1_555 1_555
H2 C4 1_555 1_555
C5 C4 1_555 1_555
H3 C5 1_555 1_555
C6 C5 1_555 1_555
H4 C6 1_555 1_555
C7 C6 1_555 1_555
H5 C7 1_555 1_555
C8 C3 1_555 1_555
C9 C8 1_555 1_555
H6 C9 1_555 1_555
C10 C1 1_555 1_555
C11 C10 1_555 1_555
H7 C11 1_555 1_555
C12 C11 1_555 1_555
C13 C12 1_555 1_555
H8 C13 1_555 1_555
C14 C13 1_555 1_555
C15 C14 1_555 1_555
H9 C15 1_555 1_555
C16 C15 1_555 1_555
H10 C16 1_555 1_555
C17 C16 1_555 1_555
H11 C17 1_555 1_555
C18 C17 1_555 1_555
H12 C18 1_555 1_555
C19 C14 1_555 1_555
C20 C19 1_555 1_555
H13 C20 1_555 1_555
C21 C12 1_555 1_555
C22 C1 1_555 1_555
H14 C22 1_555 1_555
C23 C22 1_555 1_555
H15 C23 1_555 1_555
C24 C11 1_555 1_555
H16 C24 1_555 1_555
C25 C24 1_555 1_555
C26 N1 1_555 1_555
C27 N1 1_555 1_555
C28 C27 1_555 1_555
C29 C28 1_555 1_555
H17 C29 1_555 1_555
C30 C29 1_555 1_555
H18 C30 1_555 1_555
C31 C30 1_555 1_555
H19 C31 1_555 1_555
C32 C27 1_555 1_555
H20 C32 1_555 1_555
C33 C28 1_555 1_555
H21 C33 1_555 1_555
H22 C33 1_555 1_555
H23 C33 1_555 1_555
C7 C8 1_555 1_555
C9 C10 1_555 1_555
C18 C19 1_555 1_555
C20 C21 1_555 1_555
C21 C22 1_555 1_555
C23 C24 1_555 1_555
C23 C26 1_555 1_555
C31 C32 1_555 1_555

#END
