
#######################################################################
#
#                 Cambridge Crystallographic Data Centre
#                                CCDC 
#
#######################################################################
#
# If this CIF has been generated from an entry in the Cambridge 
# Structural Database, then it will include bibliographic, chemical, 
# crystal, experimental, refinement or atomic coordinate data resulting 
# from the CCDC's data processing and validation procedures.
#
#######################################################################

data_TUVTEK
_chemical_formula_moiety         'C32 H38 B1 N1 Si1'
_chemical_name_systematic        
6,6-Dimesityl-3-(trimethylsilyl)-6H-5\l^5^,6\l^5^-pyrido[1,2-b][2,1]benzazaborole
_symmetry_cell_setting           monoclinic
_symmetry_space_group_name_H-M   'P 21/c'
_symmetry_Int_Tables_number      14
_space_group_name_Hall           '-P 2ybc'
loop_
_symmetry_equiv_pos_site_id
_symmetry_equiv_pos_as_xyz
1 x,y,z
2 -x,1/2+y,1/2-z
3 -x,-y,-z
4 x,1/2-y,1/2+z
_cell_length_a                   21.482(5)
_cell_length_b                   16.869(4)
_cell_length_c                   16.514(4)
_cell_angle_alpha                90
_cell_angle_beta                 111.182(4)
_cell_angle_gamma                90
_cell_volume                     5580.02
_exptl_crystal_colour            colorless
_exptl_crystal_description       needle
_cell_formula_units_Z            8
loop_
_atom_site_label
_atom_site_type_symbol
_atom_site_fract_x
_atom_site_fract_y
_atom_site_fract_z
Si1 Si 0.35995(5) 0.54453(7) 0.04951(8)
N1 N 0.40822(14) 0.33977(17) 0.1961(2)
C1 C 0.39669(17) 0.4158(2) 0.1682(3)
H1 H 0.4063 0.4566 0.2106
C2 C 0.37184(17) 0.4375(2) 0.0817(3)
C3 C 0.35730(18) 0.3750(2) 0.0221(3)
H2 H 0.3408 0.3866 -0.0382
C4 C 0.36628(18) 0.2969(2) 0.0486(3)
H3 H 0.3556 0.2552 0.0071
C5 C 0.39089(17) 0.2802(2) 0.1361(3)
C6 C 0.40284(17) 0.2037(2) 0.1803(3)
C7 C 0.39204(19) 0.1295(2) 0.1393(3)
H4 H 0.3770 0.1251 0.0779
C8 C 0.4040(2) 0.0633(2) 0.1913(3)
H5 H 0.3969 0.0121 0.1657
C9 C 0.4263(2) 0.0709(2) 0.2804(4)
H6 H 0.4338 0.0245 0.3152
C10 C 0.43813(19) 0.1449(2) 0.3209(3)
H7 H 0.4553 0.1486 0.3825
C11 C 0.42446(17) 0.2133(2) 0.2702(3)
C12 C 0.3855(2) 0.6061(2) 0.1492(3)
H8 H 0.3772 0.6621 0.1331
H9 H 0.4332 0.5983 0.1822
H10 H 0.3597 0.5906 0.1849
C13 C 0.2707(2) 0.5604(3) -0.0196(3)
H11 H 0.2652 0.6135 -0.0452
H12 H 0.2430 0.5553 0.0160
H13 H 0.2570 0.5206 -0.0660
C14 C 0.4128(2) 0.5651(3) -0.0164(3)
H14 H 0.4117 0.6220 -0.0290
H15 H 0.3955 0.5354 -0.0710
H16 H 0.4588 0.5488 0.0162
C15 C 0.38985(17) 0.3558(2) 0.3405(2)
C16 C 0.32839(17) 0.3258(2) 0.3405(3)
C17 C 0.29014(19) 0.3698(2) 0.3773(3)
H17 H 0.2496 0.3475 0.3775
C18 C 0.3085(2) 0.4438(3) 0.4134(3)
C19 C 0.36767(19) 0.4739(2) 0.4108(3)
H18 H 0.3814 0.5253 0.4339
C20 C 0.40768(17) 0.4327(2) 0.3763(3)
C21 C 0.29991(18) 0.2472(2) 0.3010(3)
H19 H 0.2554 0.2403 0.3038
H20 H 0.3292 0.2043 0.3333
H21 H 0.2965 0.2457 0.2402
C22 C 0.2652(2) 0.4881(3) 0.4516(3)
H22 H 0.2429 0.4505 0.4773
H23 H 0.2316 0.5186 0.4059
H24 H 0.2928 0.5244 0.4966
C23 C 0.47139(18) 0.4747(2) 0.3799(3)
H25 H 0.4633 0.5319 0.3732
H26 H 0.4850 0.4552 0.3329
H27 H 0.5069 0.4640 0.4359
C24 C 0.51763(17) 0.3144(2) 0.3474(3)
C25 C 0.54365(18) 0.2995(2) 0.4375(3)
C26 C 0.61276(19) 0.2971(2) 0.4842(3)
H28 H 0.6284 0.2873 0.5450
C27 C 0.65817(18) 0.3085(2) 0.4446(3)
C28 C 0.63351(18) 0.3224(2) 0.3563(3)
H29 H 0.6642 0.3308 0.3277
C29 C 0.56569(17) 0.3245(2) 0.3078(3)
C30 C 0.5480(2) 0.3353(3) 0.2108(3)
H30 H 0.5890 0.3418 0.1984
H31 H 0.5199 0.3825 0.1914
H32 H 0.5236 0.2886 0.1801
C31 C 0.73292(18) 0.3007(3) 0.4936(3)
H33 H 0.7418 0.2969 0.5560
H34 H 0.7558 0.3472 0.4821
H35 H 0.7493 0.2528 0.4743
C32 C 0.50063(19) 0.2855(3) 0.4915(3)
H36 H 0.5247 0.2517 0.5412
H37 H 0.4590 0.2594 0.4558
H38 H 0.4904 0.3364 0.5124
B1 B 0.4362(2) 0.3073(3) 0.2963(3)
Si2 Si 0.14950(6) 0.53891(7) -0.30778(9)
N2 N 0.09075(14) 0.33806(18) -0.2109(2)
C33 C 0.10513(17) 0.4131(2) -0.2262(3)
H39 H 0.0977 0.4543 -0.1915
C34 C 0.13017(17) 0.4334(2) -0.2897(3)
C35 C 0.14156(19) 0.3702(3) -0.3371(3)
H40 H 0.1578 0.3810 -0.3824
C36 C 0.12993(18) 0.2927(2) -0.3204(3)
H41 H 0.1389 0.2505 -0.3527
C37 C 0.10492(16) 0.2778(2) -0.2555(3)
C38 C 0.09109(16) 0.2026(2) -0.2222(3)
C39 C 0.09903(19) 0.1277(3) -0.2540(3)
H42 H 0.1123 0.1224 -0.3027
C40 C 0.0870(2) 0.0620(3) -0.2121(3)
H43 H 0.0941 0.0104 -0.2301
C41 C 0.0647(2) 0.0711(2) -0.1440(3)
H44 H 0.0551 0.0252 -0.1172
C42 C 0.05585(19) 0.1452(2) -0.1136(3)
H45 H 0.0401 0.1497 -0.0669
C43 C 0.07033(16) 0.2134(2) -0.1520(3)
C44 C 0.1214(2) 0.6037(2) -0.2378(3)
H46 H 0.1300 0.6592 -0.2481
H47 H 0.1459 0.5904 -0.1768
H48 H 0.0735 0.5961 -0.2514
C45 C 0.1052(3) 0.5625(3) -0.4249(3)
H49 H 0.1124 0.6184 -0.4353
H50 H 0.0573 0.5525 -0.4408
H51 H 0.1227 0.5290 -0.4603
C46 C 0.2406(3) 0.5460(3) -0.2809(4)
H52 H 0.2522 0.6002 -0.2915
H53 H 0.2541 0.5091 -0.3173
H54 H 0.2638 0.5326 -0.2196
C47 C 0.10693(17) 0.3559(2) -0.0501(2)
C48 C 0.16765(17) 0.3260(2) 0.0099(3)
C49 C 0.20540(16) 0.3693(2) 0.0827(3)
H55 H 0.2458 0.3470 0.1214
C50 C 0.18682(17) 0.4429(2) 0.1009(3)
C51 C 0.12890(17) 0.4746(2) 0.0419(3)
H56 H 0.1155 0.5261 0.0520
C52 C 0.08919(16) 0.4330(2) -0.0326(3)
C53 C 0.19646(17) 0.2475(2) -0.0029(3)
H57 H 0.2382 0.2376 0.0460
H58 H 0.2054 0.2488 -0.0571
H59 H 0.1645 0.2050 -0.0060
C54 C 0.22826(19) 0.4880(2) 0.1812(3)
H60 H 0.2672 0.4562 0.2149
H61 H 0.2013 0.4991 0.2167
H62 H 0.2432 0.5381 0.1642
C55 C 0.02736(18) 0.4771(2) -0.0904(3)
H63 H 0.0361 0.5342 -0.0859
H64 H -0.0101 0.4652 -0.0718
H65 H 0.0162 0.4601 -0.1508
C56 C -0.02115(16) 0.3162(2) -0.1649(3)
C57 C -0.06766(17) 0.3281(2) -0.2504(3)
C58 C -0.13611(18) 0.3263(2) -0.2674(3)
H66 H -0.1661 0.3363 -0.3249
C59 C -0.16194(19) 0.3105(2) -0.2035(3)
C60 C -0.11733(19) 0.2985(2) -0.1205(3)
H67 H -0.1337 0.2883 -0.0752
C61 C -0.04808(18) 0.3010(2) -0.1010(3)
C62 C -0.0065(2) 0.2872(3) -0.0057(3)
H68 H 0.0344 0.2586 -0.0009
H69 H -0.0323 0.2559 0.0211
H70 H 0.0053 0.3384 0.0240
C63 C -0.23700(18) 0.3021(3) -0.2265(4)
H71 H -0.2477 0.3097 -0.1741
H72 H -0.2512 0.2491 -0.2502
H73 H -0.2603 0.3422 -0.2698
C64 C -0.0491(2) 0.3404(3) -0.3289(3)
H74 H -0.0896 0.3489 -0.3801
H75 H -0.0255 0.2934 -0.3380
H76 H -0.0200 0.3868 -0.3199
B2 B 0.0610(2) 0.3082(3) -0.1373(3)
loop_
_geom_bond_atom_site_label_1
_geom_bond_atom_site_label_2
_geom_bond_site_symmetry_1
_geom_bond_site_symmetry_2
Si1 C2 1_555 1_555
N1 C1 1_555 1_555
C1 H1 1_555 1_555
C2 C1 1_555 1_555
C3 C2 1_555 1_555
H2 C3 1_555 1_555
C4 C3 1_555 1_555
H3 C4 1_555 1_555
C5 N1 1_555 1_555
C6 C5 1_555 1_555
C7 C6 1_555 1_555
H4 C7 1_555 1_555
C8 C7 1_555 1_555
H5 C8 1_555 1_555
C9 C8 1_555 1_555
H6 C9 1_555 1_555
C10 C9 1_555 1_555
H7 C10 1_555 1_555
C11 C6 1_555 1_555
C12 Si1 1_555 1_555
H8 C12 1_555 1_555
H9 C12 1_555 1_555
H10 C12 1_555 1_555
C13 Si1 1_555 1_555
H11 C13 1_555 1_555
H12 C13 1_555 1_555
H13 C13 1_555 1_555
C14 Si1 1_555 1_555
H14 C14 1_555 1_555
H15 C14 1_555 1_555
H16 C14 1_555 1_555
C15 C16 1_555 1_555
C16 C17 1_555 1_555
C17 H17 1_555 1_555
C18 C17 1_555 1_555
C19 C18 1_555 1_555
H18 C19 1_555 1_555
C20 C15 1_555 1_555
C21 C16 1_555 1_555
H19 C21 1_555 1_555
H20 C21 1_555 1_555
H21 C21 1_555 1_555
C22 C18 1_555 1_555
H22 C22 1_555 1_555
H23 C22 1_555 1_555
H24 C22 1_555 1_555
C23 C20 1_555 1_555
H25 C23 1_555 1_555
H26 C23 1_555 1_555
H27 C23 1_555 1_555
C24 C25 1_555 1_555
C25 C26 1_555 1_555
C26 H28 1_555 1_555
C27 C26 1_555 1_555
C28 C27 1_555 1_555
H29 C28 1_555 1_555
C29 C24 1_555 1_555
C30 C29 1_555 1_555
H30 C30 1_555 1_555
H31 C30 1_555 1_555
H32 C30 1_555 1_555
C31 C27 1_555 1_555
H33 C31 1_555 1_555
H34 C31 1_555 1_555
H35 C31 1_555 1_555
C32 C25 1_555 1_555
H36 C32 1_555 1_555
H37 C32 1_555 1_555
H38 C32 1_555 1_555
B1 N1 1_555 1_555
Si2 C34 1_555 1_555
N2 C33 1_555 1_555
C33 H39 1_555 1_555
C34 C33 1_555 1_555
C35 C34 1_555 1_555
H40 C35 1_555 1_555
C36 C35 1_555 1_555
H41 C36 1_555 1_555
C37 N2 1_555 1_555
C38 C37 1_555 1_555
C39 C38 1_555 1_555
H42 C39 1_555 1_555
C40 C39 1_555 1_555
H43 C40 1_555 1_555
C41 C40 1_555 1_555
H44 C41 1_555 1_555
C42 C41 1_555 1_555
H45 C42 1_555 1_555
C43 C38 1_555 1_555
C44 Si2 1_555 1_555
H46 C44 1_555 1_555
H47 C44 1_555 1_555
H48 C44 1_555 1_555
C45 Si2 1_555 1_555
H49 C45 1_555 1_555
H50 C45 1_555 1_555
H51 C45 1_555 1_555
C46 Si2 1_555 1_555
H52 C46 1_555 1_555
H53 C46 1_555 1_555
H54 C46 1_555 1_555
C47 C48 1_555 1_555
C48 C49 1_555 1_555
C49 H55 1_555 1_555
C50 C49 1_555 1_555
C51 C50 1_555 1_555
H56 C51 1_555 1_555
C52 C47 1_555 1_555
C53 C48 1_555 1_555
H57 C53 1_555 1_555
H58 C53 1_555 1_555
H59 C53 1_555 1_555
C54 C50 1_555 1_555
H60 C54 1_555 1_555
H61 C54 1_555 1_555
H62 C54 1_555 1_555
C55 C52 1_555 1_555
H63 C55 1_555 1_555
H64 C55 1_555 1_555
H65 C55 1_555 1_555
C56 C57 1_555 1_555
C57 C58 1_555 1_555
C58 H66 1_555 1_555
C59 C58 1_555 1_555
C60 C59 1_555 1_555
H67 C60 1_555 1_555
C61 C56 1_555 1_555
C62 C61 1_555 1_555
H68 C62 1_555 1_555
H69 C62 1_555 1_555
H70 C62 1_555 1_555
C63 C59 1_555 1_555
H71 C63 1_555 1_555
H72 C63 1_555 1_555
H73 C63 1_555 1_555
C64 C57 1_555 1_555
H74 C64 1_555 1_555
H75 C64 1_555 1_555
H76 C64 1_555 1_555
B2 N2 1_555 1_555
C4 C5 1_555 1_555
C10 C11 1_555 1_555
C11 B1 1_555 1_555
C15 B1 1_555 1_555
C19 C20 1_555 1_555
C24 B1 1_555 1_555
C28 C29 1_555 1_555
C36 C37 1_555 1_555
C42 C43 1_555 1_555
C43 B2 1_555 1_555
C47 B2 1_555 1_555
C51 C52 1_555 1_555
C56 B2 1_555 1_555
C60 C61 1_555 1_555

#END
