
#######################################################################
#
#                 Cambridge Crystallographic Data Centre
#                                CCDC 
#
#######################################################################
#
# If this CIF has been generated from an entry in the Cambridge 
# Structural Database, then it will include bibliographic, chemical, 
# crystal, experimental, refinement or atomic coordinate data resulting 
# from the CCDC's data processing and validation procedures.
#
#######################################################################

data_TUVTAG
_chemical_formula_moiety         'C29 H26 B1 F4 N1'
_chemical_name_systematic        
7,8,9,10-Tetrafluoro-6,6-dimesityl-6H-5\l^5^,6\l^5^-pyrido[1,2-b][2,1]benzazaborole
_symmetry_cell_setting           monoclinic
_symmetry_space_group_name_H-M   'P 21/c'
_symmetry_Int_Tables_number      14
_space_group_name_Hall           '-P 2ybc'
loop_
_symmetry_equiv_pos_site_id
_symmetry_equiv_pos_as_xyz
1 x,y,z
2 -x,1/2+y,1/2-z
3 -x,-y,-z
4 x,1/2-y,1/2+z
_cell_length_a                   11.514(3)
_cell_length_b                   12.665(3)
_cell_length_c                   15.632(4)
_cell_angle_alpha                90
_cell_angle_beta                 92.628(3)
_cell_angle_gamma                90
_cell_volume                     2277.14
_exptl_crystal_colour            colorless
_exptl_crystal_description       block
_cell_formula_units_Z            4
loop_
_atom_site_label
_atom_site_type_symbol
_atom_site_fract_x
_atom_site_fract_y
_atom_site_fract_z
B1 B 0.8003(3) 0.7705(3) 0.0833(2)
N1 N 0.8337(2) 0.8617(2) 0.01222(15)
C1 C 0.9186(3) 0.8582(3) -0.04411(19)
H1 H 0.9662 0.7970 -0.0460
C2 C 0.9383(3) 0.9403(3) -0.0990(2)
H2 H 0.9972 0.9351 -0.1394
C3 C 0.8721(3) 1.0296(3) -0.0947(2)
H3 H 0.8851 1.0871 -0.1322
C4 C 0.7867(3) 1.0366(3) -0.0362(2)
H4 H 0.7416 1.0990 -0.0316
C5 C 0.7680(3) 0.9500(3) 0.01583(18)
C6 C 0.6789(3) 0.9343(3) 0.07722(19)
C7 C 0.5894(3) 1.0025(3) 0.09450(19)
C8 C 0.5086(3) 0.9727(3) 0.1501(2)
C9 C 0.5138(3) 0.8749(3) 0.18668(19)
C10 C 0.6041(3) 0.8071(3) 0.16953(19)
C11 C 0.6893(3) 0.8353(2) 0.11740(18)
C12 C 0.7492(3) 0.6596(2) 0.04440(18)
C13 C 0.6909(3) 0.6509(3) -0.03683(19)
C14 C 0.6477(3) 0.5545(3) -0.0665(2)
H5 H 0.6126 0.5509 -0.1226
C15 C 0.6538(3) 0.4640(3) -0.0179(2)
C16 C 0.7036(3) 0.4737(3) 0.0637(2)
H6 H 0.7058 0.4134 0.0998
C17 C 0.7507(3) 0.5672(3) 0.0954(2)
C18 C 0.6643(3) 0.7448(3) -0.0933(2)
H7 H 0.6045 0.7256 -0.1372
H8 H 0.7351 0.7668 -0.1209
H9 H 0.6361 0.8030 -0.0586
C19 C 0.6036(4) 0.3611(3) -0.0496(3)
H10 H 0.5938 0.3136 -0.0010
H11 H 0.6563 0.3287 -0.0895
H12 H 0.5279 0.3738 -0.0790
C20 C 0.7994(3) 0.5613(3) 0.1867(2)
H13 H 0.7576 0.5070 0.2177
H14 H 0.7899 0.6298 0.2146
H15 H 0.8821 0.5432 0.1869
C21 C 0.9190(3) 0.7620(2) 0.14454(18)
C22 C 1.0107(3) 0.6940(3) 0.12229(19)
C23 C 1.1079(3) 0.6796(3) 0.1772(2)
H16 H 1.1683 0.6345 0.1595
C24 C 1.1204(3) 0.7273(3) 0.2555(2)
C25 C 1.0349(3) 0.7981(3) 0.2757(2)
H17 H 1.0427 0.8350 0.3285
C26 C 0.9388(3) 0.8175(3) 0.22231(18)
C27 C 1.0114(3) 0.6286(3) 0.0419(2)
H18 H 1.0800 0.6465 0.0099
H19 H 0.9409 0.6433 0.0063
H20 H 1.0137 0.5535 0.0570
C28 C 1.2226(3) 0.7027(3) 0.3152(2)
H21 H 1.2660 0.6432 0.2925
H22 H 1.1951 0.6843 0.3717
H23 H 1.2735 0.7647 0.3203
C29 C 0.8571(3) 0.9007(3) 0.2538(2)
H24 H 0.8942 0.9378 0.3028
H25 H 0.7853 0.8671 0.2713
H26 H 0.8387 0.9513 0.2077
F1 F 0.57953(18) 1.09761(15) 0.05587(12)
F2 F 0.42058(19) 1.03792(17) 0.16760(13)
F3 F 0.43204(19) 0.84603(18) 0.23936(13)
F4 F 0.60374(18) 0.71361(15) 0.20791(11)
loop_
_geom_bond_atom_site_label_1
_geom_bond_atom_site_label_2
_geom_bond_site_symmetry_1
_geom_bond_site_symmetry_2
B1 N1 1_555 1_555
N1 C1 1_555 1_555
C1 H1 1_555 1_555
C2 C1 1_555 1_555
H2 C2 1_555 1_555
C3 C2 1_555 1_555
H3 C3 1_555 1_555
C4 C3 1_555 1_555
H4 C4 1_555 1_555
C5 N1 1_555 1_555
C6 C5 1_555 1_555
C7 C6 1_555 1_555
C8 C7 1_555 1_555
C9 C8 1_555 1_555
C10 C9 1_555 1_555
C11 B1 1_555 1_555
C12 B1 1_555 1_555
C13 C12 1_555 1_555
C14 C13 1_555 1_555
H5 C14 1_555 1_555
C15 C14 1_555 1_555
C16 C15 1_555 1_555
H6 C16 1_555 1_555
C17 C12 1_555 1_555
C18 C13 1_555 1_555
H7 C18 1_555 1_555
H8 C18 1_555 1_555
H9 C18 1_555 1_555
C19 C15 1_555 1_555
H10 C19 1_555 1_555
H11 C19 1_555 1_555
H12 C19 1_555 1_555
C20 C17 1_555 1_555
H13 C20 1_555 1_555
H14 C20 1_555 1_555
H15 C20 1_555 1_555
C21 B1 1_555 1_555
C22 C21 1_555 1_555
C23 C22 1_555 1_555
H16 C23 1_555 1_555
C24 C23 1_555 1_555
C25 C24 1_555 1_555
H17 C25 1_555 1_555
C26 C21 1_555 1_555
C27 C22 1_555 1_555
H18 C27 1_555 1_555
H19 C27 1_555 1_555
H20 C27 1_555 1_555
C28 C24 1_555 1_555
H21 C28 1_555 1_555
H22 C28 1_555 1_555
H23 C28 1_555 1_555
C29 C26 1_555 1_555
H24 C29 1_555 1_555
H25 C29 1_555 1_555
H26 C29 1_555 1_555
F1 C7 1_555 1_555
F2 C8 1_555 1_555
F3 C9 1_555 1_555
F4 C10 1_555 1_555
C4 C5 1_555 1_555
C6 C11 1_555 1_555
C10 C11 1_555 1_555
C16 C17 1_555 1_555
C25 C26 1_555 1_555

#END
