
#######################################################################
#
#                 Cambridge Crystallographic Data Centre
#                                CCDC 
#
#######################################################################
#
# If this CIF has been generated from an entry in the Cambridge 
# Structural Database, then it will include bibliographic, chemical, 
# crystal, experimental, refinement or atomic coordinate data resulting 
# from the CCDC's data processing and validation procedures.
#
#######################################################################

data_TUVVAJ
_chemical_formula_moiety         'C29 H24 N2 O2 S1'
_chemical_name_systematic        
1-((4-methylphenyl)sulfonyl)-2,4,6-triphenyl-1,6-dihydropyrimidine
_symmetry_cell_setting           orthorhombic
_symmetry_space_group_name_H-M   'P n a 21'
_symmetry_Int_Tables_number      33
_space_group_name_Hall           'P 2c -2n'
loop_
_symmetry_equiv_pos_site_id
_symmetry_equiv_pos_as_xyz
1 x,y,z
2 -x,-y,1/2+z
3 1/2-x,1/2+y,1/2+z
4 1/2+x,1/2-y,z
_cell_length_a                   17.047(5)
_cell_length_b                   13.075(4)
_cell_length_c                   21.442(6)
_cell_angle_alpha                90
_cell_angle_beta                 90
_cell_angle_gamma                90
_cell_volume                     4779.2
_exptl_crystal_colour            colorless
_exptl_crystal_description       block
_cell_formula_units_Z            8
loop_
_atom_site_label
_atom_site_type_symbol
_atom_site_fract_x
_atom_site_fract_y
_atom_site_fract_z
N1 N 0.35122(14) -0.4010(2) 0.02770(12)
C1 C 0.37193(17) -0.3913(3) -0.03694(14)
N2 N 0.38240(14) -0.4708(2) -0.07136(12)
C2 C 0.37587(18) -0.5681(3) -0.04349(14)
C3 C 0.32935(18) -0.5813(3) 0.00640(15)
H1 H 0.3173 -0.6467 0.0205
C4 C 0.29726(17) -0.4898(2) 0.03893(15)
H2 H 0.2973 -0.5042 0.0838
S1 S 0.42511(4) -0.38386(7) 0.07808(3)
O1 O 0.39801(13) -0.42236(19) 0.13647(10)
O2 O 0.44777(12) -0.27885(17) 0.07267(11)
C5 C 0.50366(18) -0.4596(3) 0.05154(14)
C6 C 0.55478(19) -0.4219(3) 0.00689(15)
H3 H 0.5500 -0.3551 -0.0074
C7 C 0.6130(2) -0.4853(3) -0.01606(16)
H4 H 0.6475 -0.4602 -0.0459
C8 C 0.6210(2) -0.5850(3) 0.00432(16)
C9 C 0.5700(2) -0.6199(3) 0.04992(16)
H5 H 0.5757 -0.6860 0.0651
C10 C 0.51120(19) -0.5589(3) 0.07318(16)
H6 H 0.4768 -0.5841 0.1031
C11 C 0.6829(2) -0.6547(3) -0.02297(19)
H7 H 0.6798 -0.7206 -0.0034
H8 H 0.7339 -0.6258 -0.0159
H9 H 0.6743 -0.6619 -0.0670
C12 C 0.37882(17) -0.2875(3) -0.06314(14)
C13 C 0.42183(19) -0.2717(3) -0.11726(16)
H10 H 0.4468 -0.3264 -0.1366
C14 C 0.4277(2) -0.1742(3) -0.14266(17)
H11 H 0.4567 -0.1636 -0.1788
C15 C 0.3903(2) -0.0929(3) -0.11403(16)
H12 H 0.3940 -0.0278 -0.1312
C16 C 0.3476(2) -0.1077(3) -0.06025(16)
H13 H 0.3232 -0.0525 -0.0409
C17 C 0.34105(19) -0.2048(3) -0.03506(16)
H14 H 0.3113 -0.2150 0.0008
C18 C 0.42248(18) -0.6501(3) -0.07316(16)
C19 C 0.42272(19) -0.7476(3) -0.04856(19)
H15 H 0.3920 -0.7617 -0.0138
C20 C 0.4676(2) -0.8248(3) -0.07443(17)
H16 H 0.4659 -0.8902 -0.0576
C21 C 0.5149(2) -0.8048(3) -0.12527(18)
H17 H 0.5451 -0.8564 -0.1429
C22 C 0.5167(2) -0.7079(3) -0.14941(18)
H18 H 0.5489 -0.6935 -0.1833
C23 C 0.4705(2) -0.6305(3) -0.12353(17)
H19 H 0.4721 -0.5650 -0.1404
C24 C 0.21479(18) -0.4555(2) 0.02089(14)
C25 C 0.1808(2) -0.4812(3) -0.03533(17)
H20 H 0.2077 -0.5231 -0.0631
C26 C 0.1066(2) -0.4447(3) -0.05096(17)
H21 H 0.0842 -0.4617 -0.0891
C27 C 0.0666(2) -0.3837(3) -0.00973(17)
H22 H 0.0169 -0.3596 -0.0199
C28 C 0.09967(19) -0.3580(3) 0.04663(16)
H23 H 0.0722 -0.3170 0.0746
C29 C 0.17400(18) -0.3933(3) 0.06176(14)
H24 H 0.1966 -0.3750 0.0996
N3 N 0.41826(15) -0.9002(2) 0.15975(12)
C30 C 0.39821(18) -0.8923(3) 0.22460(15)
N4 N 0.38751(14) -0.9723(2) 0.25840(12)
C31 C 0.39229(18) -1.0695(3) 0.22883(14)
C32 C 0.43766(18) -1.0816(3) 0.17903(15)
H25 H 0.4489 -1.1468 0.1642
C33 C 0.47057(17) -0.9895(2) 0.14698(14)
H26 H 0.4689 -1.0026 0.1020
S2 S 0.34443(4) -0.87917(7) 0.11018(4)
O3 O 0.37026(13) -0.91618(19) 0.05073(10)
O4 O 0.32280(12) -0.77371(18) 0.11737(11)
C34 C 0.26534(19) -0.9554(3) 0.13522(14)
C35 C 0.2573(2) -1.0523(3) 0.11060(17)
H27 H 0.2912 -1.0757 0.0797
C36 C 0.1972(2) -1.1145(3) 0.13314(17)
H28 H 0.1904 -1.1795 0.1163
C37 C 0.1475(2) -1.0819(3) 0.17979(18)
C38 C 0.1569(2) -0.9843(3) 0.20343(17)
H29 H 0.1234 -0.9614 0.2347
C39 C 0.2155(2) -0.9197(3) 0.18139(16)
H30 H 0.2210 -0.8539 0.1973
C40 C 0.0854(2) -1.1520(3) 0.2054(2)
H31 H 0.0564 -1.1171 0.2373
H32 H 0.1097 -1.2118 0.2227
H33 H 0.0505 -1.1718 0.1724
C41 C 0.39086(19) -0.7892(3) 0.25189(15)
C42 C 0.4306(2) -0.7059(3) 0.22661(16)
H34 H 0.4614 -0.7147 0.1912
C43 C 0.4246(2) -0.6106(3) 0.25357(18)
H35 H 0.4517 -0.5555 0.2366
C44 C 0.3782(2) -0.5968(3) 0.30588(17)
H36 H 0.3735 -0.5322 0.3237
C45 C 0.3388(2) -0.6793(3) 0.33155(18)
H37 H 0.3084 -0.6704 0.3671
C46 C 0.3446(2) -0.7743(3) 0.30459(15)
H38 H 0.3174 -0.8292 0.3217
C47 C 0.34217(18) -1.1496(3) 0.25735(15)
C48 C 0.33676(19) -1.2464(3) 0.23027(18)
H39 H 0.3668 -1.2616 0.1953
C49 C 0.2873(2) -1.3200(3) 0.25471(17)
H40 H 0.2841 -1.3839 0.2359
C50 C 0.2430(2) -1.2991(3) 0.30670(16)
H41 H 0.2100 -1.3488 0.3232
C51 C 0.2479(2) -1.2037(3) 0.33433(17)
H42 H 0.2184 -1.1895 0.3697
C52 C 0.29643(18) -1.1295(3) 0.30959(15)
H43 H 0.2985 -1.0652 0.3281
C53 C 0.55436(17) -0.9575(2) 0.16335(14)
C54 C 0.59228(18) -0.8919(3) 0.12249(15)
H44 H 0.5671 -0.8706 0.0863
C55 C 0.66744(19) -0.8580(3) 0.13532(16)
H45 H 0.6928 -0.8146 0.1075
C56 C 0.7049(2) -0.8884(3) 0.18921(17)
H46 H 0.7549 -0.8641 0.1983
C57 C 0.6677(2) -0.9550(3) 0.22961(17)
H47 H 0.6934 -0.9770 0.2654
C58 C 0.59161(19) -0.9897(3) 0.21691(16)
H48 H 0.5665 -1.0340 0.2443
loop_
_geom_bond_atom_site_label_1
_geom_bond_atom_site_label_2
_geom_bond_site_symmetry_1
_geom_bond_site_symmetry_2
N1 C1 1_555 1_555
C1 N2 1_555 1_555
N2 C2 1_555 1_555
C2 C3 1_555 1_555
C3 H1 1_555 1_555
C4 N1 1_555 1_555
H2 C4 1_555 1_555
S1 N1 1_555 1_555
O1 S1 1_555 1_555
O2 S1 1_555 1_555
C5 S1 1_555 1_555
C6 C5 1_555 1_555
H3 C6 1_555 1_555
C7 C6 1_555 1_555
H4 C7 1_555 1_555
C8 C7 1_555 1_555
C9 C8 1_555 1_555
H5 C9 1_555 1_555
C10 C5 1_555 1_555
H6 C10 1_555 1_555
C11 C8 1_555 1_555
H7 C11 1_555 1_555
H8 C11 1_555 1_555
H9 C11 1_555 1_555
C12 C1 1_555 1_555
C13 C12 1_555 1_555
H10 C13 1_555 1_555
C14 C13 1_555 1_555
H11 C14 1_555 1_555
C15 C14 1_555 1_555
H12 C15 1_555 1_555
C16 C15 1_555 1_555
H13 C16 1_555 1_555
C17 C12 1_555 1_555
H14 C17 1_555 1_555
C18 C2 1_555 1_555
C19 C18 1_555 1_555
H15 C19 1_555 1_555
C20 C19 1_555 1_555
H16 C20 1_555 1_555
C21 C20 1_555 1_555
H17 C21 1_555 1_555
C22 C21 1_555 1_555
H18 C22 1_555 1_555
C23 C18 1_555 1_555
H19 C23 1_555 1_555
C24 C4 1_555 1_555
C25 C24 1_555 1_555
H20 C25 1_555 1_555
C26 C25 1_555 1_555
H21 C26 1_555 1_555
C27 C26 1_555 1_555
H22 C27 1_555 1_555
C28 C27 1_555 1_555
H23 C28 1_555 1_555
C29 C24 1_555 1_555
H24 C29 1_555 1_555
N3 C30 1_555 1_555
C30 N4 1_555 1_555
N4 C31 1_555 1_555
C31 C32 1_555 1_555
C32 H25 1_555 1_555
C33 N3 1_555 1_555
H26 C33 1_555 1_555
S2 N3 1_555 1_555
O3 S2 1_555 1_555
O4 S2 1_555 1_555
C34 S2 1_555 1_555
C35 C34 1_555 1_555
H27 C35 1_555 1_555
C36 C35 1_555 1_555
H28 C36 1_555 1_555
C37 C36 1_555 1_555
C38 C37 1_555 1_555
H29 C38 1_555 1_555
C39 C34 1_555 1_555
H30 C39 1_555 1_555
C40 C37 1_555 1_555
H31 C40 1_555 1_555
H32 C40 1_555 1_555
H33 C40 1_555 1_555
C41 C30 1_555 1_555
C42 C41 1_555 1_555
H34 C42 1_555 1_555
C43 C42 1_555 1_555
H35 C43 1_555 1_555
C44 C43 1_555 1_555
H36 C44 1_555 1_555
C45 C44 1_555 1_555
H37 C45 1_555 1_555
C46 C41 1_555 1_555
H38 C46 1_555 1_555
C47 C31 1_555 1_555
C48 C47 1_555 1_555
H39 C48 1_555 1_555
C49 C48 1_555 1_555
H40 C49 1_555 1_555
C50 C49 1_555 1_555
H41 C50 1_555 1_555
C51 C50 1_555 1_555
H42 C51 1_555 1_555
C52 C47 1_555 1_555
H43 C52 1_555 1_555
C53 C33 1_555 1_555
C54 C53 1_555 1_555
H44 C54 1_555 1_555
C55 C54 1_555 1_555
H45 C55 1_555 1_555
C56 C55 1_555 1_555
H46 C56 1_555 1_555
C57 C56 1_555 1_555
H47 C57 1_555 1_555
C58 C53 1_555 1_555
H48 C58 1_555 1_555
C3 C4 1_555 1_555
C9 C10 1_555 1_555
C16 C17 1_555 1_555
C22 C23 1_555 1_555
C28 C29 1_555 1_555
C32 C33 1_555 1_555
C38 C39 1_555 1_555
C45 C46 1_555 1_555
C51 C52 1_555 1_555
C57 C58 1_555 1_555

#END
