
#######################################################################
#
#                 Cambridge Crystallographic Data Centre
#                                CCDC 
#
#######################################################################
#
# If this CIF has been generated from an entry in the Cambridge 
# Structural Database, then it will include bibliographic, chemical, 
# crystal, experimental, refinement or atomic coordinate data resulting 
# from the CCDC's data processing and validation procedures.
#
#######################################################################

data_TUVVAI
_chemical_formula_moiety         'C31 H30 B1 N1 S1'
_chemical_name_systematic        
6,6-Dimesityl-6H-5\l^5^,6\l^5^-[1]benzothieno[3',2':3,4][1,2]azaborolo[1,5-a]pyridine
_symmetry_cell_setting           monoclinic
_symmetry_space_group_name_H-M   'P 21/c'
_symmetry_Int_Tables_number      14
_space_group_name_Hall           '-P 2ybc'
loop_
_symmetry_equiv_pos_site_id
_symmetry_equiv_pos_as_xyz
1 x,y,z
2 -x,1/2+y,1/2-z
3 -x,-y,-z
4 x,1/2-y,1/2+z
_cell_length_a                   18.516(6)
_cell_length_b                   7.885(3)
_cell_length_c                   17.269(6)
_cell_angle_alpha                90
_cell_angle_beta                 103.977(6)
_cell_angle_gamma                90
_cell_volume                     2446.6
_exptl_crystal_colour            colorless
_exptl_crystal_description       needle
_cell_formula_units_Z            4
loop_
_atom_site_label
_atom_site_type_symbol
_atom_site_fract_x
_atom_site_fract_y
_atom_site_fract_z
S1 S 0.48196(7) -0.03556(18) 0.89248(9)
N1 N 0.2975(2) 0.2039(5) 0.9037(2)
B1 B 0.2582(3) 0.0346(7) 0.8538(3)
C1 C 0.3361(2) -0.0530(6) 0.8495(3)
C2 C 0.3635(3) -0.2107(6) 0.8249(3)
C3 C 0.3248(3) -0.3512(7) 0.7870(3)
H1 H 0.2720 -0.3515 0.7737
C4 C 0.3629(3) -0.4894(7) 0.7688(3)
H2 H 0.3360 -0.5849 0.7433
C5 C 0.4396(3) -0.4911(7) 0.7870(3)
H3 H 0.4646 -0.5877 0.7734
C6 C 0.4806(3) -0.3568(7) 0.8242(3)
H4 H 0.5334 -0.3579 0.8366
C7 C 0.4413(3) -0.2186(6) 0.8431(3)
C8 C 0.3938(3) 0.0441(6) 0.8874(3)
C9 C 0.3730(3) 0.1997(6) 0.9188(3)
C10 C 0.4162(3) 0.3285(6) 0.9595(3)
H5 H 0.4690 0.3220 0.9711
C11 C 0.3816(3) 0.4663(7) 0.9827(3)
H6 H 0.4103 0.5559 1.0116
C12 C 0.3044(3) 0.4747(7) 0.9640(3)
H7 H 0.2796 0.5710 0.9781
C13 C 0.2655(3) 0.3421(6) 0.9251(3)
H8 H 0.2127 0.3475 0.9125
C14 C 0.2180(2) -0.0910(6) 0.9058(3)
C15 C 0.2382(3) -0.1002(6) 0.9904(3)
C16 C 0.1976(3) -0.2014(6) 1.0309(3)
H9 H 0.2113 -0.2020 1.0876
C17 C 0.1393(3) -0.2993(6) 0.9930(3)
C18 C 0.1232(3) -0.3041(6) 0.9102(3)
H10 H 0.0852 -0.3777 0.8821
C19 C 0.1623(3) -0.2021(6) 0.8671(3)
C20 C 0.1371(3) -0.2201(6) 0.7768(3)
H11 H 0.1762 -0.1779 0.7524
H12 H 0.0915 -0.1542 0.7570
H13 H 0.1273 -0.3398 0.7629
C21 C 0.0935(3) -0.4022(7) 1.0378(3)
H14 H 0.1206 -0.4131 1.0938
H15 H 0.0842 -0.5152 1.0138
H16 H 0.0459 -0.3449 1.0348
C22 C 0.3060(3) -0.0156(6) 1.0421(3)
H17 H 0.3142 -0.0578 1.0969
H18 H 0.2982 0.1074 1.0416
H19 H 0.3496 -0.0413 1.0214
C23 C 0.2035(2) 0.1257(6) 0.7767(3)
C24 C 0.2243(3) 0.1553(6) 0.7036(3)
C25 C 0.1801(3) 0.2492(6) 0.6434(3)
H20 H 0.1970 0.2691 0.5965
C26 C 0.1132(3) 0.3153(6) 0.6478(3)
C27 C 0.0909(3) 0.2868(6) 0.7178(3)
H21 H 0.0445 0.3310 0.7228
C28 C 0.1342(3) 0.1963(6) 0.7805(3)
C29 C 0.0980(3) 0.1722(6) 0.8510(3)
H22 H 0.0712 0.2756 0.8584
H23 H 0.1367 0.1488 0.8995
H24 H 0.0632 0.0767 0.8399
C30 C 0.0655(3) 0.4149(7) 0.5813(3)
H25 H 0.0842 0.4022 0.5331
H26 H 0.0666 0.5349 0.5963
H27 H 0.0142 0.3731 0.5707
C31 C 0.2946(3) 0.0810(6) 0.6859(3)
H28 H 0.2988 0.1187 0.6331
H29 H 0.2921 -0.0431 0.6868
H30 H 0.3382 0.1197 0.7264
loop_
_geom_bond_atom_site_label_1
_geom_bond_atom_site_label_2
_geom_bond_site_symmetry_1
_geom_bond_site_symmetry_2
S1 C7 1_555 1_555
N1 B1 1_555 1_555
B1 C1 1_555 1_555
C1 C2 1_555 1_555
C2 C3 1_555 1_555
C3 H1 1_555 1_555
C4 C3 1_555 1_555
H2 C4 1_555 1_555
C5 C4 1_555 1_555
H3 C5 1_555 1_555
C6 C5 1_555 1_555
H4 C6 1_555 1_555
C7 C2 1_555 1_555
C8 S1 1_555 1_555
C9 N1 1_555 1_555
C10 C9 1_555 1_555
H5 C10 1_555 1_555
C11 C10 1_555 1_555
H6 C11 1_555 1_555
C12 C11 1_555 1_555
H7 C12 1_555 1_555
C13 N1 1_555 1_555
H8 C13 1_555 1_555
C14 B1 1_555 1_555
C15 C14 1_555 1_555
C16 C15 1_555 1_555
H9 C16 1_555 1_555
C17 C16 1_555 1_555
C18 C17 1_555 1_555
H10 C18 1_555 1_555
C19 C14 1_555 1_555
C20 C19 1_555 1_555
H11 C20 1_555 1_555
H12 C20 1_555 1_555
H13 C20 1_555 1_555
C21 C17 1_555 1_555
H14 C21 1_555 1_555
H15 C21 1_555 1_555
H16 C21 1_555 1_555
C22 C15 1_555 1_555
H17 C22 1_555 1_555
H18 C22 1_555 1_555
H19 C22 1_555 1_555
C23 B1 1_555 1_555
C24 C23 1_555 1_555
C25 C24 1_555 1_555
H20 C25 1_555 1_555
C26 C25 1_555 1_555
C27 C26 1_555 1_555
H21 C27 1_555 1_555
C28 C23 1_555 1_555
C29 C28 1_555 1_555
H22 C29 1_555 1_555
H23 C29 1_555 1_555
H24 C29 1_555 1_555
C30 C26 1_555 1_555
H25 C30 1_555 1_555
H26 C30 1_555 1_555
H27 C30 1_555 1_555
C31 C24 1_555 1_555
H28 C31 1_555 1_555
H29 C31 1_555 1_555
H30 C31 1_555 1_555
C1 C8 1_555 1_555
C6 C7 1_555 1_555
C8 C9 1_555 1_555
C12 C13 1_555 1_555
C18 C19 1_555 1_555
C27 C28 1_555 1_555

#END
