
#######################################################################
#
#                 Cambridge Crystallographic Data Centre
#                                CCDC 
#
#######################################################################
#
# If this CIF has been generated from an entry in the Cambridge 
# Structural Database, then it will include bibliographic, chemical, 
# crystal, experimental, refinement or atomic coordinate data resulting 
# from the CCDC's data processing and validation procedures.
#
#######################################################################

data_TUVZUH
_chemical_formula_moiety         'C27 H24 N4'
_chemical_name_systematic        
2-(cyano(2-(2-cyano-1-(piperidin-1-yl)vinyl)-3,4-dihydronaphthalen-1-yl)methyl)benzonitrile
_symmetry_cell_setting           triclinic
_symmetry_space_group_name_H-M   'P -1'
_symmetry_Int_Tables_number      2
_space_group_name_Hall           '-P 1'
loop_
_symmetry_equiv_pos_site_id
_symmetry_equiv_pos_as_xyz
1 x,y,z
2 -x,-y,-z
_cell_length_a                   8.972(3)
_cell_length_b                   9.172(2)
_cell_length_c                   14.034(2)
_cell_angle_alpha                90.632(16)
_cell_angle_beta                 105.367(18)
_cell_angle_gamma                104.96(2)
_cell_volume                     1071.92
_exptl_crystal_colour            colorless
_exptl_crystal_description       crystalline
_cell_formula_units_Z            2
_chemical_properties_physical    Heat-sensitive
loop_
_atom_site_label
_atom_site_type_symbol
_atom_site_fract_x
_atom_site_fract_y
_atom_site_fract_z
N1 N 0.1186(5) 0.2146(5) 0.8520(3)
C1 C -0.1042(5) 0.4551(6) 0.6887(3)
H1 H -0.1341 0.4774 0.6192
C2 C -0.3651(5) 0.2402(6) 0.6164(3)
C3 C -0.2047(5) 0.2919(6) 0.6918(3)
C4 C -0.1584(5) 0.2025(6) 0.7594(3)
C5 C 0.0777(5) 0.4842(6) 0.7184(3)
C6 C 0.1759(6) 0.5679(6) 0.8062(3)
H2 H 0.1306 0.6100 0.8482
C7 C -0.0189(6) 0.2475(5) 0.8510(3)
C8 C 0.1515(6) 0.4297(6) 0.6569(3)
N2 N -0.1909(5) 0.6484(6) 0.7853(4)
C9 C -0.1520(5) 0.5667(6) 0.7449(4)
N3 N -0.3163(6) 0.3562(6) 0.9276(3)
C10 C -0.0453(5) 0.3140(5) 0.9302(3)
H3 H 0.0379 0.3441 0.9883
C11 C 0.1503(7) -0.0332(7) 0.8159(4)
H4 H 0.1718 -0.0940 0.7668
H5 H 0.0497 -0.0880 0.8277
C12 C -0.2641(7) 0.0435(6) 0.7571(3)
H6 H -0.2453 -0.0231 0.7100
H7 H -0.2364 0.0062 0.8221
C13 C -0.4809(6) 0.1196(7) 0.6354(3)
N4 N -0.0224(6) 0.2819(6) 0.4863(3)
C14 C 0.1339(6) 0.1136(6) 0.7761(3)
H8 H 0.2274 0.1614 0.7541
H9 H 0.0399 0.0952 0.7194
C15 C 0.4101(6) 0.5320(7) 0.7703(5)
H10 H 0.5208 0.5470 0.7889
C16 C 0.3184(6) 0.4528(7) 0.6819(4)
H11 H 0.3658 0.4152 0.6393
C17 C 0.3386(6) 0.5887(7) 0.8313(4)
H12 H 0.4018 0.6427 0.8911
C18 C -0.4070(6) 0.3121(6) 0.5304(3)
H13 H -0.3305 0.3916 0.5158
C19 C -0.4379(6) 0.0412(7) 0.7282(4)
H14 H -0.4609 0.0909 0.7818
H15 H -0.5034 -0.0630 0.7175
C20 C -0.1950(6) 0.3380(6) 0.9257(3)
C21 C 0.0519(6) 0.3463(7) 0.5613(4)
C22 C -0.5602(8) 0.2676(8) 0.4662(4)
H16 H -0.5853 0.3163 0.4086
C23 C 0.2681(7) 0.0983(8) 0.9857(4)
H17 H 0.1725 0.0556 1.0069
H18 H 0.3604 0.1172 1.0436
C24 C 0.2581(7) 0.2432(7) 0.9413(4)
H19 H 0.2467 0.3133 0.9894
H20 H 0.3560 0.2886 0.9232
C25 C -0.6734(7) 0.1533(9) 0.4871(4)
H21 H -0.7774 0.1262 0.4451
C26 C -0.6360(6) 0.0769(7) 0.5700(4)
H22 H -0.7138 -0.0034 0.5828
C27 C 0.2833(7) -0.0120(7) 0.9113(5)
H23 H 0.2798 -0.1089 0.9389
H24 H 0.3862 0.0248 0.8973
loop_
_geom_bond_atom_site_label_1
_geom_bond_atom_site_label_2
_geom_bond_site_symmetry_1
_geom_bond_site_symmetry_2
N1 C7 1_555 1_555
C1 H1 1_555 1_555
C2 C3 1_555 1_555
C3 C1 1_555 1_555
C4 C3 1_555 1_555
C5 C1 1_555 1_555
C6 C5 1_555 1_555
H2 C6 1_555 1_555
C7 C4 1_555 1_555
C8 C5 1_555 1_555
N2 C9 1_555 1_555
C9 C1 1_555 1_555
N3 C20 1_555 1_555
C10 C7 1_555 1_555
H3 C10 1_555 1_555
C11 H4 1_555 1_555
H5 C11 1_555 1_555
C12 C4 1_555 1_555
H6 C12 1_555 1_555
H7 C12 1_555 1_555
C13 C2 1_555 1_555
N4 C21 1_555 1_555
C14 N1 1_555 1_555
H8 C14 1_555 1_555
H9 C14 1_555 1_555
C15 H10 1_555 1_555
C16 C8 1_555 1_555
H11 C16 1_555 1_555
C17 C6 1_555 1_555
H12 C17 1_555 1_555
C18 C2 1_555 1_555
H13 C18 1_555 1_555
C19 C12 1_555 1_555
H14 C19 1_555 1_555
H15 C19 1_555 1_555
C20 C10 1_555 1_555
C21 C8 1_555 1_555
C22 C18 1_555 1_555
H16 C22 1_555 1_555
C23 H17 1_555 1_555
H18 C23 1_555 1_555
C24 N1 1_555 1_555
H19 C24 1_555 1_555
H20 C24 1_555 1_555
C25 C22 1_555 1_555
H21 C25 1_555 1_555
C26 C13 1_555 1_555
H22 C26 1_555 1_555
C27 C11 1_555 1_555
H23 C27 1_555 1_555
H24 C27 1_555 1_555
C11 C14 1_555 1_555
C13 C19 1_555 1_555
C15 C16 1_555 1_555
C15 C17 1_555 1_555
C23 C24 1_555 1_555
C23 C27 1_555 1_555
C25 C26 1_555 1_555

#END
