
#######################################################################
#
#                 Cambridge Crystallographic Data Centre
#                                CCDC 
#
#######################################################################
#
# If this CIF has been generated from an entry in the Cambridge 
# Structural Database, then it will include bibliographic, chemical, 
# crystal, experimental, refinement or atomic coordinate data resulting 
# from the CCDC's data processing and validation procedures.
#
#######################################################################

data_TUVZOB
_chemical_name_common            
1-(2-cyanophenyl)-3-(piperidin-1-yl)-4,5-dihydro-1H-benz[e]indene-1,2-dicarbonitrile
_chemical_formula_moiety         'C27 H22 N4'
_chemical_name_systematic        
1-(2-cyanophenyl)-3-(piperidin-1-yl)-4,5-dihydro-1H-cyclopenta[a]naphthalene-1,2-dicarbonitrile
_symmetry_cell_setting           triclinic
_symmetry_space_group_name_H-M   'P -1'
_symmetry_Int_Tables_number      2
_space_group_name_Hall           '-P 1'
loop_
_symmetry_equiv_pos_site_id
_symmetry_equiv_pos_as_xyz
1 x,y,z
2 -x,-y,-z
_cell_length_a                   9.1440(5)
_cell_length_b                   10.7523(6)
_cell_length_c                   12.0332(7)
_cell_angle_alpha                66.569(5)
_cell_angle_beta                 88.615(5)
_cell_angle_gamma                88.295(5)
_cell_volume                     1084.96
_exptl_crystal_colour            yellow
_exptl_crystal_description       crystalline
_cell_formula_units_Z            2
loop_
_atom_site_label
_atom_site_type_symbol
_atom_site_fract_x
_atom_site_fract_y
_atom_site_fract_z
N1 N 0.26413(13) 0.27862(11) 0.40877(10)
C1 C 0.29867(13) 0.05869(12) 0.58747(11)
C2 C 0.32734(14) 0.25862(12) 0.61210(11)
C3 C 0.29184(13) 0.20864(13) 0.52743(11)
C4 C 0.24306(14) 0.15783(12) 0.82974(11)
C5 C 0.34340(15) -0.16161(14) 0.91633(12)
H1 H 0.3433 -0.0965 0.9491
C6 C 0.34156(13) -0.12126(12) 0.79079(11)
C7 C 0.33071(13) 0.01981(12) 0.70519(11)
C8 C 0.34666(14) -0.22029(13) 0.74172(13)
N2 N 0.62133(15) 0.13923(16) 0.80299(14)
C9 C 0.29199(17) 0.19006(17) 0.92257(14)
H2 H 0.3917 0.1990 0.9300
C10 C 0.35022(13) 0.14305(12) 0.73519(11)
C11 C -0.00442(16) 0.16530(14) 0.90508(13)
H3 H -0.1045 0.1568 0.8988
N3 N 0.3310(2) 0.49862(14) 0.60498(15)
C12 C 0.35941(18) -0.17540(14) 0.60679(13)
H4 H 0.3239 -0.2467 0.5850
H5 H 0.4620 -0.1633 0.5834
C13 C 0.09163(14) 0.14565(13) 0.82190(12)
C14 C 0.34534(17) -0.29744(15) 0.99214(14)
H6 H 0.3466 -0.3235 1.0757
C15 C 0.27575(17) -0.04480(14) 0.53538(12)
H7 H 0.3088 -0.0095 0.4515
H8 H 0.1723 -0.0631 0.5374
C16 C 0.50356(15) 0.14034(14) 0.77402(13)
C17 C 0.1581(2) 0.23516(17) 0.34278(15)
H9 H 0.1355 0.1407 0.3890
H10 H 0.2006 0.2430 0.2657
C18 C 0.32886(17) 0.39254(14) 0.60427(13)
C19 C 0.1948(2) 0.20937(19) 1.00493(15)
H11 H 0.2304 0.2309 1.0667
C20 C 0.04756(19) 0.19726(16) 0.99662(14)
H12 H -0.0168 0.2105 1.0522
C21 C 0.02652(15) 0.11196(18) 0.72983(15)
C22 C 0.29601(17) 0.42278(15) 0.34757(13)
H13 H 0.3410 0.4396 0.2692
H14 H 0.3653 0.4470 0.3951
N4 N -0.03157(17) 0.0838(2) 0.66074(16)
C23 C 0.34722(17) -0.35603(14) 0.81973(15)
H15 H 0.3489 -0.4222 0.7881
C24 C 0.34538(18) -0.39444(15) 0.94410(15)
H16 H 0.3442 -0.4859 0.9953
C25 C 0.1597(2) 0.51064(17) 0.33016(18)
H17 H 0.1842 0.6051 0.2866
H18 H 0.1186 0.4999 0.4085
C26 C 0.0197(2) 0.31994(19) 0.32115(19)
H19 H -0.0300 0.3012 0.3981
H20 H -0.0445 0.2945 0.2710
C27 C 0.0480(2) 0.4711(2) 0.2596(2)
H21 H 0.0840 0.4929 0.1777
H22 H -0.0427 0.5219 0.2553
loop_
_geom_bond_atom_site_label_1
_geom_bond_atom_site_label_2
_geom_bond_site_symmetry_1
_geom_bond_site_symmetry_2
N1 C3 1_555 1_555
C1 C3 1_555 1_555
C2 C3 1_555 1_555
C4 C9 1_555 1_555
C5 H1 1_555 1_555
C6 C5 1_555 1_555
C7 C1 1_555 1_555
C8 C6 1_555 1_555
N2 C16 1_555 1_555
C9 H2 1_555 1_555
C10 C2 1_555 1_555
C11 H3 1_555 1_555
N3 C18 1_555 1_555
C12 C8 1_555 1_555
H4 C12 1_555 1_555
H5 C12 1_555 1_555
C13 C4 1_555 1_555
C14 C5 1_555 1_555
H6 C14 1_555 1_555
C15 C1 1_555 1_555
H7 C15 1_555 1_555
H8 C15 1_555 1_555
C16 C10 1_555 1_555
C17 N1 1_555 1_555
H9 C17 1_555 1_555
H10 C17 1_555 1_555
C18 C2 1_555 1_555
C19 C9 1_555 1_555
H11 C19 1_555 1_555
C20 C11 1_555 1_555
H12 C20 1_555 1_555
C21 C13 1_555 1_555
C22 N1 1_555 1_555
H13 C22 1_555 1_555
H14 C22 1_555 1_555
N4 C21 1_555 1_555
C23 C8 1_555 1_555
H15 C23 1_555 1_555
C24 C14 1_555 1_555
H16 C24 1_555 1_555
C25 C22 1_555 1_555
H17 C25 1_555 1_555
H18 C25 1_555 1_555
C26 C17 1_555 1_555
H19 C26 1_555 1_555
H20 C26 1_555 1_555
C27 C25 1_555 1_555
H21 C27 1_555 1_555
H22 C27 1_555 1_555
C4 C10 1_555 1_555
C6 C7 1_555 1_555
C7 C10 1_555 1_555
C11 C13 1_555 1_555
C12 C15 1_555 1_555
C19 C20 1_555 1_555
C23 C24 1_555 1_555
C26 C27 1_555 1_555

#END
