
#######################################################################
#
#                 Cambridge Crystallographic Data Centre
#                                CCDC 
#
#######################################################################
#
# If this CIF has been generated from an entry in the Cambridge 
# Structural Database, then it will include bibliographic, chemical, 
# crystal, experimental, refinement or atomic coordinate data resulting 
# from the CCDC's data processing and validation procedures.
#
#######################################################################

data_TUWCUJ
_chemical_formula_moiety         'C14 H19 N1 O3'
_chemical_name_systematic        
(3S*,5R*)-6-Isopropyl-1-methoxy-4-methyl-1-azaspiro(4.5)deca-6,9-diene-2,8-dione
_symmetry_cell_setting           triclinic
_symmetry_space_group_name_H-M   'P -1'
_symmetry_Int_Tables_number      2
_space_group_name_Hall           '-P 1'
loop_
_symmetry_equiv_pos_site_id
_symmetry_equiv_pos_as_xyz
1 x,y,z
2 -x,-y,-z
_cell_length_a                   8.7808(7)
_cell_length_b                   11.3943(9)
_cell_length_c                   15.3131(13)
_cell_angle_alpha                70.712(2)
_cell_angle_beta                 88.155(2)
_cell_angle_gamma                79.707(2)
_cell_volume                     1422.23
_exptl_crystal_colour            colorless
_exptl_crystal_description       prism
_chemical_melting_point          374-376K
_cell_formula_units_Z            4
_exptl_crystal_recrystallization_method 'ethyl acetate/hexane'
loop_
_atom_site_label
_atom_site_type_symbol
_atom_site_fract_x
_atom_site_fract_y
_atom_site_fract_z
N1 N 0.1708(3) 0.8917(3) 0.16664(17)
O1 O 0.2632(3) 0.9838(2) 0.15446(16)
C1 C 0.1297(7) 0.8687(4) 0.0905(3)
O2 O 0.1973(4) 0.8932(3) 0.0178(2)
C2 C -0.0103(7) 0.8091(4) 0.1138(4)
H1 H 0.0069 0.7277 0.1043
H2 H -0.0987 0.8626 0.0758
C3 C -0.0370(5) 0.7933(3) 0.2154(3)
H3 H 0.0220 0.7108 0.2517
C4 C 0.0441(3) 0.8961(3) 0.23118(19)
C5 C 0.4226(5) 0.9296(4) 0.1574(3)
H4 H 0.4457 0.8577 0.2126
H5 H 0.4845 0.9910 0.1573
H6 H 0.4452 0.9034 0.1042
C6 C -0.2035(5) 0.7987(5) 0.2491(5)
H7 H -0.2588 0.8840 0.2254
H8 H -0.2022 0.7706 0.3155
H9 H -0.2538 0.7449 0.2275
C7 C 0.1026(3) 0.8597(3) 0.32930(19)
C8 C 0.0463(4) 0.9314(3) 0.3801(2)
H10 H 0.0811 0.9050 0.4415
C9 C -0.0654(4) 1.0477(3) 0.3467(2)
O3 O -0.1203(3) 1.1074(2) 0.39759(16)
C10 C -0.1087(4) 1.0919(3) 0.2497(2)
H11 H -0.1730 1.1697 0.2241
C11 C -0.0578(4) 1.0230(3) 0.1969(2)
H12 H -0.0872 1.0554 0.1345
C12 C 0.3568(5) 0.7612(4) 0.4147(3)
H13 H 0.3982 0.8309 0.3731
H14 H 0.4351 0.6865 0.4306
H15 H 0.3241 0.7799 0.4698
C13 C 0.2194(4) 0.7397(3) 0.3680(2)
H16 H 0.2577 0.7108 0.3165
C14 C 0.1451(6) 0.6356(4) 0.4364(3)
H17 H 0.1199 0.6567 0.4915
H18 H 0.2163 0.5569 0.4518
H19 H 0.0523 0.6281 0.4087
N2 N 0.0940(3) 0.3829(2) 0.18699(18)
O4 O 0.0051(3) 0.4758(2) 0.2192(2)
C15 C 0.0389(7) 0.3654(4) 0.1096(3)
O5 O -0.0951(4) 0.3925(3) 0.0844(2)
C16 C 0.1746(7) 0.3093(4) 0.0672(3)
H20 H 0.1903 0.3658 0.0058
H21 H 0.1595 0.2294 0.0623
C17 C 0.3123(5) 0.2895(3) 0.1307(2)
H22 H 0.3205 0.2043 0.1758
C18 C 0.2593(4) 0.3850(3) 0.18500(18)
C19 C -0.1015(6) 0.4220(5) 0.2858(4)
H23 H -0.1729 0.3899 0.2573
H24 H -0.1574 0.4856 0.3088
H25 H -0.0461 0.3544 0.3360
C20 C 0.4768(6) 0.3001(4) 0.0875(3)
H26 H 0.5140 0.2277 0.0688
H27 H 0.5475 0.3034 0.1328
H28 H 0.4691 0.3755 0.0346
C21 C 0.3324(3) 0.3360(3) 0.28121(18)
C22 C 0.4227(4) 0.4028(3) 0.3056(2)
H29 H 0.4700 0.3686 0.3642
C23 C 0.4524(4) 0.5241(3) 0.2478(3)
O6 O 0.5352(3) 0.5828(2) 0.2735(2)
C24 C 0.3742(4) 0.5773(3) 0.1565(2)
H30 H 0.3867 0.6571 0.1178
C25 C 0.2868(4) 0.5137(3) 0.1286(2)
H31 H 0.2392 0.5510 0.0702
C26 C 0.2493(6) 0.2185(5) 0.4396(2)
H32 H 0.3301 0.2363 0.4714
H33 H 0.2205 0.1399 0.4764
H34 H 0.1610 0.2852 0.4295
C27 C 0.3071(4) 0.2092(3) 0.3464(2)
H35 H 0.2278 0.1811 0.3184
C28 C 0.4545(5) 0.1113(3) 0.3612(3)
H36 H 0.4850 0.1002 0.3033
H37 H 0.4363 0.0324 0.4043
H38 H 0.5354 0.1394 0.3855
loop_
_geom_bond_atom_site_label_1
_geom_bond_atom_site_label_2
_geom_bond_site_symmetry_1
_geom_bond_site_symmetry_2
N1 O1 1_555 1_555
O1 C5 1_555 1_555
C1 N1 1_555 1_555
O2 C1 1_555 1_555
C2 C1 1_555 1_555
H1 C2 1_555 1_555
H2 C2 1_555 1_555
C3 C2 1_555 1_555
H3 C3 1_555 1_555
C4 N1 1_555 1_555
C5 H4 1_555 1_555
H5 C5 1_555 1_555
H6 C5 1_555 1_555
C6 C3 1_555 1_555
H7 C6 1_555 1_555
H8 C6 1_555 1_555
H9 C6 1_555 1_555
C7 C4 1_555 1_555
C8 C7 1_555 1_555
H10 C8 1_555 1_555
C9 C8 1_555 1_555
O3 C9 1_555 1_555
C10 C9 1_555 1_555
H11 C10 1_555 1_555
C11 C4 1_555 1_555
H12 C11 1_555 1_555
C12 H13 1_555 1_555
H14 C12 1_555 1_555
H15 C12 1_555 1_555
C13 C7 1_555 1_555
H16 C13 1_555 1_555
C14 C13 1_555 1_555
H17 C14 1_555 1_555
H18 C14 1_555 1_555
H19 C14 1_555 1_555
N2 O4 1_555 1_555
O4 C19 1_555 1_555
C15 N2 1_555 1_555
O5 C15 1_555 1_555
C16 C15 1_555 1_555
H20 C16 1_555 1_555
H21 C16 1_555 1_555
C17 C16 1_555 1_555
H22 C17 1_555 1_555
C18 N2 1_555 1_555
C19 H23 1_555 1_555
H24 C19 1_555 1_555
H25 C19 1_555 1_555
C20 C17 1_555 1_555
H26 C20 1_555 1_555
H27 C20 1_555 1_555
H28 C20 1_555 1_555
C21 C18 1_555 1_555
C22 C21 1_555 1_555
H29 C22 1_555 1_555
C23 C22 1_555 1_555
O6 C23 1_555 1_555
C24 C23 1_555 1_555
H30 C24 1_555 1_555
C25 C18 1_555 1_555
H31 C25 1_555 1_555
C26 H32 1_555 1_555
H33 C26 1_555 1_555
H34 C26 1_555 1_555
C27 C21 1_555 1_555
H35 C27 1_555 1_555
C28 C27 1_555 1_555
H36 C28 1_555 1_555
H37 C28 1_555 1_555
H38 C28 1_555 1_555
C3 C4 1_555 1_555
C10 C11 1_555 1_555
C12 C13 1_555 1_555
C17 C18 1_555 1_555
C24 C25 1_555 1_555
C26 C27 1_555 1_555

#END
