
#######################################################################
#
#                 Cambridge Crystallographic Data Centre
#                                CCDC 
#
#######################################################################
#
# If this CIF has been generated from an entry in the Cambridge 
# Structural Database, then it will include bibliographic, chemical, 
# crystal, experimental, refinement or atomic coordinate data resulting 
# from the CCDC's data processing and validation procedures.
#
#######################################################################

data_TUWCET
_chemical_formula_moiety         'C23 H30 N2 O3 S2'
_chemical_name_systematic        
2-Methyl-N-(1-(p-tolylsulfonyl)-4-(1-phenylvinyl)pyrrolidin-3-yl)propane-2-sulfinamide
_symmetry_cell_setting           monoclinic
_symmetry_space_group_name_H-M   'P 21'
_symmetry_Int_Tables_number      4
_space_group_name_Hall           'P 2yb'
loop_
_symmetry_equiv_pos_site_id
_symmetry_equiv_pos_as_xyz
1 x,y,z
2 -x,1/2+y,-z
_cell_length_a                   12.0747(2)
_cell_length_b                   6.3515(2)
_cell_length_c                   15.8823(3)
_cell_angle_alpha                90
_cell_angle_beta                 105.944(2)
_cell_angle_gamma                90
_cell_volume                     1171.19
_exptl_crystal_colour            colorless
_exptl_crystal_description       needle
_cell_formula_units_Z            2
loop_
_atom_site_label
_atom_site_type_symbol
_atom_site_fract_x
_atom_site_fract_y
_atom_site_fract_z
N1 N 0.43271(12) 0.9494(2) 0.57529(9)
S1 S 0.32070(3) 0.84222(7) 0.51075(3)
O1 O 0.34701(12) 0.6242(2) 0.50366(9)
O2 O 0.28794(12) 0.9696(2) 0.43344(8)
C1 C 0.20521(14) 0.8553(3) 0.55934(10)
C2 C 0.13608(16) 1.0338(3) 0.54746(13)
H1 H 0.1525 1.1511 0.5158
C3 C 0.04227(17) 1.0382(3) 0.58266(13)
H2 H -0.0044 1.1609 0.5758
C4 C 0.01592(15) 0.8665(4) 0.62760(12)
C5 C 0.08703(18) 0.6908(3) 0.63914(13)
H3 H 0.0706 0.5730 0.6706
C6 C 0.18171(16) 0.6842(3) 0.60562(12)
H4 H 0.2299 0.5634 0.6144
C7 C -0.0892(2) 0.8711(5) 0.66281(16)
H5 H -0.0657 0.9121 0.7247
H6 H -0.1245 0.7310 0.6571
H7 H -0.1450 0.9732 0.6294
C8 C 0.43244(15) 1.1767(3) 0.59577(11)
H8 H 0.3540 1.2256 0.5939
H9 H 0.4619 1.2612 0.5541
C9 C 0.51275(15) 1.1918(3) 0.68825(10)
H10 H 0.5547 1.3293 0.6987
N2 N 0.44987(14) 1.1502(2) 0.75438(10)
H11 H 0.496(3) 1.107(5) 0.8005(19)
S2 S 0.36034(4) 1.33320(8) 0.76978(3)
O3 O 0.4208(2) 1.5237(3) 0.80979(16)
C10 C 0.31210(17) 1.1971(3) 0.85575(12)
C11 C 0.2558(4) 0.9955(5) 0.8187(2)
H12 H 0.3147 0.8951 0.8124
H13 H 0.2018 1.0222 0.7612
H14 H 0.2139 0.9368 0.8581
C12 C 0.2253(3) 1.3475(6) 0.8760(2)
H15 H 0.1609 1.3673 0.8235
H16 H 0.2624 1.4835 0.8945
H17 H 0.1966 1.2891 0.9231
C13 C 0.4107(3) 1.1644(8) 0.93477(16)
H18 H 0.3815 1.1375 0.9856
H19 H 0.4592 1.2906 0.9454
H20 H 0.4563 1.0435 0.9254
C14 C 0.59534(14) 1.0047(3) 0.69163(11)
H21 H 0.6466 1.0401 0.6537
C15 C 0.67151(15) 0.9573(3) 0.78282(11)
C16 C 0.6675(2) 0.7755(3) 0.82257(14)
H22 H 0.7155 0.7526 0.8802
H23 H 0.6166 0.6678 0.7935
C17 C 0.75107(16) 1.1283(3) 0.82764(12)
C18 C 0.80325(18) 1.2658(3) 0.78270(14)
H24 H 0.7849 1.2593 0.7206
C19 C 0.8828(2) 1.4141(4) 0.8283(2)
H25 H 0.9194 1.5056 0.7970
C20 C 0.9084(2) 1.4291(5) 0.9176(2)
H26 H 0.9641 1.5279 0.9483
C21 C 0.8532(2) 1.3005(5) 0.96247(16)
H27 H 0.8686 1.3135 1.0242
C22 C 0.7752(2) 1.1521(4) 0.91803(13)
H28 H 0.7372 1.0644 0.9498
C23 C 0.51392(14) 0.8309(3) 0.64653(11)
H29 H 0.5550 0.7204 0.6230
H30 H 0.4739 0.7658 0.6867
loop_
_geom_bond_atom_site_label_1
_geom_bond_atom_site_label_2
_geom_bond_site_symmetry_1
_geom_bond_site_symmetry_2
N1 S1 1_555 1_555
S1 O1 1_555 1_555
O2 S1 1_555 1_555
C1 S1 1_555 1_555
C2 C1 1_555 1_555
H1 C2 1_555 1_555
C3 C2 1_555 1_555
H2 C3 1_555 1_555
C4 C3 1_555 1_555
C5 C4 1_555 1_555
H3 C5 1_555 1_555
C6 C1 1_555 1_555
H4 C6 1_555 1_555
C7 C4 1_555 1_555
H5 C7 1_555 1_555
H6 C7 1_555 1_555
H7 C7 1_555 1_555
C8 N1 1_555 1_555
H8 C8 1_555 1_555
H9 C8 1_555 1_555
C9 C8 1_555 1_555
H10 C9 1_555 1_555
N2 C9 1_555 1_555
H11 N2 1_555 1_555
S2 N2 1_555 1_555
O3 S2 1_555 1_555
C10 S2 1_555 1_555
C11 C10 1_555 1_555
H12 C11 1_555 1_555
H13 C11 1_555 1_555
H14 C11 1_555 1_555
C12 C10 1_555 1_555
H15 C12 1_555 1_555
H16 C12 1_555 1_555
H17 C12 1_555 1_555
C13 C10 1_555 1_555
H18 C13 1_555 1_555
H19 C13 1_555 1_555
H20 C13 1_555 1_555
C14 C9 1_555 1_555
H21 C14 1_555 1_555
C15 C14 1_555 1_555
C16 C15 1_555 1_555
H22 C16 1_555 1_555
H23 C16 1_555 1_555
C17 C15 1_555 1_555
C18 C17 1_555 1_555
H24 C18 1_555 1_555
C19 C18 1_555 1_555
H25 C19 1_555 1_555
C20 C19 1_555 1_555
H26 C20 1_555 1_555
C21 C20 1_555 1_555
H27 C21 1_555 1_555
C22 C17 1_555 1_555
H28 C22 1_555 1_555
C23 N1 1_555 1_555
H29 C23 1_555 1_555
H30 C23 1_555 1_555
C5 C6 1_555 1_555
C14 C23 1_555 1_555
C21 C22 1_555 1_555

#END
