
#######################################################################
#
#                 Cambridge Crystallographic Data Centre
#                                CCDC 
#
#######################################################################
#
# If this CIF has been generated from an entry in the Cambridge 
# Structural Database, then it will include bibliographic, chemical, 
# crystal, experimental, refinement or atomic coordinate data resulting 
# from the CCDC's data processing and validation procedures.
#
#######################################################################

data_TUWFAT
_chemical_name_common            
1-[2-(2,6-Diisopropylanilino)-1-naphthyl]isoquinoline
_chemical_formula_moiety         'C31 H30 N2'
_chemical_name_systematic        
N-(2,6-Diisopropylphenyl)-1-(isoquinolin-1-yl)naphthalen-2-amine
_symmetry_cell_setting           orthorhombic
_symmetry_space_group_name_H-M   'P 21 21 21'
_symmetry_Int_Tables_number      19
_space_group_name_Hall           'P 2ac 2ab'
loop_
_symmetry_equiv_pos_site_id
_symmetry_equiv_pos_as_xyz
1 x,y,z
2 1/2-x,-y,1/2+z
3 1/2+x,1/2-y,-z
4 -x,1/2+y,1/2-z
_cell_length_a                   9.0996(10)
_cell_length_b                   11.2154(12)
_cell_length_c                   23.974(3)
_cell_angle_alpha                90
_cell_angle_beta                 90
_cell_angle_gamma                90
_cell_volume                     2446.68
_exptl_crystal_colour            yellow
_exptl_crystal_description       block
_cell_formula_units_Z            4
loop_
_atom_site_label
_atom_site_type_symbol
_atom_site_fract_x
_atom_site_fract_y
_atom_site_fract_z
C1 C 0.6327(4) 0.6452(3) 0.17455(15)
C2 C 0.6973(4) 0.7245(3) 0.21135(14)
C3 C 0.8049(4) 0.8138(3) 0.19018(14)
C4 C 0.8489(5) 0.9849(3) 0.14025(15)
H1 H 0.8115 1.0483 0.1181
C5 C 0.9937(4) 0.9833(3) 0.15055(16)
H2 H 1.0551 1.0449 0.1365
C6 C 1.0541(4) 0.8899(3) 0.18219(15)
C7 C 0.9566(4) 0.8009(3) 0.20172(13)
C8 C 1.0144(4) 0.7035(4) 0.23134(15)
H3 H 0.9508 0.6422 0.2443
C9 C 1.1613(4) 0.6966(4) 0.24152(16)
H4 H 1.1993 0.6307 0.2617
C10 C 1.2564(4) 0.7850(4) 0.22270(17)
H5 H 1.3585 0.7790 0.2305
C11 C 1.2052(4) 0.8789(4) 0.19360(16)
H6 H 1.2716 0.9381 0.1807
C12 C 0.6601(4) 0.7185(3) 0.26886(14)
C13 C 0.5649(4) 0.6294(3) 0.28855(15)
C14 C 0.5069(4) 0.5463(3) 0.24944(17)
H7 H 0.4436 0.4845 0.2620
C15 C 0.5407(4) 0.5540(3) 0.19454(15)
H8 H 0.5017 0.4970 0.1692
C16 C 0.5285(4) 0.6231(4) 0.34589(15)
H9 H 0.4644 0.5621 0.3587
C17 C 0.5842(4) 0.7032(4) 0.38272(16)
H10 H 0.5591 0.6985 0.4211
C18 C 0.6787(4) 0.7927(4) 0.36368(16)
H11 H 0.7168 0.8492 0.3894
C19 C 0.7174(4) 0.8004(4) 0.30888(15)
H12 H 0.7833 0.8611 0.2972
C20 C 0.6060(4) 0.5731(3) 0.07651(15)
C21 C 0.6945(5) 0.4797(3) 0.05829(16)
C22 C 0.6369(5) 0.4056(4) 0.01707(18)
H13 H 0.6936 0.3404 0.0037
C23 C 0.4995(6) 0.4254(4) -0.00452(17)
H14 H 0.4628 0.3744 -0.0329
C24 C 0.4145(5) 0.5180(4) 0.01429(18)
H15 H 0.3195 0.5301 -0.0011
C25 C 0.4655(5) 0.5944(4) 0.05551(17)
C26 C 0.3704(5) 0.6960(4) 0.07618(18)
H16 H 0.4003 0.7104 0.1157
C27 C 0.2068(12) 0.668(2) 0.0777(9)
H17 H 0.1688 0.6632 0.0395
H18 H 0.1550 0.7307 0.0981
H19 H 0.1914 0.5912 0.0965
C28 C 0.4021(17) 0.8118(10) 0.0449(6)
H20 H 0.5080 0.8279 0.0456
H21 H 0.3496 0.8777 0.0629
H22 H 0.3691 0.8042 0.0062
C29 C 0.8446(5) 0.4574(4) 0.08287(18)
H23 H 0.8823 0.5345 0.0982
C30 C 0.8361(6) 0.3682(6) 0.1305(2)
H24 H 0.7720 0.3996 0.1599
H25 H 0.9348 0.3548 0.1457
H26 H 0.7962 0.2926 0.1166
C31 C 0.9543(5) 0.4122(4) 0.0401(2)
H27 H 0.9226 0.3341 0.0263
H28 H 1.0513 0.4048 0.0575
H29 H 0.9598 0.4686 0.0090
N1 N 0.6639(3) 0.6530(3) 0.11774(12)
H30 H 0.7228 0.7104 0.1065
N2 N 0.7514(3) 0.9019(3) 0.15934(12)
C32? C 0.3704(5) 0.6960(4) 0.07618(18)
C33? C 0.218(3) 0.650(7) 0.091(3)
C34? C 0.357(5) 0.775(3) 0.0239(10)
H31? H 0.4174 0.7394 0.1079
H32? H 0.1826 0.5967 0.0618
H33? H 0.1505 0.7170 0.0956
H34? H 0.2236 0.6055 0.1266
H35? H 0.4549 0.8043 0.0133
H36? H 0.2929 0.8430 0.0320
H37? H 0.3158 0.7283 -0.0068
loop_
_geom_bond_atom_site_label_1
_geom_bond_atom_site_label_2
_geom_bond_site_symmetry_1
_geom_bond_site_symmetry_2
C1 C2 1_555 1_555
C2 C3 1_555 1_555
C3 C7 1_555 1_555
C4 H1 1_555 1_555
C5 C4 1_555 1_555
H2 C5 1_555 1_555
C6 C5 1_555 1_555
C7 C6 1_555 1_555
C8 C7 1_555 1_555
H3 C8 1_555 1_555
C9 C8 1_555 1_555
H4 C9 1_555 1_555
C10 C9 1_555 1_555
H5 C10 1_555 1_555
C11 C6 1_555 1_555
H6 C11 1_555 1_555
C12 C2 1_555 1_555
C13 C12 1_555 1_555
C14 C13 1_555 1_555
H7 C14 1_555 1_555
C15 C1 1_555 1_555
H8 C15 1_555 1_555
C16 C13 1_555 1_555
H9 C16 1_555 1_555
C17 C16 1_555 1_555
H10 C17 1_555 1_555
C18 C17 1_555 1_555
H11 C18 1_555 1_555
C19 C12 1_555 1_555
H12 C19 1_555 1_555
C20 C21 1_555 1_555
C21 C22 1_555 1_555
C22 H13 1_555 1_555
C23 C22 1_555 1_555
H14 C23 1_555 1_555
C24 C23 1_555 1_555
H15 C24 1_555 1_555
C25 C20 1_555 1_555
C26 C25 1_555 1_555
H16 C26 1_555 1_555
C27 C26 1_555 1_555
H17 C27 1_555 1_555
H18 C27 1_555 1_555
H19 C27 1_555 1_555
C28 C26 1_555 1_555
H20 C28 1_555 1_555
H21 C28 1_555 1_555
H22 C28 1_555 1_555
C29 C21 1_555 1_555
H23 C29 1_555 1_555
C30 C29 1_555 1_555
H24 C30 1_555 1_555
H25 C30 1_555 1_555
H26 C30 1_555 1_555
C31 C29 1_555 1_555
H27 C31 1_555 1_555
H28 C31 1_555 1_555
H29 C31 1_555 1_555
N1 C1 1_555 1_555
H30 N1 1_555 1_555
N2 C3 1_555 1_555
C4 N2 1_555 1_555
C10 C11 1_555 1_555
C14 C15 1_555 1_555
C18 C19 1_555 1_555
C20 N1 1_555 1_555
C24 C25 1_555 1_555

#END
