
#######################################################################
#
#                 Cambridge Crystallographic Data Centre
#                                CCDC 
#
#######################################################################
#
# If this CIF has been generated from an entry in the Cambridge 
# Structural Database, then it will include bibliographic, chemical, 
# crystal, experimental, refinement or atomic coordinate data resulting 
# from the CCDC's data processing and validation procedures.
#
#######################################################################

data_TUWFAS
_chemical_formula_moiety         'C23 H20 N2'
_chemical_name_systematic        2,4-bis(p-Tolyl)-7-methylquinazoline
_symmetry_cell_setting           orthorhombic
_symmetry_space_group_name_H-M   'P b c a'
_symmetry_Int_Tables_number      61
_space_group_name_Hall           '-P 2ac 2ab'
loop_
_symmetry_equiv_pos_site_id
_symmetry_equiv_pos_as_xyz
1 x,y,z
2 1/2+x,y,1/2-z
3 x,1/2-y,1/2+z
4 1/2-x,1/2+y,z
5 -x,-y,-z
6 1/2-x,-y,1/2+z
7 -x,1/2+y,1/2-z
8 1/2+x,1/2-y,-z
_cell_length_a                   14.600(3)
_cell_length_b                   7.1770(14)
_cell_length_c                   34.617(7)
_cell_angle_alpha                90
_cell_angle_beta                 90
_cell_angle_gamma                90
_cell_volume                     3627.31
_exptl_crystal_colour            colorless
_exptl_crystal_description       block
_chemical_melting_point          153-155deg.C
_cell_formula_units_Z            8
loop_
_atom_site_label
_atom_site_type_symbol
_atom_site_fract_x
_atom_site_fract_y
_atom_site_fract_z
N1 N -0.04933(13) 0.1831(3) 0.14014(6)
N2 N -0.11954(13) 0.1332(3) 0.07875(6)
C1 C 0.04365(15) 0.1556(3) 0.08291(7)
C2 C -0.04763(16) 0.1574(3) 0.10118(7)
C3 C -0.12973(17) 0.1872(3) 0.15755(8)
C4 C -0.21272(16) 0.1733(3) 0.13602(8)
C5 C -0.28165(16) 0.1248(3) 0.07280(8)
H1 H -0.2748 0.1022 0.0465
C6 C 0.13808(16) 0.1223(4) 0.02608(8)
H2 H 0.1421 0.1025 -0.0004
C7 C -0.20319(16) 0.1420(3) 0.09609(8)
C8 C 0.05336(16) 0.1267(3) 0.04369(8)
H3 H 0.0012 0.1097 0.0287
C9 C -0.12793(16) 0.2110(4) 0.20014(8)
C10 C 0.21726(15) 0.1473(3) 0.04754(9)
C11 C -0.37579(18) 0.1753(4) 0.12748(10)
H4 H -0.4341 0.1882 0.1380
C12 C 0.12297(17) 0.1842(4) 0.10423(9)
H5 H 0.1191 0.2066 0.1306
C13 C -0.36756(16) 0.1406(4) 0.08794(9)
C14 C -0.45202(17) 0.1245(4) 0.06320(9)
H6 H -0.4344 0.1007 0.0369
H7 H -0.4861 0.2388 0.0644
H8 H -0.4894 0.0239 0.0724
C15 C -0.30199(18) 0.1912(4) 0.15122(9)
H9 H -0.3103 0.2137 0.1774
C16 C -0.06970(19) 0.3390(4) 0.21651(9)
H10 H -0.0315 0.4093 0.2007
C17 C 0.31052(17) 0.1422(4) 0.02877(9)
H11 H 0.3038 0.1194 0.0016
H12 H 0.3464 0.0444 0.0401
H13 H 0.3407 0.2595 0.0326
C18 C 0.20751(18) 0.1794(4) 0.08645(9)
H14 H 0.2597 0.1986 0.1013
C19 C -0.1207(2) 0.2620(5) 0.28025(9)
C20 C -0.18142(19) 0.1054(4) 0.22450(8)
H15 H -0.2208 0.0163 0.2143
C21 C -0.0671(2) 0.3645(5) 0.25572(10)
H16 H -0.0278 0.4539 0.2659
C22 C -0.1770(2) 0.1307(5) 0.26394(9)
H17 H -0.2132 0.0569 0.2799
C23 C -0.1190(3) 0.2911(7) 0.32356(10)
H18 H -0.1617 0.2076 0.3356
H19 H -0.1358 0.4174 0.3294
H20 H -0.0585 0.2669 0.3332
loop_
_geom_bond_atom_site_label_1
_geom_bond_atom_site_label_2
_geom_bond_site_symmetry_1
_geom_bond_site_symmetry_2
N1 C2 1_555 1_555
N2 C2 1_555 1_555
C1 C2 1_555 1_555
C3 N1 1_555 1_555
C4 C3 1_555 1_555
C5 H1 1_555 1_555
C6 H2 1_555 1_555
C7 N2 1_555 1_555
C8 C1 1_555 1_555
H3 C8 1_555 1_555
C9 C3 1_555 1_555
C10 C6 1_555 1_555
C11 H4 1_555 1_555
C12 C1 1_555 1_555
H5 C12 1_555 1_555
C13 C5 1_555 1_555
C14 C13 1_555 1_555
H6 C14 1_555 1_555
H7 C14 1_555 1_555
H8 C14 1_555 1_555
C15 C4 1_555 1_555
H9 C15 1_555 1_555
C16 C9 1_555 1_555
H10 C16 1_555 1_555
C17 C10 1_555 1_555
H11 C17 1_555 1_555
H12 C17 1_555 1_555
H13 C17 1_555 1_555
C18 C10 1_555 1_555
H14 C18 1_555 1_555
C19 C21 1_555 1_555
C20 C9 1_555 1_555
H15 C20 1_555 1_555
C21 C16 1_555 1_555
H16 C21 1_555 1_555
C22 C19 1_555 1_555
H17 C22 1_555 1_555
C23 C19 1_555 1_555
H18 C23 1_555 1_555
H19 C23 1_555 1_555
H20 C23 1_555 1_555
C4 C7 1_555 1_555
C5 C7 1_555 1_555
C6 C8 1_555 1_555
C11 C15 1_555 1_555
C11 C13 1_555 1_555
C12 C18 1_555 1_555
C20 C22 1_555 1_555

#END
