
#######################################################################
#
#                 Cambridge Crystallographic Data Centre
#                                CCDC 
#
#######################################################################
#
# If this CIF has been generated from an entry in the Cambridge 
# Structural Database, then it will include bibliographic, chemical, 
# crystal, experimental, refinement or atomic coordinate data resulting 
# from the CCDC's data processing and validation procedures.
#
#######################################################################

data_TUWJEC
_chemical_formula_moiety         'C17 H11 N1 O2'
_chemical_name_systematic        10-Methyl-5H-benzo[a]phenoxazin-5-one
_symmetry_cell_setting           monoclinic
_symmetry_space_group_name_H-M   'P 21/n'
_symmetry_Int_Tables_number      14
_space_group_name_Hall           '-P 2yn'
loop_
_symmetry_equiv_pos_site_id
_symmetry_equiv_pos_as_xyz
1 x,y,z
2 1/2-x,1/2+y,1/2-z
3 -x,-y,-z
4 1/2+x,1/2-y,1/2+z
_cell_length_a                   13.288(2)
_cell_length_b                   4.6447(6)
_cell_length_c                   19.479(3)
_cell_angle_alpha                90
_cell_angle_beta                 101.696(2)
_cell_angle_gamma                90
_cell_volume                     1177.26
_exptl_crystal_colour            orange
_exptl_crystal_description       needle
_cell_formula_units_Z            4
loop_
_atom_site_label
_atom_site_type_symbol
_atom_site_fract_x
_atom_site_fract_y
_atom_site_fract_z
O1 O 0.95323(6) 1.55191(18) 0.19642(4)
C1 C 0.89091(8) 1.4203(2) 0.15185(5)
C2 C 0.77981(7) 1.4974(2) 0.13695(5)
C3 C 0.74430(8) 1.7076(2) 0.17776(5)
H1 H 0.7912 1.8006 0.2143
C4 C 0.64097(8) 1.7805(2) 0.16501(5)
H2 H 0.6171 1.9224 0.1930
C5 C 0.57214(8) 1.6450(2) 0.11096(6)
H3 H 0.5015 1.6963 0.1020
C6 C 0.60641(8) 1.4357(2) 0.07020(5)
H4 H 0.5591 1.3429 0.0338
C7 C 0.71053(7) 1.3614(2) 0.08261(5)
C8 C 0.74736(7) 1.1432(2) 0.03909(5)
N1 N 0.68444(6) 1.03558(19) -0.01472(4)
C9 C 0.72393(7) 0.8298(2) -0.05412(5)
C10 C 0.66108(8) 0.7187(2) -0.11480(5)
H5 H 0.5922 0.7848 -0.1284
C11 C 0.69780(8) 0.5132(2) -0.15558(5)
C12 C 0.79906(8) 0.4162(2) -0.13386(5)
H6 H 0.8248 0.2750 -0.1611
C13 C 0.86289(8) 0.5209(2) -0.07358(5)
H7 H 0.9311 0.4507 -0.0591
C14 C 0.82470(7) 0.7304(2) -0.03500(5)
O2 O 0.89014(5) 0.84089(16) 0.02310(4)
C15 C 0.85523(7) 1.0588(2) 0.05924(5)
C16 C 0.92240(7) 1.1840(2) 0.11215(5)
H8 H 0.9913 1.1164 0.1236
C17 C 0.62987(9) 0.3956(3) -0.22103(6)
H9 H 0.5967 0.2183 -0.2097
H10 H 0.6716 0.3537 -0.2560
H11 H 0.5772 0.5382 -0.2400
loop_
_geom_bond_atom_site_label_1
_geom_bond_atom_site_label_2
_geom_bond_site_symmetry_1
_geom_bond_site_symmetry_2
O1 C1 1_555 1_555
C1 C2 1_555 1_555
C2 C3 1_555 1_555
C3 H1 1_555 1_555
C4 C3 1_555 1_555
H2 C4 1_555 1_555
C5 C4 1_555 1_555
H3 C5 1_555 1_555
C6 C5 1_555 1_555
H4 C6 1_555 1_555
C7 C2 1_555 1_555
C8 C7 1_555 1_555
N1 C8 1_555 1_555
C9 N1 1_555 1_555
C10 C9 1_555 1_555
H5 C10 1_555 1_555
C11 C10 1_555 1_555
C12 C11 1_555 1_555
H6 C12 1_555 1_555
C13 C12 1_555 1_555
H7 C13 1_555 1_555
C14 C9 1_555 1_555
O2 C14 1_555 1_555
C15 C8 1_555 1_555
C16 C1 1_555 1_555
H8 C16 1_555 1_555
C17 C11 1_555 1_555
H9 C17 1_555 1_555
H10 C17 1_555 1_555
H11 C17 1_555 1_555
C6 C7 1_555 1_555
C13 C14 1_555 1_555
O2 C15 1_555 1_555
C15 C16 1_555 1_555

#END
