
#######################################################################
#
#                 Cambridge Crystallographic Data Centre
#                                CCDC 
#
#######################################################################
#
# If this CIF has been generated from an entry in the Cambridge 
# Structural Database, then it will include bibliographic, chemical, 
# crystal, experimental, refinement or atomic coordinate data resulting 
# from the CCDC's data processing and validation procedures.
#
#######################################################################

data_TUWTEL
_chemical_formula_moiety         'C33 H32 Br1 N1 O5 S1'
_chemical_name_systematic        
'Methyl 2-(2-benzoyl-3-(4-bromophenyl)-1-(((4-methylphenyl)sulfonyl)amino)pentyl)benzoate'
_symmetry_cell_setting           orthorhombic
_symmetry_space_group_name_H-M   'P 21 21 21'
_symmetry_Int_Tables_number      19
_space_group_name_Hall           'P 2ac 2ab'
loop_
_symmetry_equiv_pos_site_id
_symmetry_equiv_pos_as_xyz
1 x,y,z
2 1/2-x,-y,1/2+z
3 -x,1/2+y,1/2-z
4 1/2+x,1/2-y,-z
_cell_length_a                   13.0225(10)
_cell_length_b                   16.3677(12)
_cell_length_c                   29.840(2)
_cell_angle_alpha                90
_cell_angle_beta                 90
_cell_angle_gamma                90
_cell_volume                     6360.35
_exptl_crystal_colour            colorless
_exptl_crystal_description       block
_cell_formula_units_Z            8
loop_
_atom_site_label
_atom_site_type_symbol
_atom_site_fract_x
_atom_site_fract_y
_atom_site_fract_z
Br1 Br 0.47383(6) 0.79690(5) 0.80252(2)
C1 C 1.2172(4) 0.3145(4) 1.0841(2)
H1 H 1.2006 0.3315 1.1140
H2 H 1.2896 0.3043 1.0820
H3 H 1.1801 0.2655 1.0770
C2 C 1.1876(4) 0.3810(5) 1.0515(3)
C3 C 1.1775(5) 0.3661(4) 1.0077(3)
H4 H 1.1879 0.3132 0.9973
C4 C 1.1524(5) 0.4260(4) 0.9774(2)
H5 H 1.1479 0.4137 0.9471
C5 C 1.1343(3) 0.5028(3) 0.99183(17)
C6 C 1.1429(5) 0.5194(4) 1.0362(2)
H6 H 1.1317 0.5720 1.0469
C7 C 1.1685(5) 0.4569(6) 1.0652(2)
H7 H 1.1725 0.4684 1.0957
C8 C 0.9024(4) 0.5944(3) 0.96954(15)
H8 H 0.9303 0.6325 0.9918
C9 C 0.8557(4) 0.5236(4) 0.99469(17)
C10 C 0.8547(4) 0.4468(4) 0.97699(18)
H9 H 0.8898 0.4375 0.9503
C11 C 0.8043(5) 0.3828(4) 0.9968(2)
H10 H 0.8058 0.3312 0.9837
C12 C 0.7522(5) 0.3951(5) 1.0356(2)
H11 H 0.7175 0.3520 1.0491
C13 C 0.7510(4) 0.4707(5) 1.05465(19)
H12 H 0.7150 0.4789 1.0812
C14 C 0.8018(4) 0.5347(4) 1.03529(19)
C15 C 0.8013(6) 0.6165(5) 1.0573(2)
C16 C 0.7187(6) 0.7038(5) 1.1070(2)
H13 H 0.7373 0.6961 1.1378
H14 H 0.6504 0.7257 1.1053
H15 H 0.7660 0.7411 1.0931
C17 C 0.8157(3) 0.6396(3) 0.94375(15)
H16 H 0.7646 0.6571 0.9659
C18 C 0.7619(4) 0.5826(3) 0.91102(17)
C19 C 0.6493(4) 0.5721(3) 0.9126(2)
C20 C 0.5916(5) 0.5855(4) 0.95111(19)
H17 H 0.6246 0.5990 0.9777
C21 C 0.4858(6) 0.5789(5) 0.9503(3)
H18 H 0.4480 0.5887 0.9762
C22 C 0.4374(5) 0.5584(4) 0.9121(3)
H19 H 0.3662 0.5536 0.9115
C23 C 0.4926(6) 0.5448(4) 0.8744(2)
H20 H 0.4586 0.5314 0.8480
C24 C 0.5976(5) 0.5504(3) 0.87426(19)
H21 H 0.6339 0.5395 0.8481
C25 C 0.8500(4) 0.7164(3) 0.91756(16)
H22 H 0.9045 0.6994 0.8969
C26 C 0.8951(4) 0.7840(3) 0.94770(18)
H23 H 0.8436 0.8007 0.9693
H24 H 0.9530 0.7620 0.9642
C27 C 0.9299(5) 0.8576(4) 0.9215(2)
H25 H 0.9794 0.8411 0.8995
H26 H 0.9606 0.8965 0.9415
H27 H 0.8719 0.8820 0.9069
C28 C 0.7620(4) 0.7452(3) 0.88962(18)
C29 C 0.6724(5) 0.7722(3) 0.90837(17)
H28 H 0.6693 0.7786 0.9393
C30 C 0.5870(4) 0.7901(3) 0.8834(2)
H29 H 0.5274 0.8088 0.8971
C31 C 0.5909(5) 0.7799(3) 0.8373(2)
C32 C 0.6806(5) 0.7565(3) 0.81846(17)
H30 H 0.6848 0.7518 0.7875
C33 C 0.7655(4) 0.7395(3) 0.84389(19)
H31 H 0.8262 0.7240 0.8299
N1 N 0.9863(3) 0.5716(3) 0.93941(14)
O1 O 1.1618(2) 0.5642(2) 0.91407(10)
O2 O 1.1164(2) 0.6563(2) 0.97652(11)
O3 O 0.8123(2) 0.5492(2) 0.88210(11)
O4 O 0.8643(4) 0.6658(3) 1.05538(16)
O5 O 0.7223(4) 0.6252(3) 1.08360(16)
S1 S 1.10446(10) 0.57996(9) 0.95360(5)
H32 H 0.976(4) 0.540(3) 0.9173(14)
Br2 Br 0.94556(5) 0.27836(6) 0.08928(2)
C34 C -0.0353(6) -0.0267(4) 0.3193(2)
H33 H -0.0825 -0.0460 0.2970
H34 H -0.0534 0.0281 0.3277
H35 H -0.0384 -0.0615 0.3451
C35 C 0.0734(6) -0.0274(4) 0.3002(3)
C36 C 0.0962(6) -0.0667(4) 0.2607(3)
H36 H 0.0438 -0.0916 0.2446
C37 C 0.1943(6) -0.0699(4) 0.24472(19)
H37 H 0.2078 -0.0962 0.2177
C38 C 0.2726(4) -0.0348(3) 0.2682(2)
C39 C 0.2508(6) 0.0058(4) 0.3076(2)
H38 H 0.3027 0.0319 0.3235
C40 C 0.1527(7) 0.0072(4) 0.3228(2)
H39 H 0.1392 0.0331 0.3500
C41 C 0.4147(4) 0.1093(3) 0.21944(15)
H40 H 0.4266 0.1148 0.2517
C42 C 0.3128(4) 0.1510(3) 0.20965(16)
C43 C 0.2501(5) 0.1225(3) 0.17606(17)
H41 H 0.2703 0.0770 0.1596
C44 C 0.1581(5) 0.1596(4) 0.16618(18)
H42 H 0.1161 0.1381 0.1439
C45 C 0.1284(5) 0.2280(4) 0.1890(2)
H43 H 0.0661 0.2531 0.1825
C46 C 0.1911(6) 0.2590(4) 0.2212(2)
H44 H 0.1719 0.3065 0.2362
C47 C 0.2819(5) 0.2216(4) 0.23222(17)
C48 C 0.3426(6) 0.2542(4) 0.2703(2)
C49 C 0.3573(6) 0.3674(4) 0.32053(19)
H45 H 0.3265 0.3454 0.3472
H46 H 0.3463 0.4253 0.3195
H47 H 0.4297 0.3563 0.3208
C50 C 0.5053(4) 0.1541(3) 0.19562(15)
H48 H 0.5073 0.2100 0.2074
C51 C 0.4881(3) 0.1601(4) 0.14577(16)
C52 C 0.4861(3) 0.2392(3) 0.12218(17)
C53 C 0.4902(4) 0.2393(4) 0.07559(18)
H49 H 0.4933 0.1903 0.0599
C54 C 0.4895(4) 0.3129(5) 0.05290(18)
H50 H 0.4929 0.3128 0.0218
C55 C 0.4840(4) 0.3847(4) 0.0747(3)
H51 H 0.4837 0.4335 0.0588
C56 C 0.4789(5) 0.3853(4) 0.1195(2)
H52 H 0.4753 0.4349 0.1347
C57 C 0.4792(4) 0.3136(4) 0.14342(18)
H53 H 0.4745 0.3153 0.1745
C58 C 0.6107(4) 0.1156(3) 0.20496(17)
H54 H 0.6068 0.0583 0.1956
C59 C 0.6384(5) 0.1160(4) 0.25476(19)
H55 H 0.6489 0.1720 0.2645
H56 H 0.5815 0.0937 0.2718
C60 C 0.7344(6) 0.0667(4) 0.2645(2)
H57 H 0.7229 0.0106 0.2566
H58 H 0.7503 0.0703 0.2959
H59 H 0.7906 0.0880 0.2474
C61 C 0.6928(4) 0.1557(4) 0.1768(2)
C62 C 0.7429(6) 0.1137(4) 0.1434(3)
H60 H 0.7252 0.0595 0.1383
C63 C 0.8180(6) 0.1487(6) 0.1173(2)
H61 H 0.8504 0.1184 0.0950
C64 C 0.8441(4) 0.2277(6) 0.1244(2)
C65 C 0.7958(5) 0.2718(4) 0.1567(2)
H62 H 0.8139 0.3262 0.1612
C66 C 0.7200(5) 0.2368(4) 0.18301(19)
H63 H 0.6872 0.2677 0.2049
N2 N 0.4160(4) 0.0219(3) 0.20962(17)
O6 O 0.4643(3) -0.0236(2) 0.28443(11)
O7 O 0.4065(3) -0.1224(2) 0.22758(12)
O8 O 0.4769(2) 0.0964(2) 0.12494(10)
O9 O 0.4047(4) 0.2212(3) 0.29144(14)
O10 O 0.3108(4) 0.3295(3) 0.28119(14)
S2 S 0.39849(12) -0.04418(9) 0.24847(5)
H64 H 0.399(4) 0.012(3) 0.1860(13)
loop_
_geom_bond_atom_site_label_1
_geom_bond_atom_site_label_2
_geom_bond_site_symmetry_1
_geom_bond_site_symmetry_2
Br1 C31 1_555 1_555
C1 H1 1_555 1_555
H2 C1 1_555 1_555
H3 C1 1_555 1_555
C2 C1 1_555 1_555
C3 C2 1_555 1_555
H4 C3 1_555 1_555
C4 C3 1_555 1_555
H5 C4 1_555 1_555
C5 C4 1_555 1_555
C6 C5 1_555 1_555
H6 C6 1_555 1_555
C7 C2 1_555 1_555
H7 C7 1_555 1_555
C8 H8 1_555 1_555
C9 C8 1_555 1_555
C10 C9 1_555 1_555
H9 C10 1_555 1_555
C11 C10 1_555 1_555
H10 C11 1_555 1_555
C12 C11 1_555 1_555
H11 C12 1_555 1_555
C13 C12 1_555 1_555
H12 C13 1_555 1_555
C14 C9 1_555 1_555
C15 C14 1_555 1_555
C16 H13 1_555 1_555
H14 C16 1_555 1_555
H15 C16 1_555 1_555
C17 C8 1_555 1_555
H16 C17 1_555 1_555
C18 C17 1_555 1_555
C19 C18 1_555 1_555
C20 C19 1_555 1_555
H17 C20 1_555 1_555
C21 C20 1_555 1_555
H18 C21 1_555 1_555
C22 C21 1_555 1_555
H19 C22 1_555 1_555
C23 C22 1_555 1_555
H20 C23 1_555 1_555
C24 C19 1_555 1_555
H21 C24 1_555 1_555
C25 C17 1_555 1_555
H22 C25 1_555 1_555
C26 C25 1_555 1_555
H23 C26 1_555 1_555
H24 C26 1_555 1_555
C27 C26 1_555 1_555
H25 C27 1_555 1_555
H26 C27 1_555 1_555
H27 C27 1_555 1_555
C28 C25 1_555 1_555
C29 C28 1_555 1_555
H28 C29 1_555 1_555
C30 C29 1_555 1_555
H29 C30 1_555 1_555
C31 C30 1_555 1_555
C32 C31 1_555 1_555
H30 C32 1_555 1_555
C33 C28 1_555 1_555
H31 C33 1_555 1_555
N1 C8 1_555 1_555
O1 S1 1_555 1_555
O2 S1 1_555 1_555
O3 C18 1_555 1_555
O4 C15 1_555 1_555
O5 C15 1_555 1_555
S1 C5 1_555 1_555
H32 N1 1_555 1_555
Br2 C64 1_555 1_555
C34 H33 1_555 1_555
H34 C34 1_555 1_555
H35 C34 1_555 1_555
C35 C34 1_555 1_555
C36 C35 1_555 1_555
H36 C36 1_555 1_555
C37 C36 1_555 1_555
H37 C37 1_555 1_555
C38 C37 1_555 1_555
C39 C38 1_555 1_555
H38 C39 1_555 1_555
C40 C35 1_555 1_555
H39 C40 1_555 1_555
C41 H40 1_555 1_555
C42 C41 1_555 1_555
C43 C42 1_555 1_555
H41 C43 1_555 1_555
C44 C43 1_555 1_555
H42 C44 1_555 1_555
C45 C44 1_555 1_555
H43 C45 1_555 1_555
C46 C45 1_555 1_555
H44 C46 1_555 1_555
C47 C42 1_555 1_555
C48 C47 1_555 1_555
C49 H45 1_555 1_555
H46 C49 1_555 1_555
H47 C49 1_555 1_555
C50 C41 1_555 1_555
H48 C50 1_555 1_555
C51 C50 1_555 1_555
C52 C51 1_555 1_555
C53 C52 1_555 1_555
H49 C53 1_555 1_555
C54 C53 1_555 1_555
H50 C54 1_555 1_555
C55 C54 1_555 1_555
H51 C55 1_555 1_555
C56 C55 1_555 1_555
H52 C56 1_555 1_555
C57 C52 1_555 1_555
H53 C57 1_555 1_555
C58 C50 1_555 1_555
H54 C58 1_555 1_555
C59 C58 1_555 1_555
H55 C59 1_555 1_555
H56 C59 1_555 1_555
C60 C59 1_555 1_555
H57 C60 1_555 1_555
H58 C60 1_555 1_555
H59 C60 1_555 1_555
C61 C58 1_555 1_555
C62 C61 1_555 1_555
H60 C62 1_555 1_555
C63 C62 1_555 1_555
H61 C63 1_555 1_555
C64 C63 1_555 1_555
C65 C64 1_555 1_555
H62 C65 1_555 1_555
C66 C61 1_555 1_555
H63 C66 1_555 1_555
N2 C41 1_555 1_555
O6 S2 1_555 1_555
O7 S2 1_555 1_555
O8 C51 1_555 1_555
O9 C48 1_555 1_555
O10 C48 1_555 1_555
S2 C38 1_555 1_555
H64 N2 1_555 1_555
C6 C7 1_555 1_555
C13 C14 1_555 1_555
C16 O5 1_555 1_555
C23 C24 1_555 1_555
C32 C33 1_555 1_555
N1 S1 1_555 1_555
C39 C40 1_555 1_555
C46 C47 1_555 1_555
C49 O10 1_555 1_555
C56 C57 1_555 1_555
C65 C66 1_555 1_555
N2 S2 1_555 1_555

#END
