
#######################################################################
#
#                 Cambridge Crystallographic Data Centre
#                                CCDC 
#
#######################################################################
#
# If this CIF has been generated from an entry in the Cambridge 
# Structural Database, then it will include bibliographic, chemical, 
# crystal, experimental, refinement or atomic coordinate data resulting 
# from the CCDC's data processing and validation procedures.
#
#######################################################################

data_TUWVIR
_chemical_formula_moiety         'C77 H13 N5,2.5(C6 H5 Cl1)'
_chemical_name_systematic        
'2-(9-methyl-C60fullerene-1(9H)-yl)-3-(4-(dimethylamino)phenyl)buta-1,3-diene-1,1,4,4-tetracarbonitrile chlorobenzene solvate'
_symmetry_cell_setting           triclinic
_symmetry_space_group_name_H-M   'P -1'
_symmetry_Int_Tables_number      2
_space_group_name_Hall           '-P 1'
loop_
_symmetry_equiv_pos_site_id
_symmetry_equiv_pos_as_xyz
1 x,y,z
2 -x,-y,-z
_cell_length_a                   13.2666(7)
_cell_length_b                   13.5231(7)
_cell_length_c                   16.4060(10)
_cell_angle_alpha                75.868(2)
_cell_angle_beta                 80.064(2)
_cell_angle_gamma                74.826(3)
_cell_volume                     2736.12
_exptl_crystal_colour            black
_exptl_crystal_description       plate
_cell_formula_units_Z            2
loop_
_atom_site_label
_atom_site_type_symbol
_atom_site_fract_x
_atom_site_fract_y
_atom_site_fract_z
N1 N 0.6046(3) 0.3321(4) 0.5040(3)
N2 N 0.1196(4) 0.6793(4) 0.1483(3)
N3 N 0.4326(4) 0.6735(4) 0.1947(3)
N4 N -0.0991(4) 0.4906(4) 0.4222(3)
N5 N 0.0948(4) 0.7091(4) 0.3991(3)
C1 C 0.1642(4) 0.3713(4) 0.3032(3)
C2 C 0.2594(4) 0.3490(4) 0.2356(3)
C3 C 0.3416(4) 0.2630(4) 0.2459(3)
C4 C 0.3340(4) 0.1724(4) 0.3162(3)
C5 C 0.2440(4) 0.1739(4) 0.3701(3)
C6 C 0.1559(4) 0.2711(4) 0.3805(3)
C7 C 0.0591(4) 0.2269(4) 0.3808(3)
C8 C 0.0886(4) 0.1125(4) 0.4031(3)
C9 C 0.2024(4) 0.0819(4) 0.3959(3)
C10 C 0.2547(5) -0.0105(4) 0.3681(4)
C11 C 0.1948(5) -0.0724(4) 0.3432(4)
C12 C 0.0853(5) -0.0413(4) 0.3498(4)
C13 C 0.0311(4) 0.0529(4) 0.3808(4)
C14 C -0.0557(4) 0.1042(5) 0.3325(4)
C15 C -0.0819(4) 0.2135(5) 0.3102(4)
C16 C -0.0229(4) 0.2742(4) 0.3355(3)
C17 C -0.0146(4) 0.3649(4) 0.2648(4)
C18 C 0.0748(4) 0.4022(4) 0.2453(3)
C19 C 0.1171(4) 0.4296(4) 0.1584(3)
C20 C 0.2301(4) 0.3968(4) 0.1530(3)
C21 C 0.2862(4) 0.3616(4) 0.0819(3)
C22 C 0.3743(4) 0.2723(5) 0.0922(4)
C23 C 0.4001(4) 0.2244(4) 0.1730(4)
C24 C 0.4288(4) 0.1107(4) 0.1965(4)
C25 C 0.4302(4) 0.0503(5) 0.1387(4)
C26 C 0.4024(4) 0.1008(5) 0.0542(4)
C27 C 0.3750(4) 0.2100(5) 0.0306(4)
C28 C 0.2870(5) 0.2619(5) -0.0172(3)
C29 C 0.2324(5) 0.3547(4) 0.0143(3)
C30 C 0.1242(5) 0.3860(4) 0.0198(3)
C31 C 0.0647(4) 0.4251(4) 0.0929(3)
C32 C -0.0307(4) 0.3879(4) 0.1138(4)
C33 C -0.0686(4) 0.3577(4) 0.1983(4)
C34 C -0.1102(4) 0.2649(5) 0.2258(4)
C35 C -0.1107(4) 0.2059(5) 0.1669(4)
C36 C -0.0837(4) 0.0921(4) 0.1910(4)
C37 C -0.0565(4) 0.0431(5) 0.2723(4)
C38 C 0.0322(5) -0.0486(4) 0.2833(4)
C39 C 0.0880(5) -0.0848(4) 0.2124(4)
C40 C 0.2019(5) -0.1178(4) 0.2070(4)
C41 C 0.2536(5) -0.1113(4) 0.2712(4)
C42 C 0.3499(4) -0.0732(4) 0.2505(4)
C43 C 0.3505(4) -0.0124(4) 0.3109(4)
C44 C 0.3892(4) 0.0785(4) 0.2848(4)
C45 C 0.3896(4) -0.0441(4) 0.1657(4)
C46 C 0.3350(4) -0.0507(4) 0.0988(4)
C47 C 0.2435(4) -0.0869(4) 0.1190(4)
C48 C 0.1548(4) -0.0354(4) 0.0712(4)
C49 C 0.0601(5) -0.0332(4) 0.1280(4)
C50 C -0.0257(4) 0.0532(5) 0.1185(4)
C51 C -0.0176(5) 0.1424(5) 0.0487(4)
C52 C -0.0705(4) 0.2364(5) 0.0797(4)
C53 C -0.0313(5) 0.3265(4) 0.0529(4)
C54 C 0.0638(5) 0.3241(5) -0.0045(4)
C55 C 0.1153(5) 0.2338(5) -0.0339(4)
C56 C 0.0739(5) 0.1406(5) -0.0061(4)
C57 C 0.1622(5) 0.0504(5) 0.0046(4)
C58 C 0.2573(5) 0.0880(5) -0.0158(4)
C59 C 0.3433(4) 0.0396(5) 0.0294(4)
C60 C 0.2299(5) 0.2024(5) -0.0401(3)
C61 C 0.1568(4) 0.2915(4) 0.4687(3)
C62 C 0.1667(4) 0.4719(4) 0.3311(3)
C63 C 0.2662(4) 0.5095(4) 0.3066(3)
C64 C 0.3533(4) 0.4580(4) 0.3583(3)
C65 C 0.4556(4) 0.4280(4) 0.3212(3)
C66 C 0.5381(4) 0.3864(4) 0.3679(3)
C67 C 0.5219(4) 0.3725(4) 0.4576(3)
C68 C 0.4181(4) 0.4012(4) 0.4951(3)
C69 C 0.3363(4) 0.4428(4) 0.4468(3)
C70 C 0.7124(4) 0.3043(5) 0.4637(4)
C71 C 0.5876(5) 0.3170(5) 0.5954(3)
C72 C 0.0826(4) 0.5330(4) 0.3693(3)
C73 C 0.0900(4) 0.6311(4) 0.3860(3)
C74 C -0.0180(4) 0.5074(4) 0.3971(3)
C75 C 0.2727(4) 0.5895(4) 0.2387(3)
C76 C 0.3636(4) 0.6338(4) 0.2141(3)
C77 C 0.1882(4) 0.6381(4) 0.1874(3)
H1 H 0.1503 0.2209 0.5166
H2 H 0.0906 0.3555 0.4810
H3 H 0.2300 0.3124 0.4710
H4 H 0.4693 0.4371 0.2582
H5 H 0.6107 0.3655 0.3388
H6 H 0.4036 0.3912 0.5581
H7 H 0.2632 0.4627 0.4753
H8 H 0.7193 0.2427 0.4295
H9 H 0.7663 0.2765 0.5119
H10 H 0.7320 0.3730 0.4195
H11 H 0.5341 0.3865 0.6134
H12 H 0.6624 0.3038 0.6199
H13 H 0.5534 0.2493 0.6218
Cl1 Cl 0.64783(15) 0.16636(16) 0.25435(13)
C78 C 0.6272(8) 0.3864(7) -0.0001(5)
C79 C 0.6299(7) 0.4245(7) 0.0716(5)
C80 C 0.6407(5) 0.3554(6) 0.1472(5)
C81 C 0.6437(5) 0.2571(6) 0.1566(5)
C82 C 0.6440(6) 0.2269(7) 0.0811(5)
C83 C 0.6359(7) 0.2824(6) 0.0069(4)
H14 H 0.6188 0.4357 -0.0562
H15 H 0.6241 0.5008 0.0673
H16 H 0.6466 0.3820 0.1975
H17 H 0.6559 0.1497 0.0855
H18 H 0.6296 0.2589 -0.0449
Cl2 Cl 0.29073(19) 0.44251(15) 0.75273(18)
C84 C 0.2290(6) 0.1334(6) 0.7535(5)
C85 C 0.3301(6) 0.1416(6) 0.7514(5)
C86 C 0.3495(5) 0.2376(5) 0.7510(4)
C87 C 0.2673(5) 0.3204(5) 0.7533(4)
C88 C 0.1640(5) 0.3152(6) 0.7566(4)
C89 C 0.1459(5) 0.2198(6) 0.7562(5)
H19 H 0.2150 0.0643 0.7532
H20 H 0.3897 0.0787 0.7501
H21 H 0.4229 0.2451 0.7490
H22 H 0.1049 0.3782 0.7591
H23 H 0.0723 0.2128 0.7578
Cl3? Cl 0.2818(4) -0.0056(5) 0.5882(3)
C90? C 0.4039(7) -0.0027(8) 0.5408(5)
C91? C 0.4672(8) -0.0889(7) 0.5132(6)
C92? C 0.4325(6) 0.1055(6) 0.5281(5)
Cl4? Cl 0.6883(6) 0.1091(6) 0.1169(5)
H24? H 0.6455 0.2073 0.2128
H25? H 0.3334 -0.0097 0.5718
H26? H 0.4345 -0.1505 0.5253
H27? H 0.3886 0.1708 0.5456
loop_
_geom_bond_atom_site_label_1
_geom_bond_atom_site_label_2
_geom_bond_site_symmetry_1
_geom_bond_site_symmetry_2
N1 C67 1_555 1_555
N2 C77 1_555 1_555
N3 C76 1_555 1_555
N4 C74 1_555 1_555
N5 C73 1_555 1_555
C1 C2 1_555 1_555
C2 C3 1_555 1_555
C3 C4 1_555 1_555
C4 C5 1_555 1_555
C5 C6 1_555 1_555
C6 C1 1_555 1_555
C7 C6 1_555 1_555
C8 C7 1_555 1_555
C9 C5 1_555 1_555
C10 C9 1_555 1_555
C11 C10 1_555 1_555
C12 C11 1_555 1_555
C13 C8 1_555 1_555
C14 C13 1_555 1_555
C15 C14 1_555 1_555
C16 C7 1_555 1_555
C17 C16 1_555 1_555
C18 C1 1_555 1_555
C19 C18 1_555 1_555
C20 C2 1_555 1_555
C21 C20 1_555 1_555
C22 C21 1_555 1_555
C23 C3 1_555 1_555
C24 C23 1_555 1_555
C25 C24 1_555 1_555
C26 C25 1_555 1_555
C27 C22 1_555 1_555
C28 C27 1_555 1_555
C29 C21 1_555 1_555
C30 C29 1_555 1_555
C31 C19 1_555 1_555
C32 C31 1_555 1_555
C33 C17 1_555 1_555
C34 C15 1_555 1_555
C35 C34 1_555 1_555
C36 C35 1_555 1_555
C37 C14 1_555 1_555
C38 C12 1_555 1_555
C39 C38 1_555 1_555
C40 C39 1_555 1_555
C41 C11 1_555 1_555
C42 C41 1_555 1_555
C43 C10 1_555 1_555
C44 C4 1_555 1_555
C45 C25 1_555 1_555
C46 C45 1_555 1_555
C47 C40 1_555 1_555
C48 C47 1_555 1_555
C49 C39 1_555 1_555
C50 C36 1_555 1_555
C51 C50 1_555 1_555
C52 C35 1_555 1_555
C53 C32 1_555 1_555
C54 C30 1_555 1_555
C55 C54 1_555 1_555
C56 C51 1_555 1_555
C57 C48 1_555 1_555
C58 C57 1_555 1_555
C59 C26 1_555 1_555
C60 C28 1_555 1_555
C61 C6 1_555 1_555
C62 C1 1_555 1_555
C63 C62 1_555 1_555
C64 C63 1_555 1_555
C65 C64 1_555 1_555
C66 C65 1_555 1_555
C67 C66 1_555 1_555
C68 C67 1_555 1_555
C69 C64 1_555 1_555
C70 N1 1_555 1_555
C71 N1 1_555 1_555
C72 C62 1_555 1_555
C73 C72 1_555 1_555
C74 C72 1_555 1_555
C75 C63 1_555 1_555
C76 C75 1_555 1_555
C77 C75 1_555 1_555
H1 C61 1_555 1_555
H2 C61 1_555 1_555
H3 C61 1_555 1_555
H4 C65 1_555 1_555
H5 C66 1_555 1_555
H6 C68 1_555 1_555
H7 C69 1_555 1_555
H8 C70 1_555 1_555
H9 C70 1_555 1_555
H10 C70 1_555 1_555
H11 C71 1_555 1_555
H12 C71 1_555 1_555
H13 C71 1_555 1_555
Cl1 C81 1_555 1_555
C78 C79 1_555 1_555
C79 C80 1_555 1_555
C80 C81 1_555 1_555
C81 C82 1_555 1_555
C82 C83 1_555 1_555
C83 C78 1_555 1_555
H14 C78 1_555 1_555
H15 C79 1_555 1_555
H16 C80 1_555 1_555
H17 C82 1_555 1_555
H18 C83 1_555 1_555
Cl2 C87 1_555 1_555
C84 C85 1_555 1_555
C85 C86 1_555 1_555
C86 C87 1_555 1_555
C87 C88 1_555 1_555
C88 C89 1_555 1_555
C89 C84 1_555 1_555
H19 C84 1_555 1_555
H20 C85 1_555 1_555
H21 C86 1_555 1_555
H22 C88 1_555 1_555
H23 C89 1_555 1_555
C8 C9 1_555 1_555
C12 C13 1_555 1_555
C15 C16 1_555 1_555
C17 C18 1_555 1_555
C19 C20 1_555 1_555
C22 C23 1_555 1_555
C24 C44 1_555 1_555
C26 C27 1_555 1_555
C28 C29 1_555 1_555
C30 C31 1_555 1_555
C32 C33 1_555 1_555
C33 C34 1_555 1_555
C36 C37 1_555 1_555
C37 C38 1_555 1_555
C40 C41 1_555 1_555
C42 C43 1_555 1_555
C42 C45 1_555 1_555
C43 C44 1_555 1_555
C46 C47 1_555 1_555
C46 C59 1_555 1_555
C48 C49 1_555 1_555
C49 C50 1_555 1_555
C51 C52 1_555 1_555
C52 C53 1_555 1_555
C53 C54 1_555 1_555
C55 C56 1_555 1_555
C55 C60 1_555 1_555
C56 C57 1_555 1_555
C58 C59 1_555 1_555
C58 C60 1_555 1_555
C68 C69 1_555 1_555

#END
