
#######################################################################
#
#                 Cambridge Crystallographic Data Centre
#                                CCDC 
#
#######################################################################
#
# If this CIF has been generated from an entry in the Cambridge 
# Structural Database, then it will include bibliographic, chemical, 
# crystal, experimental, refinement or atomic coordinate data resulting 
# from the CCDC's data processing and validation procedures.
#
#######################################################################

data_TUWVOX
_chemical_formula_moiety         'C83 H17 N5,2(C1 S2)'
_chemical_name_systematic        
'(4-(3,3-dicyano-2-(9-methyl-C60fullerene-1(9H)-yl)-1-(4-(dimethylamino)phenyl)prop-2-en-1-ylidene)cyclohexa-2,5-dien-1-ylidene)malononitrile carbon disulfide solvate'
_symmetry_cell_setting           triclinic
_symmetry_space_group_name_H-M   'P -1'
_symmetry_Int_Tables_number      2
_space_group_name_Hall           '-P 1'
loop_
_symmetry_equiv_pos_site_id
_symmetry_equiv_pos_as_xyz
1 x,y,z
2 -x,-y,-z
_cell_length_a                   13.2705(6)
_cell_length_b                   13.8764(7)
_cell_length_c                   15.2862(8)
_cell_angle_alpha                102.963(2)
_cell_angle_beta                 104.778(2)
_cell_angle_gamma                99.438(2)
_cell_volume                     2578.31
_exptl_crystal_colour            black
_exptl_crystal_description       needle
_cell_formula_units_Z            2
loop_
_atom_site_label
_atom_site_type_symbol
_atom_site_fract_x
_atom_site_fract_y
_atom_site_fract_z
C1 C -0.2815(5) 0.8338(5) 0.2363(5)
N1 N 0.4448(5) 0.9917(4) 0.1900(4)
N2 N 0.1825(7) 0.9691(5) 0.5724(5)
C2 C 0.1961(5) 0.6349(4) 0.3714(4)
C3 C 0.1319(5) 0.5608(4) 0.4128(4)
C4 C 0.1782(5) 0.5056(4) 0.4686(4)
C5 C 0.2892(5) 0.4964(4) 0.4792(4)
C6 C 0.3469(5) 0.5411(4) 0.4311(4)
C7 C 0.3172(5) 0.6234(4) 0.3808(4)
C8 C 0.3368(5) 0.5791(4) 0.2871(5)
C9 C 0.4052(5) 0.5104(4) 0.2975(5)
C10 C 0.4120(5) 0.4859(5) 0.3853(4)
C11 C 0.4189(5) 0.3899(5) 0.3938(5)
C12 C 0.3585(6) 0.3412(5) 0.4443(5)
C13 C 0.2929(6) 0.3942(5) 0.4862(4)
C14 C 0.1885(5) 0.3415(5) 0.4798(4)
C15 C 0.1180(5) 0.4099(4) 0.4709(4)
C16 C 0.0106(6) 0.3723(5) 0.4134(4)
C17 C -0.0361(5) 0.4285(4) 0.3522(5)
C18 C 0.0238(5) 0.5198(4) 0.3515(4)
C19 C 0.0176(5) 0.5415(4) 0.2623(4)
C20 C -0.0494(5) 0.4749(5) 0.1792(4)
C21 C -0.1123(5) 0.3789(5) 0.1805(5)
C22 C -0.1060(5) 0.3572(5) 0.2645(5)
C23 C -0.1000(5) 0.2546(5) 0.2718(5)
C24 C -0.0291(6) 0.2641(5) 0.3642(5)
C25 C 0.0417(6) 0.1984(5) 0.3745(5)
C26 C 0.1506(6) 0.2382(5) 0.4339(4)
C27 C 0.2191(6) 0.1840(5) 0.3899(5)
C28 C 0.3188(6) 0.2346(5) 0.3960(5)
C29 C 0.3554(6) 0.2152(5) 0.3129(5)
C30 C 0.2907(6) 0.1467(4) 0.2281(5)
C31 C 0.1846(6) 0.0942(5) 0.2238(5)
C32 C 0.1501(6) 0.1118(4) 0.3033(5)
C33 C 0.0384(6) 0.1206(4) 0.2926(5)
C34 C -0.0301(6) 0.1116(5) 0.2039(5)
C35 C -0.1026(6) 0.1790(5) 0.1927(5)
C36 C -0.1085(5) 0.2027(5) 0.1046(4)
C37 C -0.0415(6) 0.1489(4) 0.0607(5)
C38 C 0.0078(6) 0.0923(4) 0.1228(5)
C39 C 0.1123(6) 0.0835(5) 0.1321(5)
C40 C 0.1732(6) 0.1308(5) 0.0800(5)
C41 C 0.2826(6) 0.1695(5) 0.1394(5)
C42 C 0.3432(5) 0.2614(5) 0.1395(5)
C43 C 0.4111(5) 0.3334(5) 0.2266(5)
C44 C 0.4189(5) 0.3120(5) 0.3115(5)
C45 C 0.0183(6) 0.1952(5) 0.0118(5)
C46 C 0.1278(6) 0.1857(5) 0.0213(5)
C47 C 0.1894(6) 0.2820(5) 0.0201(4)
C48 C 0.1189(6) 0.3505(5) 0.0095(4)
C49 C 0.0128(6) 0.2976(5) 0.0048(4)
C50 C 0.2949(6) 0.3185(5) 0.0764(5)
C51 C 0.3349(5) 0.4253(5) 0.1267(4)
C52 C 0.4062(5) 0.4348(5) 0.2190(5)
C53 C 0.2651(6) 0.4912(5) 0.1181(4)
C54 C 0.2688(5) 0.5707(4) 0.2013(4)
C55 C 0.1574(5) 0.5784(4) 0.1916(4)
C56 C 0.0892(5) 0.5059(4) 0.1036(4)
C57 C 0.1215(5) 0.5978(4) 0.2679(4)
C58 C -0.0520(6) 0.3484(5) 0.0469(4)
C59 C -0.1147(5) 0.2997(5) 0.0977(5)
C60 C 0.1565(6) 0.4522(5) 0.0592(4)
C61 C -0.0114(6) 0.4551(5) 0.0977(4)
C62 C 0.4038(5) 0.7229(4) 0.4348(4)
C63 C 0.1857(5) 0.7444(4) 0.4127(4)
C64 C 0.1453(5) 0.8009(4) 0.3441(4)
C65 C 0.0400(5) 0.8070(4) 0.3187(4)
C66 C 0.0012(5) 0.8592(4) 0.2488(5)
C67 C -0.1018(5) 0.8647(4) 0.2222(4)
C68 C -0.1783(5) 0.8226(4) 0.2628(4)
C69 C -0.1397(6) 0.7739(5) 0.3344(5)
C70 C -0.0382(5) 0.7641(5) 0.3583(5)
C71 C -0.3185(6) 0.8803(6) 0.1642(6)
C72 C -0.3582(7) 0.7986(7) 0.2801(6)
C73 C 0.2262(5) 0.8456(4) 0.3035(4)
C74 C 0.3190(5) 0.9180(4) 0.3614(4)
C75 C 0.3910(5) 0.9654(5) 0.3254(5)
C76 C 0.3745(5) 0.9428(4) 0.2270(5)
C77 C 0.2816(5) 0.8694(5) 0.1694(5)
C78 C 0.2102(5) 0.8232(4) 0.2068(4)
C79 C 0.5429(6) 1.0623(6) 0.2523(6)
C80 C 0.4184(7) 0.9822(5) 0.0904(5)
N3 N -0.3418(6) 0.9178(7) 0.1041(6)
N4 N 0.2948(5) 0.7100(4) 0.6375(4)
C81 C 0.2098(5) 0.7883(4) 0.5071(4)
C82 C 0.1932(6) 0.8886(5) 0.5424(5)
C83 C 0.2547(5) 0.7425(5) 0.5780(4)
N5 N -0.4169(7) 0.7695(8) 0.3161(6)
H1 H 0.4041 0.7449 0.5073
H2 H 0.3864 0.7824 0.4026
H3 H 0.4815 0.7107 0.4323
H4 H 0.0524 0.8917 0.2200
H5 H -0.1257 0.8992 0.1724
H6 H -0.1897 0.7469 0.3670
H7 H -0.0160 0.7256 0.4051
H8 H 0.3333 0.9357 0.4313
H9 H 0.4565 1.0169 0.3693
H10 H 0.2671 0.8503 0.0996
H11 H 0.1445 0.7718 0.1632
H12 H 0.5241 1.1293 0.2898
H13 H 0.5939 1.0835 0.2115
H14 H 0.5838 1.0266 0.3021
H15 H 0.4315 0.9111 0.0544
H16 H 0.4688 1.0446 0.0788
H17 H 0.3353 0.9837 0.0633
S1 S 0.6029(2) 0.26039(19) 0.11584(18)
C84 C 0.5888(7) 0.2833(6) 0.0211(7)
S2 S 0.5758(3) 0.3047(2) -0.0766(2)
S3 S 0.6986(2) 0.50947(17) 0.28926(15)
C85 C 0.6819(7) 0.5379(5) 0.1970(6)
S4 S 0.6663(4) 0.5647(2) 0.1032(2)
loop_
_geom_bond_atom_site_label_1
_geom_bond_atom_site_label_2
_geom_bond_site_symmetry_1
_geom_bond_site_symmetry_2
C1 C68 1_555 1_555
N1 C76 1_555 1_555
N2 C82 1_555 1_555
C2 C3 1_555 1_555
C3 C4 1_555 1_555
C4 C5 1_555 1_555
C5 C6 1_555 1_555
C6 C7 1_555 1_555
C7 C2 1_555 1_555
C8 C7 1_555 1_555
C9 C8 1_555 1_555
C10 C6 1_555 1_555
C11 C10 1_555 1_555
C12 C11 1_555 1_555
C13 C5 1_555 1_555
C14 C13 1_555 1_555
C15 C4 1_555 1_555
C16 C15 1_555 1_555
C17 C16 1_555 1_555
C18 C3 1_555 1_555
C19 C18 1_555 1_555
C20 C19 1_555 1_555
C21 C20 1_555 1_555
C22 C17 1_555 1_555
C23 C22 1_555 1_555
C24 C16 1_555 1_555
C25 C24 1_555 1_555
C26 C14 1_555 1_555
C27 C26 1_555 1_555
C28 C12 1_555 1_555
C29 C28 1_555 1_555
C30 C29 1_555 1_555
C31 C30 1_555 1_555
C32 C27 1_555 1_555
C33 C25 1_555 1_555
C34 C33 1_555 1_555
C35 C23 1_555 1_555
C36 C35 1_555 1_555
C37 C36 1_555 1_555
C38 C34 1_555 1_555
C39 C31 1_555 1_555
C40 C39 1_555 1_555
C41 C30 1_555 1_555
C42 C41 1_555 1_555
C43 C42 1_555 1_555
C44 C11 1_555 1_555
C45 C37 1_555 1_555
C46 C40 1_555 1_555
C47 C46 1_555 1_555
C48 C47 1_555 1_555
C49 C45 1_555 1_555
C50 C42 1_555 1_555
C51 C50 1_555 1_555
C52 C9 1_555 1_555
C53 C51 1_555 1_555
C54 C8 1_555 1_555
C55 C54 1_555 1_555
C56 C55 1_555 1_555
C57 C2 1_555 1_555
C58 C49 1_555 1_555
C59 C21 1_555 1_555
C60 C48 1_555 1_555
C61 C20 1_555 1_555
C62 C7 1_555 1_555
C63 C2 1_555 1_555
C64 C63 1_555 1_555
C65 C64 1_555 1_555
C66 C65 1_555 1_555
C67 C66 1_555 1_555
C68 C67 1_555 1_555
C69 C68 1_555 1_555
C70 C65 1_555 1_555
C71 C1 1_555 1_555
C72 C1 1_555 1_555
C73 C64 1_555 1_555
C74 C73 1_555 1_555
C75 C74 1_555 1_555
C76 C75 1_555 1_555
C77 C76 1_555 1_555
C78 C73 1_555 1_555
C79 N1 1_555 1_555
C80 N1 1_555 1_555
N3 C71 1_555 1_555
N4 C83 1_555 1_555
C81 C63 1_555 1_555
C82 C81 1_555 1_555
C83 C81 1_555 1_555
N5 C72 1_555 1_555
H1 C62 1_555 1_555
H2 C62 1_555 1_555
H3 C62 1_555 1_555
H4 C66 1_555 1_555
H5 C67 1_555 1_555
H6 C69 1_555 1_555
H7 C70 1_555 1_555
H8 C74 1_555 1_555
H9 C75 1_555 1_555
H10 C77 1_555 1_555
H11 C78 1_555 1_555
H12 C79 1_555 1_555
H13 C79 1_555 1_555
H14 C79 1_555 1_555
H15 C80 1_555 1_555
H16 C80 1_555 1_555
H17 C80 1_555 1_555
S1 C84 1_555 1_555
C84 S2 1_555 1_555
S3 C85 1_555 1_555
C85 S4 1_555 1_555
C9 C10 1_555 1_555
C12 C13 1_555 1_555
C14 C15 1_555 1_555
C17 C18 1_555 1_555
C19 C57 1_555 1_555
C21 C22 1_555 1_555
C23 C24 1_555 1_555
C25 C26 1_555 1_555
C27 C28 1_555 1_555
C29 C44 1_555 1_555
C31 C32 1_555 1_555
C32 C33 1_555 1_555
C34 C35 1_555 1_555
C36 C59 1_555 1_555
C37 C38 1_555 1_555
C38 C39 1_555 1_555
C40 C41 1_555 1_555
C43 C44 1_555 1_555
C43 C52 1_555 1_555
C45 C46 1_555 1_555
C47 C50 1_555 1_555
C48 C49 1_555 1_555
C51 C52 1_555 1_555
C53 C54 1_555 1_555
C53 C60 1_555 1_555
C55 C57 1_555 1_555
C56 C60 1_555 1_555
C56 C61 1_555 1_555
C58 C59 1_555 1_555
C58 C61 1_555 1_555
C69 C70 1_555 1_555
C77 C78 1_555 1_555

#END
