
#######################################################################
#
#                 Cambridge Crystallographic Data Centre
#                                CCDC 
#
#######################################################################
#
# If this CIF has been generated from an entry in the Cambridge 
# Structural Database, then it will include bibliographic, chemical, 
# crystal, experimental, refinement or atomic coordinate data resulting 
# from the CCDC's data processing and validation procedures.
#
#######################################################################

data_TUWVUD
_chemical_formula_moiety         'C85 H17 N5,C1 S2'
_chemical_name_systematic        
'(4-(3,3-dicyano-2-((9-methyl-C60fullerene-1(9H)-yl)ethynyl)-1-(4-(dimethylamino)phenyl)prop-2-en-1-ylidene)cyclohexa-2,5-dien-1-ylidene)malononitrile carbon disulfide solvate'
_symmetry_cell_setting           triclinic
_symmetry_space_group_name_H-M   'P -1'
_symmetry_Int_Tables_number      2
_space_group_name_Hall           '-P 1'
loop_
_symmetry_equiv_pos_site_id
_symmetry_equiv_pos_as_xyz
1 x,y,z
2 -x,-y,-z
_cell_length_a                   12.6541(8)
_cell_length_b                   13.4552(12)
_cell_length_c                   16.474(2)
_cell_angle_alpha                84.762(4)
_cell_angle_beta                 71.545(4)
_cell_angle_gamma                71.759(4)
_cell_volume                     2526.87
_exptl_crystal_colour            'dark brown'
_exptl_crystal_description       plate
_cell_formula_units_Z            2
loop_
_atom_site_label
_atom_site_type_symbol
_atom_site_fract_x
_atom_site_fract_y
_atom_site_fract_z
N1 N -0.0602(6) 0.6932(6) 0.7676(5)
N2 N 0.4607(8) 0.7853(10) 1.1572(8)
N3 N 0.7881(8) 0.5486(7) 1.0290(6)
N4 N 0.7162(8) 0.4285(9) 0.5143(6)
N5 N 0.6405(9) 0.7095(9) 0.6703(6)
C1 C 0.4251(6) 0.1813(7) 0.6596(6)
C2 C 0.4007(7) 0.1388(8) 0.5879(6)
C3 C 0.4003(7) 0.0310(7) 0.6034(6)
C4 C 0.3992(7) 0.0088(8) 0.6901(6)
C5 C 0.3958(7) 0.1009(7) 0.7308(6)
C6 C 0.3384(8) 0.1968(8) 0.5356(6)
C7 C 0.2770(8) 0.1532(8) 0.4972(6)
C8 C 0.2800(8) 0.0478(8) 0.5106(6)
C9 C 0.3451(7) -0.0148(8) 0.5655(6)
C10 C 0.1738(8) 0.0173(9) 0.5270(7)
C11 C 0.1743(8) -0.0638(8) 0.5899(7)
C12 C 0.2785(8) -0.0844(8) 0.6134(7)
C13 C 0.0675(9) 0.0942(10) 0.5266(7)
C14 C -0.0405(8) 0.0940(10) 0.5908(7)
C15 C -0.0399(9) 0.0155(9) 0.6517(7)
C16 C 0.0705(9) -0.0646(8) 0.6505(7)
C17 C -0.1095(8) 0.0410(9) 0.7388(7)
C18 C -0.1762(8) 0.1425(10) 0.7616(7)
C19 C -0.1770(7) 0.2248(9) 0.6980(7)
C20 C -0.1103(8) 0.1995(9) 0.6140(7)
C21 C -0.1822(8) 0.1868(9) 0.8407(7)
C22 C -0.1852(7) 0.2964(9) 0.8262(7)
C23 C -0.1843(7) 0.3192(8) 0.7374(8)
C24 C -0.0427(8) -0.0229(8) 0.7929(7)
C25 C -0.0478(8) 0.0190(8) 0.8699(6)
C26 C 0.0580(9) -0.0012(9) 0.8919(7)
C27 C 0.0526(8) 0.0941(9) 0.9319(6)
C28 C -0.0562(9) 0.1735(10) 0.9326(6)
C29 C -0.1255(8) 0.3399(8) 0.8622(7)
C30 C -0.0621(8) 0.2775(9) 0.9183(6)
C31 C 0.0452(8) 0.3086(8) 0.9020(6)
C32 C 0.1489(8) 0.2312(8) 0.8997(5)
C33 C 0.1521(8) 0.1244(9) 0.9155(6)
C34 C -0.1193(8) 0.1282(9) 0.8942(6)
C35 C 0.2566(7) 0.2347(8) 0.8376(6)
C36 C 0.2566(7) 0.3120(8) 0.7767(6)
C37 C 0.1505(8) 0.3871(7) 0.7746(6)
C38 C 0.0456(8) 0.3890(8) 0.8390(6)
C39 C 0.2625(8) 0.0602(9) 0.8615(6)
C40 C 0.2673(8) -0.0316(9) 0.8257(7)
C41 C 0.1637(9) -0.0610(8) 0.8405(7)
C42 C 0.0658(9) -0.0850(8) 0.7378(7)
C43 C 0.1669(9) -0.1057(8) 0.7632(7)
C44 C 0.2790(8) -0.1042(8) 0.6966(7)
C45 C 0.3367(8) -0.0580(8) 0.7395(7)
C46 C -0.0614(7) 0.4094(7) 0.8115(7)
C47 C -0.0572(8) 0.4306(8) 0.7284(7)
C48 C 0.0513(8) 0.4323(7) 0.6635(7)
C49 C 0.0556(8) 0.3873(8) 0.5859(7)
C50 C -0.0503(9) 0.3610(9) 0.6018(8)
C51 C -0.1203(8) 0.3834(8) 0.6901(8)
C52 C 0.1515(8) 0.4110(7) 0.6888(7)
C53 C 0.2599(7) 0.3483(7) 0.6335(6)
C54 C 0.2665(8) 0.3051(8) 0.5592(6)
C55 C 0.1619(8) 0.3265(8) 0.5349(6)
C56 C 0.1684(9) 0.2302(10) 0.4965(6)
C57 C 0.0678(9) 0.2019(10) 0.5108(6)
C58 C -0.0436(9) 0.2668(9) 0.5654(7)
C59 C 0.3288(7) 0.1270(8) 0.8117(6)
C60 C 0.3453(7) 0.2988(7) 0.6864(6)
C61 C 0.5580(7) 0.1714(8) 0.6353(6)
C62 C 0.4144(7) 0.3696(8) 0.6814(6)
C63 C 0.4045(7) 0.5945(7) 0.7727(5)
C64 C 0.2852(7) 0.6280(7) 0.7727(5)
C65 C 0.1882(7) 0.6443(7) 0.8492(6)
C66 C 0.0760(7) 0.6634(7) 0.8477(6)
C67 C 0.0523(7) 0.6746(7) 0.7691(6)
C68 C 0.1443(7) 0.6643(7) 0.6924(5)
C69 C 0.2573(7) 0.6404(7) 0.6963(6)
C70 C -0.1556(8) 0.6942(9) 0.8459(7)
C71 C -0.0902(8) 0.7164(9) 0.6876(6)
C72 C 0.4461(7) 0.6109(7) 0.8380(6)
C73 C 0.3827(7) 0.6925(7) 0.9001(6)
C74 C 0.4244(7) 0.7074(8) 0.9639(6)
C75 C 0.5350(7) 0.6403(8) 0.9695(6)
C76 C 0.5970(7) 0.5610(8) 0.9070(6)
C77 C 0.5574(7) 0.5450(7) 0.8454(6)
C78 C 0.5796(7) 0.6562(8) 1.0336(6)
C79 C 0.5133(9) 0.7292(11) 1.1007(7)
C80 C 0.6954(8) 0.5961(9) 1.0329(6)
C81 C 0.4867(7) 0.5270(7) 0.6982(6)
C82 C 0.4560(7) 0.4382(8) 0.6842(6)
C83 C 0.5842(7) 0.5475(7) 0.6446(6)
C84 C 0.6583(8) 0.4806(9) 0.5724(7)
C85 C 0.6154(8) 0.6387(9) 0.6573(6)
H1 H 0.6092 0.0909 0.6196
H2 H 0.5756 0.1964 0.6889
H3 H 0.5808 0.2201 0.5808
H4 H 0.2040 0.6414 0.9102
H5 H 0.0058 0.6699 0.9069
H6 H 0.1274 0.6749 0.6314
H7 H 0.3277 0.6308 0.6369
H8 H -0.1238 0.6364 0.8895
H9 H -0.2245 0.6760 0.8307
H10 H -0.1891 0.7707 0.8755
H11 H -0.0639 0.7832 0.6577
H12 H -0.1834 0.7334 0.7011
H13 H -0.0454 0.6495 0.6451
H14 H 0.2994 0.7441 0.8969
H15 H 0.3738 0.7698 1.0101
H16 H 0.6812 0.5105 0.9094
H17 H 0.6089 0.4818 0.8002
C86 C 0.3733(10) 0.0571(11) 0.1157(10)
S1 S 0.3369(3) 0.0255(4) 0.0455(3)
S2 S 0.4048(5) 0.0906(4) 0.1887(4)
loop_
_geom_bond_atom_site_label_1
_geom_bond_atom_site_label_2
_geom_bond_site_symmetry_1
_geom_bond_site_symmetry_2
N1 C67 1_555 1_555
N2 C79 1_555 1_555
N3 C80 1_555 1_555
N4 C84 1_555 1_555
N5 C85 1_555 1_555
C1 C2 1_555 1_555
C2 C3 1_555 1_555
C3 C4 1_555 1_555
C4 C5 1_555 1_555
C5 C1 1_555 1_555
C6 C2 1_555 1_555
C7 C6 1_555 1_555
C8 C7 1_555 1_555
C9 C3 1_555 1_555
C10 C8 1_555 1_555
C11 C10 1_555 1_555
C12 C9 1_555 1_555
C13 C10 1_555 1_555
C14 C13 1_555 1_555
C15 C14 1_555 1_555
C16 C11 1_555 1_555
C17 C15 1_555 1_555
C18 C17 1_555 1_555
C19 C18 1_555 1_555
C20 C14 1_555 1_555
C21 C18 1_555 1_555
C22 C21 1_555 1_555
C23 C19 1_555 1_555
C24 C17 1_555 1_555
C25 C24 1_555 1_555
C26 C25 1_555 1_555
C27 C26 1_555 1_555
C28 C27 1_555 1_555
C29 C22 1_555 1_555
C30 C28 1_555 1_555
C31 C30 1_555 1_555
C32 C31 1_555 1_555
C33 C27 1_555 1_555
C34 C21 1_555 1_555
C35 C32 1_555 1_555
C36 C35 1_555 1_555
C37 C36 1_555 1_555
C38 C31 1_555 1_555
C39 C33 1_555 1_555
C40 C39 1_555 1_555
C41 C26 1_555 1_555
C42 C16 1_555 1_555
C43 C41 1_555 1_555
C44 C12 1_555 1_555
C45 C4 1_555 1_555
C46 C29 1_555 1_555
C47 C46 1_555 1_555
C48 C47 1_555 1_555
C49 C48 1_555 1_555
C50 C49 1_555 1_555
C51 C23 1_555 1_555
C52 C37 1_555 1_555
C53 C52 1_555 1_555
C54 C6 1_555 1_555
C55 C49 1_555 1_555
C56 C7 1_555 1_555
C57 C13 1_555 1_555
C58 C20 1_555 1_555
C59 C5 1_555 1_555
C60 C1 1_555 1_555
C61 C1 1_555 1_555
C62 C60 1_555 1_555
C63 C64 1_555 1_555
C64 C65 1_555 1_555
C65 C66 1_555 1_555
C66 C67 1_555 1_555
C67 C68 1_555 1_555
C68 C69 1_555 1_555
C69 C64 1_555 1_555
C70 N1 1_555 1_555
C71 N1 1_555 1_555
C72 C63 1_555 1_555
C73 C72 1_555 1_555
C74 C73 1_555 1_555
C75 C74 1_555 1_555
C76 C75 1_555 1_555
C77 C72 1_555 1_555
C78 C75 1_555 1_555
C79 C78 1_555 1_555
C80 C78 1_555 1_555
C81 C63 1_555 1_555
C82 C62 1_555 1_555
C83 C81 1_555 1_555
C84 C83 1_555 1_555
C85 C83 1_555 1_555
H1 C61 1_555 1_555
H2 C61 1_555 1_555
H3 C61 1_555 1_555
H4 C65 1_555 1_555
H5 C66 1_555 1_555
H6 C68 1_555 1_555
H7 C69 1_555 1_555
H8 C70 1_555 1_555
H9 C70 1_555 1_555
H10 C70 1_555 1_555
H11 C71 1_555 1_555
H12 C71 1_555 1_555
H13 C71 1_555 1_555
H14 C73 1_555 1_555
H15 C74 1_555 1_555
H16 C76 1_555 1_555
H17 C77 1_555 1_555
C86 S1 1_555 1_555
S2 C86 1_555 1_555
C8 C9 1_555 1_555
C11 C12 1_555 1_555
C15 C16 1_555 1_555
C19 C20 1_555 1_555
C22 C23 1_555 1_555
C24 C42 1_555 1_555
C25 C34 1_555 1_555
C28 C34 1_555 1_555
C29 C30 1_555 1_555
C32 C33 1_555 1_555
C35 C59 1_555 1_555
C36 C60 1_555 1_555
C37 C38 1_555 1_555
C38 C46 1_555 1_555
C39 C59 1_555 1_555
C40 C41 1_555 1_555
C40 C45 1_555 1_555
C42 C43 1_555 1_555
C43 C44 1_555 1_555
C44 C45 1_555 1_555
C47 C51 1_555 1_555
C48 C52 1_555 1_555
C50 C51 1_555 1_555
C50 C58 1_555 1_555
C53 C54 1_555 1_555
C53 C60 1_555 1_555
C54 C55 1_555 1_555
C55 C56 1_555 1_555
C56 C57 1_555 1_555
C57 C58 1_555 1_555
C76 C77 1_555 1_555
C81 C82 1_555 1_555

#END
