
#######################################################################
#
#                 Cambridge Crystallographic Data Centre
#                                CCDC 
#
#######################################################################
#
# If this CIF has been generated from an entry in the Cambridge 
# Structural Database, then it will include bibliographic, chemical, 
# crystal, experimental, refinement or atomic coordinate data resulting 
# from the CCDC's data processing and validation procedures.
#
#######################################################################

data_TUWVEN
_chemical_formula_moiety         'C71 H13 N1,2(C1 H2 Cl2)'
_chemical_name_systematic        
'1-((4-(dimethylamino)phenyl)ethynyl)-9-methyl-1,9-dihydro-C60fullerene dichloromethane solvate'
_symmetry_cell_setting           monoclinic
_symmetry_space_group_name_H-M   'P 21/n'
_symmetry_Int_Tables_number      14
_space_group_name_Hall           '-P 2yn'
loop_
_symmetry_equiv_pos_site_id
_symmetry_equiv_pos_as_xyz
1 x,y,z
2 1/2-x,1/2+y,1/2-z
3 -x,-y,-z
4 1/2+x,1/2-y,1/2+z
_cell_length_a                   19.2644(5)
_cell_length_b                   9.8421(3)
_cell_length_c                   24.1872(8)
_cell_angle_alpha                90
_cell_angle_beta                 112.1308(13)
_cell_angle_gamma                90
_cell_volume                     4248.08
_exptl_crystal_colour            'dark brown'
_exptl_crystal_description       cube
_cell_formula_units_Z            4
loop_
_atom_site_label
_atom_site_type_symbol
_atom_site_fract_x
_atom_site_fract_y
_atom_site_fract_z
N1 N 0.0938(2) 0.2207(4) 0.1439(2)
C1 C 0.5583(2) 0.2312(4) 0.30805(18)
C2 C 0.5791(2) 0.1014(4) 0.34687(18)
C3 C 0.6264(2) 0.0018(4) 0.34181(18)
C4 C 0.6727(2) 0.0255(4) 0.30632(18)
C5 C 0.6701(2) 0.1477(4) 0.27877(16)
C6 C 0.6088(2) 0.2558(4) 0.26896(17)
C7 C 0.6586(2) 0.3836(4) 0.28808(17)
C8 C 0.6518(2) 0.4832(4) 0.32550(19)
C9 C 0.7158(2) 0.5617(4) 0.3619(2)
C10 C 0.7857(3) 0.5382(4) 0.35946(19)
C11 C 0.7939(2) 0.4331(4) 0.32098(18)
C12 C 0.7310(2) 0.3571(4) 0.28696(18)
C13 C 0.7375(2) 0.2110(4) 0.28068(17)
C14 C 0.8073(2) 0.1478(4) 0.30849(18)
C15 C 0.8718(2) 0.2276(4) 0.3440(2)
C16 C 0.8654(2) 0.3674(4) 0.3504(2)
C17 C 0.9019(2) 0.4310(4) 0.40772(19)
C18 C 0.8530(2) 0.5371(4) 0.4137(2)
C19 C 0.8472(2) 0.5609(4) 0.4682(2)
C20 C 0.8899(2) 0.4798(4) 0.51959(19)
C21 C 0.9374(2) 0.3777(4) 0.51411(19)
C22 C 0.9433(2) 0.3525(4) 0.4572(2)
C23 C 0.9493(2) 0.2076(4) 0.4507(2)
C24 C 0.9150(2) 0.1448(4) 0.3960(2)
C25 C 0.8773(2) 0.0179(4) 0.3917(2)
C26 C 0.8750(2) -0.0449(4) 0.4422(2)
C27 C 0.9105(2) 0.0198(4) 0.4999(2)
C28 C 0.9478(2) 0.1424(4) 0.50458(19)
C29 C 0.9401(2) 0.2480(4) 0.54348(19)
C30 C 0.8968(3) 0.2256(4) 0.57670(19)
C31 C 0.8474(3) 0.3312(4) 0.58287(18)
C32 C 0.8448(3) 0.4554(4) 0.55505(18)
C33 C 0.7728(3) 0.5226(4) 0.52476(19)
C34 C 0.7071(3) 0.4610(4) 0.52507(19)
C35 C 0.7105(3) 0.3310(4) 0.55337(19)
C36 C 0.7797(3) 0.2666(4) 0.58205(17)
C37 C 0.7867(3) 0.1228(4) 0.57602(18)
C38 C 0.8590(3) 0.0953(4) 0.57255(18)
C39 C 0.8659(3) -0.0045(4) 0.53524(19)
C40 C 0.8012(3) -0.0835(4) 0.49876(19)
C41 C 0.8063(3) -0.1060(4) 0.4410(2)
C42 C 0.7427(2) -0.1036(4) 0.38969(19)
C43 C 0.7437(3) -0.0397(4) 0.33660(18)
C44 C 0.8103(3) 0.0191(4) 0.3377(2)
C45 C 0.7321(3) -0.0584(4) 0.50194(19)
C46 C 0.7239(3) 0.0468(4) 0.54106(18)
C47 C 0.6529(3) 0.1131(4) 0.51185(18)
C48 C 0.6167(2) 0.0494(4) 0.45375(18)
C49 C 0.6648(2) -0.0569(4) 0.44779(19)
C50 C 0.6700(2) -0.0779(4) 0.39317(18)
C51 C 0.6459(2) 0.2524(4) 0.51769(18)
C52 C 0.6034(2) 0.3341(4) 0.4663(2)
C53 C 0.6402(3) 0.4618(4) 0.4704(2)
C54 C 0.6421(2) 0.5220(4) 0.4190(2)
C55 C 0.7103(3) 0.5855(3) 0.4190(2)
C56 C 0.7744(3) 0.5862(3) 0.4717(2)
C57 C 0.6051(2) 0.4582(4) 0.36130(19)
C58 C 0.5694(2) 0.3378(4) 0.35767(19)
C59 C 0.5698(2) 0.2726(4) 0.41078(19)
C60 C 0.5756(2) 0.1274(4) 0.40425(19)
C61 C 0.5594(3) 0.2633(5) 0.20101(18)
C62 C 0.4767(3) 0.2268(4) 0.27235(19)
C63 C 0.4088(2) 0.2254(4) 0.25092(19)
C64 C 0.3292(2) 0.2240(4) 0.22469(17)
C65 C 0.2894(2) 0.1020(4) 0.21060(19)
C66 C 0.2128(2) 0.1002(4) 0.18511(19)
C67 C 0.1704(2) 0.2225(4) 0.17139(18)
C68 C 0.2109(2) 0.3464(4) 0.18685(19)
C69 C 0.2877(3) 0.3459(4) 0.21224(19)
C70 C 0.0561(3) 0.0931(6) 0.1164(3)
C71 C 0.0519(3) 0.3457(6) 0.1282(3)
H1 H 0.5953 0.2763 0.1757
H2 H 0.5211 0.3491 0.1927
H3 H 0.5273 0.1695 0.1872
H4 H 0.0808 0.0550 0.0860
H5 H -0.0028 0.1122 0.0922
H6 H 0.0629 0.0187 0.1509
H7 H 0.0676 0.4110 0.1668
H8 H -0.0073 0.3237 0.1127
H9 H 0.0641 0.3961 0.0932
H10 H 0.324(3) 0.017(5) 0.221(2)
H11 H 0.189(2) 0.014(4) 0.1745(19)
H12 H 0.314(2) 0.434(4) 0.2214(17)
H13 H 0.185(3) 0.435(5) 0.179(2)
Cl1 Cl 0.0370(6) 0.1016(9) 0.2708(5)
Cl2 Cl 0.0359(3) 0.3916(4) 0.2983(3)
C72 C 0.0475(16) 0.2278(15) 0.3177(13)
H14 H 0.1042 0.2186 0.3512
H15 H 0.0097 0.2071 0.3407
Cl3 Cl 0.2667(4) 0.7257(7) 0.1525(3)
C73 C 0.1796(5) 0.7305(12) 0.1135(4)
Cl4 Cl 0.0998(3) 0.7314(5) 0.0607(3)
H16 H 0.1705 0.8076 0.1424
H17 H 0.1753 0.6354 0.1351
C74? C 0.0021(12) 0.2454(12) 0.2643(8)
C75? C 0.1651(10) 0.732(2) 0.0917(8)
Cl5? Cl 0.0401(3) 0.0936(5) 0.2855(4)
Cl6? Cl 0.0425(7) 0.3728(12) 0.3189(7)
Cl7? Cl 0.2400(8) 0.7364(12) 0.1513(6)
Cl8? Cl 0.0805(7) 0.7286(14) 0.0567(10)
H18? H -0.0578 0.2396 0.2548
H19? H 0.0090 0.2743 0.2231
H20? H 0.1893 0.6777 0.0639
H21? H 0.1745 0.8380 0.0839
loop_
_geom_bond_atom_site_label_1
_geom_bond_atom_site_label_2
_geom_bond_site_symmetry_1
_geom_bond_site_symmetry_2
N1 C67 1_555 1_555
C1 C2 1_555 1_555
C2 C3 1_555 1_555
C3 C4 1_555 1_555
C4 C5 1_555 1_555
C5 C6 1_555 1_555
C6 C1 1_555 1_555
C7 C6 1_555 1_555
C8 C7 1_555 1_555
C9 C8 1_555 1_555
C10 C9 1_555 1_555
C11 C10 1_555 1_555
C12 C7 1_555 1_555
C13 C5 1_555 1_555
C14 C13 1_555 1_555
C15 C14 1_555 1_555
C16 C11 1_555 1_555
C17 C16 1_555 1_555
C18 C10 1_555 1_555
C19 C18 1_555 1_555
C20 C19 1_555 1_555
C21 C20 1_555 1_555
C22 C17 1_555 1_555
C23 C22 1_555 1_555
C24 C15 1_555 1_555
C25 C24 1_555 1_555
C26 C25 1_555 1_555
C27 C26 1_555 1_555
C28 C23 1_555 1_555
C29 C21 1_555 1_555
C30 C29 1_555 1_555
C31 C30 1_555 1_555
C32 C20 1_555 1_555
C33 C32 1_555 1_555
C34 C33 1_555 1_555
C35 C34 1_555 1_555
C36 C31 1_555 1_555
C37 C36 1_555 1_555
C38 C30 1_555 1_555
C39 C27 1_555 1_555
C40 C39 1_555 1_555
C41 C26 1_555 1_555
C42 C41 1_555 1_555
C43 C4 1_555 1_555
C44 C14 1_555 1_555
C45 C40 1_555 1_555
C46 C37 1_555 1_555
C47 C46 1_555 1_555
C48 C47 1_555 1_555
C49 C45 1_555 1_555
C50 C3 1_555 1_555
C51 C35 1_555 1_555
C52 C51 1_555 1_555
C53 C34 1_555 1_555
C54 C53 1_555 1_555
C55 C9 1_555 1_555
C56 C19 1_555 1_555
C57 C8 1_555 1_555
C58 C1 1_555 1_555
C59 C52 1_555 1_555
C60 C2 1_555 1_555
C61 C6 1_555 1_555
C62 C1 1_555 1_555
C63 C62 1_555 1_555
C64 C63 1_555 1_555
C65 C64 1_555 1_555
C66 C65 1_555 1_555
C67 C66 1_555 1_555
C68 C67 1_555 1_555
C69 C64 1_555 1_555
C70 N1 1_555 1_555
C71 N1 1_555 1_555
H1 C61 1_555 1_555
H2 C61 1_555 1_555
H3 C61 1_555 1_555
H4 C70 1_555 1_555
H5 C70 1_555 1_555
H6 C70 1_555 1_555
H7 C71 1_555 1_555
H8 C71 1_555 1_555
H9 C71 1_555 1_555
H10 C65 1_555 1_555
H11 C66 1_555 1_555
H12 C69 1_555 1_555
H13 C68 1_555 1_555
Cl1 C72 1_555 1_555
Cl2 C72 1_555 1_555
C72 H14 1_555 1_555
H15 C72 1_555 1_555
Cl3 C73 1_555 1_555
C73 Cl4 1_555 1_555
H16 C73 1_555 1_555
H17 C73 1_555 1_555
C11 C12 1_555 1_555
C12 C13 1_555 1_555
C15 C16 1_555 1_555
C17 C18 1_555 1_555
C21 C22 1_555 1_555
C23 C24 1_555 1_555
C25 C44 1_555 1_555
C27 C28 1_555 1_555
C28 C29 1_555 1_555
C31 C32 1_555 1_555
C33 C56 1_555 1_555
C35 C36 1_555 1_555
C37 C38 1_555 1_555
C38 C39 1_555 1_555
C40 C41 1_555 1_555
C42 C43 1_555 1_555
C42 C50 1_555 1_555
C43 C44 1_555 1_555
C45 C46 1_555 1_555
C47 C51 1_555 1_555
C48 C49 1_555 1_555
C48 C60 1_555 1_555
C49 C50 1_555 1_555
C52 C53 1_555 1_555
C54 C55 1_555 1_555
C54 C57 1_555 1_555
C55 C56 1_555 1_555
C57 C58 1_555 1_555
C58 C59 1_555 1_555
C59 C60 1_555 1_555
C68 C69 1_555 1_555

#END
