
#######################################################################
#
#                 Cambridge Crystallographic Data Centre
#                                CCDC 
#
#######################################################################
#
# If this CIF has been generated from an entry in the Cambridge 
# Structural Database, then it will include bibliographic, chemical, 
# crystal, experimental, refinement or atomic coordinate data resulting 
# from the CCDC's data processing and validation procedures.
#
#######################################################################

data_TUWYEQ
_chemical_formula_moiety         'C27 H21 Cl1 N2'
_chemical_name_systematic        
10-Chloro-4-methyl-8-phenyl-5,6,7,14-tetrahydroindolo[3',2':6,7]cyclohepta[1,2-b]quinoline
_symmetry_cell_setting           triclinic
_symmetry_space_group_name_H-M   'P -1'
_symmetry_Int_Tables_number      2
_space_group_name_Hall           '-P 1'
loop_
_symmetry_equiv_pos_site_id
_symmetry_equiv_pos_as_xyz
1 x,y,z
2 -x,-y,-z
_cell_length_a                   10.1683(17)
_cell_length_b                   10.3040(17)
_cell_length_c                   10.6098(17)
_cell_angle_alpha                89.169(3)
_cell_angle_beta                 87.774(3)
_cell_angle_gamma                63.726(2)
_cell_volume                     996.031
_exptl_crystal_colour            colorless
_exptl_crystal_description       block
_cell_formula_units_Z            2
loop_
_atom_site_label
_atom_site_type_symbol
_atom_site_fract_x
_atom_site_fract_y
_atom_site_fract_z
C1 C 0.1542(2) 0.2849(2) 0.83726(19)
H1 H 0.1634 0.3719 0.8476
C2 C 0.1132(2) 0.2259(2) 0.9377(2)
C3 C 0.0986(3) 0.0979(3) 0.9287(2)
H2 H 0.0733 0.0577 1.0015
C4 C 0.1209(2) 0.0309(2) 0.8144(2)
H3 H 0.1092 -0.0550 0.8055
C5 C 0.2448(2) 0.4032(2) 0.61793(19)
C6 C 0.3843(2) 0.3943(2) 0.6308(2)
H4 H 0.4673 0.3023 0.6286
C7 C 0.4036(2) 0.5167(2) 0.6466(2)
H5 H 0.4994 0.5088 0.6559
C8 C 0.2836(2) 0.6521(2) 0.6490(2)
H6 H 0.2968 0.7368 0.6600
C9 C 0.1448(2) 0.6625(2) 0.6353(2)
H7 H 0.0624 0.7549 0.6364
C10 C 0.1247(2) 0.5397(2) 0.6200(2)
H8 H 0.0287 0.5482 0.6108
N1 N 0.1788(16) 0.0135(13) 0.6046(8)
N2 N 0.1934(5) -0.1342(5) 0.3997(4)
H9 H 0.1427 -0.1433 0.4654
C11 C 0.2287(4) -0.2170(4) 0.2935(4)
C12 C 0.1992(4) -0.3332(5) 0.2662(4)
H10 H 0.1475 -0.3657 0.3250
C13 C 0.2481(5) -0.3989(5) 0.1503(5)
H11 H 0.2308 -0.4789 0.1284
C14 C 0.3235(5) -0.3486(5) 0.0638(5)
H12 H 0.3519 -0.3928 -0.0171
C15 C 0.3567(5) -0.2399(5) 0.0924(4)
C16 C 0.3065(4) -0.1674(5) 0.2105(4)
C17 C 0.3211(5) -0.0503(5) 0.2742(4)
C18 C 0.4105(8) 0.0227(6) 0.2234(6)
H13 H 0.3604 0.0832 0.1506
H14 H 0.5069 -0.0523 0.1920
C19 C 0.4364(7) 0.1175(5) 0.3184(6)
H15 H 0.4926 0.1645 0.2763
H16 H 0.4959 0.0561 0.3871
C20 C 0.2914(9) 0.2348(7) 0.3751(8)
H17 H 0.3023 0.3242 0.3898
H18 H 0.2125 0.2577 0.3145
C21 C 0.249(2) 0.1852(12) 0.4981(10)
C22 C 0.2260(16) 0.0576(10) 0.5015(7)
C23 C 0.2489(7) -0.0336(6) 0.3893(5)
C24 C 0.224(9) 0.269(5) 0.605(2)
C25 C 0.183(7) 0.218(4) 0.7179(16)
C26 C 0.161(6) 0.092(3) 0.7110(12)
C27 C 0.4459(5) -0.2021(5) 0.0001(5)
H19 H 0.5400 -0.2216 0.0363
H20 H 0.3937 -0.0992 -0.0210
H21 H 0.4634 -0.2604 -0.0764
Cl1 Cl 0.07228(9) 0.31308(7) 1.08337(5)
N3? N 0.191(3) 0.024(2) 0.5795(13)
N4? N 0.2092(9) -0.1074(8) 0.3666(6)
H22? H 0.1551 -0.1199 0.4278
C28? C 0.2532(8) -0.1859(7) 0.2550(7)
C29? C 0.2283(7) -0.3008(7) 0.2153(7)
H23? H 0.1716 -0.3356 0.2658
C30? C 0.2890(10) -0.3625(10) 0.0999(9)
C31? C 0.3687(8) -0.3054(8) 0.0257(7)
H24? H 0.4079 -0.3460 -0.0550
C32? C 0.3899(8) -0.1945(8) 0.0677(6)
H25? H 0.4439 -0.1579 0.0156
C33? C 0.3353(7) -0.1304(7) 0.1860(6)
C34? C 0.3436(9) -0.0177(9) 0.2551(7)
C35? C 0.4265(14) 0.0626(10) 0.2138(11)
H26? H 0.3773 0.1230 0.1406
H27? H 0.5255 -0.0083 0.1838
C36? C 0.4442(12) 0.1590(10) 0.3098(10)
H28? H 0.4917 0.2146 0.2677
H29? H 0.5110 0.0975 0.3748
C37? C 0.2996(16) 0.2664(13) 0.3758(14)
H30? H 0.3114 0.3525 0.4014
H31? H 0.2214 0.2987 0.3135
C38? C 0.249(3) 0.211(2) 0.4897(16)
C39? C 0.232(3) 0.0808(17) 0.4827(12)
C40? C 0.2642(12) -0.0061(10) 0.3660(8)
C41? C 0.224(14) 0.270(8) 0.610(3)
C42? C 0.176(12) 0.214(7) 0.717(2)
C43? C 0.161(9) 0.083(5) 0.699(2)
C44? C 0.2636(7) -0.4935(7) 0.0605(7)
H32? H 0.2631 -0.4977 -0.0317
H33? H 0.1691 -0.4828 0.0964
H34? H 0.3425 -0.5829 0.0918
loop_
_geom_bond_atom_site_label_1
_geom_bond_atom_site_label_2
_geom_bond_site_symmetry_1
_geom_bond_site_symmetry_2
C1 H1 1_555 1_555
C2 C1 1_555 1_555
C3 C2 1_555 1_555
H2 C3 1_555 1_555
C4 C3 1_555 1_555
H3 C4 1_555 1_555
C5 C6 1_555 1_555
C6 H4 1_555 1_555
C7 C6 1_555 1_555
H5 C7 1_555 1_555
C8 C7 1_555 1_555
H6 C8 1_555 1_555
C9 C8 1_555 1_555
H7 C9 1_555 1_555
C10 C5 1_555 1_555
H8 C10 1_555 1_555
N1 C22 1_555 1_555
N2 H9 1_555 1_555
C11 N2 1_555 1_555
C12 C11 1_555 1_555
H10 C12 1_555 1_555
C13 C12 1_555 1_555
H11 C13 1_555 1_555
C14 C13 1_555 1_555
H12 C14 1_555 1_555
C15 C14 1_555 1_555
C16 C11 1_555 1_555
C17 C16 1_555 1_555
C18 C17 1_555 1_555
H13 C18 1_555 1_555
H14 C18 1_555 1_555
C19 C18 1_555 1_555
H15 C19 1_555 1_555
H16 C19 1_555 1_555
C20 C19 1_555 1_555
H17 C20 1_555 1_555
H18 C20 1_555 1_555
C21 C20 1_555 1_555
C22 C21 1_555 1_555
C23 N2 1_555 1_555
C24 C5 1_555 1_555
C25 C1 1_555 1_555
C26 C4 1_555 1_555
C27 C15 1_555 1_555
H19 C27 1_555 1_555
H20 C27 1_555 1_555
H21 C27 1_555 1_555
Cl1 C2 1_555 1_555
C9 C10 1_555 1_555
N1 C26 1_555 1_555
C15 C16 1_555 1_555
C17 C23 1_555 1_555
C21 C24 1_555 1_555
C22 C23 1_555 1_555
C24 C25 1_555 1_555
C25 C26 1_555 1_555

#END
