
#######################################################################
#
#                 Cambridge Crystallographic Data Centre
#                                CCDC 
#
#######################################################################
#
# If this CIF has been generated from an entry in the Cambridge 
# Structural Database, then it will include bibliographic, chemical, 
# crystal, experimental, refinement or atomic coordinate data resulting 
# from the CCDC's data processing and validation procedures.
#
#######################################################################

data_TUWYOA
_chemical_formula_moiety         'C26 H19 Cl1 N2'
_chemical_name_systematic        
10-Chloro-8-phenyl-5,6,7,14-tetrahydroindolo[3',2':6,7]cyclohepta[1,2-b]quinoline
_symmetry_cell_setting           triclinic
_symmetry_space_group_name_H-M   'P -1'
_symmetry_Int_Tables_number      2
_space_group_name_Hall           '-P 1'
loop_
_symmetry_equiv_pos_site_id
_symmetry_equiv_pos_as_xyz
1 x,y,z
2 -x,-y,-z
_cell_length_a                   9.6463(6)
_cell_length_b                   10.2395(6)
_cell_length_c                   10.6062(6)
_cell_angle_alpha                91.7263(8)
_cell_angle_beta                 94.7200(8)
_cell_angle_gamma                114.0812(7)
_cell_volume                     950.851
_exptl_crystal_colour            yellow
_exptl_crystal_description       block
_cell_formula_units_Z            2
loop_
_atom_site_label
_atom_site_type_symbol
_atom_site_fract_x
_atom_site_fract_y
_atom_site_fract_z
C1 C 0.25892(11) 0.28464(11) 0.26242(10)
C2 C 0.28703(12) 0.16604(11) 0.22590(11)
H1 H 0.3391 0.1274 0.2831
C3 C 0.23566(14) 0.10741(12) 0.10275(12)
H2 H 0.2534 0.0271 0.0748
C4 C 0.15784(14) 0.16363(13) 0.01801(11)
H3 H 0.1253 0.1214 -0.0662
C5 C 0.12786(13) 0.27945(12) 0.05508(10)
H4 H 0.0740 0.3161 -0.0023
C6 C 0.17887(11) 0.34180(11) 0.17966(9)
C7 C 0.16571(11) 0.45837(10) 0.24844(9)
C8 C 0.23998(11) 0.46974(10) 0.36869(9)
C9 C 0.26558(10) 0.56160(10) 0.48482(9)
C10 C 0.24461(10) 0.69263(10) 0.48575(9)
C11 C 0.26740(10) 0.76858(10) 0.60109(9)
C12 C 0.31162(11) 0.71630(10) 0.71373(9)
C13 C 0.33733(11) 0.78926(10) 0.83498(9)
H5 H 0.3235 0.8756 0.8445
C14 C 0.38238(11) 0.73341(11) 0.93802(9)
C15 C 0.39943(12) 0.60325(11) 0.92888(10)
H6 H 0.4265 0.5651 1.0027
C16 C 0.37645(12) 0.53240(11) 0.81216(10)
H7 H 0.3892 0.4453 0.8050
C17 C 0.33372(11) 0.58791(10) 0.70171(9)
C18 C 0.07789(12) 0.53865(11) 0.19454(10)
H8 H -0.0229 0.4684 0.1553
H9 H 0.1328 0.5957 0.1264
C19 C 0.05270(12) 0.63892(12) 0.29018(10)
H10 H -0.0161 0.5810 0.3509
H11 H 0.0016 0.6930 0.2449
C20 C 0.20198(12) 0.74568(10) 0.36406(9)
H12 H 0.2858 0.7672 0.3092
H13 H 0.1919 0.8363 0.3838
C21 C 0.24634(11) 0.90472(10) 0.61305(9)
C22 C 0.36932(11) 1.03729(11) 0.61040(10)
H14 H 0.4675 1.0415 0.5982
C23 C 0.34880(12) 1.16345(11) 0.62557(10)
H15 H 0.4328 1.2535 0.6232
C24 C 0.20592(13) 1.15818(11) 0.64412(10)
H16 H 0.1918 1.2444 0.6538
C25 C 0.08369(13) 1.02645(12) 0.64851(11)
H17 H -0.0139 1.0226 0.6623
C26 C 0.10349(12) 0.89998(11) 0.63288(11)
H18 H 0.0193 0.8101 0.6357
Cl1 Cl 0.42654(3) 0.82700(3) 1.08548(2)
N1 N 0.29512(10) 0.36403(9) 0.37579(8)
H19 H 0.3458 0.3502 0.4432
N2 N 0.31165(9) 0.51345(9) 0.58813(8)
loop_
_geom_bond_atom_site_label_1
_geom_bond_atom_site_label_2
_geom_bond_site_symmetry_1
_geom_bond_site_symmetry_2
C1 C2 1_555 1_555
C2 H1 1_555 1_555
C3 C2 1_555 1_555
H2 C3 1_555 1_555
C4 C3 1_555 1_555
H3 C4 1_555 1_555
C5 C4 1_555 1_555
H4 C5 1_555 1_555
C6 C1 1_555 1_555
C7 C6 1_555 1_555
C8 C7 1_555 1_555
C9 C8 1_555 1_555
C10 C9 1_555 1_555
C11 C10 1_555 1_555
C12 C11 1_555 1_555
C13 C12 1_555 1_555
H5 C13 1_555 1_555
C14 C13 1_555 1_555
C15 C14 1_555 1_555
H6 C15 1_555 1_555
C16 C15 1_555 1_555
H7 C16 1_555 1_555
C17 C12 1_555 1_555
C18 C7 1_555 1_555
H8 C18 1_555 1_555
H9 C18 1_555 1_555
C19 C18 1_555 1_555
H10 C19 1_555 1_555
H11 C19 1_555 1_555
C20 C10 1_555 1_555
H12 C20 1_555 1_555
H13 C20 1_555 1_555
C21 C11 1_555 1_555
C22 C21 1_555 1_555
H14 C22 1_555 1_555
C23 C22 1_555 1_555
H15 C23 1_555 1_555
C24 C23 1_555 1_555
H16 C24 1_555 1_555
C25 C24 1_555 1_555
H17 C25 1_555 1_555
C26 C21 1_555 1_555
H18 C26 1_555 1_555
Cl1 C14 1_555 1_555
N1 C1 1_555 1_555
H19 N1 1_555 1_555
N2 C9 1_555 1_555
C5 C6 1_555 1_555
C8 N1 1_555 1_555
C16 C17 1_555 1_555
C17 N2 1_555 1_555
C19 C20 1_555 1_555
C25 C26 1_555 1_555

#END
