
#######################################################################
#
#                 Cambridge Crystallographic Data Centre
#                                CCDC 
#
#######################################################################
#
# If this CIF has been generated from an entry in the Cambridge 
# Structural Database, then it will include bibliographic, chemical, 
# crystal, experimental, refinement or atomic coordinate data resulting 
# from the CCDC's data processing and validation procedures.
#
#######################################################################

data_TUWYIU
_chemical_formula_moiety         'C27 H21 Cl1 N2'
_chemical_name_systematic        
10-Chloro-1-methyl-8-phenyl-5,6,7,14-tetrahydroindolo[3',2':6,7]cyclohepta[1,2-b]quinoline
_symmetry_cell_setting           triclinic
_symmetry_space_group_name_H-M   'P -1'
_symmetry_Int_Tables_number      2
_space_group_name_Hall           '-P 1'
loop_
_symmetry_equiv_pos_site_id
_symmetry_equiv_pos_as_xyz
1 x,y,z
2 -x,-y,-z
_cell_length_a                   9.0412(5)
_cell_length_b                   10.4926(6)
_cell_length_c                   10.9093(6)
_cell_angle_alpha                94.4820(10)
_cell_angle_beta                 102.1810(10)
_cell_angle_gamma                95.8120(10)
_cell_volume                     1001.13
_exptl_crystal_colour            yellow
_exptl_crystal_description       block
_cell_formula_units_Z            2
loop_
_atom_site_label
_atom_site_type_symbol
_atom_site_fract_x
_atom_site_fract_y
_atom_site_fract_z
C1 C 0.0852(3) -0.05750(16) 0.68654(18)
H1 H 0.0550 -0.1382 0.6311
H2 H -0.0061 -0.0196 0.6985
H3 H 0.1444 -0.0749 0.7684
C2 C 0.18120(19) 0.03518(13) 0.62746(14)
C3 C 0.2407(2) -0.00044(15) 0.52447(16)
H4 H 0.2195 -0.0874 0.4883
C4 C 0.3310(2) 0.08680(15) 0.47152(15)
H5 H 0.3694 0.0574 0.4011
C5 C 0.36528(18) 0.21481(14) 0.51994(13)
H6 H 0.4256 0.2740 0.4834
C6 C 0.30764(15) 0.25445(12) 0.62537(11)
C7 C 0.21825(15) 0.16458(12) 0.67678(11)
C8 C 0.23109(12) 0.43448(10) 0.90765(10)
C9 C 0.24824(13) 0.35490(11) 0.79598(10)
C10 C 0.32649(13) 0.37526(11) 0.70147(11)
C11 C 0.42060(14) 0.49181(12) 0.67715(12)
H7 H 0.3710 0.5192 0.5952
H8 H 0.5214 0.4675 0.6691
C12 C 0.44572(14) 0.60632(12) 0.77678(12)
H9 H 0.4950 0.6820 0.7455
H10 H 0.5160 0.5867 0.8538
C13 C 0.29706(14) 0.64058(11) 0.81104(11)
H11 H 0.3066 0.7347 0.8340
H12 H 0.2125 0.6186 0.7359
C14 C 0.25759(12) 0.57228(11) 0.91822(10)
C15 C 0.24461(12) 0.63949(10) 1.02873(10)
C16 C 0.20049(12) 0.57055(11) 1.12523(10)
C17 C 0.18121(13) 0.63309(11) 1.23959(11)
H13 H 0.1945 0.7244 1.2534
C18 C 0.14332(13) 0.56093(12) 1.32988(11)
C19 C 0.12681(14) 0.42520(12) 1.31500(11)
H14 H 0.1058 0.3774 1.3811
C20 C 0.14166(13) 0.36325(11) 1.20347(11)
H15 H 0.1290 0.2718 1.1920
C21 C 0.17569(12) 0.43405(11) 1.10505(10)
C22 C 0.27915(13) 0.78233(11) 1.05364(10)
C23 C 0.42483(17) 0.83781(13) 1.11078(18)
H16 H 0.5041 0.7849 1.1306
C24 C 0.45673(18) 0.97067(15) 1.1396(2)
H17 H 0.5575 1.0075 1.1793
C25 C 0.34446(17) 1.04880(13) 1.11132(15)
H18 H 0.3671 1.1396 1.1290
C26 C 0.19924(19) 0.99398(15) 1.0572(2)
H19 H 0.1202 1.0473 1.0385
C27 C 0.16577(17) 0.86120(14) 1.0290(2)
H20 H 0.0640 0.8246 0.9925
Cl1 Cl 0.11681(4) 0.63983(3) 1.46792(3)
N1 N 0.18286(12) 0.22748(10) 0.77996(10)
H21 H 0.1272 0.1924 0.8285
N2 N 0.19046(11) 0.36792(9) 0.99654(9)
loop_
_geom_bond_atom_site_label_1
_geom_bond_atom_site_label_2
_geom_bond_site_symmetry_1
_geom_bond_site_symmetry_2
C1 H1 1_555 1_555
H2 C1 1_555 1_555
H3 C1 1_555 1_555
C2 C1 1_555 1_555
C3 C2 1_555 1_555
H4 C3 1_555 1_555
C4 C3 1_555 1_555
H5 C4 1_555 1_555
C5 C4 1_555 1_555
H6 C5 1_555 1_555
C6 C5 1_555 1_555
C7 C2 1_555 1_555
C8 C9 1_555 1_555
C9 C10 1_555 1_555
C10 C6 1_555 1_555
C11 C10 1_555 1_555
H7 C11 1_555 1_555
H8 C11 1_555 1_555
C12 C11 1_555 1_555
H9 C12 1_555 1_555
H10 C12 1_555 1_555
C13 C12 1_555 1_555
H11 C13 1_555 1_555
H12 C13 1_555 1_555
C14 C8 1_555 1_555
C15 C14 1_555 1_555
C16 C15 1_555 1_555
C17 C16 1_555 1_555
H13 C17 1_555 1_555
C18 C17 1_555 1_555
C19 C18 1_555 1_555
H14 C19 1_555 1_555
C20 C19 1_555 1_555
H15 C20 1_555 1_555
C21 C16 1_555 1_555
C22 C15 1_555 1_555
C23 C22 1_555 1_555
H16 C23 1_555 1_555
C24 C23 1_555 1_555
H17 C24 1_555 1_555
C25 C24 1_555 1_555
H18 C25 1_555 1_555
C26 C25 1_555 1_555
H19 C26 1_555 1_555
C27 C22 1_555 1_555
H20 C27 1_555 1_555
Cl1 C18 1_555 1_555
N1 C7 1_555 1_555
H21 N1 1_555 1_555
N2 C8 1_555 1_555
C6 C7 1_555 1_555
C9 N1 1_555 1_555
C13 C14 1_555 1_555
C20 C21 1_555 1_555
C21 N2 1_555 1_555
C26 C27 1_555 1_555

#END
