
#######################################################################
#
#                 Cambridge Crystallographic Data Centre
#                                CCDC 
#
#######################################################################
#
# If this CIF has been generated from an entry in the Cambridge 
# Structural Database, then it will include bibliographic, chemical, 
# crystal, experimental, refinement or atomic coordinate data resulting 
# from the CCDC's data processing and validation procedures.
#
#######################################################################

data_TUXMIK
_chemical_formula_moiety         'C50 H60 N10 O10'
_chemical_name_systematic        
'6,13,20,27,34-pentaisobutyl-2,6,9,13,16,20,23,27,30,34-decaazahexacyclo[30.3.1.1^4,8^.1^11,15^.1^18,22^.1^25,29^]tetraconta-1(35),4,7,11,14,18,21,25,28,32-decaene-3,10,17,24,31,36,37,38,39,40-decone unknown solvate'
_symmetry_cell_setting           monoclinic
_symmetry_space_group_name_H-M   'P 21/n'
_symmetry_Int_Tables_number      14
_space_group_name_Hall           '-P 2yn'
loop_
_symmetry_equiv_pos_site_id
_symmetry_equiv_pos_as_xyz
1 x,y,z
2 1/2-x,1/2+y,1/2-z
3 -x,-y,-z
4 1/2+x,1/2-y,1/2+z
_cell_length_a                   23.3719(6)
_cell_length_b                   10.7207(3)
_cell_length_c                   26.6334(7)
_cell_angle_alpha                90
_cell_angle_beta                 114.4100(10)
_cell_angle_gamma                90
_cell_volume                     6076.83
_exptl_crystal_colour            colorless
_exptl_crystal_description       block
_cell_formula_units_Z            4
loop_
_atom_site_label
_atom_site_type_symbol
_atom_site_fract_x
_atom_site_fract_y
_atom_site_fract_z
O1 O 0.6753(2) 1.9723(4) 0.33916(16)
O2 O 0.6766(2) 1.9174(4) 0.62515(16)
O3 O 0.8878(2) 1.3696(4) 0.77110(17)
O4 O 1.06476(19) 1.1739(4) 0.59913(16)
O5 O 0.9007(2) 1.4827(4) 0.31729(14)
O6 O 0.8126(3) 1.6602(7) 0.4217(2)
O7 O 0.7535(3) 1.7781(6) 0.5044(4)
O8 O 0.8159(3) 1.6277(7) 0.6240(2)
O9 O 0.9191(3) 1.4292(6) 0.6175(3)
O10 O 0.9092(3) 1.4266(6) 0.4884(4)
C1 C 0.7963(3) 1.6895(6) 0.37062(12)
C2 C 0.8213(2) 1.6238(5) 0.33936(18)
C3 C 0.79920(19) 1.6457(4) 0.28304(17)
H1 H 0.8163 1.6008 0.2617
N1 N 0.75215(18) 1.7334(4) 0.25798(11)
C4 C 0.72718(19) 1.7992(4) 0.28924(16)
H2 H 0.6950 1.8591 0.2721
C5 C 0.7493(3) 1.7772(5) 0.34556(15)
C6 C 0.7241(3) 1.7430(6) 0.1979(2)
H3 H 0.7576 1.7623 0.1854
H4 H 0.6939 1.8133 0.1867
C7 C 0.6913(4) 1.6285(7) 0.1700(3)
H5 H 0.7219 1.5578 0.1831
C8 C 0.6702(5) 1.6414(9) 0.1067(3)
H6 H 0.7069 1.6590 0.0989
H7 H 0.6400 1.7099 0.0928
H8 H 0.6505 1.5635 0.0886
C9 C 0.6378(6) 1.5987(14) 0.1832(4)
H9 H 0.6519 1.5958 0.2233
H10 H 0.6204 1.5175 0.1673
H11 H 0.6054 1.6630 0.1677
C10 C 0.71286(19) 1.8686(4) 0.4936(3)
C11 C 0.6914(2) 1.9266(4) 0.4424(2)
C12 C 0.6480(2) 2.0232(4) 0.42988(15)
H12 H 0.6334 2.0628 0.3949
N2 N 0.62614(17) 2.0619(3) 0.46857(15)
C13 C 0.6476(2) 2.0039(4) 0.51977(14)
H13 H 0.6326 2.0304 0.5462
C14 C 0.6909(2) 1.9073(4) 0.53229(18)
C15 C 0.5802(3) 2.1587(6) 0.4549(2)
H14 H 0.5969 2.2338 0.4440
H15 H 0.5737 2.1802 0.4883
C16 C 0.5168(4) 2.1265(8) 0.4088(3)
H16 H 0.5236 2.1105 0.3747
C17 C 0.4725(5) 2.2382(12) 0.3976(4)
H17 H 0.4912 2.3109 0.3878
H18 H 0.4657 2.2570 0.4307
H19 H 0.4322 2.2184 0.3671
C18 C 0.4878(5) 2.0156(12) 0.4199(6)
H20 H 0.5170 1.9452 0.4282
H21 H 0.4492 1.9958 0.3874
H22 H 0.4775 2.0312 0.4515
C19 C 0.7989(3) 1.6342(5) 0.66439(18)
C20 C 0.7538(3) 1.7221(5) 0.66123(14)
C21 C 0.7338(2) 1.7313(4) 0.70350(15)
H23 H 0.7030 1.7914 0.7013
N3 N 0.75887(19) 1.6527(4) 0.74894(13)
C22 C 0.8040(2) 1.5648(4) 0.75210(16)
H24 H 0.8211 1.5111 0.7832
C23 C 0.8240(2) 1.5556(5) 0.7098(2)
C24 C 0.7365(7) 1.6574(16) 0.7923(4)
H25 H 0.7417 1.5749 0.8105
H26 H 0.6914 1.6799 0.7768
C25 C 0.9483(2) 1.3443(4) 0.65298(17)
C26 C 0.9375(2) 1.3302(4) 0.70023(19)
C27 C 0.9696(2) 1.2392(4) 0.73876(14)
H27 H 0.9622 1.2296 0.7711
N4 N 1.01249(19) 1.1622(3) 0.73004(13)
C28 C 1.02327(19) 1.1763(4) 0.68279(14)
H28 H 1.0526 1.1236 0.6768
C29 C 0.9912(2) 1.2673(5) 0.64426(13)
C30 C 1.0494(4) 1.0683(7) 0.7705(3)
H29 H 1.0474 0.9879 0.7516
H30 H 1.0312 1.0556 0.7978
C31 C 1.1177(4) 1.1095(8) 0.8001(3)
H31 H 1.1349 1.1226 0.7718
C32 C 1.1241(4) 1.2289(8) 0.8309(3)
H32 H 1.1687 1.2498 0.8506
H33 H 1.1054 1.2193 0.8575
H34 H 1.1025 1.2958 0.8049
C33 C 1.1542(5) 1.0008(9) 0.8380(3)
H35 H 1.1982 1.0250 0.8585
H36 H 1.1519 0.9270 0.8155
H37 H 1.1356 0.9815 0.8640
C34 C 0.9522(2) 1.3815(5) 0.4749(2)
C35 C 1.0019(3) 1.3115(5) 0.51176(16)
C36 C 1.0486(2) 1.2686(4) 0.49652(13)
H38 H 1.0825 1.2208 0.5217
N5 N 1.04557(15) 1.2958(3) 0.44446(14)
C37 C 0.99590(18) 1.3659(4) 0.40765(13)
H39 H 0.9939 1.3845 0.3721
C38 C 0.94922(16) 1.4087(4) 0.4229(2)
C39 C 1.0945(3) 1.2505(7) 0.4287(3)
H40 H 1.1352 1.2502 0.4615
H41 H 1.0984 1.3083 0.4013
C40 C 1.0811(6) 1.1204(9) 0.4045(4)
H42 H 1.0371 1.1237 0.3753
C41 C 1.0797(6) 1.0237(8) 0.4460(4)
H43 H 1.0711 0.9411 0.4287
H44 H 1.0467 1.0455 0.4582
H45 H 1.1204 1.0225 0.4779
C42 C 1.1184(8) 1.0710(14) 0.3773(6)
H46 H 1.1195 1.1316 0.3501
H47 H 1.0997 0.9929 0.3586
H48 H 1.1612 1.0551 0.4046
N6 N 0.7382(4) 1.8124(9) 0.3855(3)
H49 H 0.7587 1.7773 0.4169
N7 N 0.7226(5) 1.8272(9) 0.5697(4)
H50 H 0.7499 1.7771 0.5669
N8 N 0.8624(4) 1.4953(9) 0.6949(4)
H51 H 0.8681 1.5141 0.6659
N9 N 0.9861(4) 1.3055(9) 0.5962(4)
H52 H 0.9584 1.3609 0.5784
N10 N 0.9024(4) 1.4849(9) 0.4030(4)
H53 H 0.8868 1.5124 0.4250
C43 C 0.7010(7) 1.9094(13) 0.3830(4)
C44 C 0.7112(6) 1.8364(11) 0.6166(5)
C45 C 0.8926(6) 1.3966(12) 0.7267(4)
C46 C 1.0237(5) 1.2552(10) 0.5746(4)
C47 C 0.8793(5) 1.5232(11) 0.3502(4)
C48 C 0.7769(7) 1.7599(17) 0.8358(5)
H54 H 0.7656 1.8414 0.8158
C49 C 0.8518(7) 1.7538(16) 0.8620(4)
H55 H 0.8682 1.7727 0.9014
H56 H 0.8679 1.8151 0.8437
H57 H 0.8652 1.6700 0.8568
C50 C 0.7593(7) 1.7724(16) 0.8841(4)
H58 H 0.7149 1.7958 0.8708
H59 H 0.7854 1.8370 0.9092
H60 H 0.7662 1.6926 0.9037
N11? N 0.7174(5) 1.8590(9) 0.4188(4)
H61? H 0.7429 1.8025 0.4386
N12? N 0.7390(5) 1.7691(10) 0.6146(4)
H62? H 0.7567 1.7386 0.5947
N13? N 0.8991(5) 1.4206(10) 0.6947(4)
H63? H 0.8904 1.4687 0.6667
N14? N 0.9856(5) 1.3112(10) 0.5529(4)
H64? H 0.9533 1.3530 0.5510
N15? N 0.8575(4) 1.5489(9) 0.3760(3)
H65? H 0.8545 1.5433 0.4070
C51? C 0.7085(7) 1.8814(11) 0.3661(5)
C52? C 0.7000(6) 1.8676(13) 0.5952(5)
C53? C 0.8738(7) 1.4398(13) 0.7298(5)
C54? C 1.0188(5) 1.2396(12) 0.5971(5)
C55? C 0.9008(5) 1.4845(12) 0.3649(3)
loop_
_geom_bond_atom_site_label_1
_geom_bond_atom_site_label_2
_geom_bond_site_symmetry_1
_geom_bond_site_symmetry_2
O1 C43 1_555 1_555
O2 C44 1_555 1_555
O3 C45 1_555 1_555
O4 C46 1_555 1_555
O5 C47 1_555 1_555
O6 C1 1_555 1_555
O7 C10 1_555 1_555
O8 C19 1_555 1_555
O9 C25 1_555 1_555
O10 C34 1_555 1_555
C1 C2 1_555 1_555
C2 C3 1_555 1_555
C3 H1 1_555 1_555
N1 C3 1_555 1_555
C4 N1 1_555 1_555
H2 C4 1_555 1_555
C5 C1 1_555 1_555
C6 N1 1_555 1_555
H3 C6 1_555 1_555
H4 C6 1_555 1_555
C7 C6 1_555 1_555
H5 C7 1_555 1_555
C8 C7 1_555 1_555
H6 C8 1_555 1_555
H7 C8 1_555 1_555
H8 C8 1_555 1_555
C9 C7 1_555 1_555
H9 C9 1_555 1_555
H10 C9 1_555 1_555
H11 C9 1_555 1_555
C10 C11 1_555 1_555
C11 C12 1_555 1_555
C12 H12 1_555 1_555
N2 C12 1_555 1_555
C13 N2 1_555 1_555
H13 C13 1_555 1_555
C14 C10 1_555 1_555
C15 N2 1_555 1_555
H14 C15 1_555 1_555
H15 C15 1_555 1_555
C16 C15 1_555 1_555
H16 C16 1_555 1_555
C17 C16 1_555 1_555
H17 C17 1_555 1_555
H18 C17 1_555 1_555
H19 C17 1_555 1_555
C18 C16 1_555 1_555
H20 C18 1_555 1_555
H21 C18 1_555 1_555
H22 C18 1_555 1_555
C19 C20 1_555 1_555
C20 C21 1_555 1_555
C21 H23 1_555 1_555
N3 C21 1_555 1_555
C22 N3 1_555 1_555
H24 C22 1_555 1_555
C23 C19 1_555 1_555
C24 N3 1_555 1_555
H25 C24 1_555 1_555
H26 C24 1_555 1_555
C25 C26 1_555 1_555
C26 C27 1_555 1_555
C27 H27 1_555 1_555
N4 C27 1_555 1_555
C28 N4 1_555 1_555
H28 C28 1_555 1_555
C29 C25 1_555 1_555
C30 N4 1_555 1_555
H29 C30 1_555 1_555
H30 C30 1_555 1_555
C31 C30 1_555 1_555
H31 C31 1_555 1_555
C32 C31 1_555 1_555
H32 C32 1_555 1_555
H33 C32 1_555 1_555
H34 C32 1_555 1_555
C33 C31 1_555 1_555
H35 C33 1_555 1_555
H36 C33 1_555 1_555
H37 C33 1_555 1_555
C34 C35 1_555 1_555
C35 C36 1_555 1_555
C36 H38 1_555 1_555
N5 C36 1_555 1_555
C37 N5 1_555 1_555
H39 C37 1_555 1_555
C38 C34 1_555 1_555
C39 N5 1_555 1_555
H40 C39 1_555 1_555
H41 C39 1_555 1_555
C40 C39 1_555 1_555
H42 C40 1_555 1_555
C41 C40 1_555 1_555
H43 C41 1_555 1_555
H44 C41 1_555 1_555
H45 C41 1_555 1_555
C42 C40 1_555 1_555
H46 C42 1_555 1_555
H47 C42 1_555 1_555
H48 C42 1_555 1_555
N6 C5 1_555 1_555
H49 N6 1_555 1_555
N7 C14 1_555 1_555
H50 N7 1_555 1_555
N8 C23 1_555 1_555
H51 N8 1_555 1_555
N9 C29 1_555 1_555
H52 N9 1_555 1_555
N10 C38 1_555 1_555
H53 N10 1_555 1_555
C43 C11 1_555 1_555
C44 C20 1_555 1_555
C45 C26 1_555 1_555
C46 C35 1_555 1_555
C47 C2 1_555 1_555
C48 C24 1_555 1_555
H54 C48 1_555 1_555
C49 C48 1_555 1_555
H55 C49 1_555 1_555
H56 C49 1_555 1_555
H57 C49 1_555 1_555
C50 C48 1_555 1_555
H58 C50 1_555 1_555
H59 C50 1_555 1_555
H60 C50 1_555 1_555
C4 C5 1_555 1_555
C13 C14 1_555 1_555
C22 C23 1_555 1_555
C28 C29 1_555 1_555
C37 C38 1_555 1_555
N6 C43 1_555 1_555
N7 C44 1_555 1_555
N8 C45 1_555 1_555
N9 C46 1_555 1_555
N10 C47 1_555 1_555

#END
