
#######################################################################
#
#                 Cambridge Crystallographic Data Centre
#                                CCDC 
#
#######################################################################
#
# If this CIF has been generated from an entry in the Cambridge 
# Structural Database, then it will include bibliographic, chemical, 
# crystal, experimental, refinement or atomic coordinate data resulting 
# from the CCDC's data processing and validation procedures.
#
#######################################################################

data_TUXMAC
_chemical_formula_moiety         'C23 H20 N1 O2 P1'
_chemical_name_systematic        
17-(1,2,3,4-tetrahydronaphthalen-1-yl)-8,10-dioxa-17-aza-9-phosphatetracyclo[7.7.1.0^2,7^.0^11,16^]heptadeca-2,4,6,11,13,15-hexaene
_symmetry_cell_setting           hexagonal
_symmetry_space_group_name_H-M   'P 65'
_symmetry_Int_Tables_number      170
_space_group_name_Hall           'P 65'
loop_
_symmetry_equiv_pos_site_id
_symmetry_equiv_pos_as_xyz
1 x,y,z
2 -y,x-y,2/3+z
3 -x+y,-x,1/3+z
4 -x,-y,1/2+z
5 y,-x+y,1/6+z
6 x-y,x,5/6+z
_cell_length_a                   9.0398(5)
_cell_length_b                   9.0398(5)
_cell_length_c                   39.2730(19)
_cell_angle_alpha                90
_cell_angle_beta                 90
_cell_angle_gamma                120
_cell_volume                     2779.34
_exptl_crystal_colour            colorless
_exptl_crystal_description       plate
_cell_formula_units_Z            6
loop_
_atom_site_label
_atom_site_type_symbol
_atom_site_fract_x
_atom_site_fract_y
_atom_site_fract_z
P1 P 0.21772(8) 0.20430(8) 0.13168(2)
O1 O 0.4251(2) 0.3382(2) 0.13189(5)
O2 O 0.2169(2) 0.0375(2) 0.11409(4)
N1 N 0.1892(2) 0.1505(2) 0.17259(5)
C1 C 0.0275(3) 0.1048(3) 0.18931(6)
H1 H -0.0310 0.1501 0.1745
C2 C -0.0939(3) -0.0870(3) 0.19224(7)
H2 H -0.0433 -0.1384 0.2071
H3 H -0.1133 -0.1406 0.1695
C3 C -0.2629(3) -0.1186(4) 0.20718(8)
H4 H -0.3113 -0.0642 0.1925
H5 H -0.3450 -0.2429 0.2077
C4 C -0.2384(4) -0.0467(4) 0.24291(8)
H6 H -0.2349 -0.1294 0.2590
H7 H -0.3388 -0.0356 0.2489
C5 C -0.0784(4) 0.1253(4) 0.24784(7)
C6 C -0.0585(5) 0.2183(4) 0.27745(7)
H8 H -0.1485 0.1752 0.2937
C7 C 0.0883(6) 0.3713(5) 0.28382(8)
H9 H 0.0977 0.4335 0.3040
C8 C 0.2218(5) 0.4339(4) 0.26078(8)
H10 H 0.3253 0.5368 0.2654
C9 C 0.2027(4) 0.3446(3) 0.23088(7)
H11 H 0.2936 0.3886 0.2149
C10 C 0.0544(3) 0.1926(3) 0.22379(6)
C11 C 0.2992(3) 0.0869(3) 0.18624(6)
H12 H 0.2698 0.0551 0.2107
C12 C 0.4834(3) 0.2292(3) 0.18378(6)
C13 C 0.5367(3) 0.3458(3) 0.15710(6)
C14 C 0.7047(3) 0.4748(3) 0.15449(7)
H13 H 0.7384 0.5551 0.1364
C15 C 0.8240(3) 0.4875(3) 0.17802(7)
H14 H 0.9396 0.5760 0.1760
C16 C 0.7750(3) 0.3715(3) 0.20447(7)
H15 H 0.8570 0.3786 0.2205
C17 C 0.6051(3) 0.2446(3) 0.20740(6)
H16 H 0.5712 0.1667 0.2259
C18 C 0.2733(3) -0.0694(3) 0.16655(6)
C19 C 0.2351(3) -0.0847(3) 0.13208(7)
C20 C 0.2128(3) -0.2250(3) 0.11352(7)
H17 H 0.1821 -0.2356 0.0901
C21 C 0.2354(3) -0.3490(3) 0.12909(8)
H18 H 0.2225 -0.4442 0.1164
C22 C 0.2768(3) -0.3341(3) 0.16326(8)
H19 H 0.2939 -0.4186 0.1740
C23 C 0.2936(3) -0.1967(3) 0.18204(7)
H20 H 0.3191 -0.1893 0.2057
loop_
_geom_bond_atom_site_label_1
_geom_bond_atom_site_label_2
_geom_bond_site_symmetry_1
_geom_bond_site_symmetry_2
P1 O1 1_555 1_555
O1 C13 1_555 1_555
O2 P1 1_555 1_555
N1 P1 1_555 1_555
C1 N1 1_555 1_555
H1 C1 1_555 1_555
C2 C1 1_555 1_555
H2 C2 1_555 1_555
H3 C2 1_555 1_555
C3 C2 1_555 1_555
H4 C3 1_555 1_555
H5 C3 1_555 1_555
C4 C3 1_555 1_555
H6 C4 1_555 1_555
H7 C4 1_555 1_555
C5 C4 1_555 1_555
C6 C5 1_555 1_555
H8 C6 1_555 1_555
C7 C6 1_555 1_555
H9 C7 1_555 1_555
C8 C7 1_555 1_555
H10 C8 1_555 1_555
C9 C8 1_555 1_555
H11 C9 1_555 1_555
C10 C1 1_555 1_555
C11 N1 1_555 1_555
H12 C11 1_555 1_555
C12 C11 1_555 1_555
C13 C12 1_555 1_555
C14 C13 1_555 1_555
H13 C14 1_555 1_555
C15 C14 1_555 1_555
H14 C15 1_555 1_555
C16 C15 1_555 1_555
H15 C16 1_555 1_555
C17 C12 1_555 1_555
H16 C17 1_555 1_555
C18 C11 1_555 1_555
C19 O2 1_555 1_555
C20 C19 1_555 1_555
H17 C20 1_555 1_555
C21 C20 1_555 1_555
H18 C21 1_555 1_555
C22 C21 1_555 1_555
H19 C22 1_555 1_555
C23 C18 1_555 1_555
H20 C23 1_555 1_555
C5 C10 1_555 1_555
C9 C10 1_555 1_555
C16 C17 1_555 1_555
C18 C19 1_555 1_555
C22 C23 1_555 1_555

#END
