
#######################################################################
#
#                 Cambridge Crystallographic Data Centre
#                                CCDC 
#
#######################################################################
#
# If this CIF has been generated from an entry in the Cambridge 
# Structural Database, then it will include bibliographic, chemical, 
# crystal, experimental, refinement or atomic coordinate data resulting 
# from the CCDC's data processing and validation procedures.
#
#######################################################################

data_TUXMUW
_chemical_formula_moiety         'C42 H30 F3 N7 O8'
_chemical_name_systematic        
'methyl 3-((3-((3-(((6-(((6-(((benzyloxy)carbonyl)amino)pyridin-2-yl)carbonyl)amino)pyridin-2-yl)carbonyl)amino)-2-fluorobenzoyl)amino)-2-fluorobenzoyl)amino)-2-fluorobenzoate'
_symmetry_cell_setting           triclinic
_symmetry_space_group_name_H-M   'P -1'
_symmetry_Int_Tables_number      2
_space_group_name_Hall           '-P 1'
loop_
_symmetry_equiv_pos_site_id
_symmetry_equiv_pos_as_xyz
1 x,y,z
2 -x,-y,-z
_cell_length_a                   12.6347(15)
_cell_length_b                   12.8579(16)
_cell_length_c                   13.3997(17)
_cell_angle_alpha                94.470(3)
_cell_angle_beta                 117.546(2)
_cell_angle_gamma                101.859(3)
_cell_volume                     1850.98
_exptl_crystal_colour            colorless
_exptl_crystal_description       block
_cell_formula_units_Z            2
loop_
_atom_site_label
_atom_site_type_symbol
_atom_site_fract_x
_atom_site_fract_y
_atom_site_fract_z
F1 F 0.26508(7) 0.47436(6) 0.47399(6)
F2 F 0.11117(7) 0.66912(6) 0.39388(6)
F3 F -0.07840(8) 0.62717(6) 0.07414(6)
O1 O 0.27352(9) 0.90061(7) 0.40033(8)
O2 O 0.20650(10) 0.95166(8) 0.22828(9)
O3 O 0.35971(10) 0.49103(9) -0.01425(8)
O4 O 0.55673(10) 0.26563(10) 0.53523(9)
O5 O 0.13697(9) 0.49665(8) 0.70911(8)
O6 O -0.03023(9) 0.92656(8) 0.34652(8)
O7 O -0.14953(10) 0.69065(8) -0.24670(8)
O8 O -0.10517(9) 0.57502(8) -0.12627(8)
N1 N 0.25670(11) 0.79013(9) 0.25653(10)
H1 H 0.2930(15) 0.7585(13) 0.3099(14)
N2 N 0.29416(10) 0.66758(9) 0.15301(9)
N3 N 0.37525(10) 0.49481(9) 0.16336(9)
H2 H 0.3581(15) 0.5300(14) 0.2080(15)
N4 N 0.43175(10) 0.39560(8) 0.30156(9)
N5 N 0.39518(11) 0.34264(9) 0.47040(10)
H3 H 0.3552(17) 0.3690(15) 0.4121(16)
N6 N 0.16138(10) 0.57483(9) 0.57160(9)
H4 H 0.1938(17) 0.5735(15) 0.5263(16)
N7 N -0.05750(11) 0.76696(9) 0.23883(9)
H5 H -0.0566(16) 0.7013(16) 0.2403(15)
C1 C 0.33233(13) 1.00629(10) 0.57901(12)
C2 C 0.45712(13) 1.01209(11) 0.64588(12)
H6 H 0.5084 1.0165 0.6114
C3 C 0.50762(15) 1.01153(13) 0.76150(13)
H7 H 0.5931 1.0154 0.8064
C4 C 0.43286(17) 1.00528(14) 0.81195(14)
H8 H 0.4672 1.0052 0.8917
C5 C 0.30876(17) 0.99912(14) 0.74633(15)
H9 H 0.2577 0.9946 0.7811
C6 C 0.25815(14) 0.99952(11) 0.63019(13)
H10 H 0.1725 0.9952 0.5854
C7 C 0.27918(13) 1.00621(10) 0.45315(12)
H11 H 0.1952 1.0173 0.4208
H12 H 0.3329 1.0647 0.4399
C8 C 0.24147(12) 0.88740(10) 0.28850(11)
C9 C 0.24648(12) 0.75119(10) 0.15136(11)
C10 C 0.19078(13) 0.79363(11) 0.05254(11)
H13 H 0.1546 0.8515 0.0525
C11 C 0.19001(14) 0.74893(12) -0.04485(12)
H14 H 0.1539 0.7768 -0.1129
C12 C 0.24183(13) 0.66328(12) -0.04397(11)
H15 H 0.2432 0.6324 -0.1100
C13 C 0.29120(12) 0.62492(11) 0.05688(11)
C14 C 0.34547(12) 0.52987(11) 0.06304(11)
C15 C 0.43208(12) 0.41421(10) 0.20553(11)
C16 C 0.48726(12) 0.36026(11) 0.15579(12)
H16 H 0.4846 0.3738 0.0861
C17 C 0.54556(13) 0.28664(11) 0.21280(12)
H17 H 0.5838 0.2482 0.1818
C18 C 0.54919(13) 0.26788(11) 0.31484(12)
H18 H 0.5910 0.2185 0.3554
C19 C 0.48962(12) 0.32384(10) 0.35527(11)
C20 C 0.48567(12) 0.30715(11) 0.46374(11)
C21 C 0.29687(12) 0.41779(10) 0.56086(10)
C22 C 0.36745(12) 0.34762(10) 0.56019(11)
C23 C 0.40307(12) 0.28838(10) 0.64716(11)
H19 H 0.4499 0.2388 0.6489
C24 C 0.36955(13) 0.30240(11) 0.73138(11)
H20 H 0.3948 0.2624 0.7912
C25 C 0.30033(12) 0.37314(10) 0.73021(11)
H21 H 0.2798 0.3820 0.7896
C26 C 0.26020(12) 0.43202(10) 0.64212(10)
C27 C 0.18074(12) 0.50372(10) 0.64448(10)
C28 C 0.06878(11) 0.70146(10) 0.46443(10)
C29 C 0.09445(11) 0.65222(10) 0.55925(11)
C30 C 0.05325(12) 0.68447(11) 0.63360(11)
H22 H 0.0676 0.6517 0.6982
C31 C -0.00875(12) 0.76455(11) 0.61322(11)
H23 H -0.0353 0.7870 0.6651
C32 C -0.03255(12) 0.81212(11) 0.51880(11)
H24 H -0.0742 0.8674 0.5068
C33 C 0.00447(11) 0.77917(10) 0.44093(10)
C34 C -0.02785(12) 0.83197(11) 0.33861(11)
C35 C -0.10050(11) 0.72192(10) 0.04549(11)
C36 C -0.09199(13) 0.79623(11) 0.13149(11)
C37 C -0.1162(2) 0.89384(14) 0.10554(14)
H25 H -0.1113 0.9469 0.1621
C38 C -0.1477(2) 0.91361(15) -0.00358(16)
H26 H -0.1666 0.9799 -0.0214
C39 C -0.15247(17) 0.83994(13) -0.08664(13)
H27 H -0.1724 0.8563 -0.1602
C40 C -0.12806(12) 0.74159(11) -0.06292(11)
C41 C -0.12911(12) 0.66742(11) -0.15474(11)
C42 C -0.10730(15) 0.50062(12) -0.21427(12)
H28 H -0.1893 0.4819 -0.2830
H29 H -0.0899 0.4347 -0.1860
H30 H -0.0441 0.5349 -0.2334
loop_
_geom_bond_atom_site_label_1
_geom_bond_atom_site_label_2
_geom_bond_site_symmetry_1
_geom_bond_site_symmetry_2
F1 C21 1_555 1_555
F2 C28 1_555 1_555
F3 C35 1_555 1_555
O1 C7 1_555 1_555
O2 C8 1_555 1_555
O3 C14 1_555 1_555
O4 C20 1_555 1_555
O5 C27 1_555 1_555
O6 C34 1_555 1_555
O7 C41 1_555 1_555
O8 C41 1_555 1_555
N1 H1 1_555 1_555
N2 C9 1_555 1_555
N3 H2 1_555 1_555
N4 C15 1_555 1_555
N5 H3 1_555 1_555
N6 H4 1_555 1_555
N7 H5 1_555 1_555
C1 C2 1_555 1_555
C2 H6 1_555 1_555
C3 C2 1_555 1_555
H7 C3 1_555 1_555
C4 C3 1_555 1_555
H8 C4 1_555 1_555
C5 C4 1_555 1_555
H9 C5 1_555 1_555
C6 C1 1_555 1_555
H10 C6 1_555 1_555
C7 C1 1_555 1_555
H11 C7 1_555 1_555
H12 C7 1_555 1_555
C8 O1 1_555 1_555
C9 N1 1_555 1_555
C10 C9 1_555 1_555
H13 C10 1_555 1_555
C11 C10 1_555 1_555
H14 C11 1_555 1_555
C12 C11 1_555 1_555
H15 C12 1_555 1_555
C13 N2 1_555 1_555
C14 N3 1_555 1_555
C15 N3 1_555 1_555
C16 C15 1_555 1_555
H16 C16 1_555 1_555
C17 C16 1_555 1_555
H17 C17 1_555 1_555
C18 C17 1_555 1_555
H18 C18 1_555 1_555
C19 N4 1_555 1_555
C20 N5 1_555 1_555
C21 C22 1_555 1_555
C22 N5 1_555 1_555
C23 C22 1_555 1_555
H19 C23 1_555 1_555
C24 C23 1_555 1_555
H20 C24 1_555 1_555
C25 C24 1_555 1_555
H21 C25 1_555 1_555
C26 C21 1_555 1_555
C27 N6 1_555 1_555
C28 C29 1_555 1_555
C29 N6 1_555 1_555
C30 C29 1_555 1_555
H22 C30 1_555 1_555
C31 C30 1_555 1_555
H23 C31 1_555 1_555
C32 C31 1_555 1_555
H24 C32 1_555 1_555
C33 C28 1_555 1_555
C34 N7 1_555 1_555
C35 C36 1_555 1_555
C36 N7 1_555 1_555
C37 C36 1_555 1_555
H25 C37 1_555 1_555
C38 C37 1_555 1_555
H26 C38 1_555 1_555
C39 C38 1_555 1_555
H27 C39 1_555 1_555
C40 C35 1_555 1_555
C41 C40 1_555 1_555
C42 O8 1_555 1_555
H28 C42 1_555 1_555
H29 C42 1_555 1_555
H30 C42 1_555 1_555
N1 C8 1_555 1_555
C5 C6 1_555 1_555
C12 C13 1_555 1_555
C13 C14 1_555 1_555
C18 C19 1_555 1_555
C19 C20 1_555 1_555
C25 C26 1_555 1_555
C26 C27 1_555 1_555
C32 C33 1_555 1_555
C33 C34 1_555 1_555
C39 C40 1_555 1_555

#END
