
#######################################################################
#
#                 Cambridge Crystallographic Data Centre
#                                CCDC 
#
#######################################################################
#
# If this CIF has been generated from an entry in the Cambridge 
# Structural Database, then it will include bibliographic, chemical, 
# crystal, experimental, refinement or atomic coordinate data resulting 
# from the CCDC's data processing and validation procedures.
#
#######################################################################

data_TUXMEG
_chemical_formula_moiety         'C21 H26 N2 O5 S1'
_chemical_name_systematic        
'ethyl 2-((dimethylsulfamoyl)amino)-4-(4-methoxyphenyl)-4-phenylbut-2-enoate'
_symmetry_cell_setting           monoclinic
_symmetry_space_group_name_H-M   'P 2'
_symmetry_Int_Tables_number      3
_space_group_name_Hall           'P 2y'
loop_
_symmetry_equiv_pos_site_id
_symmetry_equiv_pos_as_xyz
1 x,y,z
2 -x,y,-z
_cell_length_a                   16.054(9)
_cell_length_b                   10.101(6)
_cell_length_c                   25.826(14)
_cell_angle_alpha                90
_cell_angle_beta                 98.59(4)
_cell_angle_gamma                90
_cell_volume                     4141
_exptl_crystal_colour            colorless
_exptl_crystal_description       rod
_cell_formula_units_Z            8
loop_
_atom_site_label
_atom_site_type_symbol
_atom_site_fract_x
_atom_site_fract_y
_atom_site_fract_z
S1 S 1.0859(2) 1.1425(4) 0.81452(15)
N1 N 0.9962(6) 1.2116(10) 0.8228(4)
H1 H 0.9952 1.2933 0.8345
N2 N 1.0907(8) 1.1096(12) 0.7549(5)
O1 O 0.9487(6) 0.4786(11) 0.9277(4)
O2 O 0.8993(6) 1.2417(10) 0.7280(3)
O3 O 0.8037(6) 1.0921(11) 0.7482(4)
O4 O 1.0918(6) 1.0193(10) 0.8395(4)
O5 O 1.1464(5) 1.2418(10) 0.8304(4)
C1 C 0.8787(8) 1.0999(15) 0.9405(5)
C2 C 0.8758(8) 1.0500(16) 0.9888(5)
H2 H 0.9037 0.9687 0.9983
C3 C 0.8345(10) 1.1121(17) 1.0242(6)
H3 H 0.8313 1.0703 1.0568
C4 C 0.7974(9) 1.2332(18) 1.0141(7)
H4 H 0.7732 1.2795 1.0403
C5 C 0.7962(9) 1.2850(17) 0.9655(7)
H5 H 0.7644 1.3631 0.9563
C6 C 0.8405(8) 1.2267(13) 0.9282(5)
H6 H 0.8449 1.2699 0.8961
C7 C 0.9351(9) 0.8862(16) 0.9077(5)
C8 C 0.8629(8) 0.8039(15) 0.9060(5)
H7 H 0.8082 0.8418 0.9007
C9 C 0.8726(9) 0.6670(14) 0.9119(5)
H8 H 0.8235 0.6134 0.9087
C10 C 0.9492(9) 0.6072(15) 0.9220(6)
C11 C 1.0203(10) 0.6911(16) 0.9266(5)
H9 H 1.0753 0.6550 0.9353
C12 C 1.0104(8) 0.8208(16) 0.9186(5)
H10 H 1.0601 0.8727 0.9207
C13 C 1.0294(10) 0.4114(17) 0.9363(7)
H11 H 1.0613 0.4337 0.9080
H12 H 1.0203 0.3155 0.9369
H13 H 1.0610 0.4396 0.9699
C14 C 0.9274(9) 1.0342(15) 0.8998(5)
H14 H 0.9856 1.0722 0.9046
C15 C 0.8880(8) 1.0604(14) 0.8452(5)
H15 H 0.8355 1.0186 0.8339
C16 C 0.9185(8) 1.1364(13) 0.8105(5)
C17 C 0.8747(8) 1.1616(13) 0.7568(6)
C18 C 0.7519(9) 1.1192(15) 0.6970(5)
H16 H 0.6934 1.0890 0.6975
H17 H 0.7508 1.2156 0.6900
C19 C 0.7876(13) 1.0499(19) 0.6562(7)
H18 H 0.8471 1.0742 0.6579
H19 H 0.7569 1.0746 0.6219
H20 H 0.7830 0.9542 0.6612
C20 C 1.0526(11) 0.9948(17) 0.7293(6)
H21 H 0.9931 1.0130 0.7165
H22 H 1.0569 0.9209 0.7542
H23 H 1.0816 0.9718 0.6998
C21 C 1.0976(9) 1.2257(18) 0.7204(5)
H24 H 1.1257 1.1991 0.6909
H25 H 1.1305 1.2955 0.7404
H26 H 1.0411 1.2592 0.7072
S2 S 0.3093(2) 0.0636(4) 0.67971(14)
N3 N 0.4060(7) 0.0121(11) 0.6797(4)
H27 H 0.4153 -0.0688 0.6693
N4 N 0.2902(8) 0.0955(14) 0.7391(5)
O6 O 0.7014(6) -0.1447(10) 0.5052(4)
O7 O 0.4870(5) 0.0129(10) 0.7808(3)
O8 O 0.5644(9) 0.1870(16) 0.7663(4)
O9 O 0.2993(6) 0.1867(10) 0.6524(4)
O10 O 0.2579(5) -0.0475(10) 0.6624(4)
C22 C 0.4784(9) 0.3325(15) 0.5901(5)
C23 C 0.4069(11) 0.3833(16) 0.5654(6)
H28 H 0.3585 0.3290 0.5570
C24 C 0.4040(11) 0.5142(17) 0.5525(5)
H29 H 0.3522 0.5481 0.5349
C25 C 0.4716(12) 0.6022(17) 0.5632(6)
H30 H 0.4676 0.6929 0.5534
C26 C 0.5440(12) 0.5472(17) 0.5889(6)
H31 H 0.5923 0.6015 0.5978
C27 C 0.5488(11) 0.4146(17) 0.6021(6)
H32 H 0.6002 0.3788 0.6194
C28 C 0.5497(7) 0.1044(14) 0.5789(5)
C29 C 0.5632(10) -0.0294(15) 0.5911(6)
H33 H 0.5351 -0.0680 0.6172
C30 C 0.6142(9) -0.1047(16) 0.5673(6)
H34 H 0.6236 -0.1937 0.5786
C31 C 0.6531(8) -0.0596(15) 0.5280(5)
C32 C 0.6429(8) 0.0719(17) 0.5150(5)
H35 H 0.6708 0.1083 0.4883
C33 C 0.5917(7) 0.1521(15) 0.5410(5)
H36 H 0.5861 0.2431 0.5319
C34 C 0.7238(10) -0.1098(18) 0.4564(6)
H37 H 0.6730 -0.0857 0.4323
H38 H 0.7513 -0.1852 0.4421
H39 H 0.7625 -0.0343 0.4608
C35 C 0.4874(8) 0.1869(14) 0.6055(5)
H40 H 0.4306 0.1457 0.5954
C36 C 0.5083(8) 0.1731(15) 0.6623(5)
H41 H 0.5538 0.2275 0.6773
C37 C 0.4760(9) 0.0995(14) 0.6968(5)
C38 C 0.5087(9) 0.0941(15) 0.7511(6)
C39 C 0.5937(18) 0.185(3) 0.8205(6)
H42 H 0.6007 0.0916 0.8323
H43 H 0.5511 0.2263 0.8393
C40 C 0.6755(11) 0.256(3) 0.8341(8)
H44 H 0.7208 0.2023 0.8232
H45 H 0.6868 0.2701 0.8720
H46 H 0.6725 0.3412 0.8160
C41 C 0.2867(11) -0.0174(18) 0.7738(6)
H47 H 0.3441 -0.0468 0.7871
H48 H 0.2556 -0.0898 0.7545
H49 H 0.2582 0.0086 0.8033
C42 C 0.3203(8) 0.2214(18) 0.7641(6)
H50 H 0.2796 0.2535 0.7859
H51 H 0.3265 0.2871 0.7370
H52 H 0.3749 0.2072 0.7860
S3 S 0.6138(2) 0.7025(5) 0.82082(15)
N5 N 0.5152(6) 0.7450(12) 0.8229(4)
H53 H 0.5016 0.8241 0.8332
N6 N 0.6325(7) 0.6753(12) 0.7617(5)
O11 O 0.4963(10) 0.0067(15) 0.9362(5)
O12 O 0.4310(6) 0.7452(11) 0.7219(4)
O13 O 0.3741(7) 0.5476(14) 0.7350(4)
O14 O 0.6595(5) 0.8217(12) 0.8381(4)
O15 O 0.6281(6) 0.5812(12) 0.8479(4)
C43 C 0.3843(8) 0.6267(16) 0.9234(5)
C44 C 0.3575(11) 0.7525(18) 0.9101(9)
H54 H 0.3841 0.7969 0.8845
C45 C 0.2952(12) 0.821(2) 0.9305(8)
H55 H 0.2757 0.9047 0.9174
C46 C 0.2625(11) 0.7587(19) 0.9716(8)
H56 H 0.2243 0.8045 0.9900
C47 C 0.2855(12) 0.6341(19) 0.9846(6)
H57 H 0.2597 0.5900 1.0106
C48 C 0.3456(11) 0.5679(19) 0.9614(6)
H58 H 0.3604 0.4799 0.9720
C49 C 0.4632(10) 0.4118(19) 0.9102(6)
C50 C 0.5383(12) 0.359(2) 0.9321(5)
H59 H 0.5840 0.4189 0.9407
C51 C 0.5540(12) 0.228(2) 0.9428(6)
H60 H 0.6076 0.1976 0.9592
C52 C 0.4876(15) 0.141(2) 0.9285(7)
C53 C 0.4097(11) 0.193(2) 0.9073(7)
H61 H 0.3634 0.1342 0.8990
C54 C 0.3975(11) 0.3204(16) 0.8982(6)
H62 H 0.3433 0.3509 0.8832
C55 C 0.5760(17) -0.059(3) 0.9541(10)
H63 H 0.6155 -0.0417 0.9295
H64 H 0.5666 -0.1550 0.9562
H65 H 0.5995 -0.0258 0.9889
C56 C 0.4494(9) 0.5551(17) 0.8959(5)
H66 H 0.5045 0.6025 0.9044
C57 C 0.4215(8) 0.5644(16) 0.8389(5)
H67 H 0.3775 0.5071 0.8240
C58 C 0.4537(7) 0.6469(15) 0.8070(5)
C59 C 0.4197(8) 0.6573(16) 0.7513(7)
C60 C 0.3456(12) 0.5328(19) 0.6783(7)
H68 H 0.3422 0.4382 0.6682
H69 H 0.3846 0.5785 0.6579
C61 C 0.2614(12) 0.595(2) 0.6694(8)
H70 H 0.2183 0.5279 0.6726
H71 H 0.2513 0.6337 0.6343
H72 H 0.2585 0.6646 0.6955
C62 C 0.6341(9) 0.7875(16) 0.7262(6)
H73 H 0.6663 0.7636 0.6982
H74 H 0.6606 0.8636 0.7456
H75 H 0.5763 0.8105 0.7109
C63 C 0.6025(10) 0.5497(18) 0.7372(6)
H76 H 0.5607 0.5675 0.7063
H77 H 0.5767 0.4964 0.7623
H78 H 0.6501 0.5011 0.7266
S4 S -0.17101(19) 0.5719(4) 0.68593(13)
N7 N -0.0789(7) 0.5022(11) 0.6830(4)
H79 H -0.0755 0.4196 0.6727
N8 N -0.1778(6) 0.6108(10) 0.7445(4)
O16 O 0.2058(6) 0.3414(10) 0.4948(3)
O17 O 0.0112(6) 0.4912(10) 0.7816(3)
O18 O 0.0938(6) 0.6618(11) 0.7651(3)
O19 O -0.1746(6) 0.6879(10) 0.6558(4)
O20 O -0.2293(5) 0.4666(8) 0.6718(3)
C64 C -0.0068(8) 0.8078(14) 0.5917(5)
C65 C -0.0831(9) 0.8636(15) 0.5720(5)
H80 H -0.1326 0.8107 0.5672
C66 C -0.0877(9) 0.9940(16) 0.5594(5)
H81 H -0.1406 1.0298 0.5445
C67 C -0.0159(9) 1.0799(16) 0.5676(5)
H82 H -0.0203 1.1719 0.5600
C68 C 0.0603(10) 1.0210(16) 0.5872(6)
H83 H 0.1099 1.0736 0.5922
C69 C 0.0662(9) 0.8892(15) 0.5997(5)
H84 H 0.1191 0.8521 0.6138
C70 C 0.0601(7) 0.5830(15) 0.5763(5)
C71 C 0.0771(11) 0.4523(16) 0.5883(7)
H85 H 0.0529 0.4133 0.6160
C72 C 0.1267(10) 0.3767(15) 0.5624(6)
H86 H 0.1396 0.2887 0.5738
C73 C 0.1596(8) 0.4262(14) 0.5186(6)
C74 C 0.1456(7) 0.5562(14) 0.5076(5)
H87 H 0.1710 0.5961 0.4805
C75 C 0.0960(8) 0.6308(15) 0.5344(5)
H88 H 0.0854 0.7201 0.5240
C76 C 0.2222(10) 0.3780(16) 0.4433(6)
H89 H 0.1691 0.4024 0.4215
H90 H 0.2475 0.3029 0.4274
H91 H 0.2609 0.4534 0.4461
C77 C 0.0020(8) 0.6650(12) 0.6059(5)
H92 H -0.0554 0.6251 0.5978
C78 C 0.0287(8) 0.6494(14) 0.6623(5)
H93 H 0.0783 0.6965 0.6761
C79 C -0.0061(8) 0.5787(13) 0.6975(5)
C80 C 0.0338(9) 0.5705(16) 0.7516(4)
C81 C 0.1320(10) 0.6678(17) 0.8171(6)
H94 H 0.0897 0.6521 0.8407
H95 H 0.1571 0.7564 0.8249
C82 C 0.1975(11) 0.566(2) 0.8252(7)
H96 H 0.1713 0.4783 0.8219
H97 H 0.2299 0.5758 0.8603
H98 H 0.2352 0.5762 0.7990
C83 C -0.1439(9) 0.7365(15) 0.7657(6)
H99 H -0.1845 0.7786 0.7853
H100 H -0.1335 0.7945 0.7369
H101 H -0.0910 0.7208 0.7891
C84 C -0.1863(10) 0.5068(15) 0.7828(5)
H102 H -0.1319 0.4929 0.8050
H103 H -0.2044 0.4244 0.7645
H104 H -0.2283 0.5336 0.8047
loop_
_geom_bond_atom_site_label_1
_geom_bond_atom_site_label_2
_geom_bond_site_symmetry_1
_geom_bond_site_symmetry_2
S1 N1 1_555 1_555
N1 H1 1_555 1_555
N2 S1 1_555 1_555
O1 C10 1_555 1_555
O2 C17 1_555 1_555
O3 C17 1_555 1_555
O4 S1 1_555 1_555
O5 S1 1_555 1_555
C1 C2 1_555 1_555
C2 H2 1_555 1_555
C3 C2 1_555 1_555
H3 C3 1_555 1_555
C4 C3 1_555 1_555
H4 C4 1_555 1_555
C5 C4 1_555 1_555
H5 C5 1_555 1_555
C6 C1 1_555 1_555
H6 C6 1_555 1_555
C7 C8 1_555 1_555
C8 H7 1_555 1_555
C9 C8 1_555 1_555
H8 C9 1_555 1_555
C10 C9 1_555 1_555
C11 C10 1_555 1_555
H9 C11 1_555 1_555
C12 C7 1_555 1_555
H10 C12 1_555 1_555
C13 O1 1_555 1_555
H11 C13 1_555 1_555
H12 C13 1_555 1_555
H13 C13 1_555 1_555
C14 C1 1_555 1_555
H14 C14 1_555 1_555
C15 C14 1_555 1_555
H15 C15 1_555 1_555
C16 N1 1_555 1_555
C17 C16 1_555 1_555
C18 O3 1_555 1_555
H16 C18 1_555 1_555
H17 C18 1_555 1_555
C19 C18 1_555 1_555
H18 C19 1_555 1_555
H19 C19 1_555 1_555
H20 C19 1_555 1_555
C20 N2 1_555 1_555
H21 C20 1_555 1_555
H22 C20 1_555 1_555
H23 C20 1_555 1_555
C21 N2 1_555 1_555
H24 C21 1_555 1_555
H25 C21 1_555 1_555
H26 C21 1_555 1_555
S2 N3 1_555 1_555
N3 H27 1_555 1_555
N4 S2 1_555 1_555
O6 C31 1_555 1_555
O7 C38 1_555 1_555
O8 C38 1_555 1_555
O9 S2 1_555 1_555
O10 S2 1_555 1_555
C22 C23 1_555 1_555
C23 H28 1_555 1_555
C24 C23 1_555 1_555
H29 C24 1_555 1_555
C25 C24 1_555 1_555
H30 C25 1_555 1_555
C26 C25 1_555 1_555
H31 C26 1_555 1_555
C27 C22 1_555 1_555
H32 C27 1_555 1_555
C28 C29 1_555 1_555
C29 H33 1_555 1_555
C30 C29 1_555 1_555
H34 C30 1_555 1_555
C31 C30 1_555 1_555
C32 C31 1_555 1_555
H35 C32 1_555 1_555
C33 C28 1_555 1_555
H36 C33 1_555 1_555
C34 O6 1_555 1_555
H37 C34 1_555 1_555
H38 C34 1_555 1_555
H39 C34 1_555 1_555
C35 C22 1_555 1_555
H40 C35 1_555 1_555
C36 C35 1_555 1_555
H41 C36 1_555 1_555
C37 N3 1_555 1_555
C38 C37 1_555 1_555
C39 O8 1_555 1_555
H42 C39 1_555 1_555
H43 C39 1_555 1_555
C40 C39 1_555 1_555
H44 C40 1_555 1_555
H45 C40 1_555 1_555
H46 C40 1_555 1_555
C41 N4 1_555 1_555
H47 C41 1_555 1_555
H48 C41 1_555 1_555
H49 C41 1_555 1_555
C42 N4 1_555 1_555
H50 C42 1_555 1_555
H51 C42 1_555 1_555
H52 C42 1_555 1_555
S3 N5 1_555 1_555
N5 H53 1_555 1_555
N6 S3 1_555 1_555
O11 C52 1_555 1_555
O12 C59 1_555 1_555
O13 C59 1_555 1_555
O14 S3 1_555 1_555
O15 S3 1_555 1_555
C43 C44 1_555 1_555
C44 H54 1_555 1_555
C45 C44 1_555 1_555
H55 C45 1_555 1_555
C46 C45 1_555 1_555
H56 C46 1_555 1_555
C47 C46 1_555 1_555
H57 C47 1_555 1_555
C48 C43 1_555 1_555
H58 C48 1_555 1_555
C49 C50 1_555 1_555
C50 H59 1_555 1_555
C51 C50 1_555 1_555
H60 C51 1_555 1_555
C52 C51 1_555 1_555
C53 C52 1_555 1_555
H61 C53 1_555 1_555
C54 C49 1_555 1_555
H62 C54 1_555 1_555
C55 O11 1_555 1_555
H63 C55 1_555 1_555
H64 C55 1_555 1_555
H65 C55 1_555 1_555
C56 C43 1_555 1_555
H66 C56 1_555 1_555
C57 C56 1_555 1_555
H67 C57 1_555 1_555
C58 N5 1_555 1_555
C59 C58 1_555 1_555
C60 O13 1_555 1_555
H68 C60 1_555 1_555
H69 C60 1_555 1_555
C61 C60 1_555 1_555
H70 C61 1_555 1_555
H71 C61 1_555 1_555
H72 C61 1_555 1_555
C62 N6 1_555 1_555
H73 C62 1_555 1_555
H74 C62 1_555 1_555
H75 C62 1_555 1_555
C63 N6 1_555 1_555
H76 C63 1_555 1_555
H77 C63 1_555 1_555
H78 C63 1_555 1_555
S4 N7 1_555 1_555
N7 H79 1_555 1_555
N8 S4 1_555 1_555
O16 C73 1_555 1_555
O17 C80 1_555 1_555
O18 C80 1_555 1_555
O19 S4 1_555 1_555
O20 S4 1_555 1_555
C64 C65 1_555 1_555
C65 H80 1_555 1_555
C66 C65 1_555 1_555
H81 C66 1_555 1_555
C67 C66 1_555 1_555
H82 C67 1_555 1_555
C68 C67 1_555 1_555
H83 C68 1_555 1_555
C69 C64 1_555 1_555
H84 C69 1_555 1_555
C70 C71 1_555 1_555
C71 H85 1_555 1_555
C72 C71 1_555 1_555
H86 C72 1_555 1_555
C73 C72 1_555 1_555
C74 C73 1_555 1_555
H87 C74 1_555 1_555
C75 C70 1_555 1_555
H88 C75 1_555 1_555
C76 O16 1_555 1_555
H89 C76 1_555 1_555
H90 C76 1_555 1_555
H91 C76 1_555 1_555
C77 C64 1_555 1_555
H92 C77 1_555 1_555
C78 C77 1_555 1_555
H93 C78 1_555 1_555
C79 N7 1_555 1_555
C80 C79 1_555 1_555
C81 O18 1_555 1_555
H94 C81 1_555 1_555
H95 C81 1_555 1_555
C82 C81 1_555 1_555
H96 C82 1_555 1_555
H97 C82 1_555 1_555
H98 C82 1_555 1_555
C83 N8 1_555 1_555
H99 C83 1_555 1_555
H100 C83 1_555 1_555
H101 C83 1_555 1_555
C84 N8 1_555 1_555
H102 C84 1_555 1_555
H103 C84 1_555 1_555
H104 C84 1_555 1_555
C5 C6 1_555 1_555
C7 C14 1_555 1_555
C11 C12 1_555 1_555
C15 C16 1_555 1_555
C26 C27 1_555 1_555
C28 C35 1_555 1_555
C32 C33 1_555 1_555
C36 C37 1_555 1_555
C47 C48 1_555 1_555
C49 C56 1_555 1_555
C53 C54 1_555 1_555
C57 C58 1_555 1_555
C68 C69 1_555 1_555
C70 C77 1_555 1_555
C74 C75 1_555 1_555
C78 C79 1_555 1_555

#END
