
#######################################################################
#
#                 Cambridge Crystallographic Data Centre
#                                CCDC 
#
#######################################################################
#
# If this CIF has been generated from an entry in the Cambridge 
# Structural Database, then it will include bibliographic, chemical, 
# crystal, experimental, refinement or atomic coordinate data resulting 
# from the CCDC's data processing and validation procedures.
#
#######################################################################

data_TUXNOR
_chemical_formula_moiety         'C56 H45 N7 O10,0.5(C1 H4 O1),C1 H2 Cl2'
_chemical_name_systematic        
'6,13-dibenzyl-37-(benzyloxy)-36,38-dimethoxy-2,6,9,13,16,23,30-heptaazahexacyclo[30.3.1.1^4,8^.1^11,15^.1^18,22^.1^25,29^]tetraconta-1(36),4,7,11,14,18(38),19,21,25(37),26,28,32,34-tridecaene-3,10,17,24,31,39,40-heptone dichloromethane methanol solvate'
_symmetry_cell_setting           monoclinic
_symmetry_space_group_name_H-M   'P 21/n'
_symmetry_Int_Tables_number      14
_space_group_name_Hall           '-P 2yn'
loop_
_symmetry_equiv_pos_site_id
_symmetry_equiv_pos_as_xyz
1 x,y,z
2 1/2-x,1/2+y,1/2-z
3 -x,-y,-z
4 1/2+x,1/2-y,1/2+z
_cell_length_a                   18.507(2)
_cell_length_b                   11.2044(13)
_cell_length_c                   24.538(3)
_cell_angle_alpha                90
_cell_angle_beta                 93.092(3)
_cell_angle_gamma                90
_cell_volume                     5080.79
_exptl_crystal_colour            colorless
_exptl_crystal_description       'thin plate'
_cell_formula_units_Z            4
loop_
_atom_site_label
_atom_site_type_symbol
_atom_site_fract_x
_atom_site_fract_y
_atom_site_fract_z
C1 C 0.2100(3) 1.4514(4) 0.30859(12)
C2 C 0.1582(3) 1.5249(4) 0.28279(18)
H1 H 0.1214 1.5598 0.3032
C3 C 0.1602(3) 1.5473(4) 0.22718(18)
H2 H 0.1248 1.5975 0.2095
C4 C 0.2139(3) 1.4963(4) 0.19736(13)
H3 H 0.2153 1.5116 0.1594
C5 C 0.2657(2) 1.4228(4) 0.22316(15)
H4 H 0.3025 1.3879 0.2028
C6 C 0.2637(2) 1.4003(3) 0.27878(16)
H5 H 0.2991 1.3501 0.2964
O1 O 0.37004(17) 0.6046(3) 0.55931(12)
O2 O 0.53961(19) 0.7518(3) 0.66602(15)
O3 O 0.35695(17) 0.9172(3) 0.54085(14)
O4 O 0.4001(2) 1.2744(3) 0.48987(15)
O5 O 0.2150(2) 0.9762(3) 0.45360(15)
O6 O 0.05542(18) 1.0736(3) 0.33265(15)
O7 O 0.11577(18) 0.7259(3) 0.44501(15)
O8 O -0.01227(18) 0.4240(3) 0.40568(15)
O9 O 0.20302(17) 0.5138(3) 0.51885(14)
O10 O 0.27981(19) 0.2256(3) 0.61833(14)
N1 N 0.4531(2) 0.7943(4) 0.59906(18)
H6 H 0.4165 0.7644 0.5792
N2 N 0.3234(2) 1.1152(4) 0.48037(18)
H7 H 0.3166 1.0417 0.4917
N3 N 0.2138(2) 1.3099(3) 0.38798(16)
N4 N 0.0935(2) 0.9306(4) 0.39389(19)
H8 H 0.1249 0.9185 0.4215
N5 N -0.0521(2) 0.7464(4) 0.33170(16)
N6 N 0.0788(2) 0.4970(4) 0.45963(17)
H9 H 0.1026 0.5633 0.4676
N7 N 0.3067(2) 0.4038(4) 0.58436(18)
H10 H 0.2965 0.4515 0.5565
C7 C 0.3959(2) 0.5481(4) 0.60729(19)
C8 C 0.3657(2) 0.4371(4) 0.6194(2)
C9 C 0.3925(3) 0.3757(5) 0.6658(2)
H11 H 0.3744 0.2987 0.6739
C10 C 0.4456(2) 0.4279(5) 0.6998(2)
H12 H 0.4631 0.3867 0.7317
C11 C 0.4733(3) 0.5373(4) 0.6884(2)
H13 H 0.5098 0.5711 0.7123
C12 C 0.4486(2) 0.6001(4) 0.6420(2)
C13 C 0.4107(2) 0.5684(4) 0.51303(18)
H14 H 0.4159 0.4805 0.5130
H15 H 0.4598 0.6036 0.5166
C14 C 0.3739(2) 0.6078(4) 0.46009(18)
C15 C 0.3174(2) 0.6886(4) 0.45615(19)
H16 H 0.2986 0.7201 0.4884
C16 C 0.2876(2) 0.7243(4) 0.40539(19)
H17 H 0.2478 0.7779 0.4032
C17 C 0.3161(3) 0.6816(4) 0.3583(2)
H18 H 0.2964 0.7068 0.3236
C18 C 0.3730(3) 0.6028(5) 0.3616(2)
H19 H 0.3931 0.5742 0.3292
C19 C 0.4010(2) 0.5653(4) 0.4118(2)
H20 H 0.4396 0.5092 0.4137
C20 C 0.4854(3) 0.7224(5) 0.6361(2)
C21 C 0.4207(3) 0.9773(4) 0.5570(2)
C22 C 0.4722(3) 0.9155(4) 0.5885(2)
C23 C 0.5369(3) 0.9705(5) 0.6050(2)
H21 H 0.5726 0.9284 0.6266
C24 C 0.5489(3) 1.0875(5) 0.5897(2)
H22 H 0.5925 1.1266 0.6016
C25 C 0.4984(3) 1.1469(4) 0.5575(2)
H23 H 0.5076 1.2267 0.5468
C26 C 0.4331(3) 1.0923(4) 0.5400(2)
C27 C 0.3014(3) 0.9238(4) 0.5805(2)
H24 H 0.3164 0.8764 0.6128
H25 H 0.2558 0.8924 0.5643
H26 H 0.2947 1.0072 0.5913
C28 C 0.3831(3) 1.1692(5) 0.5004(2)
C29 C 0.2130(3) 1.0778(4) 0.4310(2)
C30 C 0.2708(3) 1.1602(5) 0.44398(19)
C31 C 0.2701(3) 1.2757(4) 0.42273(19)
H27 H 0.3083 1.3297 0.4323
C32 C 0.1610(3) 1.2310(4) 0.3729(2)
H28 H 0.1237 1.2563 0.3473
C33 C 0.1585(3) 1.1164(4) 0.3926(2)
C34 C 0.2106(3) 1.4337(4) 0.3677(2)
H29 H 0.1666 1.4714 0.3811
H30 H 0.2527 1.4773 0.3845
C35 C 0.0953(3) 1.0366(4) 0.3694(2)
C36 C 0.0629(3) 0.7272(5) 0.4097(2)
C37 C 0.0470(3) 0.8381(5) 0.3800(2)
C38 C -0.0100(3) 0.8451(5) 0.3418(2)
H31 H -0.0201 0.9175 0.3228
C39 C -0.0372(3) 0.6435(4) 0.3585(2)
H32 H -0.0677 0.5768 0.3505
C40 C 0.0186(2) 0.6291(5) 0.3961(2)
C41 C -0.1165(3) 0.7583(5) 0.2929(2)
H33 H -0.1045 0.8120 0.2626
H34 H -0.1567 0.7951 0.3120
C42 C -0.1408(3) 0.6399(5) 0.2699(2)
C43 C -0.1014(3) 0.5798(6) 0.2315(2)
H35 H -0.0588 0.6139 0.2182
C44 C -0.1260(4) 0.4683(6) 0.2130(2)
H36 H -0.1000 0.4272 0.1865
C45 C -0.1859(3) 0.4175(6) 0.2319(2)
H37 H -0.2007 0.3407 0.2194
C46 C -0.2252(3) 0.4761(5) 0.2691(2)
H38 H -0.2673 0.4402 0.2824
C47 C -0.2036(3) 0.5876(5) 0.2874(2)
H39 H -0.2321 0.6292 0.3122
C48 C 0.0271(3) 0.5042(4) 0.4215(2)
C49 C 0.1662(3) 0.4056(4) 0.5212(2)
C50 C 0.1001(3) 0.3966(4) 0.48894(18)
C51 C 0.0626(2) 0.2885(4) 0.48941(18)
H40 H 0.0180 0.2794 0.4688
C52 C 0.0913(3) 0.1946(4) 0.52047(19)
H41 H 0.0658 0.1210 0.5208
C53 C 0.1553(3) 0.2050(4) 0.5506(2)
H42 H 0.1734 0.1385 0.5711
C54 C 0.1945(2) 0.3109(4) 0.5518(2)
C55 C 0.1803(3) 0.6020(4) 0.5579(2)
H43 H 0.1273 0.6061 0.5565
H44 H 0.2000 0.6802 0.5489
H45 H 0.1982 0.5790 0.5948
C56 C 0.2645(3) 0.3086(4) 0.5884(2)
C63 C 0.0934(3) 0.8166(5) 0.6386(2)
H51 H 0.0474 0.8324 0.6560
H52 H 0.0988 0.7291 0.6347
Cl1 Cl 0.16624(8) 0.87356(19) 0.67991(7)
Cl2 Cl 0.09127(8) 0.88441(11) 0.57337(6)
O11 O 0.0335(16) 0.386(3) 0.2925(11)
H53 H -0.0082 0.3697 0.3022
C64 C 0.0454(15) 0.327(2) 0.2421(10)
H54 H 0.0354 0.2417 0.2458
H55 H 0.0959 0.3384 0.2330
H56 H 0.0132 0.3611 0.2131
C57? C 0.2287(2) 1.4342(4) 0.30878(12)
C58? C 0.1909(2) 1.5090(3) 0.27210(14)
H46? H 0.1525 1.5569 0.2840
C59? C 0.2095(3) 1.5137(4) 0.21800(13)
H47? H 0.1837 1.5648 0.1929
C60? C 0.2658(3) 1.4436(5) 0.20057(15)
H48? H 0.2784 1.4468 0.1636
C61? C 0.3035(3) 1.3688(5) 0.2373(2)
H49? H 0.3420 1.3209 0.2253
C62? C 0.2850(3) 1.3641(4) 0.29136(19)
H50? H 0.3107 1.3130 0.3164
loop_
_geom_bond_atom_site_label_1
_geom_bond_atom_site_label_2
_geom_bond_site_symmetry_1
_geom_bond_site_symmetry_2
C1 C2 1_555 1_555
C2 H1 1_555 1_555
C3 C2 1_555 1_555
H2 C3 1_555 1_555
C4 C3 1_555 1_555
H3 C4 1_555 1_555
C5 C4 1_555 1_555
H4 C5 1_555 1_555
C6 C1 1_555 1_555
H5 C6 1_555 1_555
O1 C7 1_555 1_555
O2 C20 1_555 1_555
O3 C21 1_555 1_555
O4 C28 1_555 1_555
O5 C29 1_555 1_555
O6 C35 1_555 1_555
O7 C36 1_555 1_555
O8 C48 1_555 1_555
O9 C49 1_555 1_555
O10 C56 1_555 1_555
N1 H6 1_555 1_555
N2 H7 1_555 1_555
N3 C31 1_555 1_555
N4 H8 1_555 1_555
N5 C38 1_555 1_555
N6 H9 1_555 1_555
N7 H10 1_555 1_555
C7 C8 1_555 1_555
C8 N7 1_555 1_555
C9 C8 1_555 1_555
H11 C9 1_555 1_555
C10 C9 1_555 1_555
H12 C10 1_555 1_555
C11 C10 1_555 1_555
H13 C11 1_555 1_555
C12 C7 1_555 1_555
C13 O1 1_555 1_555
H14 C13 1_555 1_555
H15 C13 1_555 1_555
C14 C13 1_555 1_555
C15 C14 1_555 1_555
H16 C15 1_555 1_555
C16 C15 1_555 1_555
H17 C16 1_555 1_555
C17 C16 1_555 1_555
H18 C17 1_555 1_555
C18 C17 1_555 1_555
H19 C18 1_555 1_555
C19 C14 1_555 1_555
H20 C19 1_555 1_555
C20 N1 1_555 1_555
C21 C22 1_555 1_555
C22 N1 1_555 1_555
C23 C22 1_555 1_555
H21 C23 1_555 1_555
C24 C23 1_555 1_555
H22 C24 1_555 1_555
C25 C24 1_555 1_555
H23 C25 1_555 1_555
C26 C21 1_555 1_555
C27 O3 1_555 1_555
H24 C27 1_555 1_555
H25 C27 1_555 1_555
H26 C27 1_555 1_555
C28 N2 1_555 1_555
C29 C30 1_555 1_555
C30 N2 1_555 1_555
C31 C30 1_555 1_555
H27 C31 1_555 1_555
C32 N3 1_555 1_555
H28 C32 1_555 1_555
C33 C29 1_555 1_555
C34 C1 1_555 1_555
H29 C34 1_555 1_555
H30 C34 1_555 1_555
C35 N4 1_555 1_555
C36 C37 1_555 1_555
C37 N4 1_555 1_555
C38 C37 1_555 1_555
H31 C38 1_555 1_555
C39 N5 1_555 1_555
H32 C39 1_555 1_555
C40 C36 1_555 1_555
C41 N5 1_555 1_555
H33 C41 1_555 1_555
H34 C41 1_555 1_555
C42 C41 1_555 1_555
C43 C42 1_555 1_555
H35 C43 1_555 1_555
C44 C43 1_555 1_555
H36 C44 1_555 1_555
C45 C44 1_555 1_555
H37 C45 1_555 1_555
C46 C45 1_555 1_555
H38 C46 1_555 1_555
C47 C42 1_555 1_555
H39 C47 1_555 1_555
C48 N6 1_555 1_555
C49 C50 1_555 1_555
C50 N6 1_555 1_555
C51 C50 1_555 1_555
H40 C51 1_555 1_555
C52 C51 1_555 1_555
H41 C52 1_555 1_555
C53 C52 1_555 1_555
H42 C53 1_555 1_555
C54 C49 1_555 1_555
C55 O9 1_555 1_555
H43 C55 1_555 1_555
H44 C55 1_555 1_555
H45 C55 1_555 1_555
C56 N7 1_555 1_555
C63 H51 1_555 1_555
H52 C63 1_555 1_555
Cl1 C63 1_555 1_555
Cl2 C63 1_555 1_555
O11 H53 1_555 1_555
C64 O11 1_555 1_555
H54 C64 1_555 1_555
H55 C64 1_555 1_555
H56 C64 1_555 1_555
C5 C6 1_555 1_555
N3 C34 1_555 1_555
C11 C12 1_555 1_555
C12 C20 1_555 1_555
C18 C19 1_555 1_555
C25 C26 1_555 1_555
C26 C28 1_555 1_555
C32 C33 1_555 1_555
C33 C35 1_555 1_555
C39 C40 1_555 1_555
C40 C48 1_555 1_555
C46 C47 1_555 1_555
C53 C54 1_555 1_555
C54 C56 1_555 1_555

#END
