
#######################################################################
#
#                 Cambridge Crystallographic Data Centre
#                                CCDC 
#
#######################################################################
#
# If this CIF has been generated from an entry in the Cambridge 
# Structural Database, then it will include bibliographic, chemical, 
# crystal, experimental, refinement or atomic coordinate data resulting 
# from the CCDC's data processing and validation procedures.
#
#######################################################################

data_TUXNIL
_chemical_formula_moiety         'C38 H35 N3 O7'
_chemical_name_systematic        
2-(benzyloxy)-N-(3-((2-(benzyloxy)phenyl)carbamoyl)-2-sec-butoxyphenyl)-3-nitrobenzamide
_symmetry_cell_setting           monoclinic
_symmetry_space_group_name_H-M   'P 21/c'
_symmetry_Int_Tables_number      14
_space_group_name_Hall           '-P 2ybc'
loop_
_symmetry_equiv_pos_site_id
_symmetry_equiv_pos_as_xyz
1 x,y,z
2 -x,1/2+y,1/2-z
3 -x,-y,-z
4 x,1/2-y,1/2+z
_cell_length_a                   8.8451(8)
_cell_length_b                   23.553(2)
_cell_length_c                   15.8186(13)
_cell_angle_alpha                90
_cell_angle_beta                 99.906(2)
_cell_angle_gamma                90
_cell_volume                     3246.34
_exptl_crystal_colour            brown
_exptl_crystal_description       block
_cell_formula_units_Z            4
loop_
_atom_site_label
_atom_site_type_symbol
_atom_site_fract_x
_atom_site_fract_y
_atom_site_fract_z
O1 O -0.1181(2) 0.55062(9) 0.03286(11)
O2 O 0.18440(19) 0.47804(8) 0.22782(10)
O3 O 0.3950(2) 0.79799(8) 0.20802(12)
O4 O 0.4613(2) 0.67503(7) 0.45539(10)
O5 O 0.0657(3) 0.35287(14) 0.36405(19)
O6 O 0.2404(3) 0.36927(10) 0.28913(14)
O7 O 0.18308(19) 0.64962(8) 0.27000(10)
N1 N 0.0565(2) 0.57609(10) 0.14940(13)
H1 H 0.105(4) 0.5647(13) 0.200(2)
N2 N 0.4191(3) 0.72746(10) 0.30739(13)
H2 H 0.386(3) 0.6955(13) 0.3198(19)
N3 N 0.1099(3) 0.37381(10) 0.30251(16)
C1 C 0.0394(3) 0.45583(11) 0.20490(15)
C2 C -0.0032(3) 0.40589(12) 0.24174(16)
C3 C -0.1514(3) 0.38506(13) 0.22576(19)
H3 H -0.1770 0.3513 0.2531
C4 C -0.2614(3) 0.41385(13) 0.1697(2)
H4 H -0.3632 0.3996 0.1568
C5 C -0.2231(3) 0.46368(12) 0.13212(17)
H5 H -0.2999 0.4835 0.0939
C6 C -0.0743(3) 0.48560(11) 0.14897(15)
C7 C 0.2906(3) 0.46549(13) 0.16817(16)
H6 H 0.2327 0.4614 0.1091
H7 H 0.3452 0.4294 0.1846
C8 C 0.4034(3) 0.51307(12) 0.17170(16)
C9 C 0.4073(3) 0.54680(14) 0.10057(19)
H8 H 0.3379 0.5394 0.0489
C10 C 0.5103(4) 0.59104(16) 0.1033(2)
H9 H 0.5128 0.6135 0.0536
C11 C 0.6096(4) 0.60237(15) 0.1786(3)
H10 H 0.6786 0.6335 0.1813
C12 C 0.6094(4) 0.56874(15) 0.2500(2)
H11 H 0.6792 0.5764 0.3014
C13 C 0.5075(3) 0.52390(14) 0.24668(18)
H12 H 0.5084 0.5004 0.2956
C14 C -0.0468(3) 0.54000(12) 0.10426(15)
C15 C 0.1898(3) 0.66338(11) 0.18562(14)
C16 C 0.1159(3) 0.62682(11) 0.12114(15)
C17 C 0.1153(3) 0.63995(12) 0.03522(16)
H13 H 0.0648 0.6158 -0.0089
C18 C 0.1890(3) 0.68850(13) 0.01489(16)
H14 H 0.1868 0.6981 -0.0437
C19 C 0.2659(3) 0.72344(12) 0.07836(16)
H15 H 0.3166 0.7564 0.0628
C20 C 0.2701(3) 0.71080(11) 0.16501(15)
C21 C 0.0382(4) 0.66450(13) 0.29513(17)
H16 H -0.0452 0.6413 0.2608
C22 C 0.0517(6) 0.6486(3) 0.3895(3)
H17 H 0.1398 0.6693 0.4227
H18 H 0.0738 0.6075 0.3958
C23 C -0.0918(5) 0.6618(3) 0.4279(3)
H19 H -0.0754 0.6498 0.4881
H20 H -0.1798 0.6413 0.3958
H21 H -0.1122 0.7027 0.4245
C24 C -0.0007(6) 0.72800(16) 0.2806(3)
H22 H 0.0175 0.7393 0.2236
H23 H 0.0644 0.7507 0.3244
H24 H -0.1088 0.7343 0.2845
C25 C 0.3650(3) 0.74988(11) 0.22905(15)
C26 C 0.5470(3) 0.72322(10) 0.45386(15)
C27 C 0.5229(3) 0.75269(11) 0.37543(15)
C28 C 0.6046(4) 0.80190(13) 0.36799(19)
H25 H 0.5898 0.8221 0.3152
C29 C 0.7089(4) 0.82209(14) 0.4379(2)
H26 H 0.7642 0.8561 0.4326
C30 C 0.7322(3) 0.79303(12) 0.51420(18)
H27 H 0.8035 0.8071 0.5614
C31 C 0.6524(3) 0.74331(11) 0.52311(16)
H28 H 0.6694 0.7231 0.5759
C32 C 0.5015(3) 0.63828(10) 0.52945(14)
H29 H 0.4930 0.6594 0.5826
H30 H 0.6086 0.6249 0.5336
C33 C 0.3939(3) 0.58892(10) 0.51915(14)
C34 C 0.3809(3) 0.55346(12) 0.44800(16)
H31 H 0.4387 0.5614 0.4040
C35 C 0.2852(3) 0.50694(12) 0.44062(17)
H32 H 0.2772 0.4830 0.3917
C36 C 0.2007(3) 0.49505(12) 0.50441(18)
H33 H 0.1350 0.4629 0.4994
C37 C 0.2120(4) 0.52982(14) 0.57491(19)
H34 H 0.1544 0.5216 0.6189
C38 C 0.3076(3) 0.57692(12) 0.58187(16)
H35 H 0.3137 0.6012 0.6303
H36? H -0.0454 0.6583 0.2486
C39? C 0.0525(12) 0.7262(2) 0.3199(8)
H37? H 0.0907 0.7494 0.2757
H38? H 0.1200 0.7317 0.3761
C40? C -0.1177(12) 0.7395(5) 0.3244(7)
H39? H -0.1278 0.7797 0.3386
H40? H -0.1512 0.7159 0.3688
H41? H -0.1816 0.7314 0.2688
C41? C 0.0252(19) 0.6265(5) 0.3724(7)
H42? H 0.0576 0.5878 0.3612
H43? H -0.0815 0.6259 0.3817
H44? H 0.0913 0.6414 0.4237
loop_
_geom_bond_atom_site_label_1
_geom_bond_atom_site_label_2
_geom_bond_site_symmetry_1
_geom_bond_site_symmetry_2
O1 C14 1_555 1_555
O2 C1 1_555 1_555
O3 C25 1_555 1_555
O4 C26 1_555 1_555
O5 N3 1_555 1_555
O6 N3 1_555 1_555
O7 C15 1_555 1_555
N1 H1 1_555 1_555
N2 H2 1_555 1_555
N3 C2 1_555 1_555
C1 C2 1_555 1_555
C2 C3 1_555 1_555
C3 H3 1_555 1_555
C4 C3 1_555 1_555
H4 C4 1_555 1_555
C5 C4 1_555 1_555
H5 C5 1_555 1_555
C6 C1 1_555 1_555
C7 O2 1_555 1_555
H6 C7 1_555 1_555
H7 C7 1_555 1_555
C8 C7 1_555 1_555
C9 C8 1_555 1_555
H8 C9 1_555 1_555
C10 C9 1_555 1_555
H9 C10 1_555 1_555
C11 C10 1_555 1_555
H10 C11 1_555 1_555
C12 C11 1_555 1_555
H11 C12 1_555 1_555
C13 C8 1_555 1_555
H12 C13 1_555 1_555
C14 N1 1_555 1_555
C15 C16 1_555 1_555
C16 N1 1_555 1_555
C17 C16 1_555 1_555
H13 C17 1_555 1_555
C18 C17 1_555 1_555
H14 C18 1_555 1_555
C19 C18 1_555 1_555
H15 C19 1_555 1_555
C20 C15 1_555 1_555
C21 O7 1_555 1_555
H16 C21 1_555 1_555
C22 C21 1_555 1_555
H17 C22 1_555 1_555
H18 C22 1_555 1_555
C23 C22 1_555 1_555
H19 C23 1_555 1_555
H20 C23 1_555 1_555
H21 C23 1_555 1_555
C24 C21 1_555 1_555
H22 C24 1_555 1_555
H23 C24 1_555 1_555
H24 C24 1_555 1_555
C25 N2 1_555 1_555
C26 C27 1_555 1_555
C27 N2 1_555 1_555
C28 C27 1_555 1_555
H25 C28 1_555 1_555
C29 C28 1_555 1_555
H26 C29 1_555 1_555
C30 C29 1_555 1_555
H27 C30 1_555 1_555
C31 C26 1_555 1_555
H28 C31 1_555 1_555
C32 O4 1_555 1_555
H29 C32 1_555 1_555
H30 C32 1_555 1_555
C33 C32 1_555 1_555
C34 C33 1_555 1_555
H31 C34 1_555 1_555
C35 C34 1_555 1_555
H32 C35 1_555 1_555
C36 C35 1_555 1_555
H33 C36 1_555 1_555
C37 C36 1_555 1_555
H34 C37 1_555 1_555
C38 C33 1_555 1_555
H35 C38 1_555 1_555
C5 C6 1_555 1_555
C6 C14 1_555 1_555
C12 C13 1_555 1_555
C19 C20 1_555 1_555
C20 C25 1_555 1_555
C30 C31 1_555 1_555
C37 C38 1_555 1_555

#END
