
#######################################################################
#
#                 Cambridge Crystallographic Data Centre
#                                CCDC 
#
#######################################################################
#
# If this CIF has been generated from an entry in the Cambridge 
# Structural Database, then it will include bibliographic, chemical, 
# crystal, experimental, refinement or atomic coordinate data resulting 
# from the CCDC's data processing and validation procedures.
#
#######################################################################

data_TUXNUX
_chemical_formula_moiety         'C44 H33 F2 N5 O8'
_chemical_name_systematic        
36-(benzyloxy)-38,39-difluoro-37,40-dimethoxy-2,9,16,23,30-pentaazahexacyclo[30.3.1.1^4,8^.1^11,15^.1^18,22^.1^25,29^]tetraconta-1(36),4(40),5,7,11(39),12,14,18(38),19,21,25(37),26,28,32,34-pentadecaene-3,10,17,24,31-pentone
_symmetry_cell_setting           orthorhombic
_symmetry_space_group_name_H-M   'P b c a'
_symmetry_Int_Tables_number      61
_space_group_name_Hall           '-P 2ac 2ab'
loop_
_symmetry_equiv_pos_site_id
_symmetry_equiv_pos_as_xyz
1 x,y,z
2 1/2-x,-y,1/2+z
3 -x,1/2+y,1/2-z
4 1/2+x,1/2-y,-z
5 -x,-y,-z
6 1/2+x,y,1/2-z
7 x,1/2-y,1/2+z
8 1/2-x,1/2+y,z
_cell_length_a                   13.3567(11)
_cell_length_b                   22.8181(18)
_cell_length_c                   23.430(2)
_cell_angle_alpha                90
_cell_angle_beta                 90
_cell_angle_gamma                90
_cell_volume                     7140.87
_exptl_crystal_colour            colorless
_exptl_crystal_description       block
_cell_formula_units_Z            8
loop_
_atom_site_label
_atom_site_type_symbol
_atom_site_fract_x
_atom_site_fract_y
_atom_site_fract_z
F1 F 0.6302(2) 0.95223(14) 0.43373(12)
F2 F 0.5985(2) 1.08791(13) 0.37509(14)
O1 O 0.6689(2) 0.92727(16) 0.20215(13)
O2 O 0.6476(3) 0.74494(15) 0.15296(15)
O3 O 0.6313(2) 0.85505(14) 0.32755(16)
O4 O 0.6019(3) 0.75269(15) 0.47642(14)
O5 O 0.6186(3) 1.06898(17) 0.57513(15)
O6 O 0.5835(3) 1.26336(14) 0.31029(18)
O7 O 0.5988(2) 1.06938(15) 0.23335(16)
O8 O 0.5921(4) 1.06132(17) 0.04961(16)
N1 N 0.6502(3) 0.80911(19) 0.22664(19)
H1 H 0.6528 0.8464 0.2360
N2 N 0.6535(3) 0.8406(2) 0.4436(2)
H2 H 0.6767 0.8595 0.4136
N3 N 0.6309(3) 1.0621(2) 0.4803(2)
H3 H 0.6385 1.0376 0.4516
N4 N 0.5939(3) 1.1680(2) 0.2881(2)
H4 H 0.5935 1.1323 0.3021
N5 N 0.6265(3) 1.0110(2) 0.1296(2)
H5 H 0.6440 1.0143 0.1657
C1 C 0.6435(3) 0.9096(2) 0.14612(18)
C2 C 0.6236(3) 0.9535(2) 0.1058(2)
C3 C 0.5984(4) 0.9366(2) 0.0503(2)
H6 H 0.5853 0.9655 0.0221
C4 C 0.5926(4) 0.8782(2) 0.03670(19)
H7 H 0.5759 0.8670 -0.0012
C5 C 0.6106(3) 0.8357(2) 0.0770(2)
H8 H 0.6057 0.7955 0.0667
C6 C 0.6359(3) 0.8508(2) 0.13264(19)
C7 C 0.7775(4) 0.9326(3) 0.2104(2)
H9 H 0.8032 0.9658 0.1875
H10 H 0.8110 0.8964 0.1972
C8 C 0.8006(3) 0.9426(2) 0.27217(19)
C9 C 0.8509(4) 0.9000(2) 0.3026(2)
H11 H 0.8676 0.8640 0.2846
C10 C 0.8772(3) 0.9088(2) 0.3588(2)
H12 H 0.9129 0.8793 0.3789
C11 C 0.8520(3) 0.9606(2) 0.3862(2)
H13 H 0.8696 0.9666 0.4251
C12 C 0.8011(4) 1.0030(2) 0.3563(2)
H14 H 0.7836 1.0386 0.3747
C13 C 0.7750(3) 0.9947(2) 0.30011(19)
H15 H 0.7395 1.0245 0.2802
C14 C 0.6470(4) 0.7963(3) 0.1718(2)
C15 C 0.6400(3) 0.79383(19) 0.3253(2)
C16 C 0.6497(3) 0.7677(2) 0.2719(2)
C17 C 0.6589(3) 0.7068(2) 0.2689(2)
H16 H 0.6659 0.6878 0.2331
C18 C 0.6577(3) 0.67445(19) 0.3189(2)
H17 H 0.6626 0.6330 0.3170
C19 C 0.6496(3) 0.7012(2) 0.3707(2)
H18 H 0.6499 0.6779 0.4043
C20 C 0.6409(3) 0.7614(2) 0.3754(2)
C21 C 0.5290(4) 0.8754(2) 0.3264(3)
H19 H 0.4968 0.8623 0.2910
H20 H 0.5280 0.9183 0.3280
H21 H 0.4927 0.8594 0.3592
C22 C 0.6293(4) 0.7844(2) 0.4377(3)
C23 C 0.6354(3) 0.9322(2) 0.4886(2)
C24 C 0.6437(3) 0.8716(2) 0.4958(2)
C25 C 0.6468(4) 0.8497(2) 0.5506(2)
H22 H 0.6531 0.8088 0.5571
C26 C 0.6406(4) 0.8885(2) 0.5960(2)
H23 H 0.6416 0.8736 0.6339
C27 C 0.6330(4) 0.9472(2) 0.5877(2)
H24 H 0.6286 0.9724 0.6199
C28 C 0.6316(4) 0.9718(2) 0.5327(2)
C29 C 0.6250(4) 1.0398(3) 0.5319(2)
C30 C 0.6095(3) 1.1357(2) 0.4106(2)
C31 C 0.6260(4) 1.1236(2) 0.4675(2)
C32 C 0.6405(4) 1.1706(3) 0.5042(2)
H25 H 0.6541 1.1644 0.5435
C33 C 0.6348(5) 1.2261(2) 0.4824(3)
H26 H 0.6442 1.2584 0.5073
C34 C 0.6159(4) 1.2369(2) 0.4253(3)
H27 H 0.6115 1.2762 0.4122
C35 C 0.6035(3) 1.1914(2) 0.3871(2)
C36 C 0.5920(4) 1.2115(2) 0.3242(3)
C37 C 0.5981(3) 1.1198(2) 0.1993(2)
C38 C 0.5966(3) 1.1742(2) 0.2264(2)
C39 C 0.6011(4) 1.2245(2) 0.1940(2)
H28 H 0.6016 1.2618 0.2119
C40 C 0.6049(4) 1.2202(2) 0.1360(2)
H29 H 0.6076 1.2549 0.1138
C41 C 0.6049(4) 1.1666(2) 0.1088(2)
H30 H 0.6058 1.1649 0.0683
C42 C 0.6036(4) 1.1149(2) 0.1405(2)
C43 C 0.5002(4) 1.0460(2) 0.2450(2)
H31 H 0.4588 1.0764 0.2628
H32 H 0.5059 1.0124 0.2709
H33 H 0.4690 1.0334 0.2092
C44 C 0.6049(4) 1.0601(3) 0.1015(3)
loop_
_geom_bond_atom_site_label_1
_geom_bond_atom_site_label_2
_geom_bond_site_symmetry_1
_geom_bond_site_symmetry_2
F1 C23 1_555 1_555
F2 C30 1_555 1_555
O1 C1 1_555 1_555
O2 C14 1_555 1_555
O3 C15 1_555 1_555
O4 C22 1_555 1_555
O5 C29 1_555 1_555
O6 C36 1_555 1_555
O7 C37 1_555 1_555
O8 C44 1_555 1_555
N1 H1 1_555 1_555
N2 H2 1_555 1_555
N3 H3 1_555 1_555
N4 H4 1_555 1_555
N5 H5 1_555 1_555
C1 C2 1_555 1_555
C2 N5 1_555 1_555
C3 C2 1_555 1_555
H6 C3 1_555 1_555
C4 C3 1_555 1_555
H7 C4 1_555 1_555
C5 C4 1_555 1_555
H8 C5 1_555 1_555
C6 C1 1_555 1_555
C7 O1 1_555 1_555
H9 C7 1_555 1_555
H10 C7 1_555 1_555
C8 C7 1_555 1_555
C9 C8 1_555 1_555
H11 C9 1_555 1_555
C10 C9 1_555 1_555
H12 C10 1_555 1_555
C11 C10 1_555 1_555
H13 C11 1_555 1_555
C12 C11 1_555 1_555
H14 C12 1_555 1_555
C13 C8 1_555 1_555
H15 C13 1_555 1_555
C14 N1 1_555 1_555
C15 C16 1_555 1_555
C16 N1 1_555 1_555
C17 C16 1_555 1_555
H16 C17 1_555 1_555
C18 C17 1_555 1_555
H17 C18 1_555 1_555
C19 C18 1_555 1_555
H18 C19 1_555 1_555
C20 C15 1_555 1_555
C21 O3 1_555 1_555
H19 C21 1_555 1_555
H20 C21 1_555 1_555
H21 C21 1_555 1_555
C22 N2 1_555 1_555
C23 C24 1_555 1_555
C24 N2 1_555 1_555
C25 C24 1_555 1_555
H22 C25 1_555 1_555
C26 C25 1_555 1_555
H23 C26 1_555 1_555
C27 C26 1_555 1_555
H24 C27 1_555 1_555
C28 C23 1_555 1_555
C29 N3 1_555 1_555
C30 C31 1_555 1_555
C31 N3 1_555 1_555
C32 C31 1_555 1_555
H25 C32 1_555 1_555
C33 C32 1_555 1_555
H26 C33 1_555 1_555
C34 C33 1_555 1_555
H27 C34 1_555 1_555
C35 C30 1_555 1_555
C36 N4 1_555 1_555
C37 C38 1_555 1_555
C38 N4 1_555 1_555
C39 C38 1_555 1_555
H28 C39 1_555 1_555
C40 C39 1_555 1_555
H29 C40 1_555 1_555
C41 C40 1_555 1_555
H30 C41 1_555 1_555
C42 C37 1_555 1_555
C43 O7 1_555 1_555
H31 C43 1_555 1_555
H32 C43 1_555 1_555
H33 C43 1_555 1_555
C44 N5 1_555 1_555
C5 C6 1_555 1_555
C6 C14 1_555 1_555
C12 C13 1_555 1_555
C19 C20 1_555 1_555
C20 C22 1_555 1_555
C27 C28 1_555 1_555
C28 C29 1_555 1_555
C34 C35 1_555 1_555
C35 C36 1_555 1_555
C41 C42 1_555 1_555
C42 C44 1_555 1_555

#END
