
#######################################################################
#
#                 Cambridge Crystallographic Data Centre
#                                CCDC 
#
#######################################################################
#
# If this CIF has been generated from an entry in the Cambridge 
# Structural Database, then it will include bibliographic, chemical, 
# crystal, experimental, refinement or atomic coordinate data resulting 
# from the CCDC's data processing and validation procedures.
#
#######################################################################

data_TUYKEF
_chemical_formula_moiety         'C25 H19 B1 F2 N2 O1'
_chemical_name_systematic        
(1-(4-(diphenylamino)phenyl)-2-(pyridin-2-yl)ethenolato)(difluoro)borate
_symmetry_cell_setting           monoclinic
_symmetry_space_group_name_H-M   'P 21/n'
_symmetry_Int_Tables_number      14
_space_group_name_Hall           '-P 2yn'
loop_
_symmetry_equiv_pos_site_id
_symmetry_equiv_pos_as_xyz
1 x,y,z
2 1/2-x,1/2+y,1/2-z
3 -x,-y,-z
4 1/2+x,1/2-y,1/2+z
_cell_length_a                   6.5345(13)
_cell_length_b                   13.047(3)
_cell_length_c                   24.300(5)
_cell_angle_alpha                90
_cell_angle_beta                 95.76(3)
_cell_angle_gamma                90
_cell_volume                     2061.25
_exptl_crystal_colour            yellow
_exptl_crystal_description       block
_cell_formula_units_Z            4
_exptl_crystal_recrystallization_method 'vapour deposition'
_exptl_crystal_preparation       Luminescent
loop_
_atom_site_label
_atom_site_type_symbol
_atom_site_fract_x
_atom_site_fract_y
_atom_site_fract_z
B1 B -0.2987(3) -0.01059(14) 0.79567(8)
C1 C -0.6561(3) 0.01903(13) 0.74665(7)
H1 H -0.6840 -0.0487 0.7553
C2 C -0.8015(3) 0.07407(14) 0.71526(7)
H2 H -0.9270 0.0446 0.7026
C3 C -0.7586(3) 0.17570(15) 0.70252(8)
H3 H -0.8549 0.2144 0.6807
C4 C -0.5736(3) 0.21817(13) 0.72229(7)
H4 H -0.5448 0.2859 0.7140
C5 C -0.4277(3) 0.15967(12) 0.75495(6)
C6 C -0.2332(2) 0.19964(12) 0.77723(6)
H5 H -0.1931 0.2640 0.7659
C7 C -0.1054(2) 0.14695(11) 0.81431(6)
C8 C 0.0846(2) 0.18813(11) 0.84324(6)
C9 C 0.1225(2) 0.29412(11) 0.84679(6)
H6 H 0.0310 0.3391 0.8275
C10 C 0.2923(2) 0.33274(11) 0.87823(6)
H7 H 0.3123 0.4033 0.8804
C11 C 0.4354(2) 0.26689(11) 0.90708(6)
C12 C 0.4019(3) 0.16067(12) 0.90206(6)
H8 H 0.4968 0.1153 0.9197
C13 C 0.2298(2) 0.12317(11) 0.87119(6)
H9 H 0.2097 0.0527 0.8689
C14 C 0.6784(2) 0.40701(11) 0.93433(6)
C15 C 0.7118(2) 0.44379(12) 0.88221(7)
H10 H 0.6840 0.4024 0.8512
C16 C 0.7865(3) 0.54213(13) 0.87664(7)
H11 H 0.8086 0.5664 0.8417
C17 C 0.8288(3) 0.60466(13) 0.92229(8)
H12 H 0.8786 0.6707 0.9182
C18 C 0.7963(3) 0.56796(13) 0.97400(7)
H13 H 0.8243 0.6096 1.0049
C19 C 0.7220(2) 0.46936(12) 0.98022(7)
H14 H 0.7015 0.4451 1.0152
C20 C 0.6146(3) 0.21225(13) 1.02850(7)
H15 H 0.4821 0.2347 1.0329
C21 C 0.7186(3) 0.14935(14) 1.06803(7)
H16 H 0.6550 0.1293 1.0989
C22 C 0.9160(3) 0.11631(13) 1.06188(7)
H17 H 0.9856 0.0747 1.0886
C23 C 1.0094(3) 0.14546(13) 1.01581(8)
H18 H 1.1417 0.1229 1.0113
C24 C 0.9063(3) 0.20818(12) 0.97632(7)
H19 H 0.9702 0.2280 0.9455
C25 C 0.7096(2) 0.24150(11) 0.98236(6)
F1 F -0.20433(16) -0.06030(7) 0.75385(4)
F2 F -0.38723(18) -0.08184(8) 0.82773(4)
N1 N -0.4716(2) 0.06003(10) 0.76575(5)
N2 N 0.6026(2) 0.30554(10) 0.94082(6)
O1 O -0.14963(18) 0.05068(8) 0.82906(4)
loop_
_geom_bond_atom_site_label_1
_geom_bond_atom_site_label_2
_geom_bond_site_symmetry_1
_geom_bond_site_symmetry_2
B1 F1 1_555 1_555
C1 H1 1_555 1_555
C2 C1 1_555 1_555
H2 C2 1_555 1_555
C3 C2 1_555 1_555
H3 C3 1_555 1_555
C4 C3 1_555 1_555
H4 C4 1_555 1_555
C5 C4 1_555 1_555
C6 C5 1_555 1_555
H5 C6 1_555 1_555
C7 C6 1_555 1_555
C8 C7 1_555 1_555
C9 C8 1_555 1_555
H6 C9 1_555 1_555
C10 C9 1_555 1_555
H7 C10 1_555 1_555
C11 C10 1_555 1_555
C12 C11 1_555 1_555
H8 C12 1_555 1_555
C13 C8 1_555 1_555
H9 C13 1_555 1_555
C14 C15 1_555 1_555
C15 H10 1_555 1_555
C16 C15 1_555 1_555
H11 C16 1_555 1_555
C17 C16 1_555 1_555
H12 C17 1_555 1_555
C18 C17 1_555 1_555
H13 C18 1_555 1_555
C19 C14 1_555 1_555
H14 C19 1_555 1_555
C20 H15 1_555 1_555
C21 C20 1_555 1_555
H16 C21 1_555 1_555
C22 C21 1_555 1_555
H17 C22 1_555 1_555
C23 C22 1_555 1_555
H18 C23 1_555 1_555
C24 C23 1_555 1_555
H19 C24 1_555 1_555
C25 C20 1_555 1_555
F2 B1 1_555 1_555
N1 B1 1_555 1_555
N2 C11 1_555 1_555
O1 B1 1_555 1_555
C1 N1 1_555 1_555
C5 N1 1_555 1_555
C7 O1 1_555 1_555
C12 C13 1_555 1_555
C14 N2 1_555 1_555
C18 C19 1_555 1_555
C24 C25 1_555 1_555
C25 N2 1_555 1_555

#END
