
#######################################################################
#
#                 Cambridge Crystallographic Data Centre
#                                CCDC 
#
#######################################################################
#
# If this CIF has been generated from an entry in the Cambridge 
# Structural Database, then it will include bibliographic, chemical, 
# crystal, experimental, refinement or atomic coordinate data resulting 
# from the CCDC's data processing and validation procedures.
#
#######################################################################

data_TUYQEL
_chemical_formula_moiety         'C30 H22 O4'
_chemical_name_systematic        
"benzyl 5'-(1-naphthyl)-2-oxospiro[1-benzofuran-3,1'-cyclopent[2]ene]-2'-carboxylate"
_symmetry_cell_setting           monoclinic
_symmetry_space_group_name_H-M   'P 21'
_symmetry_Int_Tables_number      4
_space_group_name_Hall           'P 2yb'
loop_
_symmetry_equiv_pos_site_id
_symmetry_equiv_pos_as_xyz
1 x,y,z
2 -x,1/2+y,-z
_cell_length_a                   7.07170(10)
_cell_length_b                   8.84390(10)
_cell_length_c                   19.5443(3)
_cell_angle_alpha                90
_cell_angle_beta                 96.5560(10)
_cell_angle_gamma                90
_cell_volume                     1214.33
_exptl_crystal_colour            colorless
_exptl_crystal_description       block
_cell_formula_units_Z            2
loop_
_atom_site_label
_atom_site_type_symbol
_atom_site_fract_x
_atom_site_fract_y
_atom_site_fract_z
O1 O -0.0718(5) 0.7228(4) 0.80656(18)
O2 O -0.2061(5) 0.5147(5) 0.7567(2)
O3 O -0.0727(8) 0.7325(6) 0.6424(2)
O4 O 0.0782(8) 0.6238(5) 0.5610(2)
C1 C 0.2067(6) 0.4032(5) 0.7797(2)
H1 H 0.0965 0.3322 0.7707
C2 C 0.3500(7) 0.3557(5) 0.7305(2)
H2 H 0.4798 0.3920 0.7468
H3 H 0.3528 0.2445 0.7250
C3 C 0.2724(7) 0.4328(6) 0.6639(2)
H4 H 0.3080 0.4077 0.6199
C4 C 0.1479(7) 0.5402(5) 0.6750(2)
C5 C 0.1329(6) 0.5614(5) 0.7511(2)
C6 C -0.0689(6) 0.5911(6) 0.7689(2)
C7 C 0.2354(6) 0.7011(5) 0.7799(2)
C8 C 0.4184(6) 0.7543(5) 0.7772(2)
H5 H 0.5073 0.6976 0.7548
C9 C 0.4698(7) 0.8923(5) 0.8081(2)
H6 H 0.5954 0.9297 0.8070
C10 C 0.3398(8) 0.9756(5) 0.8403(3)
H7 H 0.3777 1.0693 0.8614
C11 C 0.1537(8) 0.9242(6) 0.8424(3)
H8 H 0.0629 0.9807 0.8640
C12 C 0.1093(6) 0.7880(5) 0.8115(2)
C13 C 0.2695(6) 0.3940(4) 0.8562(2)
C14 C 0.1488(6) 0.3265(4) 0.9024(2)
C15 C -0.0374(7) 0.2724(5) 0.8823(2)
H9 H -0.0903 0.2832 0.8356
C16 C -0.1444(8) 0.2048(6) 0.9282(3)
H10 H -0.2688 0.1692 0.9129
C17 C -0.0712(9) 0.1881(6) 0.9974(3)
H11 H -0.1454 0.1411 1.0290
C18 C 0.1079(9) 0.2401(6) 1.0194(3)
H12 H 0.1576 0.2283 1.0664
C19 C 0.2205(7) 0.3114(5) 0.9729(2)
C20 C 0.4026(8) 0.3670(6) 0.9968(2)
H13 H 0.4491 0.3568 1.0441
C21 C 0.5135(7) 0.4353(6) 0.9530(2)
H14 H 0.6349 0.4747 0.9700
C22 C 0.4460(6) 0.4467(5) 0.8823(2)
H15 H 0.5249 0.4921 0.8519
C23 C 0.0395(10) 0.6425(6) 0.6256(3)
C24 C -0.0238(17) 0.7258(11) 0.5094(4)
H16 H 0.0639 0.7647 0.4775
H17 H -0.0781 0.8128 0.5324
C25 C -0.1801(11) 0.6335(7) 0.4707(3)
C26 C -0.1536(12) 0.5726(8) 0.4069(3)
H18 H -0.0370 0.5886 0.3882
C27 C -0.2976(15) 0.4884(8) 0.3706(3)
H19 H -0.2795 0.4469 0.3270
C28 C -0.4681(13) 0.4650(9) 0.3980(4)
H20 H -0.5666 0.4075 0.3731
C29 C -0.4947(12) 0.5258(10) 0.4618(4)
H21 H -0.6113 0.5098 0.4805
C30 C -0.3507(13) 0.6101(9) 0.4981(3)
H22 H -0.3688 0.6516 0.5417
C31? C -0.055(3) 0.693(3) 0.5070(7)
H23? H -0.0816 0.7982 0.5196
H24? H -0.1769 0.6361 0.5024
C32? C 0.028(2) 0.6898(16) 0.4397(6)
C33? C 0.184(2) 0.7810(16) 0.4309(7)
H25? H 0.2307 0.8503 0.4660
C34? C 0.271(2) 0.7707(19) 0.3708(8)
H26? H 0.3772 0.8330 0.3648
C35? C 0.203(3) 0.6693(19) 0.3195(7)
H27? H 0.2621 0.6623 0.2785
C36? C 0.047(3) 0.5781(17) 0.3284(6)
H28? H 0.0003 0.5088 0.2933
C37? C -0.040(2) 0.5884(16) 0.3885(7)
H29? H -0.1462 0.5260 0.3945
loop_
_geom_bond_atom_site_label_1
_geom_bond_atom_site_label_2
_geom_bond_site_symmetry_1
_geom_bond_site_symmetry_2
O1 C6 1_555 1_555
O2 C6 1_555 1_555
O3 C23 1_555 1_555
O4 C23 1_555 1_555
C1 H1 1_555 1_555
C2 C1 1_555 1_555
H2 C2 1_555 1_555
H3 C2 1_555 1_555
C3 C2 1_555 1_555
H4 C3 1_555 1_555
C4 C3 1_555 1_555
C5 C1 1_555 1_555
C6 C5 1_555 1_555
C7 C5 1_555 1_555
C8 C7 1_555 1_555
H5 C8 1_555 1_555
C9 C8 1_555 1_555
H6 C9 1_555 1_555
C10 C9 1_555 1_555
H7 C10 1_555 1_555
C11 C10 1_555 1_555
H8 C11 1_555 1_555
C12 O1 1_555 1_555
C13 C1 1_555 1_555
C14 C13 1_555 1_555
C15 C14 1_555 1_555
H9 C15 1_555 1_555
C16 C15 1_555 1_555
H10 C16 1_555 1_555
C17 C16 1_555 1_555
H11 C17 1_555 1_555
C18 C17 1_555 1_555
H12 C18 1_555 1_555
C19 C14 1_555 1_555
C20 C19 1_555 1_555
H13 C20 1_555 1_555
C21 C20 1_555 1_555
H14 C21 1_555 1_555
C22 C13 1_555 1_555
H15 C22 1_555 1_555
C23 C4 1_555 1_555
C24 O4 1_555 1_555
H16 C24 1_555 1_555
H17 C24 1_555 1_555
C25 C24 1_555 1_555
C26 C25 1_555 1_555
H18 C26 1_555 1_555
C27 C26 1_555 1_555
H19 C27 1_555 1_555
C28 C27 1_555 1_555
H20 C28 1_555 1_555
C29 C28 1_555 1_555
H21 C29 1_555 1_555
C30 C25 1_555 1_555
H22 C30 1_555 1_555
C4 C5 1_555 1_555
C7 C12 1_555 1_555
C11 C12 1_555 1_555
C18 C19 1_555 1_555
C21 C22 1_555 1_555
C29 C30 1_555 1_555

#END
