
#######################################################################
#
#                 Cambridge Crystallographic Data Centre
#                                CCDC 
#
#######################################################################
#
# If this CIF has been generated from an entry in the Cambridge 
# Structural Database, then it will include bibliographic, chemical, 
# crystal, experimental, refinement or atomic coordinate data resulting 
# from the CCDC's data processing and validation procedures.
#
#######################################################################

data_TUZBAT
_chemical_formula_moiety         'C6 H4 Br1 N3 O4'
_chemical_name_systematic        2-bromo-4,6-dinitroaniline
_symmetry_cell_setting           monoclinic
_symmetry_space_group_name_H-M   'P 21/n'
_symmetry_Int_Tables_number      14
_space_group_name_Hall           '-P 2yn'
loop_
_symmetry_equiv_pos_site_id
_symmetry_equiv_pos_as_xyz
1 x,y,z
2 1/2-x,1/2+y,1/2-z
3 -x,-y,-z
4 1/2+x,1/2-y,1/2+z
_cell_length_a                   6.6955(2)
_cell_length_b                   7.7720(2)
_cell_length_c                   16.0608(4)
_cell_angle_alpha                90
_cell_angle_beta                 95.4182(14)
_cell_angle_gamma                90
_cell_volume                     832.029
_exptl_crystal_colour            yellow
_exptl_crystal_description       block
_cell_formula_units_Z            4
loop_
_atom_site_label
_atom_site_type_symbol
_atom_site_fract_x
_atom_site_fract_y
_atom_site_fract_z
Br1 Br 0.19258(6) 0.64018(4) 1.10024(2)
O1 O 0.4575(4) 0.6238(3) 0.79915(19)
O2 O 0.2420(4) 0.7493(4) 0.71047(15)
O3 O -0.3569(3) 0.9745(3) 0.79238(13)
O4 O -0.4360(3) 0.9614(3) 0.91874(15)
N1 N -0.1949(4) 0.8183(4) 1.03776(15)
H1 H -0.1531 0.7837 1.0886
H2 H -0.3120 0.8696 1.0282
N2 N 0.2978(4) 0.6977(4) 0.78113(17)
N3 N -0.3276(3) 0.9358(3) 0.86609(13)
C1 C -0.0806(4) 0.7930(4) 0.97511(16)
C2 C 0.1093(4) 0.7101(4) 0.98987(17)
C3 C 0.2302(4) 0.6777(4) 0.92827(19)
H3 H 0.3551 0.6208 0.9404
C4 C 0.1671(4) 0.7299(4) 0.84695(18)
C5 C -0.0114(4) 0.8115(4) 0.82743(17)
H4 H -0.0513 0.8456 0.7715
C6 C -0.1333(4) 0.8435(3) 0.89051(16)
loop_
_geom_bond_atom_site_label_1
_geom_bond_atom_site_label_2
_geom_bond_site_symmetry_1
_geom_bond_site_symmetry_2
Br1 C2 1_555 1_555
O1 N2 1_555 1_555
O2 N2 1_555 1_555
O3 N3 1_555 1_555
O4 N3 1_555 1_555
N1 H1 1_555 1_555
H2 N1 1_555 1_555
N2 C4 1_555 1_555
N3 C6 1_555 1_555
C1 N1 1_555 1_555
C2 C1 1_555 1_555
C3 C2 1_555 1_555
H3 C3 1_555 1_555
C4 C3 1_555 1_555
C5 C4 1_555 1_555
H4 C5 1_555 1_555
C6 C1 1_555 1_555
C5 C6 1_555 1_555

#END
