
#######################################################################
#
#                 Cambridge Crystallographic Data Centre
#                                CCDC 
#
#######################################################################
#
# If this CIF has been generated from an entry in the Cambridge 
# Structural Database, then it will include bibliographic, chemical, 
# crystal, experimental, refinement or atomic coordinate data resulting 
# from the CCDC's data processing and validation procedures.
#
#######################################################################

data_TUZGOM
_chemical_formula_moiety         'C16 H14 F1 N3 O2'
_chemical_name_systematic        
2-((4-Fluorophenyl)hydrazono)-3-oxo-N-phenylbutanamide
_symmetry_cell_setting           triclinic
_symmetry_space_group_name_H-M   'P -1'
_symmetry_Int_Tables_number      2
_space_group_name_Hall           '-P 1'
loop_
_symmetry_equiv_pos_site_id
_symmetry_equiv_pos_as_xyz
1 x,y,z
2 -x,-y,-z
_cell_length_a                   7.6813(13)
_cell_length_b                   9.5520(13)
_cell_length_c                   11.392(2)
_cell_angle_alpha                99.62(5)
_cell_angle_beta                 108.04(3)
_cell_angle_gamma                110.07(3)
_cell_volume                     710.664
_exptl_crystal_colour            colorless
_exptl_crystal_description       Prism
_cell_formula_units_Z            2
loop_
_atom_site_label
_atom_site_type_symbol
_atom_site_fract_x
_atom_site_fract_y
_atom_site_fract_z
F1 F -0.2387(2) -0.09169(16) 0.37218(14)
O1 O 0.2129(2) 0.39033(16) -0.03678(14)
O2 O 0.3302(2) 0.85019(17) 0.14904(15)
N1 N 0.3422(2) 0.6450(2) -0.03374(17)
N2 N 0.1515(2) 0.4827(2) 0.19112(17)
N3 N 0.0953(2) 0.3329(2) 0.14431(18)
C1 C 0.3809(3) 0.6313(2) -0.1475(2)
C2 C 0.3362(3) 0.4902(2) -0.2332(2)
H1 H 0.2789 0.3945 -0.2162
C3 C 0.3760(3) 0.4898(3) -0.3438(2)
H2 H 0.3453 0.3931 -0.4024
C4 C 0.4597(3) 0.6283(3) -0.3703(2)
H3 H 0.4848 0.6264 -0.4470
C5 C 0.5062(3) 0.7686(3) -0.2843(2)
H4 H 0.5653 0.8640 -0.3012
C6 C 0.4672(3) 0.7714(2) -0.1736(2)
H5 H 0.4989 0.8686 -0.1150
C7 C 0.2609(3) 0.5310(2) 0.0142(2)
C8 C 0.2291(3) 0.5821(2) 0.1337(2)
C9 C 0.2716(3) 0.7446(2) 0.1958(2)
C10 C 0.2399(4) 0.7823(3) 0.3200(2)
H6 H 0.2614 0.8921 0.3452
H7 H 0.3360 0.7647 0.3890
H8 H 0.1018 0.7145 0.3062
C11 C 0.0098(3) 0.2284(2) 0.2052(2)
C12 C 0.0200(3) 0.2795(3) 0.3298(2)
H9 H 0.0841 0.3882 0.3760
C13 C -0.0633(3) 0.1716(3) 0.3861(2)
H10 H -0.0568 0.2049 0.4713
C14 C -0.1564(3) 0.0146(3) 0.3163(2)
C15 C -0.1707(3) -0.0391(3) 0.1923(2)
H11 H -0.2363 -0.1477 0.1461
C16 C -0.0867(3) 0.0700(2) 0.1372(2)
H12 H -0.0952 0.0361 0.0515
H13 H 0.366(3) 0.734(3) 0.009(2)
H14 H 0.109(4) 0.296(3) 0.069(3)
loop_
_geom_bond_atom_site_label_1
_geom_bond_atom_site_label_2
_geom_bond_site_symmetry_1
_geom_bond_site_symmetry_2
F1 C14 1_555 1_555
O1 C7 1_555 1_555
O2 C9 1_555 1_555
N1 C1 1_555 1_555
N2 N3 1_555 1_555
N3 C11 1_555 1_555
C1 C2 1_555 1_555
C2 H1 1_555 1_555
C3 C2 1_555 1_555
H2 C3 1_555 1_555
C4 C3 1_555 1_555
H3 C4 1_555 1_555
C5 C4 1_555 1_555
H4 C5 1_555 1_555
C6 C1 1_555 1_555
H5 C6 1_555 1_555
C7 N1 1_555 1_555
C8 N2 1_555 1_555
C9 C8 1_555 1_555
C10 C9 1_555 1_555
H6 C10 1_555 1_555
H7 C10 1_555 1_555
H8 C10 1_555 1_555
C11 C12 1_555 1_555
C12 H9 1_555 1_555
C13 C12 1_555 1_555
H10 C13 1_555 1_555
C14 C13 1_555 1_555
C15 C14 1_555 1_555
H11 C15 1_555 1_555
C16 C11 1_555 1_555
H12 C16 1_555 1_555
H13 N1 1_555 1_555
H14 N3 1_555 1_555
C5 C6 1_555 1_555
C7 C8 1_555 1_555
C15 C16 1_555 1_555

#END
