
#######################################################################
#
#                 Cambridge Crystallographic Data Centre
#                                CCDC 
#
#######################################################################
#
# If this CIF has been generated from an entry in the Cambridge 
# Structural Database, then it will include bibliographic, chemical, 
# crystal, experimental, refinement or atomic coordinate data resulting 
# from the CCDC's data processing and validation procedures.
#
#######################################################################

data_TUZNUX
_chemical_formula_moiety         'C1 N6 O2 2-,C1 N3 O2 1-,3(Rb1 1+),H2 O1'
_chemical_name_systematic        
'Tri-rubidium 5-nitramino-tetrazole-di-ide nitrocyanamide monohydrate'
_symmetry_cell_setting           monoclinic
_symmetry_space_group_name_H-M   'C 2/c'
_symmetry_Int_Tables_number      15
_space_group_name_Hall           '-C 2yn'
loop_
_symmetry_equiv_pos_site_id
_symmetry_equiv_pos_as_xyz
1 x,y,z
2 -x,y,1/2-z
3 1/2+x,1/2+y,z
4 1/2-x,1/2+y,1/2-z
5 -x,-y,-z
6 x,-y,1/2+z
7 1/2-x,1/2-y,-z
8 1/2+x,1/2-y,1/2+z
_cell_length_a                   23.244(9)
_cell_length_b                   7.077(3)
_cell_length_c                   14.810(7)
_cell_angle_alpha                90
_cell_angle_beta                 91.35(3)
_cell_angle_gamma                90
_cell_volume                     2435.54
_exptl_crystal_colour            colorless
_cell_formula_units_Z            8
loop_
_atom_site_label
_atom_site_type_symbol
_atom_site_fract_x
_atom_site_fract_y
_atom_site_fract_z
Rb1 Rb -0.1506(1) -0.0914(2) 0.2833(1)
Rb2 Rb -0.29831 -0.11652 0.38631
Rb3 Rb -0.4679(1) 0.2053(2) 0.4184(1)
O1 O -0.1877(4) -0.0580(15) 0.4764(7)
O2 O -0.1286(4) -0.0002(15) 0.5916(6)
N1 N -0.2219(6) 0.2413(19) 0.3708(9)
N2 N -0.2363(6) 0.3865(18) 0.3180(9)
N3 N -0.2092(6) 0.5380(20) 0.3436(9)
N4 N -0.1759(5) 0.4969(18) 0.4175(8)
N5 N -0.1538(5) 0.2396(17) 0.5064(8)
N6 N -0.1586(5) 0.0610(17) 0.5235(8)
C1 C -0.1840(6) 0.3140(20) 0.4312(10)
O3 O -0.3942(6) -0.1890(20) 0.2570(9)
O4 O -0.4246(6) 0.0950(20) 0.2457(9)
N7 N -0.4256(5) -0.0740(19) 0.2202(9)
N8 N -0.4643(6) -0.1190(20) 0.1604(9)
N9 N -0.4627(8) -0.4510(30) 0.1155(12)
C2 C -0.4617(7) -0.3020(30) 0.1408(12)
O5 O -0.4236(5) -0.1983(15) 0.4887(7)
loop_
_geom_bond_atom_site_label_1
_geom_bond_atom_site_label_2
_geom_bond_site_symmetry_1
_geom_bond_site_symmetry_2
O1 N6 1_555 1_555
O2 N6 1_555 1_555
O3 N7 1_555 1_555
O4 N7 1_555 1_555
N1 N2 1_555 1_555
N2 N3 1_555 1_555
N3 N4 1_555 1_555
N4 C1 1_555 1_555
N5 N6 1_555 1_555
N7 N8 1_555 1_555
N8 C2 1_555 1_555
N9 C2 1_555 1_555
C1 N1 1_555 1_555
N5 C1 1_555 1_555

#END
