
#######################################################################
#
#                 Cambridge Crystallographic Data Centre
#                                CCDC 
#
#######################################################################
#
# If this CIF has been generated from an entry in the Cambridge 
# Structural Database, then it will include bibliographic, chemical, 
# crystal, experimental, refinement or atomic coordinate data resulting 
# from the CCDC's data processing and validation procedures.
#
#######################################################################

data_TUZSAJ
_chemical_formula_moiety         'C85 H7 Cl7 O2'
_chemical_name_systematic        
'(benzylperoxy)-heptachloro-C78fullerene unknown solvate'
_symmetry_cell_setting           monoclinic
_symmetry_space_group_name_H-M   'P 21/c'
_symmetry_Int_Tables_number      14
_space_group_name_Hall           '-P 2ybc'
loop_
_symmetry_equiv_pos_site_id
_symmetry_equiv_pos_as_xyz
1 x,y,z
2 -x,1/2+y,1/2-z
3 -x,-y,-z
4 x,1/2-y,1/2+z
_cell_length_a                   10.2451(4)
_cell_length_b                   18.7518(7)
_cell_length_c                   29.8201(13)
_cell_angle_alpha                90
_cell_angle_beta                 91.639(3)
_cell_angle_gamma                90
_cell_volume                     5726.52
_cell_formula_units_Z            4
loop_
_atom_site_label
_atom_site_type_symbol
_atom_site_fract_x
_atom_site_fract_y
_atom_site_fract_z
Cl1 Cl 0.06219(7) 0.26385(4) 0.88751(3)
Cl2 Cl -0.26289(7) 0.34639(4) 0.83288(3)
Cl3 Cl -0.19554(8) -0.29608(4) 0.85833(3)
Cl4 Cl 0.17135(7) -0.19612(4) 0.89041(3)
Cl5 Cl 0.04109(8) 0.12579(4) 0.96734(3)
Cl6 Cl 0.19142(7) -0.05586(4) 0.94292(3)
Cl7 Cl -0.07565(8) -0.23608(4) 0.94531(3)
O1 O -0.60532(19) 0.21985(11) 0.84518(8)
O2 O -0.5389(2) 0.28751(12) 0.85587(8)
C1 C -0.0191(3) 0.19569(15) 0.85357(10)
C2 C 0.0721(3) -0.00157(16) 0.86875(11)
C3 C 0.0985(3) -0.01553(16) 0.82344(11)
C4 C -0.1312(3) 0.24706(15) 0.78483(11)
C5 C -0.3765(3) -0.13078(16) 0.88759(11)
C6 C -0.2587(3) 0.25720(15) 0.80923(11)
C7 C -0.0481(3) 0.08440(16) 0.92117(10)
C8 C -0.4704(3) 0.20661(16) 0.77785(11)
C9 C -0.2600(3) 0.14561(17) 0.67094(11)
C10 C 0.0613(3) -0.08635(16) 0.80566(11)
C11 C -0.1595(3) -0.16991(15) 0.77732(11)
C12 C -0.1549(3) 0.23768(15) 0.73794(11)
C13 C -0.1621(3) 0.13093(15) 0.90331(10)
C14 C 0.0535(3) -0.06163(16) 0.90396(11)
C15 C -0.0531(3) 0.08129(17) 0.68165(10)
C16 C -0.1177(3) 0.01832(16) 0.93496(10)
C17 C -0.4832(3) -0.08281(16) 0.87906(11)
C18 C -0.3403(3) -0.02550(16) 0.92839(11)
C19 C -0.3006(3) -0.17078(16) 0.76883(11)
C20 C -0.2937(3) 0.23607(16) 0.72936(11)
C21 C -0.2810(3) 0.09729(16) 0.91238(10)
C22 C -0.4662(3) -0.10273(16) 0.72499(11)
C23 C 0.1097(3) 0.04181(16) 0.79181(11)
C24 C -0.5094(3) 0.17855(16) 0.82318(11)
C25 C -0.0983(3) -0.17100(16) 0.90252(11)
C26 C -0.0229(3) 0.21691(15) 0.80522(10)
C27 C 0.0323(3) -0.13935(16) 0.88349(11)
C28 C 0.0393(3) 0.06866(16) 0.88194(11)
C29 C -0.1537(3) 0.18100(15) 0.87059(10)
C30 C -0.3935(3) 0.10917(16) 0.88549(10)
C31 C 0.0966(3) 0.11150(16) 0.80851(11)
C32 C -0.2707(3) 0.20241(15) 0.84651(10)
C33 C -0.2615(3) -0.10974(16) 0.69627(11)
C34 C -0.5840(3) 0.03172(17) 0.74271(11)
C35 C -0.0713(3) -0.04875(16) 0.92747(10)
C36 C -0.3462(3) -0.14199(16) 0.72854(11)
C37 C 0.0560(3) 0.12438(16) 0.85227(11)
C38 C -0.5718(3) 0.10746(16) 0.81077(11)
C39 C -0.3580(3) 0.24328(15) 0.77103(11)
C40 C -0.5469(3) -0.08416(16) 0.83826(12)
C41 C -0.0544(3) -0.04490(17) 0.69442(11)
C42 C -0.1130(3) 0.01489(17) 0.67293(11)
C43 C -0.3880(3) 0.16588(16) 0.85368(10)
C44 C 0.0008(3) -0.13486(15) 0.83462(11)
C45 C -0.1284(3) -0.10750(16) 0.70518(11)
C46 C 0.0294(3) -0.09377(15) 0.76085(11)
C47 C -0.3228(3) -0.17070(16) 0.85373(11)
C48 C -0.5964(3) -0.01922(17) 0.81872(11)
C49 C -0.1257(3) 0.14723(17) 0.67939(11)
C50 C -0.2532(3) 0.03048(17) 0.93415(10)
C51 C 0.0333(3) 0.15988(16) 0.73494(11)
C52 C -0.4514(3) -0.04411(17) 0.69388(11)
C53 C -0.1838(3) -0.19945(15) 0.85979(11)
C54 C -0.3250(3) 0.07789(17) 0.66352(10)
C55 C -0.3251(3) -0.04907(16) 0.67562(10)
C56 C 0.0449(3) 0.08905(17) 0.71608(11)
C57 C 0.0416(3) -0.03612(16) 0.72893(10)
C58 C -0.2549(3) 0.01286(16) 0.66347(11)
C59 C -0.4578(3) -0.01510(17) 0.90110(11)
C60 C -0.4509(3) 0.08301(17) 0.68277(11)
C61 C -0.1583(3) -0.10648(16) 0.92246(10)
C62 C -0.0726(3) 0.19599(16) 0.71238(11)
C63 C 0.0839(3) 0.03122(16) 0.74399(11)
C64 C -0.5118(3) 0.02279(17) 0.70183(11)
C65 C -0.5399(3) -0.09536(16) 0.76202(11)
C66 C -0.5692(3) 0.04790(17) 0.83925(11)
C67 C -0.4877(3) 0.04967(16) 0.88029(11)
C68 C 0.0570(3) 0.17067(16) 0.77959(11)
C69 C -0.5993(3) -0.02723(17) 0.77150(11)
C70 C -0.2912(3) -0.09521(16) 0.92120(11)
C71 C -0.3813(3) -0.16636(16) 0.80891(11)
C72 C -0.0786(3) -0.13736(16) 0.74561(11)
C73 C -0.5224(3) 0.16109(16) 0.74312(11)
C74 C -0.5004(3) -0.12881(16) 0.80345(11)
C75 C -0.5821(3) 0.10017(16) 0.76412(11)
C76 C -0.1076(3) -0.17334(15) 0.82149(11)
C77 C -0.4618(3) 0.15338(16) 0.70262(11)
C78 C -0.3446(3) 0.19219(16) 0.69525(11)
C79 C -0.5779(3) 0.3074(2) 0.90012(13)
H1 H -0.6724 0.3099 0.9004
H2 H -0.5442 0.3546 0.9069
C80 C -0.5318(4) 0.2574(2) 0.93583(12)
C81 C -0.6128(4) 0.2024(3) 0.94964(15)
H3 H -0.6967 0.1991 0.9371
C82 C -0.4519(6) 0.1586(4) 1.00153(18)
H4 H -0.4263 0.1265 1.0239
C83 C -0.4092(4) 0.2616(3) 0.95520(16)
H5 H -0.3521 0.2972 0.9463
C84 C -0.3684(5) 0.2115(4) 0.98904(18)
H6 H -0.2856 0.2150 1.0025
C85 C -0.5731(5) 0.1528(4) 0.98120(18)
H7 H -0.6282 0.1155 0.9887
loop_
_geom_bond_atom_site_label_1
_geom_bond_atom_site_label_2
_geom_bond_site_symmetry_1
_geom_bond_site_symmetry_2
Cl1 C1 1_555 1_555
Cl2 C6 1_555 1_555
Cl3 C53 1_555 1_555
Cl4 C27 1_555 1_555
Cl5 C7 1_555 1_555
Cl6 C14 1_555 1_555
Cl7 C25 1_555 1_555
O1 O2 1_555 1_555
O2 C79 1_555 1_555
C1 C26 1_555 1_555
C2 C3 1_555 1_555
C3 C10 1_555 1_555
C4 C6 1_555 1_555
C5 C17 1_555 1_555
C6 C32 1_555 1_555
C7 C13 1_555 1_555
C8 C24 1_555 1_555
C9 C49 1_555 1_555
C10 C44 1_555 1_555
C11 C19 1_555 1_555
C12 C4 1_555 1_555
C13 C21 1_555 1_555
C14 C2 1_555 1_555
C15 C42 1_555 1_555
C16 C7 1_555 1_555
C17 C40 1_555 1_555
C18 C50 1_555 1_555
C19 C36 1_555 1_555
C20 C12 1_555 1_555
C21 C30 1_555 1_555
C22 C36 1_555 1_555
C23 C3 1_555 1_555
C24 O1 1_555 1_555
C25 C27 1_555 1_555
C26 C4 1_555 1_555
C27 C14 1_555 1_555
C28 C2 1_555 1_555
C29 C1 1_555 1_555
C30 C43 1_555 1_555
C31 C23 1_555 1_555
C32 C29 1_555 1_555
C33 C36 1_555 1_555
C34 C64 1_555 1_555
C35 C14 1_555 1_555
C37 C1 1_555 1_555
C38 C24 1_555 1_555
C39 C6 1_555 1_555
C40 C48 1_555 1_555
C41 C42 1_555 1_555
C42 C58 1_555 1_555
C43 C24 1_555 1_555
C44 C27 1_555 1_555
C45 C33 1_555 1_555
C46 C10 1_555 1_555
C47 C5 1_555 1_555
C48 C66 1_555 1_555
C49 C15 1_555 1_555
C50 C16 1_555 1_555
C51 C56 1_555 1_555
C52 C22 1_555 1_555
C53 C25 1_555 1_555
C54 C9 1_555 1_555
C55 C33 1_555 1_555
C56 C15 1_555 1_555
C57 C41 1_555 1_555
C58 C54 1_555 1_555
C59 C17 1_555 1_555
C60 C54 1_555 1_555
C61 C25 1_555 1_555
C62 C12 1_555 1_555
C63 C23 1_555 1_555
C64 C52 1_555 1_555
C65 C22 1_555 1_555
C66 C38 1_555 1_555
C67 C30 1_555 1_555
C68 C26 1_555 1_555
C69 C34 1_555 1_555
C70 C5 1_555 1_555
C71 C19 1_555 1_555
C72 C11 1_555 1_555
C73 C8 1_555 1_555
C74 C40 1_555 1_555
C75 C34 1_555 1_555
C76 C11 1_555 1_555
C77 C60 1_555 1_555
C78 C9 1_555 1_555
C79 H1 1_555 1_555
H2 C79 1_555 1_555
C80 C79 1_555 1_555
C81 C80 1_555 1_555
H3 C81 1_555 1_555
C82 H4 1_555 1_555
C83 C80 1_555 1_555
H5 C83 1_555 1_555
C84 C82 1_555 1_555
H6 C84 1_555 1_555
C85 C81 1_555 1_555
H7 C85 1_555 1_555
C7 C28 1_555 1_555
C8 C39 1_555 1_555
C13 C29 1_555 1_555
C16 C35 1_555 1_555
C18 C59 1_555 1_555
C18 C70 1_555 1_555
C20 C39 1_555 1_555
C20 C78 1_555 1_555
C21 C50 1_555 1_555
C28 C37 1_555 1_555
C31 C37 1_555 1_555
C31 C68 1_555 1_555
C32 C43 1_555 1_555
C35 C61 1_555 1_555
C38 C75 1_555 1_555
C41 C45 1_555 1_555
C44 C76 1_555 1_555
C45 C72 1_555 1_555
C46 C57 1_555 1_555
C46 C72 1_555 1_555
C47 C53 1_555 1_555
C47 C71 1_555 1_555
C48 C69 1_555 1_555
C49 C62 1_555 1_555
C51 C62 1_555 1_555
C51 C68 1_555 1_555
C52 C55 1_555 1_555
C53 C76 1_555 1_555
C55 C58 1_555 1_555
C56 C63 1_555 1_555
C57 C63 1_555 1_555
C59 C67 1_555 1_555
C60 C64 1_555 1_555
C61 C70 1_555 1_555
C65 C69 1_555 1_555
C65 C74 1_555 1_555
C66 C67 1_555 1_555
C71 C74 1_555 1_555
C73 C75 1_555 1_555
C73 C77 1_555 1_555
C77 C78 1_555 1_555
C82 C85 1_555 1_555
C83 C84 1_555 1_555

#END
