
#######################################################################
#
#                 Cambridge Crystallographic Data Centre
#                                CCDC 
#
#######################################################################
#
# If this CIF has been generated from an entry in the Cambridge 
# Structural Database, then it will include bibliographic, chemical, 
# crystal, experimental, refinement or atomic coordinate data resulting 
# from the CCDC's data processing and validation procedures.
#
#######################################################################

data_TUZYEU
_chemical_formula_moiety         'C13 H8 F1 N3 O2'
_chemical_name_systematic        
6-fluoro-3-nitro-2-phenylimidazo[1,2-a]pyridine
_symmetry_cell_setting           triclinic
_symmetry_space_group_name_H-M   'P -1'
_symmetry_Int_Tables_number      2
_space_group_name_Hall           '-P 1'
loop_
_symmetry_equiv_pos_site_id
_symmetry_equiv_pos_as_xyz
1 x,y,z
2 -x,-y,-z
_cell_length_a                   7.5482(7)
_cell_length_b                   12.4269(11)
_cell_length_c                   12.7715(12)
_cell_angle_alpha                89.301(2)
_cell_angle_beta                 73.5930(10)
_cell_angle_gamma                84.562(2)
_cell_volume                     1143.89
_exptl_crystal_colour            yellow
_cell_formula_units_Z            4
loop_
_atom_site_label
_atom_site_type_symbol
_atom_site_fract_x
_atom_site_fract_y
_atom_site_fract_z
C1 C 0.2775(2) -0.02854(12) 0.49610(14)
C2 C 0.2071(2) 0.00760(12) 0.66881(13)
C3 C 0.1343(2) 0.09605(11) 0.61988(13)
C4 C 0.1493(2) 0.12906(13) 0.42097(14)
H1 H 0.0825 0.1968 0.4296
C5 C 0.2193(2) 0.08123(15) 0.32210(15)
C6 C 0.3164(2) -0.02153(15) 0.30523(15)
H2 H 0.3605 -0.0519 0.2354
C7 C 0.3451(2) -0.07596(14) 0.39197(15)
H3 H 0.4093 -0.1444 0.3826
C8 C 0.2094(2) -0.01309(12) 0.78166(14)
C9 C 0.1995(2) -0.11903(14) 0.81856(15)
H4 H 0.1821 -0.1730 0.7737
C10 C 0.2154(3) -0.14413(17) 0.92070(18)
H5 H 0.2074 -0.2149 0.9449
C11 C 0.2430(3) -0.0652(2) 0.98758(18)
H6 H 0.2546 -0.0826 1.0565
C12 C 0.2534(3) 0.03940(18) 0.95217(16)
H7 H 0.2729 0.0926 0.9971
C13 C 0.2352(2) 0.06592(14) 0.85091(15)
H8 H 0.2401 0.1373 0.8283
F1 F 0.19413(17) 0.13606(10) 0.23537(9)
N1 N 0.29394(17) -0.06719(10) 0.59136(11)
N2 N 0.18077(16) 0.07329(9) 0.50870(11)
N3 N 0.01781(18) 0.18843(10) 0.66648(13)
O1 O -0.01917(19) 0.25862(10) 0.60523(12)
O2 O -0.04486(19) 0.19433(11) 0.76602(11)
C14 C 0.3892(2) 0.35368(12) 0.50034(14)
C15 C 0.3185(2) 0.39356(12) 0.67172(14)
C16 C 0.2406(2) 0.47883(12) 0.62208(14)
C17 C 0.2379(2) 0.50211(13) 0.42452(15)
H9 H 0.1671 0.5685 0.4323
C18 C 0.3000(2) 0.45000(15) 0.32746(16)
C19 C 0.4120(2) 0.35183(14) 0.31076(15)
H10 H 0.4555 0.3199 0.2416
C20 C 0.4557(2) 0.30423(14) 0.39732(15)
H11 H 0.5297 0.2389 0.3882
C21 C 0.3120(3) 0.37574(13) 0.78593(15)
C22 C 0.4722(3) 0.33284(15) 0.81001(19)
H12 H 0.5815 0.3190 0.7540
C23 C 0.4707(5) 0.3108(2) 0.9148(3)
H13 H 0.5794 0.2837 0.9304
C24 C 0.3069(7) 0.3289(2) 0.9984(3)
H14 H 0.3063 0.3139 1.0700
C25 C 0.1439(5) 0.36902(19) 0.9758(2)
H15 H 0.0338 0.3798 1.0317
C26 C 0.1470(3) 0.39287(15) 0.86938(17)
H16 H 0.0387 0.4204 0.8535
F2 F 0.24974(17) 0.49447(10) 0.24261(10)
N4 N 0.40970(18) 0.31862(10) 0.59569(12)
N5 N 0.28333(16) 0.45319(10) 0.51148(11)
N6 N 0.15487(19) 0.58104(10) 0.66406(13)
O3 O 0.1036(2) 0.64486(10) 0.60202(13)
O4 O 0.1392(2) 0.60247(10) 0.75975(12)
loop_
_geom_bond_atom_site_label_1
_geom_bond_atom_site_label_2
_geom_bond_site_symmetry_1
_geom_bond_site_symmetry_2
C1 C7 1_555 1_555
C2 C3 1_555 1_555
C3 N2 1_555 1_555
C4 H1 1_555 1_555
C5 C4 1_555 1_555
C6 C5 1_555 1_555
H2 C6 1_555 1_555
C7 C6 1_555 1_555
H3 C7 1_555 1_555
C8 C2 1_555 1_555
C9 C8 1_555 1_555
H4 C9 1_555 1_555
C10 C9 1_555 1_555
H5 C10 1_555 1_555
C11 C10 1_555 1_555
H6 C11 1_555 1_555
C12 C11 1_555 1_555
H7 C12 1_555 1_555
C13 C8 1_555 1_555
H8 C13 1_555 1_555
F1 C5 1_555 1_555
N1 C1 1_555 1_555
N2 C1 1_555 1_555
N3 C3 1_555 1_555
O1 N3 1_555 1_555
O2 N3 1_555 1_555
C14 C20 1_555 1_555
C15 C16 1_555 1_555
C16 N5 1_555 1_555
C17 H9 1_555 1_555
C18 C17 1_555 1_555
C19 C18 1_555 1_555
H10 C19 1_555 1_555
C20 C19 1_555 1_555
H11 C20 1_555 1_555
C21 C15 1_555 1_555
C22 C21 1_555 1_555
H12 C22 1_555 1_555
C23 C22 1_555 1_555
H13 C23 1_555 1_555
C24 C23 1_555 1_555
H14 C24 1_555 1_555
C25 C24 1_555 1_555
H15 C25 1_555 1_555
C26 C21 1_555 1_555
H16 C26 1_555 1_555
F2 C18 1_555 1_555
N4 C14 1_555 1_555
N5 C14 1_555 1_555
N6 C16 1_555 1_555
O3 N6 1_555 1_555
O4 N6 1_555 1_555
C2 N1 1_555 1_555
C4 N2 1_555 1_555
C12 C13 1_555 1_555
C15 N4 1_555 1_555
C17 N5 1_555 1_555
C25 C26 1_555 1_555

#END
