
#######################################################################
#
#                 Cambridge Crystallographic Data Centre
#                                CCDC 
#
#######################################################################
#
# If this CIF has been generated from an entry in the Cambridge 
# Structural Database, then it will include bibliographic, chemical, 
# crystal, experimental, refinement or atomic coordinate data resulting 
# from the CCDC's data processing and validation procedures.
#
#######################################################################

data_TUZZAP
_chemical_formula_moiety         'C16 H14 O2 S10,C16 H14 O2 S10 1+,F6 P1 1-'
_chemical_name_systematic        
'bis(2-[4,5-bis(ethylthio)-1,3-dithiol-2-ylidene]-5-(4,5-ethylenedithio-1,3-dithiol-2-ylidene)-1,3,4,6-tetrathiapentalene) hexafluorophosphate'
_symmetry_cell_setting           monoclinic
_symmetry_space_group_name_H-M   'C 2/c'
_symmetry_Int_Tables_number      15
_space_group_name_Hall           '-C 2yn'
loop_
_symmetry_equiv_pos_site_id
_symmetry_equiv_pos_as_xyz
1 x,y,z
2 -x,y,1/2-z
3 1/2+x,1/2+y,z
4 1/2-x,1/2+y,1/2-z
5 -x,-y,-z
6 x,-y,1/2+z
7 1/2-x,1/2-y,-z
8 1/2+x,1/2-y,1/2+z
_cell_length_a                   24.63(1)
_cell_length_b                   5.715(5)
_cell_length_c                   34.50(2)
_cell_angle_alpha                90
_cell_angle_beta                 102.93(4)
_cell_angle_gamma                90
_cell_volume                     4733.1
_exptl_crystal_colour            black
_exptl_crystal_description       needle
_cell_formula_units_Z            4
loop_
_atom_site_label
_atom_site_type_symbol
_atom_site_fract_x
_atom_site_fract_y
_atom_site_fract_z
P1 P 0.0000 0.493(2) 0.2500
F1 F 0.006(1) 0.508(5) 0.2963(7)
F2 F -0.044(1) 0.692(6) 0.2438(9)
F3 F -0.041(2) 0.28(1) 0.247(2)
F1A F -0.006(1) 0.508(5) 0.2037(7)
F2A F 0.044(1) 0.692(6) 0.2562(9)
F3A F 0.041(2) 0.28(1) 0.253(2)
S1 S 0.2694(3) -0.122(2) 0.6495(3)
S2 S 0.1400(3) -0.114(2) 0.6650(3)
S3 S 0.2325(3) 0.273(2) 0.5939(3)
S4 S 0.1193(4) 0.292(1) 0.6081(3)
S5 S 0.2055(3) 0.737(2) 0.5345(4)
S6 S 0.0893(3) 0.746(2) 0.5506(3)
S7 S 0.1764(3) 1.159(2) 0.4814(3)
S8 S 0.0621(3) 1.172(2) 0.4973(3)
S9 S 0.1441(3) 1.601(2) 0.4228(3)
S10 S 0.0324(3) 1.612(2) 0.4400(3)
O1 O 0.1094(8) 1.909(5) 0.3656(7)
O2 O 0.0059(6) 1.944(4) 0.3849(7)
C1 C 0.304(4) 0.266(9) 0.700(1)
C2 C 0.156(1) 0.257(6) 0.719(2)
C3 C 0.327(1) 0.091(8) 0.672(1)
C4 C 0.118(2) 0.078(7) 0.6981(7)
C5 C 0.217(1) 0.081(3) 0.6280(5)
C6 C 0.166(1) 0.089(5) 0.6323(9)
C7 C 0.1691(8) 0.437(6) 0.5858(6)
C8 C 0.158(1) 0.597(7) 0.5609(7)
C9 C 0.159(1) 0.948(7) 0.512(1)
C10 C 0.103(2) 0.93(1) 0.518(1)
C11 C 0.101(2) 1.300(6) 0.466(1)
C12 C 0.096(1) 1.479(4) 0.450(1)
C13 C 0.095(1) 1.775(7) 0.393(1)
C14 C 0.037(1) 1.765(8) 0.403(2)
C15 C 0.061(1) 2.012(9) 0.337(1)
C16 C 0.017(1) 2.144(7) 0.359(1)
H1 H 0.3155 0.1970 0.7275
H2 H 0.2684 0.2881 0.6931
H3 H 0.3267 0.4068 0.7018
H4 H 0.1564 0.2537 0.7480
H5 H 0.1444 0.4058 0.7098
H6 H 0.1924 0.2232 0.7166
H7 H 0.3587 -0.0019 0.6853
H8 H 0.3377 0.1716 0.6505
H9 H 0.1052 -0.0274 0.7187
H10 H 0.0828 0.1483 0.6846
H11 H 0.0749 2.1146 0.3190
H12 H 0.0421 1.8835 0.3199
H13 H -0.0166 2.1950 0.3398
H14 H 0.0331 2.2789 0.3730
loop_
_geom_bond_atom_site_label_1
_geom_bond_atom_site_label_2
_geom_bond_site_symmetry_1
_geom_bond_site_symmetry_2
S1 C3 1_555 1_555
S2 C4 1_555 1_555
S3 C5 1_555 1_555
S4 C6 1_555 1_555
S5 C8 1_555 1_555
S6 C8 1_555 1_555
S7 C9 1_555 1_555
S8 C10 1_555 1_555
S9 C12 1_555 1_555
S10 C12 1_555 1_555
P1 F1 1_555 1_555
F2 P1 1_555 1_555
F3 P1 1_555 1_555
O1 C13 1_555 1_555
O2 C14 1_555 1_555
C1 C3 1_555 1_555
C2 C4 1_555 1_555
C3 H7 1_555 1_555
C4 H9 1_555 1_555
C5 S1 1_555 1_555
C6 S2 1_555 1_555
C7 S3 1_555 1_555
C8 C7 1_555 1_555
C9 S5 1_555 1_555
C10 S6 1_555 1_555
C11 S7 1_555 1_555
C12 C11 1_555 1_555
C13 S9 1_555 1_555
C14 S10 1_555 1_555
C15 O1 1_555 1_555
C16 O2 1_555 1_555
H1 C1 1_555 1_555
H2 C1 1_555 1_555
H3 C1 1_555 1_555
H4 C2 1_555 1_555
H5 C2 1_555 1_555
H6 C2 1_555 1_555
H8 C3 1_555 1_555
H10 C4 1_555 1_555
H11 C15 1_555 1_555
H12 C15 1_555 1_555
H13 C16 1_555 1_555
H14 C16 1_555 1_555
F1A P1 1_555 1_555
F2A P1 1_555 1_555
F3A P1 1_555 1_555
S4 C7 1_555 1_555
S8 C11 1_555 1_555
C5 C6 1_555 1_555
C9 C10 1_555 1_555
C13 C14 1_555 1_555
C15 C16 1_555 1_555

#END
