
#######################################################################
#
#                 Cambridge Crystallographic Data Centre
#                                CCDC 
#
#######################################################################
#
# If this CIF has been generated from an entry in the Cambridge 
# Structural Database, then it will include bibliographic, chemical, 
# crystal, experimental, refinement or atomic coordinate data resulting 
# from the CCDC's data processing and validation procedures.
#
#######################################################################

data_UBANAP
_chemical_formula_moiety         'C24 H24 N2 O5'
_chemical_name_systematic        
2-butyl-5-((2-butyl-1,3-dioxo-2,3-dihydro-1H-isoindol-5-yl)oxy)-1H-isoindole-1,3(2H)-dione
_symmetry_cell_setting           monoclinic
_symmetry_space_group_name_H-M   'C 2/c'
_symmetry_Int_Tables_number      15
_space_group_name_Hall           '-C 2yn'
loop_
_symmetry_equiv_pos_site_id
_symmetry_equiv_pos_as_xyz
1 x,y,z
2 -x,y,1/2-z
3 1/2+x,1/2+y,z
4 1/2-x,1/2+y,1/2-z
5 -x,-y,-z
6 x,-y,1/2+z
7 1/2-x,1/2-y,-z
8 1/2+x,1/2-y,1/2+z
_cell_length_a                   16.4774(10)
_cell_length_b                   5.1561(4)
_cell_length_c                   24.8530(16)
_cell_angle_alpha                90
_cell_angle_beta                 92.793(4)
_cell_angle_gamma                90
_cell_volume                     2108.98
_exptl_crystal_colour            colorless
_exptl_crystal_description       block
_cell_formula_units_Z            4
_exptl_crystal_recrystallization_method 'Chloroform/ n-Hexane'
_exptl_crystal_preparation       Luminescent
loop_
_atom_site_label
_atom_site_type_symbol
_atom_site_fract_x
_atom_site_fract_y
_atom_site_fract_z
C1 C 0.3877(3) 0.2068(8) 0.52561(15)
H1 H 0.3570 0.2476 0.5563
H2 H 0.3751 0.0336 0.5138
H3 H 0.4447 0.2192 0.5353
C2 C 0.3659(2) 0.3986(8) 0.47997(14)
H4 H 0.3080 0.3878 0.4712
H5 H 0.3775 0.5732 0.4927
C3 C 0.40996(18) 0.3527(7) 0.43066(13)
H6 H 0.3988 0.1774 0.4182
H7 H 0.4678 0.3652 0.4394
C4 C 0.38778(15) 0.5417(6) 0.38489(12)
H8 H 0.3957 0.7178 0.3978
H9 H 0.4241 0.5142 0.3559
C5 C 0.23931(15) 0.6730(5) 0.37704(10)
C6 C 0.16708(14) 0.5691(5) 0.34645(9)
C7 C 0.08726(15) 0.6534(5) 0.34461(10)
H10 H 0.0716 0.7948 0.3649
C8 C 0.03179(15) 0.5206(6) 0.31170(11)
H11 H -0.0223 0.5729 0.3095
C9 C 0.05614(14) 0.3085(5) 0.28172(10)
C10 C 0.13568(15) 0.2214(5) 0.28405(10)
H12 H 0.1514 0.0783 0.2643
C11 C 0.19030(14) 0.3561(5) 0.31691(9)
C12 C 0.27940(14) 0.3199(5) 0.32774(9)
N1 N 0.30380(12) 0.5116(4) 0.36393(8)
O1 O 0.0000 0.1687(5) 0.2500
O2 O 0.24522(13) 0.8562(4) 0.40705(8)
O3 O 0.32366(11) 0.1606(4) 0.30838(8)
C1A C -0.3877(3) 0.2068(8) -0.02561(15)
H1A H -0.3570 0.2476 -0.0563
H2A H -0.3751 0.0336 -0.0138
H3A H -0.4447 0.2192 -0.0353
C2A C -0.3659(2) 0.3986(8) 0.02003(14)
H4A H -0.3080 0.3878 0.0288
H5A H -0.3775 0.5732 0.0073
C3A C -0.40996(18) 0.3527(7) 0.06934(13)
H6A H -0.3988 0.1774 0.0818
H7A H -0.4678 0.3652 0.0606
C4A C -0.38778(15) 0.5417(6) 0.11511(12)
H8A H -0.3957 0.7178 0.1022
H9A H -0.4241 0.5142 0.1441
C5A C -0.23931(15) 0.6730(5) 0.12296(10)
C6A C -0.16708(14) 0.5691(5) 0.15355(9)
C7A C -0.08726(15) 0.6534(5) 0.15539(10)
H10A H -0.0716 0.7948 0.1351
C8A C -0.03179(15) 0.5206(6) 0.18830(11)
H11A H 0.0223 0.5729 0.1905
C9A C -0.05614(14) 0.3085(5) 0.21828(10)
C10A C -0.13568(15) 0.2214(5) 0.21595(10)
H12A H -0.1514 0.0783 0.2357
C11A C -0.19030(14) 0.3561(5) 0.18309(9)
C12A C -0.27940(14) 0.3199(5) 0.17226(9)
N1A N -0.30380(12) 0.5116(4) 0.13607(8)
O2A O -0.24522(13) 0.8562(4) 0.09295(8)
O3A O -0.32366(11) 0.1606(4) 0.19162(8)
loop_
_geom_bond_atom_site_label_1
_geom_bond_atom_site_label_2
_geom_bond_site_symmetry_1
_geom_bond_site_symmetry_2
C1 H1 1_555 1_555
H2 C1 1_555 1_555
H3 C1 1_555 1_555
C2 C1 1_555 1_555
H4 C2 1_555 1_555
H5 C2 1_555 1_555
C3 C2 1_555 1_555
H6 C3 1_555 1_555
H7 C3 1_555 1_555
C4 C3 1_555 1_555
H8 C4 1_555 1_555
H9 C4 1_555 1_555
C5 C6 1_555 1_555
C6 C7 1_555 1_555
C7 H10 1_555 1_555
C8 C7 1_555 1_555
H11 C8 1_555 1_555
C9 C8 1_555 1_555
C10 C9 1_555 1_555
H12 C10 1_555 1_555
C11 C6 1_555 1_555
C12 C11 1_555 1_555
N1 C4 1_555 1_555
O1 C9 1_555 1_555
O2 C5 1_555 1_555
O3 C12 1_555 1_555
C1A H1A 1_555 1_555
H2A C1A 1_555 1_555
H3A C1A 1_555 1_555
C2A C1A 1_555 1_555
H4A C2A 1_555 1_555
H5A C2A 1_555 1_555
C3A C2A 1_555 1_555
H6A C3A 1_555 1_555
H7A C3A 1_555 1_555
C4A C3A 1_555 1_555
H8A C4A 1_555 1_555
H9A C4A 1_555 1_555
C5A C6A 1_555 1_555
C6A C7A 1_555 1_555
C7A H10A 1_555 1_555
C8A C7A 1_555 1_555
H11A C8A 1_555 1_555
C9A O1 1_555 1_555
C10A C9A 1_555 1_555
H12A C10A 1_555 1_555
C11A C6A 1_555 1_555
C12A C11A 1_555 1_555
N1A C4A 1_555 1_555
O2A C5A 1_555 1_555
O3A C12A 1_555 1_555
C5 N1 1_555 1_555
C10 C11 1_555 1_555
C12 N1 1_555 1_555
C5A N1A 1_555 1_555
C8A C9A 1_555 1_555
C10A C11A 1_555 1_555
C12A N1A 1_555 1_555

#END
