
#######################################################################
#
#                 Cambridge Crystallographic Data Centre
#                                CCDC 
#
#######################################################################
#
# If this CIF has been generated from an entry in the Cambridge 
# Structural Database, then it will include bibliographic, chemical, 
# crystal, experimental, refinement or atomic coordinate data resulting 
# from the CCDC's data processing and validation procedures.
#
#######################################################################

data_UBAVAX
_chemical_formula_moiety         'C26 H24 N2 O5'
_chemical_name_systematic        
2-cyclopentyl-5-((2-cyclopentyl-1,3-dioxo-2,3-dihydro-1H-isoindol-5-yl)oxy)-1H-isoindole-1,3(2H)-dione
_symmetry_cell_setting           monoclinic
_symmetry_space_group_name_H-M   'C 2/c'
_symmetry_Int_Tables_number      15
_space_group_name_Hall           '-C 2yn'
loop_
_symmetry_equiv_pos_site_id
_symmetry_equiv_pos_as_xyz
1 x,y,z
2 -x,y,1/2-z
3 1/2+x,1/2+y,z
4 1/2-x,1/2+y,1/2-z
5 -x,-y,-z
6 x,-y,1/2+z
7 1/2-x,1/2-y,-z
8 1/2+x,1/2-y,1/2+z
_cell_length_a                   43.491(5)
_cell_length_b                   5.2413(5)
_cell_length_c                   19.472(2)
_cell_angle_alpha                90
_cell_angle_beta                 104.452(4)
_cell_angle_gamma                90
_cell_volume                     4298.18
_exptl_crystal_colour            colorless
_exptl_crystal_description       rectangular
_cell_formula_units_Z            8
loop_
_atom_site_label
_atom_site_type_symbol
_atom_site_fract_x
_atom_site_fract_y
_atom_site_fract_z
C1 C 0.93018(6) 0.5862(5) 0.75556(14)
C2 C 0.90343(6) 0.7020(5) 0.76682(13)
H1 H 0.9047 0.8438 0.7961
C3 C 0.87479(6) 0.5964(5) 0.73236(13)
C4 C 0.87277(6) 0.3840(5) 0.68968(13)
C5 C 0.89966(7) 0.2664(5) 0.67980(14)
H2 H 0.8983 0.1222 0.6514
C6 C 0.92865(6) 0.3707(5) 0.71367(14)
H3 H 0.9473 0.2956 0.7083
C7 C 0.84185(6) 0.6788(5) 0.73270(14)
C8 C 0.83842(6) 0.3270(5) 0.65989(14)
C9 C 0.78707(6) 0.5351(5) 0.67091(16)
H4 H 0.7824 0.6880 0.6954
C10 C 0.77090(7) 0.5683(7) 0.59285(18)
H5 H 0.7703 0.7467 0.5793
H6 H 0.7818 0.4722 0.5635
C11 C 0.73854(9) 0.4679(12) 0.5860(2)
H7 H 0.7239 0.6083 0.5851
H8 H 0.7317 0.3738 0.5420
C12 C 0.73832(9) 0.3005(8) 0.6458(2)
H9 H 0.7336 0.1269 0.6292
H10 H 0.7222 0.3555 0.6690
C13 C 0.77052(7) 0.3121(6) 0.69683(18)
H11 H 0.7821 0.1546 0.6959
H12 H 0.7687 0.3418 0.7448
C14 C 0.98128(6) 0.5828(4) 0.83857(13)
C15 C 0.97400(6) 0.3676(5) 0.87275(13)
H13 H 0.9540 0.2940 0.8584
C16 C 0.99675(6) 0.2624(4) 0.92846(14)
H14 H 0.9921 0.1188 0.9521
C17 C 1.02625(5) 0.3743(4) 0.94805(13)
C18 C 1.03311(5) 0.5873(4) 0.91268(13)
C19 C 1.01102(6) 0.6962(4) 0.85750(13)
H15 H 1.0158 0.8395 0.8339
C20 C 1.05464(5) 0.3115(5) 1.00526(13)
C21 C 1.06651(6) 0.6633(5) 0.94523(13)
C22 C 1.11036(6) 0.4824(5) 1.04528(14)
H16 H 1.1115 0.3405 1.0786
C23 C 1.12116(6) 0.7232(5) 1.08913(15)
H17 H 1.1116 0.8744 1.0639
H18 H 1.1156 0.7149 1.1343
C24 C 1.15679(8) 0.7245(8) 1.0995(3)
C25 C 1.1620(3) 0.631(3) 1.0320(7)
H19 H 1.1828 0.5518 1.0395
H20 H 1.1606 0.7697 0.9985
C26 C 1.13588(7) 0.4360(7) 1.0047(2)
N1 N 0.82161(5) 0.5113(4) 0.68710(12)
N2 N 1.07795(4) 0.4912(4) 1.00047(11)
O1 O 0.95939(4) 0.7040(3) 0.78461(10)
O2 O 0.82709(5) 0.1568(4) 0.61956(11)
O3 O 0.83383(5) 0.8521(4) 0.76462(11)
O4 O 1.05803(4) 0.1454(3) 1.04952(10)
O5 O 1.08131(4) 0.8366(4) 0.92790(10)
H21 H 1.1388(9) 0.260(3) 0.994(2)
H22 H 1.1665(9) 0.892(4) 1.110(2)
H23 H 1.1291(7) 0.503(5) 0.9570(10)
H24 H 1.1677(12) 0.648(11) 1.1450(18)
C27? C 1.1647(3) 0.510(5) 1.0569(12)
H25? H 1.1808 0.5625 1.0333
H26? H 1.1728 0.3664 1.0876
loop_
_geom_bond_atom_site_label_1
_geom_bond_atom_site_label_2
_geom_bond_site_symmetry_1
_geom_bond_site_symmetry_2
C1 C2 1_555 1_555
C2 H1 1_555 1_555
C3 C2 1_555 1_555
C4 C3 1_555 1_555
C5 C4 1_555 1_555
H2 C5 1_555 1_555
C6 C1 1_555 1_555
H3 C6 1_555 1_555
C7 C3 1_555 1_555
C8 C4 1_555 1_555
C9 H4 1_555 1_555
C10 C9 1_555 1_555
H5 C10 1_555 1_555
H6 C10 1_555 1_555
C11 C10 1_555 1_555
H7 C11 1_555 1_555
H8 C11 1_555 1_555
C12 C11 1_555 1_555
H9 C12 1_555 1_555
H10 C12 1_555 1_555
C13 C9 1_555 1_555
H11 C13 1_555 1_555
H12 C13 1_555 1_555
C14 C15 1_555 1_555
C15 H13 1_555 1_555
C16 C15 1_555 1_555
H14 C16 1_555 1_555
C17 C16 1_555 1_555
C18 C17 1_555 1_555
C19 C14 1_555 1_555
H15 C19 1_555 1_555
C20 C17 1_555 1_555
C21 C18 1_555 1_555
C22 H16 1_555 1_555
C23 C22 1_555 1_555
H17 C23 1_555 1_555
H18 C23 1_555 1_555
C24 C23 1_555 1_555
C25 C24 1_555 1_555
H19 C25 1_555 1_555
H20 C25 1_555 1_555
C26 C22 1_555 1_555
N1 C7 1_555 1_555
N2 C20 1_555 1_555
O1 C1 1_555 1_555
O2 C8 1_555 1_555
O3 C7 1_555 1_555
O4 C20 1_555 1_555
O5 C21 1_555 1_555
H21 C26 1_555 1_555
H22 C24 1_555 1_555
H23 C26 1_555 1_555
H24 C24 1_555 1_555
C5 C6 1_555 1_555
C8 N1 1_555 1_555
C9 N1 1_555 1_555
C12 C13 1_555 1_555
C14 O1 1_555 1_555
C18 C19 1_555 1_555
C21 N2 1_555 1_555
C22 N2 1_555 1_555
C25 C26 1_555 1_555

#END
