
#######################################################################
#
#                 Cambridge Crystallographic Data Centre
#                                CCDC 
#
#######################################################################
#
# If this CIF has been generated from an entry in the Cambridge 
# Structural Database, then it will include bibliographic, chemical, 
# crystal, experimental, refinement or atomic coordinate data resulting 
# from the CCDC's data processing and validation procedures.
#
#######################################################################

data_UBAXAY
_chemical_formula_moiety         'C30 H25 N1 O2,C1 H1 Cl3'
_chemical_name_systematic        
"6'-t-Butyl-4'-phenylspiro[benzo[g]indole-3,2'-chromen]-2(1H)-one chloroform solvate"
_symmetry_cell_setting           triclinic
_symmetry_space_group_name_H-M   'P -1'
_symmetry_Int_Tables_number      2
_space_group_name_Hall           '-P 1'
loop_
_symmetry_equiv_pos_site_id
_symmetry_equiv_pos_as_xyz
1 x,y,z
2 -x,-y,-z
_cell_length_a                   9.6388(19)
_cell_length_b                   11.025(2)
_cell_length_c                   13.920(3)
_cell_angle_alpha                71.05(3)
_cell_angle_beta                 83.08(3)
_cell_angle_gamma                89.81(3)
_cell_volume                     1387.87
_exptl_crystal_colour            colorless
_exptl_crystal_description       platelet
_cell_formula_units_Z            2
loop_
_atom_site_label
_atom_site_type_symbol
_atom_site_fract_x
_atom_site_fract_y
_atom_site_fract_z
O1 O 0.6232(4) 0.1235(3) 0.4045(3)
O2 O 0.9032(3) 0.1597(3) 0.4462(3)
N1 N 0.5943(4) 0.0558(3) 0.5804(3)
H1 H 0.5175 0.0109 0.5924
C1 C 0.7853(4) 0.1992(4) 0.4999(3)
C2 C 0.7625(4) 0.3399(4) 0.4566(3)
H2 H 0.6754 0.3697 0.4728
C3 C 0.8602(4) 0.4248(4) 0.3960(3)
C4 C 0.8277(4) 0.5614(4) 0.3532(3)
C5 C 0.7695(5) 0.6275(5) 0.4164(4)
H3 H 0.7579 0.5869 0.4869
C6 C 0.7285(6) 0.7519(6) 0.3773(6)
H4 H 0.6903 0.7949 0.4211
C7 C 0.7444(6) 0.8118(6) 0.2735(8)
H5 H 0.7135 0.8945 0.2464
C8 C 0.8061(6) 0.7493(6) 0.2094(5)
H6 H 0.8204 0.7912 0.1391
C9 C 0.8473(5) 0.6240(4) 0.2493(4)
H7 H 0.8884 0.5821 0.2056
C10 C 0.9983(4) 0.3774(4) 0.3705(3)
C11 C 1.1158(4) 0.4557(4) 0.3207(3)
H8 H 1.1081 0.5442 0.3024
C12 C 1.2443(5) 0.4071(4) 0.2973(3)
C13 C 1.2518(5) 0.2750(5) 0.3277(4)
H9 H 1.3359 0.2392 0.3130
C14 C 1.1388(5) 0.1955(5) 0.3790(4)
H10 H 1.1477 0.1070 0.4002
C15 C 1.0132(4) 0.2454(4) 0.3992(3)
C16 C 1.3696(5) 0.4975(5) 0.2392(4)
C17 C 1.4889(19) 0.451(3) 0.297(3)
H11 H 1.4734 0.4659 0.3616
H12 H 1.5732 0.4966 0.2584
H13 H 1.4977 0.3610 0.3083
C18 C 1.352(2) 0.6307(17) 0.231(3)
H14 H 1.3256 0.6366 0.2985
H15 H 1.2808 0.6655 0.1889
H16 H 1.4388 0.6784 0.2020
C19 C 1.408(3) 0.477(2) 0.1331(17)
H17 H 1.4854 0.5332 0.0950
H18 H 1.3287 0.4951 0.0956
H19 H 1.4325 0.3894 0.1438
C20 C 0.6575(5) 0.1218(4) 0.4861(4)
C21 C 0.6696(4) 0.0695(4) 0.6568(3)
C22 C 0.7846(4) 0.1491(4) 0.6133(3)
C23 C 0.8790(5) 0.1715(4) 0.6762(4)
H20 H 0.9568 0.2268 0.6480
C24 C 0.8544(5) 0.1112(5) 0.7775(4)
H21 H 0.9183 0.1242 0.8186
C25 C 0.7357(5) 0.0288(4) 0.8248(4)
C26 C 0.7098(5) -0.0346(5) 0.9299(4)
H22 H 0.7714 -0.0206 0.9720
C27 C 0.5973(6) -0.1164(5) 0.9728(4)
H23 H 0.5839 -0.1586 1.0431
C28 C 0.5021(5) -0.1370(5) 0.9112(4)
H24 H 0.4244 -0.1918 0.9412
C29 C 0.5208(5) -0.0791(4) 0.8095(4)
H25 H 0.4568 -0.0950 0.7697
C30 C 0.6385(4) 0.0068(4) 0.7620(3)
Cl1 Cl 1.9192(3) 0.1497(4) 0.0488(3)
Cl2 Cl 2.0890(4) 0.3377(4) 0.0783(4)
Cl3 Cl 1.8183(4) 0.2873(7) 0.1775(4)
C31 C 1.9579(9) 0.2313(11) 0.1310(7)
H26 H 1.9917 0.1668 0.1895
C32? C 1.3258(13) 0.5887(14) 0.1435(10)
C33? C 1.4953(14) 0.4291(15) 0.2127(13)
C34? C 1.4176(13) 0.5711(15) 0.3093(11)
H27? H 1.2767 0.6573 0.1591
H28? H 1.2654 0.5443 0.1149
H29? H 1.4070 0.6233 0.0950
H30? H 1.5490 0.4035 0.2693
H31? H 1.5518 0.4854 0.1536
H32? H 1.4658 0.3545 0.1982
H33? H 1.3507 0.5544 0.3695
H34? H 1.4242 0.6615 0.2725
H35? H 1.5074 0.5425 0.3289
loop_
_geom_bond_atom_site_label_1
_geom_bond_atom_site_label_2
_geom_bond_site_symmetry_1
_geom_bond_site_symmetry_2
O1 C20 1_555 1_555
O2 C1 1_555 1_555
N1 H1 1_555 1_555
C1 C2 1_555 1_555
C2 H2 1_555 1_555
C3 C2 1_555 1_555
C4 C3 1_555 1_555
C5 C4 1_555 1_555
H3 C5 1_555 1_555
C6 C5 1_555 1_555
H4 C6 1_555 1_555
C7 C6 1_555 1_555
H5 C7 1_555 1_555
C8 C7 1_555 1_555
H6 C8 1_555 1_555
C9 C4 1_555 1_555
H7 C9 1_555 1_555
C10 C3 1_555 1_555
C11 C10 1_555 1_555
H8 C11 1_555 1_555
C12 C11 1_555 1_555
C13 C12 1_555 1_555
H9 C13 1_555 1_555
C14 C13 1_555 1_555
H10 C14 1_555 1_555
C15 O2 1_555 1_555
C16 C12 1_555 1_555
C17 C16 1_555 1_555
H11 C17 1_555 1_555
H12 C17 1_555 1_555
H13 C17 1_555 1_555
C18 C16 1_555 1_555
H14 C18 1_555 1_555
H15 C18 1_555 1_555
H16 C18 1_555 1_555
C19 C16 1_555 1_555
H17 C19 1_555 1_555
H18 C19 1_555 1_555
H19 C19 1_555 1_555
C20 N1 1_555 1_555
C21 N1 1_555 1_555
C22 C1 1_555 1_555
C23 C22 1_555 1_555
H20 C23 1_555 1_555
C24 C23 1_555 1_555
H21 C24 1_555 1_555
C25 C24 1_555 1_555
C26 C25 1_555 1_555
H22 C26 1_555 1_555
C27 C26 1_555 1_555
H23 C27 1_555 1_555
C28 C27 1_555 1_555
H24 C28 1_555 1_555
C29 C28 1_555 1_555
H25 C29 1_555 1_555
C30 C21 1_555 1_555
Cl1 C31 1_555 1_555
Cl2 C31 1_555 1_555
Cl3 C31 1_555 1_555
C31 H26 1_555 1_555
C1 C20 1_555 1_555
C8 C9 1_555 1_555
C10 C15 1_555 1_555
C14 C15 1_555 1_555
C21 C22 1_555 1_555
C25 C30 1_555 1_555
C29 C30 1_555 1_555

#END
