
#######################################################################
#
#                 Cambridge Crystallographic Data Centre
#                                CCDC 
#
#######################################################################
#
# If this CIF has been generated from an entry in the Cambridge 
# Structural Database, then it will include bibliographic, chemical, 
# crystal, experimental, refinement or atomic coordinate data resulting 
# from the CCDC's data processing and validation procedures.
#
#######################################################################

data_UBAZEC
_chemical_formula_moiety         'C32 H27 Cl1 N2 O3'
_chemical_name_systematic        
4-Benzoyl-3-(2-chlorophenyl)-1-ethoxycarbonyl-1a-phenyl-1,1a,2,3-tetrahydro-4H-azirino(1,2-a)(1,5)benzodiazepine
_symmetry_cell_setting           monoclinic
_symmetry_space_group_name_H-M   'P 21/n'
_symmetry_Int_Tables_number      14
_space_group_name_Hall           '-P 2yn'
loop_
_symmetry_equiv_pos_site_id
_symmetry_equiv_pos_as_xyz
1 x,y,z
2 1/2-x,1/2+y,1/2-z
3 -x,-y,-z
4 1/2+x,1/2-y,1/2+z
_cell_length_a                   14.403(4)
_cell_length_b                   9.065
_cell_length_c                   21.220(5)
_cell_angle_alpha                90
_cell_angle_beta                 92.86(2)
_cell_angle_gamma                90
_cell_volume                     2767.1
_cell_formula_units_Z            4
loop_
_atom_site_label
_atom_site_type_symbol
_atom_site_fract_x
_atom_site_fract_y
_atom_site_fract_z
Cl1 Cl 0.3782(2) 0.1976(3) 0.0753(1)
N1 N 0.4308(3) -0.1639(5) 0.2053(2)
N2 N 0.5965(4) -0.3094(7) 0.1736(2)
O1 O 0.7618(6) -0.3970(1) 0.0551(3)
O2 O 0.7854(4) -0.3080(1) 0.1514(3)
O3 O 0.3756(4) 0.0494(6) 0.2437(2)
C1 C 0.4255(4) -0.0987(7) 0.1408(2)
C2 C 0.4829(4) -0.1815(8) 0.0970(2)
C3 C 0.5814(4) -0.1944(8) 0.1239(2)
C4 C 0.6323(5) -0.3450(8) 0.1114(3)
C5 C 0.7328(5) -0.3533(8) 0.1025(3)
C6 C 0.4088(4) -0.0714(5) 0.2530(3)
C7 C 0.4402(5) -0.3228(7) 0.2120(2)
C8 C 0.5194(4) -0.3925(7) 0.1936(3)
C9 C 0.5272(7) -0.5426(8) 0.1992(4)
C10 C 0.4535(7) -0.6223(7) 0.2228(4)
C11 C 0.3767(4) -0.5546(8) 0.2438(3)
C12 C 0.3662(5) -0.4029(8) 0.2378(3)
C13 C 0.6340(5) -0.0560(7) 0.1310(2)
C14 C 0.6481(8) 0.0330(1) 0.0797(4)
C15 C 0.6917(7) 0.1690(1) 0.0844(5)
C16 C 0.7303(6) 0.2137(9) 0.1425(4)
C17 C 0.7202(6) 0.1230(1) 0.1962(4)
C18 C 0.6718(5) -0.0090(1) 0.1909(3)
C19 C 0.3282(5) -0.0791(7) 0.1124(3)
C20 C 0.2611(6) -0.1860(1) 0.1135(4)
C21 C 0.1742(6) -0.1770(1) 0.0848(4)
C22 C 0.1478(5) -0.0440(1) 0.0557(5)
C23 C 0.2059(7) 0.0680(1) 0.0546(4)
C24 C 0.3010(4) 0.0534(8) 0.0802(2)
C25 C 0.8858(6) -0.2930(2) 0.1435(4)
C26 C 0.9131(8) -0.1420(2) 0.1263(6)
C27 C 0.4319(5) -0.1223(7) 0.3206(3)
C28 C 0.5116(5) -0.1962(9) 0.3389(3)
C29 C 0.5343(6) -0.2190(1) 0.4025(3)
C30 C 0.4805(7) -0.1650(1) 0.4474(3)
C31 C 0.3978(7) -0.0920(1) 0.4301(3)
C32 C 0.3755(5) -0.0666(8) 0.3668(3)
loop_
_geom_bond_atom_site_label_1
_geom_bond_atom_site_label_2
_geom_bond_site_symmetry_1
_geom_bond_site_symmetry_2
Cl1 C24 1_555 1_555
N1 C1 1_555 1_555
N2 C3 1_555 1_555
O1 C5 1_555 1_555
O2 C5 1_555 1_555
O3 C6 1_555 1_555
C1 C2 1_555 1_555
C2 C3 1_555 1_555
C3 C4 1_555 1_555
C4 N2 1_555 1_555
C5 C4 1_555 1_555
C6 N1 1_555 1_555
C7 N1 1_555 1_555
C8 N2 1_555 1_555
C9 C8 1_555 1_555
C10 C9 1_555 1_555
C11 C10 1_555 1_555
C12 C7 1_555 1_555
C13 C3 1_555 1_555
C14 C13 1_555 1_555
C15 C14 1_555 1_555
C16 C15 1_555 1_555
C17 C16 1_555 1_555
C18 C13 1_555 1_555
C19 C1 1_555 1_555
C20 C19 1_555 1_555
C21 C20 1_555 1_555
C22 C21 1_555 1_555
C23 C22 1_555 1_555
C24 C19 1_555 1_555
C25 O2 1_555 1_555
C26 C25 1_555 1_555
C27 C6 1_555 1_555
C28 C27 1_555 1_555
C29 C28 1_555 1_555
C30 C29 1_555 1_555
C31 C30 1_555 1_555
C32 C27 1_555 1_555
C7 C8 1_555 1_555
C11 C12 1_555 1_555
C17 C18 1_555 1_555
C23 C24 1_555 1_555
C31 C32 1_555 1_555

#END
