
#######################################################################
#
#                 Cambridge Crystallographic Data Centre
#                                CCDC 
#
#######################################################################
#
# If this CIF has been generated from an entry in the Cambridge 
# Structural Database, then it will include bibliographic, chemical, 
# crystal, experimental, refinement or atomic coordinate data resulting 
# from the CCDC's data processing and validation procedures.
#
#######################################################################

data_UBEBUB
_chemical_formula_moiety         'C34 H45 Li1 O3 Si1'
_chemical_name_systematic        
(6-(3,5-dimethylphenyl)-2,4-dimethyl-5H-dibenzo[b,d]silol-5-yl)-tris(tetrahydrofuran)-lithium
_symmetry_cell_setting           monoclinic
_symmetry_space_group_name_H-M   'P 21/c'
_symmetry_Int_Tables_number      14
_space_group_name_Hall           '-P 2ybc'
loop_
_symmetry_equiv_pos_site_id
_symmetry_equiv_pos_as_xyz
1 x,y,z
2 -x,1/2+y,1/2-z
3 -x,-y,-z
4 x,1/2-y,1/2+z
_cell_length_a                   8.991(4)
_cell_length_b                   16.122(7)
_cell_length_c                   22.047(10)
_cell_angle_alpha                90
_cell_angle_beta                 91.154(7)
_cell_angle_gamma                90
_cell_volume                     3195.13
_exptl_crystal_colour            colorless
_exptl_crystal_description       prism
_chemical_melting_point          '178-179 deg.C'
_cell_formula_units_Z            4
loop_
_atom_site_label
_atom_site_type_symbol
_atom_site_fract_x
_atom_site_fract_y
_atom_site_fract_z
Si1 Si 0.29074(9) 0.39647(5) 0.23284(4)
H1 H 0.394(3) 0.460(2) 0.2518(14)
Li1 Li 0.0065(6) 0.4481(4) 0.2389(2)
C1 C 0.3746(3) 0.29668(19) 0.26649(13)
C2 C 0.4346(3) 0.2466(2) 0.21986(13)
C3 C 0.4845(4) 0.1661(2) 0.23223(15)
H2 H 0.5221 0.1329 0.2004
C4 C 0.4794(4) 0.1347(2) 0.29042(15)
H3 H 0.5143 0.0801 0.2987
C5 C 0.4231(4) 0.1828(2) 0.33685(15)
H4 H 0.4206 0.1610 0.3768
C6 C 0.3699(3) 0.2631(2) 0.32559(14)
C7 C 0.4389(3) 0.2863(2) 0.15968(14)
C8 C 0.3727(3) 0.3658(2) 0.15674(13)
C9 C 0.3727(3) 0.4087(2) 0.10101(14)
C10 C 0.4425(4) 0.3728(2) 0.05125(14)
H5 H 0.4432 0.4024 0.0140
C11 C 0.5109(4) 0.2955(2) 0.05450(14)
C12 C 0.5067(4) 0.2523(2) 0.10905(14)
H6 H 0.5507 0.1989 0.1119
C13 C 0.3040(4) 0.4938(2) 0.09524(15)
H7 H 0.3788 0.5359 0.1055
H8 H 0.2206 0.4984 0.1230
H9 H 0.2679 0.5023 0.0535
C14 C 0.5890(4) 0.2589(2) 0.00065(15)
H10 H 0.6048 0.3023 -0.0297
H11 H 0.5276 0.2146 -0.0172
H12 H 0.6853 0.2361 0.0139
C15 C 0.3144(4) 0.3120(2) 0.37818(14)
C16 C 0.2337(4) 0.2731(2) 0.42402(15)
H13 H 0.2088 0.2161 0.4200
C17 C 0.1897(4) 0.3162(2) 0.47488(16)
C18 C 0.2260(5) 0.4003(2) 0.47965(16)
H14 H 0.1964 0.4306 0.5144
C19 C 0.3047(5) 0.4407(2) 0.43455(16)
C20 C 0.3474(4) 0.3958(2) 0.38423(15)
H15 H 0.4004 0.4229 0.3531
C21 C 0.1071(5) 0.2726(3) 0.52435(18)
H16 H 0.0532 0.2250 0.5072
H17 H 0.0363 0.3111 0.5424
H18 H 0.1780 0.2534 0.5556
C22 C 0.3424(6) 0.5324(3) 0.4399(2)
H19 H 0.2557 0.5655 0.4274
H20 H 0.4260 0.5453 0.4137
H21 H 0.3698 0.5453 0.4821
O1 O -0.1127(3) 0.41637(16) 0.16816(10)
C23 C -0.0686(4) 0.3760(2) 0.11399(15)
H22 H -0.1158 0.3207 0.1107
H23 H 0.0407 0.3689 0.1139
C24 C -0.1195(5) 0.4312(3) 0.06127(18)
H24 H -0.1777 0.3991 0.0307
H25 H -0.0335 0.4572 0.0414
C25 C -0.2166(6) 0.4967(3) 0.0915(2)
H26 H -0.1629 0.5501 0.0958
H27 H -0.3100 0.5059 0.0680
C26 C -0.2473(4) 0.4596(3) 0.15248(18)
H28 H -0.2686 0.5034 0.1826
H29 H -0.3328 0.4210 0.1500
O2 O 0.0097(3) 0.56927(16) 0.24621(14)
C27 C 0.1541(6) 0.6127(4) 0.2588(4)
H30 H 0.1885 0.6420 0.2222
H31 H 0.2317 0.5728 0.2722
C28 C 0.1189(6) 0.6752(4) 0.3101(3)
H32 H 0.1300 0.6491 0.3506
H33 H 0.1840 0.7246 0.3083
C29 C -0.0446(7) 0.6978(4) 0.2958(3)
H34 H -0.1002 0.7045 0.3338
H35 H -0.0504 0.7504 0.2727
C30 C -0.1099(6) 0.6264(4) 0.2579(3)
H36 H -0.1896 0.5981 0.2804
H37 H -0.1528 0.6477 0.2193
O3 O -0.1237(3) 0.4188(2) 0.30359(11)
C31 C -0.0823(8) 0.4391(5) 0.3664(2)
H38 H -0.0966 0.4991 0.3742
H39 H 0.0232 0.4249 0.3749
C32 C -0.1847(8) 0.3874(4) 0.4058(2)
H40 H -0.2708 0.4205 0.4192
H41 H -0.1306 0.3656 0.4420
C33 C -0.2363(9) 0.3145(4) 0.3620(3)
H42 H -0.1623 0.2691 0.3614
H43 H -0.3342 0.2919 0.3734
C34 C -0.2456(6) 0.3609(4) 0.3001(2)
H44 H -0.2338 0.3219 0.2659
H45 H -0.3418 0.3903 0.2951
C35? C 0.1161(16) 0.6283(7) 0.2256(8)
H46? H 0.0963 0.6423 0.1824
H47? H 0.2181 0.6055 0.2296
C36? C 0.0997(16) 0.7074(6) 0.2664(8)
H48? H 0.0691 0.7560 0.2416
H49? H 0.1946 0.7203 0.2879
C37? C -0.0245(19) 0.6838(9) 0.3127(7)
H50? H 0.0198 0.6669 0.3523
H51? H -0.0933 0.7308 0.3191
C38? C -0.1069(12) 0.6092(8) 0.2810(7)
H52? H -0.1479 0.5706 0.3113
H53? H -0.1887 0.6290 0.2540
C39? C -0.0390(12) 0.3979(12) 0.3596(6)
H54? H -0.0206 0.4483 0.3843
H55? H 0.0578 0.3726 0.3497
C40? C -0.1376(16) 0.3347(11) 0.3949(6)
H56? H -0.1236 0.3409 0.4393
H57? H -0.1149 0.2768 0.3833
C41? C -0.3005(13) 0.3603(14) 0.3737(7)
H58? H -0.3659 0.3110 0.3703
H59? H -0.3444 0.4001 0.4025
C42? C -0.2780(9) 0.4016(12) 0.3101(6)
H60? H -0.3129 0.3637 0.2775
H61? H -0.3362 0.4536 0.3071
loop_
_geom_bond_atom_site_label_1
_geom_bond_atom_site_label_2
_geom_bond_site_symmetry_1
_geom_bond_site_symmetry_2
Si1 H1 1_555 1_555
Li1 Si1 1_555 1_555
C1 Si1 1_555 1_555
C2 C1 1_555 1_555
C3 C2 1_555 1_555
H2 C3 1_555 1_555
C4 C3 1_555 1_555
H3 C4 1_555 1_555
C5 C4 1_555 1_555
H4 C5 1_555 1_555
C6 C1 1_555 1_555
C7 C2 1_555 1_555
C8 Si1 1_555 1_555
C9 C8 1_555 1_555
C10 C9 1_555 1_555
H5 C10 1_555 1_555
C11 C10 1_555 1_555
C12 C7 1_555 1_555
H6 C12 1_555 1_555
C13 C9 1_555 1_555
H7 C13 1_555 1_555
H8 C13 1_555 1_555
H9 C13 1_555 1_555
C14 C11 1_555 1_555
H10 C14 1_555 1_555
H11 C14 1_555 1_555
H12 C14 1_555 1_555
C15 C6 1_555 1_555
C16 C15 1_555 1_555
H13 C16 1_555 1_555
C17 C16 1_555 1_555
C18 C17 1_555 1_555
H14 C18 1_555 1_555
C19 C18 1_555 1_555
C20 C15 1_555 1_555
H15 C20 1_555 1_555
C21 C17 1_555 1_555
H16 C21 1_555 1_555
H17 C21 1_555 1_555
H18 C21 1_555 1_555
C22 C19 1_555 1_555
H19 C22 1_555 1_555
H20 C22 1_555 1_555
H21 C22 1_555 1_555
O1 Li1 1_555 1_555
C23 O1 1_555 1_555
H22 C23 1_555 1_555
H23 C23 1_555 1_555
C24 C23 1_555 1_555
H24 C24 1_555 1_555
H25 C24 1_555 1_555
C25 C24 1_555 1_555
H26 C25 1_555 1_555
H27 C25 1_555 1_555
C26 O1 1_555 1_555
H28 C26 1_555 1_555
H29 C26 1_555 1_555
O2 Li1 1_555 1_555
C27 O2 1_555 1_555
H30 C27 1_555 1_555
H31 C27 1_555 1_555
C28 C27 1_555 1_555
H32 C28 1_555 1_555
H33 C28 1_555 1_555
C29 C28 1_555 1_555
H34 C29 1_555 1_555
H35 C29 1_555 1_555
C30 O2 1_555 1_555
H36 C30 1_555 1_555
H37 C30 1_555 1_555
O3 Li1 1_555 1_555
C31 O3 1_555 1_555
H38 C31 1_555 1_555
H39 C31 1_555 1_555
C32 C31 1_555 1_555
H40 C32 1_555 1_555
H41 C32 1_555 1_555
C33 C32 1_555 1_555
H42 C33 1_555 1_555
H43 C33 1_555 1_555
C34 O3 1_555 1_555
H44 C34 1_555 1_555
H45 C34 1_555 1_555
C5 C6 1_555 1_555
C7 C8 1_555 1_555
C11 C12 1_555 1_555
C19 C20 1_555 1_555
C25 C26 1_555 1_555
C29 C30 1_555 1_555
C33 C34 1_555 1_555

#END
