
#######################################################################
#
#                 Cambridge Crystallographic Data Centre
#                                CCDC 
#
#######################################################################
#
# If this CIF has been generated from an entry in the Cambridge 
# Structural Database, then it will include bibliographic, chemical, 
# crystal, experimental, refinement or atomic coordinate data resulting 
# from the CCDC's data processing and validation procedures.
#
#######################################################################

data_UBECIP
_chemical_formula_moiety         'C24 H23 N1 O2 S1'
_chemical_name_systematic        
4,5-Diphenyl-1-(phenylsulfonyl)-2,3,6,7-tetrahydro-1H-azepine
_symmetry_cell_setting           monoclinic
_symmetry_space_group_name_H-M   'P 21/n'
_symmetry_Int_Tables_number      14
_space_group_name_Hall           '-P 2yn'
loop_
_symmetry_equiv_pos_site_id
_symmetry_equiv_pos_as_xyz
1 x,y,z
2 1/2-x,1/2+y,1/2-z
3 -x,-y,-z
4 1/2+x,1/2-y,1/2+z
_cell_length_a                   8.0117(3)
_cell_length_b                   10.9534(5)
_cell_length_c                   22.7788(9)
_cell_angle_alpha                90
_cell_angle_beta                 97.521(3)
_cell_angle_gamma                90
_cell_volume                     1981.76
_exptl_crystal_colour            colorless
_cell_formula_units_Z            4
loop_
_atom_site_label
_atom_site_type_symbol
_atom_site_fract_x
_atom_site_fract_y
_atom_site_fract_z
S1 S 0.14624(12) 1.15622(8) 0.23544(4)
O1 O -0.0038(4) 1.2141(3) 0.20838(12)
O2 O 0.2750(4) 1.2285(2) 0.26800(12)
N1 N 0.2314(4) 1.0865(3) 0.18292(13)
C1 C 0.9120(6) 0.7118(5) 0.0955(4)
H1 H 1.0143 0.6679 0.0957
C2 C 0.8468(6) 0.7335(5) 0.1482(3)
H2 H 0.9046 0.7045 0.1846
C3 C 0.7015(7) 0.7958(4) 0.1474(2)
H3 H 0.6568 0.8100 0.1834
C4 C 0.6166(6) 0.8393(5) 0.0948(2)
C5 C 0.4730(7) 0.9293(5) 0.1054(2)
C6 C 0.4970(6) 1.0356(4) 0.1435(2)
H4 H 0.4633 1.1082 0.1189
H5 H 0.6192 1.0433 0.1569
C7 C 0.4061(5) 1.0420(4) 0.19843(18)
H6 H 0.4043 0.9600 0.2165
H7 H 0.4680 1.0977 0.2279
C8 C 0.0873(6) 1.0420(4) 0.28339(17)
C9 C 0.2114(7) 0.9895(4) 0.32396(18)
H8 H 0.3255 1.0140 0.3253
C10 C 0.1669(11) 0.9014(5) 0.3623(2)
H9 H 0.2519 0.8643 0.3895
C11 C 0.0072(13) 0.8673(5) 0.3619(3)
H10 H -0.0213 0.8100 0.3903
C12 C 0.8282(8) 0.7536(4) 0.0438(3)
H11 H 0.8728 0.7392 0.0077
C13 C 0.6812(6) 0.8161(5) 0.0429(2)
H12 H 0.6229 0.8437 0.0063
C14 C 0.2939(6) 0.7981(5) 0.0308(2)
C15 C 0.2099(5) 0.8255(4) -0.02477(16)
H13 H 0.1923 0.9088 -0.0356
C16 C 0.1513(6) 0.7365(4) -0.06467(17)
H14 H 0.0931 0.7579 -0.1023
C17 C 0.1784(8) 0.6149(5) -0.0493(3)
H15 H 0.1375 0.5515 -0.0758
C18 C 0.2672(8) 0.5879(6) 0.0062(3)
H16 H 0.2911 0.5052 0.0167
C19 C 0.3204(6) 0.6781(6) 0.0456(3)
H17 H 0.3763 0.6573 0.0837
C20 C 0.3313(6) 0.9201(5) 0.0792(2)
C21 C 0.1762(5) 0.9925(4) 0.08332(15)
H18 H 0.0826 0.9558 0.0564
H19 H 0.1938 1.0762 0.0689
C22 C 0.1224(5) 1.0012(3) 0.14549(15)
H20 H 0.0042 1.0296 0.1423
H21 H 0.1287 0.9194 0.1641
C23 C -0.0766(7) 1.0064(5) 0.2806(2)
H22 H -0.1608 1.0422 0.2526
C24 C -0.1189(10) 0.9154(7) 0.3199(3)
H23 H -0.2316 0.8871 0.3179
loop_
_geom_bond_atom_site_label_1
_geom_bond_atom_site_label_2
_geom_bond_site_symmetry_1
_geom_bond_site_symmetry_2
S1 O1 1_555 1_555
O2 S1 1_555 1_555
N1 S1 1_555 1_555
C1 H1 1_555 1_555
C2 C1 1_555 1_555
H2 C2 1_555 1_555
C3 C2 1_555 1_555
H3 C3 1_555 1_555
C4 C3 1_555 1_555
C5 C4 1_555 1_555
C6 C5 1_555 1_555
H4 C6 1_555 1_555
H5 C6 1_555 1_555
C7 N1 1_555 1_555
H6 C7 1_555 1_555
H7 C7 1_555 1_555
C8 S1 1_555 1_555
C9 C8 1_555 1_555
H8 C9 1_555 1_555
C10 C9 1_555 1_555
H9 C10 1_555 1_555
C11 C10 1_555 1_555
H10 C11 1_555 1_555
C12 C1 1_555 1_555
H11 C12 1_555 1_555
C13 C4 1_555 1_555
H12 C13 1_555 1_555
C14 C15 1_555 1_555
C15 H13 1_555 1_555
C16 C15 1_555 1_555
H14 C16 1_555 1_555
C17 C16 1_555 1_555
H15 C17 1_555 1_555
C18 C17 1_555 1_555
H16 C18 1_555 1_555
C19 C14 1_555 1_555
H17 C19 1_555 1_555
C20 C5 1_555 1_555
C21 C20 1_555 1_555
H18 C21 1_555 1_555
H19 C21 1_555 1_555
C22 N1 1_555 1_555
H20 C22 1_555 1_555
H21 C22 1_555 1_555
C23 C8 1_555 1_555
H22 C23 1_555 1_555
C24 C11 1_555 1_555
H23 C24 1_555 1_555
C6 C7 1_555 1_555
C12 C13 1_555 1_555
C14 C20 1_555 1_555
C18 C19 1_555 1_555
C21 C22 1_555 1_555
C23 C24 1_555 1_555

#END
