
#######################################################################
#
#                 Cambridge Crystallographic Data Centre
#                                CCDC 
#
#######################################################################
#
# If this CIF has been generated from an entry in the Cambridge 
# Structural Database, then it will include bibliographic, chemical, 
# crystal, experimental, refinement or atomic coordinate data resulting 
# from the CCDC's data processing and validation procedures.
#
#######################################################################

data_UBESEZ
_chemical_formula_moiety         'C34 H26 O2,C1 H1 Cl3,C10 H2 N4'
_chemical_name_systematic        
'7,16-Dimethoxy-(6\a,8\a,15\a,17\a)-6,8,15,17-tetrahydro-6,17:8,15-dimethanoheptacene chloroform clathrate 1,2,4,5-tetracyanobenzene solvate'
_symmetry_cell_setting           orthorhombic
_symmetry_space_group_name_H-M   'P n m a'
_symmetry_Int_Tables_number      62
_space_group_name_Hall           '-P 2ac 2n'
loop_
_symmetry_equiv_pos_site_id
_symmetry_equiv_pos_as_xyz
1 x,y,z
2 1/2+x,y,1/2-z
3 x,1/2-y,z
4 1/2-x,1/2+y,1/2+z
5 -x,-y,-z
6 1/2-x,-y,1/2+z
7 -x,1/2+y,-z
8 1/2+x,1/2-y,1/2-z
_cell_length_a                   9.6718(1)
_cell_length_b                   30.0126(1)
_cell_length_c                   12.9392(1)
_cell_angle_alpha                90
_cell_angle_beta                 90
_cell_angle_gamma                90
_cell_volume                     3755.94
_exptl_crystal_colour            yellow
_exptl_crystal_description       bricks
_cell_formula_units_Z            4
loop_
_atom_site_label
_atom_site_type_symbol
_atom_site_fract_x
_atom_site_fract_y
_atom_site_fract_z
C1 C 0.6407(4) 0.64227(10) 0.5255(3)
O1 O 0.8251(5) 0.7500 0.6552(3)
C2 C 0.5514(4) 0.62846(10) 0.5992(3)
H1 H 0.5770 0.6296 0.6709
O2 O 0.6697(3) 0.7500 0.2406(2)
C3 C 0.4179(4) 0.61249(10) 0.5686(3)
C4 C 0.3183(4) 0.59851(12) 0.6424(3)
H2 H 0.3403 0.6002 0.7146
C5 C 0.1929(4) 0.58300(12) 0.6122(4)
H3 H 0.1265 0.5739 0.6632
C6 C 0.1598(4) 0.58030(11) 0.5082(4)
H4 H 0.0709 0.5691 0.4878
C7 C 0.2520(4) 0.59349(10) 0.4348(3)
H5 H 0.2285 0.5913 0.3629
C8 C 0.3840(3) 0.61031(9) 0.4629(3)
C9 C 0.4809(3) 0.62567(9) 0.3878(3)
H6 H 0.4594 0.6241 0.3154
C10 C 0.6040(3) 0.64169(9) 0.4194(3)
C11 C 0.7873(4) 0.66164(11) 0.5305(3)
H7 H 0.8391 0.6559 0.5924
C12 C 0.7262(3) 0.66191(10) 0.3610(3)
H8 H 0.7305 0.6564 0.2880
C13 C 0.8454(4) 0.64333(11) 0.4278(3)
H9 H 0.8496 0.6114 0.4270
H10 H 0.9339 0.6557 0.4106
C14 C 0.7719(3) 0.71049(10) 0.4992(3)
C15 C 0.7331(3) 0.71078(10) 0.3956(3)
C16 C 0.7884(5) 0.7500 0.5540(4)
C17 C 0.7093(4) 0.7500 0.3433(4)
C18 C 0.5259(5) 0.7500 0.2276(4)
H11 H 0.5039 0.7500 0.1553
H12 H 0.4875 0.7239 0.2595
C19 C 0.737(2) 0.7309(6) 0.7203(17)
H13 H 0.7736 0.7330 0.7892
H14 H 0.6484 0.7451 0.7175
H15 H 0.7279 0.7001 0.7014
C19B C 0.737(2) 0.7691(6) 0.7203(17)
H13B H 0.7736 0.7670 0.7892
H14B H 0.6484 0.7549 0.7175
H15B H 0.7279 0.7999 0.7014
C14B C 0.7719(3) 0.78951(10) 0.4992(3)
C11B C 0.7873(4) 0.83836(11) 0.5305(3)
C1B C 0.6407(4) 0.85773(10) 0.5255(3)
C2B C 0.5514(4) 0.87154(10) 0.5992(3)
H1B H 0.5770 0.8704 0.6709
C3B C 0.4179(4) 0.88751(10) 0.5686(3)
C4B C 0.3183(4) 0.90149(12) 0.6424(3)
H2B H 0.3403 0.8998 0.7146
C5B C 0.1929(4) 0.91700(12) 0.6122(4)
H3B H 0.1265 0.9261 0.6632
C6B C 0.1598(4) 0.91970(11) 0.5082(4)
H4B H 0.0709 0.9309 0.4878
C7B C 0.2520(4) 0.90651(10) 0.4348(3)
H5B H 0.2285 0.9087 0.3629
C8B C 0.3840(3) 0.88969(9) 0.4629(3)
C9B C 0.4809(3) 0.87433(9) 0.3878(3)
H6B H 0.4594 0.8759 0.3154
C10B C 0.6040(3) 0.85831(9) 0.4194(3)
C12B C 0.7262(3) 0.83809(10) 0.3610(3)
H8B H 0.7305 0.8436 0.2880
C13B C 0.8454(4) 0.85667(11) 0.4278(3)
H7B H 0.8391 0.8441 0.5924
H9B H 0.8496 0.8886 0.4270
H10B H 0.9339 0.8443 0.4106
C15B C 0.7331(3) 0.78922(10) 0.3956(3)
H12B H 0.4875 0.7761 0.2595
N1 N 0.8544(3) 0.53585(12) 0.6295(3)
N2 N 0.8152(3) 0.53502(11) 0.3215(3)
C22 C 0.6239(3) 0.51269(9) 0.5453(2)
C23 C 0.5137(3) 0.50056(9) 0.6071(2)
H20 H 0.5226 0.5012 0.6810
C24 C 0.6100(3) 0.51202(9) 0.4377(2)
C25 C 0.7528(4) 0.52578(11) 0.5920(3)
C26 C 0.7247(4) 0.52469(10) 0.3729(3)
C24D C 0.3900(3) 0.48798(9) 0.5623(2)
C22D C 0.3761(3) 0.48731(9) 0.4547(2)
C23D C 0.4863(3) 0.49944(9) 0.3929(2)
H20D H 0.4774 0.4988 0.3190
C25D C 0.2472(4) 0.47422(11) 0.4080(3)
N1D N 0.1456(3) 0.46415(12) 0.3705(3)
C26D C 0.2753(4) 0.47531(10) 0.6271(3)
N2D N 0.1848(3) 0.46498(11) 0.6785(3)
Cl1 Cl 0.17129(16) 0.70307(4) 0.53035(16)
Cl2 Cl 0.42618(19) 0.7500 0.52245(17)
C21 C 0.2567(7) 0.7500 0.4905(5)
H19 H 0.2525 0.7500 0.4164
Cl1B Cl 0.17129(16) 0.79693(4) 0.53035(16)
C20? C 0.869(3) 0.7218(9) 0.717(2)
H16? H 0.8841 0.7353 0.7831
H17? H 0.8019 0.6985 0.7229
H18? H 0.9548 0.7096 0.6919
loop_
_geom_bond_atom_site_label_1
_geom_bond_atom_site_label_2
_geom_bond_site_symmetry_1
_geom_bond_site_symmetry_2
Cl1 C21 1_555 1_555
Cl2 C21 1_555 1_555
C1 C2 1_555 1_555
N1 C25 1_555 1_555
O1 C16 1_555 1_555
N2 C26 1_555 1_555
C2 H1 1_555 1_555
O2 C17 1_555 1_555
C3 C2 1_555 1_555
C4 C3 1_555 1_555
H2 C4 1_555 1_555
C5 C4 1_555 1_555
H3 C5 1_555 1_555
C6 C5 1_555 1_555
H4 C6 1_555 1_555
C7 C6 1_555 1_555
H5 C7 1_555 1_555
C8 C3 1_555 1_555
C9 C8 1_555 1_555
H6 C9 1_555 1_555
C10 C1 1_555 1_555
C11 C1 1_555 1_555
H7 C11 1_555 1_555
C12 C10 1_555 1_555
H8 C12 1_555 1_555
C13 C11 1_555 1_555
H9 C13 1_555 1_555
H10 C13 1_555 1_555
C14 C11 1_555 1_555
C15 C12 1_555 1_555
C16 C14 1_555 1_555
C17 C15 1_555 1_555
C18 O2 1_555 1_555
H11 C18 1_555 1_555
H12 C18 1_555 1_555
C19 O1 1_555 1_555
H13 C19 1_555 1_555
H14 C19 1_555 1_555
H15 C19 1_555 1_555
C21 H19 1_555 1_555
C22 C23 1_555 1_555
C23 H20 1_555 1_555
C24 C22 1_555 1_555
C25 C22 1_555 1_555
C26 C24 1_555 1_555
Cl1B C21 1_555 1_555
C19B O1 1_555 1_555
H13B C19B 1_555 1_555
H14B C19 1_555 1_555
H15B C19B 1_555 1_555
C14B C16 1_555 1_555
C11B C14B 1_555 1_555
C1B C11B 1_555 1_555
C2B C1B 1_555 1_555
H1B C2B 1_555 1_555
C3B C2B 1_555 1_555
C4B C3B 1_555 1_555
H2B C4B 1_555 1_555
C5B C4B 1_555 1_555
H3B C5B 1_555 1_555
C6B C5B 1_555 1_555
H4B C6B 1_555 1_555
C7B C6B 1_555 1_555
H5B C7B 1_555 1_555
C8B C3B 1_555 1_555
C9B C8B 1_555 1_555
H6B C9B 1_555 1_555
C10B C1B 1_555 1_555
C12B C10B 1_555 1_555
H8B C12B 1_555 1_555
C13B C11B 1_555 1_555
H7B C11B 1_555 1_555
H9B C13B 1_555 1_555
H10B C13B 1_555 1_555
C15B C17 1_555 1_555
H12B C18 1_555 1_555
C24D C23 1_555 1_555
C22D C24D 1_555 1_555
C23D C24 1_555 1_555
H20D C23D 1_555 1_555
C25D C22D 1_555 1_555
N1D C25D 1_555 1_555
C26D C24D 1_555 1_555
N2D C26D 1_555 1_555
C7 C8 1_555 1_555
C9 C10 1_555 1_555
C12 C13 1_555 1_555
C14 C15 1_555 1_555
C19 C19B 1_555 1_555
H14 C19B 1_555 1_555
H14 H14B 1_555 1_555
C19B H14B 1_555 1_555
C14B C15B 1_555 1_555
C7B C8B 1_555 1_555
C9B C10B 1_555 1_555
C12B C13B 1_555 1_555
C12B C15B 1_555 1_555
C22D C23D 1_555 1_555

#END
