
#######################################################################
#
#                 Cambridge Crystallographic Data Centre
#                                CCDC 
#
#######################################################################
#
# If this CIF has been generated from an entry in the Cambridge 
# Structural Database, then it will include bibliographic, chemical, 
# crystal, experimental, refinement or atomic coordinate data resulting 
# from the CCDC's data processing and validation procedures.
#
#######################################################################

data_UBETIE
_chemical_formula_moiety         'C36 H26 O4'
_chemical_name_systematic        
anti-7,16-Diacetoxy-(6\a,8\b,15\b,17\a)-6,8,15,17-tetrahydro-6,17:8,15-dimethanoheptacene
_symmetry_cell_setting           orthorhombic
_symmetry_space_group_name_H-M   'P b c a'
_symmetry_Int_Tables_number      61
_space_group_name_Hall           '-P 2ac 2ab'
loop_
_symmetry_equiv_pos_site_id
_symmetry_equiv_pos_as_xyz
1 x,y,z
2 1/2+x,y,1/2-z
3 x,1/2-y,1/2+z
4 1/2-x,1/2+y,z
5 -x,-y,-z
6 1/2-x,-y,1/2+z
7 -x,1/2+y,1/2-z
8 1/2+x,1/2-y,-z
_cell_length_a                   10.7305(2)
_cell_length_b                   8.86470(10)
_cell_length_c                   27.4206(4)
_cell_angle_alpha                90
_cell_angle_beta                 90
_cell_angle_gamma                90
_cell_volume                     2608.32
_exptl_crystal_colour            colorless
_exptl_crystal_description       plate
_chemical_melting_point          'above 300 deg.C'
_cell_formula_units_Z            4
_exptl_crystal_recrystallization_method acetonitrile
loop_
_atom_site_label
_atom_site_type_symbol
_atom_site_fract_x
_atom_site_fract_y
_atom_site_fract_z
O1 O 0.75018(13) 0.09040(16) 0.49612(5)
O2 O 0.80669(16) -0.07826(19) 0.43967(7)
C1 C 0.54984(19) -0.0392(2) 0.37409(8)
C2 C 0.6275(2) -0.1299(2) 0.34847(8)
H1 H 0.7145 -0.1064 0.3464
C3 C 0.5783(2) -0.2599(3) 0.32451(7)
C4 C 0.6541(3) -0.3581(3) 0.29690(9)
H2 H 0.7415 -0.3371 0.2945
C5 C 0.6051(3) -0.4815(3) 0.27423(9)
H3 H 0.6577 -0.5461 0.2552
C6 C 0.4782(3) -0.5140(3) 0.27833(10)
H4 H 0.4448 -0.6019 0.2627
C7 C 0.4013(3) -0.4210(3) 0.30424(9)
H5 H 0.3143 -0.4441 0.3067
C8 C 0.4488(2) -0.2913(3) 0.32772(8)
C9 C 0.3705(2) -0.1931(2) 0.35505(8)
H6 H 0.2830 -0.2130 0.3575
C10 C 0.4205(2) -0.0722(2) 0.37772(8)
C11 C 0.5705(2) 0.1035(2) 0.40422(8)
H7 H 0.6450 0.1595 0.3978
C12 C 0.3649(2) 0.0481(2) 0.41067(8)
H8 H 0.2762 0.0601 0.4097
C13 C 0.4456(2) 0.1840(2) 0.39454(9)
H9 H 0.4334 0.2717 0.4144
H10 H 0.4342 0.2087 0.3608
C14 C 0.54847(19) 0.0555(2) 0.45697(7)
C15 C 0.5775(2) -0.0189(2) 0.53947(7)
C16 C 0.62704(18) 0.0383(2) 0.49669(8)
C17 C 0.8295(2) 0.0330(2) 0.46229(8)
C18 C 0.9423(2) 0.1289(3) 0.45783(9)
H11 H 0.9972 0.0867 0.4339
H12 H 0.9181 0.2285 0.4480
H13 H 0.9843 0.1337 0.4886
C15D C 0.4225(2) 0.0189(2) 0.46053(7)
C16D C 0.37296(18) -0.0383(2) 0.50331(8)
O1D O 0.24982(13) -0.09040(16) 0.50388(5)
C17D C 0.1705(2) -0.0330(2) 0.53771(8)
O2D O 0.19331(16) 0.07826(19) 0.56033(7)
C18D C 0.0577(2) -0.1289(3) 0.54217(9)
H11D H 0.0028 -0.0867 0.5661
H12D H 0.0819 -0.2285 0.5520
H13D H 0.0157 -0.1337 0.5114
C14D C 0.45153(19) -0.0555(2) 0.54303(7)
C11D C 0.4295(2) -0.1035(2) 0.59578(8)
C1D C 0.45016(19) 0.0392(2) 0.62591(8)
C2D C 0.3725(2) 0.1299(2) 0.65153(8)
H1D H 0.2855 0.1064 0.6536
C3D C 0.4217(2) 0.2599(3) 0.67549(7)
C4D C 0.3459(3) 0.3581(3) 0.70310(9)
H2D H 0.2585 0.3371 0.7055
C5D C 0.3949(3) 0.4815(3) 0.72577(9)
H3D H 0.3423 0.5461 0.7448
C6D C 0.5218(3) 0.5140(3) 0.72167(10)
H4D H 0.5552 0.6019 0.7373
C7D C 0.5987(3) 0.4210(3) 0.69576(9)
H5D H 0.6857 0.4441 0.6933
C8D C 0.5512(2) 0.2913(3) 0.67228(8)
C9D C 0.6295(2) 0.1931(2) 0.64495(8)
H6D H 0.7170 0.2130 0.6425
C10D C 0.5795(2) 0.0722(2) 0.62228(8)
C12D C 0.6351(2) -0.0481(2) 0.58933(8)
H8D H 0.7238 -0.0601 0.5903
C13D C 0.5544(2) -0.1840(2) 0.60546(9)
H7D H 0.3550 -0.1595 0.6022
H9D H 0.5666 -0.2717 0.5856
H10D H 0.5658 -0.2087 0.6392
loop_
_geom_bond_atom_site_label_1
_geom_bond_atom_site_label_2
_geom_bond_site_symmetry_1
_geom_bond_site_symmetry_2
O1 C16 1_555 1_555
O2 C17 1_555 1_555
C1 C2 1_555 1_555
C2 H1 1_555 1_555
C3 C2 1_555 1_555
C4 C3 1_555 1_555
H2 C4 1_555 1_555
C5 C4 1_555 1_555
H3 C5 1_555 1_555
C6 C5 1_555 1_555
H4 C6 1_555 1_555
C7 C6 1_555 1_555
H5 C7 1_555 1_555
C8 C3 1_555 1_555
C9 C8 1_555 1_555
H6 C9 1_555 1_555
C10 C1 1_555 1_555
C11 C1 1_555 1_555
H7 C11 1_555 1_555
C12 C10 1_555 1_555
H8 C12 1_555 1_555
C13 C11 1_555 1_555
H9 C13 1_555 1_555
H10 C13 1_555 1_555
C14 C11 1_555 1_555
C15 C16 1_555 1_555
C16 C14 1_555 1_555
C17 O1 1_555 1_555
C18 C17 1_555 1_555
H11 C18 1_555 1_555
H12 C18 1_555 1_555
H13 C18 1_555 1_555
C15D C12 1_555 1_555
C16D C15D 1_555 1_555
O1D C16D 1_555 1_555
C17D O1D 1_555 1_555
O2D C17D 1_555 1_555
C18D C17D 1_555 1_555
H11D C18D 1_555 1_555
H12D C18D 1_555 1_555
H13D C18D 1_555 1_555
C14D C15 1_555 1_555
C11D C14D 1_555 1_555
C1D C11D 1_555 1_555
C2D C1D 1_555 1_555
H1D C2D 1_555 1_555
C3D C2D 1_555 1_555
C4D C3D 1_555 1_555
H2D C4D 1_555 1_555
C5D C4D 1_555 1_555
H3D C5D 1_555 1_555
C6D C5D 1_555 1_555
H4D C6D 1_555 1_555
C7D C6D 1_555 1_555
H5D C7D 1_555 1_555
C8D C3D 1_555 1_555
C9D C8D 1_555 1_555
H6D C9D 1_555 1_555
C10D C1D 1_555 1_555
C12D C15 1_555 1_555
H8D C12D 1_555 1_555
C13D C11D 1_555 1_555
H7D C11D 1_555 1_555
H9D C13D 1_555 1_555
H10D C13D 1_555 1_555
C7 C8 1_555 1_555
C9 C10 1_555 1_555
C12 C13 1_555 1_555
C14 C15D 1_555 1_555
C16D C14D 1_555 1_555
C7D C8D 1_555 1_555
C9D C10D 1_555 1_555
C10D C12D 1_555 1_555
C12D C13D 1_555 1_555

#END
