
#######################################################################
#
#                 Cambridge Crystallographic Data Centre
#                                CCDC 
#
#######################################################################
#
# If this CIF has been generated from an entry in the Cambridge 
# Structural Database, then it will include bibliographic, chemical, 
# crystal, experimental, refinement or atomic coordinate data resulting 
# from the CCDC's data processing and validation procedures.
#
#######################################################################

data_UBETOK
_chemical_formula_moiety         'C36 H26 O4,2(C2 H3 N1)'
_chemical_name_systematic        
'anti-7,16-Diacetoxy-(6\a,8\b,15\b,17\a)-6,8,15,17-tetrahydro-6,17:8,15-dimethanoheptacene acetonitrile solvate'
_symmetry_cell_setting           monoclinic
_symmetry_space_group_name_H-M   'P 21/n'
_symmetry_Int_Tables_number      14
_space_group_name_Hall           '-P 2yn'
loop_
_symmetry_equiv_pos_site_id
_symmetry_equiv_pos_as_xyz
1 x,y,z
2 1/2+x,1/2-y,1/2+z
3 -x,-y,-z
4 1/2-x,1/2+y,1/2-z
_cell_length_a                   9.77450(10)
_cell_length_b                   15.3754(3)
_cell_length_c                   11.3546(2)
_cell_angle_alpha                90
_cell_angle_beta                 110.8710(10)
_cell_angle_gamma                90
_cell_volume                     1594.48
_exptl_crystal_colour            colorless
_exptl_crystal_description       rod
_cell_formula_units_Z            2
loop_
_atom_site_label
_atom_site_type_symbol
_atom_site_fract_x
_atom_site_fract_y
_atom_site_fract_z
O1 O 0.44812(12) 0.05965(9) 1.21331(11)
O2 O 0.20677(16) 0.04971(16) 1.12152(18)
C1 C 0.73222(18) -0.12854(12) 1.24551(18)
C2 C 0.83692(18) -0.10983(12) 1.35695(18)
H1 H 0.8112 -0.0904 1.4263
C3 C 0.98699(18) -0.11904(12) 1.37052(18)
C4 C 1.1011(2) -0.09922(13) 1.48432(19)
H2 H 1.0781 -0.0774 1.5540
C5 C 1.2443(2) -0.11063(14) 1.4969(2)
H3 H 1.3212 -0.0973 1.5749
C6 C 1.2791(2) -0.14146(15) 1.3953(2)
H4 H 1.3794 -0.1509 1.4052
C7 C 1.1722(2) -0.15956(14) 1.2836(2)
H5 H 1.1987 -0.1784 1.2143
C8 C 1.02188(18) -0.14929(12) 1.26657(18)
C9 C 0.90855(18) -0.16877(12) 1.15117(17)
H6 H 0.9316 -0.1886 1.0806
C10 C 0.76719(19) -0.15843(12) 1.14112(17)
C11 C 0.56563(18) -0.12497(12) 1.19992(18)
H7 H 0.5225 -0.1232 1.2635
C12 C 0.62205(18) -0.17256(13) 1.03345(18)
H8 H 0.6239 -0.2086 0.9653
C13 C 0.5302(2) -0.20448(13) 1.1111(2)
H9 H 0.5664 -0.2578 1.1547
H10 H 0.4282 -0.2097 1.0620
C14 C 0.52263(16) -0.05315(12) 1.10263(17)
C15 C 0.44466(16) 0.08235(12) 1.00053(17)
C16 C 0.46789(16) 0.02973(12) 1.10403(17)
C17 C 0.3091(2) 0.06741(14) 1.2115(2)
C18 C 0.3075(3) 0.10125(19) 1.3324(2)
H11 H 0.2135 0.1259 1.3201
H12 H 0.3812 0.1451 1.3635
H13 H 0.3267 0.0548 1.3922
C15B C 0.55534(16) -0.08235(12) 0.99947(17)
C16B C 0.53211(16) -0.02973(12) 0.89597(17)
O1B O 0.55188(12) -0.05965(9) 0.78669(11)
C17B C 0.6909(2) -0.06741(14) 0.7885(2)
O2B O 0.79323(16) -0.04971(16) 0.87848(18)
C18B C 0.6925(3) -0.10125(19) 0.6676(2)
H11B H 0.7865 -0.1259 0.6799
H12B H 0.6188 -0.1451 0.6365
H13B H 0.6733 -0.0548 0.6078
C14B C 0.47737(16) 0.05315(12) 0.89737(17)
C11B C 0.43437(18) 0.12497(12) 0.80008(18)
C1B C 0.26778(18) 0.12854(12) 0.75449(18)
C2B C 0.16308(18) 0.10983(12) 0.64305(18)
H1B H 0.1888 0.0904 0.5737
C3B C 0.01301(18) 0.11904(12) 0.62948(18)
C4B C -0.1011(2) 0.09922(13) 0.51568(19)
H2B H -0.0781 0.0774 0.4460
C5B C -0.2443(2) 0.11063(14) 0.5031(2)
H3B H -0.3212 0.0973 0.4251
C6B C -0.2791(2) 0.14146(15) 0.6047(2)
H4B H -0.3794 0.1509 0.5948
C7B C -0.1722(2) 0.15956(14) 0.7164(2)
H5B H -0.1987 0.1784 0.7857
C8B C -0.02188(18) 0.14929(12) 0.73343(18)
C9B C 0.09145(18) 0.16877(12) 0.84883(17)
H6B H 0.0684 0.1886 0.9194
C10B C 0.23281(19) 0.15843(12) 0.85888(17)
C12B C 0.37795(18) 0.17256(13) 0.96655(18)
H8B H 0.3761 0.2086 1.0347
C13B C 0.4698(2) 0.20448(13) 0.8889(2)
H7B H 0.4775 0.1232 0.7365
H9B H 0.4336 0.2578 0.8453
H10B H 0.5718 0.2097 0.9380
N1 N 0.1020(3) -0.22499(18) 0.9391(3)
C19 C 0.1280(3) -0.07134(18) 0.8630(3)
H14 H 0.0412 -0.0490 0.7895
H15 H 0.1362 -0.0226 0.9186
H16 H 0.2082 -0.0704 0.8483
C20 C 0.1137(2) -0.1568(2) 0.9050(2)
loop_
_geom_bond_atom_site_label_1
_geom_bond_atom_site_label_2
_geom_bond_site_symmetry_1
_geom_bond_site_symmetry_2
O1 C16 1_555 1_555
O2 C17 1_555 1_555
C1 C2 1_555 1_555
C2 H1 1_555 1_555
C3 C2 1_555 1_555
C4 C3 1_555 1_555
H2 C4 1_555 1_555
C5 C4 1_555 1_555
H3 C5 1_555 1_555
C6 C5 1_555 1_555
H4 C6 1_555 1_555
C7 C6 1_555 1_555
H5 C7 1_555 1_555
C8 C3 1_555 1_555
C9 C8 1_555 1_555
H6 C9 1_555 1_555
C10 C1 1_555 1_555
C11 C1 1_555 1_555
H7 C11 1_555 1_555
C12 C10 1_555 1_555
H8 C12 1_555 1_555
C13 C11 1_555 1_555
H9 C13 1_555 1_555
H10 C13 1_555 1_555
C14 C11 1_555 1_555
C15 C16 1_555 1_555
C16 C14 1_555 1_555
C17 O1 1_555 1_555
C18 C17 1_555 1_555
H11 C18 1_555 1_555
H12 C18 1_555 1_555
H13 C18 1_555 1_555
N1 C20 1_555 1_555
C19 H14 1_555 1_555
H15 C19 1_555 1_555
H16 C19 1_555 1_555
C20 C19 1_555 1_555
C15B C12 1_555 1_555
C16B C15B 1_555 1_555
O1B C16B 1_555 1_555
C17B O1B 1_555 1_555
O2B C17B 1_555 1_555
C18B C17B 1_555 1_555
H11B C18B 1_555 1_555
H12B C18B 1_555 1_555
H13B C18B 1_555 1_555
C14B C15 1_555 1_555
C11B C14B 1_555 1_555
C1B C11B 1_555 1_555
C2B C1B 1_555 1_555
H1B C2B 1_555 1_555
C3B C2B 1_555 1_555
C4B C3B 1_555 1_555
H2B C4B 1_555 1_555
C5B C4B 1_555 1_555
H3B C5B 1_555 1_555
C6B C5B 1_555 1_555
H4B C6B 1_555 1_555
C7B C6B 1_555 1_555
H5B C7B 1_555 1_555
C8B C3B 1_555 1_555
C9B C8B 1_555 1_555
H6B C9B 1_555 1_555
C10B C1B 1_555 1_555
C12B C15 1_555 1_555
H8B C12B 1_555 1_555
C13B C11B 1_555 1_555
H7B C11B 1_555 1_555
H9B C13B 1_555 1_555
H10B C13B 1_555 1_555
C7 C8 1_555 1_555
C9 C10 1_555 1_555
C12 C13 1_555 1_555
C14 C15B 1_555 1_555
C16B C14B 1_555 1_555
C7B C8B 1_555 1_555
C9B C10B 1_555 1_555
C10B C12B 1_555 1_555
C12B C13B 1_555 1_555

#END
