
#######################################################################
#
#                 Cambridge Crystallographic Data Centre
#                                CCDC 
#
#######################################################################
#
# If this CIF has been generated from an entry in the Cambridge 
# Structural Database, then it will include bibliographic, chemical, 
# crystal, experimental, refinement or atomic coordinate data resulting 
# from the CCDC's data processing and validation procedures.
#
#######################################################################

data_UBETEA
_chemical_formula_moiety         'C34 H26 O2,C6 H4 N2 O4'
_chemical_name_systematic        
'7,16-Dimethoxy-(6\a,8\a,15\a,17\a)-6,8,15,17-tetrahydro-6,17:8,15-dimethanoheptacene 1,4-dinitrobenzene clathrate'
_symmetry_cell_setting           triclinic
_symmetry_space_group_name_H-M   'P -1'
_symmetry_Int_Tables_number      2
_space_group_name_Hall           '-P 1'
loop_
_symmetry_equiv_pos_site_id
_symmetry_equiv_pos_as_xyz
1 x,y,z
2 -x,-y,-z
_cell_length_a                   17.401(5)
_cell_length_b                   18.842(6)
_cell_length_c                   19.806(6)
_cell_angle_alpha                104.716(7)
_cell_angle_beta                 92.562(7)
_cell_angle_gamma                94.682(6)
_cell_volume                     6245.37
_exptl_crystal_colour            orange
_exptl_crystal_description       plates
_cell_formula_units_Z            8
_exptl_crystal_recrystallization_method ethanol/dichloromethane
loop_
_atom_site_label
_atom_site_type_symbol
_atom_site_fract_x
_atom_site_fract_y
_atom_site_fract_z
O1 O 0.7666(2) -0.11552(18) 0.1784(2)
O2 O 0.7321(3) -0.1216(2) 0.0733(2)
O3 O 0.91165(19) 0.21994(18) 0.10868(19)
O4 O 0.92653(19) 0.23494(15) 0.22029(19)
N1 N 0.7626(2) -0.08937(18) 0.1291(2)
N2 N 0.90411(17) 0.19898(17) 0.1624(2)
C35 C 0.79935(18) -0.01327(17) 0.13717(16)
C36 C 0.7971(2) 0.0165(2) 0.08126(17)
H27 H 0.7727 -0.0116 0.0370
C37 C 0.83182(19) 0.0865(2) 0.08910(17)
H28 H 0.8319 0.1090 0.0507
C38 C 0.86637(16) 0.12382(16) 0.15327(16)
C39 C 0.86749(17) 0.09431(17) 0.20974(16)
H29 H 0.8918 0.1225 0.2539
C40 C 0.83305(17) 0.02453(17) 0.20145(16)
H30 H 0.8328 0.0016 0.2395
O5 O 0.95133(10) 0.25627(9) 0.45137(9)
O6 O 0.80786(16) -0.03226(12) 0.35932(13)
C1 C 0.73977(14) 0.20858(15) 0.35222(13)
C2 C 0.74539(15) 0.25272(16) 0.30818(14)
H1 H 0.7706 0.3018 0.3243
C3 C 0.71341(15) 0.22651(18) 0.23878(15)
C4 C 0.71927(18) 0.2695(2) 0.19024(17)
H2 H 0.7457 0.3182 0.2050
C5 C 0.6895(2) 0.2446(3) 0.12529(19)
H3 H 0.6940 0.2753 0.0934
C6 C 0.6510(2) 0.1750(3) 0.10222(16)
H4 H 0.6299 0.1580 0.0547
C7 C 0.64216(18) 0.1285(3) 0.14651(17)
H5 H 0.6148 0.0803 0.1303
C8 C 0.67554(16) 0.1541(2) 0.21722(14)
C9 C 0.67109(15) 0.10779(18) 0.26404(16)
H6 H 0.6453 0.0588 0.2493
C10 C 0.70360(14) 0.13503(16) 0.33024(14)
C11 C 0.77005(14) 0.21965(15) 0.42793(13)
H7 H 0.7811 0.2695 0.4557
C12 C 0.71383(15) 0.10194(16) 0.39188(15)
H8 H 0.6809 0.0583 0.3911
C13 C 0.70614(16) 0.17076(17) 0.45179(15)
H9 H 0.6562 0.1886 0.4499
H10 H 0.7183 0.1637 0.4973
C14 C 0.83562(14) 0.16975(13) 0.42310(12)
C15 C 0.80094(15) 0.09753(14) 0.40177(13)
C16 C 0.91482(14) 0.18512(13) 0.43018(12)
C17 C 0.84439(16) 0.03791(14) 0.38847(14)
C18 C 0.95868(15) 0.12592(14) 0.41782(13)
C19 C 0.92378(16) 0.05320(14) 0.39875(14)
C20 C 1.04479(15) 0.12224(16) 0.41008(15)
H11 H 1.0783 0.1652 0.4338
C21 C 0.98932(17) 0.00384(16) 0.38090(15)
H12 H 0.9783 -0.0468 0.3812
C22 C 1.05427(18) 0.05013(18) 0.43270(17)
H13 H 1.0439 0.0540 0.4806
H14 H 1.1039 0.0323 0.4234
C23 C 1.01696(16) 0.01845(14) 0.31340(15)
C24 C 1.01064(16) -0.02301(15) 0.24701(15)
H15 H 0.9878 -0.0731 0.2362
C25 C 1.03800(16) 0.00835(16) 0.19325(15)
C26 C 1.03283(18) -0.03291(19) 0.12266(16)
H16 H 1.0114 -0.0834 0.1109
C27 C 1.05773(19) -0.0016(2) 0.07198(18)
H17 H 1.0548 -0.0305 0.0243
C28 C 1.08759(19) 0.0724(2) 0.08889(19)
H18 H 1.1039 0.0939 0.0522
C29 C 1.09390(17) 0.1139(2) 0.15620(17)
H19 H 1.1140 0.1648 0.1667
C30 C 1.07074(15) 0.08303(16) 0.21105(15)
C31 C 1.07649(15) 0.12475(16) 0.28177(16)
H20 H 1.0976 0.1754 0.2941
C32 C 1.05117(15) 0.09281(15) 0.33214(15)
C33 C 0.9416(2) 0.30010(19) 0.4060(2)
H21 H 0.9678 0.2806 0.3640
H22 H 0.9635 0.3501 0.4280
H23 H 0.8870 0.3001 0.3938
C34 C 0.7986(3) -0.0790(2) 0.3963(3)
H24 H 0.8460 -0.0769 0.4247
H25 H 0.7879 -0.1278 0.3648
H26 H 0.7562 -0.0686 0.4264
O7 O 0.9274(3) 0.7935(2) 0.2230(3)
O8 O 0.9314(3) 0.7736(3) 0.1126(3)
O9 O 0.7571(2) 0.42862(19) 0.0732(2)
O10 O 0.75088(18) 0.45062(15) 0.18348(19)
N3 N 0.9138(2) 0.7554(3) 0.1645(3)
N4 N 0.76877(17) 0.46727(17) 0.13158(17)
C75 C 0.8767(2) 0.6804(2) 0.1554(2)
C76 C 0.8609(3) 0.6340(3) 0.0886(2)
H57 H 0.8745 0.6512 0.0487
C77 C 0.8261(2) 0.5640(3) 0.08108(18)
H58 H 0.8149 0.5304 0.0357
C78 C 0.80805(17) 0.54258(17) 0.13939(15)
C79 C 0.82311(16) 0.58761(16) 0.20458(14)
H59 H 0.8095 0.5708 0.2447
C80 C 0.85779(17) 0.65816(17) 0.21258(16)
H60 H 0.8691 0.6911 0.2583
O11 O 0.74220(10) 0.44900(10) 0.35162(10)
O12 O 0.86170(10) 0.74321(9) 0.39738(10)
C41 C 0.94585(15) 0.49110(15) 0.30717(15)
C42 C 0.94537(16) 0.44211(15) 0.24426(16)
H31 H 0.9207 0.3931 0.2374
C43 C 0.98257(16) 0.46366(16) 0.18888(16)
C44 C 0.98104(18) 0.41558(19) 0.12141(17)
H32 H 0.9555 0.3667 0.1128
C45 C 1.01509(19) 0.4376(2) 0.06871(18)
H33 H 1.0135 0.4040 0.0231
C46 C 1.05242(19) 0.5089(2) 0.08064(17)
H34 H 1.0765 0.5238 0.0431
C47 C 1.05461(16) 0.55676(19) 0.14536(16)
H35 H 1.0799 0.6056 0.1530
C48 C 1.01982(15) 0.53578(16) 0.20134(15)
C49 C 1.02010(14) 0.58561(15) 0.26881(15)
H36 H 1.0456 0.6345 0.2777
C50 C 0.98437(15) 0.56402(14) 0.32009(15)
C51 C 0.90834(16) 0.48833(16) 0.37416(15)
H37 H 0.8936 0.4403 0.3803
C52 C 0.96896(16) 0.60393(16) 0.39461(15)
H38 H 1.0026 0.6475 0.4164
C53 C 0.96921(18) 0.53896(17) 0.42874(16)
H39 H 1.0185 0.5195 0.4286
H40 H 0.9517 0.5506 0.4752
C54 C 0.84505(15) 0.54085(14) 0.37913(13)
C55 C 0.88186(15) 0.61241(14) 0.39128(13)
C56 C 0.76607(15) 0.52287(13) 0.36589(13)
C57 C 0.83707(15) 0.67030(13) 0.39059(12)
C58 C 0.72059(14) 0.58138(14) 0.36864(12)
C59 C 0.75734(14) 0.65285(13) 0.38077(12)
C60 C 0.63437(15) 0.58833(14) 0.35273(13)
H41 H 0.5982 0.5487 0.3572
C61 C 0.69583(15) 0.70350(14) 0.37287(13)
H42 H 0.7085 0.7553 0.3933
C62 C 0.62763(16) 0.66534(15) 0.40204(14)
H43 H 0.6371 0.6668 0.4505
H44 H 0.5792 0.6843 0.3948
C63 C 0.66948(14) 0.68015(13) 0.29528(13)
C64 C 0.67965(15) 0.71229(13) 0.24216(13)
H45 H 0.7054 0.7611 0.2510
C65 C 0.65259(14) 0.67272(14) 0.17294(13)
C66 C 0.66437(16) 0.70224(15) 0.11505(14)
H46 H 0.6906 0.7508 0.1227
C67 C 0.63976(18) 0.66267(17) 0.04869(15)
H47 H 0.6484 0.6837 0.0100
C68 C 0.60127(17) 0.59187(17) 0.03666(15)
H48 H 0.5840 0.5645 -0.0101
C69 C 0.58864(16) 0.56203(16) 0.09120(14)
H49 H 0.5625 0.5134 0.0825
C70 C 0.61354(14) 0.60067(13) 0.16052(13)
C71 C 0.60247(14) 0.56926(14) 0.21804(13)
H50 H 0.5749 0.5214 0.2108
C72 C 0.63126(14) 0.60776(14) 0.28299(13)
C73 C 0.66382(18) 0.42518(17) 0.3330(2)
H51 H 0.6333 0.4440 0.3723
H52 H 0.6569 0.3717 0.3200
H53 H 0.6471 0.4433 0.2936
C74 C 0.94080(18) 0.76579(17) 0.40201(19)
H54 H 0.9647 0.7572 0.4440
H55 H 0.9478 0.8180 0.4044
H56 H 0.9647 0.7383 0.3614
O13 O 0.11031(16) 0.3199(2) 0.33235(16)
O14 O 0.1231(4) 0.3729(4) 0.4411(3)
O16 O 0.50333(15) 0.45693(19) 0.42184(14)
O17 O 0.48843(13) 0.42034(16) 0.31005(13)
N5 N 0.15241(18) 0.3392(2) 0.38455(16)
N6 N 0.46417(14) 0.42781(15) 0.36824(14)
C115 C 0.23465(17) 0.35994(16) 0.38178(15)
C116 C 0.27865(18) 0.39279(18) 0.44278(15)
H87 H 0.2560 0.3997 0.4870
C117 C 0.35499(17) 0.41439(17) 0.43854(15)
H88 H 0.3875 0.4382 0.4798
C118 C 0.38363(15) 0.40212(14) 0.37343(14)
C119 C 0.33986(16) 0.36892(14) 0.31259(14)
H89 H 0.3625 0.3607 0.2683
C120 C 0.26300(16) 0.34755(14) 0.31694(14)
H90 H 0.2300 0.3245 0.2757
O18 O 0.48501(10) 0.40110(9) 0.13688(9)
O19 O 0.18083(10) 0.28114(10) 0.14162(10)
C81 C 0.43002(14) 0.21277(13) 0.20111(13)
C82 C 0.47996(15) 0.22617(14) 0.25753(14)
H61 H 0.5331 0.2425 0.2546
C83 C 0.45375(16) 0.21616(14) 0.32177(14)
C84 C 0.50313(19) 0.23282(16) 0.38342(15)
H62 H 0.5563 0.2497 0.3814
C85 C 0.4767(2) 0.22464(17) 0.44476(16)
H63 H 0.5107 0.2381 0.4865
C86 C 0.3995(2) 0.19753(16) 0.44713(15)
H64 H 0.3818 0.1898 0.4901
C87 C 0.34938(19) 0.18058(15) 0.38860(14)
H65 H 0.2965 0.1628 0.3909
C88 C 0.37515(16) 0.19013(13) 0.32451(13)
C89 C 0.32362(15) 0.17556(13) 0.26347(13)
H66 H 0.2706 0.1575 0.2646
C90 C 0.35057(14) 0.18777(13) 0.20388(13)
C91 C 0.43741(15) 0.22374(14) 0.12858(13)
H67 H 0.4887 0.2257 0.1127
C92 C 0.31195(15) 0.18521(13) 0.13279(13)
H68 H 0.2627 0.1566 0.1208
C93 C 0.37791(16) 0.16135(14) 0.08600(14)
H69 H 0.3920 0.1132 0.0864
H70 H 0.3676 0.1643 0.0388
C94 C 0.39265(14) 0.29086(13) 0.12889(12)
C95 C 0.31454(14) 0.26546(13) 0.13083(12)
C96 C 0.41256(14) 0.36548(13) 0.13565(12)
C97 C 0.25496(14) 0.31021(14) 0.13609(12)
C98 C 0.35212(15) 0.41078(13) 0.14164(12)
C99 C 0.27529(15) 0.38415(13) 0.14072(12)
C100 C 0.35469(16) 0.49426(14) 0.15570(14)
H71 H 0.4004 0.5196 0.1443
C101 C 0.22815(16) 0.45127(14) 0.15354(14)
H72 H 0.1738 0.4420 0.1403
C102 C 0.27802(18) 0.49885(15) 0.11554(15)
H73 H 0.2783 0.4763 0.0663
H74 H 0.2633 0.5481 0.1233
C103 C 0.25155(16) 0.49341(13) 0.22878(14)
C104 C 0.21288(16) 0.50512(14) 0.28783(15)
H75 H 0.1590 0.4885 0.2858
C105 C 0.25267(17) 0.54288(14) 0.35319(14)
C106 C 0.2162(2) 0.55370(16) 0.41680(16)
H76 H 0.1625 0.5369 0.4162
C107 C 0.2569(2) 0.58701(17) 0.47946(17)
H77 H 0.2314 0.5945 0.5223
C108 C 0.3346(2) 0.61215(17) 0.48132(17)
H78 H 0.3629 0.6348 0.5253
C109 C 0.3708(2) 0.60354(16) 0.42100(16)
H79 H 0.4244 0.6210 0.4224
C110 C 0.33189(17) 0.56843(14) 0.35526(14)
C111 C 0.37058(17) 0.55671(14) 0.29189(14)
H80 H 0.4237 0.5753 0.2924
C112 C 0.33110(16) 0.51988(13) 0.23068(14)
C113 C 0.54954(17) 0.36074(17) 0.12955(19)
H81 H 0.5500 0.3327 0.1644
H82 H 0.5965 0.3939 0.1363
H83 H 0.5465 0.3273 0.0832
C114 C 0.1309(2) 0.2727(3) 0.0809(3)
H84 H 0.1166 0.3205 0.0777
H85 H 0.0849 0.2414 0.0842
H86 H 0.1566 0.2500 0.0395
O20 O 0.23804(15) 1.01503(14) 0.31613(14)
O21 O 0.26358(16) 1.02621(14) 0.42513(14)
O22 O 0.46660(17) 0.72856(16) 0.34801(19)
O23 O 0.4391(2) 0.71344(18) 0.23829(19)
N7 N 0.26857(15) 0.99564(14) 0.36358(15)
N8 N 0.43649(17) 0.74670(17) 0.2988(2)
C155 C 0.31318(16) 0.93119(16) 0.34697(15)
C156 C 0.34228(18) 0.90566(18) 0.40092(16)
H117 H 0.3342 0.9300 0.4485
C157 C 0.38309(18) 0.84464(19) 0.38463(17)
H118 H 0.4041 0.8253 0.4211
C158 C 0.39289(16) 0.81201(17) 0.31587(17)
C159 C 0.36439(17) 0.83797(17) 0.26214(16)
H119 H 0.3724 0.8136 0.2145
C160 C 0.32381(16) 0.89834(17) 0.27823(15)
H120 H 0.3032 0.9183 0.2420
O24 O 0.42837(13) 0.70524(11) 0.06325(12)
O25 O 0.27440(11) 0.95536(10) 0.07795(9)
C121 C 0.20882(16) 0.72813(14) 0.14477(14)
C122 C 0.21561(16) 0.70288(14) 0.20275(14)
H91 H 0.2401 0.6587 0.2009
C123 C 0.18544(15) 0.74185(14) 0.26616(14)
C124 C 0.19025(16) 0.71826(15) 0.32785(14)
H92 H 0.2143 0.6741 0.3274
C125 C 0.16198(17) 0.75674(16) 0.38799(15)
H93 H 0.1652 0.7391 0.4293
C126 C 0.12807(16) 0.82206(16) 0.39025(15)
H94 H 0.1091 0.8498 0.4328
C127 C 0.12122(15) 0.84594(15) 0.33105(14)
H95 H 0.0979 0.8908 0.3328
C128 C 0.14880(14) 0.80723(14) 0.26760(13)
C129 C 0.14362(14) 0.83215(14) 0.20598(14)
H96 H 0.1199 0.8765 0.2063
C130 C 0.17305(15) 0.79394(14) 0.14692(13)
C131 C 0.23608(18) 0.70242(15) 0.07100(14)
H97 H 0.2465 0.6517 0.0560
C132 C 0.18053(16) 0.80750(15) 0.07510(13)
H98 H 0.1472 0.8410 0.0627
C133 C 0.17070(18) 0.72695(16) 0.02954(15)
H99 H 0.1211 0.7021 0.0329
H100 H 0.1806 0.7226 -0.0186
C134 C 0.30289(17) 0.76053(15) 0.06808(13)
C135 C 0.26736(15) 0.82595(15) 0.07189(12)
C136 C 0.38397(17) 0.76261(15) 0.06933(13)
C137 C 0.30976(15) 0.89248(14) 0.07815(12)
C138 C 0.42596(16) 0.82975(14) 0.07585(13)
C139 C 0.39007(16) 0.89411(15) 0.08195(13)
C140 C 0.51243(16) 0.85180(16) 0.08664(14)
H101 H 0.5456 0.8138 0.0697
C141 C 0.45469(16) 0.95652(16) 0.09870(14)
H102 H 0.4417 1.0028 0.0918
C142 C 0.51806(18) 0.91850(17) 0.05479(15)
H103 H 0.5040 0.9053 0.0054
H104 H 0.5676 0.9467 0.0647
C143 C 0.48674(14) 0.95797(15) 0.17219(13)
C144 C 0.48137(14) 1.00414(14) 0.23599(13)
H105 H 0.4569 1.0489 0.2407
C145 C 0.51288(14) 0.98643(14) 0.29643(13)
C146 C 0.50662(14) 1.03159(14) 0.36405(13)
H106 H 0.4816 1.0760 0.3693
C147 C 0.53584(15) 1.01389(16) 0.42169(14)
H107 H 0.5311 1.0456 0.4673
C148 C 0.57316(15) 0.94940(16) 0.41481(15)
H108 H 0.5934 0.9366 0.4556
C149 C 0.58081(15) 0.90483(16) 0.34992(15)
H109 H 0.6067 0.8609 0.3454
C150 C 0.55088(14) 0.92149(15) 0.28905(14)
C151 C 0.55569(15) 0.87402(16) 0.22095(14)
H110 H 0.5812 0.8297 0.2148
C152 C 0.52339(16) 0.89177(16) 0.16487(14)
C153 C 0.3970(2) 0.6396(2) 0.0678(3)
H111 H 0.3725 0.6465 0.1117
H112 H 0.4371 0.6065 0.0668
H113 H 0.3587 0.6185 0.0293
C154 C 0.25614(17) 0.99504(15) 0.14521(14)
H114 H 0.2256 0.9627 0.1670
H115 H 0.2271 1.0358 0.1412
H116 H 0.3038 1.0140 0.1736
O15? O 0.1325(3) 0.3219(3) 0.4407(3)
loop_
_geom_bond_atom_site_label_1
_geom_bond_atom_site_label_2
_geom_bond_site_symmetry_1
_geom_bond_site_symmetry_2
O1 N1 1_555 1_555
O2 N1 1_555 1_555
O3 N2 1_555 1_555
O4 N2 1_555 1_555
O5 C16 1_555 1_555
O6 C17 1_555 1_555
O7 N3 1_555 1_555
O8 N3 1_555 1_555
O9 N4 1_555 1_555
O10 N4 1_555 1_555
O11 C56 1_555 1_555
O12 C57 1_555 1_555
O13 N5 1_555 1_555
O14 N5 1_555 1_555
O16 N6 1_555 1_555
O17 N6 1_555 1_555
O18 C96 1_555 1_555
O19 C97 1_555 1_555
O20 N7 1_555 1_555
O21 N7 1_555 1_555
O22 N8 1_555 1_555
O23 N8 1_555 1_555
O24 C136 1_555 1_555
O25 C137 1_555 1_555
N1 C35 1_555 1_555
N2 C38 1_555 1_555
N3 C75 1_555 1_555
N4 C78 1_555 1_555
N5 C115 1_555 1_555
N6 C118 1_555 1_555
N7 C155 1_555 1_555
N8 C158 1_555 1_555
C1 C2 1_555 1_555
C2 H1 1_555 1_555
C3 C2 1_555 1_555
C4 C3 1_555 1_555
H2 C4 1_555 1_555
C5 C4 1_555 1_555
H3 C5 1_555 1_555
C6 C5 1_555 1_555
H4 C6 1_555 1_555
C7 C6 1_555 1_555
H5 C7 1_555 1_555
C8 C3 1_555 1_555
C9 C8 1_555 1_555
H6 C9 1_555 1_555
C10 C1 1_555 1_555
C11 C1 1_555 1_555
H7 C11 1_555 1_555
C12 C10 1_555 1_555
H8 C12 1_555 1_555
C13 C11 1_555 1_555
H9 C13 1_555 1_555
H10 C13 1_555 1_555
C14 C11 1_555 1_555
C15 C12 1_555 1_555
C16 C14 1_555 1_555
C17 C15 1_555 1_555
C18 C16 1_555 1_555
C19 C17 1_555 1_555
C20 C18 1_555 1_555
H11 C20 1_555 1_555
C21 C19 1_555 1_555
H12 C21 1_555 1_555
C22 C20 1_555 1_555
H13 C22 1_555 1_555
H14 C22 1_555 1_555
C23 C21 1_555 1_555
C24 C23 1_555 1_555
H15 C24 1_555 1_555
C25 C24 1_555 1_555
C26 C25 1_555 1_555
H16 C26 1_555 1_555
C27 C26 1_555 1_555
H17 C27 1_555 1_555
C28 C27 1_555 1_555
H18 C28 1_555 1_555
C29 C28 1_555 1_555
H19 C29 1_555 1_555
C30 C25 1_555 1_555
C31 C30 1_555 1_555
H20 C31 1_555 1_555
C32 C20 1_555 1_555
C33 O5 1_555 1_555
H21 C33 1_555 1_555
H22 C33 1_555 1_555
H23 C33 1_555 1_555
C34 O6 1_555 1_555
H24 C34 1_555 1_555
H25 C34 1_555 1_555
H26 C34 1_555 1_555
C35 C36 1_555 1_555
C36 H27 1_555 1_555
C37 C36 1_555 1_555
H28 C37 1_555 1_555
C38 C37 1_555 1_555
C39 C38 1_555 1_555
H29 C39 1_555 1_555
C40 C35 1_555 1_555
H30 C40 1_555 1_555
C41 C42 1_555 1_555
C42 H31 1_555 1_555
C43 C42 1_555 1_555
C44 C43 1_555 1_555
H32 C44 1_555 1_555
C45 C44 1_555 1_555
H33 C45 1_555 1_555
C46 C45 1_555 1_555
H34 C46 1_555 1_555
C47 C46 1_555 1_555
H35 C47 1_555 1_555
C48 C43 1_555 1_555
C49 C48 1_555 1_555
H36 C49 1_555 1_555
C50 C41 1_555 1_555
C51 C41 1_555 1_555
H37 C51 1_555 1_555
C52 C50 1_555 1_555
H38 C52 1_555 1_555
C53 C51 1_555 1_555
H39 C53 1_555 1_555
H40 C53 1_555 1_555
C54 C51 1_555 1_555
C55 C52 1_555 1_555
C56 C54 1_555 1_555
C57 C55 1_555 1_555
C58 C56 1_555 1_555
C59 C57 1_555 1_555
C60 C58 1_555 1_555
H41 C60 1_555 1_555
C61 C59 1_555 1_555
H42 C61 1_555 1_555
C62 C60 1_555 1_555
H43 C62 1_555 1_555
H44 C62 1_555 1_555
C63 C61 1_555 1_555
C64 C63 1_555 1_555
H45 C64 1_555 1_555
C65 C64 1_555 1_555
C66 C65 1_555 1_555
H46 C66 1_555 1_555
C67 C66 1_555 1_555
H47 C67 1_555 1_555
C68 C67 1_555 1_555
H48 C68 1_555 1_555
C69 C68 1_555 1_555
H49 C69 1_555 1_555
C70 C65 1_555 1_555
C71 C70 1_555 1_555
H50 C71 1_555 1_555
C72 C60 1_555 1_555
C73 O11 1_555 1_555
H51 C73 1_555 1_555
H52 C73 1_555 1_555
H53 C73 1_555 1_555
C74 O12 1_555 1_555
H54 C74 1_555 1_555
H55 C74 1_555 1_555
H56 C74 1_555 1_555
C75 C76 1_555 1_555
C76 H57 1_555 1_555
C77 C76 1_555 1_555
H58 C77 1_555 1_555
C78 C77 1_555 1_555
C79 C78 1_555 1_555
H59 C79 1_555 1_555
C80 C75 1_555 1_555
H60 C80 1_555 1_555
C81 C82 1_555 1_555
C82 H61 1_555 1_555
C83 C82 1_555 1_555
C84 C83 1_555 1_555
H62 C84 1_555 1_555
C85 C84 1_555 1_555
H63 C85 1_555 1_555
C86 C85 1_555 1_555
H64 C86 1_555 1_555
C87 C86 1_555 1_555
H65 C87 1_555 1_555
C88 C83 1_555 1_555
C89 C88 1_555 1_555
H66 C89 1_555 1_555
C90 C81 1_555 1_555
C91 C81 1_555 1_555
H67 C91 1_555 1_555
C92 C90 1_555 1_555
H68 C92 1_555 1_555
C93 C91 1_555 1_555
H69 C93 1_555 1_555
H70 C93 1_555 1_555
C94 C91 1_555 1_555
C95 C92 1_555 1_555
C96 C94 1_555 1_555
C97 C95 1_555 1_555
C98 C96 1_555 1_555
C99 C97 1_555 1_555
C100 C98 1_555 1_555
H71 C100 1_555 1_555
C101 C99 1_555 1_555
H72 C101 1_555 1_555
C102 C100 1_555 1_555
H73 C102 1_555 1_555
H74 C102 1_555 1_555
C103 C101 1_555 1_555
C104 C103 1_555 1_555
H75 C104 1_555 1_555
C105 C104 1_555 1_555
C106 C105 1_555 1_555
H76 C106 1_555 1_555
C107 C106 1_555 1_555
H77 C107 1_555 1_555
C108 C107 1_555 1_555
H78 C108 1_555 1_555
C109 C108 1_555 1_555
H79 C109 1_555 1_555
C110 C105 1_555 1_555
C111 C110 1_555 1_555
H80 C111 1_555 1_555
C112 C100 1_555 1_555
C113 O18 1_555 1_555
H81 C113 1_555 1_555
H82 C113 1_555 1_555
H83 C113 1_555 1_555
C114 O19 1_555 1_555
H84 C114 1_555 1_555
H85 C114 1_555 1_555
H86 C114 1_555 1_555
C115 C116 1_555 1_555
C116 H87 1_555 1_555
C117 C116 1_555 1_555
H88 C117 1_555 1_555
C118 C117 1_555 1_555
C119 C118 1_555 1_555
H89 C119 1_555 1_555
C120 C115 1_555 1_555
H90 C120 1_555 1_555
C121 C122 1_555 1_555
C122 H91 1_555 1_555
C123 C122 1_555 1_555
C124 C123 1_555 1_555
H92 C124 1_555 1_555
C125 C124 1_555 1_555
H93 C125 1_555 1_555
C126 C125 1_555 1_555
H94 C126 1_555 1_555
C127 C126 1_555 1_555
H95 C127 1_555 1_555
C128 C123 1_555 1_555
C129 C128 1_555 1_555
H96 C129 1_555 1_555
C130 C121 1_555 1_555
C131 C121 1_555 1_555
H97 C131 1_555 1_555
C132 C130 1_555 1_555
H98 C132 1_555 1_555
C133 C131 1_555 1_555
H99 C133 1_555 1_555
H100 C133 1_555 1_555
C134 C131 1_555 1_555
C135 C132 1_555 1_555
C136 C134 1_555 1_555
C137 C135 1_555 1_555
C138 C136 1_555 1_555
C139 C137 1_555 1_555
C140 C138 1_555 1_555
H101 C140 1_555 1_555
C141 C139 1_555 1_555
H102 C141 1_555 1_555
C142 C140 1_555 1_555
H103 C142 1_555 1_555
H104 C142 1_555 1_555
C143 C141 1_555 1_555
C144 C143 1_555 1_555
H105 C144 1_555 1_555
C145 C144 1_555 1_555
C146 C145 1_555 1_555
H106 C146 1_555 1_555
C147 C146 1_555 1_555
H107 C147 1_555 1_555
C148 C147 1_555 1_555
H108 C148 1_555 1_555
C149 C148 1_555 1_555
H109 C149 1_555 1_555
C150 C145 1_555 1_555
C151 C150 1_555 1_555
H110 C151 1_555 1_555
C152 C140 1_555 1_555
C153 O24 1_555 1_555
H111 C153 1_555 1_555
H112 C153 1_555 1_555
H113 C153 1_555 1_555
C154 O25 1_555 1_555
H114 C154 1_555 1_555
H115 C154 1_555 1_555
H116 C154 1_555 1_555
C155 C156 1_555 1_555
C156 H117 1_555 1_555
C157 C156 1_555 1_555
H118 C157 1_555 1_555
C158 C157 1_555 1_555
C159 C158 1_555 1_555
H119 C159 1_555 1_555
C160 C155 1_555 1_555
H120 C160 1_555 1_555
C7 C8 1_555 1_555
C9 C10 1_555 1_555
C12 C13 1_555 1_555
C14 C15 1_555 1_555
C18 C19 1_555 1_555
C21 C22 1_555 1_555
C23 C32 1_555 1_555
C29 C30 1_555 1_555
C31 C32 1_555 1_555
C39 C40 1_555 1_555
C47 C48 1_555 1_555
C49 C50 1_555 1_555
C52 C53 1_555 1_555
C54 C55 1_555 1_555
C58 C59 1_555 1_555
C61 C62 1_555 1_555
C63 C72 1_555 1_555
C69 C70 1_555 1_555
C71 C72 1_555 1_555
C79 C80 1_555 1_555
C87 C88 1_555 1_555
C89 C90 1_555 1_555
C92 C93 1_555 1_555
C94 C95 1_555 1_555
C98 C99 1_555 1_555
C101 C102 1_555 1_555
C103 C112 1_555 1_555
C109 C110 1_555 1_555
C111 C112 1_555 1_555
C119 C120 1_555 1_555
C127 C128 1_555 1_555
C129 C130 1_555 1_555
C132 C133 1_555 1_555
C134 C135 1_555 1_555
C138 C139 1_555 1_555
C141 C142 1_555 1_555
C143 C152 1_555 1_555
C149 C150 1_555 1_555
C151 C152 1_555 1_555
C159 C160 1_555 1_555

#END
