
#######################################################################
#
#                 Cambridge Crystallographic Data Centre
#                                CCDC 
#
#######################################################################
#
# If this CIF has been generated from an entry in the Cambridge 
# Structural Database, then it will include bibliographic, chemical, 
# crystal, experimental, refinement or atomic coordinate data resulting 
# from the CCDC's data processing and validation procedures.
#
#######################################################################

data_UBIDIS
_chemical_formula_moiety         'C22 H26 O7'
_chemical_name_systematic        
14-Hydroxy-4,5-dimethoxy-9,17-bis(methoxymethyl)-10-oxatetracyclo[7.6.2.0^1,11^.0^2,7^]heptadeca-2,4,6,11,14-pentaen-13-one
_symmetry_cell_setting           monoclinic
_symmetry_space_group_name_H-M   'P 21'
_symmetry_Int_Tables_number      4
_space_group_name_Hall           'P 2yb'
loop_
_symmetry_equiv_pos_site_id
_symmetry_equiv_pos_as_xyz
1 x,y,z
2 -x,1/2+y,-z
_cell_length_a                   9.243(2)
_cell_length_b                   11.378(2)
_cell_length_c                   9.534(2)
_cell_angle_alpha                90
_cell_angle_beta                 98.46(3)
_cell_angle_gamma                90
_cell_volume                     991.751
_exptl_crystal_colour            colorless
_exptl_crystal_description       needle
_chemical_melting_point          154deg.C
_cell_formula_units_Z            2
_exptl_crystal_recrystallization_method methanol
loop_
_atom_site_label
_atom_site_type_symbol
_atom_site_fract_x
_atom_site_fract_y
_atom_site_fract_z
O1 O -0.2036(3) 0.2242(2) 0.8910(2)
O2 O 0.0474(3) 0.1322(2) 0.9876(2)
O3 O 0.1023(2) 0.21279(19) 0.3459(2)
O4 O 0.3644(3) 0.0974(2) 0.3735(3)
O5 O 0.3241(3) 0.4272(2) 0.1503(3)
O6 O -0.3868(3) 0.2799(3) 0.1505(3)
O7 O -0.4085(3) 0.4695(2) 0.3142(3)
H1 H -0.4661 0.4402 0.2500
C1 C -0.3508(4) 0.2511(4) 0.8293(4)
H2 H -0.3575 0.3328 0.8037
H3 H -0.4158 0.2349 0.8967
H4 H -0.3777 0.2038 0.7462
C2 C -0.0982(4) 0.2373(3) 0.8082(3)
C3 C 0.0392(4) 0.1878(3) 0.8586(3)
C4 C 0.1718(5) 0.0597(4) 1.0305(4)
H5 H 0.1755 -0.0015 0.9618
H6 H 0.1645 0.0255 1.1212
H7 H 0.2590 0.1064 1.0373
C5 C 0.1491(4) 0.1940(3) 0.7767(4)
H8 H 0.2375 0.1569 0.8083
C6 C 0.1331(4) 0.2543(3) 0.6464(3)
C7 C -0.0027(4) 0.3049(3) 0.5973(3)
C8 C -0.1153(4) 0.2950(3) 0.6780(3)
H9 H -0.2056 0.3282 0.6440
C9 C -0.0279(4) 0.3685(3) 0.4517(3)
C10 C 0.0973(4) 0.4579(3) 0.4391(4)
H10 H 0.0567 0.5261 0.3862
H11 H 0.1390 0.4840 0.5333
C11 C 0.2182(4) 0.4059(3) 0.3658(4)
H12 H 0.3096 0.4458 0.4035
C12 C 0.2356(4) 0.2745(3) 0.4069(3)
C13 C 0.3578(4) 0.2182(3) 0.3421(4)
H13 H 0.3412 0.2293 0.2401
H14 H 0.4501 0.2551 0.3794
C14 C 0.4974(5) 0.0471(4) 0.3488(5)
H15 H 0.5077 0.0562 0.2507
H16 H 0.4981 -0.0350 0.3722
H17 H 0.5771 0.0858 0.4067
C15 C 0.2640(4) 0.2571(3) 0.5701(3)
H18 H 0.3170 0.1840 0.5898
H19 H 0.3278 0.3200 0.6107
C16 C 0.1907(4) 0.4265(3) 0.2045(4)
H20 H 0.1283 0.3647 0.1591
H21 H 0.1411 0.5010 0.1842
C17 C 0.3084(4) 0.4473(4) 0.0014(4)
H22 H 0.2529 0.3845 -0.0476
H23 H 0.4033 0.4506 -0.0279
H24 H 0.2585 0.5205 -0.0207
C18 C -0.0255(4) 0.2723(3) 0.3432(3)
C19 C -0.1412(4) 0.2395(3) 0.2471(4)
H25 H -0.1338 0.1753 0.1882
C20 C -0.2764(4) 0.3052(3) 0.2369(4)
C21 C -0.2829(4) 0.4063(3) 0.3332(3)
C22 C -0.1700(4) 0.4334(3) 0.4315(4)
H26 H -0.1802 0.4966 0.4911
loop_
_geom_bond_atom_site_label_1
_geom_bond_atom_site_label_2
_geom_bond_site_symmetry_1
_geom_bond_site_symmetry_2
O1 C1 1_555 1_555
O2 C3 1_555 1_555
O3 C12 1_555 1_555
O4 C13 1_555 1_555
O5 C16 1_555 1_555
O6 C20 1_555 1_555
O7 H1 1_555 1_555
C1 H2 1_555 1_555
H3 C1 1_555 1_555
H4 C1 1_555 1_555
C2 O1 1_555 1_555
C3 C2 1_555 1_555
C4 O2 1_555 1_555
H5 C4 1_555 1_555
H6 C4 1_555 1_555
H7 C4 1_555 1_555
C5 C3 1_555 1_555
H8 C5 1_555 1_555
C6 C5 1_555 1_555
C7 C6 1_555 1_555
C8 C2 1_555 1_555
H9 C8 1_555 1_555
C9 C7 1_555 1_555
C10 C9 1_555 1_555
H10 C10 1_555 1_555
H11 C10 1_555 1_555
C11 C10 1_555 1_555
H12 C11 1_555 1_555
C12 C11 1_555 1_555
C13 C12 1_555 1_555
H13 C13 1_555 1_555
H14 C13 1_555 1_555
C14 O4 1_555 1_555
H15 C14 1_555 1_555
H16 C14 1_555 1_555
H17 C14 1_555 1_555
C15 C6 1_555 1_555
H18 C15 1_555 1_555
H19 C15 1_555 1_555
C16 C11 1_555 1_555
H20 C16 1_555 1_555
H21 C16 1_555 1_555
C17 O5 1_555 1_555
H22 C17 1_555 1_555
H23 C17 1_555 1_555
H24 C17 1_555 1_555
C18 O3 1_555 1_555
C19 C18 1_555 1_555
H25 C19 1_555 1_555
C20 C19 1_555 1_555
C21 O7 1_555 1_555
C22 C9 1_555 1_555
H26 C22 1_555 1_555
C7 C8 1_555 1_555
C9 C18 1_555 1_555
C12 C15 1_555 1_555
C20 C21 1_555 1_555
C21 C22 1_555 1_555

#END
