
#######################################################################
#
#                 Cambridge Crystallographic Data Centre
#                                CCDC 
#
#######################################################################
#
# If this CIF has been generated from an entry in the Cambridge 
# Structural Database, then it will include bibliographic, chemical, 
# crystal, experimental, refinement or atomic coordinate data resulting 
# from the CCDC's data processing and validation procedures.
#
#######################################################################

data_UBIGOB
_chemical_formula_moiety         'C34 H48 O14'
_chemical_name_systematic        
1,4,7,10,13,20,23,26,29,32-Decaoxa-15,18-bis(ethoxycarbonyl)[13.13]paracyclophane
_symmetry_cell_setting           monoclinic
_symmetry_space_group_name_H-M   'P 21/c'
_symmetry_Int_Tables_number      14
_space_group_name_Hall           '-P 2ybc'
loop_
_symmetry_equiv_pos_site_id
_symmetry_equiv_pos_as_xyz
1 x,y,z
2 x,1/2-y,1/2+z
3 -x,-y,-z
4 -x,1/2+y,1/2-z
_cell_length_a                   12.2316(7)
_cell_length_b                   8.7076(4)
_cell_length_c                   32.9862(13)
_cell_angle_alpha                90
_cell_angle_beta                 95.050(6)
_cell_angle_gamma                90
_cell_volume                     3499.65
_exptl_crystal_description       prisms
_chemical_melting_point          84-85deg.C
_cell_formula_units_Z            4
_exptl_crystal_recrystallization_method heptane/dichloromethane
loop_
_atom_site_label
_atom_site_type_symbol
_atom_site_fract_x
_atom_site_fract_y
_atom_site_fract_z
O1 O 0.2685(2) 0.1984(3) 0.44319(6)
C1 C 0.3564(3) 0.1050(3) 0.46032(8)
H1 H 0.4244(3) 0.1629(3) 0.46219(8)
H2 H 0.3651(3) 0.0161(3) 0.44315(8)
C2 C 0.3310(3) 0.0545(3) 0.50166(9)
H3 H 0.2605(3) 0.0030(3) 0.49999(9)
H4 H 0.3866(3) -0.0170(3) 0.51279(9)
O2 O 0.3287(2) 0.1834(2) 0.52694(6)
C3 C 0.3310(3) 0.1487(4) 0.56866(8)
H5 H 0.3991(3) 0.0972(4) 0.57768(8)
H6 H 0.2705(3) 0.0810(4) 0.57351(8)
C4 C 0.3216(2) 0.2946(4) 0.59154(8)
H7 H 0.2542(2) 0.3471(4) 0.58207(8)
H8 H 0.3197(2) 0.2730(4) 0.62032(8)
O3 O 0.41297(15) 0.3888(2) 0.58535(5)
C5 C 0.4040(3) 0.5413(4) 0.59989(8)
H9 H 0.4772(3) 0.5845(4) 0.60455(8)
H10 H 0.3728(3) 0.5379(4) 0.62591(8)
C6 C 0.3357(3) 0.6463(4) 0.57213(10)
H11 H 0.2623(3) 0.6038(4) 0.56786(10)
H12 H 0.3300(3) 0.7445(4) 0.58566(10)
O4 O 0.3751(2) 0.6722(3) 0.53377(6)
C7 C 0.3523(2) 0.5529(3) 0.50499(8)
H13 H 0.2789(2) 0.5133(3) 0.50708(8)
H14 H 0.4041(2) 0.4694(3) 0.51022(8)
C8 C 0.3614(2) 0.6174(3) 0.46307(8)
H15 H 0.4224(2) 0.6889(3) 0.46350(8)
H16 H 0.3740(2) 0.5354(3) 0.44414(8)
O5 O 0.26065(15) 0.6946(2) 0.45081(5)
C9 C 0.2481(2) 0.7574(3) 0.41307(7)
C10 C 0.1434(2) 0.8114(3) 0.39896(7)
C11 C 0.1275(2) 0.8772(3) 0.36041(7)
H17 H 0.0579(2) 0.9119(3) 0.35111(7)
C12 C 0.2124(2) 0.8924(3) 0.33552(7)
C13 C 0.3164(2) 0.8378(3) 0.34969(7)
C14 C 0.3332(2) 0.7708(3) 0.38785(7)
H18 H 0.4026(2) 0.7342(3) 0.39680(7)
O6 O 0.2015(2) 0.9589(2) 0.29793(5)
C15 C 0.1048(2) 1.0467(3) 0.28687(7)
H19 H 0.0970(2) 1.1277(3) 0.30660(7)
H20 H 0.0404(2) 0.9815(3) 0.28600(7)
C16 C 0.1168(3) 1.1142(3) 0.24565(8)
H21 H 0.0618(3) 1.1931(3) 0.23967(8)
H22 H 0.1887(3) 1.1607(3) 0.24514(8)
O7 O 0.1036(2) 0.9963(2) 0.21620(5)
C17 C 0.1292(3) 1.0455(4) 0.17730(8)
H23 H 0.2056(3) 1.0764(4) 0.17827(8)
H24 H 0.0839(3) 1.1326(4) 0.16844(8)
C18 C 0.1082(3) 0.9135(4) 0.14815(8)
H25 H 0.0343(3) 0.8750(4) 0.14975(8)
H26 H 0.1146(3) 0.9485(4) 0.12054(8)
O8 O 0.1847(2) 0.7952(2) 0.15794(6)
C19 C 0.1506(3) 0.6499(4) 0.14206(8)
H27 H 0.1604(3) 0.6462(4) 0.11322(8)
H28 H 0.0731(3) 0.6355(4) 0.14526(8)
C20 C 0.2148(3) 0.5238(4) 0.16340(9)
H29 H 0.2068(3) 0.4318(4) 0.14685(9)
H30 H 0.2918(3) 0.5519(4) 0.16575(9)
O9 O 0.1833(2) 0.4897(3) 0.20272(6)
C21 C 0.2178(3) 0.6009(4) 0.23280(8)
H31 H 0.1790(3) 0.6967(4) 0.22703(8)
H32 H 0.2958(3) 0.6202(4) 0.23232(8)
C22 C 0.1947(3) 0.5433(3) 0.27384(8)
H33 H 0.1985(3) 0.6277(3) 0.29312(8)
H34 H 0.1213(3) 0.5003(3) 0.27254(8)
O10 O 0.2733(2) 0.4284(3) 0.28709(6)
C23 C 0.2697(2) 0.3755(3) 0.32613(8)
C24 C 0.3466(2) 0.2658(3) 0.33930(8)
H35 H 0.3968(2) 0.2319(3) 0.32168(8)
C25 C 0.3502(2) 0.2059(3) 0.37812(8)
H36 H 0.4034(2) 0.1337(3) 0.38661(8)
C26 C 0.2747(2) 0.2531(3) 0.40447(8)
C27 C 0.1982(2) 0.3638(4) 0.39138(9)
H37 H 0.1477(2) 0.3971(4) 0.40895(9)
C28 C 0.1955(2) 0.4256(4) 0.35271(8)
H38 H 0.1441(2) 0.5006(4) 0.34454(8)
C29 C 0.0439(2) 0.8002(4) 0.42191(8)
O11 O -0.0479(3) 0.7804(8) 0.40451(12)
O12 O 0.0650(3) 0.8141(6) 0.46221(10)
C30 C -0.0270(5) 0.8007(10) 0.4868(2)
H39 H -0.0724(5) 0.7140(10) 0.4776(2)
H40 H -0.0715(5) 0.8930(10) 0.4842(2)
C31 C 0.0153(6) 0.7791(13) 0.5290(2)
H41 H -0.0448(6) 0.7699(13) 0.5457(2)
H42 H 0.0598(6) 0.8657(13) 0.5379(2)
H43 H 0.0590(6) 0.6873(13) 0.5314(2)
C34 C 0.4159(2) 0.8618(3) 0.32689(8)
O15 O 0.5019(2) 0.9045(4) 0.34326(7)
O16 O 0.3985(2) 0.8409(4) 0.28766(6)
C35 C 0.4846(3) 0.8869(7) 0.26239(11)
H49 H 0.5305(3) 0.9646(7) 0.27641(11)
H50 H 0.5304(3) 0.7991(7) 0.25744(11)
C36 C 0.4369(4) 0.9469(7) 0.22442(13)
H51 H 0.4941(4) 0.9770(7) 0.20794(13)
H52 H 0.3923(4) 1.0344(7) 0.22941(13)
H53 H 0.3922(4) 0.8693(7) 0.21047(13)
O13? O -0.0426(8) 0.8487(9) 0.4090(3)
O14? O 0.0580(6) 0.7492(8) 0.4579(2)
C32? C -0.0352(11) 0.7308(14) 0.4810(4)
H44? H -0.0721(11) 0.8286(14) 0.4835(4)
H45? H -0.0869(11) 0.6590(14) 0.4675(4)
C33? C 0.0021(20) 0.6755(27) 0.5194(7)
H46? H -0.0590(20) 0.6623(27) 0.5355(7)
H47? H 0.0529(20) 0.7476(27) 0.5326(7)
H48? H 0.0381(20) 0.5787(27) 0.5167(7)
loop_
_geom_bond_atom_site_label_1
_geom_bond_atom_site_label_2
_geom_bond_site_symmetry_1
_geom_bond_site_symmetry_2
O1 C1 1_555 1_555
C1 H1 1_555 1_555
H2 C1 1_555 1_555
C2 C1 1_555 1_555
H3 C2 1_555 1_555
H4 C2 1_555 1_555
O2 C2 1_555 1_555
C3 O2 1_555 1_555
H5 C3 1_555 1_555
H6 C3 1_555 1_555
C4 C3 1_555 1_555
H7 C4 1_555 1_555
H8 C4 1_555 1_555
O3 C4 1_555 1_555
C5 O3 1_555 1_555
H9 C5 1_555 1_555
H10 C5 1_555 1_555
C6 C5 1_555 1_555
H11 C6 1_555 1_555
H12 C6 1_555 1_555
O4 C6 1_555 1_555
C7 O4 1_555 1_555
H13 C7 1_555 1_555
H14 C7 1_555 1_555
C8 C7 1_555 1_555
H15 C8 1_555 1_555
H16 C8 1_555 1_555
O5 C8 1_555 1_555
C9 O5 1_555 1_555
C10 C9 1_555 1_555
C11 C10 1_555 1_555
H17 C11 1_555 1_555
C12 C11 1_555 1_555
C13 C12 1_555 1_555
C14 C9 1_555 1_555
H18 C14 1_555 1_555
O6 C12 1_555 1_555
C15 O6 1_555 1_555
H19 C15 1_555 1_555
H20 C15 1_555 1_555
C16 C15 1_555 1_555
H21 C16 1_555 1_555
H22 C16 1_555 1_555
O7 C16 1_555 1_555
C17 O7 1_555 1_555
H23 C17 1_555 1_555
H24 C17 1_555 1_555
C18 C17 1_555 1_555
H25 C18 1_555 1_555
H26 C18 1_555 1_555
O8 C18 1_555 1_555
C19 O8 1_555 1_555
H27 C19 1_555 1_555
H28 C19 1_555 1_555
C20 C19 1_555 1_555
H29 C20 1_555 1_555
H30 C20 1_555 1_555
O9 C20 1_555 1_555
C21 O9 1_555 1_555
H31 C21 1_555 1_555
H32 C21 1_555 1_555
C22 C21 1_555 1_555
H33 C22 1_555 1_555
H34 C22 1_555 1_555
O10 C22 1_555 1_555
C23 O10 1_555 1_555
C24 C23 1_555 1_555
H35 C24 1_555 1_555
C25 C24 1_555 1_555
H36 C25 1_555 1_555
C26 O1 1_555 1_555
C27 C26 1_555 1_555
H37 C27 1_555 1_555
C28 C23 1_555 1_555
H38 C28 1_555 1_555
C29 C10 1_555 1_555
O11 C29 1_555 1_555
O12 C29 1_555 1_555
C30 O12 1_555 1_555
H39 C30 1_555 1_555
H40 C30 1_555 1_555
C31 C30 1_555 1_555
H41 C31 1_555 1_555
H42 C31 1_555 1_555
H43 C31 1_555 1_555
C34 C13 1_555 1_555
O15 C34 1_555 1_555
O16 C34 1_555 1_555
C35 O16 1_555 1_555
H49 C35 1_555 1_555
H50 C35 1_555 1_555
C36 C35 1_555 1_555
H51 C36 1_555 1_555
H52 C36 1_555 1_555
H53 C36 1_555 1_555
C13 C14 1_555 1_555
C25 C26 1_555 1_555
C27 C28 1_555 1_555

#END
