
#######################################################################
#
#                 Cambridge Crystallographic Data Centre
#                                CCDC 
#
#######################################################################
#
# If this CIF has been generated from an entry in the Cambridge 
# Structural Database, then it will include bibliographic, chemical, 
# crystal, experimental, refinement or atomic coordinate data resulting 
# from the CCDC's data processing and validation procedures.
#
#######################################################################

data_UBIGIV
_chemical_formula_moiety         'C72 H48,4.5(C1 H1 Cl3)'
_chemical_name_systematic        'rac-Dodecaphenylene chloroform solvate'
_symmetry_cell_setting           monoclinic
_symmetry_space_group_name_H-M   'P 21/n'
_symmetry_Int_Tables_number      14
_space_group_name_Hall           '-P 2yn'
loop_
_symmetry_equiv_pos_site_id
_symmetry_equiv_pos_as_xyz
1 x,y,z
2 1/2+x,1/2-y,1/2+z
3 -x,-y,-z
4 1/2-x,1/2+y,1/2-z
_cell_length_a                   13.561(1)
_cell_length_b                   23.301(2)
_cell_length_c                   21.764(2)
_cell_angle_alpha                90
_cell_angle_beta                 92.269(2)
_cell_angle_gamma                90
_cell_volume                     6871.7
_exptl_crystal_colour            colorless
_exptl_crystal_description       needle
_cell_formula_units_Z            4
loop_
_atom_site_label
_atom_site_type_symbol
_atom_site_fract_x
_atom_site_fract_y
_atom_site_fract_z
C1 C 0.8341(2) 0.02201(11) -0.05722(12)
C2 C 0.7634(2) -0.01549(11) -0.03410(12)
C3 C 0.7326(2) -0.06264(11) -0.06815(13)
H1 H 0.6859 -0.0880 -0.0512
C4 C 0.7669(2) -0.07473(11) -0.12632(13)
C5 C 0.7270(2) -0.12417(12) -0.16350(13)
C6 C 0.6410(2) -0.15230(14) -0.14809(15)
H2 H 0.6075 -0.1402 -0.1128
C7 C 0.6030(2) -0.19746(15) -0.18292(15)
H3 H 0.5449 -0.2162 -0.1704
C8 C 0.6476(2) -0.21595(13) -0.23562(15)
C9 C 0.6033(2) -0.26270(14) -0.27386(15)
C10 C 0.5590(2) -0.30990(15) -0.24749(18)
H4 H 0.5589 -0.3130 -0.2040
C11 C 0.5151(3) -0.35244(16) -0.2834(2)
H5 H 0.4865 -0.3849 -0.2645
C12 C 0.5127(3) -0.34786(18) -0.3465(2)
H6 H 0.4809 -0.3764 -0.3714
C13 C 0.5564(3) -0.3022(2) -0.37287(19)
H7 H 0.5558 -0.2992 -0.4164
C14 C 0.6016(3) -0.25992(18) -0.33744(17)
H8 H 0.6320 -0.2284 -0.3569
C15 C 0.7354(3) -0.18884(14) -0.25016(16)
H9 H 0.7694 -0.2014 -0.2851
C16 C 0.7741(3) -0.14435(14) -0.21515(15)
H10 H 0.8342 -0.1270 -0.2264
C17 C 0.8385(2) -0.03820(12) -0.14864(13)
H11 H 0.8648 -0.0455 -0.1877
C18 C 0.8719(2) 0.00866(12) -0.11459(13)
H12 H 0.9218 0.0324 -0.1305
C19 C 0.72137(19) -0.00700(11) 0.02774(12)
C20 C 0.6560(2) 0.03828(11) 0.03874(13)
C21 C 0.6113(2) 0.04060(12) 0.09513(14)
H13 H 0.5658 0.0705 0.1026
C22 C 0.6317(2) 0.00022(12) 0.14087(14)
H14 H 0.6004 0.0031 0.1790
C23 C 0.6980(2) -0.04466(11) 0.13125(13)
C24 C 0.7234(2) -0.08632(12) 0.18071(14)
C25 C 0.7243(2) -0.07036(14) 0.24256(14)
H15 H 0.7045 -0.0327 0.2532
C26 C 0.7536(3) -0.10842(14) 0.28885(15)
H16 H 0.7539 -0.0963 0.3305
C27 C 0.7826(2) -0.16410(13) 0.27515(14)
C28 C 0.8203(2) -0.20435(15) 0.32474(15)
C29 C 0.8710(3) -0.18323(18) 0.37756(16)
H17 H 0.8809 -0.1431 0.3824
C30 C 0.9067(3) -0.2206(2) 0.42266(17)
H18 H 0.9414 -0.2058 0.4580
C31 C 0.8926(3) -0.2795(2) 0.41691(19)
H19 H 0.9173 -0.3049 0.4480
C32 C 0.8427(3) -0.30020(18) 0.3661(2)
H20 H 0.8322 -0.3403 0.3619
C33 C 0.8067(3) -0.26294(16) 0.31983(18)
H21 H 0.7724 -0.2782 0.2846
C34 C 0.7792(2) -0.18070(13) 0.21405(15)
H22 H 0.7971 -0.2188 0.2037
C35 C 0.7501(2) -0.14276(13) 0.16767(14)
H23 H 0.7484 -0.1554 0.1262
C36 C 0.7403(2) -0.04771(11) 0.07394(13)
H24 H 0.7836 -0.0786 0.0660
C37 C 0.6318(2) 0.08300(11) -0.00848(13)
C38 C 0.7035(2) 0.12159(11) -0.02831(12)
C39 C 0.6748(2) 0.16723(11) -0.06621(12)
H25 H 0.7235 0.1936 -0.0788
C40 C 0.5770(2) 0.17546(11) -0.08630(13)
C41 C 0.5483(2) 0.22670(12) -0.12398(13)
C42 C 0.5892(2) 0.28015(12) -0.11078(14)
H26 H 0.6371 0.2836 -0.0779
C43 C 0.5619(2) 0.32850(12) -0.14428(13)
H27 H 0.5908 0.3645 -0.1339
C44 C 0.4925(2) 0.32487(12) -0.19316(13)
C45 C 0.4635(2) 0.37723(12) -0.22953(14)
C46 C 0.4676(3) 0.43154(13) -0.20321(16)
H28 H 0.4893 0.4356 -0.1614
C47 C 0.4407(3) 0.47987(14) -0.23677(17)
H29 H 0.4444 0.5166 -0.2180
C48 C 0.4086(2) 0.47487(14) -0.29717(16)
H30 H 0.3900 0.5081 -0.3201
C49 C 0.4036(2) 0.42188(14) -0.32423(15)
H31 H 0.3815 0.4183 -0.3660
C50 C 0.4307(2) 0.37358(14) -0.29082(14)
H32 H 0.4268 0.3370 -0.3101
C51 C 0.4516(2) 0.27139(13) -0.20672(14)
H33 H 0.4039 0.2680 -0.2396
C52 C 0.4789(2) 0.22302(12) -0.17347(14)
H34 H 0.4504 0.1870 -0.1842
C53 C 0.5070(2) 0.13521(12) -0.06878(14)
H35 H 0.4404 0.1386 -0.0837
C54 C 0.5341(2) 0.09033(12) -0.02973(13)
H36 H 0.4853 0.0641 -0.0172
C55 C 0.8096(2) 0.11887(11) -0.00685(12)
C56 C 0.8716(2) 0.07276(11) -0.02225(12)
C57 C 0.9722(2) 0.07738(11) -0.00587(13)
H37 H 1.0158 0.0476 -0.0174
C58 C 1.0101(2) 0.12411(12) 0.02664(13)
H38 H 1.0785 0.1253 0.0377
C59 C 0.9492(2) 0.16953(11) 0.04340(12)
C60 C 0.9866(2) 0.21894(12) 0.08086(13)
C61 C 1.0874(2) 0.22821(15) 0.09300(17)
H39 H 1.1341 0.2039 0.0745
C62 C 1.1209(3) 0.27239(15) 0.13176(17)
H40 H 1.1898 0.2774 0.1393
C63 C 1.0555(2) 0.30947(12) 0.15978(14)
C64 C 1.0904(2) 0.35413(13) 0.20373(14)
C65 C 1.1728(2) 0.34605(14) 0.24232(15)
H41 H 1.2094 0.3115 0.2392
C66 C 1.2033(3) 0.38631(16) 0.28504(16)
H42 H 1.2606 0.3795 0.3105
C67 C 1.1511(3) 0.43632(17) 0.29102(17)
H43 H 1.1708 0.4638 0.3213
C68 C 1.0694(3) 0.44629(17) 0.2523(2)
H44 H 1.0336 0.4811 0.2553
C69 C 1.0399(3) 0.40541(14) 0.20917(17)
H45 H 0.9838 0.4127 0.1828
C70 C 0.9565(2) 0.30108(13) 0.14563(16)
H46 H 0.9098 0.3264 0.1626
C71 C 0.9231(2) 0.25745(13) 0.10784(15)
H47 H 0.8541 0.2534 0.0998
C72 C 0.8495(2) 0.16590(11) 0.02465(12)
H48 H 0.8071 0.1969 0.0339
loop_
_geom_bond_atom_site_label_1
_geom_bond_atom_site_label_2
_geom_bond_site_symmetry_1
_geom_bond_site_symmetry_2
C1 C2 1_555 1_555
C2 C3 1_555 1_555
C3 H1 1_555 1_555
C4 C3 1_555 1_555
C5 C4 1_555 1_555
C6 C5 1_555 1_555
H2 C6 1_555 1_555
C7 C6 1_555 1_555
H3 C7 1_555 1_555
C8 C7 1_555 1_555
C9 C8 1_555 1_555
C10 C9 1_555 1_555
H4 C10 1_555 1_555
C11 C10 1_555 1_555
H5 C11 1_555 1_555
C12 C11 1_555 1_555
H6 C12 1_555 1_555
C13 C12 1_555 1_555
H7 C13 1_555 1_555
C14 C9 1_555 1_555
H8 C14 1_555 1_555
C15 C8 1_555 1_555
H9 C15 1_555 1_555
C16 C5 1_555 1_555
H10 C16 1_555 1_555
C17 C4 1_555 1_555
H11 C17 1_555 1_555
C18 C1 1_555 1_555
H12 C18 1_555 1_555
C19 C2 1_555 1_555
C20 C19 1_555 1_555
C21 C20 1_555 1_555
H13 C21 1_555 1_555
C22 C21 1_555 1_555
H14 C22 1_555 1_555
C23 C22 1_555 1_555
C24 C23 1_555 1_555
C25 C24 1_555 1_555
H15 C25 1_555 1_555
C26 C25 1_555 1_555
H16 C26 1_555 1_555
C27 C26 1_555 1_555
C28 C27 1_555 1_555
C29 C28 1_555 1_555
H17 C29 1_555 1_555
C30 C29 1_555 1_555
H18 C30 1_555 1_555
C31 C30 1_555 1_555
H19 C31 1_555 1_555
C32 C31 1_555 1_555
H20 C32 1_555 1_555
C33 C28 1_555 1_555
H21 C33 1_555 1_555
C34 C27 1_555 1_555
H22 C34 1_555 1_555
C35 C24 1_555 1_555
H23 C35 1_555 1_555
C36 C19 1_555 1_555
H24 C36 1_555 1_555
C37 C20 1_555 1_555
C38 C37 1_555 1_555
C39 C38 1_555 1_555
H25 C39 1_555 1_555
C40 C39 1_555 1_555
C41 C40 1_555 1_555
C42 C41 1_555 1_555
H26 C42 1_555 1_555
C43 C42 1_555 1_555
H27 C43 1_555 1_555
C44 C43 1_555 1_555
C45 C44 1_555 1_555
C46 C45 1_555 1_555
H28 C46 1_555 1_555
C47 C46 1_555 1_555
H29 C47 1_555 1_555
C48 C47 1_555 1_555
H30 C48 1_555 1_555
C49 C48 1_555 1_555
H31 C49 1_555 1_555
C50 C45 1_555 1_555
H32 C50 1_555 1_555
C51 C44 1_555 1_555
H33 C51 1_555 1_555
C52 C41 1_555 1_555
H34 C52 1_555 1_555
C53 C40 1_555 1_555
H35 C53 1_555 1_555
C54 C37 1_555 1_555
H36 C54 1_555 1_555
C55 C38 1_555 1_555
C56 C1 1_555 1_555
C57 C56 1_555 1_555
H37 C57 1_555 1_555
C58 C57 1_555 1_555
H38 C58 1_555 1_555
C59 C58 1_555 1_555
C60 C59 1_555 1_555
C61 C60 1_555 1_555
H39 C61 1_555 1_555
C62 C61 1_555 1_555
H40 C62 1_555 1_555
C63 C62 1_555 1_555
C64 C63 1_555 1_555
C65 C64 1_555 1_555
H41 C65 1_555 1_555
C66 C65 1_555 1_555
H42 C66 1_555 1_555
C67 C66 1_555 1_555
H43 C67 1_555 1_555
C68 C67 1_555 1_555
H44 C68 1_555 1_555
C69 C64 1_555 1_555
H45 C69 1_555 1_555
C70 C63 1_555 1_555
H46 C70 1_555 1_555
C71 C60 1_555 1_555
H47 C71 1_555 1_555
C72 C55 1_555 1_555
H48 C72 1_555 1_555
C13 C14 1_555 1_555
C15 C16 1_555 1_555
C17 C18 1_555 1_555
C23 C36 1_555 1_555
C32 C33 1_555 1_555
C34 C35 1_555 1_555
C49 C50 1_555 1_555
C51 C52 1_555 1_555
C53 C54 1_555 1_555
C55 C56 1_555 1_555
C59 C72 1_555 1_555
C68 C69 1_555 1_555
C70 C71 1_555 1_555

#END
