
#######################################################################
#
#                 Cambridge Crystallographic Data Centre
#                                CCDC 
#
#######################################################################
#
# If this CIF has been generated from an entry in the Cambridge 
# Structural Database, then it will include bibliographic, chemical, 
# crystal, experimental, refinement or atomic coordinate data resulting 
# from the CCDC's data processing and validation procedures.
#
#######################################################################

data_UBIHAO
_chemical_formula_moiety         'C35 H50 Na1 O15 1+,F6 P1 1-'
_chemical_name_systematic        
'(1,4,7,10,13,20,23,26,29,32-Decaoxa-15,18-bis(methoxycarbonyl)[13.13]paracyclophane)-(acetone-O)-sodium hexafluorophosphate'
_symmetry_cell_setting           monoclinic
_symmetry_space_group_name_H-M   'P 21/n'
_symmetry_Int_Tables_number      14
_space_group_name_Hall           '-P 2yn'
loop_
_symmetry_equiv_pos_site_id
_symmetry_equiv_pos_as_xyz
1 x,y,z
2 1/2+x,1/2-y,1/2+z
3 -x,-y,-z
4 1/2-x,1/2+y,1/2-z
_cell_length_a                   7.6955(11)
_cell_length_b                   20.941(2)
_cell_length_c                   25.574(3)
_cell_angle_alpha                90
_cell_angle_beta                 91.952(13)
_cell_angle_gamma                90
_cell_volume                     4118.9
_exptl_crystal_description       'blocky needles'
_cell_formula_units_Z            4
loop_
_atom_site_label
_atom_site_type_symbol
_atom_site_fract_x
_atom_site_fract_y
_atom_site_fract_z
P1 P 0.53827(14) 1.18321(5) 0.09412(4)
F1 F 0.4854(4) 1.24091(12) 0.13083(9)
F2 F 0.5943(4) 1.12641(15) 0.05745(12)
F3 F 0.4229(5) 1.13586(15) 0.12575(15)
F4 F 0.6468(5) 1.2318(2) 0.06123(11)
F5 F 0.3758(4) 1.1971(2) 0.05563(14)
F6 F 0.6984(5) 1.1696(2) 0.13260(13)
Na1 Na 0.2898(2) 0.88573(7) 0.17902(6)
O1 O -0.0265(4) 0.83356(13) 0.20757(10)
C1 C -0.0864(7) 0.8601(2) 0.2550(2)
H1 H -0.0363(7) 0.8366(2) 0.2855(2)
H2 H -0.2147(7) 0.8575(2) 0.2557(2)
C2 C -0.0285(7) 0.9285(2) 0.2565(2)
H3 H -0.0654(7) 0.9504(2) 0.2236(2)
H4 H -0.0812(7) 0.9510(2) 0.2861(2)
O2 O 0.1542(5) 0.92935(14) 0.26251(12)
C3 C 0.2208(9) 0.9920(2) 0.2748(2)
H5 H 0.1715(9) 1.0078(2) 0.3076(2)
H6 H 0.1892(9) 1.0223(2) 0.2463(2)
C4 C 0.4099(9) 0.9865(3) 0.2808(2)
H7 H 0.4586(9) 1.0281(3) 0.2922(2)
H8 H 0.4387(9) 0.9548(3) 0.3085(2)
O3 O 0.4907(5) 0.9672(2) 0.23290(15)
C5 C 0.5075(8) 1.0161(2) 0.1967(2)
H9 H 0.5647(8) 1.0535(2) 0.2135(2)
H10 H 0.3915(8) 1.0293(2) 0.1827(2)
C6 C 0.6149(7) 0.9917(2) 0.1534(2)
H11 H 0.6280(7) 1.0254(2) 0.1266(2)
H12 H 0.7321(7) 0.9798(2) 0.1672(2)
O4 O 0.5304(4) 0.93695(13) 0.13030(12)
C7 C 0.6454(6) 0.9023(2) 0.0987(2)
H13 H 0.7496(6) 0.8894(2) 0.1199(2)
H14 H 0.6836(6) 0.9298(2) 0.0697(2)
C8 C 0.5556(6) 0.8444(2) 0.0769(2)
H15 H 0.4504(6) 0.8568(2) 0.0560(2)
H16 H 0.6341(6) 0.8204(2) 0.0542(2)
O5 O 0.5092(4) 0.80607(12) 0.12079(10)
C9 C 0.4455(5) 0.7466(2) 0.10999(14)
C10 C 0.4312(5) 0.7214(2) 0.06022(15)
H17 H 0.4649(5) 0.7467(2) 0.03144(15)
C11 C 0.3694(5) 0.6607(2) 0.05112(14)
H18 H 0.3608(5) 0.6445(2) 0.01643(14)
C12 C 0.3195(5) 0.6230(2) 0.09267(15)
C13 C 0.3316(5) 0.6477(2) 0.14255(14)
H19 H 0.2988(5) 0.6219(2) 0.17108(14)
C14 C 0.3903(5) 0.7093(2) 0.15231(14)
C15 C 0.3885(5) 0.7350(2) 0.20629(15)
O6 O 0.3895(4) 0.79083(14) 0.21829(11)
O7 O 0.3806(4) 0.68825(13) 0.24147(10)
C16 C 0.3668(8) 0.7084(3) 0.2958(2)
H20 H 0.3618(8) 0.6707(3) 0.3184(2)
H21 H 0.2609(8) 0.7338(3) 0.2993(2)
H22 H 0.4684(8) 0.7343(3) 0.3061(2)
O8 O 0.2581(4) 0.56152(12) 0.08779(10)
C17 C 0.2512(5) 0.5347(2) 0.03608(15)
H23 H 0.3686(5) 0.5354(2) 0.02139(15)
H24 H 0.1726(5) 0.5604(2) 0.01301(15)
C18 C 0.1865(5) 0.4677(2) 0.0385(2)
H25 H 0.0898(5) 0.4651(2) 0.0630(2)
H26 H 0.1422(5) 0.4541(2) 0.0035(2)
O9 O 0.3228(4) 0.42699(13) 0.05568(12)
C19 C 0.2826(6) 0.3603(2) 0.0524(2)
H27 H 0.3923(6) 0.3356(2) 0.0550(2)
H28 H 0.2271(6) 0.3514(2) 0.0177(2)
C20 C 0.1647(6) 0.3377(2) 0.0939(2)
H29 H 0.1662(6) 0.2904(2) 0.0955(2)
H30 H 0.2054(6) 0.3544(2) 0.1284(2)
O10 O -0.0055(4) 0.35930(13) 0.08222(11)
C21 C -0.1247(5) 0.3471(2) 0.1222(2)
H31 H -0.0695(5) 0.3553(2) 0.1571(2)
H32 H -0.1641(5) 0.3021(2) 0.1208(2)
C22 C -0.2749(5) 0.3913(2) 0.1124(2)
H33 H -0.3157(5) 0.3888(2) 0.0753(2)
H34 H -0.3725(5) 0.3795(2) 0.1347(2)
O11 O -0.2164(3) 0.45438(13) 0.12451(11)
C23 C -0.3300(5) 0.5026(2) 0.1053(2)
H35 H -0.4368(5) 0.5030(2) 0.1258(2)
H36 H -0.3637(5) 0.4936(2) 0.0683(2)
C24 C -0.2421(5) 0.5657(2) 0.10931(15)
H37 H -0.1221(5) 0.5622(2) 0.09678(15)
H38 H -0.3057(5) 0.5973(2) 0.08706(15)
O12 O -0.2374(4) 0.58666(13) 0.16226(10)
C25 C -0.1793(5) 0.6476(2) 0.17130(14)
C26 C -0.1910(5) 0.6704(2) 0.22207(14)
H39 H -0.2350(5) 0.6434(2) 0.24836(14)
C27 C -0.1405(5) 0.7309(2) 0.23472(15)
H40 H -0.1509(5) 0.7454(2) 0.26965(15)
C28 C -0.0736(5) 0.7719(2) 0.19741(14)
C29 C -0.0587(5) 0.7493(2) 0.14624(14)
C30 C -0.1113(5) 0.6876(2) 0.13381(14)
H41 H -0.1007(5) 0.6725(2) 0.09904(14)
C31 C 0.0152(5) 0.7902(2) 0.10474(14)
O13 O 0.1130(4) 0.83437(13) 0.11083(10)
O14 O -0.0415(4) 0.77016(14) 0.05695(9)
C32 C 0.0246(6) 0.8040(3) 0.0126(2)
H42 H -0.0248(6) 0.7855(3) -0.0198(2)
H43 H 0.1516(6) 0.8003(3) 0.0129(2)
H44 H -0.0080(6) 0.8491(3) 0.0147(2)
O15 O 0.1206(5) 0.9799(2) 0.14084(13)
C33 C 0.1115(6) 1.0147(2) 0.1030(2)
C34 C 0.2112(9) 0.9980(3) 0.0530(2)
H45 H 0.2261(57) 0.9516(4) 0.0508(10)
H46 H 0.3255(28) 1.0187(19) 0.0547(9)
H47 H 0.1448(33) 1.0132(22) 0.0221(3)
C35 C 0.0150(7) 1.0733(3) 0.0996(3)
H48 H -0.0399(45) 1.0815(11) 0.1330(6)
H49 H -0.0749(36) 1.0700(8) 0.0717(11)
H50 H 0.0939(12) 1.1086(4) 0.0919(17)
F7? F 0.3339(14) 1.1781(20) 0.0950(18)
F8? F 0.7423(15) 1.1909(20) 0.0912(19)
F9? F 0.4866(78) 1.2281(20) 0.0469(12)
F10? F 0.5478(66) 1.1422(17) 0.1457(10)
loop_
_geom_bond_atom_site_label_1
_geom_bond_atom_site_label_2
_geom_bond_site_symmetry_1
_geom_bond_site_symmetry_2
P1 F1 1_555 1_555
F2 P1 1_555 1_555
F3 P1 1_555 1_555
F4 P1 1_555 1_555
F5 P1 1_555 1_555
F6 P1 1_555 1_555
Na1 O1 1_555 1_555
O1 C1 1_555 1_555
C1 H1 1_555 1_555
H2 C1 1_555 1_555
C2 C1 1_555 1_555
H3 C2 1_555 1_555
H4 C2 1_555 1_555
O2 Na1 1_555 1_555
C3 O2 1_555 1_555
H5 C3 1_555 1_555
H6 C3 1_555 1_555
C4 C3 1_555 1_555
H7 C4 1_555 1_555
H8 C4 1_555 1_555
O3 Na1 1_555 1_555
C5 O3 1_555 1_555
H9 C5 1_555 1_555
H10 C5 1_555 1_555
C6 C5 1_555 1_555
H11 C6 1_555 1_555
H12 C6 1_555 1_555
O4 Na1 1_555 1_555
C7 O4 1_555 1_555
H13 C7 1_555 1_555
H14 C7 1_555 1_555
C8 C7 1_555 1_555
H15 C8 1_555 1_555
H16 C8 1_555 1_555
O5 Na1 1_555 1_555
C9 O5 1_555 1_555
C10 C9 1_555 1_555
H17 C10 1_555 1_555
C11 C10 1_555 1_555
H18 C11 1_555 1_555
C12 C11 1_555 1_555
C13 C12 1_555 1_555
H19 C13 1_555 1_555
C14 C9 1_555 1_555
C15 C14 1_555 1_555
O6 Na1 1_555 1_555
O7 C15 1_555 1_555
C16 O7 1_555 1_555
H20 C16 1_555 1_555
H21 C16 1_555 1_555
H22 C16 1_555 1_555
O8 C12 1_555 1_555
C17 O8 1_555 1_555
H23 C17 1_555 1_555
H24 C17 1_555 1_555
C18 C17 1_555 1_555
H25 C18 1_555 1_555
H26 C18 1_555 1_555
O9 C18 1_555 1_555
C19 O9 1_555 1_555
H27 C19 1_555 1_555
H28 C19 1_555 1_555
C20 C19 1_555 1_555
H29 C20 1_555 1_555
H30 C20 1_555 1_555
O10 C20 1_555 1_555
C21 O10 1_555 1_555
H31 C21 1_555 1_555
H32 C21 1_555 1_555
C22 C21 1_555 1_555
H33 C22 1_555 1_555
H34 C22 1_555 1_555
O11 C22 1_555 1_555
C23 O11 1_555 1_555
H35 C23 1_555 1_555
H36 C23 1_555 1_555
C24 C23 1_555 1_555
H37 C24 1_555 1_555
H38 C24 1_555 1_555
O12 C24 1_555 1_555
C25 O12 1_555 1_555
C26 C25 1_555 1_555
H39 C26 1_555 1_555
C27 C26 1_555 1_555
H40 C27 1_555 1_555
C28 O1 1_555 1_555
C29 C28 1_555 1_555
C30 C25 1_555 1_555
H41 C30 1_555 1_555
C31 C29 1_555 1_555
O13 Na1 1_555 1_555
O14 C31 1_555 1_555
C32 O14 1_555 1_555
H42 C32 1_555 1_555
H43 C32 1_555 1_555
H44 C32 1_555 1_555
O15 Na1 1_555 1_555
C33 O15 1_555 1_555
C34 C33 1_555 1_555
H45 C34 1_555 1_555
H46 C34 1_555 1_555
H47 C34 1_555 1_555
C35 C33 1_555 1_555
H48 C35 1_555 1_555
H49 C35 1_555 1_555
H50 C35 1_555 1_555
C2 O2 1_555 1_555
C4 O3 1_555 1_555
C6 O4 1_555 1_555
C8 O5 1_555 1_555
C13 C14 1_555 1_555
C15 O6 1_555 1_555
C27 C28 1_555 1_555
C29 C30 1_555 1_555
C31 O13 1_555 1_555

#END
