
#######################################################################
#
#                 Cambridge Crystallographic Data Centre
#                                CCDC 
#
#######################################################################
#
# If this CIF has been generated from an entry in the Cambridge 
# Structural Database, then it will include bibliographic, chemical, 
# crystal, experimental, refinement or atomic coordinate data resulting 
# from the CCDC's data processing and validation procedures.
#
#######################################################################

data_UBITOQ
_chemical_formula_moiety         'C16 H21 N1 O3,0.12(C1 H4 O1)'
_chemical_name_systematic        
'5-(2,6-Dimethoxybenzylidene)-3,3-dimethylpiperidin-4-one methanol solvate'
_symmetry_cell_setting           trigonal
_symmetry_space_group_name_H-M   'P -3'
_symmetry_Int_Tables_number      147
_space_group_name_Hall           '-P 3'
loop_
_symmetry_equiv_pos_site_id
_symmetry_equiv_pos_as_xyz
1 x,y,z
2 -y,x-y,z
3 -x+y,-x,z
4 -x,-y,-z
5 y,-x+y,-z
6 x-y,x,-z
_cell_length_a                   16.2167(14)
_cell_length_b                   16.2167(14)
_cell_length_c                   10.2960(18)
_cell_angle_alpha                90
_cell_angle_beta                 90
_cell_angle_gamma                120
_cell_volume                     2344.9
_exptl_crystal_colour            colorless
_exptl_crystal_description       plate
_cell_formula_units_Z            6
loop_
_atom_site_label
_atom_site_type_symbol
_atom_site_fract_x
_atom_site_fract_y
_atom_site_fract_z
C1 C 0.15913(8) 0.30489(8) 0.49486(11)
H1 H 0.1255 0.3417 0.4926
H2 H 0.1748 0.2974 0.4043
C2 C 0.25084(8) 0.36069(8) 0.57084(11)
C3 C 0.24382(8) 0.35467(8) 0.71547(11)
C4 C 0.16350(8) 0.26332(8) 0.77494(11)
C5 C 0.07559(8) 0.21889(8) 0.68529(11)
H3 H 0.0298 0.1546 0.7184
H4 H 0.0444 0.2580 0.6905
C6 C 0.13590(10) 0.28231(10) 0.90860(12)
H5 H 0.1908 0.3063 0.9670
H6 H 0.0835 0.2230 0.9437
H7 H 0.1157 0.3298 0.9009
C7 C 0.20256(10) 0.19491(9) 0.78776(12)
H8 H 0.2180 0.1811 0.7014
H9 H 0.1545 0.1356 0.8286
H10 H 0.2601 0.2244 0.8415
C8 C 0.33744(8) 0.41009(8) 0.51622(11)
H11 H 0.3905 0.4393 0.5733
C9 C 0.35754(8) 0.42306(7) 0.37607(11)
C10 C 0.30968(8) 0.45220(8) 0.28994(12)
C11 C 0.32716(9) 0.45868(8) 0.15691(12)
H12 H 0.2924 0.4759 0.0994
C12 C 0.39584(9) 0.43970(9) 0.10970(13)
H13 H 0.4075 0.4435 0.0189
C13 C 0.44806(9) 0.41519(9) 0.19178(13)
H14 H 0.4965 0.4045 0.1581
C14 C 0.42841(8) 0.40652(8) 0.32380(12)
C15 C 0.19060(11) 0.49727(11) 0.26436(15)
H15 H 0.2317 0.5543 0.2133
H16 H 0.1471 0.5087 0.3173
H17 H 0.1537 0.4436 0.2057
C16 C 0.54415(9) 0.35932(10) 0.36728(15)
H18 H 0.5157 0.3069 0.3045
H19 H 0.5703 0.3411 0.4406
H20 H 0.5953 0.4161 0.3252
N1 N 0.09529(7) 0.21055(7) 0.54929(9)
H21 H 0.1234(10) 0.1746(10) 0.5435(14)
O1 O 0.30177(7) 0.41879(7) 0.78418(9)
O2 O 0.24787(6) 0.47573(6) 0.34707(9)
O3 O 0.47258(6) 0.37952(6) 0.41351(9)
C17? C 0.678(3) 0.338(5) 0.0810(12)
H22? H 0.7188 0.3098 0.0700
H23? H 0.6263 0.3102 0.0172
H24? H 0.6511 0.3244 0.1688
O4? O 0.7354(11) 0.4428(10) 0.0612(13)
H25? H 0.7135 0.4698 0.1079
loop_
_geom_bond_atom_site_label_1
_geom_bond_atom_site_label_2
_geom_bond_site_symmetry_1
_geom_bond_site_symmetry_2
C1 H1 1_555 1_555
H2 C1 1_555 1_555
C2 C1 1_555 1_555
C3 C2 1_555 1_555
C4 C3 1_555 1_555
C5 C4 1_555 1_555
H3 C5 1_555 1_555
H4 C5 1_555 1_555
C6 C4 1_555 1_555
H5 C6 1_555 1_555
H6 C6 1_555 1_555
H7 C6 1_555 1_555
C7 C4 1_555 1_555
H8 C7 1_555 1_555
H9 C7 1_555 1_555
H10 C7 1_555 1_555
C8 C2 1_555 1_555
H11 C8 1_555 1_555
C9 C8 1_555 1_555
C10 C9 1_555 1_555
C11 C10 1_555 1_555
H12 C11 1_555 1_555
C12 C11 1_555 1_555
H13 C12 1_555 1_555
C13 C12 1_555 1_555
H14 C13 1_555 1_555
C14 C9 1_555 1_555
C15 H15 1_555 1_555
H16 C15 1_555 1_555
H17 C15 1_555 1_555
C16 H18 1_555 1_555
H19 C16 1_555 1_555
H20 C16 1_555 1_555
N1 C1 1_555 1_555
H21 N1 1_555 1_555
O1 C3 1_555 1_555
O2 C10 1_555 1_555
O3 C14 1_555 1_555
C5 N1 1_555 1_555
C13 C14 1_555 1_555
C15 O2 1_555 1_555
C16 O3 1_555 1_555

#END
