
#######################################################################
#
#                 Cambridge Crystallographic Data Centre
#                                CCDC 
#
#######################################################################
#
# If this CIF has been generated from an entry in the Cambridge 
# Structural Database, then it will include bibliographic, chemical, 
# crystal, experimental, refinement or atomic coordinate data resulting 
# from the CCDC's data processing and validation procedures.
#
#######################################################################

data_UBITEE01
_chemical_formula_moiety         'C35 H47 Li1 N2 O1 P2 Si2'
_chemical_name_systematic        
(tetrahydrofuran)-(bis((trimethylsilylimino)diphenylphosphino)methanide)-lithium
_symmetry_cell_setting           triclinic
_symmetry_space_group_name_H-M   'P -1'
_symmetry_Int_Tables_number      2
_space_group_name_Hall           '-P 1'
loop_
_symmetry_equiv_pos_site_id
_symmetry_equiv_pos_as_xyz
1 x,y,z
2 -x,-y,-z
_cell_length_a                   11.028(2)
_cell_length_b                   11.311(2)
_cell_length_c                   16.174(3)
_cell_angle_alpha                72.96(3)
_cell_angle_beta                 88.60(3)
_cell_angle_gamma                82.62(3)
_cell_volume                     1912.78
_exptl_crystal_colour            colorless
_exptl_crystal_description       block
_chemical_melting_point          128-131deg.C
_cell_formula_units_Z            2
loop_
_atom_site_label
_atom_site_type_symbol
_atom_site_fract_x
_atom_site_fract_y
_atom_site_fract_z
P1 P 0.79198(11) 0.88319(10) 0.23337(7)
P2 P 0.76506(9) 0.63827(9) 0.18756(6)
Si1 Si 0.57399(12) 0.50732(12) 0.31282(8)
Si2 Si 0.62559(17) 0.92448(16) 0.37549(11)
N1 N 0.6441(3) 0.6162(3) 0.2405(2)
N2 N 0.6683(3) 0.8862(3) 0.2835(2)
C1 C 0.9119(5) 1.0480(4) 0.1029(4)
H1 H 0.9692 0.9794 0.1046
C2 C 0.9266(5) 1.1632(5) 0.0454(4)
H2 H 0.9942 1.1718 0.0096
C3 C 0.8420(6) 1.2634(5) 0.0413(4)
H3 H 0.8520 1.3408 0.0030
C4 C 0.7426(5) 1.2507(4) 0.0933(4)
H4 H 0.6838 1.3190 0.0893
C5 C 0.7286(4) 1.1370(4) 0.1522(3)
H5 H 0.6612 1.1299 0.1882
C6 C 0.8131(4) 1.0338(4) 0.1580(3)
C7 C 0.9216(5) 0.8524(5) 0.3092(3)
C8 C 1.0033(5) 0.9344(6) 0.3077(4)
H6 H 0.9980 1.0086 0.2630
C9 C 1.0937(8) 0.9108(10) 0.3706(7)
H7 H 1.1466 0.9689 0.3695
C10 C 1.1025(11) 0.8004(12) 0.4338(7)
H8 H 1.1641 0.7827 0.4755
C11 C 1.0260(11) 0.7159(9) 0.4383(6)
H9 H 1.0347 0.6409 0.4824
C12 C 0.9318(7) 0.7417(6) 0.3753(4)
H10 H 0.8770 0.6846 0.3784
C13 C 0.7525(4) 0.6212(3) 0.0794(2)
C14 C 0.8528(4) 0.6161(4) 0.0279(3)
H11 H 0.9302 0.6144 0.0502
C15 C 0.8408(5) 0.6135(4) -0.0569(3)
H12 H 0.9093 0.6123 -0.0915
C16 C 0.7283(5) 0.6128(5) -0.0889(3)
H13 H 0.7200 0.6107 -0.1455
C17 C 0.6270(5) 0.6152(6) -0.0386(3)
H14 H 0.5503 0.6145 -0.0610
C18 C 0.6388(4) 0.6186(4) 0.0459(3)
H15 H 0.5699 0.6191 0.0802
C19 C 0.8930(4) 0.5195(4) 0.2328(3)
C20 C 1.0039(5) 0.5482(5) 0.2535(4)
H16 H 1.0152 0.6314 0.2427
C21 C 1.0997(5) 0.4555(8) 0.2901(5)
H17 H 1.1736 0.4771 0.3039
C22 C 1.0849(7) 0.3350(8) 0.3055(4)
H18 H 1.1481 0.2732 0.3312
C23 C 0.9778(7) 0.3024(6) 0.2838(4)
H19 H 0.9690 0.2188 0.2932
C24 C 0.8824(5) 0.3936(5) 0.2479(3)
H20 H 0.8097 0.3704 0.2336
C25 C 0.3579(10) 0.8283(12) 0.1172(8)
H21 H 0.3590 0.7392 0.1435
H22 H 0.3687 0.8460 0.0552
C26 C 0.2536(12) 0.896(2) 0.1378(15)
H23 H 0.2427 0.8761 0.1999
H24 H 0.1810 0.8826 0.1111
C27 C 0.2828(15) 1.0298(12) 0.0997(12)
H25 H 0.2679 1.0597 0.0377
H26 H 0.2364 1.0865 0.1271
C28 C 0.4048(10) 1.0142(10) 0.1195(9)
H27 H 0.4199 1.0537 0.1634
H28 H 0.4517 1.0489 0.0686
C29 C 0.8011(4) 0.7872(4) 0.1676(3)
H29 H 0.8083 0.8310 0.1060
C30 C 0.6372(8) 0.7851(7) 0.4729(4)
H30 H 0.5918 0.7237 0.4627
H31 H 0.6044 0.8093 0.5219
H32 H 0.7215 0.7507 0.4842
C31 C 0.7130(6) 1.0395(6) 0.4005(4)
H33 H 0.7085 1.1132 0.3519
H34 H 0.7969 1.0041 0.4123
H35 H 0.6789 1.0608 0.4502
C32 C 0.4633(7) 0.9956(9) 0.3594(6)
H36 H 0.4562 1.0676 0.3096
H37 H 0.4359 1.0200 0.4095
H38 H 0.4140 0.9360 0.3509
C33 C 0.6698(6) 0.4215(6) 0.4098(3)
H39 H 0.6558 0.3357 0.4277
H40 H 0.6487 0.4578 0.4558
H41 H 0.7545 0.4267 0.3961
C34 C 0.4346(5) 0.5878(6) 0.3496(4)
H42 H 0.3898 0.5271 0.3878
H43 H 0.3841 0.6345 0.3003
H44 H 0.4579 0.6434 0.3795
C35 C 0.5194(6) 0.3914(5) 0.2646(4)
H45 H 0.5284 0.3106 0.3065
H46 H 0.5670 0.3880 0.2147
H47 H 0.4349 0.4162 0.2479
O1 O 0.4371(4) 0.8746(5) 0.1530(4)
Li1 Li 0.5760(8) 0.7960(8) 0.2235(6)
loop_
_geom_bond_atom_site_label_1
_geom_bond_atom_site_label_2
_geom_bond_site_symmetry_1
_geom_bond_site_symmetry_2
P1 N2 1_555 1_555
P2 N1 1_555 1_555
Si1 N1 1_555 1_555
Si2 N2 1_555 1_555
N1 Li1 1_555 1_555
N2 Li1 1_555 1_555
C1 H1 1_555 1_555
C2 C1 1_555 1_555
H2 C2 1_555 1_555
C3 C2 1_555 1_555
H3 C3 1_555 1_555
C4 C3 1_555 1_555
H4 C4 1_555 1_555
C5 C4 1_555 1_555
H5 C5 1_555 1_555
C6 P1 1_555 1_555
C7 P1 1_555 1_555
C8 C7 1_555 1_555
H6 C8 1_555 1_555
C9 C8 1_555 1_555
H7 C9 1_555 1_555
C10 C9 1_555 1_555
H8 C10 1_555 1_555
C11 C10 1_555 1_555
H9 C11 1_555 1_555
C12 C7 1_555 1_555
H10 C12 1_555 1_555
C13 P2 1_555 1_555
C14 C13 1_555 1_555
H11 C14 1_555 1_555
C15 C14 1_555 1_555
H12 C15 1_555 1_555
C16 C15 1_555 1_555
H13 C16 1_555 1_555
C17 C16 1_555 1_555
H14 C17 1_555 1_555
C18 C13 1_555 1_555
H15 C18 1_555 1_555
C19 P2 1_555 1_555
C20 C19 1_555 1_555
H16 C20 1_555 1_555
C21 C20 1_555 1_555
H17 C21 1_555 1_555
C22 C21 1_555 1_555
H18 C22 1_555 1_555
C23 C22 1_555 1_555
H19 C23 1_555 1_555
C24 C19 1_555 1_555
H20 C24 1_555 1_555
C25 H21 1_555 1_555
H22 C25 1_555 1_555
C26 C25 1_555 1_555
H23 C26 1_555 1_555
H24 C26 1_555 1_555
C27 C26 1_555 1_555
H25 C27 1_555 1_555
H26 C27 1_555 1_555
C28 C27 1_555 1_555
H27 C28 1_555 1_555
H28 C28 1_555 1_555
C29 P1 1_555 1_555
H29 C29 1_555 1_555
C30 Si2 1_555 1_555
H30 C30 1_555 1_555
H31 C30 1_555 1_555
H32 C30 1_555 1_555
C31 Si2 1_555 1_555
H33 C31 1_555 1_555
H34 C31 1_555 1_555
H35 C31 1_555 1_555
C32 Si2 1_555 1_555
H36 C32 1_555 1_555
H37 C32 1_555 1_555
H38 C32 1_555 1_555
C33 Si1 1_555 1_555
H39 C33 1_555 1_555
H40 C33 1_555 1_555
H41 C33 1_555 1_555
C34 Si1 1_555 1_555
H42 C34 1_555 1_555
H43 C34 1_555 1_555
H44 C34 1_555 1_555
C35 Si1 1_555 1_555
H45 C35 1_555 1_555
H46 C35 1_555 1_555
H47 C35 1_555 1_555
O1 C25 1_555 1_555
Li1 C29 1_555 1_555
P2 C29 1_555 1_555
C1 C6 1_555 1_555
C5 C6 1_555 1_555
C11 C12 1_555 1_555
C17 C18 1_555 1_555
C23 C24 1_555 1_555
C28 O1 1_555 1_555
O1 Li1 1_555 1_555

#END
