
#######################################################################
#
#                 Cambridge Crystallographic Data Centre
#                                CCDC 
#
#######################################################################
#
# If this CIF has been generated from an entry in the Cambridge 
# Structural Database, then it will include bibliographic, chemical, 
# crystal, experimental, refinement or atomic coordinate data resulting 
# from the CCDC's data processing and validation procedures.
#
#######################################################################

data_UBODEX
_chemical_formula_moiety         'C23 H21 Br1 N2 O5 S2'
_chemical_name_systematic        
5-(4-bromophenyl)-1,2-bis((4-methylphenyl)sulfonyl)pyrazolidin-3-one
_symmetry_cell_setting           orthorhombic
_symmetry_space_group_name_H-M   'P 21 21 21'
_symmetry_Int_Tables_number      19
_space_group_name_Hall           'P 2ac 2ab'
loop_
_symmetry_equiv_pos_site_id
_symmetry_equiv_pos_as_xyz
1 x,y,z
2 1/2-x,-y,1/2+z
3 1/2+x,1/2-y,-z
4 -x,1/2+y,1/2-z
_cell_length_a                   9.7576(12)
_cell_length_b                   14.2296(17)
_cell_length_c                   17.394(2)
_cell_angle_alpha                90
_cell_angle_beta                 90
_cell_angle_gamma                90
_cell_volume                     2415.1
_exptl_crystal_colour            yellow
_exptl_crystal_description       rod
_cell_formula_units_Z            4
loop_
_atom_site_label
_atom_site_type_symbol
_atom_site_fract_x
_atom_site_fract_y
_atom_site_fract_z
Br1 Br 1.08435(5) 1.11642(3) 0.74841(4)
S1 S 0.42999(8) 0.75127(5) 0.71438(4)
S2 S 0.39038(8) 0.94476(5) 0.57545(5)
O1 O 0.3579(3) 0.98131(16) 0.64898(13)
N1 N 0.5353(2) 0.82950(16) 0.66904(13)
N2 N 0.4901(3) 0.84788(16) 0.59331(13)
C1 C 0.9620(3) 1.0201(2) 0.7195(2)
C2 C 0.7341(3) 0.9598(2) 0.7169(2)
H1 H 0.6417 0.9663 0.7287
C3 C 0.4502(3) 0.6447(2) 0.66494(18)
C4 C 0.6929(3) 0.7606(2) 0.57992(19)
H2 H 0.7806 0.7767 0.5572
H3 H 0.6821 0.6929 0.5789
C5 C 0.5744(4) 1.0874(2) 0.5697(2)
H4 H 0.5721 1.0860 0.6231
C6 C 0.3752(4) 0.6302(2) 0.5983(2)
H5 H 0.3056 0.6713 0.5840
C7 C 0.5779(4) 0.80781(18) 0.53781(17)
O2 O 0.4879(3) 0.7431(2) 0.78931(14)
C8 C 0.7784(3) 0.87868(19) 0.68104(17)
C9 C 0.4967(4) 1.02465(19) 0.52722(19)
O3 O 0.2854(3) 0.91304(19) 0.52518(19)
C10 C 0.9200(3) 0.8689(2) 0.6667(2)
H6 H 0.9523 0.8140 0.6440
C11 C 0.5481(4) 0.5813(2) 0.6885(2)
H7 H 0.5953 0.5906 0.7343
O4 O 0.2938(2) 0.78580(19) 0.70315(15)
C12 C 0.6825(3) 0.79816(19) 0.66234(17)
H8 H 0.6990 0.7465 0.6985
C13 C 1.0115(3) 0.9390(2) 0.6856(2)
H9 H 1.1046 0.9319 0.6757
C14 C 0.5754(5) 0.5040(2) 0.6435(3)
H10 H 0.6400 0.4602 0.6598
C15 C 0.8236(4) 1.0316(2) 0.7356(2)
H11 H 0.7918 1.0865 0.7585
C16 C 0.6598(6) 1.1573(3) 0.4538(3)
C17 C 0.4072(5) 0.5526(3) 0.5536(2)
H12 H 0.3588 0.5427 0.5083
C18 C 0.6547(5) 1.1515(3) 0.5321(3)
H13 H 0.7078 1.1927 0.5610
C19 C 0.4982(6) 1.0287(3) 0.4472(2)
H14 H 0.4458 0.9875 0.4179
C20 C 0.5806(8) 1.0962(3) 0.4125(3)
H15 H 0.5818 1.0999 0.3592
C21 C 0.5073(5) 0.4902(2) 0.5739(3)
C22 C 0.7505(7) 1.2282(4) 0.4129(4)
H16 H 0.6953 1.2790 0.3940
H17 H 0.7962 1.1981 0.3707
H18 H 0.8174 1.2521 0.4483
C23 C 0.5486(7) 0.4097(3) 0.5215(5)
H19 H 0.6445 0.4144 0.5098
H20 H 0.4966 0.4128 0.4747
H21 H 0.5309 0.3510 0.5468
O5 O 0.5582(3) 0.81396(16) 0.46946(13)
loop_
_geom_bond_atom_site_label_1
_geom_bond_atom_site_label_2
_geom_bond_site_symmetry_1
_geom_bond_site_symmetry_2
Br1 C1 1_555 1_555
S1 N1 1_555 1_555
S2 O1 1_555 1_555
N1 N2 1_555 1_555
N2 S2 1_555 1_555
C1 C13 1_555 1_555
C2 H1 1_555 1_555
C3 S1 1_555 1_555
C4 H2 1_555 1_555
H3 C4 1_555 1_555
C5 H4 1_555 1_555
C6 C3 1_555 1_555
H5 C6 1_555 1_555
C7 N2 1_555 1_555
O2 S1 1_555 1_555
C8 C2 1_555 1_555
C9 S2 1_555 1_555
O3 S2 1_555 1_555
C10 C8 1_555 1_555
H6 C10 1_555 1_555
C11 C3 1_555 1_555
H7 C11 1_555 1_555
O4 S1 1_555 1_555
C12 N1 1_555 1_555
H8 C12 1_555 1_555
C13 C10 1_555 1_555
H9 C13 1_555 1_555
C14 C11 1_555 1_555
H10 C14 1_555 1_555
C15 C1 1_555 1_555
H11 C15 1_555 1_555
C16 C18 1_555 1_555
C17 C6 1_555 1_555
H12 C17 1_555 1_555
C18 C5 1_555 1_555
H13 C18 1_555 1_555
C19 C9 1_555 1_555
H14 C19 1_555 1_555
C20 C16 1_555 1_555
H15 C20 1_555 1_555
C21 C14 1_555 1_555
C22 C16 1_555 1_555
H16 C22 1_555 1_555
H17 C22 1_555 1_555
H18 C22 1_555 1_555
C23 C21 1_555 1_555
H19 C23 1_555 1_555
H20 C23 1_555 1_555
H21 C23 1_555 1_555
O5 C7 1_555 1_555
C2 C15 1_555 1_555
C4 C7 1_555 1_555
C4 C12 1_555 1_555
C5 C9 1_555 1_555
C8 C12 1_555 1_555
C17 C21 1_555 1_555
C19 C20 1_555 1_555

#END
