
#######################################################################
#
#                 Cambridge Crystallographic Data Centre
#                                CCDC 
#
#######################################################################
#
# If this CIF has been generated from an entry in the Cambridge 
# Structural Database, then it will include bibliographic, chemical, 
# crystal, experimental, refinement or atomic coordinate data resulting 
# from the CCDC's data processing and validation procedures.
#
#######################################################################

data_UBOJOK
_chemical_formula_moiety         'C44 H30 N4,2(C60),4(C6 H6)'
_chemical_name_systematic        
'5,10,15,20-Tetraphenylporphyrin bis(C60fullerene) benzene solvate'
_symmetry_cell_setting           monoclinic
_symmetry_space_group_name_H-M   'P 21/c'
_symmetry_Int_Tables_number      14
_space_group_name_Hall           '-P 2ybc'
loop_
_symmetry_equiv_pos_site_id
_symmetry_equiv_pos_as_xyz
1 x,y,z
2 -x,1/2+y,1/2-z
3 -x,-y,-z
4 x,1/2-y,1/2+z
_cell_length_a                   13.7422(6)
_cell_length_b                   20.7653(11)
_cell_length_c                   18.6263(10)
_cell_angle_alpha                90
_cell_angle_beta                 91.814(4)
_cell_angle_gamma                90
_cell_volume                     5312.55
_exptl_crystal_colour            black
_exptl_crystal_description       brick
_cell_formula_units_Z            2
loop_
_atom_site_label
_atom_site_type_symbol
_atom_site_fract_x
_atom_site_fract_y
_atom_site_fract_z
N1 N -1.00275(9) -0.05987(6) -0.58939(7)
H1 H -1.0023 -0.0359 -0.5511
N2 N -1.10753(9) 0.05676(6) -0.54614(7)
C1 C -0.94682(11) -0.11392(7) -0.59894(8)
C2 C -0.96770(12) -0.13866(8) -0.67018(8)
H2 H -0.9384 -0.1741 -0.6911
C3 C -1.03644(12) -0.09990(8) -0.70160(9)
H3 H -1.0644 -0.1050 -0.7474
C4 C -1.05905(11) -0.05008(7) -0.65086(8)
C5 C -1.12694(11) -0.00060(7) -0.66282(8)
C6 C -1.14676(11) 0.04949(7) -0.61444(8)
C7 C -1.20906(11) 0.10387(8) -0.63150(9)
H4 H -1.2442 0.1104 -0.6744
C8 C -1.20688(11) 0.14332(8) -0.57334(8)
H5 H -1.2395 0.1823 -0.5688
C9 C -1.14325(11) 0.11372(7) -0.51955(8)
C10 C -0.88039(11) -0.14050(7) -0.54819(8)
C11 C -1.18317(12) -0.00111(7) -0.73312(8)
C12 C -1.13697(14) 0.00986(8) -0.79788(9)
H6 H -1.0708 0.0193 -0.7977
C13 C -1.18995(16) 0.00762(9) -0.86306(10)
H7 H -1.1589 0.0144 -0.9060
C14 C -1.28898(16) -0.00489(9) -0.86377(10)
H8 H -1.3241 -0.0062 -0.9073
C15 C -1.33556(14) -0.01518(9) -0.80006(11)
H9 H -1.4019 -0.0241 -0.8009
C16 C -1.28300(13) -0.01348(8) -0.73481(10)
H10 H -1.3146 -0.0195 -0.6919
C17 C -0.83333(12) -0.20318(8) -0.56714(8)
C18 C -0.89016(13) -0.25804(8) -0.58110(9)
H11 H -0.9576 -0.2553 -0.5792
C19 C -0.84683(15) -0.31649(9) -0.59838(11)
H12 H -0.8858 -0.3522 -0.6086
C20 C -0.74633(16) -0.32109(9) -0.60147(11)
H13 H -0.7180 -0.3605 -0.6119
C21 C -0.68915(14) -0.26714(10) -0.58757(10)
H14 H -0.6218 -0.2702 -0.5896
C22 C -0.73214(12) -0.20853(9) -0.57065(9)
H15 H -0.6932 -0.1725 -0.5623
C10B C -1.11961(11) 0.14050(7) -0.45181(8)
C1B C -1.05318(11) 0.11392(7) -0.40106(8)
N1B N -0.99725(9) 0.05987(6) -0.41061(7)
H1B H -0.9977 0.0359 -0.4489
C4B C -0.94095(11) 0.05008(7) -0.34914(8)
C3B C -0.96356(12) 0.09990(8) -0.29840(9)
C2B C -1.03230(12) 0.13866(8) -0.32982(8)
H2B H -1.0616 0.1741 -0.3089
H3B H -0.9356 0.1050 -0.2526
C5B C -0.87306(11) 0.00060(7) -0.33718(8)
C6B C -0.85324(11) -0.04949(7) -0.38556(8)
N2B N -0.89247(9) -0.05676(6) -0.45386(7)
C9B C -0.85675(11) -0.11372(7) -0.48045(8)
C8B C -0.79312(11) -0.14332(8) -0.42666(8)
C7B C -0.79094(11) -0.10387(8) -0.36850(9)
H4B H -0.7558 -0.1104 -0.3256
H5B H -0.7605 -0.1823 -0.4312
C11B C -0.81683(12) 0.00111(7) -0.26688(8)
C12B C -0.86303(14) -0.00986(8) -0.20212(9)
H6B H -0.9292 -0.0193 -0.2023
C13B C -0.81005(16) -0.00762(9) -0.13694(10)
H7B H -0.8411 -0.0144 -0.0940
C14B C -0.71102(16) 0.00489(9) -0.13623(10)
H8B H -0.6759 0.0062 -0.0927
C15B C -0.66444(14) 0.01518(9) -0.19994(11)
H9B H -0.5981 0.0241 -0.1991
C16B C -0.71700(13) 0.01348(8) -0.26519(10)
H10B H -0.6854 0.0195 -0.3081
C17B C -1.16667(12) 0.20318(8) -0.43286(8)
C18B C -1.10984(13) 0.25804(8) -0.41890(9)
H11B H -1.0424 0.2553 -0.4208
C19B C -1.15317(15) 0.31649(9) -0.40162(11)
H12B H -1.1142 0.3522 -0.3914
C20B C -1.25367(16) 0.32109(9) -0.39853(11)
H13B H -1.2820 0.3605 -0.3881
C21B C -1.31085(14) 0.26714(10) -0.41243(10)
H14B H -1.3782 0.2702 -0.4104
C22B C -1.26786(12) 0.20853(9) -0.42935(9)
H15B H -1.3068 0.1725 -0.4377
C23 C -1.24338(18) 0.36291(11) -0.61053(12)
H16 H -1.2465 0.3869 -0.5685
C24 C -1.17902(17) 0.31194(12) -0.61382(12)
H17 H -1.1393 0.3014 -0.5742
C25 C -1.17348(15) 0.27611(11) -0.67613(12)
H18 H -1.1302 0.2418 -0.6780
C26 C -1.23218(14) 0.29135(10) -0.73529(11)
H19 H -1.2285 0.2673 -0.7773
C27 C -1.29640(15) 0.34272(10) -0.73232(11)
H20 H -1.3368 0.3532 -0.7716
C28 C -1.30245(17) 0.37839(10) -0.66989(12)
H21 H -1.3453 0.4129 -0.6675
C29 C 0.00676(19) -0.06116(13) 0.02852(14)
H22 H 0.0127 -0.1026 0.0471
C30 C -0.05270(19) -0.04976(13) -0.03130(14)
H23 H -0.0887 -0.0832 -0.0520
C31 C 0.05931(18) -0.01146(14) 0.05979(13)
H24 H 0.1002 -0.0193 0.0996
C31B C -0.05931(18) 0.01146(14) -0.05979(13)
C29B C -0.00676(19) 0.06116(13) -0.02852(14)
H22B H -0.0127 0.1026 -0.0471
C30B C 0.05270(19) 0.04976(13) 0.03130(14)
H23B H 0.0887 0.0832 0.0520
H24B H -0.1002 0.0193 -0.0996
C32 C 0.46833(18) 0.05723(11) 0.02916(10)
H25 H 0.4474 0.0958 0.0488
C33 C 0.42386(18) -0.00011(11) 0.04657(11)
H26 H 0.3724 -0.0002 0.0778
C34 C 0.54434(18) 0.05772(11) -0.01764(11)
H27 H 0.5732 0.0966 -0.0295
C34B C 0.45566(18) -0.05772(11) 0.01764(11)
C32B C 0.53167(18) -0.05723(11) -0.02916(10)
H25B H 0.5526 -0.0958 -0.0488
C33B C 0.57614(18) 0.00011(11) -0.04657(11)
H26B H 0.6276 0.0002 -0.0778
H27B H 0.4268 -0.0966 0.0295
C35 C -0.53086(15) -0.24970(12) -0.36883(13)
C36 C -0.47612(18) -0.28440(11) -0.41650(14)
C37 C -0.44930(16) -0.25706(11) -0.48234(12)
C38 C -0.47735(15) -0.19375(11) -0.50011(11)
C39 C -0.53393(13) -0.15703(11) -0.45074(11)
C40 C -0.56019(13) -0.18574(13) -0.38523(13)
C41 C -0.50309(19) -0.2564(2) -0.29281(16)
C42 C -0.39772(18) -0.32461(10) -0.38394(14)
C43 C -0.3509(2) -0.27699(16) -0.49924(15)
C44 C -0.40535(15) -0.15454(11) -0.53502(10)
C45 C -0.50426(19) -0.09096(12) -0.44898(17)
C46 C -0.55528(14) -0.14329(14) -0.32286(13)
C47 C -0.05618(13) -0.18965(11) -0.39214(11)
C48 C -0.10690(16) -0.24292(11) -0.26619(14)
C49 C -0.20582(16) -0.17804(12) -0.18001(10)
C50 C -0.2577(2) -0.05621(17) -0.21631(18)
C51 C -0.21309(18) -0.00849(10) -0.33173(14)
C52 C -0.1080(2) -0.07947(19) -0.42251(17)
C53 C -0.08034(15) -0.08453(11) -0.34641(13)
C54 C -0.13388(18) -0.04878(11) -0.29967(15)
C55 C -0.16060(17) -0.07598(11) -0.23312(12)
C56 C -0.13311(14) -0.13957(11) -0.21464(10)
C57 C -0.07714(13) -0.17668(10) -0.26379(10)
C58 C -0.05101(13) -0.14840(11) -0.32935(11)
C59 C -0.0878(6) -0.1503(3) -0.4546(4)
C60 C -0.1761(3) -0.04948(16) -0.45443(19)
C61 C -0.2312(12) -0.0105(6) -0.4026(10)
C62 C -0.1492(3) -0.1764(2) -0.5071(2)
C63 C -0.2287(3) -0.1376(3) -0.5360(2)
C64 C -0.2391(4) -0.0739(3) -0.5093(3)
C65 C -0.3375(4) -0.05081(17) -0.4970(2)
C66 C -0.3339(5) -0.0103(2) -0.4331(3)
C67 C -0.4072(5) -0.0113(3) -0.3845(4)
C68 C -0.3836(4) -0.0115(2) -0.3074(3)
C69 C -0.2860(6) -0.0104(4) -0.2842(4)
C70 C -0.1835(3) -0.2422(3) -0.5013(3)
C71 C -0.2857(3) -0.2427(2) -0.52749(18)
C72 C -0.3169(8) -0.1811(4) -0.5491(5)
C73 C -0.4190(4) -0.0895(3) -0.5085(4)
C74 C -0.4924(3) -0.05366(19) -0.3953(2)
C75 C -0.5214(5) -0.0812(5) -0.3265(3)
C76 C -0.4517(3) -0.0522(3) -0.2711(4)
C77 C -0.4247(4) -0.0909(4) -0.2157(3)
C78 C -0.3208(3) -0.0891(3) -0.19028(19)
C79 C -0.2957(15) -0.1541(8) -0.1694(8)
C80 C -0.1889(4) -0.2448(3) -0.2090(3)
C81 C -0.1165(2) -0.28076(16) -0.3227(2)
C82 C -0.0879(4) -0.2538(3) -0.3912(2)
C83 C -0.1566(3) -0.2809(2) -0.4462(3)
C84 C -0.5236(6) -0.1829(6) -0.2597(4)
C85 C -0.4602(4) -0.1570(3) -0.2105(2)
C86 C -0.3801(4) -0.1959(4) -0.1813(3)
C87 C -0.3690(5) -0.2587(5) -0.2066(5)
C88 C -0.2701(4) -0.2834(2) -0.2212(2)
C89 C -0.2736(6) -0.3239(3) -0.2849(4)
C90 C -0.2009(6) -0.3218(3) -0.3336(4)
C91 C -0.2249(3) -0.32268(16) -0.4109(3)
C92 C -0.3220(6) -0.3242(3) -0.4342(3)
C93 C -0.4335(3) -0.2852(3) -0.2629(2)
C94 C -0.3758(5) -0.3247(5) -0.3118(7)
H28? H -1.0601 0.0300 -0.5238
C95? C -0.4437(5) -0.0573(3) -0.4666(4)
C96? C -0.4895(5) -0.2271(5) -0.2429(4)
C97? C -0.1734(5) -0.2743(3) -0.2450(4)
C98? C -0.2799(7) -0.2954(4) -0.4753(5)
C99? C -0.3340(7) -0.3125(4) -0.2607(5)
C100? C -0.2313(6) -0.2408(5) -0.1932(5)
C101? C -0.4738(7) -0.0402(5) -0.3142(7)
C102? C -0.3853(8) -0.1556(5) -0.1761(4)
C103? C -0.2343(9) -0.3164(6) -0.2869(11)
C104? C -0.4035(10) -0.2249(7) -0.1942(6)
C105? C -0.5202(16) -0.1633(12) -0.2619(14)
C106? C -0.3023(13) -0.3277(7) -0.4091(7)
C107? C -0.3843(7) -0.0894(7) -0.5182(7)
C108? C -0.3318(7) -0.2655(8) -0.2035(8)
C109? C -0.4327(13) -0.0615(8) -0.2436(6)
C110? C -0.2303(7) -0.1754(5) -0.5342(4)
C111? C -0.4601(10) -0.1175(7) -0.2159(7)
C112? C -0.2177(9) -0.1067(7) -0.5169(5)
C113? C -0.295(3) -0.1330(15) -0.1687(18)
C114? C -0.3346(8) -0.0352(4) -0.2357(4)
C115? C -0.1455(6) -0.2907(4) -0.3980(6)
C116? C -0.1580(7) -0.2107(6) -0.4969(5)
C117? C -0.1776(10) -0.2694(6) -0.4694(5)
C118? C -0.5296(11) -0.0786(8) -0.3553(6)
C119? C -0.0970(12) -0.1695(7) -0.4551(10)
C120? C -0.1292(4) -0.1008(4) -0.4656(4)
C121? C -0.0857(6) -0.2513(5) -0.3570(5)
C122? C -0.2841(7) -0.0180(4) -0.4489(5)
C123? C -0.3833(7) -0.0139(5) -0.4246(8)
C124? C -0.2175(11) -0.3257(6) -0.3603(7)
C125? C -0.4098(9) -0.3162(8) -0.3062(10)
C126? C -0.317(2) -0.1953(13) -0.5383(10)
C127? C -0.2835(7) -0.0674(6) -0.5086(5)
C128? C -0.2083(19) -0.0146(12) -0.4099(15)
C129? C -0.3163(15) -0.0015(7) -0.3018(9)
C130? C -0.4016(10) -0.0080(6) -0.3524(7)
loop_
_geom_bond_atom_site_label_1
_geom_bond_atom_site_label_2
_geom_bond_site_symmetry_1
_geom_bond_site_symmetry_2
N1 H1 1_555 1_555
N2 C6 1_555 1_555
C1 N1 1_555 1_555
C2 C1 1_555 1_555
H2 C2 1_555 1_555
C3 C2 1_555 1_555
H3 C3 1_555 1_555
C4 N1 1_555 1_555
C5 C4 1_555 1_555
C6 C5 1_555 1_555
C7 C6 1_555 1_555
H4 C7 1_555 1_555
C8 C7 1_555 1_555
H5 C8 1_555 1_555
C9 N2 1_555 1_555
C10 C1 1_555 1_555
C11 C5 1_555 1_555
C12 C11 1_555 1_555
H6 C12 1_555 1_555
C13 C12 1_555 1_555
H7 C13 1_555 1_555
C14 C13 1_555 1_555
H8 C14 1_555 1_555
C15 C14 1_555 1_555
H9 C15 1_555 1_555
C16 C11 1_555 1_555
H10 C16 1_555 1_555
C17 C10 1_555 1_555
C18 C17 1_555 1_555
H11 C18 1_555 1_555
C19 C18 1_555 1_555
H12 C19 1_555 1_555
C20 C19 1_555 1_555
H13 C20 1_555 1_555
C21 C20 1_555 1_555
H14 C21 1_555 1_555
C22 C17 1_555 1_555
H15 C22 1_555 1_555
C23 H16 1_555 1_555
C24 C23 1_555 1_555
H17 C24 1_555 1_555
C25 C24 1_555 1_555
H18 C25 1_555 1_555
C26 C25 1_555 1_555
H19 C26 1_555 1_555
C27 C26 1_555 1_555
H20 C27 1_555 1_555
C28 C23 1_555 1_555
H21 C28 1_555 1_555
C29 H22 1_555 1_555
C30 C29 1_555 1_555
H23 C30 1_555 1_555
C31 C29 1_555 1_555
H24 C31 1_555 1_555
C32 H25 1_555 1_555
C33 C32 1_555 1_555
H26 C33 1_555 1_555
C34 C32 1_555 1_555
H27 C34 1_555 1_555
C35 C36 1_555 1_555
C36 C37 1_555 1_555
C37 C38 1_555 1_555
C38 C39 1_555 1_555
C39 C40 1_555 1_555
C40 C35 1_555 1_555
C41 C35 1_555 1_555
C42 C36 1_555 1_555
C43 C37 1_555 1_555
C44 C38 1_555 1_555
C45 C39 1_555 1_555
C46 C40 1_555 1_555
C47 C58 1_555 1_555
C48 C57 1_555 1_555
C49 C56 1_555 1_555
C50 C55 1_555 1_555
C51 C54 1_555 1_555
C52 C53 1_555 1_555
C53 C54 1_555 1_555
C54 C55 1_555 1_555
C55 C56 1_555 1_555
C56 C57 1_555 1_555
C57 C58 1_555 1_555
C58 C53 1_555 1_555
C59 C47 1_555 1_555
C60 C52 1_555 1_555
C61 C51 1_555 1_555
C62 C59 1_555 1_555
C63 C62 1_555 1_555
C64 C60 1_555 1_555
C65 C64 1_555 1_555
C66 C61 1_555 1_555
C67 C66 1_555 1_555
C68 C67 1_555 1_555
C69 C50 1_555 1_555
C70 C62 1_555 1_555
C71 C43 1_555 1_555
C72 C44 1_555 1_555
C73 C44 1_555 1_555
C74 C45 1_555 1_555
C75 C46 1_555 1_555
C76 C68 1_555 1_555
C77 C76 1_555 1_555
C78 C50 1_555 1_555
C79 C49 1_555 1_555
C80 C48 1_555 1_555
C81 C48 1_555 1_555
C82 C47 1_555 1_555
C83 C70 1_555 1_555
C84 C41 1_555 1_555
C85 C77 1_555 1_555
C86 C79 1_555 1_555
C87 C86 1_555 1_555
C88 C80 1_555 1_555
C89 C88 1_555 1_555
C90 C81 1_555 1_555
C91 C83 1_555 1_555
C92 C42 1_555 1_555
C93 C41 1_555 1_555
C94 C42 1_555 1_555
C10B C9 1_555 1_555
C1B C10B 1_555 1_555
N1B C1B 1_555 1_555
H1B N1B 1_555 1_555
C4B N1B 1_555 1_555
C3B C4B 1_555 1_555
C2B C1B 1_555 1_555
H2B C2B 1_555 1_555
H3B C3B 1_555 1_555
C5B C4B 1_555 1_555
C6B C5B 1_555 1_555
N2B C6B 1_555 1_555
C9B C10 1_555 1_555
C8B C9B 1_555 1_555
C7B C6B 1_555 1_555
H4B C7B 1_555 1_555
H5B C8B 1_555 1_555
C11B C5B 1_555 1_555
C12B C11B 1_555 1_555
H6B C12B 1_555 1_555
C13B C12B 1_555 1_555
H7B C13B 1_555 1_555
C14B C13B 1_555 1_555
H8B C14B 1_555 1_555
C15B C14B 1_555 1_555
H9B C15B 1_555 1_555
C16B C11B 1_555 1_555
H10B C16B 1_555 1_555
C17B C10B 1_555 1_555
C18B C17B 1_555 1_555
H11B C18B 1_555 1_555
C19B C18B 1_555 1_555
H12B C19B 1_555 1_555
C20B C19B 1_555 1_555
H13B C20B 1_555 1_555
C21B C20B 1_555 1_555
H14B C21B 1_555 1_555
C22B C17B 1_555 1_555
H15B C22B 1_555 1_555
C31B C30 1_555 1_555
C29B C31B 1_555 1_555
H22B C29B 1_555 1_555
C30B C31 1_555 1_555
H23B C30B 1_555 1_555
H24B C31B 1_555 1_555
C34B C33 1_555 1_555
C32B C34B 1_555 1_555
H25B C32B 1_555 1_555
C33B C34 1_555 1_555
H26B C33B 1_555 1_555
H27B C34B 1_555 1_555
C3 C4 1_555 1_555
C8 C9 1_555 1_555
C15 C16 1_555 1_555
C21 C22 1_555 1_555
C27 C28 1_555 1_555
C43 C92 1_555 1_555
C45 C73 1_555 1_555
C46 C84 1_555 1_555
C49 C80 1_555 1_555
C51 C69 1_555 1_555
C52 C59 1_555 1_555
C60 C61 1_555 1_555
C63 C64 1_555 1_555
C63 C72 1_555 1_555
C65 C66 1_555 1_555
C65 C73 1_555 1_555
C67 C74 1_555 1_555
C68 C69 1_555 1_555
C70 C71 1_555 1_555
C71 C72 1_555 1_555
C74 C75 1_555 1_555
C75 C76 1_555 1_555
C77 C78 1_555 1_555
C78 C79 1_555 1_555
C81 C82 1_555 1_555
C82 C83 1_555 1_555
C84 C85 1_555 1_555
C85 C86 1_555 1_555
C87 C88 1_555 1_555
C87 C93 1_555 1_555
C89 C90 1_555 1_555
C89 C94 1_555 1_555
C90 C91 1_555 1_555
C91 C92 1_555 1_555
C93 C94 1_555 1_555
C3B C2B 1_555 1_555
N2B C9B 1_555 1_555
C8B C7B 1_555 1_555
C15B C16B 1_555 1_555
C21B C22B 1_555 1_555
C29B C30B 1_555 1_555
C32B C33B 1_555 1_555

#END
