
#######################################################################
#
#                 Cambridge Crystallographic Data Centre
#                                CCDC 
#
#######################################################################
#
# If this CIF has been generated from an entry in the Cambridge 
# Structural Database, then it will include bibliographic, chemical, 
# crystal, experimental, refinement or atomic coordinate data resulting 
# from the CCDC's data processing and validation procedures.
#
#######################################################################

data_UBOJIG
_chemical_formula_moiety         'C16 H10 N2'
_chemical_name_systematic        Benzo[a]phenazine
_symmetry_cell_setting           monoclinic
_symmetry_space_group_name_H-M   'P n'
_symmetry_Int_Tables_number      7
_space_group_name_Hall           'P -2yac'
loop_
_symmetry_equiv_pos_site_id
_symmetry_equiv_pos_as_xyz
1 x,y,z
2 1/2+x,-y,1/2+z
_cell_length_a                   7.1628(15)
_cell_length_b                   5.0923(12)
_cell_length_c                   15.510(3)
_cell_angle_alpha                90
_cell_angle_beta                 90.680(5)
_cell_angle_gamma                90
_cell_volume                     565.689
_exptl_crystal_colour            'pale brown'
_exptl_crystal_description       tabular
_cell_formula_units_Z            2
loop_
_atom_site_label
_atom_site_type_symbol
_atom_site_fract_x
_atom_site_fract_y
_atom_site_fract_z
C1 C 0.3719(3) -0.0146(4) 0.29815(12)
C2 C 0.5295(3) -0.1605(5) 0.32532(14)
H1 H 0.6455 -0.1270 0.3013
C3 C 0.5121(3) -0.3492(5) 0.38632(16)
H2 H 0.6163 -0.4453 0.4038
C4 C 0.3375(3) -0.4010(6) 0.42351(15)
H3 H 0.3277 -0.5308 0.4654
C5 C 0.1833(3) -0.2638(5) 0.39903(15)
H4 H 0.0689 -0.3007 0.4241
C6 C 0.1955(3) -0.0661(5) 0.33605(13)
C7 C 0.0613(3) 0.2543(5) 0.25251(12)
C8 C -0.0968(3) 0.4078(5) 0.22636(14)
H5 H -0.2126 0.3738 0.2504
C9 C -0.0806(3) 0.5998(5) 0.16774(14)
H6 H -0.1846 0.7016 0.1541
C10 C 0.0934(3) 0.6531(4) 0.12532(14)
C11 C 0.1068(3) 0.8497(5) 0.06221(14)
H7 H 0.0029 0.9516 0.0484
C12 C 0.2724(3) 0.8925(6) 0.02072(14)
H8 H 0.2801 1.0222 -0.0213
C13 C 0.4274(3) 0.7428(5) 0.04141(14)
H9 H 0.5392 0.7733 0.0133
C14 C 0.4184(3) 0.5489(5) 0.10312(14)
H10 H 0.5236 0.4483 0.1159
C15 C 0.2513(2) 0.5026(4) 0.14682(12)
C16 C 0.2383(3) 0.3042(5) 0.21293(13)
N1 N 0.3913(2) 0.1714(4) 0.23608(11)
N2 N 0.0408(2) 0.0709(4) 0.31267(10)
loop_
_geom_bond_atom_site_label_1
_geom_bond_atom_site_label_2
_geom_bond_site_symmetry_1
_geom_bond_site_symmetry_2
C1 C2 1_555 1_555
C2 H1 1_555 1_555
C3 C2 1_555 1_555
H2 C3 1_555 1_555
C4 C3 1_555 1_555
H3 C4 1_555 1_555
C5 C4 1_555 1_555
H4 C5 1_555 1_555
C6 C1 1_555 1_555
C7 C8 1_555 1_555
C8 H5 1_555 1_555
C9 C8 1_555 1_555
H6 C9 1_555 1_555
C10 C9 1_555 1_555
C11 C10 1_555 1_555
H7 C11 1_555 1_555
C12 C11 1_555 1_555
H8 C12 1_555 1_555
C13 C12 1_555 1_555
H9 C13 1_555 1_555
C14 C13 1_555 1_555
H10 C14 1_555 1_555
C15 C10 1_555 1_555
C16 C7 1_555 1_555
N1 C1 1_555 1_555
N2 C6 1_555 1_555
C5 C6 1_555 1_555
C7 N2 1_555 1_555
C14 C15 1_555 1_555
C15 C16 1_555 1_555
C16 N1 1_555 1_555

#END
