
#######################################################################
#
#                 Cambridge Crystallographic Data Centre
#                                CCDC 
#
#######################################################################
#
# If this CIF has been generated from an entry in the Cambridge 
# Structural Database, then it will include bibliographic, chemical, 
# crystal, experimental, refinement or atomic coordinate data resulting 
# from the CCDC's data processing and validation procedures.
#
#######################################################################

data_UBOLEF
_chemical_formula_moiety         'C19 H20 N4 O4,0.5(C3 H7 N1 O1)'
_chemical_name_systematic        
'5-amino-7-(4-methoxyphenyl)-2,4-dioxo-1,2,3,4,4a,7,7a,8,10,11-decahydropyrano[3,4-i]quinazoline-6-carbonitrile N,N-dimethylformamide solvate'
_symmetry_cell_setting           triclinic
_symmetry_space_group_name_H-M   'P -1'
_symmetry_Int_Tables_number      2
_space_group_name_Hall           '-P 1'
loop_
_symmetry_equiv_pos_site_id
_symmetry_equiv_pos_as_xyz
1 x,y,z
2 -x,-y,-z
_cell_length_a                   12.0701(14)
_cell_length_b                   13.5999(15)
_cell_length_c                   14.7602(16)
_cell_angle_alpha                77.451(2)
_cell_angle_beta                 70.7190(10)
_cell_angle_gamma                64.4600(10)
_cell_volume                     2055.54
_cell_formula_units_Z            4
loop_
_atom_site_label
_atom_site_type_symbol
_atom_site_fract_x
_atom_site_fract_y
_atom_site_fract_z
N1 N 0.6540(6) 0.5266(5) 0.4814(4)
H1 H 0.5991 0.5091 0.5286
N2 N 0.6969(5) 0.6120(4) 0.3259(4)
H2 H 0.6887 0.6281 0.2682
N3 N 0.9746(6) 0.3353(5) 0.4138(4)
H3 H 1.0180 0.2750 0.3868
H4 H 0.9490 0.3342 0.4756
N4 N 1.1092(7) 0.2582(6) 0.1826(5)
O1 O 0.7940(5) 0.8469(4) 0.2463(4)
O2 O 0.7869(5) 0.4768(4) 0.5791(3)
O3 O 0.5249(5) 0.5635(4) 0.3807(3)
O4 O 1.4018(6) 0.5586(5) -0.0960(5)
C1 C 0.8445(7) 0.7541(6) 0.1921(6)
H5 H 0.9125 0.7599 0.1363
H6 H 0.7780 0.7534 0.1695
C2 C 0.8964(7) 0.6462(6) 0.2545(5)
H7 H 0.9658 0.6489 0.2731
C3 C 0.7967(6) 0.6341(5) 0.3485(5)
C4 C 0.7357(7) 0.7415(6) 0.3975(5)
H8 H 0.6635 0.7404 0.4513
H9 H 0.7974 0.7475 0.4224
C5 C 0.6911(8) 0.8415(7) 0.3258(6)
H10 H 0.6269 0.8370 0.3029
H11 H 0.6524 0.9078 0.3586
C6 C 0.8618(6) 0.5359(5) 0.4125(5)
H12 H 0.9167 0.5550 0.4357
C7 C 0.7658(6) 0.5117(5) 0.4989(5)
C8 C 0.6206(7) 0.5681(6) 0.3927(5)
C9 C 0.9465(7) 0.4322(6) 0.3588(5)
C10 C 0.9831(7) 0.4413(6) 0.2609(5)
C11 C 0.9551(7) 0.5488(6) 0.1949(5)
H13 H 0.8919 0.5544 0.1640
C12 C 1.0745(7) 0.5514(6) 0.1141(5)
C13 C 1.0711(7) 0.5792(6) 0.0204(5)
H14 H 0.9957 0.5964 0.0050
C14 C 1.1779(8) 0.5826(7) -0.0531(5)
H15 H 1.1739 0.6009 -0.1168
C15 C 1.2910(8) 0.5583(7) -0.0300(6)
C16 C 1.2947(8) 0.5348(7) 0.0661(6)
H16 H 1.3681 0.5228 0.0822
C17 C 1.1894(8) 0.5298(7) 0.1362(6)
H17 H 1.1930 0.5118 0.1999
C18 C 1.0549(7) 0.3425(7) 0.2140(5)
C19 C 1.4062(10) 0.5677(10) -0.1955(7)
H18 H 1.3871 0.5106 -0.2068
H19 H 1.4899 0.5611 -0.2347
H20 H 1.3447 0.6376 -0.2117
N5 N 0.9822(6) 0.0656(5) 0.6104(4)
H21 H 1.0207 0.0650 0.5499
N6 N 0.9103(5) -0.0341(4) 0.7489(4)
H22 H 0.8726 -0.0780 0.7773
N7 N 0.7102(6) 0.3018(5) 0.7145(4)
H23 H 0.6310 0.3365 0.7160
H24 H 0.7660 0.3250 0.6746
N8 N 0.4282(7) 0.2748(6) 0.8377(5)
O5 O 1.0181(5) -0.1246(4) 0.9717(4)
O6 O 0.9901(5) 0.2280(4) 0.6122(3)
O7 O 0.9514(5) -0.0874(4) 0.6014(3)
O8 O 0.3779(8) 0.1522(7) 1.2956(5)
C20 C 0.8864(7) -0.0825(6) 0.9682(5)
H25 H 0.8319 -0.0775 1.0336
H26 H 0.8762 -0.1346 0.9392
C21 C 0.8415(7) 0.0283(5) 0.9125(5)
H27 H 0.8475 0.0799 0.9460
C22 C 0.9317(7) 0.0282(5) 0.8095(4)
C23 C 1.0700(7) -0.0203(6) 0.8175(5)
H28 H 1.1284 -0.0278 0.7534
H29 H 1.0816 0.0294 0.8484
C24 C 1.1015(8) -0.1328(6) 0.8760(5)
H30 H 1.0930 -0.1833 0.8438
H31 H 1.1891 -0.1615 0.8791
C25 C 0.8934(7) 0.1478(5) 0.7628(5)
H32 H 0.9205 0.1873 0.7937
C26 C 0.9611(7) 0.1523(6) 0.6545(5)
C27 C 0.9467(7) -0.0246(6) 0.6545(5)
C28 C 0.7478(7) 0.2094(6) 0.7757(5)
C29 C 0.6642(7) 0.1680(6) 0.8408(5)
C30 C 0.7002(7) 0.0688(6) 0.9149(5)
H33 H 0.6880 0.0096 0.8969
C31 C 0.6150(7) 0.0949(6) 1.0157(5)
C32 C 0.5782(8) 0.1944(7) 1.0503(6)
H34 H 0.6056 0.2474 1.0106
C33 C 0.5010(9) 0.2167(8) 1.1433(6)
H35 H 0.4786 0.2832 1.1661
C34 C 0.4580(9) 0.1383(9) 1.2017(6)
C35 C 0.4939(8) 0.0400(8) 1.1694(6)
H36 H 0.4681 -0.0134 1.2098
C36 C 0.5691(8) 0.0192(7) 1.0760(5)
H37 H 0.5891 -0.0468 1.0534
C37 C 0.5336(8) 0.2245(6) 0.8426(5)
C38 C 0.3246(13) 0.2513(13) 1.3260(9)
H38 H 0.3892 0.2706 1.3323
H39 H 0.2635 0.2518 1.3873
H40 H 0.2826 0.3032 1.2803
N9 N 0.3336(13) 0.8452(19) 0.5219(18)
O9 O 0.421(4) 0.938(4) 0.548(3)
C39 C 0.373(3) 0.870(4) 0.585(3)
H41 H 0.3644 0.8402 0.6484
C40 C 0.340(5) 0.883(5) 0.422(5)
H42 H 0.2661 0.8861 0.4078
H43 H 0.4153 0.8336 0.3821
H44 H 0.3415 0.9547 0.4096
C41 C 0.272(5) 0.763(5) 0.558(5)
H45 H 0.2432 0.7594 0.6271
H46 H 0.3338 0.6924 0.5383
H47 H 0.2016 0.7849 0.5317
O10? O 0.301(6) 0.715(5) 0.621(5)
C42? C 0.317(5) 0.801(6) 0.612(7)
H48? H 0.3164 0.8314 0.6628
C43? C 0.336(6) 0.808(6) 0.438(5)
H49? H 0.2950 0.7572 0.4565
H50? H 0.4230 0.7723 0.4019
H51? H 0.2923 0.8691 0.3987
C44? C 0.351(8) 0.952(6) 0.502(6)
H52? H 0.2789 1.0098 0.4836
H53? H 0.4270 0.9461 0.4500
H54? H 0.3597 0.9691 0.5584
loop_
_geom_bond_atom_site_label_1
_geom_bond_atom_site_label_2
_geom_bond_site_symmetry_1
_geom_bond_site_symmetry_2
N1 H1 1_555 1_555
N2 H2 1_555 1_555
N3 H3 1_555 1_555
H4 N3 1_555 1_555
N4 C18 1_555 1_555
O1 C1 1_555 1_555
O2 C7 1_555 1_555
O3 C8 1_555 1_555
O4 C15 1_555 1_555
C1 H5 1_555 1_555
H6 C1 1_555 1_555
C2 C1 1_555 1_555
H7 C2 1_555 1_555
C3 N2 1_555 1_555
C4 C3 1_555 1_555
H8 C4 1_555 1_555
H9 C4 1_555 1_555
C5 O1 1_555 1_555
H10 C5 1_555 1_555
H11 C5 1_555 1_555
C6 C3 1_555 1_555
H12 C6 1_555 1_555
C7 N1 1_555 1_555
C8 N1 1_555 1_555
C9 N3 1_555 1_555
C10 C9 1_555 1_555
C11 C2 1_555 1_555
H13 C11 1_555 1_555
C12 C11 1_555 1_555
C13 C12 1_555 1_555
H14 C13 1_555 1_555
C14 C13 1_555 1_555
H15 C14 1_555 1_555
C15 C14 1_555 1_555
C16 C15 1_555 1_555
H16 C16 1_555 1_555
C17 C12 1_555 1_555
H17 C17 1_555 1_555
C18 C10 1_555 1_555
C19 O4 1_555 1_555
H18 C19 1_555 1_555
H19 C19 1_555 1_555
H20 C19 1_555 1_555
N5 H21 1_555 1_555
N6 H22 1_555 1_555
N7 H23 1_555 1_555
H24 N7 1_555 1_555
N8 C37 1_555 1_555
O5 C20 1_555 1_555
O6 C26 1_555 1_555
O7 C27 1_555 1_555
O8 C34 1_555 1_555
C20 H25 1_555 1_555
H26 C20 1_555 1_555
C21 C20 1_555 1_555
H27 C21 1_555 1_555
C22 N6 1_555 1_555
C23 C22 1_555 1_555
H28 C23 1_555 1_555
H29 C23 1_555 1_555
C24 O5 1_555 1_555
H30 C24 1_555 1_555
H31 C24 1_555 1_555
C25 C22 1_555 1_555
H32 C25 1_555 1_555
C26 N5 1_555 1_555
C27 N5 1_555 1_555
C28 N7 1_555 1_555
C29 C28 1_555 1_555
C30 C21 1_555 1_555
H33 C30 1_555 1_555
C31 C30 1_555 1_555
C32 C31 1_555 1_555
H34 C32 1_555 1_555
C33 C32 1_555 1_555
H35 C33 1_555 1_555
C34 C33 1_555 1_555
C35 C34 1_555 1_555
H36 C35 1_555 1_555
C36 C31 1_555 1_555
H37 C36 1_555 1_555
C37 C29 1_555 1_555
C38 O8 1_555 1_555
H38 C38 1_555 1_555
H39 C38 1_555 1_555
H40 C38 1_555 1_555
N9 C39 1_555 1_555
O9 C39 1_555 1_555
C39 H41 1_555 1_555
C40 N9 1_555 1_555
H42 C40 1_555 1_555
H43 C40 1_555 1_555
H44 C40 1_555 1_555
C41 N9 1_555 1_555
H45 C41 1_555 1_555
H46 C41 1_555 1_555
H47 C41 1_555 1_555
N2 C8 1_555 1_555
C2 C3 1_555 1_555
C4 C5 1_555 1_555
C6 C7 1_555 1_555
C6 C9 1_555 1_555
C10 C11 1_555 1_555
C16 C17 1_555 1_555
N6 C27 1_555 1_555
C21 C22 1_555 1_555
C23 C24 1_555 1_555
C25 C26 1_555 1_555
C25 C28 1_555 1_555
C29 C30 1_555 1_555
C35 C36 1_555 1_555

#END
