
#######################################################################
#
#                 Cambridge Crystallographic Data Centre
#                                CCDC 
#
#######################################################################
#
# If this CIF has been generated from an entry in the Cambridge 
# Structural Database, then it will include bibliographic, chemical, 
# crystal, experimental, refinement or atomic coordinate data resulting 
# from the CCDC's data processing and validation procedures.
#
#######################################################################

data_UBONUX
_chemical_compound_source        'the root of Prismatomeris connata'
_chemical_name_common            
'prisconnatanone C methanol solvate hemihydrate'
_chemical_formula_moiety         'C18 H20 O6,0.25(C1 H4 O1),0.5(H2 O1)'
_chemical_name_systematic        
'2-hydroxy-5,6,7-trimethoxy-3-methyl-1,2,3,4-tetrahydroanthracene-9,10-dione methanol solvate hemihydrate'
_chemical_properties_biological  
'cytotoxicity was tested in a panel of human lung tumor cells (H1229, HTB179, A549 and H520 cell lines)'
_symmetry_cell_setting           orthorhombic
_symmetry_space_group_name_H-M   'P 21 21 2'
_symmetry_Int_Tables_number      18
_space_group_name_Hall           'P 2 2ab'
loop_
_symmetry_equiv_pos_site_id
_symmetry_equiv_pos_as_xyz
1 x,y,z
2 1/2+x,1/2-y,-z
3 1/2-x,1/2+y,-z
4 -x,-y,z
_cell_length_a                   14.2508(3)
_cell_length_b                   44.4928(11)
_cell_length_c                   10.7064(3)
_cell_angle_alpha                90
_cell_angle_beta                 90
_cell_angle_gamma                90
_cell_volume                     6788.48
_exptl_crystal_colour            orange
_exptl_crystal_description       prism
_cell_formula_units_Z            16
_exptl_crystal_recrystallization_method methanol/water
loop_
_atom_site_label
_atom_site_type_symbol
_atom_site_fract_x
_atom_site_fract_y
_atom_site_fract_z
O1 O 0.7867(5) 0.86360(14) 0.5652(8)
O2 O 0.2933(4) 0.69715(12) 1.3188(6)
C1 C 0.3065(5) 0.77891(17) 0.6581(9)
H1 H 0.3577 0.7669 0.6205
H2 H 0.2480 0.7742 0.6121
O3 O 0.3129(3) 0.65714(11) 1.1407(6)
O4 O 0.3330(3) 0.67429(12) 0.8928(6)
O5 O 0.2922(4) 0.71972(13) 0.7270(6)
O6 O 0.2624(4) 0.79781(12) 1.1004(6)
O7 O 0.2820(4) 0.86221(11) 0.7122(7)
H3 H 0.2321 0.8712 0.6936
C2 C 0.2751(7) 0.7178(2) 1.4198(10)
H4 H 0.2109 0.7255 1.4127
H5 H 0.3196 0.7345 1.4156
H6 H 0.2824 0.7073 1.4997
C3 C 0.2952(5) 0.70820(19) 1.2004(9)
C4 C 0.2852(5) 0.73835(18) 1.1712(9)
H7 H 0.2773 0.7528 1.2355
C5 C 0.2867(5) 0.74721(18) 1.0470(9)
C6 C 0.2999(5) 0.72556(16) 0.9475(8)
C7 C 0.2965(5) 0.73681(15) 0.8182(8)
C8 C 0.2948(5) 0.76980(18) 0.7926(9)
C9 C 0.3282(6) 0.81150(18) 0.6429(9)
H8 H 0.3943 0.8148 0.6712
C10 C 0.3217(6) 0.8207(2) 0.5050(9)
H9 H 0.3418 0.8416 0.4957
H10 H 0.2568 0.8186 0.4763
H11 H 0.3626 0.8077 0.4550
C11 C 0.4024(6) 0.6426(2) 1.1342(11)
H12 H 0.4502 0.6555 1.1722
H13 H 0.4187 0.6389 1.0466
H14 H 0.3997 0.6234 1.1793
C12 C 0.3096(5) 0.68637(17) 1.1056(10)
C13 C 0.3117(5) 0.69548(18) 0.9793(10)
C14 C 0.2522(6) 0.6573(2) 0.8469(10)
H15 H 0.2107 0.6707 0.7998
H16 H 0.2179 0.6488 0.9178
H17 H 0.2739 0.6411 0.7923
C15 C 0.2636(6) 0.83093(17) 0.7250(9)
H18 H 0.1968 0.8269 0.7018
C16 C 0.2785(5) 0.82240(16) 0.8615(8)
H19 H 0.3372 0.8319 0.8908
H20 H 0.2263 0.8310 0.9111
C17 C 0.2840(5) 0.78973(16) 0.8878(9)
C18 C 0.2769(5) 0.77965(16) 1.0157(9)
O8 O 0.1695(7) 0.8901(3) 0.5425(16)
O9 O 0.1562(4) -0.04341(14) -0.2567(6)
O10 O 0.1038(4) 0.11571(12) 0.3688(6)
H21 H 0.1380 0.1227 0.4258
O11 O 0.1410(4) -0.02562(13) 0.3334(7)
O12 O 0.1728(4) -0.08400(13) -0.0838(7)
O13 O 0.1448(5) -0.06987(14) 0.1675(7)
O14 O 0.0869(4) 0.05412(15) -0.0267(7)
C19 C 0.0864(8) 0.0734(2) 0.5730(11)
H22 H 0.1535 0.0759 0.5904
H23 H 0.0609 0.0576 0.6271
H24 H 0.0535 0.0923 0.5892
C20 C 0.0733(6) 0.0646(2) 0.4385(10)
H25 H 0.0048 0.0662 0.4192
C21 C 0.1029(6) 0.03208(19) 0.4124(9)
H26 H 0.1650 0.0287 0.4512
H27 H 0.0577 0.0185 0.4541
C22 C 0.1087(6) 0.0235(2) 0.2797(10)
C23 C 0.1274(6) -0.0082(2) 0.2462(10)
C24 C 0.1312(5) -0.0180(2) 0.1163(10)
C25 C 0.1448(6) -0.0476(2) 0.0765(11)
C26 C 0.1562(6) -0.0554(2) -0.0499(11)
C27 C 0.1472(5) -0.0324(2) -0.1397(11)
C28 C 0.1406(6) -0.0217(2) -0.3543(10)
H28 H 0.1904 -0.0065 -0.3522
H29 H 0.0797 -0.0120 -0.3417
H30 H 0.1411 -0.0319 -0.4355
C29 C 0.1245(5) 0.08529(17) 0.3513(10)
H31 H 0.1935 0.0822 0.3618
C30 C 0.1213(5) 0.0038(2) 0.0229(10)
C31 C 0.1288(5) -0.0036(2) -0.1015(10)
H32 H 0.1210 0.0117 -0.1626
C32 C 0.0975(7) -0.1035(2) -0.0881(17)
H33 H 0.0479 -0.0949 -0.1403
H34 H 0.0735 -0.1067 -0.0034
H35 H 0.1177 -0.1227 -0.1236
C33 C 0.2277(8) -0.0838(3) 0.1994(16)
H36 H 0.2773 -0.0687 0.2084
H37 H 0.2452 -0.0982 0.1339
H38 H 0.2197 -0.0945 0.2787
C34 C 0.1042(5) 0.0354(2) 0.0527(10)
C35 C 0.1030(5) 0.0455(2) 0.1850(11)
C36 C 0.0978(6) 0.07876(19) 0.2150(11)
H39 H 0.0332 0.0860 0.1993
H40 H 0.1407 0.0899 0.1588
O15 O 0.3412(4) 1.04114(13) 1.3042(7)
O16 O 0.3315(4) 1.08297(12) 1.1271(6)
O17 O 0.3513(4) 1.02375(12) 0.7142(6)
O18 O 0.4591(4) 0.88525(12) 0.6751(6)
H41 H 0.4052 0.8784 0.6611
O19 O 0.4142(4) 0.94458(14) 1.0779(7)
O20 O 0.3621(3) 1.06920(12) 0.8831(6)
C37 C 0.3589(6) 1.0200(2) 1.4045(9)
H42 H 0.4254 1.0143 1.4040
H43 H 0.3202 1.0020 1.3924
H44 H 0.3433 1.0293 1.4847
C38 C 0.3546(5) 1.0311(2) 1.1856(9)
C39 C 0.3719(5) 1.00255(19) 1.1521(9)
H45 H 0.3790 0.9877 1.2152
C40 C 0.3795(5) 0.99418(17) 1.0270(9)
C41 C 0.3686(5) 1.01652(18) 0.9337(9)
C42 C 0.3712(5) 1.00634(18) 0.7994(9)
C43 C 0.3915(6) 0.97515(18) 0.7689(10)
C44 C 0.3974(6) 0.96630(18) 0.6371(9)
H46 H 0.4580 0.9737 0.6041
H47 H 0.3472 0.9770 0.5914
C45 C 0.3898(5) 0.93338(17) 0.6048(9)
H48 H 0.3235 0.9269 0.6186
C46 C 0.4160(7) 0.9265(2) 0.4720(9)
H49 H 0.4829 0.9307 0.4595
H50 H 0.3789 0.9392 0.4156
H51 H 0.4033 0.9053 0.4542
C47 C 0.4020(7) 1.0966(2) 1.2042(11)
H52 H 0.4557 1.0830 1.2119
H53 H 0.3759 1.1006 1.2872
H54 H 0.4225 1.1155 1.1662
C48 C 0.3480(5) 1.05375(18) 1.0971(11)
C49 C 0.4531(5) 0.91670(17) 0.6997(8)
H55 H 0.5178 0.9252 0.6921
C50 C 0.4200(6) 0.92213(17) 0.8341(9)
H56 H 0.3606 0.9111 0.8480
H57 H 0.4673 0.9140 0.8926
C51 C 0.4049(5) 0.9542(2) 0.8618(10)
C52 C 0.3992(5) 0.9636(2) 0.9931(10)
C53 C 0.3576(5) 1.0464(2) 0.9684(10)
C54 C 0.2737(6) 1.0837(2) 0.8495(10)
H58 H 0.2476 1.0938 0.9229
H59 H 0.2292 1.0685 0.8198
H60 H 0.2849 1.0984 0.7832
O21 O 0.9690(5) 0.29384(16) -0.3102(8)
O22 O 0.9851(4) 0.33527(14) -0.1317(6)
O23 O 0.9568(4) 0.27648(13) 0.2838(7)
O24 O 0.9386(4) 0.19478(13) -0.0787(7)
O25 O 0.9247(4) 0.13538(12) 0.3319(8)
H61 H 0.9793 0.1287 0.3210
O26 O 0.9962(4) 0.32023(12) 0.1118(6)
C55 C 0.9579(8) 0.2707(2) -0.4071(11)
H62 H 0.8910 0.2672 -0.4227
H63 H 0.9870 0.2519 -0.3787
H64 H 0.9883 0.2774 -0.4843
C56 C 0.9667(6) 0.2838(2) -0.1927(11)
C57 C 0.9795(5) 0.3053(2) -0.0987(10)
C58 C 0.9775(5) 0.2985(2) 0.0263(10)
C59 C 0.9657(5) 0.26840(18) 0.0631(11)
C60 C 0.9650(6) 0.25799(18) 0.1954(10)
C61 C 0.9637(6) 0.22629(18) 0.2261(10)
C62 C 0.9720(6) 0.21723(17) 0.3574(10)
H65 H 0.9132 0.2230 0.4004
H66 H 1.0233 0.2292 0.3954
C63 C 0.9903(6) 0.1852(2) 0.3849(10)
H67 H 1.0556 0.1805 0.3570
C64 C 0.9835(6) 0.1778(2) 0.5217(11)
H68 H 0.9191 0.1813 0.5507
H69 H 1.0268 0.1906 0.5689
H70 H 1.0000 0.1566 0.5347
C65 C 1.0781(7) 0.3451(3) -0.1644(12)
H71 H 1.1101 0.3292 -0.2113
H72 H 1.1135 0.3496 -0.0882
H73 H 1.0740 0.3633 -0.2160
C66 C 0.9568(6) 0.2543(2) -0.1555(12)
H74 H 0.9486 0.2393 -0.2174
C67 C 0.9584(5) 0.2458(2) -0.0290(11)
C68 C 0.9527(5) 0.20470(19) 0.1349(12)
C69 C 0.9494(5) 0.2139(2) 0.0023(11)
C70 C 0.9423(5) 0.17246(17) 0.1636(11)
H75 H 1.0003 0.1618 0.1385
H76 H 0.8898 0.1642 0.1139
C71 C 0.9231(5) 0.16640(18) 0.3065(11)
H77 H 0.8581 0.1737 0.3248
C72 C 0.9170(6) 0.3377(2) 0.1491(10)
H78 H 0.8718 0.3248 0.1925
H79 H 0.8872 0.3465 0.0752
H80 H 0.9375 0.3538 0.2054
C73 C 0.5813(7) 0.8481(3) 0.4701(13)
H81 H 0.6306 0.8415 0.4126
H82 H 0.5239 0.8524 0.4229
H83 H 0.5687 0.8322 0.5312
O27 O 0.6086(7) 0.8723(2) 0.5282(10)
H84 H 0.6631 0.8698 0.5560
loop_
_geom_bond_atom_site_label_1
_geom_bond_atom_site_label_2
_geom_bond_site_symmetry_1
_geom_bond_site_symmetry_2
O2 C2 1_555 1_555
C1 H1 1_555 1_555
H2 C1 1_555 1_555
O3 C11 1_555 1_555
O4 C13 1_555 1_555
O5 C7 1_555 1_555
O6 C18 1_555 1_555
O7 H3 1_555 1_555
C2 H4 1_555 1_555
H5 C2 1_555 1_555
H6 C2 1_555 1_555
C3 O2 1_555 1_555
C4 C3 1_555 1_555
H7 C4 1_555 1_555
C5 C4 1_555 1_555
C6 C5 1_555 1_555
C7 C6 1_555 1_555
C8 C1 1_555 1_555
C9 C1 1_555 1_555
H8 C9 1_555 1_555
C10 C9 1_555 1_555
H9 C10 1_555 1_555
H10 C10 1_555 1_555
H11 C10 1_555 1_555
C11 H12 1_555 1_555
H13 C11 1_555 1_555
H14 C11 1_555 1_555
C12 O3 1_555 1_555
C13 C6 1_555 1_555
C14 O4 1_555 1_555
H15 C14 1_555 1_555
H16 C14 1_555 1_555
H17 C14 1_555 1_555
C15 O7 1_555 1_555
H18 C15 1_555 1_555
C16 C15 1_555 1_555
H19 C16 1_555 1_555
H20 C16 1_555 1_555
C17 C8 1_555 1_555
C18 C5 1_555 1_555
O9 C27 1_555 1_555
O10 H21 1_555 1_555
O11 C23 1_555 1_555
O12 C26 1_555 1_555
O13 C25 1_555 1_555
O14 C34 1_555 1_555
C19 H22 1_555 1_555
H23 C19 1_555 1_555
H24 C19 1_555 1_555
C20 C19 1_555 1_555
H25 C20 1_555 1_555
C21 C20 1_555 1_555
H26 C21 1_555 1_555
H27 C21 1_555 1_555
C22 C21 1_555 1_555
C23 C22 1_555 1_555
C24 C23 1_555 1_555
C25 C24 1_555 1_555
C26 C25 1_555 1_555
C27 C26 1_555 1_555
C28 O9 1_555 1_555
H28 C28 1_555 1_555
H29 C28 1_555 1_555
H30 C28 1_555 1_555
C29 O10 1_555 1_555
H31 C29 1_555 1_555
C30 C24 1_555 1_555
C31 C27 1_555 1_555
H32 C31 1_555 1_555
C32 O12 1_555 1_555
H33 C32 1_555 1_555
H34 C32 1_555 1_555
H35 C32 1_555 1_555
C33 O13 1_555 1_555
H36 C33 1_555 1_555
H37 C33 1_555 1_555
H38 C33 1_555 1_555
C34 C30 1_555 1_555
C35 C22 1_555 1_555
C36 C29 1_555 1_555
H39 C36 1_555 1_555
H40 C36 1_555 1_555
O15 C37 1_555 1_555
O16 C47 1_555 1_555
O17 C42 1_555 1_555
O18 H41 1_555 1_555
O19 C52 1_555 1_555
O20 C53 1_555 1_555
C37 H42 1_555 1_555
H43 C37 1_555 1_555
H44 C37 1_555 1_555
C38 O15 1_555 1_555
C39 C38 1_555 1_555
H45 C39 1_555 1_555
C40 C39 1_555 1_555
C41 C40 1_555 1_555
C42 C41 1_555 1_555
C43 C42 1_555 1_555
C44 C43 1_555 1_555
H46 C44 1_555 1_555
H47 C44 1_555 1_555
C45 C44 1_555 1_555
H48 C45 1_555 1_555
C46 C45 1_555 1_555
H49 C46 1_555 1_555
H50 C46 1_555 1_555
H51 C46 1_555 1_555
C47 H52 1_555 1_555
H53 C47 1_555 1_555
H54 C47 1_555 1_555
C48 O16 1_555 1_555
C49 O18 1_555 1_555
H55 C49 1_555 1_555
C50 C49 1_555 1_555
H56 C50 1_555 1_555
H57 C50 1_555 1_555
C51 C43 1_555 1_555
C52 C40 1_555 1_555
C53 C41 1_555 1_555
C54 O20 1_555 1_555
H58 C54 1_555 1_555
H59 C54 1_555 1_555
H60 C54 1_555 1_555
O21 C55 1_555 1_555
O22 C57 1_555 1_555
O23 C60 1_555 1_555
O24 C69 1_555 1_555
O25 H61 1_555 1_555
O26 C58 1_555 1_555
C55 H62 1_555 1_555
H63 C55 1_555 1_555
H64 C55 1_555 1_555
C56 O21 1_555 1_555
C57 C56 1_555 1_555
C58 C57 1_555 1_555
C59 C58 1_555 1_555
C60 C59 1_555 1_555
C61 C60 1_555 1_555
C62 C61 1_555 1_555
H65 C62 1_555 1_555
H66 C62 1_555 1_555
C63 C62 1_555 1_555
H67 C63 1_555 1_555
C64 C63 1_555 1_555
H68 C64 1_555 1_555
H69 C64 1_555 1_555
H70 C64 1_555 1_555
C65 O22 1_555 1_555
H71 C65 1_555 1_555
H72 C65 1_555 1_555
H73 C65 1_555 1_555
C66 C56 1_555 1_555
H74 C66 1_555 1_555
C67 C59 1_555 1_555
C68 C61 1_555 1_555
C69 C67 1_555 1_555
C70 C68 1_555 1_555
H75 C70 1_555 1_555
H76 C70 1_555 1_555
C71 O25 1_555 1_555
H77 C71 1_555 1_555
C72 O26 1_555 1_555
H78 C72 1_555 1_555
H79 C72 1_555 1_555
H80 C72 1_555 1_555
C73 H81 1_555 1_555
H82 C73 1_555 1_555
H83 C73 1_555 1_555
O27 C73 1_555 1_555
H84 O27 1_555 1_555
C3 C12 1_555 1_555
C7 C8 1_555 1_555
C9 C15 1_555 1_555
C12 C13 1_555 1_555
C16 C17 1_555 1_555
C17 C18 1_555 1_555
C20 C29 1_555 1_555
C30 C31 1_555 1_555
C34 C35 1_555 1_555
C35 C36 1_555 1_555
C38 C48 1_555 1_555
C45 C49 1_555 1_555
C48 C53 1_555 1_555
C50 C51 1_555 1_555
C51 C52 1_555 1_555
C63 C71 1_555 1_555
C66 C67 1_555 1_555
C68 C69 1_555 1_555
C70 C71 1_555 1_555

#END
