
#######################################################################
#
#                 Cambridge Crystallographic Data Centre
#                                CCDC 
#
#######################################################################
#
# If this CIF has been generated from an entry in the Cambridge 
# Structural Database, then it will include bibliographic, chemical, 
# crystal, experimental, refinement or atomic coordinate data resulting 
# from the CCDC's data processing and validation procedures.
#
#######################################################################

data_UBOTIQ
_chemical_formula_moiety         'C8 H9 N2 1+,Cl1 O4 1-'
_chemical_name_systematic        '4-(Cyanomethyl)anilinium perchlorate'
_symmetry_cell_setting           monoclinic
_symmetry_space_group_name_H-M   'P 21/m'
_symmetry_Int_Tables_number      11
_space_group_name_Hall           '-P 2yb'
loop_
_symmetry_equiv_pos_site_id
_symmetry_equiv_pos_as_xyz
1 x,y,z
2 -x,1/2+y,-z
3 -x,-y,-z
4 x,1/2-y,z
_cell_length_a                   8.3468(17)
_cell_length_b                   6.6174(13)
_cell_length_c                   9.1112(18)
_cell_angle_alpha                90
_cell_angle_beta                 104.39(3)
_cell_angle_gamma                90
_cell_volume                     487.46
_exptl_crystal_colour            gray
_exptl_crystal_description       block
_cell_formula_units_Z            2
loop_
_atom_site_label
_atom_site_type_symbol
_atom_site_fract_x
_atom_site_fract_y
_atom_site_fract_z
Cl1 Cl 0.49939(7) 0.2500 0.21941(7)
O1 O 0.6623(3) 0.2500 0.2149(3)
O2 O 0.4302(8) 0.1076(9) 0.1005(6)
O3 O 0.4015(8) 0.4156(9) 0.1967(8)
O4 O 0.4984(5) 0.1549(8) 0.3613(4)
O2C O 0.4302(8) 0.3924(9) 0.1005(6)
O3C O 0.4015(8) 0.0844(9) 0.1967(8)
O4C O 0.4984(5) 0.3451(8) 0.3613(4)
N1 N 1.0296(3) 0.2500 0.2433(3)
N2 N 0.7829(3) 0.2500 0.9443(3)
H1 H 0.7164 0.3647 0.9294
H2 H 0.8473 0.2500 1.0395
C1 C 1.1968(3) 0.2500 0.5247(3)
H3 H 1.2662 0.3685 0.5444
C2 C 1.1055(3) 0.2500 0.3653(3)
C3 C 1.1547(3) 0.2500 0.7869(3)
H4 H 1.2693 0.2500 0.8221
C4 C 1.0831(3) 0.2500 0.6315(3)
C5 C 0.8128(3) 0.2500 0.6821(3)
H5 H 0.6982 0.2500 0.6474
C6 C 0.8871(3) 0.2500 0.8354(3)
C7 C 0.9115(3) 0.2500 0.5812(3)
H6 H 0.8626 0.2500 0.4777
C8 C 1.0573(3) 0.2500 0.8888(3)
H7 H 1.1055 0.2500 0.9925
H1C H 0.7164 0.1353 0.9294
H3C H 1.2662 0.1315 0.5444
loop_
_geom_bond_atom_site_label_1
_geom_bond_atom_site_label_2
_geom_bond_site_symmetry_1
_geom_bond_site_symmetry_2
N1 C2 1_555 1_555
N2 H1 1_555 1_555
H2 N2 1_555 1_555
C1 H3 1_555 1_555
C2 C1 1_555 1_555
C3 H4 1_555 1_555
C4 C1 1_555 1_555
C5 H5 1_555 1_555
C6 N2 1_555 1_555
C7 C4 1_555 1_555
H6 C7 1_555 1_555
C8 C3 1_555 1_555
H7 C8 1_555 1_555
Cl1 O1 1_555 1_555
O2 Cl1 1_555 1_555
O3 Cl1 1_555 1_555
O4 Cl1 1_555 1_555
H1C N2 1_555 1_555
H3C C1 1_555 1_555
O2C Cl1 1_555 1_555
O3C Cl1 1_555 1_555
O4C Cl1 1_555 1_555
C3 C4 1_555 1_555
C5 C6 1_555 1_555
C5 C7 1_555 1_555
C6 C8 1_555 1_555
O2 O3C 1_555 1_555
O3 O2C 1_555 1_555
O3 O4C 1_555 1_555
O4 O3C 1_555 1_555
O4 O4C 1_555 1_555

#END
