
#######################################################################
#
#                 Cambridge Crystallographic Data Centre
#                                CCDC 
#
#######################################################################
#
# If this CIF has been generated from an entry in the Cambridge 
# Structural Database, then it will include bibliographic, chemical, 
# crystal, experimental, refinement or atomic coordinate data resulting 
# from the CCDC's data processing and validation procedures.
#
#######################################################################

data_UBOVAL
_chemical_formula_moiety         'C24 H22 N2 O2 S1'
_chemical_name_systematic        
2-(2,3-dihydro-1H-indol-7-ylmethyl)-1-((4-methylphenyl)sulfonyl)-1H-indole
_symmetry_cell_setting           orthorhombic
_symmetry_space_group_name_H-M   'P b c a'
_symmetry_Int_Tables_number      61
_space_group_name_Hall           '-P 2ac 2ab'
loop_
_symmetry_equiv_pos_site_id
_symmetry_equiv_pos_as_xyz
1 x,y,z
2 1/2-x,-y,1/2+z
3 -x,1/2+y,1/2-z
4 1/2+x,1/2-y,-z
5 -x,-y,-z
6 1/2+x,y,1/2-z
7 x,1/2-y,1/2+z
8 1/2-x,1/2+y,z
_cell_length_a                   11.8469(18)
_cell_length_b                   9.6741(14)
_cell_length_c                   35.718(6)
_cell_angle_alpha                90
_cell_angle_beta                 90
_cell_angle_gamma                90
_cell_volume                     4093.57
_exptl_crystal_colour            colorless
_exptl_crystal_description       prism
_cell_formula_units_Z            8
loop_
_atom_site_label
_atom_site_type_symbol
_atom_site_fract_x
_atom_site_fract_y
_atom_site_fract_z
S1 S 0.55421(5) 0.43776(6) 0.075374(14)
N1 N 0.55048(14) 0.34365(18) 0.11427(4)
O1 O 0.45037(16) 0.51174(19) 0.07393(5)
O2 O 0.65810(16) 0.51200(18) 0.07593(4)
N2 N 0.7383(2) 0.4342(3) 0.21541(6)
H1 H 0.680(3) 0.461(4) 0.2041(9)
H2 H 0.410(3) 0.381(4) 0.0156(10)
C1 C 0.55727(18) 0.3182(2) 0.03845(6)
C2 C 0.4733(3) 0.3186(3) 0.01213(8)
C3 C 0.5686(3) 0.1434(4) -0.02266(8)
C4 C 0.4807(4) 0.2304(4) -0.01818(8)
H3 H 0.410(3) 0.226(4) -0.0330(12)
C5 C 0.6459(3) 0.2250(4) 0.03587(9)
H4 H 0.707(3) 0.224(4) 0.0558(11)
C6 C 0.6503(3) 0.1375(4) 0.00518(11)
H5 H 0.711(4) 0.063(5) 0.0039(11)
C7 C 0.5760(5) 0.0491(5) -0.05661(10)
H6 H 0.5923 0.1032 -0.0785
H7 H 0.5054 0.0020 -0.0599
H8 H 0.6350 -0.0175 -0.0529
C8 C 0.45570(17) 0.2584(2) 0.12271(5)
C9 C 0.49230(17) 0.1595(2) 0.14867(5)
C10 C 0.60909(19) 0.1858(2) 0.15627(6)
H9 H 0.6538(19) 0.135(3) 0.1737(6)
C11 C 0.4160(2) 0.0608(3) 0.16165(7)
H10 H 0.4366(19) -0.002(3) 0.1780(7)
C12 C 0.64514(17) 0.2925(2) 0.13514(5)
C13 C 0.3068(2) 0.0630(3) 0.14870(7)
H11 H 0.254(2) -0.009(3) 0.1558(7)
C14 C 0.3452(2) 0.2616(3) 0.10963(7)
H12 H 0.319(2) 0.330(3) 0.0920(7)
C15 C 0.2723(2) 0.1625(3) 0.12322(7)
H13 H 0.200(3) 0.164(3) 0.1137(8)
C16 C 0.81828(19) 0.3440(2) 0.20185(6)
C17 C 0.83549(18) 0.3043(2) 0.16484(6)
C18 C 0.7605(2) 0.3583(3) 0.13396(6)
H14 H 0.754(2) 0.462(3) 0.1361(7)
H15 H 0.798(2) 0.343(3) 0.1083(7)
C19 C 0.8875(2) 0.2954(3) 0.23080(7)
C20 C 0.9249(2) 0.2150(3) 0.15804(8)
H16 H 0.938(2) 0.185(3) 0.1324(9)
C21 C 0.9747(3) 0.2079(3) 0.22321(9)
H17 H 1.025(3) 0.171(3) 0.2404(8)
C22 C 0.8462(4) 0.3572(4) 0.26697(8)
H18 H 0.825(3) 0.289(4) 0.2856(11)
H19 H 0.906(4) 0.403(5) 0.2787(12)
C23 C 0.7478(4) 0.4444(4) 0.25560(8)
H20 H 0.756(4) 0.542(5) 0.2632(11)
H21 H 0.678(4) 0.423(5) 0.2669(12)
C24 C 0.9943(3) 0.1676(4) 0.18637(10)
H22 H 1.051(3) 0.107(4) 0.1790(8)
loop_
_geom_bond_atom_site_label_1
_geom_bond_atom_site_label_2
_geom_bond_site_symmetry_1
_geom_bond_site_symmetry_2
S1 N1 1_555 1_555
N1 C8 1_555 1_555
O1 S1 1_555 1_555
O2 S1 1_555 1_555
N2 H1 1_555 1_555
H2 C2 1_555 1_555
C1 S1 1_555 1_555
C2 C1 1_555 1_555
C3 C4 1_555 1_555
C4 C2 1_555 1_555
H3 C4 1_555 1_555
C5 C1 1_555 1_555
H4 C5 1_555 1_555
C6 C3 1_555 1_555
H5 C6 1_555 1_555
C7 C3 1_555 1_555
H6 C7 1_555 1_555
H7 C7 1_555 1_555
H8 C7 1_555 1_555
C8 C9 1_555 1_555
C9 C10 1_555 1_555
C10 H9 1_555 1_555
C11 C9 1_555 1_555
H10 C11 1_555 1_555
C12 N1 1_555 1_555
C13 C11 1_555 1_555
H11 C13 1_555 1_555
C14 C8 1_555 1_555
H12 C14 1_555 1_555
C15 C13 1_555 1_555
H13 C15 1_555 1_555
C16 N2 1_555 1_555
C17 C16 1_555 1_555
C18 C12 1_555 1_555
H14 C18 1_555 1_555
H15 C18 1_555 1_555
C19 C16 1_555 1_555
C20 C17 1_555 1_555
H16 C20 1_555 1_555
C21 C19 1_555 1_555
H17 C21 1_555 1_555
C22 C19 1_555 1_555
H18 C22 1_555 1_555
H19 C22 1_555 1_555
C23 N2 1_555 1_555
H20 C23 1_555 1_555
H21 C23 1_555 1_555
C24 C20 1_555 1_555
H22 C24 1_555 1_555
C5 C6 1_555 1_555
C10 C12 1_555 1_555
C14 C15 1_555 1_555
C17 C18 1_555 1_555
C21 C24 1_555 1_555
C22 C23 1_555 1_555

#END
