
#######################################################################
#
#                 Cambridge Crystallographic Data Centre
#                                CCDC 
#
#######################################################################
#
# If this CIF has been generated from an entry in the Cambridge 
# Structural Database, then it will include bibliographic, chemical, 
# crystal, experimental, refinement or atomic coordinate data resulting 
# from the CCDC's data processing and validation procedures.
#
#######################################################################

data_UBOVEP
_chemical_formula_moiety         'C24 H22 N2 O2 S1'
_chemical_name_systematic        
2'-methylene-1'-((4-methylphenyl)sulfonyl)-2,2',3,3'-tetrahydro-1'H-1,3'-biindole
_symmetry_cell_setting           monoclinic
_symmetry_space_group_name_H-M   'P 21/n'
_symmetry_Int_Tables_number      14
_space_group_name_Hall           '-P 2yn'
loop_
_symmetry_equiv_pos_site_id
_symmetry_equiv_pos_as_xyz
1 x,y,z
2 1/2-x,1/2+y,1/2-z
3 -x,-y,-z
4 1/2+x,1/2-y,1/2+z
_cell_length_a                   12.191(5)
_cell_length_b                   10.756(4)
_cell_length_c                   15.436(6)
_cell_angle_alpha                90
_cell_angle_beta                 93.731(6)
_cell_angle_gamma                90
_cell_volume                     2019.78
_exptl_crystal_colour            colorless
_exptl_crystal_description       block
_cell_formula_units_Z            4
loop_
_atom_site_label
_atom_site_type_symbol
_atom_site_fract_x
_atom_site_fract_y
_atom_site_fract_z
S1 S 0.34349(4) 0.83878(4) 0.36844(3)
C1 C 0.22840(17) 0.5729(2) 0.34441(14)
H1 H 0.2120 0.6312 0.3010
H2 H 0.2047 0.4911 0.3371
O1 O 0.24608(12) 0.83850(16) 0.31257(10)
O2 O 0.37312(13) 0.94732(12) 0.41690(10)
N1 N 0.22109(14) 0.47541(13) 0.53518(12)
N2 N 0.32901(11) 0.72639(12) 0.43996(8)
C2 C 0.17789(12) 0.35814(14) 0.53296(9)
C3 C 0.21420(14) 0.25183(16) 0.49322(11)
H3 H 0.2747 0.2541 0.4595
C4 C 0.15800(19) 0.14217(18) 0.50507(15)
H4 H 0.1814 0.0696 0.4792
C5 C 0.0679(2) 0.1385(2) 0.55453(18)
H5 H 0.0318 0.0635 0.5622
C6 C 0.03105(18) 0.2447(2) 0.59245(15)
H6 H -0.0302 0.2418 0.6253
C7 C 0.08485(13) 0.35489(15) 0.58170(10)
C8 C 0.06288(14) 0.48229(17) 0.61581(12)
H7 H 0.0646 0.4823 0.6787
H8 H -0.0080 0.5131 0.5929
C9 C 0.15649(14) 0.56045(16) 0.58341(12)
H9 H 0.1278 0.6273 0.5463
H10 H 0.2006 0.5960 0.6318
C10 C 0.31482(13) 0.51737(15) 0.49077(11)
H11 H 0.3535 0.4452 0.4688
C11 C 0.28512(12) 0.60603(16) 0.41614(10)
C12 C 0.40026(11) 0.71276(15) 0.51737(9)
C13 C 0.39322(12) 0.59256(15) 0.54824(10)
C14 C 0.45091(15) 0.5583(2) 0.62426(12)
H12 H 0.4454 0.4778 0.6455
C15 C 0.51719(17) 0.6448(2) 0.66879(12)
H13 H 0.5570 0.6228 0.7199
C16 C 0.52353(16) 0.7630(2) 0.63677(12)
H14 H 0.5685 0.8204 0.6669
C17 C 0.46563(15) 0.80010(18) 0.56146(11)
H15 H 0.4704 0.8811 0.5411
C18 C 0.45468(14) 0.79212(17) 0.30977(10)
C19 C 0.56116(15) 0.81587(18) 0.34298(12)
H16 H 0.5736 0.8628 0.3933
C20 C 0.64841(15) 0.76909(19) 0.30060(12)
H17 H 0.7198 0.7855 0.3226
C21 C 0.63194(16) 0.69839(19) 0.22624(12)
C22 C 0.52532(18) 0.6808(2) 0.19284(13)
H18 H 0.5131 0.6369 0.1412
C23 C 0.43641(16) 0.7263(2) 0.23352(12)
H19 H 0.3652 0.7128 0.2100
C24 C 0.7276(2) 0.6418(2) 0.18364(18)
H20 H 0.7935 0.6869 0.2008
H21 H 0.7145 0.6459 0.1217
H22 H 0.7360 0.5566 0.2013
loop_
_geom_bond_atom_site_label_1
_geom_bond_atom_site_label_2
_geom_bond_site_symmetry_1
_geom_bond_site_symmetry_2
S1 O1 1_555 1_555
C1 H1 1_555 1_555
H2 C1 1_555 1_555
O2 S1 1_555 1_555
N1 C2 1_555 1_555
N2 S1 1_555 1_555
C2 C3 1_555 1_555
C3 H3 1_555 1_555
C4 C3 1_555 1_555
H4 C4 1_555 1_555
C5 C4 1_555 1_555
H5 C5 1_555 1_555
C6 C5 1_555 1_555
H6 C6 1_555 1_555
C7 C2 1_555 1_555
C8 C7 1_555 1_555
H7 C8 1_555 1_555
H8 C8 1_555 1_555
C9 N1 1_555 1_555
H9 C9 1_555 1_555
H10 C9 1_555 1_555
C10 N1 1_555 1_555
H11 C10 1_555 1_555
C11 C1 1_555 1_555
C12 N2 1_555 1_555
C13 C10 1_555 1_555
C14 C13 1_555 1_555
H12 C14 1_555 1_555
C15 C14 1_555 1_555
H13 C15 1_555 1_555
C16 C15 1_555 1_555
H14 C16 1_555 1_555
C17 C12 1_555 1_555
H15 C17 1_555 1_555
C18 S1 1_555 1_555
C19 C18 1_555 1_555
H16 C19 1_555 1_555
C20 C19 1_555 1_555
H17 C20 1_555 1_555
C21 C20 1_555 1_555
C22 C21 1_555 1_555
H18 C22 1_555 1_555
C23 C18 1_555 1_555
H19 C23 1_555 1_555
C24 C21 1_555 1_555
H20 C24 1_555 1_555
H21 C24 1_555 1_555
H22 C24 1_555 1_555
N2 C11 1_555 1_555
C6 C7 1_555 1_555
C8 C9 1_555 1_555
C10 C11 1_555 1_555
C12 C13 1_555 1_555
C16 C17 1_555 1_555
C22 C23 1_555 1_555

#END
