
#######################################################################
#
#                 Cambridge Crystallographic Data Centre
#                                CCDC 
#
#######################################################################
#
# If this CIF has been generated from an entry in the Cambridge 
# Structural Database, then it will include bibliographic, chemical, 
# crystal, experimental, refinement or atomic coordinate data resulting 
# from the CCDC's data processing and validation procedures.
#
#######################################################################

data_UBOWUD
_chemical_formula_moiety         
'16(C19 H31 N5 O5 Si1),4(C6 H2 N3 O7 1-),2(Ba1 2+),11(H2 O1),12(C2 H3 N1)'
_chemical_name_systematic        
"hexadecakis((D)-5'-(Dimethyl(t-butyl)silyl)-2',3'-O-isopropylideneguanosine) di-barium tetrakis(picrate) acetonitrile solvate undecahydrate"
_symmetry_cell_setting           tetragonal
_symmetry_space_group_name_H-M   'I 4'
_symmetry_Int_Tables_number      79
_space_group_name_Hall           'I 4'
loop_
_symmetry_equiv_pos_site_id
_symmetry_equiv_pos_as_xyz
1 x,y,z
2 -x,-y,z
3 -y,x,z
4 y,-x,z
5 1/2+x,1/2+y,1/2+z
6 1/2-x,1/2-y,1/2+z
7 1/2-y,1/2+x,1/2+z
8 1/2+y,1/2-x,1/2+z
_cell_length_a                   30.780(4)
_cell_length_b                   30.780(4)
_cell_length_c                   25.831(5)
_cell_angle_alpha                90
_cell_angle_beta                 90
_cell_angle_gamma                90
_cell_volume                     24472.5
_exptl_crystal_colour            yellow
_exptl_crystal_description       block
_cell_formula_units_Z            2
loop_
_atom_site_label
_atom_site_type_symbol
_atom_site_fract_x
_atom_site_fract_y
_atom_site_fract_z
Ba1 Ba 0.5000 0.5000 0.25763(3)
Ba2 Ba 0.5000 0.5000 0.00003(3)
C1 C 0.6630(3) 0.4870(3) 0.3199(3)
N1 N 0.6176(2) 0.4849(2) 0.3188(3)
H1 H 0.6031 0.5096 0.3184
O1 O 0.55287(17) 0.44807(17) 0.3168(2)
C2 C 0.6646(3) 0.4155(3) 0.3196(4)
N2 N 0.6795(3) 0.5271(3) 0.3196(3)
H2 H 0.7078 0.5309 0.3205
H3 H 0.6621 0.5498 0.3184
O2 O 0.7378(2) 0.3442(2) 0.3740(4)
C3 C 0.6206(3) 0.4103(3) 0.3190(3)
N3 N 0.6873(2) 0.4519(3) 0.3217(3)
O3 O 0.7953(2) 0.3695(3) 0.2768(3)
C4 C 0.5938(3) 0.4466(3) 0.3184(3)
N4 N 0.6092(3) 0.3659(3) 0.3176(3)
O4 O 0.8275(2) 0.3848(3) 0.3514(3)
C5 C 0.6476(3) 0.3463(3) 0.3164(5)
H4 H 0.6506 0.3157 0.3143
N5 N 0.6835(2) 0.3744(3) 0.3185(3)
O5 O 0.7115(3) 0.3782(3) 0.4706(3)
C6 C 0.7279(3) 0.3574(3) 0.3220(5)
H5 H 0.7305 0.3316 0.2987
C7 C 0.7626(3) 0.3904(3) 0.3070(4)
H6 H 0.7501 0.4164 0.2891
C8 C 0.7838(4) 0.4020(4) 0.3587(4)
H7 H 0.7839 0.4340 0.3652
C9 C 0.8366(4) 0.3813(4) 0.2973(5)
C10 C 0.8498(5) 0.4235(5) 0.2759(7)
H8 H 0.8781 0.4317 0.2901
H9 H 0.8282 0.4456 0.2851
H10 H 0.8519 0.4213 0.2381
C11 C 0.8672(4) 0.3449(4) 0.2908(5)
H11 H 0.8556 0.3190 0.3079
H12 H 0.8952 0.3526 0.3062
H13 H 0.8711 0.3390 0.2538
C12 C 0.7610(4) 0.3775(4) 0.4006(5)
H14 H 0.7833 0.3635 0.4233
C13 C 0.7327(4) 0.4044(4) 0.4329(5)
H15 H 0.7502 0.4271 0.4504
H16 H 0.7107 0.4191 0.4110
Si1 Si 0.7117(3) 0.3857(3) 0.53056(18)
C14 C 0.7575(10) 0.4175(10) 0.5534(13)
H17 H 0.7839 0.4087 0.5348
H18 H 0.7616 0.4125 0.5906
H19 H 0.7519 0.4484 0.5472
C15 C 0.6680(13) 0.4276(13) 0.538(2)
H20 H 0.6618 0.4409 0.5047
H21 H 0.6778 0.4500 0.5626
H22 H 0.6416 0.4137 0.5518
C16 C 0.7030(8) 0.3404(8) 0.5608(10)
C17 C 0.6659(9) 0.3102(9) 0.5381(12)
H23 H 0.6473 0.3000 0.5664
H24 H 0.6791 0.2851 0.5207
H25 H 0.6485 0.3267 0.5132
C18 C 0.6995(10) 0.3424(10) 0.6251(17)
H26 H 0.6850 0.3694 0.6354
H27 H 0.7288 0.3416 0.6400
H28 H 0.6827 0.3175 0.6376
C19 C 0.7529(8) 0.3143(9) 0.5370(10)
H29 H 0.7722 0.3363 0.5223
H30 H 0.7455 0.2929 0.5104
H31 H 0.7676 0.2996 0.5658
Si2 Si 0.80672(13) 0.57433(12) 0.36629(13)
O6 O 0.5712(2) 0.47663(19) 0.2000(2)
N6 N 0.6116(2) 0.5386(2) 0.1941(2)
H32 H 0.5875 0.5538 0.1958
C20 C 0.6507(3) 0.5610(3) 0.1895(3)
C21 C 0.6857(3) 0.4982(3) 0.1889(3)
N7 N 0.6480(3) 0.6038(3) 0.1869(3)
H33 H 0.6717 0.6195 0.1833
H34 H 0.6224 0.6166 0.1887
O7 O 0.7751(2) 0.4938(2) 0.2414(2)
C22 C 0.6488(3) 0.4715(3) 0.1928(3)
N8 N 0.6888(2) 0.5409(2) 0.1867(3)
O8 O 0.8037(3) 0.4939(3) 0.1095(3)
N9 N 0.6581(2) 0.4285(3) 0.1939(3)
C23 C 0.6085(3) 0.4944(3) 0.1964(3)
O9 O 0.8542(3) 0.5121(4) 0.1680(4)
C24 C 0.7013(4) 0.4278(3) 0.1921(4)
H35 H 0.7178 0.4018 0.1928
N10 N 0.7196(3) 0.4685(3) 0.1893(3)
O10 O 0.7720(3) 0.5593(2) 0.3188(3)
C25 C 0.7652(3) 0.4770(3) 0.1917(4)
H36 H 0.7813 0.4490 0.1867
C26 C 0.7822(3) 0.5111(4) 0.1514(4)
H37 H 0.7577 0.5299 0.1394
C27 C 0.8138(4) 0.5374(4) 0.1824(4)
H38 H 0.8149 0.5687 0.1723
C28 C 0.8496(4) 0.4990(5) 0.1181(6)
C29 C 0.8668(5) 0.5316(7) 0.0790(6)
H39 H 0.8524 0.5597 0.0843
H40 H 0.8608 0.5212 0.0439
H41 H 0.8982 0.5350 0.0836
C30 C 0.8699(7) 0.4554(7) 0.1106(9)
H42 H 0.8579 0.4349 0.1358
H43 H 0.9014 0.4577 0.1155
H44 H 0.8638 0.4451 0.0754
C31 C 0.8027(3) 0.5301(3) 0.2394(3)
H45 H 0.8301 0.5228 0.2583
C32 C 0.7825(4) 0.5672(3) 0.2647(4)
H46 H 0.7556 0.5748 0.2458
H47 H 0.8025 0.5923 0.2624
C33 C 0.8516(5) 0.5371(6) 0.3720(6)
H48 H 0.8687 0.5376 0.3400
H49 H 0.8405 0.5077 0.3780
H50 H 0.8701 0.5458 0.4012
C34 C 0.8291(5) 0.6277(5) 0.3522(7)
H51 H 0.8474 0.6260 0.3212
H52 H 0.8467 0.6376 0.3816
H53 H 0.8054 0.6483 0.3461
C35 C 0.7713(5) 0.5755(4) 0.4256(4)
C36 C 0.7981(6) 0.5922(7) 0.4741(5)
H54 H 0.7792 0.5930 0.5046
H55 H 0.8092 0.6215 0.4671
H56 H 0.8226 0.5726 0.4806
C37 C 0.7318(5) 0.6032(5) 0.4176(5)
H57 H 0.7143 0.6033 0.4494
H58 H 0.7145 0.5914 0.3891
H59 H 0.7407 0.6329 0.4093
C38 C 0.7584(6) 0.5280(5) 0.4393(6)
H60 H 0.7399 0.5280 0.4702
H61 H 0.7847 0.5109 0.4461
H62 H 0.7425 0.5151 0.4103
Si3 Si 0.71827(10) 0.71188(10) -0.11226(11)
C39 C 0.6240(3) 0.6046(3) 0.0630(3)
N11 N 0.5861(2) 0.5808(2) 0.0614(2)
H63 H 0.5884 0.5523 0.0617
O11 O 0.5131(2) 0.57342(19) 0.0564(2)
C40 C 0.5845(3) 0.6642(3) 0.0617(3)
N12 N 0.6610(2) 0.5823(3) 0.0658(3)
H64 H 0.6859 0.5961 0.0684
H65 H 0.6605 0.5537 0.0650
O12 O 0.6275(2) 0.7411(2) 0.0070(2)
C41 C 0.5470(3) 0.6434(3) 0.0608(3)
N13 N 0.6243(3) 0.6469(2) 0.0642(3)
O13 O 0.6389(2) 0.7785(3) 0.1304(4)
C42 C 0.5458(2) 0.5976(3) 0.0593(3)
N14 N 0.5111(2) 0.6733(2) 0.0583(3)
O14 O 0.6928(3) 0.7944(3) 0.0758(3)
C43 C 0.5310(3) 0.7113(3) 0.0588(4)
H66 H 0.5161 0.7383 0.0590
N15 N 0.5762(2) 0.7077(2) 0.0589(3)
O15 O 0.6834(2) 0.6975(2) -0.0659(3)
C44 C 0.6067(3) 0.7435(3) 0.0544(4)
H67 H 0.5906 0.7717 0.0568
C45 C 0.6422(3) 0.7423(3) 0.0957(4)
H68 H 0.6428 0.7139 0.1145
C46 C 0.6841(3) 0.7511(3) 0.0675(4)
H69 H 0.7083 0.7320 0.0798
C47 C 0.6769(4) 0.8044(3) 0.1239(7)
C48 C 0.7094(5) 0.7925(6) 0.1664(6)
H70 H 0.7160 0.7614 0.1646
H71 H 0.6968 0.7993 0.2003
H72 H 0.7362 0.8092 0.1617
C49 C 0.6620(7) 0.8520(4) 0.1205(10)
H73 H 0.6423 0.8555 0.0910
H74 H 0.6874 0.8708 0.1159
H75 H 0.6468 0.8599 0.1525
C50 C 0.6741(3) 0.7441(3) 0.0113(3)
H76 H 0.6843 0.7699 -0.0087
C51 C 0.6952(3) 0.7027(3) -0.0122(4)
H77 H 0.7272 0.7048 -0.0093
H78 H 0.6856 0.6769 0.0076
C52 C 0.7664(4) 0.6770(4) -0.1082(5)
H79 H 0.7813 0.6822 -0.0753
H80 H 0.7861 0.6837 -0.1370
H81 H 0.7575 0.6465 -0.1102
C53 C 0.7358(4) 0.7682(4) -0.1043(5)
H82 H 0.7105 0.7875 -0.1064
H83 H 0.7565 0.7757 -0.1317
H84 H 0.7498 0.7717 -0.0705
C54 C 0.6869(4) 0.7045(4) -0.1741(4)
C55 C 0.7188(5) 0.7150(5) -0.2185(5)
H85 H 0.7040 0.7115 -0.2518
H86 H 0.7437 0.6952 -0.2169
H87 H 0.7290 0.7450 -0.2151
C56 C 0.6494(5) 0.7352(5) -0.1777(6)
H88 H 0.6340 0.7305 -0.2104
H89 H 0.6602 0.7652 -0.1763
H90 H 0.6296 0.7302 -0.1486
C57 C 0.6705(5) 0.6587(5) -0.1813(5)
H91 H 0.6547 0.6566 -0.2141
H92 H 0.6509 0.6512 -0.1527
H93 H 0.6951 0.6385 -0.1816
O21 O 0.7196(2) 0.6415(2) 0.1220(4)
C78 C 0.7585(3) 0.6496(3) 0.1357(5)
O22 O 0.7017(3) 0.6896(3) 0.2095(4)
O23 O 0.7501(3) 0.6766(3) 0.2684(4)
N21 N 0.7393(4) 0.6789(3) 0.2232(5)
C79 C 0.7720(4) 0.6686(4) 0.1840(4)
O24 O 0.8980(5) 0.6933(7) 0.2186(8)
C80 C 0.8132(4) 0.6765(4) 0.1975(6)
H127 H 0.8197 0.6881 0.2307
O25 O 0.9206(4) 0.6606(7) 0.1465(5)
C81 C 0.8470(4) 0.6678(5) 0.1621(6)
N22 N 0.8918(5) 0.6762(7) 0.1744(8)
C82 C 0.8368(4) 0.6505(5) 0.1150(5)
H128 H 0.8592 0.6455 0.0903
N23 N 0.7869(4) 0.6206(5) 0.0521(4)
O26 O 0.8060(5) 0.6297(5) 0.0151(5)
C83 C 0.7948(4) 0.6402(5) 0.1028(5)
O27 O 0.7590(4) 0.5927(5) 0.0497(4)
O29 O 0.9296(6) 0.4929(6) 0.6224(10)
N29 N 0.8979(8) 0.5944(8) 0.2405(10)
C94 C 0.9196(11) 0.5635(11) 0.2326(13)
C95 C 0.9424(18) 0.5194(18) 0.223(2)
H144 H 0.9504 0.5063 0.2563
H145 H 0.9686 0.5240 0.2022
H146 H 0.9225 0.4999 0.2046
H150 H 0.4234 0.4478 0.4616
O32 O 0.3890(7) 0.4379(7) 0.4345(8)
O31 O 0.3773(18) 0.4737(18) 0.549(2)
O33 O 0.4735(7) 0.3653(7) 0.4525(9)
Si4? Si 0.4906(2) 0.7003(2) -0.2643(2)
O16? O 0.47440(17) 0.56934(18) -0.0597(2)
N16? N 0.5344(2) 0.6127(2) -0.0661(3)
H94? H 0.5507 0.5892 -0.0675
C58? C 0.5552(3) 0.6515(3) -0.0670(3)
N17? N 0.5987(3) 0.6505(3) -0.0677(3)
H95? H 0.6135 0.6750 -0.0682
H96? H 0.6125 0.6255 -0.0675
O17? O 0.4615(7) 0.7795(3) -0.1262(7)
C59? C 0.4911(3) 0.6844(3) -0.0645(3)
O18? O 0.5074(2) 0.8244(2) -0.0391(3)
C60? C 0.4672(3) 0.6466(3) -0.0636(3)
N18? N 0.5345(2) 0.6889(3) -0.0672(3)
N19? N 0.4229(3) 0.6550(2) -0.0610(3)
C61? C 0.4901(3) 0.6068(3) -0.0632(3)
O19? O 0.5427(5) 0.8320(4) -0.1136(5)
N20? N 0.4604(3) 0.7175(2) -0.0639(3)
C62? C 0.4217(3) 0.6972(4) -0.0622(5)
H97? H 0.3951 0.7128 -0.0618
O20? O 0.4917(4) 0.7435(4) -0.2248(3)
C63? C 0.4659(5) 0.7649(3) -0.0656(6)
H98? H 0.4450 0.7805 -0.0425
C64? C 0.5107(3) 0.7810(3) -0.0603(4)
H99? H 0.5289 0.7615 -0.0383
C65? C 0.5297(6) 0.7871(4) -0.1138(6)
H100? H 0.5522 0.7656 -0.1248
C66? C 0.5431(4) 0.8479(4) -0.0619(7)
C67? C 0.5848(6) 0.8396(7) -0.0330(12)
H101? H 0.5928 0.8089 -0.0363
H102? H 0.5808 0.8468 0.0036
H103? H 0.6080 0.8577 -0.0475
C68? C 0.5302(5) 0.8953(4) -0.0630(8)
H104? H 0.5042 0.8989 -0.0845
H105? H 0.5541 0.9126 -0.0775
H106? H 0.5241 0.9052 -0.0277
C69? C 0.482(2) 0.796(2) -0.161(3)
H107? H 0.4743 0.8232 -0.1792
C70? C 0.5161(7) 0.7440(7) -0.1853(9)
H108? H 0.5470 0.7506 -0.1930
H109? H 0.5134 0.7181 -0.1629
C71? C 0.4658(11) 0.7416(10) -0.1793(13)
H110? H 0.4753 0.7189 -0.1545
H111? H 0.4343 0.7388 -0.1865
C72? C 0.5443(10) 0.6880(11) -0.2784(14)
H112? H 0.5454 0.6673 -0.3072
H113? H 0.5582 0.6752 -0.2479
H114? H 0.5597 0.7146 -0.2882
C73? C 0.4610(12) 0.6499(12) -0.2255(17)
H115? H 0.4475 0.6302 -0.2506
H116? H 0.4387 0.6616 -0.2023
H117? H 0.4827 0.6341 -0.2052
C74? C 0.454(2) 0.7152(19) -0.318(2)
C75? C 0.4120(10) 0.7216(10) -0.2931(13)
H118? H 0.4046 0.6958 -0.2727
H119? H 0.3898 0.7262 -0.3197
H120? H 0.4132 0.7470 -0.2703
C76? C 0.4571(17) 0.6725(17) -0.368(3)
H121? H 0.4485 0.6446 -0.3524
H122? H 0.4870 0.6705 -0.3805
H123? H 0.4375 0.6798 -0.3962
C77? C 0.4782(15) 0.7507(15) -0.3515(19)
H124? H 0.4802 0.7779 -0.3319
H125? H 0.4618 0.7557 -0.3835
H126? H 0.5075 0.7405 -0.3600
N24? N 0.4328(8) 0.5485(10) -0.1910(14)
C84? C 0.4627(6) 0.5267(6) -0.1858(8)
C85? C 0.5000 0.5000 -0.177(4)
H129? H 0.5112 0.4899 -0.2108
H130? H 0.4919 0.4749 -0.1562
H131? H 0.5225 0.5169 -0.1596
N25? N 0.9118(13) 0.5209(12) 0.5162(15)
C86? C 0.8803(17) 0.5355(16) 0.548(2)
C87? C 0.8584(12) 0.5305(12) 0.5901(15)
H132? H 0.8443 0.5580 0.5993
H133? H 0.8780 0.5216 0.6181
H134? H 0.8363 0.5080 0.5849
N26? N 1.018(3) 0.515(5) 0.346(4)
C88? C 1.0000 0.5000 0.385(2)
C89? C 0.9638(15) 0.491(2) 0.417(2)
H135? H 0.9737 0.4855 0.4527
H136? H 0.9491 0.4646 0.4041
H137? H 0.9437 0.5153 0.4166
N27? N 0.9624(18) 0.487(4) 0.373(5)
C90? C 1.0000 0.5000 0.385(2)
C91? C 1.030(3) 0.513(5) 0.388(6)
H138? H 1.0490 0.4999 0.3613
H139? H 1.0425 0.5076 0.4221
H140? H 1.0286 0.5446 0.3818
O28? O 0.9604(15) 0.4963(16) 0.5382(19)
N28? N 0.9037(7) 0.3782(7) 0.4324(8)
C92? C 0.8814(14) 0.4032(13) 0.4696(16)
C93? C 0.8548(15) 0.4196(14) 0.4856(18)
H141? H 0.8641 0.4354 0.5166
H142? H 0.8322 0.3986 0.4949
H143? H 0.8432 0.4402 0.4601
N30? N 1.0335(13) 0.5849(13) 0.2929(17)
C96? C 1.0161(11) 0.6154(12) 0.2692(15)
C97? C 0.9833(15) 0.6432(15) 0.253(2)
H147? H 0.9571 0.6263 0.2453
H148? H 0.9927 0.6585 0.2214
H149? H 0.9771 0.6644 0.2801
O30? O 1.040(2) 0.609(2) 0.206(3)
N31? N 0.5000 0.5000 0.4225(16)
C98? C 0.4613(9) 0.495(2) 0.437(2)
C99? C 0.428(2) 0.479(3) 0.469(4)
H151? H 0.4011 0.4948 0.4634
H152? H 0.4367 0.4818 0.5057
loop_
_geom_bond_atom_site_label_1
_geom_bond_atom_site_label_2
_geom_bond_site_symmetry_1
_geom_bond_site_symmetry_2
C1 N1 1_555 1_555
N1 H1 1_555 1_555
O1 C4 1_555 1_555
C2 C3 1_555 1_555
N2 C1 1_555 1_555
H2 N2 1_555 1_555
H3 N2 1_555 1_555
O2 C6 1_555 1_555
C3 C4 1_555 1_555
N3 C1 1_555 1_555
O3 C7 1_555 1_555
C4 N1 1_555 1_555
N4 C3 1_555 1_555
O4 C8 1_555 1_555
C5 N4 1_555 1_555
H4 C5 1_555 1_555
N5 C2 1_555 1_555
O5 C13 1_555 1_555
C6 N5 1_555 1_555
H5 C6 1_555 1_555
C7 C6 1_555 1_555
H6 C7 1_555 1_555
C8 C7 1_555 1_555
H7 C8 1_555 1_555
C9 O3 1_555 1_555
C10 C9 1_555 1_555
H8 C10 1_555 1_555
H9 C10 1_555 1_555
H10 C10 1_555 1_555
C11 C9 1_555 1_555
H11 C11 1_555 1_555
H12 C11 1_555 1_555
H13 C11 1_555 1_555
C12 O2 1_555 1_555
H14 C12 1_555 1_555
C13 C12 1_555 1_555
H15 C13 1_555 1_555
H16 C13 1_555 1_555
Si1 O5 1_555 1_555
C14 Si1 1_555 1_555
H17 C14 1_555 1_555
H18 C14 1_555 1_555
H19 C14 1_555 1_555
C15 Si1 1_555 1_555
H20 C15 1_555 1_555
H21 C15 1_555 1_555
H22 C15 1_555 1_555
C16 Si1 1_555 1_555
C17 C16 1_555 1_555
H23 C17 1_555 1_555
H24 C17 1_555 1_555
H25 C17 1_555 1_555
C18 C16 1_555 1_555
H26 C18 1_555 1_555
H27 C18 1_555 1_555
H28 C18 1_555 1_555
C19 C16 1_555 1_555
H29 C19 1_555 1_555
H30 C19 1_555 1_555
H31 C19 1_555 1_555
Si2 O10 1_555 1_555
O6 C23 1_555 1_555
N6 H32 1_555 1_555
C20 N6 1_555 1_555
C21 C22 1_555 1_555
N7 C20 1_555 1_555
H33 N7 1_555 1_555
H34 N7 1_555 1_555
O7 C25 1_555 1_555
C22 N9 1_555 1_555
N8 C20 1_555 1_555
O8 C26 1_555 1_555
N9 C24 1_555 1_555
C23 N6 1_555 1_555
O9 C27 1_555 1_555
C24 H35 1_555 1_555
N10 C21 1_555 1_555
O10 C32 1_555 1_555
C25 N10 1_555 1_555
H36 C25 1_555 1_555
C26 C25 1_555 1_555
H37 C26 1_555 1_555
C27 C26 1_555 1_555
H38 C27 1_555 1_555
C28 O8 1_555 1_555
C29 C28 1_555 1_555
H39 C29 1_555 1_555
H40 C29 1_555 1_555
H41 C29 1_555 1_555
C30 C28 1_555 1_555
H42 C30 1_555 1_555
H43 C30 1_555 1_555
H44 C30 1_555 1_555
C31 O7 1_555 1_555
H45 C31 1_555 1_555
C32 C31 1_555 1_555
H46 C32 1_555 1_555
H47 C32 1_555 1_555
C33 Si2 1_555 1_555
H48 C33 1_555 1_555
H49 C33 1_555 1_555
H50 C33 1_555 1_555
C34 Si2 1_555 1_555
H51 C34 1_555 1_555
H52 C34 1_555 1_555
H53 C34 1_555 1_555
C35 Si2 1_555 1_555
C36 C35 1_555 1_555
H54 C36 1_555 1_555
H55 C36 1_555 1_555
H56 C36 1_555 1_555
C37 C35 1_555 1_555
H57 C37 1_555 1_555
H58 C37 1_555 1_555
H59 C37 1_555 1_555
C38 C35 1_555 1_555
H60 C38 1_555 1_555
H61 C38 1_555 1_555
H62 C38 1_555 1_555
Si3 O15 1_555 1_555
C39 N11 1_555 1_555
N11 H63 1_555 1_555
O11 C42 1_555 1_555
C40 C41 1_555 1_555
N12 C39 1_555 1_555
H64 N12 1_555 1_555
H65 N12 1_555 1_555
O12 C44 1_555 1_555
C41 C42 1_555 1_555
N13 C39 1_555 1_555
O13 C45 1_555 1_555
C42 N11 1_555 1_555
N14 C41 1_555 1_555
O14 C46 1_555 1_555
C43 N14 1_555 1_555
H66 C43 1_555 1_555
N15 C40 1_555 1_555
O15 C51 1_555 1_555
C44 N15 1_555 1_555
H67 C44 1_555 1_555
C45 C44 1_555 1_555
H68 C45 1_555 1_555
C46 C45 1_555 1_555
H69 C46 1_555 1_555
C47 O13 1_555 1_555
C48 C47 1_555 1_555
H70 C48 1_555 1_555
H71 C48 1_555 1_555
H72 C48 1_555 1_555
C49 C47 1_555 1_555
H73 C49 1_555 1_555
H74 C49 1_555 1_555
H75 C49 1_555 1_555
C50 O12 1_555 1_555
H76 C50 1_555 1_555
C51 C50 1_555 1_555
H77 C51 1_555 1_555
H78 C51 1_555 1_555
C52 Si3 1_555 1_555
H79 C52 1_555 1_555
H80 C52 1_555 1_555
H81 C52 1_555 1_555
C53 Si3 1_555 1_555
H82 C53 1_555 1_555
H83 C53 1_555 1_555
H84 C53 1_555 1_555
C54 Si3 1_555 1_555
C55 C54 1_555 1_555
H85 C55 1_555 1_555
H86 C55 1_555 1_555
H87 C55 1_555 1_555
C56 C54 1_555 1_555
H88 C56 1_555 1_555
H89 C56 1_555 1_555
H90 C56 1_555 1_555
C57 C54 1_555 1_555
H91 C57 1_555 1_555
H92 C57 1_555 1_555
H93 C57 1_555 1_555
O21 C78 1_555 1_555
C78 C79 1_555 1_555
O22 N21 1_555 1_555
O23 N21 1_555 1_555
N21 C79 1_555 1_555
C79 C80 1_555 1_555
O24 N22 1_555 1_555
C80 H127 1_555 1_555
O25 N22 1_555 1_555
C81 C80 1_555 1_555
N22 C81 1_555 1_555
C82 C81 1_555 1_555
H128 C82 1_555 1_555
N23 O26 1_555 1_555
C83 C78 1_555 1_555
O27 N23 1_555 1_555
N29 C94 1_555 1_555
C94 C95 1_555 1_555
C95 H144 1_555 1_555
H145 C95 1_555 1_555
H146 C95 1_555 1_555
H150 O32 1_555 1_555
C2 N3 1_555 1_555
O4 C9 1_555 1_555
C5 N5 1_555 1_555
C8 C12 1_555 1_555
C21 N8 1_555 1_555
C22 C23 1_555 1_555
O9 C28 1_555 1_555
C24 N10 1_555 1_555
C27 C31 1_555 1_555
C40 N13 1_555 1_555
O14 C47 1_555 1_555
C43 N15 1_555 1_555
C46 C50 1_555 1_555
C82 C83 1_555 1_555
N23 C83 1_555 1_555

#END
