
#######################################################################
#
#                 Cambridge Crystallographic Data Centre
#                                CCDC 
#
#######################################################################
#
# If this CIF has been generated from an entry in the Cambridge 
# Structural Database, then it will include bibliographic, chemical, 
# crystal, experimental, refinement or atomic coordinate data resulting 
# from the CCDC's data processing and validation procedures.
#
#######################################################################

data_UBOWOX
_chemical_formula_moiety         'C27 H31 N1 O5'
_chemical_name_systematic        
'Methyl 6a-allyl-3-(benzyloxy)-5-methoxy-1,2,3,4,4a,5-hexahydro(2)benzofuro(7a,1-b)indole-11(6aH)-carboxylate'
_symmetry_cell_setting           monoclinic
_symmetry_space_group_name_H-M   'P 21/n'
_symmetry_Int_Tables_number      14
_space_group_name_Hall           '-P 2yn'
loop_
_symmetry_equiv_pos_site_id
_symmetry_equiv_pos_as_xyz
1 x,y,z
2 1/2+x,1/2-y,1/2+z
3 -x,-y,-z
4 1/2-x,1/2+y,1/2-z
_cell_length_a                   8.9289(5)
_cell_length_b                   14.1467(8)
_cell_length_c                   18.5624(11)
_cell_angle_alpha                90
_cell_angle_beta                 99.2350(10)
_cell_angle_gamma                90
_cell_volume                     2314.31
_exptl_crystal_colour            colorless
_exptl_crystal_description       needle
_cell_formula_units_Z            4
loop_
_atom_site_label
_atom_site_type_symbol
_atom_site_fract_x
_atom_site_fract_y
_atom_site_fract_z
N1 N 0.3923(2) 0.2822(2) 0.35158(12)
O1 O 0.6221(2) 0.20238(14) 0.24907(10)
O2 O 0.7514(2) 0.48950(13) 0.41456(11)
O3 O 0.4329(2) 0.30824(15) 0.19848(11)
O4 O 0.3888(2) 0.43595(14) 0.38028(11)
O5 O 0.1675(2) 0.3564(2) 0.35704(12)
C1 C 0.3323(3) 0.1913(2) 0.33475(14)
C2 C 0.1836(3) 0.1582(2) 0.3338(2)
H1 H 0.1094(33) 0.2020(20) 0.3458(14)
C3 C 0.1554(4) 0.0638(2) 0.3174(2)
H2 H 0.0496(37) 0.0406(22) 0.3166(16)
C4 C 0.2669(4) 0.0033(2) 0.3013(2)
H3 H 0.2422(33) -0.0615(21) 0.2897(15)
C5 C 0.4125(4) 0.0370(2) 0.3019(2)
H4 H 0.4866(35) -0.0028(22) 0.2897(16)
C6 C 0.4448(3) 0.1306(2) 0.31903(15)
C7 C 0.5932(3) 0.1831(2) 0.3229(2)
C8 C 0.5637(3) 0.2822(2) 0.35620(15)
C9 C 0.6338(3) 0.3001(2) 0.4361(2)
H5 H 0.5794(30) 0.3525(21) 0.4550(14)
H6 H 0.6259(28) 0.2451(19) 0.4643(14)
C10 C 0.8012(3) 0.3282(2) 0.4485(2)
H7 H 0.8296(28) 0.3485(18) 0.4979(15)
H8 H 0.8685(33) 0.2729(21) 0.4405(15)
C11 C 0.8330(3) 0.4068(2) 0.3981(2)
H9 H 0.9401(27) 0.4206(16) 0.4069(11)
C12 C 0.7850(3) 0.3767(3) 0.3192(2)
H10 H 0.8461(33) 0.3218(21) 0.3092(15)
H11 H 0.8019(32) 0.4279(22) 0.2857(16)
C13 C 0.6153(3) 0.3523(2) 0.3009(2)
H12 H 0.5591(29) 0.4093(18) 0.2981(13)
C14 C 0.5855(3) 0.2982(2) 0.2299(2)
H13 H 0.6470(32) 0.3194(20) 0.1906(15)
C15 C 0.3952(4) 0.2576(3) 0.1310(2)
H14 H 0.2907(42) 0.2779(23) 0.1075(18)
H15 H 0.4012(41) 0.1843(29) 0.1438(20)
H16 H 0.4781(41) 0.2842(24) 0.0977(18)
C16 C 0.7297(4) 0.1242(2) 0.3573(2)
H17 H 0.7366(29) 0.0732(20) 0.3222(14)
H18 H 0.8156(34) 0.1607(22) 0.3576(15)
C17 C 0.7239(4) 0.0806(2) 0.4304(2)
H19 H 0.6252(34) 0.0573(20) 0.4391(15)
C18 C 0.8407(6) 0.0721(3) 0.4835(3)
H20 H 0.8339(47) 0.0362(29) 0.5313(23)
H21 H 0.9491(55) 0.0963(31) 0.4768(23)
C19 C 0.3042(3) 0.3588(2) 0.36251(15)
C20 C 0.3071(5) 0.5184(3) 0.3989(2)
H22 H 0.3802(43) 0.5716(27) 0.4095(19)
H23 H 0.2682(39) 0.5039(24) 0.4444(20)
H24 H 0.2305(41) 0.5371(24) 0.3569(19)
C21 C 0.8270(4) 0.5745(2) 0.4010(3)
H25 H 0.8392(41) 0.5670(26) 0.3491(21)
H26 H 0.9258(46) 0.5775(26) 0.4411(21)
C22 C 0.7249(3) 0.6586(2) 0.4047(2)
C23 C 0.7495(4) 0.7199(3) 0.4629(2)
H27 H 0.8278(36) 0.7085(22) 0.5021(17)
C24 C 0.6615(4) 0.8000(3) 0.4643(2)
H28 H 0.6794(35) 0.8419(23) 0.5027(17)
C25 C 0.5464(4) 0.8190(3) 0.4073(2)
H29 H 0.4895(39) 0.8761(26) 0.4087(18)
C26 C 0.5203(4) 0.7585(3) 0.3489(2)
H30 H 0.4429(34) 0.7725(21) 0.3094(16)
C27 C 0.6080(4) 0.6790(3) 0.3474(2)
H31 H 0.5928(36) 0.6371(24) 0.3075(18)
loop_
_geom_bond_atom_site_label_1
_geom_bond_atom_site_label_2
_geom_bond_site_symmetry_1
_geom_bond_site_symmetry_2
N1 C1 1_555 1_555
O1 C7 1_555 1_555
O2 C11 1_555 1_555
O3 C14 1_555 1_555
O4 C19 1_555 1_555
O5 C19 1_555 1_555
C1 C2 1_555 1_555
C2 H1 1_555 1_555
C3 C2 1_555 1_555
H2 C3 1_555 1_555
C4 C3 1_555 1_555
H3 C4 1_555 1_555
C5 C4 1_555 1_555
H4 C5 1_555 1_555
C6 C1 1_555 1_555
C7 C6 1_555 1_555
C8 N1 1_555 1_555
C9 C8 1_555 1_555
H5 C9 1_555 1_555
H6 C9 1_555 1_555
C10 C9 1_555 1_555
H7 C10 1_555 1_555
H8 C10 1_555 1_555
C11 C10 1_555 1_555
H9 C11 1_555 1_555
C12 C11 1_555 1_555
H10 C12 1_555 1_555
H11 C12 1_555 1_555
C13 C8 1_555 1_555
H12 C13 1_555 1_555
C14 O1 1_555 1_555
H13 C14 1_555 1_555
C15 O3 1_555 1_555
H14 C15 1_555 1_555
H15 C15 1_555 1_555
H16 C15 1_555 1_555
C16 C7 1_555 1_555
H17 C16 1_555 1_555
H18 C16 1_555 1_555
C17 C16 1_555 1_555
H19 C17 1_555 1_555
C18 C17 1_555 1_555
H20 C18 1_555 1_555
H21 C18 1_555 1_555
C19 N1 1_555 1_555
C20 O4 1_555 1_555
H22 C20 1_555 1_555
H23 C20 1_555 1_555
H24 C20 1_555 1_555
C21 O2 1_555 1_555
H25 C21 1_555 1_555
H26 C21 1_555 1_555
C22 C21 1_555 1_555
C23 C22 1_555 1_555
H27 C23 1_555 1_555
C24 C23 1_555 1_555
H28 C24 1_555 1_555
C25 C24 1_555 1_555
H29 C25 1_555 1_555
C26 C25 1_555 1_555
H30 C26 1_555 1_555
C27 C22 1_555 1_555
H31 C27 1_555 1_555
C5 C6 1_555 1_555
C7 C8 1_555 1_555
C12 C13 1_555 1_555
C13 C14 1_555 1_555
C26 C27 1_555 1_555

#END
