
#######################################################################
#
#                 Cambridge Crystallographic Data Centre
#                                CCDC 
#
#######################################################################
#
# If this CIF has been generated from an entry in the Cambridge 
# Structural Database, then it will include bibliographic, chemical, 
# crystal, experimental, refinement or atomic coordinate data resulting 
# from the CCDC's data processing and validation procedures.
#
#######################################################################

data_UBUBIE
_chemical_formula_moiety         'C18 H14 N4 S4'
_chemical_name_systematic        
4,5-bis(2,5-dimethyl-3-thienyl)[1,2,5]thiadiazolo[3,4-e][2,1,3]benzothiadiazole
_symmetry_cell_setting           triclinic
_symmetry_space_group_name_H-M   'P -1'
_symmetry_Int_Tables_number      2
_space_group_name_Hall           '-P 1'
loop_
_symmetry_equiv_pos_site_id
_symmetry_equiv_pos_as_xyz
1 x,y,z
2 -x,-y,-z
_cell_length_a                   7.679(2)
_cell_length_b                   8.799(2)
_cell_length_c                   14.555(4)
_cell_angle_alpha                99.149(7)
_cell_angle_beta                 99.196(7)
_cell_angle_gamma                109.666(7)
_cell_volume                     889.906
_cell_formula_units_Z            2
loop_
_atom_site_label
_atom_site_type_symbol
_atom_site_fract_x
_atom_site_fract_y
_atom_site_fract_z
S1 S 0.0947(3) 0.0734(3) 0.33102(16)
S2 S 0.8573(3) 0.6128(3) 0.01882(18)
S3 S 0.7346(4) 0.6073(3) 0.45414(16)
S4 S 0.2013(3) -0.0553(3) -0.09955(16)
N1 N 0.8029(11) 0.5906(9) 0.1202(6)
N2 N 0.2226(11) -0.0115(9) 0.0156(5)
N3 N 0.7077(10) 0.4422(10) -0.0499(6)
N4 N 0.3741(11) 0.1006(10) -0.1113(5)
C1 C 0.6601(13) 0.4424(11) 0.1025(7)
C2 C 0.4558(12) 0.1966(11) -0.0226(6)
C3 C 0.5654(12) 0.3792(10) 0.1775(6)
C4 C 0.4204(12) 0.2227(10) 0.1510(6)
C5 C 0.2083(12) 0.2089(10) 0.2673(6)
C6 C 0.6093(13) 0.3578(11) 0.0056(7)
C7 C 0.1851(13) -0.0725(11) 0.2909(7)
C8 C 0.6764(12) 0.7319(10) 0.3844(6)
C9 C 0.3690(13) 0.1340(11) 0.0485(6)
C10 C 0.6282(13) 0.4862(11) 0.2743(6)
C11 C 0.6856(13) 0.4425(11) 0.3569(6)
C12 C 0.6820(14) 0.9021(11) 0.4247(7)
H1 H 0.8111 0.9795 0.4417
H2 H 0.6302 0.9007 0.4806
H3 H 0.6082 0.9349 0.3777
C13 C 0.6246(13) 0.6518(11) 0.2893(6)
H4 H 0.5909 0.6990 0.2399
C14 C 0.1473(14) -0.2308(11) 0.3236(7)
H5 H 0.1970 -0.3001 0.2869
H6 H 0.0128 -0.2871 0.3148
H7 H 0.2078 -0.2069 0.3900
C15 C 0.2950(13) -0.0176(11) 0.2291(6)
H8 H 0.3551 -0.0794 0.1985
C16 C 0.3097(13) 0.1459(11) 0.2152(6)
C17 C 0.1869(13) 0.3743(11) 0.2727(7)
H9 H 0.2612 0.4482 0.3327
H10 H 0.0557 0.3593 0.2675
H11 H 0.2302 0.4206 0.2213
C18 C 0.7124(14) 0.2902(11) 0.3722(7)
H12 H 0.6020 0.2194 0.3887
H13 H 0.8217 0.3179 0.4233
H14 H 0.7311 0.2338 0.3147
loop_
_geom_bond_atom_site_label_1
_geom_bond_atom_site_label_2
_geom_bond_site_symmetry_1
_geom_bond_site_symmetry_2
S1 C5 1_555 1_555
S2 N1 1_555 1_555
S3 C8 1_555 1_555
S4 N2 1_555 1_555
N1 C1 1_555 1_555
N2 C9 1_555 1_555
N3 S2 1_555 1_555
N4 S4 1_555 1_555
C1 C3 1_555 1_555
C2 N4 1_555 1_555
C3 C4 1_555 1_555
C4 C9 1_555 1_555
C5 C16 1_555 1_555
C6 N3 1_555 1_555
C7 S1 1_555 1_555
C8 C12 1_555 1_555
C9 C2 1_555 1_555
C10 C3 1_555 1_555
C11 S3 1_555 1_555
C12 H1 1_555 1_555
H2 C12 1_555 1_555
H3 C12 1_555 1_555
C13 C8 1_555 1_555
H4 C13 1_555 1_555
C14 C7 1_555 1_555
H5 C14 1_555 1_555
H6 C14 1_555 1_555
H7 C14 1_555 1_555
C15 C7 1_555 1_555
H8 C15 1_555 1_555
C16 C4 1_555 1_555
C17 C5 1_555 1_555
H9 C17 1_555 1_555
H10 C17 1_555 1_555
H11 C17 1_555 1_555
C18 C11 1_555 1_555
H12 C18 1_555 1_555
H13 C18 1_555 1_555
H14 C18 1_555 1_555
C1 C6 1_555 1_555
C2 C6 1_555 1_555
C10 C11 1_555 1_555
C10 C13 1_555 1_555
C15 C16 1_555 1_555

#END
