
#######################################################################
#
#                 Cambridge Crystallographic Data Centre
#                                CCDC 
#
#######################################################################
#
# If this CIF has been generated from an entry in the Cambridge 
# Structural Database, then it will include bibliographic, chemical, 
# crystal, experimental, refinement or atomic coordinate data resulting 
# from the CCDC's data processing and validation procedures.
#
#######################################################################

data_UBUDED
_chemical_compound_source        'Cytospora rhizophorae A761'
_chemical_name_common            'cytosporaphenone A'
_chemical_formula_moiety         'C15 H12 O8,1.5(H2 O1)'
_chemical_name_systematic        
'2-(2,6-dihydroxy-4-methylbenzene-1-carbonyl)-3,4,5-trihydroxybenzoic acid sesquihydrate'
_symmetry_cell_setting           triclinic
_symmetry_space_group_name_H-M   'P -1'
_symmetry_Int_Tables_number      2
_space_group_name_Hall           '-P 1'
loop_
_symmetry_equiv_pos_site_id
_symmetry_equiv_pos_as_xyz
1 x,y,z
2 -x,-y,-z
_cell_length_a                   7.8559(2)
_cell_length_b                   9.7417(3)
_cell_length_c                   10.1818(3)
_cell_angle_alpha                87.551(3)
_cell_angle_beta                 74.035(3)
_cell_angle_gamma                79.079(3)
_cell_volume                     735.553
_exptl_crystal_colour            colorless
_exptl_crystal_description       Plane
_cell_formula_units_Z            2
loop_
_atom_site_label
_atom_site_type_symbol
_atom_site_fract_x
_atom_site_fract_y
_atom_site_fract_z
O1 O 0.9780(3) 1.0201(2) 0.18134(19)
H1 H 0.9786 1.0249 0.2614
O2 O 0.8260(3) 0.9282(2) 0.06336(18)
O3 O 0.7560(3) 0.8736(2) 0.66302(18)
H2 H 0.6941 0.9398 0.7115
O4 O 0.4396(3) 0.7722(2) 0.67046(18)
H3 H 0.3573 0.7419 0.6536
O5 O 0.3545(3) 0.7402(2) 0.43214(19)
H4 H 0.2921 0.7356 0.5108
O6 O 0.4305(2) 0.91256(18) 0.15435(18)
O7 O 0.4819(3) 0.79924(19) -0.07708(18)
H5 H 0.4419 0.8594 -0.0169
O8 O 0.7450(3) 0.5624(2) 0.2629(2)
H6 H 0.7957 0.4836 0.2764
C1 C 0.7505(3) 0.8998(3) 0.3040(3)
C2 C 0.7993(3) 0.9144(3) 0.4237(3)
H7 H 0.8991 0.9539 0.4208
C3 C 0.6994(3) 0.8701(3) 0.5468(2)
C4 C 0.5470(3) 0.8138(3) 0.5529(3)
C5 C 0.4991(3) 0.7970(3) 0.4326(3)
C6 C 0.6023(3) 0.8369(3) 0.3078(2)
C7 C 0.8538(3) 0.9499(3) 0.1728(3)
C8 C 0.5435(3) 0.8164(3) 0.1827(2)
C9 C 0.6151(3) 0.6909(3) 0.0986(2)
C10 C 0.5857(3) 0.6893(3) -0.0328(3)
C11 C 0.6606(4) 0.5771(3) -0.1214(3)
H8 H 0.6420 0.5806 -0.2079
C12 C 0.7636(3) 0.4590(3) -0.0819(3)
C13 C 0.7917(4) 0.4556(3) 0.0476(3)
H9 H 0.8597 0.3762 0.0746
C14 C 0.7203(3) 0.5680(3) 0.1365(3)
C15 C 0.8429(4) 0.3353(3) -0.1763(3)
H10 H 0.8109 0.3544 -0.2606
H11 H 0.7968 0.2548 -0.1346
H12 H 0.9717 0.3175 -0.1942
O9 O 0.0855(4) 0.6919(4) 0.6615(4)
H13 H -0.002(6) 0.761(4) 0.672(8)
H14 H 0.045(8) 0.616(3) 0.669(9)
O10? O 0.0140(19) 0.5741(13) 0.5411(14)
H15? H 0.102(10) 0.504(8) 0.515(11)
loop_
_geom_bond_atom_site_label_1
_geom_bond_atom_site_label_2
_geom_bond_site_symmetry_1
_geom_bond_site_symmetry_2
O1 H1 1_555 1_555
O2 C7 1_555 1_555
O3 H2 1_555 1_555
O4 H3 1_555 1_555
O5 H4 1_555 1_555
O6 C8 1_555 1_555
O7 H5 1_555 1_555
O8 H6 1_555 1_555
C1 C2 1_555 1_555
C2 H7 1_555 1_555
C3 O3 1_555 1_555
C4 O4 1_555 1_555
C5 O5 1_555 1_555
C6 C1 1_555 1_555
C7 O1 1_555 1_555
C8 C6 1_555 1_555
C9 C8 1_555 1_555
C10 O7 1_555 1_555
C11 C10 1_555 1_555
H8 C11 1_555 1_555
C12 C11 1_555 1_555
C13 C12 1_555 1_555
H9 C13 1_555 1_555
C14 O8 1_555 1_555
C15 C12 1_555 1_555
H10 C15 1_555 1_555
H11 C15 1_555 1_555
H12 C15 1_555 1_555
O9 H13 1_555 1_555
H14 O9 1_555 1_555
C1 C7 1_555 1_555
C2 C3 1_555 1_555
C3 C4 1_555 1_555
C4 C5 1_555 1_555
C5 C6 1_555 1_555
C9 C10 1_555 1_555
C9 C14 1_555 1_555
C13 C14 1_555 1_555

#END
