
#######################################################################
#
#                 Cambridge Crystallographic Data Centre
#                                CCDC 
#
#######################################################################
#
# If this CIF has been generated from an entry in the Cambridge 
# Structural Database, then it will include bibliographic, chemical, 
# crystal, experimental, refinement or atomic coordinate data resulting 
# from the CCDC's data processing and validation procedures.
#
#######################################################################

data_UBUGON
_chemical_compound_source        'soft coral Nephthea chabroli'
_chemical_formula_moiety         'C17 H28 O3,H2 O1'
_chemical_name_systematic        'Chabrolol C monohydrate'
_symmetry_cell_setting           triclinic
_symmetry_space_group_name_H-M   'P -1'
_symmetry_Int_Tables_number      2
_space_group_name_Hall           '-P 1'
loop_
_symmetry_equiv_pos_site_id
_symmetry_equiv_pos_as_xyz
1 x,y,z
2 -x,-y,-z
_cell_length_a                   6.5350(10)
_cell_length_b                   10.3370(10)
_cell_length_c                   12.679(2)
_cell_angle_alpha                84.230(10)
_cell_angle_beta                 76.58(2)
_cell_angle_gamma                73.28(2)
_cell_volume                     797.363
_exptl_crystal_colour            colorless
_exptl_crystal_description       block
_cell_formula_units_Z            2
loop_
_atom_site_label
_atom_site_type_symbol
_atom_site_fract_x
_atom_site_fract_y
_atom_site_fract_z
O1 O 0.5774(2) 0.25660(9) 0.73557(8)
H1 H 0.4684(2) 0.22580(9) 0.73943(8)
O2 O 0.9066(2) 0.62843(10) 0.55805(8)
H2 H 0.9535(2) 0.55487(10) 0.52459(8)
O3 O 0.2551(2) 1.12126(9) 0.73980(8)
H3 H 0.1889(2) 1.13462(9) 0.68769(8)
C1 C 0.1458(2) 0.70732(13) 0.81459(11)
H4 H 0.0726(2) 0.69701(13) 0.75978(11)
C2 C 0.3316(2) 0.61617(12) 0.82188(10)
H5 H 0.3978(2) 0.62314(12) 0.88044(10)
C3 C 0.4454(2) 0.50237(11) 0.74638(9)
H6 H 0.3521(2) 0.49586(11) 0.69991(9)
C4 C 0.5170(2) 0.36569(12) 0.80936(10)
C5 C 0.7282(2) 0.37289(13) 0.83976(11)
H7 H 0.8303(2) 0.28488(13) 0.83799(11)
H8 H 0.6961(2) 0.40573(13) 0.91160(11)
C6 C 0.8249(2) 0.47027(14) 0.75618(13)
H9 H 0.9693(2) 0.42471(14) 0.71832(13)
H10 H 0.8326(2) 0.54616(14) 0.79148(13)
C7 C 0.6676(2) 0.51697(11) 0.67724(10)
H11 H 0.7142(2) 0.44796(11) 0.62471(10)
C8 C 0.6762(2) 0.65072(12) 0.61130(9)
C9 C 0.6197(2) 0.77645(11) 0.67804(10)
H12 H 0.6710(2) 0.76029(11) 0.74453(10)
C10 C 0.6347(2) 0.91014(13) 0.62070(12)
H13 H 0.6645(2) 0.91259(13) 0.54284(12)
H14 H 0.6985(2) 0.96638(13) 0.65125(12)
C11 C 0.4155(2) 0.89326(11) 0.68044(10)
H15 H 0.3258(2) 0.88217(11) 0.63369(10)
C12 C 0.2895(2) 0.98036(11) 0.77793(10)
C13 C 0.0596(2) 0.96118(13) 0.82350(12)
H16 H -0.0132(2) 0.97147(13) 0.76430(12)
H17 H -0.0210(2) 1.03313(13) 0.87176(12)
C14 C 0.0452(2) 0.82726(13) 0.88477(12)
H18 H 0.1199(2) 0.81421(13) 0.94352(12)
H19 H -0.1055(2) 0.83178(13) 0.91513(12)
C15 C 0.3440(3) 0.33952(14) 0.90642(11)
H20 H 0.3978(3) 0.25454(14) 0.94258(11)
H21 H 0.3050(3) 0.41102(14) 0.95628(11)
H22 H 0.2176(3) 0.33824(14) 0.88067(11)
C16 C 0.5421(3) 0.67040(14) 0.52438(11)
H23 H 0.5475(3) 0.75356(14) 0.48411(11)
H24 H 0.6036(3) 0.59635(14) 0.47634(11)
H25 H 0.3929(3) 0.67338(14) 0.55713(11)
C17 C 0.4161(3) 0.96527(15) 0.86726(12)
H26 H 0.3277(3) 1.02161(15) 0.92599(12)
H27 H 0.4537(3) 0.87281(15) 0.89325(12)
H28 H 0.5472(3) 0.99275(15) 0.83862(12)
O4 O 0.9680(2) 0.16369(12) 0.58847(10)
H29 H 0.8425(2) 0.18897(12) 0.63004(10)
H30 H 0.9671(2) 0.10256(12) 0.54862(10)
loop_
_geom_bond_atom_site_label_1
_geom_bond_atom_site_label_2
_geom_bond_site_symmetry_1
_geom_bond_site_symmetry_2
O1 H1 1_555 1_555
O2 H2 1_555 1_555
O3 H3 1_555 1_555
C1 H4 1_555 1_555
C2 C1 1_555 1_555
H5 C2 1_555 1_555
C3 C2 1_555 1_555
H6 C3 1_555 1_555
C4 O1 1_555 1_555
C5 C4 1_555 1_555
H7 C5 1_555 1_555
H8 C5 1_555 1_555
C6 C5 1_555 1_555
H9 C6 1_555 1_555
H10 C6 1_555 1_555
C7 C3 1_555 1_555
H11 C7 1_555 1_555
C8 O2 1_555 1_555
C9 C8 1_555 1_555
H12 C9 1_555 1_555
C10 C9 1_555 1_555
H13 C10 1_555 1_555
H14 C10 1_555 1_555
C11 C9 1_555 1_555
H15 C11 1_555 1_555
C12 O3 1_555 1_555
C13 C12 1_555 1_555
H16 C13 1_555 1_555
H17 C13 1_555 1_555
C14 C1 1_555 1_555
H18 C14 1_555 1_555
H19 C14 1_555 1_555
C15 C4 1_555 1_555
H20 C15 1_555 1_555
H21 C15 1_555 1_555
H22 C15 1_555 1_555
C16 C8 1_555 1_555
H23 C16 1_555 1_555
H24 C16 1_555 1_555
H25 C16 1_555 1_555
C17 C12 1_555 1_555
H26 C17 1_555 1_555
H27 C17 1_555 1_555
H28 C17 1_555 1_555
O4 H29 1_555 1_555
H30 O4 1_555 1_555
C3 C4 1_555 1_555
C6 C7 1_555 1_555
C7 C8 1_555 1_555
C10 C11 1_555 1_555
C11 C12 1_555 1_555
C13 C14 1_555 1_555

#END
