
#######################################################################
#
#                 Cambridge Crystallographic Data Centre
#                                CCDC 
#
#######################################################################
#
# If this CIF has been generated from an entry in the Cambridge 
# Structural Database, then it will include bibliographic, chemical, 
# crystal, experimental, refinement or atomic coordinate data resulting 
# from the CCDC's data processing and validation procedures.
#
#######################################################################

data_UBUGEG
_chemical_formula_moiety         'C25 H26 N2 O1'
_chemical_name_systematic        
2-(((4-(2-(4-(diethylamino)phenyl)vinyl)phenyl)imino)methyl)phenol
_symmetry_cell_setting           orthorhombic
_symmetry_space_group_name_H-M   'P n a 21'
_symmetry_Int_Tables_number      33
_space_group_name_Hall           'P 2c -2n'
loop_
_symmetry_equiv_pos_site_id
_symmetry_equiv_pos_as_xyz
1 x,y,z
2 -x,-y,1/2+z
3 1/2-x,1/2+y,1/2+z
4 1/2+x,1/2-y,z
_cell_length_a                   9.1021(8)
_cell_length_b                   30.573(3)
_cell_length_c                   7.4350(5)
_cell_angle_alpha                90
_cell_angle_beta                 90
_cell_angle_gamma                90
_cell_volume                     2069
_cell_formula_units_Z            4
loop_
_atom_site_label
_atom_site_type_symbol
_atom_site_fract_x
_atom_site_fract_y
_atom_site_fract_z
N1 N 0.6443(5) 0.60853(12) 0.3151(6)
N2 N -0.3529(5) 0.34067(14) 0.3355(8)
O1 O 0.6969(4) 0.68987(11) 0.2515(8)
H1 H 0.6504 0.6669 0.2540
C1 C 0.7787(6) 0.60451(16) 0.3644(8)
H2 H 0.8116 0.5772 0.4020
C2 C 0.8801(5) 0.64032(16) 0.3637(8)
C3 C 0.8369(6) 0.68240(16) 0.3069(9)
C4 C 0.9358(7) 0.71631(19) 0.3119(11)
H3 H 0.9071 0.7441 0.2757
C5 C 1.0764(7) 0.7093(2) 0.3701(10)
H4 H 1.1423 0.7325 0.3734
C6 C 1.1213(7) 0.6687(2) 0.4233(11)
H5 H 1.2176 0.6642 0.4607
C7 C 1.0244(6) 0.6349(2) 0.4213(10)
H6 H 1.0554 0.6075 0.4594
C8 C 0.5413(5) 0.57441(15) 0.3244(8)
C9 C 0.4066(6) 0.58136(16) 0.2429(9)
H7 H 0.3891 0.6073 0.1811
C10 C 0.2979(6) 0.54978(17) 0.2533(9)
H8 H 0.2074 0.5551 0.1996
C11 C 0.3200(6) 0.51055(15) 0.3412(8)
C12 C 0.4547(6) 0.50450(18) 0.4222(9)
H9 H 0.4723 0.4785 0.4837
C13 C 0.5647(6) 0.53575(16) 0.4153(8)
H10 H 0.6542 0.5307 0.4719
C14 C 0.2080(6) 0.47608(18) 0.3621(8)
H11 H 0.2363 0.4515 0.4269
C15 C 0.0754(7) 0.47614(18) 0.3010(9)
H12 H 0.0462 0.5009 0.2378
C16 C -0.0355(6) 0.44093(17) 0.3205(8)
C17 C -0.1718(6) 0.44570(17) 0.2459(9)
H13 H -0.1943 0.4719 0.1889
C18 C -0.2765(6) 0.41367(16) 0.2512(9)
H14 H -0.3674 0.4187 0.1982
C19 C -0.2493(6) 0.37310(16) 0.3354(9)
C20 C -0.1126(6) 0.36860(19) 0.4164(9)
H15 H -0.0900 0.3426 0.4754
C21 C -0.0090(6) 0.40190(19) 0.4115(9)
H16 H 0.0802 0.3981 0.4704
C22 C -0.3357(7) 0.30114(19) 0.4426(11)
H17 H -0.4321 0.2909 0.4789
H18 H -0.2812 0.3082 0.5508
C23 C -0.2568(8) 0.2645(2) 0.3441(14)
H19 H -0.3113 0.2568 0.2382
H20 H -0.2491 0.2395 0.4216
H21 H -0.1603 0.2741 0.3104
C24 C -0.4825(6) 0.34195(19) 0.2223(10)
H22 H -0.5064 0.3123 0.1861
H23 H -0.4594 0.3584 0.1143
C25 C -0.6135(6) 0.3616(2) 0.3074(12)
H24 H -0.6379 0.3456 0.4143
H25 H -0.6946 0.3605 0.2249
H26 H -0.5931 0.3915 0.3381
loop_
_geom_bond_atom_site_label_1
_geom_bond_atom_site_label_2
_geom_bond_site_symmetry_1
_geom_bond_site_symmetry_2
N1 C1 1_555 1_555
N2 C19 1_555 1_555
O1 H1 1_555 1_555
C1 H2 1_555 1_555
C2 C1 1_555 1_555
C3 O1 1_555 1_555
C4 C3 1_555 1_555
H3 C4 1_555 1_555
C5 C4 1_555 1_555
H4 C5 1_555 1_555
C6 C5 1_555 1_555
H5 C6 1_555 1_555
C7 C2 1_555 1_555
H6 C7 1_555 1_555
C8 N1 1_555 1_555
C9 C8 1_555 1_555
H7 C9 1_555 1_555
C10 C9 1_555 1_555
H8 C10 1_555 1_555
C11 C10 1_555 1_555
C12 C11 1_555 1_555
H9 C12 1_555 1_555
C13 C8 1_555 1_555
H10 C13 1_555 1_555
C14 C11 1_555 1_555
H11 C14 1_555 1_555
C15 C14 1_555 1_555
H12 C15 1_555 1_555
C16 C15 1_555 1_555
C17 C16 1_555 1_555
H13 C17 1_555 1_555
C18 C17 1_555 1_555
H14 C18 1_555 1_555
C19 C18 1_555 1_555
C20 C19 1_555 1_555
H15 C20 1_555 1_555
C21 C16 1_555 1_555
H16 C21 1_555 1_555
C22 N2 1_555 1_555
H17 C22 1_555 1_555
H18 C22 1_555 1_555
C23 C22 1_555 1_555
H19 C23 1_555 1_555
H20 C23 1_555 1_555
H21 C23 1_555 1_555
C24 N2 1_555 1_555
H22 C24 1_555 1_555
H23 C24 1_555 1_555
C25 C24 1_555 1_555
H24 C25 1_555 1_555
H25 C25 1_555 1_555
H26 C25 1_555 1_555
C2 C3 1_555 1_555
C6 C7 1_555 1_555
C12 C13 1_555 1_555
C20 C21 1_555 1_555

#END
