
#######################################################################
#
#                 Cambridge Crystallographic Data Centre
#                                CCDC 
#
#######################################################################
#
# If this CIF has been generated from an entry in the Cambridge 
# Structural Database, then it will include bibliographic, chemical, 
# crystal, experimental, refinement or atomic coordinate data resulting 
# from the CCDC's data processing and validation procedures.
#
#######################################################################

data_UBUHUW
_chemical_name_common            
"2-Methylresorcinol 4,4'-bipyridine hemikis(biphenyl)"
_chemical_formula_moiety         'C7 H8 O2,C10 H8 N2,0.5(C12 H10)'
_chemical_name_systematic        
"2-Methylbenzene-1,3-diol 4,4'-bipyridine hemikis(biphenyl)"
_symmetry_cell_setting           monoclinic
_symmetry_space_group_name_H-M   'C 2/c'
_symmetry_Int_Tables_number      15
_space_group_name_Hall           '-C 2yn'
loop_
_symmetry_equiv_pos_site_id
_symmetry_equiv_pos_as_xyz
1 x,y,z
2 -x,y,1/2-z
3 1/2+x,1/2+y,z
4 1/2-x,1/2+y,1/2-z
5 -x,-y,-z
6 x,-y,1/2+z
7 1/2-x,1/2-y,-z
8 1/2+x,1/2-y,1/2+z
_cell_length_a                   26.380(5)
_cell_length_b                   7.5320(15)
_cell_length_c                   19.030(4)
_cell_angle_alpha                90
_cell_angle_beta                 101.93(3)
_cell_angle_gamma                90
_cell_volume                     3699.48
_exptl_crystal_colour            colorless
_exptl_crystal_description       block
_cell_formula_units_Z            8
loop_
_atom_site_label
_atom_site_type_symbol
_atom_site_fract_x
_atom_site_fract_y
_atom_site_fract_z
C1 C -0.02807(15) 0.8652(5) 0.3309(2)
H1 H -0.0622 0.8328 0.3077
C2 C 0.06984(16) 0.9596(5) 0.4001(2)
H2 H 0.1037 0.9932 0.4243
C3 C 0.05703(14) 0.9655(5) 0.3262(2)
H3 H 0.0821 1.0023 0.2999
C4 C 0.00719(13) 0.9174(4) 0.28957(18)
C5 C 0.03451(16) 0.9060(5) 0.4392(2)
H4 H 0.0440 0.9013 0.4902
C6 C -0.01444(17) 0.8594(5) 0.4051(2)
H5 H -0.0391 0.8231 0.4322
C1A C 0.02807(15) 0.8652(5) 0.1691(2)
H1A H 0.0622 0.8328 0.1923
C2A C -0.06984(16) 0.9596(5) 0.0999(2)
H2A H -0.1037 0.9932 0.0757
C3A C -0.05703(14) 0.9655(5) 0.1738(2)
H3A H -0.0821 1.0023 0.2001
C4A C -0.00719(13) 0.9174(4) 0.21043(18)
C5A C -0.03451(16) 0.9060(5) 0.0608(2)
H4A H -0.0440 0.9013 0.0098
C6A C 0.01444(17) 0.8594(5) 0.0949(2)
H5A H 0.0391 0.8231 0.0678
N1 N 0.06735(12) 0.4180(4) 0.43144(15)
C7 C 0.01412(12) 0.4251(4) 0.28832(15)
C8 C -0.01081(13) 0.3779(4) 0.34335(16)
H6 H -0.0465 0.3475 0.3329
C9 C 0.01696(14) 0.3757(5) 0.41306(17)
H7 H -0.0005 0.3425 0.4500
C10 C 0.09079(14) 0.4645(4) 0.37858(18)
H8 H 0.1265 0.4953 0.3907
C11 C 0.06609(13) 0.4704(4) 0.30720(17)
H9 H 0.0845 0.5050 0.2715
N1A N -0.06735(12) 0.4180(4) 0.06856(15)
C7A C -0.01412(12) 0.4251(4) 0.21168(15)
C8A C 0.01081(13) 0.3779(4) 0.15665(16)
H6A H 0.0465 0.3475 0.1671
C9A C -0.01696(14) 0.3757(5) 0.08694(17)
H7A H 0.0005 0.3425 0.0500
C10A C -0.09079(14) 0.4645(4) 0.12142(18)
H8A H -0.1265 0.4953 0.1093
C11A C -0.06609(13) 0.4704(4) 0.19280(17)
H9A H -0.0845 0.5050 0.2285
N2 N 0.29364(10) 0.6183(3) 0.11464(14)
C12 C 0.25954(12) 0.3270(4) 0.02403(15)
C13 C 0.25835(13) 0.3246(4) 0.09638(16)
H10 H 0.2462 0.2222 0.1169
C14 C 0.27931(14) 0.4800(4) -0.00109(17)
H11 H 0.2815 0.4885 -0.0502
C15 C 0.29571(14) 0.6191(4) 0.04477(18)
H12 H 0.3093 0.7214 0.0260
C16 C 0.27474(13) 0.4707(4) 0.13876(17)
H13 H 0.2725 0.4662 0.1879
N2F N 0.20636(10) -0.1183(3) -0.11464(14)
C12F C 0.24046(12) 0.1730(4) -0.02403(15)
C13F C 0.24165(13) 0.1754(4) -0.09638(16)
H10F H 0.2538 0.2778 -0.1169
C14F C 0.22069(14) 0.0200(4) 0.00109(17)
H11F H 0.2185 0.0115 0.0502
C15F C 0.20429(14) -0.1191(4) -0.04477(18)
H12F H 0.1907 -0.2214 -0.0260
C16F C 0.22526(13) 0.0293(4) -0.13876(17)
H13F H 0.2275 0.0338 -0.1879
O1 O 0.19193(9) 0.4105(3) 0.29361(11)
H14 H 0.1957 0.3037 0.3254
O2 O 0.12923(9) 0.6452(3) 0.06275(12)
H15 H 0.1105 0.6096 0.0191
C17 C 0.16904(11) 0.3786(4) 0.22293(15)
C18 C 0.16026(11) 0.5255(4) 0.17789(16)
C19 C 0.13756(12) 0.4989(4) 0.10617(16)
C20 C 0.15527(12) 0.2073(4) 0.19746(17)
H16 H 0.1610 0.1081 0.2289
C21 C 0.12432(12) 0.3287(4) 0.07936(17)
H17 H 0.1094 0.3119 0.0299
C22 C 0.13308(12) 0.1857(4) 0.12525(17)
H18 H 0.1238 0.0700 0.1072
C23 C 0.17595(13) 0.7086(4) 0.20697(18)
H19 H 0.1651 0.7969 0.1690
H20 H 0.2137 0.7134 0.2234
H21 H 0.1593 0.7342 0.2473
loop_
_geom_bond_atom_site_label_1
_geom_bond_atom_site_label_2
_geom_bond_site_symmetry_1
_geom_bond_site_symmetry_2
C1 H1 1_555 1_555
C2 H2 1_555 1_555
C3 C2 1_555 1_555
H3 C3 1_555 1_555
C4 C1 1_555 1_555
C5 C2 1_555 1_555
H4 C5 1_555 1_555
C6 C1 1_555 1_555
H5 C6 1_555 1_555
N1 C9 1_555 1_555
C7 C8 1_555 1_555
C8 H6 1_555 1_555
C9 C8 1_555 1_555
H7 C9 1_555 1_555
C10 N1 1_555 1_555
H8 C10 1_555 1_555
C11 C7 1_555 1_555
H9 C11 1_555 1_555
N2 C15 1_555 1_555
C12 C13 1_555 1_555
C13 H10 1_555 1_555
C14 C12 1_555 1_555
H11 C14 1_555 1_555
C15 C14 1_555 1_555
H12 C15 1_555 1_555
C16 N2 1_555 1_555
H13 C16 1_555 1_555
O1 H14 1_555 1_555
O2 H15 1_555 1_555
C17 O1 1_555 1_555
C18 C17 1_555 1_555
C19 O2 1_555 1_555
C20 C17 1_555 1_555
H16 C20 1_555 1_555
C21 C19 1_555 1_555
H17 C21 1_555 1_555
C22 C20 1_555 1_555
H18 C22 1_555 1_555
C23 C18 1_555 1_555
H19 C23 1_555 1_555
H20 C23 1_555 1_555
H21 C23 1_555 1_555
C1A H1A 1_555 1_555
C2A H2A 1_555 1_555
C3A C2A 1_555 1_555
H3A C3A 1_555 1_555
C4A C4 1_555 1_555
C5A C2A 1_555 1_555
H4A C5A 1_555 1_555
C6A C1A 1_555 1_555
H5A C6A 1_555 1_555
N1A C9A 1_555 1_555
C7A C7 1_555 1_555
C8A C7A 1_555 1_555
H6A C8A 1_555 1_555
C9A C8A 1_555 1_555
H7A C9A 1_555 1_555
C10A N1A 1_555 1_555
H8A C10A 1_555 1_555
C11A C7A 1_555 1_555
H9A C11A 1_555 1_555
N2F C15F 1_555 1_555
C12F C12 1_555 1_555
C13F C12F 1_555 1_555
H10F C13F 1_555 1_555
C14F C12F 1_555 1_555
H11F C14F 1_555 1_555
C15F C14F 1_555 1_555
H12F C15F 1_555 1_555
C16F N2F 1_555 1_555
H13F C16F 1_555 1_555
C3 C4 1_555 1_555
C5 C6 1_555 1_555
C10 C11 1_555 1_555
C13 C16 1_555 1_555
C18 C19 1_555 1_555
C21 C22 1_555 1_555
C1A C4A 1_555 1_555
C3A C4A 1_555 1_555
C5A C6A 1_555 1_555
C10A C11A 1_555 1_555
C13F C16F 1_555 1_555

#END
