
#######################################################################
#
#                 Cambridge Crystallographic Data Centre
#                                CCDC 
#
#######################################################################
#
# If this CIF has been generated from an entry in the Cambridge 
# Structural Database, then it will include bibliographic, chemical, 
# crystal, experimental, refinement or atomic coordinate data resulting 
# from the CCDC's data processing and validation procedures.
#
#######################################################################

data_UBUHIK
_chemical_name_common            
"2-Methylresorcinol 4,4'-bipyridine hemikis(2,2'-bithiophene)"
_chemical_formula_moiety         'C7 H8 O2,C10 H8 N2,0.5(C8 H6 S2)'
_chemical_name_systematic        
"2-Methylbenzene-1,3-diol 4,4'-bipyridine hemikis(2,2'-bithiophene)"
_symmetry_cell_setting           triclinic
_symmetry_space_group_name_H-M   'P -1'
_symmetry_Int_Tables_number      2
_space_group_name_Hall           '-P 1'
loop_
_symmetry_equiv_pos_site_id
_symmetry_equiv_pos_as_xyz
1 x,y,z
2 -x,-y,-z
_cell_length_a                   7.4470(15)
_cell_length_b                   9.4240(19)
_cell_length_c                   14.075(3)
_cell_angle_alpha                72.08(3)
_cell_angle_beta                 76.66(3)
_cell_angle_gamma                89.64(3)
_cell_volume                     912.274
_exptl_crystal_colour            colorless
_exptl_crystal_description       needle
_cell_formula_units_Z            2
loop_
_atom_site_label
_atom_site_type_symbol
_atom_site_fract_x
_atom_site_fract_y
_atom_site_fract_z
C1 C 0.37695(17) 0.14734(14) 0.58180(11)
S1 S 0.5403(2) 0.19401(14) 0.36995(12)
C19 C 0.3885(4) 0.3161(4) 0.5053(3)
H4 H 0.3429 0.3957 0.5301
C20 C 0.4660(4) 0.3396(3) 0.4043(3)
H5 H 0.4770 0.4364 0.3553
C21 C 0.4812(3) 0.0785(3) 0.48895(19)
C1A C 0.62305(17) -0.14734(14) 0.41820(11)
S1A S 0.4597(2) -0.19401(14) 0.63005(12)
C19A C 0.6115(4) -0.3161(4) 0.4947(3)
H4A H 0.6571 -0.3957 0.4699
C20A C 0.5340(4) -0.3396(3) 0.5957(3)
H5A H 0.5230 -0.4364 0.6447
C21A C 0.5188(3) -0.0785(3) 0.51105(19)
C2 C 0.2327(3) 0.9977(2) 0.15554(17)
C3 C 0.0688(3) 0.9067(2) 0.18184(16)
C4 C 0.0716(3) 0.7545(2) 0.23543(16)
C5 C 0.2327(3) 0.6937(3) 0.25931(18)
C6 C 0.3931(3) 0.7863(3) 0.2312(2)
C7 C 0.3948(3) 0.9386(3) 0.1795(2)
C8 C -0.1029(3) 0.9718(3) 0.1526(2)
H1 H -0.0782 1.0152 0.0776
H2 H -0.1393 1.0498 0.1845
H3 H -0.2031 0.8929 0.1765
O1 O 0.2242(2) 1.14601(18) 0.10577(14)
O2 O -0.0902(2) 0.66806(18) 0.26125(13)
H6 H 0.512(4) 0.742(3) 0.245(2)
H7 H 0.231(4) 0.584(4) 0.296(2)
H10 H 0.510(4) 1.008(3) 0.159(2)
H17 H -0.069(6) 0.575(5) 0.292(3)
H18 H 0.329(5) 1.189(4) 0.094(3)
C9 C 0.5884(4) 0.4173(3) 0.1092(2)
C10 C 0.7593(4) 0.4934(3) 0.0849(2)
C11 C 0.9061(3) 0.4607(2) 0.01482(16)
C12 C 0.8700(4) 0.3505(3) -0.0255(2)
C13 C 0.6946(4) 0.2799(3) 0.0032(2)
N1 N 0.5534(3) 0.3106(2) 0.06991(15)
H8 H 0.963(5) 0.323(4) -0.075(3)
H9 H 0.673(4) 0.209(4) -0.025(2)
H11 H 0.483(5) 0.445(4) 0.162(3)
H13 H 0.766(4) 0.567(4) 0.121(2)
C9A C 1.4116(4) 0.5827(3) -0.1092(2)
C10A C 1.2407(4) 0.5066(3) -0.0849(2)
C11A C 1.0939(3) 0.5393(2) -0.01482(16)
C12A C 1.1300(4) 0.6495(3) 0.0255(2)
C13A C 1.3054(4) 0.7201(3) -0.0032(2)
N1A N 1.4466(3) 0.6894(2) -0.06991(15)
H8A H 1.037(5) 0.677(4) 0.075(3)
H9A H 1.327(4) 0.791(4) 0.025(2)
H11A H 1.517(5) 0.555(4) -0.162(3)
H13A H 1.234(4) 0.433(4) -0.121(2)
C14 C 1.0249(5) 0.2854(3) 0.3161(2)
C15 C 1.0465(4) 0.1368(3) 0.3648(2)
C16 C 0.9897(3) 0.0793(2) 0.47180(18)
C17 C 0.9126(4) 0.1783(3) 0.5231(2)
C18 C 0.8963(4) 0.3245(3) 0.4677(2)
N2 N 0.9511(3) 0.3798(2) 0.36541(18)
H12 H 0.842(4) 0.397(4) 0.510(2)
H14 H 0.861(5) 0.154(4) 0.598(3)
H15 H 1.075(5) 0.325(4) 0.242(3)
H16 H 1.107(5) 0.075(4) 0.324(3)
C14A C 0.9751(5) -0.2854(3) 0.6839(2)
C15A C 0.9535(4) -0.1368(3) 0.6352(2)
C16A C 1.0103(3) -0.0793(2) 0.52820(18)
C17A C 1.0874(4) -0.1783(3) 0.4769(2)
C18A C 1.1037(4) -0.3245(3) 0.5323(2)
N2A N 1.0489(3) -0.3798(2) 0.63459(18)
H12A H 1.158(4) -0.397(4) 0.490(2)
H14A H 1.139(5) -0.154(4) 0.402(3)
H15A H 0.925(5) -0.325(4) 0.758(3)
H16A H 0.893(5) -0.075(4) 0.676(3)
C22? C 0.5403(2) 0.19401(14) 0.36995(12)
S2? S 0.37695(17) 0.14734(14) 0.58180(11)
loop_
_geom_bond_atom_site_label_1
_geom_bond_atom_site_label_2
_geom_bond_site_symmetry_1
_geom_bond_site_symmetry_2
C1 C19 1_555 1_555
S1 C20 1_555 1_555
C2 C3 1_555 1_555
C3 C4 1_555 1_555
C4 C5 1_555 1_555
C5 C6 1_555 1_555
C6 C7 1_555 1_555
C7 C2 1_555 1_555
C8 C3 1_555 1_555
H1 C8 1_555 1_555
H2 C8 1_555 1_555
H3 C8 1_555 1_555
C9 C10 1_555 1_555
C10 C11 1_555 1_555
C11 C12 1_555 1_555
C12 C13 1_555 1_555
C13 N1 1_555 1_555
C14 C15 1_555 1_555
C15 C16 1_555 1_555
C16 C17 1_555 1_555
C17 C18 1_555 1_555
C18 N2 1_555 1_555
C19 H4 1_555 1_555
C20 C19 1_555 1_555
H5 C20 1_555 1_555
C21 C1 1_555 1_555
N1 C9 1_555 1_555
N2 C14 1_555 1_555
O1 C2 1_555 1_555
O2 C4 1_555 1_555
H6 C6 1_555 1_555
H7 C5 1_555 1_555
H8 C12 1_555 1_555
H9 C13 1_555 1_555
H10 C7 1_555 1_555
H11 C9 1_555 1_555
H12 C18 1_555 1_555
H13 C10 1_555 1_555
H14 C17 1_555 1_555
H15 C14 1_555 1_555
H16 C15 1_555 1_555
H17 O2 1_555 1_555
H18 O1 1_555 1_555
C1A C19A 1_555 1_555
S1A C20A 1_555 1_555
C9A C10A 1_555 1_555
C10A C11A 1_555 1_555
C11A C11 1_555 1_555
C12A C11A 1_555 1_555
C13A C12A 1_555 1_555
C14A C15A 1_555 1_555
C15A C16A 1_555 1_555
C16A C16 1_555 1_555
C17A C16A 1_555 1_555
C18A C17A 1_555 1_555
C19A H4A 1_555 1_555
C20A C19A 1_555 1_555
H5A C20A 1_555 1_555
C21A C21 1_555 1_555
N1A C9A 1_555 1_555
N2A C14A 1_555 1_555
H8A C12A 1_555 1_555
H9A C13A 1_555 1_555
H11A C9A 1_555 1_555
H12A C18A 1_555 1_555
H13A C10A 1_555 1_555
H14A C17A 1_555 1_555
H15A C14A 1_555 1_555
H16A C15A 1_555 1_555
S1 C21 1_555 1_555
C1A C21A 1_555 1_555
S1A C21A 1_555 1_555
C13A N1A 1_555 1_555
C18A N2A 1_555 1_555

#END
